
#######################################################################
#
#                 Cambridge Crystallographic Data Centre
#                                CCDC 
#
#######################################################################
#
# If this CIF has been generated from an entry in the Cambridge 
# Structural Database, then it will include bibliographic, chemical, 
# crystal, experimental, refinement or atomic coordinate data resulting 
# from the CCDC's data processing and validation procedures.
#
#######################################################################

data_KUCDUI
_chemical_formula_moiety         'C16 H21 B1 N8,C4 H11 N1 O1,H2 O1'
_chemical_name_systematic        
'tris(4-Methylimidazol-1-yl)(4-methylimidazolium-1-yl)borate 2-amino-1-butanol monohydrate'
_symmetry_cell_setting           tetragonal
_symmetry_space_group_name_H-M   'I -4'
_symmetry_Int_Tables_number      82
_space_group_name_Hall           'I -4'
loop_
_symmetry_equiv_pos_site_id
_symmetry_equiv_pos_as_xyz
1 x,y,z
2 -x,-y,z
3 y,-x,-z
4 -y,x,-z
5 1/2+x,1/2+y,1/2+z
6 1/2-x,1/2-y,1/2+z
7 1/2+y,1/2-x,1/2-z
8 1/2-y,1/2+x,1/2-z
_cell_length_a                   18.4911(7)
_cell_length_b                   18.4911(7)
_cell_length_c                   13.9617(10)
_cell_angle_alpha                90
_cell_angle_beta                 90
_cell_angle_gamma                90
_cell_volume                     4773.8
_cell_formula_units_Z            8
loop_
_atom_site_label
_atom_site_type_symbol
_atom_site_fract_x
_atom_site_fract_y
_atom_site_fract_z
B1 B 1.0000 0.0000 0.5000
N1 N 0.97296(18) 0.06152(19) 0.5650(2)
N2 N 0.90267(19) 0.1455(2) 0.6316(3)
C1 C 0.9088(2) 0.0954(2) 0.5636(3)
H1 H 0.8716 0.0848 0.5188
C2 C 0.9671(2) 0.1425(2) 0.6813(3)
C3 C 1.0099(2) 0.0921(2) 0.6414(3)
H2 H 1.0573 0.0796 0.6619
C4 C 0.9805(3) 0.1918(3) 0.7645(4)
H3 H 1.0275 0.1803 0.7933
H4 H 0.9423 0.1852 0.8123
H5 H 0.9806 0.2421 0.7423
N1A N 1.02704(18) -0.06152(19) 0.5650(2)
N1B N 1.06152(19) 0.02704(18) 0.4350(2)
N1C N 0.93848(19) -0.02704(18) 0.4350(2)
N2A N 1.09733(19) -0.1455(2) 0.6316(3)
N2B N 1.1455(2) 0.09733(19) 0.3684(3)
N2C N 0.8545(2) -0.09733(19) 0.3684(3)
C1A C 1.0912(2) -0.0954(2) 0.5636(3)
C1B C 1.0954(2) 0.0912(2) 0.4364(3)
C1C C 0.9046(2) -0.0912(2) 0.4364(3)
H1A H 1.1284 -0.0848 0.5188
H1B H 1.0848 0.1284 0.4812
H1C H 0.9152 -0.1284 0.4812
C2A C 1.0329(2) -0.1425(2) 0.6813(3)
C2B C 1.1425(2) 0.0329(2) 0.3187(3)
C2C C 0.8575(2) -0.0329(2) 0.3187(3)
C3A C 0.9901(2) -0.0921(2) 0.6414(3)
C3B C 1.0921(2) -0.0099(2) 0.3586(3)
C3C C 0.9079(2) 0.0099(2) 0.3586(3)
H2A H 0.9427 -0.0796 0.6619
H2B H 1.0796 -0.0573 0.3381
H2C H 0.9204 0.0573 0.3381
C4A C 1.0195(3) -0.1918(3) 0.7645(4)
C4B C 1.1918(3) 0.0195(3) 0.2355(4)
C4C C 0.8082(3) -0.0195(3) 0.2355(4)
H3A H 0.9725 -0.1803 0.7933
H3B H 1.1803 -0.0275 0.2067
H3C H 0.8197 0.0275 0.2067
H4A H 1.0577 -0.1852 0.8123
H4B H 1.1852 0.0577 0.1877
H4C H 0.8148 -0.0577 0.1877
H5A H 1.0194 -0.2421 0.7423
H5B H 1.2421 0.0194 0.2577
H5C H 0.7579 -0.0194 0.2577
B2 B 1.0000 0.5000 0.2500
N3 N 0.93573(17) 0.47903(18) 0.1855(2)
N4 N 0.83058(19) 0.42957(19) 0.1418(3)
C5 C 0.8851(2) 0.4279(2) 0.2035(3)
H6 H 0.8883 0.3944 0.2549
C6 C 0.8466(2) 0.4845(2) 0.0794(3)
C7 C 0.9109(2) 0.5155(2) 0.1047(3)
H7 H 0.9343 0.5545 0.0731
C8 C 0.7973(3) 0.5053(3) -0.0006(3)
H8 H 0.7509 0.5215 0.0257
H9 H 0.7894 0.4635 -0.0424
H10 H 0.8192 0.5447 -0.0376
N3A N 1.06427(17) 0.52097(18) 0.1855(2)
N3F N 0.97903(18) 0.56427(17) 0.3145(2)
N3G N 1.02097(18) 0.43573(17) 0.3145(2)
N4A N 1.16942(19) 0.57043(19) 0.1418(3)
N4F N 0.92957(19) 0.66942(19) 0.3582(3)
N4G N 1.07043(19) 0.33058(19) 0.3582(3)
C5A C 1.1149(2) 0.5721(2) 0.2035(3)
C5F C 0.9279(2) 0.6149(2) 0.2965(3)
C5G C 1.0721(2) 0.3851(2) 0.2965(3)
H6A H 1.1117 0.6056 0.2549
H6F H 0.8944 0.6117 0.2451
H6G H 1.1056 0.3883 0.2451
C6A C 1.1534(2) 0.5155(2) 0.0794(3)
C6F C 0.9845(2) 0.6534(2) 0.4206(3)
C6G C 1.0155(2) 0.3466(2) 0.4206(3)
C7A C 1.0891(2) 0.4845(2) 0.1047(3)
C7F C 1.0155(2) 0.5891(2) 0.3953(3)
C7G C 0.9845(2) 0.4109(2) 0.3953(3)
H7A H 1.0657 0.4455 0.0731
H7F H 1.0545 0.5657 0.4269
H7G H 0.9455 0.4343 0.4269
C8A C 1.2027(3) 0.4947(3) -0.0006(3)
C8F C 1.0053(3) 0.7027(3) 0.5006(3)
C8G C 0.9947(3) 0.2973(3) 0.5006(3)
H8A H 1.2491 0.4785 0.0257
H8F H 1.0215 0.7491 0.4743
H8G H 0.9785 0.2509 0.4743
H9A H 1.2106 0.5365 -0.0424
H9F H 0.9635 0.7106 0.5424
H9G H 1.0365 0.2894 0.5424
H10A H 1.1808 0.4553 -0.0376
H10F H 1.0447 0.6808 0.5376
H10G H 0.9553 0.3192 0.5376
B3 B 1.0000 0.0000 0.0000
N5 N 0.96277(18) 0.05712(18) 0.0634(2)
N6 N 0.8886(2) 0.1475(2) 0.1023(3)
C9 C 0.9013(2) 0.0939(2) 0.0424(3)
H11 H 0.8706 0.0822 -0.0099
C10 C 0.9455(2) 0.1466(2) 0.1668(3)
C11 C 0.9901(2) 0.0910(2) 0.1448(3)
H12 H 1.0325 0.0775 0.1788
C12 C 0.9508(3) 0.2000(3) 0.2467(4)
H13 H 0.9904 0.1862 0.2896
H14 H 0.9052 0.2006 0.2825
H15 H 0.9603 0.2482 0.2203
N5A N 1.03723(18) -0.05712(18) 0.0634(2)
N5B N 1.05712(18) 0.03723(18) -0.0634(2)
N5C N 0.94288(18) -0.03723(18) -0.0634(2)
N6A N 1.1114(2) -0.1475(2) 0.1023(3)
N6B N 1.1475(2) 0.1114(2) -0.1023(3)
N6C N 0.8525(2) -0.1114(2) -0.1023(3)
C9A C 1.0987(2) -0.0939(2) 0.0424(3)
C9B C 1.0939(2) 0.0987(2) -0.0424(3)
C9C C 0.9061(2) -0.0987(2) -0.0424(3)
H11A H 1.1294 -0.0822 -0.0099
H11B H 1.0822 0.1294 0.0099
H11C H 0.9178 -0.1294 0.0099
C10A C 1.0545(2) -0.1466(2) 0.1668(3)
C10B C 1.1466(2) 0.0545(2) -0.1668(3)
C10C C 0.8534(2) -0.0545(2) -0.1668(3)
C11A C 1.0099(2) -0.0910(2) 0.1448(3)
C11B C 1.0910(2) 0.0099(2) -0.1448(3)
C11C C 0.9090(2) -0.0099(2) -0.1448(3)
H12A H 0.9675 -0.0775 0.1788
H12B H 1.0775 -0.0325 -0.1788
H12C H 0.9225 0.0325 -0.1788
C12A C 1.0492(3) -0.2000(3) 0.2467(4)
C12B C 1.2000(3) 0.0492(3) -0.2467(4)
C12C C 0.8000(3) -0.0492(3) -0.2467(4)
H13A H 1.0096 -0.1862 0.2896
H13B H 1.1862 0.0096 -0.2896
H13C H 0.8138 -0.0096 -0.2896
H14A H 1.0948 -0.2006 0.2825
H14B H 1.2006 0.0948 -0.2825
H14C H 0.7994 -0.0948 -0.2825
H15A H 1.0397 -0.2482 0.2203
H15B H 1.2482 0.0397 -0.2203
H15C H 0.7518 -0.0397 -0.2203
B4 B 0.5000 0.0000 0.2500
N7 N 0.56431(18) 0.02098(18) 0.1852(2)
N8 N 0.6571(2) 0.08055(19) 0.1201(3)
C13 C 0.6053(2) 0.0811(2) 0.1852(3)
H16 H 0.5977 0.1203 0.2280
C14 C 0.6492(2) 0.0148(2) 0.0729(3)
C15 C 0.5922(2) -0.0210(2) 0.1115(3)
H17 H 0.5744 -0.0668 0.0916
C16 C 0.6974(3) -0.0085(3) -0.0071(3)
H18 H 0.6824 -0.0564 -0.0298
H19 H 0.7475 -0.0108 0.0157
H20 H 0.6940 0.0264 -0.0598
N7A N 0.43569(18) -0.02098(18) 0.1852(2)
N7F N 0.52098(18) -0.06431(18) 0.3148(2)
N7G N 0.47902(18) 0.06431(18) 0.3148(2)
N8A N 0.3429(2) -0.08055(19) 0.1201(3)
N8F N 0.58055(19) -0.1571(2) 0.3799(3)
N8G N 0.41945(19) 0.1571(2) 0.3799(3)
C13A C 0.3947(2) -0.0811(2) 0.1852(3)
C13F C 0.5811(2) -0.1053(2) 0.3148(3)
C13G C 0.4189(2) 0.1053(2) 0.3148(3)
H16A H 0.4023 -0.1203 0.2280
H16F H 0.6203 -0.0977 0.2720
H16G H 0.3797 0.0977 0.2720
C14A C 0.3508(2) -0.0148(2) 0.0729(3)
C14F C 0.5148(2) -0.1492(2) 0.4271(3)
C14G C 0.4852(2) 0.1492(2) 0.4271(3)
C15A C 0.4078(2) 0.0210(2) 0.1115(3)
C15F C 0.4790(2) -0.0922(2) 0.3885(3)
C15G C 0.5210(2) 0.0922(2) 0.3885(3)
H17A H 0.4256 0.0668 0.0916
H17F H 0.4332 -0.0744 0.4084
H17G H 0.5668 0.0744 0.4084
C16A C 0.3026(3) 0.0085(3) -0.0071(3)
C16F C 0.4915(3) -0.1974(3) 0.5071(3)
C16G C 0.5085(3) 0.1974(3) 0.5071(3)
H18A H 0.3176 0.0564 -0.0298
H18F H 0.4436 -0.1824 0.5298
H18G H 0.5564 0.1824 0.5298
H19A H 0.2525 0.0108 0.0157
H19F H 0.4892 -0.2475 0.4843
H19G H 0.5108 0.2475 0.4843
H20A H 0.3060 -0.0264 -0.0598
H20F H 0.5264 -0.1940 0.5598
H20G H 0.4736 0.1940 0.5598
N9 N 0.74809(19) 0.20631(19) 1.0793(2)
H21 H 0.7954 0.1933 1.0743
H22 H 0.7207 0.1664 1.0912
O1 O 0.7588(4) 0.3322(4) 0.8606(4)
H23 H 0.7139 0.3391 0.8611
C17 C 0.7812(3) 0.2910(3) 0.9517(3)
H24 H 0.8258 0.2632 0.9383
H25 H 0.7923 0.3263 1.0028
C18 C 0.7241(3) 0.2400(2) 0.9869(3)
H26 H 0.6794 0.2689 1.0002
C19 C 0.7045(3) 0.1811(3) 0.9159(3)
H27 H 0.6680 0.1485 0.9447
H28 H 0.6832 0.2031 0.8578
C20 C 0.76715(14) 0.14034(16) 0.89018(15)
H29 H 0.8103 0.1634 0.9173
H30 H 0.7715 0.1386 0.8203
H31 H 0.7628 0.0910 0.9153
O2 O 0.76835(13) 0.17281(14) 0.70027(15)
loop_
_geom_bond_atom_site_label_1
_geom_bond_atom_site_label_2
_geom_bond_site_symmetry_1
_geom_bond_site_symmetry_2
B1 N1 1_555 1_555
B2 N3 1_555 1_555
B3 N5 1_555 1_555
B4 N7 1_555 1_555
N1 C1 1_555 1_555
N2 C1 1_555 1_555
N3 C5 1_555 1_555
N4 C5 1_555 1_555
N5 C9 1_555 1_555
N6 C9 1_555 1_555
N7 C13 1_555 1_555
N8 C13 1_555 1_555
C1 H1 1_555 1_555
C2 N2 1_555 1_555
C3 N1 1_555 1_555
H2 C3 1_555 1_555
C4 C2 1_555 1_555
H3 C4 1_555 1_555
H4 C4 1_555 1_555
H5 C4 1_555 1_555
C5 H6 1_555 1_555
C6 N4 1_555 1_555
C7 N3 1_555 1_555
H7 C7 1_555 1_555
C8 C6 1_555 1_555
H8 C8 1_555 1_555
H9 C8 1_555 1_555
H10 C8 1_555 1_555
C9 H11 1_555 1_555
C10 N6 1_555 1_555
C11 N5 1_555 1_555
H12 C11 1_555 1_555
C12 C10 1_555 1_555
H13 C12 1_555 1_555
H14 C12 1_555 1_555
H15 C12 1_555 1_555
C13 H16 1_555 1_555
C14 N8 1_555 1_555
C15 N7 1_555 1_555
H17 C15 1_555 1_555
C16 C14 1_555 1_555
H18 C16 1_555 1_555
H19 C16 1_555 1_555
H20 C16 1_555 1_555
N9 H21 1_555 1_555
H22 N9 1_555 1_555
O1 H23 1_555 1_555
C17 O1 1_555 1_555
H24 C17 1_555 1_555
H25 C17 1_555 1_555
C18 N9 1_555 1_555
H26 C18 1_555 1_555
C19 C18 1_555 1_555
H27 C19 1_555 1_555
H28 C19 1_555 1_555
C20 C19 1_555 1_555
H29 C20 1_555 1_555
H30 C20 1_555 1_555
H31 C20 1_555 1_555
N1A B1 1_555 1_555
N1B B1 1_555 1_555
N1C B1 1_555 1_555
N2A C1A 1_555 1_555
N2B C1B 1_555 1_555
N2C C1C 1_555 1_555
N3A B2 1_555 1_555
N3F B2 1_555 1_555
N3G B2 1_555 1_555
N4A C5A 1_555 1_555
N4F C5F 1_555 1_555
N4G C5G 1_555 1_555
N5A B3 1_555 1_555
N5B B3 1_555 1_555
N5C B3 1_555 1_555
N6A C9A 1_555 1_555
N6B C9B 1_555 1_555
N6C C9C 1_555 1_555
N7A B4 1_555 1_555
N7F B4 1_555 1_555
N7G B4 1_555 1_555
N8A C13A 1_555 1_555
N8F C13F 1_555 1_555
N8G C13G 1_555 1_555
C1A N1A 1_555 1_555
C1B N1B 1_555 1_555
C1C N1C 1_555 1_555
H1A C1A 1_555 1_555
H1B C1B 1_555 1_555
H1C C1C 1_555 1_555
C2A N2A 1_555 1_555
C2B N2B 1_555 1_555
C2C N2C 1_555 1_555
C3A N1A 1_555 1_555
C3B N1B 1_555 1_555
C3C N1C 1_555 1_555
H2A C3A 1_555 1_555
H2B C3B 1_555 1_555
H2C C3C 1_555 1_555
C4A C2A 1_555 1_555
C4B C2B 1_555 1_555
C4C C2C 1_555 1_555
H3A C4A 1_555 1_555
H3B C4B 1_555 1_555
H3C C4C 1_555 1_555
H4A C4A 1_555 1_555
H4B C4B 1_555 1_555
H4C C4C 1_555 1_555
H5A C4A 1_555 1_555
H5B C4B 1_555 1_555
H5C C4C 1_555 1_555
C5A N3A 1_555 1_555
C5F N3F 1_555 1_555
C5G N3G 1_555 1_555
H6A C5A 1_555 1_555
H6F C5F 1_555 1_555
H6G C5G 1_555 1_555
C6A N4A 1_555 1_555
C6F N4F 1_555 1_555
C6G N4G 1_555 1_555
C7A N3A 1_555 1_555
C7F N3F 1_555 1_555
C7G N3G 1_555 1_555
H7A C7A 1_555 1_555
H7F C7F 1_555 1_555
H7G C7G 1_555 1_555
C8A C6A 1_555 1_555
C8F C6F 1_555 1_555
C8G C6G 1_555 1_555
H8A C8A 1_555 1_555
H8F C8F 1_555 1_555
H8G C8G 1_555 1_555
H9A C8A 1_555 1_555
H9F C8F 1_555 1_555
H9G C8G 1_555 1_555
H10A C8A 1_555 1_555
H10F C8F 1_555 1_555
H10G C8G 1_555 1_555
C9A N5A 1_555 1_555
C9B N5B 1_555 1_555
C9C N5C 1_555 1_555
H11A C9A 1_555 1_555
H11B C9B 1_555 1_555
H11C C9C 1_555 1_555
C10A N6A 1_555 1_555
C10B N6B 1_555 1_555
C10C N6C 1_555 1_555
C11A N5A 1_555 1_555
C11B N5B 1_555 1_555
C11C N5C 1_555 1_555
H12A C11A 1_555 1_555
H12B C11B 1_555 1_555
H12C C11C 1_555 1_555
C12A C10A 1_555 1_555
C12B C10B 1_555 1_555
C12C C10C 1_555 1_555
H13A C12A 1_555 1_555
H13B C12B 1_555 1_555
H13C C12C 1_555 1_555
H14A C12A 1_555 1_555
H14B C12B 1_555 1_555
H14C C12C 1_555 1_555
H15A C12A 1_555 1_555
H15B C12B 1_555 1_555
H15C C12C 1_555 1_555
C13A N7A 1_555 1_555
C13F N7F 1_555 1_555
C13G N7G 1_555 1_555
H16A C13A 1_555 1_555
H16F C13F 1_555 1_555
H16G C13G 1_555 1_555
C14A N8A 1_555 1_555
C14F N8F 1_555 1_555
C14G N8G 1_555 1_555
C15A N7A 1_555 1_555
C15F N7F 1_555 1_555
C15G N7G 1_555 1_555
H17A C15A 1_555 1_555
H17F C15F 1_555 1_555
H17G C15G 1_555 1_555
C16A C14A 1_555 1_555
C16F C14F 1_555 1_555
C16G C14G 1_555 1_555
H18A C16A 1_555 1_555
H18F C16F 1_555 1_555
H18G C16G 1_555 1_555
H19A C16A 1_555 1_555
H19F C16F 1_555 1_555
H19G C16G 1_555 1_555
H20A C16A 1_555 1_555
H20F C16F 1_555 1_555
H20G C16G 1_555 1_555
C2 C3 1_555 1_555
C6 C7 1_555 1_555
C10 C11 1_555 1_555
C14 C15 1_555 1_555
C17 C18 1_555 1_555
C2A C3A 1_555 1_555
C2B C3B 1_555 1_555
C2C C3C 1_555 1_555
C6A C7A 1_555 1_555
C6F C7F 1_555 1_555
C6G C7G 1_555 1_555
C10A C11A 1_555 1_555
C10B C11B 1_555 1_555
C10C C11C 1_555 1_555
C14A C15A 1_555 1_555
C14F C15F 1_555 1_555
C14G C15G 1_555 1_555

#END
