
#######################################################################
#
#                 Cambridge Crystallographic Data Centre
#                                CCDC 
#
#######################################################################
#
# If this CIF has been generated from an entry in the Cambridge 
# Structural Database, then it will include bibliographic, chemical, 
# crystal, experimental, refinement or atomic coordinate data resulting 
# from the CCDC's data processing and validation procedures.
#
#######################################################################

data_KUCYOY03
_chemical_formula_moiety         'C31 H22 O1 S1'
_chemical_name_systematic        
5-(4-(triphenylvinyl)phenyl)thiophene-2-carbaldehyde
_symmetry_cell_setting           monoclinic
_symmetry_space_group_name_H-M   'P 21'
_symmetry_Int_Tables_number      4
_space_group_name_Hall           'P 2yb'
loop_
_symmetry_equiv_pos_site_id
_symmetry_equiv_pos_as_xyz
1 x,y,z
2 -x,1/2+y,-z
_cell_length_a                   9.8662(3)
_cell_length_b                   9.3673(2)
_cell_length_c                   25.5685(7)
_cell_angle_alpha                90
_cell_angle_beta                 100.355(3)
_cell_angle_gamma                90
_cell_volume                     2324.55
_exptl_crystal_colour            yellow
_exptl_crystal_description       block
_cell_formula_units_Z            4
loop_
_atom_site_label
_atom_site_type_symbol
_atom_site_fract_x
_atom_site_fract_y
_atom_site_fract_z
S1 S 0.75715(7) 0.38773(9) 0.61492(2)
C1 C 0.4839(3) 0.2780(3) 0.87670(9)
C2 C 0.5815(3) 0.2315(3) 0.99298(10)
H1 H 0.5403 0.1523 0.9747
C3 C 0.3592(3) 0.3297(3) 0.88682(10)
H2 H 0.3593 0.3971 0.9135
C4 C 0.4798(3) 0.1707(3) 0.83827(11)
H3 H 0.5617 0.1315 0.8318
C5 C 0.6305(3) 0.3416(3) 0.96498(10)
C6 C 0.8630(3) 0.4040(3) 0.90939(9)
C7 C 0.6179(3) 0.3327(3) 0.90598(10)
C8 C 0.3562(3) 0.1223(4) 0.80995(12)
H4 H 0.3552 0.0508 0.7847
C9 C 0.5933(3) 0.2386(4) 1.04787(11)
H5 H 0.5604 0.1639 1.0661
C10 C 0.7218(3) 0.3723(3) 0.88033(10)
C11 C 0.6455(3) 0.4207(4) 0.55642(11)
C12 C 0.2330(3) 0.1805(4) 0.81921(11)
H6 H 0.1497 0.1504 0.7993
C13 C 1.0571(3) 0.5651(4) 0.92933(11)
H7 H 1.0980 0.6520 0.9239
C14 C 0.5656(3) 0.4657(4) 0.73838(11)
H8 H 0.4886 0.5137 0.7204
C15 C 0.6535(3) 0.3556(4) 1.07555(11)
H9 H 0.6630 0.3592 1.1124
C16 C 0.6572(3) 0.4036(3) 0.70965(10)
C17 C 0.7961(3) 0.3282(3) 0.79276(10)
H10 H 0.8755 0.2844 0.8108
C18 C 0.7738(3) 0.3359(3) 0.73772(10)
H11 H 0.8373 0.2955 0.7193
C19 C 0.7013(3) 0.3851(3) 0.82143(10)
C20 C 0.2349(3) 0.2830(4) 0.85806(11)
H12 H 0.1526 0.3207 0.8649
C21 C 0.9340(3) 0.3068(3) 0.94600(10)
H13 H 0.8934 0.2199 0.9516
C22 C 0.9276(3) 0.5316(3) 0.90068(11)
H14 H 0.8835 0.5954 0.8753
O1 O 0.8010(3) 0.3858(5) 0.49765(9)
C23 C 0.5871(3) 0.4573(4) 0.79316(11)
H15 H 0.5247 0.5002 0.8115
C24 C 0.6996(3) 0.4673(4) 1.04813(11)
H16 H 0.7386 0.5471 1.0666
C25 C 1.1251(3) 0.4688(4) 0.96605(11)
H17 H 1.2116 0.4909 0.9854
C26 C 0.6881(3) 0.4614(3) 0.99332(11)
H18 H 0.7189 0.5375 0.9753
C27 C 1.0632(3) 0.3387(4) 0.97381(11)
H19 H 1.1094 0.2730 0.9979
C28 C 0.6288(3) 0.4109(3) 0.65119(10)
C29 C 0.6900(4) 0.4193(5) 0.50545(12)
H20 H 0.6258 0.4471 0.4760
C30 C 0.5167(3) 0.4460(5) 0.56490(12)
H21 H 0.4426 0.4653 0.5378
C31 C 0.5062(3) 0.4401(5) 0.61860(12)
H22 H 0.4242 0.4546 0.6309
S2 S 0.11989(8) 0.27530(9) 0.57068(3)
C32 C 0.2408(3) 0.3882(3) 0.22350(10)
C33 C 0.0200(3) 0.1682(3) 0.24305(11)
H23 H 0.1044 0.1317 0.2380
O2 O 0.0774(3) 0.2006(3) 0.68448(9)
C34 C 0.2536(3) 0.3828(3) 0.28243(10)
C35 C 0.0175(3) 0.2828(3) 0.27771(10)
C36 C 0.1283(4) 0.4555(4) 0.19212(13)
H24 H 0.0594 0.4960 0.2078
C37 C 0.1541(3) 0.3646(3) 0.36533(10)
C38 C 0.3931(3) 0.4147(3) 0.31321(9)
C39 C 0.1512(3) 0.3999(3) 0.47502(10)
C40 C 0.4643(3) 0.5368(3) 0.30399(11)
H25 H 0.4236 0.6023 0.2786
C41 C 0.3434(4) 0.3326(4) 0.19922(12)
H26 H 0.4203 0.2902 0.2197
C42 C 0.1230(3) 0.2524(4) 0.39633(11)
H27 H 0.1007 0.1640 0.3806
C43 C -0.2262(3) 0.1614(4) 0.22374(12)
H28 H -0.3074 0.1224 0.2051
C44 C 0.6597(3) 0.4636(5) 0.36845(12)
H29 H 0.7481 0.4806 0.3872
C45 C 0.1240(4) 0.2686(4) 0.45012(11)
H30 H 0.1062 0.1900 0.4700
C46 C 0.1487(3) 0.5209(4) 0.61409(12)
H31 H 0.1560 0.5939 0.6391
C47 C 0.1584(3) 0.5432(4) 0.56044(12)
H32 H 0.1724 0.6322 0.5462
C48 C -0.0991(4) 0.1085(4) 0.21630(12)
H33 H -0.0951 0.0327 0.1932
C49 C 0.5909(3) 0.3396(4) 0.37658(11)
H34 H 0.6343 0.2718 0.4004
C50 C 0.1830(3) 0.5141(3) 0.44378(11)
H35 H 0.2031 0.6032 0.4593
C51 C -0.2308(3) 0.2723(4) 0.25911(12)
H36 H -0.3154 0.3062 0.2649
C52 C 0.1475(3) 0.3468(3) 0.30688(10)
C53 C 0.5954(3) 0.5621(4) 0.33216(13)
H37 H 0.6406 0.6463 0.3266
C54 C 0.1202(6) 0.4615(5) 0.13762(17)
H38 H 0.0444 0.5047 0.1167
C55 C 0.4590(3) 0.3151(3) 0.34985(11)
H39 H 0.4134 0.2317 0.3562
C56 C 0.2217(7) 0.4051(6) 0.11404(14)
H40 H 0.2155 0.4112 0.0774
C57 C -0.1105(3) 0.3329(3) 0.28591(11)
H41 H -0.1147 0.4076 0.3095
C58 C 0.1847(3) 0.4958(3) 0.39025(11)
H42 H 0.2068 0.5729 0.3704
C59 C 0.1050(3) 0.3224(5) 0.67658(13)
H43 H 0.1129 0.3850 0.7052
C60 C 0.1451(3) 0.4191(3) 0.53148(11)
C61 C 0.1274(3) 0.3809(4) 0.62575(11)
C62 C 0.3327(5) 0.3396(6) 0.14450(15)
H44 H 0.4011 0.2996 0.1284
loop_
_geom_bond_atom_site_label_1
_geom_bond_atom_site_label_2
_geom_bond_site_symmetry_1
_geom_bond_site_symmetry_2
S1 C11 1_555 1_555
C1 C3 1_555 1_555
C2 H1 1_555 1_555
C3 H2 1_555 1_555
C4 C1 1_555 1_555
H3 C4 1_555 1_555
C5 C2 1_555 1_555
C6 C10 1_555 1_555
C7 C1 1_555 1_555
C8 C4 1_555 1_555
H4 C8 1_555 1_555
C9 C2 1_555 1_555
H5 C9 1_555 1_555
C10 C7 1_555 1_555
C11 C29 1_555 1_555
C12 C8 1_555 1_555
H6 C12 1_555 1_555
C13 H7 1_555 1_555
C14 H8 1_555 1_555
C15 C9 1_555 1_555
H9 C15 1_555 1_555
C16 C14 1_555 1_555
C17 H10 1_555 1_555
C18 C16 1_555 1_555
H11 C18 1_555 1_555
C19 C10 1_555 1_555
C20 C3 1_555 1_555
H12 C20 1_555 1_555
C21 C6 1_555 1_555
H13 C21 1_555 1_555
C22 C6 1_555 1_555
H14 C22 1_555 1_555
O1 C29 1_555 1_555
C23 C14 1_555 1_555
H15 C23 1_555 1_555
C24 C15 1_555 1_555
H16 C24 1_555 1_555
C25 C13 1_555 1_555
H17 C25 1_555 1_555
C26 C5 1_555 1_555
H18 C26 1_555 1_555
C27 C21 1_555 1_555
H19 C27 1_555 1_555
C28 S1 1_555 1_555
C29 H20 1_555 1_555
C30 C11 1_555 1_555
H21 C30 1_555 1_555
C31 C28 1_555 1_555
H22 C31 1_555 1_555
S2 C60 1_555 1_555
C32 C34 1_555 1_555
C33 H23 1_555 1_555
O2 C59 1_555 1_555
C34 C38 1_555 1_555
C35 C33 1_555 1_555
C36 C32 1_555 1_555
H24 C36 1_555 1_555
C37 C42 1_555 1_555
C38 C40 1_555 1_555
C39 C45 1_555 1_555
C40 H25 1_555 1_555
C41 C32 1_555 1_555
H26 C41 1_555 1_555
C42 H27 1_555 1_555
C43 H28 1_555 1_555
C44 H29 1_555 1_555
C45 C42 1_555 1_555
H30 C45 1_555 1_555
C46 H31 1_555 1_555
C47 C46 1_555 1_555
H32 C47 1_555 1_555
C48 C33 1_555 1_555
H33 C48 1_555 1_555
C49 C44 1_555 1_555
H34 C49 1_555 1_555
C50 C39 1_555 1_555
H35 C50 1_555 1_555
C51 C43 1_555 1_555
H36 C51 1_555 1_555
C52 C34 1_555 1_555
C53 C40 1_555 1_555
H37 C53 1_555 1_555
C54 C36 1_555 1_555
H38 C54 1_555 1_555
C55 C38 1_555 1_555
H39 C55 1_555 1_555
C56 C54 1_555 1_555
H40 C56 1_555 1_555
C57 C35 1_555 1_555
H41 C57 1_555 1_555
C58 C37 1_555 1_555
H42 C58 1_555 1_555
C59 H43 1_555 1_555
C60 C39 1_555 1_555
C61 S2 1_555 1_555
C62 C41 1_555 1_555
H44 C62 1_555 1_555
C5 C7 1_555 1_555
C12 C20 1_555 1_555
C13 C22 1_555 1_555
C16 C28 1_555 1_555
C17 C18 1_555 1_555
C17 C19 1_555 1_555
C19 C23 1_555 1_555
C24 C26 1_555 1_555
C25 C27 1_555 1_555
C30 C31 1_555 1_555
C35 C52 1_555 1_555
C37 C52 1_555 1_555
C43 C48 1_555 1_555
C44 C53 1_555 1_555
C46 C61 1_555 1_555
C47 C60 1_555 1_555
C49 C55 1_555 1_555
C50 C58 1_555 1_555
C51 C57 1_555 1_555
C56 C62 1_555 1_555
C59 C61 1_555 1_555

#END
