
#######################################################################
#
#                 Cambridge Crystallographic Data Centre
#                                CCDC 
#
#######################################################################
#
# If this CIF has been generated from an entry in the Cambridge 
# Structural Database, then it will include bibliographic, chemical, 
# crystal, experimental, refinement or atomic coordinate data resulting 
# from the CCDC's data processing and validation procedures.
#
#######################################################################

data_KUCYEN
_chemical_formula_moiety         'C18 H19 N4 O2 P1'
_chemical_name_systematic        
N^6^-Acetyl-3-(dimethylamino)-4-(diphenylphosphino)sydnonimine
_symmetry_cell_setting           triclinic
_symmetry_space_group_name_H-M   'P -1'
_symmetry_Int_Tables_number      2
_space_group_name_Hall           '-P 1'
loop_
_symmetry_equiv_pos_site_id
_symmetry_equiv_pos_as_xyz
1 x,y,z
2 -x,-y,-z
_cell_length_a                   8.0945(12)
_cell_length_b                   9.6967(15)
_cell_length_c                   11.3273(17)
_cell_angle_alpha                87.477(3)
_cell_angle_beta                 83.704(3)
_cell_angle_gamma                89.965(3)
_cell_volume                     882.852
_exptl_crystal_colour            colorless
_exptl_crystal_description       prism
_chemical_melting_point          '126-127 deg.C'
_cell_formula_units_Z            2
loop_
_atom_site_label
_atom_site_type_symbol
_atom_site_fract_x
_atom_site_fract_y
_atom_site_fract_z
P1 P 0.50852(6) 0.82165(5) 0.72302(4)
O1 O 0.70081(16) 0.55662(13) 0.95568(11)
O2 O 0.6362(2) 0.29060(14) 0.92321(12)
N1 N 0.7425(2) 0.68482(17) 0.99260(14)
N2 N 0.68432(19) 0.76999(15) 0.91557(13)
C1 C 0.6084(2) 0.71383(18) 0.82879(15)
C2 C 0.6250(2) 0.57072(19) 0.85140(15)
N3 N 0.59244(19) 0.46884(16) 0.78727(13)
C3 C 0.6242(2) 0.33418(19) 0.82221(16)
C4 C 0.6428(3) 0.2399(2) 0.71970(18)
H1 H 0.6202 0.1465 0.7487
H2 H 0.7541 0.2464 0.6808
H3 H 0.5658 0.2666 0.6642
N4 N 0.7111(2) 0.91298(16) 0.92276(14)
C5 C 0.6961(3) 0.9536(2) 1.04619(19)
H4 H 0.5921 0.9209 1.0865
H5 H 0.7007 1.0524 1.0481
H6 H 0.7858 0.9143 1.0851
C6 C 0.8718(3) 0.9492(2) 0.8572(2)
H7 H 0.8735 0.9222 0.7766
H8 H 0.9585 0.9021 0.8940
H9 H 0.8890 1.0470 0.8580
C7 C 0.3153(2) 0.72623(19) 0.71641(16)
C8 C 0.2349(2) 0.7425(2) 0.61381(17)
H10 H 0.2857 0.7940 0.5486
C9 C 0.0811(2) 0.6833(2) 0.60752(19)
H11 H 0.0287 0.6959 0.5388
C10 C 0.2359(2) 0.6506(2) 0.81341(16)
H12 H 0.2855 0.6410 0.8836
C11 C 0.0052(2) 0.6053(2) 0.70335(19)
H13 H -0.0974 0.5640 0.6989
C12 C 0.0824(2) 0.5891(2) 0.80567(18)
H14 H 0.0314 0.5365 0.8701
C13 C 0.6264(2) 0.78478(19) 0.58042(16)
C14 C 0.6331(2) 0.6568(2) 0.53001(17)
H15 H 0.5801 0.5812 0.5712
C15 C 0.7182(3) 0.6410(2) 0.41870(18)
H16 H 0.7213 0.5551 0.3851
C16 C 0.7988(3) 0.7526(2) 0.35712(19)
H17 H 0.8563 0.7415 0.2825
C17 C 0.7938(3) 0.8791(2) 0.4062(2)
H18 H 0.8484 0.9540 0.3650
C18 C 0.7072(3) 0.8961(2) 0.51760(18)
H19 H 0.7034 0.9826 0.5503
loop_
_geom_bond_atom_site_label_1
_geom_bond_atom_site_label_2
_geom_bond_site_symmetry_1
_geom_bond_site_symmetry_2
P1 C1 1_555 1_555
O1 N1 1_555 1_555
O2 C3 1_555 1_555
N1 N2 1_555 1_555
N2 C1 1_555 1_555
C1 C2 1_555 1_555
C2 O1 1_555 1_555
N3 C2 1_555 1_555
C3 N3 1_555 1_555
C4 C3 1_555 1_555
H1 C4 1_555 1_555
H2 C4 1_555 1_555
H3 C4 1_555 1_555
N4 N2 1_555 1_555
C5 N4 1_555 1_555
H4 C5 1_555 1_555
H5 C5 1_555 1_555
H6 C5 1_555 1_555
C6 N4 1_555 1_555
H7 C6 1_555 1_555
H8 C6 1_555 1_555
H9 C6 1_555 1_555
C7 P1 1_555 1_555
C8 C7 1_555 1_555
H10 C8 1_555 1_555
C9 C8 1_555 1_555
H11 C9 1_555 1_555
C10 C7 1_555 1_555
H12 C10 1_555 1_555
C11 C9 1_555 1_555
H13 C11 1_555 1_555
C12 C10 1_555 1_555
H14 C12 1_555 1_555
C13 P1 1_555 1_555
C14 C13 1_555 1_555
H15 C14 1_555 1_555
C15 C14 1_555 1_555
H16 C15 1_555 1_555
C16 C15 1_555 1_555
H17 C16 1_555 1_555
C17 C16 1_555 1_555
H18 C17 1_555 1_555
C18 C13 1_555 1_555
H19 C18 1_555 1_555
C11 C12 1_555 1_555
C17 C18 1_555 1_555

#END
