
#######################################################################
#
#                 Cambridge Crystallographic Data Centre
#                                CCDC 
#
#######################################################################
#
# If this CIF has been generated from an entry in the Cambridge 
# Structural Database, then it will include bibliographic, chemical, 
# crystal, experimental, refinement or atomic coordinate data resulting 
# from the CCDC's data processing and validation procedures.
#
#######################################################################

data_KUDZIS
_chemical_name_common            WAY-100289
_chemical_formula_moiety         'C20 H27 N3 O3'
_chemical_name_systematic        
endo-N-(((8-Methyl-8-azabicyclo(3.2.1)octan-3-yl)amino)carbonyl)-2-(cyclopropylmethoxy)benzamide
_chemical_properties_biological  
'highly selective antagonist activity in vivo and in vitro'
_symmetry_cell_setting           monoclinic
_symmetry_space_group_name_H-M   'P 21/a'
_symmetry_Int_Tables_number      14
_space_group_name_Hall           '-P 2yab'
loop_
_symmetry_equiv_pos_site_id
_symmetry_equiv_pos_as_xyz
1 x,y,z
2 1/2-x,1/2+y,-z
3 -x,-y,-z
4 1/2+x,1/2-y,z
_cell_length_a                   19.432(4)
_cell_length_b                   7.481(2)
_cell_length_c                   13.370(2)
_cell_angle_alpha                90
_cell_angle_beta                 101.89(1)
_cell_angle_gamma                90
_cell_volume                     1901.91
_cell_formula_units_Z            4
loop_
_atom_site_label
_atom_site_type_symbol
_atom_site_fract_x
_atom_site_fract_y
_atom_site_fract_z
N1 N 0.7831(1) 0.0899(2) 0.8212(1)
N2 N 0.6984(1) 0.0598(3) 0.6712(1)
N3 N 0.5577(1) 0.1817(3) 0.4225(1)
O1 O 0.8660(1) 0.0959(2) 1.0018(1)
O2 O 0.8322(1) 0.1718(2) 0.6895(1)
O3 O 0.6719(1) 0.0117(2) 0.8260(1)
C1 C 0.9178(1) 0.1716(3) 0.9609(2)
C2 C 0.9816(1) 0.2248(3) 1.0199(2)
C3 C 1.0327(1) 0.2946(4) 0.9745(2)
C4 C 1.0219(1) 0.3145(3) 0.8704(2)
C5 C 0.9584(1) 0.2627(3) 0.8116(2)
C6 C 0.9050(1) 0.1925(3) 0.8545(1)
C7 C 0.8706(1) 0.0956(4) 1.1112(2)
C8 C 0.8077(1) -0.0008(4) 1.1290(2)
C9 C 0.7728(2) 0.0617(4) 1.2121(2)
C10 C 0.7385(2) 0.0892(5) 1.1034(2)
C11 C 0.8379(1) 0.1494(3) 0.7813(1)
C12 C 0.7135(1) 0.0512(3) 0.7726(2)
C13 C 0.6270(1) 0.0220(3) 0.6136(2)
C14 C 0.5796(1) 0.1845(4) 0.6059(2)
C15 C 0.5799(1) 0.2979(4) 0.5116(2)
C16 C 0.6226(1) 0.0819(4) 0.4248(2)
C17 C 0.6821(1) 0.2193(4) 0.4452(2)
C18 C 0.6538(2) 0.3645(4) 0.5043(2)
C19 C 0.6283(2) -0.0561(4) 0.5088(2)
C20 C 0.5351(2) 0.2835(6) 0.3275(3)
H1 H 0.7896(10) 0.0781(26) 0.8860(15)
H2 H 0.7321(10) 0.0861(26) 0.6426(14)
H3 H 0.9888(10) 0.2114(27) 1.0921(16)
H4 H 1.0758(12) 0.3261(30) 1.0176(17)
H5 H 1.0604(12) 0.3591(29) 0.8366(16)
H6 H 0.9492(10) 0.2773(27) 0.7367(16)
H7 H 0.9145(10) 0.0338(27) 1.1414(15)
H8 H 0.8744(10) 0.2223(29) 1.1370(14)
H9 H 0.8060(11) -0.1325(31) 1.1130(16)
H10 H 0.7952(12) 0.1721(35) 1.2523(19)
H11 H 0.7534(11) -0.0259(32) 1.2493(17)
H12 H 0.6970(13) 0.0194(36) 1.0728(18)
H13 H 0.7416(13) 0.2152(36) 1.0767(18)
H14 H 0.6074(11) -0.0677(30) 0.6563(16)
H15 H 0.5923(12) 0.2604(32) 0.6681(17)
H16 H 0.5308(12) 0.1467(29) 0.6053(16)
H17 H 0.5464(12) 0.3952(32) 0.5084(17)
H18 H 0.6213(12) 0.0269(32) 0.3562(18)
H19 H 0.7276(12) 0.1652(30) 0.4823(17)
H20 H 0.6902(13) 0.2705(35) 0.3803(21)
H21 H 0.6487(13) 0.4762(38) 0.4694(19)
H22 H 0.6844(11) 0.3841(29) 0.5735(17)
H23 H 0.6727(11) -0.1233(28) 0.5115(16)
H24 H 0.5875(13) -0.1384(32) 0.4904(17)
H25 H 0.5722(16) 0.3631(43) 0.3067(22)
H26 H 0.5234(16) 0.2027(40) 0.2699(24)
H27 H 0.4902(19) 0.3474(49) 0.3346(26)
loop_
_geom_bond_atom_site_label_1
_geom_bond_atom_site_label_2
_geom_bond_site_symmetry_1
_geom_bond_site_symmetry_2
N1 C11 1_555 1_555
N2 C12 1_555 1_555
N3 C15 1_555 1_555
O1 C1 1_555 1_555
O2 C11 1_555 1_555
O3 C12 1_555 1_555
C1 C2 1_555 1_555
C2 C3 1_555 1_555
C3 C4 1_555 1_555
C4 C5 1_555 1_555
C5 C6 1_555 1_555
C6 C1 1_555 1_555
C7 O1 1_555 1_555
C8 C7 1_555 1_555
C9 C8 1_555 1_555
C10 C8 1_555 1_555
C11 C6 1_555 1_555
C12 N1 1_555 1_555
C13 N2 1_555 1_555
C14 C13 1_555 1_555
C15 C14 1_555 1_555
C16 N3 1_555 1_555
C17 C16 1_555 1_555
C18 C15 1_555 1_555
C19 C13 1_555 1_555
C20 N3 1_555 1_555
H1 N1 1_555 1_555
H2 N2 1_555 1_555
H3 C2 1_555 1_555
H4 C3 1_555 1_555
H5 C4 1_555 1_555
H6 C5 1_555 1_555
H7 C7 1_555 1_555
H8 C7 1_555 1_555
H9 C8 1_555 1_555
H10 C9 1_555 1_555
H11 C9 1_555 1_555
H12 C10 1_555 1_555
H13 C10 1_555 1_555
H14 C13 1_555 1_555
H15 C14 1_555 1_555
H16 C14 1_555 1_555
H17 C15 1_555 1_555
H18 C16 1_555 1_555
H19 C17 1_555 1_555
H20 C17 1_555 1_555
H21 C18 1_555 1_555
H22 C18 1_555 1_555
H23 C19 1_555 1_555
H24 C19 1_555 1_555
H25 C20 1_555 1_555
H26 C20 1_555 1_555
H27 C20 1_555 1_555
C9 C10 1_555 1_555
C16 C19 1_555 1_555
C17 C18 1_555 1_555

#END
