
#######################################################################
#
#                 Cambridge Crystallographic Data Centre
#                                CCDC 
#
#######################################################################
#
# If this CIF has been generated from an entry in the Cambridge 
# Structural Database, then it will include bibliographic, chemical, 
# crystal, experimental, refinement or atomic coordinate data resulting 
# from the CCDC's data processing and validation procedures.
#
#######################################################################

data_KUFXIS
_chemical_formula_moiety         'C24 H26 N2 O4 S1'
_chemical_name_systematic        
11,13-Ethano-2,15-methanoepoxy-4-p-methoxyphenylsulfonyl-4,13-diazatetracyclo(10.3.1.0^3,11^.0^5,10^)hexadeca-5,7,9-triene
_symmetry_cell_setting           monoclinic
_symmetry_space_group_name_H-M   'P 21/c'
_symmetry_Int_Tables_number      14
_space_group_name_Hall           '-P 2ybc'
loop_
_symmetry_equiv_pos_site_id
_symmetry_equiv_pos_as_xyz
1 x,y,z
2 -x,1/2+y,1/2-z
3 -x,-y,-z
4 x,1/2-y,1/2+z
_cell_length_a                   7.986(2)
_cell_length_b                   17.550(4)
_cell_length_c                   15.065(4)
_cell_angle_alpha                90
_cell_angle_beta                 94.34(2)
_cell_angle_gamma                90
_cell_volume                     2105.37
_exptl_crystal_colour            colorless
_cell_formula_units_Z            4
loop_
_atom_site_label
_atom_site_type_symbol
_atom_site_fract_x
_atom_site_fract_y
_atom_site_fract_z
N1 N 0.3952(3) 0.58055(13) 0.8430(2)
C1 C 0.2758(4) 0.6092(2) 0.9078(2)
C2 C 0.3430(4) 0.5875(2) 1.0034(2)
C3 C 0.2288(5) 0.5292(2) 1.0424(2)
O1 O 0.0888(3) 0.57388(13) 1.06678(14)
C4 C 0.1571(5) 0.6435(2) 1.1050(2)
C5 C 0.3346(4) 0.6508(2) 1.0738(2)
C6 C 0.3694(5) 0.7300(2) 1.0399(2)
C7 C 0.0439(5) 0.7102(2) 1.0770(3)
N2 N 0.0655(4) 0.7410(2) 0.9879(2)
C8 C -0.0349(5) 0.7049(3) 0.9133(3)
C9 C 0.0774(5) 0.7079(2) 0.8367(2)
C10 C 0.2532(4) 0.6956(2) 0.8832(2)
C11 C 0.2404(5) 0.7482(2) 0.9642(2)
C12 C 0.3986(4) 0.7113(2) 0.8283(2)
C13 C 0.4655(5) 0.7802(2) 0.8010(2)
C14 C 0.6015(5) 0.7798(2) 0.7503(2)
C15 C 0.6720(5) 0.7124(2) 0.7250(2)
C16 C 0.6100(4) 0.6430(2) 0.7521(2)
C17 C 0.4739(4) 0.6441(2) 0.8028(2)
S1 S 0.34901(10) 0.50151(4) 0.78834(5)
O2 O 0.2998(3) 0.44846(11) 0.85346(14)
O3 O 0.4882(3) 0.48461(12) 0.73745(15)
C18 C 0.1726(4) 0.5193(2) 0.7145(2)
C19 C 0.0211(4) 0.4862(2) 0.7306(2)
C20 C -0.1175(5) 0.4985(2) 0.6717(2)
C21 C -0.1060(4) 0.5459(2) 0.5990(2)
C22 C 0.0452(5) 0.5802(2) 0.5842(3)
C23 C 0.1857(5) 0.5662(2) 0.6408(2)
O4 O -0.2522(4) 0.5554(2) 0.5470(2)
C24 C -0.2551(7) 0.6071(3) 0.4770(3)
H1 H 0.168(3) 0.5842(15) 0.894(2)
H2 H 0.456(3) 0.5683(15) 1.002(2)
H3 H 0.283(4) 0.503(2) 1.094(2)
H4 H 0.178(4) 0.490(2) 1.001(2)
H5 H 0.162(4) 0.638(2) 1.169(2)
H6 H 0.413(4) 0.638(2) 1.118(2)
H7 H 0.367(4) 0.766(2) 1.090(2)
H8 H 0.485(4) 0.734(2) 1.018(2)
H9 H 0.065(4) 0.752(2) 1.117(2)
H10 H -0.073(4) 0.694(2) 1.078(2)
H11 H -0.063(4) 0.649(2) 0.928(2)
H12 H -0.132(4) 0.732(2) 0.901(2)
H13 H 0.077(4) 0.759(2) 0.811(2)
H14 H 0.044(4) 0.672(2) 0.790(2)
H15 H 0.265(4) 0.806(2) 0.945(2)
H16 H 0.415(4) 0.824(2) 0.816(2)
H17 H 0.643(5) 0.824(2) 0.732(2)
H18 H 0.767(4) 0.713(2) 0.687(2)
H19 H 0.662(5) 0.597(2) 0.739(2)
H20 H 0.011(4) 0.454(2) 0.784(2)
H21 H -0.222(4) 0.475(2) 0.681(2)
H22 H 0.052(4) 0.610(2) 0.540(2)
H23 H 0.291(5) 0.589(2) 0.632(2)
H24 H -0.1737 0.5929 0.4363
H25 H -0.2310 0.6573 0.4998
H26 H -0.3652 0.6077 0.4466
loop_
_geom_bond_atom_site_label_1
_geom_bond_atom_site_label_2
_geom_bond_site_symmetry_1
_geom_bond_site_symmetry_2
N1 C1 1_555 1_555
C1 C2 1_555 1_555
C2 C3 1_555 1_555
C3 O1 1_555 1_555
O1 C4 1_555 1_555
C4 C5 1_555 1_555
C5 C2 1_555 1_555
C6 C5 1_555 1_555
C7 C4 1_555 1_555
N2 C7 1_555 1_555
C8 N2 1_555 1_555
C9 C8 1_555 1_555
C10 C1 1_555 1_555
C11 C6 1_555 1_555
C12 C10 1_555 1_555
C13 C12 1_555 1_555
C14 C13 1_555 1_555
C15 C14 1_555 1_555
C16 C15 1_555 1_555
C17 N1 1_555 1_555
S1 N1 1_555 1_555
O2 S1 1_555 1_555
O3 S1 1_555 1_555
C18 S1 1_555 1_555
C19 C18 1_555 1_555
C20 C19 1_555 1_555
C21 C20 1_555 1_555
C22 C21 1_555 1_555
C23 C18 1_555 1_555
O4 C21 1_555 1_555
C24 O4 1_555 1_555
H1 C1 1_555 1_555
H2 C2 1_555 1_555
H3 C3 1_555 1_555
H4 C3 1_555 1_555
H5 C4 1_555 1_555
H6 C5 1_555 1_555
H7 C6 1_555 1_555
H8 C6 1_555 1_555
H9 C7 1_555 1_555
H10 C7 1_555 1_555
H11 C8 1_555 1_555
H12 C8 1_555 1_555
H13 C9 1_555 1_555
H14 C9 1_555 1_555
H15 C11 1_555 1_555
H16 C13 1_555 1_555
H17 C14 1_555 1_555
H18 C15 1_555 1_555
H19 C16 1_555 1_555
H20 C19 1_555 1_555
H21 C20 1_555 1_555
H22 C22 1_555 1_555
H23 C23 1_555 1_555
H24 C24 1_555 1_555
H25 C24 1_555 1_555
H26 C24 1_555 1_555
N2 C11 1_555 1_555
C9 C10 1_555 1_555
C10 C11 1_555 1_555
C12 C17 1_555 1_555
C16 C17 1_555 1_555
C22 C23 1_555 1_555

#END
