
#######################################################################
#
#                 Cambridge Crystallographic Data Centre
#                                CCDC 
#
#######################################################################
#
# If this CIF has been generated from an entry in the Cambridge 
# Structural Database, then it will include bibliographic, chemical, 
# crystal, experimental, refinement or atomic coordinate data resulting 
# from the CCDC's data processing and validation procedures.
#
#######################################################################

data_KUHMUX
_chemical_formula_moiety         'C20 H15 F3 O1 S2'
_chemical_name_systematic        
4,4,4-Trifluoro-1-phenyl-3-(phenylsulfanyl)-3-(2-thienyl)butan-1-one
_symmetry_cell_setting           triclinic
_symmetry_space_group_name_H-M   'P 1'
_symmetry_Int_Tables_number      1
_space_group_name_Hall           'P 1'
loop_
_symmetry_equiv_pos_site_id
_symmetry_equiv_pos_as_xyz
1 x,y,z
_cell_length_a                   8.153(3)
_cell_length_b                   8.572(3)
_cell_length_c                   14.170(4)
_cell_angle_alpha                95.340(2)
_cell_angle_beta                 97.390(4)
_cell_angle_gamma                113.678(3)
_cell_volume                     887.914
_exptl_crystal_colour            colorless
_exptl_crystal_description       Prism
_cell_formula_units_Z            2
loop_
_atom_site_label
_atom_site_type_symbol
_atom_site_fract_x
_atom_site_fract_y
_atom_site_fract_z
S1 S 0.89422(10) 0.70329(9) 0.81241(5)
S2 S 1.21952(7) 0.89130(7) 0.71394(4)
O1 O 0.8808(2) 0.67899(18) 0.53477(10)
F1 F 1.2286(2) 1.26033(16) 0.73381(10)
F2 F 0.9510(2) 1.18554(17) 0.75214(11)
F3 F 1.1341(2) 1.12926(18) 0.85222(9)
C1 C 1.0282(3) 0.9576(3) 0.69526(14)
C2 C 0.9801(3) 0.9814(3) 0.59088(13)
H1 H 0.8905 1.0325 0.5886
H2 H 1.0915 1.0659 0.5729
C3 C 0.9026(3) 0.8197(2) 0.51497(14)
C4 C 0.8517(3) 0.8433(3) 0.41343(14)
C5 C 0.7777(3) 0.6988(3) 0.34090(15)
H3 H 0.7669 0.5898 0.3561
C6 C 0.7200(3) 0.7132(3) 0.24706(16)
H4 H 0.6728 0.6150 0.1980
C7 C 0.7312(3) 0.8703(3) 0.22491(15)
H5 H 0.6867 0.8787 0.1611
C8 C 0.8065(3) 1.0151(3) 0.29490(16)
H6 H 0.8161 1.1234 0.2790
C9 C 0.8686(3) 1.0020(3) 0.38940(16)
H7 H 0.9226 1.1020 0.4374
C10 C 1.3717(3) 1.0066(3) 0.63947(16)
C11 C 1.3602(3) 0.9242(3) 0.54735(17)
H8 H 1.2676 0.8116 0.5240
C12 C 1.4833(4) 1.0065(4) 0.4906(2)
H9 H 1.4762 0.9503 0.4281
C13 C 1.6321(3) 1.2535(4) 0.6159(2)
H10 H 1.7245 1.3664 0.6388
C14 C 1.6177(4) 1.1713(4) 0.5245(2)
H11 H 1.7008 1.2284 0.4845
C15 C 1.5102(3) 1.1695(3) 0.67408(19)
H12 H 1.5217 1.2237 0.7377
C16 C 1.0871(3) 1.1339(3) 0.75948(15)
C17 C 0.8674(3) 0.8284(3) 0.73036(13)
C18 C 0.6790(3) 0.8078(2) 0.70637(14)
H13 H 0.6330 0.8624 0.6612
C19 C 0.5760(3) 0.6873(3) 0.76544(18)
H14 H 0.4496 0.6547 0.7639
C20 C 0.6734(4) 0.6251(3) 0.82265(18)
H15 H 0.6223 0.5453 0.8644
S3 S -0.21900(8) 0.29678(7) -0.05843(4)
S4 S 0.01052(7) 0.65995(6) 0.06061(4)
O2 O -0.0881(2) 0.4321(2) 0.22874(11)
F4 F 0.40390(18) 0.68816(16) 0.04040(10)
F5 F 0.32702(19) 0.41626(17) 0.01081(11)
F6 F 0.1987(2) 0.5343(2) -0.08326(10)
C21 C 0.1109(3) 0.5020(2) 0.07176(14)
C22 C 0.1999(3) 0.5100(3) 0.17545(13)
H16 H 0.2581 0.4285 0.1745
H17 H 0.2979 0.6273 0.1976
C23 C 0.0744(3) 0.4688(2) 0.24954(13)
C24 C 0.1594(3) 0.4714(2) 0.35045(14)
C25 C 0.0551(3) 0.4525(3) 0.42281(15)
H18 H -0.0658 0.4430 0.4080
C26 C 0.1264(3) 0.4474(3) 0.51592(16)
H19 H 0.0550 0.4364 0.5649
C27 C 0.3016(3) 0.4583(3) 0.53783(15)
H20 H 0.3485 0.4501 0.6012
C28 C 0.4080(4) 0.4810(4) 0.46742(17)
H21 H 0.5296 0.4924 0.4829
C29 C 0.3373(3) 0.4873(3) 0.37409(17)
H22 H 0.4108 0.5026 0.3259
C30 C 0.1854(3) 0.8621(3) 0.11945(15)
C31 C 0.1927(3) 0.9156(3) 0.21554(16)
H23 H 0.1095 0.8415 0.2502
C32 C 0.3213(4) 1.0777(3) 0.2619(2)
H24 H 0.3251 1.1150 0.3278
C33 C 0.4437(4) 1.1837(3) 0.2109(3)
H25 H 0.5335 1.2930 0.2426
C34 C 0.4367(4) 1.1331(3) 0.1162(3)
H26 H 0.5216 1.2071 0.0823
C35 C 0.3056(4) 0.9735(3) 0.0684(2)
H27 H 0.2980 0.9405 0.0016
C36 C 0.2601(3) 0.5355(3) 0.00894(15)
C37 C -0.0390(3) 0.3255(3) 0.03082(14)
C38 C -0.0464(3) 0.1679(3) 0.05068(16)
H28 H 0.0395 0.1549 0.0977
C39 C -0.1991(4) 0.0273(3) -0.00827(18)
H29 H -0.2254 -0.0902 -0.0046
C40 C -0.3016(4) 0.0769(3) -0.06928(18)
H30 H -0.4076 -0.0008 -0.1134
loop_
_geom_bond_atom_site_label_1
_geom_bond_atom_site_label_2
_geom_bond_site_symmetry_1
_geom_bond_site_symmetry_2
S1 C17 1_555 1_555
S2 C1 1_555 1_555
O1 C3 1_555 1_555
F1 C16 1_555 1_555
F2 C16 1_555 1_555
F3 C16 1_555 1_555
C1 C2 1_555 1_555
C2 H1 1_555 1_555
H2 C2 1_555 1_555
C3 C2 1_555 1_555
C4 C3 1_555 1_555
C5 C4 1_555 1_555
H3 C5 1_555 1_555
C6 C5 1_555 1_555
H4 C6 1_555 1_555
C7 C6 1_555 1_555
H5 C7 1_555 1_555
C8 C7 1_555 1_555
H6 C8 1_555 1_555
C9 C4 1_555 1_555
H7 C9 1_555 1_555
C10 S2 1_555 1_555
C11 C10 1_555 1_555
H8 C11 1_555 1_555
C12 C11 1_555 1_555
H9 C12 1_555 1_555
C13 H10 1_555 1_555
C14 C12 1_555 1_555
H11 C14 1_555 1_555
C15 C10 1_555 1_555
H12 C15 1_555 1_555
C16 C1 1_555 1_555
C17 C1 1_555 1_555
C18 C17 1_555 1_555
H13 C18 1_555 1_555
C19 C18 1_555 1_555
H14 C19 1_555 1_555
C20 S1 1_555 1_555
H15 C20 1_555 1_555
S3 C37 1_555 1_555
S4 C21 1_555 1_555
O2 C23 1_555 1_555
F4 C36 1_555 1_555
F5 C36 1_555 1_555
F6 C36 1_555 1_555
C21 C22 1_555 1_555
C22 H16 1_555 1_555
H17 C22 1_555 1_555
C23 C22 1_555 1_555
C24 C23 1_555 1_555
C25 C24 1_555 1_555
H18 C25 1_555 1_555
C26 C25 1_555 1_555
H19 C26 1_555 1_555
C27 C26 1_555 1_555
H20 C27 1_555 1_555
C28 C27 1_555 1_555
H21 C28 1_555 1_555
C29 C24 1_555 1_555
H22 C29 1_555 1_555
C30 S4 1_555 1_555
C31 C30 1_555 1_555
H23 C31 1_555 1_555
C32 C31 1_555 1_555
H24 C32 1_555 1_555
C33 C32 1_555 1_555
H25 C33 1_555 1_555
C34 C33 1_555 1_555
H26 C34 1_555 1_555
C35 C30 1_555 1_555
H27 C35 1_555 1_555
C36 C21 1_555 1_555
C37 C21 1_555 1_555
C38 C37 1_555 1_555
H28 C38 1_555 1_555
C39 C38 1_555 1_555
H29 C39 1_555 1_555
C40 S3 1_555 1_555
H30 C40 1_555 1_555
C8 C9 1_555 1_555
C13 C14 1_555 1_555
C13 C15 1_555 1_555
C19 C20 1_555 1_555
C28 C29 1_555 1_555
C34 C35 1_555 1_555
C39 C40 1_555 1_555

#END
