
#######################################################################
#
#                 Cambridge Crystallographic Data Centre
#                                CCDC 
#
#######################################################################
#
# If this CIF has been generated from an entry in the Cambridge 
# Structural Database, then it will include bibliographic, chemical, 
# crystal, experimental, refinement or atomic coordinate data resulting 
# from the CCDC's data processing and validation procedures.
#
#######################################################################

data_KUHTUE
_chemical_formula_moiety         'C7 H11 N2 1+,C7 H5 O3 1-,C7 H6 O2'
_chemical_name_systematic        
'4-(dimethylamino)pyridinium salicylate benzoic acid solvate'
_symmetry_cell_setting           triclinic
_symmetry_space_group_name_H-M   'P -1'
_symmetry_Int_Tables_number      2
_space_group_name_Hall           '-P 1'
loop_
_symmetry_equiv_pos_site_id
_symmetry_equiv_pos_as_xyz
1 x,y,z
2 -x,-y,-z
_cell_length_a                   8.4384(5)
_cell_length_b                   9.1131(6)
_cell_length_c                   13.4063(8)
_cell_angle_alpha                83.902(3)
_cell_angle_beta                 89.425(3)
_cell_angle_gamma                65.968(3)
_cell_volume                     935.625
_exptl_crystal_colour            colorless
_exptl_crystal_description       block
_chemical_melting_point          '384-387 K'
_cell_formula_units_Z            2
loop_
_atom_site_label
_atom_site_type_symbol
_atom_site_fract_x
_atom_site_fract_y
_atom_site_fract_z
O1 O 0.10014(14) 1.11395(14) 0.11230(8)
O2 O 0.28469(14) 1.20010(13) 0.17919(8)
O3 O 0.36980(14) 1.12910(13) 0.36317(8)
C1 C 0.19050(18) 1.12045(17) 0.18417(10)
C2 C 0.18769(17) 1.02757(16) 0.28303(10)
C3 C 0.09575(18) 0.92972(17) 0.29205(10)
H1 H 0.0357 0.9229 0.2362
C4 C 0.09245(18) 0.84273(17) 0.38266(11)
H2 H 0.0312 0.7776 0.3877
C5 C 0.27802(17) 1.03655(16) 0.36802(10)
C6 C 0.27339(19) 0.94992(17) 0.45950(11)
H3 H 0.3320 0.9568 0.5160
C7 C 0.18170(19) 0.85395(17) 0.46601(11)
H4 H 0.1796 0.7960 0.5271
H5 H 0.345(3) 1.172(3) 0.2867(19)
O4 O 0.06700(14) 0.26615(13) 0.93763(8)
O5 O 0.29729(15) 0.05295(12) 0.89566(8)
C8 C 0.18594(19) 0.18877(17) 0.87503(11)
C9 C 0.17494(18) 0.28406(17) 0.77509(10)
C10 C 0.29433(19) 0.21068(18) 0.70390(11)
H6 H 0.3769 0.1053 0.7190
C11 C 0.2905(2) 0.29440(19) 0.61044(11)
H7 H 0.3697 0.2450 0.5628
C12 C 0.05268(19) 0.44252(18) 0.75258(11)
H8 H -0.0267 0.4924 0.8000
C13 C 0.0495(2) 0.52568(18) 0.65925(11)
H9 H -0.0325 0.6313 0.6441
C14 C 0.1678(2) 0.45229(19) 0.58848(11)
H10 H 0.1651 0.5088 0.5261
H11 H 0.086(3) 0.197(3) 1.007(2)
N1 N 0.42377(18) 0.29247(16) 1.00754(10)
N2 N 0.44048(15) 0.59154(14) 0.75897(9)
C15 C 0.5503(2) 0.23617(18) 0.94212(11)
H12 H 0.6328 0.1301 0.9537
C16 C 0.55986(19) 0.33199(17) 0.85902(11)
H13 H 0.6483 0.2909 0.8145
C17 C 0.3029(2) 0.44585(19) 0.99294(11)
H14 H 0.2165 0.4822 1.0392
C18 C 0.30467(18) 0.54869(18) 0.91195(11)
H15 H 0.2207 0.6544 0.9035
C19 C 0.43549(18) 0.49389(17) 0.84027(10)
C20 C 0.5648(2) 0.52885(19) 0.68119(11)
H16 H 0.6806 0.4960 0.7083
H17 H 0.5429 0.6117 0.6260
H18 H 0.5526 0.4377 0.6581
C21 C 0.3115(2) 0.75879(17) 0.74293(11)
H19 H 0.1992 0.7600 0.7301
H20 H 0.3419 0.8148 0.6864
H21 H 0.3086 0.8114 0.8017
H22 H 0.406(3) 0.228(3) 1.0627(19)
loop_
_geom_bond_atom_site_label_1
_geom_bond_atom_site_label_2
_geom_bond_site_symmetry_1
_geom_bond_site_symmetry_2
O1 C1 1_555 1_555
O2 C1 1_555 1_555
O3 C5 1_555 1_555
C1 C2 1_555 1_555
C2 C3 1_555 1_555
C3 H1 1_555 1_555
C4 C3 1_555 1_555
H2 C4 1_555 1_555
C5 C2 1_555 1_555
C6 C5 1_555 1_555
H3 C6 1_555 1_555
C7 C4 1_555 1_555
H4 C7 1_555 1_555
H5 O3 1_555 1_555
O4 C8 1_555 1_555
O5 C8 1_555 1_555
C8 C9 1_555 1_555
C9 C10 1_555 1_555
C10 H6 1_555 1_555
C11 C10 1_555 1_555
H7 C11 1_555 1_555
C12 C9 1_555 1_555
H8 C12 1_555 1_555
C13 C12 1_555 1_555
H9 C13 1_555 1_555
C14 C11 1_555 1_555
H10 C14 1_555 1_555
H11 O4 1_555 1_555
N1 C15 1_555 1_555
N2 C19 1_555 1_555
C15 H12 1_555 1_555
C16 C15 1_555 1_555
H13 C16 1_555 1_555
C17 N1 1_555 1_555
H14 C17 1_555 1_555
C18 C17 1_555 1_555
H15 C18 1_555 1_555
C19 C16 1_555 1_555
C20 N2 1_555 1_555
H16 C20 1_555 1_555
H17 C20 1_555 1_555
H18 C20 1_555 1_555
C21 N2 1_555 1_555
H19 C21 1_555 1_555
H20 C21 1_555 1_555
H21 C21 1_555 1_555
H22 N1 1_555 1_555
C6 C7 1_555 1_555
C13 C14 1_555 1_555
C18 C19 1_555 1_555

#END
