
#######################################################################
#
#                 Cambridge Crystallographic Data Centre
#                                CCDC 
#
#######################################################################
#
# If this CIF has been generated from an entry in the Cambridge 
# Structural Database, then it will include bibliographic, chemical, 
# crystal, experimental, refinement or atomic coordinate data resulting 
# from the CCDC's data processing and validation procedures.
#
#######################################################################

data_KUJGAX
_chemical_formula_moiety         'C72 H96 N8,C1 H2 Cl2'
_chemical_name_systematic        
"N,N'',N'''':N',N''',N'''''-bis(2,2',2''-Nitrilo-triethyl)-tris(all-trans-8,8'-diapo-\y,\y-carotene-8,8'-di-imine) dichloromethane solvate"
_symmetry_cell_setting           rhombohedral
_symmetry_space_group_name_H-M   'R 3'
_symmetry_Int_Tables_number      146
_space_group_name_Hall           'R 3'
loop_
_symmetry_equiv_pos_site_id
_symmetry_equiv_pos_as_xyz
1 x,y,z
2 1/3+x,2/3+y,2/3+z
3 2/3+x,1/3+y,1/3+z
4 -y,x-y,z
5 -x+y,-x,z
6 1/3-y,2/3+x-y,2/3+z
7 1/3-x+y,2/3-x,2/3+z
8 2/3-y,1/3+x-y,1/3+z
9 2/3-x+y,1/3-x,1/3+z
_cell_length_a                   13.351(4)
_cell_length_b                   13.351(4)
_cell_length_c                   34.765(11)
_cell_angle_alpha                90
_cell_angle_beta                 90
_cell_angle_gamma                120
_cell_volume                     5366.62
_cell_formula_units_Z            3
loop_
_atom_site_label
_atom_site_type_symbol
_atom_site_fract_x
_atom_site_fract_y
_atom_site_fract_z
Cl1 Cl 0.0285(33) 0.1232(22) 0.4290(10)
C25 C 0.0000 0.0000 0.4000(10)
Cl1C Cl -0.1232(22) -0.0947(40) 0.4290(10)
Cl1D Cl 0.0947(40) -0.0285(33) 0.4290(10)
N1 N 0.0000 0.0000 0.2735
C1 C 0.1195(5) 0.0515(5) 0.2852(2)
C2 C 0.2012(5) 0.1373(5) 0.2552(3)
N2 N 0.2174(4) 0.0721(4) 0.2242(2)
C3 C 0.1887(5) 0.0841(5) 0.1906(2)
C4 C 0.2033(4) 0.0262(5) 0.1572(3)
C5 C 0.2341(6) -0.0664(6) 0.1638(3)
C6 C 0.1888(5) 0.0593(5) 0.1219(3)
C7 C 0.2008(5) 0.0147(5) 0.0861(3)
C8 C 0.1889(5) 0.0548(5) 0.0514(3)
C9 C 0.1996(5) 0.0148(5) 0.0136(3)
C10 C 0.2186(7) -0.0868(6) 0.0120(3)
C11 C 0.1907(5) 0.0658(5) -0.0181(3)
C12 C 0.1897(5) 0.0321(6) -0.0570(3)
C13 C 0.2032(6) 0.0998(6) -0.0881(3)
C14 C 0.1954(6) 0.0620(5) -0.1267(3)
C15 C 0.2246(5) 0.1286(5) -0.1592(3)
C16 C 0.2790(8) 0.2570(6) -0.1577(3)
C17 C 0.2022(6) 0.0763(5) -0.1971(3)
C18 C 0.2285(6) 0.1291(5) -0.2305(3)
C19 C 0.2012(6) 0.0731(5) -0.2679(3)
C20 C 0.2307(5) 0.1269(5) -0.3023(3)
C21 C 0.2979(7) 0.2558(6) -0.3077(3)
C22 C 0.1982(5) 0.0558(6) -0.3371(3)
N3 N 0.2280(5) 0.1004(5) -0.3700(2)
C23 C 0.1926(7) 0.0240(8) -0.4029(3)
C24 C 0.1206(6) 0.0514(7) -0.4306(3)
N4 N 0.0000 0.0000 -0.4180(3)
H1 H 0.130 0.093 0.310
H2 H 0.139 -0.011 0.289
H3 H 0.277 0.191 0.267
H4 H 0.166 0.183 0.244
H5 H 0.155 0.136 0.187
H6 H 0.240 -0.077 0.192
H7 H 0.310 -0.043 0.151
H8 H 0.173 -0.141 0.152
H9 H 0.168 0.122 0.121
H10 H 0.219 -0.050 0.087
H11 H 0.171 0.119 0.052
H12 H 0.223 -0.112 0.039
H13 H 0.292 -0.065 -0.002
H14 H 0.153 -0.152 -0.002
H15 H 0.184 0.136 -0.014
H16 H 0.179 -0.047 -0.062
H17 H 0.219 0.180 -0.083
H18 H 0.166 -0.022 -0.131
H19 H 0.293 0.289 -0.184
H20 H 0.354 0.290 -0.144
H21 H 0.226 0.278 -0.144
H22 H 0.162 -0.010 -0.198
H23 H 0.270 0.216 -0.230
H24 H 0.157 -0.013 -0.268
H25 H 0.315 0.295 -0.282
H26 H 0.251 0.280 -0.323
H27 H 0.372 0.278 -0.321
H28 H 0.151 -0.030 -0.335
H29 H 0.263 0.034 -0.417
H30 H 0.145 -0.058 -0.394
H31 H 0.122 0.021 -0.457
H32 H 0.155 0.137 -0.432
C1C C -0.0515(5) 0.0680(7) 0.2852(2)
C1D C -0.0680(7) -0.1195(5) 0.2852(2)
C24C C -0.0514(7) 0.0692(9) -0.4306(3)
C24D C -0.0692(9) -0.1206(6) -0.4306(3)
C2C C -0.1373(5) 0.0639(7) 0.2552(3)
H1C H -0.093 0.037 0.310
H2C H 0.011 0.150 0.289
C2D C -0.0639(7) -0.2012(5) 0.2552(3)
H1D H -0.037 -0.130 0.310
H2D H -0.150 -0.139 0.289
C23C C -0.0240(8) 0.1686(11) -0.4029(3)
H31C H -0.021 0.101 -0.457
H32C H -0.137 0.018 -0.432
C23D C -0.1686(11) -0.1926(7) -0.4029(3)
H31D H -0.101 -0.122 -0.457
H32D H -0.018 -0.155 -0.432
N2C N -0.0721(4) 0.1453(6) 0.2242(2)
H3C H -0.191 0.086 0.267
H4C H -0.183 -0.017 0.244
N2D N -0.1453(6) -0.2174(4) 0.2242(2)
H3D H -0.086 -0.277 0.267
H4D H 0.017 -0.166 0.244
N3C N -0.1004(5) 0.1276(7) -0.3700(2)
H29C H -0.034 0.229 -0.417
H30C H 0.058 0.203 -0.394
N3D N -0.1276(7) -0.2280(5) -0.3700(2)
H29D H -0.229 -0.263 -0.417
H30D H -0.203 -0.145 -0.394
C3C C -0.0841(5) 0.1046(7) 0.1906(2)
C3D C -0.1046(7) -0.1887(5) 0.1906(2)
C22C C -0.0558(6) 0.1424(8) -0.3371(3)
C22D C -0.1424(8) -0.1982(5) -0.3371(3)
C4C C -0.0262(5) 0.1771(6) 0.1572(3)
H5C H -0.136 0.019 0.187
C4D C -0.1771(6) -0.2033(4) 0.1572(3)
H5D H -0.019 -0.155 0.187
C20C C -0.1269(5) 0.1038(7) -0.3023(3)
H28C H 0.030 0.181 -0.335
C20D C -0.1038(7) -0.2307(5) -0.3023(3)
H28D H -0.181 -0.151 -0.335
C5C C 0.0664(6) 0.3005(8) 0.1638(3)
C6C C -0.0593(5) 0.1295(7) 0.1219(3)
C5D C -0.3005(8) -0.2341(6) 0.1638(3)
C6D C -0.1295(7) -0.1888(5) 0.1219(3)
C19C C -0.0731(5) 0.1281(8) -0.2679(3)
C21C C -0.2558(6) 0.0421(9) -0.3077(3)
C19D C -0.1281(8) -0.2012(6) -0.2679(3)
C21D C -0.0421(9) -0.2979(7) -0.3077(3)
H6C H 0.077 0.317 0.192
H7C H 0.043 0.353 0.151
H8C H 0.141 0.314 0.152
C7C C -0.0147(5) 0.1861(7) 0.0861(3)
H9C H -0.122 0.046 0.121
H6D H -0.317 -0.240 0.192
H7D H -0.353 -0.310 0.151
H8D H -0.314 -0.173 0.152
C7D C -0.1861(7) -0.2008(5) 0.0861(3)
H9D H -0.046 -0.168 0.121
C18C C -0.1291(5) 0.0994(8) -0.2305(3)
H24C H 0.013 0.170 -0.268
H25C H -0.295 0.020 -0.282
H26C H -0.280 -0.029 -0.323
H27C H -0.278 0.094 -0.321
C18D C -0.0994(8) -0.2285(6) -0.2305(3)
H24D H -0.170 -0.157 -0.268
H25D H -0.020 -0.315 -0.282
H26D H 0.029 -0.251 -0.323
H27D H -0.094 -0.372 -0.321
C8C C -0.0548(5) 0.1341(7) 0.0514(3)
H10C H 0.050 0.269 0.087
C8D C -0.1341(7) -0.1889(5) 0.0514(3)
H10D H -0.269 -0.219 0.087
C17C C -0.0763(5) 0.1259(8) -0.1971(3)
H23C H -0.216 0.054 -0.230
C17D C -0.1259(8) -0.2022(6) -0.1971(3)
H23D H -0.054 -0.270 -0.230
C9C C -0.0148(5) 0.1848(7) 0.0136(3)
H11C H -0.119 0.052 0.052
C9D C -0.1848(7) -0.1996(5) 0.0136(3)
H11D H -0.052 -0.171 0.052
C15C C -0.1286(5) 0.0960(7) -0.1592(3)
H22C H 0.010 0.172 -0.198
C15D C -0.0960(7) -0.2246(5) -0.1592(3)
H22D H -0.172 -0.162 -0.198
C10C C 0.0868(6) 0.3054(9) 0.0120(3)
C11C C -0.0658(5) 0.1249(7) -0.0181(3)
C10D C -0.3054(9) -0.2186(7) 0.0120(3)
C11D C -0.1249(7) -0.1907(5) -0.0181(3)
C14C C -0.0620(5) 0.1334(8) -0.1267(3)
C16C C -0.2570(6) 0.0220(10) -0.1577(3)
C14D C -0.1334(8) -0.1954(6) -0.1267(3)
C16D C -0.0220(10) -0.2790(8) -0.1577(3)
H12C H 0.112 0.335 0.039
H13C H 0.065 0.357 -0.002
H14C H 0.152 0.305 -0.002
C12C C -0.0321(6) 0.1576(8) -0.0570(3)
H15C H -0.136 0.048 -0.014
H12D H -0.335 -0.223 0.039
H13D H -0.357 -0.292 -0.002
H14D H -0.305 -0.153 -0.002
C12D C -0.1576(8) -0.1897(5) -0.0570(3)
H15D H -0.048 -0.184 -0.014
C13C C -0.0998(6) 0.1034(8) -0.0881(3)
H18C H 0.022 0.188 -0.131
H19C H -0.289 0.004 -0.184
H20C H -0.290 0.064 -0.144
H21C H -0.278 -0.052 -0.144
C13D C -0.1034(8) -0.2032(6) -0.0881(3)
H18D H -0.188 -0.166 -0.131
H19D H -0.004 -0.293 -0.184
H20D H -0.064 -0.354 -0.144
H21D H 0.052 -0.226 -0.144
H16C H 0.047 0.226 -0.062
H16D H -0.226 -0.179 -0.062
H17C H -0.180 0.039 -0.083
H17D H -0.039 -0.219 -0.083
Cl2? Cl -0.0113(26) -0.1049(33) 0.4349(8)
loop_
_geom_bond_atom_site_label_1
_geom_bond_atom_site_label_2
_geom_bond_site_symmetry_1
_geom_bond_site_symmetry_2
N1 C1 1_555 1_555
C1 C2 1_555 1_555
C2 N2 1_555 1_555
N2 C3 1_555 1_555
C3 C4 1_555 1_555
C4 C5 1_555 1_555
C5 H6 1_555 1_555
C6 C4 1_555 1_555
C7 C6 1_555 1_555
C8 C7 1_555 1_555
C9 C8 1_555 1_555
C10 C9 1_555 1_555
C11 C9 1_555 1_555
C12 C11 1_555 1_555
C13 C12 1_555 1_555
C14 C13 1_555 1_555
C15 C14 1_555 1_555
C16 C15 1_555 1_555
C17 C15 1_555 1_555
C18 C17 1_555 1_555
C19 C18 1_555 1_555
C20 C19 1_555 1_555
C21 C20 1_555 1_555
C22 C20 1_555 1_555
N3 C22 1_555 1_555
C23 N3 1_555 1_555
C24 C23 1_555 1_555
N4 C24 1_555 1_555
Cl1 C25 1_555 1_555
C25 Cl1C 1_555 1_555
H1 C1 1_555 1_555
H2 C1 1_555 1_555
H3 C2 1_555 1_555
H4 C2 1_555 1_555
H5 C3 1_555 1_555
H7 C5 1_555 1_555
H8 C5 1_555 1_555
H9 C6 1_555 1_555
H10 C7 1_555 1_555
H11 C8 1_555 1_555
H12 C10 1_555 1_555
H13 C10 1_555 1_555
H14 C10 1_555 1_555
H15 C11 1_555 1_555
H16 C12 1_555 1_555
H17 C13 1_555 1_555
H18 C14 1_555 1_555
H19 C16 1_555 1_555
H20 C16 1_555 1_555
H21 C16 1_555 1_555
H22 C17 1_555 1_555
H23 C18 1_555 1_555
H24 C19 1_555 1_555
H25 C21 1_555 1_555
H26 C21 1_555 1_555
H27 C21 1_555 1_555
H28 C22 1_555 1_555
H29 C23 1_555 1_555
H30 C23 1_555 1_555
H31 C24 1_555 1_555
H32 C24 1_555 1_555
C1C N1 1_555 1_555
C1D N1 1_555 1_555
C24C N4 1_555 1_555
C24D N4 1_555 1_555
C2C C1C 1_555 1_555
H1C C1C 1_555 1_555
H2C C1C 1_555 1_555
C2D C1D 1_555 1_555
H1D C1D 1_555 1_555
H2D C1D 1_555 1_555
C23C C24C 1_555 1_555
H31C C24C 1_555 1_555
H32C C24C 1_555 1_555
C23D C24D 1_555 1_555
H31D C24D 1_555 1_555
H32D C24D 1_555 1_555
N2C C2C 1_555 1_555
H3C C2C 1_555 1_555
H4C C2C 1_555 1_555
N2D C2D 1_555 1_555
H3D C2D 1_555 1_555
H4D C2D 1_555 1_555
N3C C23C 1_555 1_555
H29C C23C 1_555 1_555
H30C C23C 1_555 1_555
N3D C23D 1_555 1_555
H29D C23D 1_555 1_555
H30D C23D 1_555 1_555
C3C N2C 1_555 1_555
C3D N2D 1_555 1_555
C22C N3C 1_555 1_555
C22D N3D 1_555 1_555
C4C C3C 1_555 1_555
H5C C3C 1_555 1_555
C4D C3D 1_555 1_555
H5D C3D 1_555 1_555
C20C C22C 1_555 1_555
H28C C22C 1_555 1_555
C20D C22D 1_555 1_555
H28D C22D 1_555 1_555
C5C C4C 1_555 1_555
C6C C4C 1_555 1_555
C5D C4D 1_555 1_555
C6D C4D 1_555 1_555
C19C C20C 1_555 1_555
C21C C20C 1_555 1_555
C19D C20D 1_555 1_555
C21D C20D 1_555 1_555
H6C C5C 1_555 1_555
H7C C5C 1_555 1_555
H8C C5C 1_555 1_555
C7C C6C 1_555 1_555
H9C C6C 1_555 1_555
H6D C5D 1_555 1_555
H7D C5D 1_555 1_555
H8D C5D 1_555 1_555
C7D C6D 1_555 1_555
H9D C6D 1_555 1_555
C18C C19C 1_555 1_555
H24C C19C 1_555 1_555
H25C C21C 1_555 1_555
H26C C21C 1_555 1_555
H27C C21C 1_555 1_555
C18D C19D 1_555 1_555
H24D C19D 1_555 1_555
H25D C21D 1_555 1_555
H26D C21D 1_555 1_555
H27D C21D 1_555 1_555
C8C C7C 1_555 1_555
H10C C7C 1_555 1_555
C8D C7D 1_555 1_555
H10D C7D 1_555 1_555
C17C C18C 1_555 1_555
H23C C18C 1_555 1_555
C17D C18D 1_555 1_555
H23D C18D 1_555 1_555
C9C C8C 1_555 1_555
H11C C8C 1_555 1_555
C9D C8D 1_555 1_555
H11D C8D 1_555 1_555
C15C C17C 1_555 1_555
H22C C17C 1_555 1_555
C15D C17D 1_555 1_555
H22D C17D 1_555 1_555
C10C C9C 1_555 1_555
C11C C9C 1_555 1_555
C10D C9D 1_555 1_555
C11D C9D 1_555 1_555
C14C C15C 1_555 1_555
C16C C15C 1_555 1_555
C14D C15D 1_555 1_555
C16D C15D 1_555 1_555
H12C C10C 1_555 1_555
H13C C10C 1_555 1_555
H14C C10C 1_555 1_555
C12C C11C 1_555 1_555
H15C C11C 1_555 1_555
H12D C10D 1_555 1_555
H13D C10D 1_555 1_555
H14D C10D 1_555 1_555
C12D C11D 1_555 1_555
H15D C11D 1_555 1_555
C13C C14C 1_555 1_555
H18C C14C 1_555 1_555
H19C C16C 1_555 1_555
H20C C16C 1_555 1_555
H21C C16C 1_555 1_555
C13D C14D 1_555 1_555
H18D C14D 1_555 1_555
H19D C16D 1_555 1_555
H20D C16D 1_555 1_555
H21D C16D 1_555 1_555
H16C C12C 1_555 1_555
H16D C12D 1_555 1_555
H17C C13C 1_555 1_555
H17D C13D 1_555 1_555
Cl1D C25 1_555 1_555
C12C C13C 1_555 1_555
C12D C13D 1_555 1_555

#END
