
#######################################################################
#
#                 Cambridge Crystallographic Data Centre
#                                CCDC 
#
#######################################################################
#
# If this CIF has been generated from an entry in the Cambridge 
# Structural Database, then it will include bibliographic, chemical, 
# crystal, experimental, refinement or atomic coordinate data resulting 
# from the CCDC's data processing and validation procedures.
#
#######################################################################

data_KUJNOU
_chemical_formula_moiety         'C8 H7 O3 1-,C3 H10 N1 1+'
_chemical_name_systematic        'propan-2-aminium 4-methoxybenzoate'
_symmetry_cell_setting           monoclinic
_symmetry_space_group_name_H-M   'P 21/n'
_symmetry_Int_Tables_number      14
_space_group_name_Hall           '-P 2yn'
loop_
_symmetry_equiv_pos_site_id
_symmetry_equiv_pos_as_xyz
1 x,y,z
2 1/2-x,1/2+y,1/2-z
3 -x,-y,-z
4 1/2+x,1/2-y,1/2+z
_cell_length_a                   7.9800(6)
_cell_length_b                   6.4803(3)
_cell_length_c                   23.4121(18)
_cell_angle_alpha                90
_cell_angle_beta                 96.0850(10)
_cell_angle_gamma                90
_cell_volume                     1203.88
_exptl_crystal_colour            colorless
_exptl_crystal_description       block
_cell_formula_units_Z            4
loop_
_atom_site_label
_atom_site_type_symbol
_atom_site_fract_x
_atom_site_fract_y
_atom_site_fract_z
N1 N 0.2930(4) 0.8035(4) 0.19857(11)
H1 H 0.2345 0.6989 0.1819
H2 H 0.2351 0.9200 0.1922
H3 H 0.3113 0.7809 0.2362
C1 C 0.4564(5) 0.8211(6) 0.17435(16)
H4 H 0.4336 0.8518 0.1333
C2 C 0.5466(6) 0.6175(7) 0.18072(19)
H5 H 0.5671 0.5826 0.2207
H6 H 0.6520 0.6272 0.1646
H7 H 0.4783 0.5124 0.1609
C3 C 0.5543(5) 0.9991(6) 0.20286(18)
H8 H 0.4875 1.1224 0.1984
H9 H 0.6565 1.0183 0.1853
H10 H 0.5811 0.9699 0.2430
O1 O 1.1329(3) 0.1888(3) 0.18877(9)
O2 O 1.0985(3) 0.4919(4) 0.14600(10)
O3 O 0.6633(3) -0.0363(3) -0.03966(9)
C4 C 1.0732(4) 0.3031(6) 0.14811(13)
C5 C 0.9636(4) 0.2078(5) 0.09936(12)
C6 C 0.9133(4) 0.3202(5) 0.05068(13)
H11 H 0.9463 0.4575 0.0487
C7 C 0.8155(4) 0.2349(5) 0.00493(14)
H12 H 0.7846 0.3134 -0.0277
C8 C 0.7635(4) 0.0339(5) 0.00745(13)
C9 C 0.8108(4) -0.0821(5) 0.05596(14)
H13 H 0.7754 -0.2183 0.0582
C10 C 0.9113(4) 0.0061(5) 0.10131(12)
H14 H 0.9442 -0.0728 0.1338
C11 C 0.6130(5) -0.2458(5) -0.04165(15)
H15 H 0.7105 -0.3324 -0.0419
H16 H 0.5380 -0.2700 -0.0758
H17 H 0.5562 -0.2772 -0.0085
loop_
_geom_bond_atom_site_label_1
_geom_bond_atom_site_label_2
_geom_bond_site_symmetry_1
_geom_bond_site_symmetry_2
N1 H1 1_555 1_555
H2 N1 1_555 1_555
H3 N1 1_555 1_555
C1 N1 1_555 1_555
H4 C1 1_555 1_555
C2 C1 1_555 1_555
H5 C2 1_555 1_555
H6 C2 1_555 1_555
H7 C2 1_555 1_555
C3 C1 1_555 1_555
H8 C3 1_555 1_555
H9 C3 1_555 1_555
H10 C3 1_555 1_555
O1 C4 1_555 1_555
O2 C4 1_555 1_555
O3 C8 1_555 1_555
C4 C5 1_555 1_555
C5 C6 1_555 1_555
C6 H11 1_555 1_555
C7 C6 1_555 1_555
H12 C7 1_555 1_555
C8 C7 1_555 1_555
C9 C8 1_555 1_555
H13 C9 1_555 1_555
C10 C5 1_555 1_555
H14 C10 1_555 1_555
C11 O3 1_555 1_555
H15 C11 1_555 1_555
H16 C11 1_555 1_555
H17 C11 1_555 1_555
C9 C10 1_555 1_555

#END
