
#######################################################################
#
#                 Cambridge Crystallographic Data Centre
#                                CCDC 
#
#######################################################################
#
# If this CIF has been generated from an entry in the Cambridge 
# Structural Database, then it will include bibliographic, chemical, 
# crystal, experimental, refinement or atomic coordinate data resulting 
# from the CCDC's data processing and validation procedures.
#
#######################################################################

data_KUJPAI
_chemical_formula_moiety         'C10 H11 O3 1-,C3 H10 N1 1+'
_chemical_name_systematic        'propan-2-aminium 2-methyl-2-phenoxypropanoate'
_symmetry_cell_setting           monoclinic
_symmetry_space_group_name_H-M   'P 21/c'
_symmetry_Int_Tables_number      14
_space_group_name_Hall           '-P 2ybc'
loop_
_symmetry_equiv_pos_site_id
_symmetry_equiv_pos_as_xyz
1 x,y,z
2 -x,1/2+y,1/2-z
3 -x,-y,-z
4 x,1/2-y,1/2+z
_cell_length_a                   24.581(2)
_cell_length_b                   6.3175(4)
_cell_length_c                   17.4025(15)
_cell_angle_alpha                90
_cell_angle_beta                 98.518(2)
_cell_angle_gamma                90
_cell_volume                     2672.63
_exptl_crystal_colour            colorless
_exptl_crystal_description       block
_cell_formula_units_Z            8
loop_
_atom_site_label
_atom_site_type_symbol
_atom_site_fract_x
_atom_site_fract_y
_atom_site_fract_z
O1 O 0.93382(13) 0.6120(6) 0.72543(19)
O2 O 0.83465(14) 0.4499(5) 0.6672(2)
O3 O 0.89550(14) 0.9108(6) 0.7464(2)
C1 C 0.8929(2) 0.7252(9) 0.7293(3)
C2 C 0.8375(2) 0.6198(9) 0.7201(3)
C3 C 0.8392(2) 0.4794(10) 0.5913(4)
C4 C 0.8580(2) 0.6529(10) 0.5604(4)
H1 H 0.8675 0.7712 0.5913
C5 C 0.8633(2) 0.6568(13) 0.4846(4)
H2 H 0.8770 0.7774 0.4636
C6 C 0.8221(2) 0.3129(11) 0.5460(4)
H3 H 0.8066 0.1950 0.5663
C7 C 0.7917(2) 0.7689(9) 0.6989(3)
H4 H 0.7949 0.8329 0.6497
H5 H 0.7930 0.8769 0.7379
H6 H 0.7574 0.6943 0.6951
C8 C 0.8328(2) 0.5089(10) 0.7944(3)
H7 H 0.7987 0.4322 0.7892
H8 H 0.8337 0.6111 0.8354
H9 H 0.8629 0.4121 0.8065
C9 C 0.8490(3) 0.4903(17) 0.4393(5)
H10 H 0.8536 0.4923 0.3872
C10 C 0.8282(3) 0.3216(14) 0.4695(5)
H11 H 0.8174 0.2062 0.4377
N1 N 0.96194(15) 0.2062(6) 0.7004(2)
H12 H 0.9956 0.2014 0.7274
H13 H 0.9412 0.1065 0.7176
H14 H 0.9472 0.3328 0.7062
C11 C 0.9649(2) 0.1703(8) 0.6190(3)
H15 H 0.9273 0.1643 0.5910
C12 C 0.9933(3) 0.3525(9) 0.5888(4)
H16 H 0.9716 0.4779 0.5908
H17 H 0.9983 0.3252 0.5360
H18 H 1.0286 0.3722 0.6200
C13 C 0.9914(3) -0.0331(9) 0.6095(3)
H19 H 1.0297 -0.0241 0.6304
H20 H 0.9876 -0.0679 0.5552
H21 H 0.9742 -0.1409 0.6365
O4 O 0.56324(14) 0.1233(6) 0.2463(2)
O5 O 0.66532(14) -0.0467(6) 0.2494(3)
O6 O 0.59647(18) 0.4280(7) 0.2206(3)
C14 C 0.5997(2) 0.2375(11) 0.2266(3)
C15 C 0.6490(2) 0.1318(10) 0.2036(3)
C16 C 0.6787(2) -0.0355(11) 0.3272(4)
C17 C 0.6724(2) 0.1340(11) 0.3719(5)
H22 H 0.6594 0.2612 0.3493
C18 C 0.7015(2) -0.2154(11) 0.3611(5)
H23 H 0.7084 -0.3307 0.3307
C19 C 0.6971(2) 0.2791(10) 0.2040(4)
H24 H 0.7115 0.3160 0.2567
H25 H 0.6854 0.4050 0.1754
H26 H 0.7252 0.2102 0.1803
C20 C 0.6323(3) 0.0396(11) 0.1253(4)
H27 H 0.6637 -0.0245 0.1077
H28 H 0.6180 0.1494 0.0898
H29 H 0.6044 -0.0656 0.1277
C21 C 0.7068(4) -0.0635(19) 0.4838(5)
H30 H 0.7166 -0.0734 0.5374
C22 C 0.7139(3) -0.2247(16) 0.4387(6)
H31 H 0.7280 -0.3501 0.4615
C23 C 0.6852(3) 0.1173(15) 0.4507(5)
H32 H 0.6789 0.2315 0.4820
N2 N 0.45418(15) 0.2225(7) 0.2052(3)
H33 H 0.4374 0.1202 0.2278
H34 H 0.4426 0.3479 0.2195
H35 H 0.4904 0.2123 0.2196
C24 C 0.4414(2) 0.2013(11) 0.1207(4)
H36 H 0.4016 0.2162 0.1054
C25 C 0.4694(3) 0.3725(11) 0.0839(4)
H37 H 0.4550 0.5069 0.0968
H38 H 0.4633 0.3542 0.0285
H39 H 0.5082 0.3676 0.1024
C26 C 0.4580(3) -0.0104(11) 0.0984(4)
H40 H 0.4972 -0.0252 0.1116
H41 H 0.4478 -0.0291 0.0434
H42 H 0.4400 -0.1155 0.1255
loop_
_geom_bond_atom_site_label_1
_geom_bond_atom_site_label_2
_geom_bond_site_symmetry_1
_geom_bond_site_symmetry_2
O1 C1 1_555 1_555
O2 C2 1_555 1_555
O3 C1 1_555 1_555
C1 C2 1_555 1_555
C2 C7 1_555 1_555
C3 O2 1_555 1_555
C4 C3 1_555 1_555
H1 C4 1_555 1_555
C5 C4 1_555 1_555
H2 C5 1_555 1_555
C6 C3 1_555 1_555
H3 C6 1_555 1_555
C7 H4 1_555 1_555
H5 C7 1_555 1_555
H6 C7 1_555 1_555
C8 C2 1_555 1_555
H7 C8 1_555 1_555
H8 C8 1_555 1_555
H9 C8 1_555 1_555
C9 C5 1_555 1_555
H10 C9 1_555 1_555
C10 C6 1_555 1_555
H11 C10 1_555 1_555
N1 H12 1_555 1_555
H13 N1 1_555 1_555
H14 N1 1_555 1_555
C11 N1 1_555 1_555
H15 C11 1_555 1_555
C12 C11 1_555 1_555
H16 C12 1_555 1_555
H17 C12 1_555 1_555
H18 C12 1_555 1_555
C13 C11 1_555 1_555
H19 C13 1_555 1_555
H20 C13 1_555 1_555
H21 C13 1_555 1_555
O4 C14 1_555 1_555
O5 C15 1_555 1_555
O6 C14 1_555 1_555
C14 C15 1_555 1_555
C15 C19 1_555 1_555
C16 O5 1_555 1_555
C17 C16 1_555 1_555
H22 C17 1_555 1_555
C18 C16 1_555 1_555
H23 C18 1_555 1_555
C19 H24 1_555 1_555
H25 C19 1_555 1_555
H26 C19 1_555 1_555
C20 C15 1_555 1_555
H27 C20 1_555 1_555
H28 C20 1_555 1_555
H29 C20 1_555 1_555
C21 H30 1_555 1_555
C22 C18 1_555 1_555
H31 C22 1_555 1_555
C23 C17 1_555 1_555
H32 C23 1_555 1_555
N2 H33 1_555 1_555
H34 N2 1_555 1_555
H35 N2 1_555 1_555
C24 N2 1_555 1_555
H36 C24 1_555 1_555
C25 C24 1_555 1_555
H37 C25 1_555 1_555
H38 C25 1_555 1_555
H39 C25 1_555 1_555
C26 C24 1_555 1_555
H40 C26 1_555 1_555
H41 C26 1_555 1_555
H42 C26 1_555 1_555
C9 C10 1_555 1_555
C21 C22 1_555 1_555
C21 C23 1_555 1_555

#END
