
#######################################################################
#
#                 Cambridge Crystallographic Data Centre
#                                CCDC 
#
#######################################################################
#
# If this CIF has been generated from an entry in the Cambridge 
# Structural Database, then it will include bibliographic, chemical, 
# crystal, experimental, refinement or atomic coordinate data resulting 
# from the CCDC's data processing and validation procedures.
#
#######################################################################

data_KUJZAR
_chemical_formula_moiety         'C10 H19 N2 O4 P1'
_chemical_name_systematic        
(3R,5\D,8R)-3,8-bis(Propan-2-yl)-1,6-dioxa-4,9-diaza-5\L^5^-phosphaspiro[4.4]nonane-2,7-dione
_symmetry_cell_setting           monoclinic
_symmetry_space_group_name_H-M   'P 21'
_symmetry_Int_Tables_number      4
_space_group_name_Hall           'P 2yb'
loop_
_symmetry_equiv_pos_site_id
_symmetry_equiv_pos_as_xyz
1 x,y,z
2 -x,1/2+y,-z
_cell_length_a                   10.248(3)
_cell_length_b                   5.9670(18)
_cell_length_c                   11.058(4)
_cell_angle_alpha                90
_cell_angle_beta                 103.395(5)
_cell_angle_gamma                90
_cell_volume                     657.8
_exptl_crystal_colour            colorless
_exptl_crystal_description       needle
_chemical_melting_point          'above 180deg.C(dec)'
_cell_formula_units_Z            2
_exptl_crystal_recrystallization_method chloroform
loop_
_atom_site_label
_atom_site_type_symbol
_atom_site_fract_x
_atom_site_fract_y
_atom_site_fract_z
O1 O 0.2986(2) 0.2948(5) 0.4240(3)
O2 O 0.4591(3) 0.1071(6) 0.3692(3)
C1 C 0.4030(3) 0.2808(8) 0.3775(3)
C2 C 0.4424(3) 0.5015(7) 0.3337(4)
H1 H 0.5294 0.5453 0.3862
N1 N 0.3422(3) 0.6530(6) 0.3558(3)
H2 H 0.3413 0.7907 0.3327
P1 P 0.23133(8) 0.56008(18) 0.42479(7)
H3 H 0.2654 0.5572 0.5464
O3 O 0.1637(2) 0.8250(5) 0.4242(3)
O4 O -0.0245(3) 1.0134(5) 0.3701(3)
C3 C 0.0354(4) 0.8408(7) 0.3774(3)
C4 C -0.0248(4) 0.6178(7) 0.3346(4)
H4 H -0.0854 0.5739 0.3873
N2 N 0.0853(3) 0.4670(6) 0.3559(3)
H5 H 0.0744 0.3294 0.3327
C5 C 0.4549(4) 0.4892(9) 0.2003(4)
H6 H 0.5252 0.3799 0.1965
C6 C 0.3280(5) 0.4112(14) 0.1140(4)
H7 H 0.3405 0.4053 0.0307
H8 H 0.2567 0.5135 0.1175
H9 H 0.3055 0.2646 0.1387
C7 C 0.4973(6) 0.7107(15) 0.1578(7)
H10 H 0.5044 0.6986 0.0730
H11 H 0.5827 0.7524 0.2093
H12 H 0.4318 0.8226 0.1639
C8 C -0.1055(4) 0.6311(8) 0.1994(4)
H13 H -0.1775 0.7405 0.1964
C9 C -0.1696(5) 0.4117(13) 0.1586(6)
H14 H -0.2193 0.4228 0.0738
H15 H -0.2292 0.3720 0.2105
H16 H -0.1016 0.2988 0.1651
C10 C -0.0204(4) 0.7143(14) 0.1154(4)
H17 H -0.0732 0.7205 0.0315
H18 H 0.0539 0.6143 0.1195
H19 H 0.0126 0.8614 0.1412
loop_
_geom_bond_atom_site_label_1
_geom_bond_atom_site_label_2
_geom_bond_site_symmetry_1
_geom_bond_site_symmetry_2
O1 C1 1_555 1_555
O2 C1 1_555 1_555
C1 C2 1_555 1_555
C2 H1 1_555 1_555
N1 C2 1_555 1_555
H2 N1 1_555 1_555
P1 O1 1_555 1_555
H3 P1 1_555 1_555
O3 P1 1_555 1_555
O4 C3 1_555 1_555
C3 O3 1_555 1_555
C4 C3 1_555 1_555
H4 C4 1_555 1_555
N2 P1 1_555 1_555
H5 N2 1_555 1_555
C5 C2 1_555 1_555
H6 C5 1_555 1_555
C6 C5 1_555 1_555
H7 C6 1_555 1_555
H8 C6 1_555 1_555
H9 C6 1_555 1_555
C7 C5 1_555 1_555
H10 C7 1_555 1_555
H11 C7 1_555 1_555
H12 C7 1_555 1_555
C8 C4 1_555 1_555
H13 C8 1_555 1_555
C9 C8 1_555 1_555
H14 C9 1_555 1_555
H15 C9 1_555 1_555
H16 C9 1_555 1_555
C10 C8 1_555 1_555
H17 C10 1_555 1_555
H18 C10 1_555 1_555
H19 C10 1_555 1_555
N1 P1 1_555 1_555
C4 N2 1_555 1_555

#END
