
#######################################################################
#
#                 Cambridge Crystallographic Data Centre
#                                CCDC 
#
#######################################################################
#
# If this CIF has been generated from an entry in the Cambridge 
# Structural Database, then it will include bibliographic, chemical, 
# crystal, experimental, refinement or atomic coordinate data resulting 
# from the CCDC's data processing and validation procedures.
#
#######################################################################

data_KUKCOJ
_chemical_formula_moiety         'C26 H24 O7'
_chemical_name_systematic        
'Methyl 3-(3,5-dimethoxyphenyl)-6-methoxy-2-(4-methoxyphenyl)-1-benzofuran-4-carboxylate'
_symmetry_cell_setting           triclinic
_symmetry_space_group_name_H-M   'P -1'
_symmetry_Int_Tables_number      2
_space_group_name_Hall           '-P 1'
loop_
_symmetry_equiv_pos_site_id
_symmetry_equiv_pos_as_xyz
1 x,y,z
2 -x,-y,-z
_cell_length_a                   7.67960(10)
_cell_length_b                   8.70720(10)
_cell_length_c                   17.3304(2)
_cell_angle_alpha                81.5790(10)
_cell_angle_beta                 78.9190(10)
_cell_angle_gamma                87.9110(10)
_cell_volume                     1124.94
_exptl_crystal_colour            yellow
_exptl_crystal_description       block
_cell_formula_units_Z            2
loop_
_atom_site_label
_atom_site_type_symbol
_atom_site_fract_x
_atom_site_fract_y
_atom_site_fract_z
C1 C 0.92311(17) 0.73590(15) 0.38389(7)
O1 O 0.77150(12) 0.82301(11) 0.39824(5)
C2 C 0.69513(17) 0.83301(15) 0.33119(7)
C3 C 0.79529(17) 0.75573(14) 0.27526(7)
C4 C 0.94649(17) 0.69215(14) 0.30834(7)
C5 C 1.09806(18) 0.60174(15) 0.28460(8)
C6 C 1.20932(18) 0.55782(16) 0.33789(8)
H1 H 1.3066 0.4942 0.3236
C7 C 1.17989(18) 0.60623(17) 0.41273(8)
C8 C 1.03534(18) 0.69848(16) 0.43735(8)
H2 H 1.0151 0.7330 0.4866
O2 O 1.30523(14) 0.55694(14) 0.45763(7)
C9 C 1.2945(2) 0.6190(2) 0.52990(10)
H3 H 1.3887 0.5763 0.5560
H4 H 1.1823 0.5927 0.5638
H5 H 1.3054 0.7299 0.5187
C10 C 1.15179(18) 0.55957(16) 0.20301(8)
O3 O 1.20674(19) 0.43478(14) 0.18791(7)
O4 O 1.13716(14) 0.67999(12) 0.14825(6)
C11 C 1.1786(3) 0.6512(2) 0.06675(9)
H6 H 1.1635 0.7454 0.0321
H7 H 1.1006 0.5734 0.0592
H8 H 1.2993 0.6156 0.0547
C12 C 0.53040(17) 0.92319(15) 0.33578(7)
C13 C 0.41209(18) 0.91482(16) 0.28515(8)
H9 H 0.4386 0.8501 0.2462
C14 C 0.25615(18) 1.00015(16) 0.29116(8)
H10 H 0.1793 0.9927 0.2564
C15 C 0.21414(18) 1.09698(16) 0.34901(8)
C16 C 0.3316(2) 1.10894(19) 0.39930(9)
H11 H 0.3057 1.1752 0.4376
C17 C 0.48621(19) 1.02347(18) 0.39291(8)
H12 H 0.5633 1.0324 0.4273
O5 O 0.06123(14) 1.18226(14) 0.36164(6)
C18 C -0.0538(2) 1.1850(2) 0.30639(11)
H13 H -0.1559 1.2483 0.3218
H14 H -0.0909 1.0813 0.3056
H15 H 0.0076 1.2273 0.2544
C19 C 0.75373(16) 0.73242(15) 0.19754(7)
C20 C 0.70526(17) 0.58444(15) 0.18803(8)
H16 H 0.6973 0.5034 0.2299
C21 C 0.66908(18) 0.55947(16) 0.11569(8)
C22 C 0.6796(2) 0.68057(18) 0.05257(8)
H17 H 0.6535 0.6635 0.0043
C23 C 0.7290(2) 0.82536(17) 0.06273(8)
C24 C 0.76592(19) 0.85238(16) 0.13531(8)
H18 H 0.7986 0.9509 0.1417
O6 O 0.62313(16) 0.41947(12) 0.09943(6)
C25 C 0.6178(3) 0.29020(19) 0.15998(12)
H19 H 0.5836 0.1994 0.1413
H20 H 0.5332 0.3100 0.2060
H21 H 0.7331 0.2737 0.1736
O7 O 0.7475(2) 0.95156(14) 0.00476(6)
C26 C 0.7238(4) 0.9304(3) -0.07199(11)
H22 H 0.7408 1.0274 -0.1067
H23 H 0.6059 0.8939 -0.0690
H24 H 0.8086 0.8555 -0.0923
loop_
_geom_bond_atom_site_label_1
_geom_bond_atom_site_label_2
_geom_bond_site_symmetry_1
_geom_bond_site_symmetry_2
C1 O1 1_555 1_555
O1 C2 1_555 1_555
C2 C3 1_555 1_555
C3 C4 1_555 1_555
C4 C1 1_555 1_555
C5 C4 1_555 1_555
C6 C5 1_555 1_555
H1 C6 1_555 1_555
C7 C6 1_555 1_555
C8 C1 1_555 1_555
H2 C8 1_555 1_555
O2 C7 1_555 1_555
C9 O2 1_555 1_555
H3 C9 1_555 1_555
H4 C9 1_555 1_555
H5 C9 1_555 1_555
C10 C5 1_555 1_555
O3 C10 1_555 1_555
O4 C10 1_555 1_555
C11 O4 1_555 1_555
H6 C11 1_555 1_555
H7 C11 1_555 1_555
H8 C11 1_555 1_555
C12 C2 1_555 1_555
C13 C12 1_555 1_555
H9 C13 1_555 1_555
C14 C13 1_555 1_555
H10 C14 1_555 1_555
C15 C14 1_555 1_555
C16 C15 1_555 1_555
H11 C16 1_555 1_555
C17 C12 1_555 1_555
H12 C17 1_555 1_555
O5 C15 1_555 1_555
C18 O5 1_555 1_555
H13 C18 1_555 1_555
H14 C18 1_555 1_555
H15 C18 1_555 1_555
C19 C3 1_555 1_555
C20 C19 1_555 1_555
H16 C20 1_555 1_555
C21 C20 1_555 1_555
C22 C21 1_555 1_555
H17 C22 1_555 1_555
C23 C22 1_555 1_555
C24 C19 1_555 1_555
H18 C24 1_555 1_555
O6 C21 1_555 1_555
C25 O6 1_555 1_555
H19 C25 1_555 1_555
H20 C25 1_555 1_555
H21 C25 1_555 1_555
O7 C23 1_555 1_555
C26 O7 1_555 1_555
H22 C26 1_555 1_555
H23 C26 1_555 1_555
H24 C26 1_555 1_555
C7 C8 1_555 1_555
C16 C17 1_555 1_555
C23 C24 1_555 1_555

#END
