
#######################################################################
#
#                 Cambridge Crystallographic Data Centre
#                                CCDC 
#
#######################################################################
#
# If this CIF has been generated from an entry in the Cambridge 
# Structural Database, then it will include bibliographic, chemical, 
# crystal, experimental, refinement or atomic coordinate data resulting 
# from the CCDC's data processing and validation procedures.
#
#######################################################################

data_KUKCUP
_chemical_formula_moiety         'C38 H34 O12'
_chemical_name_systematic        
"Dimethyl 3,3'-bis(3,5-dimethoxyphenyl)-6,6'-dimethoxy-2,2'-bi-1-benzofuran-4,4'-dicarboxylate"
_symmetry_cell_setting           triclinic
_symmetry_space_group_name_H-M   'P -1'
_symmetry_Int_Tables_number      2
_space_group_name_Hall           '-P 1'
loop_
_symmetry_equiv_pos_site_id
_symmetry_equiv_pos_as_xyz
1 x,y,z
2 -x,-y,-z
_cell_length_a                   7.58670(10)
_cell_length_b                   7.95690(10)
_cell_length_c                   14.3677(2)
_cell_angle_alpha                79.6550(10)
_cell_angle_beta                 81.4100(10)
_cell_angle_gamma                81.7620(10)
_cell_volume                     837.59
_exptl_crystal_colour            red
_exptl_crystal_description       block
_cell_formula_units_Z            1
loop_
_atom_site_label
_atom_site_type_symbol
_atom_site_fract_x
_atom_site_fract_y
_atom_site_fract_z
O1 O 0.41546(13) 0.21900(11) 0.45731(6)
C1 C 0.46214(18) 0.07398(16) 0.52189(9)
C2 C 0.42141(17) 0.10354(17) 0.61393(9)
C3 C 0.35169(17) 0.28388(16) 0.60645(9)
C4 C 0.29641(18) 0.40209(17) 0.67032(9)
C5 C 0.2235(2) 0.56607(18) 0.63511(10)
H1 H 0.1845 0.6446 0.6768
C6 C 0.20694(19) 0.61699(17) 0.53787(10)
C7 C 0.27179(19) 0.50789(17) 0.47262(10)
H2 H 0.2672 0.5421 0.4075
C8 C 0.34378(18) 0.34501(17) 0.51010(9)
O2 O 0.12808(16) 0.78203(13) 0.51391(8)
C9 C 0.0965(2) 0.8367(2) 0.41723(12)
H3 H 0.0421 0.9541 0.4092
H4 H 0.0176 0.7652 0.4011
H5 H 0.2084 0.8276 0.3762
C10 C 0.3265(2) 0.36028(18) 0.77240(10)
O3 O 0.22014(18) 0.39579(16) 0.83824(7)
O4 O 0.49212(15) 0.28105(14) 0.78062(7)
C11 C 0.5336(3) 0.2202(3) 0.87677(13)
H6 H 0.6550 0.1652 0.8748
H7 H 0.4532 0.1391 0.9087
H8 H 0.5202 0.3157 0.9107
C12 C 0.40905(19) -0.02041(17) 0.70455(9)
C13 C 0.2432(2) -0.01691(18) 0.76005(9)
H9 H 0.1476 0.0612 0.7399
C14 C 0.2188(2) -0.12937(19) 0.84567(10)
C15 C 0.3595(2) -0.24480(19) 0.87668(10)
H10 H 0.3436 -0.3199 0.9340
C16 C 0.5254(2) -0.24706(19) 0.82086(10)
C17 C 0.5529(2) -0.13614(18) 0.73556(10)
H11 H 0.6654 -0.1386 0.6994
O5 O 0.04772(16) -0.11553(16) 0.89249(8)
C18 C 0.0109(3) -0.2308(3) 0.97968(13)
H12 H -0.1130 -0.2080 1.0050
H13 H 0.0856 -0.2145 1.0249
H14 H 0.0353 -0.3473 0.9677
O6 O 0.65620(18) -0.36744(15) 0.85719(8)
C19 C 0.8225(3) -0.3913(3) 0.79908(15)
H15 H 0.9020 -0.4783 0.8325
H16 H 0.8748 -0.2851 0.7841
H17 H 0.8038 -0.4266 0.7412
O1A O 0.58454(13) -0.21900(11) 0.54269(6)
C1A C 0.53786(18) -0.07398(16) 0.47811(9)
C2A C 0.57859(17) -0.10354(17) 0.38607(9)
C3A C 0.64831(17) -0.28388(16) 0.39355(9)
C4A C 0.70359(18) -0.40209(17) 0.32968(9)
C5A C 0.7765(2) -0.56607(18) 0.36489(10)
H1A H 0.8155 -0.6446 0.3232
C6A C 0.79306(19) -0.61699(17) 0.46213(10)
C7A C 0.72821(19) -0.50789(17) 0.52738(10)
H2A H 0.7328 -0.5421 0.5925
C8A C 0.65622(18) -0.34501(17) 0.48990(9)
O2A O 0.87192(16) -0.78203(13) 0.48609(8)
C9A C 0.9035(2) -0.8367(2) 0.58277(12)
H3A H 0.9579 -0.9541 0.5908
H4A H 0.9824 -0.7652 0.5989
H5A H 0.7916 -0.8276 0.6238
C10A C 0.6735(2) -0.36028(18) 0.22760(10)
O3A O 0.77986(18) -0.39579(16) 0.16176(7)
O4A O 0.50788(15) -0.28105(14) 0.21938(7)
C11A C 0.4664(3) -0.2202(3) 0.12323(13)
H6A H 0.3450 -0.1652 0.1252
H7A H 0.5468 -0.1391 0.0913
H8A H 0.4798 -0.3157 0.0893
C12A C 0.59095(19) 0.02041(17) 0.29545(9)
C13A C 0.7568(2) 0.01691(18) 0.23995(9)
H9A H 0.8524 -0.0612 0.2601
C14A C 0.7812(2) 0.12937(19) 0.15433(10)
C15A C 0.6405(2) 0.24480(19) 0.12332(10)
H10A H 0.6564 0.3199 0.0660
C16A C 0.4746(2) 0.24706(19) 0.17914(10)
C17A C 0.4471(2) 0.13614(18) 0.26444(10)
H11A H 0.3346 0.1386 0.3006
O5A O 0.95228(16) 0.11553(16) 0.10751(8)
C18A C 0.9891(3) 0.2308(3) 0.02032(13)
H12A H 1.1130 0.2080 -0.0050
H13A H 0.9144 0.2145 -0.0249
H14A H 0.9647 0.3473 0.0323
O6A O 0.34380(18) 0.36744(15) 0.14281(8)
C19A C 0.1775(3) 0.3913(3) 0.20092(15)
H15A H 0.0980 0.4783 0.1675
H16A H 0.1252 0.2851 0.2159
H17A H 0.1962 0.4266 0.2588
loop_
_geom_bond_atom_site_label_1
_geom_bond_atom_site_label_2
_geom_bond_site_symmetry_1
_geom_bond_site_symmetry_2
O1 C1 1_555 1_555
C1 C2 1_555 1_555
C2 C3 1_555 1_555
C3 C4 1_555 1_555
C4 C5 1_555 1_555
C5 H1 1_555 1_555
C6 C5 1_555 1_555
C7 C6 1_555 1_555
H2 C7 1_555 1_555
C8 O1 1_555 1_555
O2 C6 1_555 1_555
C9 O2 1_555 1_555
H3 C9 1_555 1_555
H4 C9 1_555 1_555
H5 C9 1_555 1_555
C10 C4 1_555 1_555
O3 C10 1_555 1_555
O4 C10 1_555 1_555
C11 O4 1_555 1_555
H6 C11 1_555 1_555
H7 C11 1_555 1_555
H8 C11 1_555 1_555
C12 C2 1_555 1_555
C13 C12 1_555 1_555
H9 C13 1_555 1_555
C14 C13 1_555 1_555
C15 C14 1_555 1_555
H10 C15 1_555 1_555
C16 C15 1_555 1_555
C17 C12 1_555 1_555
H11 C17 1_555 1_555
O5 C14 1_555 1_555
C18 O5 1_555 1_555
H12 C18 1_555 1_555
H13 C18 1_555 1_555
H14 C18 1_555 1_555
O6 C16 1_555 1_555
C19 O6 1_555 1_555
H15 C19 1_555 1_555
H16 C19 1_555 1_555
H17 C19 1_555 1_555
O1A C1A 1_555 1_555
C1A C1 1_555 1_555
C2A C1A 1_555 1_555
C3A C2A 1_555 1_555
C4A C3A 1_555 1_555
C5A C4A 1_555 1_555
H1A C5A 1_555 1_555
C6A C5A 1_555 1_555
C7A C6A 1_555 1_555
H2A C7A 1_555 1_555
C8A O1A 1_555 1_555
O2A C6A 1_555 1_555
C9A O2A 1_555 1_555
H3A C9A 1_555 1_555
H4A C9A 1_555 1_555
H5A C9A 1_555 1_555
C10A C4A 1_555 1_555
O3A C10A 1_555 1_555
O4A C10A 1_555 1_555
C11A O4A 1_555 1_555
H6A C11A 1_555 1_555
H7A C11A 1_555 1_555
H8A C11A 1_555 1_555
C12A C2A 1_555 1_555
C13A C12A 1_555 1_555
H9A C13A 1_555 1_555
C14A C13A 1_555 1_555
C15A C14A 1_555 1_555
H10A C15A 1_555 1_555
C16A C15A 1_555 1_555
C17A C12A 1_555 1_555
H11A C17A 1_555 1_555
O5A C14A 1_555 1_555
C18A O5A 1_555 1_555
H12A C18A 1_555 1_555
H13A C18A 1_555 1_555
H14A C18A 1_555 1_555
O6A C16A 1_555 1_555
C19A O6A 1_555 1_555
H15A C19A 1_555 1_555
H16A C19A 1_555 1_555
H17A C19A 1_555 1_555
C3 C8 1_555 1_555
C7 C8 1_555 1_555
C16 C17 1_555 1_555
C3A C8A 1_555 1_555
C7A C8A 1_555 1_555
C16A C17A 1_555 1_555

#END
