
#######################################################################
#
#                 Cambridge Crystallographic Data Centre
#                                CCDC 
#
#######################################################################
#
# If this CIF has been generated from an entry in the Cambridge 
# Structural Database, then it will include bibliographic, chemical, 
# crystal, experimental, refinement or atomic coordinate data resulting 
# from the CCDC's data processing and validation procedures.
#
#######################################################################

data_KUKCUQ
_chemical_formula_moiety         'C28 H22 N2 O2'
_chemical_name_systematic        
2,2'-((4-(2-Phenylvinyl)-1,3-phenylene)bis(nitrilomethylylidene))diphenol
_symmetry_cell_setting           monoclinic
_symmetry_space_group_name_H-M   'C c'
_symmetry_Int_Tables_number      9
_space_group_name_Hall           'C -2yc'
loop_
_symmetry_equiv_pos_site_id
_symmetry_equiv_pos_as_xyz
1 x,y,z
2 x,-y,1/2+z
3 1/2+x,1/2+y,z
4 1/2+x,1/2-y,1/2+z
_cell_length_a                   5.7351(5)
_cell_length_b                   32.563(3)
_cell_length_c                   11.5860(11)
_cell_angle_alpha                90
_cell_angle_beta                 98.9850(10)
_cell_angle_gamma                90
_cell_volume                     2137.16
_cell_formula_units_Z            4
loop_
_atom_site_label
_atom_site_type_symbol
_atom_site_fract_x
_atom_site_fract_y
_atom_site_fract_z
N1 N 1.4625(7) 0.46275(11) 0.6672(3)
N2 N 0.7605(6) 0.38220(9) 0.5350(3)
O1 O 1.6120(7) 0.51227(11) 0.5211(3)
H1 H 1.5221 0.4962 0.5464
O2 O 0.3509(6) 0.34877(9) 0.4657(3)
H2 H 0.4540 0.3606 0.5107
C1 C 1.2954(8) 0.43346(12) 0.6948(3)
C2 C 1.1156(7) 0.42284(12) 0.6081(3)
H3 H 1.1076 0.4351 0.5351
C3 C 0.9446(7) 0.39432(12) 0.6255(3)
C4 C 0.9514(8) 0.37568(12) 0.7359(3)
C5 C 1.1363(9) 0.38742(14) 0.8232(3)
H4 H 1.1453 0.3756 0.8969
C6 C 1.3037(8) 0.41540(14) 0.8052(4)
H5 H 1.4229 0.4225 0.8658
C7 C 0.7776(8) 0.34495(14) 0.7565(3)
H6 H 0.6414 0.3432 0.7014
C8 C 0.7953(8) 0.31958(14) 0.8452(4)
H7 H 0.9327 0.3213 0.8994
C9 C 0.6198(8) 0.28851(13) 0.8684(4)
C10 C 0.6704(9) 0.26526(14) 0.9709(4)
H8 H 0.8136 0.2689 1.0200
C11 C 0.5109(10) 0.23715(15) 0.9997(4)
H9 H 0.5468 0.2220 1.0682
C12 C 0.3046(10) 0.23138(15) 0.9304(4)
H10 H 0.1969 0.2125 0.9513
C13 C 0.2512(10) 0.25319(17) 0.8288(4)
H11 H 0.1085 0.2488 0.7800
C14 C 0.4089(9) 0.28157(16) 0.7991(4)
H12 H 0.3708 0.2964 0.7301
C15 C 1.6361(9) 0.47453(13) 0.7421(4)
H13 H 1.6535 0.4635 0.8170
C16 C 1.8053(8) 0.50400(13) 0.7164(3)
C17 C 1.7919(9) 0.52143(14) 0.6060(4)
C18 C 1.9675(10) 0.54830(15) 0.5837(4)
H14 H 1.9586 0.5599 0.5098
C19 C 2.1525(10) 0.55801(15) 0.6680(5)
H15 H 2.2684 0.5760 0.6512
C20 C 2.1683(10) 0.54125(15) 0.7776(5)
H16 H 2.2936 0.5478 0.8358
C21 C 1.9953(9) 0.51477(14) 0.7992(4)
H17 H 2.0061 0.5034 0.8735
C22 C 0.7918(8) 0.38280(12) 0.4277(3)
H18 H 0.9328 0.3931 0.4095
C23 C 0.6166(7) 0.36805(12) 0.3351(3)
C24 C 0.4073(8) 0.34928(13) 0.3571(3)
C25 C 0.2580(8) 0.33096(14) 0.2685(4)
H19 H 0.1203 0.3184 0.2835
C26 C 0.3120(10) 0.33121(14) 0.1570(4)
H20 H 0.2106 0.3184 0.0973
C27 C 0.5132(10) 0.35009(16) 0.1317(4)
H21 H 0.5467 0.3505 0.0557
C28 C 0.6623(8) 0.36817(14) 0.2206(4)
H22 H 0.7984 0.3809 0.2041
loop_
_geom_bond_atom_site_label_1
_geom_bond_atom_site_label_2
_geom_bond_site_symmetry_1
_geom_bond_site_symmetry_2
N1 C1 1_555 1_555
N2 C3 1_555 1_555
O1 H1 1_555 1_555
O2 H2 1_555 1_555
C1 C2 1_555 1_555
C2 H3 1_555 1_555
C3 C2 1_555 1_555
C4 C3 1_555 1_555
C5 C4 1_555 1_555
H4 C5 1_555 1_555
C6 C1 1_555 1_555
H5 C6 1_555 1_555
C7 C4 1_555 1_555
H6 C7 1_555 1_555
C8 C7 1_555 1_555
H7 C8 1_555 1_555
C9 C8 1_555 1_555
C10 C9 1_555 1_555
H8 C10 1_555 1_555
C11 C10 1_555 1_555
H9 C11 1_555 1_555
C12 C11 1_555 1_555
H10 C12 1_555 1_555
C13 C12 1_555 1_555
H11 C13 1_555 1_555
C14 C9 1_555 1_555
H12 C14 1_555 1_555
C15 N1 1_555 1_555
H13 C15 1_555 1_555
C16 C15 1_555 1_555
C17 O1 1_555 1_555
C18 C17 1_555 1_555
H14 C18 1_555 1_555
C19 C18 1_555 1_555
H15 C19 1_555 1_555
C20 C19 1_555 1_555
H16 C20 1_555 1_555
C21 C16 1_555 1_555
H17 C21 1_555 1_555
C22 N2 1_555 1_555
H18 C22 1_555 1_555
C23 C22 1_555 1_555
C24 O2 1_555 1_555
C25 C24 1_555 1_555
H19 C25 1_555 1_555
C26 C25 1_555 1_555
H20 C26 1_555 1_555
C27 C26 1_555 1_555
H21 C27 1_555 1_555
C28 C23 1_555 1_555
H22 C28 1_555 1_555
C5 C6 1_555 1_555
C13 C14 1_555 1_555
C16 C17 1_555 1_555
C20 C21 1_555 1_555
C23 C24 1_555 1_555
C27 C28 1_555 1_555

#END
