
#######################################################################
#
#                 Cambridge Crystallographic Data Centre
#                                CCDC 
#
#######################################################################
#
# If this CIF has been generated from an entry in the Cambridge 
# Structural Database, then it will include bibliographic, chemical, 
# crystal, experimental, refinement or atomic coordinate data resulting 
# from the CCDC's data processing and validation procedures.
#
#######################################################################

data_KUKNEL
_chemical_formula_moiety         'C20 H17 N1 O2 S1'
_chemical_name_systematic        
(S,S)-6-Ethyl-2,7-diphenyl-6,7-dihydro-5H-pyrano[2,3-d][1,3]thiazol-5-one
_symmetry_cell_setting           monoclinic
_symmetry_space_group_name_H-M   'P 21'
_symmetry_Int_Tables_number      4
_space_group_name_Hall           'P 2yb'
loop_
_symmetry_equiv_pos_site_id
_symmetry_equiv_pos_as_xyz
1 x,y,z
2 -x,1/2+y,-z
_cell_length_a                   5.7825(17)
_cell_length_b                   20.098(2)
_cell_length_c                   7.3110(8)
_cell_angle_alpha                90
_cell_angle_beta                 92.824(15)
_cell_angle_gamma                90
_cell_volume                     848.628
_exptl_crystal_colour            'light colorless'
_exptl_crystal_description       block
_cell_formula_units_Z            2
_exptl_crystal_recrystallization_method 'petroleum ether/ ethyl acetate'
loop_
_atom_site_label
_atom_site_type_symbol
_atom_site_fract_x
_atom_site_fract_y
_atom_site_fract_z
S1 S -1.0084(2) -0.08632(7) -0.42270(18)
O1 O -0.3501(7) -0.1139(2) -0.9601(6)
O2 O -0.4988(6) -0.06173(19) -0.7318(5)
N1 N -0.6534(8) -0.0125(2) -0.4790(7)
C1 C -0.8633(8) -0.1642(2) -0.7296(7)
H1 H -1.0279 -0.1717 -0.7611
C2 C -0.7439(9) -0.1434(3) -0.9079(7)
H2 H -0.8479 -0.1108 -0.9685
C3 C -0.5193(9) -0.1077(3) -0.8707(8)
C4 C -0.6728(9) -0.0603(2) -0.6081(7)
C5 C -0.8437(8) -0.1060(2) -0.6030(7)
C6 C -0.8240(9) -0.0205(2) -0.3662(7)
C7 C -0.8516(10) 0.0197(2) -0.2008(7)
C8 C -0.6813(11) 0.0657(3) -0.1462(9)
H3 H -0.5539 0.0720 -0.2171
C9 C -0.7008(12) 0.1018(3) 0.0123(10)
H4 H -0.5884 0.1331 0.0463
C10 C -0.8846(12) 0.0919(3) 0.1202(10)
H5 H -0.8940 0.1156 0.2289
C11 C -1.0572(13) 0.0466(3) 0.0682(10)
H6 H -1.1828 0.0402 0.1410
C12 C -1.0403(11) 0.0112(3) -0.0928(8)
H7 H -1.1565 -0.0187 -0.1291
C13 C -0.7663(8) -0.2268(2) -0.6392(6)
C14 C -0.8888(10) -0.2866(3) -0.6458(7)
H8 H -1.0349 -0.2879 -0.7048
C15 C -0.7981(12) -0.3436(3) -0.5670(8)
H9 H -0.8822 -0.3830 -0.5764
C16 C -0.5877(12) -0.3434(3) -0.4755(8)
H10 H -0.5266 -0.3821 -0.4230
C17 C -0.4673(11) -0.2841(3) -0.4627(8)
H11 H -0.3253 -0.2828 -0.3974
C18 C -0.5523(9) -0.2272(3) -0.5440(7)
H12 H -0.4656 -0.1883 -0.5354
C19 C -0.7165(11) -0.1990(3) -1.0469(8)
H13 H -0.6394 -0.1812 -1.1511
H14 H -0.6174 -0.2332 -0.9917
C20 C -0.9433(11) -0.2308(3) -1.1147(8)
H15 H -0.9139 -0.2627 -1.2085
H16 H -1.0460 -0.1970 -1.1638
H17 H -1.0132 -0.2527 -1.0147
loop_
_geom_bond_atom_site_label_1
_geom_bond_atom_site_label_2
_geom_bond_site_symmetry_1
_geom_bond_site_symmetry_2
S1 C5 1_555 1_555
O1 C3 1_555 1_555
O2 C3 1_555 1_555
N1 C4 1_555 1_555
C1 H1 1_555 1_555
C2 C1 1_555 1_555
H2 C2 1_555 1_555
C3 C2 1_555 1_555
C4 O2 1_555 1_555
C5 C1 1_555 1_555
C6 S1 1_555 1_555
C7 C6 1_555 1_555
C8 C7 1_555 1_555
H3 C8 1_555 1_555
C9 C8 1_555 1_555
H4 C9 1_555 1_555
C10 C9 1_555 1_555
H5 C10 1_555 1_555
C11 C10 1_555 1_555
H6 C11 1_555 1_555
C12 C7 1_555 1_555
H7 C12 1_555 1_555
C13 C1 1_555 1_555
C14 C13 1_555 1_555
H8 C14 1_555 1_555
C15 C14 1_555 1_555
H9 C15 1_555 1_555
C16 C15 1_555 1_555
H10 C16 1_555 1_555
C17 C16 1_555 1_555
H11 C17 1_555 1_555
C18 C13 1_555 1_555
H12 C18 1_555 1_555
C19 C2 1_555 1_555
H13 C19 1_555 1_555
H14 C19 1_555 1_555
C20 C19 1_555 1_555
H15 C20 1_555 1_555
H16 C20 1_555 1_555
H17 C20 1_555 1_555
N1 C6 1_555 1_555
C4 C5 1_555 1_555
C11 C12 1_555 1_555
C17 C18 1_555 1_555

#END
