
#######################################################################
#
#                 Cambridge Crystallographic Data Centre
#                                CCDC 
#
#######################################################################
#
# If this CIF has been generated from an entry in the Cambridge 
# Structural Database, then it will include bibliographic, chemical, 
# crystal, experimental, refinement or atomic coordinate data resulting 
# from the CCDC's data processing and validation procedures.
#
#######################################################################

data_KUKYUM
_chemical_name_common            'Choline fenofibrate'
_chemical_formula_moiety         'C17 H14 Cl1 O4 1-,C5 H14 N1 O1 1+'
_chemical_name_systematic        
'2-Hydroxy-N,N,N-trimethylethanaminium 2-(4-(4-chlorobenzoyl)phenoxy)-2-methylpropanoate'
_symmetry_cell_setting           orthorhombic
_symmetry_space_group_name_H-M   'P b c a'
_symmetry_Int_Tables_number      61
_space_group_name_Hall           '-P 2ac 2ab'
loop_
_symmetry_equiv_pos_site_id
_symmetry_equiv_pos_as_xyz
1 x,y,z
2 1/2+x,1/2-y,-z
3 -x,1/2+y,1/2-z
4 1/2-x,-y,1/2+z
5 -x,-y,-z
6 1/2-x,1/2+y,z
7 x,1/2-y,1/2+z
8 1/2+x,y,1/2-z
_cell_length_a                   12.009(3)
_cell_length_b                   12.275(3)
_cell_length_c                   28.281(7)
_cell_angle_alpha                90
_cell_angle_beta                 90
_cell_angle_gamma                90
_cell_volume                     4168.92
_cell_formula_units_Z            8
loop_
_atom_site_label
_atom_site_type_symbol
_atom_site_fract_x
_atom_site_fract_y
_atom_site_fract_z
Cl1 Cl 0.7781(2) 0.1667(1) -0.01440(6)
O1 O 0.6755(3) 0.5953(4) 0.1234(2)
O2 O -0.0013(3) 0.4251(3) 0.1425(1)
O3 O 0.1097(3) 0.5207(3) 0.1911(1)
O4 O 0.1565(3) 0.6691(3) 0.1236(2)
C1 C 0.7273(5) 0.2762(5) 0.0182(2)
C2 C 0.7958(5) 0.3239(5) 0.0506(2)
C3 C 0.7539(5) 0.4109(5) 0.0779(2)
C4 C 0.6443(5) 0.4480(5) 0.0710(2)
C5 C 0.5823(5) 0.4005(5) 0.0364(2)
C6 C 0.6203(5) 0.3147(5) 0.0089(2)
C7 C 0.6080(5) 0.5407(5) 0.1013(2)
C8 C 0.4863(5) 0.5660(5) 0.1058(2)
C9 C 0.4579(5) 0.6754(5) 0.1164(2)
C10 C 0.3478(5) 0.7058(5) 0.1218(2)
C11 C 0.2631(5) 0.6290(5) 0.1181(2)
C12 C 0.2892(5) 0.5198(5) 0.1094(2)
C13 C 0.4017(5) 0.4900(5) 0.1035(2)
C14 C 0.0585(5) 0.6002(5) 0.1162(2)
C15 C -0.0373(5) 0.6756(5) 0.1301(2)
C16 C 0.0567(5) 0.5052(5) 0.1543(2)
C17 C 0.0506(5) 0.5647(5) 0.0656(2)
H1 H 0.8725 0.2972 0.0546
H2 H 0.8000 0.4441 0.1025
H3 H 0.5068 0.4272 0.0312
H4 H 0.5736 0.2824 -0.0155
H5 H 0.5184 0.7317 0.1199
H6 H 0.3282 0.7830 0.1295
H7 H 0.2301 0.4657 0.1071
H8 H 0.4225 0.4128 0.0990
H9 H -0.0374 0.7420 0.1121
H10 H -0.0288 0.6984 0.1635
H11 H -0.1076 0.6420 0.1275
H12 H 0.0477 0.6236 0.0442
H13 H -0.0143 0.5195 0.0606
H14 H 0.1146 0.5201 0.0576
O5 O 0.0299(3) 0.4108(3) 0.2641(1)
N1 N -0.1825(4) 0.2739(4) 0.2358(2)
C18 C -0.0838(5) 0.4450(5) 0.2665(2)
C19 C -0.1633(5) 0.3550(5) 0.2769(2)
C20 C -0.0791(5) 0.2135(5) 0.2238(2)
C21 C -0.2233(5) 0.3307(5) 0.1925(2)
C22 C -0.2696(5) 0.1958(6) 0.2523(2)
H15 H -0.0910 0.5001 0.2895
H16 H -0.1043 0.4753 0.2360
H17 H -0.2336 0.3844 0.2858
H18 H -0.1346 0.3142 0.3035
H19 H -0.0510 0.1767 0.2520
H20 H -0.0906 0.1613 0.2002
H21 H -0.0221 0.2635 0.2141
H22 H -0.1686 0.3782 0.1813
H23 H -0.2412 0.2777 0.1689
H24 H -0.2894 0.3698 0.2004
H25 H -0.3371 0.2353 0.2604
H26 H -0.2878 0.1432 0.2292
H27 H -0.2460 0.1588 0.2807
H28 H 0.0583 0.4553 0.2345
loop_
_geom_bond_atom_site_label_1
_geom_bond_atom_site_label_2
_geom_bond_site_symmetry_1
_geom_bond_site_symmetry_2
Cl1 C1 1_555 1_555
O1 C7 1_555 1_555
O2 C16 1_555 1_555
O3 C16 1_555 1_555
O4 C11 1_555 1_555
C1 C2 1_555 1_555
C2 C3 1_555 1_555
C3 C4 1_555 1_555
C4 C5 1_555 1_555
C5 C6 1_555 1_555
C6 C1 1_555 1_555
C7 C4 1_555 1_555
C8 C7 1_555 1_555
C9 C8 1_555 1_555
C10 C9 1_555 1_555
C11 C10 1_555 1_555
C12 C11 1_555 1_555
C13 C8 1_555 1_555
C14 O4 1_555 1_555
C15 C14 1_555 1_555
C16 C14 1_555 1_555
C17 C14 1_555 1_555
H1 C2 1_555 1_555
H2 C3 1_555 1_555
H3 C5 1_555 1_555
H4 C6 1_555 1_555
H5 C9 1_555 1_555
H6 C10 1_555 1_555
H7 C12 1_555 1_555
H8 C13 1_555 1_555
H9 C15 1_555 1_555
H10 C15 1_555 1_555
H11 C15 1_555 1_555
H12 C17 1_555 1_555
H13 C17 1_555 1_555
H14 C17 1_555 1_555
O5 C18 1_555 1_555
N1 C19 1_555 1_555
C18 C19 1_555 1_555
C19 H17 1_555 1_555
C20 N1 1_555 1_555
C21 N1 1_555 1_555
C22 N1 1_555 1_555
H15 C18 1_555 1_555
H16 C18 1_555 1_555
H18 C19 1_555 1_555
H19 C20 1_555 1_555
H20 C20 1_555 1_555
H21 C20 1_555 1_555
H22 C21 1_555 1_555
H23 C21 1_555 1_555
H24 C21 1_555 1_555
H25 C22 1_555 1_555
H26 C22 1_555 1_555
H27 C22 1_555 1_555
H28 O5 1_555 1_555
C12 C13 1_555 1_555

#END
