
#######################################################################
#
#                 Cambridge Crystallographic Data Centre
#                                CCDC 
#
#######################################################################
#
# If this CIF has been generated from an entry in the Cambridge 
# Structural Database, then it will include bibliographic, chemical, 
# crystal, experimental, refinement or atomic coordinate data resulting 
# from the CCDC's data processing and validation procedures.
#
#######################################################################

data_KULNEL
_chemical_formula_moiety         'C18 H16 Br1 N1 O5'
_chemical_name_systematic        
'(R)-Benzyl 4-(4-bromophenyl)-2-(nitromethyl)-4-oxobutanoate'
_symmetry_cell_setting           monoclinic
_symmetry_space_group_name_H-M   'P 21'
_symmetry_Int_Tables_number      4
_space_group_name_Hall           'P 2yb'
loop_
_symmetry_equiv_pos_site_id
_symmetry_equiv_pos_as_xyz
1 x,y,z
2 -x,1/2+y,-z
_cell_length_a                   5.6235(8)
_cell_length_b                   39.442(6)
_cell_length_c                   8.0098(12)
_cell_angle_alpha                90
_cell_angle_beta                 90.031(1)
_cell_angle_gamma                90
_cell_volume                     1776.59
_exptl_crystal_colour            colorless
_exptl_crystal_description       block
_cell_formula_units_Z            4
_exptl_crystal_recrystallization_method 'ethyl acetate/hexane'
loop_
_atom_site_label
_atom_site_type_symbol
_atom_site_fract_x
_atom_site_fract_y
_atom_site_fract_z
Br1 Br 0.5464(3) 0.68796(2) 0.95895(17)
C19 C 0.9252(16) 0.5499(2) 0.7300(9)
C20 C 0.6586(10) 0.64593(10) 0.8877(8)
C21 C 0.8755(10) 0.64359(11) 0.8053(7)
H17 H 0.9633 0.6631 0.7836
C22 C 0.9611(8) 0.61214(13) 0.7552(6)
H18 H 1.1062 0.6106 0.7000
C23 C 0.8298(9) 0.58301(10) 0.7876(6)
C24 C 0.6130(8) 0.58534(11) 0.8701(7)
H19 H 0.5251 0.5659 0.8917
C25 C 0.5274(8) 0.61680(14) 0.9201(7)
H20 H 0.3823 0.6184 0.9753
C26 C 0.7624(16) 0.5223(2) 0.6824(11)
H21 H 0.6383 0.5315 0.6115
H22 H 0.6872 0.5135 0.7824
C27 C 0.8848(16) 0.4929(2) 0.5900(10)
H23 H 0.7595 0.4790 0.5394
C28 C 1.026(2) 0.4703(2) 0.7031(11)
H24 H 1.1628 0.4828 0.7437
H25 H 0.9287 0.4645 0.7989
C29 C 1.044(2) 0.5060(3) 0.4470(13)
C30 C 1.058(3) 0.5479(3) 0.2283(13)
H26 H 0.9485 0.5510 0.1361
H27 H 1.1866 0.5334 0.1907
C31 C 1.1561(15) 0.58160(14) 0.2817(9)
C32 C 1.3686(14) 0.5856(3) 0.3680(10)
H28 H 1.4597 0.5668 0.3955
C33 C 1.4450(12) 0.6179(3) 0.4134(9)
H29 H 1.5872 0.6205 0.4711
C34 C 1.3088(18) 0.6461(2) 0.3724(9)
H30 H 1.3599 0.6676 0.4027
C35 C 1.0963(16) 0.64204(14) 0.2860(9)
H31 H 1.0051 0.6609 0.2586
C36 C 1.0199(10) 0.60981(17) 0.2407(7)
H32 H 0.8777 0.6071 0.1829
N2 N 1.110(2) 0.4387(2) 0.6243(12)
O6 O 1.1413(12) 0.54614(17) 0.7212(9)
O7 O 0.989(2) 0.4244(2) 0.5213(11)
O8 O 0.9362(17) 0.53210(17) 0.3663(8)
O9 O 1.2313(15) 0.49447(19) 0.4085(9)
O10 O 1.301(2) 0.4271(3) 0.6703(12)
Br2 Br 0.8237(2) 0.71613(3) 0.48268(18)
C1 C 0.5169(9) 0.82043(11) 0.6494(8)
C2 C 0.7355(9) 0.81889(12) 0.5688(8)
H1 H 0.8208 0.8387 0.5487
C3 C 0.8265(8) 0.78778(14) 0.5181(7)
H2 H 0.9728 0.7868 0.4642
C4 C 0.6990(11) 0.75822(11) 0.5482(8)
C5 C 0.4804(10) 0.75976(12) 0.6288(8)
H3 H 0.3951 0.7400 0.6489
C6 C 0.3893(8) 0.79087(15) 0.6795(7)
H4 H 0.2431 0.7919 0.7334
C7 C 0.4061(17) 0.8530(2) 0.7027(11)
C8 C 0.5647(19) 0.8832(2) 0.7351(12)
H5 H 0.6982 0.8762 0.8038
H6 H 0.6270 0.8915 0.6300
C9 C 0.4321(17) 0.9110(2) 0.8214(13)
H7 H 0.3099 0.9195 0.7448
C10 C 0.598(2) 0.9402(2) 0.8626(14)
H8 H 0.6961 0.9337 0.9571
H9 H 0.7032 0.9439 0.7683
C11 C 0.3091(18) 0.8991(2) 0.9803(10)
C12 C 0.309(3) 0.8588(3) 1.2023(17)
H10 H 0.4264 0.8569 1.2903
H11 H 0.1827 0.8736 1.2414
C13 C 0.2113(16) 0.82565(17) 1.1664(11)
C14 C 0.3412(11) 0.7965(2) 1.2013(9)
H12 H 0.4851 0.7981 1.2580
C15 C 0.2561(19) 0.76502(18) 1.1515(11)
H13 H 0.3430 0.7455 1.1749
C16 C 0.041(2) 0.7627(3) 1.0668(10)
H14 H -0.0160 0.7416 1.0334
C17 C -0.0889(13) 0.7918(4) 1.0318(9)
H15 H -0.2328 0.7902 0.9751
C18 C -0.0038(15) 0.8233(3) 1.0817(11)
H16 H -0.0907 0.8428 1.0583
N1 N 0.479(2) 0.9722(2) 0.9024(11)
O1 O 0.1970(14) 0.85518(19) 0.7201(10)
O2 O 0.5809(18) 0.9919(2) 0.9952(11)
O3 O 0.287(2) 0.9787(3) 0.8416(15)
O4 O 0.4220(14) 0.87392(17) 1.0487(9)
O5 O 0.1353(16) 0.9123(2) 1.0384(10)
loop_
_geom_bond_atom_site_label_1
_geom_bond_atom_site_label_2
_geom_bond_site_symmetry_1
_geom_bond_site_symmetry_2
Br1 C20 1_555 1_555
Br2 C4 1_555 1_555
C1 C2 1_555 1_555
C2 H1 1_555 1_555
C3 C2 1_555 1_555
H2 C3 1_555 1_555
C4 C3 1_555 1_555
C5 C4 1_555 1_555
H3 C5 1_555 1_555
C6 C1 1_555 1_555
H4 C6 1_555 1_555
C7 C1 1_555 1_555
C8 C7 1_555 1_555
H5 C8 1_555 1_555
H6 C8 1_555 1_555
C9 C8 1_555 1_555
H7 C9 1_555 1_555
C10 C9 1_555 1_555
H8 C10 1_555 1_555
H9 C10 1_555 1_555
C11 C9 1_555 1_555
C12 H10 1_555 1_555
H11 C12 1_555 1_555
C13 C12 1_555 1_555
C14 C13 1_555 1_555
H12 C14 1_555 1_555
C15 C14 1_555 1_555
H13 C15 1_555 1_555
C16 C15 1_555 1_555
H14 C16 1_555 1_555
C17 C16 1_555 1_555
H15 C17 1_555 1_555
C18 C13 1_555 1_555
H16 C18 1_555 1_555
C19 C23 1_555 1_555
C20 C21 1_555 1_555
C21 H17 1_555 1_555
C22 C21 1_555 1_555
H18 C22 1_555 1_555
C23 C22 1_555 1_555
C24 C23 1_555 1_555
H19 C24 1_555 1_555
C25 C20 1_555 1_555
H20 C25 1_555 1_555
C26 C19 1_555 1_555
H21 C26 1_555 1_555
H22 C26 1_555 1_555
C27 C26 1_555 1_555
H23 C27 1_555 1_555
C28 C27 1_555 1_555
H24 C28 1_555 1_555
H25 C28 1_555 1_555
C29 C27 1_555 1_555
C30 H26 1_555 1_555
H27 C30 1_555 1_555
C31 C30 1_555 1_555
C32 C31 1_555 1_555
H28 C32 1_555 1_555
C33 C32 1_555 1_555
H29 C33 1_555 1_555
C34 C33 1_555 1_555
H30 C34 1_555 1_555
C35 C34 1_555 1_555
H31 C35 1_555 1_555
C36 C31 1_555 1_555
H32 C36 1_555 1_555
N1 C10 1_555 1_555
N2 C28 1_555 1_555
O1 C7 1_555 1_555
O2 N1 1_555 1_555
O3 N1 1_555 1_555
O4 C11 1_555 1_555
O5 C11 1_555 1_555
O6 C19 1_555 1_555
O7 N2 1_555 1_555
O8 C29 1_555 1_555
O9 C29 1_555 1_555
O10 N2 1_555 1_555
C5 C6 1_555 1_555
C12 O4 1_555 1_555
C17 C18 1_555 1_555
C24 C25 1_555 1_555
C30 O8 1_555 1_555
C35 C36 1_555 1_555

#END
