
#######################################################################
#
#                 Cambridge Crystallographic Data Centre
#                                CCDC 
#
#######################################################################
#
# If this CIF has been generated from an entry in the Cambridge 
# Structural Database, then it will include bibliographic, chemical, 
# crystal, experimental, refinement or atomic coordinate data resulting 
# from the CCDC's data processing and validation procedures.
#
#######################################################################

data_KUMCIG
_chemical_formula_moiety         'C23 H22 Cl1 N1 O5'
_chemical_name_systematic        
'dimethyl 5-(4-chlorophenyl)-3-oxo-1-phenyltetrahydro-1H-pyrrolizine-2,7a(5H)-dicarboxylate'
_symmetry_cell_setting           monoclinic
_symmetry_space_group_name_H-M   'P 21'
_symmetry_Int_Tables_number      4
_space_group_name_Hall           'P 2yb'
loop_
_symmetry_equiv_pos_site_id
_symmetry_equiv_pos_as_xyz
1 x,y,z
2 -x,1/2+y,-z
_cell_length_a                   9.807(5)
_cell_length_b                   22.782(11)
_cell_length_c                   10.810(5)
_cell_angle_alpha                90
_cell_angle_beta                 114.359(7)
_cell_angle_gamma                90
_cell_volume                     2200.2
_exptl_crystal_description       block
_cell_formula_units_Z            4
loop_
_atom_site_label
_atom_site_type_symbol
_atom_site_fract_x
_atom_site_fract_y
_atom_site_fract_z
C1 C 0.2099(7) 0.8254(2) 0.8711(7)
C2 C 0.3136(7) 0.7967(3) 0.9762(7)
H1 H 0.3087 0.7973 1.0603
C3 C 0.4284(6) 0.7661(2) 0.9607(6)
H2 H 0.5006 0.7468 1.0346
C4 C 0.4357(6) 0.7641(2) 0.8334(5)
C5 C 0.3276(8) 0.7938(3) 0.7280(6)
H3 H 0.3307 0.7934 0.6432
C6 C 0.2127(8) 0.8246(3) 0.7443(7)
H4 H 0.1398 0.8441 0.6714
C7 C 0.5687(6) 0.7338(2) 0.8247(5)
H5 H 0.6040 0.7024 0.8926
C8 C 0.6995(7) 0.7757(3) 0.8440(6)
H6 H 0.7945 0.7575 0.9000
H7 H 0.6900 0.8118 0.8872
C9 C 0.6900(7) 0.7882(3) 0.7000(6)
H8 H 0.6165 0.8183 0.6544
H9 H 0.7863 0.7999 0.7027
C10 C 0.6418(6) 0.7291(2) 0.6322(6)
C11 C 0.5450(6) 0.7220(2) 0.4738(5)
H10 H 0.6105 0.7081 0.4319
C12 C 0.4381(6) 0.6725(2) 0.4693(5)
H11 H 0.3395 0.6806 0.3965
C13 C 0.4252(6) 0.6742(2) 0.6070(6)
C14 C 0.4894(7) 0.6132(3) 0.4455(6)
C15 C 0.4182(11) 0.5149(4) 0.3771(13)
H12 H 0.4352 0.5153 0.2957
H13 H 0.3370 0.4888 0.3654
H14 H 0.5072 0.5017 0.4518
C16 C 0.7769(6) 0.6881(3) 0.6808(6)
C17 C 1.0099(7) 0.6687(4) 0.6711(6)
H15 H 1.0702 0.6757 0.7657
H16 H 1.0650 0.6797 0.6191
H17 H 0.9844 0.6278 0.6572
C18 C 0.4753(6) 0.7797(3) 0.4080(5)
C19 C 0.5625(8) 0.8206(3) 0.3779(7)
H18 H 0.6607 0.8111 0.3946
C20 C 0.5081(10) 0.8745(4) 0.3244(8)
H19 H 0.5706 0.9012 0.3082
C21 C 0.3635(10) 0.8897(3) 0.2945(8)
H20 H 0.3279 0.9265 0.2591
C22 C 0.2703(8) 0.8497(3) 0.3173(7)
H21 H 0.1706 0.8592 0.2947
C23 C 0.3265(6) 0.7948(3) 0.3746(6)
H22 H 0.2637 0.7682 0.3905
Cl1 Cl 0.06614(19) 0.86383(8) 0.8919(2)
N1 N 0.5377(5) 0.7093(2) 0.6883(4)
O1 O 0.3302(4) 0.64980(18) 0.6350(4)
O2 O 0.6131(6) 0.6021(2) 0.4564(6)
O3 O 0.3808(6) 0.5740(2) 0.4049(6)
O4 O 0.7990(6) 0.6476(2) 0.7568(5)
O5 O 0.8745(4) 0.70333(19) 0.6281(4)
C24 C 0.6842(7) -0.0311(3) 1.0326(7)
C25 C 0.7039(7) 0.0195(3) 1.0978(8)
H23 H 0.7999 0.0347 1.1431
C26 C 0.5803(7) 0.0504(3) 1.0991(7)
H24 H 0.5958 0.0856 1.1465
C27 C 0.4353(6) 0.0291(2) 1.0307(6)
C28 C 0.4201(7) -0.0240(3) 0.9638(7)
H25 H 0.3252 -0.0398 0.9171
C29 C 0.5442(8) -0.0539(3) 0.9650(7)
H26 H 0.5318 -0.0896 0.9197
C30 C 0.3025(6) 0.0634(2) 1.0289(6)
H27 H 0.3371 0.0902 1.1068
C31 C 0.1688(7) 0.0273(3) 1.0295(7)
H28 H 0.1998 -0.0126 1.0589
H29 H 0.1309 0.0449 1.0909
C32 C 0.0490(7) 0.0277(2) 0.8855(6)
H30 H 0.0672 -0.0023 0.8304
H31 H -0.0499 0.0221 0.8836
C33 C 0.0670(6) 0.0890(2) 0.8387(5)
C34 C 0.0313(5) 0.1018(2) 0.6828(5)
H32 H -0.0673 0.1204 0.6394
C35 C 0.1529(5) 0.1475(2) 0.6980(5)
H33 H 0.1841 0.1414 0.6238
C36 C 0.2863(5) 0.1315(2) 0.8323(5)
C37 C 0.1033(6) 0.2100(2) 0.6920(5)
C38 C 0.1703(8) 0.3070(2) 0.7713(8)
H34 H 0.1153 0.3225 0.6818
H35 H 0.2589 0.3301 0.8174
H36 H 0.1090 0.3083 0.8213
C39 C -0.0121(6) 0.1362(3) 0.8872(6)
C40 C -0.2305(7) 0.1613(4) 0.9161(8)
H37 H -0.2053 0.1581 1.0116
H38 H -0.3353 0.1536 0.8659
H39 H -0.2079 0.2002 0.8958
C41 C 0.0335(6) 0.0474(2) 0.6041(5)
C42 C -0.0983(7) 0.0242(3) 0.5120(6)
H40 H -0.1882 0.0429 0.4963
C43 C -0.0989(10) -0.0273(4) 0.4414(9)
H41 H -0.1896 -0.0431 0.3816
C44 C 0.0303(10) -0.0544(4) 0.4589(9)
H42 H 0.0287 -0.0886 0.4116
C45 C 0.1631(8) -0.0310(3) 0.5466(8)
H43 H 0.2527 -0.0490 0.5582
C46 C 0.1640(7) 0.0193(3) 0.6180(6)
H44 H 0.2553 0.0348 0.6774
Cl2 Cl 0.8393(2) -0.06888(7) 1.0304(2)
N2 N 0.2283(4) 0.09799(18) 0.9043(4)
O6 O 0.4169(4) 0.14520(16) 0.8685(4)
O7 O -0.0248(5) 0.22636(18) 0.6266(5)
O8 O 0.2123(4) 0.24681(14) 0.7616(4)
O9 O 0.0358(5) 0.1844(2) 0.9207(5)
O10 O -0.1437(5) 0.1188(2) 0.8779(5)
loop_
_geom_bond_atom_site_label_1
_geom_bond_atom_site_label_2
_geom_bond_site_symmetry_1
_geom_bond_site_symmetry_2
C1 C2 1_555 1_555
C2 H1 1_555 1_555
C3 C2 1_555 1_555
H2 C3 1_555 1_555
C4 C3 1_555 1_555
C5 C4 1_555 1_555
H3 C5 1_555 1_555
C6 C1 1_555 1_555
H4 C6 1_555 1_555
C7 C4 1_555 1_555
H5 C7 1_555 1_555
C8 C7 1_555 1_555
H6 C8 1_555 1_555
H7 C8 1_555 1_555
C9 C8 1_555 1_555
H8 C9 1_555 1_555
H9 C9 1_555 1_555
C10 C9 1_555 1_555
C11 C10 1_555 1_555
H10 C11 1_555 1_555
C12 C11 1_555 1_555
H11 C12 1_555 1_555
C13 C12 1_555 1_555
C14 C12 1_555 1_555
C15 H12 1_555 1_555
H13 C15 1_555 1_555
H14 C15 1_555 1_555
C16 C10 1_555 1_555
C17 H15 1_555 1_555
H16 C17 1_555 1_555
H17 C17 1_555 1_555
C18 C11 1_555 1_555
C19 C18 1_555 1_555
H18 C19 1_555 1_555
C20 C19 1_555 1_555
H19 C20 1_555 1_555
C21 C20 1_555 1_555
H20 C21 1_555 1_555
C22 C21 1_555 1_555
H21 C22 1_555 1_555
C23 C18 1_555 1_555
H22 C23 1_555 1_555
Cl1 C1 1_555 1_555
N1 C7 1_555 1_555
O1 C13 1_555 1_555
O2 C14 1_555 1_555
O3 C14 1_555 1_555
O4 C16 1_555 1_555
O5 C16 1_555 1_555
C24 C25 1_555 1_555
C25 H23 1_555 1_555
C26 C25 1_555 1_555
H24 C26 1_555 1_555
C27 C26 1_555 1_555
C28 C27 1_555 1_555
H25 C28 1_555 1_555
C29 C24 1_555 1_555
H26 C29 1_555 1_555
C30 C27 1_555 1_555
H27 C30 1_555 1_555
C31 C30 1_555 1_555
H28 C31 1_555 1_555
H29 C31 1_555 1_555
C32 C31 1_555 1_555
H30 C32 1_555 1_555
H31 C32 1_555 1_555
C33 C32 1_555 1_555
C34 C33 1_555 1_555
H32 C34 1_555 1_555
C35 C34 1_555 1_555
H33 C35 1_555 1_555
C36 C35 1_555 1_555
C37 C35 1_555 1_555
C38 H34 1_555 1_555
H35 C38 1_555 1_555
H36 C38 1_555 1_555
C39 C33 1_555 1_555
C40 H37 1_555 1_555
H38 C40 1_555 1_555
H39 C40 1_555 1_555
C41 C34 1_555 1_555
C42 C41 1_555 1_555
H40 C42 1_555 1_555
C43 C42 1_555 1_555
H41 C43 1_555 1_555
C44 C43 1_555 1_555
H42 C44 1_555 1_555
C45 C44 1_555 1_555
H43 C45 1_555 1_555
C46 C41 1_555 1_555
H44 C46 1_555 1_555
Cl2 C24 1_555 1_555
N2 C30 1_555 1_555
O6 C36 1_555 1_555
O7 C37 1_555 1_555
O8 C37 1_555 1_555
O9 C39 1_555 1_555
O10 C39 1_555 1_555
C5 C6 1_555 1_555
C10 N1 1_555 1_555
C13 N1 1_555 1_555
C15 O3 1_555 1_555
C17 O5 1_555 1_555
C22 C23 1_555 1_555
C28 C29 1_555 1_555
C33 N2 1_555 1_555
C36 N2 1_555 1_555
C38 O8 1_555 1_555
C40 O10 1_555 1_555
C45 C46 1_555 1_555

#END
