
#######################################################################
#
#                 Cambridge Crystallographic Data Centre
#                                CCDC 
#
#######################################################################
#
# If this CIF has been generated from an entry in the Cambridge 
# Structural Database, then it will include bibliographic, chemical, 
# crystal, experimental, refinement or atomic coordinate data resulting 
# from the CCDC's data processing and validation procedures.
#
#######################################################################

data_KUMLAG
_chemical_formula_moiety         'C24 H18 O6'
_chemical_name_systematic        'bis(2-Naphthyl) L-tartrate'
_symmetry_cell_setting           triclinic
_symmetry_space_group_name_H-M   'P 1'
_symmetry_Int_Tables_number      1
_space_group_name_Hall           'P 1'
loop_
_symmetry_equiv_pos_site_id
_symmetry_equiv_pos_as_xyz
1 x,y,z
_cell_length_a                   5.8352(2)
_cell_length_b                   7.9311(3)
_cell_length_c                   20.5792(8)
_cell_angle_alpha                100.020(3)
_cell_angle_beta                 92.974(3)
_cell_angle_gamma                92.513(3)
_cell_volume                     935.252
_exptl_crystal_colour            colorless
_exptl_crystal_description       plate
_chemical_melting_point          '196-198 deg.C'
_cell_formula_units_Z            2
loop_
_atom_site_label
_atom_site_type_symbol
_atom_site_fract_x
_atom_site_fract_y
_atom_site_fract_z
C1 C 0.0349(4) -0.0349(3) 1.11651(12)
O1 O -0.1446(3) -0.0658(2) 1.13792(9)
O2 O 0.2276(3) 0.0374(2) 1.15222(8)
C2 C 0.0769(4) 0.1559(3) 1.25767(12)
H1 H -0.0589 0.1878 1.2365
C3 C 0.2373(4) 0.0694(3) 1.22146(12)
C4 C 0.4381(4) 0.0157(3) 1.25099(13)
H2 H 0.5457 -0.0461 1.2244
C5 C 0.4765(4) 0.0529(3) 1.31762(12)
H3 H 0.6111 0.0155 1.3376
C6 C 0.3602(4) 0.1921(3) 1.42703(12)
H4 H 0.4954 0.1574 1.4476
C7 C 0.2083(5) 0.2857(3) 1.46498(13)
H5 H 0.2386 0.3157 1.5115
C8 C 0.0062(5) 0.3378(3) 1.43493(13)
H6 H -0.0990 0.4029 1.4613
C9 C -0.0382(4) 0.2949(3) 1.36839(13)
H7 H -0.1747 0.3306 1.3489
C10 C 0.1153(4) 0.1978(3) 1.32758(12)
C11 C 0.3197(4) 0.1463(3) 1.35790(12)
C12 C 0.0913(4) -0.0752(3) 1.04451(12)
H8 H 0.1509 0.0313 1.0299
O3 O -0.1106(3) -0.1424(2) 1.00578(8)
H9 H -0.1181 -0.0757 0.9777
C13 C 0.2758(4) -0.2118(3) 1.03678(12)
H10 H 0.4312 -0.1576 1.0526
O4 O 0.2127(3) -0.3370(2) 1.07440(8)
H11 H 0.3367 -0.3783 1.0865
C14 C 0.2726(4) -0.2905(3) 0.96410(12)
O5 O 0.2090(3) -0.4359(2) 0.94059(8)
O6 O 0.3453(3) -0.1740(2) 0.92808(8)
C15 C 0.1658(4) -0.1829(3) 0.82046(12)
H12 H 0.0471 -0.1171 0.8400
C16 C 0.3401(4) -0.2298(3) 0.85869(12)
C17 C 0.5206(4) -0.3265(3) 0.83233(13)
H13 H 0.6395 -0.3574 0.8606
C18 C 0.5217(4) -0.3751(3) 0.76564(13)
H14 H 0.6434 -0.4398 0.7474
C19 C 0.3390(5) -0.3813(3) 0.65302(13)
H15 H 0.4595 -0.4456 0.6337
C20 C 0.1644(5) -0.3392(4) 0.61322(14)
H16 H 0.1632 -0.3745 0.5667
C21 C -0.0143(5) -0.2430(4) 0.64144(14)
H17 H -0.1357 -0.2137 0.6136
C22 C -0.0150(5) -0.1915(3) 0.70805(14)
H18 H -0.1367 -0.1265 0.7262
C23 C 0.1639(4) -0.2339(3) 0.75065(13)
C24 C 0.3442(4) -0.3309(3) 0.72273(12)
C25 C 0.6808(4) 0.1793(3) 0.92925(12)
O7 O 0.8200(3) 0.0711(2) 0.91606(8)
O8 O 0.5842(3) 0.2629(2) 0.88462(8)
C26 C 0.5302(4) 0.1634(3) 0.76907(12)
H19 H 0.3842 0.1140 0.7761
C27 C 0.6705(4) 0.2402(3) 0.82082(12)
C28 C 0.8900(4) 0.3125(3) 0.81368(13)
H20 H 0.9858 0.3630 0.8514
C29 C 0.9627(4) 0.3089(3) 0.75170(13)
H21 H 1.1105 0.3579 0.7463
C30 C 0.8912(4) 0.2288(3) 0.62990(13)
H22 H 1.0366 0.2793 0.6231
C31 C 0.7510(5) 0.1524(3) 0.57656(13)
H23 H 0.7993 0.1510 0.5331
C32 C 0.5356(5) 0.0758(3) 0.58569(13)
H24 H 0.4402 0.0221 0.5484
C33 C 0.4628(4) 0.0782(3) 0.64761(12)
H25 H 0.3168 0.0265 0.6531
C34 C 0.6027(4) 0.1571(3) 0.70415(12)
C35 C 0.8219(4) 0.2335(3) 0.69519(12)
C36 C 0.6098(4) 0.2429(3) 0.99852(12)
H26 H 0.6378 0.1512 1.0253
O9 O 0.3754(3) 0.2799(2) 1.00115(8)
H27 H 0.3573 0.3579 0.9781
C37 C 0.7683(4) 0.4016(3) 1.02865(12)
H28 H 0.9260 0.3840 1.0127
O10 O 0.6785(3) 0.5415(2) 1.00424(8)
H29 H 0.7774 0.6255 1.0097
C38 C 0.7803(4) 0.4194(3) 1.10267(12)
O11 O 0.8924(3) 0.3323(2) 1.13275(9)
O12 O 0.6458(3) 0.5435(2) 1.13163(8)
C39 C 0.8113(4) 0.6546(3) 1.24125(13)
H30 H 0.9474 0.6913 1.2232
C40 C 0.6365(4) 0.5689(3) 1.20121(12)
C41 C 0.4325(4) 0.5099(3) 1.22500(13)
H31 H 0.3147 0.4487 1.1955
C42 C 0.4069(4) 0.5422(3) 1.29128(13)
H32 H 0.2689 0.5040 1.3080
C43 C 0.5584(5) 0.6674(3) 1.40501(13)
H33 H 0.4224 0.6288 1.4226
C44 C 0.7293(5) 0.7567(4) 1.44653(14)
H34 H 0.7112 0.7800 1.4928
C45 C 0.9319(5) 0.8145(3) 1.42130(13)
H35 H 1.0492 0.8773 1.4506
C46 C 0.9610(4) 0.7808(3) 1.35475(13)
H36 H 1.0991 0.8197 1.3383
C47 C 0.7881(4) 0.6887(3) 1.31028(12)
C48 C 0.5823(4) 0.6318(3) 1.33577(12)
loop_
_geom_bond_atom_site_label_1
_geom_bond_atom_site_label_2
_geom_bond_site_symmetry_1
_geom_bond_site_symmetry_2
C1 O1 1_555 1_555
O2 C1 1_555 1_555
C2 H1 1_555 1_555
C3 O2 1_555 1_555
C4 C3 1_555 1_555
H2 C4 1_555 1_555
C5 C4 1_555 1_555
H3 C5 1_555 1_555
C6 H4 1_555 1_555
C7 C6 1_555 1_555
H5 C7 1_555 1_555
C8 C7 1_555 1_555
H6 C8 1_555 1_555
C9 C8 1_555 1_555
H7 C9 1_555 1_555
C10 C2 1_555 1_555
C11 C5 1_555 1_555
C12 C1 1_555 1_555
H8 C12 1_555 1_555
O3 C12 1_555 1_555
H9 O3 1_555 1_555
C13 C12 1_555 1_555
H10 C13 1_555 1_555
O4 C13 1_555 1_555
H11 O4 1_555 1_555
C14 C13 1_555 1_555
O5 C14 1_555 1_555
O6 C14 1_555 1_555
C15 H12 1_555 1_555
C16 O6 1_555 1_555
C17 C16 1_555 1_555
H13 C17 1_555 1_555
C18 C17 1_555 1_555
H14 C18 1_555 1_555
C19 H15 1_555 1_555
C20 C19 1_555 1_555
H16 C20 1_555 1_555
C21 C20 1_555 1_555
H17 C21 1_555 1_555
C22 C21 1_555 1_555
H18 C22 1_555 1_555
C23 C15 1_555 1_555
C24 C18 1_555 1_555
C25 O7 1_555 1_555
O8 C25 1_555 1_555
C26 H19 1_555 1_555
C27 O8 1_555 1_555
C28 C27 1_555 1_555
H20 C28 1_555 1_555
C29 C28 1_555 1_555
H21 C29 1_555 1_555
C30 H22 1_555 1_555
C31 C30 1_555 1_555
H23 C31 1_555 1_555
C32 C31 1_555 1_555
H24 C32 1_555 1_555
C33 C32 1_555 1_555
H25 C33 1_555 1_555
C34 C26 1_555 1_555
C35 C29 1_555 1_555
C36 C25 1_555 1_555
H26 C36 1_555 1_555
O9 C36 1_555 1_555
H27 O9 1_555 1_555
C37 C36 1_555 1_555
H28 C37 1_555 1_555
O10 C37 1_555 1_555
H29 O10 1_555 1_555
C38 C37 1_555 1_555
O11 C38 1_555 1_555
O12 C38 1_555 1_555
C39 H30 1_555 1_555
C40 O12 1_555 1_555
C41 C40 1_555 1_555
H31 C41 1_555 1_555
C42 C41 1_555 1_555
H32 C42 1_555 1_555
C43 H33 1_555 1_555
C44 C43 1_555 1_555
H34 C44 1_555 1_555
C45 C44 1_555 1_555
H35 C45 1_555 1_555
C46 C45 1_555 1_555
H36 C46 1_555 1_555
C47 C39 1_555 1_555
C48 C42 1_555 1_555
C2 C3 1_555 1_555
C6 C11 1_555 1_555
C9 C10 1_555 1_555
C10 C11 1_555 1_555
C15 C16 1_555 1_555
C19 C24 1_555 1_555
C22 C23 1_555 1_555
C23 C24 1_555 1_555
C26 C27 1_555 1_555
C30 C35 1_555 1_555
C33 C34 1_555 1_555
C34 C35 1_555 1_555
C39 C40 1_555 1_555
C43 C48 1_555 1_555
C46 C47 1_555 1_555
C47 C48 1_555 1_555

#END
