
#######################################################################
#
#                 Cambridge Crystallographic Data Centre
#                                CCDC 
#
#######################################################################
#
# If this CIF has been generated from an entry in the Cambridge 
# Structural Database, then it will include bibliographic, chemical, 
# crystal, experimental, refinement or atomic coordinate data resulting 
# from the CCDC's data processing and validation procedures.
#
#######################################################################

data_KUMQEQ
_chemical_formula_moiety         'C17 H17 Br1 O1'
_chemical_name_systematic        (4-Bromophenyl)(4-t-butylphenyl)methanone
_symmetry_cell_setting           monoclinic
_symmetry_space_group_name_H-M   'P 21/c'
_symmetry_Int_Tables_number      14
_space_group_name_Hall           '-P 2ybc'
loop_
_symmetry_equiv_pos_site_id
_symmetry_equiv_pos_as_xyz
1 x,y,z
2 -x,1/2+y,1/2-z
3 -x,-y,-z
4 x,1/2-y,1/2+z
_cell_length_a                   6.007(4)
_cell_length_b                   29.589(18)
_cell_length_c                   10.014(5)
_cell_angle_alpha                90
_cell_angle_beta                 123.10(3)
_cell_angle_gamma                90
_cell_volume                     1491.06
_exptl_crystal_colour            colorless
_exptl_crystal_description       rod
_cell_formula_units_Z            4
loop_
_atom_site_label
_atom_site_type_symbol
_atom_site_fract_x
_atom_site_fract_y
_atom_site_fract_z
Br1 Br 0.34465(10) 0.576869(14) 0.21224(5)
O1 O -0.3879(7) 0.76178(9) 0.1217(4)
C1 C 0.1904(8) 0.63418(12) 0.1934(4)
C2 C 0.2232(8) 0.66783(15) 0.1133(4)
H1 H 0.3170 0.6624 0.0656
C3 C 0.1176(8) 0.70973(13) 0.1030(4)
H2 H 0.1455 0.7330 0.0512
C4 C -0.0296(7) 0.71784(13) 0.1687(4)
C5 C -0.0654(7) 0.68268(14) 0.2461(4)
H3 H -0.1663 0.6873 0.2896
C6 C 0.0461(8) 0.64103(14) 0.2596(4)
H4 H 0.0234 0.6177 0.3135
C7 C -0.1653(9) 0.76177(14) 0.1489(5)
C8 C -0.0245(8) 0.80515(12) 0.1688(4)
C9 C 0.2450(8) 0.80913(12) 0.2543(4)
H5 H 0.3495 0.7833 0.2961
C10 C 0.3664(7) 0.85099(13) 0.2803(4)
H6 H 0.5510 0.8526 0.3405
C11 C 0.2209(8) 0.89022(11) 0.2192(4)
C12 C -0.0519(8) 0.88540(13) 0.1280(4)
H7 H -0.1569 0.9109 0.0811
C13 C -0.1744(8) 0.84394(14) 0.1041(4)
H8 H -0.3589 0.8421 0.0441
C14 C 0.3472(8) 0.93689(11) 0.2445(4)
C15 C 0.6403(8) 0.93674(11) 0.3769(4)
H9 H 0.7348 0.9170 0.3483
H10 H 0.6613 0.9262 0.4739
H11 H 0.7101 0.9668 0.3923
C16 C 0.3155(8) 0.95196(12) 0.0886(4)
H12 H 0.3987 0.9303 0.0581
H13 H 0.3981 0.9809 0.1037
H14 H 0.1300 0.9541 0.0064
C17 C 0.2063(8) 0.97153(12) 0.2893(4)
H15 H 0.2139 0.9614 0.3828
H16 H 0.0240 0.9745 0.2027
H17 H 0.2933 1.0003 0.3104
loop_
_geom_bond_atom_site_label_1
_geom_bond_atom_site_label_2
_geom_bond_site_symmetry_1
_geom_bond_site_symmetry_2
Br1 C1 1_555 1_555
O1 C7 1_555 1_555
C1 C2 1_555 1_555
C2 H1 1_555 1_555
C3 C2 1_555 1_555
H2 C3 1_555 1_555
C4 C3 1_555 1_555
C5 C4 1_555 1_555
H3 C5 1_555 1_555
C6 C1 1_555 1_555
H4 C6 1_555 1_555
C7 C4 1_555 1_555
C8 C7 1_555 1_555
C9 C8 1_555 1_555
H5 C9 1_555 1_555
C10 C9 1_555 1_555
H6 C10 1_555 1_555
C11 C10 1_555 1_555
C12 C11 1_555 1_555
H7 C12 1_555 1_555
C13 C8 1_555 1_555
H8 C13 1_555 1_555
C14 C11 1_555 1_555
C15 C14 1_555 1_555
H9 C15 1_555 1_555
H10 C15 1_555 1_555
H11 C15 1_555 1_555
C16 C14 1_555 1_555
H12 C16 1_555 1_555
H13 C16 1_555 1_555
H14 C16 1_555 1_555
C17 C14 1_555 1_555
H15 C17 1_555 1_555
H16 C17 1_555 1_555
H17 C17 1_555 1_555
C5 C6 1_555 1_555
C12 C13 1_555 1_555

#END
