
#######################################################################
#
#                 Cambridge Crystallographic Data Centre
#                                CCDC 
#
#######################################################################
#
# If this CIF has been generated from an entry in the Cambridge 
# Structural Database, then it will include bibliographic, chemical, 
# crystal, experimental, refinement or atomic coordinate data resulting 
# from the CCDC's data processing and validation procedures.
#
#######################################################################

data_KUMQOA
_chemical_formula_moiety         'C46 H58 B2 O4'
_chemical_name_systematic        
2,2'-((1,2-bis(4-t-Butylphenyl)ethene-1,2-diyl)di-4,1-phenylene)bis(4,4,5,5-tetramethyl-1,3,2-dioxaborolane)
_symmetry_cell_setting           triclinic
_symmetry_space_group_name_H-M   'P -1'
_symmetry_Int_Tables_number      2
_space_group_name_Hall           '-P 1'
loop_
_symmetry_equiv_pos_site_id
_symmetry_equiv_pos_as_xyz
1 x,y,z
2 -x,-y,-z
_cell_length_a                   11.243(5)
_cell_length_b                   13.348(4)
_cell_length_c                   17.432(4)
_cell_angle_alpha                103.66(5)
_cell_angle_beta                 92.93(3)
_cell_angle_gamma                114.49(3)
_cell_volume                     2280.27
_exptl_crystal_colour            colorless
_exptl_crystal_description       rod
_cell_formula_units_Z            2
loop_
_atom_site_label
_atom_site_type_symbol
_atom_site_fract_x
_atom_site_fract_y
_atom_site_fract_z
B1 B 0.5138(5) 0.7940(5) 0.1152(3)
B2 B 1.0684(4) 1.3756(4) 0.3222(3)
C1 C 0.3655(7) 0.6542(4) 0.6999(3)
H1 H 0.2954 0.5965 0.7164
H2 H 0.3337 0.7040 0.6840
H3 H 0.4383 0.6982 0.7436
C2 C 0.4887(5) 0.5407(5) 0.6572(4)
H4 H 0.5611 0.5961 0.6988
H5 H 0.5226 0.5099 0.6129
H6 H 0.4321 0.4798 0.6775
C3 C 0.2859(5) 0.5004(4) 0.5758(3)
H7 H 0.3094 0.4596 0.5308
H8 H 0.2314 0.5322 0.5572
H9 H 0.2378 0.4487 0.6053
C4 C 0.4116(5) 0.5971(4) 0.6301(3)
C5 C 0.4875(4) 0.6860(3) 0.5863(2)
C6 C 0.6254(4) 0.7294(3) 0.5876(2)
H10 H 0.6730 0.7019 0.6148
C7 C 0.6926(4) 0.8123(3) 0.5495(2)
H11 H 0.7837 0.8385 0.5519
C8 C 0.6264(4) 0.8573(3) 0.5077(2)
C9 C 0.4890(4) 0.8118(3) 0.5039(2)
H12 H 0.4407 0.8368 0.4748
C10 C 0.4228(4) 0.7297(3) 0.5427(2)
H13 H 0.3315 0.7027 0.5394
C11 C 0.6982(4) 0.9477(3) 0.4667(2)
C12 C 0.7996(4) 1.0521(3) 0.5067(2)
C13 C 0.8444(4) 1.0865(3) 0.5964(2)
C14 C 0.7539(4) 1.0701(3) 0.6499(3)
H14 H 0.6645 1.0445 0.6311
C15 C 0.7973(4) 1.0920(3) 0.7321(3)
H15 H 0.7349 1.0792 0.7661
C16 C 0.9296(5) 1.1319(3) 0.7641(2)
C17 C 1.0198(4) 1.1531(3) 0.7107(2)
H16 H 1.1098 1.1816 0.7297
C18 C 0.9766(4) 1.1320(3) 0.6289(2)
H17 H 1.0395 1.1494 0.5955
C19 C 0.9741(5) 1.1448(4) 0.8529(3)
C20 C 0.9923(9) 1.0455(6) 0.8596(3)
H18 H 1.0538 1.0665 0.9074
H19 H 1.0264 1.0188 0.8139
H20 H 0.9087 0.9856 0.8621
C21 C 0.8811(6) 1.1619(6) 0.9052(3)
H21 H 0.7967 1.0956 0.8888
H22 H 0.8706 1.2284 0.9011
H23 H 0.9155 1.1729 0.9596
C22 C 1.1034(6) 1.2530(5) 0.8870(3)
H24 H 1.1251 1.2647 0.9434
H25 H 1.0936 1.3177 0.8784
H26 H 1.1731 1.2446 0.8607
C23 C 0.6479(3) 0.9123(3) 0.3778(2)
C24 C 0.6317(3) 0.8043(3) 0.3312(2)
H27 H 0.6491 0.7558 0.3557
C25 C 0.5898(3) 0.7698(3) 0.2488(2)
H28 H 0.5815 0.6986 0.2196
C26 C 0.5596(3) 0.8365(3) 0.2076(2)
C27 C 0.5717(3) 0.9421(3) 0.2555(2)
H29 H 0.5505 0.9889 0.2312
C28 C 0.6148(3) 0.9795(3) 0.3386(2)
H30 H 0.6213 1.0500 0.3680
C29 C 0.4369(6) 0.6730(5) -0.0123(3)
C30 C 0.4730(6) 0.7964(5) -0.0158(3)
C31 C 0.2816(5) 0.6051(4) -0.0178(3)
H31 H 0.2620 0.5373 -0.0009
H32 H 0.2388 0.5837 -0.0722
H33 H 0.2499 0.6531 0.0162
C32 C 0.4848(5) 0.6021(4) -0.0705(2)
H34 H 0.5793 0.6424 -0.0660
H35 H 0.4435 0.5881 -0.1240
H36 H 0.4625 0.5302 -0.0588
C33 C 0.3740(5) 0.8134(4) -0.0660(2)
H37 H 0.2948 0.7966 -0.0427
H38 H 0.3529 0.7629 -0.1192
H39 H 0.4109 0.8916 -0.0680
C34 C 0.6131(5) 0.8512(4) -0.0403(3)
H40 H 0.6465 0.9332 -0.0252
H41 H 0.6058 0.8231 -0.0972
H42 H 0.6728 0.8308 -0.0135
C35 C 0.8794(3) 1.1366(3) 0.4641(2)
C36 C 0.9301(3) 1.1044(3) 0.3961(2)
H43 H 0.9198 1.0294 0.3787
C37 C 0.9958(3) 1.1817(3) 0.3537(2)
H44 H 1.0301 1.1574 0.3095
C38 C 1.0117(3) 1.2956(3) 0.3759(2)
C39 C 0.9646(3) 1.3275(3) 0.4459(2)
H45 H 0.9758 1.4027 0.4639
C40 C 0.9021(3) 1.2521(3) 0.4897(2)
H46 H 0.8748 1.2782 0.5366
C41 C 1.1352(5) 1.4301(4) 0.2094(3)
C42 C 1.0202(6) 1.3640(4) 0.1396(3)
H47 H 1.0275 1.2976 0.1088
H48 H 1.0226 1.4124 0.1062
H49 H 0.9380 1.3404 0.1598
C43 C 1.2658(5) 1.4612(4) 0.1789(3)
H50 H 1.3372 1.4952 0.2235
H51 H 1.2766 1.5149 0.1486
H52 H 1.2664 1.3932 0.1453
C44 C 1.1237(5) 1.5307(4) 0.2704(3)
C45 C 1.0367(5) 1.5770(4) 0.2382(3)
H53 H 0.9496 1.5158 0.2168
H54 H 1.0738 1.6099 0.1966
H55 H 1.0312 1.6349 0.2806
C46 C 1.2579(5) 1.6296(3) 0.3119(3)
H56 H 1.2463 1.6782 0.3581
H57 H 1.2958 1.6733 0.2754
H58 H 1.3161 1.5995 0.3281
O1 O 0.4968(3) 0.6894(2) 0.07040(16)
O2 O 0.4893(3) 0.8581(2) 0.07035(17)
O3 O 1.1236(3) 1.3502(2) 0.25740(18)
O4 O 1.0639(3) 1.4776(2) 0.33202(15)
loop_
_geom_bond_atom_site_label_1
_geom_bond_atom_site_label_2
_geom_bond_site_symmetry_1
_geom_bond_site_symmetry_2
B1 C26 1_555 1_555
B2 C38 1_555 1_555
C1 H1 1_555 1_555
H2 C1 1_555 1_555
H3 C1 1_555 1_555
C2 H4 1_555 1_555
H5 C2 1_555 1_555
H6 C2 1_555 1_555
C3 H7 1_555 1_555
H8 C3 1_555 1_555
H9 C3 1_555 1_555
C4 C1 1_555 1_555
C5 C4 1_555 1_555
C6 C5 1_555 1_555
H10 C6 1_555 1_555
C7 C6 1_555 1_555
H11 C7 1_555 1_555
C8 C7 1_555 1_555
C9 C8 1_555 1_555
H12 C9 1_555 1_555
C10 C5 1_555 1_555
H13 C10 1_555 1_555
C11 C8 1_555 1_555
C12 C11 1_555 1_555
C13 C12 1_555 1_555
C14 C13 1_555 1_555
H14 C14 1_555 1_555
C15 C14 1_555 1_555
H15 C15 1_555 1_555
C16 C15 1_555 1_555
C17 C16 1_555 1_555
H16 C17 1_555 1_555
C18 C13 1_555 1_555
H17 C18 1_555 1_555
C19 C16 1_555 1_555
C20 C19 1_555 1_555
H18 C20 1_555 1_555
H19 C20 1_555 1_555
H20 C20 1_555 1_555
C21 C19 1_555 1_555
H21 C21 1_555 1_555
H22 C21 1_555 1_555
H23 C21 1_555 1_555
C22 C19 1_555 1_555
H24 C22 1_555 1_555
H25 C22 1_555 1_555
H26 C22 1_555 1_555
C23 C11 1_555 1_555
C24 C23 1_555 1_555
H27 C24 1_555 1_555
C25 C24 1_555 1_555
H28 C25 1_555 1_555
C26 C25 1_555 1_555
C27 C26 1_555 1_555
H29 C27 1_555 1_555
C28 C23 1_555 1_555
H30 C28 1_555 1_555
C29 C30 1_555 1_555
C30 C33 1_555 1_555
C31 C29 1_555 1_555
H31 C31 1_555 1_555
H32 C31 1_555 1_555
H33 C31 1_555 1_555
C32 C29 1_555 1_555
H34 C32 1_555 1_555
H35 C32 1_555 1_555
H36 C32 1_555 1_555
C33 H37 1_555 1_555
H38 C33 1_555 1_555
H39 C33 1_555 1_555
C34 C30 1_555 1_555
H40 C34 1_555 1_555
H41 C34 1_555 1_555
H42 C34 1_555 1_555
C35 C12 1_555 1_555
C36 C35 1_555 1_555
H43 C36 1_555 1_555
C37 C36 1_555 1_555
H44 C37 1_555 1_555
C38 C37 1_555 1_555
C39 C38 1_555 1_555
H45 C39 1_555 1_555
C40 C35 1_555 1_555
H46 C40 1_555 1_555
C41 C42 1_555 1_555
C42 H47 1_555 1_555
H48 C42 1_555 1_555
H49 C42 1_555 1_555
C43 C41 1_555 1_555
H50 C43 1_555 1_555
H51 C43 1_555 1_555
H52 C43 1_555 1_555
C44 C41 1_555 1_555
C45 C44 1_555 1_555
H53 C45 1_555 1_555
H54 C45 1_555 1_555
H55 C45 1_555 1_555
C46 C44 1_555 1_555
H56 C46 1_555 1_555
H57 C46 1_555 1_555
H58 C46 1_555 1_555
O1 B1 1_555 1_555
O2 B1 1_555 1_555
O3 B2 1_555 1_555
O4 B2 1_555 1_555
C2 C4 1_555 1_555
C3 C4 1_555 1_555
C9 C10 1_555 1_555
C17 C18 1_555 1_555
C27 C28 1_555 1_555
C29 O1 1_555 1_555
C30 O2 1_555 1_555
C39 C40 1_555 1_555
C41 O3 1_555 1_555
C44 O4 1_555 1_555

#END
