
#######################################################################
#
#                 Cambridge Crystallographic Data Centre
#                                CCDC 
#
#######################################################################
#
# If this CIF has been generated from an entry in the Cambridge 
# Structural Database, then it will include bibliographic, chemical, 
# crystal, experimental, refinement or atomic coordinate data resulting 
# from the CCDC's data processing and validation procedures.
#
#######################################################################

data_KUNVEU01
_chemical_name_common            
'3-Hydroxy-2-methyl-4-oxopyridine-1-acetic acid'
_chemical_formula_moiety         'C8 H9 N1 O4'
_chemical_name_systematic        
1-Carboxymethyl-3-hydroxy-2-methyl-4(1H)-pyridinone
_symmetry_cell_setting           monoclinic
_symmetry_space_group_name_H-M   'P 21/c'
_symmetry_Int_Tables_number      14
_space_group_name_Hall           '-P 2ybc'
loop_
_symmetry_equiv_pos_site_id
_symmetry_equiv_pos_as_xyz
1 x,y,z
2 -x,1/2+y,1/2-z
3 -x,-y,-z
4 x,1/2-y,1/2+z
_cell_length_a                   8.380(1)
_cell_length_b                   10.474(4)
_cell_length_c                   9.554(2)
_cell_angle_alpha                90
_cell_angle_beta                 102.78(1)
_cell_angle_gamma                90
_cell_volume                     817.801
_exptl_crystal_colour            colorless
_cell_formula_units_Z            4
loop_
_atom_site_label
_atom_site_type_symbol
_atom_site_fract_x
_atom_site_fract_y
_atom_site_fract_z
O1 O -0.0809(2) 0.0315(1) 0.2790(1)
O2 O -0.2241(1) 0.1679(1) 0.0406(1)
O3 O 0.6775(1) 0.1762(1) 0.3353(1)
O4 O 0.4438(2) 0.2821(1) 0.3122(2)
N1 N 0.2688(2) 0.1063(1) 0.1354(2)
C1 C 0.2554(3) -0.0105(2) 0.3573(3)
C2 C 0.1764(2) 0.0612(2) 0.2256(2)
C3 C 0.0092(2) 0.0823(2) 0.1917(2)
C4 C -0.0639(2) 0.1513(2) 0.0681(2)
C5 C 0.0364(2) 0.1958(2) -0.0190(2)
C6 C 0.1994(2) 0.1722(2) 0.0154(2)
C7 C 0.4479(2) 0.0942(2) 0.1705(2)
C8 C 0.5259(2) 0.1937(2) 0.2821(2)
H1 H -0.180(3) 0.078(2) 0.277(3)
H2 H -0.268(3) 0.230(3) -0.047(3)
H3 H 0.177(3) -0.027(2) 0.408(3)
H4 H 0.353(3) 0.032(3) 0.414(3)
H5 H 0.296(3) -0.096(3) 0.331(3)
H6 H -0.012(2) 0.240(2) -0.103(2)
H7 H 0.273(2) 0.203(2) -0.047(2)
H8 H 0.479(2) 0.007(2) 0.205(2)
H9 H 0.489(2) 0.108(2) 0.081(2)
loop_
_geom_bond_atom_site_label_1
_geom_bond_atom_site_label_2
_geom_bond_site_symmetry_1
_geom_bond_site_symmetry_2
O1 C3 1_555 1_555
O2 C4 1_555 1_555
O3 C8 1_555 1_555
O4 C8 1_555 1_555
N1 C2 1_555 1_555
C1 C2 1_555 1_555
C2 C3 1_555 1_555
C3 C4 1_555 1_555
C4 C5 1_555 1_555
C5 C6 1_555 1_555
C6 N1 1_555 1_555
C7 N1 1_555 1_555
C8 C7 1_555 1_555
H1 O1 1_555 1_555
H2 O2 1_555 1_555
H3 C1 1_555 1_555
H4 C1 1_555 1_555
H5 C1 1_555 1_555
H6 C5 1_555 1_555
H7 C6 1_555 1_555
H8 C7 1_555 1_555
H9 C7 1_555 1_555

#END
