
#######################################################################
#
#                 Cambridge Crystallographic Data Centre
#                                CCDC 
#
#######################################################################
#
# If this CIF has been generated from an entry in the Cambridge 
# Structural Database, then it will include bibliographic, chemical, 
# crystal, experimental, refinement or atomic coordinate data resulting 
# from the CCDC's data processing and validation procedures.
#
#######################################################################

data_KUNVIY
_chemical_formula_moiety         'C13 H13 N1 O3'
_chemical_name_systematic        
3-Hydroxy-1-(p-methoxyphenyl)-2-methyl-4-pyridone
_symmetry_cell_setting           monoclinic
_symmetry_space_group_name_H-M   'C 2/c'
_symmetry_Int_Tables_number      15
_space_group_name_Hall           '-C 2yn'
loop_
_symmetry_equiv_pos_site_id
_symmetry_equiv_pos_as_xyz
1 x,y,z
2 1/2+x,1/2+y,z
3 -x,y,1/2-z
4 1/2-x,1/2+y,1/2-z
5 -x,-y,-z
6 1/2-x,1/2-y,-z
7 x,-y,1/2+z
8 1/2+x,1/2-y,1/2+z
_cell_length_a                   10.8435(9)
_cell_length_b                   16.680(2)
_cell_length_c                   13.5665(6)
_cell_angle_alpha                90
_cell_angle_beta                 109.450(4)
_cell_angle_gamma                90
_cell_volume                     2313.74
_exptl_crystal_colour            white
_chemical_melting_point          249deg.C
_cell_formula_units_Z            8
loop_
_atom_site_label
_atom_site_type_symbol
_atom_site_fract_x
_atom_site_fract_y
_atom_site_fract_z
O1 O -0.0381(1) 0.09674(8) -0.10482(9)
O2 O 0.1571(1) 0.11469(7) -0.19037(8)
O3 O 0.3761(1) 0.15245(9) 0.55646(9)
N1 N 0.2409(1) 0.13542(8) 0.1235(1)
C1 C 0.0102(2) 0.1114(2) 0.1103(1)
C2 C 0.1139(1) 0.1193(1) 0.0610(1)
C3 C 0.0867(1) 0.1132(1) -0.0442(1)
C4 C 0.1842(2) 0.1232(1) -0.0937(1)
C5 C 0.3104(2) 0.1434(1) -0.0241(1)
C6 C 0.3351(2) 0.1480(1) 0.0801(1)
C7 C 0.2766(1) 0.1381(1) 0.2365(1)
C8 C 0.3022(2) 0.2111(1) 0.2872(1)
C9 C 0.3360(2) 0.2133(1) 0.3946(1)
C10 C 0.3436(2) 0.1434(1) 0.4510(1)
C11 C 0.3197(2) 0.0707(1) 0.3999(1)
C12 C 0.2855(2) 0.0679(1) 0.2922(1)
C13 C 0.3643(3) 0.0845(2) 0.6161(2)
H1 H -0.052(2) 0.100(1) -0.175(2)
H2 H 0.026(3) 0.069(2) 0.157(2)
H3 H 0.002(3) 0.168(2) 0.148(2)
H4 H -0.073(3) 0.109(2) 0.058(2)
H5 H 0.377(2) 0.152(1) -0.053(1)
H6 H 0.418(2) 0.160(1) 0.130(1)
H7 H 0.294(2) 0.259(1) 0.245(1)
H8 H 0.353(2) 0.262(1) 0.431(1)
H9 H 0.327(2) 0.023(1) 0.437(1)
H10 H 0.263(2) 0.016(1) 0.256(1)
H11 H 0.438(3) 0.048(2) 0.618(2)
H12 H 0.271(3) 0.061(2) 0.586(2)
H13 H 0.377(3) 0.106(1) 0.685(2)
loop_
_geom_bond_atom_site_label_1
_geom_bond_atom_site_label_2
_geom_bond_site_symmetry_1
_geom_bond_site_symmetry_2
O1 C3 1_555 1_555
O2 C4 1_555 1_555
O3 C10 1_555 1_555
N1 C2 1_555 1_555
C1 C2 1_555 1_555
C2 C3 1_555 1_555
C3 C4 1_555 1_555
C4 C5 1_555 1_555
C5 C6 1_555 1_555
C6 N1 1_555 1_555
C7 N1 1_555 1_555
C8 C7 1_555 1_555
C9 C8 1_555 1_555
C10 C9 1_555 1_555
C11 C10 1_555 1_555
C12 C7 1_555 1_555
C13 O3 1_555 1_555
H1 O1 1_555 1_555
H2 C1 1_555 1_555
H3 C1 1_555 1_555
H4 C1 1_555 1_555
H5 C5 1_555 1_555
H6 C6 1_555 1_555
H7 C8 1_555 1_555
H8 C9 1_555 1_555
H9 C11 1_555 1_555
H10 C12 1_555 1_555
H11 C13 1_555 1_555
H12 C13 1_555 1_555
H13 C13 1_555 1_555
C11 C12 1_555 1_555

#END
