
#######################################################################
#
#                 Cambridge Crystallographic Data Centre
#                                CCDC 
#
#######################################################################
#
# If this CIF has been generated from an entry in the Cambridge 
# Structural Database, then it will include bibliographic, chemical, 
# crystal, experimental, refinement or atomic coordinate data resulting 
# from the CCDC's data processing and validation procedures.
#
#######################################################################

data_KUQTUN
_chemical_formula_moiety         'C27 H26 N2 O3'
_chemical_name_systematic        
'Methyl 3-(morpholin-4-yl(phenyl)methyl)-2-phenylindolizine-1-carboxylate'
_symmetry_cell_setting           triclinic
_symmetry_space_group_name_H-M   'P -1'
_symmetry_Int_Tables_number      2
_space_group_name_Hall           '-P 1'
loop_
_symmetry_equiv_pos_site_id
_symmetry_equiv_pos_as_xyz
1 x,y,z
2 -x,-y,-z
_cell_length_a                   10.2728(12)
_cell_length_b                   10.8678(13)
_cell_length_c                   11.3970(13)
_cell_angle_alpha                110.392(5)
_cell_angle_beta                 108.076(5)
_cell_angle_gamma                91.105(5)
_cell_volume                     1122.14
_exptl_crystal_colour            colorless
_exptl_crystal_description       block
_cell_formula_units_Z            2
loop_
_atom_site_label
_atom_site_type_symbol
_atom_site_fract_x
_atom_site_fract_y
_atom_site_fract_z
O1 O 0.22359(15) 0.27387(15) -0.01887(15)
O2 O 0.32454(14) 0.47705(14) 0.12313(14)
O3 O 0.83247(17) 0.19644(17) 0.74172(14)
N1 N 0.54635(13) 0.14983(13) 0.22946(13)
N2 N 0.78484(13) 0.22385(14) 0.49275(13)
C1 C 0.42846(16) 0.29708(17) 0.15830(16)
C2 C 0.55322(16) 0.36682(17) 0.26593(16)
C3 C 0.62435(16) 0.27472(16) 0.30693(16)
C4 C 0.57161(18) 0.02769(18) 0.23538(18)
H1 H 0.6517 0.0207 0.2977
C5 C 0.4803(2) -0.08162(19) 0.1510(2)
H2 H 0.4981 -0.1638 0.1553
C6 C 0.35838(19) -0.0725(2) 0.05651(19)
H3 H 0.2962 -0.1485 -0.0018
C7 C 0.33175(18) 0.04698(19) 0.05060(18)
H4 H 0.2508 0.0529 -0.0115
C8 C 0.42591(16) 0.16293(18) 0.13802(16)
C9 C 0.31677(18) 0.3449(2) 0.07860(18)
C10 C 0.2170(2) 0.5289(3) 0.0451(2)
H5 H 0.2098 0.4902 -0.0467
H6 H 0.2395 0.6235 0.0762
H7 H 0.1304 0.5075 0.0541
C11 C 0.60635(16) 0.51038(17) 0.32034(18)
C12 C 0.6335(2) 0.5705(2) 0.2397(2)
H8 H 0.6125 0.5211 0.1495
C13 C 0.6909(2) 0.7020(3) 0.2899(3)
H9 H 0.7100 0.7396 0.2342
C14 C 0.7193(2) 0.7762(2) 0.4207(4)
H10 H 0.7570 0.8651 0.4542
C15 C 0.6925(2) 0.7208(2) 0.5036(3)
H11 H 0.7118 0.7724 0.5930
C16 C 0.63634(18) 0.58706(19) 0.4543(2)
H12 H 0.6192 0.5496 0.5109
C17 C 0.77070(16) 0.29452(17) 0.40126(16)
H13 H 0.7960 0.3895 0.4557
C18 C 0.86919(15) 0.25709(17) 0.32219(16)
C19 C 0.9144(2) 0.3502(2) 0.2802(2)
H14 H 0.8892 0.4348 0.3056
C20 C 0.9960(2) 0.3186(2) 0.2013(3)
H15 H 1.0256 0.3819 0.1738
C21 C 1.0340(2) 0.1940(2) 0.1628(2)
H16 H 1.0872 0.1723 0.1076
C22 C 0.99307(18) 0.1019(2) 0.20598(19)
H17 H 1.0211 0.0185 0.1825
C23 C 0.91025(17) 0.13292(17) 0.28435(17)
H18 H 0.8817 0.0694 0.3121
C24 C 0.92163(18) 0.26171(19) 0.59591(17)
H19 H 0.9342 0.3552 0.6505
H20 H 0.9927 0.2471 0.5549
C25 C 0.9348(2) 0.1809(2) 0.6810(2)
H21 H 0.9276 0.0880 0.6266
H22 H 1.0255 0.2071 0.7494
C26 C 0.6983(2) 0.1671(3) 0.6447(2)
H23 H 0.6302 0.1844 0.6891
H24 H 0.6808 0.0736 0.5890
C27 C 0.6816(2) 0.2475(2) 0.55846(19)
H25 H 0.5896 0.2228 0.4923
H26 H 0.6927 0.3410 0.6125
loop_
_geom_bond_atom_site_label_1
_geom_bond_atom_site_label_2
_geom_bond_site_symmetry_1
_geom_bond_site_symmetry_2
O1 C9 1_555 1_555
O2 C9 1_555 1_555
O3 C25 1_555 1_555
N1 C3 1_555 1_555
N2 C17 1_555 1_555
C1 C2 1_555 1_555
C2 C3 1_555 1_555
C3 C17 1_555 1_555
C4 N1 1_555 1_555
H1 C4 1_555 1_555
C5 C4 1_555 1_555
H2 C5 1_555 1_555
C6 C5 1_555 1_555
H3 C6 1_555 1_555
C7 C6 1_555 1_555
H4 C7 1_555 1_555
C8 N1 1_555 1_555
C9 C1 1_555 1_555
C10 O2 1_555 1_555
H5 C10 1_555 1_555
H6 C10 1_555 1_555
H7 C10 1_555 1_555
C11 C2 1_555 1_555
C12 C11 1_555 1_555
H8 C12 1_555 1_555
C13 C12 1_555 1_555
H9 C13 1_555 1_555
C14 C13 1_555 1_555
H10 C14 1_555 1_555
C15 C14 1_555 1_555
H11 C15 1_555 1_555
C16 C11 1_555 1_555
H12 C16 1_555 1_555
C17 H13 1_555 1_555
C18 C17 1_555 1_555
C19 C18 1_555 1_555
H14 C19 1_555 1_555
C20 C19 1_555 1_555
H15 C20 1_555 1_555
C21 C20 1_555 1_555
H16 C21 1_555 1_555
C22 C21 1_555 1_555
H17 C22 1_555 1_555
C23 C18 1_555 1_555
H18 C23 1_555 1_555
C24 N2 1_555 1_555
H19 C24 1_555 1_555
H20 C24 1_555 1_555
C25 C24 1_555 1_555
H21 C25 1_555 1_555
H22 C25 1_555 1_555
C26 O3 1_555 1_555
H23 C26 1_555 1_555
H24 C26 1_555 1_555
C27 N2 1_555 1_555
H25 C27 1_555 1_555
H26 C27 1_555 1_555
C1 C8 1_555 1_555
C7 C8 1_555 1_555
C15 C16 1_555 1_555
C22 C23 1_555 1_555
C26 C27 1_555 1_555

#END
