
#######################################################################
#
#                 Cambridge Crystallographic Data Centre
#                                CCDC 
#
#######################################################################
#
# If this CIF has been generated from an entry in the Cambridge 
# Structural Database, then it will include bibliographic, chemical, 
# crystal, experimental, refinement or atomic coordinate data resulting 
# from the CCDC's data processing and validation procedures.
#
#######################################################################

data_KUQVID
_chemical_formula_moiety         'C38 H28 N10 O7,2(H2 O1),C1 H2 Cl2'
_chemical_name_systematic        
'Methyl 6-(((6-(((6-(((6-(((6-(benzoylamino)pyridin-2-yl)carbonyl)amino)pyridin-2-yl)carbonyl)amino)pyridin-2-yl)carbonyl)amino)pyridin-2-yl)carbonyl)amino)pyridine-2-carboxylate dichloromethane solvate dihydrate'
_symmetry_cell_setting           monoclinic
_symmetry_space_group_name_H-M   'P 21/c'
_symmetry_Int_Tables_number      14
_space_group_name_Hall           '-P 2ybc'
loop_
_symmetry_equiv_pos_site_id
_symmetry_equiv_pos_as_xyz
1 x,y,z
2 -x,1/2+y,1/2-z
3 -x,-y,-z
4 x,1/2-y,1/2+z
_cell_length_a                   13.4052(15)
_cell_length_b                   10.3199(12)
_cell_length_c                   28.307(3)
_cell_angle_alpha                90
_cell_angle_beta                 94.870(2)
_cell_angle_gamma                90
_cell_volume                     3901.86
_exptl_crystal_colour            colorless
_exptl_crystal_description       Block
_cell_formula_units_Z            4
loop_
_atom_site_label
_atom_site_type_symbol
_atom_site_fract_x
_atom_site_fract_y
_atom_site_fract_z
C1 C 0.0350(10) 0.1918(10) 0.4814(4)
H1 H 0.0036 0.2441 0.5044
H2 H 0.1067 0.2065 0.4857
Cl1 Cl 0.0097(4) 0.0288(5) 0.49069(18)
Cl2 Cl -0.0093(2) 0.2380(4) 0.42505(12)
O1 O 0.8684(2) 0.5092(3) 0.18904(10)
O2 O 0.6123(2) 0.4126(3) 0.41252(9)
O3 O 0.0910(2) 0.3357(3) 0.29173(12)
O4 O 0.2582(2) 0.2491(4) 0.04481(11)
O5 O 0.8091(2) 0.1836(3) 0.12379(10)
O6 O 0.6217(2) 0.0972(3) 0.34441(10)
O7 O 0.7702(2) 0.1249(3) 0.38490(10)
N1 N 0.7180(2) 0.4867(3) 0.21961(11)
H3 H 0.6527(16) 0.475(4) 0.2136(14)
N2 N 0.6716(2) 0.4597(3) 0.29437(11)
N3 N 0.5153(3) 0.4030(3) 0.34216(11)
H4 H 0.516(3) 0.403(4) 0.3105(7)
N4 N 0.3511(3) 0.3632(3) 0.32024(12)
N5 N 0.2239(3) 0.3175(3) 0.24624(13)
H5 H 0.2902(15) 0.318(5) 0.2476(16)
N6 N 0.2442(2) 0.2858(3) 0.16812(12)
N7 N 0.3776(2) 0.2375(3) 0.10705(11)
H6 H 0.384(3) 0.236(4) 0.1387(7)
N8 N 0.5463(2) 0.2120(3) 0.11619(11)
N9 N 0.6973(2) 0.1777(3) 0.18082(11)
H7 H 0.6321(16) 0.176(4) 0.1839(15)
N10 N 0.7116(2) 0.1475(3) 0.26131(11)
C2 C 0.7244(3) 0.5180(4) 0.13454(14)
C3 C 0.6220(3) 0.5380(4) 0.12573(14)
H8 H 0.5819 0.5436 0.1509
C4 C 0.5797(3) 0.5495(4) 0.08001(15)
H9 H 0.5112 0.5634 0.0744
C5 C 0.6381(4) 0.5406(4) 0.04235(15)
H10 H 0.6089 0.5464 0.0114
C6 C 0.7402(4) 0.5230(4) 0.05072(16)
H11 H 0.7800 0.5186 0.0254
C7 C 0.7831(3) 0.5118(4) 0.09630(14)
H12 H 0.8519 0.5000 0.1017
C8 C 0.7768(3) 0.5042(4) 0.18333(14)
C9 C 0.7483(3) 0.4730(3) 0.26812(13)
C10 C 0.8476(3) 0.4708(4) 0.28728(14)
H13 H 0.9000 0.4791 0.2680
C11 C 0.8658(3) 0.4561(4) 0.33529(15)
H14 H 0.9314 0.4556 0.3490
C12 C 0.7868(3) 0.4420(4) 0.36369(14)
H15 H 0.7978 0.4322 0.3964
C13 C 0.6913(3) 0.4433(4) 0.34126(13)
C14 C 0.6030(3) 0.4185(4) 0.36931(13)
C15 C 0.4195(3) 0.3822(4) 0.35624(14)
C16 C 0.3955(3) 0.3851(4) 0.40330(15)
H16 H 0.4447 0.3989 0.4280
C17 C 0.2978(4) 0.3671(4) 0.41200(15)
H17 H 0.2801 0.3669 0.4431
C18 C 0.2255(4) 0.3491(4) 0.37519(16)
H18 H 0.1586 0.3381 0.3807
C19 C 0.2559(3) 0.3481(4) 0.32968(15)
C20 C 0.1805(3) 0.3331(4) 0.28796(15)
C21 C 0.1790(3) 0.3053(4) 0.20058(15)
C22 C 0.0761(3) 0.3164(4) 0.18887(16)
H19 H 0.0323 0.3301 0.2122
C23 C 0.0415(3) 0.3065(4) 0.14211(18)
H20 H -0.0267 0.3146 0.1333
C24 C 0.1076(3) 0.2845(5) 0.10791(17)
H21 H 0.0849 0.2761 0.0761
C25 C 0.2080(3) 0.2754(4) 0.12267(15)
C26 C 0.2829(3) 0.2525(4) 0.08701(15)
C27 C 0.4659(3) 0.2189(4) 0.08520(14)
C28 C 0.4711(3) 0.2090(4) 0.03657(14)
H22 H 0.4135 0.2114 0.0158
C29 C 0.5644(3) 0.1955(4) 0.02000(14)
H23 H 0.5702 0.1880 -0.0124
C30 C 0.6495(3) 0.1931(4) 0.05150(14)
H24 H 0.7132 0.1878 0.0409
C31 C 0.6357(3) 0.1989(4) 0.09929(13)
C32 C 0.7235(3) 0.1872(4) 0.13527(13)
C33 C 0.7601(3) 0.1586(3) 0.22220(13)
C34 C 0.8642(3) 0.1522(4) 0.22255(14)
H25 H 0.8955 0.1583 0.1945
C35 C 0.9190(3) 0.1368(4) 0.26523(14)
H26 H 0.9885 0.1327 0.2665
C36 C 0.8709(3) 0.1271(4) 0.30646(14)
H27 H 0.9069 0.1176 0.3358
C37 C 0.7678(3) 0.1322(4) 0.30266(13)
C38 C 0.7105(3) 0.1163(4) 0.34546(13)
C39 C 0.7241(4) 0.1121(5) 0.42884(15)
H28 H 0.6753 0.1795 0.4310
H29 H 0.7743 0.1190 0.4550
H30 H 0.6918 0.0292 0.4298
O8 O 0.5004(2) 0.9305(3) 0.28352(10)
H31 H 0.546(2) 0.965(4) 0.3004(14)
H32 H 0.513(3) 0.8532(15) 0.2803(16)
O9 O 0.4992(2) 0.1740(3) 0.23316(11)
H33 H 0.463(3) 0.110(3) 0.2347(17)
H34 H 0.553(2) 0.168(5) 0.2492(15)
C40? C -0.0520(17) 0.409(2) 0.5203(6)
H35? H -0.0785 0.3631 0.5463
H36? H 0.0059 0.4587 0.5327
Cl3? Cl -0.0175(7) 0.2986(8) 0.4773(4)
Cl4? Cl -0.1430(4) 0.5124(6) 0.4934(2)
C41? C -0.0896(12) 0.497(3) 0.4970(9)
H37? H -0.0525 0.4651 0.4714
H38? H -0.0639 0.5809 0.5071
Cl5? Cl -0.0841(7) 0.3872(13) 0.5442(3)
Cl6? Cl -0.2199(10) 0.5031(13) 0.4799(4)
loop_
_geom_bond_atom_site_label_1
_geom_bond_atom_site_label_2
_geom_bond_site_symmetry_1
_geom_bond_site_symmetry_2
C1 H1 1_555 1_555
H2 C1 1_555 1_555
Cl1 C1 1_555 1_555
Cl2 C1 1_555 1_555
O1 C8 1_555 1_555
O2 C14 1_555 1_555
O3 C20 1_555 1_555
O4 C26 1_555 1_555
O5 C32 1_555 1_555
O6 C38 1_555 1_555
O7 C38 1_555 1_555
N1 H3 1_555 1_555
N2 C9 1_555 1_555
N3 H4 1_555 1_555
N4 C15 1_555 1_555
N5 H5 1_555 1_555
N6 C21 1_555 1_555
N7 H6 1_555 1_555
N8 C27 1_555 1_555
N9 H7 1_555 1_555
N10 C33 1_555 1_555
C2 C3 1_555 1_555
C3 H8 1_555 1_555
C4 C3 1_555 1_555
H9 C4 1_555 1_555
C5 C4 1_555 1_555
H10 C5 1_555 1_555
C6 C5 1_555 1_555
H11 C6 1_555 1_555
C7 C2 1_555 1_555
H12 C7 1_555 1_555
C8 N1 1_555 1_555
C9 N1 1_555 1_555
C10 C9 1_555 1_555
H13 C10 1_555 1_555
C11 C10 1_555 1_555
H14 C11 1_555 1_555
C12 C11 1_555 1_555
H15 C12 1_555 1_555
C13 N2 1_555 1_555
C14 N3 1_555 1_555
C15 N3 1_555 1_555
C16 C15 1_555 1_555
H16 C16 1_555 1_555
C17 C16 1_555 1_555
H17 C17 1_555 1_555
C18 C17 1_555 1_555
H18 C18 1_555 1_555
C19 N4 1_555 1_555
C20 N5 1_555 1_555
C21 N5 1_555 1_555
C22 C21 1_555 1_555
H19 C22 1_555 1_555
C23 C22 1_555 1_555
H20 C23 1_555 1_555
C24 C23 1_555 1_555
H21 C24 1_555 1_555
C25 N6 1_555 1_555
C26 N7 1_555 1_555
C27 N7 1_555 1_555
C28 C27 1_555 1_555
H22 C28 1_555 1_555
C29 C28 1_555 1_555
H23 C29 1_555 1_555
C30 C29 1_555 1_555
H24 C30 1_555 1_555
C31 N8 1_555 1_555
C32 N9 1_555 1_555
C33 N9 1_555 1_555
C34 C33 1_555 1_555
H25 C34 1_555 1_555
C35 C34 1_555 1_555
H26 C35 1_555 1_555
C36 C35 1_555 1_555
H27 C36 1_555 1_555
C37 N10 1_555 1_555
C38 C37 1_555 1_555
C39 O7 1_555 1_555
H28 C39 1_555 1_555
H29 C39 1_555 1_555
H30 C39 1_555 1_555
O8 H31 1_555 1_555
H32 O8 1_555 1_555
O9 H33 1_555 1_555
H34 O9 1_555 1_555
C2 C8 1_555 1_555
C6 C7 1_555 1_555
C12 C13 1_555 1_555
C13 C14 1_555 1_555
C18 C19 1_555 1_555
C19 C20 1_555 1_555
C24 C25 1_555 1_555
C25 C26 1_555 1_555
C30 C31 1_555 1_555
C31 C32 1_555 1_555
C36 C37 1_555 1_555

#END
