
#######################################################################
#
#                 Cambridge Crystallographic Data Centre
#                                CCDC 
#
#######################################################################
#
# If this CIF has been generated from an entry in the Cambridge 
# Structural Database, then it will include bibliographic, chemical, 
# crystal, experimental, refinement or atomic coordinate data resulting 
# from the CCDC's data processing and validation procedures.
#
#######################################################################

data_KURKIT
_chemical_name_common            
26,28-dihydroxy-25,27-dipropoxy-5,17-diformyl-11-methyl-2,8,14,20-tetrathiacalix(4)arene
_chemical_formula_moiety         'C33 H30 O6 S4'
_chemical_name_systematic        
26,28-dihydroxy-11-methyl-25,27-dipropoxy-2,8,14,20-tetrathiapentacyclo[19.3.1.1^3,7^.1^9,13^.1^15,19^]octacosa-1(25),3(28),4,6,9(27),10,12,15(26),16,18,21,23-dodecaene-5,17-dicarbaldehyde
_symmetry_cell_setting           rhombohedral
_symmetry_space_group_name_H-M   'R -3'
_symmetry_Int_Tables_number      148
_space_group_name_Hall           '-R 3'
loop_
_symmetry_equiv_pos_site_id
_symmetry_equiv_pos_as_xyz
1 x,y,z
2 -y,x-y,z
3 -x+y,-x,z
4 2/3+x,1/3+y,1/3+z
5 2/3-y,1/3+x-y,1/3+z
6 2/3-x+y,1/3-x,1/3+z
7 1/3+x,2/3+y,2/3+z
8 1/3-y,2/3+x-y,2/3+z
9 1/3-x+y,2/3-x,2/3+z
10 -x,-y,-z
11 y,-x+y,-z
12 x-y,x,-z
13 1/3-x,2/3-y,2/3-z
14 1/3+y,2/3-x+y,2/3-z
15 1/3+x-y,2/3+x,2/3-z
16 2/3-x,1/3-y,1/3-z
17 2/3+y,1/3-x+y,1/3-z
18 2/3+x-y,1/3+x,1/3-z
_cell_length_a                   37.498(5)
_cell_length_b                   37.498(5)
_cell_length_c                   11.9203(15)
_cell_angle_alpha                90
_cell_angle_beta                 90
_cell_angle_gamma                120
_cell_volume                     14515.6
_exptl_crystal_colour            colorless
_exptl_crystal_description       block
_cell_formula_units_Z            18
loop_
_atom_site_label
_atom_site_type_symbol
_atom_site_fract_x
_atom_site_fract_y
_atom_site_fract_z
C1 C 0.55905(14) 0.10449(16) 0.3657(3)
C2 C 0.53288(14) 0.07526(15) 0.4404(3)
H1 H 0.5436 0.0711 0.5063
C3 C 0.49102(14) 0.05180(14) 0.4204(3)
C4 C 0.47505(14) 0.05922(15) 0.3218(3)
H2 H 0.4469 0.0440 0.3078
C5 C 0.50021(14) 0.08840(15) 0.2465(3)
C6 C 0.54282(15) 0.11160(16) 0.2662(3)
C7 C 0.46418(18) 0.02056(17) 0.5002(4)
H3 H 0.4757 0.0187 0.5674
C8 C 0.48937(14) 0.07596(17) 0.0180(3)
C9 C 0.46519(15) 0.03440(19) 0.0041(4)
H4 H 0.4439 0.0190 0.0540
C10 C 0.47264(16) 0.01541(17) -0.0851(5)
C11 C 0.50378(16) 0.03748(19) -0.1602(4)
H5 H 0.5081 0.0241 -0.2199
C12 C 0.52835(14) 0.07904(17) -0.1474(3)
C13 C 0.52122(13) 0.09869(15) -0.0578(3)
C14 C 0.60659(13) 0.09599(16) -0.2064(3)
C15 C 0.61575(14) 0.07159(17) -0.2730(4)
H6 H 0.5996 0.0588 -0.3357
C16 C 0.64867(15) 0.06570(16) -0.2481(4)
C17 C 0.67285(14) 0.08552(16) -0.1550(4)
H7 H 0.6949 0.0817 -0.1374
C18 C 0.66491(12) 0.11063(15) -0.0883(3)
C19 C 0.63147(12) 0.11597(15) -0.1133(3)
C20 C 0.6578(2) 0.0401(2) -0.3215(6)
H8 H 0.6408 0.0285 -0.3834
C21 C 0.66990(12) 0.11386(17) 0.1427(4)
C22 C 0.66433(14) 0.07587(18) 0.1709(4)
H9 H 0.6747 0.0632 0.1244
C23 C 0.64377(16) 0.05658(19) 0.2665(5)
H10 H 0.6399 0.0308 0.2848
C24 C 0.62863(15) 0.0753(2) 0.3361(4)
H11 H 0.6153 0.0624 0.4023
C25 C 0.63294(13) 0.11274(18) 0.3087(4)
C26 C 0.65407(12) 0.13219(16) 0.2118(3)
C27 C 0.6838(13) 0.2044(6) 0.237(4)
H12 H 0.7113 0.2079 0.2341
H13 H 0.6758 0.2020 0.3157
C28 C 0.684(2) 0.2405(18) 0.186(7)
H14 H 0.6950 0.2431 0.1109
H15 H 0.6552 0.2328 0.1769
C29 C 0.7026(10) 0.2778(7) 0.229(3)
H16 H 0.7311 0.2867 0.2413
H17 H 0.6899 0.2776 0.2993
H18 H 0.7003 0.2965 0.1783
O1 O 0.56775(10) 0.14010(12) 0.1943(3)
H19 H 0.5914 0.1514 0.2186
O2 O 0.42930(19) -0.00257(18) 0.4859(5)
O3 O 0.54738(10) 0.13949(11) -0.0393(3)
O4 O 0.62416(10) 0.14093(11) -0.0499(3)
H20 H 0.6440 0.1545 -0.0089
O5 O 0.68542(19) 0.0326(2) -0.3096(6)
O6 O 0.65566(10) 0.16792(12) 0.1785(3)
S1 S 0.47828(4) 0.09994(5) 0.13009(10)
S2 S 0.56739(4) 0.10667(5) -0.24838(9)
S3 S 0.69953(3) 0.13949(5) 0.02125(10)
S4 S 0.61185(4) 0.13524(6) 0.39891(11)
C30 C 0.5322(6) 0.1663(4) -0.0716(14)
H21 H 0.5042 0.1546 -0.0449
H22 H 0.5315 0.1671 -0.1528
C31 C 0.5566(10) 0.2095(5) -0.029(3)
H23 H 0.5399 0.2225 -0.0343
H24 H 0.5632 0.2090 0.0492
C32 C 0.5954(10) 0.2346(9) -0.093(3)
H25 H 0.6055 0.2171 -0.1198
H26 H 0.6157 0.2554 -0.0448
H27 H 0.5902 0.2475 -0.1556
C33 C 0.4482(3) -0.0280(3) -0.1023(10)
H28? H 0.4364 0.0091 0.4833
H29? H 0.4560 -0.0140 -0.0943
C34? C 0.5425(8) 0.1683(5) -0.1069(16)
H30? H 0.5507 0.1674 -0.1835
H31? H 0.5138 0.1613 -0.1074
C35? C 0.5670(14) 0.2077(7) -0.062(4)
H32? H 0.5935 0.2162 -0.0966
H33? H 0.5566 0.2234 -0.1013
C36? C 0.5767(11) 0.2247(7) 0.027(2)
H34? H 0.6039 0.2303 0.0459
H35? H 0.5576 0.2074 0.0831
H36? H 0.5765 0.2502 0.0228
H37? H 0.6814 0.0367 -0.3055
H38? H 0.5543 0.1411 0.1413
H39? H 0.6038 0.1412 -0.0735
O7? O 0.4704(4) 0.0066(4) 0.5826(8)
O8? O 0.6362(8) 0.0241(10) -0.4007(19)
C37? C 0.6927(5) 0.2053(3) 0.204(2)
H40? H 0.7164 0.2034 0.1797
H41? H 0.6948 0.2100 0.2845
C38? C 0.6918(11) 0.2408(7) 0.144(3)
H42? H 0.7188 0.2653 0.1459
H43? H 0.6838 0.2336 0.0661
C39? C 0.6612(7) 0.2482(7) 0.203(3)
H44? H 0.6346 0.2238 0.2007
H45? H 0.6598 0.2705 0.1677
H46? H 0.6694 0.2553 0.2802
H47? H 0.4555 -0.0380 -0.1675
H48? H 0.4273 -0.0402 -0.0456
O9? O 0.4462(5) -0.0507(5) -0.1589(15)
O10? O 0.4219(3) -0.0523(4) -0.0525(12)
C40? C 0.6390(7) 0.0182(5) 0.2976(18)
H49? H 0.6452 0.0028 0.2483
O11? O 0.6266(9) 0.0062(8) 0.390(2)
loop_
_geom_bond_atom_site_label_1
_geom_bond_atom_site_label_2
_geom_bond_site_symmetry_1
_geom_bond_site_symmetry_2
C1 C2 1_555 1_555
C2 H1 1_555 1_555
C3 C2 1_555 1_555
C4 C3 1_555 1_555
H2 C4 1_555 1_555
C5 C4 1_555 1_555
C6 C1 1_555 1_555
C7 C3 1_555 1_555
H3 C7 1_555 1_555
C8 C9 1_555 1_555
C9 H4 1_555 1_555
C10 C9 1_555 1_555
C11 C10 1_555 1_555
H5 C11 1_555 1_555
C12 C11 1_555 1_555
C13 C8 1_555 1_555
C14 C15 1_555 1_555
C15 H6 1_555 1_555
C16 C15 1_555 1_555
C17 C16 1_555 1_555
H7 C17 1_555 1_555
C18 C17 1_555 1_555
C19 C14 1_555 1_555
C20 C16 1_555 1_555
H8 C20 1_555 1_555
C21 C22 1_555 1_555
C22 H9 1_555 1_555
C23 C22 1_555 1_555
H10 C23 1_555 1_555
C24 C23 1_555 1_555
H11 C24 1_555 1_555
C25 C24 1_555 1_555
C26 C21 1_555 1_555
C27 H12 1_555 1_555
H13 C27 1_555 1_555
C28 C27 1_555 1_555
H14 C28 1_555 1_555
H15 C28 1_555 1_555
C29 C28 1_555 1_555
H16 C29 1_555 1_555
H17 C29 1_555 1_555
H18 C29 1_555 1_555
O1 C6 1_555 1_555
H19 O1 1_555 1_555
O2 C7 1_555 1_555
O3 C13 1_555 1_555
O4 C19 1_555 1_555
H20 O4 1_555 1_555
O5 C20 1_555 1_555
O6 C26 1_555 1_555
S1 C5 1_555 1_555
S2 C12 1_555 1_555
S3 C18 1_555 1_555
S4 C1 1_555 1_555
C30 O3 1_555 1_555
H21 C30 1_555 1_555
H22 C30 1_555 1_555
C31 C30 1_555 1_555
H23 C31 1_555 1_555
H24 C31 1_555 1_555
C32 C31 1_555 1_555
H25 C32 1_555 1_555
H26 C32 1_555 1_555
H27 C32 1_555 1_555
C33 C10 1_555 1_555
C5 C6 1_555 1_555
C8 S1 1_555 1_555
C12 C13 1_555 1_555
C14 S2 1_555 1_555
C18 C19 1_555 1_555
C21 S3 1_555 1_555
C25 C26 1_555 1_555
C25 S4 1_555 1_555
C27 O6 1_555 1_555

#END
