
#######################################################################
#
#                 Cambridge Crystallographic Data Centre
#                                CCDC 
#
#######################################################################
#
# If this CIF has been generated from an entry in the Cambridge 
# Structural Database, then it will include bibliographic, chemical, 
# crystal, experimental, refinement or atomic coordinate data resulting 
# from the CCDC's data processing and validation procedures.
#
#######################################################################

data_KURYON
_chemical_formula_moiety         'C33 H27 F5 N4 O5,C2 H3 N1'
_chemical_name_systematic        
'(E)-1-cyclopropyl-6-fluoro-4-oxo-7-(4-(2-phenyl-1-((2,3,5,6-tetrafluoro-4-(methoxycarbonyl)phenyl)imino)ethyl)piperazin-1-yl)-1,4-dihydroquinoline-3-carboxylic acid acetonitrile solvate'
_symmetry_cell_setting           triclinic
_symmetry_space_group_name_H-M   'P -1'
_symmetry_Int_Tables_number      2
_space_group_name_Hall           '-P 1'
loop_
_symmetry_equiv_pos_site_id
_symmetry_equiv_pos_as_xyz
1 x,y,z
2 -x,-y,-z
_cell_length_a                   8.342(2)
_cell_length_b                   9.8757(13)
_cell_length_c                   19.081(3)
_cell_angle_alpha                96.877(8)
_cell_angle_beta                 90.773(15)
_cell_angle_gamma                90.085(12)
_cell_volume                     1560.49
_exptl_crystal_colour            yellow
_exptl_crystal_description       block
_cell_formula_units_Z            2
_exptl_crystal_recrystallization_method acetonitrile
_exptl_crystal_preparation       Luminescent
loop_
_atom_site_label
_atom_site_type_symbol
_atom_site_fract_x
_atom_site_fract_y
_atom_site_fract_z
C1 C 0.1131(3) 0.4123(3) 0.72230(10)
H1 H 0.0643 0.4966 0.7446
H2 H 0.2035 0.3875 0.7515
H3 H 0.0333 0.3388 0.7178
C2 C 0.27956(19) 0.52663(17) 0.65069(8)
C3 C 0.31227(18) 0.55499(15) 0.57696(8)
C4 C 0.42619(18) 0.65260(16) 0.56476(8)
C5 C 0.44400(18) 0.69751(15) 0.49981(8)
C6 C 0.34832(18) 0.65131(15) 0.44126(8)
C7 C 0.24210(18) 0.54691(15) 0.45249(8)
C8 C 0.22473(18) 0.50049(15) 0.51729(8)
C9 C 0.36336(17) 0.81813(15) 0.36346(8)
C10 C 0.30561(18) 0.93450(15) 0.41663(8)
H4 H 0.3142 0.9064 0.4646
H5 H 0.3768 1.0143 0.4150
C11 C 0.13358(19) 0.97662(16) 0.40326(8)
C12 C 0.0102(2) 0.88207(19) 0.40168(9)
H6 H 0.0339 0.7900 0.4074
C13 C -0.1478(2) 0.9207(2) 0.39179(10)
H7 H -0.2314 0.8551 0.3909
C14 C -0.1834(2) 1.0536(2) 0.38331(10)
H8 H -0.2915 1.0798 0.3764
C15 C -0.0617(2) 1.1489(2) 0.38489(11)
H9 H -0.0861 1.2408 0.3790
C16 C 0.0963(2) 1.11067(18) 0.39504(10)
H10 H 0.1794 1.1768 0.3964
C17 C 0.37531(19) 0.97784(15) 0.27166(8)
H11 H 0.3707 1.0515 0.3116
H12 H 0.2693 0.9723 0.2475
C18 C 0.50269(19) 1.01307(15) 0.22004(8)
H13 H 0.4704 1.0962 0.1992
H14 H 0.6059 1.0321 0.2456
C19 C 0.5710(2) 0.77687(16) 0.19512(8)
H15 H 0.6719 0.7945 0.2226
H16 H 0.5901 0.7014 0.1571
C20 C 0.4403(2) 0.73665(16) 0.24288(8)
H17 H 0.3411 0.7145 0.2148
H18 H 0.4735 0.6543 0.2642
C21 C 0.60578(18) 0.92699(15) 0.10353(8)
C22 C 0.61042(19) 0.82613(15) 0.04402(8)
C23 C 0.68920(18) 0.84286(16) -0.01629(8)
H19 H 0.6940 0.7702 -0.0536
C24 C 0.76344(17) 0.96828(15) -0.02308(8)
C25 C 0.84816(18) 0.98671(16) -0.08754(8)
C26 C 0.91517(18) 1.11896(16) -0.08983(8)
C27 C 0.90012(18) 1.21814(16) -0.03357(8)
H20 H 0.9465 1.3050 -0.0370
C28 C 0.82571(19) 1.30889(15) 0.08512(8)
H21 H 0.9062 1.2985 0.1234
C29 C 0.6720(2) 1.37827(16) 0.10871(9)
H22 H 0.6591 1.4070 0.1598
H23 H 0.5721 1.3479 0.0829
C30 C 0.7954(2) 1.45211(17) 0.07014(9)
H24 H 0.7709 1.4670 0.0207
H25 H 0.8578 1.5261 0.0977
C31 C 0.75439(17) 1.07339(15) 0.03333(8)
C32 C 0.67956(18) 1.05053(15) 0.09660(8)
H26 H 0.6796 1.1209 0.1352
C33 C 1.00606(19) 1.15325(17) -0.15186(8)
F1 F 0.11744(11) 0.40013(9) 0.52010(5)
F2 F 0.15213(11) 0.48901(9) 0.39786(4)
F3 F 0.52429(11) 0.70839(10) 0.61711(5)
F4 F 0.56136(11) 0.78891(9) 0.49226(5)
F5 F 0.52828(12) 0.70828(9) 0.04657(5)
N1 N 0.36574(16) 0.69010(13) 0.37460(6)
N2 N 0.40870(15) 0.84810(13) 0.29900(6)
N3 N 0.52317(15) 0.90058(13) 0.16384(6)
N4 N 0.82360(15) 1.19976(13) 0.02614(6)
O1 O 0.16995(18) 0.43315(16) 0.65284(6)
O2 O 0.3398(2) 0.58738(17) 0.70200(7)
O3 O 0.86142(14) 0.89065(11) -0.13760(5)
O4 O 1.02603(14) 1.05157(12) -0.20368(6)
H27 H 0.976(2) 0.980(2) -0.1888(10)
O5 O 1.06001(15) 1.26558(12) -0.15596(6)
C34 C 0.2781(3) 0.3826(2) 0.23632(10)
H28 H 0.3902 0.3541 0.2396
H29 H 0.2076 0.3041 0.2391
H30 H 0.2552 0.4536 0.2753
C35 C 0.2504(2) 0.43616(18) 0.16949(10)
N5 N 0.2302(2) 0.47828(17) 0.11700(9)
loop_
_geom_bond_atom_site_label_1
_geom_bond_atom_site_label_2
_geom_bond_site_symmetry_1
_geom_bond_site_symmetry_2
C1 H1 1_555 1_555
H2 C1 1_555 1_555
H3 C1 1_555 1_555
C2 C3 1_555 1_555
C3 C4 1_555 1_555
C4 C5 1_555 1_555
C5 C6 1_555 1_555
C6 C7 1_555 1_555
C7 C8 1_555 1_555
C8 C3 1_555 1_555
C9 C10 1_555 1_555
C10 H4 1_555 1_555
H5 C10 1_555 1_555
C11 C10 1_555 1_555
C12 C11 1_555 1_555
H6 C12 1_555 1_555
C13 C12 1_555 1_555
H7 C13 1_555 1_555
C14 C13 1_555 1_555
H8 C14 1_555 1_555
C15 C14 1_555 1_555
H9 C15 1_555 1_555
C16 C11 1_555 1_555
H10 C16 1_555 1_555
C17 H11 1_555 1_555
H12 C17 1_555 1_555
C18 C17 1_555 1_555
H13 C18 1_555 1_555
H14 C18 1_555 1_555
C19 H15 1_555 1_555
H16 C19 1_555 1_555
C20 C19 1_555 1_555
H17 C20 1_555 1_555
H18 C20 1_555 1_555
C21 C22 1_555 1_555
C22 C23 1_555 1_555
C23 H19 1_555 1_555
C24 C23 1_555 1_555
C25 C24 1_555 1_555
C26 C25 1_555 1_555
C27 C26 1_555 1_555
H20 C27 1_555 1_555
C28 H21 1_555 1_555
C29 C28 1_555 1_555
H22 C29 1_555 1_555
H23 C29 1_555 1_555
C30 C28 1_555 1_555
H24 C30 1_555 1_555
H25 C30 1_555 1_555
C31 C24 1_555 1_555
C32 C21 1_555 1_555
H26 C32 1_555 1_555
C33 C26 1_555 1_555
F1 C8 1_555 1_555
F2 C7 1_555 1_555
F3 C4 1_555 1_555
F4 C5 1_555 1_555
F5 C22 1_555 1_555
N1 C6 1_555 1_555
N2 C9 1_555 1_555
N3 C18 1_555 1_555
N4 C27 1_555 1_555
O1 C1 1_555 1_555
O2 C2 1_555 1_555
O3 C25 1_555 1_555
O4 C33 1_555 1_555
H27 O4 1_555 1_555
O5 C33 1_555 1_555
C34 H28 1_555 1_555
H29 C34 1_555 1_555
H30 C34 1_555 1_555
C35 C34 1_555 1_555
N5 C35 1_555 1_555
C2 O1 1_555 1_555
C9 N1 1_555 1_555
C15 C16 1_555 1_555
C17 N2 1_555 1_555
C19 N3 1_555 1_555
C20 N2 1_555 1_555
C21 N3 1_555 1_555
C28 N4 1_555 1_555
C29 C30 1_555 1_555
C31 C32 1_555 1_555
C31 N4 1_555 1_555

#END
