
#######################################################################
#
#                 Cambridge Crystallographic Data Centre
#                                CCDC 
#
#######################################################################
#
# If this CIF has been generated from an entry in the Cambridge 
# Structural Database, then it will include bibliographic, chemical, 
# crystal, experimental, refinement or atomic coordinate data resulting 
# from the CCDC's data processing and validation procedures.
#
#######################################################################

data_KUSWEC
_chemical_formula_moiety         'C46 H58 N6 O4,2(C3 H6 O1)'
_chemical_name_systematic        
"diethyl 5,5'-(5,10,10,15,20,20-hexamethyl-5,10,15,20,22,24-hexahydroporphyrin-5,15-diyl)bis(3-ethyl-4-methyl-1H-pyrrole-2-carboxylate) acetone solvate"
_symmetry_cell_setting           triclinic
_symmetry_space_group_name_H-M   'P -1'
_symmetry_Int_Tables_number      2
_space_group_name_Hall           '-P 1'
loop_
_symmetry_equiv_pos_site_id
_symmetry_equiv_pos_as_xyz
1 x,y,z
2 -x,-y,-z
_cell_length_a                   10.2870(13)
_cell_length_b                   11.1500(10)
_cell_length_c                   13.0400(17)
_cell_angle_alpha                111.592(5)
_cell_angle_beta                 92.851(4)
_cell_angle_gamma                113.076(4)
_cell_volume                     1246.13
_cell_formula_units_Z            1
loop_
_atom_site_label
_atom_site_type_symbol
_atom_site_fract_x
_atom_site_fract_y
_atom_site_fract_z
N1 N 0.4922(4) 0.2809(3) 0.4862(3)
H1 H 0.4351 0.3019 0.4507
N2 N 0.3584(4) 0.4826(3) 0.6319(3)
H2 H 0.4536 0.5274 0.6531
C1 C 0.2741(5) 0.5475(4) 0.6205(4)
N3 N 0.4265(4) 0.0858(4) 0.2392(3)
H3 H 0.4102 0.0564 0.2934
C2 C 0.5312(5) 0.2124(4) 0.1438(4)
C3 C 0.6147(5) 0.2684(4) 0.4549(4)
O1 O 0.1766(4) -0.1438(3) 0.1915(3)
C4 C 0.2782(5) 0.3393(5) 0.6067(4)
C5 C 0.6668(5) 0.2958(4) 0.3537(4)
C6 C 0.4734(5) 0.2555(5) 0.5807(4)
C7 C 0.1958(6) -0.1063(5) 0.1043(5)
C8 C 0.3345(5) 0.0661(5) -0.0443(4)
H4 H 0.2749 -0.0387 -0.0882
H5 H 0.4141 0.0977 -0.0822
C9 C 0.5458(5) 0.2061(4) 0.2475(4)
C10 C 0.3974(5) 0.0954(5) 0.0725(4)
C11 C 0.6715(5) 0.2332(5) 0.5290(4)
H6 H 0.7563 0.2183 0.5288
C12 C 0.1360(5) 0.3132(5) 0.5775(4)
H7 H 0.0538 0.2232 0.5551
C13 C 0.7892(5) 0.2474(5) 0.3312(4)
H8 H 0.7511 0.1450 0.3142
H9 H 0.8694 0.3034 0.3984
H10 H 0.8244 0.2632 0.2666
C14 C 0.3420(5) 0.2489(5) 0.6297(4)
C15 C 0.2405(6) 0.1438(5) -0.0440(4)
H11 H 0.1596 0.1102 -0.0089
H12 H 0.2023 0.1233 -0.1220
H13 H 0.2992 0.2476 -0.0008
C16 C 0.1321(5) 0.4424(5) 0.5862(4)
H14 H 0.0478 0.4544 0.5712
C17 C 0.3369(5) 0.0191(5) 0.1332(4)
C18 C 0.5807(6) 0.2226(5) 0.6075(4)
H15 H 0.5929 0.1970 0.6679
C19 C 0.6394(5) 0.3184(5) 0.1076(4)
H16 H 0.7152 0.3966 0.1739
H17 H 0.5896 0.3579 0.0730
H18 H 0.6835 0.2693 0.0524
C20 C 0.3879(7) 0.3030(6) 0.7580(5)
H19 H 0.4609 0.4037 0.7906
H20 H 0.4290 0.2446 0.7745
H21 H 0.3031 0.2955 0.7911
C21 C 0.2255(6) 0.0915(5) 0.5789(5)
H22 H 0.1451 0.0841 0.6173
H23 H 0.2679 0.0307 0.5891
H24 H 0.1893 0.0595 0.4979
C22 C 0.0375(6) -0.2711(6) 0.1711(5)
H25 H -0.0298 -0.2957 0.1017
H26 H -0.0092 -0.2497 0.2357
O2 O 0.1116(4) -0.1687(4) 0.0137(3)
C23 C 0.0706(8) -0.3894(7) 0.1584(7)
H27 H 0.1295 -0.4004 0.1019
H28 H -0.0198 -0.4780 0.1335
H29 H 0.1247 -0.3702 0.2312
N1A N 0.5078(4) 0.7191(3) 0.5138(3)
H1A H 0.5649 0.6981 0.5493
N2A N 0.6416(4) 0.5174(3) 0.3681(3)
H2A H 0.5464 0.4726 0.3469
C1A C 0.7259(5) 0.4525(4) 0.3795(4)
N3A N 0.5735(4) 0.9142(4) 0.7608(3)
H3A H 0.5898 0.9436 0.7066
C2A C 0.4688(5) 0.7876(4) 0.8562(4)
C3A C 0.3853(5) 0.7316(4) 0.5451(4)
O1A O 0.8234(4) 1.1438(3) 0.8085(3)
C4A C 0.7218(5) 0.6607(5) 0.3933(4)
C5A C 0.3332(5) 0.7042(4) 0.6463(4)
C6A C 0.5266(5) 0.7445(5) 0.4193(4)
C7A C 0.8042(6) 1.1063(5) 0.8957(5)
C8A C 0.6655(5) 0.9339(5) 1.0443(4)
H4A H 0.7251 1.0387 1.0882
H5A H 0.5859 0.9023 1.0822
C9A C 0.4542(5) 0.7939(4) 0.7525(4)
C10A C 0.6026(5) 0.9046(5) 0.9275(4)
C11A C 0.3285(5) 0.7668(5) 0.4710(4)
H6A H 0.2437 0.7817 0.4712
C12A C 0.8640(5) 0.6868(5) 0.4225(4)
H7A H 0.9462 0.7768 0.4449
C13A C 0.2108(5) 0.7526(5) 0.6688(4)
H8A H 0.2489 0.8550 0.6858
H9A H 0.1306 0.6966 0.6016
H10A H 0.1756 0.7368 0.7334
C14A C 0.6580(5) 0.7511(5) 0.3703(4)
C15A C 0.7595(6) 0.8562(5) 1.0440(4)
H11A H 0.8404 0.8898 1.0089
H12A H 0.7977 0.8767 1.1220
H13A H 0.7008 0.7524 1.0008
C16A C 0.8679(5) 0.5576(5) 0.4138(4)
H14A H 0.9522 0.5456 0.4288
C17A C 0.6631(5) 0.9809(5) 0.8668(4)
C18A C 0.4193(6) 0.7774(5) 0.3925(4)
H15A H 0.4071 0.8030 0.3321
C19A C 0.3606(5) 0.6816(5) 0.8924(4)
H16A H 0.2848 0.6034 0.8261
H17A H 0.4104 0.6421 0.9270
H18A H 0.3165 0.7307 0.9476
C20A C 0.6121(7) 0.6970(6) 0.2420(5)
H19A H 0.5391 0.5963 0.2094
H20A H 0.5710 0.7554 0.2255
H21A H 0.6969 0.7045 0.2089
C21A C 0.7745(6) 0.9085(5) 0.4211(5)
H22A H 0.8549 0.9159 0.3827
H23A H 0.7321 0.9693 0.4109
H24A H 0.8107 0.9405 0.5021
C22A C 0.9625(6) 1.2711(6) 0.8289(5)
H25A H 1.0298 1.2957 0.8983
H26A H 1.0092 1.2497 0.7643
O2A O 0.8884(4) 1.1687(4) 0.9863(3)
C23A C 0.9294(8) 1.3894(7) 0.8416(7)
H27A H 0.8705 1.4004 0.8981
H28A H 1.0198 1.4780 0.8665
H29A H 0.8753 1.3702 0.7688
O3 O 0.3318(4) 0.3454(3) 0.3396(3)
C24 C 0.2080(5) 0.2989(5) 0.2881(4)
C25 C 0.0928(5) 0.1560(5) 0.2730(5)
H30 H 0.1369 0.1070 0.3008
H31 H 0.0457 0.0971 0.1925
H32 H 0.0204 0.1704 0.3158
C26 C 0.1619(6) 0.3820(5) 0.2409(5)
H33 H 0.1066 0.4231 0.2893
H34 H 0.1009 0.3182 0.1644
H35 H 0.2477 0.4596 0.2377
loop_
_geom_bond_atom_site_label_1
_geom_bond_atom_site_label_2
_geom_bond_site_symmetry_1
_geom_bond_site_symmetry_2
N1 H1 1_555 1_555
N2 H2 1_555 1_555
C1 N2 1_555 1_555
N3 H3 1_555 1_555
C2 C9 1_555 1_555
C3 N1 1_555 1_555
O1 C7 1_555 1_555
C4 N2 1_555 1_555
C5 C3 1_555 1_555
C6 N1 1_555 1_555
C7 C17 1_555 1_555
C8 H4 1_555 1_555
H5 C8 1_555 1_555
C9 N3 1_555 1_555
C10 C2 1_555 1_555
C11 C3 1_555 1_555
H6 C11 1_555 1_555
C12 C4 1_555 1_555
H7 C12 1_555 1_555
C13 C5 1_555 1_555
H8 C13 1_555 1_555
H9 C13 1_555 1_555
H10 C13 1_555 1_555
C14 C4 1_555 1_555
C15 C8 1_555 1_555
H11 C15 1_555 1_555
H12 C15 1_555 1_555
H13 C15 1_555 1_555
C16 C1 1_555 1_555
H14 C16 1_555 1_555
C17 N3 1_555 1_555
C18 C6 1_555 1_555
H15 C18 1_555 1_555
C19 C2 1_555 1_555
H16 C19 1_555 1_555
H17 C19 1_555 1_555
H18 C19 1_555 1_555
C20 C14 1_555 1_555
H19 C20 1_555 1_555
H20 C20 1_555 1_555
H21 C20 1_555 1_555
C21 C14 1_555 1_555
H22 C21 1_555 1_555
H23 C21 1_555 1_555
H24 C21 1_555 1_555
C22 O1 1_555 1_555
H25 C22 1_555 1_555
H26 C22 1_555 1_555
O2 C7 1_555 1_555
C23 C22 1_555 1_555
H27 C23 1_555 1_555
H28 C23 1_555 1_555
H29 C23 1_555 1_555
O3 C24 1_555 1_555
C24 C25 1_555 1_555
C25 H30 1_555 1_555
H31 C25 1_555 1_555
H32 C25 1_555 1_555
C26 C24 1_555 1_555
H33 C26 1_555 1_555
H34 C26 1_555 1_555
H35 C26 1_555 1_555
N1A H1A 1_555 1_555
N2A H2A 1_555 1_555
C1A C5 1_555 1_555
N3A H3A 1_555 1_555
C2A C9A 1_555 1_555
C3A N1A 1_555 1_555
O1A C7A 1_555 1_555
C4A N2A 1_555 1_555
C5A C1 1_555 1_555
C6A N1A 1_555 1_555
C7A C17A 1_555 1_555
C8A H4A 1_555 1_555
H5A C8A 1_555 1_555
C9A N3A 1_555 1_555
C10A C2A 1_555 1_555
C11A C3A 1_555 1_555
H6A C11A 1_555 1_555
C12A C4A 1_555 1_555
H7A C12A 1_555 1_555
C13A C5A 1_555 1_555
H8A C13A 1_555 1_555
H9A C13A 1_555 1_555
H10A C13A 1_555 1_555
C14A C4A 1_555 1_555
C15A C8A 1_555 1_555
H11A C15A 1_555 1_555
H12A C15A 1_555 1_555
H13A C15A 1_555 1_555
C16A C1A 1_555 1_555
H14A C16A 1_555 1_555
C17A N3A 1_555 1_555
C18A C6A 1_555 1_555
H15A C18A 1_555 1_555
C19A C2A 1_555 1_555
H16A C19A 1_555 1_555
H17A C19A 1_555 1_555
H18A C19A 1_555 1_555
C20A C14A 1_555 1_555
H19A C20A 1_555 1_555
H20A C20A 1_555 1_555
H21A C20A 1_555 1_555
C21A C14A 1_555 1_555
H22A C21A 1_555 1_555
H23A C21A 1_555 1_555
H24A C21A 1_555 1_555
C22A O1A 1_555 1_555
H25A C22A 1_555 1_555
H26A C22A 1_555 1_555
O2A C7A 1_555 1_555
C23A C22A 1_555 1_555
H27A C23A 1_555 1_555
H28A C23A 1_555 1_555
H29A C23A 1_555 1_555
C5 C9 1_555 1_555
C6 C14 1_555 1_555
C8 C10 1_555 1_555
C10 C17 1_555 1_555
C11 C18 1_555 1_555
C12 C16 1_555 1_555
N2A C1A 1_555 1_555
C3A C5A 1_555 1_555
C5A C9A 1_555 1_555
C6A C14A 1_555 1_555
C8A C10A 1_555 1_555
C10A C17A 1_555 1_555
C11A C18A 1_555 1_555
C12A C16A 1_555 1_555

#END
