
#######################################################################
#
#                 Cambridge Crystallographic Data Centre
#                                CCDC 
#
#######################################################################
#
# If this CIF has been generated from an entry in the Cambridge 
# Structural Database, then it will include bibliographic, chemical, 
# crystal, experimental, refinement or atomic coordinate data resulting 
# from the CCDC's data processing and validation procedures.
#
#######################################################################

data_KUTWEC
_chemical_formula_moiety         'C9 H9 F1 N2 O1'
_chemical_name_systematic        N'-(2-Fluorobenzylidene)acetohydrazide
_symmetry_cell_setting           monoclinic
_symmetry_space_group_name_H-M   'P 21/c'
_symmetry_Int_Tables_number      14
_space_group_name_Hall           '-P 2ybc'
loop_
_symmetry_equiv_pos_site_id
_symmetry_equiv_pos_as_xyz
1 x,y,z
2 -x,1/2+y,1/2-z
3 -x,-y,-z
4 x,1/2-y,1/2+z
_cell_length_a                   5.3227(11)
_cell_length_b                   8.4603(17)
_cell_length_c                   19.656(4)
_cell_angle_alpha                90
_cell_angle_beta                 93.70(3)
_cell_angle_gamma                90
_cell_volume                     883.297
_exptl_crystal_colour            colorless
_exptl_crystal_description       block
_cell_formula_units_Z            4
_exptl_crystal_recrystallization_method ethanol
loop_
_atom_site_label
_atom_site_type_symbol
_atom_site_fract_x
_atom_site_fract_y
_atom_site_fract_z
N1 N 0.4557(2) 0.26752(14) 0.01843(6)
O1 O 0.04461(18) 0.48232(13) -0.09198(5)
N2 N 0.2546(2) 0.35774(14) -0.00633(6)
H1 H 0.1453 0.3885 0.0212
C1 C 0.6693(3) 0.15209(16) 0.11622(7)
C2 C 0.2245(2) 0.39930(17) -0.07282(7)
C3 C 0.4679(3) 0.24649(16) 0.08270(7)
H2 H 0.3469 0.2919 0.1086
F1 F 0.5354(2) 0.23104(15) 0.22231(5)
C4 C 0.4142(3) 0.3418(2) -0.11987(7)
H3 H 0.3699 0.3789 -0.1652
H4 H 0.4168 0.2284 -0.1197
H5 H 0.5777 0.3812 -0.1049
C5 C 0.8398(3) 0.0646(2) 0.08064(8)
H6 H 0.8267 0.0649 0.0332
C6 C 0.6989(3) 0.1453(2) 0.18648(7)
C7 C 1.0271(3) -0.0222(2) 0.11457(10)
H7 H 1.1397 -0.0794 0.0900
C8 C 0.8824(4) 0.0594(2) 0.22135(9)
H8 H 0.8947 0.0580 0.2688
C9 C 1.0489(3) -0.0250(2) 0.18462(10)
H9 H 1.1760 -0.0839 0.2072
loop_
_geom_bond_atom_site_label_1
_geom_bond_atom_site_label_2
_geom_bond_site_symmetry_1
_geom_bond_site_symmetry_2
N1 N2 1_555 1_555
O1 C2 1_555 1_555
N2 H1 1_555 1_555
C1 C3 1_555 1_555
C2 N2 1_555 1_555
C3 N1 1_555 1_555
H2 C3 1_555 1_555
F1 C6 1_555 1_555
C4 C2 1_555 1_555
H3 C4 1_555 1_555
H4 C4 1_555 1_555
H5 C4 1_555 1_555
C5 C1 1_555 1_555
H6 C5 1_555 1_555
C6 C1 1_555 1_555
C7 C5 1_555 1_555
H7 C7 1_555 1_555
C8 C6 1_555 1_555
H8 C8 1_555 1_555
C9 C7 1_555 1_555
H9 C9 1_555 1_555
C8 C9 1_555 1_555

#END
