
#######################################################################
#
#                 Cambridge Crystallographic Data Centre
#                                CCDC 
#
#######################################################################
#
# If this CIF has been generated from an entry in the Cambridge 
# Structural Database, then it will include bibliographic, chemical, 
# crystal, experimental, refinement or atomic coordinate data resulting 
# from the CCDC's data processing and validation procedures.
#
#######################################################################

data_KUTWIG
_chemical_formula_moiety         'C11 H15 N1 O2'
_chemical_name_systematic        (3S,4S)-1-Benzylpyrrolidine-3,4-diol
_symmetry_cell_setting           monoclinic
_symmetry_space_group_name_H-M   'P 21'
_symmetry_Int_Tables_number      4
_space_group_name_Hall           'P 2yb'
loop_
_symmetry_equiv_pos_site_id
_symmetry_equiv_pos_as_xyz
1 x,y,z
2 -x,1/2+y,-z
_cell_length_a                   6.0244(10)
_cell_length_b                   8.1033(14)
_cell_length_c                   10.3981(18)
_cell_angle_alpha                90
_cell_angle_beta                 96.016(2)
_cell_angle_gamma                90
_cell_volume                     504.814
_exptl_crystal_colour            colorless
_exptl_crystal_description       block
_chemical_melting_point          '371-373 K'
_cell_formula_units_Z            2
_exptl_crystal_recrystallization_method acetone
loop_
_atom_site_label
_atom_site_type_symbol
_atom_site_fract_x
_atom_site_fract_y
_atom_site_fract_z
N1 N 0.5935(2) -0.00443(18) 0.18867(14)
O1 O 0.3213(2) -0.36878(18) 0.06145(13)
H1 H 0.3166 -0.4139 -0.0094
O2 O 0.8566(2) -0.2626(2) 0.03312(13)
H2 H 0.9802 -0.2956 0.0628
C1 C 0.7231(4) 0.3493(3) 0.42248(18)
H3 H 0.6080 0.3348 0.4744
C2 C 0.8766(4) 0.4734(3) 0.4518(2)
H4 H 0.8637 0.5423 0.5221
C3 C 1.0500(4) 0.4951(3) 0.3760(2)
H5 H 1.1551 0.5777 0.3958
C4 C 1.0660(4) 0.3935(3) 0.2711(2)
H6 H 1.1814 0.4084 0.2195
C5 C 0.9109(3) 0.2693(3) 0.24219(17)
H7 H 0.9242 0.2010 0.1715
C6 C 0.7361(3) 0.2451(3) 0.31701(16)
C7 C 0.5566(3) 0.1179(3) 0.28805(19)
H8 H 0.5373 0.0596 0.3676
H9 H 0.4178 0.1750 0.2615
C8 C 0.3888(3) -0.0952(3) 0.14674(19)
H10 H 0.2820 -0.0258 0.0956
H11 H 0.3203 -0.1384 0.2201
C9 C 0.4714(3) -0.2340(2) 0.06555(16)
H12 H 0.4813 -0.1938 -0.0226
C10 C 0.7077(3) -0.2710(2) 0.13021(16)
H13 H 0.7130 -0.3806 0.1702
C11 C 0.7500(3) -0.1372(3) 0.23333(17)
H14 H 0.7195 -0.1779 0.3174
H15 H 0.9032 -0.0987 0.2389
loop_
_geom_bond_atom_site_label_1
_geom_bond_atom_site_label_2
_geom_bond_site_symmetry_1
_geom_bond_site_symmetry_2
N1 C7 1_555 1_555
O1 H1 1_555 1_555
O2 H2 1_555 1_555
C1 H3 1_555 1_555
C2 C1 1_555 1_555
H4 C2 1_555 1_555
C3 C2 1_555 1_555
H5 C3 1_555 1_555
C4 C3 1_555 1_555
H6 C4 1_555 1_555
C5 C4 1_555 1_555
H7 C5 1_555 1_555
C6 C1 1_555 1_555
C7 C6 1_555 1_555
H8 C7 1_555 1_555
H9 C7 1_555 1_555
C8 N1 1_555 1_555
H10 C8 1_555 1_555
H11 C8 1_555 1_555
C9 O1 1_555 1_555
H12 C9 1_555 1_555
C10 O2 1_555 1_555
H13 C10 1_555 1_555
C11 N1 1_555 1_555
H14 C11 1_555 1_555
H15 C11 1_555 1_555
C5 C6 1_555 1_555
C8 C9 1_555 1_555
C9 C10 1_555 1_555
C10 C11 1_555 1_555

#END
