
#######################################################################
#
#                 Cambridge Crystallographic Data Centre
#                                CCDC 
#
#######################################################################
#
# If this CIF has been generated from an entry in the Cambridge 
# Structural Database, then it will include bibliographic, chemical, 
# crystal, experimental, refinement or atomic coordinate data resulting 
# from the CCDC's data processing and validation procedures.
#
#######################################################################

data_KUVVOO01
_chemical_formula_moiety         'C24 H26 N6'
_chemical_name_systematic        
3,9,17,23,29,30-hexaazapentacyclo[23.3.1.1^11,15^.0^4,8^.0^18,22^]triaconta-1(29),2,9,11(30),12,14,16,23,25,27-decaene
_symmetry_cell_setting           monoclinic
_symmetry_space_group_name_H-M   'P 21/n'
_symmetry_Int_Tables_number      14
_space_group_name_Hall           '-P 2yn'
loop_
_symmetry_equiv_pos_site_id
_symmetry_equiv_pos_as_xyz
1 x,y,z
2 1/2-x,1/2+y,1/2-z
3 -x,-y,-z
4 1/2+x,1/2-y,1/2+z
_cell_length_a                   10.631(4)
_cell_length_b                   7.727(3)
_cell_length_c                   12.428(4)
_cell_angle_alpha                90
_cell_angle_beta                 101.46(3)
_cell_angle_gamma                90
_cell_volume                     1000.55
_exptl_crystal_colour            colorless
_exptl_crystal_description       block
_cell_formula_units_Z            2
_exptl_crystal_recrystallization_method chloroform
loop_
_atom_site_label
_atom_site_type_symbol
_atom_site_fract_x
_atom_site_fract_y
_atom_site_fract_z
N1 N 0.51110(16) 0.29992(16) 0.57535(13)
C1 C 0.4285(2) 0.2061(2) 0.50129(15)
C2 C 0.3142(2) 0.1408(2) 0.52103(15)
H1 H 0.2588 0.0761 0.4662
C3 C 0.2812(2) 0.17130(19) 0.62236(16)
H2 H 0.2053 0.1232 0.6394
C4 C 0.36184(19) 0.2734(2) 0.69739(15)
H3 H 0.3409 0.2998 0.7664
C5 C 0.4737(2) 0.3369(2) 0.67073(15)
C6 C 0.55982(19) 0.46136(19) 0.73969(15)
H4 H 0.6469 0.4693 0.7323
N2 N 0.51974(16) 0.55841(17) 0.80898(13)
C7 C 0.6073(2) 0.6986(2) 0.85566(15)
H5 H 0.6973 0.6707 0.8492
C8 C 0.6014(2) 0.7438(2) 0.97384(15)
H6 H 0.6508 0.6601 1.0261
H7 H 0.5116 0.7473 0.9847
C9 C 0.6636(2) 0.9257(2) 0.98690(15)
H8 H 0.7583 0.9168 1.0052
H9 H 0.6341 0.9919 1.0454
C10 C 0.61863(19) 1.01342(19) 0.87377(15)
H10 H 0.5528 1.1024 0.8780
H11 H 0.6919 1.0695 0.8494
C11 C 0.5618(2) 0.8679(2) 0.79309(14)
H12 H 0.4659 0.8741 0.7775
N3 N 0.60869(17) 0.87171(16) 0.69042(13)
C12 C 0.5309(2) 0.81744(19) 0.60497(15)
H13 H 0.4449 0.7916 0.6099
N1B N 0.48890(16) 0.70008(16) 0.42465(13)
C1B C 0.5715(2) 0.7939(2) 0.49871(15)
C2B C 0.6858(2) 0.8592(2) 0.47897(15)
H1B H 0.7412 0.9239 0.5338
C3B C 0.7188(2) 0.82870(19) 0.37764(16)
H2B H 0.7947 0.8768 0.3606
C4B C 0.63816(19) 0.7266(2) 0.30261(15)
H3B H 0.6591 0.7002 0.2336
C5B C 0.5263(2) 0.6631(2) 0.32927(15)
C6B C 0.44018(19) 0.53864(19) 0.26031(15)
H4B H 0.3531 0.5307 0.2677
N2B N 0.48026(16) 0.44159(17) 0.19102(13)
C7B C 0.3927(2) 0.3014(2) 0.14434(15)
H5B H 0.3027 0.3293 0.1508
C8B C 0.3986(2) 0.2562(2) 0.02616(15)
H6B H 0.3492 0.3399 -0.0261
H7B H 0.4884 0.2527 0.0153
C9B C 0.3364(2) 0.0743(2) 0.01310(15)
H8B H 0.2417 0.0832 -0.0052
H9B H 0.3659 0.0081 -0.0454
C10B C 0.38137(19) -0.01342(19) 0.12623(15)
H10B H 0.4472 -0.1024 0.1220
H11B H 0.3081 -0.0695 0.1506
C11B C 0.4382(2) 0.1321(2) 0.20691(14)
H12B H 0.5341 0.1259 0.2225
N3B N 0.39131(17) 0.12829(16) 0.30958(13)
C12B C 0.4691(2) 0.18256(19) 0.39503(15)
H13B H 0.5551 0.2084 0.3901
loop_
_geom_bond_atom_site_label_1
_geom_bond_atom_site_label_2
_geom_bond_site_symmetry_1
_geom_bond_site_symmetry_2
N1 C1 1_555 1_555
C1 C2 1_555 1_555
C2 H1 1_555 1_555
C3 C2 1_555 1_555
H2 C3 1_555 1_555
C4 C3 1_555 1_555
H3 C4 1_555 1_555
C5 N1 1_555 1_555
C6 C5 1_555 1_555
H4 C6 1_555 1_555
N2 C6 1_555 1_555
C7 N2 1_555 1_555
H5 C7 1_555 1_555
C8 C7 1_555 1_555
H6 C8 1_555 1_555
H7 C8 1_555 1_555
C9 C8 1_555 1_555
H8 C9 1_555 1_555
H9 C9 1_555 1_555
C10 C9 1_555 1_555
H10 C10 1_555 1_555
H11 C10 1_555 1_555
C11 C7 1_555 1_555
H12 C11 1_555 1_555
N3 C11 1_555 1_555
C12 N3 1_555 1_555
H13 C12 1_555 1_555
N1B C1B 1_555 1_555
C1B C12 1_555 1_555
C2B C1B 1_555 1_555
H1B C2B 1_555 1_555
C3B C2B 1_555 1_555
H2B C3B 1_555 1_555
C4B C3B 1_555 1_555
H3B C4B 1_555 1_555
C5B N1B 1_555 1_555
C6B C5B 1_555 1_555
H4B C6B 1_555 1_555
N2B C6B 1_555 1_555
C7B N2B 1_555 1_555
H5B C7B 1_555 1_555
C8B C7B 1_555 1_555
H6B C8B 1_555 1_555
H7B C8B 1_555 1_555
C9B C8B 1_555 1_555
H8B C9B 1_555 1_555
H9B C9B 1_555 1_555
C10B C9B 1_555 1_555
H10B C10B 1_555 1_555
H11B C10B 1_555 1_555
C11B C7B 1_555 1_555
H12B C11B 1_555 1_555
N3B C11B 1_555 1_555
C12B C1 1_555 1_555
H13B C12B 1_555 1_555
C4 C5 1_555 1_555
C10 C11 1_555 1_555
C4B C5B 1_555 1_555
C10B C11B 1_555 1_555
N3B C12B 1_555 1_555

#END
