
#######################################################################
#
#                 Cambridge Crystallographic Data Centre
#                                CCDC 
#
#######################################################################
#
# If this CIF has been generated from an entry in the Cambridge 
# Structural Database, then it will include bibliographic, chemical, 
# crystal, experimental, refinement or atomic coordinate data resulting 
# from the CCDC's data processing and validation procedures.
#
#######################################################################

data_KUVVEE
_chemical_formula_moiety         'C12 H10 O1'
_chemical_name_systematic        5-benzylidenecyclopent-2-en-1-one
_symmetry_cell_setting           monoclinic
_symmetry_space_group_name_H-M   'P 21/c'
_symmetry_Int_Tables_number      14
_space_group_name_Hall           '-P 2ybc'
loop_
_symmetry_equiv_pos_site_id
_symmetry_equiv_pos_as_xyz
1 x,y,z
2 -x,1/2+y,1/2-z
3 -x,-y,-z
4 x,1/2-y,1/2+z
_cell_length_a                   8.3452(4)
_cell_length_b                   9.2128(3)
_cell_length_c                   11.7930(5)
_cell_angle_alpha                90
_cell_angle_beta                 93.354(4)
_cell_angle_gamma                90
_cell_volume                     905.124
_exptl_crystal_colour            'light colorless'
_exptl_crystal_description       block
_cell_formula_units_Z            4
loop_
_atom_site_label
_atom_site_type_symbol
_atom_site_fract_x
_atom_site_fract_y
_atom_site_fract_z
O1 O 0.69493(14) 0.35444(12) 0.44561(11)
C1 C 0.1744(2) 0.30020(17) 0.65808(14)
H1 H 0.1600 0.3682 0.6001
C2 C 0.0454(2) 0.25984(19) 0.71886(16)
H2 H -0.0552 0.3000 0.7010
C3 C 0.0644(2) 0.16074(18) 0.80569(16)
H3 H -0.0233 0.1323 0.8455
C4 C 0.2143(2) 0.10384(18) 0.83329(15)
H4 H 0.2280 0.0384 0.8931
C5 C 0.3440(2) 0.14302(17) 0.77301(14)
H5 H 0.4446 0.1042 0.7929
C6 C 0.32615(19) 0.24041(15) 0.68229(13)
C7 C 0.45516(19) 0.27645(16) 0.60850(14)
H6 H 0.4465 0.3658 0.5720
C8 C 0.58367(18) 0.19751(15) 0.58684(13)
C9 C 0.69165(19) 0.23797(17) 0.49551(14)
C10 C 0.7908(2) 0.10996(18) 0.47678(16)
H7 H 0.8650 0.1021 0.4212
C11 C 0.7594(2) 0.00759(18) 0.55029(16)
H8 H 0.8097 -0.0825 0.5523
C12 C 0.6355(2) 0.05045(18) 0.62978(16)
H9 H 0.546(2) -0.0210(17) 0.6296(13)
H10 H 0.683(2) 0.0548(18) 0.7066(15)
loop_
_geom_bond_atom_site_label_1
_geom_bond_atom_site_label_2
_geom_bond_site_symmetry_1
_geom_bond_site_symmetry_2
O1 C9 1_555 1_555
C1 H1 1_555 1_555
C2 C1 1_555 1_555
H2 C2 1_555 1_555
C3 C2 1_555 1_555
H3 C3 1_555 1_555
C4 C3 1_555 1_555
H4 C4 1_555 1_555
C5 C4 1_555 1_555
H5 C5 1_555 1_555
C6 C1 1_555 1_555
C7 C6 1_555 1_555
H6 C7 1_555 1_555
C8 C7 1_555 1_555
C9 C8 1_555 1_555
C10 C9 1_555 1_555
H7 C10 1_555 1_555
C11 C10 1_555 1_555
H8 C11 1_555 1_555
C12 C8 1_555 1_555
H9 C12 1_555 1_555
H10 C12 1_555 1_555
C5 C6 1_555 1_555
C11 C12 1_555 1_555

#END
