
#######################################################################
#
#                 Cambridge Crystallographic Data Centre
#                                CCDC 
#
#######################################################################
#
# If this CIF has been generated from an entry in the Cambridge 
# Structural Database, then it will include bibliographic, chemical, 
# crystal, experimental, refinement or atomic coordinate data resulting 
# from the CCDC's data processing and validation procedures.
#
#######################################################################

data_KUVWUV
_chemical_formula_moiety         'C24 H24 O6'
_chemical_name_systematic        
'dimethyl 9-oxo-20-oxahexacyclo[15.2.1.1^4,7^.0^2,10^.0^3,8^.0^11,16^]henicosa-2(10),11,13,15-tetraene-18,18-dicarboxylate'
_symmetry_cell_setting           monoclinic
_symmetry_space_group_name_H-M   'C c'
_symmetry_Int_Tables_number      9
_space_group_name_Hall           'C -2yc'
loop_
_symmetry_equiv_pos_site_id
_symmetry_equiv_pos_as_xyz
1 x,y,z
2 x,-y,1/2+z
3 1/2+x,1/2+y,z
4 1/2+x,1/2-y,1/2+z
_cell_length_a                   17.142(3)
_cell_length_b                   9.0363(18)
_cell_length_c                   12.653(3)
_cell_angle_alpha                90
_cell_angle_beta                 90.03(3)
_cell_angle_gamma                90
_cell_volume                     1959.95
_exptl_crystal_colour            colorless
_exptl_crystal_description       Monoclinic
_cell_formula_units_Z            4
loop_
_atom_site_label
_atom_site_type_symbol
_atom_site_fract_x
_atom_site_fract_y
_atom_site_fract_z
O1 O 1.02968(7) 0.26563(13) 0.29484(9)
O2 O 0.91042(8) 0.13676(15) 0.02557(11)
O3 O 1.01049(8) 0.26508(15) -0.04415(10)
O4 O 1.17019(7) 0.17966(14) 0.08081(10)
O5 O 1.09983(8) -0.01764(15) 0.02848(10)
O6 O 0.73211(8) 0.42674(16) 0.24253(13)
C1 C 1.04014(11) 0.3089(2) 0.18687(14)
H1 H 1.0950 0.3446 0.1786
C2 C 0.98623(11) 0.43435(19) 0.15632(13)
C3 C 1.02016(12) 0.5483(2) 0.09845(14)
H2 H 1.0742 0.5431 0.0820
C4 C 0.97729(13) 0.6694(2) 0.06399(15)
H3 H 1.0014 0.7452 0.0235
C5 C 0.89921(12) 0.6779(2) 0.08938(14)
H4 H 0.8692 0.7602 0.0663
C6 C 0.86423(11) 0.5673(2) 0.14830(14)
H5 H 0.8105 0.5757 0.1658
C7 C 0.90631(11) 0.4424(2) 0.18291(13)
C8 C 0.86483(11) 0.3272(2) 0.24590(13)
C9 C 0.77966(11) 0.3351(2) 0.27113(15)
C10 C 0.75796(11) 0.2048(2) 0.34036(14)
H6 H 0.7425 0.2370 0.4130
C11 C 0.69570(11) 0.1054(2) 0.28950(15)
H7 H 0.6483 0.1583 0.2632
C12 C 0.74497(11) 0.0293(2) 0.20360(15)
H8 H 0.7160 -0.0490 0.1655
H9 H 0.7678 0.1004 0.1527
C13 C 0.80498(11) -0.0327(2) 0.28084(14)
H10 H 0.8482 -0.0903 0.2475
C14 C 0.83136(10) 0.10794(19) 0.34219(14)
H11 H 0.8468 0.0830 0.4163
C15 C 0.89253(11) 0.20037(19) 0.28916(13)
C16 C 0.97507(10) 0.1459(2) 0.29555(13)
H12 H 0.9816 0.0891 0.3628
C17 C 1.00160(11) 0.0484(2) 0.20352(14)
H13 H 0.9576 -0.0099 0.1746
H14 H 1.0437 -0.0200 0.2256
C18 C 1.03162(10) 0.16206(18) 0.12193(14)
C19 C 0.97563(11) 0.1836(2) 0.03017(14)
C20 C 0.96103(14) 0.3199(3) -0.12824(16)
H15 H 0.9372 0.2363 -0.1655
H16 H 0.9924 0.3781 -0.1779
H17 H 0.9200 0.3826 -0.0982
C21 C 1.10987(11) 0.1127(2) 0.07590(14)
C22 C 1.16873(13) -0.0836(2) -0.01879(18)
H18 H 1.1862 -0.0225 -0.0782
H19 H 1.1561 -0.1833 -0.0442
H20 H 1.2103 -0.0897 0.0342
C23 C 0.75234(12) -0.1220(2) 0.35467(16)
H21 H 0.7781 -0.1397 0.4236
H22 H 0.7381 -0.2183 0.3228
C24 C 0.67969(12) -0.0210(2) 0.36740(15)
H23 H 0.6312 -0.0746 0.3487
H24 H 0.6752 0.0165 0.4407
loop_
_geom_bond_atom_site_label_1
_geom_bond_atom_site_label_2
_geom_bond_site_symmetry_1
_geom_bond_site_symmetry_2
O1 C1 1_555 1_555
O2 C19 1_555 1_555
O3 C19 1_555 1_555
O4 C21 1_555 1_555
O5 C21 1_555 1_555
O6 C9 1_555 1_555
C1 H1 1_555 1_555
C2 C1 1_555 1_555
C3 C2 1_555 1_555
H2 C3 1_555 1_555
C4 C3 1_555 1_555
H3 C4 1_555 1_555
C5 C4 1_555 1_555
H4 C5 1_555 1_555
C6 C5 1_555 1_555
H5 C6 1_555 1_555
C7 C2 1_555 1_555
C8 C7 1_555 1_555
C9 C8 1_555 1_555
C10 C9 1_555 1_555
H6 C10 1_555 1_555
C11 C10 1_555 1_555
H7 C11 1_555 1_555
C12 C11 1_555 1_555
H8 C12 1_555 1_555
H9 C12 1_555 1_555
C13 C12 1_555 1_555
H10 C13 1_555 1_555
C14 C10 1_555 1_555
H11 C14 1_555 1_555
C15 C8 1_555 1_555
C16 O1 1_555 1_555
H12 C16 1_555 1_555
C17 C16 1_555 1_555
H13 C17 1_555 1_555
H14 C17 1_555 1_555
C18 C1 1_555 1_555
C19 C18 1_555 1_555
C20 O3 1_555 1_555
H15 C20 1_555 1_555
H16 C20 1_555 1_555
H17 C20 1_555 1_555
C21 C18 1_555 1_555
C22 O5 1_555 1_555
H18 C22 1_555 1_555
H19 C22 1_555 1_555
H20 C22 1_555 1_555
C23 C13 1_555 1_555
H21 C23 1_555 1_555
H22 C23 1_555 1_555
C24 C11 1_555 1_555
H23 C24 1_555 1_555
H24 C24 1_555 1_555
C6 C7 1_555 1_555
C13 C14 1_555 1_555
C14 C15 1_555 1_555
C15 C16 1_555 1_555
C17 C18 1_555 1_555
C23 C24 1_555 1_555

#END
