
#######################################################################
#
#                 Cambridge Crystallographic Data Centre
#                                CCDC 
#
#######################################################################
#
# If this CIF has been generated from an entry in the Cambridge 
# Structural Database, then it will include bibliographic, chemical, 
# crystal, experimental, refinement or atomic coordinate data resulting 
# from the CCDC's data processing and validation procedures.
#
#######################################################################

data_KUXHIU10
_chemical_compound_source        'Ligularia sagitta (Maxim) Matt'
_chemical_formula_moiety         'C19 H24 O5'
_chemical_name_systematic        Sagittolactone
_symmetry_cell_setting           monoclinic
_symmetry_space_group_name_H-M   'P 21'
_symmetry_Int_Tables_number      4
_space_group_name_Hall           'P 2yb'
loop_
_symmetry_equiv_pos_site_id
_symmetry_equiv_pos_as_xyz
1 x,y,z
2 -x,1/2+y,-z
_cell_length_a                   7.420(1)
_cell_length_b                   8.205(1)
_cell_length_c                   13.887(1)
_cell_angle_alpha                90
_cell_angle_beta                 75.71(1)
_cell_angle_gamma                90
_cell_volume                     819.296
_exptl_crystal_colour            colorless
_chemical_melting_point          266-268deg.C
_cell_formula_units_Z            2
loop_
_atom_site_label
_atom_site_type_symbol
_atom_site_fract_x
_atom_site_fract_y
_atom_site_fract_z
O1 O 0.5278(5) -0.6214(5) 0.3285(3)
O2 O 1.0313(5) -0.2135(6) 0.1807(3)
O3 O 0.4526(4) 0.044 0.2685(3)
O4 O 0.8219(7) 0.0394(7) -0.0007(3)
O5 O 0.6689(7) -0.1599(6) -0.0470(3)
C1 C 0.4520(7) -0.5261(6) 0.2600(4)
C2 C 0.2431(7) -0.5089(7) 0.2985(4)
C3 C 0.1940(7) -0.3978(8) 0.3886(4)
C4 C 0.2809(6) -0.2273(7) 0.3657(4)
C5 C 0.4953(6) -0.2372(6) 0.3325(3)
C6 C 0.5814(6) -0.0667(6) 0.2962(3)
C7 C 0.7371(6) -0.0821(6) 0.1984(3)
C8 C 0.6048(6) -0.1128(6) 0.1281(3)
C9 C 0.5178(6) -0.2846(6) 0.1470(3)
C10 C 0.5553(6) -0.3611(6) 0.2429(3)
C11 C 0.6990(8) -0.0844(7) 0.0200(4)
C12 C 0.8815(9) 0.1186(9) 0.0746(5)
C13 C 0.8473(7) 0.0716(7) 0.1687(4)
C14 C 0.7651(6) -0.3883(6) 0.2195(5)
C15 C 0.8650(6) -0.2287(7) 0.1986(3)
C16 C 0.4576(7) 0.0224(7) 0.1643(4)
C17 C 0.9311(8) 0.1582(8) 0.2423(5)
C18 C 0.5792(8) -0.2859(7) 0.4205(4)
C19 C 0.2054(8) -0.1135(9) 0.4550(5)
loop_
_geom_bond_atom_site_label_1
_geom_bond_atom_site_label_2
_geom_bond_site_symmetry_1
_geom_bond_site_symmetry_2
O1 C1 1_555 1_555
O2 C15 1_555 1_555
O3 C6 1_555 1_555
O4 C11 1_555 1_555
O5 C11 1_555 1_555
C1 C2 1_555 1_555
C2 C3 1_555 1_555
C3 C4 1_555 1_555
C4 C5 1_555 1_555
C5 C6 1_555 1_555
C6 C7 1_555 1_555
C7 C8 1_555 1_555
C8 C9 1_555 1_555
C9 C10 1_555 1_555
C10 C1 1_555 1_555
C11 C8 1_555 1_555
C12 O4 1_555 1_555
C13 C7 1_555 1_555
C14 C10 1_555 1_555
C15 C7 1_555 1_555
C16 O3 1_555 1_555
C17 C13 1_555 1_555
C18 C5 1_555 1_555
C19 C4 1_555 1_555
C5 C10 1_555 1_555
C8 C16 1_555 1_555
C12 C13 1_555 1_555
C14 C15 1_555 1_555

#END
