
#######################################################################
#
#                 Cambridge Crystallographic Data Centre
#                                CCDC 
#
#######################################################################
#
# If this CIF has been generated from an entry in the Cambridge 
# Structural Database, then it will include bibliographic, chemical, 
# crystal, experimental, refinement or atomic coordinate data resulting 
# from the CCDC's data processing and validation procedures.
#
#######################################################################

data_KUXPUP02
_chemical_formula_moiety         'C6 H5 N1 O3'
_chemical_name_systematic        '4-oxo-1,4-dihydropyridine-3-carboxylic acid'
_symmetry_cell_setting           monoclinic
_symmetry_space_group_name_H-M   'P 21/c'
_symmetry_Int_Tables_number      14
_space_group_name_Hall           '-P 2ybc'
loop_
_symmetry_equiv_pos_site_id
_symmetry_equiv_pos_as_xyz
1 x,y,z
2 -x,1/2+y,1/2-z
3 -x,-y,-z
4 x,1/2-y,1/2+z
_cell_length_a                   3.71980(1)
_cell_length_b                   14.5367(5)
_cell_length_c                   10.6250(4)
_cell_angle_alpha                90
_cell_angle_beta                 93.3280(15)
_cell_angle_gamma                90
_cell_volume                     573.563
_exptl_crystal_colour            colorless
_exptl_crystal_description       rod
_cell_formula_units_Z            4
loop_
_atom_site_label
_atom_site_type_symbol
_atom_site_fract_x
_atom_site_fract_y
_atom_site_fract_z
O1 O 0.9959(5) 0.50396(12) 0.83719(16)
O2 O 1.0417(4) 0.67192(11) 0.89400(15)
O3 O 0.7381(5) 0.46260(11) 0.65183(16)
C1 C 0.7403(6) 0.62193(15) 0.7036(2)
N1 N 0.4622(5) 0.73366(13) 0.56910(18)
H1 H 0.3363 0.7473 0.4989
C2 C 0.8584(6) 0.69194(16) 0.7914(2)
C3 C 0.5689(6) 0.80220(16) 0.6495(2)
H2 H 0.5061 0.8640 0.6290
C4 C 0.5447(6) 0.64524(15) 0.5944(2)
H3 H 0.4674 0.5985 0.5364
C5 C 0.7637(6) 0.78413(16) 0.7586(2)
H4 H 0.8372 0.8332 0.8133
C6 C 0.8221(6) 0.52287(16) 0.7269(2)
H5 H 1.032(10) 0.566(3) 0.880(3)
loop_
_geom_bond_atom_site_label_1
_geom_bond_atom_site_label_2
_geom_bond_site_symmetry_1
_geom_bond_site_symmetry_2
O1 C6 1_555 1_555
O2 C2 1_555 1_555
O3 C6 1_555 1_555
C1 C2 1_555 1_555
N1 H1 1_555 1_555
C2 C5 1_555 1_555
C3 N1 1_555 1_555
H2 C3 1_555 1_555
C4 C1 1_555 1_555
H3 C4 1_555 1_555
C5 C3 1_555 1_555
H4 C5 1_555 1_555
C6 C1 1_555 1_555
H5 O1 1_555 1_555
N1 C4 1_555 1_555

#END
