
#######################################################################
#
#                 Cambridge Crystallographic Data Centre
#                                CCDC 
#
#######################################################################
#
# If this CIF has been generated from an entry in the Cambridge 
# Structural Database, then it will include bibliographic, chemical, 
# crystal, experimental, refinement or atomic coordinate data resulting 
# from the CCDC's data processing and validation procedures.
#
#######################################################################

data_KUYRIH
_chemical_formula_moiety         'C20 H18 N2 O4'
_chemical_name_systematic        
'ethyl 6-acetyl-2-(3-acetylphenyl)-2H-indazole-3-carboxylate'
_symmetry_cell_setting           triclinic
_symmetry_space_group_name_H-M   'P -1'
_symmetry_Int_Tables_number      2
_space_group_name_Hall           '-P 1'
loop_
_symmetry_equiv_pos_site_id
_symmetry_equiv_pos_as_xyz
1 x,y,z
2 -x,-y,-z
_cell_length_a                   7.852(3)
_cell_length_b                   8.191(3)
_cell_length_c                   15.597(7)
_cell_angle_alpha                92.81(3)
_cell_angle_beta                 103.81(3)
_cell_angle_gamma                116.10(2)
_cell_volume                     861.045
_exptl_crystal_colour            colorless
_exptl_crystal_description       plate
_cell_formula_units_Z            2
loop_
_atom_site_label
_atom_site_type_symbol
_atom_site_fract_x
_atom_site_fract_y
_atom_site_fract_z
C1 C 0.5645(3) 0.3305(3) -0.07266(14)
C2 C 0.3814(4) 0.1642(4) -0.09544(15)
H1 H 0.3118 0.1156 -0.1571
C3 C 0.3018(4) 0.0724(3) -0.03379(15)
H2 H 0.1784 -0.0371 -0.0508
C4 C 0.4119(3) 0.1474(3) 0.05805(14)
C5 C 0.5904(3) 0.3118(3) 0.08109(14)
C6 C 0.6680(3) 0.4061(3) 0.01486(14)
H3 H 0.7883 0.5186 0.0309
C7 C 0.6376(4) 0.4160(4) -0.14704(14)
C8 C 0.8312(4) 0.5904(4) -0.12689(16)
H4 H 0.9412 0.5622 -0.1044
H5 H 0.8357 0.6803 -0.0814
H6 H 0.8429 0.6422 -0.1818
C9 C 0.3839(3) 0.0956(3) 0.13971(14)
C10 C 0.2128(3) -0.0607(3) 0.15446(15)
C11 C 0.0392(4) -0.1851(3) 0.26083(17)
H7 H 0.086 -0.2751 0.2807
H8 H -0.0825 -0.2497 0.2096
C12 C -0.0010(4) -0.1028(4) 0.33531(18)
H9 H 0.1234 -0.0288 0.3829
H10 H -0.0932 -0.2015 0.3592
H11 H -0.0597 -0.0237 0.3131
C13 C 0.6006(3) 0.2326(3) 0.29994(14)
C14 C 0.6377(3) 0.3866(3) 0.35706(13)
H12 H 0.6217 0.4856 0.3337
C15 C 0.6993(3) 0.3944(3) 0.44962(14)
C16 C 0.7176(4) 0.2452(3) 0.48134(15)
H13 H 0.7583 0.249 0.5442
C17 C 0.6773(4) 0.0910(4) 0.42261(16)
H14 H 0.6902 -0.0099 0.4452
C18 C 0.6186(3) 0.0851(3) 0.33171(15)
H15 H 0.5907 -0.0197 0.291
C19 C 0.7350(3) 0.5597(3) 0.51101(15)
C20 C 0.7975(4) 0.5675(4) 0.60992(16)
H16 H 0.8161 0.6836 0.641
H17 H 0.9225 0.5609 0.6271
H18 H 0.6952 0.4632 0.6265
N1 N 0.6745(3) 0.3618(3) 0.17081(12)
N2 N 0.5449(3) 0.2290(2) 0.20423(11)
O1 O 0.5431(3) 0.3442(3) -0.22531(11)
O2 O 0.1036(2) -0.1953(2) 0.09778(11)
O3 O 0.1914(2) -0.0335(2) 0.23479(10)
O4 O 0.7134(3) 0.6856(2) 0.48017(11)
loop_
_geom_bond_atom_site_label_1
_geom_bond_atom_site_label_2
_geom_bond_site_symmetry_1
_geom_bond_site_symmetry_2
C1 C2 1_555 1_555
C2 H1 1_555 1_555
C3 C2 1_555 1_555
H2 C3 1_555 1_555
C4 C3 1_555 1_555
C5 C4 1_555 1_555
C6 C1 1_555 1_555
H3 C6 1_555 1_555
C7 C1 1_555 1_555
C8 C7 1_555 1_555
H4 C8 1_555 1_555
H5 C8 1_555 1_555
H6 C8 1_555 1_555
C9 C4 1_555 1_555
C10 C9 1_555 1_555
C11 H7 1_555 1_555
H8 C11 1_555 1_555
C12 C11 1_555 1_555
H9 C12 1_555 1_555
H10 C12 1_555 1_555
H11 C12 1_555 1_555
C13 C14 1_555 1_555
C14 H12 1_555 1_555
C15 C14 1_555 1_555
C16 C15 1_555 1_555
H13 C16 1_555 1_555
C17 C16 1_555 1_555
H14 C17 1_555 1_555
C18 C13 1_555 1_555
H15 C18 1_555 1_555
C19 C15 1_555 1_555
C20 C19 1_555 1_555
H16 C20 1_555 1_555
H17 C20 1_555 1_555
H18 C20 1_555 1_555
N1 C5 1_555 1_555
N2 C9 1_555 1_555
O1 C7 1_555 1_555
O2 C10 1_555 1_555
O3 C10 1_555 1_555
O4 C19 1_555 1_555
C5 C6 1_555 1_555
C11 O3 1_555 1_555
C13 N2 1_555 1_555
C17 C18 1_555 1_555
N1 N2 1_555 1_555

#END
