
#######################################################################
#
#                 Cambridge Crystallographic Data Centre
#                                CCDC 
#
#######################################################################
#
# If this CIF has been generated from an entry in the Cambridge 
# Structural Database, then it will include bibliographic, chemical, 
# crystal, experimental, refinement or atomic coordinate data resulting 
# from the CCDC's data processing and validation procedures.
#
#######################################################################

data_KUZPAX
_chemical_formula_moiety         'C8 H16 N2 O4 2+,2(H2 O4 P1 1-),2(H2 O1)'
_chemical_name_systematic        
'1,4-bis(Carboxymethyl)piperazine-1,4-diium bis(dihydrogen phosphate) dihydrate'
_symmetry_cell_setting           monoclinic
_symmetry_space_group_name_H-M   'P 21/c'
_symmetry_Int_Tables_number      14
_space_group_name_Hall           '-P 2ybc'
loop_
_symmetry_equiv_pos_site_id
_symmetry_equiv_pos_as_xyz
1 x,y,z
2 -x,1/2+y,1/2-z
3 -x,-y,-z
4 x,1/2-y,1/2+z
_cell_length_a                   8.716(3)
_cell_length_b                   8.992(3)
_cell_length_c                   12.991(4)
_cell_angle_alpha                90
_cell_angle_beta                 123.310(17)
_cell_angle_gamma                90
_cell_volume                     850.888
_exptl_crystal_colour            colorless
_exptl_crystal_description       block
_cell_formula_units_Z            2
loop_
_atom_site_label
_atom_site_type_symbol
_atom_site_fract_x
_atom_site_fract_y
_atom_site_fract_z
O1 O 0.69897(17) 0.37509(13) 0.33962(11)
O2 O 0.64019(19) 0.56082(13) 0.42897(12)
H1 H 0.6898 0.5039 0.4903
N1 N 0.57511(19) 0.53648(15) 0.12844(13)
H2 H 0.6924 0.4981 0.1622
C1 C 0.6431(2) 0.49837(19) 0.33891(15)
C2 C 0.5654(2) 0.60289(19) 0.22984(15)
H3 H 0.4360 0.6257 0.1991
H4 H 0.6353 0.6973 0.2566
C3 C 0.5428(2) 0.65335(18) 0.03654(15)
H5 H 0.6332 0.7346 0.0785
H6 H 0.4184 0.6958 -0.0006
C4 C 0.4392(2) 0.41261(19) 0.06352(16)
H7 H 0.3131 0.4513 0.0268
H8 H 0.4608 0.3343 0.1237
O1B O 0.30103(17) 0.62491(13) -0.33962(11)
O2B O 0.35981(19) 0.43918(13) -0.42897(12)
H1B H 0.3102 0.4961 -0.4903
N1B N 0.42489(19) 0.46352(15) -0.12844(13)
H2B H 0.3076 0.5019 -0.1622
C1B C 0.3569(2) 0.50163(19) -0.33891(15)
C2B C 0.4346(2) 0.39711(19) -0.22984(15)
H3B H 0.5640 0.3743 -0.1991
H4B H 0.3647 0.3027 -0.2566
C3B C 0.4572(2) 0.34665(18) -0.03654(15)
H5B H 0.3668 0.2654 -0.0785
H6B H 0.5816 0.3042 0.0006
C4B C 0.5608(2) 0.58739(19) -0.06352(16)
H7B H 0.6869 0.5487 -0.0268
H8B H 0.5392 0.6657 -0.1237
P1 P 0.92100(6) 0.43880(4) 0.74544(4)
O3 O 0.79926(16) 0.38920(13) 0.61380(11)
O4 O 0.80098(16) 0.51844(14) 0.78556(12)
H9 H 0.8650 0.5820 0.8400
O5 O 1.07757(15) 0.54245(12) 0.77465(11)
O6 O 1.00826(16) 0.29822(13) 0.83100(11)
H10 H 0.9690 0.2207 0.7879
O7 O 0.9695(2) 0.73039(16) 0.94132(13)
H11 H 1.0120 0.7221 1.0176
H12 H 1.0505 0.7740 0.9349
loop_
_geom_bond_atom_site_label_1
_geom_bond_atom_site_label_2
_geom_bond_site_symmetry_1
_geom_bond_site_symmetry_2
O1 C1 1_555 1_555
O2 H1 1_555 1_555
N1 H2 1_555 1_555
C1 O2 1_555 1_555
C2 N1 1_555 1_555
H3 C2 1_555 1_555
H4 C2 1_555 1_555
C3 N1 1_555 1_555
H5 C3 1_555 1_555
H6 C3 1_555 1_555
C4 N1 1_555 1_555
H7 C4 1_555 1_555
H8 C4 1_555 1_555
P1 O3 1_555 1_555
O4 P1 1_555 1_555
H9 O4 1_555 1_555
O5 P1 1_555 1_555
O6 P1 1_555 1_555
H10 O6 1_555 1_555
O7 H11 1_555 1_555
H12 O7 1_555 1_555
O1B C1B 1_555 1_555
O2B H1B 1_555 1_555
N1B H2B 1_555 1_555
C1B O2B 1_555 1_555
C2B N1B 1_555 1_555
H3B C2B 1_555 1_555
H4B C2B 1_555 1_555
C3B C4 1_555 1_555
H5B C3B 1_555 1_555
H6B C3B 1_555 1_555
C4B C3 1_555 1_555
H7B C4B 1_555 1_555
H8B C4B 1_555 1_555
C1 C2 1_555 1_555
N1B C3B 1_555 1_555
N1B C4B 1_555 1_555
C1B C2B 1_555 1_555

#END
