
#######################################################################
#
#                 Cambridge Crystallographic Data Centre
#                                CCDC 
#
#######################################################################
#
# If this CIF has been generated from an entry in the Cambridge 
# Structural Database, then it will include bibliographic, chemical, 
# crystal, experimental, refinement or atomic coordinate data resulting 
# from the CCDC's data processing and validation procedures.
#
#######################################################################

data_KUZXUZ
_chemical_formula_moiety         'C19 H20 O3'
_chemical_name_systematic        '2,5-bis(4-methylphenyl)-4-oxopentanoic acid'
_symmetry_cell_setting           monoclinic
_symmetry_space_group_name_H-M   'P 21/c'
_symmetry_Int_Tables_number      14
_space_group_name_Hall           '-P 2ybc'
loop_
_symmetry_equiv_pos_site_id
_symmetry_equiv_pos_as_xyz
1 x,y,z
2 -x,1/2+y,1/2-z
3 -x,-y,-z
4 x,1/2-y,1/2+z
_cell_length_a                   11.846(2)
_cell_length_b                   13.155(3)
_cell_length_c                   11.755(2)
_cell_angle_alpha                90
_cell_angle_beta                 115.98(3)
_cell_angle_gamma                90
_cell_volume                     1646.72
_exptl_crystal_colour            yellow
_exptl_crystal_description       block
_cell_formula_units_Z            4
loop_
_atom_site_label
_atom_site_type_symbol
_atom_site_fract_x
_atom_site_fract_y
_atom_site_fract_z
C1 C 0.2848(2) 0.06339(18) 0.6978(3)
C2 C 0.3764(2) 0.1318(2) 0.7725(3)
H1 H 0.4156 0.1729 0.7360
C3 C 0.4101(3) 0.1396(2) 0.9004(3)
H2 H 0.4722 0.1858 0.9485
C4 C 0.3548(3) 0.0817(2) 0.9587(3)
C5 C 0.2638(3) 0.0149(3) 0.8837(3)
H3 H 0.2239 -0.0254 0.9201
C6 C 0.2299(3) 0.0057(2) 0.7571(3)
H4 H 0.1680 -0.0409 0.7099
C7 C 0.3949(4) 0.0898(3) 1.0989(3)
H5 H 0.4565 0.1427 1.1337
H6 H 0.4304 0.0263 1.1388
H7 H 0.3232 0.1057 1.1136
C8 C 0.2475(2) 0.05361(18) 0.5580(2)
H8 H 0.1909 -0.0049 0.5272
C9 C 0.3590(2) 0.0320(2) 0.5332(3)
C10 C 0.1766(2) 0.1458(2) 0.4817(3)
H9 H 0.1111 0.1638 0.5065
H10 H 0.2341 0.2028 0.5021
C11 C 0.1187(2) 0.1287(2) 0.3424(3)
C12 C 0.0992(3) 0.2191(2) 0.2583(3)
H11 H 0.0774 0.2768 0.2961
H12 H 0.1783 0.2348 0.2563
C13 C 0.0008(2) 0.20819(18) 0.1251(3)
C14 C -0.1074(3) 0.2653(2) 0.0815(3)
H13 H -0.1173 0.3129 0.1349
C15 C -0.2006(3) 0.2536(2) -0.0386(4)
H14 H -0.2723 0.2937 -0.0646
C16 C -0.1916(3) 0.1845(2) -0.1219(3)
C17 C -0.0825(3) 0.1291(2) -0.0809(3)
H15 H -0.0718 0.0832 -0.1355
C18 C 0.0115(2) 0.14094(19) 0.0405(3)
H16 H 0.0843 0.1023 0.0659
C19 C -0.2969(3) 0.1693(3) -0.2526(4)
H17 H -0.2762 0.1145 -0.2939
H18 H -0.3088 0.2305 -0.3010
H19 H -0.3729 0.1533 -0.2460
O1 O 0.0871(2) 0.04379(15) 0.3000(2)
O2 O 0.41394(17) -0.05500(14) 0.5781(2)
H20 H 0.4777 -0.0597 0.5674
O3 O 0.39643(17) 0.08983(15) 0.4773(2)
loop_
_geom_bond_atom_site_label_1
_geom_bond_atom_site_label_2
_geom_bond_site_symmetry_1
_geom_bond_site_symmetry_2
C1 C2 1_555 1_555
C2 H1 1_555 1_555
C3 C2 1_555 1_555
H2 C3 1_555 1_555
C4 C3 1_555 1_555
C5 C4 1_555 1_555
H3 C5 1_555 1_555
C6 C1 1_555 1_555
H4 C6 1_555 1_555
C7 C4 1_555 1_555
H5 C7 1_555 1_555
H6 C7 1_555 1_555
H7 C7 1_555 1_555
C8 C1 1_555 1_555
H8 C8 1_555 1_555
C9 C8 1_555 1_555
C10 C8 1_555 1_555
H9 C10 1_555 1_555
H10 C10 1_555 1_555
C11 C10 1_555 1_555
C12 C11 1_555 1_555
H11 C12 1_555 1_555
H12 C12 1_555 1_555
C13 C12 1_555 1_555
C14 C13 1_555 1_555
H13 C14 1_555 1_555
C15 C14 1_555 1_555
H14 C15 1_555 1_555
C16 C15 1_555 1_555
C17 C16 1_555 1_555
H15 C17 1_555 1_555
C18 C13 1_555 1_555
H16 C18 1_555 1_555
C19 C16 1_555 1_555
H17 C19 1_555 1_555
H18 C19 1_555 1_555
H19 C19 1_555 1_555
O1 C11 1_555 1_555
O2 C9 1_555 1_555
H20 O2 1_555 1_555
O3 C9 1_555 1_555
C5 C6 1_555 1_555
C17 C18 1_555 1_555

#END
