
#######################################################################
#
#                 Cambridge Crystallographic Data Centre
#                                CCDC 
#
#######################################################################
#
# If this CIF has been generated from an entry in the Cambridge 
# Structural Database, then it will include bibliographic, chemical, 
# crystal, experimental, refinement or atomic coordinate data resulting 
# from the CCDC's data processing and validation procedures.
#
#######################################################################

data_LABDUP
_chemical_formula_moiety         'C19 H31 N2 1+,F6 P1 1-'
_chemical_name_systematic        
'1,3-Dihexyl-1H-3,1-benzimidazol-3-ium hexafluorophosphate'
_symmetry_cell_setting           orthorhombic
_symmetry_space_group_name_H-M   'P 21 21 21'
_symmetry_Int_Tables_number      19
_space_group_name_Hall           'P 2ac 2ab'
loop_
_symmetry_equiv_pos_site_id
_symmetry_equiv_pos_as_xyz
1 x,y,z
2 1/2-x,-y,1/2+z
3 -x,1/2+y,1/2-z
4 1/2+x,1/2-y,-z
_cell_length_a                   8.5636(15)
_cell_length_b                   9.392(6)
_cell_length_c                   28.1899(17)
_cell_angle_alpha                90
_cell_angle_beta                 90
_cell_angle_gamma                90
_cell_volume                     2267.29
_exptl_crystal_colour            colorless
_exptl_crystal_description       plate
_cell_formula_units_Z            4
loop_
_atom_site_label
_atom_site_type_symbol
_atom_site_fract_x
_atom_site_fract_y
_atom_site_fract_z
P1 P 0.4668(4) 0.1693(4) 0.18830(14)
F1 F 0.3882(19) 0.0786(13) 0.1522(4)
F2 F 0.5546(13) 0.2594(11) 0.2251(3)
F3 F 0.6252(11) 0.1547(15) 0.1621(4)
F4 F 0.4980(15) 0.0369(10) 0.2184(5)
F5 F 0.3117(9) 0.1777(13) 0.2149(3)
F6 F 0.4415(13) 0.3009(9) 0.1578(4)
N1 N 0.7196(11) 0.6384(11) 0.1744(4)
N2 N 0.9115(13) 0.4875(10) 0.1822(4)
C1 C 0.7594(15) 0.5048(13) 0.1740(4)
H1 H 0.6901 0.4302 0.1687
C2 C 0.9714(14) 0.6242(11) 0.1881(4)
C3 C 1.1261(15) 0.6648(16) 0.1980(4)
H2 H 1.2068 0.5993 0.2014
C4 C 1.1490(16) 0.8119(17) 0.2024(5)
H3 H 1.2482 0.8451 0.2100
C5 C 1.0316(18) 0.9091(13) 0.1959(5)
H4 H 1.0525 1.0061 0.1980
C6 C 0.8815(15) 0.8623(12) 0.1861(5)
H5 H 0.8011 0.9275 0.1818
C7 C 0.8528(13) 0.7197(12) 0.1829(4)
C8 C 0.5647(12) 0.6941(16) 0.1633(5)
H6 H 0.5427 0.7735 0.1843
H7 H 0.4879 0.6206 0.1697
C9 C 0.5463(18) 0.7426(19) 0.1132(6)
H8 H 0.4398 0.7750 0.1089
H9 H 0.6143 0.8239 0.1082
C10 C 0.581(2) 0.6355(18) 0.0762(5)
H10 H 0.6894 0.6070 0.0791
H11 H 0.5170 0.5520 0.0818
C11 C 0.553(2) 0.686(2) 0.0273(7)
H12 H 0.4434 0.7111 0.0247
H13 H 0.6122 0.7735 0.0230
C12 C 0.590(3) 0.594(2) -0.0106(6)
H14 H 0.5335 0.5060 -0.0057
H15 H 0.7003 0.5726 -0.0087
C13 C 0.556(3) 0.644(2) -0.0595(7)
H16 H 0.5772 0.5686 -0.0816
H17 H 0.6214 0.7244 -0.0668
H18 H 0.4485 0.6715 -0.0619
C14 C 0.9977(17) 0.3519(13) 0.1794(5)
H19 H 0.9283 0.2733 0.1867
H20 H 1.0821 0.3517 0.2024
C15 C 1.063(7) 0.334(6) 0.1298(16)
H21 H 1.1501 0.2699 0.1350
H22 H 0.9839 0.2770 0.1144
C16 C 1.109(4) 0.407(3) 0.0982(11)
H23 H 1.2099 0.4428 0.1085
H24 H 1.0399 0.4880 0.0970
C17 C 1.131(6) 0.363(6) 0.0488(18)
H25 H 1.1582 0.2623 0.0499
H26 H 1.2244 0.4118 0.0378
C18 C 1.018(5) 0.377(4) 0.0109(15)
H27 H 0.9705 0.4703 0.0146
H28 H 0.9360 0.3080 0.0173
C19 C 1.054(6) 0.363(5) -0.0364(16)
H29 H 0.9602 0.3543 -0.0546
H30 H 1.1180 0.2804 -0.0409
H31 H 1.1107 0.4463 -0.0467
C20? C 0.996(4) 0.288(3) 0.1319(9)
C21? C 1.014(7) 0.350(5) 0.0921(17)
C22? C 1.046(6) 0.314(5) 0.0436(16)
C23? C 1.143(9) 0.416(6) 0.016(2)
C24? C 1.136(8) 0.337(7) -0.039(2)
H32? H 1.0756 0.2143 0.1327
H33? H 0.8970 0.2389 0.1295
H34? H 1.0958 0.4189 0.0990
H35? H 0.9195 0.4062 0.0894
H36? H 0.9469 0.3028 0.0272
H37? H 1.0976 0.2219 0.0431
H38? H 1.2489 0.4211 0.0284
H39? H 1.0974 0.5106 0.0160
H40? H 1.1736 0.4030 -0.0620
H41? H 1.0302 0.3115 -0.0457
H42? H 1.2003 0.2537 -0.0385
loop_
_geom_bond_atom_site_label_1
_geom_bond_atom_site_label_2
_geom_bond_site_symmetry_1
_geom_bond_site_symmetry_2
P1 F1 1_555 1_555
F2 P1 1_555 1_555
F3 P1 1_555 1_555
F4 P1 1_555 1_555
F5 P1 1_555 1_555
F6 P1 1_555 1_555
N1 C1 1_555 1_555
N2 C1 1_555 1_555
C1 H1 1_555 1_555
C2 N2 1_555 1_555
C3 C2 1_555 1_555
H2 C3 1_555 1_555
C4 C3 1_555 1_555
H3 C4 1_555 1_555
C5 C4 1_555 1_555
H4 C5 1_555 1_555
C6 C5 1_555 1_555
H5 C6 1_555 1_555
C7 N1 1_555 1_555
C8 N1 1_555 1_555
H6 C8 1_555 1_555
H7 C8 1_555 1_555
C9 C8 1_555 1_555
H8 C9 1_555 1_555
H9 C9 1_555 1_555
C10 C9 1_555 1_555
H10 C10 1_555 1_555
H11 C10 1_555 1_555
C11 C10 1_555 1_555
H12 C11 1_555 1_555
H13 C11 1_555 1_555
C12 C11 1_555 1_555
H14 C12 1_555 1_555
H15 C12 1_555 1_555
C13 C12 1_555 1_555
H16 C13 1_555 1_555
H17 C13 1_555 1_555
H18 C13 1_555 1_555
C14 N2 1_555 1_555
H19 C14 1_555 1_555
H20 C14 1_555 1_555
C15 C14 1_555 1_555
H21 C15 1_555 1_555
H22 C15 1_555 1_555
C16 C15 1_555 1_555
H23 C16 1_555 1_555
H24 C16 1_555 1_555
C17 C16 1_555 1_555
H25 C17 1_555 1_555
H26 C17 1_555 1_555
C18 C17 1_555 1_555
H27 C18 1_555 1_555
H28 C18 1_555 1_555
C19 C18 1_555 1_555
H29 C19 1_555 1_555
H30 C19 1_555 1_555
H31 C19 1_555 1_555
C2 C7 1_555 1_555
C6 C7 1_555 1_555

#END
