
#######################################################################
#
#                 Cambridge Crystallographic Data Centre
#                                CCDC 
#
#######################################################################
#
# If this CIF has been generated from an entry in the Cambridge 
# Structural Database, then it will include bibliographic, chemical, 
# crystal, experimental, refinement or atomic coordinate data resulting 
# from the CCDC's data processing and validation procedures.
#
#######################################################################

data_LABKOR
_chemical_name_common            
4-Allyl-2,7,12,17-tetraphenyl-4,21,22,23-tetraazapentacyclo[16.2.1.1$3,6!.1$8,11!.1$13,16!]tetracosa-1,3(24),5,7,9,11(23),12,14,16,18(21),19-undecaene
_chemical_formula_moiety         'C47 H34 N4'
_chemical_name_systematic        
2-Aza-2-allyl-5,10,15,20-tetraphenyl-21-hydrogen-21-carba-N-confused-porphyrin
_symmetry_cell_setting           triclinic
_symmetry_space_group_name_H-M   'P -1'
_symmetry_Int_Tables_number      2
_space_group_name_Hall           '-P 1'
loop_
_symmetry_equiv_pos_site_id
_symmetry_equiv_pos_as_xyz
1 x,y,z
2 -x,-y,-z
_cell_length_a                   10.3132(11)
_cell_length_b                   12.5813(11)
_cell_length_c                   14.2170(13)
_cell_angle_alpha                95.914(7)
_cell_angle_beta                 107.501(9)
_cell_angle_gamma                98.169(8)
_cell_volume                     1720.58
_exptl_crystal_colour            blue
_exptl_crystal_description       parallelepiped
_cell_formula_units_Z            2
loop_
_atom_site_label
_atom_site_type_symbol
_atom_site_fract_x
_atom_site_fract_y
_atom_site_fract_z
N1 N 0.5859(2) 0.36065(16) 0.24113(16)
N2 N 0.3958(2) 0.49746(16) 0.14339(18)
H1 H 0.456(3) 0.502(2) 0.204(2)
N3 N 0.4774(2) 0.65497(15) 0.32898(16)
N4 N 0.7362(2) 0.55092(16) 0.58705(16)
C1 C 0.6865(3) 0.30968(19) 0.2985(2)
C2 C 0.7072(3) 0.2188(2) 0.2362(2)
H2 H 0.7713 0.1717 0.2567
C3 C 0.6193(3) 0.2140(2) 0.1451(2)
H3 H 0.6088 0.1630 0.0880
C4 C 0.5417(3) 0.30233(19) 0.1493(2)
C5 C 0.4330(3) 0.32146(19) 0.0672(2)
C6 C 0.3649(3) 0.40993(18) 0.06730(19)
C7 C 0.2465(3) 0.4266(2) -0.0092(2)
H4 H 0.2018 0.3801 -0.0711
C8 C 0.2085(3) 0.5185(2) 0.0206(2)
H5 H 0.1318 0.5471 -0.0166
C9 C 0.3015(3) 0.56666(19) 0.1169(2)
C10 C 0.2983(3) 0.66413(19) 0.17228(19)
C11 C 0.3881(3) 0.70830(18) 0.2701(2)
C12 C 0.3988(3) 0.8184(2) 0.3201(2)
H6 H 0.3471 0.8716 0.2941
C13 C 0.4955(3) 0.8295(2) 0.4092(2)
H7 H 0.5269 0.8927 0.4584
C14 C 0.5442(3) 0.72589(19) 0.4169(2)
C15 C 0.6392(3) 0.70161(19) 0.5009(2)
C16 C 0.6865(3) 0.59975(19) 0.50080(19)
C17 C 0.6869(3) 0.52854(19) 0.4211(2)
H8 H 0.6582 0.5397 0.3534
C18 C 0.7367(3) 0.43604(19) 0.45554(19)
C19 C 0.7638(3) 0.4544(2) 0.5588(2)
H9 H 0.7972 0.4051 0.6027
C20 C 0.7521(3) 0.33928(19) 0.4003(2)
C21 C 0.3860(3) 0.23935(19) -0.0250(2)
C22 C 0.3420(3) 0.1300(2) -0.0214(2)
H10 H 0.3415 0.1081 0.0405
C23 C 0.2994(3) 0.0534(2) -0.1062(2)
H11 H 0.2692 -0.0204 -0.1021
C24 C 0.2999(3) 0.0828(2) -0.1975(2)
H12 H 0.2709 0.0297 -0.2558
C25 C 0.3433(3) 0.1906(2) -0.2024(2)
H13 H 0.3444 0.2116 -0.2644
C26 C 0.3850(3) 0.2682(2) -0.1177(2)
H14 H 0.4134 0.3420 -0.1226
C27 C 0.1921(3) 0.72810(19) 0.1232(2)
C28 C 0.1876(3) 0.7618(2) 0.0325(2)
H15 H 0.2539 0.7452 0.0019
C29 C 0.0873(3) 0.8196(2) -0.0142(2)
H16 H 0.0851 0.8417 -0.0765
C30 C -0.0082(3) 0.8446(2) 0.0298(2)
H17 H -0.0768 0.8838 -0.0022
C31 C -0.0046(3) 0.8127(2) 0.1210(2)
H18 H -0.0703 0.8306 0.1518
C32 C 0.0949(3) 0.7549(2) 0.1670(2)
H19 H 0.0968 0.7332 0.2294
C33 C 0.6902(3) 0.78451(18) 0.59319(19)
C34 C 0.5975(3) 0.8189(2) 0.6384(2)
H20 H 0.5014 0.7907 0.6090
C35 C 0.6427(3) 0.8932(2) 0.7249(2)
H21 H 0.5783 0.9150 0.7553
C36 C 0.7816(3) 0.9358(2) 0.7672(2)
H22 H 0.8130 0.9873 0.8267
C37 C 0.8760(3) 0.9036(2) 0.7231(2)
H23 H 0.9715 0.9340 0.7519
C38 C 0.8311(3) 0.8272(2) 0.6374(2)
H24 H 0.8961 0.8038 0.6085
C39 C 0.8380(3) 0.26839(19) 0.45961(19)
C40 C 0.9687(3) 0.3101(2) 0.5268(2)
H25 H 1.0065 0.3846 0.5317
C41 C 1.0459(3) 0.2458(2) 0.5871(2)
H26 H 1.1353 0.2763 0.6323
C42 C 0.9918(3) 0.1375(2) 0.5809(2)
H27 H 1.0433 0.0932 0.6224
C43 C 0.8629(3) 0.0940(2) 0.5143(2)
H28 H 0.8261 0.0194 0.5099
C44 C 0.7859(3) 0.1571(2) 0.4535(2)
H29 H 0.6976 0.1254 0.4074
C45 C 0.7357(3) 0.5804(2) 0.6895(2)
H30 H 0.6820 0.5187 0.7077
H31 H 0.6883 0.6432 0.6921
C46 C 0.8771(4) 0.6086(2) 0.7644(3)
H32 H 0.8817 0.6327 0.8311
C47 C 0.9952(4) 0.6042(3) 0.7495(3)
H33 H 0.9974 0.5808 0.6844
H34 H 1.0790 0.6245 0.8038
loop_
_geom_bond_atom_site_label_1
_geom_bond_atom_site_label_2
_geom_bond_site_symmetry_1
_geom_bond_site_symmetry_2
N1 C1 1_555 1_555
N2 H1 1_555 1_555
N3 C11 1_555 1_555
N4 C16 1_555 1_555
C1 C2 1_555 1_555
C2 H2 1_555 1_555
C3 C2 1_555 1_555
H3 C3 1_555 1_555
C4 N1 1_555 1_555
C5 C4 1_555 1_555
C6 N2 1_555 1_555
C7 C6 1_555 1_555
H4 C7 1_555 1_555
C8 C7 1_555 1_555
H5 C8 1_555 1_555
C9 N2 1_555 1_555
C10 C9 1_555 1_555
C11 C10 1_555 1_555
C12 C11 1_555 1_555
H6 C12 1_555 1_555
C13 C12 1_555 1_555
H7 C13 1_555 1_555
C14 N3 1_555 1_555
C15 C14 1_555 1_555
C16 C15 1_555 1_555
C17 C16 1_555 1_555
H8 C17 1_555 1_555
C18 C17 1_555 1_555
C19 N4 1_555 1_555
H9 C19 1_555 1_555
C20 C1 1_555 1_555
C21 C5 1_555 1_555
C22 C21 1_555 1_555
H10 C22 1_555 1_555
C23 C22 1_555 1_555
H11 C23 1_555 1_555
C24 C23 1_555 1_555
H12 C24 1_555 1_555
C25 C24 1_555 1_555
H13 C25 1_555 1_555
C26 C21 1_555 1_555
H14 C26 1_555 1_555
C27 C10 1_555 1_555
C28 C27 1_555 1_555
H15 C28 1_555 1_555
C29 C28 1_555 1_555
H16 C29 1_555 1_555
C30 C29 1_555 1_555
H17 C30 1_555 1_555
C31 C30 1_555 1_555
H18 C31 1_555 1_555
C32 C27 1_555 1_555
H19 C32 1_555 1_555
C33 C15 1_555 1_555
C34 C33 1_555 1_555
H20 C34 1_555 1_555
C35 C34 1_555 1_555
H21 C35 1_555 1_555
C36 C35 1_555 1_555
H22 C36 1_555 1_555
C37 C36 1_555 1_555
H23 C37 1_555 1_555
C38 C33 1_555 1_555
H24 C38 1_555 1_555
C39 C20 1_555 1_555
C40 C39 1_555 1_555
H25 C40 1_555 1_555
C41 C40 1_555 1_555
H26 C41 1_555 1_555
C42 C41 1_555 1_555
H27 C42 1_555 1_555
C43 C42 1_555 1_555
H28 C43 1_555 1_555
C44 C39 1_555 1_555
H29 C44 1_555 1_555
C45 N4 1_555 1_555
H30 C45 1_555 1_555
H31 C45 1_555 1_555
C46 C45 1_555 1_555
H32 C46 1_555 1_555
C47 C46 1_555 1_555
H33 C47 1_555 1_555
H34 C47 1_555 1_555
C3 C4 1_555 1_555
C5 C6 1_555 1_555
C8 C9 1_555 1_555
C13 C14 1_555 1_555
C18 C19 1_555 1_555
C18 C20 1_555 1_555
C25 C26 1_555 1_555
C31 C32 1_555 1_555
C37 C38 1_555 1_555
C43 C44 1_555 1_555

#END
