
#######################################################################
#
#                 Cambridge Crystallographic Data Centre
#                                CCDC 
#
#######################################################################
#
# If this CIF has been generated from an entry in the Cambridge 
# Structural Database, then it will include bibliographic, chemical, 
# crystal, experimental, refinement or atomic coordinate data resulting 
# from the CCDC's data processing and validation procedures.
#
#######################################################################

data_LABVES
_chemical_formula_moiety         'C27 H22 O6'
_chemical_name_systematic        
(E,E)-2-(2-(2-Hydroxyphenyl)-2-oxoethyl)-3-(1-hydroxy-3-phenylprop-2-en-1-ylidene)-7-methoxy-2,3-dihydro-4H-chromen-4-one
_symmetry_cell_setting           triclinic
_symmetry_space_group_name_H-M   'P -1'
_symmetry_Int_Tables_number      2
_space_group_name_Hall           '-P 1'
loop_
_symmetry_equiv_pos_site_id
_symmetry_equiv_pos_as_xyz
1 x,y,z
2 -x,-y,-z
_cell_length_a                   7.0533(2)
_cell_length_b                   12.0972(3)
_cell_length_c                   13.3364(4)
_cell_angle_alpha                106.4800(14)
_cell_angle_beta                 93.8600(14)
_cell_angle_gamma                98.0000(14)
_cell_volume                     1073.71
_exptl_crystal_colour            yellow
_exptl_crystal_description       Block
_chemical_melting_point          '234-235 deg.C'
_cell_formula_units_Z            2
_exptl_crystal_recrystallization_method ethanol
loop_
_atom_site_label
_atom_site_type_symbol
_atom_site_fract_x
_atom_site_fract_y
_atom_site_fract_z
O1 O 0.10208(13) 0.35102(8) 0.67914(7)
O2 O 0.38303(14) 0.63675(8) 0.60905(8)
O3 O 0.26359(15) 0.54018(9) 0.41895(8)
H1 H 0.3164 0.5924 0.4736
O4 O 0.24121(16) 0.52956(10) 1.04021(8)
O5 O 0.13314(14) 0.09475(8) 0.55536(8)
O6 O 0.21448(15) -0.08635(8) 0.60221(8)
H2 H 0.1454 -0.0478 0.5764
C1 C 0.17288(18) 0.33006(11) 0.57657(10)
H3 H 0.0700 0.2761 0.5227
C2 C 0.22102(18) 0.44121(11) 0.54672(10)
C3 C 0.31428(18) 0.54361(11) 0.62817(11)
C4 C 0.31675(18) 0.53795(11) 0.73619(11)
C5 C 0.20246(18) 0.44385(11) 0.75721(10)
C6 C 0.17983(19) 0.44436(12) 0.85976(11)
H4 H 0.1001 0.3812 0.8731
C7 C 0.2746(2) 0.53791(13) 0.94316(11)
C8 C 0.3949(2) 0.63038(13) 0.92452(12)
H5 H 0.4634 0.6926 0.9815
C9 C 0.41235(19) 0.62982(12) 0.82205(12)
H6 H 0.4915 0.6935 0.8092
C10 C 0.3260(2) 0.62443(15) 1.13016(12)
H7 H 0.4667 0.6322 1.1341
H8 H 0.2829 0.6091 1.1940
H9 H 0.2865 0.6970 1.1240
C11 C 0.19665(18) 0.44364(12) 0.44384(11)
C12 C 0.10078(19) 0.34528(12) 0.35671(11)
H10 H 0.0340 0.2791 0.3718
C13 C 0.10266(19) 0.34397(13) 0.25571(11)
H11 H 0.1748 0.4098 0.2426
C14 C 0.0040(2) 0.25063(13) 0.16414(11)
C15 C -0.1341(2) 0.15980(14) 0.17333(12)
H12 H -0.1628 0.1565 0.2411
C16 C -0.2289(2) 0.07483(15) 0.08461(13)
H13 H -0.3227 0.0140 0.0918
C17 C -0.1874(3) 0.07818(16) -0.01495(13)
H14 H -0.2527 0.0199 -0.0758
C18 C -0.0507(3) 0.16672(16) -0.02505(13)
H15 H -0.0212 0.1687 -0.0931
C19 C 0.0438(2) 0.25259(15) 0.06322(12)
H16 H 0.1367 0.3135 0.0552
C20 C 0.34943(18) 0.26967(11) 0.57731(10)
H17 H 0.4110 0.2673 0.5123
H18 H 0.4439 0.3161 0.6380
C21 C 0.29940(19) 0.14638(11) 0.58418(10)
C22 C 0.44711(19) 0.08894(11) 0.62244(10)
C23 C 0.3953(2) -0.02538(11) 0.63090(10)
C24 C 0.5339(2) -0.07924(12) 0.66980(11)
H19 H 0.4985 -0.1547 0.6778
C25 C 0.7225(2) -0.02288(13) 0.69669(11)
H20 H 0.8159 -0.0602 0.7229
C26 C 0.7777(2) 0.08811(13) 0.68588(11)
H21 H 0.9081 0.1257 0.7036
C27 C 0.6412(2) 0.14274(12) 0.64928(10)
H22 H 0.6789 0.2183 0.6420
loop_
_geom_bond_atom_site_label_1
_geom_bond_atom_site_label_2
_geom_bond_site_symmetry_1
_geom_bond_site_symmetry_2
O1 C1 1_555 1_555
O2 C3 1_555 1_555
O3 H1 1_555 1_555
O4 C7 1_555 1_555
O5 C21 1_555 1_555
O6 H2 1_555 1_555
C1 H3 1_555 1_555
C2 C1 1_555 1_555
C3 C2 1_555 1_555
C4 C3 1_555 1_555
C5 O1 1_555 1_555
C6 C5 1_555 1_555
H4 C6 1_555 1_555
C7 C6 1_555 1_555
C8 C7 1_555 1_555
H5 C8 1_555 1_555
C9 C4 1_555 1_555
H6 C9 1_555 1_555
C10 O4 1_555 1_555
H7 C10 1_555 1_555
H8 C10 1_555 1_555
H9 C10 1_555 1_555
C11 O3 1_555 1_555
C12 C11 1_555 1_555
H10 C12 1_555 1_555
C13 C12 1_555 1_555
H11 C13 1_555 1_555
C14 C13 1_555 1_555
C15 C14 1_555 1_555
H12 C15 1_555 1_555
C16 C15 1_555 1_555
H13 C16 1_555 1_555
C17 C16 1_555 1_555
H14 C17 1_555 1_555
C18 C17 1_555 1_555
H15 C18 1_555 1_555
C19 C14 1_555 1_555
H16 C19 1_555 1_555
C20 C1 1_555 1_555
H17 C20 1_555 1_555
H18 C20 1_555 1_555
C21 C20 1_555 1_555
C22 C21 1_555 1_555
C23 O6 1_555 1_555
C24 C23 1_555 1_555
H19 C24 1_555 1_555
C25 C24 1_555 1_555
H20 C25 1_555 1_555
C26 C25 1_555 1_555
H21 C26 1_555 1_555
C27 C22 1_555 1_555
H22 C27 1_555 1_555
C2 C11 1_555 1_555
C4 C5 1_555 1_555
C8 C9 1_555 1_555
C18 C19 1_555 1_555
C22 C23 1_555 1_555
C26 C27 1_555 1_555

#END
