
#######################################################################
#
#                 Cambridge Crystallographic Data Centre
#                                CCDC 
#
#######################################################################
#
# If this CIF has been generated from an entry in the Cambridge 
# Structural Database, then it will include bibliographic, chemical, 
# crystal, experimental, refinement or atomic coordinate data resulting 
# from the CCDC's data processing and validation procedures.
#
#######################################################################

data_LABWIX
_chemical_formula_moiety         'C11 H7 Cl1 N2'
_chemical_name_systematic        
2-chloro-3-phenylcyclopropane-1,1-dicarbonitrile
_symmetry_cell_setting           monoclinic
_symmetry_space_group_name_H-M   'P 21'
_symmetry_Int_Tables_number      4
_space_group_name_Hall           'P 2yb'
loop_
_symmetry_equiv_pos_site_id
_symmetry_equiv_pos_as_xyz
1 x,y,z
2 -x,1/2+y,-z
_cell_length_a                   7.4146(15)
_cell_length_b                   7.1526(14)
_cell_length_c                   10.000(2)
_cell_angle_alpha                90
_cell_angle_beta                 107.24(3)
_cell_angle_gamma                90
_cell_volume                     506.51
_exptl_crystal_colour            colorless
_exptl_crystal_description       block
_cell_formula_units_Z            2
loop_
_atom_site_label
_atom_site_type_symbol
_atom_site_fract_x
_atom_site_fract_y
_atom_site_fract_z
Cl1 Cl 0.08634(8) 0.25612(14) 0.33606(7)
N1 N -0.4995(3) 0.5349(4) 0.4200(3)
N2 N -0.0048(4) 0.2199(4) 0.6636(2)
C1 C -0.2810(3) 0.1373(3) 0.3082(2)
H1 H -0.2142 0.0197 0.3401
C2 C -0.1551(3) 0.2949(3) 0.3002(2)
H2 H -0.2091 0.3873 0.2269
C3 C -0.2396(3) 0.2938(3) 0.4230(2)
C4 C -0.4724(3) 0.1121(4) 0.2073(2)
C5 C -0.5670(4) -0.0529(4) 0.2122(3)
H3 H -0.5125 -0.1427 0.2793
C6 C -0.7428(5) -0.0848(5) 0.1174(3)
H4 H -0.8061 -0.1959 0.1214
C7 C -0.8239(4) 0.0456(6) 0.0179(3)
H5 H -0.9413 0.0223 -0.0460
C8 C -0.7331(4) 0.2096(6) 0.0121(3)
H6 H -0.7890 0.2988 -0.0551
C9 C -0.5576(4) 0.2434(5) 0.1065(2)
H7 H -0.4961 0.3555 0.1022
C10 C -0.3850(3) 0.4288(3) 0.4208(2)
C11 C -0.1123(3) 0.2506(4) 0.5585(2)
loop_
_geom_bond_atom_site_label_1
_geom_bond_atom_site_label_2
_geom_bond_site_symmetry_1
_geom_bond_site_symmetry_2
Cl1 C2 1_555 1_555
N1 C10 1_555 1_555
N2 C11 1_555 1_555
C1 H1 1_555 1_555
C2 C1 1_555 1_555
H2 C2 1_555 1_555
C3 C1 1_555 1_555
C4 C1 1_555 1_555
C5 C4 1_555 1_555
H3 C5 1_555 1_555
C6 C5 1_555 1_555
H4 C6 1_555 1_555
C7 C6 1_555 1_555
H5 C7 1_555 1_555
C8 C7 1_555 1_555
H6 C8 1_555 1_555
C9 C4 1_555 1_555
H7 C9 1_555 1_555
C10 C3 1_555 1_555
C11 C3 1_555 1_555
C2 C3 1_555 1_555
C8 C9 1_555 1_555

#END
