
#######################################################################
#
#                 Cambridge Crystallographic Data Centre
#                                CCDC 
#
#######################################################################
#
# If this CIF has been generated from an entry in the Cambridge 
# Structural Database, then it will include bibliographic, chemical, 
# crystal, experimental, refinement or atomic coordinate data resulting 
# from the CCDC's data processing and validation procedures.
#
#######################################################################

data_LACQUE
_chemical_formula_moiety         'C28 H27 Br1 N4 O2'
_chemical_name_systematic        
4-(4-bromo-2-t-butylphenyl)-1-methyl-2-(1-methyl-2-phenyl-1H-indol-3-yl)-1,2,4-triazolidine-3,5-dione
_symmetry_cell_setting           orthorhombic
_symmetry_space_group_name_H-M   'P 21 21 21'
_symmetry_Int_Tables_number      19
_space_group_name_Hall           'P 2ac 2ab'
loop_
_symmetry_equiv_pos_site_id
_symmetry_equiv_pos_as_xyz
1 x,y,z
2 1/2+x,1/2-y,-z
3 -x,1/2+y,1/2-z
4 1/2-x,-y,1/2+z
_cell_length_a                   9.4613(2)
_cell_length_b                   14.9262(3)
_cell_length_c                   18.5196(13)
_cell_angle_alpha                90
_cell_angle_beta                 90
_cell_angle_gamma                90
_cell_volume                     2615.36
_exptl_crystal_colour            colorless
_exptl_crystal_description       prism
_cell_formula_units_Z            4
loop_
_atom_site_label
_atom_site_type_symbol
_atom_site_fract_x
_atom_site_fract_y
_atom_site_fract_z
Br1 Br 1.14582(4) 0.35010(3) -0.18191(2)
O1 O 0.5991(3) 0.59812(17) -0.02946(12)
O2 O 0.7818(3) 0.38916(16) 0.12593(13)
N1 N 0.7045(3) 0.47916(17) 0.03090(13)
N2 N 0.5745(3) 0.57300(17) 0.09312(13)
N3 N 0.3213(3) 0.73904(17) 0.14722(14)
N4 N 0.6143(3) 0.50074(18) 0.13889(14)
C1 C 1.0023(3) 0.3927(2) -0.11899(16)
C2 C 1.0308(4) 0.4657(3) -0.07625(18)
H1 H 1.1167 0.4957 -0.0791
C3 C 0.9267(4) 0.4924(2) -0.02906(19)
H2 H 0.9426 0.5416 0.0006
C4 C 0.7986(3) 0.4476(2) -0.02476(15)
C5 C 0.6224(3) 0.5555(2) 0.02487(16)
C6 C 0.4532(3) 0.6243(2) 0.11098(16)
C7 C 0.4569(3) 0.7127(2) 0.12907(16)
C8 C 0.5801(4) 0.7727(2) 0.13374(19)
C9 C 0.6110(4) 0.8189(2) 0.1970(2)
H3 H 0.5500 0.8153 0.2363
C10 C 0.7331(5) 0.8707(3) 0.2015(3)
H4 H 0.7548 0.9011 0.2439
C11 C 0.8220(5) 0.8764(3) 0.1421(3)
H5 H 0.9030 0.9114 0.1448
C12 C 0.8738(3) 0.3501(2) -0.11730(16)
H6 H 0.8582 0.3022 -0.1484
C13 C 0.7661(3) 0.3760(2) -0.07059(16)
C14 C 0.7095(3) 0.4487(2) 0.10162(17)
C15 C 0.6327(5) 0.5210(3) 0.21499(18)
H7 H 0.6947 0.4776 0.2364
H8 H 0.5426 0.5192 0.2388
H9 H 0.6730 0.5797 0.2201
C16 C 0.3121(3) 0.5913(2) 0.11964(16)
C17 C 0.2475(4) 0.5085(3) 0.1135(2)
H10 H 0.2984 0.4587 0.0980
C18 C 0.1068(5) 0.5010(3) 0.1308(2)
H11 H 0.0626 0.4455 0.1277
C19 C 0.0292(4) 0.5757(3) 0.1530(2)
H12 H -0.0660 0.5688 0.1641
C20 C 0.0894(4) 0.6591(3) 0.1588(2)
H13 H 0.0371 0.7088 0.1729
C21 C 0.2336(3) 0.6656(2) 0.14253(16)
C22 C 0.7926(5) 0.8316(3) 0.0803(3)
H14 H 0.8539 0.8354 0.0412
C23 C 0.6712(4) 0.7801(2) 0.0753(2)
H15 H 0.6507 0.7502 0.0325
C24 C 0.2733(4) 0.8281(2) 0.1677(2)
H16 H 0.1830 0.8397 0.1460
H17 H 0.3403 0.8719 0.1514
H18 H 0.2649 0.8315 0.2193
C25 C 0.6236(4) 0.3252(2) -0.07306(19)
C26 C 0.6490(18) 0.2332(8) -0.0383(12)
H19 H 0.5632 0.1989 -0.0397
H20 H 0.6781 0.2411 0.0109
H21 H 0.7216 0.2021 -0.0645
C27 C 0.5006(11) 0.3673(11) -0.0328(10)
H22 H 0.4980 0.4305 -0.0426
H23 H 0.5122 0.3578 0.0181
H24 H 0.4138 0.3404 -0.0485
C28 C 0.5734(13) 0.3083(17) -0.1492(5)
H25 H 0.4829 0.2794 -0.1479
H26 H 0.6401 0.2706 -0.1737
H27 H 0.5655 0.3643 -0.1744
C29? C 0.607(3) 0.270(2) -0.0074(11)
H28? H 0.6208 0.3072 0.0345
H29? H 0.6759 0.2231 -0.0077
H30? H 0.5139 0.2450 -0.0064
C30? C 0.5072(17) 0.3911(10) -0.0880(19)
H31? H 0.4206 0.3593 -0.0966
H32? H 0.5309 0.4261 -0.1298
H33? H 0.4957 0.4299 -0.0471
C31? C 0.6240(19) 0.2622(13) -0.1385(11)
H34? H 0.6984 0.2189 -0.1332
H35? H 0.6390 0.2963 -0.1817
H36? H 0.5347 0.2318 -0.1414
loop_
_geom_bond_atom_site_label_1
_geom_bond_atom_site_label_2
_geom_bond_site_symmetry_1
_geom_bond_site_symmetry_2
Br1 C1 1_555 1_555
O1 C5 1_555 1_555
O2 C14 1_555 1_555
N1 C4 1_555 1_555
N2 N4 1_555 1_555
N3 C7 1_555 1_555
N4 C14 1_555 1_555
C1 C2 1_555 1_555
C2 H1 1_555 1_555
C3 C2 1_555 1_555
H2 C3 1_555 1_555
C4 C3 1_555 1_555
C5 N1 1_555 1_555
C6 N2 1_555 1_555
C7 C6 1_555 1_555
C8 C7 1_555 1_555
C9 C8 1_555 1_555
H3 C9 1_555 1_555
C10 C9 1_555 1_555
H4 C10 1_555 1_555
C11 C10 1_555 1_555
H5 C11 1_555 1_555
C12 C1 1_555 1_555
H6 C12 1_555 1_555
C13 C4 1_555 1_555
C14 N1 1_555 1_555
C15 N4 1_555 1_555
H7 C15 1_555 1_555
H8 C15 1_555 1_555
H9 C15 1_555 1_555
C16 C6 1_555 1_555
C17 C16 1_555 1_555
H10 C17 1_555 1_555
C18 C17 1_555 1_555
H11 C18 1_555 1_555
C19 C18 1_555 1_555
H12 C19 1_555 1_555
C20 C19 1_555 1_555
H13 C20 1_555 1_555
C21 N3 1_555 1_555
C22 C11 1_555 1_555
H14 C22 1_555 1_555
C23 C8 1_555 1_555
H15 C23 1_555 1_555
C24 N3 1_555 1_555
H16 C24 1_555 1_555
H17 C24 1_555 1_555
H18 C24 1_555 1_555
C25 C13 1_555 1_555
C26 C25 1_555 1_555
H19 C26 1_555 1_555
H20 C26 1_555 1_555
H21 C26 1_555 1_555
C27 C25 1_555 1_555
H22 C27 1_555 1_555
H23 C27 1_555 1_555
H24 C27 1_555 1_555
C28 C25 1_555 1_555
H25 C28 1_555 1_555
H26 C28 1_555 1_555
H27 C28 1_555 1_555
N2 C5 1_555 1_555
C12 C13 1_555 1_555
C16 C21 1_555 1_555
C20 C21 1_555 1_555
C22 C23 1_555 1_555

#END
