
#######################################################################
#
#                 Cambridge Crystallographic Data Centre
#                                CCDC 
#
#######################################################################
#
# If this CIF has been generated from an entry in the Cambridge 
# Structural Database, then it will include bibliographic, chemical, 
# crystal, experimental, refinement or atomic coordinate data resulting 
# from the CCDC's data processing and validation procedures.
#
#######################################################################

data_LACTAL
_chemical_formula_moiety         'C42 H70 O35,C14 H16 N2,8(H2 O1)'
_chemical_name_systematic        
'\b-Cyclodextrin o-tolidine clathrate octahydrate'
_symmetry_cell_setting           orthorhombic
_symmetry_space_group_name_H-M   'C 2 2 21'
_symmetry_Int_Tables_number      20
_space_group_name_Hall           'C 2n 2'
loop_
_symmetry_equiv_pos_site_id
_symmetry_equiv_pos_as_xyz
1 x,y,z
2 -x,-y,1/2+z
3 -x,y,1/2-z
4 x,-y,-z
5 1/2+x,1/2+y,z
6 1/2-x,1/2-y,1/2+z
7 1/2-x,1/2+y,1/2-z
8 1/2+x,1/2-y,-z
_cell_length_a                   19.347(5)
_cell_length_b                   24.266(6)
_cell_length_c                   32.806(6)
_cell_angle_alpha                90
_cell_angle_beta                 90
_cell_angle_gamma                90
_cell_volume                     15401.6
_cell_formula_units_Z            8
loop_
_atom_site_label
_atom_site_type_symbol
_atom_site_fract_x
_atom_site_fract_y
_atom_site_fract_z
O1 O 0.7410(3) 0.5624(2) 0.6648(2)
O2 O 0.7379(4) 0.4843(3) 0.6223(2)
O3 O 0.6703(6) 0.4016(4) 0.5755(3)
H1 H 0.6360 0.3826 0.5715
O4 O 0.6144(4) 0.4484(3) 0.7225(2)
H2 H 0.5749 0.4404 0.7156
O5 O 0.7480(4) 0.4945(3) 0.73372(19)
H3 H 0.7684 0.4698 0.7458
O6 O 0.5532(3) 0.4709(3) 0.6453(2)
O7 O 0.4754(4) 0.4345(3) 0.5973(2)
O8 O 0.3617(5) 0.4340(4) 0.5451(3)
H4 H 0.3715 0.4109 0.5624
O9 O 0.3536(3) 0.4747(3) 0.6971(2)
H5 H 0.3690 0.4669 0.7196
O10 O 0.4813(4) 0.4160(3) 0.7074(2)
H6 H 0.4623 0.3895 0.7183
O11 O 0.3440(4) 0.5381(3) 0.6244(2)
O12 O 0.2731(4) 0.5719(3) 0.5740(2)
O13 O 0.2208(6) 0.6485(4) 0.5205(3)
H7 H 0.2183 0.6199 0.5072
O14 O 0.2034(5) 0.6481(3) 0.6795(2)
H8 H 0.2049 0.6818 0.6774
O15 O 0.2314(4) 0.5312(3) 0.6776(2)
H9 H 0.2697 0.5172 0.6800
O16 O 0.2736(4) 0.7100(3) 0.6181(2)
O17 O 0.2583(4) 0.7865(3) 0.5764(2)
O18 O 0.3003(6) 0.8869(5) 0.5404(3)
H10 H 0.3234 0.9152 0.5406
O19 O 0.2976(4) 0.8475(3) 0.6920(2)
H11 H 0.2769 0.8319 0.7105
O20 O 0.1982(4) 0.7634(3) 0.6800(2)
H12 H 0.1565 0.7693 0.6810
O21 O 0.3999(4) 0.8573(3) 0.6306(2)
O22 O 0.4727(4) 0.9158(3) 0.5949(2)
O23 O 0.6065(6) 0.9495(5) 0.5653(3)
H13 H 0.6324 0.9528 0.5457
O24 O 0.5423(4) 0.9251(4) 0.7142(2)
H14 H 0.5138 0.9229 0.7327
O25 O 0.3970(4) 0.9323(3) 0.6956(2)
H15 H 0.3714 0.9060 0.6917
O26 O 0.6249(3) 0.8724(3) 0.6545(2)
O27 O 0.7316(4) 0.8775(3) 0.6226(2)
O28 O 0.8592(5) 0.8319(4) 0.5929(3)
H16 H 0.8603 0.8606 0.5798
O29 O 0.7686(5) 0.8117(3) 0.7371(2)
H17 H 0.7458 0.8235 0.7562
O30 O 0.6833(4) 0.9064(3) 0.7278(2)
H18 H 0.6433 0.9096 0.7199
O31 O 0.7753(4) 0.7437(3) 0.6684(2)
O32 O 0.8428(4) 0.6817(3) 0.6312(2)
O33 O 0.8619(10) 0.5800(7) 0.5898(4)
H19 H 0.8671 0.5645 0.5678
O34 O 0.8012(5) 0.6016(3) 0.7396(2)
H20 H 0.7845 0.5711 0.7353
O35 O 0.8433(4) 0.7121(3) 0.7401(2)
H21 H 0.8200 0.7397 0.7357
C1 C 0.7592(5) 0.5070(4) 0.6614(3)
H22 H 0.8095 0.5033 0.6642
C2 C 0.7236(5) 0.4743(4) 0.6953(3)
H23 H 0.7365 0.4354 0.6927
C3 C 0.6468(5) 0.4791(4) 0.6912(3)
H24 H 0.6340 0.5180 0.6944
C4 C 0.6233(5) 0.4601(4) 0.6504(3)
H25 H 0.6304 0.4202 0.6487
C5 C 0.6642(5) 0.4880(4) 0.6156(3)
H26 H 0.6505 0.5268 0.6135
C6 C 0.6515(7) 0.4586(6) 0.5744(3)
H27 H 0.6030 0.4617 0.5673
H28 H 0.6780 0.4769 0.5533
C7 C 0.5065(5) 0.4265(4) 0.6354(3)
H29 H 0.5318 0.3915 0.6355
C8 C 0.4511(5) 0.4257(5) 0.6694(3)
H30 H 0.4199 0.3949 0.6637
C9 C 0.4098(5) 0.4767(4) 0.6678(3)
H31 H 0.4396 0.5082 0.6740
C10 C 0.3784(5) 0.4843(4) 0.6263(3)
H32 H 0.3447 0.4550 0.6212
C11 C 0.4338(5) 0.4829(5) 0.5940(3)
H33 H 0.4631 0.5156 0.5964
C12 C 0.4030(6) 0.4798(5) 0.5502(3)
H34 H 0.3759 0.5127 0.5449
H35 H 0.4404 0.4787 0.5305
C13 C 0.2776(5) 0.5400(4) 0.6091(3)
H36 H 0.2622 0.5025 0.6029
C14 C 0.2302(6) 0.5648(4) 0.6423(3)
H37 H 0.1829 0.5648 0.6317
C15 C 0.2505(6) 0.6234(4) 0.6498(3)
H38 H 0.2977 0.6245 0.6606
C16 C 0.2473(5) 0.6564(4) 0.6109(3)
H39 H 0.1994 0.6588 0.6013
C17 C 0.2930(7) 0.6267(5) 0.5782(3)
H40 H 0.3412 0.6276 0.5874
C18 C 0.2891(8) 0.6538(5) 0.5375(4)
H41 H 0.3006 0.6925 0.5402
H42 H 0.3224 0.6370 0.5192
C19 C 0.2319(6) 0.7554(4) 0.6088(3)
H43 H 0.1855 0.7424 0.6018
C20 C 0.2276(4) 0.7928(3) 0.6464(3)
H44 H 0.1987 0.8249 0.6401
C21 C 0.3008(5) 0.8121(4) 0.6573(3)
H45 H 0.3303 0.7803 0.6632
C22 C 0.3297(5) 0.8445(4) 0.6207(3)
H46 H 0.3030 0.8783 0.6164
C23 C 0.3273(6) 0.8083(5) 0.5827(3)
H47 H 0.3607 0.7781 0.5851
C24 C 0.3426(7) 0.8426(6) 0.5453(3)
H48 H 0.3900 0.8555 0.5468
H49 H 0.3388 0.8193 0.5214
C25 C 0.4207(5) 0.9107(5) 0.6247(3)
H50 H 0.3807 0.9329 0.6166
C26 C 0.4497(6) 0.9332(5) 0.6651(4)
H51 H 0.4631 0.9717 0.6606
C27 C 0.5132(5) 0.9019(5) 0.6770(3)
H52 H 0.5013 0.8631 0.6816
C28 C 0.5648(6) 0.9059(5) 0.6440(3)
H53 H 0.5794 0.9444 0.6414
C29 C 0.5354(6) 0.8869(5) 0.6032(3)
H54 H 0.5251 0.8474 0.6050
C30 C 0.5847(7) 0.8961(8) 0.5680(4)
H55 H 0.6245 0.8723 0.5714
H56 H 0.5619 0.8859 0.5428
C31 C 0.6903(5) 0.8978(4) 0.6546(3)
H57 H 0.6845 0.9377 0.6513
C32 C 0.7251(5) 0.8861(4) 0.6956(3)
H58 H 0.7705 0.9039 0.6965
C33 C 0.7338(5) 0.8235(4) 0.6999(3)
H59 H 0.6883 0.8057 0.6999
C34 C 0.7762(5) 0.8023(4) 0.6649(3)
H60 H 0.8237 0.8159 0.6670
C35 C 0.7450(5) 0.8192(4) 0.6240(3)
H61 H 0.7012 0.7995 0.6202
C36 C 0.7926(7) 0.8060(5) 0.5880(4)
H62 H 0.7986 0.7665 0.5860
H63 H 0.7714 0.8189 0.5630
C37 C 0.8388(6) 0.7145(5) 0.6678(3)
H64 H 0.8770 0.7411 0.6679
C38 C 0.8450(6) 0.6784(5) 0.7042(3)
H65 H 0.8902 0.6601 0.7031
C39 C 0.7918(5) 0.6357(4) 0.7044(3)
H66 H 0.7461 0.6532 0.7056
C40 C 0.7966(6) 0.6004(4) 0.6654(3)
H67 H 0.8408 0.5808 0.6646
C41 C 0.7893(7) 0.6391(4) 0.6273(3)
H68 H 0.7436 0.6566 0.6276
C42 C 0.7979(10) 0.6088(7) 0.5898(4)
H69 H 0.7602 0.5828 0.5867
H70 H 0.7966 0.6342 0.5669
N1 N 0.4674(15) 0.6467(12) 0.4934(5)
H71 H 0.4832 0.6188 0.4802
H72 H 0.4378 0.6683 0.4821
N2 N 0.5963(16) 0.6931(10) 0.7819(4)
H73 H 0.5903 0.6641 0.7966
H74 H 0.6024 0.7246 0.7934
C43 C 0.4901(12) 0.6570(9) 0.5336(4)
C44 C 0.5380(10) 0.6220(7) 0.5517(4)
C45 C 0.5602(8) 0.6317(6) 0.5913(4)
H75 H 0.5922 0.6082 0.6034
C46 C 0.5344(7) 0.6765(6) 0.6130(4)
C47 C 0.4866(10) 0.7115(6) 0.5949(5)
H76 H 0.4693 0.7415 0.6094
C48 C 0.4644(12) 0.7018(8) 0.5553(5)
H77 H 0.4324 0.7253 0.5432
C49 C 0.5727(17) 0.5780(12) 0.5257(7)
H78 H 0.5507 0.5764 0.4995
H79 H 0.5686 0.5428 0.5389
H80 H 0.6207 0.5869 0.5223
C50 C 0.5960(13) 0.6891(7) 0.7386(4)
C51 C 0.5858(15) 0.6375(6) 0.7212(5)
C52 C 0.5609(13) 0.6331(5) 0.6816(4)
H81 H 0.5541 0.5986 0.6699
C53 C 0.5461(11) 0.6805(6) 0.6593(4)
C54 C 0.5563(13) 0.7321(6) 0.6767(4)
H82 H 0.5464 0.7637 0.6618
C55 C 0.5812(14) 0.7364(6) 0.7163(5)
H83 H 0.5879 0.7709 0.7279
C56 C 0.591(2) 0.5862(8) 0.7477(7)
H84 H 0.5831 0.5540 0.7313
H85 H 0.5574 0.5880 0.7691
H86 H 0.6366 0.5842 0.7594
O36 O 0.7259(4) 0.9508(3) 0.5220(2)
O37 O 0.9818(9) 0.7786(8) 0.6087(7)
O38 O 0.5854(10) 0.3189(7) 0.5658(6)
O39 O 0.4182(9) 0.3282(7) 0.7406(5)
O40 O 0.8704(10) 0.4863(5) 0.5393(4)
O41 O 1.020(3) 0.658(2) 0.8990(17)
O42 O 0.4234(11) 0.0345(9) 0.7300(7)
O43 O 0.9078(13) 0.5349(10) 0.8052(9)
O44 O 0.9497(17) 0.6639(14) 0.7887(10)
O45 O 1.0572(16) 0.7887(12) 0.6760(9)
O46 O 0.515(2) 1.0172(18) 0.5358(13)
O47 O 0.979(5) 0.548(4) 0.889(3)
loop_
_geom_bond_atom_site_label_1
_geom_bond_atom_site_label_2
_geom_bond_site_symmetry_1
_geom_bond_site_symmetry_2
O1 C1 1_555 1_555
O2 C1 1_555 1_555
O3 H1 1_555 1_555
O4 H2 1_555 1_555
O5 H3 1_555 1_555
O6 C4 1_555 1_555
O7 C7 1_555 1_555
O8 H4 1_555 1_555
O9 H5 1_555 1_555
O10 H6 1_555 1_555
O11 C10 1_555 1_555
O12 C13 1_555 1_555
O13 H7 1_555 1_555
O14 H8 1_555 1_555
O15 H9 1_555 1_555
O16 C16 1_555 1_555
O17 C19 1_555 1_555
O18 H10 1_555 1_555
O19 H11 1_555 1_555
O20 H12 1_555 1_555
O21 C22 1_555 1_555
O22 C25 1_555 1_555
O23 H13 1_555 1_555
O24 H14 1_555 1_555
O25 H15 1_555 1_555
O26 C28 1_555 1_555
O27 C31 1_555 1_555
O28 H16 1_555 1_555
O29 H17 1_555 1_555
O30 H18 1_555 1_555
O31 C34 1_555 1_555
O32 C37 1_555 1_555
O33 H19 1_555 1_555
O34 H20 1_555 1_555
O35 H21 1_555 1_555
C1 H22 1_555 1_555
C2 O5 1_555 1_555
H23 C2 1_555 1_555
C3 O4 1_555 1_555
H24 C3 1_555 1_555
C4 C3 1_555 1_555
H25 C4 1_555 1_555
C5 O2 1_555 1_555
H26 C5 1_555 1_555
C6 O3 1_555 1_555
H27 C6 1_555 1_555
H28 C6 1_555 1_555
C7 O6 1_555 1_555
H29 C7 1_555 1_555
C8 O10 1_555 1_555
H30 C8 1_555 1_555
C9 O9 1_555 1_555
H31 C9 1_555 1_555
C10 C9 1_555 1_555
H32 C10 1_555 1_555
C11 O7 1_555 1_555
H33 C11 1_555 1_555
C12 O8 1_555 1_555
H34 C12 1_555 1_555
H35 C12 1_555 1_555
C13 O11 1_555 1_555
H36 C13 1_555 1_555
C14 O15 1_555 1_555
H37 C14 1_555 1_555
C15 O14 1_555 1_555
H38 C15 1_555 1_555
C16 C15 1_555 1_555
H39 C16 1_555 1_555
C17 O12 1_555 1_555
H40 C17 1_555 1_555
C18 O13 1_555 1_555
H41 C18 1_555 1_555
H42 C18 1_555 1_555
C19 O16 1_555 1_555
H43 C19 1_555 1_555
C20 O20 1_555 1_555
H44 C20 1_555 1_555
C21 O19 1_555 1_555
H45 C21 1_555 1_555
C22 C21 1_555 1_555
H46 C22 1_555 1_555
C23 O17 1_555 1_555
H47 C23 1_555 1_555
C24 O18 1_555 1_555
H48 C24 1_555 1_555
H49 C24 1_555 1_555
C25 O21 1_555 1_555
H50 C25 1_555 1_555
C26 O25 1_555 1_555
H51 C26 1_555 1_555
C27 O24 1_555 1_555
H52 C27 1_555 1_555
C28 C27 1_555 1_555
H53 C28 1_555 1_555
C29 O22 1_555 1_555
H54 C29 1_555 1_555
C30 O23 1_555 1_555
H55 C30 1_555 1_555
H56 C30 1_555 1_555
C31 O26 1_555 1_555
H57 C31 1_555 1_555
C32 O30 1_555 1_555
H58 C32 1_555 1_555
C33 O29 1_555 1_555
H59 C33 1_555 1_555
C34 C33 1_555 1_555
H60 C34 1_555 1_555
C35 O27 1_555 1_555
H61 C35 1_555 1_555
C36 O28 1_555 1_555
H62 C36 1_555 1_555
H63 C36 1_555 1_555
C37 O31 1_555 1_555
H64 C37 1_555 1_555
C38 O35 1_555 1_555
H65 C38 1_555 1_555
C39 O34 1_555 1_555
H66 C39 1_555 1_555
C40 O1 1_555 1_555
H67 C40 1_555 1_555
C41 O32 1_555 1_555
H68 C41 1_555 1_555
C42 O33 1_555 1_555
H69 C42 1_555 1_555
H70 C42 1_555 1_555
N1 H71 1_555 1_555
H72 N1 1_555 1_555
N2 H73 1_555 1_555
H74 N2 1_555 1_555
C43 N1 1_555 1_555
C44 C43 1_555 1_555
C45 C44 1_555 1_555
H75 C45 1_555 1_555
C46 C45 1_555 1_555
C47 C46 1_555 1_555
H76 C47 1_555 1_555
C48 C43 1_555 1_555
H77 C48 1_555 1_555
C49 C44 1_555 1_555
H78 C49 1_555 1_555
H79 C49 1_555 1_555
H80 C49 1_555 1_555
C50 N2 1_555 1_555
C51 C50 1_555 1_555
C52 C51 1_555 1_555
H81 C52 1_555 1_555
C53 C46 1_555 1_555
C54 C53 1_555 1_555
H82 C54 1_555 1_555
C55 C50 1_555 1_555
H83 C55 1_555 1_555
C56 C51 1_555 1_555
H84 C56 1_555 1_555
H85 C56 1_555 1_555
H86 C56 1_555 1_555
C1 C2 1_555 1_555
C2 C3 1_555 1_555
C4 C5 1_555 1_555
C5 C6 1_555 1_555
C7 C8 1_555 1_555
C8 C9 1_555 1_555
C10 C11 1_555 1_555
C11 C12 1_555 1_555
C13 C14 1_555 1_555
C14 C15 1_555 1_555
C16 C17 1_555 1_555
C17 C18 1_555 1_555
C19 C20 1_555 1_555
C20 C21 1_555 1_555
C22 C23 1_555 1_555
C23 C24 1_555 1_555
C25 C26 1_555 1_555
C26 C27 1_555 1_555
C28 C29 1_555 1_555
C29 C30 1_555 1_555
C31 C32 1_555 1_555
C32 C33 1_555 1_555
C34 C35 1_555 1_555
C35 C36 1_555 1_555
C37 C38 1_555 1_555
C38 C39 1_555 1_555
C39 C40 1_555 1_555
C40 C41 1_555 1_555
C41 C42 1_555 1_555
C47 C48 1_555 1_555
C52 C53 1_555 1_555
C54 C55 1_555 1_555

#END
