
#######################################################################
#
#                 Cambridge Crystallographic Data Centre
#                                CCDC 
#
#######################################################################
#
# If this CIF has been generated from an entry in the Cambridge 
# Structural Database, then it will include bibliographic, chemical, 
# crystal, experimental, refinement or atomic coordinate data resulting 
# from the CCDC's data processing and validation procedures.
#
#######################################################################

data_LADLEJ
_chemical_formula_moiety         'C23 H24 Cl1 N1 O2 S1'
_chemical_name_systematic        
(3E)-3-(1-(3-Chlorophenyl)ethylidene)-1-((4-methylphenyl)sulfonyl)-2,3,3a,6,7,7a-hexahydro-1H-indole
_symmetry_cell_setting           triclinic
_symmetry_space_group_name_H-M   'P -1'
_symmetry_Int_Tables_number      2
_space_group_name_Hall           '-P 1'
loop_
_symmetry_equiv_pos_site_id
_symmetry_equiv_pos_as_xyz
1 x,y,z
2 -x,-y,-z
_cell_length_a                   9.8248(9)
_cell_length_b                   12.8482(12)
_cell_length_c                   17.4896(17)
_cell_angle_alpha                80.854(1)
_cell_angle_beta                 78.202(1)
_cell_angle_gamma                77.329(1)
_cell_volume                     2093.36
_exptl_crystal_colour            colorless
_chemical_melting_point          '123-124 deg.C'
_cell_formula_units_Z            4
loop_
_atom_site_label
_atom_site_type_symbol
_atom_site_fract_x
_atom_site_fract_y
_atom_site_fract_z
C1 C 0.2766(4) -0.1631(2) 0.20249(19)
H1 H 0.2194 -0.1597 0.2539
H2 H 0.3716 -0.1990 0.2073
H3 H 0.2379 -0.2021 0.1724
Cl1 Cl 0.65162(7) 0.37769(5) 0.44717(3)
N1 N 0.32564(18) 0.35585(13) 0.07385(9)
O1 O 0.3864(2) 0.26698(13) -0.04521(8)
S1 S 0.27763(6) 0.27913(4) 0.02274(3)
C2 C 0.2783(3) -0.05037(18) 0.16130(13)
O2 O 0.13458(19) 0.32251(13) 0.01316(11)
C3 C 0.1544(3) 0.0235(2) 0.15983(14)
H4 H 0.0696 0.0049 0.1869
C4 C 0.1529(2) 0.12442(19) 0.11912(14)
H5 H 0.0679 0.1735 0.1189
C5 C 0.2781(2) 0.15245(15) 0.07863(11)
C6 C 0.4044(2) 0.07948(17) 0.07970(13)
H6 H 0.4893 0.0980 0.0528
C7 C 0.4031(3) -0.02135(18) 0.12124(14)
H7 H 0.4880 -0.0705 0.1222
C8 C 0.4790(2) 0.35314(18) 0.06578(12)
H8 H 0.5146 0.3927 0.0164
H9 H 0.5319 0.2798 0.0683
C9 C 0.4899(2) 0.40626(15) 0.13498(11)
C10 C 0.3416(2) 0.44000(17) 0.17931(12)
H10 H 0.3410 0.4287 0.2361
C11 C 0.2567(2) 0.36680(17) 0.15743(11)
H11 H 0.2731 0.2966 0.1892
C12 C 0.0992(2) 0.4137(2) 0.16912(15)
H12 H 0.0643 0.4198 0.2246
H13 H 0.0503 0.3648 0.1534
C13 C 0.0649(3) 0.5234(2) 0.12236(18)
H14 H 0.0694 0.5147 0.0678
H15 H -0.0309 0.5583 0.1426
C14 C 0.1652(3) 0.5917(2) 0.12717(16)
H16 H 0.1422 0.6648 0.1105
C15 C 0.2850(3) 0.55550(19) 0.15355(15)
H17 H 0.3388 0.6055 0.1564
C16 C 0.6097(2) 0.42088(16) 0.15135(12)
C17 C 0.7510(3) 0.3920(2) 0.10002(15)
H18 H 0.7400 0.3591 0.0566
H19 H 0.8144 0.3426 0.1301
H20 H 0.7890 0.4558 0.0804
C18 C 0.6119(2) 0.47192(16) 0.22217(11)
C19 C 0.6095(3) 0.58099(18) 0.21703(14)
H21 H 0.6037 0.6239 0.1692
C20 C 0.6156(3) 0.62662(19) 0.28248(15)
H22 H 0.6127 0.7002 0.2781
C21 C 0.6260(2) 0.56591(19) 0.35349(14)
H23 H 0.6283 0.5971 0.3976
C22 C 0.6329(2) 0.45738(17) 0.35760(12)
C23 C 0.6253(2) 0.40949(17) 0.29379(12)
H24 H 0.6292 0.3358 0.2987
Cl2 Cl 0.80027(8) 0.11325(7) 0.01383(3)
N2 N 0.33587(15) 0.13394(12) 0.44135(8)
S2 S 0.23046(5) 0.21030(4) 0.50422(3)
O3 O 0.31463(15) 0.22239(12) 0.55893(8)
O4 O 0.10610(15) 0.16611(12) 0.53244(9)
C24 C 0.0451(3) 0.6501(2) 0.33304(16)
H25 H 0.0654 0.7033 0.3596
H26 H -0.0550 0.6622 0.3336
H27 H 0.0945 0.6550 0.2796
C25 C 0.0927(3) 0.54013(18) 0.37429(13)
C26 C 0.0053(3) 0.4666(2) 0.39381(15)
H28 H -0.0846 0.4855 0.3806
C27 C 0.0459(2) 0.36619(19) 0.43213(14)
H29 H -0.0156 0.3179 0.4441
C28 C 0.1780(2) 0.33731(15) 0.45267(11)
C29 C 0.2687(2) 0.40949(17) 0.43404(13)
H30 H 0.3582 0.3906 0.4478
C30 C 0.2257(3) 0.50963(19) 0.39500(14)
H31 H 0.2874 0.5578 0.3823
C31 C 0.48809(19) 0.13736(17) 0.42738(11)
H32 H 0.5323 0.0976 0.4708
H33 H 0.5026 0.2108 0.4202
C32 C 0.54675(18) 0.08503(14) 0.35290(10)
C33 C 0.42670(19) 0.05294(16) 0.32636(11)
H34 H 0.4361 0.0669 0.2690
C34 C 0.29434(19) 0.12606(16) 0.36556(11)
H35 H 0.2826 0.1971 0.3347
C35 C 0.1610(2) 0.08056(19) 0.37379(13)
H36 H 0.0809 0.1288 0.3999
H37 H 0.1435 0.0766 0.3218
C36 C 0.1726(2) -0.0299(2) 0.42007(15)
H38 H 0.1599 -0.0231 0.4757
H39 H 0.0977 -0.0632 0.4123
C37 C 0.3123(3) -0.09968(19) 0.39556(14)
H40 H 0.3216 -0.1732 0.4110
C38 C 0.4232(2) -0.06402(17) 0.35360(13)
H41 H 0.5051 -0.1142 0.3397
C39 C 0.68219(19) 0.07019(15) 0.31824(10)
C40 C 0.7962(2) 0.10148(19) 0.35067(13)
H42 H 0.7538 0.1403 0.3950
H43 H 0.8469 0.1462 0.3107
H44 H 0.8606 0.0380 0.3670
C41 C 0.73248(19) 0.01843(16) 0.24426(11)
C42 C 0.7385(2) 0.08087(17) 0.17219(11)
H45 H 0.7078 0.1550 0.1695
C43 C 0.7907(2) 0.0328(2) 0.10377(12)
C44 C 0.8354(2) -0.0771(2) 0.10554(15)
H46 H 0.8687 -0.1085 0.0592
C45 C 0.8295(3) -0.1385(2) 0.17708(16)
H47 H 0.8590 -0.2127 0.1795
C46 C 0.7802(2) -0.09137(18) 0.24599(14)
H48 H 0.7792 -0.1342 0.2942
loop_
_geom_bond_atom_site_label_1
_geom_bond_atom_site_label_2
_geom_bond_site_symmetry_1
_geom_bond_site_symmetry_2
C1 H1 1_555 1_555
H2 C1 1_555 1_555
H3 C1 1_555 1_555
Cl1 C22 1_555 1_555
N1 S1 1_555 1_555
O1 S1 1_555 1_555
S1 O2 1_555 1_555
C2 C1 1_555 1_555
Cl2 C43 1_555 1_555
N2 S2 1_555 1_555
S2 O3 1_555 1_555
C3 C2 1_555 1_555
H4 C3 1_555 1_555
C4 C3 1_555 1_555
H5 C4 1_555 1_555
O4 S2 1_555 1_555
C5 S1 1_555 1_555
C6 C5 1_555 1_555
H6 C6 1_555 1_555
C7 C2 1_555 1_555
H7 C7 1_555 1_555
C8 N1 1_555 1_555
H8 C8 1_555 1_555
H9 C8 1_555 1_555
C9 C8 1_555 1_555
C10 C9 1_555 1_555
H10 C10 1_555 1_555
C11 N1 1_555 1_555
H11 C11 1_555 1_555
C12 C11 1_555 1_555
H12 C12 1_555 1_555
H13 C12 1_555 1_555
C13 C12 1_555 1_555
H14 C13 1_555 1_555
H15 C13 1_555 1_555
C14 C13 1_555 1_555
H16 C14 1_555 1_555
C15 C10 1_555 1_555
H17 C15 1_555 1_555
C16 C9 1_555 1_555
C17 C16 1_555 1_555
H18 C17 1_555 1_555
H19 C17 1_555 1_555
H20 C17 1_555 1_555
C18 C16 1_555 1_555
C19 C18 1_555 1_555
H21 C19 1_555 1_555
C20 C19 1_555 1_555
H22 C20 1_555 1_555
C21 C20 1_555 1_555
H23 C21 1_555 1_555
C22 C21 1_555 1_555
C23 C18 1_555 1_555
H24 C23 1_555 1_555
C24 H25 1_555 1_555
H26 C24 1_555 1_555
H27 C24 1_555 1_555
C25 C24 1_555 1_555
C26 C25 1_555 1_555
H28 C26 1_555 1_555
C27 C26 1_555 1_555
H29 C27 1_555 1_555
C28 S2 1_555 1_555
C29 C28 1_555 1_555
H30 C29 1_555 1_555
C30 C25 1_555 1_555
H31 C30 1_555 1_555
C31 N2 1_555 1_555
H32 C31 1_555 1_555
H33 C31 1_555 1_555
C32 C31 1_555 1_555
C33 C32 1_555 1_555
H34 C33 1_555 1_555
C34 N2 1_555 1_555
H35 C34 1_555 1_555
C35 C34 1_555 1_555
H36 C35 1_555 1_555
H37 C35 1_555 1_555
C36 C35 1_555 1_555
H38 C36 1_555 1_555
H39 C36 1_555 1_555
C37 C36 1_555 1_555
H40 C37 1_555 1_555
C38 C33 1_555 1_555
H41 C38 1_555 1_555
C39 C32 1_555 1_555
C40 C39 1_555 1_555
H42 C40 1_555 1_555
H43 C40 1_555 1_555
H44 C40 1_555 1_555
C41 C39 1_555 1_555
C42 C41 1_555 1_555
H45 C42 1_555 1_555
C43 C42 1_555 1_555
C44 C43 1_555 1_555
H46 C44 1_555 1_555
C45 C44 1_555 1_555
H47 C45 1_555 1_555
C46 C41 1_555 1_555
H48 C46 1_555 1_555
C4 C5 1_555 1_555
C6 C7 1_555 1_555
C10 C11 1_555 1_555
C14 C15 1_555 1_555
C22 C23 1_555 1_555
C27 C28 1_555 1_555
C29 C30 1_555 1_555
C33 C34 1_555 1_555
C37 C38 1_555 1_555
C45 C46 1_555 1_555

#END
