
#######################################################################
#
#                 Cambridge Crystallographic Data Centre
#                                CCDC 
#
#######################################################################
#
# If this CIF has been generated from an entry in the Cambridge 
# Structural Database, then it will include bibliographic, chemical, 
# crystal, experimental, refinement or atomic coordinate data resulting 
# from the CCDC's data processing and validation procedures.
#
#######################################################################

data_LAFDON01
_chemical_formula_moiety         'C24 H16 N2 O4,6(H2 O1)'
_chemical_name_systematic        
"4,4'-([4,4'-bipyridin-1-ium]-1,1'-diyl)dibenzoate hexahydrate"
_symmetry_cell_setting           monoclinic
_symmetry_space_group_name_H-M   'P 21/c'
_symmetry_Int_Tables_number      14
_space_group_name_Hall           '-P 2ybc'
loop_
_symmetry_equiv_pos_site_id
_symmetry_equiv_pos_as_xyz
1 x,y,z
2 -x,1/2+y,1/2-z
3 -x,-y,-z
4 x,1/2-y,1/2+z
_cell_length_a                   6.2410(4)
_cell_length_b                   27.3263(16)
_cell_length_c                   6.9456(4)
_cell_angle_alpha                90
_cell_angle_beta                 99.4148(19)
_cell_angle_gamma                90
_cell_volume                     1168.57
_exptl_crystal_colour            yellow
_exptl_crystal_description       prism
_cell_formula_units_Z            2
loop_
_atom_site_label
_atom_site_type_symbol
_atom_site_fract_x
_atom_site_fract_y
_atom_site_fract_z
C1 C 0.5521(2) 0.17693(5) 0.4154(2)
C2 C 0.6241(2) 0.23002(5) 0.42667(19)
C3 C 0.8419(2) 0.24271(5) 0.4637(2)
H1 H 0.9472 0.2183 0.4791
C4 C 0.9041(2) 0.29130(5) 0.4779(2)
H2 H 1.0506 0.2996 0.5021
C5 C 0.7476(2) 0.32742(5) 0.45616(19)
C6 C 0.5295(2) 0.31574(5) 0.4175(2)
H3 H 0.4245 0.3402 0.4027
C7 C 0.4705(2) 0.26698(5) 0.4013(2)
H4 H 0.3240 0.2588 0.3727
C8 C 0.9966(2) 0.39064(5) 0.5975(2)
H5 H 1.0714 0.3668 0.6773
C9 C 1.0715(2) 0.43772(5) 0.6082(2)
H6 H 1.1988 0.4453 0.6925
C10 C 0.9602(2) 0.47443(5) 0.4950(2)
C11 C 0.7706(2) 0.46083(5) 0.3713(2)
H7 H 0.6886 0.4844 0.2957
C12 C 0.7041(2) 0.41304(5) 0.3604(2)
H8 H 0.5799 0.4044 0.2740
N1 N 0.81560(18) 0.37827(4) 0.47272(16)
O1 O 0.69726(18) 0.14480(4) 0.4419(2)
O2 O 0.35268(17) 0.16886(4) 0.38132(17)
C1B C 1.4479(2) 0.82307(5) 0.5846(2)
C2B C 1.3759(2) 0.76998(5) 0.57333(19)
C3B C 1.1581(2) 0.75729(5) 0.5363(2)
H1B H 1.0528 0.7817 0.5209
C4B C 1.0959(2) 0.70870(5) 0.5221(2)
H2B H 0.9494 0.7004 0.4979
C5B C 1.2524(2) 0.67258(5) 0.54384(19)
C6B C 1.4705(2) 0.68426(5) 0.5825(2)
H3B H 1.5755 0.6598 0.5973
C7B C 1.5295(2) 0.73302(5) 0.5987(2)
H4B H 1.6760 0.7412 0.6273
C8B C 1.0034(2) 0.60936(5) 0.4025(2)
H5B H 0.9286 0.6332 0.3227
C9B C 0.9285(2) 0.56228(5) 0.3918(2)
H6B H 0.8012 0.5547 0.3075
C10B C 1.0398(2) 0.52557(5) 0.5050(2)
C11B C 1.2294(2) 0.53917(5) 0.6287(2)
H7B H 1.3114 0.5156 0.7043
C12B C 1.2959(2) 0.58696(5) 0.6396(2)
H8B H 1.4201 0.5956 0.7260
N1B N 1.18440(18) 0.62173(4) 0.52728(16)
O1B O 1.30274(18) 0.85520(4) 0.5581(2)
O2B O 1.64732(17) 0.83114(4) 0.61868(17)
O3 O 0.5380(12) 0.0520(2) 0.380(2)
H9 H 0.593(3) 0.0823(5) 0.372(3)
H10 H 0.641(3) 0.0337(6) 0.349(3)
O4 O 0.1120(2) 0.12364(6) 0.6287(2)
H11 H -0.025(4) 0.1306(8) 0.570(3)
H12 H 0.195(4) 0.1362(8) 0.548(3)
O5 O 0.2259(13) 0.0322(2) 0.6086(6)
H13 H 0.316(7) 0.0361(16) 0.525(6)
H14 H 0.178(8) 0.0618(10) 0.627(7)
O6? O 0.5536(18) 0.0564(5) 0.295(5)
O7? O 0.1289(11) 0.0141(3) 0.5847(7)
H15? H 0.100(9) 0.0449(8) 0.568(9)
H16? H 0.0000 0.0000 0.5000
loop_
_geom_bond_atom_site_label_1
_geom_bond_atom_site_label_2
_geom_bond_site_symmetry_1
_geom_bond_site_symmetry_2
C1 C2 1_555 1_555
C2 C3 1_555 1_555
C3 H1 1_555 1_555
C4 C3 1_555 1_555
H2 C4 1_555 1_555
C5 C4 1_555 1_555
C6 C5 1_555 1_555
H3 C6 1_555 1_555
C7 C2 1_555 1_555
H4 C7 1_555 1_555
C8 H5 1_555 1_555
C9 C8 1_555 1_555
H6 C9 1_555 1_555
C10 C9 1_555 1_555
C11 C10 1_555 1_555
H7 C11 1_555 1_555
C12 C11 1_555 1_555
H8 C12 1_555 1_555
N1 C5 1_555 1_555
O1 C1 1_555 1_555
O2 C1 1_555 1_555
O3 H9 1_555 1_555
H10 O3 1_555 1_555
O4 H11 1_555 1_555
H12 O4 1_555 1_555
O5 H13 1_555 1_555
H14 O5 1_555 1_555
C1B C2B 1_555 1_555
C2B C3B 1_555 1_555
C3B H1B 1_555 1_555
C4B C3B 1_555 1_555
H2B C4B 1_555 1_555
C5B C4B 1_555 1_555
C6B C5B 1_555 1_555
H3B C6B 1_555 1_555
C7B C2B 1_555 1_555
H4B C7B 1_555 1_555
C8B H5B 1_555 1_555
C9B C8B 1_555 1_555
H6B C9B 1_555 1_555
C10B C10 1_555 1_555
C11B C10B 1_555 1_555
H7B C11B 1_555 1_555
C12B C11B 1_555 1_555
H8B C12B 1_555 1_555
N1B C5B 1_555 1_555
O1B C1B 1_555 1_555
O2B C1B 1_555 1_555
C6 C7 1_555 1_555
C8 N1 1_555 1_555
C12 N1 1_555 1_555
C6B C7B 1_555 1_555
C8B N1B 1_555 1_555
C9B C10B 1_555 1_555
C12B N1B 1_555 1_555

#END
