
#######################################################################
#
#                 Cambridge Crystallographic Data Centre
#                                CCDC 
#
#######################################################################
#
# If this CIF has been generated from an entry in the Cambridge 
# Structural Database, then it will include bibliographic, chemical, 
# crystal, experimental, refinement or atomic coordinate data resulting 
# from the CCDC's data processing and validation procedures.
#
#######################################################################

data_LAFVEW
_chemical_formula_moiety         'C17 H10 O3'
_chemical_name_systematic        
naphtho[1',2':4,5]furo[2,3-f][1,3]benzodioxole
_symmetry_cell_setting           orthorhombic
_symmetry_space_group_name_H-M   'P 21 21 21'
_symmetry_Int_Tables_number      19
_space_group_name_Hall           'P 2ac 2ab'
loop_
_symmetry_equiv_pos_site_id
_symmetry_equiv_pos_as_xyz
1 x,y,z
2 1/2+x,1/2-y,-z
3 -x,1/2+y,1/2-z
4 1/2-x,-y,1/2+z
_cell_length_a                   3.9329(11)
_cell_length_b                   21.721(7)
_cell_length_c                   27.730(8)
_cell_angle_alpha                90
_cell_angle_beta                 90
_cell_angle_gamma                90
_cell_volume                     2368.88
_exptl_crystal_colour            colorless
_cell_formula_units_Z            8
loop_
_atom_site_label
_atom_site_type_symbol
_atom_site_fract_x
_atom_site_fract_y
_atom_site_fract_z
O1 O 0.5886(11) 0.56987(16) 0.84107(12)
O2 O 0.3164(11) 0.57010(18) 0.76744(13)
O3 O 0.4782(10) 0.34972(18) 0.75182(12)
C1 C 1.1956(18) 0.2286(3) 0.9322(2)
H1 H 1.2895 0.2036 0.9560
C2 C 1.1606(17) 0.2916(3) 0.9399(2)
H2 H 1.2351 0.3088 0.9687
C3 C 1.0189(13) 0.3283(3) 0.90571(18)
H3 H 0.9983 0.3703 0.9115
C4 C 0.9022(14) 0.3040(3) 0.86161(18)
C5 C 0.7466(13) 0.3395(2) 0.82478(18)
C6 C 0.6565(14) 0.4038(2) 0.81806(17)
C7 C 0.7030(14) 0.4586(2) 0.84422(18)
H4 H 0.8105 0.4594 0.8741
C8 C 0.5799(14) 0.5102(2) 0.82282(18)
C9 C 0.4882(17) 0.6083(3) 0.80154(19)
H5 H 0.3383 0.6407 0.8127
H6 H 0.6864 0.6271 0.7868
C10 C 0.4209(14) 0.5109(3) 0.77841(19)
C11 C 0.4967(14) 0.4068(3) 0.77362(18)
C12 C 0.6345(16) 0.3101(3) 0.78390(19)
C13 C 1.0919(17) 0.2037(3) 0.8897(2)
H7 H 1.1223 0.1618 0.8844
C14 C 0.9390(15) 0.2400(3) 0.8536(2)
C15 C 0.8236(17) 0.2130(3) 0.8098(2)
H8 H 0.8534 0.1709 0.8049
C16 C 0.6705(17) 0.2473(3) 0.7748(2)
H9 H 0.5937 0.2296 0.7463
C17 C 0.3665(14) 0.4594(3) 0.75198(18)
H10 H 0.2539 0.4593 0.7225
O4 O 0.1207(12) 0.70370(17) 0.94161(12)
O5 O -0.1166(11) 0.70180(17) 0.86524(13)
O6 O 0.1624(10) 0.91776(16) 0.84205(11)
C18 C -0.0655(16) 0.6675(3) 0.90811(19)
H11 H 0.0591 0.6300 0.9009
H12 H -0.2833 0.6561 0.9219
C19 C 0.1463(15) 0.7619(3) 0.92093(18)
C20 C 0.2893(14) 0.8129(2) 0.94086(17)
H13 H 0.3815 0.8128 0.9717
C21 C 0.2885(13) 0.8659(2) 0.91164(17)
C22 C 0.4062(13) 0.9286(2) 0.91618(18)
C23 C 0.5704(14) 0.9637(2) 0.95304(18)
C24 C 0.6400(15) 1.0268(3) 0.94307(19)
C25 C 0.7985(15) 1.0626(3) 0.9789(2)
H14 H 0.8461 1.1038 0.9727
C26 C 0.8828(16) 1.0384(3) 1.0220(2)
H15 H 0.9819 1.0632 1.0454
C27 C 0.0066(15) 0.7603(2) 0.87515(19)
C28 C -0.0025(14) 0.8101(3) 0.84571(17)
H16 H -0.0969 0.8094 0.8150
C29 C 0.1414(15) 0.8619(2) 0.86576(18)
C30 C 0.3253(15) 0.9572(3) 0.87381(18)
C31 C 0.5471(15) 1.0522(3) 0.8979(2)
H17 H 0.5970 1.0933 0.8919
C32 C 0.3885(15) 1.0190(2) 0.8632(2)
H18 H 0.3252 1.0364 0.8339
C33 C 0.8225(16) 0.9762(3) 1.0318(2)
H19 H 0.8872 0.9596 1.0613
C34 C 0.6691(14) 0.9401(2) 0.99818(18)
H20 H 0.6286 0.8989 1.0052
loop_
_geom_bond_atom_site_label_1
_geom_bond_atom_site_label_2
_geom_bond_site_symmetry_1
_geom_bond_site_symmetry_2
O1 C8 1_555 1_555
O2 C9 1_555 1_555
O3 C11 1_555 1_555
C1 H1 1_555 1_555
C2 C1 1_555 1_555
H2 C2 1_555 1_555
C3 C2 1_555 1_555
H3 C3 1_555 1_555
C4 C3 1_555 1_555
C5 C4 1_555 1_555
C6 C5 1_555 1_555
C7 C6 1_555 1_555
H4 C7 1_555 1_555
C8 C7 1_555 1_555
C9 O1 1_555 1_555
H5 C9 1_555 1_555
H6 C9 1_555 1_555
C10 O2 1_555 1_555
C11 C6 1_555 1_555
C12 O3 1_555 1_555
C13 C1 1_555 1_555
H7 C13 1_555 1_555
C14 C4 1_555 1_555
C15 C14 1_555 1_555
H8 C15 1_555 1_555
C16 C12 1_555 1_555
H9 C16 1_555 1_555
C17 C10 1_555 1_555
H10 C17 1_555 1_555
O4 C18 1_555 1_555
O5 C18 1_555 1_555
O6 C29 1_555 1_555
C18 H11 1_555 1_555
H12 C18 1_555 1_555
C19 O4 1_555 1_555
C20 C19 1_555 1_555
H13 C20 1_555 1_555
C21 C20 1_555 1_555
C22 C21 1_555 1_555
C23 C22 1_555 1_555
C24 C23 1_555 1_555
C25 C24 1_555 1_555
H14 C25 1_555 1_555
C26 C25 1_555 1_555
H15 C26 1_555 1_555
C27 O5 1_555 1_555
C28 C27 1_555 1_555
H16 C28 1_555 1_555
C29 C21 1_555 1_555
C30 O6 1_555 1_555
C31 C24 1_555 1_555
H17 C31 1_555 1_555
C32 C30 1_555 1_555
H18 C32 1_555 1_555
C33 C26 1_555 1_555
H19 C33 1_555 1_555
C34 C23 1_555 1_555
H20 C34 1_555 1_555
C5 C12 1_555 1_555
C8 C10 1_555 1_555
C11 C17 1_555 1_555
C13 C14 1_555 1_555
C15 C16 1_555 1_555
C19 C27 1_555 1_555
C22 C30 1_555 1_555
C28 C29 1_555 1_555
C31 C32 1_555 1_555
C33 C34 1_555 1_555

#END
