
#######################################################################
#
#                 Cambridge Crystallographic Data Centre
#                                CCDC 
#
#######################################################################
#
# If this CIF has been generated from an entry in the Cambridge 
# Structural Database, then it will include bibliographic, chemical, 
# crystal, experimental, refinement or atomic coordinate data resulting 
# from the CCDC's data processing and validation procedures.
#
#######################################################################

data_LAFXOG
_chemical_formula_moiety         'C17 H22 O5'
_chemical_name_systematic        
'(1RS,2SR)-1-(2-Carboxy-4-methyl-5-methoxyphenyl)-1,2-dimethylcyclopentane-2-carboxylic acid'
_symmetry_cell_setting           orthorhombic
_symmetry_space_group_name_H-M   'P 21 21 21'
_symmetry_Int_Tables_number      19
_space_group_name_Hall           'P 2ac 2ab'
loop_
_symmetry_equiv_pos_site_id
_symmetry_equiv_pos_as_xyz
1 x,y,z
2 1/2-x,-y,1/2+z
3 1/2+x,1/2-y,-z
4 -x,1/2+y,1/2-z
_cell_length_a                   7.8250(9)
_cell_length_b                   11.7880(14)
_cell_length_c                   17.3720(12)
_cell_angle_alpha                90
_cell_angle_beta                 90
_cell_angle_gamma                90
_cell_volume                     1602.41
_exptl_crystal_colour            colorless
_exptl_crystal_description       blocks
_chemical_melting_point          511-513K
_cell_formula_units_Z            4
_exptl_crystal_recrystallization_method 'ethyl acetate/light petroleum'
loop_
_atom_site_label
_atom_site_type_symbol
_atom_site_fract_x
_atom_site_fract_y
_atom_site_fract_z
O1 O 0.1378(4) 0.6405(3) 0.67516(15)
O2 O 0.4134(4) 0.6111(3) 0.68604(16)
H1 H 0.4040 0.6047 0.6388
O3 O 0.2360(5) 0.81252(19) 1.01410(12)
O4 O 0.3519(4) 0.3719(3) 1.02277(16)
O5 O 0.0891(5) 0.4288(3) 1.03699(16)
H2 H 0.1026 0.4035 1.0803
C1 C 0.2607(5) 0.6679(3) 0.79704(15)
C2 C 0.2433(5) 0.7850(3) 0.80871(17)
H3 H 0.2371 0.8319 0.7658
C3 C 0.2348(5) 0.8338(3) 0.88039(18)
C4 C 0.2470(5) 0.7612(3) 0.94343(16)
C5 C 0.2680(6) 0.6466(3) 0.93303(17)
H4 H 0.2785 0.6007 0.9763
C6 C 0.2744(6) 0.5958(3) 0.86045(17)
C7 C 0.3154(5) 0.4671(3) 0.85780(18)
C8 C 0.2699(7) 0.4081(3) 0.77814(17)
H5 H 0.1692 0.4429 0.7557
H6 H 0.3641 0.4163 0.7423
C9 C 0.2370(6) 0.2835(3) 0.79471(18)
H7 H 0.1331 0.2584 0.7695
H8 H 0.3315 0.2374 0.7767
C10 C 0.2194(7) 0.2749(3) 0.88104(19)
H9 H 0.3244 0.2474 0.9041
H10 H 0.1270 0.2239 0.8948
C11 C 0.1793(5) 0.3997(3) 0.90854(18)
C12 C 0.2687(5) 0.6361(3) 0.71400(17)
C13 C 0.2090(8) 0.9594(3) 0.8922(2)
H11 H 0.3181 0.9959 0.8971
H12 H 0.1434 0.9717 0.9381
H13 H 0.1490 0.9904 0.8488
C14 C 0.2412(7) 0.7433(4) 1.08111(19)
H14 H 0.3515 0.7082 1.0851
H15 H 0.1547 0.6858 1.0776
H16 H 0.2209 0.7893 1.1258
C15 C 0.4976(4) 0.4426(4) 0.8817(2)
H17 H 0.5725 0.4551 0.8387
H18 H 0.5067 0.3652 0.8982
H19 H 0.5293 0.4921 0.9232
C16 C -0.0056(4) 0.4405(4) 0.8867(2)
H20 H -0.0354 0.5052 0.9174
H21 H -0.0856 0.3804 0.8961
H22 H -0.0086 0.4609 0.8332
C17 C 0.2100(7) 0.3997(3) 0.9958(2)
H23? H 0.1607 0.6340 0.6300
H24? H 0.3410 0.3550 1.0677
loop_
_geom_bond_atom_site_label_1
_geom_bond_atom_site_label_2
_geom_bond_site_symmetry_1
_geom_bond_site_symmetry_2
O1 C12 1_555 1_555
O2 H1 1_555 1_555
O3 C4 1_555 1_555
O4 C17 1_555 1_555
O5 H2 1_555 1_555
C1 C2 1_555 1_555
C2 H3 1_555 1_555
C3 C2 1_555 1_555
C4 C3 1_555 1_555
C5 C4 1_555 1_555
H4 C5 1_555 1_555
C6 C1 1_555 1_555
C7 C6 1_555 1_555
C8 C7 1_555 1_555
H5 C8 1_555 1_555
H6 C8 1_555 1_555
C9 C8 1_555 1_555
H7 C9 1_555 1_555
H8 C9 1_555 1_555
C10 C9 1_555 1_555
H9 C10 1_555 1_555
H10 C10 1_555 1_555
C11 C7 1_555 1_555
C12 O2 1_555 1_555
C13 C3 1_555 1_555
H11 C13 1_555 1_555
H12 C13 1_555 1_555
H13 C13 1_555 1_555
C14 O3 1_555 1_555
H14 C14 1_555 1_555
H15 C14 1_555 1_555
H16 C14 1_555 1_555
C15 C7 1_555 1_555
H17 C15 1_555 1_555
H18 C15 1_555 1_555
H19 C15 1_555 1_555
C16 C11 1_555 1_555
H20 C16 1_555 1_555
H21 C16 1_555 1_555
H22 C16 1_555 1_555
C17 O5 1_555 1_555
C1 C12 1_555 1_555
C5 C6 1_555 1_555
C10 C11 1_555 1_555
C11 C17 1_555 1_555

#END
