
#######################################################################
#
#                 Cambridge Crystallographic Data Centre
#                                CCDC 
#
#######################################################################
#
# If this CIF has been generated from an entry in the Cambridge 
# Structural Database, then it will include bibliographic, chemical, 
# crystal, experimental, refinement or atomic coordinate data resulting 
# from the CCDC's data processing and validation procedures.
#
#######################################################################

data_LAGKEL
_chemical_formula_moiety         'C27 H27 N3 O6'
_chemical_name_systematic        
N,N'-((Methylimino)dipropane-3,1-diyl)bis(2-oxo-2H-chromene-3-carboxamide)
_symmetry_cell_setting           triclinic
_symmetry_space_group_name_H-M   'P -1'
_symmetry_Int_Tables_number      2
_space_group_name_Hall           '-P 1'
loop_
_symmetry_equiv_pos_site_id
_symmetry_equiv_pos_as_xyz
1 x,y,z
2 -x,-y,-z
_cell_length_a                   8.8180(12)
_cell_length_b                   10.3898(16)
_cell_length_c                   13.700(2)
_cell_angle_alpha                108.898(14)
_cell_angle_beta                 94.452(14)
_cell_angle_gamma                90.70(2)
_cell_volume                     1182.99
_exptl_crystal_colour            colorless
_exptl_crystal_description       block
_cell_formula_units_Z            2
loop_
_atom_site_label
_atom_site_type_symbol
_atom_site_fract_x
_atom_site_fract_y
_atom_site_fract_z
O1 O 0.58889(12) 0.24942(11) 0.37853(9)
O2 O 0.59935(13) 0.11886(11) 0.21708(9)
O3 O 0.26874(12) -0.15407(11) 0.25098(9)
O4 O 1.13568(12) 0.45446(11) 0.56379(9)
O5 O 1.13991(12) 0.32164(11) 0.40259(9)
O6 O 0.81720(13) 0.04865(12) 0.44940(9)
N1 N 0.45897(16) -0.14179(14) 0.15363(11)
N2 N 0.96640(16) 0.08341(14) 0.33426(11)
N3 N 0.72775(15) -0.15936(14) 0.03646(11)
C1 C 0.43743(17) 0.03845(16) 0.31879(13)
C2 C 0.38663(17) 0.06860(16) 0.41328(13)
C3 C 0.43619(17) 0.18926(16) 0.49629(13)
C4 C 0.38765(18) 0.22381(17) 0.59596(14)
C5 C 0.4416(2) 0.34279(18) 0.67124(14)
C6 C 0.54571(19) 0.42817(18) 0.64808(14)
C7 C 0.59549(19) 0.39664(17) 0.55088(14)
C8 C 0.54024(17) 0.27775(16) 0.47572(13)
C9 C 0.54512(18) 0.13204(17) 0.29838(14)
C10 C 0.38188(18) -0.09287(16) 0.23795(13)
C11 C 0.41540(19) -0.27444(17) 0.07774(13)
C12 C 0.48601(19) -0.29984(18) -0.02422(14)
C13 C 0.65842(19) -0.29602(18) -0.01582(14)
C14 C 0.97983(17) 0.24593(16) 0.50815(13)
C15 C 0.93572(17) 0.27580(16) 0.60412(13)
C16 C 0.99368(17) 0.39436(16) 0.68642(13)
C17 C 0.95632(18) 0.42646(17) 0.78868(13)
C18 C 1.01936(19) 0.54191(17) 0.86346(14)
C19 C 1.11874(19) 0.62765(17) 0.83647(14)
C20 C 1.15731(18) 0.59898(17) 0.73686(14)
C21 C 1.09496(17) 0.48207(16) 0.66296(13)
C22 C 1.08822(17) 0.33694(17) 0.48467(14)
C23 C 0.91550(18) 0.11783(17) 0.42792(13)
C24 C 0.91192(19) -0.04075(16) 0.25261(13)
C25 C 0.95615(19) -0.03980(18) 0.14912(13)
C26 C 0.89143(19) -0.16558(18) 0.06266(13)
C27 C 0.7041(2) -0.07386(19) -0.02934(15)
H1 H 0.5473(19) -0.0969(17) 0.1458(13)
H2 H 0.31520 0.00750 0.42530
H3 H 0.31730 0.16510 0.61190
H4 H 0.40770 0.36650 0.73880
H5 H 0.58300 0.50960 0.70040
H6 H 0.66650 0.45540 0.53560
H7 H 0.30320 -0.28170 0.06410
H8 H 0.44630 -0.34630 0.10740
H9 H 0.44830 -0.39000 -0.07210
H10 H 0.45060 -0.23050 -0.05520
H11 H 0.69460 -0.35730 0.02260
H12 H 0.69320 -0.33130 -0.08630
H13 H 1.039(2) 0.1384(18) 0.3235(14)
H14 H 0.86380 0.21650 0.61790
H15 H 0.88730 0.36850 0.80660
H16 H 0.99520 0.56300 0.93320
H17 H 1.16070 0.70780 0.88830
H18 H 1.22510 0.65800 0.71920
H19 H 0.79970 -0.04960 0.25050
H20 H 0.95540 -0.12030 0.26780
H21 H 1.06850 -0.03640 0.15000
H22 H 0.91800 0.04270 0.13580
H23 H 0.94600 -0.17600 0.00020
H24 H 0.90970 -0.24690 0.08400
H25 H 0.75050 -0.11520 -0.09450
H26 H 0.75120 0.01680 0.00640
H27 H 0.59470 -0.06600 -0.04410
loop_
_geom_bond_atom_site_label_1
_geom_bond_atom_site_label_2
_geom_bond_site_symmetry_1
_geom_bond_site_symmetry_2
O1 C8 1_555 1_555
O2 C9 1_555 1_555
O3 C10 1_555 1_555
O4 C21 1_555 1_555
O5 C22 1_555 1_555
O6 C23 1_555 1_555
N1 C10 1_555 1_555
N2 C23 1_555 1_555
N3 C13 1_555 1_555
C1 C2 1_555 1_555
C2 C3 1_555 1_555
C3 C4 1_555 1_555
C4 C5 1_555 1_555
C5 C6 1_555 1_555
C6 C7 1_555 1_555
C7 C8 1_555 1_555
C8 C3 1_555 1_555
C9 O1 1_555 1_555
C10 C1 1_555 1_555
C11 N1 1_555 1_555
C12 C11 1_555 1_555
C13 C12 1_555 1_555
C14 C15 1_555 1_555
C15 C16 1_555 1_555
C16 C17 1_555 1_555
C17 C18 1_555 1_555
C18 C19 1_555 1_555
C19 C20 1_555 1_555
C20 C21 1_555 1_555
C21 C16 1_555 1_555
C22 O4 1_555 1_555
C23 C14 1_555 1_555
C24 N2 1_555 1_555
C25 C24 1_555 1_555
C26 N3 1_555 1_555
C27 N3 1_555 1_555
H1 N1 1_555 1_555
H2 C2 1_555 1_555
H3 C4 1_555 1_555
H4 C5 1_555 1_555
H5 C6 1_555 1_555
H6 C7 1_555 1_555
H7 C11 1_555 1_555
H8 C11 1_555 1_555
H9 C12 1_555 1_555
H10 C12 1_555 1_555
H11 C13 1_555 1_555
H12 C13 1_555 1_555
H13 N2 1_555 1_555
H14 C15 1_555 1_555
H15 C17 1_555 1_555
H16 C18 1_555 1_555
H17 C19 1_555 1_555
H18 C20 1_555 1_555
H19 C24 1_555 1_555
H20 C24 1_555 1_555
H21 C25 1_555 1_555
H22 C25 1_555 1_555
H23 C26 1_555 1_555
H24 C26 1_555 1_555
H25 C27 1_555 1_555
H26 C27 1_555 1_555
H27 C27 1_555 1_555
C1 C9 1_555 1_555
C14 C22 1_555 1_555
C25 C26 1_555 1_555

#END
