
#######################################################################
#
#                 Cambridge Crystallographic Data Centre
#                                CCDC 
#
#######################################################################
#
# If this CIF has been generated from an entry in the Cambridge 
# Structural Database, then it will include bibliographic, chemical, 
# crystal, experimental, refinement or atomic coordinate data resulting 
# from the CCDC's data processing and validation procedures.
#
#######################################################################

data_LAHMEP
_chemical_formula_moiety         'C26 H25 N1 O4'
_chemical_name_systematic        
(2R,10bR)-2-hydroxy-8,9-dimethoxy-2,10b-diphenyl-1,5,6,10b-tetrahydropyrrolo[2,1-a]isoquinolin-3(2H)-one
_symmetry_cell_setting           orthorhombic
_symmetry_space_group_name_H-M   'P 21 21 21'
_symmetry_Int_Tables_number      19
_space_group_name_Hall           'P 2ac 2ab'
loop_
_symmetry_equiv_pos_site_id
_symmetry_equiv_pos_as_xyz
1 x,y,z
2 1/2-x,-y,1/2+z
3 1/2+x,1/2-y,-z
4 -x,1/2+y,1/2-z
_cell_length_a                   7.74745(8)
_cell_length_b                   13.55748(16)
_cell_length_c                   21.4661(2)
_cell_angle_alpha                90
_cell_angle_beta                 90
_cell_angle_gamma                90
_cell_volume                     2254.71
_exptl_crystal_colour            colorless
_exptl_crystal_description       block
_cell_formula_units_Z            4
loop_
_atom_site_label
_atom_site_type_symbol
_atom_site_fract_x
_atom_site_fract_y
_atom_site_fract_z
O1 O 0.59696(15) 0.37425(8) 0.55139(5)
H1 H 0.6356 0.3297 0.5297
O2 O 0.28650(16) 0.25963(10) 0.51523(6)
O3 O 0.23481(17) 0.85511(9) 0.54452(7)
O4 O 0.41596(16) 0.80727(8) 0.64050(6)
N1 N 0.18937(17) 0.38730(9) 0.57534(6)
C1 C 0.4299(2) 0.41741(12) 0.64056(7)
H2 H 0.5133 0.4705 0.6374
H3 H 0.4319 0.3920 0.6828
C2 C 0.47387(19) 0.33493(11) 0.59387(7)
C3 C 0.3058(2) 0.32019(11) 0.55724(7)
C4 C 0.0377(2) 0.41377(12) 0.53882(8)
H4 H -0.0597 0.4259 0.5661
H5 H 0.0077 0.3604 0.5107
C5 C 0.0806(2) 0.50631(13) 0.50198(8)
H6 H 0.1598 0.4897 0.4686
H7 H -0.0240 0.5323 0.4834
C6 C 0.1615(2) 0.58451(12) 0.54302(7)
C7 C 0.1550(2) 0.68368(13) 0.52440(8)
H8 H 0.0955 0.7004 0.4883
C8 C 0.2350(2) 0.75703(12) 0.55848(8)
C9 C 0.3293(2) 0.73124(12) 0.61257(7)
C10 C 0.32990(19) 0.63450(11) 0.63228(7)
H9 H 0.3868 0.6180 0.6690
C11 C 0.24635(19) 0.56047(11) 0.59808(7)
C12 C 0.24531(19) 0.45586(11) 0.62392(7)
C13 C 0.5412(2) 0.24147(11) 0.62435(7)
C14 C 0.7113(3) 0.23974(14) 0.64461(10)
H10 H 0.7801 0.2953 0.6395
C15 C 0.7797(3) 0.15622(16) 0.67234(11)
H11 H 0.8938 0.1562 0.6858
C16 C 0.6794(3) 0.07292(14) 0.68016(9)
H12 H 0.7255 0.0167 0.6986
C17 C 0.5102(3) 0.07389(14) 0.66037(9)
H13 H 0.4419 0.0181 0.6656
C18 C 0.4408(2) 0.15779(13) 0.63252(8)
H14 H 0.3264 0.1577 0.6193
C19 C 0.1416(4) 0.88420(17) 0.48994(13)
H15 H 0.0217 0.8682 0.4950
H16 H 0.1868 0.8499 0.4544
H17 H 0.1537 0.9540 0.4839
C20 C 0.5240(3) 0.78215(15) 0.69139(10)
H18 H 0.4544 0.7592 0.7255
H19 H 0.5882 0.8392 0.7042
H20 H 0.6024 0.7310 0.6790
C21 C 0.1190(2) 0.44648(12) 0.67930(7)
C22 C 0.0039(2) 0.52103(14) 0.69521(9)
H21 H 0.0022 0.5792 0.6722
C23 C -0.1086(3) 0.50953(16) 0.74512(10)
H22 H -0.1852 0.5599 0.7551
C24 C -0.1076(3) 0.42402(18) 0.78002(10)
H23 H -0.1806 0.4174 0.8142
C25 C 0.0028(3) 0.34853(15) 0.76372(9)
H24 H 0.0028 0.2902 0.7865
C26 C 0.1140(2) 0.35910(13) 0.71342(8)
H25 H 0.1862 0.3071 0.7024
loop_
_geom_bond_atom_site_label_1
_geom_bond_atom_site_label_2
_geom_bond_site_symmetry_1
_geom_bond_site_symmetry_2
O1 H1 1_555 1_555
O2 C3 1_555 1_555
O3 C8 1_555 1_555
O4 C9 1_555 1_555
N1 C3 1_555 1_555
C1 H2 1_555 1_555
H3 C1 1_555 1_555
C2 O1 1_555 1_555
C3 C2 1_555 1_555
C4 N1 1_555 1_555
H4 C4 1_555 1_555
H5 C4 1_555 1_555
C5 C4 1_555 1_555
H6 C5 1_555 1_555
H7 C5 1_555 1_555
C6 C5 1_555 1_555
C7 C6 1_555 1_555
H8 C7 1_555 1_555
C8 C7 1_555 1_555
C9 C8 1_555 1_555
C10 C9 1_555 1_555
H9 C10 1_555 1_555
C11 C6 1_555 1_555
C12 N1 1_555 1_555
C13 C2 1_555 1_555
C14 C13 1_555 1_555
H10 C14 1_555 1_555
C15 C14 1_555 1_555
H11 C15 1_555 1_555
C16 C15 1_555 1_555
H12 C16 1_555 1_555
C17 C16 1_555 1_555
H13 C17 1_555 1_555
C18 C13 1_555 1_555
H14 C18 1_555 1_555
C19 O3 1_555 1_555
H15 C19 1_555 1_555
H16 C19 1_555 1_555
H17 C19 1_555 1_555
C20 O4 1_555 1_555
H18 C20 1_555 1_555
H19 C20 1_555 1_555
H20 C20 1_555 1_555
C21 C12 1_555 1_555
C22 C21 1_555 1_555
H21 C22 1_555 1_555
C23 C22 1_555 1_555
H22 C23 1_555 1_555
C24 C23 1_555 1_555
H23 C24 1_555 1_555
C25 C24 1_555 1_555
H24 C25 1_555 1_555
C26 C21 1_555 1_555
H25 C26 1_555 1_555
C1 C2 1_555 1_555
C1 C12 1_555 1_555
C10 C11 1_555 1_555
C11 C12 1_555 1_555
C17 C18 1_555 1_555
C25 C26 1_555 1_555

#END
