
#######################################################################
#
#                 Cambridge Crystallographic Data Centre
#                                CCDC 
#
#######################################################################
#
# If this CIF has been generated from an entry in the Cambridge 
# Structural Database, then it will include bibliographic, chemical, 
# crystal, experimental, refinement or atomic coordinate data resulting 
# from the CCDC's data processing and validation procedures.
#
#######################################################################

data_LAJMOA
_chemical_formula_moiety         'C27 H24 Br1 N5 O4'
_chemical_name_systematic        
6-(2-(4-Bromophenyl)-2-((2,4-dinitrophenyl)hydrazono)ethyl)-10-methyl-6,7,8,9-tetrahydropyrido[1,2-a]indole
_symmetry_cell_setting           orthorhombic
_symmetry_space_group_name_H-M   'P 21 21 21'
_symmetry_Int_Tables_number      19
_space_group_name_Hall           'P 2ac 2ab'
loop_
_symmetry_equiv_pos_site_id
_symmetry_equiv_pos_as_xyz
1 x,y,z
2 1/2-x,-y,1/2+z
3 -x,1/2+y,1/2-z
4 1/2+x,1/2-y,-z
_cell_length_a                   7.1185(10)
_cell_length_b                   12.5320(18)
_cell_length_c                   27.621(4)
_cell_angle_alpha                90
_cell_angle_beta                 90
_cell_angle_gamma                90
_cell_volume                     2464.04
_exptl_crystal_colour            red
_exptl_crystal_description       prismatic
_chemical_melting_point          199deg.C
_cell_formula_units_Z            4
_exptl_crystal_recrystallization_method acetonitrile/water
loop_
_atom_site_label
_atom_site_type_symbol
_atom_site_fract_x
_atom_site_fract_y
_atom_site_fract_z
Br1 Br -0.01692(9) -0.26604(4) 0.240613(19)
N1 N 0.2272(5) 0.2107(3) 0.13739(14)
N2 N 0.2742(6) 0.2956(4) 0.10888(17)
N3 N 0.3721(6) 0.0383(3) -0.00626(15)
N4 N 0.3628(6) 0.4852(4) 0.05168(17)
N5 N 0.4671(7) 0.6776(4) 0.20033(19)
O1 O 0.3173(5) 0.4048(3) 0.02867(14)
O2 O 0.4053(5) 0.5681(3) 0.03079(14)
O3 O 0.5029(6) 0.7563(3) 0.17596(13)
O4 O 0.4720(6) 0.6777(3) 0.24494(16)
C1 C 0.1767(7) 0.1249(4) 0.11627(17)
C2 C 0.1787(6) 0.1022(4) 0.06270(18)
H1 H 0.1244 0.1625 0.0457
H2 H 0.1008 0.0404 0.0563
C3 C 0.3818(7) 0.0810(4) 0.04247(18)
H3 H 0.4484 0.1494 0.0411
C4 C 0.4955(8) 0.0056(4) 0.07303(17)
H4 H 0.6263 0.0097 0.0634
H5 H 0.4870 0.0271 0.1067
C5 C 0.4295(8) -0.1069(5) 0.0682(2)
H6 H 0.2971 -0.1108 0.0763
H7 H 0.4978 -0.1518 0.0907
C6 C 0.4588(10) -0.1470(4) 0.0176(2)
H8 H 0.5895 -0.1671 0.0134
H9 H 0.3825 -0.2101 0.0125
C7 C 0.4092(7) -0.0661(4) -0.0187(2)
C8 C 0.4025(7) -0.0770(5) -0.0680(2)
C9 C 0.3563(7) 0.0255(5) -0.0878(2)
C10 C 0.3377(7) 0.0950(4) -0.04746(19)
C11 C 0.2920(7) 0.2022(4) -0.0538(2)
H10 H 0.2791 0.2477 -0.0275
C12 C 0.2663(7) 0.2389(6) -0.1006(2)
H11 H 0.2347 0.3101 -0.1057
C13 C 0.2868(8) 0.1720(6) -0.1400(2)
H12 H 0.2703 0.1989 -0.1711
C14 C 0.3310(8) 0.0667(6) -0.1340(2)
H13 H 0.3441 0.0226 -0.1609
C15 C 0.4304(9) -0.1783(4) -0.0960(2)
H14 H 0.4419 -0.2371 -0.0739
H15 H 0.5426 -0.1728 -0.1152
H16 H 0.3245 -0.1898 -0.1169
C16 C 0.3200(7) 0.3888(4) 0.12998(18)
C17 C 0.3623(7) 0.4825(4) 0.1033(2)
C18 C 0.4101(6) 0.5761(4) 0.1276(2)
H17 H 0.4399 0.6371 0.1101
C19 C 0.4134(7) 0.5787(4) 0.1760(2)
C20 C 0.3705(7) 0.4904(4) 0.2031(2)
H18 H 0.3705 0.4944 0.2367
C21 C 0.3278(7) 0.3965(4) 0.18067(18)
H19 H 0.3033 0.3363 0.1993
C22 C 0.1248(7) 0.0359(4) 0.14878(19)
C23 C 0.2282(7) 0.0096(4) 0.18929(18)
H20 H 0.3301 0.0521 0.1977
C24 C 0.1861(8) -0.0773(4) 0.21764(18)
H21 H 0.2608 -0.0941 0.2442
C25 C 0.0323(8) -0.1392(4) 0.20647(16)
C26 C -0.0805(7) -0.1104(4) 0.16866(19)
H22 H -0.1898 -0.1486 0.1623
C27 C -0.0329(7) -0.0259(4) 0.14033(18)
H23 H -0.1096 -0.0089 0.1142
H24 H 0.259(5) 0.292(3) 0.0790(7)
loop_
_geom_bond_atom_site_label_1
_geom_bond_atom_site_label_2
_geom_bond_site_symmetry_1
_geom_bond_site_symmetry_2
Br1 C25 1_555 1_555
N1 N2 1_555 1_555
N2 C16 1_555 1_555
N3 C3 1_555 1_555
N4 O1 1_555 1_555
N5 O3 1_555 1_555
O2 N4 1_555 1_555
O4 N5 1_555 1_555
C1 N1 1_555 1_555
C2 C1 1_555 1_555
H1 C2 1_555 1_555
H2 C2 1_555 1_555
C3 C2 1_555 1_555
H3 C3 1_555 1_555
C4 C3 1_555 1_555
H4 C4 1_555 1_555
H5 C4 1_555 1_555
C5 C4 1_555 1_555
H6 C5 1_555 1_555
H7 C5 1_555 1_555
C6 C5 1_555 1_555
H8 C6 1_555 1_555
H9 C6 1_555 1_555
C7 N3 1_555 1_555
C8 C7 1_555 1_555
C9 C8 1_555 1_555
C10 N3 1_555 1_555
C11 C10 1_555 1_555
H10 C11 1_555 1_555
C12 C11 1_555 1_555
H11 C12 1_555 1_555
C13 C12 1_555 1_555
H12 C13 1_555 1_555
C14 C9 1_555 1_555
H13 C14 1_555 1_555
C15 C8 1_555 1_555
H14 C15 1_555 1_555
H15 C15 1_555 1_555
H16 C15 1_555 1_555
C16 C17 1_555 1_555
C17 N4 1_555 1_555
C18 C17 1_555 1_555
H17 C18 1_555 1_555
C19 N5 1_555 1_555
C20 C19 1_555 1_555
H18 C20 1_555 1_555
C21 C16 1_555 1_555
H19 C21 1_555 1_555
C22 C1 1_555 1_555
C23 C22 1_555 1_555
H20 C23 1_555 1_555
C24 C23 1_555 1_555
H21 C24 1_555 1_555
C25 C24 1_555 1_555
C26 C25 1_555 1_555
H22 C26 1_555 1_555
C27 C22 1_555 1_555
H23 C27 1_555 1_555
H24 N2 1_555 1_555
C6 C7 1_555 1_555
C9 C10 1_555 1_555
C13 C14 1_555 1_555
C18 C19 1_555 1_555
C20 C21 1_555 1_555
C26 C27 1_555 1_555

#END
