
#######################################################################
#
#                 Cambridge Crystallographic Data Centre
#                                CCDC 
#
#######################################################################
#
# If this CIF has been generated from an entry in the Cambridge 
# Structural Database, then it will include bibliographic, chemical, 
# crystal, experimental, refinement or atomic coordinate data resulting 
# from the CCDC's data processing and validation procedures.
#
#######################################################################

data_LAJVOJ
_chemical_name_common            
N'-(2,3-Dimethoxybenzylidene)pyrazine-2-carbohydrazide
_chemical_formula_moiety         'C14 H14 N4 O3'
_chemical_name_systematic        
'2,3-Dimethoxybenzaldehyde (pyrazin-2-ylcarbonyl)hydrazone'
_symmetry_cell_setting           monoclinic
_symmetry_space_group_name_H-M   'C 2/c'
_symmetry_Int_Tables_number      15
_space_group_name_Hall           '-C 2yn'
loop_
_symmetry_equiv_pos_site_id
_symmetry_equiv_pos_as_xyz
1 x,y,z
2 1/2+x,1/2+y,z
3 -x,y,1/2-z
4 1/2-x,1/2+y,1/2-z
5 -x,-y,-z
6 1/2-x,1/2-y,-z
7 x,-y,1/2+z
8 1/2+x,1/2-y,1/2+z
_cell_length_a                   24.0735(10)
_cell_length_b                   7.7576(4)
_cell_length_c                   14.3803(4)
_cell_angle_alpha                90
_cell_angle_beta                 96.840(2)
_cell_angle_gamma                90
_cell_volume                     2666.44
_exptl_crystal_colour            colorless
_exptl_crystal_description       lath
_cell_formula_units_Z            8
loop_
_atom_site_label
_atom_site_type_symbol
_atom_site_fract_x
_atom_site_fract_y
_atom_site_fract_z
O1 O 0.37797(7) 0.0932(2) 0.52614(11)
O2 O 0.64444(7) 0.3883(2) 0.60379(11)
O3 O 0.70208(7) 0.5397(2) 0.47741(12)
N1 N 0.31978(8) -0.1913(3) 0.73944(13)
N2 N 0.42675(8) -0.0370(3) 0.75891(12)
N3 N 0.46490(8) 0.1127(3) 0.60856(12)
H1 H 0.4861 0.0888 0.6612
N4 N 0.48703(8) 0.1988(3) 0.53718(12)
C1 C 0.39161(9) -0.0273(3) 0.67879(14)
C2 C 0.33855(10) -0.1002(3) 0.67032(15)
H2 H 0.3147 -0.0850 0.6134
C3 C 0.35558(10) -0.2055(3) 0.81783(15)
H3 H 0.3449 -0.2720 0.8682
C4 C 0.40783(10) -0.1265(3) 0.82833(15)
H4 H 0.4308 -0.1364 0.8865
C5 C 0.41031(9) 0.0654(3) 0.59665(15)
C6 C 0.53625(9) 0.2597(3) 0.55826(15)
H5 H 0.5547 0.2452 0.6200
C7 C 0.56466(10) 0.3518(3) 0.48840(15)
C8 C 0.61918(10) 0.4095(3) 0.51261(15)
C9 C 0.64813(10) 0.4931(3) 0.44659(16)
C10 C 0.62189(10) 0.5212(3) 0.35689(16)
H6 H 0.6412 0.5780 0.3118
C11 C 0.56714(10) 0.4660(3) 0.33311(16)
H7 H 0.5492 0.4865 0.2716
C12 C 0.53833(10) 0.3819(3) 0.39710(15)
H8 H 0.5010 0.3445 0.3796
C13 C 0.68487(11) 0.2509(4) 0.61385(18)
H9 H 0.6662 0.1413 0.5965
H10 H 0.7021 0.2452 0.6791
H11 H 0.7138 0.2727 0.5729
C14 C 0.73370(11) 0.6151(4) 0.40959(18)
H12 H 0.7337 0.5371 0.3560
H13 H 0.7723 0.6346 0.4380
H14 H 0.7168 0.7253 0.3884
loop_
_geom_bond_atom_site_label_1
_geom_bond_atom_site_label_2
_geom_bond_site_symmetry_1
_geom_bond_site_symmetry_2
O1 C5 1_555 1_555
O2 C8 1_555 1_555
O3 C9 1_555 1_555
N1 C2 1_555 1_555
N2 C1 1_555 1_555
N3 H1 1_555 1_555
N4 N3 1_555 1_555
C1 C2 1_555 1_555
C2 H2 1_555 1_555
C3 N1 1_555 1_555
H3 C3 1_555 1_555
C4 N2 1_555 1_555
H4 C4 1_555 1_555
C5 N3 1_555 1_555
C6 N4 1_555 1_555
H5 C6 1_555 1_555
C7 C6 1_555 1_555
C8 C7 1_555 1_555
C9 C8 1_555 1_555
C10 C9 1_555 1_555
H6 C10 1_555 1_555
C11 C10 1_555 1_555
H7 C11 1_555 1_555
C12 C7 1_555 1_555
H8 C12 1_555 1_555
C13 O2 1_555 1_555
H9 C13 1_555 1_555
H10 C13 1_555 1_555
H11 C13 1_555 1_555
C14 O3 1_555 1_555
H12 C14 1_555 1_555
H13 C14 1_555 1_555
H14 C14 1_555 1_555
C1 C5 1_555 1_555
C3 C4 1_555 1_555
C11 C12 1_555 1_555

#END
