
#######################################################################
#
#                 Cambridge Crystallographic Data Centre
#                                CCDC 
#
#######################################################################
#
# If this CIF has been generated from an entry in the Cambridge 
# Structural Database, then it will include bibliographic, chemical, 
# crystal, experimental, refinement or atomic coordinate data resulting 
# from the CCDC's data processing and validation procedures.
#
#######################################################################

data_LAJWEA
_chemical_name_common            
N'-(3-Hydroxy-4-methoxybenzylidene)pyrazine-2-carbohydrazide
_chemical_formula_moiety         'C13 H12 N4 O3'
_chemical_name_systematic        
'3-Hydroxy-4-methoxybenzaldehyde (pyrazin-2-ylcarbonyl)hydrazone'
_symmetry_cell_setting           monoclinic
_symmetry_space_group_name_H-M   'P 21/c'
_symmetry_Int_Tables_number      14
_space_group_name_Hall           '-P 2ybc'
loop_
_symmetry_equiv_pos_site_id
_symmetry_equiv_pos_as_xyz
1 x,y,z
2 -x,1/2+y,1/2-z
3 -x,-y,-z
4 x,1/2-y,1/2+z
_cell_length_a                   11.9171(5)
_cell_length_b                   6.8858(3)
_cell_length_c                   14.9229(5)
_cell_angle_alpha                90
_cell_angle_beta                 102.468(2)
_cell_angle_gamma                90
_cell_volume                     1195.68
_exptl_crystal_colour            colorless
_exptl_crystal_description       needle
_cell_formula_units_Z            4
loop_
_atom_site_label
_atom_site_type_symbol
_atom_site_fract_x
_atom_site_fract_y
_atom_site_fract_z
O1 O 0.71425(14) 0.5865(3) 0.79005(10)
O2 O 0.36706(13) 0.6041(2) 0.38138(10)
H1 H 0.3250 0.5531 0.3349
O3 O 0.13854(14) 0.6540(3) 0.33669(11)
N1 N 0.85222(17) 0.6429(3) 1.07310(13)
N2 N 0.61523(16) 0.6458(3) 0.99669(12)
N3 N 0.53472(16) 0.6406(3) 0.81674(12)
H2 H 0.4934 0.6582 0.8583
N4 N 0.48241(16) 0.6357(3) 0.72479(12)
C1 C 0.69343(19) 0.6322(3) 0.94480(15)
C2 C 0.8099(2) 0.6299(3) 0.98202(16)
H3 H 0.8619 0.6189 0.9422
C3 C 0.7736(2) 0.6553(4) 1.12432(15)
H4 H 0.7989 0.6641 1.1891
C4 C 0.6563(2) 0.6560(3) 1.08699(15)
H5 H 0.6041 0.6639 1.1268
C5 C 0.64921(19) 0.6181(3) 0.84241(15)
C6 C 0.37243(19) 0.6403(3) 0.70633(15)
H6 H 0.3321 0.6448 0.7547
C7 C 0.30878(19) 0.6387(3) 0.61095(15)
C8 C 0.36667(19) 0.6169(3) 0.53908(15)
H7 H 0.4476 0.5992 0.5525
C9 C 0.30676(19) 0.6211(3) 0.44940(15)
C10 C 0.18693(19) 0.6473(3) 0.42872(15)
C11 C 0.12863(19) 0.6649(4) 0.49947(15)
H8 H 0.0474 0.6795 0.4860
C12 C 0.18980(19) 0.6611(3) 0.59032(15)
H9 H 0.1499 0.6738 0.6387
C13 C 0.0189(2) 0.6982(4) 0.31067(17)
H10 H -0.0250 0.5996 0.3358
H11 H -0.0050 0.6992 0.2436
H12 H 0.0047 0.8261 0.3348
loop_
_geom_bond_atom_site_label_1
_geom_bond_atom_site_label_2
_geom_bond_site_symmetry_1
_geom_bond_site_symmetry_2
O1 C5 1_555 1_555
O2 H1 1_555 1_555
O3 C10 1_555 1_555
N1 C2 1_555 1_555
N2 C1 1_555 1_555
N3 H2 1_555 1_555
N4 N3 1_555 1_555
C1 C2 1_555 1_555
C2 H3 1_555 1_555
C3 N1 1_555 1_555
H4 C3 1_555 1_555
C4 N2 1_555 1_555
H5 C4 1_555 1_555
C5 N3 1_555 1_555
C6 N4 1_555 1_555
H6 C6 1_555 1_555
C7 C6 1_555 1_555
C8 C7 1_555 1_555
H7 C8 1_555 1_555
C9 O2 1_555 1_555
C10 C9 1_555 1_555
C11 C10 1_555 1_555
H8 C11 1_555 1_555
C12 C7 1_555 1_555
H9 C12 1_555 1_555
C13 O3 1_555 1_555
H10 C13 1_555 1_555
H11 C13 1_555 1_555
H12 C13 1_555 1_555
C1 C5 1_555 1_555
C3 C4 1_555 1_555
C8 C9 1_555 1_555
C11 C12 1_555 1_555

#END
