
#######################################################################
#
#                 Cambridge Crystallographic Data Centre
#                                CCDC 
#
#######################################################################
#
# If this CIF has been generated from an entry in the Cambridge 
# Structural Database, then it will include bibliographic, chemical, 
# crystal, experimental, refinement or atomic coordinate data resulting 
# from the CCDC's data processing and validation procedures.
#
#######################################################################

data_LAKGIN
_chemical_formula_moiety         'C29 H34 O12,H2 O1'
_chemical_name_systematic        "6'-O-\b-D-Glucopyranosyldalpanol monohydrate"
_chemical_properties_biological  'cytotoxic activity'
_symmetry_cell_setting           monoclinic
_symmetry_space_group_name_H-M   'P 21'
_symmetry_Int_Tables_number      4
_space_group_name_Hall           'P 2yb'
loop_
_symmetry_equiv_pos_site_id
_symmetry_equiv_pos_as_xyz
1 x,y,z
2 -x,1/2+y,-z
_cell_length_a                   16.137(2)
_cell_length_b                   9.249(1)
_cell_length_c                   9.869(1)
_cell_angle_alpha                90
_cell_angle_beta                 102.22(1)
_cell_angle_gamma                90
_cell_volume                     1439.59
_exptl_crystal_colour            white
_chemical_melting_point          162-162.5deg.C
_cell_formula_units_Z            2
loop_
_atom_site_label
_atom_site_type_symbol
_atom_site_fract_x
_atom_site_fract_y
_atom_site_fract_z
C1 C -0.0592(2) -0.1342(5) 0.2433(3)
C2 C -0.0578(2) -0.1810(4) 0.1080(3)
C3 C -0.1225(2) -0.0461(5) 0.2701(3)
C4 C -0.1868(2) 0.0000(4) 0.1612(3)
C5 C -0.1868(2) -0.0454(4) 0.0280(3)
C6 C -0.1230(2) -0.1356(4) 0.0027(3)
O1 O -0.1294(1) -0.1721(3) -0.1348(2)
C7 C -0.0807(2) -0.2942(4) -0.1595(3)
C8 C 0.0089(2) -0.2872(4) -0.0762(3)
O2 O 0.0456(1) -0.1593(3) -0.1245(2)
C9 C 0.1233(2) -0.1212(4) -0.0503(3)
C10 C 0.1739(2) -0.0368(4) -0.1164(3)
C11 C 0.2527(2) 0.0034(4) -0.0447(3)
C12 C 0.2854(2) -0.0307(4) 0.0945(3)
C13 C 0.2341(2) -0.1149(4) 0.1582(3)
C14 C 0.1536(2) -0.1607(4) 0.0894(3)
C15 C 0.0989(2) -0.2418(4) 0.1619(3)
C16 C 0.0112(2) -0.2830(4) 0.0798(3)
C17 C -0.0625(4) -0.0294(9) 0.5114(5)
C18 C -0.3141(2) 0.1321(5) 0.0834(4)
O3 O -0.1289(2) 0.0000 0.4000(3)
O4 O -0.2472(1) 0.0889(4) 0.1949(2)
O5 O 0.1196(2) -0.2730(4) 0.2838(3)
C19 C 0.1604(2) 0.0148(4) -0.2628(3)
C20 C 0.2416(2) 0.1051(4) -0.2593(3)
O6 O 0.2975(1) 0.0780(3) -0.1240(2)
C21 C 0.2898(2) 0.0717(4) -0.3747(3)
C22 C 0.3173(2) -0.0843(4) -0.3744(4)
C23 C 0.2335(2) 0.1142(5) -0.5142(3)
C24 C 0.3697(2) 0.2983(3) -0.3757(3)
C25 C 0.4447(2) 0.3697(4) -0.2792(3)
C26 C 0.4493(2) 0.5262(4) -0.3222(3)
C27 C 0.4538(2) 0.5369(3) -0.4745(3)
C28 C 0.3792(2) 0.4566(4) -0.5621(3)
C29 C 0.3797(2) 0.4509(4) -0.7154(3)
O7 O 0.3695(1) 0.1519(2) -0.3430(2)
O8 O 0.4348(2) 0.3659(3) -0.1390(2)
O9 O 0.5222(2) 0.5893(3) -0.2343(2)
O10 O 0.4482(1) 0.6838(3) -0.5181(2)
O11 O 0.3812(1) 0.3091(2) -0.5153(2)
O12 O 0.4554(2) 0.3882(3) -0.7398(2)
H1 H -0.013(2) -0.162(4) 0.316(3)
H2 H -0.229(3) -0.013(6) -0.054(4)
H3 H -0.075(2) -0.289(5) -0.256(3)
H4 H -0.108(2) -0.385(5) -0.136(4)
H5 H 0.036(2) -0.374(4) -0.102(3)
H6 H 0.339(2) -0.002(4) 0.142(3)
H7 H 0.259(2) -0.152(4) 0.260(4)
H8 H 0.001(2) -0.396(4) 0.110(3)
H9 H -0.082(4) 0.033(8) 0.587(6)
H10 H -0.047(3) -0.130(8) 0.508(6)
H11 H -0.003(4) 0.020(7) 0.482(6)
H12 H -0.349(2) 0.210(6) 0.119(4)
H13 H -0.286(2) 0.189(5) 0.006(4)
H14 H -0.348(2) 0.047(4) 0.038(3)
H15 H 0.110(2) 0.073(5) -0.291(4)
H16 H 0.152(2) -0.072(6) -0.333(4)
H17 H 0.221(2) 0.204(4) -0.273(3)
H18 H 0.342(3) -0.109(6) -0.454(5)
H19 H 0.352(2) -0.105(5) -0.283(4)
H20 H 0.269(2) -0.148(5) -0.390(3)
H21 H 0.265(3) 0.102(6) -0.582(4)
H22 H 0.180(3) 0.036(6) -0.532(5)
H23 H 0.208(2) 0.224(5) -0.512(4)
H24 H 0.313(2) 0.356(4) -0.366(3)
H25 H 0.492(2) 0.312(4) -0.290(3)
H26 H 0.397(2) 0.576(5) -0.311(3)
H27 H 0.518(2) 0.489(5) -0.488(4)
H28 H 0.323(2) 0.512(4) -0.557(3)
H29 H 0.372(2) 0.558(4) -0.755(3)
H30 H 0.329(2) 0.397(4) -0.769(3)
H31 H 0.443(3) 0.274(7) -0.110(5)
H32 H 0.520(2) 0.689(5) -0.250(4)
H33 H 0.504(4) 0.719(7) -0.500(6)
H34 H 0.477(3) 0.454(7) -0.806(5)
O13 O 0.5189(2) 0.5655(3) 0.0754(2)
H35 H 0.499(3) 0.534(6) -0.019(5)
H36 H 0.579(4) 0.566(8) 0.105(6)
loop_
_geom_bond_atom_site_label_1
_geom_bond_atom_site_label_2
_geom_bond_site_symmetry_1
_geom_bond_site_symmetry_2
C1 C2 1_555 1_555
C2 C6 1_555 1_555
C3 C1 1_555 1_555
C4 C3 1_555 1_555
C5 C4 1_555 1_555
C6 C5 1_555 1_555
O1 C6 1_555 1_555
C7 O1 1_555 1_555
C8 C7 1_555 1_555
O2 C8 1_555 1_555
C9 O2 1_555 1_555
C10 C9 1_555 1_555
C11 C10 1_555 1_555
C12 C11 1_555 1_555
C13 C12 1_555 1_555
C14 C9 1_555 1_555
C15 C14 1_555 1_555
C16 C2 1_555 1_555
C17 O3 1_555 1_555
C18 O4 1_555 1_555
O3 C3 1_555 1_555
O4 C4 1_555 1_555
O5 C15 1_555 1_555
C19 C10 1_555 1_555
C20 C19 1_555 1_555
O6 C11 1_555 1_555
C21 C20 1_555 1_555
C22 C21 1_555 1_555
C23 C21 1_555 1_555
C24 C25 1_555 1_555
C25 C26 1_555 1_555
C26 C27 1_555 1_555
C27 C28 1_555 1_555
C28 C29 1_555 1_555
C29 O12 1_555 1_555
O7 C21 1_555 1_555
O8 C25 1_555 1_555
O9 C26 1_555 1_555
O10 C27 1_555 1_555
O11 C24 1_555 1_555
O12 H34 1_555 1_555
H1 C1 1_555 1_555
H2 C5 1_555 1_555
H3 C7 1_555 1_555
H4 C7 1_555 1_555
H5 C8 1_555 1_555
H6 C12 1_555 1_555
H7 C13 1_555 1_555
H8 C16 1_555 1_555
H9 C17 1_555 1_555
H10 C17 1_555 1_555
H11 C17 1_555 1_555
H12 C18 1_555 1_555
H13 C18 1_555 1_555
H14 C18 1_555 1_555
H15 C19 1_555 1_555
H16 C19 1_555 1_555
H17 C20 1_555 1_555
H18 C22 1_555 1_555
H19 C22 1_555 1_555
H20 C22 1_555 1_555
H21 C23 1_555 1_555
H22 C23 1_555 1_555
H23 C23 1_555 1_555
H24 C24 1_555 1_555
H25 C25 1_555 1_555
H26 C26 1_555 1_555
H27 C27 1_555 1_555
H28 C28 1_555 1_555
H29 C29 1_555 1_555
H30 C29 1_555 1_555
H31 O8 1_555 1_555
H32 O9 1_555 1_555
H33 O10 1_555 1_555
O13 H35 1_555 1_555
H36 O13 1_555 1_555
C8 C16 1_555 1_555
C13 C14 1_555 1_555
C15 C16 1_555 1_555
C20 O6 1_555 1_555
C24 O7 1_555 1_555
C28 O11 1_555 1_555

#END
