
#######################################################################
#
#                 Cambridge Crystallographic Data Centre
#                                CCDC 
#
#######################################################################
#
# If this CIF has been generated from an entry in the Cambridge 
# Structural Database, then it will include bibliographic, chemical, 
# crystal, experimental, refinement or atomic coordinate data resulting 
# from the CCDC's data processing and validation procedures.
#
#######################################################################

data_LANFEN
_chemical_formula_moiety         'C12 H14 N2 O5'
_chemical_name_systematic        
(4R*,5R*)-2-(4-Methoxyphenyl)-1,3-dioxolane-4,5-dicarboxamide
_symmetry_cell_setting           orthorhombic
_symmetry_space_group_name_H-M   'P 21 21 21'
_symmetry_Int_Tables_number      19
_space_group_name_Hall           'P 2ac 2ab'
loop_
_symmetry_equiv_pos_site_id
_symmetry_equiv_pos_as_xyz
1 x,y,z
2 1/2-x,-y,1/2+z
3 -x,1/2+y,1/2-z
4 1/2+x,1/2-y,-z
_cell_length_a                   6.9620(14)
_cell_length_b                   10.727(2)
_cell_length_c                   16.932(3)
_cell_angle_alpha                90
_cell_angle_beta                 90
_cell_angle_gamma                90
_cell_volume                     1264.51
_exptl_crystal_colour            yellow
_exptl_crystal_description       block
_cell_formula_units_Z            4
_exptl_crystal_recrystallization_method methanol
loop_
_atom_site_label
_atom_site_type_symbol
_atom_site_fract_x
_atom_site_fract_y
_atom_site_fract_z
O1 O 0.7648(3) 0.69904(17) 0.91700(13)
N1 N 0.6002(4) -0.0645(2) 0.84147(17)
H1 H 0.6483 -0.1329 0.8591
H2 H 0.6746 -0.0050 0.8266
C1 C 0.9569(4) 0.7107(3) 0.9441(2)
H3 H 0.9933 0.7970 0.9441
H4 H 1.0410 0.6649 0.9098
H5 H 0.9665 0.6781 0.9968
O2 O 0.4731(3) 0.17224(15) 0.81276(11)
C2 C 0.6867(4) 0.5817(2) 0.91351(15)
N2 N -0.0220(4) 0.2673(2) 0.76177(16)
H6 H -0.1036 0.2865 0.7256
H7 H 0.0432 0.3249 0.7848
O3 O 0.2168(3) 0.23134(17) 0.88371(11)
C3 C 0.7876(4) 0.4738(3) 0.93091(17)
H8 H 0.9146 0.4776 0.9477
O4 O 0.2966(3) -0.13078(18) 0.85712(14)
C4 C 0.6951(4) 0.3598(3) 0.92277(17)
H9 H 0.7617 0.2870 0.9348
O5 O -0.0843(3) 0.0617(2) 0.75178(15)
C5 C 0.5076(4) 0.3515(2) 0.89740(15)
C6 C 0.4100(4) 0.4611(3) 0.88108(18)
H10 H 0.2829 0.4574 0.8643
C7 C 0.4980(4) 0.5755(3) 0.88927(17)
H11 H 0.4302 0.6482 0.8785
C8 C 0.4199(4) 0.2252(3) 0.88635(16)
H12 H 0.4601 0.1701 0.9294
C9 C 0.3416(4) 0.0725(2) 0.80307(15)
H13 H 0.3170 0.0612 0.7465
C10 C 0.1557(4) 0.1216(2) 0.84279(16)
H14 H 0.1077 0.0600 0.8807
C11 C 0.4124(4) -0.0509(2) 0.83725(17)
C12 C 0.0032(4) 0.1493(2) 0.78190(16)
loop_
_geom_bond_atom_site_label_1
_geom_bond_atom_site_label_2
_geom_bond_site_symmetry_1
_geom_bond_site_symmetry_2
O1 C1 1_555 1_555
N1 H1 1_555 1_555
H2 N1 1_555 1_555
C1 H3 1_555 1_555
H4 C1 1_555 1_555
H5 C1 1_555 1_555
O2 C8 1_555 1_555
C2 O1 1_555 1_555
N2 H6 1_555 1_555
H7 N2 1_555 1_555
O3 C8 1_555 1_555
C3 C2 1_555 1_555
H8 C3 1_555 1_555
O4 C11 1_555 1_555
C4 C3 1_555 1_555
H9 C4 1_555 1_555
O5 C12 1_555 1_555
C5 C4 1_555 1_555
C6 C5 1_555 1_555
H10 C6 1_555 1_555
C7 C2 1_555 1_555
H11 C7 1_555 1_555
C8 C5 1_555 1_555
H12 C8 1_555 1_555
C9 O2 1_555 1_555
H13 C9 1_555 1_555
C10 O3 1_555 1_555
H14 C10 1_555 1_555
C11 N1 1_555 1_555
C12 N2 1_555 1_555
C6 C7 1_555 1_555
C9 C10 1_555 1_555
C9 C11 1_555 1_555
C10 C12 1_555 1_555

#END
