
#######################################################################
#
#                 Cambridge Crystallographic Data Centre
#                                CCDC 
#
#######################################################################
#
# If this CIF has been generated from an entry in the Cambridge 
# Structural Database, then it will include bibliographic, chemical, 
# crystal, experimental, refinement or atomic coordinate data resulting 
# from the CCDC's data processing and validation procedures.
#
#######################################################################

data_LAPHOB
_chemical_formula_moiety         'C13 H11 I1 N2'
_chemical_name_systematic        N-(2-Iodophenyl)benzamidine
_symmetry_cell_setting           triclinic
_symmetry_space_group_name_H-M   'P -1'
_symmetry_Int_Tables_number      2
_space_group_name_Hall           '-P 1'
loop_
_symmetry_equiv_pos_site_id
_symmetry_equiv_pos_as_xyz
1 x,y,z
2 -x,-y,-z
_cell_length_a                   10.411(3)
_cell_length_b                   11.024(3)
_cell_length_c                   11.534(3)
_cell_angle_alpha                95.501(3)
_cell_angle_beta                 95.065(3)
_cell_angle_gamma                102.986(3)
_cell_volume                     1275.71
_exptl_crystal_colour            colorless
_exptl_crystal_description       block
_cell_formula_units_Z            4
loop_
_atom_site_label
_atom_site_type_symbol
_atom_site_fract_x
_atom_site_fract_y
_atom_site_fract_z
C1 C 0.1631(3) 0.3372(3) 0.1714(3)
C2 C 0.1131(3) 0.2143(3) 0.1182(3)
C3 C 0.0759(3) 0.1972(3) -0.0023(3)
H1 H 0.0421 0.1164 -0.0402
C4 C 0.0882(5) 0.2975(4) -0.0663(4)
H2 H 0.0639 0.2838 -0.1469
C5 C 0.1365(5) 0.4185(4) -0.0115(4)
H3 H 0.1441 0.4862 -0.0549
C6 C 0.1731(4) 0.4381(4) 0.1069(4)
H4 H 0.2048 0.5194 0.1442
C7 C 0.1828(3) 0.0559(3) 0.2085(3)
C8 C 0.1576(3) -0.0507(3) 0.2811(3)
C9 C 0.0539(3) -0.0646(3) 0.3501(3)
H5 H 0.0006 -0.0073 0.3512
C10 C 0.0289(4) -0.1629(4) 0.4170(3)
H6 H -0.0416 -0.1715 0.4622
C11 C 0.1071(4) -0.2484(4) 0.4176(4)
H7 H 0.0905 -0.3138 0.4636
C12 C 0.2095(4) -0.2359(4) 0.3499(4)
H8 H 0.2628 -0.2933 0.3497
C13 C 0.2346(4) -0.1383(4) 0.2812(4)
H9 H 0.3039 -0.1315 0.2347
I1 I 0.22107(3) 0.37212(3) 0.35229(2)
N1 N 0.0885(2) 0.1116(2) 0.1848(2)
N2 N 0.3033(3) 0.0867(3) 0.1700(3)
H19 H 0.3209 0.1467 0.1271
H20 H 0.3624 0.0464 0.1884
C14 C 0.4353(3) 1.2019(3) 0.7427(3)
C15 C 0.4541(3) 1.1218(3) 0.8267(3)
C16 C 0.5055(3) 1.1761(3) 0.9409(3)
H10 H 0.5201 1.1250 0.9978
C17 C 0.5348(4) 1.3047(4) 0.9701(4)
H11 H 0.5680 1.3395 1.0466
C18 C 0.5148(5) 1.3808(4) 0.8862(5)
H12 H 0.5349 1.4673 0.9060
C19 C 0.4654(4) 1.3303(4) 0.7728(5)
H13 H 0.4522 1.3826 0.7164
C20 C 0.3135(3) 0.9233(3) 0.7895(3)
C21 C 0.2872(3) 0.7878(3) 0.7459(3)
C22 C 0.3741(4) 0.7450(4) 0.6769(3)
H14 H 0.4484 0.8012 0.6586
C23 C 0.3509(4) 0.6196(4) 0.6351(4)
H15 H 0.4107 0.5915 0.5900
C24 C 0.2400(4) 0.5355(4) 0.6594(4)
H16 H 0.2248 0.4511 0.6309
C25 C 0.1529(4) 0.5765(4) 0.7255(4)
H17 H 0.0772 0.5202 0.7411
C26 C 0.1762(4) 0.7017(3) 0.7698(3)
H18 H 0.1168 0.7283 0.8162
I2 I 0.36281(3) 1.12543(3) 0.56938(2)
N3 N 0.4332(2) 0.9910(2) 0.7956(2)
N4 N 0.2101(3) 0.9688(3) 0.8219(3)
H21 H 0.2222 1.0466 0.8482
H22 H 0.1323 0.9198 0.8161
loop_
_geom_bond_atom_site_label_1
_geom_bond_atom_site_label_2
_geom_bond_site_symmetry_1
_geom_bond_site_symmetry_2
C1 C2 1_555 1_555
C2 C3 1_555 1_555
C3 H1 1_555 1_555
C4 C3 1_555 1_555
H2 C4 1_555 1_555
C5 C4 1_555 1_555
H3 C5 1_555 1_555
C6 C1 1_555 1_555
H4 C6 1_555 1_555
C7 C8 1_555 1_555
C8 C9 1_555 1_555
C9 H5 1_555 1_555
C10 C9 1_555 1_555
H6 C10 1_555 1_555
C11 C10 1_555 1_555
H7 C11 1_555 1_555
C12 C11 1_555 1_555
H8 C12 1_555 1_555
C13 C8 1_555 1_555
H9 C13 1_555 1_555
C14 C15 1_555 1_555
C15 C16 1_555 1_555
C16 H10 1_555 1_555
C17 C16 1_555 1_555
H11 C17 1_555 1_555
C18 C17 1_555 1_555
H12 C18 1_555 1_555
C19 C14 1_555 1_555
H13 C19 1_555 1_555
C20 C21 1_555 1_555
C21 C22 1_555 1_555
C22 H14 1_555 1_555
C23 C22 1_555 1_555
H15 C23 1_555 1_555
C24 C23 1_555 1_555
H16 C24 1_555 1_555
C25 C24 1_555 1_555
H17 C25 1_555 1_555
C26 C21 1_555 1_555
H18 C26 1_555 1_555
I1 C1 1_555 1_555
I2 C14 1_555 1_555
N1 C2 1_555 1_555
N2 C7 1_555 1_555
H19 N2 1_555 1_555
H20 N2 1_555 1_555
N3 C15 1_555 1_555
N4 C20 1_555 1_555
H21 N4 1_555 1_555
H22 N4 1_555 1_555
C5 C6 1_555 1_555
C7 N1 1_555 1_555
C12 C13 1_555 1_555
C18 C19 1_555 1_555
C20 N3 1_555 1_555
C25 C26 1_555 1_555

#END
