
#######################################################################
#
#                 Cambridge Crystallographic Data Centre
#                                CCDC 
#
#######################################################################
#
# If this CIF has been generated from an entry in the Cambridge 
# Structural Database, then it will include bibliographic, chemical, 
# crystal, experimental, refinement or atomic coordinate data resulting 
# from the CCDC's data processing and validation procedures.
#
#######################################################################

data_LAPLEU
_chemical_formula_moiety         'C25 H18 O2,C10 H8 N2 O2'
_chemical_name_systematic        
"4,4'-(9-Fluorenylidene)diphenol 4,4'-bipyridine N,N'-dioxide"
_symmetry_cell_setting           monoclinic
_symmetry_space_group_name_H-M   'C 2/c'
_symmetry_Int_Tables_number      15
_space_group_name_Hall           '-C 2yn'
loop_
_symmetry_equiv_pos_site_id
_symmetry_equiv_pos_as_xyz
1 x,y,z
2 1/2+x,1/2+y,z
3 -x,y,1/2-z
4 1/2-x,1/2+y,1/2-z
5 -x,-y,-z
6 1/2-x,1/2-y,-z
7 x,-y,1/2+z
8 1/2+x,1/2-y,1/2+z
_cell_length_a                   18.988(4)
_cell_length_b                   13.295(3)
_cell_length_c                   11.009(2)
_cell_angle_alpha                90
_cell_angle_beta                 105.97(3)
_cell_angle_gamma                90
_cell_volume                     2671.91
_exptl_crystal_colour            brown
_cell_formula_units_Z            4
_exptl_crystal_recrystallization_method ethanol
loop_
_atom_site_label
_atom_site_type_symbol
_atom_site_fract_x
_atom_site_fract_y
_atom_site_fract_z
C1 C 0.11311(7) 0.07247(10) 0.92870(13)
H1 H 0.1021 0.1233 0.9786
C2 C 0.17597(8) 0.01511(11) 0.97571(13)
H2 H 0.2059 0.0271 1.0567
C3 C 0.19398(8) -0.05950(11) 0.90265(14)
C4 C 0.14702(9) -0.07894(12) 0.78495(14)
H3 H 0.1577 -0.1304 0.7356
C5 C 0.08476(8) -0.02263(11) 0.74054(13)
H4 H 0.0535 -0.0374 0.6614
C6 C 0.06675(7) 0.05591(10) 0.81010(12)
C7 C 0.0000 0.12197(14) 0.7500
C8 C 0.02028(7) 0.19572(10) 0.65740(12)
C9 C 0.04541(8) 0.17612(12) 0.55278(14)
H5 H 0.0507 0.1102 0.5285
C10 C 0.06258(9) 0.25589(14) 0.48457(16)
H6 H 0.0788 0.2431 0.4137
C11 C 0.05576(10) 0.35382(14) 0.52099(18)
H7 H 0.0677 0.4065 0.4748
C12 C 0.03124(9) 0.37449(12) 0.62587(16)
H8 H 0.0270 0.4406 0.6506
C13 C 0.01317(7) 0.29510(10) 0.69342(13)
O1 O 0.25586(6) -0.11614(9) 0.94046(10)
H13 H 0.2779 -0.1015 1.0134
C1B C -0.11311(7) 0.07247(10) 0.57130(13)
H1B H -0.1021 0.1233 0.5214
C2B C -0.17597(8) 0.01511(11) 0.52429(13)
H2B H -0.2059 0.0271 0.4433
C3B C -0.19398(8) -0.05950(11) 0.59735(14)
C4B C -0.14702(9) -0.07894(12) 0.71505(14)
H3B H -0.1577 -0.1304 0.7644
C5B C -0.08476(8) -0.02263(11) 0.75946(13)
H4B H -0.0535 -0.0374 0.8386
C6B C -0.06675(7) 0.05591(10) 0.68990(12)
C8B C -0.02028(7) 0.19572(10) 0.84260(12)
C9B C -0.04541(8) 0.17612(12) 0.94722(14)
H5B H -0.0507 0.1102 0.9715
C10B C -0.06258(9) 0.25589(14) 1.01543(16)
H6B H -0.0788 0.2431 1.0863
C11B C -0.05576(10) 0.35382(14) 0.97901(18)
H7B H -0.0677 0.4065 1.0252
C12B C -0.03124(9) 0.37449(12) 0.87413(16)
H8B H -0.0270 0.4406 0.8494
C13B C -0.01317(7) 0.29510(10) 0.80658(13)
O1B O -0.25586(6) -0.11614(9) 0.55954(10)
H13B H -0.2779 -0.1015 0.4866
C14 C 0.34643(10) -0.11696(16) 1.38477(16)
H9 H 0.3884 -0.0774 1.4068
C15 C 0.32457(10) -0.16499(15) 1.47714(16)
H10 H 0.3520 -0.1574 1.5608
C16 C 0.26262(8) -0.22485(11) 1.44998(13)
C17 C 0.22630(9) -0.23346(13) 1.32291(15)
H11 H 0.1850 -0.2741 1.2984
C18 C 0.24967(10) -0.18374(13) 1.23260(16)
H12 H 0.2236 -0.1908 1.1481
N1 N 0.30913(7) -0.12515(11) 1.26283(13)
O2 O 0.33199(7) -0.07687(10) 1.17615(11)
C14E C 0.15357(10) -0.38304(16) 1.61523(16)
H9E H 0.1116 -0.4226 1.5932
C15E C 0.17543(10) -0.33501(15) 1.52286(16)
H10E H 0.1480 -0.3426 1.4392
C16E C 0.23738(8) -0.27515(11) 1.55002(13)
C17E C 0.27370(9) -0.26654(13) 1.67709(15)
H11E H 0.3150 -0.2259 1.7016
C18E C 0.25033(10) -0.31626(13) 1.76740(16)
H12E H 0.2764 -0.3092 1.8519
N1E N 0.19087(7) -0.37485(11) 1.73717(13)
O2E O 0.16801(7) -0.42313(10) 1.82385(11)
loop_
_geom_bond_atom_site_label_1
_geom_bond_atom_site_label_2
_geom_bond_site_symmetry_1
_geom_bond_site_symmetry_2
C1 H1 1_555 1_555
C2 C1 1_555 1_555
H2 C2 1_555 1_555
C3 C2 1_555 1_555
C4 C3 1_555 1_555
H3 C4 1_555 1_555
C5 C4 1_555 1_555
H4 C5 1_555 1_555
C6 C1 1_555 1_555
C7 C6 1_555 1_555
C8 C7 1_555 1_555
C9 C8 1_555 1_555
H5 C9 1_555 1_555
C10 C9 1_555 1_555
H6 C10 1_555 1_555
C11 C10 1_555 1_555
H7 C11 1_555 1_555
C12 C11 1_555 1_555
H8 C12 1_555 1_555
C13 C8 1_555 1_555
C14 H9 1_555 1_555
C15 C14 1_555 1_555
H10 C15 1_555 1_555
C16 C15 1_555 1_555
C17 C16 1_555 1_555
H11 C17 1_555 1_555
C18 C17 1_555 1_555
H12 C18 1_555 1_555
N1 C14 1_555 1_555
O1 C3 1_555 1_555
H13 O1 1_555 1_555
O2 N1 1_555 1_555
C1B H1B 1_555 1_555
C2B C1B 1_555 1_555
H2B C2B 1_555 1_555
C3B C2B 1_555 1_555
C4B C3B 1_555 1_555
H3B C4B 1_555 1_555
C5B C4B 1_555 1_555
H4B C5B 1_555 1_555
C6B C7 1_555 1_555
C8B C7 1_555 1_555
C9B C8B 1_555 1_555
H5B C9B 1_555 1_555
C10B C9B 1_555 1_555
H6B C10B 1_555 1_555
C11B C10B 1_555 1_555
H7B C11B 1_555 1_555
C12B C11B 1_555 1_555
H8B C12B 1_555 1_555
C13B C13 1_555 1_555
C14E H9E 1_555 1_555
C15E C14E 1_555 1_555
H10E C15E 1_555 1_555
C16E C16 1_555 1_555
C17E C16E 1_555 1_555
H11E C17E 1_555 1_555
C18E C17E 1_555 1_555
H12E C18E 1_555 1_555
N1E C14E 1_555 1_555
O1B C3B 1_555 1_555
H13B O1B 1_555 1_555
O2E N1E 1_555 1_555
C5 C6 1_555 1_555
C12 C13 1_555 1_555
C18 N1 1_555 1_555
C1B C6B 1_555 1_555
C5B C6B 1_555 1_555
C8B C13B 1_555 1_555
C12B C13B 1_555 1_555
C15E C16E 1_555 1_555
C18E N1E 1_555 1_555

#END
