
#######################################################################
#
#                 Cambridge Crystallographic Data Centre
#                                CCDC 
#
#######################################################################
#
# If this CIF has been generated from an entry in the Cambridge 
# Structural Database, then it will include bibliographic, chemical, 
# crystal, experimental, refinement or atomic coordinate data resulting 
# from the CCDC's data processing and validation procedures.
#
#######################################################################

data_LAPLOE
_chemical_formula_moiety         'C25 H18 O2,C10 H8 N2'
_chemical_name_systematic        
"4,4'-(9-Fluorenylidene)diphenol 4,4'-bipyridine"
_symmetry_cell_setting           monoclinic
_symmetry_space_group_name_H-M   'P 21/c'
_symmetry_Int_Tables_number      14
_space_group_name_Hall           '-P 2ybc'
loop_
_symmetry_equiv_pos_site_id
_symmetry_equiv_pos_as_xyz
1 x,y,z
2 -x,1/2+y,1/2-z
3 -x,-y,-z
4 x,1/2-y,1/2+z
_cell_length_a                   12.511(3)
_cell_length_b                   27.820(6)
_cell_length_c                   23.127(5)
_cell_angle_alpha                90
_cell_angle_beta                 92.60(3)
_cell_angle_gamma                90
_cell_volume                     8041.21
_exptl_crystal_colour            yellow
_exptl_crystal_description       block
_cell_formula_units_Z            12
_exptl_crystal_recrystallization_method ethanol
loop_
_atom_site_label
_atom_site_type_symbol
_atom_site_fract_x
_atom_site_fract_y
_atom_site_fract_z
O1 O 0.40775(14) 0.55517(6) 0.30881(7)
O2 O 0.08127(14) 0.53284(6) 0.67614(8)
C1 C 0.36919(17) 0.52704(8) 0.35151(9)
C2 C 0.27763(17) 0.53799(8) 0.37983(9)
H1 H 0.2381 0.5652 0.3693
C3 C 0.24452(16) 0.50876(8) 0.42365(9)
H2 H 0.1827 0.5167 0.4424
C4 C 0.30063(15) 0.46796(7) 0.44054(9)
C5 C 0.39187(17) 0.45737(8) 0.41121(9)
H3 H 0.4314 0.4301 0.4214
C6 C 0.42546(18) 0.48640(8) 0.36716(10)
H4 H 0.4867 0.4784 0.3480
C7 C 0.12614(17) 0.51052(8) 0.63068(9)
C8 C 0.07494(18) 0.47133(9) 0.60677(10)
H5 H 0.0115 0.4607 0.6218
C9 C 0.11662(17) 0.44751(8) 0.56058(10)
H6 H 0.0810 0.4207 0.5455
C10 C 0.20924(15) 0.46228(7) 0.53624(9)
C11 C 0.25919(17) 0.50206(8) 0.56082(10)
H7 H 0.3218 0.5132 0.5453
C12 C 0.21948(17) 0.52576(8) 0.60753(10)
H8 H 0.2559 0.5521 0.6234
C13 C 0.26003(15) 0.43420(7) 0.48714(9)
C14 C 0.18513(17) 0.39689(8) 0.45857(9)
C15 C 0.09231(19) 0.40436(9) 0.42469(10)
H9 H 0.0672 0.4353 0.4172
C16 C 0.0379(2) 0.36493(11) 0.40224(11)
H10 H -0.0242 0.3693 0.3792
C17 C 0.0749(2) 0.31921(11) 0.41362(12)
H11 H 0.0370 0.2931 0.3982
C18 C 0.1670(2) 0.31115(9) 0.44749(11)
H12 H 0.1912 0.2800 0.4548
C19 C 0.22251(18) 0.35043(8) 0.47022(9)
C20 C 0.32154(18) 0.35329(8) 0.50622(9)
C21 C 0.3861(2) 0.31739(8) 0.53115(10)
H13 H 0.3683 0.2852 0.5263
C22 C 0.4767(2) 0.33052(9) 0.56309(11)
H14 H 0.5204 0.3069 0.5801
C23 C 0.5036(2) 0.37790(9) 0.57023(10)
H15 H 0.5658 0.3860 0.5915
C24 C 0.43965(18) 0.41383(8) 0.54632(10)
H16 H 0.4587 0.4459 0.5513
C25 C 0.34704(17) 0.40159(7) 0.51499(9)
H73 H 0.3718(15) 0.5809(6) 0.3090(9)
H74 H 0.1189(15) 0.5552(7) 0.6878(9)
O3 O 0.38257(14) 0.18910(6) 0.28652(7)
O4 O 0.05520(14) 0.23105(6) 0.65219(8)
C26 C 0.34218(17) 0.16991(8) 0.33512(9)
C27 C 0.39279(18) 0.13041(8) 0.35949(10)
H17 H 0.4528 0.1177 0.3427
C28 C 0.35497(17) 0.10951(8) 0.40879(10)
H18 H 0.3898 0.0826 0.4244
C29 C 0.26702(15) 0.12742(7) 0.43548(9)
C30 C 0.21762(17) 0.16738(8) 0.41030(9)
H19 H 0.1582 0.1805 0.4272
C31 C 0.25404(17) 0.18822(8) 0.36095(10)
H20 H 0.2188 0.2149 0.3450
C32 C 0.09865(17) 0.20112(8) 0.61312(9)
C33 C 0.19490(17) 0.20926(8) 0.58835(9)
H21 H 0.2353 0.2362 0.5990
C34 C 0.23194(17) 0.17774(8) 0.54772(10)
H22 H 0.2969 0.1841 0.5313
C35 C 0.17524(15) 0.13703(7) 0.53074(9)
C36 C 0.07982(16) 0.12925(8) 0.55707(10)
H23 H 0.0398 0.1021 0.5470
C37 C 0.04222(18) 0.16037(8) 0.59763(10)
H24 H -0.0220 0.1538 0.6148
C38 C 0.21693(15) 0.10181(7) 0.48623(9)
C39 C 0.29275(16) 0.06485(8) 0.51553(9)
C40 C 0.38721(18) 0.07266(9) 0.54802(9)
H25 H 0.4120 0.1037 0.5551
C41 C 0.44397(19) 0.03325(11) 0.56970(10)
H26 H 0.5075 0.0379 0.5914
C42 C 0.4071(2) -0.01262(10) 0.55939(11)
H27 H 0.4460 -0.0386 0.5744
C43 C 0.3134(2) -0.02093(9) 0.52720(11)
H28 H 0.2891 -0.0521 0.5205
C44 C 0.25630(16) 0.01810(8) 0.50509(9)
C45 C 0.15663(16) 0.02022(7) 0.46953(9)
C46 C 0.09141(18) -0.01611(8) 0.44623(10)
H29 H 0.1093 -0.0482 0.4524
C47 C 0.00039(19) -0.00408(8) 0.41400(10)
H30 H -0.0434 -0.0281 0.3981
C48 C -0.02625(18) 0.04355(9) 0.40520(10)
H31 H -0.0886 0.0513 0.3839
C49 C 0.03855(17) 0.07990(8) 0.42765(9)
H32 H 0.0204 0.1119 0.4211
C50 C 0.13039(16) 0.06820(7) 0.45988(9)
H75 H 0.3455(15) 0.2148(6) 0.2767(9)
H76 H 0.0896(15) 0.2559(6) 0.6545(9)
O5 O 0.42687(14) 0.62101(7) -0.16250(8)
O6 O 0.11507(14) 0.62004(6) 0.20880(8)
C51 C 0.39039(17) 0.64566(8) -0.11669(9)
C52 C 0.45299(18) 0.68276(8) -0.09497(10)
H33 H 0.5168 0.6902 -0.1120
C53 C 0.42158(17) 0.70892(8) -0.04802(9)
H34 H 0.4653 0.7337 -0.0338
C54 C 0.32686(15) 0.69946(7) -0.02142(9)
C55 C 0.26564(17) 0.66195(8) -0.04417(10)
H35 H 0.2015 0.6545 -0.0274
C56 C 0.29665(17) 0.63535(8) -0.09083(9)
H36 H 0.2537 0.6103 -0.1048
C57 C 0.15808(18) 0.64545(8) 0.16557(10)
C58 C 0.24761(17) 0.63041(8) 0.13803(10)
H37 H 0.2820 0.6021 0.1496
C59 C 0.28655(17) 0.65730(8) 0.09322(9)
H38 H 0.3466 0.6465 0.0748
C60 C 0.23846(15) 0.69993(7) 0.07506(9)
C61 C 0.14950(17) 0.71449(8) 0.10347(10)
H39 H 0.1158 0.7431 0.0926
C62 C 0.10924(18) 0.68757(9) 0.14785(10)
H40 H 0.0485 0.6981 0.1659
C63 C 0.28898(15) 0.73058(7) 0.02840(9)
C64 C 0.37892(16) 0.76095(7) 0.05775(9)
C65 C 0.46989(16) 0.74622(8) 0.08886(9)
H41 H 0.4851 0.7137 0.0932
C66 C 0.53822(18) 0.78036(8) 0.11351(10)
H42 H 0.5997 0.7705 0.1343
C67 C 0.51682(19) 0.82838(8) 0.10783(10)
H43 H 0.5635 0.8508 0.1250
C68 C 0.42694(18) 0.84380(8) 0.07698(9)
H44 H 0.4127 0.8765 0.0730
C69 C 0.35745(16) 0.80992(7) 0.05178(9)
C70 C 0.25741(17) 0.81571(8) 0.01670(9)
C71 C 0.20598(19) 0.85721(8) -0.00301(10)
H45 H 0.2343 0.8874 0.0055
C72 C 0.1122(2) 0.85216(10) -0.03535(11)
H46 H 0.0767 0.8796 -0.0490
C73 C 0.06919(19) 0.80802(11) -0.04811(11)
H47 H 0.0050 0.8059 -0.0698
C74 C 0.12035(18) 0.76639(9) -0.02900(10)
H48 H 0.0914 0.7364 -0.0379
C75 C 0.21535(16) 0.77043(8) 0.00361(9)
H77 H 0.3895(15) 0.5975(6) -0.1695(9)
H78 H 0.1440(16) 0.5926(6) 0.2121(9)
C76 C 0.3870(2) 0.51155(11) -0.23017(13)
H49 H 0.4530 0.5239 -0.2397
C77 C 0.3534(2) 0.46973(10) -0.25688(12)
H50 H 0.3966 0.4549 -0.2833
C78 C 0.25790(17) 0.45003(8) -0.24505(9)
C79 C 0.2015(2) 0.47433(10) -0.20528(12)
H51 H 0.1355 0.4627 -0.1947
C80 C 0.2417(2) 0.51584(10) -0.18094(12)
H52 H 0.2005 0.5314 -0.1542
C81 C 0.2303(2) 0.34157(10) -0.34133(12)
H53 H 0.2673 0.3279 -0.3712
C82 C 0.2702(2) 0.38347(10) -0.31715(11)
H54 H 0.3325 0.3969 -0.3305
C83 C 0.21787(17) 0.40539(8) -0.27327(9)
C84 C 0.12626(19) 0.38293(9) -0.25713(11)
H55 H 0.0865 0.3962 -0.2281
C85 C 0.0927(2) 0.34075(10) -0.28368(12)
H56 H 0.0304 0.3264 -0.2715
N1 N 0.33309(17) 0.53523(8) -0.19237(9)
N2 N 0.14366(17) 0.31957(7) -0.32527(9)
C86 C 0.2026(3) 0.29695(12) 0.26870(15)
H57 H 0.1502 0.2771 0.2830
C87 C 0.1797(2) 0.34452(11) 0.26296(14)
H58 H 0.1134 0.3559 0.2735
C88 C 0.25234(18) 0.37582(9) 0.24204(10)
C89 C 0.3462(2) 0.35487(11) 0.22640(12)
H59 H 0.3992 0.3736 0.2108
C90 C 0.3621(3) 0.30667(11) 0.23369(13)
H60 H 0.4266 0.2939 0.2224
C91 C 0.2661(2) 0.50339(11) 0.19375(13)
H61 H 0.3073 0.5214 0.1693
C92 C 0.2878(2) 0.45515(11) 0.19869(12)
H62 H 0.3411 0.4414 0.1773
C93 C 0.23096(18) 0.42751(9) 0.23493(9)
C94 C 0.1525(2) 0.45066(10) 0.26378(11)
H63 H 0.1111 0.4336 0.2891
C95 C 0.1350(2) 0.49881(10) 0.25545(11)
H64 H 0.0802 0.5131 0.2751
N3 N 0.2929(2) 0.27725(8) 0.25554(9)
N4 N 0.19060(17) 0.52612(8) 0.22136(9)
C96 C 0.2482(2) 0.67150(11) 0.32674(13)
H65 H 0.2087 0.6556 0.3540
C97 C 0.2190(2) 0.71725(10) 0.31239(12)
H66 H 0.1619 0.7316 0.3301
C98 C 0.27351(17) 0.74227(8) 0.27171(9)
C99 C 0.35767(19) 0.71852(9) 0.24919(10)
H67 H 0.3986 0.7337 0.2220
C100 C 0.3825(2) 0.67208(9) 0.26649(11)
H68 H 0.4403 0.6571 0.2502
C101 C 0.2527(3) 0.85847(12) 0.19216(15)
H69 H 0.2863 0.8725 0.1613
C102 C 0.2863(3) 0.81353(12) 0.20891(15)
H70 H 0.3410 0.7986 0.1897
C103 C 0.24132(17) 0.79082(8) 0.25262(9)
C104 C 0.1631(2) 0.81618(10) 0.27721(12)
H71 H 0.1275 0.8029 0.3078
C105 C 0.1355(2) 0.86126(10) 0.25766(13)
H72 H 0.0817 0.8773 0.2763
N5 N 0.32912(17) 0.64793(7) 0.30470(8)
N6 N 0.17872(17) 0.88296(8) 0.21534(9)
loop_
_geom_bond_atom_site_label_1
_geom_bond_atom_site_label_2
_geom_bond_site_symmetry_1
_geom_bond_site_symmetry_2
O1 C1 1_555 1_555
O2 C7 1_555 1_555
O3 C26 1_555 1_555
O4 C32 1_555 1_555
O5 C51 1_555 1_555
O6 C57 1_555 1_555
C1 C2 1_555 1_555
C2 H1 1_555 1_555
C3 C2 1_555 1_555
H2 C3 1_555 1_555
C4 C3 1_555 1_555
C5 C4 1_555 1_555
H3 C5 1_555 1_555
C6 C1 1_555 1_555
H4 C6 1_555 1_555
C7 C8 1_555 1_555
C8 H5 1_555 1_555
C9 C8 1_555 1_555
H6 C9 1_555 1_555
C10 C9 1_555 1_555
C11 C10 1_555 1_555
H7 C11 1_555 1_555
C12 C7 1_555 1_555
H8 C12 1_555 1_555
C13 C4 1_555 1_555
C14 C13 1_555 1_555
C15 C14 1_555 1_555
H9 C15 1_555 1_555
C16 C15 1_555 1_555
H10 C16 1_555 1_555
C17 C16 1_555 1_555
H11 C17 1_555 1_555
C18 C17 1_555 1_555
H12 C18 1_555 1_555
C19 C14 1_555 1_555
C20 C19 1_555 1_555
C21 C20 1_555 1_555
H13 C21 1_555 1_555
C22 C21 1_555 1_555
H14 C22 1_555 1_555
C23 C22 1_555 1_555
H15 C23 1_555 1_555
C24 C23 1_555 1_555
H16 C24 1_555 1_555
C25 C13 1_555 1_555
C26 C27 1_555 1_555
C27 H17 1_555 1_555
C28 C27 1_555 1_555
H18 C28 1_555 1_555
C29 C28 1_555 1_555
C30 C29 1_555 1_555
H19 C30 1_555 1_555
C31 C26 1_555 1_555
H20 C31 1_555 1_555
C32 C33 1_555 1_555
C33 H21 1_555 1_555
C34 C33 1_555 1_555
H22 C34 1_555 1_555
C35 C34 1_555 1_555
C36 C35 1_555 1_555
H23 C36 1_555 1_555
C37 C32 1_555 1_555
H24 C37 1_555 1_555
C38 C29 1_555 1_555
C39 C38 1_555 1_555
C40 C39 1_555 1_555
H25 C40 1_555 1_555
C41 C40 1_555 1_555
H26 C41 1_555 1_555
C42 C41 1_555 1_555
H27 C42 1_555 1_555
C43 C42 1_555 1_555
H28 C43 1_555 1_555
C44 C39 1_555 1_555
C45 C44 1_555 1_555
C46 C45 1_555 1_555
H29 C46 1_555 1_555
C47 C46 1_555 1_555
H30 C47 1_555 1_555
C48 C47 1_555 1_555
H31 C48 1_555 1_555
C49 C48 1_555 1_555
H32 C49 1_555 1_555
C50 C38 1_555 1_555
C51 C52 1_555 1_555
C52 H33 1_555 1_555
C53 C52 1_555 1_555
H34 C53 1_555 1_555
C54 C53 1_555 1_555
C55 C54 1_555 1_555
H35 C55 1_555 1_555
C56 C51 1_555 1_555
H36 C56 1_555 1_555
C57 C58 1_555 1_555
C58 H37 1_555 1_555
C59 C58 1_555 1_555
H38 C59 1_555 1_555
C60 C59 1_555 1_555
C61 C60 1_555 1_555
H39 C61 1_555 1_555
C62 C57 1_555 1_555
H40 C62 1_555 1_555
C63 C54 1_555 1_555
C64 C63 1_555 1_555
C65 C64 1_555 1_555
H41 C65 1_555 1_555
C66 C65 1_555 1_555
H42 C66 1_555 1_555
C67 C66 1_555 1_555
H43 C67 1_555 1_555
C68 C67 1_555 1_555
H44 C68 1_555 1_555
C69 C64 1_555 1_555
C70 C69 1_555 1_555
C71 C70 1_555 1_555
H45 C71 1_555 1_555
C72 C71 1_555 1_555
H46 C72 1_555 1_555
C73 C72 1_555 1_555
H47 C73 1_555 1_555
C74 C73 1_555 1_555
H48 C74 1_555 1_555
C75 C63 1_555 1_555
C76 H49 1_555 1_555
C77 C76 1_555 1_555
H50 C77 1_555 1_555
C78 C77 1_555 1_555
C79 C78 1_555 1_555
H51 C79 1_555 1_555
C80 C79 1_555 1_555
H52 C80 1_555 1_555
C81 H53 1_555 1_555
C82 C81 1_555 1_555
H54 C82 1_555 1_555
C83 C78 1_555 1_555
C84 C83 1_555 1_555
H55 C84 1_555 1_555
C85 C84 1_555 1_555
H56 C85 1_555 1_555
C86 H57 1_555 1_555
C87 C86 1_555 1_555
H58 C87 1_555 1_555
C88 C87 1_555 1_555
C89 C88 1_555 1_555
H59 C89 1_555 1_555
C90 C89 1_555 1_555
H60 C90 1_555 1_555
C91 H61 1_555 1_555
C92 C91 1_555 1_555
H62 C92 1_555 1_555
C93 C88 1_555 1_555
C94 C93 1_555 1_555
H63 C94 1_555 1_555
C95 C94 1_555 1_555
H64 C95 1_555 1_555
C96 H65 1_555 1_555
C97 C96 1_555 1_555
H66 C97 1_555 1_555
C98 C97 1_555 1_555
C99 C98 1_555 1_555
H67 C99 1_555 1_555
C100 C99 1_555 1_555
H68 C100 1_555 1_555
C101 H69 1_555 1_555
C102 C101 1_555 1_555
H70 C102 1_555 1_555
C103 C98 1_555 1_555
C104 C103 1_555 1_555
H71 C104 1_555 1_555
C105 C104 1_555 1_555
H72 C105 1_555 1_555
N1 C76 1_555 1_555
N2 C81 1_555 1_555
N3 C86 1_555 1_555
N4 C91 1_555 1_555
N5 C96 1_555 1_555
N6 C101 1_555 1_555
H73 O1 1_555 1_555
H74 O2 1_555 1_555
H75 O3 1_555 1_555
H76 O4 1_555 1_555
H77 O5 1_555 1_555
H78 O6 1_555 1_555
C5 C6 1_555 1_555
C10 C13 1_555 1_555
C11 C12 1_555 1_555
C18 C19 1_555 1_555
C20 C25 1_555 1_555
C24 C25 1_555 1_555
C30 C31 1_555 1_555
C35 C38 1_555 1_555
C36 C37 1_555 1_555
C43 C44 1_555 1_555
C45 C50 1_555 1_555
C49 C50 1_555 1_555
C55 C56 1_555 1_555
C60 C63 1_555 1_555
C61 C62 1_555 1_555
C68 C69 1_555 1_555
C70 C75 1_555 1_555
C74 C75 1_555 1_555
C80 N1 1_555 1_555
C82 C83 1_555 1_555
C85 N2 1_555 1_555
C90 N3 1_555 1_555
C92 C93 1_555 1_555
C95 N4 1_555 1_555
C100 N5 1_555 1_555
C102 C103 1_555 1_555
C105 N6 1_555 1_555

#END
