
#######################################################################
#
#                 Cambridge Crystallographic Data Centre
#                                CCDC 
#
#######################################################################
#
# If this CIF has been generated from an entry in the Cambridge 
# Structural Database, then it will include bibliographic, chemical, 
# crystal, experimental, refinement or atomic coordinate data resulting 
# from the CCDC's data processing and validation procedures.
#
#######################################################################

data_LAQXEH
_chemical_formula_moiety         'C30 H36 O2 S2'
_chemical_name_systematic        1,3-bis(3-(Hexyloxy)thienyl)azulene
_symmetry_cell_setting           orthorhombic
_symmetry_space_group_name_H-M   'P n a a'
_symmetry_Int_Tables_number      56
_space_group_name_Hall           '-P 2ac 2bc'
loop_
_symmetry_equiv_pos_site_id
_symmetry_equiv_pos_as_xyz
1 x,y,z
2 x,1/2-y,1/2-z
3 1/2-x,-y,1/2+z
4 1/2-x,1/2+y,-z
5 -x,-y,-z
6 -x,1/2+y,1/2+z
7 1/2+x,y,1/2-z
8 1/2+x,1/2-y,z
_cell_length_a                   8.7590(12)
_cell_length_b                   15.009(2)
_cell_length_c                   42.798(6)
_cell_angle_alpha                90
_cell_angle_beta                 90
_cell_angle_gamma                90
_cell_volume                     5626.39
_exptl_crystal_colour            'dark blue'
_exptl_crystal_description       Block
_cell_formula_units_Z            8
loop_
_atom_site_label
_atom_site_type_symbol
_atom_site_fract_x
_atom_site_fract_y
_atom_site_fract_z
S1 S 0.67190(14) 0.41370(8) 0.03037(3)
S2 S 0.02500(15) 0.56409(10) 0.03473(3)
O1 O 0.5350(3) 0.25737(18) 0.09563(7)
O2 O 0.1822(3) 0.73927(18) 0.09148(7)
C1 C 0.4546(4) 0.4441(2) 0.07590(9)
C2 C 0.3562(4) 0.4953(2) 0.05758(9)
H1 H 0.3539 0.4943 0.0356
C3 C 0.2613(4) 0.5484(2) 0.07622(9)
C4 C 0.2996(4) 0.5318(2) 0.10760(9)
C5 C 0.4265(4) 0.4647(2) 0.10753(9)
C6 C 0.5032(5) 0.4311(3) 0.13309(10)
H2 H 0.5822 0.3908 0.1286
C7 C 0.4802(6) 0.4485(3) 0.16441(10)
H3 H 0.5462 0.4187 0.1782
C8 C 0.3734(6) 0.5036(3) 0.17830(11)
H4 H 0.3770 0.5055 0.2002
C9 C 0.2624(6) 0.5564(3) 0.16480(10)
H5 H 0.2002 0.5881 0.1788
C10 C 0.2301(5) 0.5690(3) 0.13353(9)
H6 H 0.1495 0.6086 0.1293
C11 C 0.5692(4) 0.3828(2) 0.06306(9)
C12 C 0.6031(4) 0.2967(3) 0.07085(10)
C13 C 0.7137(5) 0.2571(3) 0.05093(11)
H7 H 0.7507 0.1987 0.0535
C14 C 0.7598(5) 0.3122(3) 0.02803(12)
H8 H 0.8316 0.2969 0.0126
C15 C 0.1415(4) 0.6059(3) 0.06368(9)
C16 C 0.1045(5) 0.6932(3) 0.06923(10)
C17 C -0.0131(5) 0.7254(4) 0.04964(12)
H9 H -0.0501 0.7842 0.0502
C18 C -0.0660(6) 0.6626(4) 0.03008(13)
H10 H -0.1446 0.6722 0.0155
C19 C 0.5465(6) 0.1619(3) 0.09767(12)
H11 H 0.6536 0.1438 0.0995
H12 H 0.5032 0.1341 0.0789
C20 C 0.4588(7) 0.1342(3) 0.12610(15)
H13 H 0.4515 0.0691 0.1266
H14 H 0.3549 0.1582 0.1248
C21 C 0.5329(9) 0.1666(4) 0.15634(15)
H15 H 0.6404 0.1484 0.1562
H16 H 0.5305 0.2319 0.1565
C22 C 0.4623(14) 0.1341(6) 0.1858(2)
H17 H 0.3565 0.1552 0.1865
H18 H 0.4592 0.0688 0.1850
C23 C 0.538(2) 0.1607(7) 0.2147(2)
H19 H 0.6462 0.1452 0.2133
H20 H 0.5304 0.2255 0.2169
C24 C 0.475(3) 0.1199(8) 0.2418(3)
H21 H 0.3670 0.1347 0.2433
H22 H 0.5274 0.1415 0.2602
H23 H 0.4862 0.0558 0.2403
C25 C 0.1522(6) 0.8326(3) 0.09371(14)
H24 H 0.0442 0.8430 0.0985
H25 H 0.1768 0.8623 0.0739
C26 C 0.2499(7) 0.8677(3) 0.11925(16)
H26 H 0.2424 0.9329 0.1196
H27 H 0.3565 0.8521 0.1149
C27 C 0.2060(8) 0.8317(4) 0.15119(17)
H28 H 0.0983 0.8456 0.1550
H29 H 0.2159 0.7667 0.1508
C28 C 0.2974(12) 0.8665(5) 0.1778(2)
H30 H 0.4044 0.8498 0.1745
H31 H 0.2919 0.9317 0.1775
C29 C 0.2510(17) 0.8356(7) 0.2089(3)
H32 H 0.1422 0.8487 0.2117
H33 H 0.2629 0.7707 0.2097
C30 C 0.334(3) 0.8737(8) 0.2346(3)
H34 H 0.3188 0.8374 0.2531
H35 H 0.2964 0.9335 0.2386
H36 H 0.4414 0.8760 0.2295
loop_
_geom_bond_atom_site_label_1
_geom_bond_atom_site_label_2
_geom_bond_site_symmetry_1
_geom_bond_site_symmetry_2
S1 C11 1_555 1_555
S2 C15 1_555 1_555
O1 C12 1_555 1_555
O2 C16 1_555 1_555
C1 C2 1_555 1_555
C2 H1 1_555 1_555
C3 C2 1_555 1_555
C4 C3 1_555 1_555
C5 C1 1_555 1_555
C6 C5 1_555 1_555
H2 C6 1_555 1_555
C7 C6 1_555 1_555
H3 C7 1_555 1_555
C8 C7 1_555 1_555
H4 C8 1_555 1_555
C9 C8 1_555 1_555
H5 C9 1_555 1_555
C10 C4 1_555 1_555
H6 C10 1_555 1_555
C11 C1 1_555 1_555
C12 C11 1_555 1_555
C13 C12 1_555 1_555
H7 C13 1_555 1_555
C14 S1 1_555 1_555
H8 C14 1_555 1_555
C15 C3 1_555 1_555
C16 C15 1_555 1_555
C17 C16 1_555 1_555
H9 C17 1_555 1_555
C18 S2 1_555 1_555
H10 C18 1_555 1_555
C19 O1 1_555 1_555
H11 C19 1_555 1_555
H12 C19 1_555 1_555
C20 C19 1_555 1_555
H13 C20 1_555 1_555
H14 C20 1_555 1_555
C21 C20 1_555 1_555
H15 C21 1_555 1_555
H16 C21 1_555 1_555
C22 C21 1_555 1_555
H17 C22 1_555 1_555
H18 C22 1_555 1_555
C23 C22 1_555 1_555
H19 C23 1_555 1_555
H20 C23 1_555 1_555
C24 C23 1_555 1_555
H21 C24 1_555 1_555
H22 C24 1_555 1_555
H23 C24 1_555 1_555
C25 O2 1_555 1_555
H24 C25 1_555 1_555
H25 C25 1_555 1_555
C26 C25 1_555 1_555
H26 C26 1_555 1_555
H27 C26 1_555 1_555
C27 C26 1_555 1_555
H28 C27 1_555 1_555
H29 C27 1_555 1_555
C28 C27 1_555 1_555
H30 C28 1_555 1_555
H31 C28 1_555 1_555
C29 C28 1_555 1_555
H32 C29 1_555 1_555
H33 C29 1_555 1_555
C30 C29 1_555 1_555
H34 C30 1_555 1_555
H35 C30 1_555 1_555
H36 C30 1_555 1_555
C4 C5 1_555 1_555
C9 C10 1_555 1_555
C13 C14 1_555 1_555
C17 C18 1_555 1_555

#END
