
#######################################################################
#
#                 Cambridge Crystallographic Data Centre
#                                CCDC 
#
#######################################################################
#
# If this CIF has been generated from an entry in the Cambridge 
# Structural Database, then it will include bibliographic, chemical, 
# crystal, experimental, refinement or atomic coordinate data resulting 
# from the CCDC's data processing and validation procedures.
#
#######################################################################

data_LARVUY02
_chemical_formula_moiety         'C12 H24 O6,2(C5 H2 N4)'
_chemical_name_systematic        
'bis(1H-imidazole-4,5-dicarbonitrile) 18-crown-6'
_symmetry_cell_setting           triclinic
_symmetry_space_group_name_H-M   'P -1'
_symmetry_Int_Tables_number      2
_space_group_name_Hall           '-P 1'
loop_
_symmetry_equiv_pos_site_id
_symmetry_equiv_pos_as_xyz
1 x,y,z
2 -x,-y,-z
_cell_length_a                   10.383(2)
_cell_length_b                   10.549(2)
_cell_length_c                   13.557(3)
_cell_angle_alpha                78.09(3)
_cell_angle_beta                 83.06(3)
_cell_angle_gamma                65.91(3)
_cell_volume                     1325.28
_cell_formula_units_Z            2
_exptl_crystal_preparation       'Crystallised in 1.0T magnetic field'
loop_
_atom_site_label
_atom_site_type_symbol
_atom_site_fract_x
_atom_site_fract_y
_atom_site_fract_z
N1 N -0.3753(4) 0.6667(3) 0.4662(2)
N2 N -0.2066(3) 0.7317(3) 0.4908(2)
H1 H -0.1293 0.7272 0.5112
N3 N -0.6451(4) 0.9645(4) 0.3399(3)
N4 N -0.2880(4) 1.0849(4) 0.3790(3)
C1 C -0.2504(5) 0.6273(4) 0.5048(3)
H2 H -0.1994 0.5366 0.5380
C2 C -0.4096(4) 0.8035(4) 0.4249(2)
C3 C -0.3055(4) 0.8467(4) 0.4387(2)
C4 C -0.5404(5) 0.8919(4) 0.3767(3)
C5 C -0.2944(4) 0.9772(4) 0.4066(3)
N5 N 0.8703(4) 0.3186(4) 0.0171(3)
N6 N 0.6776(3) 0.2750(3) 0.0386(2)
H3 H 0.5908 0.2880 0.0350
N7 N 1.1484(4) 0.0087(4) 0.1228(3)
N8 N 0.7457(4) -0.0683(4) 0.1667(3)
C6 C 0.7354(5) 0.3683(4) 0.0020(3)
H4 H 0.6847 0.4593 -0.0309
C7 C 0.8997(4) 0.1845(4) 0.0691(3)
C8 C 0.7811(4) 0.1563(4) 0.0823(2)
C9 C 1.0391(5) 0.0876(4) 0.0998(3)
C10 C 0.7602(4) 0.0305(4) 0.1297(3)
O1 O -0.0211(3) 0.2337(3) 0.4541(2)
O2 O 0.0199(3) 0.4529(3) 0.30617(19)
O3 O 0.0682(3) 0.6776(3) 0.36520(19)
C11 C -0.1315(6) 0.2271(6) 0.5151(4)
H5 H -0.1460 0.1442 0.5080
H6 H -0.2156 0.3090 0.4928
C12 C -0.0247(6) 0.2456(5) 0.3479(4)
H7 H 0.0689 0.1903 0.3226
H8 H -0.0880 0.2047 0.3347
C13 C -0.0685(5) 0.3849(5) 0.2931(3)
H9 H -0.1644 0.4394 0.3149
H10 H -0.0686 0.3826 0.2220
C14 C -0.0267(4) 0.5920(4) 0.2536(3)
H11 H -0.1210 0.6456 0.2787
H12 H -0.0318 0.5918 0.1826
C15 C 0.0676(4) 0.6619(4) 0.2643(3)
H13 H 0.1628 0.6065 0.2419
H14 H 0.0366 0.7540 0.2215
C16 C 0.1159(5) 0.7789(4) 0.3781(3)
H15 H 0.0493 0.8719 0.3500
H16 H 0.2061 0.7631 0.3419
O1A O 0.0211(3) 0.7663(3) 0.5459(2)
O2A O -0.0199(3) 0.5471(3) 0.69383(19)
O3A O -0.0682(3) 0.3224(3) 0.63480(19)
C11A C 0.1315(6) 0.7729(6) 0.4849(4)
H5A H 0.1460 0.8558 0.4920
H6A H 0.2156 0.6910 0.5072
C12A C 0.0247(6) 0.7544(5) 0.6521(4)
H7A H -0.0689 0.8097 0.6774
H8A H 0.0880 0.7953 0.6653
C13A C 0.0685(5) 0.6151(5) 0.7069(3)
H9A H 0.1644 0.5606 0.6851
H10A H 0.0686 0.6174 0.7780
C14A C 0.0267(4) 0.4080(4) 0.7464(3)
H11A H 0.1210 0.3544 0.7213
H12A H 0.0318 0.4082 0.8174
C15A C -0.0676(4) 0.3381(4) 0.7357(3)
H13A H -0.1628 0.3935 0.7581
H14A H -0.0366 0.2460 0.7785
C16A C -0.1159(5) 0.2211(4) 0.6219(3)
H15A H -0.0493 0.1281 0.6500
H16A H -0.2061 0.2369 0.6581
O4 O 0.4089(3) 0.2640(3) 0.05706(18)
O5 O 0.4198(3) 0.4159(2) 0.19798(17)
O6 O 0.5674(3) 0.6034(3) 0.14326(18)
C17 C 0.3403(5) 0.2528(5) -0.0235(3)
H17 H 0.2479 0.3294 -0.0314
H18 H 0.3281 0.1643 -0.0093
C18 C 0.3266(4) 0.2688(4) 0.1498(3)
H19 H 0.3107 0.1825 0.1706
H20 H 0.2357 0.3475 0.1412
C19 C 0.4053(4) 0.2856(4) 0.2275(3)
H21 H 0.3544 0.2834 0.2923
H22 H 0.4977 0.2088 0.2340
C20 C 0.5044(4) 0.4362(4) 0.2628(3)
H23 H 0.6016 0.3705 0.2560
H24 H 0.4716 0.4186 0.3323
C21 C 0.4961(4) 0.5842(4) 0.2361(3)
H25 H 0.3980 0.6496 0.2322
H26 H 0.5380 0.6039 0.2883
C22 C 0.5694(5) 0.7405(4) 0.1187(3)
H27 H 0.6079 0.7589 0.1733
H28 H 0.4741 0.8111 0.1085
O4A O 0.5911(3) 0.7360(3) -0.05706(18)
O5A O 0.5802(3) 0.5841(2) -0.19798(17)
O6A O 0.4326(3) 0.3966(3) -0.14326(18)
C17A C 0.6597(5) 0.7472(5) 0.0235(3)
H17A H 0.7521 0.6706 0.0314
H18A H 0.6719 0.8357 0.0093
C18A C 0.6734(4) 0.7312(4) -0.1498(3)
H19A H 0.6893 0.8175 -0.1706
H20A H 0.7643 0.6525 -0.1412
C19A C 0.5947(4) 0.7144(4) -0.2275(3)
H21A H 0.6456 0.7166 -0.2923
H22A H 0.5023 0.7912 -0.2340
C20A C 0.4956(4) 0.5638(4) -0.2628(3)
H23A H 0.3984 0.6295 -0.2560
H24A H 0.5284 0.5814 -0.3323
C21A C 0.5039(4) 0.4158(4) -0.2361(3)
H25A H 0.6020 0.3504 -0.2322
H26A H 0.4620 0.3961 -0.2883
C22A C 0.4306(5) 0.2595(4) -0.1187(3)
H27A H 0.3921 0.2411 -0.1733
H28A H 0.5259 0.1889 -0.1085
loop_
_geom_bond_atom_site_label_1
_geom_bond_atom_site_label_2
_geom_bond_site_symmetry_1
_geom_bond_site_symmetry_2
N1 C1 1_555 1_555
N2 H1 1_555 1_555
N3 C4 1_555 1_555
N4 C5 1_555 1_555
C1 N2 1_555 1_555
H2 C1 1_555 1_555
C2 N1 1_555 1_555
C3 N2 1_555 1_555
C4 C2 1_555 1_555
C5 C3 1_555 1_555
N5 C6 1_555 1_555
N6 H3 1_555 1_555
N7 C9 1_555 1_555
N8 C10 1_555 1_555
C6 N6 1_555 1_555
H4 C6 1_555 1_555
C7 N5 1_555 1_555
C8 N6 1_555 1_555
C9 C7 1_555 1_555
C10 C8 1_555 1_555
O1 C11 1_555 1_555
O2 C13 1_555 1_555
O3 C15 1_555 1_555
C11 H5 1_555 1_555
H6 C11 1_555 1_555
C12 O1 1_555 1_555
H7 C12 1_555 1_555
H8 C12 1_555 1_555
C13 C12 1_555 1_555
H9 C13 1_555 1_555
H10 C13 1_555 1_555
C14 O2 1_555 1_555
H11 C14 1_555 1_555
H12 C14 1_555 1_555
C15 C14 1_555 1_555
H13 C15 1_555 1_555
H14 C15 1_555 1_555
C16 O3 1_555 1_555
H15 C16 1_555 1_555
H16 C16 1_555 1_555
O4 C17 1_555 1_555
O5 C19 1_555 1_555
O6 C21 1_555 1_555
C17 H17 1_555 1_555
H18 C17 1_555 1_555
C18 O4 1_555 1_555
H19 C18 1_555 1_555
H20 C18 1_555 1_555
C19 C18 1_555 1_555
H21 C19 1_555 1_555
H22 C19 1_555 1_555
C20 O5 1_555 1_555
H23 C20 1_555 1_555
H24 C20 1_555 1_555
C21 C20 1_555 1_555
H25 C21 1_555 1_555
H26 C21 1_555 1_555
C22 O6 1_555 1_555
H27 C22 1_555 1_555
H28 C22 1_555 1_555
O1A C11A 1_555 1_555
O2A C13A 1_555 1_555
O3A C15A 1_555 1_555
C11A C16 1_555 1_555
H5A C11A 1_555 1_555
H6A C11A 1_555 1_555
C12A O1A 1_555 1_555
H7A C12A 1_555 1_555
H8A C12A 1_555 1_555
C13A C12A 1_555 1_555
H9A C13A 1_555 1_555
H10A C13A 1_555 1_555
C14A O2A 1_555 1_555
H11A C14A 1_555 1_555
H12A C14A 1_555 1_555
C15A C14A 1_555 1_555
H13A C15A 1_555 1_555
H14A C15A 1_555 1_555
C16A C11 1_555 1_555
H15A C16A 1_555 1_555
H16A C16A 1_555 1_555
O4A C17A 1_555 1_555
O5A C19A 1_555 1_555
O6A C21A 1_555 1_555
C17A C22 1_555 1_555
H17A C17A 1_555 1_555
H18A C17A 1_555 1_555
C18A O4A 1_555 1_555
H19A C18A 1_555 1_555
H20A C18A 1_555 1_555
C19A C18A 1_555 1_555
H21A C19A 1_555 1_555
H22A C19A 1_555 1_555
C20A O5A 1_555 1_555
H23A C20A 1_555 1_555
H24A C20A 1_555 1_555
C21A C20A 1_555 1_555
H25A C21A 1_555 1_555
H26A C21A 1_555 1_555
C22A C17 1_555 1_555
H27A C22A 1_555 1_555
H28A C22A 1_555 1_555
C2 C3 1_555 1_555
C7 C8 1_555 1_555
O3A C16A 1_555 1_555
O6A C22A 1_555 1_555

#END
