
#######################################################################
#
#                 Cambridge Crystallographic Data Centre
#                                CCDC 
#
#######################################################################
#
# If this CIF has been generated from an entry in the Cambridge 
# Structural Database, then it will include bibliographic, chemical, 
# crystal, experimental, refinement or atomic coordinate data resulting 
# from the CCDC's data processing and validation procedures.
#
#######################################################################

data_LARVAC
_chemical_compound_source        'stem bark of Xylocarpus granatum'
_chemical_formula_moiety         'C35 H40 O16'
_chemical_name_systematic        'Xyloccensin Q'
_chemical_properties_biological  
'antifeedant activity against third instar larvae of Mythimna separata (Walker)'
_symmetry_cell_setting           orthorhombic
_symmetry_space_group_name_H-M   'P 21 21 21'
_symmetry_Int_Tables_number      19
_space_group_name_Hall           'P 2ac 2ab'
loop_
_symmetry_equiv_pos_site_id
_symmetry_equiv_pos_as_xyz
1 x,y,z
2 1/2-x,-y,1/2+z
3 -x,1/2+y,1/2-z
4 1/2+x,1/2-y,-z
_cell_length_a                   12.9405(16)
_cell_length_b                   13.0548(15)
_cell_length_c                   20.344(3)
_cell_angle_alpha                90
_cell_angle_beta                 90
_cell_angle_gamma                90
_cell_volume                     3436.83
_exptl_crystal_colour            colorless
_exptl_crystal_description       block
_cell_formula_units_Z            4
loop_
_atom_site_label
_atom_site_type_symbol
_atom_site_fract_x
_atom_site_fract_y
_atom_site_fract_z
C1 C 0.08657(19) 0.74692(19) 0.22642(12)
C2 C 0.02558(19) 0.8490(2) 0.21950(14)
C3 C 0.0190(2) 0.8596(2) 0.14383(14)
H1 H -0.0527 0.8465 0.1308
C4 C 0.08529(18) 0.77261(19) 0.11670(12)
C5 C 0.20011(18) 0.79526(17) 0.13739(11)
H2 H 0.2101 0.8695 0.1338
C6 C 0.28340(19) 0.74460(17) 0.09454(11)
H3 H 0.3499 0.7497 0.1173
C7 C 0.2916(2) 0.80081(19) 0.02918(12)
C8 C 0.1890(2) 0.96035(18) 0.25388(12)
C9 C 0.24497(19) 0.85618(18) 0.25746(11)
C10 C 0.20355(18) 0.76819(16) 0.21324(11)
C11 C 0.3614(2) 0.87450(19) 0.25564(12)
H4 H 0.3821 0.9066 0.2966
H5 H 0.3960 0.8087 0.2530
C12 C 0.39836(17) 0.94109(17) 0.19881(12)
H6 H 0.3863 0.9056 0.1571
C13 C 0.34876(18) 1.04760(17) 0.19675(11)
C14 C 0.23180(18) 1.04024(17) 0.20815(12)
C15 C 0.1726(2) 1.11450(18) 0.18439(14)
H7 H 0.1017 1.1117 0.1919
C16 C 0.2145(2) 1.20095(19) 0.14670(14)
C17 C 0.35957(18) 1.09121(18) 0.12637(12)
H8 H 0.3235 1.0447 0.0963
C18 C 0.3956(2) 1.11970(19) 0.24900(13)
H9 H 0.3608 1.1846 0.2475
H10 H 0.4678 1.1294 0.2402
H11 H 0.3872 1.0899 0.2918
C19 C 0.2654(2) 0.67048(18) 0.22965(12)
H12 H 0.3326 0.6746 0.2099
H13 H 0.2296 0.6117 0.2128
H14 H 0.2724 0.6643 0.2765
C20 C 0.4667(2) 1.1061(2) 0.10084(13)
C21 C 0.5174(2) 1.0414(3) 0.06035(16)
H15 H 0.4901 0.9808 0.0438
C22 C 0.5352(3) 1.1882(3) 0.11263(18)
H16 H 0.5223 1.2456 0.1384
C23 C 0.6217(3) 1.1677(4) 0.0799(2)
H17 H 0.6800 1.2094 0.0794
C24 C 0.0630(2) 0.7530(3) 0.04422(13)
H18 H -0.0094 0.7394 0.0385
H19 H 0.1023 0.6950 0.0295
H20 H 0.0819 0.8123 0.0190
C25 C 0.0539(2) 0.6885(2) 0.16511(13)
H21 H -0.0196 0.6742 0.1642
H22 H 0.0929 0.6257 0.1589
C26 C 0.0710(2) 0.93901(19) 0.25824(13)
H23 H 0.0319 1.0018 0.2492
C27 C 0.1633(3) 0.9127(2) 0.35171(14)
C28 C 0.1670(4) 0.9133(3) 0.42557(15)
H24 H 0.2373 0.9204 0.4399
H25 H 0.1391 0.8502 0.4421
H26 H 0.1269 0.9696 0.4419
C29 C 0.2690(3) 0.7977(3) -0.08488(13)
H27 H 0.2037 0.8324 -0.0865
H28 H 0.2734 0.7499 -0.1206
H29 H 0.3239 0.8468 -0.0884
C30 C 0.5723(2) 0.8874(2) 0.18085(18)
C31 C 0.6822(3) 0.9147(3) 0.1954(3)
H30 H 0.7211 0.8534 0.2035
H31 H 0.6848 0.9579 0.2335
H32 H 0.7113 0.9504 0.1585
C32 C -0.0243(3) 1.0119(3) 0.08579(17)
C33 C 0.0218(4) 1.0972(3) 0.0466(2)
H33 H -0.0266 1.1191 0.0137
H34 H 0.0840 1.0738 0.0258
H35 H 0.0376 1.1536 0.0752
C34 C 0.3390(3) 0.5727(2) 0.07853(15)
C35 C 0.3009(3) 0.4653(2) 0.0745(2)
H36 H 0.2885 0.4478 0.0293
H37 H 0.2378 0.4590 0.0990
H38 H 0.3519 0.4199 0.0925
O1 O 0.06448(15) 0.69110(14) 0.28433(9)
H39 H 0.0943 0.7176 0.3156
O2 O -0.07844(14) 0.83660(17) 0.24093(11)
H40 H -0.0793 0.8264 0.2807
O3 O 0.16779(18) 1.27915(15) 0.13732(13)
O4 O 0.30996(14) 1.19164(13) 0.12178(9)
O5 O 0.6126(2) 1.0766(3) 0.04729(15)
O6 O 0.20858(16) 0.99717(13) 0.32052(9)
O7 O 0.21839(16) 0.82688(13) 0.32556(8)
O8 O 0.06177(17) 0.91112(15) 0.32754(10)
O9 O 0.30913(19) 0.89100(14) 0.02781(9)
O10 O 0.27800(16) 0.74330(15) -0.02311(8)
O11 O 0.50815(13) 0.95608(14) 0.20849(10)
O12 O 0.54286(16) 0.81539(16) 0.15003(14)
O13 O 0.04920(15) 0.95605(15) 0.11602(10)
O14 O -0.1129(2) 0.9956(3) 0.09023(17)
O15 O 0.25845(14) 0.63818(13) 0.08631(9)
O16 O 0.42616(19) 0.60024(17) 0.07592(15)
loop_
_geom_bond_atom_site_label_1
_geom_bond_atom_site_label_2
_geom_bond_site_symmetry_1
_geom_bond_site_symmetry_2
C1 C2 1_555 1_555
C2 C3 1_555 1_555
C3 H1 1_555 1_555
C4 C3 1_555 1_555
C5 C4 1_555 1_555
H2 C5 1_555 1_555
C6 C5 1_555 1_555
H3 C6 1_555 1_555
C7 C6 1_555 1_555
C8 C9 1_555 1_555
C9 C10 1_555 1_555
C10 C1 1_555 1_555
C11 C9 1_555 1_555
H4 C11 1_555 1_555
H5 C11 1_555 1_555
C12 C11 1_555 1_555
H6 C12 1_555 1_555
C13 C12 1_555 1_555
C14 C8 1_555 1_555
C15 C14 1_555 1_555
H7 C15 1_555 1_555
C16 C15 1_555 1_555
C17 C13 1_555 1_555
H8 C17 1_555 1_555
C18 C13 1_555 1_555
H9 C18 1_555 1_555
H10 C18 1_555 1_555
H11 C18 1_555 1_555
C19 C10 1_555 1_555
H12 C19 1_555 1_555
H13 C19 1_555 1_555
H14 C19 1_555 1_555
C20 C17 1_555 1_555
C21 C20 1_555 1_555
H15 C21 1_555 1_555
C22 C20 1_555 1_555
H16 C22 1_555 1_555
C23 C22 1_555 1_555
H17 C23 1_555 1_555
C24 C4 1_555 1_555
H18 C24 1_555 1_555
H19 C24 1_555 1_555
H20 C24 1_555 1_555
C25 C1 1_555 1_555
H21 C25 1_555 1_555
H22 C25 1_555 1_555
C26 C2 1_555 1_555
H23 C26 1_555 1_555
C27 C28 1_555 1_555
C28 H24 1_555 1_555
H25 C28 1_555 1_555
H26 C28 1_555 1_555
C29 H27 1_555 1_555
H28 C29 1_555 1_555
H29 C29 1_555 1_555
C30 C31 1_555 1_555
C31 H30 1_555 1_555
H31 C31 1_555 1_555
H32 C31 1_555 1_555
C32 C33 1_555 1_555
C33 H33 1_555 1_555
H34 C33 1_555 1_555
H35 C33 1_555 1_555
C34 C35 1_555 1_555
C35 H36 1_555 1_555
H37 C35 1_555 1_555
H38 C35 1_555 1_555
O1 C1 1_555 1_555
H39 O1 1_555 1_555
O2 C2 1_555 1_555
H40 O2 1_555 1_555
O3 C16 1_555 1_555
O4 C16 1_555 1_555
O5 C21 1_555 1_555
O6 C8 1_555 1_555
O7 C9 1_555 1_555
O8 C26 1_555 1_555
O9 C7 1_555 1_555
O10 C7 1_555 1_555
O11 C12 1_555 1_555
O12 C30 1_555 1_555
O13 C3 1_555 1_555
O14 C32 1_555 1_555
O15 C6 1_555 1_555
O16 C34 1_555 1_555
C4 C25 1_555 1_555
C5 C10 1_555 1_555
C8 C26 1_555 1_555
C13 C14 1_555 1_555
C17 O4 1_555 1_555
C23 O5 1_555 1_555
C27 O6 1_555 1_555
C27 O7 1_555 1_555
C27 O8 1_555 1_555
C29 O10 1_555 1_555
C30 O11 1_555 1_555
C32 O13 1_555 1_555
C34 O15 1_555 1_555

#END
