
#######################################################################
#
#                 Cambridge Crystallographic Data Centre
#                                CCDC 
#
#######################################################################
#
# If this CIF has been generated from an entry in the Cambridge 
# Structural Database, then it will include bibliographic, chemical, 
# crystal, experimental, refinement or atomic coordinate data resulting 
# from the CCDC's data processing and validation procedures.
#
#######################################################################

data_LASHUK
_chemical_formula_moiety         'C14 H10 F3 N1 O1'
_chemical_name_systematic        N-(3-(Trifluoromethyl)phenyl)benzamide
_symmetry_cell_setting           monoclinic
_symmetry_space_group_name_H-M   'P 21/c'
_symmetry_Int_Tables_number      14
_space_group_name_Hall           '-P 2ybc'
loop_
_symmetry_equiv_pos_site_id
_symmetry_equiv_pos_as_xyz
1 x,y,z
2 -x,1/2+y,1/2-z
3 -x,-y,-z
4 x,1/2-y,1/2+z
_cell_length_a                   13.8471(4)
_cell_length_b                   8.6097(2)
_cell_length_c                   10.0943(3)
_cell_angle_alpha                90
_cell_angle_beta                 100.131(3)
_cell_angle_gamma                90
_cell_volume                     1184.67
_exptl_crystal_colour            colorless
_exptl_crystal_description       needle
_chemical_melting_point          '110-112 deg.C'
_cell_formula_units_Z            4
_exptl_crystal_recrystallization_method dichloromethane/hexane
loop_
_atom_site_label
_atom_site_type_symbol
_atom_site_fract_x
_atom_site_fract_y
_atom_site_fract_z
C1 C 0.45574(8) 0.29566(13) 0.02816(11)
C2 C 0.41408(9) 0.41609(14) 0.09126(12)
C3 C 0.31933(9) 0.46521(15) 0.04127(13)
C4 C 0.26570(9) 0.39519(16) -0.07200(13)
C5 C 0.30691(10) 0.27623(15) -0.13579(13)
C6 C 0.40142(9) 0.22645(14) -0.08588(12)
C7 C 0.70506(8) 0.11778(13) 0.02721(11)
C8 C 0.76810(9) 0.13506(14) 0.15026(12)
C9 C 0.85874(9) 0.06097(15) 0.16855(12)
C10 C 0.88864(10) -0.02592(16) 0.06798(14)
C11 C 0.82654(10) -0.03824(16) -0.05537(14)
C12 C 0.73528(9) 0.03247(15) -0.07567(12)
C13 C 0.55640(9) 0.24214(13) 0.08807(11)
C14 C 0.92508(10) 0.07019(18) 0.30275(14)
N1 N 0.61002(7) 0.18303(12) -0.00052(10)
O1 O 0.58706(7) 0.25080(11) 0.21015(8)
F1 F 1.0177(4) 0.0860(13) 0.2959(7)
F2 F 0.9165(4) -0.0580(8) 0.3743(6)
F3 F 0.9038(6) 0.1836(11) 0.3803(7)
H1 H 0.5855(12) 0.192(2) -0.0851(18)
H2 H 0.4537(12) 0.470(2) 0.1713(17)
H3 H 0.2909(13) 0.550(2) 0.0851(18)
H4 H 0.1982(12) 0.4324(19) -0.1052(16)
H5 H 0.2690(13) 0.227(2) -0.2134(18)
H6 H 0.4292(11) 0.1431(18) -0.1298(16)
H7 H 0.7491(12) 0.1953(19) 0.2186(16)
H8 H 0.9499(12) -0.0802(19) 0.0837(17)
H9 H 0.8463(12) -0.099(2) -0.1260(17)
H10 H 0.6887(12) 0.0224(19) -0.1615(16)
F4? F 0.8941(6) 0.1640(13) 0.3885(6)
F5? F 1.0126(7) 0.123(2) 0.2876(12)
F6? F 0.9456(17) -0.0652(10) 0.3611(12)
loop_
_geom_bond_atom_site_label_1
_geom_bond_atom_site_label_2
_geom_bond_site_symmetry_1
_geom_bond_site_symmetry_2
C1 C2 1_555 1_555
C2 C3 1_555 1_555
C3 C4 1_555 1_555
C4 C5 1_555 1_555
C5 C6 1_555 1_555
C6 C1 1_555 1_555
C7 C8 1_555 1_555
C8 C9 1_555 1_555
C9 C10 1_555 1_555
C10 C11 1_555 1_555
C11 C12 1_555 1_555
C12 C7 1_555 1_555
C13 C1 1_555 1_555
C14 C9 1_555 1_555
N1 C7 1_555 1_555
O1 C13 1_555 1_555
F1 C14 1_555 1_555
F2 C14 1_555 1_555
F3 C14 1_555 1_555
H1 N1 1_555 1_555
H2 C2 1_555 1_555
H3 C3 1_555 1_555
H4 C4 1_555 1_555
H5 C5 1_555 1_555
H6 C6 1_555 1_555
H7 C8 1_555 1_555
H8 C10 1_555 1_555
H9 C11 1_555 1_555
H10 C12 1_555 1_555
C13 N1 1_555 1_555

#END
