
#######################################################################
#
#                 Cambridge Crystallographic Data Centre
#                                CCDC 
#
#######################################################################
#
# If this CIF has been generated from an entry in the Cambridge 
# Structural Database, then it will include bibliographic, chemical, 
# crystal, experimental, refinement or atomic coordinate data resulting 
# from the CCDC's data processing and validation procedures.
#
#######################################################################

data_LASJIA
_chemical_formula_moiety         'C15 H9 F6 N1 O1'
_chemical_name_systematic        
2-(Trifluoromethyl)-N-(4-(trifluoromethyl)phenyl)benzamide
_symmetry_cell_setting           monoclinic
_symmetry_space_group_name_H-M   'P 21/n'
_symmetry_Int_Tables_number      14
_space_group_name_Hall           '-P 2yn'
loop_
_symmetry_equiv_pos_site_id
_symmetry_equiv_pos_as_xyz
1 x,y,z
2 1/2-x,1/2+y,1/2-z
3 -x,-y,-z
4 1/2+x,1/2-y,1/2+z
_cell_length_a                   12.8346(8)
_cell_length_b                   8.061(5)
_cell_length_c                   14.155(5)
_cell_angle_alpha                90
_cell_angle_beta                 108.350(5)
_cell_angle_gamma                90
_cell_volume                     1390.01
_exptl_crystal_colour            colorless
_exptl_crystal_description       plate
_chemical_melting_point          '168-170 deg.C'
_cell_formula_units_Z            4
_exptl_crystal_recrystallization_method dichloromethane/hexane
loop_
_atom_site_label
_atom_site_type_symbol
_atom_site_fract_x
_atom_site_fract_y
_atom_site_fract_z
C1 C 0.75155(10) 0.18601(16) 0.35774(9)
C2 C 0.68328(10) 0.25049(16) 0.40870(9)
C3 C 0.72291(12) 0.27092(19) 0.51154(10)
C4 C 0.83050(12) 0.22610(19) 0.56389(11)
C5 C 0.89858(12) 0.16591(19) 0.51362(10)
C6 C 0.86007(11) 0.14691(17) 0.41078(10)
C7 C 0.73111(10) 0.21794(15) 0.08562(9)
C8 C 0.63973(11) 0.13413(18) 0.02431(10)
C9 C 0.61585(12) 0.14270(18) -0.07816(10)
C10 C 0.68251(11) 0.23230(16) -0.11969(9)
C11 C 0.77557(12) 0.31195(18) -0.05851(10)
C12 C 0.79979(11) 0.30393(18) 0.04399(10)
C13 C 0.70872(10) 0.14273(16) 0.24826(9)
C14 C 0.65321(14) 0.2443(2) -0.23007(10)
C15 C 0.56715(12) 0.3007(2) 0.35483(10)
N1 N 0.75662(9) 0.22649(14) 0.19044(8)
O1 O 0.63810(7) 0.03483(11) 0.21885(6)
F1 F 0.6735(4) 0.1157(5) -0.2744(2)
F2 F 0.6860(3) 0.3765(4) -0.26459(15)
F3 F 0.53757(16) 0.2570(5) -0.27488(14)
F4 F 0.55711(6) 0.37184(11) 0.26583(6)
F5 F 0.52862(7) 0.41090(13) 0.40627(6)
F6 F 0.49707(7) 0.17247(13) 0.33567(7)
H1 H 0.8040(12) 0.3064(17) 0.2198(11)
H2 H 0.6742(12) 0.3212(18) 0.5429(12)
H3 H 0.8543(12) 0.2420(18) 0.6312(12)
H4 H 0.9721(13) 0.1361(18) 0.5513(12)
H5 H 0.9093(12) 0.1047(17) 0.3751(10)
H6 H 0.5950(12) 0.0734(17) 0.0526(11)
H7 H 0.5481(12) 0.0876(18) -0.1219(12)
H8 H 0.8240(12) 0.3743(17) -0.0860(11)
H9 H 0.8615(11) 0.3613(17) 0.0863(10)
F7? F 0.6054(7) 0.3719(7) -0.2636(3)
F8? F 0.6073(5) 0.1143(7) -0.2746(3)
F9? F 0.7501(3) 0.2483(8) -0.25604(19)
loop_
_geom_bond_atom_site_label_1
_geom_bond_atom_site_label_2
_geom_bond_site_symmetry_1
_geom_bond_site_symmetry_2
C1 C2 1_555 1_555
C2 C3 1_555 1_555
C3 C4 1_555 1_555
C4 C5 1_555 1_555
C5 C6 1_555 1_555
C6 C1 1_555 1_555
C7 C8 1_555 1_555
C8 C9 1_555 1_555
C9 C10 1_555 1_555
C10 C11 1_555 1_555
C11 C12 1_555 1_555
C12 C7 1_555 1_555
C13 C1 1_555 1_555
C14 C10 1_555 1_555
C15 C2 1_555 1_555
N1 C7 1_555 1_555
O1 C13 1_555 1_555
F1 C14 1_555 1_555
F2 C14 1_555 1_555
F3 C14 1_555 1_555
F4 C15 1_555 1_555
F5 C15 1_555 1_555
F6 C15 1_555 1_555
H1 N1 1_555 1_555
H2 C3 1_555 1_555
H3 C4 1_555 1_555
H4 C5 1_555 1_555
H5 C6 1_555 1_555
H6 C8 1_555 1_555
H7 C9 1_555 1_555
H8 C11 1_555 1_555
H9 C12 1_555 1_555
C13 N1 1_555 1_555

#END
