
#######################################################################
#
#                 Cambridge Crystallographic Data Centre
#                                CCDC 
#
#######################################################################
#
# If this CIF has been generated from an entry in the Cambridge 
# Structural Database, then it will include bibliographic, chemical, 
# crystal, experimental, refinement or atomic coordinate data resulting 
# from the CCDC's data processing and validation procedures.
#
#######################################################################

data_LASKAU
_chemical_compound_source        'Croton crassifolius roots'
_chemical_name_common            'crassin D'
_chemical_formula_moiety         'C20 H20 O5'
_chemical_name_systematic        
5-(3-furyl)-8b-hydroxy-2a,6a,7-trimethyl-2a,6a,7,8,8a,8b-hexahydro-2H-acenaphtho[5,6-bc]furan-2,4(3H)-dione
_symmetry_cell_setting           orthorhombic
_symmetry_space_group_name_H-M   'P 21 21 21'
_symmetry_Int_Tables_number      19
_space_group_name_Hall           'P 2ac 2ab'
loop_
_symmetry_equiv_pos_site_id
_symmetry_equiv_pos_as_xyz
1 x,y,z
2 1/2-x,-y,1/2+z
3 -x,1/2+y,1/2-z
4 1/2+x,1/2-y,-z
_cell_length_a                   8.7141(2)
_cell_length_b                   9.0869(2)
_cell_length_c                   20.7089(4)
_cell_angle_alpha                90
_cell_angle_beta                 90
_cell_angle_gamma                90
_cell_volume                     1639.82
_exptl_crystal_colour            colorless
_exptl_crystal_description       block
_cell_formula_units_Z            4
loop_
_atom_site_label
_atom_site_type_symbol
_atom_site_fract_x
_atom_site_fract_y
_atom_site_fract_z
O1 O 0.6368(2) 0.3164(2) 0.79190(8)
O2 O 0.5519(2) 0.2700(2) 0.56960(8)
O3 O 0.39772(19) 0.6244(2) 0.60316(8)
H1 H 0.3931 0.6781 0.6361
O4 O 1.0080(2) 0.5264(2) 0.88352(8)
O5 O 0.4906(2) 0.1188(2) 0.65015(10)
C1 C 0.5859(3) 0.3918(3) 0.74793(11)
C2 C 0.9305(3) 0.5469(3) 0.78086(11)
C3 C 0.6344(3) 0.5383(3) 0.65037(11)
C4 C 0.4834(3) 0.2394(3) 0.62659(12)
C5 C 0.6815(3) 0.4921(3) 0.70959(11)
C6 C 0.8949(3) 0.4926(3) 0.84010(11)
H2 H 0.8043 0.4389 0.8500
C7 C 1.0762(3) 0.6189(3) 0.78859(12)
H3 H 1.1330 0.6682 0.7560
C8 C 0.8827(3) 0.6204(3) 0.66711(11)
H4 H 0.9797 0.6669 0.6621
C9 C 0.8390(3) 0.5498(3) 0.72100(11)
C10 C 0.5268(3) 0.4239(3) 0.55175(11)
H5 H 0.4354 0.4302 0.5227
C11 C 0.4027(3) 0.3747(3) 0.65319(11)
C12 C 0.4877(3) 0.4981(3) 0.61689(11)
C13 C 0.7615(3) 0.6179(3) 0.61574(11)
C14 C 1.1164(3) 0.6032(3) 0.85044(13)
H6 H 1.2083 0.6406 0.8688
C15 C 0.8065(3) 0.5126(3) 0.55878(11)
H7 H 0.8404 0.4169 0.5778
C16 C 0.6651(3) 0.4830(3) 0.51657(11)
H8 H 0.6358 0.5759 0.4949
H9 H 0.6941 0.4118 0.4825
C17 C 0.7205(3) 0.7735(3) 0.59296(12)
H10 H 0.6431 0.7677 0.5587
H11 H 0.8127 0.8222 0.5763
H12 H 0.6794 0.8302 0.6293
C18 C 0.2319(3) 0.3679(3) 0.63455(13)
H13 H 0.2224 0.3628 0.5875
H14 H 0.1795 0.4562 0.6504
H15 H 0.1850 0.2804 0.6539
C19 C 0.4204(3) 0.3821(3) 0.72690(12)
H16 H 0.3642 0.4692 0.7433
H17 H 0.3732 0.2934 0.7463
C20 C 0.9385(3) 0.5729(3) 0.51767(12)
H18 H 0.9047 0.6622 0.4953
H19 H 0.9693 0.4988 0.4859
H20 H 1.0259 0.5964 0.5456
loop_
_geom_bond_atom_site_label_1
_geom_bond_atom_site_label_2
_geom_bond_site_symmetry_1
_geom_bond_site_symmetry_2
O1 C1 1_555 1_555
O2 C4 1_555 1_555
O3 H1 1_555 1_555
O4 C6 1_555 1_555
O5 C4 1_555 1_555
C1 C5 1_555 1_555
C2 C6 1_555 1_555
C3 C5 1_555 1_555
C4 C11 1_555 1_555
C5 C9 1_555 1_555
C6 H2 1_555 1_555
C7 C2 1_555 1_555
H3 C7 1_555 1_555
C8 H4 1_555 1_555
C9 C2 1_555 1_555
C10 O2 1_555 1_555
H5 C10 1_555 1_555
C11 C12 1_555 1_555
C12 O3 1_555 1_555
C13 C3 1_555 1_555
C14 O4 1_555 1_555
H6 C14 1_555 1_555
C15 C13 1_555 1_555
H7 C15 1_555 1_555
C16 C10 1_555 1_555
H8 C16 1_555 1_555
H9 C16 1_555 1_555
C17 C13 1_555 1_555
H10 C17 1_555 1_555
H11 C17 1_555 1_555
H12 C17 1_555 1_555
C18 C11 1_555 1_555
H13 C18 1_555 1_555
H14 C18 1_555 1_555
H15 C18 1_555 1_555
C19 C1 1_555 1_555
H16 C19 1_555 1_555
H17 C19 1_555 1_555
C20 C15 1_555 1_555
H18 C20 1_555 1_555
H19 C20 1_555 1_555
H20 C20 1_555 1_555
C3 C12 1_555 1_555
C7 C14 1_555 1_555
C8 C9 1_555 1_555
C8 C13 1_555 1_555
C10 C12 1_555 1_555
C11 C19 1_555 1_555
C15 C16 1_555 1_555

#END
