
#######################################################################
#
#                 Cambridge Crystallographic Data Centre
#                                CCDC 
#
#######################################################################
#
# If this CIF has been generated from an entry in the Cambridge 
# Structural Database, then it will include bibliographic, chemical, 
# crystal, experimental, refinement or atomic coordinate data resulting 
# from the CCDC's data processing and validation procedures.
#
#######################################################################

data_LASLAU
_chemical_name_common            'Dichloromethane methylethyl ketone clathrate'
_chemical_formula_moiety         'C1 H2 Cl2,C4 H8 O1'
_chemical_name_systematic        'Dichloromethane butan-2-one clathrate'
_symmetry_cell_setting           monoclinic
_symmetry_space_group_name_H-M   'P 21/c'
_symmetry_Int_Tables_number      14
_space_group_name_Hall           '-P 2ybc'
loop_
_symmetry_equiv_pos_site_id
_symmetry_equiv_pos_as_xyz
1 x,y,z
2 -x,1/2+y,1/2-z
3 -x,-y,-z
4 x,1/2-y,1/2+z
_cell_length_a                   8.5922(11)
_cell_length_b                   12.7617(18)
_cell_length_c                   7.6903(9)
_cell_angle_alpha                90
_cell_angle_beta                 102.77(2)
_cell_angle_gamma                90
_cell_volume                     822.392
_exptl_crystal_colour            colorless
_exptl_crystal_description       cylinder
_chemical_melting_point          '168-170 K'
_cell_formula_units_Z            4
loop_
_atom_site_label
_atom_site_type_symbol
_atom_site_fract_x
_atom_site_fract_y
_atom_site_fract_z
Cl1 Cl 0.58695(4) 0.66159(4) 0.94912(6)
Cl2 Cl 0.93154(4) 0.67388(3) 1.01001(6)
C1 C 0.74920(19) 0.70400(13) 0.8621(2)
H1 H 0.7446(19) 0.6643(13) 0.758(3)
H2 H 0.7427(18) 0.7765(14) 0.850(2)
O1 O 0.75457(14) 0.55576(9) 0.50330(16)
C2 C 0.8212(3) 0.43721(18) 0.2937(3)
C3 C 0.76683(17) 0.46543(12) 0.4592(2)
C4 C 0.7277(2) 0.37685(13) 0.5673(3)
C5 C 0.6794(3) 0.40814(16) 0.7361(3)
H3 H 0.752(3) 0.388(2) 0.225(4)
H4 H 0.913(4) 0.409(2) 0.318(4)
H5 H 0.829(3) 0.4923(19) 0.226(3)
H6 H 0.649(3) 0.3392(16) 0.490(3)
H7 H 0.826(2) 0.3321(15) 0.595(3)
H8 H 0.657(2) 0.3488(16) 0.813(3)
H9 H 0.590(3) 0.4525(17) 0.711(3)
H10 H 0.762(2) 0.4464(15) 0.816(3)
loop_
_geom_bond_atom_site_label_1
_geom_bond_atom_site_label_2
_geom_bond_site_symmetry_1
_geom_bond_site_symmetry_2
Cl1 C1 1_555 1_555
Cl2 C1 1_555 1_555
C1 H1 1_555 1_555
H2 C1 1_555 1_555
O1 C3 1_555 1_555
C2 C3 1_555 1_555
C3 C4 1_555 1_555
C4 C5 1_555 1_555
C5 H8 1_555 1_555
H3 C2 1_555 1_555
H4 C2 1_555 1_555
H5 C2 1_555 1_555
H6 C4 1_555 1_555
H7 C4 1_555 1_555
H9 C5 1_555 1_555
H10 C5 1_555 1_555

#END
