
#######################################################################
#
#                 Cambridge Crystallographic Data Centre
#                                CCDC 
#
#######################################################################
#
# If this CIF has been generated from an entry in the Cambridge 
# Structural Database, then it will include bibliographic, chemical, 
# crystal, experimental, refinement or atomic coordinate data resulting 
# from the CCDC's data processing and validation procedures.
#
#######################################################################

data_LATNIE
_chemical_name_common            
'1,3-Dithiolan[5]radialene acetone dimethyl sulfoxide solvate'
_chemical_formula_moiety         'C40 H20 S10,0.5(C2 H6 O1 S1),C3 H6 O1'
_chemical_name_systematic        
"2,2',2'',2''',2''''-Cyclopentacosa-2,4,7,9,12,14,17,19,22,24-decayne-1,6,11,16,21-pentaylidenepentakis(1,3-dithiolane) acetone dimethyl sulfoxide solvate"
_symmetry_cell_setting           monoclinic
_symmetry_space_group_name_H-M   'P 21/m'
_symmetry_Int_Tables_number      11
_space_group_name_Hall           '-P 2yb'
loop_
_symmetry_equiv_pos_site_id
_symmetry_equiv_pos_as_xyz
1 x,y,z
2 -x,1/2+y,-z
3 -x,-y,-z
4 x,1/2-y,z
_cell_length_a                   8.6162(10)
_cell_length_b                   22.137(3)
_cell_length_c                   12.4884(14)
_cell_angle_alpha                90
_cell_angle_beta                 93.563(2)
_cell_angle_gamma                90
_cell_volume                     2377.39
_exptl_crystal_colour            red
_chemical_melting_point          260deg.C(dec.)
_cell_formula_units_Z            2
loop_
_atom_site_label
_atom_site_type_symbol
_atom_site_fract_x
_atom_site_fract_y
_atom_site_fract_z
S6 S 0.6973(2) 0.7500 0.47357(14)
O1 O 0.8034(4) 0.7500 0.3866(3)
C22 C 0.5897(9) 0.6915(3) 0.4673(7)
H11 H 0.5197 0.6926 0.5241
H12 H 0.6534 0.6560 0.4745
H13 H 0.5310 0.6906 0.3994
C22C C 0.5897(9) 0.8085(3) 0.4673(7)
H11C H 0.5197 0.8074 0.5241
H12C H 0.6534 0.8440 0.4745
H13C H 0.5310 0.8094 0.3994
S1 S 0.15164(11) 0.59512(4) 0.92758(7)
S2 S 0.28915(12) 0.48814(4) 1.03163(8)
S3 S 0.76737(11) 0.39504(4) 1.45648(8)
S4 S 0.94245(10) 0.42897(4) 1.65559(8)
S5 S 0.80202(14) 0.68430(4) 2.01747(8)
C1 C 0.3232(3) 0.60006(15) 1.1177(2)
C2 C 0.4144(4) 0.57689(15) 1.2046(2)
C3 C 0.4955(4) 0.55899(13) 1.2808(2)
C4 C 0.5890(4) 0.53984(13) 1.3664(2)
C5 C 0.6711(3) 0.52490(12) 1.4430(2)
C6 C 0.7684(3) 0.50926(12) 1.5356(2)
C7 C 0.8029(3) 0.55446(15) 1.6116(2)
C8 C 0.8263(4) 0.59753(15) 1.6690(3)
C9 C 0.8493(4) 0.64859(15) 1.7321(3)
C10 C 0.8563(4) 0.69557(16) 1.7815(3)
C11 C 0.8509(5) 0.7500 1.8389(3)
C12 C 0.2955(4) 0.71926(14) 1.1161(2)
C13 C 0.3053(4) 0.66513(17) 1.1160(2)
C14 C 0.2627(3) 0.56542(14) 1.0350(2)
C15 C 0.8207(3) 0.45075(13) 1.5479(2)
C16 C 0.8227(5) 0.7500 1.9435(4)
C17 C 0.1525(6) 0.5297(2) 0.8415(4)
H1 H 0.0518 0.5253 0.8030
H2 H 0.2303 0.5346 0.7893
C18 C 0.1875(5) 0.47523(17) 0.9071(3)
H3 H 0.2481 0.4478 0.8659
H4 H 0.0903 0.4552 0.9199
C19 C 0.8967(5) 0.33757(17) 1.5118(4)
H5 H 0.8545 0.2978 1.4952
H6 H 0.9973 0.3408 1.4815
C20 C 0.9121(6) 0.34600(19) 1.6229(4)
H7 H 1.0000 0.3228 1.6528
H8 H 0.8193 0.3316 1.6549
C21 C 0.7529(7) 0.7170(2) 2.1372(4)
H9 H 0.6502 0.7030 2.1532
H10 H 0.8256 0.7030 2.1943
S1C S 0.15164(11) 0.90488(4) 0.92758(7)
S2C S 0.28915(12) 1.01186(4) 1.03163(8)
S3C S 0.76737(11) 1.10496(4) 1.45648(8)
S4C S 0.94245(10) 1.07103(4) 1.65559(8)
S5C S 0.80202(14) 0.81570(4) 2.01747(8)
C1C C 0.3232(3) 0.89994(15) 1.1177(2)
C2C C 0.4144(4) 0.92311(15) 1.2046(2)
C3C C 0.4955(4) 0.94101(13) 1.2808(2)
C4C C 0.5890(4) 0.96016(13) 1.3664(2)
C5C C 0.6711(3) 0.97510(12) 1.4430(2)
C6C C 0.7684(3) 0.99074(12) 1.5356(2)
C7C C 0.8029(3) 0.94554(15) 1.6116(2)
C8C C 0.8263(4) 0.90247(15) 1.6690(3)
C9C C 0.8493(4) 0.85141(15) 1.7321(3)
C10C C 0.8563(4) 0.80443(16) 1.7815(3)
C12C C 0.2955(4) 0.78074(14) 1.1161(2)
C13C C 0.3053(4) 0.83487(17) 1.1160(2)
C14C C 0.2627(3) 0.93458(14) 1.0350(2)
C15C C 0.8207(3) 1.04925(13) 1.5479(2)
C17C C 0.1525(6) 0.9703(2) 0.8415(4)
H1C H 0.0518 0.9747 0.8030
H2C H 0.2303 0.9654 0.7893
C18C C 0.1875(5) 1.02477(17) 0.9071(3)
H3C H 0.2481 1.0522 0.8659
H4C H 0.0903 1.0448 0.9199
C19C C 0.8967(5) 1.16243(17) 1.5118(4)
H5C H 0.8545 1.2022 1.4952
H6C H 0.9973 1.1592 1.4815
C20C C 0.9121(6) 1.15400(19) 1.6229(4)
H7C H 1.0000 1.1772 1.6528
H8C H 0.8193 1.1684 1.6549
C21C C 0.7529(7) 0.7830(2) 2.1372(4)
H9C H 0.6502 0.7970 2.1532
H10C H 0.8256 0.7970 2.1943
O2? O 0.6660(9) 0.2500 0.3685(5)
C23? C 0.4792(14) 0.2500 0.2992(15)
C24? C 0.7034(7) 0.2907(3) 0.2620(4)
H14? H 0.8028 0.3113 0.2622
H15? H 0.6175 0.3113 0.2238
loop_
_geom_bond_atom_site_label_1
_geom_bond_atom_site_label_2
_geom_bond_site_symmetry_1
_geom_bond_site_symmetry_2
S1 C14 1_555 1_555
S2 C14 1_555 1_555
S3 C15 1_555 1_555
S4 C15 1_555 1_555
S5 C16 1_555 1_555
C1 C2 1_555 1_555
C2 C3 1_555 1_555
C3 C4 1_555 1_555
C4 C5 1_555 1_555
C5 C6 1_555 1_555
C6 C7 1_555 1_555
C7 C8 1_555 1_555
C8 C9 1_555 1_555
C9 C10 1_555 1_555
C10 C11 1_555 1_555
C11 C16 1_555 1_555
C12 C13 1_555 1_555
C13 C1 1_555 1_555
C14 C1 1_555 1_555
C15 C6 1_555 1_555
C16 S5C 1_555 1_555
C17 S1 1_555 1_555
H1 C17 1_555 1_555
H2 C17 1_555 1_555
C18 S2 1_555 1_555
H3 C18 1_555 1_555
H4 C18 1_555 1_555
C19 S3 1_555 1_555
H5 C19 1_555 1_555
H6 C19 1_555 1_555
C20 S4 1_555 1_555
H7 C20 1_555 1_555
H8 C20 1_555 1_555
C21 S5 1_555 1_555
H9 C21 1_555 1_555
H10 C21 1_555 1_555
S6 O1 1_555 1_555
C22 S6 1_555 1_555
H11 C22 1_555 1_555
H12 C22 1_555 1_555
H13 C22 1_555 1_555
S1C C14C 1_555 1_555
S2C C14C 1_555 1_555
S3C C15C 1_555 1_555
S4C C15C 1_555 1_555
S5C C21C 1_555 1_555
C1C C2C 1_555 1_555
C2C C3C 1_555 1_555
C3C C4C 1_555 1_555
C4C C5C 1_555 1_555
C5C C6C 1_555 1_555
C6C C7C 1_555 1_555
C7C C8C 1_555 1_555
C8C C9C 1_555 1_555
C9C C10C 1_555 1_555
C10C C11 1_555 1_555
C12C C12 1_555 1_555
C13C C1C 1_555 1_555
C14C C1C 1_555 1_555
C15C C6C 1_555 1_555
C17C S1C 1_555 1_555
H1C C17C 1_555 1_555
H2C C17C 1_555 1_555
C18C S2C 1_555 1_555
H3C C18C 1_555 1_555
H4C C18C 1_555 1_555
C19C S3C 1_555 1_555
H5C C19C 1_555 1_555
H6C C19C 1_555 1_555
C20C S4C 1_555 1_555
H7C C20C 1_555 1_555
H8C C20C 1_555 1_555
C21C C21 1_555 1_555
H9C C21C 1_555 1_555
H10C C21C 1_555 1_555
C22C S6 1_555 1_555
H11C C22C 1_555 1_555
H12C C22C 1_555 1_555
H13C C22C 1_555 1_555
C17 C18 1_555 1_555
C19 C20 1_555 1_555
C12C C13C 1_555 1_555
C17C C18C 1_555 1_555
C19C C20C 1_555 1_555

#END
