
#######################################################################
#
#                 Cambridge Crystallographic Data Centre
#                                CCDC 
#
#######################################################################
#
# If this CIF has been generated from an entry in the Cambridge 
# Structural Database, then it will include bibliographic, chemical, 
# crystal, experimental, refinement or atomic coordinate data resulting 
# from the CCDC's data processing and validation procedures.
#
#######################################################################

data_LAVJUN
_chemical_formula_moiety         'C22 H26'
_chemical_name_systematic        
8-Pentacyclo(6.3.0^2,6^.0^3,10^.0^5,9^)undec-3-yl-exo-pentacyclo-(5.4.0.^2,6^.0^3,10^.0^5,9^)undecane
_symmetry_cell_setting           triclinic
_symmetry_space_group_name_H-M   'P -1'
_symmetry_Int_Tables_number      2
_space_group_name_Hall           '-P 1'
loop_
_symmetry_equiv_pos_site_id
_symmetry_equiv_pos_as_xyz
1 x,y,z
2 -x,-y,-z
_cell_length_a                   6.357(1)
_cell_length_b                   11.429(1)
_cell_length_c                   11.706(1)
_cell_angle_alpha                61.87(1)
_cell_angle_beta                 85.52(1)
_cell_angle_gamma                87.56(1)
_cell_volume                     747.722
_exptl_crystal_colour            colorless
_cell_formula_units_Z            2
loop_
_atom_site_label
_atom_site_type_symbol
_atom_site_fract_x
_atom_site_fract_y
_atom_site_fract_z
C1 C 0.3890(3) 0.1692(2) 0.5411(2)
C2 C 0.1873(3) 0.2107(2) 0.4608(2)
C3 C 0.2794(3) 0.2748(2) 0.3151(2)
C4 C 0.1803(3) 0.4139(2) 0.2521(2)
C5 C 0.2124(3) 0.4415(2) 0.3641(2)
C6 C 0.0931(3) 0.3298(2) 0.4796(2)
C7 C 0.1960(3) 0.3220(2) 0.5956(2)
C8 C 0.4155(3) 0.2963(2) 0.5510(2)
C9 C 0.4425(3) 0.3959(2) 0.4022(2)
C10 C 0.5023(3) 0.3051(2) 0.3376(2)
C11 C 0.5716(3) 0.1744(2) 0.4477(2)
C12 C 0.0225(3) 0.0776(2) 0.1621(1)
C13 C 0.0401(3) 0.1862(2) 0.0184(2)
C14 C 0.2621(4) 0.1768(2) -0.0374(2)
C15 C 0.3427(4) 0.3175(2) -0.0982(2)
C16 C 0.2953(4) 0.3333(2) 0.0237(2)
C17 C 0.0634(3) 0.2944(2) 0.0616(2)
C18 C 0.0466(3) 0.1860(2) 0.2058(2)
C19 C 0.2635(3) 0.1821(2) 0.2552(2)
C20 C 0.4015(3) 0.2129(2) 0.1316(2)
C21 C 0.3785(3) 0.1023(2) 0.0884(2)
C22 C 0.2215(4) -0.0047(2) 0.1775(2)
H1 H 0.3739(26) 0.0918(17) 0.6261(18)
H2 H 0.0847(28) 0.1360(18) 0.4804(17)
H3 H 0.0275(30) 0.4102(18) 0.2393(18)
H4 H 0.2618(30) 0.4749(19) 0.1685(19)
H5 H 0.1747(29) 0.5343(19) 0.3491(18)
H6 H -0.0581(28) 0.3413(18) 0.4752(17)
H7 H 0.1826(30) 0.4022(19) 0.6004(18)
H8 H 0.1483(30) 0.2467(19) 0.6828(18)
H9 H 0.5335(30) 0.2960(18) 0.5977(18)
H10 H 0.5500(28) 0.4677(18) 0.3812(19)
H11 H 0.5991(27) 0.3483(16) 0.2576(16)
H12 H 0.5801(27) 0.1034(17) 0.4219(17)
H13 H 0.7047(28) 0.1760(18) 0.4819(18)
H14 H -0.1096(30) 0.0262(19) 0.1957(19)
H15 H -0.0754(37) 0.1977(23) -0.0363(23)
H16 H 0.2732(32) 0.1367(20) -0.0938(20)
H17 H 0.2658(46) 0.3780(29) -0.1750(28)
H18 H 0.4903(36) 0.3179(22) -0.1211(21)
H19 H 0.3329(34) 0.4222(22) 0.0158(22)
H20 H -0.0423(31) 0.3665(19) 0.0370(19)
H21 H -0.0700(31) 0.1919(20) 0.2612(19)
H22 H 0.2931(29) 0.0926(18) 0.3245(18)
H23 H 0.5489(31) 0.2210(19) 0.1393(19)
H24 H 0.5189(34) 0.0684(20) 0.0753(21)
H25 H 0.1999(33) -0.0684(21) 0.1409(21)
H26 H 0.2599(33) -0.0594(20) 0.2687(21)
loop_
_geom_bond_atom_site_label_1
_geom_bond_atom_site_label_2
_geom_bond_site_symmetry_1
_geom_bond_site_symmetry_2
C1 C2 1_555 1_555
C2 C3 1_555 1_555
C3 C4 1_555 1_555
C4 C5 1_555 1_555
C5 C6 1_555 1_555
C6 C2 1_555 1_555
C7 C6 1_555 1_555
C8 C1 1_555 1_555
C9 C5 1_555 1_555
C10 C3 1_555 1_555
C11 C1 1_555 1_555
C12 C13 1_555 1_555
C13 C14 1_555 1_555
C14 C15 1_555 1_555
C15 C16 1_555 1_555
C16 C17 1_555 1_555
C17 C13 1_555 1_555
C18 C12 1_555 1_555
C19 C3 1_555 1_555
C20 C16 1_555 1_555
C21 C14 1_555 1_555
C22 C12 1_555 1_555
H1 C1 1_555 1_555
H2 C2 1_555 1_555
H3 C4 1_555 1_555
H4 C4 1_555 1_555
H5 C5 1_555 1_555
H6 C6 1_555 1_555
H7 C7 1_555 1_555
H8 C7 1_555 1_555
H9 C8 1_555 1_555
H10 C9 1_555 1_555
H11 C10 1_555 1_555
H12 C11 1_555 1_555
H13 C11 1_555 1_555
H14 C12 1_555 1_555
H15 C13 1_555 1_555
H16 C14 1_555 1_555
H17 C15 1_555 1_555
H18 C15 1_555 1_555
H19 C16 1_555 1_555
H20 C17 1_555 1_555
H21 C18 1_555 1_555
H22 C19 1_555 1_555
H23 C20 1_555 1_555
H24 C21 1_555 1_555
H25 C22 1_555 1_555
H26 C22 1_555 1_555
C7 C8 1_555 1_555
C8 C9 1_555 1_555
C9 C10 1_555 1_555
C10 C11 1_555 1_555
C17 C18 1_555 1_555
C18 C19 1_555 1_555
C19 C20 1_555 1_555
C20 C21 1_555 1_555
C21 C22 1_555 1_555

#END
