
#######################################################################
#
#                 Cambridge Crystallographic Data Centre
#                                CCDC 
#
#######################################################################
#
# If this CIF has been generated from an entry in the Cambridge 
# Structural Database, then it will include bibliographic, chemical, 
# crystal, experimental, refinement or atomic coordinate data resulting 
# from the CCDC's data processing and validation procedures.
#
#######################################################################

data_LAWKOM
_chemical_formula_moiety         'C31 H24 N2'
_chemical_name_systematic        
'3-(1H-indol-2-yl(phenyl)methyl)-2-(2-phenylvinyl)-1H-indole unknown solvate'
_symmetry_cell_setting           orthorhombic
_symmetry_space_group_name_H-M   'P b c a'
_symmetry_Int_Tables_number      61
_space_group_name_Hall           '-P 2ac 2ab'
loop_
_symmetry_equiv_pos_site_id
_symmetry_equiv_pos_as_xyz
1 x,y,z
2 1/2+x,1/2-y,-z
3 -x,1/2+y,1/2-z
4 1/2-x,-y,1/2+z
5 -x,-y,-z
6 1/2-x,1/2+y,z
7 x,1/2-y,1/2+z
8 1/2+x,y,1/2-z
_cell_length_a                   20.0164(8)
_cell_length_b                   9.3928(4)
_cell_length_c                   28.4727(11)
_cell_angle_alpha                90
_cell_angle_beta                 90
_cell_angle_gamma                90
_cell_volume                     5353.15
_exptl_crystal_colour            colorless
_exptl_crystal_description       block
_cell_formula_units_Z            8
loop_
_atom_site_label
_atom_site_type_symbol
_atom_site_fract_x
_atom_site_fract_y
_atom_site_fract_z
N1 N 0.19320(11) 1.4507(2) 0.43757(8)
H1 H 0.2328 1.4184 0.4325
N2 N 0.13762(10) 0.9495(2) 0.42836(8)
H2 H 0.1324 0.8894 0.4508
C1 C 0.17590(14) 1.5442(3) 0.47332(9)
C2 C 0.21390(19) 1.6052(4) 0.50813(12)
H3 H 0.2596 1.5881 0.5096
C3 C 0.1839(2) 1.6908(4) 0.54032(14)
H4 H 0.2090 1.7320 0.5642
C4 C 0.1161(3) 1.7165(3) 0.53747(12)
H5 H 0.0963 1.7756 0.5597
C5 C 0.07708(17) 1.6578(3) 0.50292(11)
H6 H 0.0314 1.6761 0.5018
C6 C 0.10722(13) 1.5695(2) 0.46927(9)
C7 C 0.08458(13) 1.4898(2) 0.42992(9)
H7 H 0.0410 1.4872 0.4186
C8 C 0.13783(13) 1.4178(2) 0.41167(9)
C9 C 0.14171(13) 1.3112(2) 0.37259(8)
H8 H 0.1837 1.3294 0.3559
C10 C 0.08509(14) 1.3351(2) 0.33719(9)
C11 C 0.0970(2) 1.4151(3) 0.29734(10)
H9 H 0.1394 1.4524 0.2922
C12 C 0.0474(3) 1.4402(5) 0.26545(13)
H10 H 0.0565 1.4938 0.2387
C13 C -0.0141(3) 1.3883(6) 0.27237(16)
H11 H -0.0476 1.4070 0.2507
C14 C -0.0278(2) 1.3076(5) 0.31132(16)
H12 H -0.0704 1.2709 0.3159
C15 C 0.02237(17) 1.2810(3) 0.34392(12)
H13 H 0.0133 1.2263 0.3704
C16 C 0.14398(12) 1.1568(2) 0.38891(9)
C17 C 0.15943(12) 1.0429(2) 0.35737(9)
C18 C 0.17593(14) 1.0369(3) 0.30988(10)
H14 H 0.1795 1.1201 0.2923
C19 C 0.18694(15) 0.9063(3) 0.28925(12)
H15 H 0.1979 0.9013 0.2576
C20 C 0.18173(15) 0.7823(3) 0.31541(14)
H16 H 0.1892 0.6954 0.3006
C21 C 0.16605(14) 0.7832(3) 0.36194(13)
H17 H 0.1631 0.6991 0.3791
C22 C 0.15467(12) 0.9155(2) 0.38288(10)
C23 C 0.13017(12) 1.0966(2) 0.43229(9)
C24 C 0.11144(12) 1.1603(3) 0.47641(8)
H18 H 0.1182 1.2579 0.4790
C25 C 0.08571(13) 1.0961(3) 0.51362(9)
H19 H 0.0766 0.9994 0.5106
C26 C 0.07016(13) 1.1608(3) 0.55880(9)
C27 C 0.09214(17) 1.2935(3) 0.57186(10)
H20 H 0.1191 1.3450 0.5514
C28 C 0.0752(2) 1.3519(4) 0.61438(12)
H21 H 0.0901 1.4426 0.6221
C29 C 0.03597(19) 1.2764(5) 0.64593(12)
H22 H 0.0244 1.3159 0.6748
C30 C 0.01441(17) 1.1419(5) 0.63385(11)
H23 H -0.0113 1.0893 0.6548
C31 C 0.03078(15) 1.0858(3) 0.59093(10)
H24 H 0.0153 0.9956 0.5830
loop_
_geom_bond_atom_site_label_1
_geom_bond_atom_site_label_2
_geom_bond_site_symmetry_1
_geom_bond_site_symmetry_2
N1 H1 1_555 1_555
N2 H2 1_555 1_555
C1 N1 1_555 1_555
C2 C1 1_555 1_555
H3 C2 1_555 1_555
C3 C2 1_555 1_555
H4 C3 1_555 1_555
C4 C3 1_555 1_555
H5 C4 1_555 1_555
C5 C4 1_555 1_555
H6 C5 1_555 1_555
C6 C1 1_555 1_555
C7 C6 1_555 1_555
H7 C7 1_555 1_555
C8 N1 1_555 1_555
C9 C8 1_555 1_555
H8 C9 1_555 1_555
C10 C9 1_555 1_555
C11 C10 1_555 1_555
H9 C11 1_555 1_555
C12 C11 1_555 1_555
H10 C12 1_555 1_555
C13 C12 1_555 1_555
H11 C13 1_555 1_555
C14 C13 1_555 1_555
H12 C14 1_555 1_555
C15 C10 1_555 1_555
H13 C15 1_555 1_555
C16 C9 1_555 1_555
C17 C16 1_555 1_555
C18 C17 1_555 1_555
H14 C18 1_555 1_555
C19 C18 1_555 1_555
H15 C19 1_555 1_555
C20 C19 1_555 1_555
H16 C20 1_555 1_555
C21 C20 1_555 1_555
H17 C21 1_555 1_555
C22 N2 1_555 1_555
C23 N2 1_555 1_555
C24 C23 1_555 1_555
H18 C24 1_555 1_555
C25 C24 1_555 1_555
H19 C25 1_555 1_555
C26 C25 1_555 1_555
C27 C26 1_555 1_555
H20 C27 1_555 1_555
C28 C27 1_555 1_555
H21 C28 1_555 1_555
C29 C28 1_555 1_555
H22 C29 1_555 1_555
C30 C29 1_555 1_555
H23 C30 1_555 1_555
C31 C26 1_555 1_555
H24 C31 1_555 1_555
C5 C6 1_555 1_555
C7 C8 1_555 1_555
C14 C15 1_555 1_555
C16 C23 1_555 1_555
C17 C22 1_555 1_555
C21 C22 1_555 1_555
C30 C31 1_555 1_555

#END
