
#######################################################################
#
#                 Cambridge Crystallographic Data Centre
#                                CCDC 
#
#######################################################################
#
# If this CIF has been generated from an entry in the Cambridge 
# Structural Database, then it will include bibliographic, chemical, 
# crystal, experimental, refinement or atomic coordinate data resulting 
# from the CCDC's data processing and validation procedures.
#
#######################################################################

data_LAWWUC
_chemical_formula_moiety         'C16 H22 O4'
_chemical_name_systematic        
(2R,3S,4R,5R)-1-(5-Hydroxymethyl-2,2-dimethyl-(1,3)dioxolan-4-yl)-2-phenyl-3-buten-1-ol
_symmetry_cell_setting           orthorhombic
_symmetry_space_group_name_H-M   'P 21 21 21'
_symmetry_Int_Tables_number      19
_space_group_name_Hall           'P 2ac 2ab'
loop_
_symmetry_equiv_pos_site_id
_symmetry_equiv_pos_as_xyz
1 x,y,z
2 1/2-x,-y,1/2+z
3 1/2+x,1/2-y,-z
4 -x,1/2+y,1/2-z
_cell_length_a                   8.0197(9)
_cell_length_b                   9.2979(3)
_cell_length_c                   20.4452(8)
_cell_angle_alpha                90
_cell_angle_beta                 90
_cell_angle_gamma                90
_cell_volume                     1524.52
_exptl_crystal_description       block
_chemical_melting_point          '91.0-92.0 deg.C'
_cell_formula_units_Z            4
loop_
_atom_site_label
_atom_site_type_symbol
_atom_site_fract_x
_atom_site_fract_y
_atom_site_fract_z
O1 O 0.4920(2) -0.0573(2) 0.78701(7)
O2 O 0.5527(2) 0.1425(1) 0.89319(7)
O3 O 0.7882(2) 0.2597(2) 0.86248(8)
O4 O 0.6428(2) 0.1759(2) 0.73975(8)
C1 C 0.5825(3) -0.0939(2) 0.8444(1)
C2 C 0.6692(2) 0.0330(2) 0.87483(10)
C3 C 0.6510(3) 0.2667(2) 0.9068(1)
C4 C 0.8035(2) 0.1172(2) 0.83722(10)
C5 C 0.7971(2) 0.1202(2) 0.76309(10)
C6 C 0.5509(4) 0.3992(3) 0.8917(2)
C7 C 0.7138(4) 0.2639(4) 0.9766(1)
C8 C 0.9364(2) 0.2140(2) 0.73346(10)
C9 C 1.1079(2) 0.1645(2) 0.7556(1)
C10 C 1.1959(3) 0.2236(3) 0.8022(1)
C11 C 0.9239(2) 0.2204(2) 0.6595(1)
C12 C 0.8629(3) 0.3425(2) 0.6295(1)
C13 C 0.8486(4) 0.3516(3) 0.5622(1)
C14 C 0.8957(5) 0.2383(4) 0.5239(2)
C15 C 0.9551(5) 0.1165(3) 0.5520(1)
C16 C 0.9704(3) 0.1062(3) 0.6196(1)
H1 H 0.439(3) -0.136(3) 0.772(1)
H2 H 0.672(3) -0.170(3) 0.836(1)
H3 H 0.502(3) -0.134(3) 0.877(1)
H4 H 0.721(3) -0.011(2) 0.916(1)
H5 H 0.912(3) 0.083(2) 0.850(1)
H6 H 0.813(2) 0.019(2) 0.7472(8)
H7 H 0.571(3) 0.107(3) 0.749(1)
H8 H 0.515(4) 0.402(4) 0.846(2)
H9 H 0.619(4) 0.484(4) 0.897(1)
H10 H 0.458(5) 0.403(4) 0.920(2)
H11 H 0.788(4) 0.347(3) 0.981(1)
H12 H 0.619(4) 0.276(4) 1.007(2)
H13 H 0.782(4) 0.178(4) 0.983(2)
H14 H 0.919(2) 0.314(2) 0.751(1)
H15 H 1.153(3) 0.080(3) 0.733(1)
H16 H 1.147(4) 0.309(3) 0.829(1)
H17 H 1.320(4) 0.177(3) 0.814(1)
H18 H 0.830(3) 0.423(3) 0.656(1)
H19 H 0.811(4) 0.437(4) 0.542(2)
H20 H 0.895(4) 0.246(4) 0.478(2)
H21 H 0.988(5) 0.029(4) 0.525(2)
H22 H 1.018(4) 0.022(3) 0.638(1)
loop_
_geom_bond_atom_site_label_1
_geom_bond_atom_site_label_2
_geom_bond_site_symmetry_1
_geom_bond_site_symmetry_2
O1 C1 1_555 1_555
O2 C2 1_555 1_555
O3 C3 1_555 1_555
O4 C5 1_555 1_555
C1 C2 1_555 1_555
C2 C4 1_555 1_555
C3 O2 1_555 1_555
C4 O3 1_555 1_555
C5 C4 1_555 1_555
C6 C3 1_555 1_555
C7 C3 1_555 1_555
C8 C5 1_555 1_555
C9 C8 1_555 1_555
C10 C9 1_555 1_555
C11 C8 1_555 1_555
C12 C11 1_555 1_555
C13 C12 1_555 1_555
C14 C13 1_555 1_555
C15 C14 1_555 1_555
C16 C11 1_555 1_555
H1 O1 1_555 1_555
H2 C1 1_555 1_555
H3 C1 1_555 1_555
H4 C2 1_555 1_555
H5 C4 1_555 1_555
H6 C5 1_555 1_555
H7 O4 1_555 1_555
H8 C6 1_555 1_555
H9 C6 1_555 1_555
H10 C6 1_555 1_555
H11 C7 1_555 1_555
H12 C7 1_555 1_555
H13 C7 1_555 1_555
H14 C8 1_555 1_555
H15 C9 1_555 1_555
H16 C10 1_555 1_555
H17 C10 1_555 1_555
H18 C12 1_555 1_555
H19 C13 1_555 1_555
H20 C14 1_555 1_555
H21 C15 1_555 1_555
H22 C16 1_555 1_555
C15 C16 1_555 1_555

#END
