
#######################################################################
#
#                 Cambridge Crystallographic Data Centre
#                                CCDC 
#
#######################################################################
#
# If this CIF has been generated from an entry in the Cambridge 
# Structural Database, then it will include bibliographic, chemical, 
# crystal, experimental, refinement or atomic coordinate data resulting 
# from the CCDC's data processing and validation procedures.
#
#######################################################################

data_LAWYOY02
_chemical_formula_moiety         'C19 H13 N1 O1'
_chemical_name_systematic        5-Phenyl-2-(benzoylacetylenyl)pyrrole
_symmetry_cell_setting           monoclinic
_symmetry_space_group_name_H-M   'C 2/c'
_symmetry_Int_Tables_number      15
_space_group_name_Hall           '-C 2yn'
loop_
_symmetry_equiv_pos_site_id
_symmetry_equiv_pos_as_xyz
1 x,y,z
2 1/2+x,1/2+y,z
3 -x,y,1/2-z
4 1/2-x,1/2+y,1/2-z
5 -x,-y,-z
6 1/2-x,1/2-y,-z
7 x,-y,1/2+z
8 1/2+x,1/2-y,1/2+z
_cell_length_a                   16.748(3)
_cell_length_b                   7.225(1)
_cell_length_c                   23.818(5)
_cell_angle_alpha                90.0
_cell_angle_beta                 97.78(3)
_cell_angle_gamma                90.0
_cell_volume                     2855.55
_cell_formula_units_Z            8
loop_
_atom_site_label
_atom_site_type_symbol
_atom_site_fract_x
_atom_site_fract_y
_atom_site_fract_z
O1 O 0.65443(7) -0.04926(17) 0.51687(5)
N1 N 0.38312(6) 0.16799(17) 0.37353(5)
C1 C 0.33439(8) 0.24309(19) 0.32895(5)
C2 C 0.38331(9) 0.3160(3) 0.29248(6)
C3 C 0.46288(9) 0.2848(3) 0.31595(6)
C4 C 0.46260(8) 0.1937(2) 0.36617(6)
C5 C 0.52797(8) 0.1327(2) 0.40535(6)
C6 C 0.58669(8) 0.0848(2) 0.43606(6)
C7 C 0.65819(8) 0.0254(2) 0.47157(6)
C8 C 0.73679(8) 0.06021(19) 0.45089(5)
C9 C 0.74196(10) 0.1521(2) 0.40106(7)
C10 C 0.81685(12) 0.1852(3) 0.38422(9)
C11 C 0.88539(11) 0.1262(3) 0.41738(11)
C12 C 0.88037(11) 0.0334(3) 0.46591(11)
C13 C 0.80629(9) -0.0015(3) 0.48349(7)
C14 C 0.24630(8) 0.24025(18) 0.32451(5)
C15 C 0.20694(8) 0.1329(2) 0.36030(6)
C16 C 0.12357(9) 0.1334(3) 0.35586(7)
C17 C 0.07897(10) 0.2401(3) 0.31578(7)
C18 C 0.11673(10) 0.3471(3) 0.28018(8)
C19 C 0.20019(9) 0.3475(2) 0.28423(7)
H1 H 0.3679(9) 0.122(2) 0.4065(6)
H2 H 0.3658(10) 0.379(3) 0.2578(7)
H3 H 0.5107(12) 0.320(3) 0.3010(7)
H4 H 0.6921(10) 0.195(2) 0.3769(7)
H5 H 0.8186(12) 0.255(3) 0.3499(8)
H6 H 0.9374(15) 0.154(3) 0.4059(9)
H7 H 0.9257(14) -0.009(3) 0.4907(9)
H8 H 0.7988(10) -0.070(2) 0.5186(7)
H9 H 0.2366(9) 0.058(2) 0.3892(6)
H10 H 0.0976(10) 0.058(3) 0.3849(7)
H11 H 0.0214(12) 0.243(3) 0.3139(7)
H12 H 0.0856(12) 0.419(3) 0.2517(8)
H13 H 0.2267(10) 0.429(3) 0.2595(7)
loop_
_geom_bond_atom_site_label_1
_geom_bond_atom_site_label_2
_geom_bond_site_symmetry_1
_geom_bond_site_symmetry_2
O1 C7 1_555 1_555
N1 C1 1_555 1_555
C1 C2 1_555 1_555
C2 C3 1_555 1_555
C3 C4 1_555 1_555
C4 N1 1_555 1_555
C5 C4 1_555 1_555
C6 C5 1_555 1_555
C7 C6 1_555 1_555
C8 C7 1_555 1_555
C9 C8 1_555 1_555
C10 C9 1_555 1_555
C11 C10 1_555 1_555
C12 C11 1_555 1_555
C13 C8 1_555 1_555
C14 C1 1_555 1_555
C15 C14 1_555 1_555
C16 C15 1_555 1_555
C17 C16 1_555 1_555
C18 C17 1_555 1_555
C19 C14 1_555 1_555
H1 N1 1_555 1_555
H2 C2 1_555 1_555
H3 C3 1_555 1_555
H4 C9 1_555 1_555
H5 C10 1_555 1_555
H6 C11 1_555 1_555
H7 C12 1_555 1_555
H8 C13 1_555 1_555
H9 C15 1_555 1_555
H10 C16 1_555 1_555
H11 C17 1_555 1_555
H12 C18 1_555 1_555
H13 C19 1_555 1_555
C12 C13 1_555 1_555
C18 C19 1_555 1_555

#END
