
#######################################################################
#
#                 Cambridge Crystallographic Data Centre
#                                CCDC 
#
#######################################################################
#
# If this CIF has been generated from an entry in the Cambridge 
# Structural Database, then it will include bibliographic, chemical, 
# crystal, experimental, refinement or atomic coordinate data resulting 
# from the CCDC's data processing and validation procedures.
#
#######################################################################

data_LAXMUV
_chemical_formula_moiety         'C52 H38 N4,C4 H8 O2'
_chemical_name_systematic        
'2-(p-tolylmethyl)-5,10,15,20-tetraphenyl-2-aza-21-carbaporphyrin ethyl acetate solvate'
_symmetry_cell_setting           monoclinic
_symmetry_space_group_name_H-M   'C 2/c'
_symmetry_Int_Tables_number      15
_space_group_name_Hall           '-C 2yn'
loop_
_symmetry_equiv_pos_site_id
_symmetry_equiv_pos_as_xyz
1 x,y,z
2 -x,y,1/2-z
3 1/2+x,1/2+y,z
4 1/2-x,1/2+y,1/2-z
5 -x,-y,-z
6 x,-y,1/2+z
7 1/2-x,1/2-y,-z
8 1/2+x,1/2-y,1/2+z
_cell_length_a                   33.6380(16)
_cell_length_b                   13.6431(6)
_cell_length_c                   20.3950(10)
_cell_angle_alpha                90
_cell_angle_beta                 111.880(5)
_cell_angle_gamma                90
_cell_volume                     8685.59
_exptl_crystal_colour            blue
_exptl_crystal_description       parallelepiped
_cell_formula_units_Z            8
loop_
_atom_site_label
_atom_site_type_symbol
_atom_site_fract_x
_atom_site_fract_y
_atom_site_fract_z
N1 N 0.12644(6) 0.83268(14) 0.37203(10)
N2 N 0.16962(6) 1.01961(13) 0.37164(10)
H1 H 0.1443(8) 1.003(2) 0.3713(14)
N3 N 0.09306(5) 1.13111(14) 0.36305(10)
N4 N -0.01868(6) 0.95242(14) 0.32505(10)
C1 C 0.10280(7) 0.75304(16) 0.38007(12)
C2 C 0.12861(7) 0.66412(17) 0.39232(13)
H2 H 0.1203 0.6003 0.4008
C3 C 0.16635(7) 0.69014(17) 0.38924(12)
H3 H 0.1898 0.6480 0.3941
C4 C 0.16437(7) 0.79564(17) 0.37694(11)
C5 C 0.19918(6) 0.85214(16) 0.37257(11)
C6 C 0.20061(6) 0.95338(17) 0.37066(11)
C7 C 0.23559(7) 1.01129(17) 0.36741(12)
H4 H 0.2614 0.9861 0.3653
C8 C 0.22573(7) 1.10724(17) 0.36791(12)
H5 H 0.2437 1.1607 0.3672
C9 C 0.18337(7) 1.11485(16) 0.36974(11)
C10 C 0.16193(7) 1.20186(16) 0.37045(11)
C11 C 0.11947(7) 1.20799(16) 0.37074(12)
C12 C 0.09958(7) 1.29956(17) 0.38030(13)
H6 H 0.1116 1.3634 0.3859
C13 C 0.06042(7) 1.27445(17) 0.37948(13)
H7 H 0.0399 1.3174 0.3857
C14 C 0.05587(7) 1.16934(17) 0.36735(12)
C15 C 0.01917(7) 1.11600(16) 0.36083(12)
C16 C 0.01845(6) 1.01110(17) 0.35647(12)
C17 C 0.05306(7) 0.94693(16) 0.37939(12)
H8 H 0.0823 0.9652 0.4019
C18 C 0.03762(7) 0.85077(17) 0.36369(12)
C19 C -0.00706(7) 0.85871(17) 0.32966(12)
H9 H -0.0261 0.8051 0.3125
C20 C 0.06038(7) 0.75903(16) 0.37437(12)
C21 C 0.23678(7) 0.79509(16) 0.36976(12)
C22 C 0.23395(8) 0.74680(19) 0.30839(13)
H10 H 0.2086 0.7521 0.2673
C23 C 0.26803(9) 0.6906(2) 0.30663(15)
H11 H 0.2658 0.6578 0.2643
C24 C 0.30509(8) 0.68209(19) 0.36583(16)
H12 H 0.3283 0.6435 0.3644
C25 C 0.30820(8) 0.7299(2) 0.42689(17)
H13 H 0.3336 0.7242 0.4679
C26 C 0.27414(8) 0.7868(2) 0.42867(14)
H14 H 0.2767 0.8202 0.4709
C27 C 0.18528(7) 1.29568(16) 0.37171(12)
C28 C 0.18991(7) 1.33051(19) 0.31063(13)
H15 H 0.1782 1.2946 0.2678
C29 C 0.21174(8) 1.4179(2) 0.31222(15)
H16 H 0.2150 1.4409 0.2706
C30 C 0.22855(8) 1.47114(19) 0.37381(16)
H17 H 0.2432 1.5309 0.3745
C31 C 0.22413(8) 1.4375(2) 0.43467(16)
H18 H 0.2357 1.4742 0.4772
C32 C 0.20283(8) 1.35010(18) 0.43365(14)
H19 H 0.2002 1.3271 0.4758
C33 C -0.01921(7) 1.16971(17) 0.36227(12)
C34 C -0.03997(7) 1.24052(17) 0.31184(13)
H20 H -0.0293 1.2562 0.2761
C35 C -0.07615(7) 1.28852(19) 0.31323(15)
H21 H -0.0899 1.3371 0.2788
C36 C -0.09206(8) 1.2653(2) 0.36484(15)
H22 H -0.1168 1.2978 0.3658
C37 C -0.07188(8) 1.1948(2) 0.41512(14)
H23 H -0.0828 1.1790 0.4505
C38 C -0.03574(7) 1.14711(19) 0.41388(13)
H24 H -0.0221 1.0987 0.4484
C39 C 0.03642(7) 0.66958(16) 0.37930(12)
C40 C 0.01504(7) 0.66848(18) 0.42641(13)
H25 H 0.0163 0.7244 0.4549
C41 C -0.00790(8) 0.5870(2) 0.43196(14)
H26 H -0.0219 0.5869 0.4648
C42 C -0.01067(8) 0.50554(19) 0.39019(15)
H27 H -0.0265 0.4497 0.3942
C43 C 0.00965(8) 0.50605(19) 0.34276(15)
H28 H 0.0075 0.4505 0.3135
C44 C 0.03332(8) 0.58724(18) 0.33725(13)
H29 H 0.0474 0.5865 0.3046
C45 C -0.06429(7) 0.97792(18) 0.29110(13)
H30 H -0.0765 0.9438 0.2451
H31 H -0.0670 1.0493 0.2819
C46 C -0.08971(7) 0.95017(17) 0.33615(12)
C47 C -0.13405(7) 0.9614(2) 0.30752(13)
H32 H -0.1472 0.9914 0.2625
C48 C -0.15917(8) 0.9295(2) 0.34379(14)
H33 H -0.1894 0.9370 0.3229
C49 C -0.14094(8) 0.8867(2) 0.41018(14)
C50 C -0.09689(8) 0.8786(2) 0.44022(13)
H34 H -0.0837 0.8519 0.4863
C51 C -0.07153(8) 0.9093(2) 0.40318(13)
H35 H -0.0413 0.9021 0.4242
C52 C -0.16856(10) 0.8517(3) 0.44897(18)
H36 H -0.1504 0.8239 0.4946
H37 H -0.1884 0.8015 0.4208
H38 H -0.1848 0.9071 0.4568
O1 O 0.11761(7) 0.53587(17) 0.14525(14)
O2 O 0.17767(8) 0.6016(2) 0.14521(19)
C53 C 0.13275(14) 0.5029(4) 0.0448(2)
H39 H 0.1542 0.5167 0.0241
H40 H 0.1048 0.5277 0.0135
H41 H 0.1309 0.4320 0.0508
C54 C 0.14559(11) 0.5525(3) 0.1157(2)
C55 C 0.12422(11) 0.5855(2) 0.21304(17)
H42 H 0.1096 0.5484 0.2392
H43 H 0.1552 0.5877 0.2424
C56 C 0.10685(10) 0.6869(2) 0.19934(17)
H44 H 0.1112 0.7194 0.2444
H45 H 0.0761 0.6845 0.1705
H46 H 0.1217 0.7237 0.1741
loop_
_geom_bond_atom_site_label_1
_geom_bond_atom_site_label_2
_geom_bond_site_symmetry_1
_geom_bond_site_symmetry_2
N1 C1 1_555 1_555
N2 H1 1_555 1_555
N3 C11 1_555 1_555
N4 C16 1_555 1_555
C1 C2 1_555 1_555
C2 H2 1_555 1_555
C3 C2 1_555 1_555
H3 C3 1_555 1_555
C4 N1 1_555 1_555
C5 C4 1_555 1_555
C6 N2 1_555 1_555
C7 C6 1_555 1_555
H4 C7 1_555 1_555
C8 C7 1_555 1_555
H5 C8 1_555 1_555
C9 N2 1_555 1_555
C10 C9 1_555 1_555
C11 C10 1_555 1_555
C12 C11 1_555 1_555
H6 C12 1_555 1_555
C13 C12 1_555 1_555
H7 C13 1_555 1_555
C14 N3 1_555 1_555
C15 C14 1_555 1_555
C16 C15 1_555 1_555
C17 C16 1_555 1_555
H8 C17 1_555 1_555
C18 C17 1_555 1_555
C19 N4 1_555 1_555
H9 C19 1_555 1_555
C20 C1 1_555 1_555
C21 C5 1_555 1_555
C22 C21 1_555 1_555
H10 C22 1_555 1_555
C23 C22 1_555 1_555
H11 C23 1_555 1_555
C24 C23 1_555 1_555
H12 C24 1_555 1_555
C25 C24 1_555 1_555
H13 C25 1_555 1_555
C26 C21 1_555 1_555
H14 C26 1_555 1_555
C27 C10 1_555 1_555
C28 C27 1_555 1_555
H15 C28 1_555 1_555
C29 C28 1_555 1_555
H16 C29 1_555 1_555
C30 C29 1_555 1_555
H17 C30 1_555 1_555
C31 C30 1_555 1_555
H18 C31 1_555 1_555
C32 C27 1_555 1_555
H19 C32 1_555 1_555
C33 C15 1_555 1_555
C34 C33 1_555 1_555
H20 C34 1_555 1_555
C35 C34 1_555 1_555
H21 C35 1_555 1_555
C36 C35 1_555 1_555
H22 C36 1_555 1_555
C37 C36 1_555 1_555
H23 C37 1_555 1_555
C38 C33 1_555 1_555
H24 C38 1_555 1_555
C39 C20 1_555 1_555
C40 C39 1_555 1_555
H25 C40 1_555 1_555
C41 C40 1_555 1_555
H26 C41 1_555 1_555
C42 C41 1_555 1_555
H27 C42 1_555 1_555
C43 C42 1_555 1_555
H28 C43 1_555 1_555
C44 C39 1_555 1_555
H29 C44 1_555 1_555
C45 N4 1_555 1_555
H30 C45 1_555 1_555
H31 C45 1_555 1_555
C46 C45 1_555 1_555
C47 C46 1_555 1_555
H32 C47 1_555 1_555
C48 C47 1_555 1_555
H33 C48 1_555 1_555
C49 C48 1_555 1_555
C50 C49 1_555 1_555
H34 C50 1_555 1_555
C51 C46 1_555 1_555
H35 C51 1_555 1_555
C52 C49 1_555 1_555
H36 C52 1_555 1_555
H37 C52 1_555 1_555
H38 C52 1_555 1_555
O1 C54 1_555 1_555
O2 C54 1_555 1_555
C53 H39 1_555 1_555
H40 C53 1_555 1_555
H41 C53 1_555 1_555
C54 C53 1_555 1_555
C55 O1 1_555 1_555
H42 C55 1_555 1_555
H43 C55 1_555 1_555
C56 C55 1_555 1_555
H44 C56 1_555 1_555
H45 C56 1_555 1_555
H46 C56 1_555 1_555
C3 C4 1_555 1_555
C5 C6 1_555 1_555
C8 C9 1_555 1_555
C13 C14 1_555 1_555
C18 C19 1_555 1_555
C18 C20 1_555 1_555
C25 C26 1_555 1_555
C31 C32 1_555 1_555
C37 C38 1_555 1_555
C43 C44 1_555 1_555
C50 C51 1_555 1_555

#END
