
#######################################################################
#
#                 Cambridge Crystallographic Data Centre
#                                CCDC 
#
#######################################################################
#
# If this CIF has been generated from an entry in the Cambridge 
# Structural Database, then it will include bibliographic, chemical, 
# crystal, experimental, refinement or atomic coordinate data resulting 
# from the CCDC's data processing and validation procedures.
#
#######################################################################

data_LAXRAD
_chemical_formula_moiety         'C20 H48 Li2 N4 S6'
_chemical_name_systematic        
(\m~2~-Hexasulfido)-bis(N,N,N',N'-tetraethylethylenediamine)-lithium
_symmetry_cell_setting           monoclinic
_symmetry_space_group_name_H-M   'P 21'
_symmetry_Int_Tables_number      4
_space_group_name_Hall           'P 2yb'
loop_
_symmetry_equiv_pos_site_id
_symmetry_equiv_pos_as_xyz
1 x,y,z
2 -x,1/2+y,-z
_cell_length_a                   9.862(4)
_cell_length_b                   17.337(7)
_cell_length_c                   10.243(6)
_cell_angle_alpha                90
_cell_angle_beta                 115.83(4)
_cell_angle_gamma                90
_cell_volume                     1576.35
_exptl_crystal_colour            orange
_chemical_melting_point          85-88deg.C
_cell_formula_units_Z            2
loop_
_atom_site_label
_atom_site_type_symbol
_atom_site_fract_x
_atom_site_fract_y
_atom_site_fract_z
S1 S 0.4278(2) 0.5000 0.0890(2)
S2 S 0.535(2) 0.483(1) 0.310(2)
S4 S 0.4916(4) 0.5587(3) 0.4209(4)
S6 S 0.2683(4) 0.5522(3) 0.3846(3)
S8 S 0.177(1) 0.6523(7) 0.2783(9)
S10 S 0.1404(2) 0.6421(1) 0.0663(2)
N1 N 0.0199(5) 0.4582(3) -0.1917(5)
N2 N 0.0562(5) 0.4022(3) 0.0929(5)
N3 N 0.5500(6) 0.7422(3) 0.1969(7)
N4 N 0.3946(6) 0.7001(3) -0.1173(6)
C1 C 0.0046(7) 0.3775(4) -0.1603(7)
C2 C -0.0473(8) 0.3662(4) -0.0448(7)
C3 C 0.1135(8) 0.4663(5) -0.2712(8)
C4 C 0.051(1) 0.4331(7) -0.4237(8)
C5 C -0.1306(7) 0.4931(4) -0.2732(8)
C6 C -0.1271(9) 0.5768(5) -0.3039(9)
C7 C 0.1913(7) 0.3557(4) 0.1746(8)
C8 C 0.1733(9) 0.2773(5) 0.231(1)
C9 C -0.0179(9) 0.4179(6) 0.1846(9)
C10 C -0.131(1) 0.4823(6) 0.128(1)
C11 C 0.569(1) 0.7845(6) 0.082(1)
C12 C 0.448(1) 0.7794(6) -0.057(1)
C13 C 0.4575(9) 0.7870(5) 0.256(1)
C14 C 0.518(1) 0.8616(9) 0.324(2)
C15 C 0.6980(9) 0.7220(6) 0.319(1)
C16 C 0.779(1) 0.6604(6) 0.295(1)
C17 C 0.2418(9) 0.7020(5) -0.2241(8)
C18 C 0.202(1) 0.7501(7) -0.360(1)
C19 C 0.496(1) 0.6680(9) -0.172(2)
C20 C 0.499(2) 0.5901(8) -0.195(2)
Li1 Li 0.1460(9) 0.5005(6) 0.0306(9)
Li2 Li 0.407(1) 0.6431(7) 0.079(1)
H1 H 0.6545 0.7630 0.0740
H2 H 0.5918 0.8374 0.1118
H3 H 0.4732 0.8073 -0.1242
H4 H 0.3650 0.8057 -0.0509
H5 H 0.4559 0.7572 0.3340
H6 H 0.3555 0.7919 0.1828
H7 H 0.4571 0.8785 0.3702
H8 H 0.6210 0.8580 0.3938
H9 H 0.5092 0.8979 0.2495
H10 H 0.6771 0.7058 0.3977
H11 H 0.7605 0.7671 0.3488
H12 H 0.8667 0.6635 0.3861
H13 H 0.7394 0.6089 0.2805
H14 H 0.8061 0.6733 0.2178
H15 H 0.2130 0.6498 -0.2552
H16 H 0.1827 0.7211 -0.1775
H17 H 0.0943 0.7455 -0.4002
H18 H 0.2305 0.8027 -0.3320
H19 H 0.2360 0.7346 -0.4302
H20 H 0.5960 0.6823 -0.1042
H21 H 0.4716 0.6927 -0.2635
H22 H 0.5634 0.5705 -0.2362
H23 H 0.5277 0.5676 -0.1013
H24 H 0.3965 0.5772 -0.2575
H25 H 0.1005 0.3526 -0.1303
H26 H -0.0655 0.3526 -0.2473
H27 H -0.0557 0.3122 -0.0291
H28 H -0.1453 0.3889 -0.0762
H29 H 0.2083 0.4415 -0.2145
H30 H 0.1329 0.5200 -0.2784
H31 H 0.1149 0.4423 -0.4707
H32 H 0.0399 0.3786 -0.4151
H33 H -0.0465 0.4556 -0.4802
H34 H -0.1856 0.4877 -0.2161
H35 H -0.1841 0.4652 -0.3621
H36 H -0.2189 0.6060 -0.3402
H37 H -0.0521 0.6022 -0.2204
H38 H -0.0922 0.5729 -0.3777
H39 H 0.2396 0.3474 0.1123
H40 H 0.2560 0.3857 0.2571
H41 H 0.2675 0.2505 0.2782
H42 H 0.1278 0.2621 0.2960
H43 H 0.1073 0.2490 0.1466
H44 H 0.0559 0.4316 0.2801
H45 H -0.0682 0.3720 0.1923
H46 H -0.1826 0.4843 0.1894
H47 H -0.0829 0.5310 0.1326
H48 H -0.2028 0.4721 0.0303
S3? S 0.544(2) 0.471(2) 0.298(2)
S5? S 0.4324(7) 0.5066(4) 0.4149(4)
S7? S 0.4085(6) 0.6250(3) 0.4117(4)
S9? S 0.173(2) 0.643(1) 0.272(2)
loop_
_geom_bond_atom_site_label_1
_geom_bond_atom_site_label_2
_geom_bond_site_symmetry_1
_geom_bond_site_symmetry_2
S1 S2 1_555 1_555
S2 S4 1_555 1_555
S4 S6 1_555 1_555
S6 S8 1_555 1_555
S8 S10 1_555 1_555
S10 Li1 1_555 1_555
N1 C1 1_555 1_555
N2 C2 1_555 1_555
N3 C11 1_555 1_555
N4 C12 1_555 1_555
C1 C2 1_555 1_555
C2 H27 1_555 1_555
C3 N1 1_555 1_555
C4 C3 1_555 1_555
C5 N1 1_555 1_555
C6 C5 1_555 1_555
C7 N2 1_555 1_555
C8 C7 1_555 1_555
C9 N2 1_555 1_555
C10 C9 1_555 1_555
C11 C12 1_555 1_555
C12 H3 1_555 1_555
C13 N3 1_555 1_555
C14 C13 1_555 1_555
C15 N3 1_555 1_555
C16 C15 1_555 1_555
C17 N4 1_555 1_555
C18 C17 1_555 1_555
C19 N4 1_555 1_555
C20 C19 1_555 1_555
Li1 S1 1_555 1_555
Li2 S1 1_555 1_555
H1 C11 1_555 1_555
H2 C11 1_555 1_555
H4 C12 1_555 1_555
H5 C13 1_555 1_555
H6 C13 1_555 1_555
H7 C14 1_555 1_555
H8 C14 1_555 1_555
H9 C14 1_555 1_555
H10 C15 1_555 1_555
H11 C15 1_555 1_555
H12 C16 1_555 1_555
H13 C16 1_555 1_555
H14 C16 1_555 1_555
H15 C17 1_555 1_555
H16 C17 1_555 1_555
H17 C18 1_555 1_555
H18 C18 1_555 1_555
H19 C18 1_555 1_555
H20 C19 1_555 1_555
H21 C19 1_555 1_555
H22 C20 1_555 1_555
H23 C20 1_555 1_555
H24 C20 1_555 1_555
H25 C1 1_555 1_555
H26 C1 1_555 1_555
H28 C2 1_555 1_555
H29 C3 1_555 1_555
H30 C3 1_555 1_555
H31 C4 1_555 1_555
H32 C4 1_555 1_555
H33 C4 1_555 1_555
H34 C5 1_555 1_555
H35 C5 1_555 1_555
H36 C6 1_555 1_555
H37 C6 1_555 1_555
H38 C6 1_555 1_555
H39 C7 1_555 1_555
H40 C7 1_555 1_555
H41 C8 1_555 1_555
H42 C8 1_555 1_555
H43 C8 1_555 1_555
H44 C9 1_555 1_555
H45 C9 1_555 1_555
H46 C10 1_555 1_555
H47 C10 1_555 1_555
H48 C10 1_555 1_555
S10 Li2 1_555 1_555
N1 Li1 1_555 1_555
N2 Li1 1_555 1_555
N3 Li2 1_555 1_555
N4 Li2 1_555 1_555

#END
