
#######################################################################
#
#                 Cambridge Crystallographic Data Centre
#                                CCDC 
#
#######################################################################
#
# If this CIF has been generated from an entry in the Cambridge 
# Structural Database, then it will include bibliographic, chemical, 
# crystal, experimental, refinement or atomic coordinate data resulting 
# from the CCDC's data processing and validation procedures.
#
#######################################################################

data_LAYYIW
_chemical_formula_moiety         'C30 H19 F17 O2'
_chemical_name_systematic        
'3,3,4,4,5,5,6,6,7,7,8,8,9,9,10,10,10-heptadecafluorodecyl 4-(pyren-1-yl)butanoate'
_symmetry_cell_setting           orthorhombic
_symmetry_space_group_name_H-M   'P 21 21 21'
_symmetry_Int_Tables_number      19
_space_group_name_Hall           'P 2ac 2ab'
loop_
_symmetry_equiv_pos_site_id
_symmetry_equiv_pos_as_xyz
1 x,y,z
2 1/2-x,-y,1/2+z
3 -x,1/2+y,1/2-z
4 1/2+x,1/2-y,-z
_cell_length_a                   5.4184(3)
_cell_length_b                   9.8683(10)
_cell_length_c                   54.655(4)
_cell_angle_alpha                90
_cell_angle_beta                 90
_cell_angle_gamma                90
_cell_volume                     2922.42
_exptl_crystal_description       block
_cell_formula_units_Z            4
loop_
_atom_site_label
_atom_site_type_symbol
_atom_site_fract_x
_atom_site_fract_y
_atom_site_fract_z
O1 O 0.6017(11) 0.2859(7) 0.33259(9)
O2 O 0.8874(14) 0.3174(8) 0.30414(11)
C1 C 0.4087(16) 0.2464(8) 0.18356(13)
C2 C 0.3422(16) 0.2378(8) 0.20869(13)
C3 C 0.6898(17) 0.2766(9) 0.30990(14)
C4 C 0.6034(18) 0.1656(9) 0.17408(15)
C5 C 0.7817(16) 0.4009(10) 0.39466(15)
C6 C 0.4673(16) 0.1447(9) 0.22359(14)
C7 C 0.4052(19) 0.1302(9) 0.25071(14)
H1 H 0.2373 0.1607 0.2535
H2 H 0.4143 0.0353 0.2553
C8 C 0.2804(16) 0.3354(8) 0.16768(13)
C9 C 0.5140(16) 0.2002(9) 0.29370(13)
H3 H 0.3485 0.2349 0.2962
H4 H 0.5145 0.1054 0.2984
C10 C 0.0911(19) 0.4196(9) 0.17650(16)
C11 C 0.7246(18) 0.0734(10) 0.18987(17)
H5 H 0.8515 0.0187 0.1841
C12 C 0.7520(18) 0.3568(11) 0.34979(14)
H6 H 0.7687 0.4511 0.3451
H7 H 0.9152 0.3166 0.3506
C13 C 0.1460(19) 0.3235(10) 0.21721(15)
H8 H 0.0980 0.3184 0.2335
C14 C 0.0284(18) 0.4120(10) 0.20213(16)
H9 H -0.0939 0.4682 0.2084
C15 C 0.6648(19) 0.1771(10) 0.14868(16)
H10 H 0.7948 0.1262 0.1424
C16 C 0.653(2) 0.0660(10) 0.21364(17)
H11 H 0.7328 0.0045 0.2238
C17 C 0.5779(17) 0.2107(8) 0.26672(14)
H12 H 0.5722 0.3051 0.2618
H13 H 0.7452 0.1785 0.2642
C18 C 0.6261(17) 0.3459(11) 0.37406(13)
H14 H 0.5883 0.2515 0.3773
H15 H 0.4714 0.3953 0.3735
C19 C 0.539(2) 0.2597(11) 0.13369(16)
H16 H 0.5806 0.2628 0.1172
C20 C 0.347(2) 0.3411(10) 0.14235(14)
C21 C -0.038(2) 0.5058(10) 0.16070(18)
H17 H -0.1647 0.5605 0.1666
C22 C 0.211(2) 0.4314(12) 0.12713(17)
H18 H 0.2506 0.4375 0.1106
C23 C 0.027(2) 0.5082(11) 0.13609(19)
H19 H -0.0596 0.5646 0.1255
F1 F 0.9837(11) 0.3218(8) 0.39752(10)
F2 F 0.8633(14) 0.5253(7) 0.38974(9)
C24 C 0.6472(16) 0.4079(11) 0.41923(15)
F3 F 0.464(2) 0.5055(10) 0.41671(19)
F4 F 0.5247(18) 0.2891(16) 0.4234(2)
C25 C 0.7974(17) 0.4477(10) 0.44209(16)
F5 F 0.940(2) 0.5464(12) 0.43737(14)
F6 F 0.956(2) 0.3409(12) 0.44644(14)
C26 C 0.6558(19) 0.4653(12) 0.46554(17)
F7 F 0.528(2) 0.5851(12) 0.46296(13)
F8 F 0.480(2) 0.3740(12) 0.46824(16)
C27 C 0.790(2) 0.4870(14) 0.48884(19)
F9 F 0.9774(19) 0.5673(12) 0.48569(17)
F10 F 0.899(3) 0.3617(12) 0.49394(15)
C28 C 0.670(2) 0.5147(14) 0.5125(2)
F11 F 0.558(4) 0.6380(14) 0.50942(16)
F12 F 0.475(2) 0.4313(16) 0.5148(2)
C29 C 0.758(3) 0.5401(13) 0.53602(19)
F13 F 0.980(2) 0.6125(19) 0.5332(2)
F14 F 0.869(5) 0.4035(15) 0.5397(2)
C30 C 0.676(2) 0.5662(14) 0.55868(16)
F15 F 0.807(2) 0.5471(17) 0.57930(15)
F16 F 0.493(3) 0.476(2) 0.5636(2)
F17 F 0.582(6) 0.678(2) 0.5570(3)
F18? F 0.638(8) 0.271(7) 0.4228(10)
F19? F 0.458(11) 0.436(5) 0.4185(9)
F20? F 0.750(6) 0.602(3) 0.4378(5)
F21? F 1.002(10) 0.441(6) 0.4408(7)
F22? F 0.458(12) 0.453(6) 0.4660(8)
F23? F 0.730(5) 0.306(3) 0.4721(5)
F24? F 1.003(14) 0.499(7) 0.4884(9)
F25? F 0.723(5) 0.645(4) 0.4848(5)
F26? F 0.761(6) 0.354(2) 0.5206(3)
F27? F 0.494(18) 0.506(9) 0.5129(12)
F28? F 0.822(6) 0.6703(18) 0.5306(3)
F29? F 0.960(4) 0.463(3) 0.5388(4)
F30? F 0.440(6) 0.609(8) 0.5591(10)
F31? F 0.799(11) 0.675(4) 0.5679(5)
F32? F 0.738(9) 0.456(3) 0.5727(4)
loop_
_geom_bond_atom_site_label_1
_geom_bond_atom_site_label_2
_geom_bond_site_symmetry_1
_geom_bond_site_symmetry_2
O1 C3 1_555 1_555
O2 C3 1_555 1_555
C1 C2 1_555 1_555
C2 C6 1_555 1_555
C3 C9 1_555 1_555
C4 C1 1_555 1_555
C5 C18 1_555 1_555
C6 C7 1_555 1_555
C7 H1 1_555 1_555
H2 C7 1_555 1_555
C8 C1 1_555 1_555
C9 H3 1_555 1_555
H4 C9 1_555 1_555
C10 C8 1_555 1_555
C11 C4 1_555 1_555
H5 C11 1_555 1_555
C12 O1 1_555 1_555
H6 C12 1_555 1_555
H7 C12 1_555 1_555
C13 C2 1_555 1_555
H8 C13 1_555 1_555
C14 C10 1_555 1_555
H9 C14 1_555 1_555
C15 C4 1_555 1_555
H10 C15 1_555 1_555
C16 C6 1_555 1_555
H11 C16 1_555 1_555
C17 C7 1_555 1_555
H12 C17 1_555 1_555
H13 C17 1_555 1_555
C18 C12 1_555 1_555
H14 C18 1_555 1_555
H15 C18 1_555 1_555
C19 C15 1_555 1_555
H16 C19 1_555 1_555
C20 C8 1_555 1_555
C21 C10 1_555 1_555
H17 C21 1_555 1_555
C22 C20 1_555 1_555
H18 C22 1_555 1_555
C23 C21 1_555 1_555
H19 C23 1_555 1_555
F1 C5 1_555 1_555
F2 C5 1_555 1_555
C24 C5 1_555 1_555
F3 C24 1_555 1_555
F4 C24 1_555 1_555
C25 C24 1_555 1_555
F5 C25 1_555 1_555
F6 C25 1_555 1_555
C26 C25 1_555 1_555
F7 C26 1_555 1_555
F8 C26 1_555 1_555
C27 C26 1_555 1_555
F9 C27 1_555 1_555
F10 C27 1_555 1_555
C28 C27 1_555 1_555
F11 C28 1_555 1_555
F12 C28 1_555 1_555
C29 C28 1_555 1_555
F13 C29 1_555 1_555
F14 C29 1_555 1_555
C30 C29 1_555 1_555
F15 C30 1_555 1_555
F16 C30 1_555 1_555
F17 C30 1_555 1_555
C9 C17 1_555 1_555
C11 C16 1_555 1_555
C13 C14 1_555 1_555
C19 C20 1_555 1_555
C22 C23 1_555 1_555

#END
