
#######################################################################
#
#                 Cambridge Crystallographic Data Centre
#                                CCDC 
#
#######################################################################
#
# If this CIF has been generated from an entry in the Cambridge 
# Structural Database, then it will include bibliographic, chemical, 
# crystal, experimental, refinement or atomic coordinate data resulting 
# from the CCDC's data processing and validation procedures.
#
#######################################################################

data_LAZROU
_chemical_formula_moiety         'C11 H18 N1 1+,C2 F6 N1 O4 S2 1-'
_chemical_name_systematic        
'N-n-Hexylpyridinium bis(trifluoromethanesulfonyl)amide'
_symmetry_cell_setting           triclinic
_symmetry_space_group_name_H-M   'P -1'
_symmetry_Int_Tables_number      2
_space_group_name_Hall           '-P 1'
loop_
_symmetry_equiv_pos_site_id
_symmetry_equiv_pos_as_xyz
1 x,y,z
2 -x,-y,-z
_cell_length_a                   8.7916(16)
_cell_length_b                   12.911(2)
_cell_length_c                   18.341(3)
_cell_angle_alpha                71.969(3)
_cell_angle_beta                 83.335(2)
_cell_angle_gamma                88.815(2)
_cell_volume                     1965.98
_exptl_crystal_colour            colorless
_exptl_crystal_description       rod
_chemical_melting_point          '269.4 K'
_cell_formula_units_Z            4
_exptl_crystal_recrystallization_method 'from the melt'
loop_
_atom_site_label
_atom_site_type_symbol
_atom_site_fract_x
_atom_site_fract_y
_atom_site_fract_z
C1 C 1.4437(5) 0.2230(4) 0.3553(3)
H1 H 1.549 0.2256 0.3413
C2 C 0.6861(5) 0.5543(4) 0.5557(3)
H2 H 0.578 0.5434 0.5711
H3 H 0.7077 0.6304 0.5303
H4 H 0.7399 0.5299 0.6005
N1 N 1.1344(4) 0.2155(3) 0.3969(2)
C3 C 0.9257(4) 0.2992(4) 0.4614(3)
H5 H 0.9587 0.3707 0.4272
H6 H 0.9792 0.2838 0.5069
C4 C 0.9661(4) 0.2142(4) 0.4208(3)
H7 H 0.9342 0.1426 0.4553
H8 H 0.9118 0.2291 0.3757
C5 C 1.3793(5) 0.1476(4) 0.4228(3)
H9 H 1.4412 0.0987 0.4545
C6 C 1.2246(4) 0.1451(4) 0.4425(3)
H10 H 1.1812 0.0943 0.4879
C7 C 1.1945(5) 0.2887(4) 0.3312(3)
H11 H 1.1302 0.3363 0.3003
C8 C 0.7052(5) 0.3697(4) 0.5368(3)
H12 H 0.596 0.3592 0.5529
H13 H 0.757 0.3441 0.5829
C9 C 0.7380(5) 0.4897(4) 0.5007(3)
H14 H 0.686 0.5163 0.4547
H15 H 0.8472 0.5013 0.4851
C10 C 1.3490(5) 0.2948(4) 0.3088(3)
H16 H 1.3896 0.3462 0.2632
C11 C 0.7534(5) 0.2987(4) 0.4850(3)
H17 H 0.719 0.2244 0.512
H18 H 0.7021 0.3241 0.4388
S1 S -0.04485(10) 0.00338(10) 0.68219(6)
S2 S 0.27474(11) -0.00993(11) 0.67717(7)
O1 O -0.0326(3) 0.0459(3) 0.60003(17)
F1 F -0.1448(3) 0.0836(3) 0.79442(16)
F2 F 0.2455(3) 0.1980(3) 0.60396(17)
O2 O -0.1469(3) -0.0868(3) 0.71890(19)
O3 O 0.3757(3) -0.0662(3) 0.73155(18)
F3 F -0.2674(3) 0.1334(3) 0.69469(18)
F4 F -0.0454(3) 0.2032(3) 0.68960(18)
O4 O 0.2837(3) -0.0308(3) 0.60387(17)
F5 F 0.4770(3) 0.1442(3) 0.6141(2)
F6 F 0.3364(4) 0.1652(3) 0.71270(19)
N2 N 0.1090(4) -0.0135(3) 0.7206(2)
C24 C -0.1310(5) 0.1135(5) 0.7171(3)
C25 C 0.3359(5) 0.1327(5) 0.6513(3)
S3 S -0.10741(11) 0.46350(10) 0.86279(7)
S4 S 0.18057(12) 0.56195(13) 0.79517(8)
F7 F -0.2612(4) 0.2885(3) 0.8780(2)
F8 F 0.2664(3) 0.3607(4) 0.8244(3)
O5 O -0.0483(4) 0.4146(3) 0.93441(19)
F9 F -0.2007(4) 0.3827(3) 0.76046(19)
C12 C 0.2906(6) 0.4543(7) 0.7689(4)
F10 F -0.0297(4) 0.2886(3) 0.8251(2)
O6 O -0.2505(3) 0.5182(3) 0.8635(2)
F11 F 0.4383(3) 0.4785(3) 0.7601(3)
F12 F 0.2497(4) 0.4417(3) 0.70507(19)
N4 N 0.0070(4) 0.5330(4) 0.7937(2)
O7 O 0.2225(3) 0.5569(3) 0.8696(2)
O8 O 0.2211(4) 0.6586(4) 0.7317(2)
C19 C -0.1516(5) 0.3483(5) 0.8297(3)
N3 N 0.2439(3) 0.2827(3) 0.0772(2)
C13 C 0.0392(4) 0.1584(4) 0.0679(3)
H19 H 0.0934 0.0941 0.0944
H20 H 0.0726 0.1766 0.0131
C14 C 0.0778(4) 0.2524(4) 0.0963(3)
H21 H 0.0175 0.315 0.0727
H22 H 0.0511 0.2319 0.1517
C15 C -0.1329(4) 0.1344(4) 0.0826(3)
H23 H -0.1686 0.1309 0.1354
H24 H -0.1845 0.1942 0.0488
C16 C -0.3486(5) 0.0037(4) 0.0865(3)
H25 H -0.3821 0.0027 0.1391
H26 H -0.4017 0.0622 0.0523
C17 C 0.5477(5) 0.3376(4) 0.0408(3)
H27 H 0.651 0.3571 0.0285
C18 C -0.1774(5) 0.0285(4) 0.0696(3)
H28 H -0.1444 0.0328 0.0164
H29 H -0.1237 -0.0311 0.1024
C20 C 0.3435(4) 0.2377(4) 0.1283(3)
H30 H 0.3084 0.1877 0.1757
C21 C 0.4443(4) 0.3815(4) -0.0123(3)
H31 H 0.4779 0.4294 -0.0607
C22 C 0.2924(5) 0.3532(4) 0.0078(3)
H32 H 0.2222 0.3831 -0.027
C23 C 0.4965(4) 0.2653(4) 0.1112(3)
H33 H 0.5646 0.2352 0.147
C26 C -0.3947(6) -0.1035(5) 0.0771(4)
H34 H -0.3605 -0.1039 0.0255
H35 H -0.5041 -0.112 0.0864
H36 H -0.3485 -0.1624 0.1133
loop_
_geom_bond_atom_site_label_1
_geom_bond_atom_site_label_2
_geom_bond_site_symmetry_1
_geom_bond_site_symmetry_2
C1 H1 1_555 1_555
C2 H2 1_555 1_555
H3 C2 1_555 1_555
H4 C2 1_555 1_555
N1 C4 1_555 1_555
S1 O1 1_555 1_555
S2 O3 1_555 1_555
F1 C24 1_555 1_555
F2 C25 1_555 1_555
O2 S1 1_555 1_555
F3 C24 1_555 1_555
F4 C24 1_555 1_555
O4 S2 1_555 1_555
F5 C25 1_555 1_555
F6 C25 1_555 1_555
N2 S1 1_555 1_555
C3 H5 1_555 1_555
H6 C3 1_555 1_555
C4 C3 1_555 1_555
H7 C4 1_555 1_555
H8 C4 1_555 1_555
C5 C1 1_555 1_555
H9 C5 1_555 1_555
C6 N1 1_555 1_555
H10 C6 1_555 1_555
C7 N1 1_555 1_555
H11 C7 1_555 1_555
C8 H12 1_555 1_555
H13 C8 1_555 1_555
C9 C2 1_555 1_555
H14 C9 1_555 1_555
H15 C9 1_555 1_555
C10 C1 1_555 1_555
H16 C10 1_555 1_555
C11 C3 1_555 1_555
H17 C11 1_555 1_555
H18 C11 1_555 1_555
S3 O5 1_555 1_555
S4 C12 1_555 1_555
F7 C19 1_555 1_555
F8 C12 1_555 1_555
F9 C19 1_555 1_555
C12 F11 1_555 1_555
F10 C19 1_555 1_555
N3 C14 1_555 1_555
O6 S3 1_555 1_555
F12 C12 1_555 1_555
N4 S3 1_555 1_555
O7 S4 1_555 1_555
C13 H19 1_555 1_555
H20 C13 1_555 1_555
O8 S4 1_555 1_555
C14 C13 1_555 1_555
H21 C14 1_555 1_555
H22 C14 1_555 1_555
C15 C13 1_555 1_555
H23 C15 1_555 1_555
H24 C15 1_555 1_555
C16 H25 1_555 1_555
H26 C16 1_555 1_555
C17 H27 1_555 1_555
C18 C15 1_555 1_555
H28 C18 1_555 1_555
H29 C18 1_555 1_555
C19 S3 1_555 1_555
C20 N3 1_555 1_555
H30 C20 1_555 1_555
C21 C17 1_555 1_555
H31 C21 1_555 1_555
C22 N3 1_555 1_555
H32 C22 1_555 1_555
C23 C17 1_555 1_555
H33 C23 1_555 1_555
C24 S1 1_555 1_555
C25 S2 1_555 1_555
C26 C16 1_555 1_555
H34 C26 1_555 1_555
H35 C26 1_555 1_555
H36 C26 1_555 1_555
S2 N2 1_555 1_555
C5 C6 1_555 1_555
C7 C10 1_555 1_555
C8 C9 1_555 1_555
C8 C11 1_555 1_555
S4 N4 1_555 1_555
C16 C18 1_555 1_555
C20 C23 1_555 1_555
C21 C22 1_555 1_555

#END
