
#######################################################################
#
#                 Cambridge Crystallographic Data Centre
#                                CCDC 
#
#######################################################################
#
# If this CIF has been generated from an entry in the Cambridge 
# Structural Database, then it will include bibliographic, chemical, 
# crystal, experimental, refinement or atomic coordinate data resulting 
# from the CCDC's data processing and validation procedures.
#
#######################################################################

data_LAZRUA
_chemical_formula_moiety         'C8 H15 N2 1+,C1 F3 O3 S1 1-'
_chemical_name_systematic        
'1-n-Butyl-3-methylimidazolium trifluoromethanesulfonate'
_symmetry_cell_setting           monoclinic
_symmetry_space_group_name_H-M   'P 21/n'
_symmetry_Int_Tables_number      14
_space_group_name_Hall           '-P 2yn'
loop_
_symmetry_equiv_pos_site_id
_symmetry_equiv_pos_as_xyz
1 x,y,z
2 1/2-x,1/2+y,1/2-z
3 -x,-y,-z
4 1/2+x,1/2-y,1/2+z
_cell_length_a                   10.222(3)
_cell_length_b                   12.534(4)
_cell_length_c                   22.541(7)
_cell_angle_alpha                90
_cell_angle_beta                 93.281(11)
_cell_angle_gamma                90
_cell_volume                     2883.28
_exptl_crystal_colour            colorless
_exptl_crystal_description       rod
_chemical_melting_point          '279.7 K'
_cell_formula_units_Z            8
_exptl_crystal_recrystallization_method 'from the melt'
loop_
_atom_site_label
_atom_site_type_symbol
_atom_site_fract_x
_atom_site_fract_y
_atom_site_fract_z
S1 S -0.75699(16) 0.22518(9) 0.67113(5)
O1 O -0.7859(4) 0.1138(3) 0.68003(15)
O2 O -0.8601(4) 0.2987(3) 0.68271(17)
O5 O -0.6306(4) 0.2584(3) 0.69547(16)
F1 F -0.6451(5) 0.1730(3) 0.57298(16)
F2 F -0.8526(5) 0.2028(4) 0.56150(16)
F3 F -0.7189(5) 0.3350(3) 0.57490(16)
C16 C -0.7400(8) 0.2343(5) 0.5911(3)
S2 S -0.23685(15) 0.22627(9) 0.83054(5)
O3 O -0.3442(4) 0.2990(3) 0.81791(17)
O4 O -0.1146(4) 0.2587(3) 0.80704(16)
O6 O -0.2688(4) 0.1147(3) 0.82224(15)
F4 F -0.1054(5) 0.1756(4) 0.92994(17)
F5 F -0.3121(5) 0.2056(4) 0.93894(17)
F6 F -0.1789(5) 0.3373(3) 0.92644(17)
C15 C -0.2035(8) 0.2377(5) 0.9107(3)
N1 N -0.2205(5) 0.2354(3) 0.66912(16)
N2 N -0.3374(5) 0.0925(3) 0.67948(17)
C1 C -0.1385(6) 0.1493(4) 0.6656(2)
H1 H -0.0491 0.1513 0.6599
C2 C -0.3398(6) 0.1988(4) 0.6780(2)
H2 H -0.4136 0.2409 0.6825
C6 C -0.1840(6) 0.3490(4) 0.6649(2)
H6 H -0.1045 0.3616 0.6896
H7 H -0.2529 0.3925 0.6803
C9 C -0.1615(7) 0.3835(4) 0.6008(3)
H13 H -0.1265 0.4555 0.6015
H14 H -0.0961 0.3371 0.5849
C10 C -0.4489(6) 0.0235(4) 0.6913(3)
H15 H -0.4717 0.0328 0.7317
H16 H -0.4256 -0.0496 0.6849
H17 H -0.5225 0.0422 0.665
C12 C -0.2123(7) 0.0612(4) 0.6720(2)
H20 H -0.1826 -0.0089 0.6714
C13 C -0.2821(8) 0.3810(5) 0.5598(3)
H21 H -0.3478 0.4273 0.5755
H22 H -0.317 0.309 0.5587
C18 C -0.2573(10) 0.4165(6) 0.4957(3)
H28 H -0.2096 0.4825 0.4968
H29 H -0.3396 0.4262 0.4737
H30 H -0.2072 0.3628 0.4768
N3 N 0.1830(5) 0.0921(3) 0.82272(17)
N4 N 0.3014(5) 0.2351(3) 0.83310(17)
C3 C 0.1791(6) 0.1985(4) 0.8235(2)
H3 H 0.1041 0.2402 0.8182
C4 C 0.3843(6) 0.1488(4) 0.8383(2)
H4 H 0.4748 0.1513 0.8453
C5 C 0.3109(6) 0.0605(4) 0.8315(2)
H5 H 0.3413 -0.0094 0.8326
C7 C 0.3388(6) 0.3487(4) 0.8378(2)
H8 H 0.2683 0.3919 0.8199
H9 H 0.4159 0.3606 0.8155
C8 C 0.0678(6) 0.0231(4) 0.8108(3)
H10 H 0.0586 -0.0241 0.8439
H11 H 0.0791 -0.0181 0.7756
H12 H -0.0093 0.0664 0.8053
C11 C 0.3675(7) 0.3848(5) 0.9017(3)
H18 H 0.4051 0.4558 0.9014
H19 H 0.4324 0.3374 0.9205
C14 C 0.2471(8) 0.3865(5) 0.9388(3)
H23 H 0.2079 0.3161 0.9381
H24 H 0.1833 0.4357 0.9208
C17 C 0.2779(10) 0.4195(6) 1.0034(3)
H25 H 0.3232 0.3626 1.0243
H26 H 0.1977 0.4346 1.0219
H27 H 0.3321 0.4821 1.0045
loop_
_geom_bond_atom_site_label_1
_geom_bond_atom_site_label_2
_geom_bond_site_symmetry_1
_geom_bond_site_symmetry_2
S1 O1 1_555 1_555
S2 O3 1_555 1_555
O2 S1 1_555 1_555
O4 S2 1_555 1_555
O5 S1 1_555 1_555
N1 C1 1_555 1_555
O6 S2 1_555 1_555
N2 C2 1_555 1_555
N3 C3 1_555 1_555
F1 C16 1_555 1_555
N4 C3 1_555 1_555
F2 C16 1_555 1_555
F3 C16 1_555 1_555
F4 C15 1_555 1_555
F5 C15 1_555 1_555
F6 C15 1_555 1_555
C1 H1 1_555 1_555
C2 N1 1_555 1_555
H2 C2 1_555 1_555
C3 H3 1_555 1_555
C4 N4 1_555 1_555
H4 C4 1_555 1_555
C5 N3 1_555 1_555
H5 C5 1_555 1_555
C6 N1 1_555 1_555
H6 C6 1_555 1_555
H7 C6 1_555 1_555
C7 N4 1_555 1_555
H8 C7 1_555 1_555
H9 C7 1_555 1_555
C8 N3 1_555 1_555
H10 C8 1_555 1_555
H11 C8 1_555 1_555
H12 C8 1_555 1_555
C9 C6 1_555 1_555
H13 C9 1_555 1_555
H14 C9 1_555 1_555
C10 N2 1_555 1_555
H15 C10 1_555 1_555
H16 C10 1_555 1_555
H17 C10 1_555 1_555
C11 C7 1_555 1_555
H18 C11 1_555 1_555
H19 C11 1_555 1_555
C12 N2 1_555 1_555
H20 C12 1_555 1_555
C13 C9 1_555 1_555
H21 C13 1_555 1_555
H22 C13 1_555 1_555
C14 C11 1_555 1_555
H23 C14 1_555 1_555
H24 C14 1_555 1_555
C15 S2 1_555 1_555
C16 S1 1_555 1_555
C17 C14 1_555 1_555
H25 C17 1_555 1_555
H26 C17 1_555 1_555
H27 C17 1_555 1_555
C18 C13 1_555 1_555
H28 C18 1_555 1_555
H29 C18 1_555 1_555
H30 C18 1_555 1_555
C1 C12 1_555 1_555
C4 C5 1_555 1_555

#END
