
#######################################################################
#
#                 Cambridge Crystallographic Data Centre
#                                CCDC 
#
#######################################################################
#
# If this CIF has been generated from an entry in the Cambridge 
# Structural Database, then it will include bibliographic, chemical, 
# crystal, experimental, refinement or atomic coordinate data resulting 
# from the CCDC's data processing and validation procedures.
#
#######################################################################

data_LAZXUI
_chemical_formula_moiety         'C14 H12 Br1 F2 N1 O3'
_chemical_name_systematic        
"ethyl 5'-bromo-3-(difluoromethyl)-2'-oxo-1',2'-dihydrospiro[cyclopropane-1,3'-indole]-2-carboxylate"
_symmetry_cell_setting           triclinic
_symmetry_space_group_name_H-M   'P -1'
_symmetry_Int_Tables_number      2
_space_group_name_Hall           '-P 1'
loop_
_symmetry_equiv_pos_site_id
_symmetry_equiv_pos_as_xyz
1 x,y,z
2 -x,-y,-z
_cell_length_a                   7.0868(7)
_cell_length_b                   8.6306(8)
_cell_length_c                   12.6833(13)
_cell_angle_alpha                108.453(9)
_cell_angle_beta                 94.119(8)
_cell_angle_gamma                105.314(8)
_cell_volume                     699.422
_exptl_crystal_colour            colorless
_exptl_crystal_description       block
_cell_formula_units_Z            2
loop_
_atom_site_label
_atom_site_type_symbol
_atom_site_fract_x
_atom_site_fract_y
_atom_site_fract_z
Br1 Br 1.00964(10) 0.76360(9) 0.80154(6)
F1 F -0.0814(6) 0.1380(6) 0.4964(4)
F2 F -0.0508(7) 0.4045(6) 0.5896(4)
O1 O 0.3793(7) -0.0193(6) 0.7331(4)
O2 O -0.0558(7) 0.3167(6) 0.8566(4)
O3 O 0.5213(7) 0.1595(6) 0.6447(4)
N1 N 0.2248(8) 0.5436(7) 0.9492(5)
H1 H 0.180637 0.589137 1.009166
C1 C 0.6218(9) 0.5430(8) 0.7874(5)
H2 H 0.642645 0.474488 0.718971
C2 C 0.1176(9) 0.4016(8) 0.8626(5)
C3 C 0.4149(9) 0.6070(8) 0.9295(5)
C4 C 0.1723(9) 0.2827(8) 0.6509(5)
H3 H 0.269512 0.310535 0.603343
C5 C 0.3893(9) 0.1052(8) 0.6907(5)
C6 C 0.2518(9) 0.3633(8) 0.7761(5)
C7 C 0.2150(9) 0.1713(8) 0.7109(5)
H4 H 0.098668 0.093148 0.724094
C8 C 0.7692(10) 0.6911(9) 0.8554(6)
C9 C 0.5642(10) 0.7552(9) 0.9967(6)
H5 H 0.544681 0.824421 1.065250
C10 C 0.4428(9) 0.5007(8) 0.8251(5)
C11 C -0.0368(10) 0.2584(9) 0.6029(6)
H6 H -0.129138 0.223003 0.650790
C12 C 0.7435(10) 0.7967(9) 0.9580(6)
H7 H 0.845712 0.894766 1.000870
C13 C 0.5418(11) -0.0965(10) 0.7220(6)
H8 H 0.552399 -0.145105 0.780623
H9 H 0.666293 -0.009028 0.730937
C14 C 0.5032(13) -0.2340(11) 0.6085(7)
H10 H 0.505850 -0.183634 0.550910
H11 H 0.375322 -0.315804 0.597641
H12 H 0.603757 -0.290526 0.604318
loop_
_geom_bond_atom_site_label_1
_geom_bond_atom_site_label_2
_geom_bond_site_symmetry_1
_geom_bond_site_symmetry_2
Br1 C8 1_555 1_555
F1 C11 1_555 1_555
F2 C11 1_555 1_555
O1 C5 1_555 1_555
O2 C2 1_555 1_555
O3 C5 1_555 1_555
N1 H1 1_555 1_555
C1 H2 1_555 1_555
C2 N1 1_555 1_555
C3 N1 1_555 1_555
C4 H3 1_555 1_555
C5 C7 1_555 1_555
C6 C2 1_555 1_555
C7 C4 1_555 1_555
H4 C7 1_555 1_555
C8 C1 1_555 1_555
C9 C3 1_555 1_555
H5 C9 1_555 1_555
C10 C1 1_555 1_555
C11 C4 1_555 1_555
H6 C11 1_555 1_555
C12 C8 1_555 1_555
H7 C12 1_555 1_555
C13 O1 1_555 1_555
H8 C13 1_555 1_555
H9 C13 1_555 1_555
C14 C13 1_555 1_555
H10 C14 1_555 1_555
H11 C14 1_555 1_555
H12 C14 1_555 1_555
C3 C10 1_555 1_555
C4 C6 1_555 1_555
C6 C7 1_555 1_555
C6 C10 1_555 1_555
C9 C12 1_555 1_555

#END
