
#######################################################################
#
#                 Cambridge Crystallographic Data Centre
#                                CCDC 
#
#######################################################################
#
# If this CIF has been generated from an entry in the Cambridge 
# Structural Database, then it will include bibliographic, chemical, 
# crystal, experimental, refinement or atomic coordinate data resulting 
# from the CCDC's data processing and validation procedures.
#
#######################################################################

data_LEBBUR
_chemical_formula_moiety         'C42 H56 N2 O12,C12 H14 N2 2+,2(Cl1 1-)'
_chemical_name_systematic        
"1,1'-Dimethyl-4,4'-bipyridinium dichloride 24,27,30,33,36,39,42,45,48,51-decaoxa-7,15-diazapentacyclo[19.17.13.1^3,37^.1^9,13^.1^19,23^]tetrapentaconta-1,3(52),9(54),10,12,19(53),20,22,37-nonaene-8,14-dione"
_symmetry_cell_setting           monoclinic
_symmetry_space_group_name_H-M   'P 21/c'
_symmetry_Int_Tables_number      14
_space_group_name_Hall           '-P 2ybc'
loop_
_symmetry_equiv_pos_site_id
_symmetry_equiv_pos_as_xyz
1 x,y,z
2 -x,1/2+y,1/2-z
3 -x,-y,-z
4 x,1/2-y,1/2+z
_cell_length_a                   10.972(2)
_cell_length_b                   26.511(5)
_cell_length_c                   21.676(4)
_cell_angle_alpha                90
_cell_angle_beta                 103.90(3)
_cell_angle_gamma                90
_cell_volume                     6120.45
_exptl_crystal_colour            yellow
_exptl_crystal_description       block
_cell_formula_units_Z            4
loop_
_atom_site_label
_atom_site_type_symbol
_atom_site_fract_x
_atom_site_fract_y
_atom_site_fract_z
O1 O 0.3773(2) 0.89627(9) 0.28223(12)
O2 O 1.0118(2) 0.90264(9) 0.19013(13)
O3 O 0.4265(2) 0.96203(9) 0.38395(12)
O4 O 1.0701(2) 0.59613(10) 0.35876(15)
O5 O 0.4097(2) 0.54679(9) 0.25042(13)
O6 O 0.7080(2) 0.93991(10) -0.03938(13)
O7 O 0.4655(2) 0.91545(10) -0.02610(12)
O8 O 0.9763(2) 0.96401(9) 0.39120(13)
O9 O 0.8145(2) 1.05141(10) 0.40850(14)
O10 O 0.3430(2) 0.88104(10) 0.06557(12)
O11 O 0.9253(2) 0.90881(11) 0.05700(13)
N1 N 0.9378(3) 0.66075(10) 0.35702(15)
H1 H 0.8610 0.6706 0.3493
O12 O 0.5741(2) 1.04806(9) 0.43263(12)
N2 N 0.4649(3) 0.62799(10) 0.26669(14)
H2 H 0.5242 0.6499 0.2766
C1 C 0.6290(3) 0.56332(12) 0.27971(16)
C2 C 0.7268(3) 0.59526(12) 0.30830(16)
H3 H 0.7092 0.6277 0.3201
C3 C 0.3898(3) 0.87706(13) 0.34509(17)
H4 H 0.4761 0.8673 0.3634
H5 H 0.3366 0.8477 0.3442
C4 C 1.0618(3) 0.83972(13) 0.34651(19)
C5 C 0.3738(3) 0.86307(13) 0.23311(17)
C6 C 1.0008(3) 0.92687(13) 0.35232(19)
C7 C 0.8515(3) 0.57898(12) 0.31951(16)
C8 C 0.3628(3) 0.88526(13) 0.17426(17)
H6 H 0.3618 0.9202 0.1703
C9 C 0.4929(3) 0.57889(12) 0.26501(16)
C10 C 0.9923(3) 0.93290(13) 0.28801(18)
H7 H 0.9685 0.9638 0.2684
C11 C 0.3533(3) 0.85497(13) 0.12134(17)
C12 C 1.0198(3) 0.89193(13) 0.25274(19)
C13 C 0.8762(3) 0.52955(13) 0.30383(18)
H8 H 0.9586 0.5180 0.3122
C14 C 1.0543(3) 0.84549(14) 0.2812(2)
H9 H 1.0722 0.8185 0.2574
C15 C 0.7790(3) 0.49777(13) 0.27604(19)
H10 H 0.7964 0.4650 0.2653
C16 C 0.3341(3) 0.64444(12) 0.25177(18)
H11 H 0.2946 0.6330 0.2848
H12 H 0.2896 0.6294 0.2119
C17 C 0.9618(3) 0.61275(13) 0.34683(17)
C18 C 0.3679(3) 0.78059(13) 0.18620(17)
C19 C 0.3512(3) 0.91821(13) 0.38352(19)
H13 H 0.2637 0.9266 0.3658
H14 H 0.3595 0.9066 0.4268
C20 C 0.6558(3) 0.51419(13) 0.26405(18)
H15 H 0.5908 0.4924 0.2455
C21 C 0.7744(4) 1.08629(14) 0.4493(2)
H16 H 0.8183 1.1181 0.4497
H17 H 0.7924 1.0732 0.4923
C22 C 0.3244(3) 0.70189(13) 0.24652(18)
H18 H 0.2371 0.7116 0.2403
H19 H 0.3706 0.7166 0.2863
C23 C 0.9993(4) 0.74909(13) 0.3541(2)
H20 H 0.9230 0.7591 0.3660
H21 H 0.9808 0.7475 0.3081
C24 C 0.3786(3) 0.81079(13) 0.24035(17)
H22 H 0.3886 0.7962 0.2803
C25 C 0.4854(4) 0.94362(17) -0.07824(19)
H23 H 0.4150 0.9662 -0.0936
H24 H 0.4912 0.9209 -0.1125
C26 C 1.0306(4) 0.86235(15) 0.1489(2)
H25 H 0.9609 0.8388 0.1424
H26 H 1.1071 0.8442 0.1680
C27 C 0.9295(4) 0.92823(17) -0.0036(2)
H27 H 0.9207 0.9009 -0.0340
H28 H 1.0097 0.9445 -0.0010
C28 C 0.3800(3) 1.00300(13) 0.41431(19)
H29 H 0.3957 0.9965 0.4596
H30 H 0.2900 1.0061 0.3975
C29 C 1.0376(4) 0.69728(14) 0.3808(2)
H31 H 1.1134 0.6868 0.3688
H32 H 1.0554 0.6985 0.4269
C30 C 1.1003(4) 0.78912(14) 0.3774(2)
H33 H 1.1151 0.7925 0.4231
H34 H 1.1781 0.7784 0.3677
C31 C 0.3430(4) 0.85242(16) 0.00959(19)
H35 H 0.2672 0.8323 -0.0024
H36 H 0.4148 0.8299 0.0174
C32 C 1.0358(3) 0.87998(14) 0.38185(19)
H37 H 1.0414 0.8761 0.4251
C33 C 0.6363(4) 1.09408(13) 0.4251(2)
H38 H 0.6079 1.1209 0.4487
H39 H 0.6174 1.1036 0.3806
C34 C 1.0395(4) 0.88411(16) 0.0878(2)
H40 H 1.1081 0.9082 0.0949
H41 H 1.0576 0.8576 0.0605
C35 C 0.9766(4) 1.01521(14) 0.3687(2)
H42 H 0.9147 1.0189 0.3286
H43 H 1.0585 1.0234 0.3617
C36 C 0.3538(3) 0.80266(14) 0.12681(18)
H44 H 0.3447 0.7826 0.0908
C37 C 0.3750(4) 0.72364(13) 0.19230(19)
H45 H 0.4620 0.7134 0.1984
H46 H 0.3283 0.7089 0.1527
C38 C 0.8252(4) 0.96560(16) -0.0251(2)
H47 H 0.8268 0.9903 0.0080
H48 H 0.8364 0.9832 -0.0626
C39 C 0.4436(3) 1.05133(14) 0.40313(19)
H49 H 0.4318 1.0569 0.3579
H50 H 0.4068 1.0795 0.4207
C40 C 0.3494(4) 0.88903(18) -0.04292(19)
H51 H 0.3431 0.8709 -0.0824
H52 H 0.2802 0.9127 -0.0490
C41 C 0.9465(4) 1.05001(15) 0.4170(2)
H53 H 0.9861 1.0382 0.4594
H54 H 0.9780 1.0836 0.4118
C42 C 0.6044(4) 0.97372(16) -0.0584(2)
H55 H 0.6155 0.9944 -0.0936
H56 H 0.5998 0.9958 -0.0234
N3 N 0.6779(3) 0.83919(11) 0.07794(15)
C43 C 0.6854(3) 0.86962(12) 0.20046(17)
C44 C 0.6917(3) 0.88606(12) 0.26619(17)
C45 C 0.6640(3) 0.93601(12) 0.27921(18)
H57 H 0.6385 0.9587 0.2458
N4 N 0.7107(3) 0.91913(11) 0.38893(15)
C46 C 0.6961(3) 0.90445(13) 0.15395(18)
H58 H 0.7074 0.9385 0.1643
C47 C 0.7261(3) 0.85311(13) 0.31783(18)
H59 H 0.7422 0.8194 0.3111
C48 C 0.6739(3) 0.95193(13) 0.34055(17)
H60 H 0.6552 0.9851 0.3486
C49 C 0.6684(3) 0.80472(14) 0.12213(19)
H61 H 0.6597 0.7708 0.1110
C50 C 0.6902(3) 0.88875(13) 0.09288(19)
H62 H 0.6945 0.9123 0.0617
C51 C 0.7361(3) 0.87057(14) 0.37831(19)
H63 H 0.7608 0.8486 0.4125
C52 C 0.6808(4) 0.82332(15) 0.01271(19)
H64 H 0.6868 0.8526 -0.0125
H65 H 0.6054 0.8052 -0.0061
H66 H 0.7522 0.8019 0.0145
C53 C 0.7228(4) 0.93664(15) 0.45514(18)
H67 H 0.7499 0.9091 0.4840
H68 H 0.6430 0.9487 0.4598
H69 H 0.7834 0.9634 0.4646
C54 C 0.6713(3) 0.81878(13) 0.18302(19)
H70 H 0.6638 0.7945 0.2129
Cl1 Cl 0.65842(12) 0.72186(4) 0.32922(10)
Cl2 Cl 0.5965(3) 0.68657(7) 0.02227(10)
Cl3? Cl 0.7063(9) 0.6846(2) 0.0201(3)
Cl4? Cl 0.4864(17) 0.7098(5) 0.0273(7)
loop_
_geom_bond_atom_site_label_1
_geom_bond_atom_site_label_2
_geom_bond_site_symmetry_1
_geom_bond_site_symmetry_2
O1 C3 1_555 1_555
O2 C12 1_555 1_555
O3 C19 1_555 1_555
O4 C17 1_555 1_555
O5 C9 1_555 1_555
O6 C38 1_555 1_555
O7 C25 1_555 1_555
O8 C6 1_555 1_555
O9 C21 1_555 1_555
O10 C11 1_555 1_555
O11 C27 1_555 1_555
N1 H1 1_555 1_555
O12 C33 1_555 1_555
N2 H2 1_555 1_555
C1 C2 1_555 1_555
C2 H3 1_555 1_555
C3 H4 1_555 1_555
H5 C3 1_555 1_555
C4 C14 1_555 1_555
C5 O1 1_555 1_555
C6 C10 1_555 1_555
C7 C2 1_555 1_555
C8 C5 1_555 1_555
H6 C8 1_555 1_555
C9 N2 1_555 1_555
C10 H7 1_555 1_555
C11 C8 1_555 1_555
C12 C10 1_555 1_555
C13 C7 1_555 1_555
H8 C13 1_555 1_555
C14 C12 1_555 1_555
H9 C14 1_555 1_555
C15 C13 1_555 1_555
H10 C15 1_555 1_555
C16 N2 1_555 1_555
H11 C16 1_555 1_555
H12 C16 1_555 1_555
C17 N1 1_555 1_555
C18 C24 1_555 1_555
C19 C3 1_555 1_555
H13 C19 1_555 1_555
H14 C19 1_555 1_555
C20 C1 1_555 1_555
H15 C20 1_555 1_555
C21 H16 1_555 1_555
H17 C21 1_555 1_555
C22 C16 1_555 1_555
H18 C22 1_555 1_555
H19 C22 1_555 1_555
C23 H20 1_555 1_555
H21 C23 1_555 1_555
C24 C5 1_555 1_555
H22 C24 1_555 1_555
C25 H23 1_555 1_555
H24 C25 1_555 1_555
C26 O2 1_555 1_555
H25 C26 1_555 1_555
H26 C26 1_555 1_555
C27 H27 1_555 1_555
H28 C27 1_555 1_555
C28 O3 1_555 1_555
H29 C28 1_555 1_555
H30 C28 1_555 1_555
C29 N1 1_555 1_555
H31 C29 1_555 1_555
H32 C29 1_555 1_555
C30 C4 1_555 1_555
H33 C30 1_555 1_555
H34 C30 1_555 1_555
C31 O10 1_555 1_555
H35 C31 1_555 1_555
H36 C31 1_555 1_555
C32 C4 1_555 1_555
H37 C32 1_555 1_555
C33 C21 1_555 1_555
H38 C33 1_555 1_555
H39 C33 1_555 1_555
C34 O11 1_555 1_555
H40 C34 1_555 1_555
H41 C34 1_555 1_555
C35 O8 1_555 1_555
H42 C35 1_555 1_555
H43 C35 1_555 1_555
C36 C11 1_555 1_555
H44 C36 1_555 1_555
C37 C18 1_555 1_555
H45 C37 1_555 1_555
H46 C37 1_555 1_555
C38 C27 1_555 1_555
H47 C38 1_555 1_555
H48 C38 1_555 1_555
C39 O12 1_555 1_555
H49 C39 1_555 1_555
H50 C39 1_555 1_555
C40 O7 1_555 1_555
H51 C40 1_555 1_555
H52 C40 1_555 1_555
C41 O9 1_555 1_555
H53 C41 1_555 1_555
H54 C41 1_555 1_555
C42 O6 1_555 1_555
H55 C42 1_555 1_555
H56 C42 1_555 1_555
N3 C49 1_555 1_555
C43 C44 1_555 1_555
C44 C45 1_555 1_555
C45 H57 1_555 1_555
N4 C48 1_555 1_555
C46 C43 1_555 1_555
H58 C46 1_555 1_555
C47 C44 1_555 1_555
H59 C47 1_555 1_555
C48 C45 1_555 1_555
H60 C48 1_555 1_555
C49 H61 1_555 1_555
C50 N3 1_555 1_555
H62 C50 1_555 1_555
C51 N4 1_555 1_555
H63 C51 1_555 1_555
C52 N3 1_555 1_555
H64 C52 1_555 1_555
H65 C52 1_555 1_555
H66 C52 1_555 1_555
C53 N4 1_555 1_555
H67 C53 1_555 1_555
H68 C53 1_555 1_555
H69 C53 1_555 1_555
C54 C43 1_555 1_555
H70 C54 1_555 1_555
C1 C9 1_555 1_555
C6 C32 1_555 1_555
C7 C17 1_555 1_555
C15 C20 1_555 1_555
C18 C36 1_555 1_555
C22 C37 1_555 1_555
C23 C29 1_555 1_555
C23 C30 1_555 1_555
C25 C42 1_555 1_555
C26 C34 1_555 1_555
C28 C39 1_555 1_555
C31 C40 1_555 1_555
C35 C41 1_555 1_555
C46 C50 1_555 1_555
C47 C51 1_555 1_555
C49 C54 1_555 1_555

#END
