
#######################################################################
#
#                 Cambridge Crystallographic Data Centre
#                                CCDC 
#
#######################################################################
#
# If this CIF has been generated from an entry in the Cambridge 
# Structural Database, then it will include bibliographic, chemical, 
# crystal, experimental, refinement or atomic coordinate data resulting 
# from the CCDC's data processing and validation procedures.
#
#######################################################################

data_LEBBUQ
_chemical_formula_moiety         'C28 H26 N4 S2'
_chemical_name_systematic        
1,4-bis(3-(2-(Methylthio)phenyl)pyrazolylmethyl)benzene
_symmetry_cell_setting           orthorhombic
_symmetry_space_group_name_H-M   'P b c n'
_symmetry_Int_Tables_number      60
_space_group_name_Hall           '-P 2n 2ab'
loop_
_symmetry_equiv_pos_site_id
_symmetry_equiv_pos_as_xyz
1 x,y,z
2 1/2-x,1/2-y,1/2+z
3 -x,y,1/2-z
4 1/2+x,1/2-y,-z
5 -x,-y,-z
6 1/2+x,1/2+y,1/2-z
7 x,-y,1/2+z
8 1/2-x,1/2+y,z
_cell_length_a                   30.251(5)
_cell_length_b                   8.8015(14)
_cell_length_c                   9.2578(15)
_cell_angle_alpha                90
_cell_angle_beta                 90
_cell_angle_gamma                90
_cell_volume                     2464.93
_exptl_crystal_colour            colorless
_exptl_crystal_description       block
_cell_formula_units_Z            4
_exptl_crystal_recrystallization_method acetonitrile
loop_
_atom_site_label
_atom_site_type_symbol
_atom_site_fract_x
_atom_site_fract_y
_atom_site_fract_z
S1 S 0.094215(14) 0.09025(5) 0.87837(4)
N1 N 0.11850(4) 0.48995(14) 0.66716(13)
N2 N 0.12518(4) 0.34876(13) 0.72032(12)
C1 C 0.03805(5) 0.52121(17) 0.66337(15)
C2 C 0.01869(5) 0.38659(18) 0.70722(18)
H1 H 0.0313 0.2926 0.6780
C3 C 0.01875(5) 0.65587(18) 0.70690(18)
H2 H 0.0313 0.7498 0.6774
C4 C 0.08002(5) 0.51904(18) 0.57490(16)
H3 H 0.0779 0.4389 0.5001
H4 H 0.0837 0.6180 0.5254
C5 C 0.14579(5) 0.59230(17) 0.72703(17)
H5 H 0.1467 0.6981 0.7068
C6 C 0.17201(5) 0.51596(19) 0.82232(18)
H6 H 0.1949 0.5569 0.8809
C7 C 0.15806(5) 0.36381(16) 0.81565(14)
C8 C 0.17460(4) 0.23717(16) 0.90509(14)
C9 C 0.21714(5) 0.25080(18) 0.96267(16)
H7 H 0.2352 0.3334 0.9330
C10 C 0.23376(6) 0.1478(2) 1.06143(18)
H8 H 0.2626 0.1608 1.1003
C11 C 0.20817(6) 0.0266(2) 1.10266(19)
H9 H 0.2191 -0.0436 1.1720
C12 C 0.16663(6) 0.00570(19) 1.04430(18)
H10 H 0.1498 -0.0809 1.0713
C13 C 0.14882(5) 0.10998(16) 0.94587(15)
C14 C 0.07324(8) -0.0722(2) 0.9726(2)
H11 H 0.0915 -0.1611 0.9499
H12 H 0.0427 -0.0912 0.9427
H13 H 0.0741 -0.0531 1.0769
S1B S -0.094215(14) 0.09025(5) 0.62163(4)
N1B N -0.11850(4) 0.48995(14) 0.83284(13)
N2B N -0.12518(4) 0.34876(13) 0.77968(12)
C1B C -0.03805(5) 0.52121(17) 0.83663(15)
C2B C -0.01869(5) 0.38659(18) 0.79278(18)
H1B H -0.0313 0.2926 0.8220
C3B C -0.01875(5) 0.65587(18) 0.79310(18)
H2B H -0.0313 0.7498 0.8226
C4B C -0.08002(5) 0.51904(18) 0.92510(16)
H3B H -0.0779 0.4389 0.9999
H4B H -0.0837 0.6180 0.9746
C5B C -0.14579(5) 0.59230(17) 0.77297(17)
H5B H -0.1467 0.6981 0.7932
C6B C -0.17201(5) 0.51596(19) 0.67768(18)
H6B H -0.1949 0.5569 0.6191
C7B C -0.15806(5) 0.36381(16) 0.68435(14)
C8B C -0.17460(4) 0.23717(16) 0.59491(14)
C9B C -0.21714(5) 0.25080(18) 0.53733(16)
H7B H -0.2352 0.3334 0.5670
C10B C -0.23376(6) 0.1478(2) 0.43857(18)
H8B H -0.2626 0.1608 0.3997
C11B C -0.20817(6) 0.0266(2) 0.39734(19)
H9B H -0.2191 -0.0436 0.3280
C12B C -0.16663(6) 0.00570(19) 0.45570(18)
H10B H -0.1498 -0.0809 0.4287
C13B C -0.14882(5) 0.10998(16) 0.55413(15)
C14B C -0.07324(8) -0.0722(2) 0.5274(2)
H11B H -0.0915 -0.1611 0.5501
H12B H -0.0427 -0.0912 0.5573
H13B H -0.0741 -0.0531 0.4231
loop_
_geom_bond_atom_site_label_1
_geom_bond_atom_site_label_2
_geom_bond_site_symmetry_1
_geom_bond_site_symmetry_2
S1 C13 1_555 1_555
N1 N2 1_555 1_555
N2 C7 1_555 1_555
C1 C2 1_555 1_555
C2 H1 1_555 1_555
C3 C1 1_555 1_555
H2 C3 1_555 1_555
C4 N1 1_555 1_555
H3 C4 1_555 1_555
H4 C4 1_555 1_555
C5 N1 1_555 1_555
H5 C5 1_555 1_555
C6 C5 1_555 1_555
H6 C6 1_555 1_555
C7 C6 1_555 1_555
C8 C7 1_555 1_555
C9 C8 1_555 1_555
H7 C9 1_555 1_555
C10 C9 1_555 1_555
H8 C10 1_555 1_555
C11 C10 1_555 1_555
H9 C11 1_555 1_555
C12 C11 1_555 1_555
H10 C12 1_555 1_555
C13 C8 1_555 1_555
C14 S1 1_555 1_555
H11 C14 1_555 1_555
H12 C14 1_555 1_555
H13 C14 1_555 1_555
S1B C13B 1_555 1_555
N1B N2B 1_555 1_555
N2B C7B 1_555 1_555
C1B C2B 1_555 1_555
C2B C2 1_555 1_555
H1B C2B 1_555 1_555
C3B C3 1_555 1_555
H2B C3B 1_555 1_555
C4B N1B 1_555 1_555
H3B C4B 1_555 1_555
H4B C4B 1_555 1_555
C5B N1B 1_555 1_555
H5B C5B 1_555 1_555
C6B C5B 1_555 1_555
H6B C6B 1_555 1_555
C7B C6B 1_555 1_555
C8B C7B 1_555 1_555
C9B C8B 1_555 1_555
H7B C9B 1_555 1_555
C10B C9B 1_555 1_555
H8B C10B 1_555 1_555
C11B C10B 1_555 1_555
H9B C11B 1_555 1_555
C12B C11B 1_555 1_555
H10B C12B 1_555 1_555
C13B C8B 1_555 1_555
C14B S1B 1_555 1_555
H11B C14B 1_555 1_555
H12B C14B 1_555 1_555
H13B C14B 1_555 1_555
C1 C4 1_555 1_555
C12 C13 1_555 1_555
C1B C3B 1_555 1_555
C1B C4B 1_555 1_555
C12B C13B 1_555 1_555

#END
