
#######################################################################
#
#                 Cambridge Crystallographic Data Centre
#                                CCDC 
#
#######################################################################
#
# If this CIF has been generated from an entry in the Cambridge 
# Structural Database, then it will include bibliographic, chemical, 
# crystal, experimental, refinement or atomic coordinate data resulting 
# from the CCDC's data processing and validation procedures.
#
#######################################################################

data_LEBNOW
_chemical_formula_moiety         'C14 H21 N1 O8 S1'
_chemical_name_systematic        
'O-Ethyl N-(2,3,4-tri-O-acetyl-\b-D-xylopyranosyl)thiocarbamate'
_symmetry_cell_setting           orthorhombic
_symmetry_space_group_name_H-M   'P 21 21 21'
_symmetry_Int_Tables_number      19
_space_group_name_Hall           'P 2ac 2ab'
loop_
_symmetry_equiv_pos_site_id
_symmetry_equiv_pos_as_xyz
1 x,y,z
2 1/2-x,-y,1/2+z
3 -x,1/2+y,1/2-z
4 1/2+x,1/2-y,-z
_cell_length_a                   9.0636(18)
_cell_length_b                   9.4716(19)
_cell_length_c                   21.855(4)
_cell_angle_alpha                90
_cell_angle_beta                 90
_cell_angle_gamma                90
_cell_volume                     1876.18
_chemical_melting_point          '431.9-433.4 K'
_cell_formula_units_Z            4
loop_
_atom_site_label
_atom_site_type_symbol
_atom_site_fract_x
_atom_site_fract_y
_atom_site_fract_z
S1 S 0.29688(15) 0.74934(16) 0.22571(7)
N1 N 0.5095(5) 0.5542(5) 0.23090(18)
H1 H 0.5592 0.4961 0.2530
O1 O 0.5021(4) 0.4616(4) 0.13339(17)
O2 O 0.3673(4) 0.5596(4) 0.30975(16)
O3 O 0.7759(4) 0.7052(4) 0.19596(16)
O4 O 0.8735(5) 0.5789(4) 0.2718(2)
O5 O 0.9346(4) 0.5699(4) 0.09841(17)
O6 O 0.9635(5) 0.7408(7) 0.0303(3)
O7 O 0.7357(5) 0.4982(5) -0.00153(17)
O8 O 0.8146(19) 0.2894(10) -0.0150(3)
C1 C 0.5570(5) 0.5752(6) 0.1690(2)
H2 H 0.5164 0.6642 0.1535
C2 C 0.7264(5) 0.5801(5) 0.1656(2)
H3 H 0.7687 0.4963 0.1852
C3 C 0.7763(5) 0.5888(5) 0.0996(2)
H4 H 0.7508 0.6815 0.0826
C4 C 0.7050(6) 0.4731(6) 0.0615(2)
H5 H 0.7434 0.3806 0.0737
C5 C 0.5374(6) 0.4787(7) 0.0715(3)
H6 H 0.4998 0.5688 0.0572
H7 H 0.4905 0.4047 0.0478
C6 C 0.3938(5) 0.6179(5) 0.2570(2)
C7 C 0.2432(10) 0.6121(8) 0.3474(3)
H8 H 0.2572 0.7113 0.3568
H9 H 0.1510 0.6018 0.3253
C8 C 0.2392(16) 0.5305(11) 0.4030(4)
H10 H 0.1586 0.5619 0.4280
H11 H 0.3302 0.5427 0.4248
H12 H 0.2261 0.4325 0.3932
C9 C 0.8456(6) 0.6906(6) 0.2504(2)
C10 C 0.8788(8) 0.8293(7) 0.2784(3)
H13 H 0.9283 0.8154 0.3167
H14 H 0.7885 0.8799 0.2851
H15 H 0.9411 0.8827 0.2514
C11 C 1.0154(6) 0.6531(8) 0.0623(3)
C12 C 1.1763(6) 0.6138(10) 0.0645(3)
H16 H 1.2314 0.6763 0.0386
H17 H 1.1884 0.5184 0.0506
H18 H 1.2115 0.6217 0.1058
C13 C 0.7850(11) 0.3971(11) -0.0356(4)
C14 C 0.8131(12) 0.4382(14) -0.1007(4)
H19 H 0.8499 0.3581 -0.1229
H20 H 0.8847 0.5129 -0.1019
H21 H 0.7228 0.4700 -0.1190
loop_
_geom_bond_atom_site_label_1
_geom_bond_atom_site_label_2
_geom_bond_site_symmetry_1
_geom_bond_site_symmetry_2
S1 C6 1_555 1_555
N1 H1 1_555 1_555
O1 C1 1_555 1_555
O2 C6 1_555 1_555
O3 C2 1_555 1_555
O4 C9 1_555 1_555
O5 C3 1_555 1_555
O6 C11 1_555 1_555
O7 C4 1_555 1_555
O8 C13 1_555 1_555
C1 N1 1_555 1_555
H2 C1 1_555 1_555
C2 C1 1_555 1_555
H3 C2 1_555 1_555
C3 C2 1_555 1_555
H4 C3 1_555 1_555
C4 C3 1_555 1_555
H5 C4 1_555 1_555
C5 O1 1_555 1_555
H6 C5 1_555 1_555
H7 C5 1_555 1_555
C6 N1 1_555 1_555
C7 O2 1_555 1_555
H8 C7 1_555 1_555
H9 C7 1_555 1_555
C8 C7 1_555 1_555
H10 C8 1_555 1_555
H11 C8 1_555 1_555
H12 C8 1_555 1_555
C9 O3 1_555 1_555
C10 C9 1_555 1_555
H13 C10 1_555 1_555
H14 C10 1_555 1_555
H15 C10 1_555 1_555
C11 O5 1_555 1_555
C12 C11 1_555 1_555
H16 C12 1_555 1_555
H17 C12 1_555 1_555
H18 C12 1_555 1_555
C13 O7 1_555 1_555
C14 C13 1_555 1_555
H19 C14 1_555 1_555
H20 C14 1_555 1_555
H21 C14 1_555 1_555
C4 C5 1_555 1_555

#END
