
#######################################################################
#
#                 Cambridge Crystallographic Data Centre
#                                CCDC 
#
#######################################################################
#
# If this CIF has been generated from an entry in the Cambridge 
# Structural Database, then it will include bibliographic, chemical, 
# crystal, experimental, refinement or atomic coordinate data resulting 
# from the CCDC's data processing and validation procedures.
#
#######################################################################

data_LEBPUF
_chemical_formula_moiety         'C29 H36 O8 S1 Si1'
_chemical_name_systematic        
'4-(((t-Butyl(dimethyl)silyl)oxy)methyl)-3-(phenylsulfonyl)-7-oxabicyclo[2.2.1]hept-5-en-2-yl acetoxy(phenyl)acetate'
_symmetry_cell_setting           orthorhombic
_symmetry_space_group_name_H-M   'P 21 21 21'
_symmetry_Int_Tables_number      19
_space_group_name_Hall           'P 2ac 2ab'
loop_
_symmetry_equiv_pos_site_id
_symmetry_equiv_pos_as_xyz
1 x,y,z
2 1/2-x,-y,1/2+z
3 -x,1/2+y,1/2-z
4 1/2+x,1/2-y,-z
_cell_length_a                   8.997(3)
_cell_length_b                   15.398(5)
_cell_length_c                   22.212(6)
_cell_angle_alpha                90
_cell_angle_beta                 90
_cell_angle_gamma                90
_cell_volume                     3077.16
_exptl_crystal_colour            colorless
_exptl_crystal_description       cubic
_cell_formula_units_Z            4
loop_
_atom_site_label
_atom_site_type_symbol
_atom_site_fract_x
_atom_site_fract_y
_atom_site_fract_z
C1 C 0.1988(5) 0.6859(3) 0.3139(2)
C2 C 0.0812(6) 0.6165(3) 0.3010(3)
H1 H -0.0150 0.6148 0.3164
C3 C 0.1409(6) 0.5605(3) 0.2648(3)
H2 H 0.0966 0.5114 0.2483
C4 C 0.2992(6) 0.5926(3) 0.2549(2)
H3 H 0.3703 0.5478 0.2424
C5 C 0.2884(5) 0.6719(3) 0.2124(2)
H4 H 0.2240 0.6608 0.1776
C6 C 0.2224(5) 0.7401(3) 0.2554(2)
H5 H 0.3005 0.7827 0.2638
C7 C 0.1915(6) 0.7358(3) 0.3724(2)
H6 H 0.0967 0.7654 0.3753
H7 H 0.1993 0.6958 0.4060
C8 C 0.4877(9) 0.6888(5) 0.4539(3)
H8 H 0.4088 0.6795 0.4823
H9 H 0.5814 0.6878 0.4745
H10 H 0.4859 0.6437 0.4240
C9 C 0.4420(10) 0.8837(5) 0.4744(3)
H11 H 0.4421 0.9394 0.4550
H12 H 0.5234 0.8805 0.5023
H13 H 0.3501 0.8759 0.4957
C10 C 0.6236(5) 0.8204(3) 0.3649(2)
C11 C 0.5827(8) 0.8881(4) 0.3181(3)
H14 H 0.6670 0.8992 0.2928
H15 H 0.5536 0.9408 0.3380
H16 H 0.5017 0.8670 0.2941
C12 C 0.7548(7) 0.8548(6) 0.4012(4)
H17 H 0.7625 0.8231 0.4383
H18 H 0.7398 0.9153 0.4098
H19 H 0.8446 0.8477 0.3784
C13 C 0.6710(7) 0.7406(4) 0.3309(3)
H20 H 0.5861 0.7151 0.3116
H21 H 0.7137 0.6995 0.3584
H22 H 0.7434 0.7563 0.3011
C14 C 0.4958(5) 0.6658(3) 0.14648(19)
C15 C 0.6506(5) 0.7032(3) 0.1369(2)
C16 C 0.6489(6) 0.7818(3) 0.0960(2)
C17 C 0.5747(10) 0.7758(5) 0.0396(3)
H23 H 0.5233 0.7255 0.0294
C18 C 0.5795(12) 0.8466(6) -0.0010(4)
H24 H 0.5318 0.8456 -0.0382
C19 C 0.6643(12) 0.9210(6) 0.0196(5)
H25 H 0.6899 0.9629 -0.0087
C20 C 0.7079(11) 0.9333(6) 0.0757(4)
H26 H 0.7417 0.9874 0.0883
C21 C 0.7016(9) 0.8606(5) 0.1170(3)
H27 H 0.7323 0.8667 0.1568
C22 C 0.7730(6) 0.5692(3) 0.1456(3)
C23 C 0.8793(8) 0.5078(4) 0.1160(3)
H28 H 0.8662 0.4506 0.1325
H29 H 0.9793 0.5269 0.1230
H30 H 0.8604 0.5064 0.0735
C24 C 0.1503(5) 0.8656(3) 0.1709(2)
C25 C 0.1316(9) 0.8493(5) 0.1110(3)
H31 H 0.0725 0.8031 0.0984
C26 C 0.2017(13) 0.9022(6) 0.0688(3)
H32 H 0.1911 0.8915 0.0278
C27 C 0.2861(10) 0.9701(5) 0.0887(3)
H33 H 0.3316 1.0061 0.0606
C28 C 0.3050(8) 0.9861(4) 0.1469(3)
H34 H 0.3657 1.0317 0.1590
C29 C 0.2341(6) 0.9346(3) 0.1900(3)
H35 H 0.2436 0.9469 0.2308
S1 S 0.06708(13) 0.79778(8) 0.22595(6)
Si1 Si 0.46218(16) 0.79665(10) 0.41658(6)
O1 O 0.3323(3) 0.63373(19) 0.31142(14)
O2 O 0.3083(4) 0.7972(2) 0.37533(13)
O3 O 0.4342(3) 0.70217(19) 0.19476(13)
O4 O 0.4368(4) 0.6117(2) 0.11557(15)
O5 O 0.7433(4) 0.6382(2) 0.10919(14)
O6 O 0.7160(5) 0.5605(2) 0.19360(18)
O7 O -0.0310(4) 0.7384(2) 0.1963(2)
O8 O 0.0116(4) 0.8513(2) 0.27411(17)
H36 H 0.690(4) 0.721(2) 0.1731(16)
loop_
_geom_bond_atom_site_label_1
_geom_bond_atom_site_label_2
_geom_bond_site_symmetry_1
_geom_bond_site_symmetry_2
C1 C2 1_555 1_555
C2 H1 1_555 1_555
C3 C2 1_555 1_555
H2 C3 1_555 1_555
C4 C3 1_555 1_555
H3 C4 1_555 1_555
C5 C4 1_555 1_555
H4 C5 1_555 1_555
C6 C1 1_555 1_555
H5 C6 1_555 1_555
C7 C1 1_555 1_555
H6 C7 1_555 1_555
H7 C7 1_555 1_555
C8 H8 1_555 1_555
H9 C8 1_555 1_555
H10 C8 1_555 1_555
C9 H11 1_555 1_555
H12 C9 1_555 1_555
H13 C9 1_555 1_555
C10 C11 1_555 1_555
C11 H14 1_555 1_555
H15 C11 1_555 1_555
H16 C11 1_555 1_555
C12 C10 1_555 1_555
H17 C12 1_555 1_555
H18 C12 1_555 1_555
H19 C12 1_555 1_555
C13 C10 1_555 1_555
H20 C13 1_555 1_555
H21 C13 1_555 1_555
H22 C13 1_555 1_555
C14 C15 1_555 1_555
C15 C16 1_555 1_555
C16 C17 1_555 1_555
C17 H23 1_555 1_555
C18 C17 1_555 1_555
H24 C18 1_555 1_555
C19 C18 1_555 1_555
H25 C19 1_555 1_555
C20 C19 1_555 1_555
H26 C20 1_555 1_555
C21 C16 1_555 1_555
H27 C21 1_555 1_555
C22 C23 1_555 1_555
C23 H28 1_555 1_555
H29 C23 1_555 1_555
H30 C23 1_555 1_555
C24 C25 1_555 1_555
C25 H31 1_555 1_555
C26 C25 1_555 1_555
H32 C26 1_555 1_555
C27 C26 1_555 1_555
H33 C27 1_555 1_555
C28 C27 1_555 1_555
H34 C28 1_555 1_555
C29 C24 1_555 1_555
H35 C29 1_555 1_555
S1 C6 1_555 1_555
Si1 C8 1_555 1_555
O1 C1 1_555 1_555
O2 C7 1_555 1_555
O3 C5 1_555 1_555
O4 C14 1_555 1_555
O5 C15 1_555 1_555
O6 C22 1_555 1_555
O7 S1 1_555 1_555
O8 S1 1_555 1_555
H36 C15 1_555 1_555
C4 O1 1_555 1_555
C5 C6 1_555 1_555
C9 Si1 1_555 1_555
C10 Si1 1_555 1_555
C14 O3 1_555 1_555
C20 C21 1_555 1_555
C22 O5 1_555 1_555
C24 S1 1_555 1_555
C28 C29 1_555 1_555
Si1 O2 1_555 1_555

#END
