
#######################################################################
#
#                 Cambridge Crystallographic Data Centre
#                                CCDC 
#
#######################################################################
#
# If this CIF has been generated from an entry in the Cambridge 
# Structural Database, then it will include bibliographic, chemical, 
# crystal, experimental, refinement or atomic coordinate data resulting 
# from the CCDC's data processing and validation procedures.
#
#######################################################################

data_LEBZAU
_chemical_formula_moiety         'C20 H40 Li2 N6 Si2'
_chemical_name_systematic        
(\m~2~-N',N'-Dimethyl-N-(trimethylsilyl)hydrazido-N,N,N')-bis(pyridine-lithium)
_symmetry_cell_setting           monoclinic
_symmetry_space_group_name_H-M   'P 21/c'
_symmetry_Int_Tables_number      14
_space_group_name_Hall           '-P 2ybc'
loop_
_symmetry_equiv_pos_site_id
_symmetry_equiv_pos_as_xyz
1 x,y,z
2 -x,1/2+y,1/2-z
3 -x,-y,-z
4 x,1/2-y,1/2+z
_cell_length_a                   9.063(4)
_cell_length_b                   19.277(8)
_cell_length_c                   8.088(3)
_cell_angle_alpha                90
_cell_angle_beta                 105.113(10)
_cell_angle_gamma                90
_cell_volume                     1364.16
_exptl_crystal_colour            colorless
_exptl_crystal_description       prism
_chemical_melting_point          '93 deg.C'
_cell_formula_units_Z            2
_chemical_properties_physical    'very air-sensitive'
_exptl_crystal_recrystallization_method hexane
loop_
_atom_site_label
_atom_site_type_symbol
_atom_site_fract_x
_atom_site_fract_y
_atom_site_fract_z
Si1 Si 0.22150(10) 0.40032(4) 0.37653(11)
N1 N 0.3780(3) 0.45033(11) 0.3798(2)
C1 C 0.0324(4) 0.4293(2) 0.2341(5)
H1 H -0.0476 0.3982 0.2484
H2 H 0.0370 0.4284 0.1156
H3 H 0.0105 0.4761 0.2648
Li1 Li 0.4732(6) 0.5431(2) 0.3852(6)
N2 N 0.4483(3) 0.45680(12) 0.2421(3)
C2 C 0.2389(5) 0.30539(18) 0.3274(6)
H4 H 0.1488 0.2808 0.3392
H5 H 0.3289 0.2862 0.4067
H6 H 0.2480 0.3004 0.2111
N3 N 0.3476(3) 0.62613(13) 0.2514(3)
C3 C 0.1978(5) 0.4049(2) 0.5992(5)
H7 H 0.1897 0.4530 0.6307
H8 H 0.2856 0.3838 0.6781
H9 H 0.1058 0.3802 0.6043
C4 C 0.3426(4) 0.45286(18) 0.0719(4)
H10 H 0.2936 0.4077 0.0566
H11 H 0.3984 0.4595 -0.0142
H12 H 0.2656 0.4888 0.0602
C5 C 0.5695(4) 0.40453(18) 0.2544(5)
H13 H 0.5247 0.3585 0.2421
H14 H 0.6434 0.4083 0.3649
H15 H 0.6202 0.4124 0.1641
C6 C 0.1991(4) 0.62533(16) 0.2442(4)
H16 H 0.1623 0.5894 0.3013
C7 C 0.0972(4) 0.67355(17) 0.1587(4)
H17 H -0.0064 0.6711 0.1589
C8 C 0.1483(5) 0.72568(18) 0.0724(4)
H18 H 0.0808 0.7595 0.0120
C9 C 0.3010(5) 0.72717(17) 0.0766(4)
H19 H 0.3399 0.7620 0.0184
C10 C 0.3952(4) 0.67701(16) 0.1671(4)
H20 H 0.4994 0.6786 0.1697
Si1B Si 0.77850(10) 0.59968(4) 0.62347(11)
N1B N 0.6220(3) 0.54967(11) 0.6202(2)
C1B C 0.9676(4) 0.5707(2) 0.7659(5)
H1B H 1.0476 0.6018 0.7516
H2B H 0.9630 0.5716 0.8844
H3B H 0.9895 0.5239 0.7352
Li1B Li 0.5268(6) 0.4569(2) 0.6148(6)
N2B N 0.5517(3) 0.54320(12) 0.7579(3)
C2B C 0.7611(5) 0.69461(18) 0.6726(6)
H4B H 0.8512 0.7192 0.6608
H5B H 0.6711 0.7138 0.5933
H6B H 0.7520 0.6996 0.7889
N3B N 0.6524(3) 0.37387(13) 0.7486(3)
C3B C 0.8022(5) 0.5951(2) 0.4008(5)
H7B H 0.8103 0.5470 0.3693
H8B H 0.7144 0.6162 0.3219
H9B H 0.8942 0.6198 0.3957
C4B C 0.6574(4) 0.54714(18) 0.9281(4)
H10B H 0.7064 0.5923 0.9434
H11B H 0.6016 0.5405 1.0142
H12B H 0.7344 0.5112 0.9398
C5B C 0.4305(4) 0.59547(18) 0.7456(5)
H13B H 0.4753 0.6415 0.7579
H14B H 0.3566 0.5917 0.6351
H15B H 0.3798 0.5876 0.8359
C6B C 0.8009(4) 0.37467(16) 0.7558(4)
H16B H 0.8377 0.4106 0.6987
C7B C 0.9028(4) 0.32645(17) 0.8413(4)
H17B H 1.0064 0.3289 0.8411
C8B C 0.8517(5) 0.27432(18) 0.9276(4)
H18B H 0.9192 0.2405 0.9880
C9B C 0.6990(5) 0.27283(17) 0.9234(4)
H19B H 0.6601 0.2380 0.9816
C10B C 0.6048(4) 0.32299(16) 0.8329(4)
H20B H 0.5006 0.3214 0.8303
loop_
_geom_bond_atom_site_label_1
_geom_bond_atom_site_label_2
_geom_bond_site_symmetry_1
_geom_bond_site_symmetry_2
Si1 N1 1_555 1_555
N1 Li1 1_555 1_555
C1 Si1 1_555 1_555
H1 C1 1_555 1_555
H2 C1 1_555 1_555
H3 C1 1_555 1_555
Li1 N2 1_555 1_555
N2 N1 1_555 1_555
C2 Si1 1_555 1_555
H4 C2 1_555 1_555
H5 C2 1_555 1_555
H6 C2 1_555 1_555
N3 Li1 1_555 1_555
C3 Si1 1_555 1_555
H7 C3 1_555 1_555
H8 C3 1_555 1_555
H9 C3 1_555 1_555
C4 N2 1_555 1_555
H10 C4 1_555 1_555
H11 C4 1_555 1_555
H12 C4 1_555 1_555
C5 N2 1_555 1_555
H13 C5 1_555 1_555
H14 C5 1_555 1_555
H15 C5 1_555 1_555
C6 N3 1_555 1_555
H16 C6 1_555 1_555
C7 C6 1_555 1_555
H17 C7 1_555 1_555
C8 C7 1_555 1_555
H18 C8 1_555 1_555
C9 C8 1_555 1_555
H19 C9 1_555 1_555
C10 N3 1_555 1_555
H20 C10 1_555 1_555
Si1B N1B 1_555 1_555
N1B Li1 1_555 1_555
C1B Si1B 1_555 1_555
H1B C1B 1_555 1_555
H2B C1B 1_555 1_555
H3B C1B 1_555 1_555
Li1B N1 1_555 1_555
N2B N1B 1_555 1_555
C2B Si1B 1_555 1_555
H4B C2B 1_555 1_555
H5B C2B 1_555 1_555
H6B C2B 1_555 1_555
N3B Li1B 1_555 1_555
C3B Si1B 1_555 1_555
H7B C3B 1_555 1_555
H8B C3B 1_555 1_555
H9B C3B 1_555 1_555
C4B N2B 1_555 1_555
H10B C4B 1_555 1_555
H11B C4B 1_555 1_555
H12B C4B 1_555 1_555
C5B N2B 1_555 1_555
H13B C5B 1_555 1_555
H14B C5B 1_555 1_555
H15B C5B 1_555 1_555
C6B N3B 1_555 1_555
H16B C6B 1_555 1_555
C7B C6B 1_555 1_555
H17B C7B 1_555 1_555
C8B C7B 1_555 1_555
H18B C8B 1_555 1_555
C9B C8B 1_555 1_555
H19B C9B 1_555 1_555
C10B N3B 1_555 1_555
H20B C10B 1_555 1_555
C9 C10 1_555 1_555
N1B Li1B 1_555 1_555
Li1B N2B 1_555 1_555
C9B C10B 1_555 1_555

#END
