
#######################################################################
#
#                 Cambridge Crystallographic Data Centre
#                                CCDC 
#
#######################################################################
#
# If this CIF has been generated from an entry in the Cambridge 
# Structural Database, then it will include bibliographic, chemical, 
# crystal, experimental, refinement or atomic coordinate data resulting 
# from the CCDC's data processing and validation procedures.
#
#######################################################################

data_LECBUR
_chemical_formula_moiety         'C28 H32 N2 O5 S1'
_chemical_name_systematic        
'10,10-dimethyl-3-tosyl-4-((S)-2-hydroxy-2-(thien-2-yl)pent-4-enoyl) 3,4-diazatricyclo(5.2.1.0^1,5^)decan-2-one'
_symmetry_cell_setting           orthorhombic
_symmetry_space_group_name_H-M   'P 21 21 21'
_symmetry_Int_Tables_number      19
_space_group_name_Hall           'P 2ac 2ab'
loop_
_symmetry_equiv_pos_site_id
_symmetry_equiv_pos_as_xyz
1 x,y,z
2 1/2-x,-y,1/2+z
3 1/2+x,1/2-y,-z
4 -x,1/2+y,1/2-z
_cell_length_a                   6.3790(2)
_cell_length_b                   18.5760(6)
_cell_length_c                   21.1690(8)
_cell_angle_alpha                90
_cell_angle_beta                 90
_cell_angle_gamma                90
_cell_volume                     2508.45
_exptl_crystal_colour            colorless
_exptl_crystal_description       prism
_chemical_melting_point          '194-195 deg.C'
_cell_formula_units_Z            4
_exptl_crystal_recrystallization_method 'ethyl acetate/hexanes'
loop_
_atom_site_label
_atom_site_type_symbol
_atom_site_fract_x
_atom_site_fract_y
_atom_site_fract_z
S1 S 0.3439(2) -0.17535(9) 0.79605(7)
O1 O -0.2714(6) -0.1375(2) 0.67164(19)
H1 H -0.3837 -0.1461 0.6543
O2 O 0.2668(6) -0.1512(2) 0.64053(19)
O3 O 0.2606(7) -0.2326(2) 0.7596(2)
O4 O 0.5626(6) -0.1704(3) 0.81035(19)
O5 O 0.4522(7) -0.0181(2) 0.8223(2)
N1 N 0.2852(7) -0.0982(3) 0.7554(2)
N2 N 0.0885(7) -0.1007(3) 0.7224(2)
C1 C 0.3090(9) -0.0311(3) 0.7876(3)
C2 C 0.1252(9) 0.0145(3) 0.7713(2)
C3 C -0.0421(9) -0.0388(3) 0.7470(3)
H2 H -0.1291 -0.0596 0.7792
C4 C -0.1769(9) 0.0080(3) 0.7034(3)
H3 H -0.3234 0.0051 0.7135
H4 H -0.1566 -0.0037 0.6596
C5 C -0.0975(9) 0.0845(4) 0.7178(3)
H5 H -0.1573 0.1168 0.6873
C6 C -0.1431(9) 0.1019(4) 0.7879(3)
H6 H -0.1279 0.1528 0.7944
H7 H -0.2834 0.0876 0.7984
C7 C 0.0239(10) 0.0584(4) 0.8248(3)
H8 H 0.1206 0.0907 0.8449
H9 H -0.0439 0.0294 0.8562
C8 C 0.1419(9) 0.0731(3) 0.7175(3)
C9 C 0.2686(10) 0.1396(4) 0.7358(3)
H10 H 0.4157 0.1288 0.7355
H11 H 0.2275 0.1547 0.7773
H12 H 0.2402 0.1775 0.7061
C10 C 0.2318(10) 0.0462(4) 0.6542(3)
H13 H 0.3809 0.0402 0.6576
H14 H 0.2013 0.0804 0.6215
H15 H 0.1682 0.0008 0.6440
C11 C 0.1997(9) -0.1694(3) 0.8671(3)
C12 C 0.0000(10) -0.1955(4) 0.8693(3)
H16 H -0.0595 -0.2155 0.8315
C13 C -0.1087(10) -0.1930(4) 0.9260(3)
H17 H -0.2490 -0.2116 0.9282
C14 C -0.0207(11) -0.1648(4) 0.9792(3)
C15 C -0.1410(13) -0.1633(4) 1.0416(3)
H18 H -0.0542 -0.1416 1.0734
H19 H -0.1767 -0.2114 1.0542
H20 H -0.2667 -0.1355 1.0366
C16 C 0.1815(12) -0.1382(4) 0.9761(3)
H21 H 0.2436 -0.1184 1.0136
C17 C 0.2939(10) -0.1398(4) 0.9206(3)
H22 H 0.4343 -0.1216 0.9173
C18 C 0.0994(9) -0.1315(3) 0.6629(3)
C19 C -0.1065(8) -0.1482(3) 0.6283(3)
C20 C -0.0935(9) -0.2280(4) 0.6084(3)
H23 H 0.0257 -0.2350 0.5814
H24 H -0.0794 -0.2576 0.6453
C21 C -0.2862(11) -0.2519(4) 0.5735(3)
H25 H -0.2968 -0.2438 0.5288
C22 C -0.4473(12) -0.2842(4) 0.5995(4)
H26 H -0.5659 -0.2981 0.5744
H27 H -0.4461 -0.2938 0.6441
C23 C -0.1291(9) -0.0993(3) 0.5689(3)
C24 C 0.0372(11) -0.0881(4) 0.5272(3)
H28 H 0.1687 -0.1114 0.5355
C25 C 0.0130(11) -0.0446(4) 0.4744(3)
H29 H 0.1311 -0.0352 0.4475
C26 C -0.1784(11) -0.0150(4) 0.4606(3)
H30 H -0.1951 0.0138 0.4233
C27 C -0.3466(11) -0.0279(4) 0.4995(3)
H31 H -0.4798 -0.0064 0.4901
C28 C -0.3218(10) -0.0707(4) 0.5536(3)
H32 H -0.4388 -0.0812 0.5806
loop_
_geom_bond_atom_site_label_1
_geom_bond_atom_site_label_2
_geom_bond_site_symmetry_1
_geom_bond_site_symmetry_2
S1 O3 1_555 1_555
O1 H1 1_555 1_555
O2 C18 1_555 1_555
O4 S1 1_555 1_555
O5 C1 1_555 1_555
N1 S1 1_555 1_555
N2 N1 1_555 1_555
C1 N1 1_555 1_555
C2 C1 1_555 1_555
C3 N2 1_555 1_555
H2 C3 1_555 1_555
C4 C3 1_555 1_555
H3 C4 1_555 1_555
H4 C4 1_555 1_555
C5 C4 1_555 1_555
H5 C5 1_555 1_555
C6 C5 1_555 1_555
H6 C6 1_555 1_555
H7 C6 1_555 1_555
C7 C2 1_555 1_555
H8 C7 1_555 1_555
H9 C7 1_555 1_555
C8 C2 1_555 1_555
C9 C8 1_555 1_555
H10 C9 1_555 1_555
H11 C9 1_555 1_555
H12 C9 1_555 1_555
C10 C8 1_555 1_555
H13 C10 1_555 1_555
H14 C10 1_555 1_555
H15 C10 1_555 1_555
C11 S1 1_555 1_555
C12 C11 1_555 1_555
H16 C12 1_555 1_555
C13 C12 1_555 1_555
H17 C13 1_555 1_555
C14 C13 1_555 1_555
C15 C14 1_555 1_555
H18 C15 1_555 1_555
H19 C15 1_555 1_555
H20 C15 1_555 1_555
C16 C14 1_555 1_555
H21 C16 1_555 1_555
C17 C11 1_555 1_555
H22 C17 1_555 1_555
C18 N2 1_555 1_555
C19 O1 1_555 1_555
C20 C19 1_555 1_555
H23 C20 1_555 1_555
H24 C20 1_555 1_555
C21 C20 1_555 1_555
H25 C21 1_555 1_555
C22 C21 1_555 1_555
H26 C22 1_555 1_555
H27 C22 1_555 1_555
C23 C19 1_555 1_555
C24 C23 1_555 1_555
H28 C24 1_555 1_555
C25 C24 1_555 1_555
H29 C25 1_555 1_555
C26 C25 1_555 1_555
H30 C26 1_555 1_555
C27 C26 1_555 1_555
H31 C27 1_555 1_555
C28 C23 1_555 1_555
H32 C28 1_555 1_555
C2 C3 1_555 1_555
C5 C8 1_555 1_555
C6 C7 1_555 1_555
C16 C17 1_555 1_555
C18 C19 1_555 1_555
C27 C28 1_555 1_555

#END
