
#######################################################################
#
#                 Cambridge Crystallographic Data Centre
#                                CCDC 
#
#######################################################################
#
# If this CIF has been generated from an entry in the Cambridge 
# Structural Database, then it will include bibliographic, chemical, 
# crystal, experimental, refinement or atomic coordinate data resulting 
# from the CCDC's data processing and validation procedures.
#
#######################################################################

data_LECQAM
_chemical_compound_source        'leaves and branches of Isodon henryi'
_chemical_name_common            'Rabdosianin B'
_chemical_formula_moiety         'C28 H38 O10'
_chemical_name_systematic        
7,20-Epoxy-7\b-hydroxy-1\a,6\b,11\a,15\b-tetra-acetoxy-ent-kaur-16-ene
_symmetry_cell_setting           orthorhombic
_symmetry_space_group_name_H-M   'P 21 21 21'
_symmetry_Int_Tables_number      19
_space_group_name_Hall           'P 2ac 2ab'
loop_
_symmetry_equiv_pos_site_id
_symmetry_equiv_pos_as_xyz
1 x,y,z
2 1/2-x,-y,1/2+z
3 -x,1/2+y,1/2-z
4 1/2+x,1/2-y,-z
_cell_length_a                   9.969(1)
_cell_length_b                   15.400(3)
_cell_length_c                   17.624(3)
_cell_angle_alpha                90
_cell_angle_beta                 90
_cell_angle_gamma                90
_cell_volume                     2705.68
_exptl_crystal_colour            colorless
_exptl_crystal_description       prism
_cell_formula_units_Z            4
_exptl_crystal_recrystallization_method acetone
loop_
_atom_site_label
_atom_site_type_symbol
_atom_site_fract_x
_atom_site_fract_y
_atom_site_fract_z
O1 O 0.09863(18) 0.95984(12) 0.16517(11)
O2 O -0.31062(17) 0.92002(11) 0.13549(10)
O3 O -0.50321(18) 0.95140(13) 0.07615(13)
O4 O 0.13154(19) 1.19434(11) 0.14692(11)
O5 O 0.2607(3) 1.20280(18) 0.25189(16)
O6 O 0.27406(17) 1.04574(13) 0.13046(12)
H1 H 0.3093 1.0074 0.1050
O7 O 0.03336(18) 1.17904(11) -0.00480(11)
O8 O 0.20331(19) 1.26971(13) -0.03102(14)
O9 O -0.09173(17) 0.86144(10) 0.03579(10)
O10 O -0.2643(2) 0.79478(12) -0.02104(12)
C1 C -0.2749(2) 1.01248(15) 0.13858(15)
H2 H -0.3133 1.0413 0.0940
C2 C -0.3426(3) 1.04857(18) 0.20891(16)
H3 H -0.4392 1.0467 0.2023
H4 H -0.3199 1.0128 0.2524
C3 C -0.2991(3) 1.14127(18) 0.22360(18)
H5 H -0.3470 1.1635 0.2674
H6 H -0.3230 1.1769 0.1803
C4 C -0.1483(3) 1.14850(17) 0.23771(16)
C5 C -0.0772(2) 1.11341(16) 0.16519(16)
H7 H -0.0981 1.1547 0.1245
C6 C 0.0759(3) 1.11187(16) 0.17177(16)
H8 H 0.0995 1.1034 0.2252
C7 C 0.1357(2) 1.03781(17) 0.12622(15)
C8 C 0.0820(2) 1.03029(16) 0.04463(15)
C9 C -0.0745(2) 1.01851(15) 0.04951(14)
H9 H -0.1121 1.0711 0.0266
C10 C -0.1203(2) 1.02129(15) 0.13485(14)
C11 C -0.1246(2) 0.94388(15) -0.00005(14)
H10 H -0.2223 0.9483 -0.0052
C12 C -0.0614(3) 0.94609(19) -0.07846(15)
H11 H -0.1076 0.9892 -0.1089
H12 H -0.0745 0.8901 -0.1025
C13 C 0.0906(3) 0.96739(19) -0.07799(16)
H13 H 0.1393 0.9330 -0.1158
C14 C 0.1478(2) 0.95398(17) 0.00166(16)
H14 H 0.2449 0.9583 0.0020
H15 H 0.1212 0.8984 0.0227
C15 C 0.1208(3) 1.10422(15) -0.01036(16)
H16 H 0.2133 1.1222 -0.0001
C16 C 0.1139(3) 1.06264(19) -0.08886(16)
C17 C 0.1294(4) 1.1031(2) -0.1538(2)
H17 H 0.1265 1.0720 -0.1990
H18 H 0.1435 1.1628 -0.1546
C18 C -0.1136(3) 1.24510(19) 0.2472(2)
H19 H -0.1350 1.2757 0.2013
H20 H -0.0196 1.2510 0.2578
H21 H -0.1646 1.2689 0.2885
C19 C -0.1122(3) 1.1023(2) 0.31273(15)
H22 H -0.1526 1.1326 0.3545
H23 H -0.0165 1.1017 0.3190
H24 H -0.1450 1.0437 0.3114
C20 C -0.0434(2) 0.95216(17) 0.17877(15)
H25 H -0.0612 0.9585 0.2326
H26 H -0.0738 0.8950 0.1633
C21 C -0.4731(3) 0.80915(19) 0.12700(19)
H27 H -0.5690 0.8054 0.1307
H28 H -0.4335 0.7921 0.1744
H29 H -0.4421 0.7713 0.0874
C22 C -0.4335(3) 0.90062(19) 0.10908(16)
C23 C 0.2703(4) 1.3160(2) 0.1590(2)
H30 H 0.1942 1.3478 0.1405
H31 H 0.3309 1.3047 0.1178
H32 H 0.3154 1.3495 0.1972
C24 C 0.2243(3) 1.2318(2) 0.1925(2)
C25 C -0.0102(3) 1.32821(18) 0.0003(2)
H33 H 0.0363 1.3811 0.0122
H34 H -0.0672 1.3124 0.0420
H35 H -0.0636 1.3366 -0.0444
C26 C 0.0887(3) 1.25794(19) -0.01341(19)
C27 C -0.1212(3) 0.71554(17) 0.06444(18)
H36 H -0.1549 0.7179 0.1154
H37 H -0.0250 0.7155 0.0654
H38 H -0.1526 0.6635 0.0402
C28 C -0.1698(3) 0.79292(16) 0.02128(16)
loop_
_geom_bond_atom_site_label_1
_geom_bond_atom_site_label_2
_geom_bond_site_symmetry_1
_geom_bond_site_symmetry_2
O1 C7 1_555 1_555
O2 C1 1_555 1_555
O3 C22 1_555 1_555
O4 C6 1_555 1_555
O5 C24 1_555 1_555
O6 H1 1_555 1_555
O7 C15 1_555 1_555
O8 C26 1_555 1_555
O9 C11 1_555 1_555
O10 C28 1_555 1_555
C1 H2 1_555 1_555
C2 C1 1_555 1_555
H3 C2 1_555 1_555
H4 C2 1_555 1_555
C3 C2 1_555 1_555
H5 C3 1_555 1_555
H6 C3 1_555 1_555
C4 C3 1_555 1_555
C5 C4 1_555 1_555
H7 C5 1_555 1_555
C6 C5 1_555 1_555
H8 C6 1_555 1_555
C7 O6 1_555 1_555
C8 C7 1_555 1_555
C9 C8 1_555 1_555
H9 C9 1_555 1_555
C10 C1 1_555 1_555
C11 C9 1_555 1_555
H10 C11 1_555 1_555
C12 C11 1_555 1_555
H11 C12 1_555 1_555
H12 C12 1_555 1_555
C13 C12 1_555 1_555
H13 C13 1_555 1_555
C14 C8 1_555 1_555
H14 C14 1_555 1_555
H15 C14 1_555 1_555
C15 C8 1_555 1_555
H16 C15 1_555 1_555
C16 C13 1_555 1_555
C17 C16 1_555 1_555
H17 C17 1_555 1_555
H18 C17 1_555 1_555
C18 C4 1_555 1_555
H19 C18 1_555 1_555
H20 C18 1_555 1_555
H21 C18 1_555 1_555
C19 C4 1_555 1_555
H22 C19 1_555 1_555
H23 C19 1_555 1_555
H24 C19 1_555 1_555
C20 O1 1_555 1_555
H25 C20 1_555 1_555
H26 C20 1_555 1_555
C21 H27 1_555 1_555
H28 C21 1_555 1_555
H29 C21 1_555 1_555
C22 O2 1_555 1_555
C23 H30 1_555 1_555
H31 C23 1_555 1_555
H32 C23 1_555 1_555
C24 O4 1_555 1_555
C25 H33 1_555 1_555
H34 C25 1_555 1_555
H35 C25 1_555 1_555
C26 O7 1_555 1_555
C27 H36 1_555 1_555
H37 C27 1_555 1_555
H38 C27 1_555 1_555
C28 O9 1_555 1_555
C5 C10 1_555 1_555
C6 C7 1_555 1_555
C9 C10 1_555 1_555
C10 C20 1_555 1_555
C13 C14 1_555 1_555
C15 C16 1_555 1_555
C21 C22 1_555 1_555
C23 C24 1_555 1_555
C25 C26 1_555 1_555
C27 C28 1_555 1_555

#END
