
#######################################################################
#
#                 Cambridge Crystallographic Data Centre
#                                CCDC 
#
#######################################################################
#
# If this CIF has been generated from an entry in the Cambridge 
# Structural Database, then it will include bibliographic, chemical, 
# crystal, experimental, refinement or atomic coordinate data resulting 
# from the CCDC's data processing and validation procedures.
#
#######################################################################

data_LECRET
_chemical_formula_moiety         'C30 H44 B1 K1 N4'
_chemical_name_systematic        
(1,4,7,10-tetramethyl-1,4,7,10-tetra-azacyclododecane)-(hydrido(triphenyl)borate)-potassium
_symmetry_cell_setting           triclinic
_symmetry_space_group_name_H-M   'P 1'
_symmetry_Int_Tables_number      1
_space_group_name_Hall           'P 1'
loop_
_symmetry_equiv_pos_site_id
_symmetry_equiv_pos_as_xyz
1 x,y,z
_cell_length_a                   8.903(8)
_cell_length_b                   9.371(9)
_cell_length_c                   10.341(10)
_cell_angle_alpha                109.716(14)
_cell_angle_beta                 95.421(15)
_cell_angle_gamma                112.775(14)
_cell_volume                     723.235
_exptl_crystal_colour            colorless
_exptl_crystal_description       block
_cell_formula_units_Z            1
_chemical_properties_physical    
Air-sensitive,Moisture-sensitive,Oxygen-sensitive
_exptl_crystal_recrystallization_method 'tetrahydrofuran / pentane'
loop_
_atom_site_label
_atom_site_type_symbol
_atom_site_fract_x
_atom_site_fract_y
_atom_site_fract_z
K1 K 0.44450(16) 0.79301(16) 0.74167(14)
H1 H 0.195(9) 0.851(9) 0.850(8)
B1 B 0.2482(11) 0.8993(10) 0.9636(9)
N1 N 0.6810(8) 0.9158(8) 0.5931(7)
N2 N 0.3143(8) 0.8077(8) 0.4855(6)
N3 N 0.2318(9) 0.4781(8) 0.5222(7)
N4 N 0.6040(8) 0.5871(8) 0.6311(7)
C1 C 0.6038(19) 0.964(2) 0.4854(15)
H2 H 0.6003 1.0720 0.5370
H3 H 0.6775 0.9815 0.4207
C2 C 0.4279(17) 0.831(2) 0.3979(15)
H4 H 0.3876 0.8665 0.3271
H5 H 0.4304 0.7223 0.3456
C3 C 0.1556(19) 0.6390(16) 0.4012(14)
H6 H 0.0633 0.6367 0.4483
H7 H 0.1187 0.6296 0.3041
C4 C 0.190(2) 0.488(2) 0.3919(16)
H8 H 0.0882 0.3829 0.3293
H9 H 0.2831 0.4936 0.3458
C5 C 0.3048(18) 0.3636(17) 0.5161(16)
H10 H 0.2381 0.2563 0.4310
H11 H 0.2978 0.3371 0.6010
C6 C 0.4875(19) 0.435(2) 0.5102(17)
H12 H 0.5262 0.3470 0.4990
H13 H 0.4927 0.4593 0.4241
C7 C 0.754(2) 0.688(2) 0.600(2)
H14 H 0.8018 0.6127 0.5490
H15 H 0.8382 0.7723 0.6910
C8 C 0.7261(19) 0.7800(18) 0.5118(16)
H16 H 0.8301 0.8309 0.4829
H17 H 0.6343 0.6981 0.4244
C9 C 0.825(2) 1.062(2) 0.6922(19)
H18 H 0.9099 1.1016 0.6425
H19 H 0.8713 1.0346 0.7648
H20 H 0.7917 1.1518 0.7376
C10 C 0.255(2) 0.941(2) 0.5243(14)
H21 H 0.1992 0.9401 0.4376
H22 H 0.3522 1.0521 0.5782
H23 H 0.1759 0.9189 0.5827
C11 C 0.076(2) 0.422(2) 0.5754(16)
H24 H 0.0349 0.5080 0.5963
H25 H 0.1036 0.4061 0.6621
H26 H -0.0118 0.3143 0.5024
C12 C 0.649(2) 0.544(2) 0.7479(16)
H27 H 0.7132 0.4792 0.7212
H28 H 0.5459 0.4759 0.7677
H29 H 0.7176 0.6483 0.8332
C13 C 0.2745(10) 0.7450(9) 0.9872(7)
C14 C 0.4328(10) 0.7562(10) 1.0301(7)
H30 H 0.5302 0.8579 1.0485
C15 C 0.4535(10) 0.6208(10) 1.0471(8)
H31 H 0.5635 0.6310 1.0739
C16 C 0.3151(10) 0.4752(10) 1.0251(8)
H32 H 0.3284 0.3854 1.0395
C17 C 0.1565(11) 0.4594(10) 0.9818(8)
H33 H 0.0598 0.3582 0.9658
C18 C 0.1376(11) 0.5913(10) 0.9615(8)
H34 H 0.0269 0.5764 0.9288
C19 C 0.4231(9) 1.0771(9) 1.0205(7)
C20 C 0.4853(10) 1.1598(9) 0.9334(8)
H35 H 0.4235 1.1111 0.8368
C21 C 0.6326(11) 1.3092(10) 0.9808(10)
H36 H 0.6712 1.3600 0.9174
C22 C 0.7224(11) 1.3832(10) 1.1208(9)
H37 H 0.8232 1.4864 1.1553
C23 C 0.6642(11) 1.3055(10) 1.2114(9)
H38 H 0.7263 1.3553 1.3080
C24 C 0.5168(9) 1.1563(9) 1.1618(8)
H39 H 0.4783 1.1064 1.2258
C25 C 0.1086(9) 0.9378(9) 1.0422(7)
C26 C 0.0536(10) 0.8840(10) 1.1459(8)
H40 H 0.0971 0.8172 1.1726
C27 C -0.0621(10) 0.9229(10) 1.2128(8)
H41 H -0.0964 0.8828 1.2832
C28 C -0.1265(10) 1.0196(9) 1.1765(8)
H42 H -0.2048 1.0484 1.2222
C29 C -0.0761(10) 1.0745(10) 1.0726(8)
H43 H -0.1226 1.1385 1.0446
C30 C 0.0409(10) 1.0372(9) 1.0093(8)
H44 H 0.0770 1.0804 0.9409
C31? C 0.624(3) 0.905(4) 0.462(3)
H45? H 0.6052 0.7943 0.3899
H46? H 0.7117 0.9952 0.4443
C32? C 0.462(3) 0.922(3) 0.447(2)
H47? H 0.4232 0.9029 0.3474
H48? H 0.4895 1.0411 0.5072
C33? C 0.240(3) 0.645(3) 0.370(2)
H49? H 0.3308 0.6222 0.3338
H50? H 0.1685 0.6478 0.2923
C34? C 0.133(3) 0.500(3) 0.406(2)
H51? H 0.0837 0.3935 0.3190
H52? H 0.0388 0.5197 0.4383
C35? C 0.335(3) 0.388(3) 0.443(2)
H53? H 0.2582 0.2670 0.3842
H54? H 0.3845 0.4415 0.3801
C36? C 0.469(3) 0.402(3) 0.548(3)
H55? H 0.5225 0.3329 0.4981
H56? H 0.4187 0.3569 0.6153
C37? C 0.709(3) 0.648(3) 0.543(3)
H57? H 0.6373 0.6003 0.4457
H58? H 0.7934 0.6024 0.5373
C38? C 0.801(3) 0.836(3) 0.594(3)
H59? H 0.8757 0.8640 0.5314
H60? H 0.8735 0.8852 0.6913
C39? C 0.786(3) 1.095(3) 0.702(2)
H61? H 0.8966 1.1415 0.6839
H62? H 0.7998 1.0949 0.7976
H63? H 0.7288 1.1643 0.6968
C40? C 0.195(4) 0.877(4) 0.520(3)
H64? H 0.1260 0.8611 0.4318
H65? H 0.2569 0.9980 0.5814
H66? H 0.1220 0.8178 0.5689
C41? C 0.125(3) 0.374(3) 0.577(2)
H67? H 0.0710 0.4354 0.6365
H68? H 0.1896 0.3431 0.6346
H69? H 0.0376 0.2718 0.4987
C42? C 0.713(4) 0.596(3) 0.757(2)
H70? H 0.7755 0.5306 0.7234
H71? H 0.6418 0.5485 0.8130
H72? H 0.7929 0.7143 0.8163
loop_
_geom_bond_atom_site_label_1
_geom_bond_atom_site_label_2
_geom_bond_site_symmetry_1
_geom_bond_site_symmetry_2
K1 H1 1_555 1_555
H1 B1 1_555 1_555
B1 C13 1_555 1_555
N1 K1 1_555 1_555
N2 K1 1_555 1_555
N3 K1 1_555 1_555
N4 K1 1_555 1_555
C1 N1 1_555 1_555
H2 C1 1_555 1_555
H3 C1 1_555 1_555
C2 N2 1_555 1_555
H4 C2 1_555 1_555
H5 C2 1_555 1_555
C3 N2 1_555 1_555
H6 C3 1_555 1_555
H7 C3 1_555 1_555
C4 N3 1_555 1_555
H8 C4 1_555 1_555
H9 C4 1_555 1_555
C5 N3 1_555 1_555
H10 C5 1_555 1_555
H11 C5 1_555 1_555
C6 N4 1_555 1_555
H12 C6 1_555 1_555
H13 C6 1_555 1_555
C7 N4 1_555 1_555
H14 C7 1_555 1_555
H15 C7 1_555 1_555
C8 N1 1_555 1_555
H16 C8 1_555 1_555
H17 C8 1_555 1_555
C9 N1 1_555 1_555
H18 C9 1_555 1_555
H19 C9 1_555 1_555
H20 C9 1_555 1_555
C10 N2 1_555 1_555
H21 C10 1_555 1_555
H22 C10 1_555 1_555
H23 C10 1_555 1_555
C11 N3 1_555 1_555
H24 C11 1_555 1_555
H25 C11 1_555 1_555
H26 C11 1_555 1_555
C12 N4 1_555 1_555
H27 C12 1_555 1_555
H28 C12 1_555 1_555
H29 C12 1_555 1_555
C13 K1 1_555 1_555
C14 K1 1_555 1_555
H30 C14 1_555 1_555
C15 C14 1_555 1_555
H31 C15 1_555 1_555
C16 C15 1_555 1_555
H32 C16 1_555 1_555
C17 C16 1_555 1_555
H33 C17 1_555 1_555
C18 C13 1_555 1_555
H34 C18 1_555 1_555
C19 K1 1_555 1_555
C20 K1 1_555 1_555
H35 C20 1_555 1_555
C21 C20 1_555 1_555
H36 C21 1_555 1_555
C22 C21 1_555 1_555
H37 C22 1_555 1_555
C23 C22 1_555 1_555
H38 C23 1_555 1_555
C24 C19 1_555 1_555
H39 C24 1_555 1_555
C25 B1 1_555 1_555
C26 C25 1_555 1_555
H40 C26 1_555 1_555
C27 C26 1_555 1_555
H41 C27 1_555 1_555
C28 C27 1_555 1_555
H42 C28 1_555 1_555
C29 C28 1_555 1_555
H43 C29 1_555 1_555
C30 C25 1_555 1_555
H44 C30 1_555 1_555
B1 C19 1_555 1_555
C1 C2 1_555 1_555
C3 C4 1_555 1_555
C5 C6 1_555 1_555
C7 C8 1_555 1_555
C13 C14 1_555 1_555
C17 C18 1_555 1_555
C19 C20 1_555 1_555
C23 C24 1_555 1_555
C29 C30 1_555 1_555

#END
