
#######################################################################
#
#                 Cambridge Crystallographic Data Centre
#                                CCDC 
#
#######################################################################
#
# If this CIF has been generated from an entry in the Cambridge 
# Structural Database, then it will include bibliographic, chemical, 
# crystal, experimental, refinement or atomic coordinate data resulting 
# from the CCDC's data processing and validation procedures.
#
#######################################################################

data_LECRIX
_chemical_formula_moiety         'C12 H24 Li1 O5 1+,C18 H16 B1 1-'
_chemical_name_systematic        
'tetrahydrofuran-(1,4,7,10-tetraoxacyclododecane)-lithium hydrido(triphenyl)borate'
_symmetry_cell_setting           monoclinic
_symmetry_space_group_name_H-M   'C 2/c'
_symmetry_Int_Tables_number      15
_space_group_name_Hall           '-C 2yn'
loop_
_symmetry_equiv_pos_site_id
_symmetry_equiv_pos_as_xyz
1 x,y,z
2 -x,y,1/2-z
3 1/2+x,1/2+y,z
4 1/2-x,1/2+y,1/2-z
5 -x,-y,-z
6 x,-y,1/2+z
7 1/2-x,1/2-y,-z
8 1/2+x,1/2-y,1/2+z
_cell_length_a                   22.601(2)
_cell_length_b                   27.760(3)
_cell_length_c                   17.8143(16)
_cell_angle_alpha                90
_cell_angle_beta                 93.7776(16)
_cell_angle_gamma                90
_cell_volume                     11152.5
_exptl_crystal_colour            colorless
_exptl_crystal_description       block
_cell_formula_units_Z            16
_chemical_properties_physical    
Air-sensitive,Moisture-sensitive,Oxygen-sensitive
_exptl_crystal_recrystallization_method 'tetrahydrofuran / pentane'
loop_
_atom_site_label
_atom_site_type_symbol
_atom_site_fract_x
_atom_site_fract_y
_atom_site_fract_z
Li1 Li 0.93917(15) 0.12124(12) -0.02680(19)
O1 O 0.87874(6) 0.09280(5) 0.04329(8)
O2 O 0.91414(7) 0.06223(6) -0.09001(9)
O3 O 0.93722(7) 0.15479(7) -0.12744(9)
O4 O 0.90266(7) 0.18444(6) 0.00648(9)
O5 O 1.01470(6) 0.11668(5) 0.02630(8)
C1 C 0.83815(9) 0.06294(8) 0.00031(12)
H1 H 0.8098 0.0827 -0.0312
H2 H 0.8156 0.0423 0.0337
C2 C 0.87614(10) 0.03234(8) -0.04863(14)
H3 H 0.9005 0.0098 -0.0165
H4 H 0.8502 0.0131 -0.0841
C3 C 0.88712(12) 0.08028(11) -0.15940(13)
H5 H 0.8475 0.0938 -0.1515
H6 H 0.8825 0.0541 -0.1971
C4 C 0.92770(12) 0.11896(10) -0.18588(13)
H7 H 0.9661 0.1046 -0.1977
H8 H 0.9097 0.1342 -0.2321
C5 C 0.89369(12) 0.19114(11) -0.12807(16)
H9 H 0.8535 0.1768 -0.1332
H10 H 0.8981 0.2134 -0.1708
C6 C 0.90249(12) 0.21774(9) -0.05493(15)
H11 H 0.9406 0.2354 -0.0532
H12 H 0.8702 0.2415 -0.0507
C7 C 0.84470(10) 0.17506(8) 0.02960(13)
H13 H 0.8170 0.1682 -0.0145
H14 H 0.8296 0.2031 0.0570
C8 C 0.85104(10) 0.13137(8) 0.08084(12)
H15 H 0.8752 0.1399 0.1273
H16 H 0.8114 0.1210 0.0952
C9 C 1.04007(10) 0.15623(8) 0.06974(14)
H17 H 1.0192 0.1867 0.0563
H18 H 1.0826 0.1601 0.0610
C10 C 1.03202(12) 0.14283(12) 0.15112(15)
H19 H 1.0679 0.1511 0.1835
H20 H 0.9975 0.1599 0.1701
C11 C 1.02179(14) 0.08897(12) 0.14992(14)
H21 H 1.0512 0.0723 0.1844
H22 H 0.9815 0.0811 0.1648
C12 C 1.02904(10) 0.07458(8) 0.06956(13)
H23 H 1.0703 0.0643 0.0629
H24 H 1.0019 0.0478 0.0544
B1 B 0.69549(10) 0.12825(8) 0.91158(13)
H25 H 0.7469(9) 0.1275(7) 0.8973(12)
C13 C 0.66510(9) 0.07938(7) 0.87591(10)
C14 C 0.60351(9) 0.07149(8) 0.87222(12)
H26 H 0.5787 0.0956 0.8914
C15 C 0.57739(11) 0.02990(8) 0.84174(13)
H27 H 0.5355 0.0263 0.8395
C16 C 0.61232(11) -0.00630(8) 0.81462(13)
H28 H 0.5947 -0.0349 0.7940
C17 C 0.67297(11) -0.00040(8) 0.81789(13)
H29 H 0.6975 -0.0251 0.8000
C18 C 0.69850(10) 0.04193(8) 0.84746(12)
H30 H 0.7403 0.0455 0.8483
C19 C 0.69458(8) 0.12900(7) 1.00324(11)
C20 C 0.69022(9) 0.08710(7) 1.04681(11)
H31 H 0.6858 0.0569 1.0220
C21 C 0.69222(9) 0.08831(8) 1.12542(11)
H32 H 0.6898 0.0591 1.1529
C22 C 0.69775(9) 0.13190(8) 1.16345(11)
H33 H 0.6981 0.1329 1.2168
C23 C 0.70278(9) 0.17405(8) 1.12233(11)
H34 H 0.7074 0.2041 1.1475
C24 C 0.70101(8) 0.17219(7) 1.04405(11)
H35 H 0.7043 0.2015 1.0170
C25 C 0.66534(9) 0.17695(7) 0.87475(10)
C26 C 0.60852(9) 0.19314(7) 0.89056(11)
H36 H 0.5870 0.1755 0.9253
C27 C 0.58265(10) 0.23395(8) 0.85736(12)
H37 H 0.5438 0.2433 0.8689
C28 C 0.61347(11) 0.26101(8) 0.80746(12)
H38 H 0.5959 0.2888 0.7844
C29 C 0.67022(11) 0.24702(8) 0.79163(12)
H39 H 0.6922 0.2658 0.7586
C30 C 0.69508(10) 0.20541(8) 0.82412(11)
H40 H 0.7336 0.1960 0.8115
Li2 Li 0.55929(15) 0.12230(12) 0.53409(19)
O6 O 0.56396(11) 0.19447(10) 0.56904(14)
O7 O 0.56689(11) 0.11204(10) 0.65020(17)
O8 O 0.61301(11) 0.06279(9) 0.53620(14)
O9 O 0.61279(11) 0.14637(9) 0.45784(13)
C31 C 0.5895(4) 0.1974(3) 0.6454(3)
H41 H 0.5806 0.2290 0.6679
H42 H 0.6330 0.1933 0.6468
C32 C 0.5612(3) 0.15699(19) 0.6877(3)
H43 H 0.5805 0.1548 0.7392
H44 H 0.5187 0.1642 0.6921
C33 C 0.6227(4) 0.0868(3) 0.6638(5)
H45 H 0.6269 0.0753 0.7165
H46 H 0.6562 0.1086 0.6552
C34 C 0.62271(19) 0.04610(15) 0.6121(2)
H47 H 0.6612 0.0291 0.6183
H48 H 0.5911 0.0231 0.6237
C35 C 0.6676(3) 0.0755(3) 0.5014(4)
H49 H 0.6878 0.0463 0.4841
H50 H 0.6951 0.0929 0.5375
C36 C 0.6487(3) 0.1072(2) 0.4361(3)
H51 H 0.6844 0.1201 0.4135
H52 H 0.6263 0.0878 0.3973
C37 C 0.6441(5) 0.1874(4) 0.4875(5)
H53 H 0.6652 0.2038 0.4478
H54 H 0.6733 0.1780 0.5287
C38 C 0.5971(4) 0.2198(4) 0.5164(4)
H55 H 0.6159 0.2484 0.5409
H56 H 0.5702 0.2310 0.4738
O10 O 0.48612(6) 0.11163(5) 0.47684(8)
C39 C 0.46108(10) 0.14685(8) 0.42458(12)
H57 H 0.4808 0.1785 0.4323
H58 H 0.4180 0.1508 0.4300
C40 C 0.47255(12) 0.12634(9) 0.34872(14)
H59 H 0.5132 0.1340 0.3348
H60 H 0.4437 0.1388 0.3093
C41 C 0.46488(11) 0.07259(9) 0.35966(13)
H61 H 0.4247 0.0621 0.3409
H62 H 0.4946 0.0543 0.3328
C42 C 0.47395(11) 0.06503(8) 0.44376(13)
H63 H 0.4379 0.0510 0.4636
H64 H 0.5076 0.0429 0.4555
B2 B 0.30822(10) 0.36684(8) 0.10042(13)
H81 H 0.2584(9) 0.3613(7) 0.1159(12)
C51 C 0.34424(9) 0.32033(7) 0.13623(10)
C52 C 0.40563(10) 0.31332(8) 0.13235(12)
H82 H 0.4279 0.3370 0.1080
C53 C 0.43485(11) 0.27309(9) 0.16277(13)
H83 H 0.4765 0.2702 0.1599
C54 C 0.40404(11) 0.23736(8) 0.19711(12)
H84 H 0.4240 0.2097 0.2174
C55 C 0.34321(12) 0.24263(8) 0.20143(12)
H85 H 0.3211 0.2182 0.2243
C56 C 0.31477(10) 0.28366(8) 0.17222(11)
H86 H 0.2733 0.2868 0.1770
C57 C 0.33242(9) 0.41873(7) 0.13313(11)
C58 C 0.38974(10) 0.43606(8) 0.12290(12)
H87 H 0.4162 0.4165 0.0969
C59 C 0.40924(12) 0.48097(9) 0.14948(12)
H88 H 0.4486 0.4911 0.1423
C60 C 0.37153(12) 0.51077(8) 0.18631(12)
H89 H 0.3846 0.5415 0.2038
C61 C 0.31460(11) 0.49521(8) 0.19730(13)
H90 H 0.2881 0.5154 0.2221
C62 C 0.29618(10) 0.44956(8) 0.17162(12)
H91 H 0.2573 0.4391 0.1808
C63 C 0.30686(8) 0.36503(7) 0.00804(11)
C64 C 0.31164(9) 0.40586(8) -0.03786(11)
H92 H 0.3170 0.4365 -0.0148
C65 C 0.30875(9) 0.40275(8) -0.11614(12)
H93 H 0.3120 0.4312 -0.1452
C66 C 0.30120(9) 0.35882(8) -0.15217(12)
H94 H 0.3000 0.3568 -0.2055
C67 C 0.29539(9) 0.31759(8) -0.10848(11)
H95 H 0.2893 0.2871 -0.1321
C68 C 0.29852(8) 0.32105(7) -0.03037(11)
H96 H 0.2949 0.2924 -0.0018
O11? O 0.55829(16) 0.16383(14) 0.6262(2)
O12? O 0.59187(15) 0.07137(13) 0.6066(2)
O13? O 0.62570(17) 0.09254(13) 0.4673(2)
O14? O 0.59125(14) 0.18430(12) 0.48667(19)
C43? C 0.5743(4) 0.1341(3) 0.6903(5)
H65? H 0.5386 0.1175 0.7066
H66? H 0.5903 0.1546 0.7324
C44? C 0.6195(4) 0.0977(4) 0.6723(5)
H67? H 0.6568 0.1135 0.6595
H68? H 0.6281 0.0757 0.7153
C45? C 0.6314(2) 0.0396(2) 0.5711(3)
H69? H 0.6083 0.0139 0.5442
H70? H 0.6586 0.0243 0.6098
C46? C 0.6665(6) 0.0664(4) 0.5168(6)
H71? H 0.6943 0.0890 0.5441
H72? H 0.6899 0.0437 0.4878
C47? C 0.6517(4) 0.1298(2) 0.4253(4)
H73? H 0.6287 0.1340 0.3764
H74? H 0.6927 0.1207 0.4150
C48? C 0.6524(6) 0.1771(5) 0.4687(6)
H75? H 0.6789 0.1748 0.5151
H76? H 0.6660 0.2039 0.4374
C49? C 0.5840(6) 0.2227(6) 0.5386(6)
H77? H 0.5431 0.2355 0.5320
H78? H 0.6119 0.2491 0.5290
C50? C 0.5957(6) 0.2043(4) 0.6181(5)
H79? H 0.6378 0.1948 0.6270
H80? H 0.5868 0.2296 0.6548
loop_
_geom_bond_atom_site_label_1
_geom_bond_atom_site_label_2
_geom_bond_site_symmetry_1
_geom_bond_site_symmetry_2
Li1 O1 1_555 1_555
O1 C1 1_555 1_555
O2 Li1 1_555 1_555
O3 Li1 1_555 1_555
O4 Li1 1_555 1_555
O5 Li1 1_555 1_555
C1 H1 1_555 1_555
H2 C1 1_555 1_555
C2 O2 1_555 1_555
H3 C2 1_555 1_555
H4 C2 1_555 1_555
C3 O2 1_555 1_555
H5 C3 1_555 1_555
H6 C3 1_555 1_555
C4 O3 1_555 1_555
H7 C4 1_555 1_555
H8 C4 1_555 1_555
C5 O3 1_555 1_555
H9 C5 1_555 1_555
H10 C5 1_555 1_555
C6 O4 1_555 1_555
H11 C6 1_555 1_555
H12 C6 1_555 1_555
C7 O4 1_555 1_555
H13 C7 1_555 1_555
H14 C7 1_555 1_555
C8 O1 1_555 1_555
H15 C8 1_555 1_555
H16 C8 1_555 1_555
C9 O5 1_555 1_555
H17 C9 1_555 1_555
H18 C9 1_555 1_555
C10 C9 1_555 1_555
H19 C10 1_555 1_555
H20 C10 1_555 1_555
C11 C10 1_555 1_555
H21 C11 1_555 1_555
H22 C11 1_555 1_555
C12 O5 1_555 1_555
H23 C12 1_555 1_555
H24 C12 1_555 1_555
B1 H25 1_555 1_555
C13 B1 1_555 1_555
C14 C13 1_555 1_555
H26 C14 1_555 1_555
C15 C14 1_555 1_555
H27 C15 1_555 1_555
C16 C15 1_555 1_555
H28 C16 1_555 1_555
C17 C16 1_555 1_555
H29 C17 1_555 1_555
C18 C13 1_555 1_555
H30 C18 1_555 1_555
C19 B1 1_555 1_555
C20 C19 1_555 1_555
H31 C20 1_555 1_555
C21 C20 1_555 1_555
H32 C21 1_555 1_555
C22 C21 1_555 1_555
H33 C22 1_555 1_555
C23 C22 1_555 1_555
H34 C23 1_555 1_555
C24 C19 1_555 1_555
H35 C24 1_555 1_555
C25 B1 1_555 1_555
C26 C25 1_555 1_555
H36 C26 1_555 1_555
C27 C26 1_555 1_555
H37 C27 1_555 1_555
C28 C27 1_555 1_555
H38 C28 1_555 1_555
C29 C28 1_555 1_555
H39 C29 1_555 1_555
C30 C25 1_555 1_555
H40 C30 1_555 1_555
Li2 O6 1_555 1_555
O6 C31 1_555 1_555
O7 Li2 1_555 1_555
O8 Li2 1_555 1_555
O9 Li2 1_555 1_555
C31 H41 1_555 1_555
H42 C31 1_555 1_555
C32 O7 1_555 1_555
H43 C32 1_555 1_555
H44 C32 1_555 1_555
C33 O7 1_555 1_555
H45 C33 1_555 1_555
H46 C33 1_555 1_555
C34 O8 1_555 1_555
H47 C34 1_555 1_555
H48 C34 1_555 1_555
C35 O8 1_555 1_555
H49 C35 1_555 1_555
H50 C35 1_555 1_555
C36 O9 1_555 1_555
H51 C36 1_555 1_555
H52 C36 1_555 1_555
C37 O9 1_555 1_555
H53 C37 1_555 1_555
H54 C37 1_555 1_555
C38 O6 1_555 1_555
H55 C38 1_555 1_555
H56 C38 1_555 1_555
O10 Li2 1_555 1_555
C39 O10 1_555 1_555
H57 C39 1_555 1_555
H58 C39 1_555 1_555
C40 C39 1_555 1_555
H59 C40 1_555 1_555
H60 C40 1_555 1_555
C41 C40 1_555 1_555
H61 C41 1_555 1_555
H62 C41 1_555 1_555
C42 O10 1_555 1_555
H63 C42 1_555 1_555
H64 C42 1_555 1_555
B2 H81 1_555 1_555
C51 B2 1_555 1_555
C52 C51 1_555 1_555
H82 C52 1_555 1_555
C53 C52 1_555 1_555
H83 C53 1_555 1_555
C54 C53 1_555 1_555
H84 C54 1_555 1_555
C55 C54 1_555 1_555
H85 C55 1_555 1_555
C56 C51 1_555 1_555
H86 C56 1_555 1_555
C57 B2 1_555 1_555
C58 C57 1_555 1_555
H87 C58 1_555 1_555
C59 C58 1_555 1_555
H88 C59 1_555 1_555
C60 C59 1_555 1_555
H89 C60 1_555 1_555
C61 C60 1_555 1_555
H90 C61 1_555 1_555
C62 C57 1_555 1_555
H91 C62 1_555 1_555
C63 B2 1_555 1_555
C64 C63 1_555 1_555
H92 C64 1_555 1_555
C65 C64 1_555 1_555
H93 C65 1_555 1_555
C66 C65 1_555 1_555
H94 C66 1_555 1_555
C67 C66 1_555 1_555
H95 C67 1_555 1_555
C68 C63 1_555 1_555
H96 C68 1_555 1_555
C1 C2 1_555 1_555
C3 C4 1_555 1_555
C5 C6 1_555 1_555
C7 C8 1_555 1_555
C11 C12 1_555 1_555
C17 C18 1_555 1_555
C23 C24 1_555 1_555
C29 C30 1_555 1_555
C31 C32 1_555 1_555
C33 C34 1_555 1_555
C35 C36 1_555 1_555
C37 C38 1_555 1_555
C41 C42 1_555 1_555
C55 C56 1_555 1_555
C61 C62 1_555 1_555
C67 C68 1_555 1_555

#END
