
#######################################################################
#
#                 Cambridge Crystallographic Data Centre
#                                CCDC 
#
#######################################################################
#
# If this CIF has been generated from an entry in the Cambridge 
# Structural Database, then it will include bibliographic, chemical, 
# crystal, experimental, refinement or atomic coordinate data resulting 
# from the CCDC's data processing and validation procedures.
#
#######################################################################

data_LEDFIM
_chemical_formula_moiety         'C18 H17 N3 O2'
_chemical_name_systematic        
'ethyl 5-(3-methylphenyl)-3-phenyl-1H-1,2,4-triazole-1-carboxylate'
_symmetry_cell_setting           monoclinic
_symmetry_space_group_name_H-M   'P 21/c'
_symmetry_Int_Tables_number      14
_space_group_name_Hall           '-P 2ybc'
loop_
_symmetry_equiv_pos_site_id
_symmetry_equiv_pos_as_xyz
1 x,y,z
2 -x,1/2+y,1/2-z
3 -x,-y,-z
4 x,1/2-y,1/2+z
_cell_length_a                   10.5368(3)
_cell_length_b                   10.0023(2)
_cell_length_c                   15.9591(5)
_cell_angle_alpha                90
_cell_angle_beta                 103.660(3)
_cell_angle_gamma                90
_cell_volume                     1634.39
_cell_formula_units_Z            4
loop_
_atom_site_label
_atom_site_type_symbol
_atom_site_fract_x
_atom_site_fract_y
_atom_site_fract_z
O1 O 0.52306(10) 0.62121(10) 0.12168(6)
N1 N 0.35558(11) 0.52057(11) 0.03101(7)
N2 N 0.35170(11) 0.62681(11) -0.02435(7)
N3 N 0.18154(11) 0.48689(12) -0.07278(8)
O2 O 0.44229(11) 0.43192(11) 0.16452(7)
C1 C 0.44490(13) 0.51762(14) 0.11324(9)
C2 C 0.24632(13) 0.60127(13) -0.08522(9)
C3 C 0.25175(12) 0.43734(13) -0.00043(8)
C4 C 0.22407(13) 0.30726(14) 0.03478(9)
C5 C 0.31511(16) 0.20508(15) 0.04637(10)
H1 H 0.3980 0.2217 0.0378
C6 C 0.20399(13) 0.68566(14) -0.16231(9)
C7 C 0.10053(15) 0.28491(17) 0.04820(11)
H2 H 0.0392 0.3534 0.0403
C8 C 0.2843(2) 0.07799(16) 0.07057(11)
C9 C 0.09391(15) 0.65143(17) -0.22527(10)
H3 H 0.0464 0.5755 -0.2185
C10 C 0.05448(17) 0.7301(2) -0.29821(11)
H4 H -0.0193 0.7066 -0.3404
C11 C 0.27355(18) 0.79847(17) -0.17360(12)
H5 H 0.3478 0.8223 -0.1319
C12 C 0.69740(17) 0.75076(19) 0.20286(12)
H6 H 0.7510 0.7291 0.1638
H7 H 0.7520 0.7677 0.2591
H8 H 0.6465 0.8290 0.1827
C13 C 0.60958(17) 0.63797(19) 0.20750(10)
H9 H 0.6598 0.5571 0.2246
H10 H 0.5588 0.6564 0.2496
C14 C 0.12390(19) 0.84261(19) -0.30852(12)
H11 H 0.0968 0.8958 -0.3573
C15 C 0.1601(2) 0.05829(18) 0.08385(12)
H12 H 0.1373 -0.0259 0.1002
C16 C 0.2330(2) 0.87625(19) -0.24691(14)
H13 H 0.2804 0.9520 -0.2542
C17 C 0.07011(19) 0.1595(2) 0.07345(13)
H14 H -0.0120 0.1435 0.0835
C18 C 0.3818(3) -0.03384(19) 0.08334(16)
H15 H 0.3593 -0.0949 0.0357
H16 H 0.3812 -0.0802 0.1359
H17 H 0.4674 0.0020 0.0866
loop_
_geom_bond_atom_site_label_1
_geom_bond_atom_site_label_2
_geom_bond_site_symmetry_1
_geom_bond_site_symmetry_2
O1 C1 1_555 1_555
N1 N2 1_555 1_555
N2 C2 1_555 1_555
N3 C2 1_555 1_555
O2 C1 1_555 1_555
C1 N1 1_555 1_555
C2 C6 1_555 1_555
C3 N1 1_555 1_555
C4 C3 1_555 1_555
C5 C4 1_555 1_555
H1 C5 1_555 1_555
C6 C9 1_555 1_555
C7 C4 1_555 1_555
H2 C7 1_555 1_555
C8 C5 1_555 1_555
C9 H3 1_555 1_555
C10 C9 1_555 1_555
H4 C10 1_555 1_555
C11 C6 1_555 1_555
H5 C11 1_555 1_555
C12 H6 1_555 1_555
H7 C12 1_555 1_555
H8 C12 1_555 1_555
C13 O1 1_555 1_555
H9 C13 1_555 1_555
H10 C13 1_555 1_555
C14 C10 1_555 1_555
H11 C14 1_555 1_555
C15 C8 1_555 1_555
H12 C15 1_555 1_555
C16 C11 1_555 1_555
H13 C16 1_555 1_555
C17 C7 1_555 1_555
H14 C17 1_555 1_555
C18 C8 1_555 1_555
H15 C18 1_555 1_555
H16 C18 1_555 1_555
H17 C18 1_555 1_555
N3 C3 1_555 1_555
C12 C13 1_555 1_555
C14 C16 1_555 1_555
C15 C17 1_555 1_555

#END
