
#######################################################################
#
#                 Cambridge Crystallographic Data Centre
#                                CCDC 
#
#######################################################################
#
# If this CIF has been generated from an entry in the Cambridge 
# Structural Database, then it will include bibliographic, chemical, 
# crystal, experimental, refinement or atomic coordinate data resulting 
# from the CCDC's data processing and validation procedures.
#
#######################################################################

data_LEDSOC
_chemical_formula_moiety         'C20 H24 O9'
_chemical_name_systematic        'C-(\b-D-Mannopyranosyl)benzene tetra-acetate'
_symmetry_cell_setting           orthorhombic
_symmetry_space_group_name_H-M   'P 21 21 21'
_symmetry_Int_Tables_number      19
_space_group_name_Hall           'P 2ac 2ab'
loop_
_symmetry_equiv_pos_site_id
_symmetry_equiv_pos_as_xyz
1 x,y,z
2 1/2+x,1/2-y,-z
3 -x,1/2+y,1/2-z
4 1/2-x,-y,1/2+z
_cell_length_a                   20.261(7)
_cell_length_b                   10.651(3)
_cell_length_c                   9.995(3)
_cell_angle_alpha                90
_cell_angle_beta                 90
_cell_angle_gamma                90
_cell_volume                     2156.92
_cell_formula_units_Z            4
loop_
_atom_site_label
_atom_site_type_symbol
_atom_site_fract_x
_atom_site_fract_y
_atom_site_fract_z
C1 C 0.8687(2) 0.4711(5) -0.0353(5)
C2 C 0.8079(2) 0.4174(4) -0.1062(6)
C3 C 0.7683(2) 0.3408(5) -0.0085(5)
C4 C 0.8104(2) 0.2441(5) 0.0641(5)
C5 C 0.8712(2) 0.3061(5) 0.1241(5)
C6 C 0.9172(3) 0.2141(6) 0.1893(6)
C7 C 0.9129(2) 0.5490(5) -0.1228(6)
C8 C 0.9791(3) 0.5367(6) -0.1168(7)
C9 C 1.0210(4) 0.6094(8) -0.1959(12)
C10 C 0.9947(5) 0.6953(8) -0.2798(9)
C11 C 0.9283(5) 0.7121(8) -0.2850(9)
C12 C 0.8877(3) 0.6364(7) -0.2063(8)
C13 C 0.7960(3) 0.3454(6) -0.3313(6)
C14 C 0.8276(4) 0.2709(7) -0.4386(6)
C15 C 0.6614(3) 0.3371(6) -0.1086(8)
C16 C 0.6152(3) 0.2604(7) -0.1875(10)
C17 C 0.7619(4) 0.0689(7) 0.1799(7)
C18 C 0.7180(4) 0.0369(7) 0.2970(8)
C19 C 0.9642(3) 0.0154(6) 0.1382(8)
C20 C 0.9794(3) -0.0697(7) 0.0283(7)
O1 O 0.8317(2) 0.3415(3) -0.2158(4)
O2 O 0.7170(2) 0.2711(3) -0.0778(4)
O3 O 0.7708(2) 0.1948(3) 0.1738(4)
O4 O 0.9060(1) 0.3712(3) 0.0226(3)
O5 O 0.9372(2) 0.1238(4) 0.0923(4)
O6 O 0.7459(2) 0.4031(4) -0.3417(5)
O7 O 0.6533(2) 0.4439(4) -0.0755(6)
O8 O 0.7882(3) -0.0036(4) 0.1087(5)
O9 O 0.9744(3) 0.0000(5) 0.2518(6)
H1 H 0.854 0.511 0.012
H2 H 0.781 0.484 -0.146
H3 H 0.741 0.409 0.048
H4 H 0.825 0.167 -0.001
H5 H 0.855 0.357 0.178
H6 H 0.899 0.176 0.273
H7 H 0.949 0.244 0.204
H8 H 1.000 0.470 -0.051
H9 H 1.070 0.590 -0.187
H10 H 1.023 0.746 -0.320
H11 H 0.910 0.783 -0.344
H12 H 0.840 0.651 -0.205
H13 H 0.808 0.279 -0.542
H14 H 0.870 0.295 -0.466
H15 H 0.835 0.187 -0.438
H16 H 0.587 0.304 -0.213
H17 H 0.635 0.224 -0.269
H18 H 0.599 0.169 -0.143
H19 H 0.714 -0.034 0.294
H20 H 0.733 0.073 0.381
H21 H 0.673 0.098 0.288
H22 H 0.999 -0.151 0.066
H23 H 0.935 -0.093 -0.020
H24 H 1.015 -0.034 -0.037
loop_
_geom_bond_atom_site_label_1
_geom_bond_atom_site_label_2
_geom_bond_site_symmetry_1
_geom_bond_site_symmetry_2
C1 C2 1_555 1_555
C2 C3 1_555 1_555
C3 C4 1_555 1_555
C4 C5 1_555 1_555
C5 C6 1_555 1_555
C6 O5 1_555 1_555
C7 C1 1_555 1_555
C8 C7 1_555 1_555
C9 C8 1_555 1_555
C10 C9 1_555 1_555
C11 C10 1_555 1_555
C12 C7 1_555 1_555
C13 C14 1_555 1_555
C14 H13 1_555 1_555
C15 C16 1_555 1_555
C16 H16 1_555 1_555
C17 C18 1_555 1_555
C18 H19 1_555 1_555
C19 C20 1_555 1_555
C20 H22 1_555 1_555
O1 C2 1_555 1_555
O2 C3 1_555 1_555
O3 C4 1_555 1_555
O4 C1 1_555 1_555
O5 C19 1_555 1_555
O6 C13 1_555 1_555
O7 C15 1_555 1_555
O8 C17 1_555 1_555
O9 C19 1_555 1_555
H1 C1 1_555 1_555
H2 C2 1_555 1_555
H3 C3 1_555 1_555
H4 C4 1_555 1_555
H5 C5 1_555 1_555
H6 C6 1_555 1_555
H7 C6 1_555 1_555
H8 C8 1_555 1_555
H9 C9 1_555 1_555
H10 C10 1_555 1_555
H11 C11 1_555 1_555
H12 C12 1_555 1_555
H14 C14 1_555 1_555
H15 C14 1_555 1_555
H17 C16 1_555 1_555
H18 C16 1_555 1_555
H20 C18 1_555 1_555
H21 C18 1_555 1_555
H23 C20 1_555 1_555
H24 C20 1_555 1_555
C5 O4 1_555 1_555
C11 C12 1_555 1_555
C13 O1 1_555 1_555
C15 O2 1_555 1_555
C17 O3 1_555 1_555

#END
