
#######################################################################
#
#                 Cambridge Crystallographic Data Centre
#                                CCDC 
#
#######################################################################
#
# If this CIF has been generated from an entry in the Cambridge 
# Structural Database, then it will include bibliographic, chemical, 
# crystal, experimental, refinement or atomic coordinate data resulting 
# from the CCDC's data processing and validation procedures.
#
#######################################################################

data_LEDXAV
_chemical_name_common            
'2-Isopropyl-5-methylcyclohexyl phenyl(phenyl((1-phenylethyl)amino)methyl)phosphinate'
_chemical_formula_moiety         'C31 H40 N1 O2 P1'
_chemical_name_systematic        
(R~P~)-5-Methyl-2-(propan-2-yl)cyclohexylphenyl(phenyl[(1-phenylethyl)amino]methyl)phosphinate
_symmetry_cell_setting           orthorhombic
_symmetry_space_group_name_H-M   'P 21 21 21'
_symmetry_Int_Tables_number      19
_space_group_name_Hall           'P 2ac 2ab'
loop_
_symmetry_equiv_pos_site_id
_symmetry_equiv_pos_as_xyz
1 x,y,z
2 1/2-x,-y,1/2+z
3 -x,1/2+y,1/2-z
4 1/2+x,1/2-y,-z
_cell_length_a                   5.8944(4)
_cell_length_b                   11.4875(11)
_cell_length_c                   43.795(3)
_cell_angle_alpha                90
_cell_angle_beta                 90
_cell_angle_gamma                90
_cell_volume                     2965.44
_exptl_crystal_colour            colorless
_exptl_crystal_description       needle
_cell_formula_units_Z            4
loop_
_atom_site_label
_atom_site_type_symbol
_atom_site_fract_x
_atom_site_fract_y
_atom_site_fract_z
P1 P 0.5520(2) 0.76657(8) 0.88670(2)
O1 O 0.3082(4) 0.8007(2) 0.88595(5)
O2 O 0.6330(5) 0.6838(2) 0.85959(5)
C1 C 0.6336(7) 0.6944(3) 0.92173(8)
C2 C 0.7490(7) 0.8903(3) 0.88450(8)
H1 H 0.9020 0.8620 0.8892
N1 N 0.6732(6) 0.9656(3) 0.90980(6)
H2 H 0.5492 0.9534 0.9196
C3 C 0.6882(8) 1.1516(4) 0.93517(9)
C4 C 0.7547(7) 0.9499(3) 0.85307(8)
C5 C 0.5780(8) 1.0195(3) 0.84330(8)
H3 H 0.4505 1.0280 0.8556
C6 C 0.5898(8) 1.1229(4) 0.96267(10)
H4 H 0.6112 1.0489 0.9708
C7 C 0.4582(9) 1.2039(4) 0.97855(10)
H5 H 0.3930 1.1833 0.9971
C8 C 0.5873(11) 1.0776(4) 0.81516(10)
H6 H 0.4659 1.1230 0.8087
C9 C 0.3980(9) 0.5066(4) 0.86151(10)
H7 H 0.3327 0.5312 0.8808
H8 H 0.5328 0.4611 0.8659
C10 C 0.4635(8) 0.6132(3) 0.84289(9)
H9 H 0.3274 0.6607 0.8397
C11 C 0.9441(9) 0.9389(3) 0.83448(9)
H10 H 1.0650 0.8925 0.8407
C12 C 0.8250(8) 1.0628(4) 0.91695(9)
H11 H 0.8729 1.0990 0.8978
C13 C 0.5629(9) 0.5816(4) 0.81157(9)
H12 H 0.6976 0.5336 0.8153
C14 C 0.6407(9) 0.6881(5) 0.79321(10)
H13 H 0.7477 0.7311 0.8061
C15 C 0.4904(9) 0.7036(3) 0.94717(9)
H14 H 0.3523 0.7422 0.9455
C16 C 0.4242(10) 1.3132(4) 0.96705(12)
H15 H 0.3334 1.3664 0.9774
C17 C 0.7526(14) 0.5994(5) 0.97769(13)
H16 H 0.7951 0.5692 0.9965
C18 C 0.7780(11) 1.0666(4) 0.79723(11)
H17 H 0.7876 1.1063 0.7788
C19 C 0.8352(10) 0.6366(4) 0.92483(11)
H18 H 0.9331 0.6305 0.9083
C20 C 0.4468(12) 0.7729(4) 0.78504(10)
H19 H 0.3358 0.7332 0.7729
H20 H 0.5070 0.8375 0.7737
H21 H 0.3770 0.8008 0.8034
C21 C 0.9541(10) 0.9969(4) 0.80666(10)
H22 H 1.0813 0.9884 0.7943
C22 C 0.2269(11) 0.4310(4) 0.84434(14)
H23 H 0.0887 0.4768 0.8411
C23 C 0.5555(13) 0.6546(4) 0.97495(10)
H24 H 0.4598 0.6606 0.9918
C24 C 0.3911(11) 0.5050(4) 0.79464(11)
H25 H 0.2565 0.5505 0.7901
H26 H 0.4562 0.4799 0.7754
C25 C 0.3236(12) 0.3980(5) 0.81329(13)
H27 H 0.2113 0.3536 0.8020
H28 H 0.4556 0.3488 0.8162
C26 C 1.0347(10) 1.0229(5) 0.93405(13)
H29 H 0.9902 0.9788 0.9517
H30 H 1.1208 1.0896 0.9404
H31 H 1.1260 0.9752 0.9209
C27 C 0.7718(11) 0.6516(6) 0.76396(10)
H32 H 0.6666 0.6223 0.7491
H33 H 0.8796 0.5919 0.7690
H34 H 0.8500 0.7178 0.7557
C28 C 0.5261(12) 1.3428(4) 0.94010(13)
H35 H 0.5115 1.4178 0.9324
C29 C 0.6501(10) 1.2608(4) 0.92445(10)
H36 H 0.7110 1.2812 0.9056
C30 C 0.1640(14) 0.3211(5) 0.86320(14)
H37 H 0.2866 0.2661 0.8623
H38 H 0.0294 0.2863 0.8549
H39 H 0.1372 0.3429 0.8841
C31 C 0.8951(11) 0.5864(5) 0.95296(14)
H40 H 1.0297 0.5447 0.9549
loop_
_geom_bond_atom_site_label_1
_geom_bond_atom_site_label_2
_geom_bond_site_symmetry_1
_geom_bond_site_symmetry_2
P1 O1 1_555 1_555
O2 P1 1_555 1_555
C1 P1 1_555 1_555
C2 P1 1_555 1_555
H1 C2 1_555 1_555
N1 C2 1_555 1_555
H2 N1 1_555 1_555
C3 C6 1_555 1_555
C4 C2 1_555 1_555
C5 C4 1_555 1_555
H3 C5 1_555 1_555
C6 H4 1_555 1_555
C7 C6 1_555 1_555
H5 C7 1_555 1_555
C8 C5 1_555 1_555
H6 C8 1_555 1_555
C9 H7 1_555 1_555
H8 C9 1_555 1_555
C10 O2 1_555 1_555
H9 C10 1_555 1_555
C11 C4 1_555 1_555
H10 C11 1_555 1_555
C12 N1 1_555 1_555
H11 C12 1_555 1_555
C13 C10 1_555 1_555
H12 C13 1_555 1_555
C14 C13 1_555 1_555
H13 C14 1_555 1_555
C15 C1 1_555 1_555
H14 C15 1_555 1_555
C16 C7 1_555 1_555
H15 C16 1_555 1_555
C17 H16 1_555 1_555
C18 C8 1_555 1_555
H17 C18 1_555 1_555
C19 C1 1_555 1_555
H18 C19 1_555 1_555
C20 C14 1_555 1_555
H19 C20 1_555 1_555
H20 C20 1_555 1_555
H21 C20 1_555 1_555
C21 C11 1_555 1_555
H22 C21 1_555 1_555
C22 C9 1_555 1_555
H23 C22 1_555 1_555
C23 C15 1_555 1_555
H24 C23 1_555 1_555
C24 C13 1_555 1_555
H25 C24 1_555 1_555
H26 C24 1_555 1_555
C25 C22 1_555 1_555
H27 C25 1_555 1_555
H28 C25 1_555 1_555
C26 C12 1_555 1_555
H29 C26 1_555 1_555
H30 C26 1_555 1_555
H31 C26 1_555 1_555
C27 C14 1_555 1_555
H32 C27 1_555 1_555
H33 C27 1_555 1_555
H34 C27 1_555 1_555
C28 C16 1_555 1_555
H35 C28 1_555 1_555
C29 C3 1_555 1_555
H36 C29 1_555 1_555
C30 C22 1_555 1_555
H37 C30 1_555 1_555
H38 C30 1_555 1_555
H39 C30 1_555 1_555
C31 C17 1_555 1_555
H40 C31 1_555 1_555
C3 C12 1_555 1_555
C9 C10 1_555 1_555
C17 C23 1_555 1_555
C18 C21 1_555 1_555
C19 C31 1_555 1_555
C24 C25 1_555 1_555
C28 C29 1_555 1_555

#END
