
#######################################################################
#
#                 Cambridge Crystallographic Data Centre
#                                CCDC 
#
#######################################################################
#
# If this CIF has been generated from an entry in the Cambridge 
# Structural Database, then it will include bibliographic, chemical, 
# crystal, experimental, refinement or atomic coordinate data resulting 
# from the CCDC's data processing and validation procedures.
#
#######################################################################

data_LEFPEU
_chemical_formula_moiety         'C65 H63 N3 O6 S18,C60,C1 H2 Cl2'
_chemical_name_systematic        
'1-methyl-20,23,35,38,80,83-hexaoxa-11,14,17,26,28,30,32,41,44,47,66,68,75,76,77,86,87,88-octadecathia-7,51,62-triazapentadecacyclo[27.27.11.10^15,43^.2^2,5^.2^53,56^.2^57,60^.1^7,10^.1^9,12^.1^13,16^.1^42,45^.1^46,49^.1^48,51^.1^62,65^.1^64,67^.0^27,31^]hennonaconta-2,4,8,10(89),12,15,27(31),29(67),42,45,48(74),49,53,55,57,59,63,65(69),70,72,90-henicosaene C60fullerene dichloromethane solvate'
_symmetry_cell_setting           monoclinic
_symmetry_space_group_name_H-M   'P 21/a'
_symmetry_Int_Tables_number      14
_space_group_name_Hall           '-P 2yab'
loop_
_symmetry_equiv_pos_site_id
_symmetry_equiv_pos_as_xyz
1 x,y,z
2 1/2-x,1/2+y,-z
3 -x,-y,-z
4 1/2+x,1/2-y,z
_cell_length_a                   16.902(3)
_cell_length_b                   26.870(5)
_cell_length_c                   21.474(4)
_cell_angle_alpha                90
_cell_angle_beta                 92.102(7)
_cell_angle_gamma                90
_cell_volume                     9746
_exptl_crystal_colour            black
_exptl_crystal_description       block
_cell_formula_units_Z            4
loop_
_atom_site_label
_atom_site_type_symbol
_atom_site_fract_x
_atom_site_fract_y
_atom_site_fract_z
S1 S -0.22396(7) 0.01933(4) 1.03610(6)
S2 S -0.16962(8) -0.09157(4) 1.02578(6)
S3 S -0.38780(7) -0.00524(5) 0.99671(7)
S4 S -0.32871(7) -0.12288(5) 0.97364(7)
S5 S 0.2337(2) 0.28543(12) 0.8458(3)
S6 S 0.31847(18) 0.06226(8) 0.84226(10)
S7 S -0.24490(8) 0.12920(5) 1.00779(7)
S8 S -0.43325(8) 0.10320(5) 0.98160(7)
S9 S 0.25091(11) 0.17339(5) 0.70032(7)
S10 S -0.26102(18) 0.01939(12) 0.43311(16)
S11 S 0.30379(17) 0.05623(6) 0.70218(8)
S12 S -0.30865(18) -0.11956(13) 0.53503(12)
S13 S 0.26971(10) 0.17588(6) 0.83796(7)
S14 S -0.27878(12) 0.12903(6) 0.43256(8)
S15 S 0.21294(11) 0.28347(6) 0.69409(7)
S16 S -0.19743(17) -0.08819(10) 0.43793(13)
S17 S -0.37926(14) 0.00067(10) 0.52639(10)
S18 S -0.39738(12) 0.11057(7) 0.55238(11)
O1 O 0.0292(2) 0.25380(14) 0.92453(17)
N1 N -0.1616(2) -0.22243(14) 0.94468(19)
C1 C -0.3600(3) 0.05811(18) 0.9935(2)
N2 N 0.3526(3) -0.07284(16) 0.7797(2)
C2 C -0.2903(3) -0.02700(18) 1.0082(2)
C3 C 0.2723(3) 0.1399(2) 0.7694(3)
C4 C -0.3021(4) -0.0239(2) 0.4842(3)
C5 C -0.1735(3) -0.14828(17) 0.9866(2)
C6 C 0.1813(3) -0.19393(19) 0.8001(2)
H1 H 0.136810 -0.192007 0.825775
C7 C -0.2399(3) -0.20947(18) 0.9366(2)
H2 H -0.280211 -0.229062 0.916706
O2 O -0.0813(3) 0.18695(16) 0.9802(2)
C8 C -0.2661(3) -0.07390(17) 1.0017(2)
C9 C -0.1211(3) -0.18513(18) 0.9752(2)
H3 H -0.066240 -0.185026 0.986423
C10 C 0.0046(3) -0.29942(18) 0.8939(2)
H4 H 0.008443 -0.320286 0.929612
C11 C -0.2496(3) -0.16343(17) 0.9622(2)
C12 C 0.2395(3) 0.2311(2) 0.8002(3)
C13 C 0.0702(3) -0.2247(2) 0.6540(2)
H5 H 0.099582 -0.196500 0.668102
C14 C -0.1700(4) -0.1414(2) 0.4810(3)
N3 N -0.1255(3) -0.21225(18) 0.5179(2)
C15 C -0.1271(3) -0.27098(17) 0.9304(2)
H6 H -0.169223 -0.292613 0.911944
H7 H -0.107677 -0.286645 0.969762
C16 C -0.0598(3) -0.26847(17) 0.8862(2)
C17 C 0.1230(3) -0.27297(19) 0.7491(2)
C18 C 0.1625(3) 0.2670(2) 0.9021(3)
H8 H 0.158(3) 0.293(2) 0.932(3)
C19 C 0.3312(3) 0.0039(2) 0.8082(3)
C20 C 0.0609(3) -0.27084(18) 0.7991(2)
C21 C -0.0239(4) -0.2612(2) 0.5798(2)
O3 O -0.5026(3) 0.1348(2) 0.6574(2)
C22 C 0.3074(3) -0.1605(2) 0.7714(3)
C23 C 0.0789(3) -0.26978(19) 0.6855(2)
C24 C 0.3506(3) -0.0420(2) 0.8295(3)
H9 H 0.360900 -0.051028 0.871754
C25 C -0.2841(3) 0.06896(17) 1.0102(2)
C26 C 0.0394(4) -0.3109(2) 0.6614(2)
H10 H 0.047443 -0.342480 0.680610
C27 C 0.1687(4) -0.3233(2) 0.7534(3)
H11 H 0.208258 -0.324329 0.721231
H12 H 0.195114 -0.326280 0.794614
H13 H 0.131324 -0.350888 0.747074
C28 C 0.2937(3) 0.0922(2) 0.7698(3)
C29 C 0.3215(3) 0.0011(2) 0.7423(2)
C30 C 0.0803(3) 0.2578(2) 0.8746(3)
H14 H 0.063764 0.285728 0.846998
H15 H 0.079333 0.226752 0.849812
C31 C 0.3756(3) -0.1253(2) 0.7819(3)
H16 H 0.401382 -0.132441 0.823088
H17 H 0.415014 -0.131460 0.749818
C32 C -0.4729(4) 0.0888(2) 0.9053(3)
H18 H -0.494763 0.054595 0.904997
H19 H -0.516461 0.112100 0.894157
C33 C -0.2229(4) -0.1571(2) 0.5245(3)
C34 C -0.2722(4) -0.0712(2) 0.4869(3)
C35 C 0.3340(4) -0.0474(2) 0.7260(3)
H20 H 0.330383 -0.060826 0.685040
O4 O -0.1256(3) 0.19828(19) 0.5488(3)
C36 C -0.3035(4) 0.0709(2) 0.4652(3)
O5 O 0.0030(3) 0.24593(19) 0.6158(2)
C37 C 0.0635(3) -0.30105(18) 0.8514(2)
H21 H 0.106727 -0.323267 0.858092
C38 C 0.2413(3) -0.1588(2) 0.8071(3)
H22 H 0.236664 -0.133138 0.837175
C39 C -0.1444(3) 0.1217(2) 1.0369(3)
H23 H -0.143729 0.106517 1.078972
H24 H -0.115226 0.099413 1.009032
C40 C -0.0045(3) -0.2390(2) 0.7919(2)
H25 H -0.008669 -0.217948 0.756450
C41 C 0.0189(4) -0.2206(2) 0.6023(3)
H26 H 0.013019 -0.189342 0.581979
C42 C -0.0628(3) -0.23750(19) 0.8349(2)
H27 H -0.105616 -0.214866 0.829176
C43 C 0.1850(3) -0.2315(2) 0.7566(2)
C44 C -0.1105(4) -0.1749(2) 0.4771(3)
H28 H -0.066540 -0.172700 0.450862
C45 C 0.2306(4) 0.2300(2) 0.7386(3)
C46 C -0.0122(4) -0.3069(2) 0.6093(3)
H29 H -0.039411 -0.335525 0.593922
O6 O -0.4369(4) 0.07991(19) 0.7981(2)
C47 C 0.1381(4) 0.2632(2) 0.6415(3)
H30 H 0.130180 0.289082 0.609155
H31 H 0.157230 0.232884 0.620556
C48 C -0.3569(4) 0.0629(2) 0.5083(3)
C49 C -0.0513(3) 0.2473(2) 0.9052(3)
H32 H -0.056295 0.219495 0.875055
H33 H -0.071570 0.277940 0.884473
C50 C 0.2518(4) -0.2323(3) 0.7190(3)
H34 H 0.256088 -0.257433 0.688140
C51 C -0.1053(4) 0.1722(2) 1.0398(3)
H35 H -0.142881 0.196980 1.055786
H36 H -0.058592 0.170992 1.069021
C52 C -0.0982(3) 0.2363(2) 0.9614(3)
H37 H -0.083508 0.259721 0.995478
H38 H -0.155497 0.239977 0.951229
C53 C -0.4648(5) 0.1197(3) 0.7618(4)
H39 H -0.424044 0.146070 0.759690
H40 H -0.513103 0.134071 0.779233
C54 C 0.0596(4) 0.2516(3) 0.6673(3)
H41 H 0.062758 0.220518 0.692015
H42 H 0.043005 0.278920 0.694889
C55 C -0.4963(5) 0.0845(4) 0.5654(4)
H43 H -0.523460 0.077181 0.524834
H44 H -0.490802 0.052884 0.588943
C56 C -0.1294(5) 0.2469(3) 0.5769(4)
H45 H -0.184326 0.254078 0.588828
H46 H -0.113530 0.272592 0.546749
C57 C -0.1945(4) -0.2017(2) 0.5469(3)
H47 H -0.218548 -0.221810 0.577258
C58 C -0.4105(4) 0.0926(3) 0.8591(3)
H48 H -0.390118 0.127164 0.859034
H49 H -0.366069 0.070439 0.871930
C59 C -0.0796(5) -0.2583(2) 0.5234(3)
H50 H -0.048317 -0.261989 0.485564
H51 H -0.116802 -0.286671 0.524514
C60 C -0.1870(5) 0.1448(3) 0.4738(4)
H52 H -0.167837 0.115424 0.497775
H53 H -0.146671 0.153104 0.443158
C61 C 0.3105(3) -0.1975(3) 0.7262(3)
H54 H 0.354350 -0.198633 0.699766
C62 C -0.0741(4) 0.2484(3) 0.6344(4)
H55 H -0.082356 0.279586 0.657871
H56 H -0.085340 0.219979 0.662052
C63 C -0.4832(5) 0.0972(3) 0.6961(4)
H57 H -0.436291 0.079394 0.681190
H58 H -0.527659 0.073305 0.697880
C64 C -0.1952(6) 0.1865(4) 0.5162(5)
H59 H -0.213345 0.216038 0.492073
H60 H -0.236318 0.178461 0.546264
C65 C -0.5432(5) 0.1196(4) 0.6002(4)
H61 H -0.554735 0.149264 0.574132
H62 H -0.594309 0.103949 0.610094
H63 H 0.171(10) 0.237(7) 0.912(8)
Cl1 Cl -0.4648(2) -0.05488(17) 0.6896(2)
Cl2 Cl -0.44411(12) -0.06511(9) 0.82187(14)
C66 C -0.4668(4) -0.0298(3) 0.7599(4)
H66 H -0.520735 -0.016381 0.765114
H67 H -0.430118 -0.001060 0.760790
C67 C -0.0956(7) -0.0121(3) 0.5792(4)
C68 C -0.0204(4) 0.1333(3) 0.7427(4)
C69 C -0.0026(7) 0.1012(4) 0.8446(4)
C70 C -0.1606(6) -0.0482(4) 0.8716(5)
C71 C -0.2434(4) -0.0579(3) 0.7797(6)
C72 C -0.1302(5) -0.1107(3) 0.8022(5)
C73 C 0.0439(5) 0.0913(3) 0.6593(4)
C74 C -0.1240(5) -0.1222(3) 0.7340(6)
C75 C 0.1168(4) 0.0397(4) 0.8030(5)
C76 C -0.0171(5) 0.1221(3) 0.6787(5)
C77 C -0.1786(5) -0.1008(3) 0.6936(5)
C78 C -0.0449(7) 0.0250(4) 0.9062(4)
C79 C 0.0179(5) -0.1004(3) 0.8072(4)
C80 C -0.0451(5) -0.1208(3) 0.7078(5)
C81 C -0.0548(5) -0.1001(3) 0.8375(4)
C82 C -0.1953(7) 0.0390(3) 0.6127(5)
C83 C -0.0573(7) -0.0994(3) 0.6447(4)
C84 C 0.0956(4) 0.0825(3) 0.7668(5)
C85 C -0.0712(8) -0.0617(5) 0.8812(4)
C86 C -0.0995(5) 0.1348(3) 0.7745(5)
C87 C -0.2687(4) -0.0060(4) 0.7872(7)
C88 C -0.1905(5) -0.0802(4) 0.8217(5)
C89 C -0.2387(6) 0.0201(4) 0.8342(8)
C90 C 0.0219(5) -0.1093(3) 0.7410(4)
C91 C -0.1646(6) 0.1246(3) 0.7386(5)
C92 C 0.0369(4) 0.1138(3) 0.7885(5)
C93 C 0.0860(5) -0.0778(3) 0.7182(4)
C94 C -0.2597(5) -0.0263(4) 0.6764(5)
C95 C -0.0874(7) 0.1133(4) 0.8377(5)
C96 C 0.0543(6) -0.0264(4) 0.8680(4)
C97 C -0.2578(6) 0.0619(5) 0.7092(8)
C98 C -0.0882(6) 0.1130(3) 0.6450(4)
C99 C -0.0738(10) 0.0742(4) 0.6009(4)
C100 C 0.1223(5) 0.0194(4) 0.6937(7)
C101 C -0.2794(4) 0.0171(4) 0.7196(7)
C102 C -0.1590(11) -0.0439(4) 0.6047(5)
C103 C -0.2399(5) -0.0688(3) 0.7135(6)
C104 C -0.2142(5) 0.0743(4) 0.8203(5)
C105 C -0.1125(10) 0.0395(4) 0.5854(4)
C106 C -0.1383(8) -0.0866(3) 0.6363(5)
C107 C -0.1578(6) 0.1143(3) 0.6747(5)
C108 C -0.2187(7) 0.0754(4) 0.6581(7)
C109 C -0.0265(11) -0.0263(5) 0.8963(4)
C110 C 0.0157(7) 0.0567(4) 0.8790(4)
C111 C 0.1169(5) -0.0471(5) 0.7743(10)
C112 C 0.0774(5) -0.0611(4) 0.8231(4)
C113 C 0.0758(6) 0.0271(4) 0.8570(5)
C114 C 0.0093(8) -0.0671(4) 0.6223(5)
C115 C -0.1843(6) 0.0020(5) 0.8760(4)
C116 C 0.0741(7) -0.0614(4) 0.6614(6)
C117 C 0.0942(8) -0.0063(4) 0.6475(7)
C118 C -0.1503(7) 0.0818(4) 0.8583(5)
C119 C 0.0986(4) 0.0724(3) 0.7013(4)
C120 C -0.2298(5) 0.0906(3) 0.7628(5)
C121 C -0.0171(8) -0.0274(4) 0.5871(4)
C122 C 0.0168(6) 0.0609(4) 0.6109(5)
C123 C -0.1274(7) 0.0388(4) 0.8924(4)
C124 C -0.2128(9) -0.0114(4) 0.6197(6)
C125 C 0.0407(8) 0.0145(5) 0.6060(5)
C126 C 0.1342(4) -0.0024(4) 0.7604(7)
H64? H -0.453366 0.073921 0.595182
H65? H -0.530903 0.055015 0.559411
S19? S 0.2481(13) 0.0488(5) 0.7054(5)
S20? S -0.4600(19) 0.0900(9) 0.5098(10)
S21? S -0.154(2) -0.0793(6) 0.4413(10)
S22? S -0.2268(16) 0.0218(8) 0.4314(9)
S23? S 0.215(7) 0.2864(11) 0.821(6)
S24? S -0.284(2) -0.1171(8) 0.515(2)
S25? S 0.2875(13) 0.0597(8) 0.8437(10)
S26? S -0.365(2) -0.0089(10) 0.513(2)
Cl3? Cl -0.4715(13) -0.0523(5) 0.6667(14)
loop_
_geom_bond_atom_site_label_1
_geom_bond_atom_site_label_2
_geom_bond_site_symmetry_1
_geom_bond_site_symmetry_2
S1 C2 1_555 1_555
S2 C5 1_555 1_555
S3 C1 1_555 1_555
S4 C8 1_555 1_555
S5 C12 1_555 1_555
S6 C19 1_555 1_555
S7 C25 1_555 1_555
S8 C1 1_555 1_555
S9 C3 1_555 1_555
S10 C4 1_555 1_555
S11 C28 1_555 1_555
S12 C33 1_555 1_555
S13 C3 1_555 1_555
S14 C36 1_555 1_555
S15 C45 1_555 1_555
S16 C14 1_555 1_555
S17 C4 1_555 1_555
S18 C48 1_555 1_555
O1 C30 1_555 1_555
N1 C7 1_555 1_555
C1 C25 1_555 1_555
N2 C24 1_555 1_555
C2 S3 1_555 1_555
C3 C28 1_555 1_555
C4 C34 1_555 1_555
C5 C9 1_555 1_555
C6 H1 1_555 1_555
C7 H2 1_555 1_555
O2 C51 1_555 1_555
C8 S2 1_555 1_555
C9 N1 1_555 1_555
H3 C9 1_555 1_555
C10 H4 1_555 1_555
C11 S4 1_555 1_555
C12 S13 1_555 1_555
C13 H5 1_555 1_555
C14 C33 1_555 1_555
N3 C44 1_555 1_555
C15 N1 1_555 1_555
H6 C15 1_555 1_555
H7 C15 1_555 1_555
C16 C10 1_555 1_555
C17 C20 1_555 1_555
C18 S5 1_555 1_555
H8 C18 1_555 1_555
C19 C24 1_555 1_555
C20 C37 1_555 1_555
C21 C41 1_555 1_555
O3 C63 1_555 1_555
C22 C31 1_555 1_555
C23 C13 1_555 1_555
C24 H9 1_555 1_555
C25 S1 1_555 1_555
C26 C23 1_555 1_555
H10 C26 1_555 1_555
C27 C17 1_555 1_555
H11 C27 1_555 1_555
H12 C27 1_555 1_555
H13 C27 1_555 1_555
C28 S6 1_555 1_555
C29 S11 1_555 1_555
C30 C18 1_555 1_555
H14 C30 1_555 1_555
H15 C30 1_555 1_555
C31 N2 1_555 1_555
H16 C31 1_555 1_555
H17 C31 1_555 1_555
C32 S8 1_555 1_555
H18 C32 1_555 1_555
H19 C32 1_555 1_555
C33 C57 1_555 1_555
C34 S12 1_555 1_555
C35 N2 1_555 1_555
H20 C35 1_555 1_555
O4 C56 1_555 1_555
C36 S10 1_555 1_555
O5 C54 1_555 1_555
C37 C10 1_555 1_555
H21 C37 1_555 1_555
C38 C6 1_555 1_555
H22 C38 1_555 1_555
C39 S7 1_555 1_555
H23 C39 1_555 1_555
H24 C39 1_555 1_555
C40 C20 1_555 1_555
H25 C40 1_555 1_555
C41 C13 1_555 1_555
H26 C41 1_555 1_555
C42 C16 1_555 1_555
H27 C42 1_555 1_555
C43 C6 1_555 1_555
C44 C14 1_555 1_555
H28 C44 1_555 1_555
C45 S9 1_555 1_555
C46 C21 1_555 1_555
H29 C46 1_555 1_555
O6 C53 1_555 1_555
C47 S15 1_555 1_555
H30 C47 1_555 1_555
H31 C47 1_555 1_555
C48 S17 1_555 1_555
C49 O1 1_555 1_555
H32 C49 1_555 1_555
H33 C49 1_555 1_555
C50 C43 1_555 1_555
H34 C50 1_555 1_555
C51 C39 1_555 1_555
H35 C51 1_555 1_555
H36 C51 1_555 1_555
C52 O2 1_555 1_555
H37 C52 1_555 1_555
H38 C52 1_555 1_555
C53 H39 1_555 1_555
H40 C53 1_555 1_555
C54 C47 1_555 1_555
H41 C54 1_555 1_555
H42 C54 1_555 1_555
C55 S18 1_555 1_555
H43 C55 1_555 1_555
H44 C55 1_555 1_555
C56 H45 1_555 1_555
H46 C56 1_555 1_555
C57 N3 1_555 1_555
H47 C57 1_555 1_555
C58 C32 1_555 1_555
H48 C58 1_555 1_555
H49 C58 1_555 1_555
C59 N3 1_555 1_555
H50 C59 1_555 1_555
H51 C59 1_555 1_555
C60 S14 1_555 1_555
H52 C60 1_555 1_555
H53 C60 1_555 1_555
C61 C22 1_555 1_555
H54 C61 1_555 1_555
C62 O5 1_555 1_555
H55 C62 1_555 1_555
H56 C62 1_555 1_555
C63 C53 1_555 1_555
H57 C63 1_555 1_555
H58 C63 1_555 1_555
C64 O4 1_555 1_555
H59 C64 1_555 1_555
H60 C64 1_555 1_555
C65 O3 1_555 1_555
H61 C65 1_555 1_555
H62 C65 1_555 1_555
H63 C18 1_555 1_555
Cl1 C66 1_555 1_555
Cl2 C66 1_555 1_555
C66 H66 1_555 1_555
H67 C66 1_555 1_555
C67 C102 1_555 1_555
C68 C76 1_555 1_555
C69 C92 1_555 1_555
C70 C85 1_555 1_555
C71 C87 1_555 1_555
C72 C74 1_555 1_555
C73 C76 1_555 1_555
C74 C77 1_555 1_555
C75 C84 1_555 1_555
C76 C98 1_555 1_555
C77 C103 1_555 1_555
C78 C109 1_555 1_555
C79 C81 1_555 1_555
C80 C74 1_555 1_555
C81 C72 1_555 1_555
C82 C105 1_555 1_555
C83 C80 1_555 1_555
C84 C92 1_555 1_555
C85 C81 1_555 1_555
C86 C68 1_555 1_555
C87 C89 1_555 1_555
C88 C70 1_555 1_555
C89 C104 1_555 1_555
C90 C79 1_555 1_555
C91 C86 1_555 1_555
C92 C68 1_555 1_555
C93 C90 1_555 1_555
C94 C101 1_555 1_555
C95 C69 1_555 1_555
C96 C109 1_555 1_555
C97 C101 1_555 1_555
C98 C99 1_555 1_555
C99 C105 1_555 1_555
C100 C117 1_555 1_555
C101 C87 1_555 1_555
C102 C106 1_555 1_555
C103 C71 1_555 1_555
C104 C118 1_555 1_555
C105 C67 1_555 1_555
C106 C77 1_555 1_555
C107 C91 1_555 1_555
C108 C82 1_555 1_555
C109 C85 1_555 1_555
C110 C69 1_555 1_555
C111 C93 1_555 1_555
C112 C79 1_555 1_555
C113 C75 1_555 1_555
C114 C83 1_555 1_555
C115 C70 1_555 1_555
C116 C93 1_555 1_555
C117 C116 1_555 1_555
C118 C95 1_555 1_555
C119 C73 1_555 1_555
C120 C91 1_555 1_555
C121 C67 1_555 1_555
C122 C73 1_555 1_555
C123 C78 1_555 1_555
C124 C82 1_555 1_555
C125 C117 1_555 1_555
C126 C75 1_555 1_555
S16 C34 1_555 1_555
C2 C8 1_555 1_555
C5 C11 1_555 1_555
C7 C11 1_555 1_555
C12 C45 1_555 1_555
C15 C16 1_555 1_555
C17 C23 1_555 1_555
C17 C43 1_555 1_555
C19 C29 1_555 1_555
C21 C59 1_555 1_555
C22 C38 1_555 1_555
C26 C46 1_555 1_555
C29 C35 1_555 1_555
C36 C48 1_555 1_555
C40 C42 1_555 1_555
O6 C58 1_555 1_555
C49 C52 1_555 1_555
C50 C61 1_555 1_555
C55 C65 1_555 1_555
C56 C62 1_555 1_555
C60 C64 1_555 1_555
C71 C88 1_555 1_555
C72 C88 1_555 1_555
C78 C110 1_555 1_555
C80 C90 1_555 1_555
C83 C106 1_555 1_555
C84 C119 1_555 1_555
C86 C95 1_555 1_555
C89 C115 1_555 1_555
C94 C103 1_555 1_555
C94 C124 1_555 1_555
C96 C112 1_555 1_555
C96 C113 1_555 1_555
C97 C108 1_555 1_555
C97 C120 1_555 1_555
C98 C107 1_555 1_555
C99 C122 1_555 1_555
C100 C119 1_555 1_555
C100 C126 1_555 1_555
C102 C124 1_555 1_555
C104 C120 1_555 1_555
C107 C108 1_555 1_555
C110 C113 1_555 1_555
C111 C112 1_555 1_555
C111 C126 1_555 1_555
C114 C116 1_555 1_555
C114 C121 1_555 1_555
C115 C123 1_555 1_555
C118 C123 1_555 1_555
C121 C125 1_555 1_555
C122 C125 1_555 1_555

#END
