
#######################################################################
#
#                 Cambridge Crystallographic Data Centre
#                                CCDC 
#
#######################################################################
#
# If this CIF has been generated from an entry in the Cambridge 
# Structural Database, then it will include bibliographic, chemical, 
# crystal, experimental, refinement or atomic coordinate data resulting 
# from the CCDC's data processing and validation procedures.
#
#######################################################################

data_LEFSOG
_chemical_name_common            
4-([(1S,2R)-2-Hydroxyindan-1-yl]amino)pent-3-en-2-one
_chemical_formula_moiety         'C14 H17 N1 O2'
_chemical_name_systematic        
4-((2-Hydroxy-2,3-dihydro-1H-inden-1-yl)amino)pent-3-en-2-one
_symmetry_cell_setting           orthorhombic
_symmetry_space_group_name_H-M   'P 21 21 21'
_symmetry_Int_Tables_number      19
_space_group_name_Hall           'P 2ac 2ab'
loop_
_symmetry_equiv_pos_site_id
_symmetry_equiv_pos_as_xyz
1 x,y,z
2 1/2-x,-y,1/2+z
3 -x,1/2+y,1/2-z
4 1/2+x,1/2-y,-z
_cell_length_a                   8.3472(5)
_cell_length_b                   11.2211(7)
_cell_length_c                   13.4104(9)
_cell_angle_alpha                90
_cell_angle_beta                 90
_cell_angle_gamma                90
_cell_volume                     1256.08
_exptl_crystal_colour            white
_exptl_crystal_description       block
_cell_formula_units_Z            4
_exptl_crystal_recrystallization_method hexane
loop_
_atom_site_label
_atom_site_type_symbol
_atom_site_fract_x
_atom_site_fract_y
_atom_site_fract_z
N1 N 0.3729(3) 0.46783(17) 0.05082(14)
H1 H 0.397(3) 0.429(2) 0.1058(17)
O1 O 0.5423(2) 0.58830(16) 0.19665(13)
H2 H 0.564(4) 0.634(3) 0.240(2)
O2 O 0.3822(2) 0.25196(16) 0.14989(12)
C1 C 0.1505(4) 0.8140(3) 0.2132(2)
H3 H 0.1775 0.8852 0.2445
C2 C -0.0019(5) 0.7674(4) 0.2230(2)
H4 H -0.0781 0.8080 0.2606
C3 C -0.0421(4) 0.6613(4) 0.1774(2)
H5 H -0.1451 0.6311 0.1848
C4 C 0.0692(3) 0.5991(3) 0.1208(2)
H6 H 0.0420 0.5274 0.0904
C5 C 0.2214(3) 0.6462(2) 0.11056(16)
C6 C 0.2630(3) 0.7535(2) 0.15616(16)
C7 C 0.3656(3) 0.5968(2) 0.05584(16)
H7 H 0.3632 0.6275 -0.0126
C8 C 0.5060(3) 0.6566(2) 0.11036(17)
H8 H 0.5997 0.6638 0.0667
C9 C 0.4372(3) 0.7797(2) 0.13634(19)
H9 H 0.4889 0.8127 0.1949
H10 H 0.4495 0.8348 0.0812
C10 C 0.2653(4) 0.4617(2) -0.11916(16)
H11 H 0.1859 0.5216 -0.1060
H12 H 0.2224 0.4038 -0.1646
H13 H 0.3583 0.4982 -0.1481
C11 C 0.3113(3) 0.4010(2) -0.02268(15)
C12 C 0.2908(3) 0.2795(2) -0.01416(18)
H14 H 0.2533 0.2394 -0.0702
C13 C 0.3212(3) 0.2108(2) 0.07099(19)
C14 C 0.2757(4) 0.0807(2) 0.0684(2)
H15 H 0.3551 0.0349 0.1033
H16 H 0.2697 0.0543 0.0005
H17 H 0.1735 0.0701 0.1000
loop_
_geom_bond_atom_site_label_1
_geom_bond_atom_site_label_2
_geom_bond_site_symmetry_1
_geom_bond_site_symmetry_2
N1 H1 1_555 1_555
O1 H2 1_555 1_555
O2 C13 1_555 1_555
C1 H3 1_555 1_555
C2 C1 1_555 1_555
H4 C2 1_555 1_555
C3 C2 1_555 1_555
H5 C3 1_555 1_555
C4 C3 1_555 1_555
H6 C4 1_555 1_555
C5 C4 1_555 1_555
C6 C1 1_555 1_555
C7 N1 1_555 1_555
H7 C7 1_555 1_555
C8 O1 1_555 1_555
H8 C8 1_555 1_555
C9 C6 1_555 1_555
H9 C9 1_555 1_555
H10 C9 1_555 1_555
C10 H11 1_555 1_555
H12 C10 1_555 1_555
H13 C10 1_555 1_555
C11 N1 1_555 1_555
C12 C11 1_555 1_555
H14 C12 1_555 1_555
C13 C12 1_555 1_555
C14 C13 1_555 1_555
H15 C14 1_555 1_555
H16 C14 1_555 1_555
H17 C14 1_555 1_555
C5 C6 1_555 1_555
C5 C7 1_555 1_555
C7 C8 1_555 1_555
C8 C9 1_555 1_555
C10 C11 1_555 1_555

#END
