
#######################################################################
#
#                 Cambridge Crystallographic Data Centre
#                                CCDC 
#
#######################################################################
#
# If this CIF has been generated from an entry in the Cambridge 
# Structural Database, then it will include bibliographic, chemical, 
# crystal, experimental, refinement or atomic coordinate data resulting 
# from the CCDC's data processing and validation procedures.
#
#######################################################################

data_LEFTIZ
_chemical_name_common            
17-t-Butyl-29,30,31,32,33-pentamethoxy-2,3-dihomo-3-oxacalix(5)arene
_chemical_formula_moiety         'C41 H42 O6'
_chemical_name_systematic        
'9-(1,1-Dimethylethyl)-29,30,31,32,33-pentamethoxy-23-oxahexacyclo (23.3.1.1^2,6^.1^7,11^.1^12,16^.1^17,21^)tritriaconta-1(29),2,4,6(33),7,9,11(32),12,14,16(31),17,19,21(30),25,27-pentadecaene'
_symmetry_cell_setting           monoclinic
_symmetry_space_group_name_H-M   'P 21/c'
_symmetry_Int_Tables_number      14
_space_group_name_Hall           '-P 2ybc'
loop_
_symmetry_equiv_pos_site_id
_symmetry_equiv_pos_as_xyz
1 x,y,z
2 -x,1/2+y,1/2-z
3 -x,-y,-z
4 x,1/2-y,1/2+z
_cell_length_a                   31.684(5)
_cell_length_b                   10.864(3)
_cell_length_c                   21.328(4)
_cell_angle_alpha                90
_cell_angle_beta                 108.34(1)
_cell_angle_gamma                90
_cell_volume                     6968.52
_exptl_crystal_colour            colorless
_cell_formula_units_Z            8
loop_
_atom_site_label
_atom_site_type_symbol
_atom_site_fract_x
_atom_site_fract_y
_atom_site_fract_z
C1 C 0.1279(3) -0.6090(8) 0.9611(4)
C2 C 0.0931(3) -0.6770(8) 0.9183(4)
C3 C 0.0669(3) -0.7535(8) 0.9424(4)
C4 C 0.0721(3) -0.7574(7) 1.0092(4)
C5 C 0.1061(3) -0.6900(7) 1.0535(4)
C6 C 0.1352(3) -0.6211(7) 1.0289(4)
O1 O 0.1700(2) -0.5562(5) 1.0683(3)
C7 C 0.2014(3) -0.6149(9) 1.1201(5)
C8 C 0.1095(2) -0.6819(7) 1.1250(4)
C9 C 0.1195(3) -0.7818(7) 1.1682(4)
C10 C 0.1245(3) -0.7669(8) 1.2345(4)
C11 C 0.1203(3) -0.6529(8) 1.2596(4)
C12 C 0.1107(2) -0.5508(7) 1.2184(4)
C13 C 0.1042(3) -0.5675(7) 1.1508(4)
O2 O 0.0938(2) -0.4673(5) 1.1084(3)
C14 C 0.0483(3) -0.4546(9) 1.0710(5)
C15 C 0.1074(3) -0.4221(7) 1.2410(4)
C16 C 0.0759(3) -0.3828(7) 1.2691(4)
C17 C 0.0715(2) -0.2632(7) 1.2859(4)
C18 C 0.0991(3) -0.1752(7) 1.2718(4)
C19 C 0.1322(2) -0.2088(7) 1.2435(4)
C20 C 0.1366(2) -0.3339(7) 1.2316(4)
O3 O 0.1711(2) -0.3720(5) 1.2087(3)
C21 C 0.2106(3) -0.3968(9) 1.2621(5)
C22 C 0.0350(3) -0.2272(8) 1.3168(4)
C23 C -0.0099(3) -0.2579(12) 1.2708(7)
C24 C 0.0440(4) -0.2960(11) 1.3839(6)
C25 C 0.0367(3) -0.0920(9) 1.3353(5)
C26 C 0.1602(2) -0.1209(7) 1.2220(4)
C27 C 0.1916(2) -0.0424(7) 1.2642(4)
C28 C 0.2196(2) 0.0331(7) 1.2415(4)
C29 C 0.2176(3) 0.0266(7) 1.1759(4)
C30 C 0.1869(3) -0.0505(7) 1.1307(4)
C31 C 0.1583(2) -0.1202(7) 1.1554(4)
O4 O 0.1269(2) -0.1927(5) 1.1112(3)
C32 C 0.0861(3) -0.1302(10) 1.0799(5)
C33 C 0.1844(3) -0.0653(7) 1.0600(4)
C34 C 0.1705(3) 0.0351(8) 1.0178(4)
C35 C 0.1608(3) 0.0216(8) 0.9489(4)
C36 C 0.1644(3) -0.0954(8) 0.9245(4)
C37 C 0.1788(3) -0.1956(8) 0.9653(4)
C38 C 0.1909(3) -0.1771(8) 1.0339(4)
O5 O 0.2079(2) -0.2787(5) 1.0719(3)
C39 C 0.2461(3) -0.2639(9) 1.1279(5)
C40 C 0.1812(3) -0.3208(7) 0.9375(4)
O6 O 0.1485(2) -0.4018(5) 0.9476(3)
C41 C 0.1573(3) -0.5265(8) 0.9370(4)
H1 H 0.0882 -0.6724 0.8681
H2 H 0.0434 -0.8076 0.9104
H3 H 0.0509 -0.8100 1.0259
H4 H 0.2254 -0.5548 1.1454
H5 H 0.2157 -0.6858 1.1028
H6 H 0.1860 -0.6504 1.1524
H7 H 0.1232 -0.8677 1.1507
H8 H 0.1316 -0.8432 1.2645
H9 H 0.1245 -0.6427 1.3093
H10 H 0.0442 -0.3785 1.0415
H11 H 0.0298 -0.4448 1.1022
H12 H 0.0378 -0.5306 1.0422
H13 H 0.0551 -0.4485 1.2777
H14 H 0.0960 -0.0849 1.2823
H15 H 0.2351 -0.4246 1.2435
H16 H 0.2043 -0.4661 1.2905
H17 H 0.2204 -0.3202 1.2900
H18 H -0.0108 -0.3491 1.2580
H19 H -0.0158 -0.2059 1.2287
H20 H -0.0335 -0.2406 1.2924
H21 H 0.0437 -0.3894 1.3765
H22 H 0.0202 -0.2744 1.4050
H23 H 0.0745 -0.2713 1.4153
H24 H 0.0305 -0.0391 1.2938
H25 H 0.0668 -0.0707 1.3674
H26 H 0.0125 -0.0737 1.3571
H27 H 0.1946 -0.0406 1.3132
H28 H 0.2403 0.0944 1.2723
H29 H 0.2394 0.0765 1.1602
H30 H 0.0647 -0.1880 1.0480
H31 H 0.0923 -0.0558 1.0541
H32 H 0.0727 -0.0996 1.1145
H33 H 0.1673 0.1202 1.0366
H34 H 0.1521 0.0950 0.9187
H35 H 0.1568 -0.1053 0.8742
H36 H 0.2552 -0.3451 1.1514
H37 H 0.2390 -0.2021 1.1602
H38 H 0.2719 -0.2287 1.1141
H39 H 0.2120 -0.3573 0.9594
H40 H 0.1760 -0.3133 0.8876
H41 H 0.1513 -0.5406 0.8881
H42 H 0.1895 -0.5454 0.9624
C42 C 0.3747(3) -0.1499(7) 0.8450(4)
C43 C 0.4112(3) -0.2115(8) 0.8379(4)
C44 C 0.4387(3) -0.2810(7) 0.8893(4)
C45 C 0.4307(3) -0.2850(7) 0.9495(4)
C46 C 0.3943(3) -0.2204(7) 0.9590(4)
C47 C 0.3653(3) -0.1597(7) 0.9045(4)
O7 O 0.3272(2) -0.1003(5) 0.9052(3)
C48 C 0.3001(3) -0.1497(8) 0.9402(4)
C49 C 0.3905(2) -0.2100(7) 1.0265(4)
C50 C 0.3820(2) -0.3099(7) 1.0626(4)
C51 C 0.3774(3) -0.2933(7) 1.1249(4)
C52 C 0.3806(2) -0.1766(7) 1.1513(4)
C53 C 0.3899(2) -0.0743(7) 1.1177(4)
C54 C 0.3954(2) -0.0937(7) 1.0558(4)
O8 O 0.4036(2) 0.0049(5) 1.0213(3)
C55 C 0.4489(3) 0.0237(9) 1.0265(5)
C56 C 0.3921(2) 0.0548(7) 1.1437(4)
C57 C 0.4244(2) 0.0927(8) 1.2023(4)
C58 C 0.4292(2) 0.2144(7) 1.2221(4)
C59 C 0.4023(2) 0.3035(7) 1.1791(4)
C60 C 0.3711(2) 0.2698(7) 1.1201(4)
C61 C 0.3650(2) 0.1421(7) 1.1037(4)
O9 O 0.3305(2) 0.1074(5) 1.0488(2)
C62 C 0.2906(3) 0.0874(8) 1.0634(4)
C63 C 0.4632(3) 0.2508(8) 1.2878(4)
C64 C 0.5084(4) 0.2245(14) 1.2864(7)
C65 C 0.4521(4) 0.1926(12) 1.3448(5)
C66 C 0.4614(4) 0.3915(11) 1.3022(6)
C67 C 0.3444(2) 0.3569(7) 1.0693(4)
C68 C 0.3126(3) 0.4358(7) 1.0810(4)
C69 C 0.2849(2) 0.5065(7) 1.0305(4)
C70 C 0.2884(2) 0.4982(7) 0.9675(4)
C71 C 0.3195(2) 0.4208(7) 0.9540(4)
C72 C 0.3493(2) 0.3561(7) 1.0067(4)
O10 O 0.3820(2) 0.2841(5) 0.9955(3)
C73 C 0.4218(3) 0.3511(9) 1.0048(5)
C74 C 0.3225(2) 0.4010(7) 0.8858(4)
C75 C 0.3350(3) 0.4928(8) 0.8508(4)
C76 C 0.3394(3) 0.4665(8) 0.7883(4)
C77 C 0.3328(2) 0.3489(8) 0.7631(4)
C78 C 0.3200(2) 0.2569(7) 0.7979(4)
C79 C 0.3142(3) 0.2824(7) 0.8586(4)
O11 O 0.3003(2) 0.1890(5) 0.8914(3)
C80 C 0.2546(3) 0.1979(9) 0.8868(5)
C81 C 0.3136(3) 0.1261(8) 0.7715(4)
O12 O 0.3508(2) 0.0518(5) 0.8061(3)
C82 C 0.3442(3) -0.0741(7) 0.7891(4)
H43 H 0.4178 -0.2047 0.7935
H44 H 0.4651 -0.3288 0.8836
H45 H 0.4514 -0.3335 0.9877
H46 H 0.2736 -0.0934 0.9349
H47 H 0.3182 -0.1567 0.9889
H48 H 0.2893 -0.2349 0.9219
H49 H 0.3788 -0.3972 1.0433
H50 H 0.3723 -0.3663 1.1511
H51 H 0.3757 -0.1641 1.1961
H52 H 0.4510 0.0999 0.9988
H53 H 0.4602 -0.0509 1.0080
H54 H 0.4672 0.0381 1.0741
H55 H 0.4447 0.0275 1.2317
H56 H 0.4059 0.3942 1.1925
H57 H 0.2660 0.0610 1.0218
H58 H 0.2812 0.1661 1.0815
H59 H 0.2951 0.0191 1.0983
H60 H 0.5311 0.2476 1.3291
H61 H 0.5139 0.2694 1.2477
H62 H 0.5105 0.1302 1.2785
H63 H 0.4520 0.0972 1.3405
H64 H 0.4209 0.2184 1.3449
H65 H 0.4747 0.2156 1.3890
H66 H 0.4691 0.4419 1.2658
H67 H 0.4844 0.4134 1.3465
H68 H 0.4306 0.4162 1.3025
H69 H 0.3090 0.4409 1.1271
H70 H 0.2624 0.5653 1.0395
H71 H 0.2674 0.5485 0.9299
H72 H 0.4449 0.2938 0.9959
H73 H 0.4328 0.3837 1.0511
H74 H 0.4153 0.4215 0.9714
H75 H 0.3423 0.5794 0.8706
H76 H 0.3466 0.5365 0.7610
H77 H 0.3379 0.3282 0.7193
H78 H 0.2464 0.1265 0.9116
H79 H 0.2354 0.1940 0.8381
H80 H 0.2488 0.2791 0.9065
H81 H 0.3111 0.1283 0.7223
H82 H 0.2855 0.0912 0.7770
H83 H 0.3116 -0.0987 0.7827
H84 H 0.3510 -0.0923 0.7464
loop_
_geom_bond_atom_site_label_1
_geom_bond_atom_site_label_2
_geom_bond_site_symmetry_1
_geom_bond_site_symmetry_2
C1 C2 1_555 1_555
C2 C3 1_555 1_555
C3 C4 1_555 1_555
C4 C5 1_555 1_555
C5 C6 1_555 1_555
C6 C1 1_555 1_555
O1 C6 1_555 1_555
C7 O1 1_555 1_555
C8 C5 1_555 1_555
C9 C8 1_555 1_555
C10 C9 1_555 1_555
C11 C10 1_555 1_555
C12 C11 1_555 1_555
C13 C8 1_555 1_555
O2 C13 1_555 1_555
C14 O2 1_555 1_555
C15 C12 1_555 1_555
C16 C15 1_555 1_555
C17 C16 1_555 1_555
C18 C17 1_555 1_555
C19 C18 1_555 1_555
C20 C15 1_555 1_555
O3 C20 1_555 1_555
C21 O3 1_555 1_555
C22 C17 1_555 1_555
C23 C22 1_555 1_555
C24 C22 1_555 1_555
C25 C22 1_555 1_555
C26 C19 1_555 1_555
C27 C26 1_555 1_555
C28 C27 1_555 1_555
C29 C28 1_555 1_555
C30 C29 1_555 1_555
C31 C26 1_555 1_555
O4 C31 1_555 1_555
C32 O4 1_555 1_555
C33 C30 1_555 1_555
C34 C33 1_555 1_555
C35 C34 1_555 1_555
C36 C35 1_555 1_555
C37 C36 1_555 1_555
C38 C33 1_555 1_555
O5 C38 1_555 1_555
C39 O5 1_555 1_555
C40 C37 1_555 1_555
O6 C40 1_555 1_555
C41 C1 1_555 1_555
H1 C2 1_555 1_555
H2 C3 1_555 1_555
H3 C4 1_555 1_555
H4 C7 1_555 1_555
H5 C7 1_555 1_555
H6 C7 1_555 1_555
H7 C9 1_555 1_555
H8 C10 1_555 1_555
H9 C11 1_555 1_555
H10 C14 1_555 1_555
H11 C14 1_555 1_555
H12 C14 1_555 1_555
H13 C16 1_555 1_555
H14 C18 1_555 1_555
H15 C21 1_555 1_555
H16 C21 1_555 1_555
H17 C21 1_555 1_555
H18 C23 1_555 1_555
H19 C23 1_555 1_555
H20 C23 1_555 1_555
H21 C24 1_555 1_555
H22 C24 1_555 1_555
H23 C24 1_555 1_555
H24 C25 1_555 1_555
H25 C25 1_555 1_555
H26 C25 1_555 1_555
H27 C27 1_555 1_555
H28 C28 1_555 1_555
H29 C29 1_555 1_555
H30 C32 1_555 1_555
H31 C32 1_555 1_555
H32 C32 1_555 1_555
H33 C34 1_555 1_555
H34 C35 1_555 1_555
H35 C36 1_555 1_555
H36 C39 1_555 1_555
H37 C39 1_555 1_555
H38 C39 1_555 1_555
H39 C40 1_555 1_555
H40 C40 1_555 1_555
H41 C41 1_555 1_555
H42 C41 1_555 1_555
C42 C43 1_555 1_555
C43 C44 1_555 1_555
C44 C45 1_555 1_555
C45 C46 1_555 1_555
C46 C47 1_555 1_555
C47 C42 1_555 1_555
O7 C47 1_555 1_555
C48 O7 1_555 1_555
C49 C46 1_555 1_555
C50 C49 1_555 1_555
C51 C50 1_555 1_555
C52 C51 1_555 1_555
C53 C52 1_555 1_555
C54 C49 1_555 1_555
O8 C54 1_555 1_555
C55 O8 1_555 1_555
C56 C53 1_555 1_555
C57 C56 1_555 1_555
C58 C57 1_555 1_555
C59 C58 1_555 1_555
C60 C59 1_555 1_555
C61 C56 1_555 1_555
O9 C61 1_555 1_555
C62 O9 1_555 1_555
C63 C58 1_555 1_555
C64 C63 1_555 1_555
C65 C63 1_555 1_555
C66 C63 1_555 1_555
C67 C60 1_555 1_555
C68 C67 1_555 1_555
C69 C68 1_555 1_555
C70 C69 1_555 1_555
C71 C70 1_555 1_555
C72 C67 1_555 1_555
O10 C72 1_555 1_555
C73 O10 1_555 1_555
C74 C71 1_555 1_555
C75 C74 1_555 1_555
C76 C75 1_555 1_555
C77 C76 1_555 1_555
C78 C77 1_555 1_555
C79 C74 1_555 1_555
O11 C79 1_555 1_555
C80 O11 1_555 1_555
C81 C78 1_555 1_555
O12 C81 1_555 1_555
C82 C42 1_555 1_555
H43 C43 1_555 1_555
H44 C44 1_555 1_555
H45 C45 1_555 1_555
H46 C48 1_555 1_555
H47 C48 1_555 1_555
H48 C48 1_555 1_555
H49 C50 1_555 1_555
H50 C51 1_555 1_555
H51 C52 1_555 1_555
H52 C55 1_555 1_555
H53 C55 1_555 1_555
H54 C55 1_555 1_555
H55 C57 1_555 1_555
H56 C59 1_555 1_555
H57 C62 1_555 1_555
H58 C62 1_555 1_555
H59 C62 1_555 1_555
H60 C64 1_555 1_555
H61 C64 1_555 1_555
H62 C64 1_555 1_555
H63 C65 1_555 1_555
H64 C65 1_555 1_555
H65 C65 1_555 1_555
H66 C66 1_555 1_555
H67 C66 1_555 1_555
H68 C66 1_555 1_555
H69 C68 1_555 1_555
H70 C69 1_555 1_555
H71 C70 1_555 1_555
H72 C73 1_555 1_555
H73 C73 1_555 1_555
H74 C73 1_555 1_555
H75 C75 1_555 1_555
H76 C76 1_555 1_555
H77 C77 1_555 1_555
H78 C80 1_555 1_555
H79 C80 1_555 1_555
H80 C80 1_555 1_555
H81 C81 1_555 1_555
H82 C81 1_555 1_555
H83 C82 1_555 1_555
H84 C82 1_555 1_555
C12 C13 1_555 1_555
C19 C20 1_555 1_555
C30 C31 1_555 1_555
C37 C38 1_555 1_555
O6 C41 1_555 1_555
C53 C54 1_555 1_555
C60 C61 1_555 1_555
C71 C72 1_555 1_555
C78 C79 1_555 1_555
O12 C82 1_555 1_555

#END
