
#######################################################################
#
#                 Cambridge Crystallographic Data Centre
#                                CCDC 
#
#######################################################################
#
# If this CIF has been generated from an entry in the Cambridge 
# Structural Database, then it will include bibliographic, chemical, 
# crystal, experimental, refinement or atomic coordinate data resulting 
# from the CCDC's data processing and validation procedures.
#
#######################################################################

data_LEGHIR
_chemical_formula_moiety         'C34 H36 B2 P2'
_chemical_name_systematic        
1,2-bis(anthracen-9-yl)-1,2-bis(triphenylphosphonio)diboren-1,2-diide
_symmetry_cell_setting           monoclinic
_symmetry_space_group_name_H-M   'C 2/c'
_symmetry_Int_Tables_number      15
_space_group_name_Hall           '-C 2yn'
loop_
_symmetry_equiv_pos_site_id
_symmetry_equiv_pos_as_xyz
1 x,y,z
2 -x,y,1/2-z
3 1/2+x,1/2+y,z
4 1/2-x,1/2+y,1/2-z
5 -x,-y,-z
6 x,-y,1/2+z
7 1/2-x,1/2-y,-z
8 1/2+x,1/2-y,1/2+z
_cell_length_a                   21.880(12)
_cell_length_b                   8.440(8)
_cell_length_c                   16.266(10)
_cell_angle_alpha                90
_cell_angle_beta                 108.25(3)
_cell_angle_gamma                90
_cell_volume                     2852.7
_exptl_crystal_colour            green
_exptl_crystal_description       block
_cell_formula_units_Z            4
_chemical_properties_physical    'air- and moisture-sensitive'
loop_
_atom_site_label
_atom_site_type_symbol
_atom_site_fract_x
_atom_site_fract_y
_atom_site_fract_z
P1 P 0.42843(11) 0.3008(2) 0.51176(14)
C1 C 0.3431(2) 0.3074(6) 0.4990(3)
H1 H 0.3358 0.3767 0.5433
H2 H 0.3278 0.2004 0.5052
H3 H 0.3196 0.3487 0.4414
C2 C 0.4337(3) 0.1497(6) 0.4350(3)
H4 H 0.4786 0.1382 0.4364
H5 H 0.4072 0.1807 0.3767
H6 H 0.4181 0.0487 0.4505
C3 C 0.4641(2) 0.2113(7) 0.6169(3)
H7 H 0.5106 0.2004 0.6283
H8 H 0.4451 0.1065 0.6179
H9 H 0.4559 0.2785 0.6614
B1 B 0.46442(18) 0.4996(5) 0.4963(2)
C4 C 0.40831(19) 0.6328(5) 0.46969(18)
C5 C 0.3897(2) 0.7203(6) 0.5331(2)
C6 C 0.4244(2) 0.7040(6) 0.6235(2)
H10 H 0.4610 0.6367 0.6409
C7 C 0.4060(2) 0.7830(6) 0.6849(2)
H11 H 0.4300 0.7702 0.7443
C8 C 0.3517(2) 0.8834(8) 0.6614(2)
H12 H 0.3394 0.9376 0.7049
C9 C 0.3170(3) 0.9028(9) 0.5768(2)
H13 H 0.2800 0.9689 0.5619
C10 C 0.3353(3) 0.8254(10) 0.5097(2)
C11 C 0.3003(3) 0.8452(11) 0.4227(2)
H14 H 0.2640 0.9136 0.4072
C12 C 0.3176(3) 0.7669(12) 0.3579(2)
C13 C 0.2804(3) 0.7819(11) 0.2685(2)
H15 H 0.2439 0.8497 0.2525
C14 C 0.2965(3) 0.7006(10) 0.2063(2)
H16 H 0.2722 0.7153 0.1472
C15 C 0.3488(3) 0.5943(8) 0.2287(2)
H17 H 0.3592 0.5369 0.1847
C16 C 0.3846(2) 0.5734(5) 0.3131(2)
H18 H 0.4193 0.4999 0.3270
C17 C 0.3712(2) 0.6596(6) 0.3815(2)
P1D P 0.57157(11) 0.6992(2) 0.48824(14)
C1D C 0.6569(2) 0.6926(6) 0.5010(3)
H1D H 0.6642 0.6233 0.4567
H2D H 0.6722 0.7996 0.4948
H3D H 0.6804 0.6513 0.5586
C2D C 0.5663(3) 0.8503(6) 0.5650(3)
H4D H 0.5214 0.8618 0.5636
H5D H 0.5928 0.8193 0.6233
H6D H 0.5819 0.9513 0.5495
C3D C 0.5359(2) 0.7887(7) 0.3831(3)
H7D H 0.4894 0.7996 0.3717
H8D H 0.5549 0.8935 0.3821
H9D H 0.5441 0.7215 0.3386
B1D B 0.53558(18) 0.5004(5) 0.5037(2)
C4D C 0.59169(19) 0.3672(5) 0.53031(18)
C5D C 0.6103(2) 0.2797(6) 0.4669(2)
C6D C 0.5756(2) 0.2960(6) 0.3765(2)
H10D H 0.5390 0.3633 0.3591
C7D C 0.5940(2) 0.2170(6) 0.3151(2)
H11D H 0.5700 0.2298 0.2557
C8D C 0.6483(2) 0.1166(8) 0.3386(2)
H12D H 0.6606 0.0624 0.2951
C9D C 0.6830(3) 0.0972(9) 0.4232(2)
H13D H 0.7200 0.0311 0.4381
C10D C 0.6647(3) 0.1746(10) 0.4903(2)
C11D C 0.6997(3) 0.1548(11) 0.5773(2)
H14D H 0.7360 0.0864 0.5928
C12D C 0.6824(3) 0.2331(12) 0.6421(2)
C13D C 0.7196(3) 0.2181(11) 0.7315(2)
H15D H 0.7561 0.1503 0.7475
C14D C 0.7035(3) 0.2994(10) 0.7937(2)
H16D H 0.7278 0.2847 0.8528
C15D C 0.6512(3) 0.4057(8) 0.7713(2)
H17D H 0.6408 0.4631 0.8153
C16D C 0.6154(2) 0.4266(5) 0.6869(2)
H18D H 0.5807 0.5001 0.6730
C17D C 0.6288(2) 0.3404(6) 0.6185(2)
P2? P 0.44678(15) 0.2613(5) 0.5153(3)
C18? C 0.3665(3) 0.3396(8) 0.4968(6)
H19? H 0.3676 0.4216 0.5399
H20? H 0.3508 0.3855 0.4386
H21? H 0.3377 0.2539 0.5019
C19? C 0.4347(4) 0.1018(9) 0.4372(6)
H22? H 0.4764 0.0555 0.4400
H23? H 0.4073 0.0202 0.4504
H24? H 0.4138 0.1435 0.3789
C20? C 0.4646(4) 0.1621(11) 0.6189(4)
H25? H 0.5083 0.1189 0.6354
H26? H 0.4613 0.2380 0.6629
H27? H 0.4338 0.0757 0.6145
B2? B 0.5100(2) 0.4121(7) 0.5093(3)
C21? C 0.5789(2) 0.3243(9) 0.5283(3)
C22? C 0.5986(3) 0.2553(11) 0.4604(3)
C23? C 0.5591(3) 0.2679(11) 0.3718(3)
H28? H 0.5199 0.3257 0.3583
C24? C 0.5762(3) 0.1991(12) 0.3066(4)
H29? H 0.5484 0.2072 0.2487
C25? C 0.6348(4) 0.1161(15) 0.3239(4)
H30? H 0.6469 0.0720 0.2776
C26? C 0.6739(5) 0.0989(17) 0.4066(4)
H31? H 0.7125 0.0392 0.4177
C27? C 0.6581(5) 0.1694(18) 0.4774(4)
C28? C 0.6978(5) 0.153(2) 0.5625(4)
H32? H 0.7361 0.0922 0.5742
C29? C 0.6827(6) 0.225(2) 0.6307(4)
C30? C 0.7231(5) 0.2072(19) 0.7184(4)
H33? H 0.7599 0.1406 0.7308
C31? C 0.7096(5) 0.2839(19) 0.7839(4)
H34? H 0.7385 0.2767 0.8411
C32? C 0.6528(5) 0.3744(15) 0.7674(4)
H35? H 0.6441 0.4289 0.8137
C33? C 0.6103(4) 0.3846(11) 0.6859(4)
H36? H 0.5713 0.4416 0.6768
C34? C 0.6233(3) 0.3110(12) 0.6136(3)
loop_
_geom_bond_atom_site_label_1
_geom_bond_atom_site_label_2
_geom_bond_site_symmetry_1
_geom_bond_site_symmetry_2
P1 C1 1_555 1_555
C1 H1 1_555 1_555
H2 C1 1_555 1_555
H3 C1 1_555 1_555
C2 P1 1_555 1_555
H4 C2 1_555 1_555
H5 C2 1_555 1_555
H6 C2 1_555 1_555
C3 P1 1_555 1_555
H7 C3 1_555 1_555
H8 C3 1_555 1_555
H9 C3 1_555 1_555
B1 P1 1_555 1_555
C4 B1 1_555 1_555
C5 C4 1_555 1_555
C6 C5 1_555 1_555
H10 C6 1_555 1_555
C7 C6 1_555 1_555
H11 C7 1_555 1_555
C8 C7 1_555 1_555
H12 C8 1_555 1_555
C9 C8 1_555 1_555
H13 C9 1_555 1_555
C10 C5 1_555 1_555
C11 C10 1_555 1_555
H14 C11 1_555 1_555
C12 C11 1_555 1_555
C13 C12 1_555 1_555
H15 C13 1_555 1_555
C14 C13 1_555 1_555
H16 C14 1_555 1_555
C15 C14 1_555 1_555
H17 C15 1_555 1_555
C16 C15 1_555 1_555
H18 C16 1_555 1_555
C17 C4 1_555 1_555
P1D C1D 1_555 1_555
C1D H1D 1_555 1_555
H2D C1D 1_555 1_555
H3D C1D 1_555 1_555
C2D P1D 1_555 1_555
H4D C2D 1_555 1_555
H5D C2D 1_555 1_555
H6D C2D 1_555 1_555
C3D P1D 1_555 1_555
H7D C3D 1_555 1_555
H8D C3D 1_555 1_555
H9D C3D 1_555 1_555
B1D B1 1_555 1_555
C4D B1D 1_555 1_555
C5D C4D 1_555 1_555
C6D C5D 1_555 1_555
H10D C6D 1_555 1_555
C7D C6D 1_555 1_555
H11D C7D 1_555 1_555
C8D C7D 1_555 1_555
H12D C8D 1_555 1_555
C9D C8D 1_555 1_555
H13D C9D 1_555 1_555
C10D C5D 1_555 1_555
C11D C10D 1_555 1_555
H14D C11D 1_555 1_555
C12D C11D 1_555 1_555
C13D C12D 1_555 1_555
H15D C13D 1_555 1_555
C14D C13D 1_555 1_555
H16D C14D 1_555 1_555
C15D C14D 1_555 1_555
H17D C15D 1_555 1_555
C16D C15D 1_555 1_555
H18D C16D 1_555 1_555
C17D C4D 1_555 1_555
C9 C10 1_555 1_555
C12 C17 1_555 1_555
C16 C17 1_555 1_555
P1D B1D 1_555 1_555
C9D C10D 1_555 1_555
C12D C17D 1_555 1_555
C16D C17D 1_555 1_555

#END
