
#######################################################################
#
#                 Cambridge Crystallographic Data Centre
#                                CCDC 
#
#######################################################################
#
# If this CIF has been generated from an entry in the Cambridge 
# Structural Database, then it will include bibliographic, chemical, 
# crystal, experimental, refinement or atomic coordinate data resulting 
# from the CCDC's data processing and validation procedures.
#
#######################################################################

data_LEGJIT
_chemical_formula_moiety         'C31 H27 B2 P1 Se1,C6 H6'
_chemical_name_systematic        
'3-(anthracen-9-yl)-1-trimethylphosphonio-1H,3H-anthra[1,9-cd][1,2,6]selenadiborinin-1-ide benzene solvate'
_symmetry_cell_setting           orthorhombic
_symmetry_space_group_name_H-M   'P 21 21 21'
_symmetry_Int_Tables_number      19
_space_group_name_Hall           'P 2ac 2ab'
loop_
_symmetry_equiv_pos_site_id
_symmetry_equiv_pos_as_xyz
1 x,y,z
2 1/2-x,-y,1/2+z
3 -x,1/2+y,1/2-z
4 1/2+x,1/2-y,-z
_cell_length_a                   7.1939(10)
_cell_length_b                   19.068(3)
_cell_length_c                   21.994(3)
_cell_angle_alpha                90
_cell_angle_beta                 90
_cell_angle_gamma                90
_cell_volume                     3016.99
_exptl_crystal_colour            yellow
_exptl_crystal_description       needle
_cell_formula_units_Z            4
_chemical_properties_physical    'air- and moisture-sensitive'
loop_
_atom_site_label
_atom_site_type_symbol
_atom_site_fract_x
_atom_site_fract_y
_atom_site_fract_z
Se1 Se 0.60109(9) 0.56943(3) 0.29563(2)
H1 H 0.571(6) 0.694(2) 0.252(2)
P1 P 0.8682(2) 0.69766(7) 0.31689(6)
C1 C 0.4846(8) 0.7130(3) 0.3536(2)
C2 C 0.4310(8) 0.6803(3) 0.4094(2)
C3 C 0.4481(8) 0.6048(3) 0.4211(2)
C4 C 0.3856(9) 0.5789(3) 0.4763(2)
H2 H 0.3978 0.5300 0.4834
C5 C 0.3052(8) 0.6201(3) 0.5226(3)
H3 H 0.2664 0.5996 0.5598
C6 C 0.2849(8) 0.6902(3) 0.5122(3)
H4 H 0.2299 0.7187 0.5427
C7 C 0.3437(8) 0.7215(3) 0.4569(2)
C8 C 0.3116(8) 0.7928(3) 0.4483(2)
H5 H 0.2592 0.8194 0.4805
C9 C 0.3544(8) 0.8260(3) 0.3936(2)
C10 C 0.3122(8) 0.8988(3) 0.3848(3)
H6 H 0.2633 0.9254 0.4176
C11 C 0.3408(8) 0.9299(3) 0.3304(3)
H7 H 0.3094 0.9779 0.3247
C12 C 0.4175(9) 0.8909(3) 0.2823(3)
H8 H 0.4357 0.9128 0.2439
C13 C 0.4666(8) 0.8221(3) 0.2896(3)
H9 H 0.5219 0.7978 0.2565
C14 C 0.4369(7) 0.7859(3) 0.3456(2)
C15 C 0.4884(8) 0.4665(3) 0.3893(2)
C16 C 0.3334(7) 0.4290(3) 0.3684(2)
C17 C 0.1874(8) 0.4615(3) 0.3338(3)
H10 H 0.1981 0.5098 0.3236
C18 C 0.0356(8) 0.4256(3) 0.3156(2)
H11 H -0.0593 0.4489 0.2933
C19 C 0.0171(9) 0.3529(3) 0.3297(3)
H12 H -0.0903 0.3279 0.3169
C20 C 0.1512(9) 0.3196(3) 0.3611(3)
H13 H 0.1371 0.2711 0.3698
C21 C 0.3139(8) 0.3552(3) 0.3816(2)
C22 C 0.4510(9) 0.3221(3) 0.4151(3)
H14 H 0.4383 0.2736 0.4238
C23 C 0.6082(9) 0.3578(3) 0.4367(2)
C24 C 0.7486(9) 0.3242(3) 0.4723(3)
H15 H 0.7377 0.2756 0.4812
C25 C 0.8963(10) 0.3604(3) 0.4934(2)
H16 H 0.9881 0.3369 0.5168
C26 C 0.9162(9) 0.4328(3) 0.4811(2)
H17 H 1.0211 0.4575 0.4962
C27 C 0.7868(9) 0.4669(3) 0.4479(3)
H18 H 0.8023 0.5156 0.4402
C28 C 0.6256(9) 0.4316(3) 0.4237(2)
C29 C 0.9503(9) 0.6571(3) 0.3856(3)
H19 H 0.8586 0.6638 0.4180
H20 H 1.0686 0.6784 0.3977
H21 H 0.9686 0.6068 0.3786
C30 C 1.0204(9) 0.6657(3) 0.2574(3)
H22 H 0.9890 0.6887 0.2189
H23 H 1.0048 0.6148 0.2531
H24 H 1.1498 0.6762 0.2680
C31 C 0.9161(9) 0.7904(3) 0.3222(3)
H25 H 0.8728 0.8139 0.2852
H26 H 1.0503 0.7976 0.3268
H27 H 0.8513 0.8099 0.3576
B1 B 0.6085(10) 0.6773(3) 0.3014(3)
B2 B 0.5101(10) 0.5479(3) 0.3746(3)
C32 C 0.4963(10) 0.4254(4) 0.5950(3)
H28 H 0.6102 0.4356 0.5750
C33 C 0.4098(10) 0.4759(3) 0.6307(3)
H29 H 0.4650 0.5209 0.6350
C34 C 0.2463(9) 0.4614(3) 0.6597(3)
H30 H 0.1897 0.4960 0.6846
C35 C 0.1629(9) 0.3965(3) 0.6529(3)
H31 H 0.0469 0.3868 0.6717
C36 C 0.2508(10) 0.3457(3) 0.6181(3)
H32 H 0.1969 0.3004 0.6147
C37 C 0.4142(11) 0.3601(3) 0.5888(3)
H33 H 0.4713 0.3252 0.5642
loop_
_geom_bond_atom_site_label_1
_geom_bond_atom_site_label_2
_geom_bond_site_symmetry_1
_geom_bond_site_symmetry_2
Se1 B1 1_555 1_555
H1 B1 1_555 1_555
P1 C29 1_555 1_555
C1 C2 1_555 1_555
C2 C3 1_555 1_555
C3 C4 1_555 1_555
C4 H2 1_555 1_555
C5 C4 1_555 1_555
H3 C5 1_555 1_555
C6 C5 1_555 1_555
H4 C6 1_555 1_555
C7 C2 1_555 1_555
C8 C7 1_555 1_555
H5 C8 1_555 1_555
C9 C8 1_555 1_555
C10 C9 1_555 1_555
H6 C10 1_555 1_555
C11 C10 1_555 1_555
H7 C11 1_555 1_555
C12 C11 1_555 1_555
H8 C12 1_555 1_555
C13 C12 1_555 1_555
H9 C13 1_555 1_555
C14 C1 1_555 1_555
C15 C16 1_555 1_555
C16 C17 1_555 1_555
C17 H10 1_555 1_555
C18 C17 1_555 1_555
H11 C18 1_555 1_555
C19 C18 1_555 1_555
H12 C19 1_555 1_555
C20 C19 1_555 1_555
H13 C20 1_555 1_555
C21 C16 1_555 1_555
C22 C21 1_555 1_555
H14 C22 1_555 1_555
C23 C22 1_555 1_555
C24 C23 1_555 1_555
H15 C24 1_555 1_555
C25 C24 1_555 1_555
H16 C25 1_555 1_555
C26 C25 1_555 1_555
H17 C26 1_555 1_555
C27 C26 1_555 1_555
H18 C27 1_555 1_555
C28 C15 1_555 1_555
C29 H19 1_555 1_555
H20 C29 1_555 1_555
H21 C29 1_555 1_555
C30 P1 1_555 1_555
H22 C30 1_555 1_555
H23 C30 1_555 1_555
H24 C30 1_555 1_555
C31 P1 1_555 1_555
H25 C31 1_555 1_555
H26 C31 1_555 1_555
H27 C31 1_555 1_555
B1 P1 1_555 1_555
B2 Se1 1_555 1_555
C32 H28 1_555 1_555
C33 C32 1_555 1_555
H29 C33 1_555 1_555
C34 C33 1_555 1_555
H30 C34 1_555 1_555
C35 C34 1_555 1_555
H31 C35 1_555 1_555
C36 C35 1_555 1_555
H32 C36 1_555 1_555
C37 C32 1_555 1_555
H33 C37 1_555 1_555
C1 B1 1_555 1_555
C3 B2 1_555 1_555
C6 C7 1_555 1_555
C9 C14 1_555 1_555
C13 C14 1_555 1_555
C15 B2 1_555 1_555
C20 C21 1_555 1_555
C23 C28 1_555 1_555
C27 C28 1_555 1_555
C36 C37 1_555 1_555

#END
