
#######################################################################
#
#                 Cambridge Crystallographic Data Centre
#                                CCDC 
#
#######################################################################
#
# If this CIF has been generated from an entry in the Cambridge 
# Structural Database, then it will include bibliographic, chemical, 
# crystal, experimental, refinement or atomic coordinate data resulting 
# from the CCDC's data processing and validation procedures.
#
#######################################################################

data_LEGJEP
_chemical_formula_moiety         'C34 H36 B2 P2 Se1'
_chemical_name_systematic        
2,3-bis(anthracen-9-yl)-2,3-bis(trimethylphosphonio)selenadiboriran-2,3-diide
_symmetry_cell_setting           monoclinic
_symmetry_space_group_name_H-M   'P 21/n'
_symmetry_Int_Tables_number      14
_space_group_name_Hall           '-P 2yn'
loop_
_symmetry_equiv_pos_site_id
_symmetry_equiv_pos_as_xyz
1 x,y,z
2 1/2-x,1/2+y,1/2-z
3 -x,-y,-z
4 1/2+x,1/2-y,1/2+z
_cell_length_a                   9.732(4)
_cell_length_b                   18.119(5)
_cell_length_c                   17.065(3)
_cell_angle_alpha                90
_cell_angle_beta                 90.465(16)
_cell_angle_gamma                90
_cell_volume                     3009.04
_exptl_crystal_colour            yellow
_exptl_crystal_description       block
_cell_formula_units_Z            4
_chemical_properties_physical    'air- and moisture-sensitive'
loop_
_atom_site_label
_atom_site_type_symbol
_atom_site_fract_x
_atom_site_fract_y
_atom_site_fract_z
Se1 Se 0.38698(2) 0.57287(2) 0.57319(2)
C1 C 0.2060(2) 0.70399(14) 0.79733(12)
H1 H 0.2824 0.7364 0.8124
H2 H 0.2018 0.6622 0.8336
H3 H 0.1196 0.7317 0.7994
P1 P 0.23217(5) 0.67019(3) 0.69861(3)
B1 B 0.4069(2) 0.62351(13) 0.68094(13)
B2 B 0.4033(2) 0.52706(13) 0.68420(13)
P2 P 0.58246(6) 0.48082(3) 0.68782(3)
C2 C 0.2070(2) 0.75208(12) 0.63960(13)
H4 H 0.2036 0.7383 0.5841
H5 H 0.2833 0.7864 0.6487
H6 H 0.1204 0.7759 0.6541
C3 C 0.6505(3) 0.46256(14) 0.78543(13)
H7 H 0.7391 0.4373 0.7813
H8 H 0.5859 0.4313 0.8141
H9 H 0.6630 0.5093 0.8135
C4 C 0.0829(2) 0.61415(12) 0.67823(13)
H10 H 0.0920 0.5913 0.6265
H11 H 0.0004 0.6452 0.6789
H12 H 0.0752 0.5756 0.7182
C5 C 0.7210(2) 0.52829(13) 0.63941(14)
H13 H 0.6971 0.5356 0.5840
H14 H 0.8051 0.4987 0.6435
H15 H 0.7360 0.5763 0.6644
C6 C 0.5792(2) 0.39073(12) 0.64262(13)
H16 H 0.5598 0.3959 0.5864
H17 H 0.5074 0.3606 0.6668
H18 H 0.6686 0.3667 0.6501
C7 C 0.5377(2) 0.67792(10) 0.69614(11)
C8 C 0.5363(2) 0.73519(11) 0.56173(11)
H19 H 0.4488 0.7142 0.5509
C9 C 0.6008(2) 0.72118(10) 0.63641(11)
C10 C 0.5973(2) 0.77783(11) 0.50616(11)
H20 H 0.5504 0.7869 0.4581
C11 C 0.7290(2) 0.80893(11) 0.51858(11)
H21 H 0.7713 0.8373 0.4786
C12 C 0.7328(2) 0.75553(10) 0.64917(11)
C13 C 0.7994(2) 0.74770(10) 0.72100(11)
H22 H 0.8892 0.7673 0.7278
C14 C 0.7363(2) 0.71160(11) 0.78327(11)
C15 C 0.8004(2) 0.70727(11) 0.85847(12)
H23 H 0.8905 0.7266 0.8654
C16 C 0.7356(2) 0.67615(11) 0.92059(12)
H24 H 0.7805 0.6734 0.9702
C17 C 0.6011(2) 0.64789(12) 0.91091(11)
H25 H 0.5541 0.6279 0.9546
C18 C 0.5385(2) 0.64928(11) 0.83906(11)
H26 H 0.4485 0.6296 0.8339
C19 C 0.6034(2) 0.67929(10) 0.77107(11)
C20 C 0.2822(2) 0.47142(11) 0.71349(12)
C21 C 0.2440(2) 0.46985(11) 0.79395(13)
C22 C 0.3286(3) 0.50208(12) 0.85344(13)
H27 H 0.4128 0.5245 0.8388
C23 C 0.2929(3) 0.50192(13) 0.93079(14)
H28 H 0.3529 0.5230 0.9688
C24 C 0.1659(3) 0.47019(14) 0.95440(16)
H29 H 0.1392 0.4720 1.0078
C25 C 0.0836(3) 0.43737(13) 0.90041(16)
H30 H -0.0005 0.4159 0.9168
C26 C 0.1196(2) 0.43421(12) 0.81947(15)
C27 C 0.0390(2) 0.39722(13) 0.76513(16)
H31 H -0.0451 0.3758 0.7814
C28 C 0.0782(2) 0.39072(12) 0.68740(15)
C29 C -0.0014(2) 0.34786(13) 0.63307(17)
H32 H -0.0849 0.3261 0.6500
C30 C 0.0389(3) 0.33753(14) 0.55858(17)
H33 H -0.0163 0.3095 0.5234
C31 C 0.1638(3) 0.36865(12) 0.53324(15)
H34 H 0.1942 0.3597 0.4813
C32 C 0.2414(2) 0.41137(11) 0.58215(13)
H35 H 0.3243 0.4320 0.5630
C33 C 0.2028(2) 0.42644(11) 0.66148(13)
C34 C 0.7944(2) 0.79791(11) 0.58809(11)
H36 H 0.8828 0.8188 0.5964
loop_
_geom_bond_atom_site_label_1
_geom_bond_atom_site_label_2
_geom_bond_site_symmetry_1
_geom_bond_site_symmetry_2
Se1 B1 1_555 1_555
C1 H1 1_555 1_555
H2 C1 1_555 1_555
H3 C1 1_555 1_555
P1 C1 1_555 1_555
B1 P1 1_555 1_555
B2 Se1 1_555 1_555
P2 B2 1_555 1_555
C2 P1 1_555 1_555
H4 C2 1_555 1_555
H5 C2 1_555 1_555
H6 C2 1_555 1_555
C3 P2 1_555 1_555
H7 C3 1_555 1_555
H8 C3 1_555 1_555
H9 C3 1_555 1_555
C4 P1 1_555 1_555
H10 C4 1_555 1_555
H11 C4 1_555 1_555
H12 C4 1_555 1_555
C5 P2 1_555 1_555
H13 C5 1_555 1_555
H14 C5 1_555 1_555
H15 C5 1_555 1_555
C6 P2 1_555 1_555
H16 C6 1_555 1_555
H17 C6 1_555 1_555
H18 C6 1_555 1_555
C7 B1 1_555 1_555
C8 H19 1_555 1_555
C9 C7 1_555 1_555
C10 C8 1_555 1_555
H20 C10 1_555 1_555
C11 C10 1_555 1_555
H21 C11 1_555 1_555
C12 C9 1_555 1_555
C13 C12 1_555 1_555
H22 C13 1_555 1_555
C14 C13 1_555 1_555
C15 C14 1_555 1_555
H23 C15 1_555 1_555
C16 C15 1_555 1_555
H24 C16 1_555 1_555
C17 C16 1_555 1_555
H25 C17 1_555 1_555
C18 C17 1_555 1_555
H26 C18 1_555 1_555
C19 C7 1_555 1_555
C20 B2 1_555 1_555
C21 C20 1_555 1_555
C22 C21 1_555 1_555
H27 C22 1_555 1_555
C23 C22 1_555 1_555
H28 C23 1_555 1_555
C24 C23 1_555 1_555
H29 C24 1_555 1_555
C25 C24 1_555 1_555
H30 C25 1_555 1_555
C26 C21 1_555 1_555
C27 C26 1_555 1_555
H31 C27 1_555 1_555
C28 C27 1_555 1_555
C29 C28 1_555 1_555
H32 C29 1_555 1_555
C30 C29 1_555 1_555
H33 C30 1_555 1_555
C31 C30 1_555 1_555
H34 C31 1_555 1_555
C32 C31 1_555 1_555
H35 C32 1_555 1_555
C33 C20 1_555 1_555
C34 C11 1_555 1_555
H36 C34 1_555 1_555
B1 B2 1_555 1_555
C8 C9 1_555 1_555
C12 C34 1_555 1_555
C14 C19 1_555 1_555
C18 C19 1_555 1_555
C25 C26 1_555 1_555
C28 C33 1_555 1_555
C32 C33 1_555 1_555

#END
