
#######################################################################
#
#                 Cambridge Crystallographic Data Centre
#                                CCDC 
#
#######################################################################
#
# If this CIF has been generated from an entry in the Cambridge 
# Structural Database, then it will include bibliographic, chemical, 
# crystal, experimental, refinement or atomic coordinate data resulting 
# from the CCDC's data processing and validation procedures.
#
#######################################################################

data_LEGVUQ
_chemical_name_common            40-Deoxy-40(S)-iodorapamycin
_chemical_formula_moiety         'C51 H78 I1 N1 O12'
_chemical_name_systematic        
1,18-Dihydroxy-12-(1-(4-iodo-3-methoxycyclohexyl)propan-2-yl)-19,30-dimethoxy-15,17,21,23,29,35-hexamethyl-11,36-dioxa-4-azatricyclo[30.3.1.0^4,9^]hexatriaconta-16,24,26,28-tetraene-2,3,10,14,20-pentone
_symmetry_cell_setting           orthorhombic
_symmetry_space_group_name_H-M   'P 21 21 21'
_symmetry_Int_Tables_number      19
_space_group_name_Hall           'P 2ac 2ab'
loop_
_symmetry_equiv_pos_site_id
_symmetry_equiv_pos_as_xyz
1 x,y,z
2 1/2-x,-y,1/2+z
3 -x,1/2+y,1/2-z
4 1/2+x,1/2-y,-z
_cell_length_a                   12.8905(2)
_cell_length_b                   12.9820(3)
_cell_length_c                   34.6469(10)
_cell_angle_alpha                90
_cell_angle_beta                 90
_cell_angle_gamma                90
_cell_volume                     5797.97
_exptl_crystal_colour            colorless
_exptl_crystal_description       block
_cell_formula_units_Z            4
loop_
_atom_site_label
_atom_site_type_symbol
_atom_site_fract_x
_atom_site_fract_y
_atom_site_fract_z
I1 I -0.17545(3) 0.09666(3) 0.736031(19)
N1 N 0.3544(3) 0.1997(4) 0.50916(12)
O1 O 0.2773(3) 0.2325(3) 0.58035(9)
O2 O 0.1628(3) 0.1042(3) 0.57611(11)
O3 O 0.4124(3) 0.1311(3) 0.64312(12)
O4 O 0.2861(3) 0.2151(3) 0.78297(11)
H1 H 0.3028 0.1902 0.8038
O5 O 0.2631(6) 0.3706(5) 0.84008(15)
O6 O 0.3945(5) 0.2244(5) 0.86438(15)
O7 O 0.7637(3) 0.5270(4) 0.57078(10)
O8 O 0.5009(3) 0.4141(3) 0.52099(8)
O9 O 0.4998(3) 0.5105(4) 0.46458(10)
H2 H 0.5433 0.4733 0.4544
O10 O 0.4361(4) 0.3286(5) 0.43962(11)
O11 O 0.2345(3) 0.3083(4) 0.48592(13)
O12 O 0.0072(4) 0.1952(4) 0.78801(13)
C1 C 0.4615(5) 0.1810(6) 0.5215(2)
H3 H 0.4699 0.2035 0.5480
H4 H 0.5083 0.2213 0.5055
C2 C 0.4899(6) 0.0684(7) 0.5184(3)
H5 H 0.4932 0.0491 0.4914
H6 H 0.5582 0.0578 0.5295
C3 C 0.4138(6) 0.0006(7) 0.5385(2)
H7 H 0.4125 0.0169 0.5658
H8 H 0.4340 -0.0709 0.5356
C4 C 0.3065(5) 0.0172(6) 0.52117(17)
H9 H 0.3066 -0.0057 0.4945
H10 H 0.2563 -0.0241 0.5352
C5 C 0.2745(5) 0.1295(5) 0.52284(15)
H11 H 0.2162 0.1367 0.5049
C6 C 0.2313(4) 0.1536(5) 0.56263(14)
C7 C 0.2421(4) 0.2508(4) 0.62012(12)
H12 H 0.2265 0.1841 0.6320
C8 C 0.3355(4) 0.2973(4) 0.64068(13)
H13 H 0.3712 0.3433 0.6231
H14 H 0.3114 0.3380 0.6624
C9 C 0.4104(4) 0.2181(4) 0.65501(13)
C10 C 0.4825(3) 0.2512(4) 0.68782(12)
H15 H 0.5061 0.3218 0.6830
C11 C 0.4188(4) 0.2498(4) 0.72405(12)
H16 H 0.3911 0.1864 0.7311
C12 C 0.3979(4) 0.3274(4) 0.74680(13)
C13 C 0.3230(6) 0.3171(4) 0.78058(15)
H17 H 0.2626 0.3592 0.7738
C14 C 0.3581(7) 0.3555(6) 0.81942(18)
H18 H 0.3946 0.4213 0.8165
C15 C 0.4280(6) 0.2775(5) 0.83826(17)
C16 C 0.5400(6) 0.2697(5) 0.82599(15)
H19 H 0.5471 0.3049 0.8011
C17 C 0.6113(6) 0.3244(5) 0.85514(15)
H20 H 0.5797 0.3896 0.8622
H21 H 0.6151 0.2827 0.8783
C18 C 0.7203(6) 0.3450(5) 0.84130(15)
H22 H 0.7531 0.2795 0.8344
C19 C 0.7174(5) 0.4132(5) 0.80634(14)
H23 H 0.6919 0.4797 0.8096
C20 C 0.7481(5) 0.3865(4) 0.77130(14)
H24 H 0.7843 0.3249 0.7688
C21 C 0.7298(4) 0.4451(4) 0.73668(13)
H25 H 0.7016 0.5107 0.7394
C22 C 0.7503(4) 0.4126(4) 0.70110(13)
H26 H 0.7875 0.3516 0.6987
C23 C 0.7204(4) 0.4627(4) 0.66636(12)
H27 H 0.6861 0.5252 0.6693
C24 C 0.7351(4) 0.4317(4) 0.63013(13)
C25 C 0.6875(4) 0.4936(4) 0.59765(12)
H28 H 0.6520 0.5538 0.6085
C26 C 0.6106(4) 0.4303(4) 0.57469(13)
H29 H 0.6479 0.3758 0.5615
H30 H 0.5624 0.3981 0.5925
C27 C 0.5499(4) 0.4905(5) 0.54543(13)
H31 H 0.5979 0.5318 0.5299
C28 C 0.4677(5) 0.5601(5) 0.56233(16)
H32 H 0.5006 0.6154 0.5766
H33 H 0.4249 0.5211 0.5801
C29 C 0.3997(5) 0.6056(6) 0.53063(18)
H34 H 0.3444 0.6457 0.5423
H35 H 0.4409 0.6516 0.5148
C30 C 0.3530(4) 0.5225(6) 0.50547(16)
H36 H 0.3086 0.4798 0.5219
C31 C 0.4411(4) 0.4533(5) 0.49015(14)
C32 C 0.4047(4) 0.3531(6) 0.47105(15)
C33 C 0.3252(5) 0.2851(6) 0.49107(14)
C34 C 0.1586(6) 0.4208(6) 0.60107(19)
H37 H 0.2111 0.4590 0.6146
H38 H 0.0945 0.4583 0.6018
H39 H 0.1796 0.4109 0.5747
C35 C 0.1438(4) 0.3156(5) 0.62051(15)
H40 H 0.0918 0.2782 0.6054
C36 C 0.1001(4) 0.3279(5) 0.66127(15)
H41 H 0.0313 0.3577 0.6592
H42 H 0.1431 0.3771 0.6750
C37 C 0.0920(3) 0.2299(4) 0.68603(14)
H43 H 0.1623 0.2027 0.6895
C38 C 0.0494(4) 0.2552(4) 0.72553(15)
H44 H 0.0922 0.3079 0.7373
H45 H -0.0202 0.2828 0.7228
C39 C 0.0461(4) 0.1630(5) 0.75147(17)
H46 H 0.1181 0.1413 0.7555
C40 C -0.0111(3) 0.0711(4) 0.7345(2)
H47 H 0.0048 0.0102 0.7501
C41 C 0.0243(4) 0.0518(4) 0.6939(2)
H48 H -0.0215 0.0013 0.6823
H49 H 0.0932 0.0220 0.6948
C42 C 0.0274(4) 0.1467(5) 0.66795(18)
H50 H 0.0565 0.1282 0.6431
H51 H -0.0425 0.1719 0.6638
C43 C 0.0194(8) 0.1225(9) 0.8182(2)
H52 H -0.0304 0.0681 0.8151
H53 H 0.0085 0.1559 0.8426
H54 H 0.0882 0.0943 0.8174
C44 C 0.5762(4) 0.1815(5) 0.69079(19)
H55 H 0.6198 0.2043 0.7116
H56 H 0.6143 0.1836 0.6670
H57 H 0.5538 0.1121 0.6957
C45 C 0.4368(5) 0.4352(4) 0.74032(17)
H58 H 0.5072 0.4404 0.7491
H59 H 0.3942 0.4828 0.7544
H60 H 0.4338 0.4511 0.7133
C46 C 0.2730(11) 0.4307(10) 0.8733(3)
H61 H 0.3361 0.4130 0.8864
H62 H 0.2150 0.4182 0.8900
H63 H 0.2745 0.5022 0.8662
C47 C 0.5713(8) 0.1590(6) 0.8204(2)
H64 H 0.6335 0.1453 0.8347
H65 H 0.5835 0.1463 0.7935
H66 H 0.5168 0.1147 0.8294
C48 C 0.7833(7) 0.3960(8) 0.87399(18)
H67 H 0.7533 0.4616 0.8802
H68 H 0.8537 0.4057 0.8657
H69 H 0.7822 0.3525 0.8964
C49 C 0.7960(5) 0.3374(6) 0.61917(17)
H70 H 0.8452 0.3549 0.5994
H71 H 0.7496 0.2855 0.6096
H72 H 0.8320 0.3117 0.6414
C50 C 0.8279(7) 0.6050(8) 0.5855(2)
H73 H 0.7867 0.6644 0.5916
H74 H 0.8789 0.6232 0.5665
H75 H 0.8620 0.5808 0.6084
C51 C 0.2858(6) 0.5651(8) 0.4733(2)
H76 H 0.2256 0.5975 0.4842
H77 H 0.2647 0.5099 0.4566
H78 H 0.3247 0.6148 0.4587
loop_
_geom_bond_atom_site_label_1
_geom_bond_atom_site_label_2
_geom_bond_site_symmetry_1
_geom_bond_site_symmetry_2
I1 C40 1_555 1_555
N1 C1 1_555 1_555
O1 C6 1_555 1_555
O2 C6 1_555 1_555
O3 C9 1_555 1_555
O4 H1 1_555 1_555
O5 C14 1_555 1_555
O6 C15 1_555 1_555
O7 C25 1_555 1_555
O8 C27 1_555 1_555
O9 H2 1_555 1_555
O10 C32 1_555 1_555
O11 C33 1_555 1_555
O12 C39 1_555 1_555
C1 H3 1_555 1_555
H4 C1 1_555 1_555
C2 C1 1_555 1_555
H5 C2 1_555 1_555
H6 C2 1_555 1_555
C3 C2 1_555 1_555
H7 C3 1_555 1_555
H8 C3 1_555 1_555
C4 C3 1_555 1_555
H9 C4 1_555 1_555
H10 C4 1_555 1_555
C5 N1 1_555 1_555
H11 C5 1_555 1_555
C6 C5 1_555 1_555
C7 O1 1_555 1_555
H12 C7 1_555 1_555
C8 C7 1_555 1_555
H13 C8 1_555 1_555
H14 C8 1_555 1_555
C9 C8 1_555 1_555
C10 C9 1_555 1_555
H15 C10 1_555 1_555
C11 C10 1_555 1_555
H16 C11 1_555 1_555
C12 C11 1_555 1_555
C13 O4 1_555 1_555
H17 C13 1_555 1_555
C14 C13 1_555 1_555
H18 C14 1_555 1_555
C15 C14 1_555 1_555
C16 C15 1_555 1_555
H19 C16 1_555 1_555
C17 C16 1_555 1_555
H20 C17 1_555 1_555
H21 C17 1_555 1_555
C18 C17 1_555 1_555
H22 C18 1_555 1_555
C19 C18 1_555 1_555
H23 C19 1_555 1_555
C20 C19 1_555 1_555
H24 C20 1_555 1_555
C21 C20 1_555 1_555
H25 C21 1_555 1_555
C22 C21 1_555 1_555
H26 C22 1_555 1_555
C23 C22 1_555 1_555
H27 C23 1_555 1_555
C24 C23 1_555 1_555
C25 C24 1_555 1_555
H28 C25 1_555 1_555
C26 C25 1_555 1_555
H29 C26 1_555 1_555
H30 C26 1_555 1_555
C27 C26 1_555 1_555
H31 C27 1_555 1_555
C28 C27 1_555 1_555
H32 C28 1_555 1_555
H33 C28 1_555 1_555
C29 C28 1_555 1_555
H34 C29 1_555 1_555
H35 C29 1_555 1_555
C30 C29 1_555 1_555
H36 C30 1_555 1_555
C31 O8 1_555 1_555
C32 C31 1_555 1_555
C33 N1 1_555 1_555
C34 H37 1_555 1_555
H38 C34 1_555 1_555
H39 C34 1_555 1_555
C35 C7 1_555 1_555
H40 C35 1_555 1_555
C36 C35 1_555 1_555
H41 C36 1_555 1_555
H42 C36 1_555 1_555
C37 C36 1_555 1_555
H43 C37 1_555 1_555
C38 C37 1_555 1_555
H44 C38 1_555 1_555
H45 C38 1_555 1_555
C39 C38 1_555 1_555
H46 C39 1_555 1_555
C40 C39 1_555 1_555
H47 C40 1_555 1_555
C41 C40 1_555 1_555
H48 C41 1_555 1_555
H49 C41 1_555 1_555
C42 C37 1_555 1_555
H50 C42 1_555 1_555
H51 C42 1_555 1_555
C43 O12 1_555 1_555
H52 C43 1_555 1_555
H53 C43 1_555 1_555
H54 C43 1_555 1_555
C44 C10 1_555 1_555
H55 C44 1_555 1_555
H56 C44 1_555 1_555
H57 C44 1_555 1_555
C45 C12 1_555 1_555
H58 C45 1_555 1_555
H59 C45 1_555 1_555
H60 C45 1_555 1_555
C46 O5 1_555 1_555
H61 C46 1_555 1_555
H62 C46 1_555 1_555
H63 C46 1_555 1_555
C47 C16 1_555 1_555
H64 C47 1_555 1_555
H65 C47 1_555 1_555
H66 C47 1_555 1_555
C48 C18 1_555 1_555
H67 C48 1_555 1_555
H68 C48 1_555 1_555
H69 C48 1_555 1_555
C49 C24 1_555 1_555
H70 C49 1_555 1_555
H71 C49 1_555 1_555
H72 C49 1_555 1_555
C50 O7 1_555 1_555
H73 C50 1_555 1_555
H74 C50 1_555 1_555
H75 C50 1_555 1_555
C51 C30 1_555 1_555
H76 C51 1_555 1_555
H77 C51 1_555 1_555
H78 C51 1_555 1_555
O9 C31 1_555 1_555
C4 C5 1_555 1_555
C12 C13 1_555 1_555
C30 C31 1_555 1_555
C32 C33 1_555 1_555
C34 C35 1_555 1_555
C41 C42 1_555 1_555

#END
