
#######################################################################
#
#                 Cambridge Crystallographic Data Centre
#                                CCDC 
#
#######################################################################
#
# If this CIF has been generated from an entry in the Cambridge 
# Structural Database, then it will include bibliographic, chemical, 
# crystal, experimental, refinement or atomic coordinate data resulting 
# from the CCDC's data processing and validation procedures.
#
#######################################################################

data_LEHHOY
_chemical_formula_moiety         'C14 H19 Br1 O2'
_chemical_name_systematic        
'8-bromo-3,7,7-trimethyltricyclo[4.4.0.0^1,4^]dec-8-ene-3-carboxylic acid'
_symmetry_cell_setting           orthorhombic
_symmetry_space_group_name_H-M   'P b c a'
_symmetry_Int_Tables_number      61
_space_group_name_Hall           '-P 2ac 2ab'
loop_
_symmetry_equiv_pos_site_id
_symmetry_equiv_pos_as_xyz
1 x,y,z
2 1/2-x,-y,1/2+z
3 -x,1/2+y,1/2-z
4 1/2+x,1/2-y,-z
5 -x,-y,-z
6 1/2+x,y,1/2-z
7 x,1/2-y,1/2+z
8 1/2-x,1/2+y,z
_cell_length_a                   12.9644(7)
_cell_length_b                   11.1880(7)
_cell_length_c                   18.6162(12)
_cell_angle_alpha                90
_cell_angle_beta                 90
_cell_angle_gamma                90
_cell_volume                     2700.2
_exptl_crystal_colour            colorless
_exptl_crystal_description       block
_cell_formula_units_Z            8
loop_
_atom_site_label
_atom_site_type_symbol
_atom_site_fract_x
_atom_site_fract_y
_atom_site_fract_z
Br1 Br 0.39022(2) 0.00080(3) 0.338927(17)
O1 O 0.37338(15) 0.45522(19) 0.01728(12)
H1 H 0.4145 0.5105 0.0132
O2 O 0.51456(15) 0.3487(2) -0.00784(11)
C1 C 0.3798(2) 0.2689(3) 0.15349(16)
H2 H 0.3441 0.2658 0.1992
H3 H 0.4059 0.3487 0.1442
C2 C 0.4047(2) 0.0272(3) 0.23757(16)
C3 C 0.3391(2) -0.0269(2) 0.19434(16)
H4 H 0.2853 -0.0712 0.2139
C4 C 0.3546(2) 0.2442(2) 0.01233(15)
C5 C 0.4144(2) 0.1243(3) 0.01095(15)
H5 H 0.3847 0.0653 -0.0212
H6 H 0.4877 0.1336 0.0019
C6 C 0.3492(2) -0.0183(2) 0.11435(17)
H7 H 0.2825 -0.0332 0.0924
H8 H 0.3965 -0.0795 0.0977
C7 C 0.4621(2) 0.1695(2) 0.14424(15)
H9 H 0.5223 0.2008 0.1185
C8 C 0.3172(2) 0.2167(2) 0.09104(14)
H10 H 0.2431 0.2046 0.0986
C9 C 0.4203(2) 0.3552(2) 0.00639(14)
C10 C 0.4966(2) 0.1015(2) 0.21219(16)
C11 C 0.38818(19) 0.1028(3) 0.09075(15)
C12 C 0.5364(3) 0.1911(3) 0.26723(18)
H11 H 0.4800 0.2385 0.2847
H12 H 0.5867 0.2423 0.2451
H13 H 0.5677 0.1491 0.3066
C13 C 0.2662(2) 0.2505(3) -0.04207(18)
H14 H 0.2940 0.2537 -0.0898
H15 H 0.2257 0.3208 -0.0332
H16 H 0.2234 0.1809 -0.0373
C14 C 0.5842(3) 0.0143(3) 0.1922(2)
H17 H 0.6023 -0.0327 0.2335
H18 H 0.6433 0.0588 0.1764
H19 H 0.5615 -0.0376 0.1543
loop_
_geom_bond_atom_site_label_1
_geom_bond_atom_site_label_2
_geom_bond_site_symmetry_1
_geom_bond_site_symmetry_2
Br1 C2 1_555 1_555
O1 H1 1_555 1_555
O2 C9 1_555 1_555
C1 H2 1_555 1_555
H3 C1 1_555 1_555
C2 C3 1_555 1_555
C3 H4 1_555 1_555
C4 C5 1_555 1_555
C5 H5 1_555 1_555
H6 C5 1_555 1_555
C6 C3 1_555 1_555
H7 C6 1_555 1_555
H8 C6 1_555 1_555
C7 C1 1_555 1_555
H9 C7 1_555 1_555
C8 C1 1_555 1_555
H10 C8 1_555 1_555
C9 O1 1_555 1_555
C10 C2 1_555 1_555
C11 C5 1_555 1_555
C12 C10 1_555 1_555
H11 C12 1_555 1_555
H12 C12 1_555 1_555
H13 C12 1_555 1_555
C13 C4 1_555 1_555
H14 C13 1_555 1_555
H15 C13 1_555 1_555
H16 C13 1_555 1_555
C14 C10 1_555 1_555
H17 C14 1_555 1_555
H18 C14 1_555 1_555
H19 C14 1_555 1_555
C4 C8 1_555 1_555
C4 C9 1_555 1_555
C6 C11 1_555 1_555
C7 C10 1_555 1_555
C7 C11 1_555 1_555
C8 C11 1_555 1_555

#END
