
#######################################################################
#
#                 Cambridge Crystallographic Data Centre
#                                CCDC 
#
#######################################################################
#
# If this CIF has been generated from an entry in the Cambridge 
# Structural Database, then it will include bibliographic, chemical, 
# crystal, experimental, refinement or atomic coordinate data resulting 
# from the CCDC's data processing and validation procedures.
#
#######################################################################

data_LEHLUG01
_chemical_formula_moiety         'C24 H22 O2'
_chemical_name_systematic        2,2'-Diethoxy-1,1'-binaphthalene
_symmetry_cell_setting           orthorhombic
_symmetry_space_group_name_H-M   'P 21 21 21'
_symmetry_Int_Tables_number      19
_space_group_name_Hall           'P 2ac 2ab'
loop_
_symmetry_equiv_pos_site_id
_symmetry_equiv_pos_as_xyz
1 x,y,z
2 1/2-x,-y,1/2+z
3 1/2+x,1/2-y,-z
4 -x,1/2+y,1/2-z
_cell_length_a                   7.4170(15)
_cell_length_b                   11.417(2)
_cell_length_c                   21.383(4)
_cell_angle_alpha                90
_cell_angle_beta                 90
_cell_angle_gamma                90
_cell_volume                     1810.71
_exptl_crystal_colour            colorless
_exptl_crystal_description       Needle
_cell_formula_units_Z            4
loop_
_atom_site_label
_atom_site_type_symbol
_atom_site_fract_x
_atom_site_fract_y
_atom_site_fract_z
C1 C 0.64226(15) 0.99839(10) 0.59467(5)
C2 C 0.80157(16) 1.03997(11) 0.62049(5)
C3 C 0.82769(17) 1.16175(12) 0.63154(6)
H1 H 0.9375 1.1889 0.6492
C4 C 0.69464(19) 1.23934(11) 0.61666(6)
H2 H 0.7134 1.3205 0.6240
C5 C 0.38904(19) 1.28178(11) 0.57550(6)
H3 H 0.4070 1.3630 0.5827
C6 C 0.22892(19) 1.24462(11) 0.55088(6)
H4 H 0.1369 1.2995 0.5410
C7 C 0.20165(18) 1.12344(11) 0.54022(6)
H5 H 0.0905 1.0971 0.5232
C8 C 0.33410(16) 1.04355(10) 0.55422(5)
H6 H 0.3125 0.9626 0.5470
C9 C 0.52941(17) 1.20169(10) 0.59056(5)
C10 C 0.50323(16) 1.07957(10) 0.57928(5)
C11 C 0.61447(15) 0.86984(10) 0.58642(5)
C12 C 0.59302(15) 0.82243(10) 0.52700(5)
C13 C 0.56050(17) 0.70095(10) 0.51845(6)
H7 H 0.5466 0.6698 0.4775
C14 C 0.54931(17) 0.62887(11) 0.56956(6)
H8 H 0.5278 0.5477 0.5634
C15 C 0.55325(18) 0.59836(11) 0.68448(6)
H9 H 0.5298 0.5172 0.6788
C16 C 0.57124(18) 0.64184(12) 0.74366(6)
H10 H 0.5590 0.5916 0.7788
C17 C 0.60834(17) 0.76240(12) 0.75217(6)
H11 H 0.6235 0.7926 0.7932
C18 C 0.62265(16) 0.83614(11) 0.70180(5)
H12 H 0.6459 0.9170 0.7086
C19 C 0.56894(16) 0.67207(10) 0.63109(6)
C20 C 0.60338(15) 0.79385(10) 0.63954(5)
O1 O 0.93263(11) 0.95899(8) 0.63429(4)
C21 C 1.04881(18) 0.98589(13) 0.68646(6)
H13 H 0.9780 1.0216 0.7208
H14 H 1.1433 1.0421 0.6735
C22 C 1.1336(2) 0.87378(15) 0.70823(8)
H15 H 1.2116 0.8426 0.6752
H16 H 1.0390 0.8167 0.7179
H17 H 1.2056 0.8888 0.7458
O2 O 0.60329(12) 0.89902(7) 0.47806(4)
C23 C 0.56116(18) 0.85546(12) 0.41662(5)
H18 H 0.4450 0.8127 0.4172
H19 H 0.6566 0.8013 0.4021
C24 C 0.5492(2) 0.96019(14) 0.37390(6)
H20 H 0.6670 0.9988 0.3717
H21 H 0.4595 1.0153 0.3902
H22 H 0.5133 0.9346 0.3320
loop_
_geom_bond_atom_site_label_1
_geom_bond_atom_site_label_2
_geom_bond_site_symmetry_1
_geom_bond_site_symmetry_2
C1 C2 1_555 1_555
C2 C3 1_555 1_555
C3 H1 1_555 1_555
C4 C3 1_555 1_555
H2 C4 1_555 1_555
C5 H3 1_555 1_555
C6 C5 1_555 1_555
H4 C6 1_555 1_555
C7 C6 1_555 1_555
H5 C7 1_555 1_555
C8 C7 1_555 1_555
H6 C8 1_555 1_555
C9 C4 1_555 1_555
C10 C1 1_555 1_555
C11 C1 1_555 1_555
C12 C11 1_555 1_555
C13 C12 1_555 1_555
H7 C13 1_555 1_555
C14 C13 1_555 1_555
H8 C14 1_555 1_555
C15 H9 1_555 1_555
C16 C15 1_555 1_555
H10 C16 1_555 1_555
C17 C16 1_555 1_555
H11 C17 1_555 1_555
C18 C17 1_555 1_555
H12 C18 1_555 1_555
C19 C14 1_555 1_555
C20 C11 1_555 1_555
O1 C2 1_555 1_555
C21 O1 1_555 1_555
H13 C21 1_555 1_555
H14 C21 1_555 1_555
C22 C21 1_555 1_555
H15 C22 1_555 1_555
H16 C22 1_555 1_555
H17 C22 1_555 1_555
O2 C12 1_555 1_555
C23 O2 1_555 1_555
H18 C23 1_555 1_555
H19 C23 1_555 1_555
C24 C23 1_555 1_555
H20 C24 1_555 1_555
H21 C24 1_555 1_555
H22 C24 1_555 1_555
C5 C9 1_555 1_555
C8 C10 1_555 1_555
C9 C10 1_555 1_555
C15 C19 1_555 1_555
C18 C20 1_555 1_555
C19 C20 1_555 1_555

#END
