
#######################################################################
#
#                 Cambridge Crystallographic Data Centre
#                                CCDC 
#
#######################################################################
#
# If this CIF has been generated from an entry in the Cambridge 
# Structural Database, then it will include bibliographic, chemical, 
# crystal, experimental, refinement or atomic coordinate data resulting 
# from the CCDC's data processing and validation procedures.
#
#######################################################################

data_LEJTEB
_chemical_formula_moiety         'C28 H25 N1 O4'
_chemical_name_systematic        
3,3,9-Trimethyl-5-phenyl-3,4,10a,14b-tetrahydro-7H-pyrano[3',2':2,3]indeno[2,1-c]quinoline-1,6,7(2H,5H)-trione
_symmetry_cell_setting           monoclinic
_symmetry_space_group_name_H-M   'C 2/c'
_symmetry_Int_Tables_number      15
_space_group_name_Hall           '-C 2yn'
loop_
_symmetry_equiv_pos_site_id
_symmetry_equiv_pos_as_xyz
1 x,y,z
2 -x,y,1/2-z
3 1/2+x,1/2+y,z
4 1/2-x,1/2+y,1/2-z
5 -x,-y,-z
6 x,-y,1/2+z
7 1/2-x,1/2-y,-z
8 1/2+x,1/2-y,1/2+z
_cell_length_a                   27.804(2)
_cell_length_b                   8.3756(7)
_cell_length_c                   20.8314(18)
_cell_angle_alpha                90
_cell_angle_beta                 114.234(2)
_cell_angle_gamma                90
_cell_volume                     4423.62
_exptl_crystal_colour            white
_exptl_crystal_description       block
_chemical_melting_point          '263-264 deg.C'
_cell_formula_units_Z            8
loop_
_atom_site_label
_atom_site_type_symbol
_atom_site_fract_x
_atom_site_fract_y
_atom_site_fract_z
N1 N 0.16430(9) 0.7163(3) 0.66206(11)
O1 O 0.11075(9) 0.8859(3) 0.41503(9)
O2 O 0.07213(9) 0.9292(3) 0.58426(11)
O3 O 0.20314(9) 0.9059(3) 0.62230(10)
O4 O 0.03663(8) 0.3589(2) 0.50876(11)
C1 C 0.16831(12) 0.8080(4) 0.60927(14)
C2 C 0.12466(11) 0.7920(3) 0.53556(13)
C3 C 0.14822(12) 0.8229(4) 0.48194(13)
H1 H 0.1795 0.8913 0.5020
C4 C 0.16257(11) 0.6598(4) 0.46701(14)
C5 C 0.19656(12) 0.6161(4) 0.43642(14)
H2 H 0.2153 0.6933 0.4241
C6 C 0.20211(13) 0.4573(5) 0.42467(16)
H3 H 0.2248 0.4264 0.4043
C7 C 0.17432(14) 0.3436(4) 0.44284(16)
H4 H 0.1784 0.2366 0.4344
C8 C 0.14035(12) 0.3847(4) 0.47345(15)
H5 H 0.1215 0.3069 0.4853
C9 C 0.13505(11) 0.5453(4) 0.48606(13)
C10 C 0.10144(11) 0.6218(3) 0.51934(14)
H6 H 0.0652 0.6297 0.4833
C11 C 0.09990(11) 0.5389(3) 0.58228(14)
C12 C 0.06414(12) 0.4035(4) 0.56902(16)
C13 C 0.06323(13) 0.3167(4) 0.63151(15)
H7 H 0.0893 0.2321 0.6447
H8 H 0.0289 0.2674 0.6181
C14 C 0.07424(12) 0.4232(4) 0.69506(15)
C15 C 0.12595(12) 0.5107(4) 0.71165(15)
H9 H 0.1305 0.5913 0.7471
H10 H 0.1549 0.4354 0.7313
C16 C 0.12855(11) 0.5894(3) 0.64817(14)
C17 C 0.19199(12) 0.7804(4) 0.73237(14)
C18 C 0.16788(13) 0.8986(4) 0.75465(15)
H11 H 0.1341 0.9332 0.7255
C19 C 0.19418(15) 0.9648(4) 0.82033(17)
H12 H 0.1779 1.0434 0.8359
C20 C 0.24402(14) 0.9158(4) 0.86279(16)
H13 H 0.2618 0.9622 0.9068
C21 C 0.26775(13) 0.7983(4) 0.84040(16)
H14 H 0.3016 0.7646 0.8695
C22 C 0.24167(12) 0.7293(4) 0.77481(15)
H15 H 0.2577 0.6490 0.7597
C23 C 0.08305(12) 0.9134(4) 0.53355(17)
C24 C 0.05850(13) 0.9997(4) 0.46911(17)
H16 H 0.0321 1.0725 0.4649
C25 C 0.07160(14) 0.9812(4) 0.41477(17)
C26 C 0.04491(16) 1.0623(5) 0.34584(17)
H17 H 0.0686 1.1382 0.3398
H18 H 0.0141 1.1168 0.3444
H19 H 0.0348 0.9846 0.3087
C27 C 0.07925(14) 0.3241(4) 0.75894(16)
H20 H 0.1064 0.2453 0.7683
H21 H 0.0463 0.2720 0.7496
H22 H 0.0882 0.3927 0.7991
C28 C 0.02942(13) 0.5433(4) 0.67831(18)
H23 H -0.0031 0.4872 0.6672
H24 H 0.0268 0.6074 0.6388
H25 H 0.0365 0.6107 0.7184
loop_
_geom_bond_atom_site_label_1
_geom_bond_atom_site_label_2
_geom_bond_site_symmetry_1
_geom_bond_site_symmetry_2
N1 C1 1_555 1_555
O1 C3 1_555 1_555
O2 C23 1_555 1_555
O3 C1 1_555 1_555
O4 C12 1_555 1_555
C1 C2 1_555 1_555
C2 C3 1_555 1_555
C3 H1 1_555 1_555
C4 C3 1_555 1_555
C5 C4 1_555 1_555
H2 C5 1_555 1_555
C6 C5 1_555 1_555
H3 C6 1_555 1_555
C7 C6 1_555 1_555
H4 C7 1_555 1_555
C8 C7 1_555 1_555
H5 C8 1_555 1_555
C9 C4 1_555 1_555
C10 C2 1_555 1_555
H6 C10 1_555 1_555
C11 C10 1_555 1_555
C12 C11 1_555 1_555
C13 C12 1_555 1_555
H7 C13 1_555 1_555
H8 C13 1_555 1_555
C14 C13 1_555 1_555
C15 C14 1_555 1_555
H9 C15 1_555 1_555
H10 C15 1_555 1_555
C16 N1 1_555 1_555
C17 N1 1_555 1_555
C18 C17 1_555 1_555
H11 C18 1_555 1_555
C19 C18 1_555 1_555
H12 C19 1_555 1_555
C20 C19 1_555 1_555
H13 C20 1_555 1_555
C21 C20 1_555 1_555
H14 C21 1_555 1_555
C22 C17 1_555 1_555
H15 C22 1_555 1_555
C23 C2 1_555 1_555
C24 C23 1_555 1_555
H16 C24 1_555 1_555
C25 O1 1_555 1_555
C26 C25 1_555 1_555
H17 C26 1_555 1_555
H18 C26 1_555 1_555
H19 C26 1_555 1_555
C27 C14 1_555 1_555
H20 C27 1_555 1_555
H21 C27 1_555 1_555
H22 C27 1_555 1_555
C28 C14 1_555 1_555
H23 C28 1_555 1_555
H24 C28 1_555 1_555
H25 C28 1_555 1_555
C8 C9 1_555 1_555
C9 C10 1_555 1_555
C11 C16 1_555 1_555
C15 C16 1_555 1_555
C21 C22 1_555 1_555
C24 C25 1_555 1_555

#END
