
#######################################################################
#
#                 Cambridge Crystallographic Data Centre
#                                CCDC 
#
#######################################################################
#
# If this CIF has been generated from an entry in the Cambridge 
# Structural Database, then it will include bibliographic, chemical, 
# crystal, experimental, refinement or atomic coordinate data resulting 
# from the CCDC's data processing and validation procedures.
#
#######################################################################

data_LEJWUV
_chemical_formula_moiety         'C30 H18 Cl4 N2 O2'
_chemical_name_systematic        
2-(2-(1,3-benzoxazol-2-yl)-3,4-bis(2,4-dichlorophenyl)cyclobutyl)-1,3-benzoxazole
_symmetry_cell_setting           triclinic
_symmetry_space_group_name_H-M   'P -1'
_symmetry_Int_Tables_number      2
_space_group_name_Hall           '-P 1'
loop_
_symmetry_equiv_pos_site_id
_symmetry_equiv_pos_as_xyz
1 x,y,z
2 -x,-y,-z
_cell_length_a                   9.8272(18)
_cell_length_b                   12.1676(16)
_cell_length_c                   13.416(2)
_cell_angle_alpha                107.902(13)
_cell_angle_beta                 102.213(14)
_cell_angle_gamma                109.715(14)
_cell_volume                     1345.12
_exptl_crystal_colour            colorless
_exptl_crystal_description       plate
_cell_formula_units_Z            2
loop_
_atom_site_label
_atom_site_type_symbol
_atom_site_fract_x
_atom_site_fract_y
_atom_site_fract_z
Cl1 Cl 0.70296(12) 0.60120(8) 0.13372(10)
Cl2 Cl 1.28568(11) 0.66629(9) 0.21076(9)
Cl3 Cl 0.47445(14) 0.50235(10) 0.30048(11)
Cl4 Cl 0.87157(15) 0.44579(12) 0.59622(8)
O1 O 0.3783(2) 0.16131(19) -0.19263(18)
O2 O 0.2070(2) -0.0367(2) -0.09190(19)
N1 N 0.4904(3) 0.0276(2) -0.2220(2)
N2 N 0.1772(3) 0.1418(2) -0.0275(2)
C1 C 0.2346(5) 0.1067(4) -0.3893(3)
H1 H 0.1909 0.1639 -0.3734
C2 C 0.2079(5) 0.0273(5) -0.4973(4)
H2 H 0.1432 0.0304 -0.5570
C3 C 0.2749(6) -0.0568(5) -0.5189(4)
H3 H 0.2539 -0.1087 -0.5927
C4 C 0.3713(5) -0.0658(3) -0.4346(3)
H4 H 0.4163 -0.1222 -0.4497
C5 C 0.3987(4) 0.0134(3) -0.3251(3)
C6 C 0.3308(4) 0.0943(3) -0.3076(3)
C7 C -0.1050(4) 0.0446(4) -0.1484(3)
H5 H -0.1203 0.1180 -0.1219
C8 C -0.2223(4) -0.0684(4) -0.2298(3)
H6 H -0.3188 -0.0714 -0.2591
C9 C -0.2002(4) -0.1768(4) -0.2686(3)
H7 H -0.2827 -0.2516 -0.3234
C10 C -0.0614(4) -0.1788(3) -0.2296(3)
H8 H -0.0468 -0.2525 -0.2563
C11 C 0.0560(4) -0.0646(3) -0.1479(3)
C12 C 0.0356(4) 0.0451(3) -0.1077(3)
C13 C 0.4745(3) 0.1148(3) -0.1497(3)
C14 C 0.2692(4) 0.0878(3) -0.0231(3)
C15 C 0.5449(3) 0.1699(3) -0.0264(2)
H9 H 0.6262 0.1436 -0.0043
C16 C 0.4358(4) 0.1510(3) 0.0436(3)
H10 H 0.4605 0.1055 0.0885
C17 C 0.5116(4) 0.2971(3) 0.1159(3)
H11 H 0.4360 0.3327 0.1092
C18 C 0.6054(3) 0.3167(2) 0.0356(2)
H12 H 0.5555 0.3466 -0.0147
C19 C 0.7720(5) 0.4062(4) 0.4580(3)
C20 C 0.7857(4) 0.3173(3) 0.3733(3)
H13 H 0.8510 0.2799 0.3895
C21 C 0.7015(4) 0.2845(3) 0.2644(3)
H14 H 0.7112 0.2242 0.2075
C22 C 0.6023(4) 0.3375(3) 0.2353(3)
C23 C 0.5931(4) 0.4287(3) 0.3244(3)
C24 C 0.6766(5) 0.4614(4) 0.4344(3)
H15 H 0.6678 0.5212 0.4923
C25 C 1.0902(4) 0.5632(3) 0.1607(3)
C26 C 1.0425(4) 0.4338(3) 0.1164(3)
H16 H 1.1135 0.3995 0.1116
C27 C 0.8861(4) 0.3548(3) 0.0789(3)
H17 H 0.8540 0.2666 0.0507
C28 C 0.7758(4) 0.4009(3) 0.0814(2)
C29 C 0.8312(4) 0.5336(3) 0.1274(3)
C30 C 0.9867(4) 0.6138(3) 0.1670(3)
H18 H 1.0205 0.7022 0.1979
loop_
_geom_bond_atom_site_label_1
_geom_bond_atom_site_label_2
_geom_bond_site_symmetry_1
_geom_bond_site_symmetry_2
Cl1 C29 1_555 1_555
Cl2 C25 1_555 1_555
Cl3 C23 1_555 1_555
Cl4 C19 1_555 1_555
O1 C6 1_555 1_555
O2 C11 1_555 1_555
N1 C5 1_555 1_555
N2 C12 1_555 1_555
C1 H1 1_555 1_555
C2 C1 1_555 1_555
H2 C2 1_555 1_555
C3 C2 1_555 1_555
H3 C3 1_555 1_555
C4 C3 1_555 1_555
H4 C4 1_555 1_555
C5 C4 1_555 1_555
C6 C1 1_555 1_555
C7 H5 1_555 1_555
C8 C7 1_555 1_555
H6 C8 1_555 1_555
C9 C8 1_555 1_555
H7 C9 1_555 1_555
C10 C9 1_555 1_555
H8 C10 1_555 1_555
C11 C10 1_555 1_555
C12 C7 1_555 1_555
C13 O1 1_555 1_555
C14 O2 1_555 1_555
C15 C13 1_555 1_555
H9 C15 1_555 1_555
C16 C14 1_555 1_555
H10 C16 1_555 1_555
C17 C16 1_555 1_555
H11 C17 1_555 1_555
C18 C15 1_555 1_555
H12 C18 1_555 1_555
C19 C20 1_555 1_555
C20 H13 1_555 1_555
C21 C20 1_555 1_555
H14 C21 1_555 1_555
C22 C17 1_555 1_555
C23 C22 1_555 1_555
C24 C19 1_555 1_555
H15 C24 1_555 1_555
C25 C26 1_555 1_555
C26 H16 1_555 1_555
C27 C26 1_555 1_555
H17 C27 1_555 1_555
C28 C18 1_555 1_555
C29 C28 1_555 1_555
C30 C25 1_555 1_555
H18 C30 1_555 1_555
N1 C13 1_555 1_555
N2 C14 1_555 1_555
C5 C6 1_555 1_555
C11 C12 1_555 1_555
C15 C16 1_555 1_555
C17 C18 1_555 1_555
C21 C22 1_555 1_555
C23 C24 1_555 1_555
C27 C28 1_555 1_555
C29 C30 1_555 1_555

#END
