
#######################################################################
#
#                 Cambridge Crystallographic Data Centre
#                                CCDC 
#
#######################################################################
#
# If this CIF has been generated from an entry in the Cambridge 
# Structural Database, then it will include bibliographic, chemical, 
# crystal, experimental, refinement or atomic coordinate data resulting 
# from the CCDC's data processing and validation procedures.
#
#######################################################################

data_LEJXIK
_chemical_formula_moiety         'C15 H16 O3'
_chemical_name_systematic        
'ethyl 11-methyl-10-oxatetracyclo[7.2.1.0^2,11^.0^3,8^]dodeca-3,5,7-triene-12-carboxylate'
_symmetry_cell_setting           monoclinic
_symmetry_space_group_name_H-M   'P 21/n'
_symmetry_Int_Tables_number      14
_space_group_name_Hall           '-P 2yn'
loop_
_symmetry_equiv_pos_site_id
_symmetry_equiv_pos_as_xyz
1 x,y,z
2 1/2-x,1/2+y,1/2-z
3 -x,-y,-z
4 1/2+x,1/2-y,1/2+z
_cell_length_a                   12.607(8)
_cell_length_b                   5.662(4)
_cell_length_c                   18.667(14)
_cell_angle_alpha                90
_cell_angle_beta                 102.68(2)
_cell_angle_gamma                90
_cell_volume                     1299.97
_exptl_crystal_colour            colorless
_exptl_crystal_description       Block
_cell_formula_units_Z            4
loop_
_atom_site_label
_atom_site_type_symbol
_atom_site_fract_x
_atom_site_fract_y
_atom_site_fract_z
C1 C 0.58801(18) 0.4059(4) 0.31980(14)
C2 C 0.5254(2) 0.5345(4) 0.26214(16)
H1 H 0.4909 0.6726 0.2715
C3 C 0.5150(2) 0.4552(6) 0.19079(18)
H2 H 0.4726 0.5391 0.1520
C4 C 0.5672(2) 0.2527(5) 0.17712(16)
H3 H 0.5600 0.2016 0.1289
C5 C 0.6303(2) 0.1233(5) 0.23366(15)
H4 H 0.6658 -0.0127 0.2236
C6 C 0.64009(18) 0.1993(4) 0.30593(13)
C7 C 0.70525(19) 0.0813(4) 0.37151(14)
H5 H 0.7449 -0.0613 0.3630
C8 C 0.6648(2) 0.0912(4) 0.44319(14)
H6 H 0.6752 -0.0444 0.4766
C9 C 0.57348(19) 0.2616(4) 0.44262(14)
H7 H 0.5750 0.3130 0.4930
C10 C 0.60879(19) 0.4691(4) 0.39907(14)
H8 H 0.5732 0.6175 0.4072
C11 C 0.7595(2) 0.2382(4) 0.43527(15)
C12 C 0.8760(2) 0.2104(6) 0.47514(19)
H9 H 0.9226 0.2808 0.4467
H10 H 0.8930 0.0456 0.4821
H11 H 0.8869 0.2871 0.5221
C13 C 0.4613(2) 0.1735(4) 0.40779(14)
C14 C 0.2720(9) 0.305(2) 0.3796(7)
H12 H 0.2342 0.3209 0.4193
H13 H 0.2585 0.1482 0.3587
C15 C 0.2347(11) 0.487(3) 0.3230(9)
H14 H 0.1581 0.4686 0.3035
H15 H 0.2488 0.6406 0.3445
H16 H 0.2730 0.4688 0.2842
O1 O 0.72585(14) 0.4784(3) 0.42771(11)
O2 O 0.43799(16) -0.0215(3) 0.38476(13)
O3 O 0.38817(14) 0.3440(3) 0.40630(12)
C16? C 0.2820(11) 0.288(3) 0.3571(10)
H17? H 0.2489 0.1517 0.3751
H18? H 0.2907 0.2550 0.3077
C17? C 0.2137(11) 0.507(2) 0.3585(11)
H19? H 0.1429 0.4836 0.3276
H20? H 0.2067 0.5370 0.4079
H21? H 0.2481 0.6396 0.3410
loop_
_geom_bond_atom_site_label_1
_geom_bond_atom_site_label_2
_geom_bond_site_symmetry_1
_geom_bond_site_symmetry_2
C1 C2 1_555 1_555
C2 H1 1_555 1_555
C3 C2 1_555 1_555
H2 C3 1_555 1_555
C4 C3 1_555 1_555
H3 C4 1_555 1_555
C5 C4 1_555 1_555
H4 C5 1_555 1_555
C6 C1 1_555 1_555
C7 C6 1_555 1_555
H5 C7 1_555 1_555
C8 C7 1_555 1_555
H6 C8 1_555 1_555
C9 C8 1_555 1_555
H7 C9 1_555 1_555
C10 C1 1_555 1_555
H8 C10 1_555 1_555
C11 C7 1_555 1_555
C12 C11 1_555 1_555
H9 C12 1_555 1_555
H10 C12 1_555 1_555
H11 C12 1_555 1_555
C13 C9 1_555 1_555
C14 H12 1_555 1_555
H13 C14 1_555 1_555
C15 C14 1_555 1_555
H14 C15 1_555 1_555
H15 C15 1_555 1_555
H16 C15 1_555 1_555
O1 C10 1_555 1_555
O2 C13 1_555 1_555
O3 C13 1_555 1_555
C5 C6 1_555 1_555
C8 C11 1_555 1_555
C9 C10 1_555 1_555
C11 O1 1_555 1_555
C14 O3 1_555 1_555

#END
