
#######################################################################
#
#                 Cambridge Crystallographic Data Centre
#                                CCDC 
#
#######################################################################
#
# If this CIF has been generated from an entry in the Cambridge 
# Structural Database, then it will include bibliographic, chemical, 
# crystal, experimental, refinement or atomic coordinate data resulting 
# from the CCDC's data processing and validation procedures.
#
#######################################################################

data_LELPUQ
_chemical_formula_moiety         'C34 H54 B10 N4 Si1,C7 H8'
_chemical_name_systematic        
1,2-(1-(1,2-diphenylethene-1,2-diyl)-2-isopropyl-1-(1,3-di-isopropyl-4,5-dimethylimidazol-2-ylidene)-3-(isopropylimino)-1-sila-2-azapropane-1,3-diyl)-1,2-dicarba-closo-dodecaborane
_symmetry_cell_setting           orthorhombic
_symmetry_space_group_name_H-M   'P b c a'
_symmetry_Int_Tables_number      61
_space_group_name_Hall           '-P 2ac 2ab'
loop_
_symmetry_equiv_pos_site_id
_symmetry_equiv_pos_as_xyz
1 x,y,z
2 1/2-x,-y,1/2+z
3 -x,1/2+y,1/2-z
4 1/2+x,1/2-y,-z
5 -x,-y,-z
6 1/2+x,y,1/2-z
7 x,1/2-y,1/2+z
8 1/2-x,1/2+y,z
_cell_length_a                   20.0349(5)
_cell_length_b                   20.6925(5)
_cell_length_c                   21.5296(5)
_cell_angle_alpha                90
_cell_angle_beta                 90
_cell_angle_gamma                90
_cell_volume                     8925.57
_exptl_crystal_colour            yellow
_exptl_crystal_description       block
_cell_formula_units_Z            8
loop_
_atom_site_label
_atom_site_type_symbol
_atom_site_fract_x
_atom_site_fract_y
_atom_site_fract_z
Si1 Si 0.14852(2) 0.17877(2) 0.59244(2)
C1 C 0.19502(5) 0.07445(5) 0.67478(5)
C2 C 0.13027(5) 0.09282(5) 0.63110(4)
C3 C 0.24447(5) 0.13011(5) 0.67401(5)
C4 C 0.33493(6) 0.08126(6) 0.73352(6)
H1 H 0.3023 0.0474 0.7431
C5 C 0.35814(9) 0.11312(9) 0.79331(8)
H2 H 0.3794 0.0815 0.8193
H3 H 0.3893 0.1469 0.7837
H4 H 0.3204 0.1311 0.8147
C6 C 0.39264(8) 0.05244(9) 0.69821(10)
H5 H 0.4133 0.0194 0.7229
H6 H 0.3767 0.0340 0.6601
H7 H 0.4247 0.0856 0.6892
C7 C 0.25815(5) 0.24451(5) 0.64664(5)
H8 H 0.2296 0.2783 0.6289
C8 C 0.31988(6) 0.24218(7) 0.60539(7)
H9 H 0.3437 0.2823 0.6087
H10 H 0.3482 0.2073 0.6184
H11 H 0.3066 0.2355 0.5630
C9 C 0.27446(7) 0.26713(6) 0.71279(6)
H12 H 0.3005 0.3060 0.7110
H13 H 0.2337 0.2754 0.7349
H14 H 0.2994 0.2341 0.7339
C10 C 0.06127(5) 0.21495(5) 0.61633(5)
C11 C -0.01946(6) 0.27595(6) 0.65890(6)
C12 C -0.04608(6) 0.24523(6) 0.60955(6)
C13 C 0.09721(7) 0.28202(6) 0.70660(5)
H15 H 0.1377 0.2562 0.7002
C14 C 0.07775(9) 0.27330(8) 0.77447(6)
H16 H 0.1122 0.2906 0.8006
H17 H 0.0367 0.2957 0.7824
H18 H 0.0721 0.2281 0.7832
C15 C 0.11558(9) 0.35154(7) 0.69047(8)
H19 H 0.1483 0.3671 0.7194
H20 H 0.1336 0.3531 0.6492
H21 H 0.0764 0.3782 0.6927
C16 C -0.05382(7) 0.32181(7) 0.70238(7)
H22 H -0.0227 0.3364 0.7333
H23 H -0.0703 0.3582 0.6794
H24 H -0.0904 0.3002 0.7222
C17 C -0.11590(6) 0.25114(8) 0.58502(8)
H25 H -0.1211 0.2237 0.5494
H26 H -0.1470 0.2383 0.6166
H27 H -0.1243 0.2952 0.5734
C18 C -0.00204(6) 0.16616(6) 0.52805(5)
H28 H 0.0396 0.1414 0.5252
C19 C -0.05802(7) 0.11669(8) 0.53263(7)
H29 H -0.0596 0.0916 0.4952
H30 H -0.0500 0.0886 0.5674
H31 H -0.0998 0.1386 0.5383
C20 C -0.00556(7) 0.20737(8) 0.46938(6)
H32 H -0.0096 0.1798 0.4337
H33 H -0.0436 0.2354 0.4716
H34 H 0.0343 0.2328 0.4659
C21 C 0.16977(5) 0.23492(5) 0.52650(5)
C22 C 0.16159(5) 0.17226(5) 0.50933(5)
C23 C 0.18675(6) 0.29290(5) 0.48913(5)
C24 C 0.21900(7) 0.34605(6) 0.51373(6)
H35 H 0.2304 0.3459 0.5556
C25 C 0.23474(9) 0.39921(7) 0.47833(7)
H36 H 0.2570 0.4339 0.4964
C26 C 0.21809(9) 0.40162(7) 0.41719(7)
H37 H 0.2296 0.4372 0.3931
C27 C 0.18421(10) 0.35083(8) 0.39173(7)
H38 H 0.1710 0.3527 0.3503
C28 C 0.16925(9) 0.29675(7) 0.42670(6)
H39 H 0.1471 0.2623 0.4082
C29 C 0.17178(5) 0.13694(5) 0.45029(5)
C30 C 0.22693(7) 0.14940(8) 0.41394(6)
H40 H 0.2575 0.1805 0.4268
C31 C 0.23795(8) 0.11690(9) 0.35903(7)
H41 H 0.2757 0.1264 0.3356
C32 C 0.19479(8) 0.07157(7) 0.33875(6)
H42 H 0.2028 0.0494 0.3019
C33 C 0.13973(8) 0.05888(8) 0.37273(7)
H43 H 0.1089 0.0286 0.3586
C34 C 0.12870(7) 0.09057(7) 0.42859(6)
H44 H 0.0912 0.0801 0.4519
N1 N 0.30323(4) 0.13166(5) 0.69631(5)
N2 N 0.21764(4) 0.18414(4) 0.64455(4)
N3 N 0.04662(4) 0.25662(4) 0.66258(4)
N4 N 0.00417(4) 0.20718(4) 0.58392(4)
B1 B 0.18550(6) 0.03531(6) 0.60497(6)
H45 H 0.2182 0.0418 0.5644
B2 B 0.21229(6) -0.00684(6) 0.67266(6)
H46 H 0.2626 -0.0279 0.6760
B3 B 0.17251(6) 0.02931(6) 0.73815(6)
H47 H 0.1972 0.0317 0.7838
B4 B 0.12166(6) 0.09272(6) 0.71089(5)
H48 H 0.1131 0.1366 0.7386
B5 B 0.09833(6) 0.02456(6) 0.59779(6)
H49 H 0.0738 0.0238 0.5521
B6 B 0.14938(7) -0.04037(6) 0.62411(7)
H50 H 0.1582 -0.0838 0.5958
B7 B 0.14177(7) -0.04392(6) 0.70673(7)
H51 H 0.1458 -0.0899 0.7321
B8 B 0.08568(7) 0.01799(7) 0.73075(7)
H52 H 0.0532 0.0123 0.7716
B9 B 0.05931(6) 0.05995(7) 0.66264(6)
H53 H 0.0096 0.0822 0.6590
B10 B 0.07102(7) -0.02498(7) 0.66003(7)
H54 H 0.0289 -0.0587 0.6550
C35 C 1.05505(15) 0.3989(2) 0.5234(2)
H55 H 1.0626 0.3770 0.4847
H56 H 1.0809 0.4379 0.5246
H57 H 1.0681 0.3713 0.5571
C36 C 0.98604(12) 0.41435(12) 0.52903(11)
C37 C 0.96139(12) 0.44547(12) 0.57940(11)
H58 H 0.9890 0.4579 0.6120
C38 C 0.89671(13) 0.45745(15) 0.58036(13)
H59 H 0.8768 0.4774 0.6144
C39 C 0.85955(16) 0.43943(14) 0.52923(11)
H60 H 0.8139 0.4474 0.5290
C40 C 0.88780(14) 0.41046(13) 0.47953(13)
H61 H 0.8601 0.3993 0.4466
C41 C 0.95468(13) 0.39626(13) 0.47424(11)
H62 H 0.9753 0.3777 0.4399
loop_
_geom_bond_atom_site_label_1
_geom_bond_atom_site_label_2
_geom_bond_site_symmetry_1
_geom_bond_site_symmetry_2
Si1 C2 1_555 1_555
C1 C2 1_555 1_555
C2 B1 1_555 1_555
C3 C1 1_555 1_555
C4 H1 1_555 1_555
C5 C4 1_555 1_555
H2 C5 1_555 1_555
H3 C5 1_555 1_555
H4 C5 1_555 1_555
C6 C4 1_555 1_555
H5 C6 1_555 1_555
H6 C6 1_555 1_555
H7 C6 1_555 1_555
C7 H8 1_555 1_555
C8 C7 1_555 1_555
H9 C8 1_555 1_555
H10 C8 1_555 1_555
H11 C8 1_555 1_555
C9 C7 1_555 1_555
H12 C9 1_555 1_555
H13 C9 1_555 1_555
H14 C9 1_555 1_555
C10 Si1 1_555 1_555
C11 C12 1_555 1_555
C12 C17 1_555 1_555
C13 H15 1_555 1_555
C14 C13 1_555 1_555
H16 C14 1_555 1_555
H17 C14 1_555 1_555
H18 C14 1_555 1_555
C15 C13 1_555 1_555
H19 C15 1_555 1_555
H20 C15 1_555 1_555
H21 C15 1_555 1_555
C16 C11 1_555 1_555
H22 C16 1_555 1_555
H23 C16 1_555 1_555
H24 C16 1_555 1_555
C17 H25 1_555 1_555
H26 C17 1_555 1_555
H27 C17 1_555 1_555
C18 H28 1_555 1_555
C19 C18 1_555 1_555
H29 C19 1_555 1_555
H30 C19 1_555 1_555
H31 C19 1_555 1_555
C20 C18 1_555 1_555
H32 C20 1_555 1_555
H33 C20 1_555 1_555
H34 C20 1_555 1_555
C21 Si1 1_555 1_555
C22 Si1 1_555 1_555
C23 C21 1_555 1_555
C24 C23 1_555 1_555
H35 C24 1_555 1_555
C25 C24 1_555 1_555
H36 C25 1_555 1_555
C26 C25 1_555 1_555
H37 C26 1_555 1_555
C27 C26 1_555 1_555
H38 C27 1_555 1_555
C28 C23 1_555 1_555
H39 C28 1_555 1_555
C29 C22 1_555 1_555
C30 C29 1_555 1_555
H40 C30 1_555 1_555
C31 C30 1_555 1_555
H41 C31 1_555 1_555
C32 C31 1_555 1_555
H42 C32 1_555 1_555
C33 C32 1_555 1_555
H43 C33 1_555 1_555
C34 C29 1_555 1_555
H44 C34 1_555 1_555
N1 C3 1_555 1_555
N2 Si1 1_555 1_555
N3 C10 1_555 1_555
N4 C10 1_555 1_555
B1 C1 1_555 1_555
H45 B1 1_555 1_555
B2 C1 1_555 1_555
H46 B2 1_555 1_555
B3 C1 1_555 1_555
H47 B3 1_555 1_555
B4 C1 1_555 1_555
H48 B4 1_555 1_555
B5 C2 1_555 1_555
H49 B5 1_555 1_555
B6 B1 1_555 1_555
H50 B6 1_555 1_555
B7 B2 1_555 1_555
H51 B7 1_555 1_555
B8 B3 1_555 1_555
H52 B8 1_555 1_555
B9 C2 1_555 1_555
H53 B9 1_555 1_555
B10 B5 1_555 1_555
H54 B10 1_555 1_555
C35 H55 1_555 1_555
H56 C35 1_555 1_555
H57 C35 1_555 1_555
C36 C35 1_555 1_555
C37 C36 1_555 1_555
H58 C37 1_555 1_555
C38 C37 1_555 1_555
H59 C38 1_555 1_555
C39 C38 1_555 1_555
H60 C39 1_555 1_555
C40 C39 1_555 1_555
H61 C40 1_555 1_555
C41 C36 1_555 1_555
H62 C41 1_555 1_555
C2 B4 1_555 1_555
C3 N2 1_555 1_555
C4 N1 1_555 1_555
C7 N2 1_555 1_555
C11 N3 1_555 1_555
C12 N4 1_555 1_555
C13 N3 1_555 1_555
C18 N4 1_555 1_555
C21 C22 1_555 1_555
C27 C28 1_555 1_555
C33 C34 1_555 1_555
B1 B2 1_555 1_555
B1 B5 1_555 1_555
B2 B3 1_555 1_555
B2 B6 1_555 1_555
B3 B4 1_555 1_555
B3 B7 1_555 1_555
B4 B8 1_555 1_555
B4 B9 1_555 1_555
B5 B6 1_555 1_555
B5 B9 1_555 1_555
B6 B7 1_555 1_555
B6 B10 1_555 1_555
B7 B8 1_555 1_555
B7 B10 1_555 1_555
B8 B9 1_555 1_555
B8 B10 1_555 1_555
B9 B10 1_555 1_555
C40 C41 1_555 1_555

#END
