
#######################################################################
#
#                 Cambridge Crystallographic Data Centre
#                                CCDC 
#
#######################################################################
#
# If this CIF has been generated from an entry in the Cambridge 
# Structural Database, then it will include bibliographic, chemical, 
# crystal, experimental, refinement or atomic coordinate data resulting 
# from the CCDC's data processing and validation procedures.
#
#######################################################################

data_LELVEG
_chemical_formula_moiety         'C16 H30 Mg1 N4 O1'
_chemical_name_systematic        
(5-methylfuran-2-yl)-(1,4,7-trimethyl-1,4,7,10-tetraazacyclododecanato)-magnesium
_symmetry_cell_setting           triclinic
_symmetry_space_group_name_H-M   'P -1'
_symmetry_Int_Tables_number      2
_space_group_name_Hall           '-P 1'
loop_
_symmetry_equiv_pos_site_id
_symmetry_equiv_pos_as_xyz
1 x,y,z
2 -x,-y,-z
_cell_length_a                   7.3826(19)
_cell_length_b                   11.035(3)
_cell_length_c                   11.580(3)
_cell_angle_alpha                88.060(5)
_cell_angle_beta                 78.351(5)
_cell_angle_gamma                75.620(5)
_cell_volume                     894.877
_exptl_crystal_colour            colorless
_exptl_crystal_description       block
_cell_formula_units_Z            2
_chemical_properties_physical    
Air-sensitive,Moisture-sensitive,Oxygen-sensitive
loop_
_atom_site_label
_atom_site_type_symbol
_atom_site_fract_x
_atom_site_fract_y
_atom_site_fract_z
Mg1 Mg 0.19246(8) 0.16775(5) 0.24868(5)
N1 N -0.0262(2) 0.32012(13) 0.26987(13)
N2 N 0.1674(2) 0.21132(15) 0.44326(13)
N3 N 0.4665(2) 0.21563(14) 0.23984(14)
N4 N 0.2342(2) 0.24821(13) 0.06302(13)
O1 O 0.33982(17) -0.11804(11) 0.28418(11)
C1 C -0.0809(3) 0.38328(17) 0.38179(16)
H1 H -0.2200 0.4215 0.3986
H2 H -0.0139 0.4508 0.3809
C2 C -0.0299(3) 0.29043(18) 0.47654(17)
H3 H -0.0431 0.3364 0.5509
H4 H -0.1205 0.2362 0.4908
C3 C 0.3125(3) 0.2825(2) 0.44620(18)
H5 H 0.4105 0.2324 0.4874
H6 H 0.2501 0.3606 0.4928
C4 C 0.4101(4) 0.3158(3) 0.3264(2)
H7 H 0.3230 0.3878 0.2967
H8 H 0.5250 0.3428 0.3350
C5 C 0.5331(4) 0.2583(3) 0.1192(2)
H9 H 0.6091 0.1849 0.0693
H10 H 0.6174 0.3145 0.1232
C6 C 0.6242(4) 0.1121(3) 0.2686(3)
H11 H 0.6603 0.0464 0.2076
H12 H 0.5807 0.0773 0.3452
H13 H 0.7348 0.1450 0.2719
C7 C 0.3711(3) 0.32599(18) 0.06293(17)
H14 H 0.3047 0.4053 0.1066
H15 H 0.4218 0.3466 -0.0192
C8 C 0.0409(3) 0.32651(17) 0.05910(16)
H16 H -0.0412 0.2721 0.0452
H17 H 0.0495 0.3847 -0.0076
C9 C -0.0499(3) 0.40117(17) 0.17269(17)
H18 H 0.0114 0.4706 0.1773
H19 H -0.1874 0.4374 0.1747
C10 C 0.1923(3) 0.1062(2) 0.52485(18)
H20 H 0.1824 0.1382 0.6044
H21 H 0.3182 0.0490 0.4989
H22 H 0.0930 0.0613 0.5256
C11 C 0.2991(3) 0.15972(18) -0.03751(16)
H23 H 0.2187 0.1002 -0.0290
H24 H 0.4320 0.1143 -0.0398
H25 H 0.2900 0.2057 -0.1109
C12 C 0.2131(2) -0.02786(16) 0.22777(16)
C13 C 0.1320(3) -0.09671(17) 0.16737(16)
H26 H 0.0398 -0.0629 0.1207
C14 C 0.2057(3) -0.22708(17) 0.18434(16)
H27 H 0.1725 -0.2946 0.1519
C15 C 0.3308(3) -0.23521(16) 0.25510(16)
C16 C 0.4590(3) -0.34223(17) 0.30323(18)
H28 H 0.4495 -0.4209 0.2710
H29 H 0.4210 -0.3417 0.3894
H30 H 0.5910 -0.3346 0.2810
H31? H 0.2550 0.3718 0.4334
H32? H 0.3413 0.2763 0.5264
C17? C 0.4787(10) 0.2476(8) 0.3680(6)
H33? H 0.5593 0.1732 0.3991
H34? H 0.5452 0.3157 0.3638
C18? C 0.4293(10) 0.3402(6) 0.1761(6)
H35? H 0.3274 0.4026 0.2271
H36? H 0.5465 0.3714 0.1606
C19? C 0.6411(10) 0.1319(7) 0.1873(8)
H37? H 0.7480 0.1665 0.1956
H38? H 0.6434 0.1204 0.1034
H39? H 0.6526 0.0510 0.2265
H40? H 0.3147 0.4105 0.0361
H41? H 0.4878 0.2899 0.0037
loop_
_geom_bond_atom_site_label_1
_geom_bond_atom_site_label_2
_geom_bond_site_symmetry_1
_geom_bond_site_symmetry_2
Mg1 N1 1_555 1_555
N1 C1 1_555 1_555
N2 Mg1 1_555 1_555
N3 Mg1 1_555 1_555
N4 Mg1 1_555 1_555
O1 C12 1_555 1_555
C1 H1 1_555 1_555
H2 C1 1_555 1_555
C2 N2 1_555 1_555
H3 C2 1_555 1_555
H4 C2 1_555 1_555
C3 N2 1_555 1_555
H5 C3 1_555 1_555
H6 C3 1_555 1_555
C4 N3 1_555 1_555
H7 C4 1_555 1_555
H8 C4 1_555 1_555
C5 N3 1_555 1_555
H9 C5 1_555 1_555
H10 C5 1_555 1_555
C6 N3 1_555 1_555
H11 C6 1_555 1_555
H12 C6 1_555 1_555
H13 C6 1_555 1_555
C7 N4 1_555 1_555
H14 C7 1_555 1_555
H15 C7 1_555 1_555
C8 N4 1_555 1_555
H16 C8 1_555 1_555
H17 C8 1_555 1_555
C9 N1 1_555 1_555
H18 C9 1_555 1_555
H19 C9 1_555 1_555
C10 N2 1_555 1_555
H20 C10 1_555 1_555
H21 C10 1_555 1_555
H22 C10 1_555 1_555
C11 N4 1_555 1_555
H23 C11 1_555 1_555
H24 C11 1_555 1_555
H25 C11 1_555 1_555
C12 Mg1 1_555 1_555
C13 C12 1_555 1_555
H26 C13 1_555 1_555
C14 C13 1_555 1_555
H27 C14 1_555 1_555
C15 O1 1_555 1_555
C16 C15 1_555 1_555
H28 C16 1_555 1_555
H29 C16 1_555 1_555
H30 C16 1_555 1_555
C1 C2 1_555 1_555
C3 C4 1_555 1_555
C5 C7 1_555 1_555
C8 C9 1_555 1_555
C14 C15 1_555 1_555

#END
