
#######################################################################
#
#                 Cambridge Crystallographic Data Centre
#                                CCDC 
#
#######################################################################
#
# If this CIF has been generated from an entry in the Cambridge 
# Structural Database, then it will include bibliographic, chemical, 
# crystal, experimental, refinement or atomic coordinate data resulting 
# from the CCDC's data processing and validation procedures.
#
#######################################################################

data_LELZIO01
_chemical_formula_moiety         'C45 H55 N2 O4 P1'
_chemical_name_systematic        
3-{2-[bis(3,5-di-t-butyl-4-methoxyphenyl)phosphanyl]phenyl}-2-(4-nitrophenyl)prop-2-enenitrile
_symmetry_cell_setting           triclinic
_symmetry_space_group_name_H-M   'P -1'
_symmetry_Int_Tables_number      2
_space_group_name_Hall           '-P 1'
loop_
_symmetry_equiv_pos_site_id
_symmetry_equiv_pos_as_xyz
1 x,y,z
2 -x,-y,-z
_cell_length_a                   9.3357(5)
_cell_length_b                   14.2823(8)
_cell_length_c                   16.5623(8)
_cell_angle_alpha                75.638(5)
_cell_angle_beta                 89.724(4)
_cell_angle_gamma                76.795(5)
_cell_volume                     2079.61
_exptl_crystal_colour            yellow
_exptl_crystal_description       BLOCK
_cell_formula_units_Z            2
loop_
_atom_site_label
_atom_site_type_symbol
_atom_site_fract_x
_atom_site_fract_y
_atom_site_fract_z
N1 N 0.5016(4) 0.2646(3) 0.4139(2)
N2 N 1.0041(7) 0.5834(3) 0.3786(3)
P1 P 1.00116(7) 0.04788(4) 0.30173(4)
O1 O 0.9238(6) 0.6576(3) 0.3858(4)
O2 O 1.2574(3) -0.26438(17) 0.12608(14)
O3 O 0.5025(2) 0.37866(14) 0.12829(13)
O4 O 1.1315(7) 0.5778(4) 0.3618(5)
C1 C 1.5440(5) -0.2105(5) 0.2578(4)
H1 H 1.6332 -0.2548 0.2852
H2 H 1.5291 -0.1489 0.2737
H3 H 1.5514 -0.1981 0.1984
C2 C 0.3731(5) 0.1549(5) 0.2571(3)
H4 H 0.3524 0.2149 0.2758
H5 H 0.4379 0.1029 0.2977
H6 H 0.2827 0.1357 0.2501
C3 C 1.4468(6) -0.3609(3) 0.2685(3)
H7 H 1.5393 -0.3994 0.2964
H8 H 1.4509 -0.3563 0.2098
H9 H 1.3695 -0.3925 0.2904
C4 C 1.4054(6) -0.2744(4) 0.3770(3)
H10 H 1.4959 -0.3169 0.4046
H11 H 1.3255 -0.3055 0.3942
H12 H 1.3881 -0.2120 0.3916
C5 C 1.0425(5) 0.4067(3) 0.3793(3)
H13 H 1.1387 0.4060 0.3642
C6 C 0.4788(5) 0.0749(3) 0.1456(3)
H14 H 0.3884 0.0559 0.1384
H15 H 0.5430 0.0231 0.1868
H16 H 0.5258 0.0855 0.0935
C7 C 1.3597(5) -0.2295(4) 0.0680(3)
H17 H 1.4000 -0.2793 0.0391
H18 H 1.4379 -0.2162 0.0976
H19 H 1.3097 -0.1696 0.0284
C8 C 0.3379(4) 0.2449(3) 0.1056(3)
H20 H 0.3100 0.3087 0.1179
H21 H 0.2518 0.2199 0.1019
H22 H 0.3847 0.2516 0.0534
C9 C 0.9500(6) 0.4921(3) 0.3913(3)
C10 C 0.7561(4) 0.4105(2) 0.4247(2)
H23 H 0.6598 0.4120 0.4402
C11 C 0.8097(5) 0.4949(2) 0.4139(3)
H24 H 0.7501 0.5533 0.4221
C12 C 0.7925(4) -0.1046(4) 0.0733(3)
H25 H 0.7356 -0.1221 0.0336
H26 H 0.7949 -0.0358 0.0540
H27 H 0.7483 -0.1154 0.1263
C13 C 0.7247(5) 0.4954(3) 0.1600(3)
H28 H 0.7590 0.4753 0.2176
H29 H 0.6195 0.5050 0.1562
H30 H 0.7508 0.5566 0.1334
C14 C 0.9403(5) -0.2778(3) 0.1157(3)
H31 H 0.8810 -0.2949 0.0769
H32 H 0.8965 -0.2862 0.1688
H33 H 1.0375 -0.3204 0.1220
C15 C 0.7417(5) 0.4464(3) 0.0240(2)
H34 H 0.6374 0.4519 0.0198
H35 H 0.7915 0.3973 -0.0035
H36 H 0.7626 0.5094 -0.0021
C16 C 0.9885(4) 0.3226(3) 0.3903(3)
H37 H 1.0492 0.2645 0.3824
C17 C 0.6974(4) -0.0754(2) 0.5016(2)
H38 H 0.6326 -0.0973 0.5407
C18 C 0.9613(4) 0.4088(2) 0.1172(3)
H39 H 1.0012 0.3891 0.1738
H40 H 0.9784 0.4726 0.0901
H41 H 1.0082 0.3606 0.0881
C19 C 1.0106(5) -0.1536(3) -0.0044(2)
H42 H 0.9474 -0.1705 -0.0414
H43 H 1.1079 -0.1954 -0.0015
H44 H 1.0145 -0.0853 -0.0251
C20 C 0.4199(4) 0.4141(3) 0.1920(3)
H45 H 0.3419 0.4704 0.1667
H46 H 0.4836 0.4333 0.2269
H47 H 0.3787 0.3623 0.2250
C21 C 0.8448(4) 0.3232(2) 0.41277(18)
C22 C 0.7596(4) -0.1332(2) 0.44973(19)
H48 H 0.7375 -0.1945 0.4543
C23 C 1.4161(4) -0.2568(2) 0.2828(2)
C24 C 0.8551(3) -0.10070(19) 0.39054(17)
H49 H 0.8967 -0.1406 0.3559
C25 C 0.7310(4) 0.0149(2) 0.49576(18)
H50 H 0.6885 0.0538 0.5310
C26 C 0.9498(4) -0.1692(2) 0.08288(19)
C27 C 0.6281(4) 0.2486(2) 0.4175(2)
C28 C 0.8277(3) 0.04862(18) 0.43775(16)
C29 C 0.4452(3) 0.1725(2) 0.1751(2)
C30 C 0.7865(3) 0.2331(2) 0.42288(17)
C31 C 0.7957(3) 0.41508(18) 0.11673(18)
C32 C 0.9860(3) -0.06853(19) 0.18522(16)
H51 H 0.8905 -0.0309 0.1696
C33 C 0.8722(3) 0.14174(19) 0.43232(16)
H52 H 0.9732 0.1368 0.4359
C34 C 1.2694(3) -0.1877(2) 0.23969(17)
C35 C 1.1919(3) -0.1972(2) 0.17098(17)
C36 C 1.0656(3) -0.04879(17) 0.24693(15)
C37 C 0.7111(3) 0.12585(18) 0.22628(16)
H53 H 0.6956 0.0626 0.2482
C38 C 1.0458(3) -0.1434(2) 0.14614(16)
C39 C 0.6190(3) 0.29713(18) 0.15828(15)
C40 C 0.8505(3) 0.14081(16) 0.23536(15)
C41 C 1.2039(3) -0.10889(19) 0.27362(17)
H54 H 1.2557 -0.0963 0.3160
C42 C 0.5925(3) 0.20139(19) 0.18566(16)
C43 C 0.8894(3) -0.00906(17) 0.38252(15)
C44 C 0.8754(3) 0.23404(17) 0.19858(15)
H55 H 0.9706 0.2433 0.2006
C45 C 0.7621(3) 0.31380(17) 0.15894(15)
loop_
_geom_bond_atom_site_label_1
_geom_bond_atom_site_label_2
_geom_bond_site_symmetry_1
_geom_bond_site_symmetry_2
N1 C27 1_555 1_555
N2 O1 1_555 1_555
P1 C36 1_555 1_555
O2 C7 1_555 1_555
O3 C20 1_555 1_555
O4 N2 1_555 1_555
C1 H1 1_555 1_555
H2 C1 1_555 1_555
H3 C1 1_555 1_555
C2 H4 1_555 1_555
H5 C2 1_555 1_555
H6 C2 1_555 1_555
C3 H7 1_555 1_555
H8 C3 1_555 1_555
H9 C3 1_555 1_555
C4 H10 1_555 1_555
H11 C4 1_555 1_555
H12 C4 1_555 1_555
C5 H13 1_555 1_555
C6 H14 1_555 1_555
H15 C6 1_555 1_555
H16 C6 1_555 1_555
C7 H17 1_555 1_555
H18 C7 1_555 1_555
H19 C7 1_555 1_555
C8 H20 1_555 1_555
H21 C8 1_555 1_555
H22 C8 1_555 1_555
C9 N2 1_555 1_555
C10 H23 1_555 1_555
C11 C9 1_555 1_555
H24 C11 1_555 1_555
C12 H25 1_555 1_555
H26 C12 1_555 1_555
H27 C12 1_555 1_555
C13 H28 1_555 1_555
H29 C13 1_555 1_555
H30 C13 1_555 1_555
C14 H31 1_555 1_555
H32 C14 1_555 1_555
H33 C14 1_555 1_555
C15 H34 1_555 1_555
H35 C15 1_555 1_555
H36 C15 1_555 1_555
C16 C5 1_555 1_555
H37 C16 1_555 1_555
C17 H38 1_555 1_555
C18 H39 1_555 1_555
H40 C18 1_555 1_555
H41 C18 1_555 1_555
C19 H42 1_555 1_555
H43 C19 1_555 1_555
H44 C19 1_555 1_555
C20 H45 1_555 1_555
H46 C20 1_555 1_555
H47 C20 1_555 1_555
C21 C10 1_555 1_555
C22 C17 1_555 1_555
H48 C22 1_555 1_555
C23 C1 1_555 1_555
C24 C22 1_555 1_555
H49 C24 1_555 1_555
C25 C17 1_555 1_555
H50 C25 1_555 1_555
C26 C12 1_555 1_555
C27 C30 1_555 1_555
C28 C25 1_555 1_555
C29 C2 1_555 1_555
C30 C21 1_555 1_555
C31 C13 1_555 1_555
C32 H51 1_555 1_555
C33 C28 1_555 1_555
H52 C33 1_555 1_555
C34 C23 1_555 1_555
C35 O2 1_555 1_555
C36 C32 1_555 1_555
C37 H53 1_555 1_555
C38 C26 1_555 1_555
C39 O3 1_555 1_555
C40 P1 1_555 1_555
C41 C34 1_555 1_555
H54 C41 1_555 1_555
C42 C29 1_555 1_555
C43 P1 1_555 1_555
C44 C40 1_555 1_555
H55 C44 1_555 1_555
C45 C31 1_555 1_555
C3 C23 1_555 1_555
C4 C23 1_555 1_555
C5 C9 1_555 1_555
C6 C29 1_555 1_555
C8 C29 1_555 1_555
C10 C11 1_555 1_555
C14 C26 1_555 1_555
C15 C31 1_555 1_555
C16 C21 1_555 1_555
C18 C31 1_555 1_555
C19 C26 1_555 1_555
C24 C43 1_555 1_555
C28 C43 1_555 1_555
C30 C33 1_555 1_555
C32 C38 1_555 1_555
C34 C35 1_555 1_555
C35 C38 1_555 1_555
C36 C41 1_555 1_555
C37 C40 1_555 1_555
C37 C42 1_555 1_555
C39 C42 1_555 1_555
C39 C45 1_555 1_555
C44 C45 1_555 1_555

#END
