
#######################################################################
#
#                 Cambridge Crystallographic Data Centre
#                                CCDC 
#
#######################################################################
#
# If this CIF has been generated from an entry in the Cambridge 
# Structural Database, then it will include bibliographic, chemical, 
# crystal, experimental, refinement or atomic coordinate data resulting 
# from the CCDC's data processing and validation procedures.
#
#######################################################################

data_LEMDIR
_chemical_formula_moiety         'C23 H25 N1 O4 S1'
_chemical_name_systematic        
(+-)-2-benzyl-4-(toluene-4-sulfonyl)hexahydroisoquinoline-1,3(2H,4H)-dione
_symmetry_cell_setting           monoclinic
_symmetry_space_group_name_H-M   'P 21/n'
_symmetry_Int_Tables_number      14
_space_group_name_Hall           '-P 2yn'
loop_
_symmetry_equiv_pos_site_id
_symmetry_equiv_pos_as_xyz
1 x,y,z
2 1/2-x,1/2+y,1/2-z
3 -x,-y,-z
4 1/2+x,1/2-y,1/2+z
_cell_length_a                   8.6243(11)
_cell_length_b                   12.1688(16)
_cell_length_c                   20.438(3)
_cell_angle_alpha                90
_cell_angle_beta                 100.164(3)
_cell_angle_gamma                90
_cell_volume                     2111.25
_exptl_crystal_colour            colorless
_chemical_melting_point          '122-125 deg.C'
_cell_formula_units_Z            4
loop_
_atom_site_label
_atom_site_type_symbol
_atom_site_fract_x
_atom_site_fract_y
_atom_site_fract_z
S1 S 0.01908(5) 0.69644(4) 0.22214(2)
O1 O 0.11805(15) 0.69323(12) 0.28621(6)
O2 O -0.02748(16) 0.59495(10) 0.18864(7)
O3 O -0.28845(17) 0.83241(11) 0.12679(7)
O4 O -0.47819(17) 0.52229(12) 0.20578(7)
N1 N -0.38149(16) 0.67638(11) 0.16576(7)
C1 C -0.15576(19) 0.77208(14) 0.23311(8)
H1 H -0.1258 0.8495 0.2401
C2 C -0.2789(2) 0.76548(14) 0.17097(9)
C3 C -0.3906(2) 0.60068(13) 0.21664(9)
C4 C -0.2865(2) 0.61731(14) 0.28337(8)
H2 H -0.1958 0.5684 0.2845
C5 C -0.2207(2) 0.73366(14) 0.29377(9)
H3 H -0.1343 0.7329 0.3320
C6 C -0.3452(3) 0.81524(15) 0.30814(10)
H4 H -0.2972 0.8869 0.3175
H5 H -0.4271 0.8220 0.2692
C7 C -0.4179(3) 0.77841(18) 0.36690(12)
H6 H -0.4985 0.8303 0.3741
H7 H -0.3377 0.7767 0.4066
C8 C -0.4902(3) 0.66490(18) 0.35403(11)
H8 H -0.5343 0.6418 0.3923
H9 H -0.5751 0.6681 0.3160
C9 C -0.3690(2) 0.58172(16) 0.34081(10)
H10 H -0.4203 0.5114 0.3301
H11 H -0.2908 0.5722 0.3808
C10 C -0.4862(2) 0.66327(18) 0.10081(9)
H12 H -0.5413 0.7319 0.0889
H13 H -0.5644 0.6074 0.1046
C11 C -0.3975(2) 0.63115(17) 0.04625(9)
C12 C -0.3016(3) 0.54041(19) 0.05231(10)
H14 H -0.2894 0.4990 0.0911
C13 C -0.2229(3) 0.5093(2) 0.00205(11)
H15 H -0.1578 0.4479 0.0075
C14 C -0.2401(3) 0.5679(3) -0.05529(12)
H16 H -0.1885 0.5461 -0.0894
C15 C -0.3337(4) 0.6593(3) -0.06239(13)
H17 H -0.3452 0.7001 -0.1014
C16 C -0.4113(3) 0.6913(2) -0.01199(12)
H18 H -0.4737 0.7541 -0.0172
C17 C 0.1075(2) 0.78129(15) 0.16973(9)
C18 C 0.2118(2) 0.86168(17) 0.19724(10)
H19 H 0.2382 0.8691 0.2431
C19 C 0.2765(3) 0.93100(18) 0.15571(14)
H20 H 0.3463 0.9856 0.1741
C20 C 0.2393(3) 0.9207(2) 0.08775(14)
C21 C 0.1344(3) 0.8397(2) 0.06140(11)
H21 H 0.1078 0.8326 0.0155
C22 C 0.0686(3) 0.76946(19) 0.10127(10)
H22 H -0.0009 0.7148 0.0827
C23 C 0.3134(5) 0.9984(3) 0.04413(19)
H23 H 0.2762 0.9809 -0.0018
H24 H 0.4259 0.9908 0.0539
H25 H 0.2851 1.0727 0.0526
loop_
_geom_bond_atom_site_label_1
_geom_bond_atom_site_label_2
_geom_bond_site_symmetry_1
_geom_bond_site_symmetry_2
S1 O1 1_555 1_555
O2 S1 1_555 1_555
O3 C2 1_555 1_555
O4 C3 1_555 1_555
N1 C2 1_555 1_555
C1 S1 1_555 1_555
H1 C1 1_555 1_555
C2 C1 1_555 1_555
C3 N1 1_555 1_555
C4 C3 1_555 1_555
H2 C4 1_555 1_555
C5 C1 1_555 1_555
H3 C5 1_555 1_555
C6 C5 1_555 1_555
H4 C6 1_555 1_555
H5 C6 1_555 1_555
C7 C6 1_555 1_555
H6 C7 1_555 1_555
H7 C7 1_555 1_555
C8 C7 1_555 1_555
H8 C8 1_555 1_555
H9 C8 1_555 1_555
C9 C4 1_555 1_555
H10 C9 1_555 1_555
H11 C9 1_555 1_555
C10 N1 1_555 1_555
H12 C10 1_555 1_555
H13 C10 1_555 1_555
C11 C10 1_555 1_555
C12 C11 1_555 1_555
H14 C12 1_555 1_555
C13 C12 1_555 1_555
H15 C13 1_555 1_555
C14 C13 1_555 1_555
H16 C14 1_555 1_555
C15 C14 1_555 1_555
H17 C15 1_555 1_555
C16 C11 1_555 1_555
H18 C16 1_555 1_555
C17 S1 1_555 1_555
C18 C17 1_555 1_555
H19 C18 1_555 1_555
C19 C18 1_555 1_555
H20 C19 1_555 1_555
C20 C19 1_555 1_555
C21 C20 1_555 1_555
H21 C21 1_555 1_555
C22 C17 1_555 1_555
H22 C22 1_555 1_555
C23 C20 1_555 1_555
H23 C23 1_555 1_555
H24 C23 1_555 1_555
H25 C23 1_555 1_555
C4 C5 1_555 1_555
C8 C9 1_555 1_555
C15 C16 1_555 1_555
C21 C22 1_555 1_555

#END
