
#######################################################################
#
#                 Cambridge Crystallographic Data Centre
#                                CCDC 
#
#######################################################################
#
# If this CIF has been generated from an entry in the Cambridge 
# Structural Database, then it will include bibliographic, chemical, 
# crystal, experimental, refinement or atomic coordinate data resulting 
# from the CCDC's data processing and validation procedures.
#
#######################################################################

data_LEMMUM
_chemical_formula_moiety         'C17 H12 N2,0.33(C1 H1 Cl3)'
_chemical_name_systematic        '3-(9-anthryl)pyrazole chloroform solvate'
_symmetry_cell_setting           triclinic
_symmetry_space_group_name_H-M   'P -1'
_symmetry_Int_Tables_number      2
_space_group_name_Hall           '-P 1'
loop_
_symmetry_equiv_pos_site_id
_symmetry_equiv_pos_as_xyz
1 x,y,z
2 -x,-y,-z
_cell_length_a                   9.5287(19)
_cell_length_b                   15.884(3)
_cell_length_c                   17.579(4)
_cell_angle_alpha                65.62(3)
_cell_angle_beta                 78.59(3)
_cell_angle_gamma                84.57(3)
_cell_volume                     2375.25
_exptl_crystal_colour            colorless
_exptl_crystal_description       block
_cell_formula_units_Z            6
_exptl_crystal_recrystallization_method 'diethyl ether/chloroform'
_exptl_crystal_preparation       'blue luminescent'
loop_
_atom_site_label
_atom_site_type_symbol
_atom_site_fract_x
_atom_site_fract_y
_atom_site_fract_z
N1 N 1.0353(4) 0.2589(3) 0.1878(3)
N2 N 1.1020(4) 0.2991(3) 0.1067(3)
H1 H 1.1811 0.2789 0.0864
C1 C 1.0317(6) 0.3733(4) 0.0620(3)
H4 H 1.0575 0.4109 0.0046
C2 C 0.9122(5) 0.3844(4) 0.1167(3)
H5 H 0.8421 0.4306 0.1044
C3 C 0.9208(5) 0.3114(3) 0.1939(3)
C4 C 0.8220(5) 0.2873(3) 0.2755(3)
C5 C 0.6798(6) 0.2646(3) 0.2834(4)
C6 C 0.6258(7) 0.2590(4) 0.2158(5)
H6 H 0.6870 0.2692 0.1647
C7 C 0.4855(8) 0.2389(5) 0.2246(7)
H7 H 0.4503 0.2364 0.1799
C8 C 0.3944(9) 0.2219(6) 0.3046(11)
H8 H 0.2988 0.2083 0.3112
C9 C 0.4418(9) 0.2248(5) 0.3701(8)
H9 H 0.3796 0.2126 0.4212
C10 C 0.5853(7) 0.2463(4) 0.3621(7)
C11 C 0.6359(10) 0.2509(4) 0.4291(6)
H10 H 0.5736 0.2390 0.4801
C12 C 0.7747(9) 0.2725(4) 0.4221(4)
C13 C 0.8285(13) 0.2797(5) 0.4900(5)
H11 H 0.7658 0.2701 0.5405
C14 C 0.9644(14) 0.2996(7) 0.4837(5)
H12 H 0.9962 0.3011 0.5299
C15 C 1.0565(9) 0.3179(5) 0.4085(5)
H13 H 1.1506 0.3329 0.4041
C16 C 1.0152(7) 0.3147(4) 0.3399(4)
H14 H 1.0807 0.3285 0.2897
C17 C 0.8726(6) 0.2906(3) 0.3442(3)
N3 N 0.6718(4) 0.8065(3) -0.0606(2)
N4 N 0.6645(5) 0.8979(3) -0.1016(3)
H2 H 0.6863 0.9277 -0.1557
C18 C 0.6193(13) 0.9361(6) -0.0475(5)
H15 H 0.6099 0.9992 -0.0609
C19 C 0.5888(14) 0.8686(5) 0.0304(5)
H16 H 0.5546 0.8755 0.0808
C20 C 0.6187(6) 0.7866(4) 0.0203(3)
C21 C 0.6147(6) 0.6904(3) 0.0842(3)
C22 C 0.5006(6) 0.6334(4) 0.0987(4)
C23 C 0.3876(7) 0.6613(6) 0.0511(4)
H17 H 0.3872 0.7203 0.0081
C24 C 0.2796(9) 0.6021(10) 0.0681(7)
H18 H 0.2070 0.6197 0.0359
C25 C 0.2794(13) 0.5112(9) 0.1371(9)
H19 H 0.2044 0.4713 0.1504
C26 C 0.3846(10) 0.4850(6) 0.1808(7)
H20 H 0.3822 0.4260 0.2240
C27 C 0.5000(7) 0.5417(4) 0.1655(4)
C28 C 0.6075(8) 0.5156(4) 0.2114(4)
H21 H 0.6038 0.4574 0.2558
C29 C 0.7204(7) 0.5704(4) 0.1957(4)
C30 C 0.8347(10) 0.5412(6) 0.2432(6)
H22 H 0.8314 0.4831 0.2879
C31 C 0.9453(11) 0.5951(8) 0.2250(7)
H23 H 1.0197 0.5732 0.2557
C32 C 0.9522(9) 0.6822(7) 0.1620(6)
H24 H 1.0310 0.7186 0.1506
C33 C 0.8458(7) 0.7161(4) 0.1160(4)
H25 H 0.8509 0.7761 0.0745
C34 C 0.7253(6) 0.6603(4) 0.1310(3)
N5 N 0.2281(4) 1.0466(3) 0.2768(3)
N6 N 0.1256(4) 1.0909(3) 0.3111(3)
H3 H 0.0778 1.1377 0.2817
C35 C 0.1061(5) 1.0551(3) 0.3941(3)
H26 H 0.0394 1.0747 0.4300
C36 C 0.2014(5) 0.9844(3) 0.4179(3)
H27 H 0.2145 0.9465 0.4728
C37 C 0.2754(5) 0.9802(3) 0.3430(3)
C38 C 0.3867(5) 0.9137(3) 0.3304(3)
C39 C 0.3551(5) 0.8494(3) 0.3005(3)
C40 C 0.2192(6) 0.8467(4) 0.2801(3)
H28 H 0.1496 0.8904 0.2847
C41 C 0.1879(6) 0.7820(4) 0.2541(4)
H29 H 0.0980 0.7813 0.2413
C42 C 0.2933(8) 0.7163(5) 0.2469(4)
H30 H 0.2723 0.6727 0.2284
C43 C 0.4229(7) 0.7147(4) 0.2661(4)
H31 H 0.4896 0.6692 0.2624
C44 C 0.4587(6) 0.7826(3) 0.2920(3)
C45 C 0.5917(6) 0.7815(4) 0.3138(3)
H32 H 0.6595 0.7372 0.3087
C46 C 0.6265(6) 0.8449(4) 0.3432(3)
C47 C 0.7637(6) 0.8440(5) 0.3650(4)
H33 H 0.8310 0.7988 0.3613
C48 C 0.7970(7) 0.9069(6) 0.3906(5)
H34 H 0.8859 0.9046 0.4056
C49 C 0.6967(7) 0.9762(5) 0.3946(5)
H35 H 0.7219 1.0217 0.4097
C50 C 0.5656(7) 0.9783(4) 0.3772(4)
H36 H 0.5004 1.0237 0.3828
C51 C 0.5236(5) 0.9127(3) 0.3504(3)
C52 C 0.8279(12) 0.0395(9) 0.1466(8)
Cl1 Cl 0.9138(8) -0.0571(5) 0.1300(5)
Cl3 Cl 0.6616(4) 0.0560(3) 0.1193(4)
Cl5 Cl 0.9285(7) 0.1214(6) 0.1187(9)
C53 C 0.298(2) 0.4926(14) 0.4672(10)
H37 H 0.3480 0.5511 0.4461
Cl7 Cl 0.1382(10) 0.5237(5) 0.4192(5)
Cl8 Cl 0.4010(10) 0.4319(6) 0.4343(6)
Cl9 Cl 0.2438(12) 0.4658(5) 0.5713(4)
Cl2? Cl 0.992(2) 0.0476(17) 0.1527(14)
Cl4? Cl 0.814(2) -0.0516(11) 0.1221(11)
Cl6? Cl 0.8641(17) 0.1571(7) 0.0499(9)
loop_
_geom_bond_atom_site_label_1
_geom_bond_atom_site_label_2
_geom_bond_site_symmetry_1
_geom_bond_site_symmetry_2
N1 N2 1_555 1_555
N2 H1 1_555 1_555
N3 N4 1_555 1_555
N4 H2 1_555 1_555
N5 N6 1_555 1_555
N6 H3 1_555 1_555
C1 N2 1_555 1_555
H4 C1 1_555 1_555
C2 C1 1_555 1_555
H5 C2 1_555 1_555
C3 N1 1_555 1_555
C4 C3 1_555 1_555
C5 C4 1_555 1_555
C6 C5 1_555 1_555
H6 C6 1_555 1_555
C7 C6 1_555 1_555
H7 C7 1_555 1_555
C8 C7 1_555 1_555
H8 C8 1_555 1_555
C9 C8 1_555 1_555
H9 C9 1_555 1_555
C10 C5 1_555 1_555
C11 C10 1_555 1_555
H10 C11 1_555 1_555
C12 C11 1_555 1_555
C13 C12 1_555 1_555
H11 C13 1_555 1_555
C14 C13 1_555 1_555
H12 C14 1_555 1_555
C15 C14 1_555 1_555
H13 C15 1_555 1_555
C16 C15 1_555 1_555
H14 C16 1_555 1_555
C17 C4 1_555 1_555
C18 N4 1_555 1_555
H15 C18 1_555 1_555
C19 C18 1_555 1_555
H16 C19 1_555 1_555
C20 N3 1_555 1_555
C21 C20 1_555 1_555
C22 C21 1_555 1_555
C23 C22 1_555 1_555
H17 C23 1_555 1_555
C24 C23 1_555 1_555
H18 C24 1_555 1_555
C25 C24 1_555 1_555
H19 C25 1_555 1_555
C26 C25 1_555 1_555
H20 C26 1_555 1_555
C27 C22 1_555 1_555
C28 C27 1_555 1_555
H21 C28 1_555 1_555
C29 C28 1_555 1_555
C30 C29 1_555 1_555
H22 C30 1_555 1_555
C31 C30 1_555 1_555
H23 C31 1_555 1_555
C32 C31 1_555 1_555
H24 C32 1_555 1_555
C33 C32 1_555 1_555
H25 C33 1_555 1_555
C34 C21 1_555 1_555
C35 N6 1_555 1_555
H26 C35 1_555 1_555
C36 C35 1_555 1_555
H27 C36 1_555 1_555
C37 N5 1_555 1_555
C38 C37 1_555 1_555
C39 C38 1_555 1_555
C40 C39 1_555 1_555
H28 C40 1_555 1_555
C41 C40 1_555 1_555
H29 C41 1_555 1_555
C42 C41 1_555 1_555
H30 C42 1_555 1_555
C43 C42 1_555 1_555
H31 C43 1_555 1_555
C44 C39 1_555 1_555
C45 C44 1_555 1_555
H32 C45 1_555 1_555
C46 C45 1_555 1_555
C47 C46 1_555 1_555
H33 C47 1_555 1_555
C48 C47 1_555 1_555
H34 C48 1_555 1_555
C49 C48 1_555 1_555
H35 C49 1_555 1_555
C50 C49 1_555 1_555
H36 C50 1_555 1_555
C51 C38 1_555 1_555
C52 Cl1 1_555 1_555
C53 H37 1_555 1_555
Cl3 C52 1_555 1_555
Cl5 C52 1_555 1_555
Cl7 C53 1_555 1_555
Cl8 C53 1_555 1_555
Cl9 C53 1_555 1_555
C2 C3 1_555 1_555
C9 C10 1_555 1_555
C12 C17 1_555 1_555
C16 C17 1_555 1_555
C19 C20 1_555 1_555
C26 C27 1_555 1_555
C29 C34 1_555 1_555
C33 C34 1_555 1_555
C36 C37 1_555 1_555
C43 C44 1_555 1_555
C46 C51 1_555 1_555
C50 C51 1_555 1_555

#END
