
#######################################################################
#
#                 Cambridge Crystallographic Data Centre
#                                CCDC 
#
#######################################################################
#
# If this CIF has been generated from an entry in the Cambridge 
# Structural Database, then it will include bibliographic, chemical, 
# crystal, experimental, refinement or atomic coordinate data resulting 
# from the CCDC's data processing and validation procedures.
#
#######################################################################

data_LEMRON
_chemical_formula_moiety         'C7 H10 N1 1+,C2 Cl3 O2 1-'
_chemical_name_systematic        '4-methylanilinium trichloroacetate'
_symmetry_cell_setting           triclinic
_symmetry_space_group_name_H-M   'P -1'
_symmetry_Int_Tables_number      2
_space_group_name_Hall           '-P 1'
loop_
_symmetry_equiv_pos_site_id
_symmetry_equiv_pos_as_xyz
1 x,y,z
2 -x,-y,-z
_cell_length_a                   6.7395(2)
_cell_length_b                   11.3491(3)
_cell_length_c                   16.1078(5)
_cell_angle_alpha                75.681(2)
_cell_angle_beta                 88.031(2)
_cell_angle_gamma                86.856(2)
_cell_volume                     1191.69
_exptl_crystal_colour            colorless
_exptl_crystal_description       block
_cell_formula_units_Z            4
loop_
_atom_site_label
_atom_site_type_symbol
_atom_site_fract_x
_atom_site_fract_y
_atom_site_fract_z
C1 C 0.0236(4) 0.8176(3) 0.3452(2)
C2 C 0.0345(5) 0.7010(4) 0.3974(2)
H1 H 0.032750 0.690668 0.456533
C3 C 0.0480(5) 0.5996(3) 0.36460(19)
H2 H 0.054310 0.521988 0.401045
C4 C 0.0519(4) 0.6150(3) 0.27675(17)
C5 C 0.0444(4) 0.7297(3) 0.22276(18)
H3 H 0.049155 0.739887 0.163650
C6 C 0.0297(4) 0.8296(3) 0.2575(2)
H4 H 0.023774 0.907162 0.220901
C7 C 0.0015(7) 0.9265(4) 0.3818(3)
H5 H -0.045476 0.995783 0.338455
H6 H 0.127876 0.942503 0.401343
H7 H -0.092142 0.911241 0.429039
N1 N 0.0600(3) 0.5075(2) 0.24171(15)
H8 H 0.048514 0.530754 0.185045
H9 H -0.039197 0.460317 0.264266
H10 H 0.175484 0.466167 0.254491
C8 C 0.5084(5) 0.9077(3) 0.2121(2)
C9 C 0.5367(4) 0.7938(3) 0.2677(2)
H11 H 0.542346 0.787788 0.326206
C10 C 0.5568(4) 0.6891(3) 0.2385(2)
H12 H 0.577655 0.613701 0.276898
C11 C 0.5456(4) 0.6972(3) 0.15239(19)
C12 C 0.5148(6) 0.8089(3) 0.0954(2)
H13 H 0.506275 0.814448 0.037024
C13 C 0.4969(6) 0.9119(4) 0.1260(3)
H14 H 0.476311 0.987076 0.087357
C14 C 0.4872(7) 1.0201(4) 0.2444(3)
H15 H 0.584074 1.076280 0.216207
H16 H 0.507760 0.999367 0.305112
H17 H 0.356226 1.056932 0.232833
N2 N 0.5668(3) 0.5879(2) 0.12006(16)
H18 H 0.686813 0.583562 0.095871
H19 H 0.474359 0.590779 0.081347
H20 H 0.552053 0.522479 0.163241
C15 C 0.4706(4) 0.2780(3) 0.40294(18)
C16 C 0.5665(4) 0.3595(3) 0.32056(17)
O1 O 0.7457(3) 0.3714(3) 0.32515(15)
O2 O 0.4537(3) 0.40509(19) 0.26125(12)
Cl1 Cl 0.45338(17) 0.36565(11) 0.47998(6)
Cl2 Cl 0.6160(2) 0.14573(9) 0.44281(9)
Cl3 Cl 0.22772(14) 0.23875(9) 0.38605(6)
C17 C -0.0049(4) 0.7259(3) -0.07151(18)
C18 C 0.0910(4) 0.6342(3) 0.00763(17)
O3 O 0.2719(3) 0.6182(2) 0.00216(16)
O4 O -0.0249(3) 0.59187(19) 0.06740(12)
Cl4 Cl -0.25288(12) 0.69394(8) -0.08705(5)
Cl5 Cl 0.12882(16) 0.72723(10) -0.16713(5)
Cl6 Cl -0.00309(17) 0.87155(8) -0.04977(7)
loop_
_geom_bond_atom_site_label_1
_geom_bond_atom_site_label_2
_geom_bond_site_symmetry_1
_geom_bond_site_symmetry_2
C1 C2 1_555 1_555
C2 H1 1_555 1_555
C3 C2 1_555 1_555
H2 C3 1_555 1_555
C4 C3 1_555 1_555
C5 C4 1_555 1_555
H3 C5 1_555 1_555
C6 C1 1_555 1_555
H4 C6 1_555 1_555
C7 C1 1_555 1_555
H5 C7 1_555 1_555
H6 C7 1_555 1_555
H7 C7 1_555 1_555
N1 C4 1_555 1_555
H8 N1 1_555 1_555
H9 N1 1_555 1_555
H10 N1 1_555 1_555
C8 C9 1_555 1_555
C9 H11 1_555 1_555
C10 C9 1_555 1_555
H12 C10 1_555 1_555
C11 C10 1_555 1_555
C12 C11 1_555 1_555
H13 C12 1_555 1_555
C13 C8 1_555 1_555
H14 C13 1_555 1_555
C14 C8 1_555 1_555
H15 C14 1_555 1_555
H16 C14 1_555 1_555
H17 C14 1_555 1_555
N2 C11 1_555 1_555
H18 N2 1_555 1_555
H19 N2 1_555 1_555
H20 N2 1_555 1_555
C15 C16 1_555 1_555
C16 O1 1_555 1_555
O2 C16 1_555 1_555
Cl1 C15 1_555 1_555
Cl2 C15 1_555 1_555
Cl3 C15 1_555 1_555
C17 C18 1_555 1_555
C18 O3 1_555 1_555
O4 C18 1_555 1_555
Cl4 C17 1_555 1_555
Cl5 C17 1_555 1_555
Cl6 C17 1_555 1_555
C5 C6 1_555 1_555
C12 C13 1_555 1_555

#END
