
#######################################################################
#
#                 Cambridge Crystallographic Data Centre
#                                CCDC 
#
#######################################################################
#
# If this CIF has been generated from an entry in the Cambridge 
# Structural Database, then it will include bibliographic, chemical, 
# crystal, experimental, refinement or atomic coordinate data resulting 
# from the CCDC's data processing and validation procedures.
#
#######################################################################

data_LEMVUX
_chemical_formula_moiety         'C28 H26 N2 O5 S2'
_chemical_name_systematic        
4-methyl-N-[(4-methylphenyl)sulfonyl]-N-{[2-(naphthalen-2-yl)-4,5-dihydro-1,3-oxazol-5-yl]methyl}benzene-1-sulfonamide
_symmetry_cell_setting           triclinic
_symmetry_space_group_name_H-M   'P -1'
_symmetry_Int_Tables_number      2
_space_group_name_Hall           '-P 1'
loop_
_symmetry_equiv_pos_site_id
_symmetry_equiv_pos_as_xyz
1 x,y,z
2 -x,-y,-z
_cell_length_a                   9.372(7)
_cell_length_b                   12.141(8)
_cell_length_c                   13.448(7)
_cell_angle_alpha                114.17(2)
_cell_angle_beta                 99.51(2)
_cell_angle_gamma                104.26(5)
_cell_volume                     1290.32
_exptl_crystal_colour            colorless
_exptl_crystal_description       block
_cell_formula_units_Z            2
loop_
_atom_site_label
_atom_site_type_symbol
_atom_site_fract_x
_atom_site_fract_y
_atom_site_fract_z
S1 S 0.27806(8) 0.35653(7) 0.82953(5)
S2 S 0.49982(8) 0.30607(6) 0.70516(5)
O1 O 0.2979(3) 0.2580(2) 0.85651(19)
O2 O 0.2703(3) 0.4698(2) 0.91696(17)
O3 O 0.3744(3) 0.1905(2) 0.63514(17)
O4 O 0.5836(3) 0.3723(2) 0.65549(18)
O5 O 0.3762(2) 0.63048(19) 0.75791(19)
N1 N 0.4284(2) 0.4104(2) 0.78775(18)
N2 N 0.5259(3) 0.8381(2) 0.8692(3)
C1 C 0.5284(3) 0.5467(3) 0.8547(2)
H1 H 0.633307 0.550840 0.881241
H2 H 0.496016 0.586274 0.921620
C2 C 0.5287(3) 0.6244(3) 0.7916(3)
H3 H 0.563892 0.588165 0.724574
C3 C 0.6297(4) 0.7652(3) 0.8700(3)
H4 H 0.672651 0.779307 0.946753
H5 H 0.713679 0.790758 0.841405
C4 C 0.3944(3) 0.7574(3) 0.8072(2)
C5 C 0.2546(3) 0.7886(3) 0.7809(2)
C6 C 0.1224(4) 0.6974(3) 0.6994(3)
H6 H 0.118528 0.612853 0.660531
C7 C -0.0106(4) 0.7289(3) 0.6724(3)
C8 C -0.1478(4) 0.6374(4) 0.5881(3)
H7 H -0.154404 0.552119 0.548740
C9 C -0.2720(5) 0.6713(5) 0.5628(4)
H8 H -0.362375 0.609356 0.506403
C10 C -0.2636(5) 0.7987(5) 0.6216(4)
H9 H -0.348699 0.821041 0.603656
C11 C -0.1346(5) 0.8896(4) 0.7035(4)
H10 H -0.131865 0.973878 0.742435
C12 C -0.0015(4) 0.8583(3) 0.7316(3)
C13 C 0.1372(4) 0.9502(3) 0.8150(3)
H11 H 0.143789 1.035477 0.854080
C14 C 0.2624(4) 0.9174(3) 0.8402(3)
H12 H 0.352755 0.979836 0.896290
C15 C 0.1139(3) 0.2897(3) 0.7119(2)
C16 C 0.0364(4) 0.1592(3) 0.6565(3)
H13 H 0.076794 0.104967 0.675003
C17 C -0.1027(4) 0.1099(3) 0.5728(3)
H14 H -0.156335 0.021587 0.535456
C18 C -0.1643(3) 0.1886(3) 0.5430(2)
C19 C -0.0831(4) 0.3190(3) 0.6001(3)
H15 H -0.122481 0.373527 0.581258
C20 C 0.0554(4) 0.3704(3) 0.6848(3)
H16 H 0.108633 0.458860 0.723066
C21 C -0.3165(4) 0.1348(4) 0.4543(3)
H17 H -0.306744 0.086141 0.380354
H18 H -0.349369 0.204049 0.455262
H19 H -0.391380 0.079627 0.470154
C22 C 0.6317(3) 0.2816(3) 0.7957(2)
C23 C 0.5833(4) 0.1827(3) 0.8233(3)
H20 H 0.479993 0.130390 0.795912
C24 C 0.6911(4) 0.1633(4) 0.8922(3)
H21 H 0.658679 0.098132 0.911682
C25 C 0.8442(4) 0.2380(4) 0.9321(3)
C26 C 0.8899(3) 0.3355(3) 0.9039(3)
H22 H 0.993344 0.387611 0.931552
C27 C 0.7850(3) 0.3576(3) 0.8352(3)
H23 H 0.818008 0.423051 0.816166
C28 C 0.9623(5) 0.2169(6) 1.0068(4)
H24 H 0.927253 0.128513 0.991150
H25 H 0.975860 0.271799 1.085716
H26 H 1.058903 0.236886 0.990948
loop_
_geom_bond_atom_site_label_1
_geom_bond_atom_site_label_2
_geom_bond_site_symmetry_1
_geom_bond_site_symmetry_2
S1 O1 1_555 1_555
S2 O3 1_555 1_555
O2 S1 1_555 1_555
O4 S2 1_555 1_555
O5 C2 1_555 1_555
N1 S1 1_555 1_555
N2 C3 1_555 1_555
C1 N1 1_555 1_555
H1 C1 1_555 1_555
H2 C1 1_555 1_555
C2 C1 1_555 1_555
H3 C2 1_555 1_555
C3 C2 1_555 1_555
H4 C3 1_555 1_555
H5 C3 1_555 1_555
C4 O5 1_555 1_555
C5 C4 1_555 1_555
C6 C5 1_555 1_555
H6 C6 1_555 1_555
C7 C6 1_555 1_555
C8 C7 1_555 1_555
H7 C8 1_555 1_555
C9 C8 1_555 1_555
H8 C9 1_555 1_555
C10 C9 1_555 1_555
H9 C10 1_555 1_555
C11 C10 1_555 1_555
H10 C11 1_555 1_555
C12 C7 1_555 1_555
C13 C12 1_555 1_555
H11 C13 1_555 1_555
C14 C5 1_555 1_555
H12 C14 1_555 1_555
C15 S1 1_555 1_555
C16 C15 1_555 1_555
H13 C16 1_555 1_555
C17 C16 1_555 1_555
H14 C17 1_555 1_555
C18 C17 1_555 1_555
C19 C18 1_555 1_555
H15 C19 1_555 1_555
C20 C15 1_555 1_555
H16 C20 1_555 1_555
C21 C18 1_555 1_555
H17 C21 1_555 1_555
H18 C21 1_555 1_555
H19 C21 1_555 1_555
C22 S2 1_555 1_555
C23 C22 1_555 1_555
H20 C23 1_555 1_555
C24 C23 1_555 1_555
H21 C24 1_555 1_555
C25 C24 1_555 1_555
C26 C25 1_555 1_555
H22 C26 1_555 1_555
C27 C22 1_555 1_555
H23 C27 1_555 1_555
C28 C25 1_555 1_555
H24 C28 1_555 1_555
H25 C28 1_555 1_555
H26 C28 1_555 1_555
S2 N1 1_555 1_555
N2 C4 1_555 1_555
C11 C12 1_555 1_555
C13 C14 1_555 1_555
C19 C20 1_555 1_555
C26 C27 1_555 1_555

#END
