
#######################################################################
#
#                 Cambridge Crystallographic Data Centre
#                                CCDC 
#
#######################################################################
#
# If this CIF has been generated from an entry in the Cambridge 
# Structural Database, then it will include bibliographic, chemical, 
# crystal, experimental, refinement or atomic coordinate data resulting 
# from the CCDC's data processing and validation procedures.
#
#######################################################################

data_LENCOZ
_chemical_formula_moiety         'C16 H15 N1 O3'
_chemical_name_systematic        
9,10-dihydro-8H-6,13b-methanocyclopenta[2,3]pyrido[1,2-a]furo[2,3-c]azepine-2,12(6H,13H)-dione
_symmetry_cell_setting           hexagonal
_symmetry_space_group_name_H-M   'P 65'
_symmetry_Int_Tables_number      170
_space_group_name_Hall           'P 65'
loop_
_symmetry_equiv_pos_site_id
_symmetry_equiv_pos_as_xyz
1 x,y,z
2 x-y,x,5/6+z
3 -y,x-y,2/3+z
4 -x,-y,1/2+z
5 -x+y,-x,1/3+z
6 y,-x+y,1/6+z
_cell_length_a                   8.40464(8)
_cell_length_b                   8.40464(8)
_cell_length_c                   31.0988(3)
_cell_angle_alpha                90
_cell_angle_beta                 90
_cell_angle_gamma                120
_cell_volume                     1902.45
_exptl_crystal_colour            colorless
_exptl_crystal_description       block
_cell_formula_units_Z            6
loop_
_atom_site_label
_atom_site_type_symbol
_atom_site_fract_x
_atom_site_fract_y
_atom_site_fract_z
O1 O -0.44913(18) -0.59304(17) -0.04393(4)
O2 O -0.3321(2) -0.7573(2) -0.01479(5)
O3 O -0.9200(2) -1.0047(2) -0.07004(5)
C1 C -0.3758(2) -0.6422(2) -0.01019(6)
C2 C -0.7086(2) -0.5382(2) -0.03272(5)
N1 N -0.72006(19) -0.3701(2) -0.03702(5)
C3 C -0.8188(2) -0.6596(3) 0.00478(6)
C4 C -0.4204(2) -0.2815(2) -0.05511(5)
H1 H -0.448760 -0.303691 -0.086166
H2 H -0.286579 -0.199997 -0.050956
C5 C -0.8730(3) -0.8615(3) -0.05091(6)
C6 C -0.5336(2) -0.2083(2) -0.03262(5)
H3 H -0.524087 -0.100168 -0.048397
C7 C -0.4134(2) -0.2576(3) 0.03627(6)
H4 H -0.372152 -0.226372 0.065107
C8 C -0.3593(2) -0.5283(3) 0.02689(6)
C9 C -0.8772(3) -0.4148(3) 0.03527(6)
H5 H -0.999288 -0.446591 0.046869
H6 H -0.784065 -0.302299 0.050131
C10 C -0.4202(2) -0.4143(2) 0.01564(6)
C11 C -0.8724(3) -0.3748(3) -0.01300(6)
H7 H -0.989231 -0.469721 -0.025977
H8 H -0.866270 -0.254860 -0.016591
C12 C -0.4670(3) -0.1575(3) 0.01361(6)
H9 H -0.463619 -0.053293 0.026480
C13 C -0.8395(3) -0.5741(3) 0.04517(6)
H10 H -0.725820 -0.526374 0.062491
H11 H -0.942193 -0.669017 0.062393
C14 C -0.4957(2) -0.4602(2) -0.02948(5)
C15 C -0.7885(3) -0.6723(2) -0.07129(6)
H12 H -0.882684 -0.656039 -0.086591
H13 H -0.690345 -0.652815 -0.091829
C16 C -0.8989(3) -0.8382(3) -0.00516(6)
H14 H -0.963362 -0.935998 0.014622
H15 H -0.316(3) -0.538(3) 0.0546(9)
loop_
_geom_bond_atom_site_label_1
_geom_bond_atom_site_label_2
_geom_bond_site_symmetry_1
_geom_bond_site_symmetry_2
O1 C1 1_555 1_555
O2 C1 1_555 1_555
O3 C5 1_555 1_555
C1 C8 1_555 1_555
C2 N1 1_555 1_555
N1 C6 1_555 1_555
C3 C2 1_555 1_555
C4 H1 1_555 1_555
H2 C4 1_555 1_555
C5 C15 1_555 1_555
C6 C4 1_555 1_555
H3 C6 1_555 1_555
C7 H4 1_555 1_555
C8 C10 1_555 1_555
C9 H5 1_555 1_555
H6 C9 1_555 1_555
C10 C7 1_555 1_555
C11 N1 1_555 1_555
H7 C11 1_555 1_555
H8 C11 1_555 1_555
C12 C6 1_555 1_555
H9 C12 1_555 1_555
C13 C3 1_555 1_555
H10 C13 1_555 1_555
H11 C13 1_555 1_555
C14 O1 1_555 1_555
C15 C2 1_555 1_555
H12 C15 1_555 1_555
H13 C15 1_555 1_555
C16 C3 1_555 1_555
H14 C16 1_555 1_555
H15 C8 1_555 1_555
C2 C14 1_555 1_555
C4 C14 1_555 1_555
C5 C16 1_555 1_555
C7 C12 1_555 1_555
C9 C11 1_555 1_555
C9 C13 1_555 1_555
C10 C14 1_555 1_555

#END
