
#######################################################################
#
#                 Cambridge Crystallographic Data Centre
#                                CCDC 
#
#######################################################################
#
# If this CIF has been generated from an entry in the Cambridge 
# Structural Database, then it will include bibliographic, chemical, 
# crystal, experimental, refinement or atomic coordinate data resulting 
# from the CCDC's data processing and validation procedures.
#
#######################################################################

data_LENGAP01
_chemical_formula_moiety         '0.6(C6 H13 N1 O2),0.4(C6 H13 N1 O2)'
_chemical_name_systematic        'L-isoleucine L-leucine'
_symmetry_cell_setting           monoclinic
_symmetry_space_group_name_H-M   'P 21'
_symmetry_Int_Tables_number      4
_space_group_name_Hall           'P 2yb'
loop_
_symmetry_equiv_pos_site_id
_symmetry_equiv_pos_as_xyz
1 x,y,z
2 -x,1/2+y,-z
_cell_length_a                   9.6044(17)
_cell_length_b                   5.2886(8)
_cell_length_c                   14.670(3)
_cell_angle_alpha                90
_cell_angle_beta                 108.758(5)
_cell_angle_gamma                90
_cell_volume                     705.567
_exptl_crystal_colour            colorless
_exptl_crystal_description       platelet
_cell_formula_units_Z            4
loop_
_atom_site_label
_atom_site_type_symbol
_atom_site_fract_x
_atom_site_fract_y
_atom_site_fract_z
N2 N -0.1599(3) -0.7978(8) 0.4244(2)
C9 C -0.2058(3) -0.5766(9) 0.3594(3)
C10 C -0.3383(3) -0.4456(9) 0.3779(3)
O3 O -0.4174(2) -0.5843(8) 0.41138(19)
C11 C -0.2945(6) -0.4780(12) 0.1760(4)
C12 C -0.3481(8) -0.6088(16) 0.0792(4)
C13 C -0.1657(7) -0.3092(13) 0.1783(5)
C14 C -0.2496(7) -0.6782(11) 0.2561(4)
O4 O -0.3588(3) -0.2170(8) 0.3584(2)
H21 H -0.3741 -0.3739 0.1830
H22 H -0.4051 -0.7523 0.0867
H23 H -0.2655 -0.6649 0.0613
H24 H -0.4096 -0.4979 0.0299
H25 H -0.1275 -0.2272 0.2408
H26 H -0.0899 -0.4124 0.1678
H27 H -0.1960 -0.1845 0.1276
H28 H -0.3297 -0.7945 0.2472
H29 H -0.1662 -0.7729 0.2493
H30 H -0.1239 -0.4557 0.3728
H31 H -0.0789 -0.8757 0.4119
H32 H -0.1310 -0.7457 0.4907
H33 H -0.2389 -0.9147 0.4118
O1 O 0.0998(2) 0.0083(8) 0.41002(19)
C1 C 0.1762(4) 0.1684(9) 0.3813(3)
O2 O 0.1597(3) 0.3954(8) 0.3778(2)
C2 C 0.2912(4) 0.0518(9) 0.3411(3)
N1 N 0.3544(3) -0.1811(8) 0.3956(2)
C3 C 0.2223(5) -0.0203(11) 0.2341(3)
C4 C 0.1836(13) 0.204(2) 0.1683(9)
C5 C 0.0865(11) 0.109(2) 0.0693(7)
C6 C 0.3156(11) 0.3425(15) 0.1593(7)
H1 H 0.3680 0.1770 0.3462
H2 H 0.1246 0.3206 0.1941
H3 H 0.0602 0.2419 0.0203
H4 H 0.1401 -0.0213 0.0486
H5 H -0.0022 0.0373 0.0767
H6 H 0.2844 0.4898 0.1173
H7 H 0.3772 0.3954 0.2243
H8 H 0.3697 0.2270 0.1317
H9 H 0.2900 -0.1178 0.2140
H10 H 0.1371 -0.1185 0.2284
H11 H 0.4245 -0.2482 0.3689
H12 H 0.4022 -0.1391 0.4623
H13 H 0.2800 -0.3032 0.3909
C7? C 0.1226(18) 0.181(4) 0.1666(15)
C8? C 0.318(2) -0.138(7) 0.1807(14)
H14? H 0.0935 0.1212 0.1004
H15? H 0.1783 0.3348 0.1717
H16? H 0.0364 0.2140 0.1844
H17? H 0.2620 -0.1796 0.1153
H18? H 0.3631 -0.2857 0.2144
H19? H 0.3916 -0.0183 0.1807
H20? H 0.1493 -0.1585 0.2313
C15? C -0.364(2) -0.722(4) 0.2003(17)
C16? C -0.198(3) -0.355(5) 0.205(2)
C17? C -0.222(3) -0.594(5) 0.2532(14)
H34? H -0.3546 -0.8374 0.1515
H35? H -0.3995 -0.8121 0.2457
H36? H -0.4331 -0.5916 0.1695
H37? H -0.0953 -0.3153 0.2249
H38? H -0.2496 -0.2229 0.2262
H39? H -0.2374 -0.3699 0.1356
H40? H -0.1444 -0.7124 0.2498
loop_
_geom_bond_atom_site_label_1
_geom_bond_atom_site_label_2
_geom_bond_site_symmetry_1
_geom_bond_site_symmetry_2
O1 C1 1_555 1_555
C1 O2 1_555 1_555
C2 C1 1_555 1_555
N1 C2 1_555 1_555
C3 C2 1_555 1_555
C4 C3 1_555 1_555
C5 C4 1_555 1_555
C6 C4 1_555 1_555
H1 C2 1_555 1_555
H2 C4 1_555 1_555
H3 C5 1_555 1_555
H4 C5 1_555 1_555
H5 C5 1_555 1_555
H6 C6 1_555 1_555
H7 C6 1_555 1_555
H8 C6 1_555 1_555
H9 C3 1_555 1_555
H10 C3 1_555 1_555
H11 N1 1_555 1_555
H12 N1 1_555 1_555
H13 N1 1_555 1_555
N2 C9 1_555 1_555
C9 C10 1_555 1_555
C10 O3 1_555 1_555
C11 C12 1_555 1_555
C12 H22 1_555 1_555
C13 C11 1_555 1_555
C14 C9 1_555 1_555
O4 C10 1_555 1_555
H21 C11 1_555 1_555
H23 C12 1_555 1_555
H24 C12 1_555 1_555
H25 C13 1_555 1_555
H26 C13 1_555 1_555
H27 C13 1_555 1_555
H28 C14 1_555 1_555
H29 C14 1_555 1_555
H30 C9 1_555 1_555
H31 N2 1_555 1_555
H32 N2 1_555 1_555
H33 N2 1_555 1_555
C11 C14 1_555 1_555

#END
