
#######################################################################
#
#                 Cambridge Crystallographic Data Centre
#                                CCDC 
#
#######################################################################
#
# If this CIF has been generated from an entry in the Cambridge 
# Structural Database, then it will include bibliographic, chemical, 
# crystal, experimental, refinement or atomic coordinate data resulting 
# from the CCDC's data processing and validation procedures.
#
#######################################################################

data_LENQUR
_chemical_formula_moiety         'C28 H25 N3 O2 S1'
_chemical_name_systematic        
(2S,4S)-2,4-Diphenyl-1-p-tosyl-4-vinylpiperidine-3,3-dicarbonitrile
_symmetry_cell_setting           monoclinic
_symmetry_space_group_name_H-M   'P 21/c'
_symmetry_Int_Tables_number      14
_space_group_name_Hall           '-P 2ybc'
loop_
_symmetry_equiv_pos_site_id
_symmetry_equiv_pos_as_xyz
1 x,y,z
2 -x,1/2+y,1/2-z
3 -x,-y,-z
4 x,1/2-y,1/2+z
_cell_length_a                   12.7805(7)
_cell_length_b                   14.9966(9)
_cell_length_c                   13.5072(8)
_cell_angle_alpha                90
_cell_angle_beta                 114.7490(10)
_cell_angle_gamma                90
_cell_volume                     2351.06
_exptl_crystal_colour            colorless
_exptl_crystal_description       'Thin plate'
_cell_formula_units_Z            4
loop_
_atom_site_label
_atom_site_type_symbol
_atom_site_fract_x
_atom_site_fract_y
_atom_site_fract_z
S1 S 0.27424(3) 0.10077(3) 0.53127(3)
O1 O 0.34398(9) 0.17773(7) 0.57577(9)
O2 O 0.25969(9) 0.03694(7) 0.60343(9)
N1 N 0.13993(10) 0.13452(8) 0.44859(10)
N2 N -0.08688(12) 0.30664(10) 0.41501(12)
N3 N -0.02064(12) 0.33433(9) 0.13815(11)
C1 C 0.06500(14) 0.05386(11) 0.40648(14)
H1 H 0.0905(14) 0.0173(11) 0.3619(13)
H2 H 0.0747(14) 0.0213(10) 0.4704(13)
C2 C -0.05981(14) 0.07790(11) 0.34213(14)
H3 H -0.0879(13) 0.1095(10) 0.3891(13)
H4 H -0.1031(13) 0.0243(10) 0.3189(12)
C3 C -0.08013(13) 0.13713(10) 0.24340(12)
C4 C -0.00276(13) 0.22257(10) 0.29402(12)
C5 C 0.12937(13) 0.19807(10) 0.36070(13)
H5 H 0.1501(13) 0.1690(10) 0.3069(13)
C6 C -0.03737(13) 0.09530(11) 0.16409(13)
H6 H -0.0176(13) 0.1352(10) 0.1212(13)
C7 C -0.02568(16) 0.00995(12) 0.15007(15)
H7 H -0.0426(14) -0.0354(11) 0.1950(14)
H8 H 0.0023(15) -0.0092(11) 0.0948(14)
C8 C -0.04807(13) 0.26999(11) 0.36435(13)
C9 C -0.01192(13) 0.28596(10) 0.20620(13)
C10 C 0.19816(13) 0.28360(10) 0.39834(13)
C11 C 0.20447(14) 0.33019(11) 0.48982(13)
H9 H 0.1694(13) 0.3059(10) 0.5327(13)
C12 C 0.26161(14) 0.41113(11) 0.51730(15)
H10 H 0.2661(14) 0.4402(11) 0.5838(14)
C13 C 0.31168(14) 0.44693(12) 0.45304(15)
H11 H 0.3459(15) 0.5017(11) 0.4689(14)
C14 C 0.30501(14) 0.40211(12) 0.36168(14)
H12 H 0.3378(14) 0.4248(11) 0.3177(13)
C15 C 0.24927(13) 0.32010(11) 0.33469(14)
H13 H 0.2466(13) 0.2885(10) 0.2725(13)
C16 C -0.20789(13) 0.16270(10) 0.18170(13)
C17 C -0.28624(15) 0.15158(12) 0.22751(15)
H14 H -0.2632(13) 0.1294(10) 0.2993(13)
C18 C -0.40194(15) 0.17149(12) 0.16914(16)
H15 H -0.4549(15) 0.1633(11) 0.1994(14)
C19 C -0.44262(15) 0.20272(11) 0.06372(16)
H16 H -0.5235(14) 0.2154(10) 0.0246(13)
C20 C -0.36616(15) 0.21453(11) 0.01681(15)
H17 H -0.3902(14) 0.2352(11) -0.0564(14)
C21 C -0.25027(14) 0.19442(11) 0.07459(14)
H18 H -0.1995(13) 0.2015(10) 0.0400(12)
C22 C 0.32530(13) 0.04497(11) 0.44594(12)
C23 C 0.38769(15) 0.09105(12) 0.40035(14)
H19 H 0.4056(14) 0.1502(11) 0.4179(13)
C24 C 0.42068(16) 0.04803(13) 0.32708(15)
H20 H 0.4624(15) 0.0787(11) 0.2963(14)
C25 C 0.38963(14) -0.03945(12) 0.29631(13)
C26 C 0.32708(15) -0.08501(12) 0.34357(14)
H21 H 0.3078(14) -0.1452(11) 0.3236(14)
C27 C 0.29614(14) -0.04430(11) 0.41902(14)
H22 H 0.2528(13) -0.0779(10) 0.4504(13)
C28 C 0.4219(2) -0.08536(15) 0.21436(17)
H23 H 0.4661(16) -0.0427(13) 0.1908(15)
H24 H 0.4731(16) -0.1379(12) 0.2451(15)
H25 H 0.3536(18) -0.1058(13) 0.1510(18)
loop_
_geom_bond_atom_site_label_1
_geom_bond_atom_site_label_2
_geom_bond_site_symmetry_1
_geom_bond_site_symmetry_2
S1 O1 1_555 1_555
O2 S1 1_555 1_555
N1 S1 1_555 1_555
N2 C8 1_555 1_555
N3 C9 1_555 1_555
C1 N1 1_555 1_555
H1 C1 1_555 1_555
H2 C1 1_555 1_555
C2 C1 1_555 1_555
H3 C2 1_555 1_555
H4 C2 1_555 1_555
C3 C2 1_555 1_555
C4 C3 1_555 1_555
C5 N1 1_555 1_555
H5 C5 1_555 1_555
C6 C3 1_555 1_555
H6 C6 1_555 1_555
C7 C6 1_555 1_555
H7 C7 1_555 1_555
H8 C7 1_555 1_555
C8 C4 1_555 1_555
C9 C4 1_555 1_555
C10 C5 1_555 1_555
C11 C10 1_555 1_555
H9 C11 1_555 1_555
C12 C11 1_555 1_555
H10 C12 1_555 1_555
C13 C12 1_555 1_555
H11 C13 1_555 1_555
C14 C13 1_555 1_555
H12 C14 1_555 1_555
C15 C10 1_555 1_555
H13 C15 1_555 1_555
C16 C3 1_555 1_555
C17 C16 1_555 1_555
H14 C17 1_555 1_555
C18 C17 1_555 1_555
H15 C18 1_555 1_555
C19 C18 1_555 1_555
H16 C19 1_555 1_555
C20 C19 1_555 1_555
H17 C20 1_555 1_555
C21 C16 1_555 1_555
H18 C21 1_555 1_555
C22 S1 1_555 1_555
C23 C22 1_555 1_555
H19 C23 1_555 1_555
C24 C23 1_555 1_555
H20 C24 1_555 1_555
C25 C24 1_555 1_555
C26 C25 1_555 1_555
H21 C26 1_555 1_555
C27 C22 1_555 1_555
H22 C27 1_555 1_555
C28 C25 1_555 1_555
H23 C28 1_555 1_555
H24 C28 1_555 1_555
H25 C28 1_555 1_555
C4 C5 1_555 1_555
C14 C15 1_555 1_555
C20 C21 1_555 1_555
C26 C27 1_555 1_555

#END
