
#######################################################################
#
#                 Cambridge Crystallographic Data Centre
#                                CCDC 
#
#######################################################################
#
# If this CIF has been generated from an entry in the Cambridge 
# Structural Database, then it will include bibliographic, chemical, 
# crystal, experimental, refinement or atomic coordinate data resulting 
# from the CCDC's data processing and validation procedures.
#
#######################################################################

data_LENQUS
_chemical_formula_moiety         'C10 H5 B1 Cl4 F2 N2 O1'
_chemical_name_systematic        
(2,3-Dichloro-5-((4,5-dichloro-2H-pyrrol-2-ylidene)(methoxy)methyl)-1H-pyrrolato)(difluoro)boron
_symmetry_cell_setting           monoclinic
_symmetry_space_group_name_H-M   'P 21/c'
_symmetry_Int_Tables_number      14
_space_group_name_Hall           '-P 2ybc'
loop_
_symmetry_equiv_pos_site_id
_symmetry_equiv_pos_as_xyz
1 x,y,z
2 -x,1/2+y,1/2-z
3 -x,-y,-z
4 x,1/2-y,1/2+z
_cell_length_a                   9.8376(14)
_cell_length_b                   9.1284(12)
_cell_length_c                   15.0458(19)
_cell_angle_alpha                90
_cell_angle_beta                 95.922(9)
_cell_angle_gamma                90
_cell_volume                     1343.93
_exptl_crystal_colour            orange
_exptl_crystal_description       block
_cell_formula_units_Z            4
loop_
_atom_site_label
_atom_site_type_symbol
_atom_site_fract_x
_atom_site_fract_y
_atom_site_fract_z
Cl1 Cl 0.36801(8) 0.10853(8) 0.04824(6)
Cl2 Cl 0.45742(9) 0.20598(10) -0.15338(5)
Cl3 Cl 0.88265(9) 0.65025(11) -0.23623(5)
Cl4 Cl 1.07250(9) 0.86380(10) -0.08610(7)
F1 F 0.61223(17) 0.4930(2) -0.18844(10)
F2 F 0.77893(19) 0.3233(2) -0.16024(12)
C1 C 0.5296(3) 0.2706(3) -0.05386(18)
C2 C 0.4944(3) 0.2300(3) 0.02981(19)
C3 C 0.5780(3) 0.3053(3) 0.09236(18)
H1 H 0.5783 0.2989 0.1541
C4 C 0.6634(3) 0.3939(3) 0.04567(16)
C5 C 0.7658(3) 0.4970(3) 0.07182(15)
C6 C 0.8326(3) 0.5771(3) 0.00832(16)
C7 C 0.9305(3) 0.6870(3) 0.02289(19)
H2 H 0.9677 0.7241 0.0776
C8 C 0.9610(3) 0.7295(3) -0.0612(2)
C9 C 0.8836(3) 0.6459(3) -0.12329(18)
C10 C 0.7596(4) 0.4658(4) 0.23186(18)
H3 H 0.8064 0.5070 0.2852
H4 H 0.7750 0.3620 0.2311
H5 H 0.6634 0.4847 0.2306
O1 O 0.8108(2) 0.5318(2) 0.15461(11)
N1 N 0.6307(2) 0.3695(2) -0.04600(13)
N2 N 0.8037(2) 0.5518(2) -0.08242(13)
B1 B 0.7059(3) 0.4336(4) -0.12447(19)
loop_
_geom_bond_atom_site_label_1
_geom_bond_atom_site_label_2
_geom_bond_site_symmetry_1
_geom_bond_site_symmetry_2
Cl1 C2 1_555 1_555
Cl2 C1 1_555 1_555
Cl3 C9 1_555 1_555
Cl4 C8 1_555 1_555
F1 B1 1_555 1_555
F2 B1 1_555 1_555
C1 C2 1_555 1_555
C2 C3 1_555 1_555
C3 H1 1_555 1_555
C4 C3 1_555 1_555
C5 C4 1_555 1_555
C6 C5 1_555 1_555
C7 C6 1_555 1_555
H2 C7 1_555 1_555
C8 C7 1_555 1_555
C9 C8 1_555 1_555
C10 H3 1_555 1_555
H4 C10 1_555 1_555
H5 C10 1_555 1_555
O1 C5 1_555 1_555
N1 C1 1_555 1_555
N2 C6 1_555 1_555
B1 N1 1_555 1_555
C4 N1 1_555 1_555
C9 N2 1_555 1_555
C10 O1 1_555 1_555
N2 B1 1_555 1_555

#END
