
#######################################################################
#
#                 Cambridge Crystallographic Data Centre
#                                CCDC 
#
#######################################################################
#
# If this CIF has been generated from an entry in the Cambridge 
# Structural Database, then it will include bibliographic, chemical, 
# crystal, experimental, refinement or atomic coordinate data resulting 
# from the CCDC's data processing and validation procedures.
#
#######################################################################

data_LENTIH
_chemical_name_common            
2-(4-t-Butylphenylethenyl)-3-ethyl-5,6-dicyanopyrazine
_chemical_formula_moiety         'C20 H20 N4'
_chemical_name_systematic        
2-(2-(4-t-Butylphenyl)ethenyl)-3-ethyl-5,6-dicyanopyrazine
_symmetry_cell_setting           orthorhombic
_symmetry_space_group_name_H-M   'P n a 21'
_symmetry_Int_Tables_number      33
_space_group_name_Hall           'P 2c -2n'
loop_
_symmetry_equiv_pos_site_id
_symmetry_equiv_pos_as_xyz
1 x,y,z
2 -x,-y,1/2+z
3 1/2-x,1/2+y,1/2+z
4 1/2+x,1/2-y,z
_cell_length_a                   27.772(7)
_cell_length_b                   9.441(2)
_cell_length_c                   7.012(9)
_cell_angle_alpha                90
_cell_angle_beta                 90
_cell_angle_gamma                90
_cell_volume                     1838.51
_exptl_crystal_colour            'colorless or yellow'
_exptl_crystal_description       prismatic
_chemical_melting_point          205deg.C
_cell_formula_units_Z            4
_exptl_crystal_recrystallization_method chloroform
_exptl_crystal_preparation       'intensely fluorescent'
loop_
_atom_site_label
_atom_site_type_symbol
_atom_site_fract_x
_atom_site_fract_y
_atom_site_fract_z
N1 N 0.60561(9) 0.4566(3) 0.0000
N2 N 0.50840(8) 0.3847(2) 0.007(2)
N3 N 0.6568(1) 0.1270(4) 0.007(2)
N4 N 0.5174(1) 0.0240(3) 0.011(3)
C1 C 0.3186(1) 0.8904(3) 0.010(2)
C2 C 0.3657(1) 0.9387(3) 0.012(2)
C3 C 0.4046(1) 0.8467(3) 0.008(2)
C4 C 0.39803(9) 0.7014(3) 0.009(2)
C5 C 0.3506(1) 0.6522(3) 0.008(2)
C6 C 0.3123(1) 0.7445(4) 0.004(2)
C7 C 0.4376(1) 0.5992(3) 0.006(2)
C8 C 0.4846(1) 0.6285(3) 0.005(2)
C9 C 0.52226(10) 0.5207(3) 0.011(2)
C10 C 0.5718(1) 0.5563(3) 0.012(2)
C11 C 0.5914(1) 0.3215(3) 0.009(2)
C12 C 0.5430(1) 0.2867(3) 0.007(2)
C13 C 0.6285(1) 0.2135(4) 0.012(2)
C14 C 0.5277(1) 0.1400(4) 0.001(2)
C15 C 0.5898(1) 0.7086(5) -0.007(3)
C16 C 0.6005(3) 0.7668(7) 0.166(2)
C17 C 0.2749(1) 0.9914(4) 0.007(2)
C18 C 0.2896(2) 1.1407(7) -0.022(4)
C19 C 0.2417(3) 0.951(1) 0.170(2)
C20 C 0.2490(4) 0.981(2) -0.173(2)
H1 H 0.3715 1.0378 0.0160
H2 H 0.4364 0.8841 0.0045
H3 H 0.3446 0.5530 0.0090
H4 H 0.2805 0.7074 -0.0021
H5 H 0.4290 0.5018 0.0042
H6 H 0.4941 0.7251 -0.0002
H7 H 0.5655 0.7639 -0.0668
H8 H 0.6179 0.7091 -0.0842
H9 H 0.6109 0.8618 0.1482
H10 H 0.6253 0.7135 0.2247
H11 H 0.5726 0.7656 0.2440
H12 H 0.3102 1.1690 0.0793
H13 H 0.3062 1.1493 -0.1397
H14 H 0.2618 1.1995 -0.0236
H15 H 0.2577 0.9669 0.2882
H16 H 0.2133 1.0069 0.1651
H17 H 0.2334 0.8536 0.1601
H18 H 0.2705 0.9997 -0.2752
H19 H 0.2236 1.0482 -0.1744
H20 H 0.2362 0.8883 -0.1859
loop_
_geom_bond_atom_site_label_1
_geom_bond_atom_site_label_2
_geom_bond_site_symmetry_1
_geom_bond_site_symmetry_2
N1 C10 1_555 1_555
N2 C9 1_555 1_555
N3 C13 1_555 1_555
N4 C14 1_555 1_555
C1 C2 1_555 1_555
C2 C3 1_555 1_555
C3 C4 1_555 1_555
C4 C5 1_555 1_555
C5 C6 1_555 1_555
C6 C1 1_555 1_555
C7 C4 1_555 1_555
C8 C7 1_555 1_555
C9 C8 1_555 1_555
C10 C9 1_555 1_555
C11 N1 1_555 1_555
C12 N2 1_555 1_555
C13 C11 1_555 1_555
C14 C12 1_555 1_555
C15 C10 1_555 1_555
C16 C15 1_555 1_555
C17 C1 1_555 1_555
C18 C17 1_555 1_555
C19 C17 1_555 1_555
C20 C17 1_555 1_555
H1 C2 1_555 1_555
H2 C3 1_555 1_555
H3 C5 1_555 1_555
H4 C6 1_555 1_555
H5 C7 1_555 1_555
H6 C8 1_555 1_555
H7 C15 1_555 1_555
H8 C15 1_555 1_555
H9 C16 1_555 1_555
H10 C16 1_555 1_555
H11 C16 1_555 1_555
H12 C18 1_555 1_555
H13 C18 1_555 1_555
H14 C18 1_555 1_555
H15 C19 1_555 1_555
H16 C19 1_555 1_555
H17 C19 1_555 1_555
H18 C20 1_555 1_555
H19 C20 1_555 1_555
H20 C20 1_555 1_555
C11 C12 1_555 1_555

#END
