
#######################################################################
#
#                 Cambridge Crystallographic Data Centre
#                                CCDC 
#
#######################################################################
#
# If this CIF has been generated from an entry in the Cambridge 
# Structural Database, then it will include bibliographic, chemical, 
# crystal, experimental, refinement or atomic coordinate data resulting 
# from the CCDC's data processing and validation procedures.
#
#######################################################################

data_LENXUZ
_chemical_formula_moiety         'C21 H19 F1 O5'
_chemical_name_systematic        
'1-(3-Furyl)-4,7a-dimethyl-3-oxo-1,3,5,6,7,7a-hexahydro-2-benzofuran-5-yl 4-fluorobenzoate'
_symmetry_cell_setting           orthorhombic
_symmetry_space_group_name_H-M   'P 21 21 21'
_symmetry_Int_Tables_number      19
_space_group_name_Hall           'P 2ac 2ab'
loop_
_symmetry_equiv_pos_site_id
_symmetry_equiv_pos_as_xyz
1 x,y,z
2 1/2-x,-y,1/2+z
3 -x,1/2+y,1/2-z
4 1/2+x,1/2-y,-z
_cell_length_a                   7.459(12)
_cell_length_b                   11.877(19)
_cell_length_c                   20.69(3)
_cell_angle_alpha                90
_cell_angle_beta                 90
_cell_angle_gamma                90
_cell_volume                     1832.94
_exptl_crystal_colour            colorless
_exptl_crystal_description       block
_cell_formula_units_Z            4
loop_
_atom_site_label
_atom_site_type_symbol
_atom_site_fract_x
_atom_site_fract_y
_atom_site_fract_z
C1 C 0.8672(5) 0.8324(3) 0.15306(17)
C2 C 0.7372(6) 0.7452(3) 0.1769(2)
H1 H 0.6185 0.7781 0.1805
H2 H 0.7734 0.7192 0.2194
C3 C 0.7320(6) 0.6472(3) 0.1306(2)
H3 H 0.6466 0.5918 0.1460
H4 H 0.6920 0.6732 0.0885
C4 C 0.9124(5) 0.5938(3) 0.12415(19)
H5 H 0.9335 0.5471 0.1625
C5 C 1.0639(5) 0.6743(4) 0.11786(18)
C6 C 1.0419(5) 0.7800(4) 0.13505(19)
C7 C 1.1792(6) 0.8653(4) 0.1476(2)
C8 C 0.9331(5) 0.9135(3) 0.20551(19)
H6 H 0.9398 0.8724 0.2465
C9 C 0.9212(7) 0.4120(4) 0.0766(2)
C10 C 0.9115(6) 0.3497(4) 0.0162(2)
C11 C 0.9225(8) 0.2345(4) 0.0183(2)
H7 H 0.9354 0.1981 0.0579
C12 C 0.9146(9) 0.1734(4) -0.0372(3)
H8 H 0.9221 0.0953 -0.0364
C13 C 0.8956(8) 0.2290(5) -0.0934(3)
C14 C 0.8879(7) 0.3406(5) -0.0972(2)
H9 H 0.8796 0.3763 -0.1371
C15 C 0.8925(6) 0.4019(4) -0.0416(2)
H10 H 0.8826 0.4799 -0.0433
C16 C 1.2410(6) 0.6242(3) 0.0990(2)
H11 H 1.2394 0.6055 0.0539
H12 H 1.2622 0.5574 0.1240
H13 H 1.3348 0.6777 0.1072
C17 C 0.8288(7) 1.0172(4) 0.21589(19)
C18 C 0.8737(7) 1.1273(4) 0.1985(2)
H14 H 0.9797 1.1504 0.1789
C19 C 0.7385(10) 1.1924(4) 0.2151(2)
H15 H 0.7348 1.2700 0.2092
C20 C 0.6672(8) 1.0222(4) 0.2416(2)
H16 H 0.6038 0.9606 0.2574
C21 C 0.7954(6) 0.8988(4) 0.09549(18)
H17 H 0.8853 0.9507 0.0808
H18 H 0.6903 0.9398 0.1083
H19 H 0.7653 0.8478 0.0612
F1 F 0.8901(6) 0.1669(3) -0.14792(15)
O1 O 1.3298(4) 0.8698(3) 0.1291(2)
O2 O 1.1107(4) 0.9440(3) 0.18651(15)
O3 O 0.9087(4) 0.5217(2) 0.06856(12)
O4 O 0.9413(7) 0.3712(3) 0.12862(17)
O5 O 0.6061(6) 1.1308(3) 0.24178(15)
loop_
_geom_bond_atom_site_label_1
_geom_bond_atom_site_label_2
_geom_bond_site_symmetry_1
_geom_bond_site_symmetry_2
C1 C2 1_555 1_555
C2 H1 1_555 1_555
H2 C2 1_555 1_555
C3 C2 1_555 1_555
H3 C3 1_555 1_555
H4 C3 1_555 1_555
C4 C3 1_555 1_555
H5 C4 1_555 1_555
C5 C4 1_555 1_555
C6 C1 1_555 1_555
C7 C6 1_555 1_555
C8 C1 1_555 1_555
H6 C8 1_555 1_555
C9 C10 1_555 1_555
C10 C11 1_555 1_555
C11 H7 1_555 1_555
C12 C11 1_555 1_555
H8 C12 1_555 1_555
C13 C12 1_555 1_555
C14 C13 1_555 1_555
H9 C14 1_555 1_555
C15 C10 1_555 1_555
H10 C15 1_555 1_555
C16 C5 1_555 1_555
H11 C16 1_555 1_555
H12 C16 1_555 1_555
H13 C16 1_555 1_555
C17 C8 1_555 1_555
C18 C17 1_555 1_555
H14 C18 1_555 1_555
C19 C18 1_555 1_555
H15 C19 1_555 1_555
C20 C17 1_555 1_555
H16 C20 1_555 1_555
C21 C1 1_555 1_555
H17 C21 1_555 1_555
H18 C21 1_555 1_555
H19 C21 1_555 1_555
F1 C13 1_555 1_555
O1 C7 1_555 1_555
O2 C7 1_555 1_555
O3 C4 1_555 1_555
O4 C9 1_555 1_555
O5 C19 1_555 1_555
C5 C6 1_555 1_555
C8 O2 1_555 1_555
C9 O3 1_555 1_555
C14 C15 1_555 1_555
C20 O5 1_555 1_555

#END
