
#######################################################################
#
#                 Cambridge Crystallographic Data Centre
#                                CCDC 
#
#######################################################################
#
# If this CIF has been generated from an entry in the Cambridge 
# Structural Database, then it will include bibliographic, chemical, 
# crystal, experimental, refinement or atomic coordinate data resulting 
# from the CCDC's data processing and validation procedures.
#
#######################################################################

data_LEPLEA
_chemical_formula_moiety         'C31 H30 Cl1 N3 O3'
_chemical_name_systematic        
't-butyl [2-chloro-5-(3,5-diphenyl-1H-pyrazol-1-yl)-5-oxo-1-phenylpent-3-en-1-yl]carbamate'
_symmetry_cell_setting           monoclinic
_symmetry_space_group_name_H-M   'P 21'
_symmetry_Int_Tables_number      4
_space_group_name_Hall           'P 2yb'
loop_
_symmetry_equiv_pos_site_id
_symmetry_equiv_pos_as_xyz
1 x,y,z
2 -x,1/2+y,-z
_cell_length_a                   11.1116(14)
_cell_length_b                   10.1824(13)
_cell_length_c                   12.4713(16)
_cell_angle_alpha                90
_cell_angle_beta                 101.661(3)
_cell_angle_gamma                90
_cell_volume                     1381.91
_exptl_crystal_colour            colorless
_exptl_crystal_description       prismatic
_cell_formula_units_Z            2
loop_
_atom_site_label
_atom_site_type_symbol
_atom_site_fract_x
_atom_site_fract_y
_atom_site_fract_z
H1 H 0.192(3) 0.642(3) 0.330(2)
Cl1 Cl 0.22333(7) 0.90901(8) 0.27692(7)
N1 N 0.5342(2) 0.6597(3) 0.09545(19)
N2 N 0.4149(2) 0.6569(3) 0.0361(2)
N3 N 0.2522(2) 0.6304(2) 0.3829(2)
O1 O 0.6493(2) 0.6807(3) 0.26706(17)
O2 O 0.4219(2) 0.5066(2) 0.44182(19)
O3 O 0.27226(19) 0.4467(2) 0.29793(19)
C1 C 0.5531(3) 0.6995(3) 0.2065(2)
C2 C 0.4460(3) 0.7622(3) 0.2376(3)
H2 H 0.3759 0.7783 0.1844
C3 C 0.4481(3) 0.7954(3) 0.3388(2)
H3 H 0.5225 0.7848 0.3879
C4 C 0.3441(3) 0.8486(3) 0.3842(2)
H4 H 0.3746 0.9217 0.4334
C5 C 0.2913(3) 0.7432(3) 0.4498(2)
H5 H 0.3583 0.7146 0.5089
C6 C 0.1896(3) 0.7968(3) 0.5036(2)
C7 C 0.0738(3) 0.7467(4) 0.4829(3)
H6 H 0.0542 0.6789 0.4324
C8 C -0.0152(3) 0.7945(4) 0.5354(3)
H7 H -0.0943 0.7598 0.5195
C9 C 0.0132(4) 0.8926(5) 0.6106(3)
H8 H -0.0458 0.9230 0.6479
C10 C 0.1275(4) 0.9457(5) 0.6311(3)
H9 H 0.1464 1.0139 0.6813
C11 C 0.2161(3) 0.8984(5) 0.5771(3)
H10 H 0.2941 0.9358 0.5907
C12 C 0.8203(3) 0.6918(4) 0.1150(3)
H11 H 0.7840 0.7707 0.1285
C13 C 0.9463(3) 0.6814(5) 0.1351(3)
H12 H 0.9948 0.7532 0.1621
C14 C 1.0007(3) 0.5646(5) 0.1154(3)
H13 H 1.0859 0.5575 0.1292
C15 C 0.9298(4) 0.4601(5) 0.0758(3)
H14 H 0.9667 0.3814 0.0624
C16 C 0.8031(3) 0.4694(4) 0.0551(3)
H15 H 0.7551 0.3973 0.0279
C17 C 0.7477(3) 0.5864(3) 0.0752(2)
C18 C 0.6125(3) 0.5959(3) 0.0410(2)
C19 C 0.5424(3) 0.5527(3) -0.0541(2)
H16 H 0.5692 0.5061 -0.1090
C20 C 0.4207(3) 0.5921(3) -0.0537(2)
C21 C 0.3090(3) 0.5678(3) -0.1370(3)
C22 C 0.3161(3) 0.5278(4) -0.2410(3)
H17 H 0.3926 0.5180 -0.2595
C23 C 0.2110(4) 0.5021(5) -0.3180(3)
H18 H 0.2170 0.4753 -0.3881
C24 C 0.0981(3) 0.5160(4) -0.2917(3)
H19 H 0.0273 0.4974 -0.3433
C25 C 0.0893(3) 0.5573(4) -0.1892(3)
H20 H 0.0125 0.5683 -0.1716
C26 C 0.1940(3) 0.5827(4) -0.1124(3)
H21 H 0.1873 0.6102 -0.0427
C27 C 0.3260(3) 0.5259(3) 0.3798(2)
C28 C 0.3316(3) 0.3283(3) 0.2672(3)
C29 C 0.4443(4) 0.3692(5) 0.2247(4)
H22 H 0.4206 0.4285 0.1643
H23 H 0.4823 0.2929 0.2008
H24 H 0.5014 0.4121 0.2820
C30 C 0.2356(4) 0.2729(4) 0.1768(3)
H25 H 0.1601 0.2623 0.2020
H26 H 0.2624 0.1892 0.1551
H27 H 0.2229 0.3317 0.1154
C31 C 0.3608(5) 0.2349(4) 0.3604(3)
H28 H 0.4226 0.2723 0.4171
H29 H 0.3907 0.1542 0.3358
H30 H 0.2880 0.2179 0.3884
loop_
_geom_bond_atom_site_label_1
_geom_bond_atom_site_label_2
_geom_bond_site_symmetry_1
_geom_bond_site_symmetry_2
H1 N3 1_555 1_555
Cl1 C4 1_555 1_555
N1 N2 1_555 1_555
N2 C20 1_555 1_555
N3 C5 1_555 1_555
O1 C1 1_555 1_555
O2 C27 1_555 1_555
O3 C27 1_555 1_555
C1 N1 1_555 1_555
C2 C1 1_555 1_555
H2 C2 1_555 1_555
C3 C2 1_555 1_555
H3 C3 1_555 1_555
C4 C3 1_555 1_555
H4 C4 1_555 1_555
C5 C4 1_555 1_555
H5 C5 1_555 1_555
C6 C5 1_555 1_555
C7 C6 1_555 1_555
H6 C7 1_555 1_555
C8 C7 1_555 1_555
H7 C8 1_555 1_555
C9 C8 1_555 1_555
H8 C9 1_555 1_555
C10 C9 1_555 1_555
H9 C10 1_555 1_555
C11 C6 1_555 1_555
H10 C11 1_555 1_555
C12 H11 1_555 1_555
C13 C12 1_555 1_555
H12 C13 1_555 1_555
C14 C13 1_555 1_555
H13 C14 1_555 1_555
C15 C14 1_555 1_555
H14 C15 1_555 1_555
C16 C15 1_555 1_555
H15 C16 1_555 1_555
C17 C12 1_555 1_555
C18 N1 1_555 1_555
C19 C18 1_555 1_555
H16 C19 1_555 1_555
C20 C19 1_555 1_555
C21 C20 1_555 1_555
C22 C21 1_555 1_555
H17 C22 1_555 1_555
C23 C22 1_555 1_555
H18 C23 1_555 1_555
C24 C23 1_555 1_555
H19 C24 1_555 1_555
C25 C24 1_555 1_555
H20 C25 1_555 1_555
C26 C21 1_555 1_555
H21 C26 1_555 1_555
C27 N3 1_555 1_555
C28 O3 1_555 1_555
C29 C28 1_555 1_555
H22 C29 1_555 1_555
H23 C29 1_555 1_555
H24 C29 1_555 1_555
C30 C28 1_555 1_555
H25 C30 1_555 1_555
H26 C30 1_555 1_555
H27 C30 1_555 1_555
C31 C28 1_555 1_555
H28 C31 1_555 1_555
H29 C31 1_555 1_555
H30 C31 1_555 1_555
C10 C11 1_555 1_555
C16 C17 1_555 1_555
C17 C18 1_555 1_555
C25 C26 1_555 1_555

#END
