
#######################################################################
#
#                 Cambridge Crystallographic Data Centre
#                                CCDC 
#
#######################################################################
#
# If this CIF has been generated from an entry in the Cambridge 
# Structural Database, then it will include bibliographic, chemical, 
# crystal, experimental, refinement or atomic coordinate data resulting 
# from the CCDC's data processing and validation procedures.
#
#######################################################################

data_LEPMIC
_chemical_formula_moiety         'C28 H39 N1 O2 S1'
_chemical_name_systematic        
(3R)-exo-(((1''S)-1-Phenylpentyl)amino-(1'R)-sulfinyl)-(1R,2S)-1,7,7-trimethyl-2-exo-(benzyloxy)-bicyclo(2.2.1)heptane
_symmetry_cell_setting           trigonal
_symmetry_space_group_name_H-M   'P 31'
_symmetry_Int_Tables_number      144
_space_group_name_Hall           'P 31'
loop_
_symmetry_equiv_pos_site_id
_symmetry_equiv_pos_as_xyz
1 x,y,z
2 -y,x-y,1/3+z
3 -x+y,-x,2/3+z
_cell_length_a                   14.117(4)
_cell_length_b                   14.117(4)
_cell_length_c                   11.719(6)
_cell_angle_alpha                90
_cell_angle_beta                 90
_cell_angle_gamma                120
_cell_volume                     2022.58
_exptl_crystal_colour            colorless
_chemical_melting_point          104-105deg.C
_cell_formula_units_Z            3
loop_
_atom_site_label
_atom_site_type_symbol
_atom_site_fract_x
_atom_site_fract_y
_atom_site_fract_z
S1 S 0.4176 0.6019 0.3435
O1 O 0.4407(2) 0.7166(2) 0.3479(3)
O2 O 0.6524(2) 0.7100(2) 0.3235(2)
N1 N 0.2898(2) 0.5206(2) 0.2975(3)
C1 C 0.6401(3) 0.5745(5) 0.1793(4)
C2 C 0.6079(3) 0.6600(3) 0.2147(3)
C3 C 0.4806(3) 0.5918(3) 0.2124(3)
C4 C 0.4569(4) 0.4764(3) 0.1804(3)
C5 C 0.4841(4) 0.4823(5) 0.0539(4)
C6 C 0.6097(4) 0.5547(6) 0.0518(4)
C7 C 0.5516(5) 0.4679(4) 0.2356(4)
C8 C 0.5522(5) 0.4684(4) 0.3664(4)
C9 C 0.5540(7) 0.3660(6) 0.1970(6)
C10 C 0.7616(5) 0.6145(7) 0.2040(6)
C11 C 0.6957(4) 0.8245(3) 0.3248(5)
C12 C 0.7737(3) 0.8762(4) 0.4218(4)
C13 C 0.8307(4) 0.8307(5) 0.4700(4)
C14 C 0.9052(5) 0.8828(8) 0.5520(6)
C15 C 0.9264(6) 0.9751(10) 0.5914(6)
C16 C 0.8741(6) 1.0283(6) 0.5494(6)
C17 C 0.7938(4) 0.9749(5) 0.4622(5)
C18 C 0.2054(3) 0.4981(3) 0.3850(3)
C19 C 0.2114(3) 0.4282(3) 0.4781(3)
C20 C 0.1872(4) 0.3232(4) 0.4552(5)
C21 C 0.1935(5) 0.2602(5) 0.5393(7)
C22 C 0.2282(5) 0.2998(5) 0.6485(6)
C23 C 0.2527(4) 0.4063(5) 0.6741(4)
C24 C 0.2428(3) 0.4682(3) 0.5887(3)
C25 C 0.0946(3) 0.4497(4) 0.3253(3)
C26 C 0.0054(4) 0.4340(5) 0.4088(4)
C27 C -0.1015(5) 0.4077(7) 0.3549(6)
C28 C -0.1535(8) 0.2941(9) 0.3019(9)
H1 H 0.2737 0.4918 0.2268
H2 H 0.6324 0.7162 0.1577
H3 H 0.4554 0.6185 0.1510
H4 H 0.3852 0.4186 0.2008
H5 H 0.4497 0.5150 0.0116
H6 H 0.4616 0.4111 0.0231
H7 H 0.6431 0.5180 0.0150
H8 H 0.6313 0.6223 0.0127
H9 H 0.4946 0.3991 0.3932
H10 H 0.6212 0.4797 0.3938
H11 H 0.5406 0.5257 0.3942
H12 H 0.4973 0.3027 0.2350
H13 H 0.5427 0.3573 0.1160
H14 H 0.6238 0.3739 0.2155
H15 H 0.8052 0.6811 0.1625
H16 H 0.7766 0.6277 0.2841
H17 H 0.7791 0.5602 0.1791
H18 H 0.6370 0.8400 0.3317
H19 H 0.7329 0.8551 0.2542
H20 H 0.8162 0.7604 0.4434
H21 H 0.9445 0.8487 0.5810
H22 H 0.9782 1.0082 0.6523
H23 H 0.8917 1.0996 0.5761
H24 H 0.7534 1.0080 0.4335
H25 H 0.2220 0.5670 0.4180
H26 H 0.1651 0.2936 0.3798
H27 H 0.1754 0.1865 0.5221
H28 H 0.2339 0.2548 0.7063
H29 H 0.2758 0.4356 0.7494
H30 H 0.2586 0.5411 0.6064
H31 H 0.0766 0.3805 0.2920
H32 H 0.0994 0.4977 0.2649
H33 H 0.0177 0.4451 0.4895
H34 H -0.0936 0.4603 0.2983
H35 H -0.1503 0.4063 0.4128
H36 H -0.2233 0.2745 0.2693
H37 H -0.1054 0.2956 0.2430
H38 H -0.1626 0.2411 0.3586
H39? H 0.4125 0.7249 0.4085
loop_
_geom_bond_atom_site_label_1
_geom_bond_atom_site_label_2
_geom_bond_site_symmetry_1
_geom_bond_site_symmetry_2
S1 O1 1_555 1_555
O2 C2 1_555 1_555
N1 S1 1_555 1_555
C1 C2 1_555 1_555
C2 C3 1_555 1_555
C3 S1 1_555 1_555
C4 C3 1_555 1_555
C5 C4 1_555 1_555
C6 C1 1_555 1_555
C7 C1 1_555 1_555
C8 C7 1_555 1_555
C9 C7 1_555 1_555
C10 C1 1_555 1_555
C11 O2 1_555 1_555
C12 C11 1_555 1_555
C13 C12 1_555 1_555
C14 C13 1_555 1_555
C15 C14 1_555 1_555
C16 C15 1_555 1_555
C17 C12 1_555 1_555
C18 N1 1_555 1_555
C19 C18 1_555 1_555
C20 C19 1_555 1_555
C21 C20 1_555 1_555
C22 C21 1_555 1_555
C23 C22 1_555 1_555
C24 C19 1_555 1_555
C25 C18 1_555 1_555
C26 C25 1_555 1_555
C27 C26 1_555 1_555
C28 C27 1_555 1_555
H1 N1 1_555 1_555
H2 C2 1_555 1_555
H3 C3 1_555 1_555
H4 C4 1_555 1_555
H5 C5 1_555 1_555
H6 C5 1_555 1_555
H7 C6 1_555 1_555
H8 C6 1_555 1_555
H9 C8 1_555 1_555
H10 C8 1_555 1_555
H11 C8 1_555 1_555
H12 C9 1_555 1_555
H13 C9 1_555 1_555
H14 C9 1_555 1_555
H15 C10 1_555 1_555
H16 C10 1_555 1_555
H17 C10 1_555 1_555
H18 C11 1_555 1_555
H19 C11 1_555 1_555
H20 C13 1_555 1_555
H21 C14 1_555 1_555
H22 C15 1_555 1_555
H23 C16 1_555 1_555
H24 C17 1_555 1_555
H25 C18 1_555 1_555
H26 C20 1_555 1_555
H27 C21 1_555 1_555
H28 C22 1_555 1_555
H29 C23 1_555 1_555
H30 C24 1_555 1_555
H31 C25 1_555 1_555
H32 C25 1_555 1_555
H33 C26 1_555 1_555
H34 C27 1_555 1_555
H35 C27 1_555 1_555
H36 C28 1_555 1_555
H37 C28 1_555 1_555
H38 C28 1_555 1_555
C4 C7 1_555 1_555
C5 C6 1_555 1_555
C16 C17 1_555 1_555
C23 C24 1_555 1_555

#END
