
#######################################################################
#
#                 Cambridge Crystallographic Data Centre
#                                CCDC 
#
#######################################################################
#
# If this CIF has been generated from an entry in the Cambridge 
# Structural Database, then it will include bibliographic, chemical, 
# crystal, experimental, refinement or atomic coordinate data resulting 
# from the CCDC's data processing and validation procedures.
#
#######################################################################

data_LEPNAY
_chemical_formula_moiety         'C24 H24 N2 O5,C4 H8 O2'
_chemical_name_systematic        
"1'-ethyl-2-(2-methoxyphenyl)-5,7-dimethyl-3-nitro-2H,2'H,5'H-spiro[naphthalene-1,3'-pyrrolidine]-2',5'-dione ethyl acetate solvate"
_symmetry_cell_setting           monoclinic
_symmetry_space_group_name_H-M   'P 21/n'
_symmetry_Int_Tables_number      14
_space_group_name_Hall           '-P 2yn'
loop_
_symmetry_equiv_pos_site_id
_symmetry_equiv_pos_as_xyz
1 x,y,z
2 1/2-x,1/2+y,1/2-z
3 -x,-y,-z
4 1/2+x,1/2-y,1/2+z
_cell_length_a                   14.328(6)
_cell_length_b                   9.308(3)
_cell_length_c                   20.700(10)
_cell_angle_alpha                90
_cell_angle_beta                 106.482(14)
_cell_angle_gamma                90
_cell_volume                     2647.22
_exptl_crystal_colour            colorless
_exptl_crystal_description       block
_cell_formula_units_Z            4
loop_
_atom_site_label
_atom_site_type_symbol
_atom_site_fract_x
_atom_site_fract_y
_atom_site_fract_z
O1 O 0.3331(2) 0.4778(3) 0.26351(16)
O2 O 0.53456(18) 0.8610(3) 0.27900(13)
O3 O 0.6634(2) 0.4435(3) 0.56011(13)
O4 O 0.5629(2) 0.6222(3) 0.54015(13)
O5 O 0.44741(19) 0.9010(3) 0.39462(13)
N1 N 0.6208(2) 0.5435(3) 0.52421(15)
N2 N 0.4165(2) 0.6889(3) 0.26363(15)
C1 C 0.6707(3) 0.6069(4) 0.33199(18)
C2 C 0.6945(3) 0.6444(4) 0.27337(19)
H1 H 0.6496 0.6985 0.2395
C3 C 0.6391(2) 0.5681(4) 0.45914(17)
C4 C 0.7138(3) 0.5026(4) 0.44559(18)
H2 H 0.7518 0.4359 0.4769
C5 C 0.5698(2) 0.6316(4) 0.34053(17)
C6 C 0.7380(3) 0.5321(4) 0.38333(18)
C7 C 0.8265(3) 0.4878(4) 0.3739(2)
C8 C 0.7825(3) 0.6038(4) 0.2639(2)
C9 C 0.5421(3) 0.9404(4) 0.42399(18)
C10 C 0.4087(3) 0.5469(4) 0.28104(19)
C11 C 0.6101(3) 0.8299(4) 0.43375(18)
C12 C 0.5059(3) 0.4947(4) 0.32225(19)
H3 H 0.5340 0.4268 0.2960
H4 H 0.5004 0.4457 0.3635
C13 C 0.5089(3) 0.7429(4) 0.29150(17)
C14 C 0.8472(3) 0.5247(4) 0.3142(2)
H5 H 0.9073 0.4950 0.3076
C15 C 0.5758(2) 0.6770(4) 0.41444(17)
H6 H 0.5090 0.6674 0.4201
C16 C 0.6679(4) 1.1091(4) 0.4732(2)
H7 H 0.6876 1.2043 0.4873
C17 C 0.9009(3) 0.4024(5) 0.4264(2)
H8 H 0.9174 0.4541 0.4694
H9 H 0.9597 0.3897 0.4118
H10 H 0.8738 0.3081 0.4321
C18 C 0.5716(3) 1.0809(4) 0.4439(2)
H11 H 0.5250 1.1561 0.4372
C19 C 0.7073(3) 0.8630(4) 0.46294(19)
H12 H 0.7548 0.7892 0.4699
C20 C 0.7363(3) 1.0038(4) 0.4824(2)
H13 H 0.8031 1.0257 0.5018
C21 C 0.3371(3) 0.7699(5) 0.2205(2)
H14 H 0.3423 0.8711 0.2357
H15 H 0.2749 0.7312 0.2249
C22 C 0.3358(4) 0.7650(6) 0.1475(2)
H16 H 0.2799 0.8196 0.1204
H17 H 0.3308 0.6650 0.1321
H18 H 0.3960 0.8073 0.1424
C23 C 0.3768(3) 1.0145(5) 0.3771(2)
H19 H 0.3949 1.0813 0.3461
H20 H 0.3747 1.0660 0.4179
H21 H 0.3125 0.9736 0.3552
C24 C 0.8075(3) 0.6452(5) 0.2003(2)
H22 H 0.7642 0.5945 0.1619
H23 H 0.8752 0.6190 0.2045
H24 H 0.7993 0.7491 0.1933
O6 O 0.0052(4) 0.8182(5) 0.3360(2)
C25 C 0.1250(4) 0.6728(6) 0.3164(3)
H25 H 0.0825 0.6003 0.2885
H26 H 0.1874 0.6286 0.3401
H27 H 0.1361 0.7508 0.2876
C26 C 0.0784(5) 0.7309(8) 0.3659(3)
O7 O 0.0918(5) 0.7082(8) 0.4231(3)
C27 C -0.0695(7) 0.8615(9) 0.3731(5)
H28 H -0.1364 0.8626 0.3421
H29 H -0.0671 0.7957 0.4111
C28 C -0.0349(7) 1.0180(10) 0.3990(4)
H30 H -0.0384 1.0807 0.3604
H31 H 0.0323 1.0142 0.4280
H32 H -0.0773 1.0558 0.4248
loop_
_geom_bond_atom_site_label_1
_geom_bond_atom_site_label_2
_geom_bond_site_symmetry_1
_geom_bond_site_symmetry_2
O1 C10 1_555 1_555
O2 C13 1_555 1_555
O3 N1 1_555 1_555
O4 N1 1_555 1_555
O5 C9 1_555 1_555
N1 C3 1_555 1_555
N2 C10 1_555 1_555
C1 C2 1_555 1_555
C2 H1 1_555 1_555
C3 C4 1_555 1_555
C4 H2 1_555 1_555
C5 C1 1_555 1_555
C6 C1 1_555 1_555
C7 C6 1_555 1_555
C8 C2 1_555 1_555
C9 C11 1_555 1_555
C10 C12 1_555 1_555
C11 C15 1_555 1_555
C12 C5 1_555 1_555
H3 C12 1_555 1_555
H4 C12 1_555 1_555
C13 N2 1_555 1_555
C14 C7 1_555 1_555
H5 C14 1_555 1_555
C15 C3 1_555 1_555
H6 C15 1_555 1_555
C16 H7 1_555 1_555
C17 C7 1_555 1_555
H8 C17 1_555 1_555
H9 C17 1_555 1_555
H10 C17 1_555 1_555
C18 C9 1_555 1_555
H11 C18 1_555 1_555
C19 C11 1_555 1_555
H12 C19 1_555 1_555
C20 C16 1_555 1_555
H13 C20 1_555 1_555
C21 N2 1_555 1_555
H14 C21 1_555 1_555
H15 C21 1_555 1_555
C22 C21 1_555 1_555
H16 C22 1_555 1_555
H17 C22 1_555 1_555
H18 C22 1_555 1_555
C23 O5 1_555 1_555
H19 C23 1_555 1_555
H20 C23 1_555 1_555
H21 C23 1_555 1_555
C24 C8 1_555 1_555
H22 C24 1_555 1_555
H23 C24 1_555 1_555
H24 C24 1_555 1_555
O6 C26 1_555 1_555
C25 H25 1_555 1_555
H26 C25 1_555 1_555
H27 C25 1_555 1_555
C26 C25 1_555 1_555
O7 C26 1_555 1_555
C27 O6 1_555 1_555
H28 C27 1_555 1_555
H29 C27 1_555 1_555
C28 C27 1_555 1_555
H30 C28 1_555 1_555
H31 C28 1_555 1_555
H32 C28 1_555 1_555
C4 C6 1_555 1_555
C5 C13 1_555 1_555
C5 C15 1_555 1_555
C8 C14 1_555 1_555
C16 C18 1_555 1_555
C19 C20 1_555 1_555

#END
