
#######################################################################
#
#                 Cambridge Crystallographic Data Centre
#                                CCDC 
#
#######################################################################
#
# If this CIF has been generated from an entry in the Cambridge 
# Structural Database, then it will include bibliographic, chemical, 
# crystal, experimental, refinement or atomic coordinate data resulting 
# from the CCDC's data processing and validation procedures.
#
#######################################################################

data_LEPNUQ
_chemical_formula_moiety         'C13 H9 I1 N2 O3'
_chemical_name_systematic        N-(3-Iodophenyl)-3-nitrobenzamide
_symmetry_cell_setting           monoclinic
_symmetry_space_group_name_H-M   'C c'
_symmetry_Int_Tables_number      9
_space_group_name_Hall           'C -2yc'
loop_
_symmetry_equiv_pos_site_id
_symmetry_equiv_pos_as_xyz
1 x,y,z
2 x,-y,1/2+z
3 1/2+x,1/2+y,z
4 1/2+x,1/2-y,1/2+z
_cell_length_a                   13.8494(4)
_cell_length_b                   10.0495(3)
_cell_length_c                   9.4203(3)
_cell_angle_alpha                90
_cell_angle_beta                 105.2353(16)
_cell_angle_gamma                90
_cell_volume                     1265.03
_exptl_crystal_colour            brown
_exptl_crystal_description       block
_chemical_melting_point          '450-452 K'
_cell_formula_units_Z            4
_exptl_crystal_recrystallization_method ethanol
loop_
_atom_site_label
_atom_site_type_symbol
_atom_site_fract_x
_atom_site_fract_y
_atom_site_fract_z
C1 C 0.7797(2) 0.6833(3) 0.7339(3)
C2 C 0.8261(2) 0.6561(3) 0.6247(3)
C3 C 0.8695(4) 0.7603(3) 0.5672(6)
C4 C 0.8706(2) 0.8902(3) 0.6162(3)
C5 C 0.8241(2) 0.9169(3) 0.7266(3)
C6 C 0.7794(2) 0.8146(3) 0.7857(3)
C7 C 0.72916(19) 0.5797(3) 0.8039(3)
O1 O 0.71903(16) 0.5977(2) 0.92908(19)
N1 N 0.69589(15) 0.4705(2) 0.7215(2)
C8 C 0.6521(2) 0.3559(3) 0.7658(3)
C9 C 0.6025(2) 0.3578(3) 0.8765(3)
C10 C 0.5646(3) 0.2390(2) 0.9152(4)
C11 C 0.5712(2) 0.1206(3) 0.8434(3)
C12 C 0.6176(2) 0.1212(3) 0.7283(4)
C13 C 0.6584(4) 0.2369(3) 0.6902(6)
N2 N 0.9173(3) 0.7305(2) 0.4484(4)
O2 O 0.91357(17) 0.6161(2) 0.4020(2)
O3 O 0.95718(19) 0.8224(2) 0.3990(3)
I1 I 0.50081(5) 0.240359(12) 1.09460(7)
H1 H 0.8284 0.5679 0.5895
H2 H 0.9022 0.9588 0.5754
H3 H 0.8228 1.0052 0.7620
H4 H 0.7483 0.8335 0.8621
H5 H 0.7088 0.4646 0.6351
H6 H 0.5946 0.4386 0.9246
H7 H 0.5449 0.0406 0.8717
H8 H 0.6211 0.0414 0.6758
H9 H 0.6907 0.2361 0.6128
loop_
_geom_bond_atom_site_label_1
_geom_bond_atom_site_label_2
_geom_bond_site_symmetry_1
_geom_bond_site_symmetry_2
C1 C2 1_555 1_555
C2 C3 1_555 1_555
C3 C4 1_555 1_555
C4 C5 1_555 1_555
C5 C6 1_555 1_555
C6 C1 1_555 1_555
C7 C1 1_555 1_555
O1 C7 1_555 1_555
N1 C7 1_555 1_555
C8 N1 1_555 1_555
C9 C8 1_555 1_555
C10 C9 1_555 1_555
C11 C10 1_555 1_555
C12 C11 1_555 1_555
C13 C8 1_555 1_555
N2 C3 1_555 1_555
O2 N2 1_555 1_555
O3 N2 1_555 1_555
I1 C10 1_555 1_555
H1 C2 1_555 1_555
H2 C4 1_555 1_555
H3 C5 1_555 1_555
H4 C6 1_555 1_555
H5 N1 1_555 1_555
H6 C9 1_555 1_555
H7 C11 1_555 1_555
H8 C12 1_555 1_555
H9 C13 1_555 1_555
C12 C13 1_555 1_555

#END
