
#######################################################################
#
#                 Cambridge Crystallographic Data Centre
#                                CCDC 
#
#######################################################################
#
# If this CIF has been generated from an entry in the Cambridge 
# Structural Database, then it will include bibliographic, chemical, 
# crystal, experimental, refinement or atomic coordinate data resulting 
# from the CCDC's data processing and validation procedures.
#
#######################################################################

data_LEPPUT
_chemical_formula_moiety         'C21 H30 O6'
_chemical_name_systematic        
'6a-Hydroxy-10a,12a-dimethyl-3,6-dioxohexadecahydro-1H-naphtho[2,1-f]isochromen-8-yl acetate'
_symmetry_cell_setting           orthorhombic
_symmetry_space_group_name_H-M   'P 21 21 21'
_symmetry_Int_Tables_number      19
_space_group_name_Hall           'P 2ac 2ab'
loop_
_symmetry_equiv_pos_site_id
_symmetry_equiv_pos_as_xyz
1 x,y,z
2 1/2-x,-y,1/2+z
3 1/2+x,1/2-y,-z
4 -x,1/2+y,1/2-z
_cell_length_a                   7.029(5)
_cell_length_b                   9.637(5)
_cell_length_c                   29.392(5)
_cell_angle_alpha                90
_cell_angle_beta                 90
_cell_angle_gamma                90
_cell_volume                     1990.97
_cell_formula_units_Z            4
loop_
_atom_site_label
_atom_site_type_symbol
_atom_site_fract_x
_atom_site_fract_y
_atom_site_fract_z
O1 O 0.6653(3) 0.2883(2) 0.62289(8)
O2 O 0.4088(3) 0.1008(2) 0.69692(7)
O3 O 0.5862(3) -0.0722(2) 0.54052(8)
O4 O 0.1207(3) 0.7410(2) 0.79828(8)
O5 O 0.1053(4) 0.8293(2) 0.73052(9)
C1 C 0.4915(4) 0.2106(3) 0.62624(10)
C2 C 0.2665(4) 0.4382(3) 0.66913(10)
C3 C 0.2542(4) 0.5841(3) 0.68881(10)
C4 C 0.3396(4) 0.2907(3) 0.59851(10)
C5 C 0.3253(4) 0.4396(3) 0.61853(10)
C6 C 0.5811(5) 0.0689(3) 0.55786(12)
C7 C 0.4311(4) 0.2074(3) 0.67627(10)
C8 C 0.1970(5) 0.5854(3) 0.73846(11)
C9 C 0.5246(5) 0.0646(3) 0.60730(12)
C10 C 0.1412(4) 0.7236(4) 0.75774(13)
C11 C 0.1990(5) 0.5382(3) 0.59115(11)
H1 H 0.2474 0.5450 0.5603
H2 H 0.0711 0.5007 0.5897
O6 O 0.8921(4) -0.0904(3) 0.55509(13)
C12 C 0.7479(6) -0.1417(4) 0.54262(12)
C13 C 0.1457(5) 0.2168(4) 0.60204(13)
C14 C 0.4009(5) 0.3477(3) 0.69736(11)
C15 C 0.1220(5) 0.6793(3) 0.66153(11)
C16 C 0.4048(5) 0.2934(4) 0.54873(11)
C17 C 0.1923(5) 0.6825(3) 0.61230(11)
H3 H 0.1086 0.7410 0.5944
H4 H 0.3186 0.7230 0.6114
C18 C 0.4411(5) 0.1492(4) 0.52908(12)
C19 C 0.1467(6) 0.8230(3) 0.68184(12)
H5 H 0.2766 0.8534 0.6768
H6 H 0.0633 0.8871 0.6660
C20 C -0.0880(5) 0.6374(4) 0.66461(12)
H7 H -0.1625 0.6970 0.6455
H8 H -0.1305 0.6460 0.6955
H9 H -0.1024 0.5430 0.6548
C21 C 0.7263(6) -0.2897(4) 0.52855(12)
H10 H 0.8493 -0.3328 0.5273
H11 H 0.6677 -0.2938 0.4991
H12 H 0.6481 -0.3375 0.5502
H13 H 0.390(4) 0.624(3) 0.6873(9)
H14 H 0.449(4) 0.476(2) 0.6175(9)
H15 H 0.304(4) 0.555(3) 0.7570(10)
H16 H 0.140(3) 0.399(2) 0.6706(8)
H17 H 0.493(4) 0.154(3) 0.4968(10)
H18 H 0.096(4) 0.528(3) 0.7443(11)
H19 H 0.744(5) 0.267(4) 0.6454(12)
H20 H 0.514(4) 0.343(3) 0.5464(11)
H21 H 0.322(4) 0.095(3) 0.5301(10)
H22 H 0.308(4) 0.339(3) 0.5299(10)
H23 H 0.624(4) 0.025(3) 0.6258(9)
H24 H 0.411(4) 0.005(3) 0.6104(9)
H25 H 0.710(4) 0.109(3) 0.5548(9)
H26 H 0.534(5) 0.393(3) 0.6988(10)
H27 H 0.360(3) 0.338(2) 0.7270(9)
H28 H 0.037(4) 0.271(3) 0.5896(10)
H29 H 0.119(4) 0.201(3) 0.6320(10)
H30 H 0.149(4) 0.128(3) 0.5852(10)
loop_
_geom_bond_atom_site_label_1
_geom_bond_atom_site_label_2
_geom_bond_site_symmetry_1
_geom_bond_site_symmetry_2
O1 C1 1_555 1_555
O2 C7 1_555 1_555
O3 C6 1_555 1_555
O4 C10 1_555 1_555
O5 C10 1_555 1_555
C1 C4 1_555 1_555
C2 C3 1_555 1_555
C3 C8 1_555 1_555
C4 C5 1_555 1_555
C5 C2 1_555 1_555
C6 C9 1_555 1_555
C7 C1 1_555 1_555
C8 C10 1_555 1_555
C9 C1 1_555 1_555
C11 C5 1_555 1_555
H1 C11 1_555 1_555
H2 C11 1_555 1_555
O6 C12 1_555 1_555
C12 O3 1_555 1_555
C13 C4 1_555 1_555
C14 C2 1_555 1_555
C15 C3 1_555 1_555
C16 C4 1_555 1_555
C17 C11 1_555 1_555
H3 C17 1_555 1_555
H4 C17 1_555 1_555
C18 C6 1_555 1_555
C19 O5 1_555 1_555
H5 C19 1_555 1_555
H6 C19 1_555 1_555
C20 C15 1_555 1_555
H7 C20 1_555 1_555
H8 C20 1_555 1_555
H9 C20 1_555 1_555
C21 C12 1_555 1_555
H10 C21 1_555 1_555
H11 C21 1_555 1_555
H12 C21 1_555 1_555
H13 C3 1_555 1_555
H14 C5 1_555 1_555
H15 C8 1_555 1_555
H16 C2 1_555 1_555
H17 C18 1_555 1_555
H18 C8 1_555 1_555
H19 O1 1_555 1_555
H20 C16 1_555 1_555
H21 C18 1_555 1_555
H22 C16 1_555 1_555
H23 C9 1_555 1_555
H24 C9 1_555 1_555
H25 C6 1_555 1_555
H26 C14 1_555 1_555
H27 C14 1_555 1_555
H28 C13 1_555 1_555
H29 C13 1_555 1_555
H30 C13 1_555 1_555
C7 C14 1_555 1_555
C15 C17 1_555 1_555
C15 C19 1_555 1_555
C16 C18 1_555 1_555

#END
