
#######################################################################
#
#                 Cambridge Crystallographic Data Centre
#                                CCDC 
#
#######################################################################
#
# If this CIF has been generated from an entry in the Cambridge 
# Structural Database, then it will include bibliographic, chemical, 
# crystal, experimental, refinement or atomic coordinate data resulting 
# from the CCDC's data processing and validation procedures.
#
#######################################################################

data_LEPZOX
_chemical_formula_moiety         'C18 H16 N2 O2 2+,2(Cl1 O4 1-),2(H2 O1)'
_chemical_name_systematic        
"N-(3-Carboxybenzyl)-4,4'-bipyridinium diperchlorate dihydrate"
_symmetry_cell_setting           triclinic
_symmetry_space_group_name_H-M   'P -1'
_symmetry_Int_Tables_number      2
_space_group_name_Hall           '-P 1'
loop_
_symmetry_equiv_pos_site_id
_symmetry_equiv_pos_as_xyz
1 x,y,z
2 -x,-y,-z
_cell_length_a                   7.1914(4)
_cell_length_b                   7.9109(4)
_cell_length_c                   20.1775(11)
_cell_angle_alpha                96.509(7)
_cell_angle_beta                 93.700(14)
_cell_angle_gamma                93.897(10)
_cell_volume                     1134.85
_exptl_crystal_colour            colorless
_exptl_crystal_description       plate
_cell_formula_units_Z            2
loop_
_atom_site_label
_atom_site_type_symbol
_atom_site_fract_x
_atom_site_fract_y
_atom_site_fract_z
O1 O 0.1750(4) 0.1669(4) 0.01060(16)
O2 O 0.1235(5) 0.2652(4) -0.08725(15)
H1 H 0.0793 0.1671 -0.0984
N1 N 0.3089(5) 0.7006(5) 0.21644(16)
N2 N -0.4654(6) 0.7529(7) 0.40592(19)
H2 H -0.5656 0.7577 0.4269
C1 C 0.1793(5) 0.2843(5) -0.0228(2)
C2 C 0.2454(5) 0.4619(5) 0.0040(2)
C3 C 0.2387(6) 0.5961(5) -0.0345(2)
H3 H 0.1915 0.5766 -0.0789
C4 C 0.3024(6) 0.7591(5) -0.0066(2)
H4 H 0.2969 0.8493 -0.0323
C5 C 0.3736(6) 0.7888(5) 0.0589(2)
H5 H 0.4163 0.8989 0.0772
C6 C 0.3822(5) 0.6552(5) 0.0978(2)
C7 C 0.3186(5) 0.4927(5) 0.0698(2)
H6 H 0.3249 0.4025 0.0955
C8 C 0.4619(6) 0.6861(7) 0.1694(2)
H7 H 0.5360 0.5928 0.1791
H8 H 0.5434 0.7904 0.1759
C9 C 0.2301(7) 0.8470(6) 0.2274(2)
H9 H 0.2761 0.9413 0.2082
C10 C 0.0822(7) 0.8616(6) 0.2665(2)
H10 H 0.0285 0.9653 0.2732
C11 C 0.0120(5) 0.7245(5) 0.29596(18)
C12 C 0.0999(7) 0.5754(6) 0.2844(2)
H11 H 0.0587 0.4798 0.3039
C13 C 0.2465(7) 0.5663(6) 0.2448(3)
H12 H 0.3036 0.4645 0.2376
C14 C -0.1532(6) 0.7355(5) 0.33672(18)
C15 C -0.2328(7) 0.8874(6) 0.3513(3)
H13 H -0.1795 0.9868 0.3375
C16 C -0.3904(8) 0.8925(8) 0.3860(3)
H14 H -0.4442 0.9953 0.3955
C17 C -0.3912(8) 0.6059(8) 0.3946(3)
H15 H -0.4459 0.5095 0.4101
C18 C -0.2340(7) 0.5938(6) 0.3600(3)
H16 H -0.1819 0.4895 0.3524
Cl1 Cl 0.64270(17) 0.21363(15) 0.21947(6)
O3 O 0.7660(10) 0.3357(10) 0.2025(3)
O4 O 0.6077(13) 0.2391(9) 0.2861(3)
O5 O 0.4710(8) 0.2107(8) 0.1813(4)
O6 O 0.7032(10) 0.0505(7) 0.2068(4)
Cl2 Cl 0.18658(19) 0.24405(18) 0.42654(7)
O7 O 0.3819(7) 0.2651(13) 0.4384(4)
O8 O 0.1486(16) 0.2289(12) 0.3585(3)
O9 O 0.1361(17) 0.0862(13) 0.4484(6)
O10 O 0.1043(19) 0.3707(16) 0.4600(5)
O11 O 0.0374(5) 0.0484(4) 0.12376(18)
H17 H 0.077(7) 0.089(6) 0.0908(19)
H18 H -0.039(7) 0.105(6) 0.143(2)
O12 O 0.2164(9) 0.7639(12) 0.4657(4)
H19 H 0.154(15) 0.840(10) 0.481(6)
H20 H 0.204(19) 0.673(8) 0.481(7)
O13? O 0.244(3) 0.4156(12) 0.4516(6)
O14? O 0.525(3) 0.166(3) 0.2661(9)
O15? O 0.634(3) 0.3857(11) 0.2140(11)
O16? O 0.604(3) 0.118(2) 0.1592(6)
O17? O 0.8267(15) 0.193(2) 0.2431(11)
O18? O 0.327(3) 0.169(2) 0.3979(11)
O19? O 0.034(2) 0.250(2) 0.3813(9)
O20? O 0.124(2) 0.1653(15) 0.4798(6)
loop_
_geom_bond_atom_site_label_1
_geom_bond_atom_site_label_2
_geom_bond_site_symmetry_1
_geom_bond_site_symmetry_2
O1 C1 1_555 1_555
O2 H1 1_555 1_555
N1 C8 1_555 1_555
N2 H2 1_555 1_555
C1 O2 1_555 1_555
C2 C1 1_555 1_555
C3 C2 1_555 1_555
H3 C3 1_555 1_555
C4 C3 1_555 1_555
H4 C4 1_555 1_555
C5 C4 1_555 1_555
H5 C5 1_555 1_555
C6 C5 1_555 1_555
C7 C2 1_555 1_555
H6 C7 1_555 1_555
C8 C6 1_555 1_555
H7 C8 1_555 1_555
H8 C8 1_555 1_555
C9 N1 1_555 1_555
H9 C9 1_555 1_555
C10 C9 1_555 1_555
H10 C10 1_555 1_555
C11 C10 1_555 1_555
C12 C11 1_555 1_555
H11 C12 1_555 1_555
C13 N1 1_555 1_555
H12 C13 1_555 1_555
C14 C11 1_555 1_555
C15 C14 1_555 1_555
H13 C15 1_555 1_555
C16 N2 1_555 1_555
H14 C16 1_555 1_555
C17 N2 1_555 1_555
H15 C17 1_555 1_555
C18 C14 1_555 1_555
H16 C18 1_555 1_555
Cl1 O3 1_555 1_555
O4 Cl1 1_555 1_555
O5 Cl1 1_555 1_555
O6 Cl1 1_555 1_555
Cl2 O7 1_555 1_555
O8 Cl2 1_555 1_555
O9 Cl2 1_555 1_555
O10 Cl2 1_555 1_555
O11 H17 1_555 1_555
H18 O11 1_555 1_555
O12 H19 1_555 1_555
H20 O12 1_555 1_555
C6 C7 1_555 1_555
C12 C13 1_555 1_555
C15 C16 1_555 1_555
C17 C18 1_555 1_555

#END
