
#######################################################################
#
#                 Cambridge Crystallographic Data Centre
#                                CCDC 
#
#######################################################################
#
# If this CIF has been generated from an entry in the Cambridge 
# Structural Database, then it will include bibliographic, chemical, 
# crystal, experimental, refinement or atomic coordinate data resulting 
# from the CCDC's data processing and validation procedures.
#
#######################################################################

data_LEQNAX
_chemical_compound_source        'seeds of Xylocarpus granatum'
_chemical_formula_moiety         'C34 H42 O12,C4 H8 O2'
_chemical_name_systematic        'Xylogranatin A ethyl acetate solvate'
_chemical_properties_biological  
'moderate cytotoxicity against tumour cell lines P-388 and A549'
_symmetry_cell_setting           hexagonal
_symmetry_space_group_name_H-M   'P 65'
_symmetry_Int_Tables_number      170
_space_group_name_Hall           'P 65'
loop_
_symmetry_equiv_pos_site_id
_symmetry_equiv_pos_as_xyz
1 x,y,z
2 -y,x-y,2/3+z
3 -x+y,-x,1/3+z
4 -x,-y,1/2+z
5 y,-x+y,1/6+z
6 x-y,x,5/6+z
_cell_length_a                   23.446(16)
_cell_length_b                   23.446(16)
_cell_length_c                   14.036(14)
_cell_angle_alpha                90
_cell_angle_beta                 90
_cell_angle_gamma                120
_cell_volume                     6682.08
_exptl_crystal_colour            colorless
_exptl_crystal_description       prismatic
_chemical_melting_point          177-178deg.C
_cell_formula_units_Z            6
loop_
_atom_site_label
_atom_site_type_symbol
_atom_site_fract_x
_atom_site_fract_y
_atom_site_fract_z
O1 O 0.48783(13) 0.29235(13) 0.1660(2)
O2 O 0.48545(15) 0.41088(14) 0.3896(2)
O3 O 0.50138(19) 0.50912(18) 0.4353(3)
O4 O 0.5778(4) 0.3075(3) 0.5785(4)
O5 O 0.6360(2) 0.2696(2) 0.5097(4)
O6 O 0.47910(14) 0.37906(14) 0.0347(2)
O7 O 0.37730(14) 0.25162(13) 0.1971(2)
O8 O 0.23952(17) 0.37563(18) 0.0738(3)
O9 O 0.24497(16) 0.30648(18) -0.0248(3)
O10 O 0.1950(5) 0.1904(5) -0.2699(8)
O11 O 0.46315(14) 0.45629(13) 0.1728(2)
O12 O 0.39093(19) 0.45265(18) 0.2815(3)
C1 C 0.51327(19) 0.33401(19) 0.2441(3)
C2 C 0.5160(2) 0.3990(2) 0.2324(3)
H1 H 0.5486 0.4233 0.1827
C3 C 0.5398(2) 0.4397(2) 0.3219(3)
H2 H 0.5514 0.4852 0.3080
C4 C 0.6001(2) 0.4389(2) 0.3669(3)
C5 C 0.5751(2) 0.3661(2) 0.3982(3)
H3 H 0.5446 0.3565 0.4515
C6 C 0.6329(2) 0.3570(2) 0.4355(4)
H4 H 0.6491 0.3415 0.3838
H5 H 0.6687 0.3992 0.4565
C7 C 0.6117(3) 0.3092(3) 0.5159(5)
C8 C 0.42928(19) 0.34795(19) 0.1050(3)
C9 C 0.4275(2) 0.28294(19) 0.1284(3)
C10 C 0.5371(2) 0.31691(19) 0.3195(3)
C11 C 0.4153(2) 0.2428(2) 0.0385(3)
H6 H 0.4157 0.2025 0.0534
H7 H 0.4504 0.2676 -0.0069
C12 C 0.3489(2) 0.2256(2) -0.0061(4)
H8 H 0.3140 0.1943 0.0350
H9 H 0.3448 0.2040 -0.0667
C13 C 0.3387(2) 0.2846(2) -0.0225(3)
C14 C 0.3626(2) 0.33031(19) 0.0647(3)
C15 C 0.3254(2) 0.3531(2) 0.0993(3)
H10 H 0.3376 0.3754 0.1571
C16 C 0.2666(2) 0.3454(2) 0.0522(4)
C17 C 0.2639(3) 0.2550(3) -0.0306(4)
C18 C 0.3733(3) 0.3220(3) -0.1135(4)
H11 H 0.3616 0.3551 -0.1261
H12 H 0.3598 0.2918 -0.1660
H13 H 0.4201 0.3426 -0.1053
C19 C 0.5256(2) 0.2483(2) 0.3294(4)
H14 H 0.4943 0.2204 0.2823
H15 H 0.5086 0.2318 0.3919
H16 H 0.5663 0.2487 0.3205
C20 C 0.2327(3) 0.2195(3) -0.1190(6)
C21 C 0.2232(4) 0.2439(5) -0.2081(6)
H17 H 0.2339 0.2870 -0.2217
C22 C 0.2076(6) 0.1515(7) -0.1346(11)
H18 H 0.2068 0.1218 -0.0901
C23 C 0.1849(5) 0.1369(5) -0.2254(7)
H19 H 0.1651 0.0951 -0.2522
C24 C 0.6542(2) 0.4620(2) 0.2917(4)
H20 H 0.6609 0.5022 0.2635
H21 H 0.6413 0.4289 0.2432
H22 H 0.6943 0.4695 0.3210
C25 C 0.6252(3) 0.4854(3) 0.4525(4)
H23 H 0.6645 0.4877 0.4767
H24 H 0.5921 0.4693 0.5013
H25 H 0.6347 0.5286 0.4331
C26 C 0.44962(19) 0.39013(18) 0.1970(3)
H26 H 0.4155 0.3701 0.2462
C27 C 0.6137(5) 0.2178(4) 0.5841(7)
H27 H 0.6173 0.2373 0.6457
H28 H 0.6407 0.1977 0.5823
H29 H 0.5686 0.1850 0.5726
C32 C 0.4703(3) 0.4501(2) 0.4411(3)
C33 C 0.4128(3) 0.4118(3) 0.5018(4)
C34 C 0.3882(4) 0.3496(4) 0.5138(6)
H38 H 0.4022 0.3281 0.4726
C35 C 0.3384(8) 0.3082(8) 0.5889(10)
H39 H 0.3178 0.3316 0.6136
H40 H 0.3603 0.2993 0.6397
H41 H 0.3056 0.2675 0.5611
C36 C 0.3856(4) 0.4494(4) 0.5465(7)
H42 H 0.3648 0.4622 0.4990
H43 H 0.4205 0.4881 0.5763
H44 H 0.3538 0.4227 0.5937
C37 C 0.4348(3) 0.4836(2) 0.2254(4)
C38 C 0.4644(3) 0.5549(2) 0.2060(5)
H45 H 0.4302 0.5657 0.1996
H46 H 0.4895 0.5656 0.1481
H47 H 0.4929 0.5795 0.2578
H48 H 0.479(2) 0.4142(14) 0.024(3)
H49 H 0.3697(17) 0.2144(11) 0.212(2)
H50 H 0.2403(19) 0.2265(18) 0.023(2)
O13 O 0.3636(8) 0.1536(9) 0.7651(12)
O14 O 0.3983(7) 0.1909(7) 0.6119(10)
C28 C 0.4647(7) 0.2498(7) 0.7480(10)
H30 H 0.4622 0.2876 0.7686
H31 H 0.4967 0.2625 0.6980
H32 H 0.4775 0.2325 0.8007
C29 C 0.3979(9) 0.1975(9) 0.7114(13)
C30 C 0.3356(10) 0.1415(12) 0.5839(15)
H33 H 0.3057 0.1587 0.5781
H34 H 0.3175 0.1055 0.6293
C31 C 0.3467(11) 0.1200(11) 0.4914(15)
H35 H 0.3722 0.1577 0.4517
H36 H 0.3051 0.0917 0.4614
H37 H 0.3700 0.0964 0.5003
loop_
_geom_bond_atom_site_label_1
_geom_bond_atom_site_label_2
_geom_bond_site_symmetry_1
_geom_bond_site_symmetry_2
O1 C1 1_555 1_555
O2 C3 1_555 1_555
O3 C32 1_555 1_555
O4 C7 1_555 1_555
O5 C7 1_555 1_555
O6 C8 1_555 1_555
O7 C9 1_555 1_555
O8 C16 1_555 1_555
O9 C16 1_555 1_555
O10 C21 1_555 1_555
O11 C26 1_555 1_555
O12 C37 1_555 1_555
O13 C29 1_555 1_555
O14 C29 1_555 1_555
C1 C2 1_555 1_555
C2 H1 1_555 1_555
C3 C2 1_555 1_555
H2 C3 1_555 1_555
C4 C3 1_555 1_555
C5 C4 1_555 1_555
H3 C5 1_555 1_555
C6 C5 1_555 1_555
H4 C6 1_555 1_555
H5 C6 1_555 1_555
C7 C6 1_555 1_555
C8 C9 1_555 1_555
C9 O1 1_555 1_555
C10 C1 1_555 1_555
C11 C9 1_555 1_555
H6 C11 1_555 1_555
H7 C11 1_555 1_555
C12 C11 1_555 1_555
H8 C12 1_555 1_555
H9 C12 1_555 1_555
C13 C12 1_555 1_555
C14 C8 1_555 1_555
C15 C14 1_555 1_555
H10 C15 1_555 1_555
C16 C15 1_555 1_555
C17 O9 1_555 1_555
C18 C13 1_555 1_555
H11 C18 1_555 1_555
H12 C18 1_555 1_555
H13 C18 1_555 1_555
C19 C10 1_555 1_555
H14 C19 1_555 1_555
H15 C19 1_555 1_555
H16 C19 1_555 1_555
C20 C17 1_555 1_555
C21 C20 1_555 1_555
H17 C21 1_555 1_555
C22 C20 1_555 1_555
H18 C22 1_555 1_555
C23 O10 1_555 1_555
H19 C23 1_555 1_555
C24 C4 1_555 1_555
H20 C24 1_555 1_555
H21 C24 1_555 1_555
H22 C24 1_555 1_555
C25 C4 1_555 1_555
H23 C25 1_555 1_555
H24 C25 1_555 1_555
H25 C25 1_555 1_555
C26 C2 1_555 1_555
H26 C26 1_555 1_555
C27 O5 1_555 1_555
H27 C27 1_555 1_555
H28 C27 1_555 1_555
H29 C27 1_555 1_555
C28 H30 1_555 1_555
H31 C28 1_555 1_555
H32 C28 1_555 1_555
C29 C28 1_555 1_555
C30 O14 1_555 1_555
H33 C30 1_555 1_555
H34 C30 1_555 1_555
C31 C30 1_555 1_555
H35 C31 1_555 1_555
H36 C31 1_555 1_555
H37 C31 1_555 1_555
C32 O2 1_555 1_555
C33 C32 1_555 1_555
C34 C33 1_555 1_555
H38 C34 1_555 1_555
C35 C34 1_555 1_555
H39 C35 1_555 1_555
H40 C35 1_555 1_555
H41 C35 1_555 1_555
C36 C33 1_555 1_555
H42 C36 1_555 1_555
H43 C36 1_555 1_555
H44 C36 1_555 1_555
C37 O11 1_555 1_555
C38 C37 1_555 1_555
H45 C38 1_555 1_555
H46 C38 1_555 1_555
H47 C38 1_555 1_555
H48 O6 1_555 1_555
H49 O7 1_555 1_555
H50 C17 1_555 1_555
C5 C10 1_555 1_555
C8 C26 1_555 1_555
C13 C14 1_555 1_555
C13 C17 1_555 1_555
C22 C23 1_555 1_555

#END
