
#######################################################################
#
#                 Cambridge Crystallographic Data Centre
#                                CCDC 
#
#######################################################################
#
# If this CIF has been generated from an entry in the Cambridge 
# Structural Database, then it will include bibliographic, chemical, 
# crystal, experimental, refinement or atomic coordinate data resulting 
# from the CCDC's data processing and validation procedures.
#
#######################################################################

data_LEQXIP
_chemical_formula_moiety         'C48 H62 Br2 N2 O10,0.25(C6 H6)'
_chemical_name_systematic        
'5,17-Dibromo-11,23-bis(t-butylnitroxide)-25,26,27,28-tetrakis(2-methoxyethoxy)calix(4)arene benzene solvate'
_symmetry_cell_setting           triclinic
_symmetry_space_group_name_H-M   'P -1'
_symmetry_Int_Tables_number      2
_space_group_name_Hall           '-P 1'
loop_
_symmetry_equiv_pos_site_id
_symmetry_equiv_pos_as_xyz
1 x,y,z
2 -x,-y,-z
_cell_length_a                   14.698(5)
_cell_length_b                   19.752(6)
_cell_length_c                   20.370(7)
_cell_angle_alpha                96.911(9)
_cell_angle_beta                 110.227(9)
_cell_angle_gamma                111.428(9)
_cell_volume                     4955.26
_exptl_crystal_colour            red
_exptl_crystal_description       block
_chemical_melting_point          151-153deg.C(dec)
_cell_formula_units_Z            4
_exptl_crystal_preparation       antiferromagnetic
loop_
_atom_site_label
_atom_site_type_symbol
_atom_site_fract_x
_atom_site_fract_y
_atom_site_fract_z
Br1 Br 0.50911(3) 0.59601(2) 0.02720(2)
Br2 Br 0.74656(3) 0.81785(2) 0.122973(19)
O1 O 0.47561(19) 0.77940(15) 0.51632(12)
O2 O 0.61923(15) 0.68425(11) 0.28572(10)
O3 O 0.23638(15) 0.60212(11) 0.18775(11)
O4 O 0.00904(17) 0.55704(13) 0.14213(14)
O5 O 0.24345(19) 0.87517(15) 0.30955(12)
O6 O 0.37752(14) 0.77775(11) 0.06879(10)
O7 O 0.32078(17) 0.69815(12) -0.08369(11)
O8 O 0.56114(15) 0.90529(11) 0.32082(10)
O9 O 0.67173(18) 0.97656(12) 0.47793(11)
N1 N 0.4096(2) 0.74279(16) 0.44953(14)
N2 N 0.1804(2) 0.83460(16) 0.24305(13)
C1 C 0.6042(2) 0.77252(16) 0.36909(14)
C2 C 0.5486(2) 0.78506(17) 0.40804(15)
H1 H 0.5749 0.8341 0.4394
C3 C 0.4556(2) 0.72720(18) 0.40193(15)
C4 C 0.4133(2) 0.65600(17) 0.35348(15)
H2 H 0.3477 0.6169 0.3482
C5 C 0.4664(2) 0.64205(16) 0.31291(15)
C6 C 0.5641(2) 0.69963(17) 0.32343(15)
C7 C 0.4174(2) 0.56681(16) 0.25570(15)
H3 H 0.3543 0.5301 0.2603
H4 H 0.4710 0.5460 0.2635
C8 C 0.3826(2) 0.57783(15) 0.17955(15)
C9 C 0.4426(2) 0.57484(16) 0.14147(15)
H5 H 0.4988 0.5598 0.1595
C10 C 0.4203(2) 0.59398(16) 0.07666(16)
C11 C 0.3395(2) 0.61682(16) 0.04889(16)
H6 H 0.3268 0.6305 0.0046
C12 C 0.2773(2) 0.61961(16) 0.08600(15)
C13 C 0.2974(2) 0.59764(16) 0.15035(15)
C14 C 0.1968(2) 0.65273(16) 0.05997(16)
H7 H 0.1834 0.6549 0.0093
H8 H 0.1276 0.6191 0.0598
C15 C 0.2376(2) 0.73176(16) 0.10835(15)
C16 C 0.1882(2) 0.74591(17) 0.15197(15)
H9 H 0.1255 0.7063 0.1500
C17 C 0.2301(2) 0.81775(17) 0.19844(16)
C18 C 0.3251(2) 0.87448(16) 0.20607(15)
H10 H 0.3555 0.9223 0.2407
C19 C 0.3765(2) 0.86240(15) 0.16384(15)
C20 C 0.3292(2) 0.79186(16) 0.11300(15)
C21 C 0.4847(2) 0.92313(16) 0.17568(15)
H11 H 0.5015 0.9705 0.2101
H12 H 0.4810 0.9337 0.1288
C22 C 0.5739(2) 0.89850(15) 0.20599(15)
C23 C 0.6185(2) 0.87828(16) 0.16164(15)
H13 H 0.5993 0.8853 0.1143
C24 C 0.6907(2) 0.84809(17) 0.18603(15)
C25 C 0.7208(2) 0.83681(16) 0.25442(16)
H14 H 0.7705 0.8157 0.2700
C26 C 0.6776(2) 0.85666(16) 0.29999(15)
C27 C 0.6056(2) 0.88868(15) 0.27564(14)
C28 C 0.7013(2) 0.83883(17) 0.37276(15)
H15 H 0.7636 0.8265 0.3858
H16 H 0.7203 0.8839 0.4111
C29 C 0.2932(3) 0.72546(19) 0.42816(19)
C30 C 0.2316(3) 0.7049(3) 0.3461(2)
H17 H 0.2277 0.6567 0.3234
H18 H 0.2688 0.7448 0.3276
H19 H 0.1586 0.7000 0.3343
C31 C 0.2897(3) 0.7963(2) 0.4632(2)
H20 H 0.3212 0.8377 0.4442
H21 H 0.3308 0.8106 0.5162
H22 H 0.2147 0.7861 0.4519
C32 C 0.2482(3) 0.6609(2) 0.4589(3)
H23 H 0.2550 0.6166 0.4379
H24 H 0.1721 0.6476 0.4466
H25 H 0.2887 0.6768 0.5121
C36 C 0.714(3) 0.6764(14) 0.3315(19)
H33 H 0.7004 0.6523 0.3691
H34 H 0.7768 0.7266 0.3560
C37 C 0.733(2) 0.6277(9) 0.2812(17)
H35 H 0.7336 0.6478 0.2389
H36 H 0.8047 0.6285 0.3069
O11 O 0.6531(5) 0.5536(3) 0.2569(4)
C38 C 0.6624(9) 0.5054(7) 0.2045(6)
H37 H 0.6544 0.5238 0.1612
H38 H 0.6060 0.4537 0.1907
H39 H 0.7333 0.5054 0.2253
C39 C 0.1603(2) 0.52995(18) 0.18566(18)
H40 H 0.1570 0.5332 0.2336
H41 H 0.1857 0.4911 0.1769
C40 C 0.0506(2) 0.50590(18) 0.12793(18)
H42 H 0.0535 0.5038 0.0799
H43 H 0.0024 0.4545 0.1261
C41 C -0.0984(3) 0.5334(2) 0.0916(2)
H44 H -0.1220 0.5725 0.1011
H45 H -0.1452 0.4859 0.0966
H46 H -0.1028 0.5252 0.0420
C42 C 0.0663(3) 0.8254(2) 0.2150(2)
C43 C 0.0154(4) 0.8074(4) 0.1329(2)
H47 H 0.0591 0.8475 0.1177
H48 H -0.0575 0.8042 0.1165
H49 H 0.0116 0.7588 0.1112
C44 C 0.0050(4) 0.7624(3) 0.2403(3)
H50 H 0.0038 0.7149 0.2184
H51 H -0.0690 0.7566 0.2252
H52 H 0.0404 0.7749 0.2935
C45 C 0.0670(4) 0.8980(3) 0.2480(3)
H53 H 0.1032 0.9111 0.3013
H54 H -0.0073 0.8915 0.2333
H55 H 0.1056 0.9388 0.2310
C50 C 0.3504(3) 0.80384(17) 0.00517(15)
H65 H 0.3835 0.8599 0.0193
H66 H 0.2712 0.7848 -0.0202
C51 C 0.3916(3) 0.77503(18) -0.04441(17)
H67 H 0.3974 0.8059 -0.0789
H68 H 0.4643 0.7797 -0.0153
C52 C 0.3572(3) 0.6688(2) -0.13110(19)
H69 H 0.3022 0.6179 -0.1617
H70 H 0.4242 0.6662 -0.1023
H71 H 0.3704 0.7020 -0.1622
C53 C 0.6013(3) 0.98399(17) 0.35722(16)
H72 H 0.5596 1.0068 0.3262
H73 H 0.6779 1.0116 0.3665
C54 C 0.5908(3) 0.99020(19) 0.42727(17)
H74 H 0.5987 1.0415 0.4464
H75 H 0.5187 0.9527 0.4196
C55 C 0.6628(3) 0.9776(2) 0.54532(17)
H76 H 0.7197 0.9674 0.5785
H77 H 0.5922 0.9386 0.5368
H78 H 0.6706 1.0275 0.5672
Br3 Br 1.00783(3) 0.67895(2) 0.47233(2)
Br4 Br 1.29389(3) 0.79950(2) 0.674316(19)
O12 O 0.61542(16) 0.62140(13) 0.77793(12)
O13 O 0.97365(15) 0.60473(11) 0.68890(10)
O14 O 1.15854(18) 0.57658(14) 0.69708(13)
O15 O 0.67929(14) 0.67231(11) 0.58588(10)
O16 O 0.48708(16) 0.54969(14) 0.58061(12)
O17 O 0.82191(19) 0.94405(19) 0.84853(12)
O18 O 1.00770(15) 0.89137(11) 0.62759(10)
O19 O 0.99527(16) 0.90280(12) 0.48072(11)
O20 O 1.06356(14) 0.84121(10) 0.85796(10)
O21 O 1.15882(17) 0.99288(11) 0.95800(11)
N3 N 0.71568(18) 0.64614(13) 0.82040(12)
N4 N 0.7655(2) 0.90367(15) 0.78189(13)
C56 C 0.9606(2) 0.66045(15) 0.79413(15)
C57 C 0.8970(2) 0.67053(15) 0.82727(15)
H79 H 0.9299 0.6986 0.8772
C58 C 0.7848(2) 0.64010(15) 0.78868(15)
C59 C 0.7383(2) 0.60284(15) 0.71429(15)
H80 H 0.6631 0.5854 0.6867
C60 C 0.7998(2) 0.59109(15) 0.68048(15)
C61 C 0.9112(2) 0.61790(15) 0.72152(15)
C62 C 0.7493(2) 0.55639(16) 0.59851(15)
H81 H 0.7689 0.5149 0.5871
H82 H 0.6698 0.5348 0.5794
C63 C 0.7890(2) 0.61654(16) 0.56261(14)
C64 C 0.8630(2) 0.61779(16) 0.53518(15)
H83 H 0.8839 0.5777 0.5335
C65 C 0.9060(2) 0.67820(18) 0.51025(15)
C66 C 0.8811(2) 0.73929(17) 0.51415(14)
H84 H 0.9151 0.7811 0.4986
C67 C 0.8056(2) 0.73890(15) 0.54107(14)
C68 C 0.7581(2) 0.67595(16) 0.56238(14)
C69 C 0.7821(2) 0.80735(16) 0.55032(14)
H85 H 0.8090 0.8400 0.5216
H86 H 0.7032 0.7901 0.5312
C70 C 0.8350(2) 0.85292(15) 0.62966(14)
C71 C 0.7730(2) 0.85501(16) 0.66682(14)
H87 H 0.6967 0.8297 0.6421
C72 C 0.8227(2) 0.89440(16) 0.74114(14)
C73 C 0.9348(2) 0.92567(16) 0.77798(15)
H88 H 0.9683 0.9489 0.8291
C74 C 0.9979(2) 0.92362(15) 0.74184(14)
C75 C 0.9471(2) 0.89058(15) 0.66649(14)
C76 C 1.1187(2) 0.95161(16) 0.78403(15)
H89 H 1.1411 0.9779 0.8354
H90 H 1.1574 0.9883 0.7628
C77 C 1.1481(2) 0.88543(16) 0.78113(14)
C78 C 1.2024(2) 0.87568(16) 0.73980(15)
H91 H 1.2268 0.9127 0.7163
C79 C 1.2210(2) 0.81172(17) 0.73280(15)
C80 C 1.1854(2) 0.75599(16) 0.76414(15)
H92 H 1.1973 0.7121 0.7570
C81 C 1.1316(2) 0.76441(15) 0.80657(14)
C82 C 1.1167(2) 0.83024(15) 0.81639(14)
C83 C 1.0828(2) 0.69925(15) 0.83511(15)
H93 H 1.1032 0.7187 0.8877
H94 H 1.1118 0.6620 0.8294
C84 C 0.7489(2) 0.67842(18) 0.90002(16)
C85 C 0.6468(3) 0.6671(2) 0.9101(2)
H95 H 0.5972 0.6129 0.8927
H96 H 0.6120 0.6948 0.8823
H97 H 0.6654 0.6862 0.9620
C86 C 0.8025(3) 0.6351(2) 0.94461(17)
H98 H 0.7554 0.5806 0.9246
H99 H 0.8148 0.6516 0.9955
H100 H 0.8716 0.6457 0.9422
C87 C 0.8215(3) 0.76370(18) 0.92358(19)
H101 H 0.7823 0.7887 0.8949
H102 H 0.8863 0.7724 0.9154
H103 H 0.8423 0.7845 0.9755
C88 C 0.9838(2) 0.53561(17) 0.69393(18)
H104 H 0.9115 0.4921 0.6716
H105 H 1.0190 0.5378 0.7458
C89 C 1.0496(3) 0.5251(2) 0.65528(19)
H106 H 1.0420 0.4725 0.6480
H107 H 1.0237 0.5339 0.6068
C90 C 1.2239(3) 0.5723(3) 0.6612(3)
H108 H 1.2990 0.6087 0.6920
H109 H 1.1993 0.5843 0.6148
H110 H 1.2189 0.5209 0.6519
C91 C 0.5728(2) 0.63428(18) 0.52578(17)
H111 H 0.5658 0.5881 0.4953
H112 H 0.5621 0.6682 0.4949
C92 C 0.4912(2) 0.61378(19) 0.5552(2)
H113 H 0.5101 0.6568 0.5957
H114 H 0.4198 0.6022 0.5167
C93 C 0.4164(3) 0.5308(3) 0.6154(2)
H115 H 0.4136 0.4852 0.6307
H116 H 0.3440 0.5213 0.5813
H117 H 0.4426 0.5730 0.6582
C94 C 0.6450(2) 0.87339(18) 0.75409(16)
C95 C 0.6212(3) 0.9011(2) 0.81610(18)
H118 H 0.6531 0.9566 0.8304
H119 H 0.6522 0.8839 0.8578
H120 H 0.5431 0.8807 0.8002
C96 C 0.6019(2) 0.90519(19) 0.69120(16)
H121 H 0.6489 0.9594 0.7039
H122 H 0.5287 0.8979 0.6827
H123 H 0.6006 0.8785 0.6468
C97 C 0.5947(3) 0.78637(19) 0.73123(19)
H124 H 0.6166 0.7688 0.6947
H125 H 0.5160 0.7661 0.7104
H126 H 0.6195 0.7687 0.7740
C98 C 1.0359(3) 0.95842(17) 0.60317(17)
H127 H 1.0902 1.0032 0.6451
H128 H 0.9713 0.9670 0.5800
C99 C 1.0807(3) 0.9472(2) 0.54963(17)
H129 H 1.1250 0.9970 0.5459
H130 H 1.1274 0.9215 0.5662
C100 C 1.0333(3) 0.8825(2) 0.42959(19)
H131 H 0.9723 0.8538 0.3820
H132 H 1.0701 0.8511 0.4465
H133 H 1.0839 0.9285 0.4250
C101 C 1.1235(2) 0.86309(16) 0.93589(15)
H134 H 1.2015 0.8820 0.9484
H135 H 1.1012 0.8187 0.9546
C102 C 1.1027(2) 0.92418(16) 0.97040(16)
H136 H 1.0244 0.9101 0.9490
H137 H 1.1274 0.9303 1.0235
C103 C 1.1318(3) 1.05137(18) 0.98084(18)
H138 H 1.1758 1.0987 0.9742
H139 H 1.1458 1.0587 1.0324
H140 H 1.0554 1.0368 0.9516
C104 C 0.4459(3) 0.0317(2) 0.0258(2)
H141 H 0.4088 0.0539 0.0440
C105 C 0.5469(3) 0.04152(19) 0.07110(18)
H142 H 0.5792 0.0705 0.1206
C106 C 0.3990(3) -0.0100(2) -0.0456(2)
H143 H 0.3293 -0.0170 -0.0771
C104A C 0.5541(3) -0.0317(2) -0.0258(2)
H141A H 0.5912 -0.0539 -0.0440
C105A C 0.4531(3) -0.04152(19) -0.07110(18)
H142A H 0.4208 -0.0705 -0.1206
C106A C 0.6010(3) 0.0100(2) 0.0456(2)
H143A H 0.6707 0.0170 0.0771
C33? C 0.701(3) 0.6633(14) 0.324(2)
H26? H 0.6696 0.6195 0.3412
H27? H 0.7573 0.7060 0.3673
C34? C 0.753(2) 0.6429(9) 0.2780(16)
H28? H 0.7665 0.6798 0.2496
H29? H 0.8224 0.6446 0.3095
O10? O 0.6841(5) 0.5700(4) 0.2305(4)
C35? C 0.7246(9) 0.5514(6) 0.1803(5)
H30? H 0.7373 0.5904 0.1547
H31? H 0.6719 0.5022 0.1449
H32? H 0.7924 0.5488 0.2068
C46? C 0.0668(16) 0.8253(18) 0.2103(16)
C47? C -0.011(3) 0.755(2) 0.1488(19)
H56? H -0.0022 0.7616 0.1042
H57? H -0.0849 0.7448 0.1414
H58? H 0.0029 0.7120 0.1608
C48? C 0.039(3) 0.821(2) 0.2744(18)
H59? H 0.0745 0.7944 0.3036
H60? H -0.0390 0.7936 0.2571
H61? H 0.0644 0.8725 0.3043
C49? C 0.077(3) 0.8962(17) 0.188(2)
H62? H 0.1194 0.9401 0.2309
H63? H 0.0049 0.8934 0.1624
H64? H 0.1128 0.9012 0.1547
loop_
_geom_bond_atom_site_label_1
_geom_bond_atom_site_label_2
_geom_bond_site_symmetry_1
_geom_bond_site_symmetry_2
Br1 C10 1_555 1_555
Br2 C24 1_555 1_555
O1 N1 1_555 1_555
O2 C6 1_555 1_555
O3 C13 1_555 1_555
O4 C40 1_555 1_555
O5 N2 1_555 1_555
O6 C20 1_555 1_555
O7 C51 1_555 1_555
O8 C27 1_555 1_555
O9 C54 1_555 1_555
N1 C3 1_555 1_555
N2 C17 1_555 1_555
C1 C2 1_555 1_555
C2 H1 1_555 1_555
C3 C2 1_555 1_555
C4 C3 1_555 1_555
H2 C4 1_555 1_555
C5 C4 1_555 1_555
C6 C1 1_555 1_555
C7 C5 1_555 1_555
H3 C7 1_555 1_555
H4 C7 1_555 1_555
C8 C7 1_555 1_555
C9 C8 1_555 1_555
H5 C9 1_555 1_555
C10 C9 1_555 1_555
C11 C10 1_555 1_555
H6 C11 1_555 1_555
C12 C11 1_555 1_555
C13 C8 1_555 1_555
C14 C12 1_555 1_555
H7 C14 1_555 1_555
H8 C14 1_555 1_555
C15 C14 1_555 1_555
C16 C15 1_555 1_555
H9 C16 1_555 1_555
C17 C16 1_555 1_555
C18 C17 1_555 1_555
H10 C18 1_555 1_555
C19 C18 1_555 1_555
C20 C15 1_555 1_555
C21 C19 1_555 1_555
H11 C21 1_555 1_555
H12 C21 1_555 1_555
C22 C21 1_555 1_555
C23 C22 1_555 1_555
H13 C23 1_555 1_555
C24 C23 1_555 1_555
C25 C24 1_555 1_555
H14 C25 1_555 1_555
C26 C25 1_555 1_555
C27 C22 1_555 1_555
C28 C1 1_555 1_555
H15 C28 1_555 1_555
H16 C28 1_555 1_555
C29 N1 1_555 1_555
C30 C29 1_555 1_555
H17 C30 1_555 1_555
H18 C30 1_555 1_555
H19 C30 1_555 1_555
C31 C29 1_555 1_555
H20 C31 1_555 1_555
H21 C31 1_555 1_555
H22 C31 1_555 1_555
C32 C29 1_555 1_555
H23 C32 1_555 1_555
H24 C32 1_555 1_555
H25 C32 1_555 1_555
C36 O2 1_555 1_555
H33 C36 1_555 1_555
H34 C36 1_555 1_555
C37 C36 1_555 1_555
H35 C37 1_555 1_555
H36 C37 1_555 1_555
O11 C37 1_555 1_555
C38 O11 1_555 1_555
H37 C38 1_555 1_555
H38 C38 1_555 1_555
H39 C38 1_555 1_555
C39 O3 1_555 1_555
H40 C39 1_555 1_555
H41 C39 1_555 1_555
C40 C39 1_555 1_555
H42 C40 1_555 1_555
H43 C40 1_555 1_555
C41 O4 1_555 1_555
H44 C41 1_555 1_555
H45 C41 1_555 1_555
H46 C41 1_555 1_555
C42 N2 1_555 1_555
C43 C42 1_555 1_555
H47 C43 1_555 1_555
H48 C43 1_555 1_555
H49 C43 1_555 1_555
C44 C42 1_555 1_555
H50 C44 1_555 1_555
H51 C44 1_555 1_555
H52 C44 1_555 1_555
C45 C42 1_555 1_555
H53 C45 1_555 1_555
H54 C45 1_555 1_555
H55 C45 1_555 1_555
C50 O6 1_555 1_555
H65 C50 1_555 1_555
H66 C50 1_555 1_555
C51 C50 1_555 1_555
H67 C51 1_555 1_555
H68 C51 1_555 1_555
C52 O7 1_555 1_555
H69 C52 1_555 1_555
H70 C52 1_555 1_555
H71 C52 1_555 1_555
C53 O8 1_555 1_555
H72 C53 1_555 1_555
H73 C53 1_555 1_555
C54 C53 1_555 1_555
H74 C54 1_555 1_555
H75 C54 1_555 1_555
C55 O9 1_555 1_555
H76 C55 1_555 1_555
H77 C55 1_555 1_555
H78 C55 1_555 1_555
Br3 C65 1_555 1_555
Br4 C79 1_555 1_555
O12 N3 1_555 1_555
O13 C61 1_555 1_555
O14 C89 1_555 1_555
O15 C68 1_555 1_555
O16 C92 1_555 1_555
O17 N4 1_555 1_555
O18 C75 1_555 1_555
O19 C99 1_555 1_555
O20 C82 1_555 1_555
O21 C102 1_555 1_555
N3 C58 1_555 1_555
N4 C72 1_555 1_555
C56 C57 1_555 1_555
C57 H79 1_555 1_555
C58 C57 1_555 1_555
C59 C58 1_555 1_555
H80 C59 1_555 1_555
C60 C59 1_555 1_555
C61 C56 1_555 1_555
C62 C60 1_555 1_555
H81 C62 1_555 1_555
H82 C62 1_555 1_555
C63 C62 1_555 1_555
C64 C63 1_555 1_555
H83 C64 1_555 1_555
C65 C64 1_555 1_555
C66 C65 1_555 1_555
H84 C66 1_555 1_555
C67 C66 1_555 1_555
C68 C63 1_555 1_555
C69 C67 1_555 1_555
H85 C69 1_555 1_555
H86 C69 1_555 1_555
C70 C69 1_555 1_555
C71 C70 1_555 1_555
H87 C71 1_555 1_555
C72 C71 1_555 1_555
C73 C72 1_555 1_555
H88 C73 1_555 1_555
C74 C73 1_555 1_555
C75 C70 1_555 1_555
C76 C74 1_555 1_555
H89 C76 1_555 1_555
H90 C76 1_555 1_555
C77 C76 1_555 1_555
C78 C77 1_555 1_555
H91 C78 1_555 1_555
C79 C78 1_555 1_555
C80 C79 1_555 1_555
H92 C80 1_555 1_555
C81 C80 1_555 1_555
C82 C77 1_555 1_555
C83 C56 1_555 1_555
H93 C83 1_555 1_555
H94 C83 1_555 1_555
C84 N3 1_555 1_555
C85 C84 1_555 1_555
H95 C85 1_555 1_555
H96 C85 1_555 1_555
H97 C85 1_555 1_555
C86 C84 1_555 1_555
H98 C86 1_555 1_555
H99 C86 1_555 1_555
H100 C86 1_555 1_555
C87 C84 1_555 1_555
H101 C87 1_555 1_555
H102 C87 1_555 1_555
H103 C87 1_555 1_555
C88 O13 1_555 1_555
H104 C88 1_555 1_555
H105 C88 1_555 1_555
C89 C88 1_555 1_555
H106 C89 1_555 1_555
H107 C89 1_555 1_555
C90 O14 1_555 1_555
H108 C90 1_555 1_555
H109 C90 1_555 1_555
H110 C90 1_555 1_555
C91 O15 1_555 1_555
H111 C91 1_555 1_555
H112 C91 1_555 1_555
C92 C91 1_555 1_555
H113 C92 1_555 1_555
H114 C92 1_555 1_555
C93 O16 1_555 1_555
H115 C93 1_555 1_555
H116 C93 1_555 1_555
H117 C93 1_555 1_555
C94 N4 1_555 1_555
C95 C94 1_555 1_555
H118 C95 1_555 1_555
H119 C95 1_555 1_555
H120 C95 1_555 1_555
C96 C94 1_555 1_555
H121 C96 1_555 1_555
H122 C96 1_555 1_555
H123 C96 1_555 1_555
C97 C94 1_555 1_555
H124 C97 1_555 1_555
H125 C97 1_555 1_555
H126 C97 1_555 1_555
C98 O18 1_555 1_555
H127 C98 1_555 1_555
H128 C98 1_555 1_555
C99 C98 1_555 1_555
H129 C99 1_555 1_555
H130 C99 1_555 1_555
C100 O19 1_555 1_555
H131 C100 1_555 1_555
H132 C100 1_555 1_555
H133 C100 1_555 1_555
C101 O20 1_555 1_555
H134 C101 1_555 1_555
H135 C101 1_555 1_555
C102 C101 1_555 1_555
H136 C102 1_555 1_555
H137 C102 1_555 1_555
C103 O21 1_555 1_555
H138 C103 1_555 1_555
H139 C103 1_555 1_555
H140 C103 1_555 1_555
C104 H141 1_555 1_555
C105 C104 1_555 1_555
H142 C105 1_555 1_555
C106 C104 1_555 1_555
H143 C106 1_555 1_555
C104A H141A 1_555 1_555
C105A C106 1_555 1_555
H142A C105A 1_555 1_555
C106A C105 1_555 1_555
H143A C106A 1_555 1_555
C5 C6 1_555 1_555
C12 C13 1_555 1_555
C19 C20 1_555 1_555
C26 C27 1_555 1_555
C26 C28 1_555 1_555
C60 C61 1_555 1_555
C67 C68 1_555 1_555
C74 C75 1_555 1_555
C81 C82 1_555 1_555
C81 C83 1_555 1_555
C104A C105A 1_555 1_555
C104A C106A 1_555 1_555

#END
