
#######################################################################
#
#                 Cambridge Crystallographic Data Centre
#                                CCDC 
#
#######################################################################
#
# If this CIF has been generated from an entry in the Cambridge 
# Structural Database, then it will include bibliographic, chemical, 
# crystal, experimental, refinement or atomic coordinate data resulting 
# from the CCDC's data processing and validation procedures.
#
#######################################################################

data_LEQYIS
_chemical_formula_moiety         'C15 H16 Cl1 N3 O2'
_chemical_name_systematic        
2-t-butyl-7-chloro-1-(methoxyimino)-1,2-dihydro-3H-imidazo[1,5-a]indol-3-one
_symmetry_cell_setting           orthorhombic
_symmetry_space_group_name_H-M   'P b c m'
_symmetry_Int_Tables_number      57
_space_group_name_Hall           '-P 2c 2b'
loop_
_symmetry_equiv_pos_site_id
_symmetry_equiv_pos_as_xyz
1 x,y,z
2 -x,-y,1/2+z
3 -x,1/2+y,1/2-z
4 x,1/2-y,-z
5 -x,-y,-z
6 x,y,1/2-z
7 x,1/2-y,1/2+z
8 -x,1/2+y,z
_cell_length_a                   9.535(2)
_cell_length_b                   22.449(5)
_cell_length_c                   7.0664(16)
_cell_angle_alpha                90
_cell_angle_beta                 90
_cell_angle_gamma                90
_cell_volume                     1512.57
_exptl_crystal_colour            colorless
_exptl_crystal_description       prismatic
_cell_formula_units_Z            4
loop_
_atom_site_label
_atom_site_type_symbol
_atom_site_fract_x
_atom_site_fract_y
_atom_site_fract_z
Cl1 Cl 0.57443(14) 0.05730(7) 0.2500
N1 N 1.1403(3) 0.32199(13) 0.2500
N2 N 0.9948(3) 0.24503(14) 0.2500
N3 N 0.9746(4) 0.40079(15) 0.2500
O1 O 1.2310(3) 0.22504(12) 0.2500
O2 O 0.8276(4) 0.40699(14) 0.2500
C1 C 1.1363(4) 0.26041(17) 0.2500
C2 C 1.0022(4) 0.34476(17) 0.2500
C3 C 0.9089(4) 0.29460(17) 0.2500
C4 C 0.7748(4) 0.2770(2) 0.2500
H1 H 0.6965 0.3017 0.2500
C5 C 0.7735(4) 0.21343(19) 0.2500
C6 C 0.9132(4) 0.19348(17) 0.2500
C7 C 0.9504(4) 0.13450(18) 0.2500
H2 H 1.0440 0.1228 0.2500
C8 C 0.8440(5) 0.0935(2) 0.2500
H3 H 0.8652 0.0531 0.2500
C9 C 0.7057(5) 0.1115(2) 0.2500
C10 C 0.6681(4) 0.1706(2) 0.2500
H4 H 0.5741 0.1817 0.2500
C11 C 0.7934(6) 0.4685(2) 0.2500
C12 C 1.2692(4) 0.36045(17) 0.2500
C13 C 1.2678(4) 0.39908(15) 0.0725(5)
H5 H 1.2707 0.3740 -0.0376
H6 H 1.3481 0.4249 0.0729
H7 H 1.1838 0.4226 0.0703
C14 C 1.4013(5) 0.3234(2) 0.2500
H8 H 1.4814 0.3491 0.2500
H9 H 1.4072 0.3013 0.1339
C13E C 1.2678(4) 0.39908(15) 0.4275(5)
H5E H 1.2707 0.3740 0.5376
H6E H 1.3481 0.4249 0.4271
H7E H 1.1838 0.4226 0.4297
H9E H 1.4072 0.3013 0.3661
H10? H 0.8078 0.4846 0.3743
H11? H 0.6969 0.4734 0.2144
H12? H 0.8523 0.4890 0.1612
H13? H 1.3993 0.2962 0.3549
loop_
_geom_bond_atom_site_label_1
_geom_bond_atom_site_label_2
_geom_bond_site_symmetry_1
_geom_bond_site_symmetry_2
Cl1 C9 1_555 1_555
N1 C1 1_555 1_555
N2 C1 1_555 1_555
N3 O2 1_555 1_555
O1 C1 1_555 1_555
O2 C11 1_555 1_555
C2 N1 1_555 1_555
C3 N2 1_555 1_555
C4 C3 1_555 1_555
H1 C4 1_555 1_555
C5 C4 1_555 1_555
C6 N2 1_555 1_555
C7 C6 1_555 1_555
H2 C7 1_555 1_555
C8 C7 1_555 1_555
H3 C8 1_555 1_555
C9 C8 1_555 1_555
C10 C5 1_555 1_555
H4 C10 1_555 1_555
C12 N1 1_555 1_555
C13 C12 1_555 1_555
H5 C13 1_555 1_555
H6 C13 1_555 1_555
H7 C13 1_555 1_555
C14 C12 1_555 1_555
H8 C14 1_555 1_555
H9 C14 1_555 1_555
C13E C12 1_555 1_555
H5E C13E 1_555 1_555
H6E C13E 1_555 1_555
H7E C13E 1_555 1_555
H9E C14 1_555 1_555
N3 C2 1_555 1_555
C2 C3 1_555 1_555
C5 C6 1_555 1_555
C9 C10 1_555 1_555

#END
