
#######################################################################
#
#                 Cambridge Crystallographic Data Centre
#                                CCDC 
#
#######################################################################
#
# If this CIF has been generated from an entry in the Cambridge 
# Structural Database, then it will include bibliographic, chemical, 
# crystal, experimental, refinement or atomic coordinate data resulting 
# from the CCDC's data processing and validation procedures.
#
#######################################################################

data_LERQOR
_chemical_name_common            'LB30870 heptahydrate form Ib'
_chemical_formula_moiety         'C28 H31 N5 O4 S1,7(H2 O1)'
_chemical_name_systematic        
'2-(((1R)-2-((2S)-2-((((5-(amino(iminio)methyl)-2-thienyl)methyl)amino)carbonyl)pyrrolidinyl)-1-benzhydryl-2-oxoethyl)amino)acetate heptahydrate'
_chemical_properties_biological  'LB30870 is a direct thrombin inhibitor'
_symmetry_cell_setting           orthorhombic
_symmetry_space_group_name_H-M   'P 21 21 21'
_symmetry_Int_Tables_number      19
_space_group_name_Hall           'P 2ac 2ab'
loop_
_symmetry_equiv_pos_site_id
_symmetry_equiv_pos_as_xyz
1 x,y,z
2 1/2-x,-y,1/2+z
3 -x,1/2+y,1/2-z
4 1/2+x,1/2-y,-z
_cell_length_a                   10.989(2)
_cell_length_b                   12.300(3)
_cell_length_c                   24.858(5)
_cell_angle_alpha                90
_cell_angle_beta                 90
_cell_angle_gamma                90
_cell_volume                     3359.92
_exptl_crystal_colour            colorless
_exptl_crystal_description       block
_cell_formula_units_Z            4
loop_
_atom_site_label
_atom_site_type_symbol
_atom_site_fract_x
_atom_site_fract_y
_atom_site_fract_z
N1 N 1.1074(4) 0.1951(4) 0.7979(2)
H1 H 1.161(5) 0.189(5) 0.774(2)
H2 H 1.115(5) 0.250(5) 0.828(2)
N2 N 0.9756(5) 0.1104(4) 0.74011(19)
H3 H 1.029(5) 0.107(5) 0.717(2)
H4 H 0.900(5) 0.072(5) 0.733(2)
C1 C 0.9984(5) 0.1556(5) 0.7862(2)
S1 S 0.93028(13) 0.16534(14) 0.89423(6)
C2 C 0.9022(5) 0.1609(5) 0.82630(19)
C3 C 0.7808(5) 0.1604(6) 0.8166(2)
H5 H 0.7467 0.1595 0.7815
C4 C 0.7106(5) 0.1614(5) 0.8638(2)
H6 H 0.6242 0.1595 0.8639
C5 C 0.7780(5) 0.1654(5) 0.9087(2)
C6 C 0.7353(5) 0.1720(5) 0.9661(2)
H7 H 0.6473 0.1553 0.9679
H8 H 0.7792 0.1174 0.9881
N3 N 0.7573(5) 0.2799(4) 0.98777(18)
H9 H 0.724(5) 0.327(5) 0.971(2)
O1 O 0.8773(4) 0.2250(4) 1.05603(16)
C7 C 0.8319(5) 0.2990(5) 1.0287(2)
C8 C 0.8566(5) 0.4150(5) 1.04395(19)
H10 H 0.9398 0.4206 1.0600
C9 C 0.7627(5) 0.4603(5) 1.0839(2)
H11 H 0.7241 0.4008 1.1046
H12 H 0.8013 0.5118 1.1093
C10 C 0.6699(5) 0.5178(5) 1.0485(2)
H13 H 0.6239 0.5730 1.0692
H14 H 0.6120 0.4655 1.0324
C11 C 0.7490(5) 0.5709(5) 1.0056(2)
H15 H 0.7030 0.5823 0.9718
H16 H 0.7818 0.6415 1.0181
N4 N 0.8467(4) 0.4903(4) 0.99827(16)
O2 O 1.0068(3) 0.4099(3) 0.95902(14)
C12 C 0.9312(5) 0.4841(5) 0.9593(2)
C13 C 0.9339(5) 0.5701(4) 0.91477(18)
H17 H 0.8600 0.6173 0.9174
C14 C 1.0488(4) 0.6388(5) 0.92346(19)
H18 H 1.1194 0.5879 0.9203
C15 C 1.0672(5) 0.7257(5) 0.88097(19)
C16 C 0.9743(5) 0.7896(5) 0.8611(2)
H19 H 0.8935 0.7787 0.8736
C17 C 0.9970(6) 0.8692(5) 0.8235(2)
H20 H 0.9316 0.9116 0.8100
C18 C 1.1136(6) 0.8880(5) 0.8051(2)
H21 H 1.1291 0.9447 0.7800
C19 C 1.2079(6) 0.8232(6) 0.8235(2)
H22 H 1.2881 0.8336 0.8102
C20 C 1.1847(5) 0.7421(5) 0.8618(2)
H23 H 1.2495 0.6982 0.8747
C21 C 1.0522(5) 0.6840(5) 0.9807(2)
C22 C 1.1239(5) 0.6344(5) 1.0192(2)
H24 H 1.1747 0.5752 1.0092
C23 C 1.1228(6) 0.6700(7) 1.0724(3)
H25 H 1.1724 0.6347 1.0984
C24 C 1.0516(7) 0.7545(7) 1.0872(3)
H26 H 1.0509 0.7780 1.1236
C25 C 0.9797(5) 0.8071(6) 1.0495(2)
H27 H 0.9312 0.8676 1.0597
C26 C 0.9796(5) 0.7700(6) 0.9963(2)
H28 H 0.9288 0.8045 0.9705
N5 N 0.9395(4) 0.5194(4) 0.86124(18)
H29 H 1.003(4) 0.480(4) 0.861(2)
C27 C 0.8299(5) 0.4598(5) 0.8465(2)
H30 H 0.7955 0.4249 0.8790
H31 H 0.8515 0.4016 0.8207
O3 O 0.6260(3) 0.4966(4) 0.82286(16)
O4 O 0.7649(3) 0.6210(4) 0.80034(15)
C28 C 0.7333(5) 0.5334(6) 0.8212(2)
O5 O 0.1742(4) 0.3503(4) 0.88197(15)
H32 H 0.234(5) 0.338(6) 0.897(2)
H33 H 0.114(5) 0.377(5) 0.908(2)
O6 O 0.0854(4) 0.0949(5) 0.07330(17)
H34 H 0.091(6) 0.070(6) 0.101(3)
H35 H 0.019(6) 0.145(6) 0.067(2)
O7 O 0.7699(4) 0.9781(4) 0.71126(17)
H36 H 0.706(6) 1.020(6) 0.712(2)
H37 H 0.796(5) 0.951(6) 0.681(2)
O8 O 0.6774(5) 0.8398(5) 0.7936(2)
H38 H 0.682(7) 0.769(2) 0.791(3)
H39 H 0.716(6) 0.878(6) 0.770(2)
O9 O 0.4259(4) 0.6103(5) 0.7926(3)
H40 H 0.492(4) 0.580(7) 0.797(4)
O10 O 0.5365(4) 0.3075(6) 0.7657(3)
H41 H 0.575(7) 0.365(5) 0.777(4)
H42 H 0.462(4) 0.291(8) 0.756(4)
O11 O 0.3856(10) 0.1995(13) 0.8265(5)
H43 H 0.381(19) 0.144(11) 0.805(7)
H44 H 0.463(3) 0.198(17) 0.824(7)
O12 O 0.4679(14) 0.9914(17) 0.8126(10)
H45 H 0.52(2) 0.943(19) 0.810(14)
loop_
_geom_bond_atom_site_label_1
_geom_bond_atom_site_label_2
_geom_bond_site_symmetry_1
_geom_bond_site_symmetry_2
N1 H1 1_555 1_555
H2 N1 1_555 1_555
N2 H3 1_555 1_555
H4 N2 1_555 1_555
C1 N1 1_555 1_555
S1 C2 1_555 1_555
C2 C1 1_555 1_555
C3 C2 1_555 1_555
H5 C3 1_555 1_555
C4 C3 1_555 1_555
H6 C4 1_555 1_555
C5 S1 1_555 1_555
C6 C5 1_555 1_555
H7 C6 1_555 1_555
H8 C6 1_555 1_555
N3 C6 1_555 1_555
H9 N3 1_555 1_555
O1 C7 1_555 1_555
C7 N3 1_555 1_555
C8 C7 1_555 1_555
H10 C8 1_555 1_555
C9 C8 1_555 1_555
H11 C9 1_555 1_555
H12 C9 1_555 1_555
C10 C9 1_555 1_555
H13 C10 1_555 1_555
H14 C10 1_555 1_555
C11 C10 1_555 1_555
H15 C11 1_555 1_555
H16 C11 1_555 1_555
N4 C8 1_555 1_555
O2 C12 1_555 1_555
C12 N4 1_555 1_555
C13 C12 1_555 1_555
H17 C13 1_555 1_555
C14 C13 1_555 1_555
H18 C14 1_555 1_555
C15 C14 1_555 1_555
C16 C15 1_555 1_555
H19 C16 1_555 1_555
C17 C16 1_555 1_555
H20 C17 1_555 1_555
C18 C17 1_555 1_555
H21 C18 1_555 1_555
C19 C18 1_555 1_555
H22 C19 1_555 1_555
C20 C15 1_555 1_555
H23 C20 1_555 1_555
C21 C14 1_555 1_555
C22 C21 1_555 1_555
H24 C22 1_555 1_555
C23 C22 1_555 1_555
H25 C23 1_555 1_555
C24 C23 1_555 1_555
H26 C24 1_555 1_555
C25 C24 1_555 1_555
H27 C25 1_555 1_555
C26 C21 1_555 1_555
H28 C26 1_555 1_555
N5 C13 1_555 1_555
H29 N5 1_555 1_555
C27 N5 1_555 1_555
H30 C27 1_555 1_555
H31 C27 1_555 1_555
O3 C28 1_555 1_555
O4 C28 1_555 1_555
C28 C27 1_555 1_555
O5 H32 1_555 1_555
H33 O5 1_555 1_555
O6 H34 1_555 1_555
H35 O6 1_555 1_555
O7 H36 1_555 1_555
H37 O7 1_555 1_555
O8 H38 1_555 1_555
H39 O8 1_555 1_555
O9 H40 1_555 1_555
O10 H41 1_555 1_555
H42 O10 1_555 1_555
O11 H43 1_555 1_555
H44 O11 1_555 1_555
O12 H45 1_555 1_555
N2 C1 1_555 1_555
C4 C5 1_555 1_555
C11 N4 1_555 1_555
C19 C20 1_555 1_555
C25 C26 1_555 1_555

#END
