
#######################################################################
#
#                 Cambridge Crystallographic Data Centre
#                                CCDC 
#
#######################################################################
#
# If this CIF has been generated from an entry in the Cambridge 
# Structural Database, then it will include bibliographic, chemical, 
# crystal, experimental, refinement or atomic coordinate data resulting 
# from the CCDC's data processing and validation procedures.
#
#######################################################################

data_LERVIO
_chemical_name_common            'PDB Chemical Component code: 1CB'
_chemical_formula_moiety         'C18 H10 Cl2 O2,2(C5 H11 N1)'
_chemical_name_systematic        
'trans-1,5-Dichloro-9,10-diethynyl-9,10-dihydroanthracene-9,10-diol cyclopentylamine solvate'
_symmetry_cell_setting           monoclinic
_symmetry_space_group_name_H-M   'P 21/c'
_symmetry_Int_Tables_number      14
_space_group_name_Hall           '-P 2ybc'
loop_
_symmetry_equiv_pos_site_id
_symmetry_equiv_pos_as_xyz
1 x,y,z
2 -x,1/2+y,1/2-z
3 -x,-y,-z
4 x,1/2-y,1/2+z
_cell_length_a                   10.8061(3)
_cell_length_b                   11.4830(3)
_cell_length_c                   10.0223(2)
_cell_angle_alpha                90
_cell_angle_beta                 93.5180(10)
_cell_angle_gamma                90
_cell_volume                     1241.29
_exptl_crystal_colour            colorless
_exptl_crystal_description       needle
_cell_formula_units_Z            2
loop_
_atom_site_label
_atom_site_type_symbol
_atom_site_fract_x
_atom_site_fract_y
_atom_site_fract_z
Cl1 Cl 0.75753(2) 0.49979(2) -0.28420(3)
O1 O 0.61986(8) 0.32885(7) -0.11009(9)
C1 C 0.60518(10) 0.53689(10) -0.07642(11)
C2 C 0.64111(11) 0.70313(10) 0.07052(12)
C3 C 0.70671(10) 0.57538(10) -0.14649(11)
C4 C 0.57336(10) 0.60292(10) 0.03242(11)
C5 C 0.74041(11) 0.73809(11) 0.00040(13)
C6 C 0.53662(10) 0.42489(10) -0.11705(11)
C7 C 0.48523(11) 0.43687(10) -0.25745(11)
C8 C 0.77347(11) 0.67432(11) -0.10942(12)
C9 C 0.43715(12) 0.45001(12) -0.36578(13)
H1 H 0.8403(13) 0.6962(12) -0.1583(14)
H2 H 0.7848(14) 0.8069(14) 0.0264(16)
H3 H 0.6163(13) 0.7494(13) 0.1459(15)
H4 H 0.4032(15) 0.4602(15) -0.4511(18)
H5 H 0.6504(16) 0.3264(15) -0.0267(19)
Cl1B Cl 0.24247(2) 0.50021(2) 0.28420(3)
O1B O 0.38014(8) 0.67115(7) 0.11009(9)
C1B C 0.39482(10) 0.46311(10) 0.07642(11)
C2B C 0.35889(11) 0.29687(10) -0.07052(12)
C3B C 0.29329(10) 0.42462(10) 0.14649(11)
C4B C 0.42664(10) 0.39708(10) -0.03242(11)
C5B C 0.25959(11) 0.26191(11) -0.00040(13)
C6B C 0.46338(10) 0.57511(10) 0.11705(11)
C7B C 0.51477(11) 0.56313(10) 0.25745(11)
C8B C 0.22653(11) 0.32568(11) 0.10942(12)
C9B C 0.56285(12) 0.54999(12) 0.36578(13)
H1B H 0.1597(13) 0.3038(12) 0.1583(14)
H2B H 0.2152(14) 0.1931(14) -0.0264(16)
H3B H 0.3837(13) 0.2506(13) -0.1459(15)
H4B H 0.5968(15) 0.5398(15) 0.4511(18)
H5B H 0.3496(16) 0.6736(15) 0.0267(19)
N1 N 0.71118(10) 0.31706(10) 0.15216(11)
C10 C 0.84860(11) 0.32159(11) 0.16934(12)
C11 C 0.89330(12) 0.44604(12) 0.14706(14)
C12 C 0.89911(12) 0.29616(11) 0.31280(12)
C13 C 0.87698(14) 0.40978(12) 0.38768(14)
C14 C 0.88502(13) 0.50742(12) 0.28256(16)
H6 H 0.8815(12) 0.2659(12) 0.1076(14)
H7 H 0.8560(12) 0.2299(13) 0.3521(14)
H8 H 0.9889(14) 0.2791(13) 0.3100(15)
H9 H 0.9772(16) 0.4439(15) 0.1224(16)
H10 H 0.8488(16) 0.4849(14) 0.0707(18)
H11 H 0.9587(15) 0.5562(15) 0.3005(17)
H12 H 0.6793(14) 0.3770(14) 0.1991(16)
H13 H 0.9328(16) 0.4185(15) 0.4649(18)
H14 H 0.7912(17) 0.4072(15) 0.4238(17)
H15 H 0.6851(16) 0.2560(16) 0.1894(18)
H16 H 0.8125(16) 0.5594(14) 0.2797(17)
loop_
_geom_bond_atom_site_label_1
_geom_bond_atom_site_label_2
_geom_bond_site_symmetry_1
_geom_bond_site_symmetry_2
Cl1 C3 1_555 1_555
O1 C6 1_555 1_555
C1 C3 1_555 1_555
C2 C4 1_555 1_555
C3 C8 1_555 1_555
C4 C1 1_555 1_555
C5 C2 1_555 1_555
C6 C1 1_555 1_555
C7 C6 1_555 1_555
C8 C5 1_555 1_555
C9 C7 1_555 1_555
H1 C8 1_555 1_555
H2 C5 1_555 1_555
H3 C2 1_555 1_555
H4 C9 1_555 1_555
H5 O1 1_555 1_555
N1 C10 1_555 1_555
C10 C11 1_555 1_555
C11 C14 1_555 1_555
C12 C10 1_555 1_555
C13 C12 1_555 1_555
C14 C13 1_555 1_555
H6 C10 1_555 1_555
H7 C12 1_555 1_555
H8 C12 1_555 1_555
H9 C11 1_555 1_555
H10 C11 1_555 1_555
H11 C14 1_555 1_555
H12 N1 1_555 1_555
H13 C13 1_555 1_555
H14 C13 1_555 1_555
H15 N1 1_555 1_555
H16 C14 1_555 1_555
Cl1B C3B 1_555 1_555
O1B C6B 1_555 1_555
C1B C3B 1_555 1_555
C2B C4B 1_555 1_555
C3B C8B 1_555 1_555
C4B C6 1_555 1_555
C5B C2B 1_555 1_555
C6B C4 1_555 1_555
C7B C6B 1_555 1_555
C8B C5B 1_555 1_555
C9B C7B 1_555 1_555
H1B C8B 1_555 1_555
H2B C5B 1_555 1_555
H3B C2B 1_555 1_555
H4B C9B 1_555 1_555
H5B O1B 1_555 1_555
C1B C4B 1_555 1_555
C1B C6B 1_555 1_555

#END
