
#######################################################################
#
#                 Cambridge Crystallographic Data Centre
#                                CCDC 
#
#######################################################################
#
# If this CIF has been generated from an entry in the Cambridge 
# Structural Database, then it will include bibliographic, chemical, 
# crystal, experimental, refinement or atomic coordinate data resulting 
# from the CCDC's data processing and validation procedures.
#
#######################################################################

data_LERWOV
_chemical_formula_moiety         'C18 H10 Cl2 O2,2(C8 H17 N1)'
_chemical_name_systematic        
'trans-1,5-Dichloro-9,10-diethynyl-9,10-dihydroanthracene-9,10-diol cyclohexyl(dimethyl)amine solvate'
_symmetry_cell_setting           monoclinic
_symmetry_space_group_name_H-M   'P 21/n'
_symmetry_Int_Tables_number      14
_space_group_name_Hall           '-P 2yn'
loop_
_symmetry_equiv_pos_site_id
_symmetry_equiv_pos_as_xyz
1 x,y,z
2 1/2-x,1/2+y,1/2-z
3 -x,-y,-z
4 1/2+x,1/2-y,1/2+z
_cell_length_a                   7.9119(2)
_cell_length_b                   17.7382(5)
_cell_length_c                   11.1360(3)
_cell_angle_alpha                90
_cell_angle_beta                 102.2700(10)
_cell_angle_gamma                90
_cell_volume                     1527.16
_exptl_crystal_colour            colorless
_exptl_crystal_description       cube
_cell_formula_units_Z            2
loop_
_atom_site_label
_atom_site_type_symbol
_atom_site_fract_x
_atom_site_fract_y
_atom_site_fract_z
Cl1 Cl 0.53240(3) -0.155440(15) 0.73266(2)
O1 O 0.73324(9) -0.02299(5) 0.86213(7)
C1 C 0.44714(13) -0.05245(6) 0.89635(9)
C2 C 0.32141(13) -0.01166(6) 0.93965(9)
C3 C 0.14566(13) -0.02149(6) 0.88674(10)
C4 C 0.63983(13) -0.04423(6) 0.95267(9)
C5 C 0.38914(13) -0.10232(6) 0.79785(10)
C6 C 0.21566(14) -0.11268(6) 0.74701(10)
C7 C 0.70970(13) -0.11873(6) 1.00124(10)
C8 C 0.09237(14) -0.07222(7) 0.79243(10)
C12 C 0.76623(16) -0.17723(7) 1.04378(11)
H1 H 0.185(2) -0.1482(8) 0.6804(14)
H2 H 0.0604(18) 0.0072(8) 0.9174(12)
H13 H 0.811(2) -0.2235(10) 1.0756(15)
H14 H -0.0281(19) -0.0796(8) 0.7603(12)
H18 H 0.703(2) 0.0200(11) 0.8340(16)
Cl1B Cl 0.46760(3) 0.155440(15) 1.26734(2)
O1B O 0.26676(9) 0.02299(5) 1.13787(7)
C1B C 0.55286(13) 0.05245(6) 1.10365(9)
C2B C 0.67859(13) 0.01166(6) 1.06035(9)
C3B C 0.85434(13) 0.02149(6) 1.11326(10)
C4B C 0.36017(13) 0.04423(6) 1.04733(9)
C5B C 0.61086(13) 0.10232(6) 1.20215(10)
C6B C 0.78434(14) 0.11268(6) 1.25299(10)
C7B C 0.29030(13) 0.11873(6) 0.99876(10)
C8B C 0.90763(14) 0.07222(7) 1.20757(10)
C12B C 0.23377(16) 0.17723(7) 0.95622(11)
H1B H 0.815(2) 0.1482(8) 1.3196(14)
H2B H 0.9396(18) -0.0072(8) 1.0826(12)
H13B H 0.189(2) 0.2235(10) 0.9244(15)
H14B H 1.0281(19) 0.0796(8) 1.2397(12)
H18B H 0.297(2) -0.0200(11) 1.1660(16)
N1 N 0.67198(13) 0.11665(6) 0.76306(10)
C9 C 0.42945(19) 0.06423(7) 0.60581(11)
C10 C 0.42367(17) 0.20138(7) 0.65560(12)
C11 C 0.48557(15) 0.12349(6) 0.70534(10)
C13 C 0.22670(18) 0.20133(8) 0.61567(12)
C14 C 0.72298(19) 0.16723(8) 0.86835(13)
C15 C 0.1631(2) 0.14069(8) 0.51961(12)
C16 C 0.2331(2) 0.06326(8) 0.56483(13)
C17 C 0.7900(2) 0.12657(9) 0.67892(15)
H3 H 0.4285(18) 0.1120(8) 0.7733(12)
H4 H 0.728(2) 0.2186(10) 0.8449(15)
H5 H 0.179(2) 0.1899(9) 0.6901(14)
H6 H 0.202(2) 0.1539(9) 0.4406(15)
H7 H 0.475(2) 0.2151(9) 0.5836(14)
H8 H 0.761(2) 0.0927(10) 0.6098(16)
H9 H 0.639(2) 0.1631(9) 0.9205(15)
H10 H 0.1872(19) 0.2504(9) 0.5839(14)
H11 H 0.462(2) 0.2407(10) 0.7187(16)
H12 H 0.478(2) 0.0754(9) 0.5355(15)
H15 H 0.789(2) 0.1789(10) 0.6461(15)
H16 H 0.038(2) 0.1399(9) 0.4986(16)
H17 H 0.835(3) 0.1516(10) 0.9160(17)
H19 H 0.182(2) 0.0490(10) 0.6343(17)
H20 H 0.908(3) 0.1174(11) 0.7223(18)
H21 H 0.475(2) 0.0132(10) 0.6382(15)
H22 H 0.197(2) 0.0273(10) 0.5011(17)
loop_
_geom_bond_atom_site_label_1
_geom_bond_atom_site_label_2
_geom_bond_site_symmetry_1
_geom_bond_site_symmetry_2
Cl1 C5 1_555 1_555
O1 C4 1_555 1_555
C1 C2 1_555 1_555
C2 C3 1_555 1_555
C3 C8 1_555 1_555
C4 C1 1_555 1_555
C5 C1 1_555 1_555
N1 C11 1_555 1_555
C6 C5 1_555 1_555
C7 C4 1_555 1_555
C8 C6 1_555 1_555
C9 C11 1_555 1_555
C10 C11 1_555 1_555
C11 H3 1_555 1_555
C12 C7 1_555 1_555
C13 C10 1_555 1_555
C14 N1 1_555 1_555
C15 C13 1_555 1_555
C16 C9 1_555 1_555
C17 N1 1_555 1_555
H1 C6 1_555 1_555
H2 C3 1_555 1_555
H4 C14 1_555 1_555
H5 C13 1_555 1_555
H6 C15 1_555 1_555
H7 C10 1_555 1_555
H8 C17 1_555 1_555
H9 C14 1_555 1_555
H10 C13 1_555 1_555
H11 C10 1_555 1_555
H12 C9 1_555 1_555
H13 C12 1_555 1_555
H14 C8 1_555 1_555
H15 C17 1_555 1_555
H16 C15 1_555 1_555
H17 C14 1_555 1_555
H18 O1 1_555 1_555
H19 C16 1_555 1_555
H20 C17 1_555 1_555
H21 C9 1_555 1_555
H22 C16 1_555 1_555
Cl1B C5B 1_555 1_555
O1B C4B 1_555 1_555
C1B C2B 1_555 1_555
C2B C4 1_555 1_555
C3B C2B 1_555 1_555
C4B C2 1_555 1_555
C5B C1B 1_555 1_555
C6B C5B 1_555 1_555
C7B C4B 1_555 1_555
C8B C3B 1_555 1_555
C12B C7B 1_555 1_555
H1B C6B 1_555 1_555
H2B C3B 1_555 1_555
H13B C12B 1_555 1_555
H14B C8B 1_555 1_555
H18B O1B 1_555 1_555
C15 C16 1_555 1_555
C1B C4B 1_555 1_555
C6B C8B 1_555 1_555

#END
