
#######################################################################
#
#                 Cambridge Crystallographic Data Centre
#                                CCDC 
#
#######################################################################
#
# If this CIF has been generated from an entry in the Cambridge 
# Structural Database, then it will include bibliographic, chemical, 
# crystal, experimental, refinement or atomic coordinate data resulting 
# from the CCDC's data processing and validation procedures.
#
#######################################################################

data_LESQAD
_chemical_name_common            'Methyl hydroxy(2-methylphenyl)carbamate'
_chemical_formula_moiety         'C9 H11 N1 O3'
_chemical_name_systematic        'Methyl N-hydroxy-N-(2-methylphenyl)carbamate'
_symmetry_cell_setting           monoclinic
_symmetry_space_group_name_H-M   'P 21/n'
_symmetry_Int_Tables_number      14
_space_group_name_Hall           '-P 2yn'
loop_
_symmetry_equiv_pos_site_id
_symmetry_equiv_pos_as_xyz
1 x,y,z
2 1/2-x,1/2+y,1/2-z
3 -x,-y,-z
4 1/2+x,1/2-y,1/2+z
_cell_length_a                   7.6418(3)
_cell_length_b                   20.8825(9)
_cell_length_c                   18.0412(9)
_cell_angle_alpha                90
_cell_angle_beta                 94.4850(10)
_cell_angle_gamma                90
_cell_volume                     2870.2
_exptl_crystal_colour            colorless
_exptl_crystal_description       needle
_cell_formula_units_Z            12
loop_
_atom_site_label
_atom_site_type_symbol
_atom_site_fract_x
_atom_site_fract_y
_atom_site_fract_z
C1 C 0.7015(7) 0.0013(2) 0.4220(3)
H1 H 0.8160 0.0147 0.4417
H2 H 0.6990 -0.0445 0.4173
H3 H 0.6157 0.0146 0.4550
C2 C 0.6622(5) 0.02987(19) 0.3507(3)
C3 C 0.6870(5) -0.0069(3) 0.2864(3)
H4 H 0.7291 -0.0486 0.2901
C4 C 0.6481(5) 0.0204(3) 0.2205(4)
H5 H 0.6686 -0.0035 0.1785
C5 C 0.5789(6) 0.0819(3) 0.2091(2)
H6 H 0.5485 0.0977 0.1616
C6 C 0.5584(5) 0.1173(2) 0.2709(2)
H7 H 0.5189 0.1593 0.2662
C7 C 0.5973(3) 0.09029(14) 0.34306(18)
C8 C 0.4200(4) 0.15525(14) 0.42474(15)
C9 C 0.1141(4) 0.1418(2) 0.4157(2)
H8 H 0.1087 0.1362 0.4683
H9 H 0.0244 0.1164 0.3896
H10 H 0.0962 0.1861 0.4032
N1 N 0.5733(3) 0.13103(12) 0.40482(13)
O1 O 0.7214(2) 0.16837(11) 0.42788(11)
H11 H 0.7555 0.1589 0.4707
O2 O 0.4081(3) 0.20012(10) 0.46662(12)
O3 O 0.2843(2) 0.12164(11) 0.39471(12)
C10 C 0.9234(4) 0.19851(18) 0.78477(18)
H12 H 0.8450 0.2246 0.7535
H13 H 0.9386 0.2171 0.8335
H14 H 0.8751 0.1563 0.7881
C11 C 1.0991(4) 0.19463(14) 0.75196(16)
C12 C 1.2551(4) 0.19938(17) 0.79671(18)
H15 H 1.2507 0.2035 0.8479
C13 C 1.4155(4) 0.19809(18) 0.7672(2)
H16 H 1.5179 0.2008 0.7984
C14 C 1.4247(4) 0.19279(17) 0.6920(2)
H17 H 1.5333 0.1930 0.6721
C15 C 1.2733(4) 0.18723(14) 0.64585(17)
H18 H 1.2791 0.1835 0.5947
C16 C 1.1122(3) 0.18725(13) 0.67609(15)
C17 C 0.8634(4) 0.12549(15) 0.61676(18)
C18 C 0.7983(6) 0.02666(19) 0.6715(3)
H19 H 0.6769 0.0378 0.6732
H20 H 0.8351 0.0009 0.7139
H21 H 0.8136 0.0030 0.6268
N2 N 0.9562(3) 0.18018(11) 0.62738(12)
O4 O 0.9443(3) 0.22088(9) 0.56502(10)
H22 H 0.8743 0.2497 0.5714
O5 O 0.7543(3) 0.11544(11) 0.56597(13)
O6 O 0.9030(3) 0.08435(10) 0.67221(13)
C19 C 0.5743(5) 0.43964(19) 0.4292(3)
H23 H 0.6516 0.4438 0.4736
H24 H 0.5595 0.4807 0.4056
H25 H 0.6238 0.4101 0.3958
C20 C 0.4036(5) 0.41579(18) 0.4486(2)
C21 C 0.2437(6) 0.4432(2) 0.4177(2)
H26 H 0.2472 0.4771 0.3844
C22 C 0.0889(7) 0.4210(3) 0.4356(3)
H27 H -0.0135 0.4403 0.4152
C23 C 0.0768(5) 0.3698(3) 0.4841(3)
H28 H -0.0324 0.3549 0.4956
C24 C 0.2236(4) 0.34211(18) 0.5139(2)
H29 H 0.2175 0.3073 0.5457
C25 C 0.5530(5) 0.3753(2) 0.71892(19)
H30 H 0.5448 0.3326 0.7379
H31 H 0.4735 0.4027 0.7427
H32 H 0.6708 0.3908 0.7288
C26 C 0.3899(4) 0.36664(15) 0.49641(17)
C27 C 0.6045(4) 0.33602(14) 0.60086(17)
N3 N 0.5431(3) 0.33508(12) 0.52944(13)
O7 O 0.6448(3) 0.29974(10) 0.48250(11)
H33 H 0.6012 0.2642 0.4754
O8 O 0.7308(3) 0.30629(11) 0.62704(11)
O9 O 0.5079(3) 0.37516(11) 0.64001(12)
loop_
_geom_bond_atom_site_label_1
_geom_bond_atom_site_label_2
_geom_bond_site_symmetry_1
_geom_bond_site_symmetry_2
C1 H1 1_555 1_555
H2 C1 1_555 1_555
H3 C1 1_555 1_555
C2 C1 1_555 1_555
C3 C2 1_555 1_555
H4 C3 1_555 1_555
C4 C3 1_555 1_555
H5 C4 1_555 1_555
C5 C4 1_555 1_555
H6 C5 1_555 1_555
C6 C5 1_555 1_555
H7 C6 1_555 1_555
C7 C2 1_555 1_555
C8 N1 1_555 1_555
C9 H8 1_555 1_555
H9 C9 1_555 1_555
H10 C9 1_555 1_555
N1 C7 1_555 1_555
O1 N1 1_555 1_555
H11 O1 1_555 1_555
O2 C8 1_555 1_555
O3 C8 1_555 1_555
C10 H12 1_555 1_555
H13 C10 1_555 1_555
H14 C10 1_555 1_555
C11 C10 1_555 1_555
C12 C11 1_555 1_555
H15 C12 1_555 1_555
C13 C12 1_555 1_555
H16 C13 1_555 1_555
C14 C13 1_555 1_555
H17 C14 1_555 1_555
C15 C14 1_555 1_555
H18 C15 1_555 1_555
C16 C11 1_555 1_555
C17 N2 1_555 1_555
C18 H19 1_555 1_555
H20 C18 1_555 1_555
H21 C18 1_555 1_555
N2 C16 1_555 1_555
O4 N2 1_555 1_555
H22 O4 1_555 1_555
O5 C17 1_555 1_555
O6 C17 1_555 1_555
C19 H23 1_555 1_555
H24 C19 1_555 1_555
H25 C19 1_555 1_555
C20 C19 1_555 1_555
C21 C20 1_555 1_555
H26 C21 1_555 1_555
C22 C21 1_555 1_555
H27 C22 1_555 1_555
C23 C22 1_555 1_555
H28 C23 1_555 1_555
C24 C23 1_555 1_555
H29 C24 1_555 1_555
C25 H30 1_555 1_555
H31 C25 1_555 1_555
H32 C25 1_555 1_555
C26 C20 1_555 1_555
C27 N3 1_555 1_555
N3 C26 1_555 1_555
O7 N3 1_555 1_555
H33 O7 1_555 1_555
O8 C27 1_555 1_555
O9 C25 1_555 1_555
C6 C7 1_555 1_555
C9 O3 1_555 1_555
C15 C16 1_555 1_555
C18 O6 1_555 1_555
C24 C26 1_555 1_555
C27 O9 1_555 1_555

#END
