
#######################################################################
#
#                 Cambridge Crystallographic Data Centre
#                                CCDC 
#
#######################################################################
#
# If this CIF has been generated from an entry in the Cambridge 
# Structural Database, then it will include bibliographic, chemical, 
# crystal, experimental, refinement or atomic coordinate data resulting 
# from the CCDC's data processing and validation procedures.
#
#######################################################################

data_LEVFUP
_chemical_formula_moiety         'C36 H44 O2 S4'
_chemical_name_systematic        
2,7-bis(5-n-nonyl-thiophen-2-yl)-benzo[1,2-b:6,5-b']dithiophene-4,5-dione
_symmetry_cell_setting           triclinic
_symmetry_space_group_name_H-M   'P -1'
_symmetry_Int_Tables_number      2
_space_group_name_Hall           '-P 1'
loop_
_symmetry_equiv_pos_site_id
_symmetry_equiv_pos_as_xyz
1 x,y,z
2 -x,-y,-z
_cell_length_a                   7.349(3)
_cell_length_b                   11.374(5)
_cell_length_c                   20.588(9)
_cell_angle_alpha                76.147(8)
_cell_angle_beta                 82.786(8)
_cell_angle_gamma                75.325(7)
_cell_volume                     1612.47
_exptl_crystal_colour            black
_exptl_crystal_description       plates
_cell_formula_units_Z            2
loop_
_atom_site_label
_atom_site_type_symbol
_atom_site_fract_x
_atom_site_fract_y
_atom_site_fract_z
S1 S -0.25990(15) 0.26274(10) 0.24449(6)
S2 S 0.10445(15) 0.41821(10) 0.17723(6)
S3 S 0.41944(16) 0.71242(10) 0.12761(6)
S4 S -0.79691(16) 0.18709(11) 0.34445(6)
O1 O -0.5895(4) 0.6533(3) 0.31331(17)
O2 O -0.3060(5) 0.7747(3) 0.25912(17)
C1 C -0.4845(6) 0.2766(4) 0.2873(2)
C2 C -0.5480(6) 0.3935(4) 0.3002(2)
H1 H -0.6646 0.4191 0.3223
C3 C -0.4214(6) 0.4715(4) 0.2771(2)
C4 C -0.2561(6) 0.4126(4) 0.2453(2)
C5 C -0.1069(6) 0.4762(4) 0.2190(2)
C6 C -0.1172(6) 0.5954(4) 0.2252(2)
C7 C -0.2888(6) 0.6679(4) 0.2562(2)
C8 C -0.4491(6) 0.5989(4) 0.2853(2)
C9 C 0.0438(6) 0.6403(4) 0.1964(2)
H2 H 0.0579 0.7192 0.1968
C10 C 0.1771(6) 0.5561(4) 0.1678(2)
C11 C 0.3540(6) 0.5746(4) 0.1321(2)
C12 C 0.4878(6) 0.4991(4) 0.0978(2)
H3 H 0.4791 0.4208 0.0943
C13 C 0.6417(6) 0.5542(4) 0.0680(2)
H4 H 0.7436 0.5145 0.0434
C14 C 0.6255(6) 0.6692(4) 0.0790(2)
C15 C 0.7487(6) 0.7608(4) 0.0565(2)
H5 H 0.7785 0.7835 0.0958
H6 H 0.6772 0.8356 0.0288
C16 C 0.9328(6) 0.7153(4) 0.0172(2)
H7 H 0.9056 0.6929 -0.0226
H8 H 1.0078 0.6417 0.0446
C17 C 1.0440(6) 0.8167(4) -0.0033(2)
H9 H 1.0694 0.8387 0.0368
H10 H 0.9666 0.8902 -0.0299
C18 C 1.2308(6) 0.7794(4) -0.0435(2)
H11 H 1.3110 0.7084 -0.0161
H12 H 1.2063 0.7537 -0.0826
C19 C 1.3357(6) 0.8836(4) -0.0665(2)
H13 H 1.2551 0.9545 -0.0938
H14 H 1.3596 0.9094 -0.0273
C20 C 1.5216(6) 0.8485(4) -0.1064(2)
H15 H 1.4982 0.8220 -0.1454
H16 H 1.6030 0.7783 -0.0790
C21 C 1.6244(6) 0.9542(4) -0.1298(2)
H17 H 1.5457 1.0226 -0.1592
H18 H 1.6414 0.9838 -0.0910
C22 C 1.8161(6) 0.9174(4) -0.1666(2)
H19 H 1.7996 0.8889 -0.2058
H20 H 1.8951 0.8487 -0.1375
C23 C 1.9162(6) 1.0244(4) -0.1887(2)
H21 H 1.8411 1.0915 -0.2190
H22 H 2.0368 0.9960 -0.2108
H23 H 1.9334 1.0529 -0.1501
C24 C -0.5695(6) 0.1706(4) 0.3065(2)
C25 C -0.4968(6) 0.0503(4) 0.3002(2)
H24 H -0.3774 0.0230 0.2804
C26 C -0.6226(7) -0.0289(4) 0.3271(2)
H25 H -0.5929 -0.1133 0.3269
C27 C -0.7895(6) 0.0303(4) 0.3530(2)
C28 C -0.9575(6) -0.0221(4) 0.3851(2)
H26 H -0.9786 -0.0144 0.4315
H27 H -1.0689 0.0262 0.3621
C29 C -0.9286(7) -0.1575(4) 0.3823(2)
H28 H -0.8176 -0.2051 0.4057
H29 H -0.9037 -0.1645 0.3358
C30 C -1.0943(6) -0.2158(4) 0.4125(2)
H30 H -1.1181 -0.2121 0.4595
H31 H -1.2066 -0.1689 0.3897
C31 C -1.0528(7) -0.3506(4) 0.4060(2)
H32 H -1.0269 -0.3529 0.3589
H33 H -0.9396 -0.3960 0.4287
C32 C -1.2097(7) -0.4170(4) 0.4344(2)
H34 H -1.3240 -0.3709 0.4126
H35 H -1.2335 -0.4171 0.4818
C33 C -1.1657(7) -0.5509(4) 0.4255(2)
H36 H -1.1439 -0.5502 0.3780
H37 H -1.0496 -0.5960 0.4464
C34 C -1.3184(7) -0.6212(4) 0.4546(2)
H38 H -1.4341 -0.5779 0.4330
H39 H -1.3420 -0.6215 0.5020
C35 C -1.2657(7) -0.7560(4) 0.4455(2)
H40 H -1.2434 -0.7554 0.3980
H41 H -1.1490 -0.7989 0.4665
C36 C -1.4167(7) -0.8282(4) 0.4752(3)
H42 H -1.4402 -0.8290 0.5222
H43 H -1.3740 -0.9122 0.4690
H44 H -1.5309 -0.7890 0.4530
loop_
_geom_bond_atom_site_label_1
_geom_bond_atom_site_label_2
_geom_bond_site_symmetry_1
_geom_bond_site_symmetry_2
S1 C1 1_555 1_555
S2 C5 1_555 1_555
S3 C11 1_555 1_555
S4 C24 1_555 1_555
O1 C8 1_555 1_555
O2 C7 1_555 1_555
C1 C2 1_555 1_555
C2 H1 1_555 1_555
C3 C2 1_555 1_555
C4 S1 1_555 1_555
C5 C4 1_555 1_555
C6 C5 1_555 1_555
C7 C6 1_555 1_555
C8 C3 1_555 1_555
C9 C6 1_555 1_555
H2 C9 1_555 1_555
C10 S2 1_555 1_555
C11 C10 1_555 1_555
C12 C11 1_555 1_555
H3 C12 1_555 1_555
C13 C12 1_555 1_555
H4 C13 1_555 1_555
C14 S3 1_555 1_555
C15 C14 1_555 1_555
H5 C15 1_555 1_555
H6 C15 1_555 1_555
C16 C15 1_555 1_555
H7 C16 1_555 1_555
H8 C16 1_555 1_555
C17 C16 1_555 1_555
H9 C17 1_555 1_555
H10 C17 1_555 1_555
C18 C17 1_555 1_555
H11 C18 1_555 1_555
H12 C18 1_555 1_555
C19 C18 1_555 1_555
H13 C19 1_555 1_555
H14 C19 1_555 1_555
C20 C19 1_555 1_555
H15 C20 1_555 1_555
H16 C20 1_555 1_555
C21 C20 1_555 1_555
H17 C21 1_555 1_555
H18 C21 1_555 1_555
C22 C21 1_555 1_555
H19 C22 1_555 1_555
H20 C22 1_555 1_555
C23 C22 1_555 1_555
H21 C23 1_555 1_555
H22 C23 1_555 1_555
H23 C23 1_555 1_555
C24 C1 1_555 1_555
C25 C24 1_555 1_555
H24 C25 1_555 1_555
C26 C25 1_555 1_555
H25 C26 1_555 1_555
C27 S4 1_555 1_555
C28 C27 1_555 1_555
H26 C28 1_555 1_555
H27 C28 1_555 1_555
C29 C28 1_555 1_555
H28 C29 1_555 1_555
H29 C29 1_555 1_555
C30 C29 1_555 1_555
H30 C30 1_555 1_555
H31 C30 1_555 1_555
C31 C30 1_555 1_555
H32 C31 1_555 1_555
H33 C31 1_555 1_555
C32 C31 1_555 1_555
H34 C32 1_555 1_555
H35 C32 1_555 1_555
C33 C32 1_555 1_555
H36 C33 1_555 1_555
H37 C33 1_555 1_555
C34 C33 1_555 1_555
H38 C34 1_555 1_555
H39 C34 1_555 1_555
C35 C34 1_555 1_555
H40 C35 1_555 1_555
H41 C35 1_555 1_555
C36 C35 1_555 1_555
H42 C36 1_555 1_555
H43 C36 1_555 1_555
H44 C36 1_555 1_555
C3 C4 1_555 1_555
C7 C8 1_555 1_555
C9 C10 1_555 1_555
C13 C14 1_555 1_555
C26 C27 1_555 1_555

#END
