
#######################################################################
#
#                 Cambridge Crystallographic Data Centre
#                                CCDC 
#
#######################################################################
#
# If this CIF has been generated from an entry in the Cambridge 
# Structural Database, then it will include bibliographic, chemical, 
# crystal, experimental, refinement or atomic coordinate data resulting 
# from the CCDC's data processing and validation procedures.
#
#######################################################################

data_LEVJOM
_chemical_formula_moiety         'C2 H4 O2 S1 Se1'
_chemical_name_systematic        '1,3-thiaselenetane S,S-dioxide'
_symmetry_cell_setting           monoclinic
_symmetry_space_group_name_H-M   'P n'
_symmetry_Int_Tables_number      7
_space_group_name_Hall           'P -2yac'
loop_
_symmetry_equiv_pos_site_id
_symmetry_equiv_pos_as_xyz
1 x,y,z
2 1/2+x,-y,1/2+z
_cell_length_a                   5.6201(6)
_cell_length_b                   5.4290(6)
_cell_length_c                   7.9280(9)
_cell_angle_alpha                90
_cell_angle_beta                 101.007(2)
_cell_angle_gamma                90
_cell_volume                     237.445
_exptl_crystal_colour            colorless
_exptl_crystal_description       block
_chemical_melting_point          141-143deg.C
_cell_formula_units_Z            2
_exptl_crystal_recrystallization_method 'ethyl acetate'
loop_
_atom_site_label
_atom_site_type_symbol
_atom_site_fract_x
_atom_site_fract_y
_atom_site_fract_z
Se1 Se 0.78762(9) 0.35165(9) 0.27437(8)
S1 S 0.3622(3) 0.1142(3) 0.17020(18)
O1 O 0.2529(9) -0.0991(8) 0.2318(6)
O2 O 0.2219(8) 0.2378(9) 0.0238(6)
C1 C 0.4665(11) 0.3323(11) 0.3369(8)
H1 H 0.4710 0.2656 0.4537
H2 H 0.3766 0.4901 0.3216
C2 C 0.6611(11) 0.0604(12) 0.1363(8)
H3 H 0.6760 0.0734 0.0142
H4 H 0.7308 -0.0969 0.1863
loop_
_geom_bond_atom_site_label_1
_geom_bond_atom_site_label_2
_geom_bond_site_symmetry_1
_geom_bond_site_symmetry_2
Se1 C1 1_555 1_555
S1 O1 1_555 1_555
O2 S1 1_555 1_555
C1 S1 1_555 1_555
H1 C1 1_555 1_555
H2 C1 1_555 1_555
C2 Se1 1_555 1_555
H3 C2 1_555 1_555
H4 C2 1_555 1_555
S1 C2 1_555 1_555

#END
