
#######################################################################
#
#                 Cambridge Crystallographic Data Centre
#                                CCDC 
#
#######################################################################
#
# If this CIF has been generated from an entry in the Cambridge 
# Structural Database, then it will include bibliographic, chemical, 
# crystal, experimental, refinement or atomic coordinate data resulting 
# from the CCDC's data processing and validation procedures.
#
#######################################################################

data_LEVJED
_chemical_formula_moiety         'C14 H10 Br2 O4 S2'
_chemical_name_systematic        
2,7-Dibromo-benzo[1,2-b:6,5-b']dithiophene-4,5-bis(1,3-dioxolane)
_symmetry_cell_setting           monoclinic
_symmetry_space_group_name_H-M   'P 21/n'
_symmetry_Int_Tables_number      14
_space_group_name_Hall           '-P 2yn'
loop_
_symmetry_equiv_pos_site_id
_symmetry_equiv_pos_as_xyz
1 x,y,z
2 1/2-x,1/2+y,1/2-z
3 -x,-y,-z
4 1/2+x,1/2-y,1/2+z
_cell_length_a                   14.021(4)
_cell_length_b                   7.945(2)
_cell_length_c                   14.062(4)
_cell_angle_alpha                90
_cell_angle_beta                 95.009(7)
_cell_angle_gamma                90
_cell_volume                     1560.48
_exptl_crystal_colour            yellow
_exptl_crystal_description       prism
_cell_formula_units_Z            4
loop_
_atom_site_label
_atom_site_type_symbol
_atom_site_fract_x
_atom_site_fract_y
_atom_site_fract_z
Br1 Br 0.645607(16) 0.61895(3) 0.179494(19)
Br2 Br 1.18863(2) 0.06009(4) -0.06545(2)
S1 S 0.80557(4) 0.41925(8) 0.09137(4)
S2 S 1.00795(4) 0.24115(7) -0.00575(4)
O1 O 1.08418(11) 0.6573(2) 0.23310(12)
O2 O 1.02719(12) 0.5683(2) 0.37152(11)
O3 O 1.19002(10) 0.3940(2) 0.29943(11)
O4 O 1.05891(10) 0.23419(19) 0.32555(11)
C1 C 0.77326(16) 0.5459(3) 0.18225(17)
C2 C 0.84753(16) 0.5821(3) 0.24758(17)
H1 H 0.8424 0.6487 0.3013
C3 C 0.93380(15) 0.5060(3) 0.22387(15)
C4 C 0.92235(15) 0.4144(3) 0.14122(15)
C5 C 1.03382(15) 0.5251(3) 0.27472(15)
C6 C 1.09365(15) 0.3621(3) 0.26568(15)
C7 C 1.08513(15) 0.2994(3) 0.16379(15)
C8 C 1.00169(15) 0.3238(3) 0.10650(15)
C9 C 1.15490(16) 0.2091(3) 0.11745(17)
H2 H 1.2150 0.1796 0.1459
C10 C 1.12267(17) 0.1713(3) 0.02632(17)
C11 C 1.0705(2) 0.8041(3) 0.2880(2)
H3 H 1.0119 0.8619 0.2655
H4 H 1.1240 0.8811 0.2862
C12 C 1.0645(2) 0.7345(4) 0.3860(2)
H5 H 1.1274 0.7314 0.4209
H6 H 1.0223 0.8023 0.4214
C13 C 1.12714(17) 0.2219(3) 0.40791(17)
H7 H 1.1287 0.1092 0.4345
H8 H 1.1129 0.3017 0.4569
C14 C 1.21922(17) 0.2642(3) 0.36714(18)
H9 H 1.2665 0.3055 0.4160
H10 H 1.2450 0.1676 0.3360
loop_
_geom_bond_atom_site_label_1
_geom_bond_atom_site_label_2
_geom_bond_site_symmetry_1
_geom_bond_site_symmetry_2
Br1 C1 1_555 1_555
Br2 C10 1_555 1_555
S1 C1 1_555 1_555
S2 C8 1_555 1_555
O1 C5 1_555 1_555
O2 C5 1_555 1_555
O3 C6 1_555 1_555
O4 C6 1_555 1_555
C1 C2 1_555 1_555
C2 H1 1_555 1_555
C3 C2 1_555 1_555
C4 S1 1_555 1_555
C5 C3 1_555 1_555
C6 C5 1_555 1_555
C7 C6 1_555 1_555
C8 C4 1_555 1_555
C9 C7 1_555 1_555
H2 C9 1_555 1_555
C10 S2 1_555 1_555
C11 O1 1_555 1_555
H3 C11 1_555 1_555
H4 C11 1_555 1_555
C12 O2 1_555 1_555
H5 C12 1_555 1_555
H6 C12 1_555 1_555
C13 O4 1_555 1_555
H7 C13 1_555 1_555
H8 C13 1_555 1_555
C14 O3 1_555 1_555
H9 C14 1_555 1_555
H10 C14 1_555 1_555
C3 C4 1_555 1_555
C7 C8 1_555 1_555
C9 C10 1_555 1_555
C11 C12 1_555 1_555
C13 C14 1_555 1_555

#END
