
#######################################################################
#
#                 Cambridge Crystallographic Data Centre
#                                CCDC 
#
#######################################################################
#
# If this CIF has been generated from an entry in the Cambridge 
# Structural Database, then it will include bibliographic, chemical, 
# crystal, experimental, refinement or atomic coordinate data resulting 
# from the CCDC's data processing and validation procedures.
#
#######################################################################

data_LEVKAZ
_chemical_formula_moiety         'C8 H22 S1 Si3'
_chemical_name_systematic        3,3-bis(trimethylsilyl)-1,3-thiasiletane
_symmetry_cell_setting           orthorhombic
_symmetry_space_group_name_H-M   'P b c n'
_symmetry_Int_Tables_number      60
_space_group_name_Hall           '-P 2n 2ab'
loop_
_symmetry_equiv_pos_site_id
_symmetry_equiv_pos_as_xyz
1 x,y,z
2 1/2-x,1/2-y,1/2+z
3 -x,y,1/2-z
4 1/2+x,1/2-y,-z
5 -x,-y,-z
6 1/2+x,1/2+y,1/2-z
7 x,-y,1/2+z
8 1/2-x,1/2+y,z
_cell_length_a                   12.2325(11)
_cell_length_b                   12.3562(11)
_cell_length_c                   9.6165(9)
_cell_angle_alpha                90
_cell_angle_beta                 90
_cell_angle_gamma                90
_cell_volume                     1453.51
_exptl_crystal_colour            colorless
_exptl_crystal_description       block
_cell_formula_units_Z            4
loop_
_atom_site_label
_atom_site_type_symbol
_atom_site_fract_x
_atom_site_fract_y
_atom_site_fract_z
Si1 Si 0.5000 0.30840(4) 0.2500
S1 S 0.5000 0.52359(4) 0.2500
C1 C 0.57548(13) 0.42086(11) 0.15303(16)
H1 H 0.6551 0.4219 0.1711
H2 H 0.5605 0.4219 0.0519
Si2 Si 0.38392(3) 0.20814(3) 0.10491(4)
C2 C 0.2658(5) 0.2990(4) 0.0568(7)
H3 H 0.2938 0.3664 0.0168
H4 H 0.2228 0.3154 0.1402
H5 H 0.2193 0.2623 -0.0115
C3 C 0.3330(6) 0.0811(5) 0.1761(7)
H6 H 0.3948 0.0355 0.2038
H7 H 0.2896 0.0434 0.1054
H8 H 0.2871 0.0960 0.2574
C4 C 0.4681(6) 0.1703(6) -0.0569(7)
H9 H 0.4988 0.2360 -0.0985
H10 H 0.4208 0.1340 -0.1247
H11 H 0.5276 0.1215 -0.0300
C1B C 0.42452(13) 0.42086(11) 0.34697(16)
H1B H 0.3449 0.4219 0.3289
H2B H 0.4395 0.4219 0.4481
Si2B Si 0.61608(3) 0.20814(3) 0.39509(4)
C2B C 0.7342(5) 0.2990(4) 0.4432(7)
H3B H 0.7062 0.3664 0.4832
H4B H 0.7772 0.3154 0.3598
H5B H 0.7807 0.2623 0.5115
C3B C 0.6670(6) 0.0811(5) 0.3239(7)
H6B H 0.6052 0.0355 0.2962
H7B H 0.7104 0.0434 0.3946
H8B H 0.7129 0.0960 0.2426
C4B C 0.5319(6) 0.1703(6) 0.5569(7)
H9B H 0.5012 0.2360 0.5985
H10B H 0.5792 0.1340 0.6247
H11B H 0.4724 0.1215 0.5300
C5? C 0.2869(5) 0.3043(4) 0.0196(7)
H12? H 0.3282 0.3583 -0.0334
H13? H 0.2429 0.3407 0.0908
H14? H 0.2386 0.2642 -0.0434
C6? C 0.3102(5) 0.1024(5) 0.2013(8)
H15? H 0.3629 0.0543 0.2468
H16? H 0.2650 0.0604 0.1367
H17? H 0.2634 0.1361 0.2718
C7? C 0.4635(6) 0.1431(6) -0.0397(7)
H18? H 0.5021 0.1990 -0.0927
H19? H 0.4134 0.1041 -0.1013
H20? H 0.5167 0.0922 -0.0004
C8? C 0.2469(5) 0.2783(5) 0.0922(7)
H21? H 0.2182 0.2913 0.1859
H22? H 0.1958 0.2325 0.0404
H23? H 0.2557 0.3476 0.0439
C9? C 0.3507(5) 0.0745(5) 0.2039(8)
H24? H 0.3206 0.0918 0.2956
H25? H 0.4178 0.0320 0.2150
H26? H 0.2971 0.0325 0.1507
C10? C 0.4388(5) 0.1848(5) -0.0679(6)
H27? H 0.5091 0.1472 -0.0605
H28? H 0.4494 0.2543 -0.1150
H29? H 0.3876 0.1403 -0.1214
loop_
_geom_bond_atom_site_label_1
_geom_bond_atom_site_label_2
_geom_bond_site_symmetry_1
_geom_bond_site_symmetry_2
Si1 C1 1_555 1_555
S1 C1 1_555 1_555
C1 H1 1_555 1_555
H2 C1 1_555 1_555
Si2 Si1 1_555 1_555
C2 Si2 1_555 1_555
H3 C2 1_555 1_555
H4 C2 1_555 1_555
H5 C2 1_555 1_555
C3 Si2 1_555 1_555
H6 C3 1_555 1_555
H7 C3 1_555 1_555
H8 C3 1_555 1_555
C4 Si2 1_555 1_555
H9 C4 1_555 1_555
H10 C4 1_555 1_555
H11 C4 1_555 1_555
C1B Si1 1_555 1_555
H1B C1B 1_555 1_555
H2B C1B 1_555 1_555
Si2B Si1 1_555 1_555
C2B Si2B 1_555 1_555
H3B C2B 1_555 1_555
H4B C2B 1_555 1_555
H5B C2B 1_555 1_555
C3B Si2B 1_555 1_555
H6B C3B 1_555 1_555
H7B C3B 1_555 1_555
H8B C3B 1_555 1_555
C4B Si2B 1_555 1_555
H9B C4B 1_555 1_555
H10B C4B 1_555 1_555
H11B C4B 1_555 1_555
S1 C1B 1_555 1_555

#END
