
#######################################################################
#
#                 Cambridge Crystallographic Data Centre
#                                CCDC 
#
#######################################################################
#
# If this CIF has been generated from an entry in the Cambridge 
# Structural Database, then it will include bibliographic, chemical, 
# crystal, experimental, refinement or atomic coordinate data resulting 
# from the CCDC's data processing and validation procedures.
#
#######################################################################

data_LEVKED
_chemical_formula_moiety         'C6 H16 I2 Si2 Te1'
_chemical_name_systematic        
1,1-Diiodo-3,3,4,4-tetramethyl-1\l^4^-1,3,4-telluradisilolane
_symmetry_cell_setting           tetragonal
_symmetry_space_group_name_H-M   'P 42 b c'
_symmetry_Int_Tables_number      106
_space_group_name_Hall           'P 4c -2ab'
loop_
_symmetry_equiv_pos_site_id
_symmetry_equiv_pos_as_xyz
1 x,y,z
2 -x,-y,z
3 -y,x,1/2+z
4 y,-x,1/2+z
5 1/2+x,1/2-y,z
6 1/2-x,1/2+y,z
7 1/2-y,1/2-x,1/2+z
8 1/2+y,1/2+x,1/2+z
_cell_length_a                   19.4457(8)
_cell_length_b                   19.4457(8)
_cell_length_c                   7.9176(6)
_cell_angle_alpha                90
_cell_angle_beta                 90
_cell_angle_gamma                90
_cell_volume                     2993.92
_exptl_crystal_colour            red
_exptl_crystal_description       needle
_cell_formula_units_Z            8
_exptl_crystal_recrystallization_method 2-ethoxyethanol
loop_
_atom_site_label
_atom_site_type_symbol
_atom_site_fract_x
_atom_site_fract_y
_atom_site_fract_z
Te1 Te 0.581689(18) 0.175703(18) 0.44223(7)
I1 I 0.64520(3) 0.25614(3) 0.71350(6)
I2 I 0.51220(3) 0.10250(3) 0.17621(8)
Si1 Si 0.42030(7) 0.24117(7) 0.4581(2)
Si2 Si 0.48737(9) 0.30390(9) 0.2652(2)
C1 C 0.5767(3) 0.2655(3) 0.2870(9)
H1 H 0.6077 0.3009 0.3349
H2 H 0.5941 0.2537 0.1731
C2 C 0.4853(3) 0.1837(3) 0.5701(8)
H3 H 0.4653 0.1371 0.5821
H4 H 0.4934 0.2020 0.6851
C3 C 0.3490(3) 0.1869(3) 0.3733(8)
H5 H 0.3245 0.1651 0.4672
H6 H 0.3681 0.1514 0.2992
H7 H 0.3171 0.2158 0.3091
C4 C 0.3853(4) 0.3028(3) 0.6180(8)
H8 H 0.3557 0.3365 0.5615
H9 H 0.4234 0.3267 0.6739
H10 H 0.3584 0.2776 0.7023
C5 C 0.4938(5) 0.3957(4) 0.3330(13)
H11 H 0.5268 0.4199 0.2604
H12 H 0.5095 0.3978 0.4505
H13 H 0.4486 0.4177 0.3235
C6 C 0.4602(4) 0.2988(5) 0.0387(9)
H14 H 0.4123 0.3138 0.0282
H15 H 0.4644 0.2512 -0.0009
H16 H 0.4898 0.3286 -0.0298
loop_
_geom_bond_atom_site_label_1
_geom_bond_atom_site_label_2
_geom_bond_site_symmetry_1
_geom_bond_site_symmetry_2
Te1 I1 1_555 1_555
I2 Te1 1_555 1_555
Si1 Si2 1_555 1_555
Si2 C1 1_555 1_555
C1 Te1 1_555 1_555
H1 C1 1_555 1_555
H2 C1 1_555 1_555
C2 Te1 1_555 1_555
H3 C2 1_555 1_555
H4 C2 1_555 1_555
C3 Si1 1_555 1_555
H5 C3 1_555 1_555
H6 C3 1_555 1_555
H7 C3 1_555 1_555
C4 Si1 1_555 1_555
H8 C4 1_555 1_555
H9 C4 1_555 1_555
H10 C4 1_555 1_555
C5 Si2 1_555 1_555
H11 C5 1_555 1_555
H12 C5 1_555 1_555
H13 C5 1_555 1_555
C6 Si2 1_555 1_555
H14 C6 1_555 1_555
H15 C6 1_555 1_555
H16 C6 1_555 1_555
Si1 C2 1_555 1_555

#END
