
#######################################################################
#
#                 Cambridge Crystallographic Data Centre
#                                CCDC 
#
#######################################################################
#
# If this CIF has been generated from an entry in the Cambridge 
# Structural Database, then it will include bibliographic, chemical, 
# crystal, experimental, refinement or atomic coordinate data resulting 
# from the CCDC's data processing and validation procedures.
#
#######################################################################

data_LEVNUX
_chemical_formula_moiety         
'C46 H52 N14 O6 2+,2(C1 H4 O1),3(H2 O1),2(Cl1 1-)'
_chemical_name_systematic        
'16,18,34,36-Tetrabutoxy-8,26-dioxo-2,5,7,9,11,14,20,23,25,27,29,32,39,43-tetradecaazanonacyclo[31.3.1.1^2,5^.1^6,10^.1^11,14^.1^15,19^.1^20,23^.1^24,2 8^.1^29,32^]tetratetraconta-1(37),2(44),3,6,9,12,14(42),15(41),16,18,20(40),21,2 4,27,30,32(38),33,35-octadecaene-2,14,20,32-tetraium-39,43-diide dichloride methanol solvate trihydrate'
_symmetry_cell_setting           monoclinic
_symmetry_space_group_name_H-M   'P 21/n'
_symmetry_Int_Tables_number      14
_space_group_name_Hall           '-P 2yn'
loop_
_symmetry_equiv_pos_site_id
_symmetry_equiv_pos_as_xyz
1 x,y,z
2 1/2-x,1/2+y,1/2-z
3 -x,-y,-z
4 1/2+x,1/2-y,1/2+z
_cell_length_a                   14.9174(6)
_cell_length_b                   22.8283(7)
_cell_length_c                   16.9320(6)
_cell_angle_alpha                90
_cell_angle_beta                 113.615(4)
_cell_angle_gamma                90
_cell_volume                     5283.15
_exptl_crystal_colour            colorless
_exptl_crystal_description       block
_cell_formula_units_Z            4
loop_
_atom_site_label
_atom_site_type_symbol
_atom_site_fract_x
_atom_site_fract_y
_atom_site_fract_z
Cl1 Cl 0.55778(6) 0.44828(4) 0.77398(5)
Cl2 Cl 0.42260(10) 0.25384(6) 0.73625(9)
O1 O 0.6023(2) 0.43605(15) 1.0921(2)
O2 O 0.2476(3) 0.44060(16) 0.9874(2)
O3 O -0.1423(2) 0.26924(17) 0.5147(2)
O4 O 0.2641(2) 0.44765(15) 0.3503(2)
O5 O 0.6179(2) 0.43768(15) 0.4804(2)
O6 O 0.9883(2) 0.25416(18) 0.9346(2)
N1 N 0.2369(3) 0.35222(17) 0.8773(2)
N2 N 0.1243(3) 0.32562(18) 0.7561(3)
N3 N 0.1295(3) 0.33156(18) 0.6218(3)
N4 N -0.0122(3) 0.29452(19) 0.6367(3)
N5 N -0.0052(3) 0.29761(18) 0.4976(3)
N6 N 0.1352(3) 0.33315(17) 0.4871(2)
N7 N 0.2532(3) 0.36078(16) 0.4533(2)
N8 N 0.6099(3) 0.34895(17) 0.5802(2)
N9 N 0.7213(3) 0.31580(17) 0.6977(2)
N10 N 0.7135(3) 0.31153(18) 0.8298(2)
N11 N 0.8579(3) 0.28138(19) 0.8130(3)
N12 N 0.8492(3) 0.27594(18) 0.9519(3)
N13 N 0.7063(3) 0.30868(17) 0.9626(2)
N14 N 0.5919(3) 0.34217(17) 0.9964(2)
C1 C 0.5110(3) 0.4174(2) 1.0459(3)
C2 C 0.4258(3) 0.4418(2) 1.0470(3)
H9 H 0.4297 0.4728 1.0840
C3 C 0.3352(3) 0.4200(2) 0.9928(3)
C4 C 0.3301(3) 0.3735(2) 0.9370(3)
C5 C 0.4138(3) 0.3479(2) 0.9373(3)
H10 H 0.4098 0.3164 0.9011
C6 C 0.5032(3) 0.3695(2) 0.9917(3)
C7 C 0.2134(3) 0.3496(2) 0.7934(3)
H11 H 0.2521 0.3622 0.7651
C8 C 0.1607(3) 0.3280(2) 0.8948(3)
H12 H 0.1587 0.3239 0.9488
C9 C 0.0912(4) 0.3119(2) 0.8192(3)
H13 H 0.0315 0.2946 0.8106
C10 C 0.0761(3) 0.3162(2) 0.6652(3)
C11 C -0.0568(3) 0.2861(2) 0.5485(3)
C12 C 0.0819(3) 0.3196(2) 0.5388(3)
C13 C 0.2268(3) 0.35526(19) 0.5184(3)
H14 H 0.2644 0.3648 0.5756
C14 C 0.1039(3) 0.3247(2) 0.3992(3)
H15 H 0.0437 0.3098 0.3622
C15 C 0.1768(3) 0.3420(2) 0.3775(3)
H16 H 0.1766 0.3416 0.3225
C16 C 0.3476(3) 0.3815(2) 0.4597(3)
C17 C 0.3510(3) 0.4260(2) 0.4048(3)
C18 C 0.4410(3) 0.4450(2) 0.4082(3)
H17 H 0.4440 0.4738 0.3705
C19 C 0.5268(3) 0.4205(2) 0.4685(3)
C20 C 0.5205(3) 0.3760(2) 0.5220(3)
C21 C 0.4319(3) 0.3564(2) 0.5183(3)
H18 H 0.4290 0.3266 0.5547
C22 C 0.6350(3) 0.3437(2) 0.6642(3)
H19 H 0.5992 0.3571 0.6947
C23 C 0.6817(3) 0.3230(2) 0.5590(3)
H20 H 0.6814 0.3203 0.5041
C24 C 0.7511(3) 0.3028(2) 0.6318(3)
H21 H 0.8084 0.2837 0.6373
C25 C 0.7690(3) 0.3011(2) 0.7857(3)
C26 C 0.9020(3) 0.2696(2) 0.9007(3)
C27 C 0.7611(3) 0.2976(2) 0.9118(3)
C28 C 0.6199(3) 0.3368(2) 0.9322(3)
H22 H 0.5860 0.3500 0.8761
C29 C 0.6627(3) 0.3175(2) 1.0705(3)
H23 H 0.6607 0.3159 1.1246
C30 C 0.7339(3) 0.2966(2) 1.0494(3)
H24 H 0.7907 0.2777 1.0858
C31 C 0.6196(4) 0.4777(3) 1.1606(3)
H25 H 0.5964 0.4623 1.2025
H26 H 0.5856 0.5141 1.1377
C32 C 0.7287(4) 0.4878(3) 1.2020(4)
H27 H 0.7433 0.5228 1.2374
H28 H 0.7545 0.4927 1.1582
C33 C 0.7744(9) 0.4346(6) 1.2572(10)
H29 H 0.7650 0.4004 1.2208
H30 H 0.7431 0.4274 1.2966
C34 C 0.8844(9) 0.4453(8) 1.3085(10)
H31 H 0.9104 0.4661 1.2732
H32 H 0.9175 0.4084 1.3254
H33 H 0.8940 0.4681 1.3589
C35 C 0.2519(12) 0.5007(9) 1.0245(13)
H34 H 0.2764 0.5292 0.9956
H35 H 0.2928 0.5012 1.0858
C36 C 0.1442(7) 0.5125(5) 1.0072(7)
H36 H 0.1061 0.4768 0.9982
H37 H 0.1369 0.5358 1.0522
C37 C 0.1209(11) 0.5464(7) 0.9253(9)
H38 H 0.1851 0.5564 0.9277
H39 H 0.0963 0.5164 0.8812
C38 C 0.0620(17) 0.5975(7) 0.8838(14)
H40 H 0.0085 0.5856 0.8319
H41 H 0.1019 0.6253 0.8700
H42 H 0.0370 0.6153 0.9223
C39 C 0.2640(4) 0.4972(3) 0.2982(4)
H43 H 0.2962 0.4872 0.2603
H44 H 0.2988 0.5296 0.3345
C40 C 0.1605(5) 0.5138(3) 0.2465(5)
H45 H 0.1237 0.4800 0.2154
H46 H 0.1574 0.5439 0.2049
C41 C 0.1179(9) 0.5365(6) 0.3073(9)
H47 H 0.1012 0.5034 0.3348
H48 H 0.1674 0.5592 0.3520
C42 C 0.0313(11) 0.5726(7) 0.2661(11)
H49 H -0.0117 0.5543 0.2135
H50 H 0.0503 0.6105 0.2535
H51 H -0.0017 0.5770 0.3041
C43 C 0.6308(4) 0.4770(3) 0.4191(3)
H52 H 0.5961 0.5134 0.4160
H53 H 0.6060 0.4593 0.3622
C44 C 0.7396(4) 0.4882(2) 0.4505(4)
H54 H 0.7558 0.5194 0.4928
H55 H 0.7518 0.5030 0.4021
C45 C 0.8146(7) 0.4359(5) 0.4923(9)
H56 H 0.7972 0.4166 0.5352
H57 H 0.8079 0.4075 0.4477
C46 C 0.9211(8) 0.4550(7) 0.5344(10)
H58 H 0.9366 0.4789 0.4950
H59 H 0.9625 0.4210 0.5493
H60 H 0.9314 0.4770 0.5856
O7 O 0.8016(6) 0.6578(5) 0.7990(5)
H1 H 0.8183 0.6286 0.7803
C47 C 0.7382(10) 0.6434(5) 0.8297(8)
H61 H 0.6987 0.6117 0.7964
H62 H 0.6973 0.6765 0.8268
H63 H 0.7716 0.6313 0.8886
O8 O 0.3894(5) 0.6651(4) 0.7659(4)
H2 H 0.3464 0.6857 0.7316
C48 C 0.4693(7) 0.6622(4) 0.7415(6)
H64 H 0.5172 0.6910 0.7730
H65 H 0.4469 0.6697 0.6808
H66 H 0.4980 0.6239 0.7540
O9 O 0.5491(5) 0.2270(3) 0.6229(3)
H3 H 0.5192 0.2215 0.5690
H4 H 0.5794 0.1959 0.6466
O10 O 0.3563(3) 0.38285(18) 0.7067(3)
H5 H 0.3742 0.3472 0.7140
H6 H 0.4061 0.4049 0.7286
O11 O 0.2746(3) 0.2203(2) 0.8338(3)
H7 H 0.3011 0.2236 0.8884
H8 H 0.3186 0.2213 0.8138
C49? C 0.7989(8) 0.4333(6) 1.2149(11)
C50? C 0.9092(9) 0.4467(8) 1.2432(11)
C51? C 0.2419(15) 0.4845(8) 1.0460(15)
C52? C 0.2087(13) 0.5416(6) 1.0029(11)
C53? C 0.1297(8) 0.5754(5) 1.0229(9)
C54? C 0.0267(8) 0.5881(6) 1.0143(10)
C55? C 0.1411(15) 0.5714(8) 0.2029(15)
C56? C 0.0478(18) 0.5781(11) 0.1217(18)
C57? C 0.7847(8) 0.4333(5) 0.4345(9)
C58? C 0.8916(8) 0.4437(6) 0.4581(11)
H67? H 0.7440 0.5052 1.2582
H68? H 0.7449 0.5165 1.1676
H69? H 0.7916 0.4076 1.2576
H70? H 0.7767 0.4117 1.1610
H71? H 0.9240 0.4501 1.1931
H72? H 0.9472 0.4155 1.2791
H73? H 0.9249 0.4828 1.2749
H74? H 0.3058 0.4892 1.0927
H75? H 0.1969 0.4715 1.0708
H76? H 0.1833 0.5352 0.9412
H77? H 0.2655 0.5668 1.0181
H78? H 0.1604 0.5726 1.0852
H79? H 0.1462 0.6146 1.0111
H80? H -0.0183 0.5813 0.9558
H81? H 0.0222 0.6281 1.0295
H82? H 0.0108 0.5627 1.0521
H83? H 0.1318 0.4840 0.2028
H84? H 0.1259 0.5126 0.2843
H85? H 0.1960 0.5807 0.1883
H86? H 0.1398 0.6005 0.2442
H87? H 0.0445 0.5475 0.0818
H88? H 0.0481 0.6155 0.0958
H89? H -0.0079 0.5756 0.1364
H90? H 0.7519 0.5208 0.4195
H91? H 0.7670 0.4974 0.5116
H92? H 0.7530 0.4224 0.3742
H93? H 0.7761 0.4015 0.4688
H94? H 0.8999 0.4669 0.4142
H95? H 0.9243 0.4068 0.4631
H96? H 0.9190 0.4641 0.5122
loop_
_geom_bond_atom_site_label_1
_geom_bond_atom_site_label_2
_geom_bond_site_symmetry_1
_geom_bond_site_symmetry_2
O1 C1 1_555 1_555
O2 C3 1_555 1_555
O3 C11 1_555 1_555
O4 C17 1_555 1_555
O5 C19 1_555 1_555
O6 C26 1_555 1_555
O7 H1 1_555 1_555
O8 H2 1_555 1_555
O9 H3 1_555 1_555
H4 O9 1_555 1_555
O10 H5 1_555 1_555
H6 O10 1_555 1_555
O11 H7 1_555 1_555
H8 O11 1_555 1_555
N1 C4 1_555 1_555
N2 C7 1_555 1_555
N3 C10 1_555 1_555
N4 C10 1_555 1_555
N5 C11 1_555 1_555
N6 C12 1_555 1_555
N7 C13 1_555 1_555
N8 C20 1_555 1_555
N9 C22 1_555 1_555
N10 C25 1_555 1_555
N11 C25 1_555 1_555
N12 C26 1_555 1_555
N13 C27 1_555 1_555
N14 C6 1_555 1_555
C1 C2 1_555 1_555
C2 H9 1_555 1_555
C3 C2 1_555 1_555
C4 C3 1_555 1_555
C5 C4 1_555 1_555
H10 C5 1_555 1_555
C6 C1 1_555 1_555
C7 N1 1_555 1_555
H11 C7 1_555 1_555
C8 N1 1_555 1_555
H12 C8 1_555 1_555
C9 N2 1_555 1_555
H13 C9 1_555 1_555
C10 N2 1_555 1_555
C11 N4 1_555 1_555
C12 N3 1_555 1_555
C13 N6 1_555 1_555
H14 C13 1_555 1_555
C14 N6 1_555 1_555
H15 C14 1_555 1_555
C15 N7 1_555 1_555
H16 C15 1_555 1_555
C16 N7 1_555 1_555
C17 C16 1_555 1_555
C18 C17 1_555 1_555
H17 C18 1_555 1_555
C19 C18 1_555 1_555
C20 C19 1_555 1_555
C21 C16 1_555 1_555
H18 C21 1_555 1_555
C22 N8 1_555 1_555
H19 C22 1_555 1_555
C23 N8 1_555 1_555
H20 C23 1_555 1_555
C24 N9 1_555 1_555
H21 C24 1_555 1_555
C25 N9 1_555 1_555
C26 N11 1_555 1_555
C27 N10 1_555 1_555
C28 N13 1_555 1_555
H22 C28 1_555 1_555
C29 N14 1_555 1_555
H23 C29 1_555 1_555
C30 N13 1_555 1_555
H24 C30 1_555 1_555
C31 O1 1_555 1_555
H25 C31 1_555 1_555
H26 C31 1_555 1_555
C32 C31 1_555 1_555
H27 C32 1_555 1_555
H28 C32 1_555 1_555
C33 C32 1_555 1_555
H29 C33 1_555 1_555
H30 C33 1_555 1_555
C34 C33 1_555 1_555
H31 C34 1_555 1_555
H32 C34 1_555 1_555
H33 C34 1_555 1_555
C35 O2 1_555 1_555
H34 C35 1_555 1_555
H35 C35 1_555 1_555
C36 C35 1_555 1_555
H36 C36 1_555 1_555
H37 C36 1_555 1_555
C37 C36 1_555 1_555
H38 C37 1_555 1_555
H39 C37 1_555 1_555
C38 C37 1_555 1_555
H40 C38 1_555 1_555
H41 C38 1_555 1_555
H42 C38 1_555 1_555
C39 O4 1_555 1_555
H43 C39 1_555 1_555
H44 C39 1_555 1_555
C40 C39 1_555 1_555
H45 C40 1_555 1_555
H46 C40 1_555 1_555
C41 C40 1_555 1_555
H47 C41 1_555 1_555
H48 C41 1_555 1_555
C42 C41 1_555 1_555
H49 C42 1_555 1_555
H50 C42 1_555 1_555
H51 C42 1_555 1_555
C43 O5 1_555 1_555
H52 C43 1_555 1_555
H53 C43 1_555 1_555
C44 C43 1_555 1_555
H54 C44 1_555 1_555
H55 C44 1_555 1_555
C45 C44 1_555 1_555
H56 C45 1_555 1_555
H57 C45 1_555 1_555
C46 C45 1_555 1_555
H58 C46 1_555 1_555
H59 C46 1_555 1_555
H60 C46 1_555 1_555
C47 O7 1_555 1_555
H61 C47 1_555 1_555
H62 C47 1_555 1_555
H63 C47 1_555 1_555
C48 O8 1_555 1_555
H64 C48 1_555 1_555
H65 C48 1_555 1_555
H66 C48 1_555 1_555
N5 C12 1_555 1_555
N12 C27 1_555 1_555
N14 C28 1_555 1_555
C5 C6 1_555 1_555
C8 C9 1_555 1_555
C14 C15 1_555 1_555
C20 C21 1_555 1_555
C23 C24 1_555 1_555
C29 C30 1_555 1_555

#END
