
#######################################################################
#
#                 Cambridge Crystallographic Data Centre
#                                CCDC 
#
#######################################################################
#
# If this CIF has been generated from an entry in the Cambridge 
# Structural Database, then it will include bibliographic, chemical, 
# crystal, experimental, refinement or atomic coordinate data resulting 
# from the CCDC's data processing and validation procedures.
#
#######################################################################

data_LEVRIN
_chemical_formula_moiety         'C26 H30 N2 S2'
_chemical_name_systematic        
1,3-Dibenzyl-2-(4',4'-dimethyl-2',6'-dithioxocyclohexylidene)hexahydropyrimidine
_symmetry_cell_setting           orthorhombic
_symmetry_space_group_name_H-M   'P b c a'
_symmetry_Int_Tables_number      61
_space_group_name_Hall           '-P 2ac 2ab'
loop_
_symmetry_equiv_pos_site_id
_symmetry_equiv_pos_as_xyz
1 x,y,z
2 1/2-x,-y,1/2+z
3 1/2+x,1/2-y,-z
4 -x,1/2+y,1/2-z
5 -x,-y,-z
6 1/2+x,y,1/2-z
7 1/2-x,1/2+y,z
8 x,1/2-y,1/2+z
_cell_length_a                   18.211(5)
_cell_length_b                   10.374(4)
_cell_length_c                   25.146(8)
_cell_angle_alpha                90
_cell_angle_beta                 90
_cell_angle_gamma                90
_cell_volume                     4750.61
_exptl_crystal_colour            orange
_chemical_melting_point          207deg.C
_cell_formula_units_Z            8
loop_
_atom_site_label
_atom_site_type_symbol
_atom_site_fract_x
_atom_site_fract_y
_atom_site_fract_z
S1 S -0.0016(4) -0.0125(7) 0.6262(2)
S2 S 0.2718(3) 0.1885(7) 0.6402(2)
N1 N 0.0906(9) 0.2679(18) 0.6757(7)
N2 N 0.1185(8) 0.0846(18) 0.7212(7)
C1 C 0.1168(12) 0.1476(23) 0.6763(9)
C2 C 0.1401(12) 0.0816(21) 0.6271(8)
C3 C 0.0843(11) 0.0068(23) 0.6024(7)
C4 C 0.1052(11) -0.0640(20) 0.5515(8)
C5 C 0.1663(13) 0.0022(28) 0.5202(9)
C6 C 0.2298(10) 0.0272(22) 0.5585(7)
C7 C 0.2116(10) 0.0985(22) 0.6089(8)
C8 C 0.0585(13) 0.3313(24) 0.7244(9)
C9 C 0.0310(11) 0.2330(23) 0.7624(8)
C10 C 0.0913(11) 0.1370(21) 0.7742(8)
C11 C 0.1030(10) 0.3584(20) 0.6308(9)
C12 C 0.0322(13) 0.4197(24) 0.6079(9)
C13 C -0.0246(14) 0.3492(30) 0.5892(11)
C14 C -0.0832(20) 0.4138(33) 0.5672(14)
C15 C -0.0824(16) 0.5443(29) 0.5630(10)
C16 C -0.0237(9) 0.6132(14) 0.5834(6)
C17 C 0.0370 0.5596 0.6075
C18 C 0.1468 -0.0525 0.7241
C19 C 0.2032(14) -0.0700(25) 0.7715(9)
C20 C 0.2618(13) 0.0058(25) 0.7743(8)
C21 C 0.3134(12) -0.0170(29) 0.8146(9)
C22 C 0.2991(13) -0.1150(25) 0.8495(10)
C23 C 0.2411(14) -0.1873(30) 0.8463(9)
C24 C 0.1862(13) -0.1670(26) 0.8075(10)
C25 C 0.1399(11) 0.1267(17) 0.4958(9)
C26 C 0.1919(11) -0.0895(22) 0.4755(8)
H1 H 0.0626 -0.0736 0.5294
H2 H 0.1225 -0.1483 0.5612
H3 H 0.2672 0.0735 0.5396
H4 H 0.2498 -0.0548 0.5687
H5 H 0.0196 0.3877 0.7135
H6 H 0.0958 0.3818 0.7416
H7 H -0.0078 0.1852 0.7457
H8 H 0.0118 0.2726 0.7940
H9 H 0.1302 0.1839 0.7911
H10 H 0.0751 0.0698 0.7977
H11 H 0.1289 0.3152 0.6027
H12 H 0.1335 0.4274 0.6434
H13 H -0.0248 0.2602 0.5949
H14 H -0.1214 0.3608 0.5503
H15 H -0.1248 0.5856 0.5490
H16 H -0.0229 0.7153 0.5819
H17 H 0.1707 -0.0729 0.6911
H18 H 0.1060 -0.1102 0.7285
H19 H 0.2685 0.0736 0.7495
H20 H 0.3347 -0.1304 0.8770
H21 H 0.2335 -0.2556 0.8715
H22 H 0.1431 -0.2198 0.8052
H23 H 0.1225 0.1855 0.5225
H24 H 0.1809 0.1643 0.4776
H25 H 0.1012 0.1096 0.4708
H26 H 0.2078 -0.1708 0.4896
H27 H 0.1525 -0.1032 0.4509
H28 H 0.2322 -0.0485 0.4576
H29? H 0.0761 0.3750 0.6243
H30? H 0.1635 -0.0570 0.7437
loop_
_geom_bond_atom_site_label_1
_geom_bond_atom_site_label_2
_geom_bond_site_symmetry_1
_geom_bond_site_symmetry_2
S1 C3 1_555 1_555
S2 C7 1_555 1_555
N1 C1 1_555 1_555
N2 C1 1_555 1_555
C1 C2 1_555 1_555
C2 C3 1_555 1_555
C3 C4 1_555 1_555
C4 C5 1_555 1_555
C5 C6 1_555 1_555
C6 C7 1_555 1_555
C7 C2 1_555 1_555
C8 N1 1_555 1_555
C9 C8 1_555 1_555
C10 N2 1_555 1_555
C11 N1 1_555 1_555
C12 C11 1_555 1_555
C13 C12 1_555 1_555
C14 C13 1_555 1_555
C15 C14 1_555 1_555
C16 C15 1_555 1_555
C17 C12 1_555 1_555
C18 N2 1_555 1_555
C19 C18 1_555 1_555
C20 C19 1_555 1_555
C21 C20 1_555 1_555
C22 C21 1_555 1_555
C23 C22 1_555 1_555
C24 C19 1_555 1_555
C25 C5 1_555 1_555
C26 C5 1_555 1_555
H1 C4 1_555 1_555
H2 C4 1_555 1_555
H3 C6 1_555 1_555
H4 C6 1_555 1_555
H5 C8 1_555 1_555
H6 C8 1_555 1_555
H7 C9 1_555 1_555
H8 C9 1_555 1_555
H9 C10 1_555 1_555
H10 C10 1_555 1_555
H11 C11 1_555 1_555
H12 C11 1_555 1_555
H13 C13 1_555 1_555
H14 C14 1_555 1_555
H15 C15 1_555 1_555
H16 C16 1_555 1_555
H17 C18 1_555 1_555
H18 C18 1_555 1_555
H19 C20 1_555 1_555
H20 C22 1_555 1_555
H21 C23 1_555 1_555
H22 C24 1_555 1_555
H23 C25 1_555 1_555
H24 C25 1_555 1_555
H25 C25 1_555 1_555
H26 C26 1_555 1_555
H27 C26 1_555 1_555
H28 C26 1_555 1_555
C9 C10 1_555 1_555
C16 C17 1_555 1_555
C23 C24 1_555 1_555

#END
