
#######################################################################
#
#                 Cambridge Crystallographic Data Centre
#                                CCDC 
#
#######################################################################
#
# If this CIF has been generated from an entry in the Cambridge 
# Structural Database, then it will include bibliographic, chemical, 
# crystal, experimental, refinement or atomic coordinate data resulting 
# from the CCDC's data processing and validation procedures.
#
#######################################################################

data_LEVVEQ
_chemical_formula_moiety         'C20 H20 Cl2 O3'
_chemical_name_systematic        
4,4''-dichloro-6'-(hydroxymethyl)-5'-methyl-1',4',5',6'-tetrahydro-1,1':2',1''-terphenyl-4',5'-diol
_symmetry_cell_setting           monoclinic
_symmetry_space_group_name_H-M   'P 21/c'
_symmetry_Int_Tables_number      14
_space_group_name_Hall           '-P 2ybc'
loop_
_symmetry_equiv_pos_site_id
_symmetry_equiv_pos_as_xyz
1 x,y,z
2 -x,1/2+y,1/2-z
3 -x,-y,-z
4 x,1/2-y,1/2+z
_cell_length_a                   12.257(5)
_cell_length_b                   9.615(4)
_cell_length_c                   15.599(7)
_cell_angle_alpha                90
_cell_angle_beta                 95.525(5)
_cell_angle_gamma                90
_cell_volume                     1829.82
_exptl_crystal_colour            colorless
_exptl_crystal_description       prism
_cell_formula_units_Z            4
loop_
_atom_site_label
_atom_site_type_symbol
_atom_site_fract_x
_atom_site_fract_y
_atom_site_fract_z
Cl1 Cl 0.42890(6) -0.15282(8) 0.55488(5)
Cl2 Cl 0.62412(6) 0.52273(9) 0.36318(6)
O1 O -0.04101(14) 0.17926(17) 0.17099(10)
H1 H 0.0038 0.1192 0.1872
O2 O -0.08435(13) 0.43793(15) 0.33310(10)
H2 H -0.0961 0.4421 0.3839
O3 O -0.08598(16) 0.32288(19) 0.49276(10)
H3 H -0.0710 0.3240 0.5451
C1 C 0.33680(17) -0.0305(2) 0.50823(15)
C2 C 0.29885(19) -0.0411(2) 0.42258(15)
H4 H 0.3215 -0.1141 0.3894
C3 C 0.22695(18) 0.0575(2) 0.38648(14)
H5 H 0.2022 0.0511 0.3284
C4 C 0.19052(16) 0.1665(2) 0.43495(13)
C5 C 0.23058(19) 0.1741(3) 0.52089(14)
H6 H 0.2084 0.2467 0.5546
C6 C 0.3033(2) 0.0753(3) 0.55763(14)
H7 H 0.3291 0.0813 0.6156
C7 C 0.11065(16) 0.2740(2) 0.39356(13)
H8 H 0.1063 0.3505 0.4346
C8 C -0.00496(16) 0.2112(2) 0.37570(13)
H9 H 0.0044 0.1183 0.3516
C9 C -0.05735(19) 0.1910(2) 0.45962(14)
H10 H -0.1225 0.1337 0.4493
H11 H -0.0064 0.1438 0.5013
C10 C -0.07742(17) 0.2938(2) 0.30754(13)
C11 C -0.19253(18) 0.2342(3) 0.29167(16)
H12 H -0.1883 0.1366 0.2793
H13 H -0.2314 0.2809 0.2436
H14 H -0.2306 0.2474 0.3420
C12 C -0.02223(18) 0.3006(2) 0.22319(13)
H15 H -0.0578 0.3774 0.1900
C13 C 0.09655(18) 0.3381(2) 0.23775(13)
H16 H 0.1314 0.3673 0.1905
C14 C 0.15556(17) 0.3325(2) 0.31376(13)
C15 C 0.27173(17) 0.3819(2) 0.32557(13)
C16 C 0.3041(2) 0.4843(3) 0.38487(16)
H17 H 0.2529 0.5231 0.4181
C17 C 0.4122(2) 0.5300(3) 0.39547(18)
H18 H 0.4332 0.6000 0.4348
C18 C 0.48724(19) 0.4705(3) 0.34736(17)
C19 C 0.4581(2) 0.3684(3) 0.28883(17)
H19 H 0.5098 0.3291 0.2563
C20 C 0.35034(19) 0.3244(3) 0.27871(15)
H20 H 0.3302 0.2543 0.2393
loop_
_geom_bond_atom_site_label_1
_geom_bond_atom_site_label_2
_geom_bond_site_symmetry_1
_geom_bond_site_symmetry_2
Cl1 C1 1_555 1_555
Cl2 C18 1_555 1_555
O1 H1 1_555 1_555
O2 H2 1_555 1_555
O3 H3 1_555 1_555
C1 C2 1_555 1_555
C2 H4 1_555 1_555
C3 C2 1_555 1_555
H5 C3 1_555 1_555
C4 C3 1_555 1_555
C5 C4 1_555 1_555
H6 C5 1_555 1_555
C6 C1 1_555 1_555
H7 C6 1_555 1_555
C7 C4 1_555 1_555
H8 C7 1_555 1_555
C8 C7 1_555 1_555
H9 C8 1_555 1_555
C9 O3 1_555 1_555
H10 C9 1_555 1_555
H11 C9 1_555 1_555
C10 O2 1_555 1_555
C11 C10 1_555 1_555
H12 C11 1_555 1_555
H13 C11 1_555 1_555
H14 C11 1_555 1_555
C12 O1 1_555 1_555
H15 C12 1_555 1_555
C13 C12 1_555 1_555
H16 C13 1_555 1_555
C14 C7 1_555 1_555
C15 C14 1_555 1_555
C16 C15 1_555 1_555
H17 C16 1_555 1_555
C17 C16 1_555 1_555
H18 C17 1_555 1_555
C18 C17 1_555 1_555
C19 C18 1_555 1_555
H19 C19 1_555 1_555
C20 C15 1_555 1_555
H20 C20 1_555 1_555
C5 C6 1_555 1_555
C8 C9 1_555 1_555
C8 C10 1_555 1_555
C10 C12 1_555 1_555
C13 C14 1_555 1_555
C19 C20 1_555 1_555

#END
