
#######################################################################
#
#                 Cambridge Crystallographic Data Centre
#                                CCDC 
#
#######################################################################
#
# If this CIF has been generated from an entry in the Cambridge 
# Structural Database, then it will include bibliographic, chemical, 
# crystal, experimental, refinement or atomic coordinate data resulting 
# from the CCDC's data processing and validation procedures.
#
#######################################################################

data_LEVXOZ
_chemical_formula_moiety         'C12 H1 F7 O1'
_chemical_name_systematic        
1,2-Dihydro-1,1,4,5,6,7,8-heptafluorocyclobuta(a)naphthalen-2-one
_symmetry_cell_setting           monoclinic
_symmetry_space_group_name_H-M   'P 21/c'
_symmetry_Int_Tables_number      14
_space_group_name_Hall           '-P 2ybc'
loop_
_symmetry_equiv_pos_site_id
_symmetry_equiv_pos_as_xyz
1 x,y,z
2 -x,1/2+y,1/2-z
3 -x,-y,-z
4 x,1/2-y,1/2+z
_cell_length_a                   7.322(2)
_cell_length_b                   12.377(2)
_cell_length_c                   11.823(3)
_cell_angle_alpha                90
_cell_angle_beta                 106.80(2)
_cell_angle_gamma                90
_cell_volume                     1025.72
_exptl_crystal_colour            colorless
_chemical_melting_point          99.5-100deg.C
_cell_formula_units_Z            4
loop_
_atom_site_label
_atom_site_type_symbol
_atom_site_fract_x
_atom_site_fract_y
_atom_site_fract_z
F1 F 0.4539(4) 0.2141(3) 0.1331(3)
F2 F 0.1872(4) 0.2836(3) -0.0430(3)
F3 F -0.1796(4) 0.2802(3) -0.1666(2)
F4 F -0.4335(4) 0.1569(3) -0.1040(3)
F5 F -0.3169(4) 0.0271(3) 0.0917(3)
F6 F -0.0657(5) -0.1483(3) 0.2623(3)
F7 F -0.1103(5) -0.0156(3) 0.3691(3)
O1 O 0.3187(6) -0.1019(3) 0.4667(3)
C1 C 0.0701(7) 0.0244(4) 0.2302(4)
C2 C 0.2577(7) 0.0246(4) 0.2929(4)
C3 C 0.3979(8) 0.0872(4) 0.2639(5)
C4 C 0.3306(7) 0.1497(5) 0.1661(4)
C5 C 0.0683(7) 0.2188(4) -0.0070(4)
C6 C -0.1184(7) 0.2188(5) -0.0702(4)
C7 C -0.2504(8) 0.1540(5) -0.0377(5)
C8 C -0.1929(7) 0.0902(4) 0.0590(4)
C9 C -0.0014(7) 0.0890(4) 0.1277(4)
C10 C 0.1367(7) 0.1545(4) 0.0950(4)
C11 C 0.0093(8) -0.0526(5) 0.3100(5)
C12 C 0.2283(8) -0.0550(4) 0.3819(5)
H1 H 0.5299 0.0857 0.3091
loop_
_geom_bond_atom_site_label_1
_geom_bond_atom_site_label_2
_geom_bond_site_symmetry_1
_geom_bond_site_symmetry_2
F1 C4 1_555 1_555
F2 C5 1_555 1_555
F3 C6 1_555 1_555
F4 C7 1_555 1_555
F5 C8 1_555 1_555
F6 C11 1_555 1_555
F7 C11 1_555 1_555
O1 C12 1_555 1_555
C1 C2 1_555 1_555
C2 C3 1_555 1_555
C3 C4 1_555 1_555
C4 C10 1_555 1_555
C5 C6 1_555 1_555
C6 C7 1_555 1_555
C7 C8 1_555 1_555
C8 C9 1_555 1_555
C9 C1 1_555 1_555
C10 C5 1_555 1_555
C11 C1 1_555 1_555
C12 C2 1_555 1_555
H1 C3 1_555 1_555
C9 C10 1_555 1_555
C11 C12 1_555 1_555

#END
