
#######################################################################
#
#                 Cambridge Crystallographic Data Centre
#                                CCDC 
#
#######################################################################
#
# If this CIF has been generated from an entry in the Cambridge 
# Structural Database, then it will include bibliographic, chemical, 
# crystal, experimental, refinement or atomic coordinate data resulting 
# from the CCDC's data processing and validation procedures.
#
#######################################################################

data_LEWLAB
_chemical_name_common            
'Methylazacalix(2)benzene(2)pyridine perchloric acid dichloromethane solvate'
_chemical_formula_moiety         'C26 H27 N6 1+,Cl1 O4 1-,C1 H2 Cl2'
_chemical_name_systematic        
'2,4,6,8-Tetramethyl-2,4,6,8-tetra-aza-3,7-(1,3)-dibenzena-1,5-(2,6)-dipyridinaoctacyclophane perchloric acid dichloromethane solvate'
_symmetry_cell_setting           orthorhombic
_symmetry_space_group_name_H-M   'P n a 21'
_symmetry_Int_Tables_number      33
_space_group_name_Hall           'P 2c -2n'
loop_
_symmetry_equiv_pos_site_id
_symmetry_equiv_pos_as_xyz
1 x,y,z
2 -x,-y,1/2+z
3 1/2+x,1/2-y,z
4 1/2-x,1/2+y,1/2+z
_cell_length_a                   15.774(3)
_cell_length_b                   13.473(3)
_cell_length_c                   13.507(3)
_cell_angle_alpha                90
_cell_angle_beta                 90
_cell_angle_gamma                90
_cell_volume                     2870.55
_exptl_crystal_colour            colorless
_exptl_crystal_description       needle
_cell_formula_units_Z            4
loop_
_atom_site_label
_atom_site_type_symbol
_atom_site_fract_x
_atom_site_fract_y
_atom_site_fract_z
N1 N 1.4920(8) 0.3149(8) 0.6226(8)
N2 N 1.4952(9) 0.2992(9) 0.2602(9)
N3 N 1.2503(9) 0.4902(11) 0.2579(11)
N4 N 1.2523(7) 0.4972(12) 0.6158(11)
C1 C 1.2966(5) 0.4324(7) 0.6645(6)
C2 C 1.2670(5) 0.3910(9) 0.7522(6)
H1 H 1.2156 0.4120 0.7788
C3 C 1.3141(7) 0.3183(8) 0.8001(5)
H2 H 1.2943 0.2906 0.8588
C4 C 1.3909(7) 0.2870(6) 0.7603(7)
H3 H 1.4224 0.2384 0.7924
C5 C 1.4205(5) 0.3284(6) 0.6726(7)
N5 N 1.3733(5) 0.4011(6) 0.6247(4)
H4 H 1.3916 0.4267 0.5705
C6 C 1.5132(6) 0.3544(6) 0.5257(7)
C7 C 1.5404(6) 0.4525(6) 0.5262(7)
H5 H 1.5501 0.4848 0.5859
C8 C 1.5532(2) 0.5023(2) 0.4373(9)
H6 H 1.5714 0.5679 0.4376
C9 C 1.5387(4) 0.4540(5) 0.3479(7)
H7 H 1.5473 0.4873 0.2885
C10 C 1.5115(5) 0.3559(5) 0.3475(7)
C11 C 1.4987(3) 0.3061(2) 0.4364(9)
H8 H 1.4805 0.2404 0.4360
C12 C 1.4254(5) 0.3288(7) 0.2087(6)
C13 C 1.4043(6) 0.2799(7) 0.1215(7)
H9 H 1.4412 0.2331 0.0948
C14 C 1.3281(7) 0.3008(8) 0.0743(5)
H10 H 1.3140 0.2680 0.0160
C15 C 1.2730(5) 0.3706(8) 0.1142(7)
H11 H 1.2220 0.3846 0.0826
C16 C 1.2941(6) 0.4196(6) 0.2013(7)
N6 N 1.3703(6) 0.3987(6) 0.2486(5)
C17 C 1.2826(6) 0.5422(7) 0.3511(7)
C18 C 1.3409(6) 0.6193(6) 0.3574(9)
H13 H 1.3602 0.6502 0.3001
C19 C 1.3704(3) 0.6503(3) 0.4493(11)
H14 H 1.4094 0.7019 0.4535
C20 C 1.3416(6) 0.6041(7) 0.5350(8)
H15 H 1.3613 0.6248 0.5965
C21 C 1.2833(6) 0.5270(7) 0.5287(7)
C22 C 1.2538(3) 0.4960(3) 0.4367(9)
H16 H 1.2148 0.4444 0.4325
C23 C 1.5360(10) 0.2180(8) 0.6461(10)
H17 H 1.5167 0.1938 0.7090
H18 H 1.5962 0.2285 0.6485
H19 H 1.5231 0.1702 0.5956
C24 C 1.5475(11) 0.2097(11) 0.2405(11)
H20 H 1.5322 0.1822 0.1775
H21 H 1.5377 0.1614 0.2915
H22 H 1.6064 0.2278 0.2399
C25 C 1.1618(12) 0.5265(16) 0.2303(13)
H23 H 1.1432 0.4934 0.1712
H24 H 1.1633 0.5968 0.2189
H25 H 1.1232 0.5122 0.2833
C26 C 1.1662(9) 0.5138(13) 0.6449(13)
H26 H 1.1418 0.5644 0.6039
H27 H 1.1646 0.5346 0.7128
H28 H 1.1345 0.4534 0.6376
C27 C 0.7609(6) 0.3676(6) 0.4399(15)
H29 H 0.8115 0.4085 0.4392
H30 H 0.7124 0.4113 0.4473
Cl1 Cl 0.7528(4) 0.3044(5) 0.3258(4)
Cl2 Cl 0.7650(5) 0.2943(5) 0.5333(4)
O1 O 1.5167(8) -0.0374(7) -0.0363(14)
O2 O 1.5416(7) 0.0380(10) -0.1638(7)
O3 O 1.4730(5) 0.1186(5) -0.0788(11)
O4 O 1.6095(5) 0.0857(7) -0.0257(11)
Cl3 Cl 1.53507(15) 0.05231(18) -0.0635(4)
H12? H 1.3834 0.4290 0.3025
loop_
_geom_bond_atom_site_label_1
_geom_bond_atom_site_label_2
_geom_bond_site_symmetry_1
_geom_bond_site_symmetry_2
N1 C5 1_555 1_555
N2 C10 1_555 1_555
N3 C16 1_555 1_555
N4 C1 1_555 1_555
C1 C2 1_555 1_555
C2 H1 1_555 1_555
C3 C2 1_555 1_555
H2 C3 1_555 1_555
C4 C3 1_555 1_555
H3 C4 1_555 1_555
C5 C4 1_555 1_555
N5 C1 1_555 1_555
H4 N5 1_555 1_555
C6 N1 1_555 1_555
C7 C6 1_555 1_555
H5 C7 1_555 1_555
C8 C7 1_555 1_555
H6 C8 1_555 1_555
C9 C8 1_555 1_555
H7 C9 1_555 1_555
C10 C9 1_555 1_555
C11 C6 1_555 1_555
H8 C11 1_555 1_555
C12 N2 1_555 1_555
C13 C12 1_555 1_555
H9 C13 1_555 1_555
C14 C13 1_555 1_555
H10 C14 1_555 1_555
C15 C14 1_555 1_555
H11 C15 1_555 1_555
C16 C15 1_555 1_555
N6 C12 1_555 1_555
C17 N3 1_555 1_555
C18 C17 1_555 1_555
H13 C18 1_555 1_555
C19 C18 1_555 1_555
H14 C19 1_555 1_555
C20 C19 1_555 1_555
H15 C20 1_555 1_555
C21 N4 1_555 1_555
C22 C17 1_555 1_555
H16 C22 1_555 1_555
C23 N1 1_555 1_555
H17 C23 1_555 1_555
H18 C23 1_555 1_555
H19 C23 1_555 1_555
C24 N2 1_555 1_555
H20 C24 1_555 1_555
H21 C24 1_555 1_555
H22 C24 1_555 1_555
C25 N3 1_555 1_555
H23 C25 1_555 1_555
H24 C25 1_555 1_555
H25 C25 1_555 1_555
C26 N4 1_555 1_555
H26 C26 1_555 1_555
H27 C26 1_555 1_555
H28 C26 1_555 1_555
C27 H29 1_555 1_555
H30 C27 1_555 1_555
O1 Cl3 1_555 1_555
O2 Cl3 1_555 1_555
O3 Cl3 1_555 1_555
O4 Cl3 1_555 1_555
Cl1 C27 1_555 1_555
Cl2 C27 1_555 1_555
C5 N5 1_555 1_555
C10 C11 1_555 1_555
C16 N6 1_555 1_555
C20 C21 1_555 1_555
C21 C22 1_555 1_555

#END
