
#######################################################################
#
#                 Cambridge Crystallographic Data Centre
#                                CCDC 
#
#######################################################################
#
# If this CIF has been generated from an entry in the Cambridge 
# Structural Database, then it will include bibliographic, chemical, 
# crystal, experimental, refinement or atomic coordinate data resulting 
# from the CCDC's data processing and validation procedures.
#
#######################################################################

data_LEXQIQ
_chemical_name_common            'PDB Chemical Component code: AZ1'
_chemical_formula_moiety         'C9 H16 O4,C8 H8 N2 S1'
_chemical_name_systematic        
'Nonanedioic acid 6-methyl-1,3-benzothiazol-2-amine'
_symmetry_cell_setting           triclinic
_symmetry_space_group_name_H-M   'P -1'
_symmetry_Int_Tables_number      2
_space_group_name_Hall           '-P 1'
loop_
_symmetry_equiv_pos_site_id
_symmetry_equiv_pos_as_xyz
1 x,y,z
2 -x,-y,-z
_cell_length_a                   9.1080(18)
_cell_length_b                   10.201(2)
_cell_length_c                   11.290(2)
_cell_angle_alpha                100.34(3)
_cell_angle_beta                 105.73(3)
_cell_angle_gamma                111.70(3)
_cell_volume                     891.056
_cell_formula_units_Z            2
loop_
_atom_site_label
_atom_site_type_symbol
_atom_site_fract_x
_atom_site_fract_y
_atom_site_fract_z
S1 S 0.46978(5) 0.28340(5) 0.70649(5)
N1 N 0.64821(17) 0.13918(16) 0.76451(14)
C1 C 0.17066(9) -0.14593(8) 0.47613(7)
C2 C 0.49224(9) 0.03569(8) 0.66835(7)
C3 C 0.2862(2) -0.2022(2) 0.52110(17)
H1 H 0.2537 -0.3050 0.4856
C4 C 0.6538(2) 0.2708(2) 0.79297(17)
C5 C 0.3774(2) 0.09323(19) 0.62434(17)
N2 N 0.78988(19) 0.39145(17) 0.88049(16)
H2 H 0.8818 0.3840 0.9222
H3 H 0.7872 0.4781 0.8962
C6 C 0.2184(2) 0.0043(2) 0.52808(17)
H4 H 0.1431 0.0456 0.4980
C7 C 0.4460(2) -0.1135(2) 0.61534(17)
H5 H 0.5227 -0.1543 0.6432
C8 C -0.0020(2) -0.2480(2) 0.37242(19)
H6 H -0.0665 -0.1911 0.3523
H7 H -0.0636 -0.3269 0.4035
H8 H 0.0120 -0.2921 0.2942
O1 O 0.90329(15) 0.07140(14) 0.83946(13)
O2 O 1.06442(15) 0.30441(15) 0.96934(13)
O3 O 2.38813(15) 0.36350(16) 1.35536(13)
O4 O 2.29374(9) 0.45839(8) 1.49279(7)
H9 H 2.3987 0.5129 1.5375
C9 C 1.04881(9) 0.18149(8) 0.91957(7)
C10 C 1.97326(9) 0.34727(8) 1.27815(7)
H10 H 1.9647 0.3853 1.3619
H11 H 2.0239 0.4331 1.2486
C11 C 1.7965(2) 0.2421(2) 1.17909(17)
H12 H 1.7484 0.1552 1.2081
H13 H 1.8062 0.2055 1.0955
C12 C 1.4969(2) 0.1996(2) 1.06057(17)
H14 H 1.4547 0.1150 1.0937
H15 H 1.5067 0.1609 0.9776
C13 C 2.2685(2) 0.37035(19) 1.38725(17)
C14 C 1.6734(2) 0.3120(2) 1.15710(17)
H16 H 1.6652 0.3514 1.2406
H17 H 1.7179 0.3963 1.1241
C15 C 1.3662(2) 0.2610(2) 1.03433(17)
H18 H 1.3582 0.3036 1.1170
H19 H 1.4030 0.3413 0.9956
C16 C 1.1933(2) 0.1392(2) 0.94286(19)
H20 H 1.2016 0.1040 0.8584
H21 H 1.1652 0.0546 0.9779
C17 C 2.0887(2) 0.2696(2) 1.29751(19)
H22 H 2.0409 0.1879 1.3323
H23 H 2.0890 0.2249 1.2122
H24 H 0.813(4) 0.101(3) 0.819(3)
loop_
_geom_bond_atom_site_label_1
_geom_bond_atom_site_label_2
_geom_bond_site_symmetry_1
_geom_bond_site_symmetry_2
S1 C4 1_555 1_555
N1 C2 1_555 1_555
C1 C3 1_555 1_555
C2 C5 1_555 1_555
C3 H1 1_555 1_555
C4 N1 1_555 1_555
C5 S1 1_555 1_555
N2 C4 1_555 1_555
H2 N2 1_555 1_555
H3 N2 1_555 1_555
C6 C1 1_555 1_555
H4 C6 1_555 1_555
C7 C2 1_555 1_555
H5 C7 1_555 1_555
C8 C1 1_555 1_555
H6 C8 1_555 1_555
H7 C8 1_555 1_555
H8 C8 1_555 1_555
O1 C9 1_555 1_555
O2 C9 1_555 1_555
O3 C13 1_555 1_555
O4 H9 1_555 1_555
C9 C16 1_555 1_555
C10 H10 1_555 1_555
H11 C10 1_555 1_555
C11 C10 1_555 1_555
H12 C11 1_555 1_555
H13 C11 1_555 1_555
C12 H14 1_555 1_555
H15 C12 1_555 1_555
C13 O4 1_555 1_555
C14 C11 1_555 1_555
H16 C14 1_555 1_555
H17 C14 1_555 1_555
C15 C12 1_555 1_555
H18 C15 1_555 1_555
H19 C15 1_555 1_555
C16 C15 1_555 1_555
H20 C16 1_555 1_555
H21 C16 1_555 1_555
C17 C10 1_555 1_555
H22 C17 1_555 1_555
H23 C17 1_555 1_555
H24 O1 1_555 1_555
C3 C7 1_555 1_555
C5 C6 1_555 1_555
C12 C14 1_555 1_555
C13 C17 1_555 1_555

#END
