
#######################################################################
#
#                 Cambridge Crystallographic Data Centre
#                                CCDC 
#
#######################################################################
#
# If this CIF has been generated from an entry in the Cambridge 
# Structural Database, then it will include bibliographic, chemical, 
# crystal, experimental, refinement or atomic coordinate data resulting 
# from the CCDC's data processing and validation procedures.
#
#######################################################################

data_LEXTOZ
_chemical_name_common            
'5,11,17,23-Tetra-t-butyl-25,26,27,28-tetrakis((carboxymethyl)oxy)-2,8,14,20-tetrathiacalix(4)arene acetone solvate dihydrate'
_chemical_formula_moiety         'C48 H56 O12 S4,2(C3 H6 O1),2(H2 O1)'
_chemical_name_systematic        
"2,2',2'',2'''-((5,11,17,23-Tetra-t-butyl-2,8,14,20-tetrathiapentacyclo[19.3.1.1^3,7^.1^9,13^.1^15,19^]octacosa-1(25),3(28),4,6,9(27),10,12,15(26),16,18,21,23-dodecaene-25,26,27,28-tetrayl)tetrakis(oxy))tetraacetic acid acetone solvate dihydrate"
_symmetry_cell_setting           monoclinic
_symmetry_space_group_name_H-M   'C c'
_symmetry_Int_Tables_number      9
_space_group_name_Hall           'C -2yc'
loop_
_symmetry_equiv_pos_site_id
_symmetry_equiv_pos_as_xyz
1 x,y,z
2 x,-y,1/2+z
3 1/2+x,1/2+y,z
4 1/2+x,1/2-y,1/2+z
_cell_length_a                   10.501(8)
_cell_length_b                   30.32(2)
_cell_length_c                   18.838(14)
_cell_angle_alpha                90
_cell_angle_beta                 101.453(15)
_cell_angle_gamma                90
_cell_volume                     5878.41
_exptl_crystal_colour            colorless
_exptl_crystal_description       block
_cell_formula_units_Z            4
loop_
_atom_site_label
_atom_site_type_symbol
_atom_site_fract_x
_atom_site_fract_y
_atom_site_fract_z
C1 C 0.2216(7) 0.3550(3) 0.9729(4)
C2 C 0.2664(8) 0.3338(3) 0.9212(5)
C3 C 0.2926(8) 0.3557(3) 0.8611(5)
C4 C 0.2667(8) 0.4007(3) 0.8577(5)
H1 H 0.2856 0.4163 0.8185
C5 C 0.2162(9) 0.4232(3) 0.9069(5)
C6 C 0.2005(9) 0.3998(3) 0.9662(5)
H2 H 0.1743 0.4147 1.0040
C7 C 0.1574(10) 0.2659(4) 0.8927(6)
H3 H 0.1252 0.2768 0.8440
H4 H 0.0933 0.2727 0.9218
C8 C 0.1774(10) 0.2170(4) 0.8908(6)
C9 C 0.1846(11) 0.4733(4) 0.8965(6)
C10 C 0.0473(16) 0.4811(6) 0.9015(10)
H5 H 0.0201 0.4589 0.9316
H6 H -0.0065 0.4798 0.8539
H7 H 0.0392 0.5097 0.9221
C11 C 0.2335(18) 0.4943(5) 0.8384(9)
H8 H 0.3252 0.4992 0.8533
H9 H 0.1902 0.5221 0.8269
H10 H 0.2174 0.4756 0.7964
C12 C 0.239(2) 0.4978(5) 0.9662(9)
H11 H 0.3241 0.5089 0.9644
H12 H 0.2450 0.4781 1.0066
H13 H 0.1829 0.5220 0.9718
C13 C 0.4898(8) 0.3007(3) 0.8255(5)
C14 C 0.4978(7) 0.2558(3) 0.8122(5)
H14 H 0.4227 0.2412 0.7897
C15 C 0.6130(8) 0.2315(3) 0.8307(4)
C16 C 0.7228(8) 0.2559(3) 0.8721(5)
H15 H 0.8023 0.2418 0.8868
C17 C 0.7104(8) 0.2996(3) 0.8897(4)
C18 C 0.5957(9) 0.3228(3) 0.8661(5)
C19 C 0.6178(16) 0.3948(4) 0.8212(7)
H16 H 0.5479 0.3924 0.7792
H17 H 0.6963 0.3837 0.8077
C20 C 0.6373(17) 0.4434(5) 0.8418(9)
C21 C 0.6235(8) 0.1840(3) 0.8106(5)
C22 C 0.7553(11) 0.1639(4) 0.8392(8)
H18 H 0.7839 0.1718 0.8891
H19 H 0.8165 0.1746 0.8115
H20 H 0.7494 0.1323 0.8350
C23 C 0.5942(12) 0.1808(3) 0.7278(5)
H21 H 0.6063 0.1509 0.7136
H22 H 0.6519 0.1998 0.7084
H23 H 0.5059 0.1896 0.7094
C24 C 0.5267(12) 0.1559(4) 0.8397(7)
H24 H 0.5397 0.1595 0.8913
H25 H 0.5389 0.1255 0.8285
H26 H 0.4401 0.1649 0.8178
C25 C 0.8135(8) 0.3479(3) 1.0178(5)
C26 C 0.7641(7) 0.3207(3) 1.0672(5)
C27 C 0.7435(7) 0.3401(3) 1.1289(4)
C28 C 0.7750(8) 0.3836(3) 1.1469(4)
H27 H 0.7577 0.3954 1.1895
C29 C 0.8315(9) 0.4091(3) 1.1019(4)
C30 C 0.8501(9) 0.3924(3) 1.0364(5)
H28 H 0.8860 0.4099 1.0049
C31 C 0.8566(10) 0.2502(4) 1.0735(8)
H29 H 0.8850 0.2527 1.1255
H30 H 0.9261 0.2609 1.0511
C32 C 0.8327(11) 0.2040(4) 1.0547(8)
C33 C 0.8759(10) 0.4581(4) 1.1224(5)
C34 C 0.8453(17) 0.4727(4) 1.1931(8)
H31 H 0.8878 0.5002 1.2072
H32 H 0.8754 0.4509 1.2295
H33 H 0.7531 0.4763 1.1879
C35 C 1.0261(13) 0.4594(5) 1.1378(8)
H34 H 1.0570 0.4467 1.0978
H35 H 1.0596 0.4430 1.1810
H36 H 1.0550 0.4895 1.1441
C36 C 0.8339(19) 0.4886(5) 1.0630(8)
H37 H 0.8757 0.5166 1.0745
H38 H 0.7414 0.4923 1.0554
H39 H 0.8569 0.4771 1.0198
C37 C 0.5337(8) 0.2875(3) 1.1535(4)
C38 C 0.5061(9) 0.2432(3) 1.1657(5)
H40 H 0.5722 0.2257 1.1915
C39 C 0.3841(8) 0.2240(3) 1.1412(5)
C40 C 0.2936(8) 0.2514(3) 1.1010(4)
H41 H 0.2142 0.2394 1.0788
C41 C 0.3132(8) 0.2952(3) 1.0917(4)
C42 C 0.4307(9) 0.3151(3) 1.1199(5)
C43 C 0.4231(10) 0.3819(3) 1.1768(6)
H42 H 0.4879 0.3743 1.2193
H43 H 0.3386 0.3729 1.1850
C44 C 0.4244(12) 0.4311(4) 1.1633(7)
C45 C 0.3592(10) 0.1753(3) 1.1557(6)
C46 C 0.4437(17) 0.1598(5) 1.2267(9)
H44 H 0.4540 0.1834 1.2613
H45 H 0.5273 0.1511 1.2184
H46 H 0.4028 0.1351 1.2451
C47 C 0.2275(14) 0.1653(5) 1.1588(10)
H47 H 0.2203 0.1345 1.1694
H48 H 0.1723 0.1719 1.1130
H49 H 0.2013 0.1825 1.1962
C48 C 0.379(2) 0.1499(5) 1.0925(8)
H50 H 0.4702 0.1486 1.0919
H51 H 0.3339 0.1640 1.0490
H52 H 0.3460 0.1206 1.0951
O1 O 0.2787(6) 0.2871(2) 0.9231(4)
O2 O 0.2751(7) 0.1979(2) 0.9160(5)
O3 O 0.0720(7) 0.1988(2) 0.8580(5)
H53 H 0.0827 0.1720 0.8564
O4 O 0.4508(5) 0.36000(19) 1.1149(3)
O5 O 0.4474(12) 0.4487(3) 1.1143(5)
O6 O 0.3969(12) 0.4513(3) 1.2194(5)
H54 H 0.4353 0.4750 1.2250
O7 O 0.7439(5) 0.27712(19) 1.0508(3)
O8 O 0.7180(9) 0.1894(3) 1.0257(7)
H55 H 0.6627 0.2055 1.0372
O9 O 0.9300(9) 0.1792(3) 1.0620(9)
O10 O 0.5876(6) 0.3679(2) 0.8783(3)
O11 O 0.6093(17) 0.4543(4) 0.9023(7)
O12 O 0.6708(15) 0.4672(4) 0.7992(6)
S1 S 0.1772(2) 0.32850(8) 1.04945(12)
S2 S 0.3407(2) 0.32828(9) 0.78868(12)
S3 S 0.8535(2) 0.32763(9) 0.93647(13)
S4 S 0.6869(2) 0.30796(8) 1.19630(12)
H56 H 0.559(19) 0.436(6) 0.915(11)
C49 C 0.4708(17) 0.5631(5) 0.1155(9)
H57 H 0.5444 0.5605 0.1547
H58 H 0.4752 0.5906 0.0909
H59 H 0.4712 0.5392 0.0821
C50 C 0.3449(15) 0.5615(4) 0.1456(9)
C51 C 0.247(2) 0.5915(6) 0.1123(12)
H60 H 0.1708 0.5875 0.1321
H61 H 0.2271 0.5861 0.0611
H62 H 0.2785 0.6211 0.1211
O13 O 0.3304(13) 0.5366(3) 0.1900(7)
C52 C 0.103(2) 0.0703(6) 0.9540(9)
H63 H 0.0366 0.0899 0.9632
H64 H 0.1724 0.0692 0.9959
H65 H 0.0677 0.0413 0.9439
C53 C 0.1556(15) 0.0867(5) 0.8899(8)
C54 C 0.2884(16) 0.0679(7) 0.8934(12)
H66 H 0.3285 0.0819 0.8578
H67 H 0.2816 0.0367 0.8839
H68 H 0.3403 0.0728 0.9407
O14 O 0.1007(14) 0.1139(4) 0.8462(6)
H69 H 0.50(3) 0.251(7) 0.021(12)
H70 H 0.47(3) 0.211(4) -0.008(16)
O15 O 0.5077(8) 0.2342(3) -0.0114(4)
H71 H 0.53(3) 0.410(11) 0.041(5)
H72 H 0.620(7) 0.418(10) 0.001(17)
O16 O 0.5332(7) 0.4121(3) -0.0033(5)
loop_
_geom_bond_atom_site_label_1
_geom_bond_atom_site_label_2
_geom_bond_site_symmetry_1
_geom_bond_site_symmetry_2
C1 C2 1_555 1_555
C2 C3 1_555 1_555
C3 C4 1_555 1_555
C4 H1 1_555 1_555
C5 C4 1_555 1_555
C6 C1 1_555 1_555
H2 C6 1_555 1_555
C7 H3 1_555 1_555
H4 C7 1_555 1_555
C8 C7 1_555 1_555
C9 C5 1_555 1_555
C10 C9 1_555 1_555
H5 C10 1_555 1_555
H6 C10 1_555 1_555
H7 C10 1_555 1_555
C11 C9 1_555 1_555
H8 C11 1_555 1_555
H9 C11 1_555 1_555
H10 C11 1_555 1_555
C12 C9 1_555 1_555
H11 C12 1_555 1_555
H12 C12 1_555 1_555
H13 C12 1_555 1_555
C13 C14 1_555 1_555
C14 H14 1_555 1_555
C15 C14 1_555 1_555
C16 C15 1_555 1_555
H15 C16 1_555 1_555
C17 C16 1_555 1_555
C18 C13 1_555 1_555
C19 H16 1_555 1_555
H17 C19 1_555 1_555
C20 C19 1_555 1_555
C21 C15 1_555 1_555
C22 C21 1_555 1_555
H18 C22 1_555 1_555
H19 C22 1_555 1_555
H20 C22 1_555 1_555
C23 C21 1_555 1_555
H21 C23 1_555 1_555
H22 C23 1_555 1_555
H23 C23 1_555 1_555
C24 C21 1_555 1_555
H24 C24 1_555 1_555
H25 C24 1_555 1_555
H26 C24 1_555 1_555
C25 C26 1_555 1_555
C26 C27 1_555 1_555
C27 C28 1_555 1_555
C28 H27 1_555 1_555
C29 C28 1_555 1_555
C30 C25 1_555 1_555
H28 C30 1_555 1_555
C31 H29 1_555 1_555
H30 C31 1_555 1_555
C32 C31 1_555 1_555
C33 C29 1_555 1_555
C34 C33 1_555 1_555
H31 C34 1_555 1_555
H32 C34 1_555 1_555
H33 C34 1_555 1_555
C35 C33 1_555 1_555
H34 C35 1_555 1_555
H35 C35 1_555 1_555
H36 C35 1_555 1_555
C36 C33 1_555 1_555
H37 C36 1_555 1_555
H38 C36 1_555 1_555
H39 C36 1_555 1_555
C37 C38 1_555 1_555
C38 H40 1_555 1_555
C39 C38 1_555 1_555
C40 C39 1_555 1_555
H41 C40 1_555 1_555
C41 C40 1_555 1_555
C42 C37 1_555 1_555
C43 H42 1_555 1_555
H43 C43 1_555 1_555
C44 C43 1_555 1_555
C45 C39 1_555 1_555
C46 C45 1_555 1_555
H44 C46 1_555 1_555
H45 C46 1_555 1_555
H46 C46 1_555 1_555
C47 C45 1_555 1_555
H47 C47 1_555 1_555
H48 C47 1_555 1_555
H49 C47 1_555 1_555
C48 C45 1_555 1_555
H50 C48 1_555 1_555
H51 C48 1_555 1_555
H52 C48 1_555 1_555
O1 C2 1_555 1_555
O2 C8 1_555 1_555
O3 C8 1_555 1_555
H53 O3 1_555 1_555
O4 C42 1_555 1_555
O5 C44 1_555 1_555
O6 C44 1_555 1_555
H54 O6 1_555 1_555
O7 C26 1_555 1_555
O8 C32 1_555 1_555
H55 O8 1_555 1_555
O9 C32 1_555 1_555
O10 C18 1_555 1_555
O11 C20 1_555 1_555
O12 C20 1_555 1_555
S1 C1 1_555 1_555
S2 C3 1_555 1_555
S3 C17 1_555 1_555
S4 C27 1_555 1_555
H56 O11 1_555 1_555
C49 H57 1_555 1_555
H58 C49 1_555 1_555
H59 C49 1_555 1_555
C50 C49 1_555 1_555
C51 C50 1_555 1_555
H60 C51 1_555 1_555
H61 C51 1_555 1_555
H62 C51 1_555 1_555
O13 C50 1_555 1_555
C52 H63 1_555 1_555
H64 C52 1_555 1_555
H65 C52 1_555 1_555
C53 C52 1_555 1_555
C54 C53 1_555 1_555
H66 C54 1_555 1_555
H67 C54 1_555 1_555
H68 C54 1_555 1_555
O14 C53 1_555 1_555
H69 O15 1_555 1_555
H70 O15 1_555 1_555
H71 O16 1_555 1_555
H72 O16 1_555 1_555
C5 C6 1_555 1_555
C7 O1 1_555 1_555
C13 S2 1_555 1_555
C17 C18 1_555 1_555
C19 O10 1_555 1_555
C25 S3 1_555 1_555
C29 C30 1_555 1_555
C31 O7 1_555 1_555
C37 S4 1_555 1_555
C41 C42 1_555 1_555
C41 S1 1_555 1_555
C43 O4 1_555 1_555

#END
