
#######################################################################
#
#                 Cambridge Crystallographic Data Centre
#                                CCDC 
#
#######################################################################
#
# If this CIF has been generated from an entry in the Cambridge 
# Structural Database, then it will include bibliographic, chemical, 
# crystal, experimental, refinement or atomic coordinate data resulting 
# from the CCDC's data processing and validation procedures.
#
#######################################################################

data_LEXTIT
_chemical_name_common            
"5,11,17,23-Tetra-t-butyl-25,26,27,28-tetrakis((carboxymethyl)oxy)-2,8,14,20-tetrathiacalix(4)arene hemikis(4,4'-bipyridine) dihydrate"
_chemical_formula_moiety         'C48 H56 O12 S4,0.5(C10 H8 N2),2(H2 O1)'
_chemical_name_systematic        
"2,2',2'',2'''-((5,11,17,23-Tetra-t-butyl-2,8,14,20-tetrathiapentacyclo[19.3.1.1^3,7^.1^9,13^.1^15,19^]octacosa-1(25),3(28),4,6,9(27),10,12,15(26),16,18,21,23-dodecaene-25,26,27,28-tetrayl)tetrakis(oxy))tetraacetic acid hemikis(4,4'-bipyridine) dihydrate"
_symmetry_cell_setting           monoclinic
_symmetry_space_group_name_H-M   'P 21/n'
_symmetry_Int_Tables_number      14
_space_group_name_Hall           '-P 2yn'
loop_
_symmetry_equiv_pos_site_id
_symmetry_equiv_pos_as_xyz
1 x,y,z
2 1/2-x,1/2+y,1/2-z
3 -x,-y,-z
4 1/2+x,1/2-y,1/2+z
_cell_length_a                   17.0728(15)
_cell_length_b                   20.2500(18)
_cell_length_c                   17.4372(16)
_cell_angle_alpha                90
_cell_angle_beta                 103.453(2)
_cell_angle_gamma                90
_cell_volume                     5863.05
_exptl_crystal_colour            colorless
_exptl_crystal_description       block
_cell_formula_units_Z            4
loop_
_atom_site_label
_atom_site_type_symbol
_atom_site_fract_x
_atom_site_fract_y
_atom_site_fract_z
C1 C 0.58521(14) 0.37847(11) 0.54604(13)
C2 C 0.52345(15) 0.39039(12) 0.58368(14)
H1 H 0.4877 0.4247 0.5656
C3 C 0.51297(14) 0.35319(12) 0.64706(13)
C4 C 0.56497(13) 0.29987(11) 0.66933(13)
H2 H 0.5574 0.2722 0.7095
C5 C 0.62799(13) 0.28693(11) 0.63304(13)
C6 C 0.63999(13) 0.32811(11) 0.57281(13)
C7 C 0.44496(15) 0.36902(13) 0.68862(15)
C8 C 0.4436(3) 0.3217(2) 0.7556(3)
H3 H 0.4947 0.3228 0.7929
H4 H 0.4333 0.2777 0.7350
H5 H 0.4019 0.3345 0.7812
C9 C 0.3651(2) 0.3666(4) 0.6287(3)
H6 H 0.3470 0.3217 0.6212
H7 H 0.3715 0.3844 0.5794
H8 H 0.3260 0.3923 0.6473
C10 C 0.4596(3) 0.43869(19) 0.7232(3)
H9 H 0.4164 0.4507 0.7472
H10 H 0.4618 0.4694 0.6818
H11 H 0.5096 0.4396 0.7621
C11 C 0.77510(15) 0.35219(14) 0.58236(17)
H12 H 0.7888 0.3369 0.6366
H13 H 0.7649 0.3993 0.5825
C12 C 0.84319(17) 0.33863(15) 0.5441(2)
C13 C 0.70888(12) 0.17333(10) 0.59635(12)
C14 C 0.64397(12) 0.13916(11) 0.55035(12)
C15 C 0.65708(12) 0.09606(10) 0.49241(12)
C16 C 0.73527(12) 0.08501(10) 0.48434(12)
H14 H 0.7433 0.0563 0.4452
C17 C 0.80139(12) 0.11522(11) 0.53250(12)
C18 C 0.78631(13) 0.16040(11) 0.58724(13)
H15 H 0.8295 0.1828 0.6189
C19 C 0.88761(13) 0.10018(12) 0.52580(14)
C20 C 0.8909(2) 0.0522(2) 0.4608(2)
H16 H 0.8663 0.0716 0.4108
H17 H 0.8626 0.0125 0.4680
H18 H 0.9461 0.0417 0.4622
C21 C 0.9349(2) 0.0721(2) 0.6054(2)
H19 H 0.9113 0.0310 0.6157
H20 H 0.9331 0.1029 0.6467
H21 H 0.9899 0.0648 0.6032
C22 C 0.9289(2) 0.16484(18) 0.5108(3)
H22 H 0.9290 0.1952 0.5530
H23 H 0.9002 0.1839 0.4619
H24 H 0.9834 0.1558 0.5080
C23 C 0.55462(15) 0.10195(13) 0.62282(17)
H25 H 0.6018 0.1016 0.6664
H26 H 0.5480 0.0579 0.6005
C24 C 0.48296(16) 0.11852(16) 0.65335(16)
C25 C 0.50190(12) 0.10174(11) 0.39186(12)
C26 C 0.42505(13) 0.09113(11) 0.40360(13)
H27 H 0.4175 0.0578 0.4378
C27 C 0.35943(13) 0.12859(12) 0.36594(13)
C28 C 0.37405(13) 0.18090(12) 0.31946(13)
H28 H 0.3317 0.2086 0.2963
C29 C 0.45002(13) 0.19287(12) 0.30675(13)
C30 C 0.51383(12) 0.15159(11) 0.34060(12)
C31 C 0.27522(14) 0.11171(13) 0.37621(15)
C32 C 0.2785(5) 0.1095(4) 0.4647(3)
H29 H 0.2944 0.1519 0.4876
H30 H 0.3168 0.0768 0.4894
H31 H 0.2262 0.0984 0.4725
C33 C 0.2565(5) 0.0405(3) 0.3448(4)
H32 H 0.2932 0.0103 0.3772
H33 H 0.2624 0.0379 0.2915
H34 H 0.2023 0.0292 0.3464
C34 C 0.2102(5) 0.1583(4) 0.3351(6)
H35 H 0.2105 0.1608 0.2802
H36 H 0.2198 0.2014 0.3583
H37 H 0.1588 0.1425 0.3406
C35 C 0.59646(15) 0.11762(16) 0.25873(15)
H38 H 0.5607 0.1337 0.2107
H39 H 0.5801 0.0730 0.2678
C36 C 0.67971(17) 0.11632(15) 0.24786(17)
C37 C 0.53986(13) 0.30708(11) 0.28694(14)
C38 C 0.53486(14) 0.34412(12) 0.35273(14)
C39 C 0.59928(14) 0.38465(11) 0.38780(14)
C40 C 0.66350(14) 0.39236(11) 0.35204(14)
H40 H 0.7058 0.4200 0.3754
C41 C 0.66633(13) 0.35987(12) 0.28231(13)
C42 C 0.60451(13) 0.31549(11) 0.25244(14)
H41 H 0.6067 0.2908 0.2080
C43 C 0.73570(14) 0.37093(12) 0.24166(14)
C44 C 0.8158(3) 0.3588(5) 0.2977(4)
H42 H 0.8145 0.3172 0.3238
H43 H 0.8268 0.3935 0.3361
H44 H 0.8573 0.3578 0.2688
C45 C 0.7301(5) 0.3253(4) 0.1701(4)
H45 H 0.6807 0.3337 0.1321
H46 H 0.7315 0.2801 0.1869
H47 H 0.7748 0.3337 0.1467
C46 C 0.7307(6) 0.4413(3) 0.2107(6)
H48 H 0.7321 0.4715 0.2534
H49 H 0.6813 0.4471 0.1716
H50 H 0.7755 0.4498 0.1876
C47 C 0.40922(17) 0.38966(17) 0.3475(2)
H51 H 0.3913 0.3807 0.2915
H52 H 0.4347 0.4328 0.3537
C48 C 0.33848(16) 0.39024(16) 0.38373(18)
O1 O 0.70522(9) 0.31875(8) 0.53965(9)
O2 O 0.83664(13) 0.31144(14) 0.48294(15)
O3 O 0.91154(12) 0.36077(12) 0.58687(14)
H53 H 0.9477 0.3530 0.5644
O4 O 0.56803(8) 0.14698(7) 0.56426(9)
O5 O 0.43529(5) 0.16556(5) 0.62082(6)
H54 H 0.4185 0.2019 0.6000
O6 O 0.47049(5) 0.08578(5) 0.70715(6)
O7 O 0.58825(5) 0.15856(5) 0.32321(6)
O8 O 0.73413(5) 0.15010(5) 0.29493(6)
H55 H 0.7579 0.1653 0.3389
O9 O 0.69476(14) 0.08306(13) 0.19616(13)
O10 O 0.46637(9) 0.34087(8) 0.38320(10)
O11 O 0.32792(12) 0.35224(13) 0.43172(14)
O12 O 0.29058(13) 0.43880(13) 0.35428(15)
H56 H 0.2555 0.4427 0.3791
S1 S 0.59860(5) 0.43478(3) 0.47172(4)
S2 S 0.45992(4) 0.25491(4) 0.23726(4)
S3 S 0.57982(3) 0.04635(3) 0.43518(4)
S4 S 0.69785(4) 0.22451(3) 0.67573(3)
C61 C 0.09015(19) 0.47319(17) 0.37062(19)
H93 H 0.0817 0.4694 0.3162
C62 C 0.02529(17) 0.48704(16) 0.40137(18)
H94 H -0.0252 0.4927 0.3678
C63 C 0.03428(14) 0.49266(12) 0.48203(16)
C64 C 0.11167(15) 0.48399(15) 0.52722(17)
H95 H 0.1218 0.4871 0.5819
C65 C 0.17340(17) 0.47074(16) 0.4914(2)
H96 H 0.2248 0.4655 0.5233
N1 N 0.16442(15) 0.46490(13) 0.41381(18)
C61B C -0.09015(19) 0.52681(17) 0.62938(19)
H93B H -0.0817 0.5306 0.6838
C62B C -0.02529(17) 0.51296(16) 0.59863(18)
H94B H 0.0252 0.5073 0.6322
C63B C -0.03428(14) 0.50734(12) 0.51797(16)
C64B C -0.11167(15) 0.51601(15) 0.47278(17)
H95B H -0.1218 0.5129 0.4181
C65B C -0.17340(17) 0.52926(16) 0.5086(2)
H96B H -0.2248 0.5345 0.4767
N1B N -0.16442(15) 0.53510(13) 0.58619(18)
O13 O 0.71834(12) 0.23189(10) 0.40256(12)
H97 H 0.7150 0.2564 0.4412
H98 H 0.6785 0.2092 0.3779
O14 O 0.43661(12) 0.24295(10) 0.50132(12)
H99 H 0.4448 0.2710 0.4677
H100 H 0.4741 0.2155 0.5194
C49? C 0.4764(11) 0.3642(10) 0.7778(5)
H57? H 0.4320 0.3663 0.8028
H58? H 0.5126 0.4002 0.7958
H59? H 0.5044 0.3231 0.7907
C50? C 0.3788(9) 0.3177(7) 0.6635(12)
H60? H 0.4014 0.2743 0.6739
H61? H 0.3553 0.3222 0.6081
H62? H 0.3381 0.3242 0.6926
C51? C 0.4079(10) 0.4371(5) 0.6689(10)
H63? H 0.3640 0.4428 0.6940
H64? H 0.3885 0.4412 0.6128
H65? H 0.4480 0.4704 0.6874
C52? C 0.8997(8) 0.0251(4) 0.5351(11)
H66? H 0.9502 0.0131 0.5237
H67? H 0.8567 0.0027 0.4991
H68? H 0.8997 0.0125 0.5882
C53? C 0.9536(7) 0.1346(8) 0.5855(8)
H69? H 0.9632 0.1113 0.6347
H70? H 0.9373 0.1790 0.5931
H71? H 1.0021 0.1353 0.5666
C54? C 0.8929(8) 0.1189(8) 0.4423(5)
H72? H 0.9477 0.1151 0.4377
H73? H 0.8749 0.1636 0.4315
H74? H 0.8594 0.0898 0.4051
C55? C 0.2713(10) 0.0758(6) 0.4507(5)
H75? H 0.2966 0.1020 0.4955
H76? H 0.2988 0.0342 0.4525
H77? H 0.2160 0.0682 0.4516
C56? C 0.2327(7) 0.0715(6) 0.3034(6)
H78? H 0.2645 0.0334 0.2983
H79? H 0.2263 0.0984 0.2571
H80? H 0.1807 0.0576 0.3096
C57? C 0.2303(7) 0.1784(4) 0.3717(9)
H81? H 0.2314 0.2001 0.3230
H82? H 0.2561 0.2058 0.4152
H83? H 0.1754 0.1706 0.3741
C58? C 0.8004(4) 0.4163(4) 0.2918(4)
H84? H 0.8132 0.4013 0.3455
H85? H 0.7803 0.4607 0.2896
H86? H 0.8481 0.4152 0.2714
C59? C 0.7753(5) 0.3063(3) 0.2314(6)
H87? H 0.7867 0.2826 0.2805
H88? H 0.8246 0.3145 0.2156
H89? H 0.7399 0.2806 0.1918
C60? C 0.7011(4) 0.4037(4) 0.1644(4)
H90? H 0.6651 0.4383 0.1719
H91? H 0.6721 0.3718 0.1279
H92? H 0.7439 0.4221 0.1439
loop_
_geom_bond_atom_site_label_1
_geom_bond_atom_site_label_2
_geom_bond_site_symmetry_1
_geom_bond_site_symmetry_2
C1 C2 1_555 1_555
C2 H1 1_555 1_555
C3 C2 1_555 1_555
C4 C3 1_555 1_555
H2 C4 1_555 1_555
C5 C4 1_555 1_555
C6 C1 1_555 1_555
C7 C3 1_555 1_555
C8 C7 1_555 1_555
H3 C8 1_555 1_555
H4 C8 1_555 1_555
H5 C8 1_555 1_555
C9 C7 1_555 1_555
H6 C9 1_555 1_555
H7 C9 1_555 1_555
H8 C9 1_555 1_555
C10 C7 1_555 1_555
H9 C10 1_555 1_555
H10 C10 1_555 1_555
H11 C10 1_555 1_555
C11 H12 1_555 1_555
H13 C11 1_555 1_555
C12 C11 1_555 1_555
C13 C14 1_555 1_555
C14 C15 1_555 1_555
C15 C16 1_555 1_555
C16 H14 1_555 1_555
C17 C16 1_555 1_555
C18 C13 1_555 1_555
H15 C18 1_555 1_555
C19 C17 1_555 1_555
C20 C19 1_555 1_555
H16 C20 1_555 1_555
H17 C20 1_555 1_555
H18 C20 1_555 1_555
C21 C19 1_555 1_555
H19 C21 1_555 1_555
H20 C21 1_555 1_555
H21 C21 1_555 1_555
C22 C19 1_555 1_555
H22 C22 1_555 1_555
H23 C22 1_555 1_555
H24 C22 1_555 1_555
C23 H25 1_555 1_555
H26 C23 1_555 1_555
C24 C23 1_555 1_555
C25 C26 1_555 1_555
C26 H27 1_555 1_555
C27 C26 1_555 1_555
C28 C27 1_555 1_555
H28 C28 1_555 1_555
C29 C28 1_555 1_555
C30 C25 1_555 1_555
C31 C27 1_555 1_555
C32 C31 1_555 1_555
H29 C32 1_555 1_555
H30 C32 1_555 1_555
H31 C32 1_555 1_555
C33 C31 1_555 1_555
H32 C33 1_555 1_555
H33 C33 1_555 1_555
H34 C33 1_555 1_555
C34 C31 1_555 1_555
H35 C34 1_555 1_555
H36 C34 1_555 1_555
H37 C34 1_555 1_555
C35 H38 1_555 1_555
H39 C35 1_555 1_555
C36 C35 1_555 1_555
C37 C38 1_555 1_555
C38 C39 1_555 1_555
C39 C40 1_555 1_555
C40 H40 1_555 1_555
C41 C40 1_555 1_555
C42 C37 1_555 1_555
H41 C42 1_555 1_555
C43 C41 1_555 1_555
C44 C43 1_555 1_555
H42 C44 1_555 1_555
H43 C44 1_555 1_555
H44 C44 1_555 1_555
C45 C43 1_555 1_555
H45 C45 1_555 1_555
H46 C45 1_555 1_555
H47 C45 1_555 1_555
C46 C43 1_555 1_555
H48 C46 1_555 1_555
H49 C46 1_555 1_555
H50 C46 1_555 1_555
C47 H51 1_555 1_555
H52 C47 1_555 1_555
C48 C47 1_555 1_555
O1 C6 1_555 1_555
O2 C12 1_555 1_555
O3 C12 1_555 1_555
H53 O3 1_555 1_555
O4 C14 1_555 1_555
O5 C24 1_555 1_555
H54 O5 1_555 1_555
O6 C24 1_555 1_555
O7 C30 1_555 1_555
O8 C36 1_555 1_555
H55 O8 1_555 1_555
O9 C36 1_555 1_555
O10 C38 1_555 1_555
O11 C48 1_555 1_555
O12 C48 1_555 1_555
H56 O12 1_555 1_555
S1 C1 1_555 1_555
S2 C29 1_555 1_555
S3 C15 1_555 1_555
S4 C5 1_555 1_555
C61 H93 1_555 1_555
C62 C61 1_555 1_555
H94 C62 1_555 1_555
C63 C62 1_555 1_555
C64 C63 1_555 1_555
H95 C64 1_555 1_555
C65 C64 1_555 1_555
H96 C65 1_555 1_555
N1 C61 1_555 1_555
O13 H97 1_555 1_555
H98 O13 1_555 1_555
O14 H99 1_555 1_555
H100 O14 1_555 1_555
C61B H93B 1_555 1_555
C62B C61B 1_555 1_555
H94B C62B 1_555 1_555
C63B C63 1_555 1_555
C64B C63B 1_555 1_555
H95B C64B 1_555 1_555
C65B C64B 1_555 1_555
H96B C65B 1_555 1_555
N1B C61B 1_555 1_555
C5 C6 1_555 1_555
C11 O1 1_555 1_555
C13 S4 1_555 1_555
C17 C18 1_555 1_555
C23 O4 1_555 1_555
C25 S3 1_555 1_555
C29 C30 1_555 1_555
C35 O7 1_555 1_555
C37 S2 1_555 1_555
C39 S1 1_555 1_555
C41 C42 1_555 1_555
C47 O10 1_555 1_555
C65 N1 1_555 1_555
C62B C63B 1_555 1_555
C65B N1B 1_555 1_555

#END
