
#######################################################################
#
#                 Cambridge Crystallographic Data Centre
#                                CCDC 
#
#######################################################################
#
# If this CIF has been generated from an entry in the Cambridge 
# Structural Database, then it will include bibliographic, chemical, 
# crystal, experimental, refinement or atomic coordinate data resulting 
# from the CCDC's data processing and validation procedures.
#
#######################################################################

data_LEYDAX
_chemical_formula_moiety         'C36 H33 B1 F15 P1,2(C1 H2 Cl2)'
_chemical_name_systematic        
'fluoro(bis(pentafluorophenyl))(2,3,5,6-tetrafluoro-4-(tricyclohexylphosphonio)phenyl)borate dichloromethane solvate'
_symmetry_cell_setting           orthorhombic
_symmetry_space_group_name_H-M   'P b c a'
_symmetry_Int_Tables_number      61
_space_group_name_Hall           '-P 2ac 2ab'
loop_
_symmetry_equiv_pos_site_id
_symmetry_equiv_pos_as_xyz
1 x,y,z
2 1/2-x,-y,1/2+z
3 -x,1/2+y,1/2-z
4 1/2+x,1/2-y,-z
5 -x,-y,-z
6 1/2+x,y,1/2-z
7 x,1/2-y,1/2+z
8 1/2-x,1/2+y,z
_cell_length_a                   20.8497(8)
_cell_length_b                   16.0333(6)
_cell_length_c                   23.8954(9)
_cell_angle_alpha                90
_cell_angle_beta                 90
_cell_angle_gamma                90
_cell_volume                     7987.98
_exptl_crystal_colour            colorless
_exptl_crystal_description       prism
_cell_formula_units_Z            8
loop_
_atom_site_label
_atom_site_type_symbol
_atom_site_fract_x
_atom_site_fract_y
_atom_site_fract_z
P1 P 0.73783(2) 0.34224(3) 0.37818(2)
B1 B 0.51933(10) 0.62096(13) 0.38160(9)
F1 F 0.52949(5) 0.67975(7) 0.33784(5)
C1 C 0.81541(9) 0.39458(11) 0.37265(8)
H1 H 0.8172 0.4187 0.3341
C2 C 0.87299(9) 0.33438(12) 0.37719(9)
H2 H 0.8758 0.3117 0.4157
H3 H 0.8673 0.2871 0.351
C3 C 0.93454(10) 0.38194(13) 0.36291(9)
H4 H 0.9718 0.344 0.3668
H5 H 0.9326 0.4008 0.3235
C4 C 0.94389(10) 0.45728(14) 0.40098(10)
H6 H 0.9827 0.4882 0.3893
H7 H 0.9504 0.4381 0.44
C5 C 0.88567(10) 0.51549(13) 0.39856(9)
H8 H 0.8918 0.5621 0.4252
H9 H 0.8819 0.5393 0.3605
C6 C 0.82394(10) 0.46862(12) 0.41323(9)
H10 H 0.7867 0.5067 0.4102
H11 H 0.8263 0.4479 0.4522
C7 C 0.72396(9) 0.27718(12) 0.31692(8)
H12 H 0.7595 0.2355 0.3147
C8 C 0.72457(11) 0.32861(13) 0.26250(8)
H13 H 0.6913 0.3725 0.2645
H14 H 0.7668 0.3561 0.2581
C9 C 0.71173(12) 0.27205(14) 0.21184(9)
H15 H 0.7109 0.3063 0.1774
H16 H 0.747 0.2311 0.2082
C10 C 0.64869(12) 0.22599(14) 0.21754(9)
H17 H 0.6427 0.1885 0.185
H18 H 0.6129 0.2666 0.2179
C11 C 0.64766(11) 0.17498(13) 0.27146(9)
H19 H 0.6806 0.1307 0.2692
H20 H 0.6053 0.1477 0.2754
C12 C 0.66043(10) 0.22906(13) 0.32295(8)
H21 H 0.6623 0.1932 0.3567
H22 H 0.6247 0.2691 0.3279
C13 C 0.72990(9) 0.27735(12) 0.44059(8)
H23 H 0.6839 0.2596 0.4416
C14 C 0.76918(10) 0.19580(12) 0.43929(8)
H24 H 0.761 0.1654 0.404
H25 H 0.8156 0.2085 0.4415
C15 C 0.74901(10) 0.14232(12) 0.48938(8)
H26 H 0.7035 0.126 0.485
H27 H 0.7751 0.0907 0.4899
C16 C 0.75728(11) 0.18798(14) 0.54484(9)
H28 H 0.8035 0.1981 0.5516
H29 H 0.741 0.1525 0.5756
C17 C 0.72151(11) 0.27116(13) 0.54513(9)
H30 H 0.731 0.3012 0.5804
H31 H 0.6748 0.2606 0.5437
C18 C 0.74112(10) 0.32543(12) 0.49525(8)
H32 H 0.787 0.3407 0.4985
H33 H 0.7155 0.3774 0.4951
C19 C 0.57719(9) 0.55073(11) 0.38049(8)
C20 C 0.57159(9) 0.47534(12) 0.40843(8)
F2 F 0.51872(5) 0.46048(7) 0.43938(5)
C21 C 0.61710(9) 0.41295(11) 0.40765(8)
F3 F 0.60301(5) 0.34192(7) 0.43516(5)
C22 C 0.67500(9) 0.42150(11) 0.37891(8)
C23 C 0.68066(9) 0.49652(12) 0.34935(8)
F4 F 0.73316(5) 0.51152(7) 0.31770(5)
C24 C 0.63407(9) 0.55752(11) 0.35056(8)
F5 F 0.64739(5) 0.62719(7) 0.32068(5)
C25 C 0.51670(9) 0.67494(11) 0.44045(8)
C26 C 0.47446(9) 0.74220(12) 0.44302(8)
F6 F 0.43533(5) 0.75861(7) 0.39929(5)
C27 C 0.46783(10) 0.79382(12) 0.48884(9)
F7 F 0.42550(6) 0.85730(8) 0.48831(6)
C28 C 0.50391(10) 0.77849(13) 0.53614(9)
F8 F 0.49595(7) 0.82567(9) 0.58221(6)
C29 C 0.54623(10) 0.71273(13) 0.53625(8)
F9 F 0.58020(7) 0.69582(9) 0.58249(5)
C30 C 0.55207(9) 0.66342(12) 0.48890(8)
F10 F 0.59463(6) 0.60001(7) 0.49297(5)
C31 C 0.45092(9) 0.57224(11) 0.36917(8)
C32 C 0.40120(9) 0.55859(11) 0.40706(8)
F11 F 0.40625(6) 0.58330(7) 0.46066(5)
C33 C 0.34444(10) 0.51931(12) 0.39303(9)
F12 F 0.29774(6) 0.50905(8) 0.43121(5)
C34 C 0.33504(10) 0.49125(13) 0.33926(9)
F13 F 0.27968(6) 0.45375(9) 0.32527(6)
C35 C 0.38288(11) 0.50171(13) 0.30060(9)
F14 F 0.37390(7) 0.47445(8) 0.24786(5)
C36 C 0.43924(10) 0.54132(12) 0.31587(8)
F15 F 0.48433(6) 0.54920(8) 0.27558(5)
C37 C 0.6304(2) 0.4745(3) 0.12624(18)
H34 H 0.6756 0.4563 0.1303
H35 H 0.6052 0.4253 0.1144
Cl1 Cl 0.60260(17) 0.5070(3) 0.19153(10)
Cl2 Cl 0.62685(9) 0.5467(2) 0.07484(9)
C39 C 0.53813(14) 0.75008(19) 0.21522(12)
H38 H 0.5257 0.7244 0.2513
H39 H 0.5272 0.7104 0.1849
Cl5 Cl 0.62127(4) 0.76878(5) 0.21486(3)
Cl6 Cl 0.49491(3) 0.84367(5) 0.20558(4)
C38? C 0.6506(15) 0.5597(17) 0.1713(9)
H36? H 0.6404 0.6082 0.1952
H37? H 0.6952 0.5424 0.1793
Cl3? Cl 0.6450(4) 0.5877(5) 0.1043(5)
Cl4? Cl 0.6003(3) 0.4803(7) 0.1872(3)
loop_
_geom_bond_atom_site_label_1
_geom_bond_atom_site_label_2
_geom_bond_site_symmetry_1
_geom_bond_site_symmetry_2
P1 C1 1_555 1_555
B1 F1 1_555 1_555
C1 H1 1_555 1_555
C2 C1 1_555 1_555
H2 C2 1_555 1_555
H3 C2 1_555 1_555
C3 C2 1_555 1_555
H4 C3 1_555 1_555
H5 C3 1_555 1_555
C4 C3 1_555 1_555
H6 C4 1_555 1_555
H7 C4 1_555 1_555
C5 C4 1_555 1_555
H8 C5 1_555 1_555
H9 C5 1_555 1_555
C6 C1 1_555 1_555
H10 C6 1_555 1_555
H11 C6 1_555 1_555
C7 P1 1_555 1_555
H12 C7 1_555 1_555
C8 C7 1_555 1_555
H13 C8 1_555 1_555
H14 C8 1_555 1_555
C9 C8 1_555 1_555
H15 C9 1_555 1_555
H16 C9 1_555 1_555
C10 C9 1_555 1_555
H17 C10 1_555 1_555
H18 C10 1_555 1_555
C11 C10 1_555 1_555
H19 C11 1_555 1_555
H20 C11 1_555 1_555
C12 C7 1_555 1_555
H21 C12 1_555 1_555
H22 C12 1_555 1_555
C13 P1 1_555 1_555
H23 C13 1_555 1_555
C14 C13 1_555 1_555
H24 C14 1_555 1_555
H25 C14 1_555 1_555
C15 C14 1_555 1_555
H26 C15 1_555 1_555
H27 C15 1_555 1_555
C16 C15 1_555 1_555
H28 C16 1_555 1_555
H29 C16 1_555 1_555
C17 C16 1_555 1_555
H30 C17 1_555 1_555
H31 C17 1_555 1_555
C18 C13 1_555 1_555
H32 C18 1_555 1_555
H33 C18 1_555 1_555
C19 B1 1_555 1_555
C20 C19 1_555 1_555
F2 C20 1_555 1_555
C21 C20 1_555 1_555
F3 C21 1_555 1_555
C22 P1 1_555 1_555
C23 C22 1_555 1_555
F4 C23 1_555 1_555
C24 C19 1_555 1_555
F5 C24 1_555 1_555
C25 B1 1_555 1_555
C26 C25 1_555 1_555
F6 C26 1_555 1_555
C27 C26 1_555 1_555
F7 C27 1_555 1_555
C28 C27 1_555 1_555
F8 C28 1_555 1_555
C29 C28 1_555 1_555
F9 C29 1_555 1_555
C30 C25 1_555 1_555
F10 C30 1_555 1_555
C31 B1 1_555 1_555
C32 C31 1_555 1_555
F11 C32 1_555 1_555
C33 C32 1_555 1_555
F12 C33 1_555 1_555
C34 C33 1_555 1_555
F13 C34 1_555 1_555
C35 C34 1_555 1_555
F14 C35 1_555 1_555
C36 C31 1_555 1_555
F15 C36 1_555 1_555
C37 H34 1_555 1_555
H35 C37 1_555 1_555
Cl1 C37 1_555 1_555
Cl2 C37 1_555 1_555
C39 H38 1_555 1_555
H39 C39 1_555 1_555
Cl5 C39 1_555 1_555
Cl6 C39 1_555 1_555
C5 C6 1_555 1_555
C11 C12 1_555 1_555
C17 C18 1_555 1_555
C21 C22 1_555 1_555
C23 C24 1_555 1_555
C29 C30 1_555 1_555
C35 C36 1_555 1_555

#END
