
#######################################################################
#
#                 Cambridge Crystallographic Data Centre
#                                CCDC 
#
#######################################################################
#
# If this CIF has been generated from an entry in the Cambridge 
# Structural Database, then it will include bibliographic, chemical, 
# crystal, experimental, refinement or atomic coordinate data resulting 
# from the CCDC's data processing and validation procedures.
#
#######################################################################

data_LEYJEF
_chemical_formula_moiety         'C13 H15 N1 O2'
_chemical_name_systematic        
1-(2-(o-Tolylamino)-4,5-dihydrofuran-3-yl)ethanone
_symmetry_cell_setting           orthorhombic
_symmetry_space_group_name_H-M   'P 21 21 21'
_symmetry_Int_Tables_number      19
_space_group_name_Hall           'P 2ac 2ab'
loop_
_symmetry_equiv_pos_site_id
_symmetry_equiv_pos_as_xyz
1 x,y,z
2 1/2-x,-y,1/2+z
3 1/2+x,1/2-y,-z
4 -x,1/2+y,1/2-z
_cell_length_a                   7.330(5)
_cell_length_b                   8.172(5)
_cell_length_c                   19.187(5)
_cell_angle_alpha                90
_cell_angle_beta                 90
_cell_angle_gamma                90
_cell_volume                     1149.32
_chemical_melting_point          '106-107 deg.C'
_cell_formula_units_Z            4
loop_
_atom_site_label
_atom_site_type_symbol
_atom_site_fract_x
_atom_site_fract_y
_atom_site_fract_z
C1 C 0.9290(3) 0.3960(3) 0.51871(11)
H1 H 0.8141 0.4518 0.5224
H2 H 0.9767 0.4095 0.4725
H3 H 1.0132 0.4412 0.5518
C2 C 0.9021(2) 0.2161(2) 0.53358(10)
C3 C 0.9380(3) 0.1007(3) 0.48286(11)
H4 H 0.9766 0.1357 0.4392
C4 C 0.9189(3) -0.0636(3) 0.49473(11)
H5 H 0.9469 -0.1386 0.4599
C5 C 0.8579(3) -0.1167(3) 0.55847(11)
H6 H 0.8424 -0.2280 0.5667
C6 C 0.8195(3) -0.0051(2) 0.61033(10)
H7 H 0.7783 -0.0412 0.6535
C7 C 0.8420(2) 0.1604(2) 0.59832(9)
C8 C 0.7743(3) 0.2705(2) 0.71783(10)
C9 C 0.7532(4) 0.1497(3) 0.82271(10)
H8 H 0.8638 0.1191 0.8472
H9 H 0.6534 0.0836 0.8404
C10 C 0.7129(3) 0.3300(3) 0.83373(9)
H10 H 0.5883 0.3470 0.8491
H11 H 0.7959 0.3782 0.8673
C11 C 0.7432(3) 0.3990(2) 0.76179(9)
C12 C 0.7407(3) 0.5618(3) 0.73945(11)
C13 C 0.7111(4) 0.6959(3) 0.79248(12)
H12 H 0.7282 0.8005 0.7707
H13 H 0.7971 0.6836 0.8299
H14 H 0.5893 0.6887 0.8106
N1 N 0.8030(2) 0.28107(19) 0.64906(8)
H15 H 0.7964 0.3789 0.6328
O1 O 0.7754(2) 0.12321(17) 0.74794(6)
O2 O 0.7609(3) 0.60024(17) 0.67664(8)
loop_
_geom_bond_atom_site_label_1
_geom_bond_atom_site_label_2
_geom_bond_site_symmetry_1
_geom_bond_site_symmetry_2
C1 H1 1_555 1_555
H2 C1 1_555 1_555
H3 C1 1_555 1_555
C2 C1 1_555 1_555
C3 C2 1_555 1_555
H4 C3 1_555 1_555
C4 C3 1_555 1_555
H5 C4 1_555 1_555
C5 C4 1_555 1_555
H6 C5 1_555 1_555
C6 C5 1_555 1_555
H7 C6 1_555 1_555
C7 C2 1_555 1_555
C8 C11 1_555 1_555
C9 H8 1_555 1_555
H9 C9 1_555 1_555
C10 C9 1_555 1_555
H10 C10 1_555 1_555
H11 C10 1_555 1_555
C11 C10 1_555 1_555
C12 C11 1_555 1_555
C13 C12 1_555 1_555
H12 C13 1_555 1_555
H13 C13 1_555 1_555
H14 C13 1_555 1_555
N1 C7 1_555 1_555
H15 N1 1_555 1_555
O1 C8 1_555 1_555
O2 C12 1_555 1_555
C6 C7 1_555 1_555
C8 N1 1_555 1_555
C9 O1 1_555 1_555

#END
