
#######################################################################
#
#                 Cambridge Crystallographic Data Centre
#                                CCDC 
#
#######################################################################
#
# If this CIF has been generated from an entry in the Cambridge 
# Structural Database, then it will include bibliographic, chemical, 
# crystal, experimental, refinement or atomic coordinate data resulting 
# from the CCDC's data processing and validation procedures.
#
#######################################################################

data_LEYWAQ
_chemical_formula_moiety         'C17 H19 Br1 O3'
_chemical_name_systematic        
1-(benzenecarbonyl)-1-(bromomethyl)-2-oxaspiro[4.5]decan-3-one
_symmetry_cell_setting           orthorhombic
_symmetry_space_group_name_H-M   'P 21 21 21'
_symmetry_Int_Tables_number      19
_space_group_name_Hall           'P 2ac 2ab'
loop_
_symmetry_equiv_pos_site_id
_symmetry_equiv_pos_as_xyz
1 x,y,z
2 1/2-x,-y,1/2+z
3 1/2+x,1/2-y,-z
4 -x,1/2+y,1/2-z
_cell_length_a                   6.4352(3)
_cell_length_b                   13.3936(6)
_cell_length_c                   17.3163(11)
_cell_angle_alpha                90
_cell_angle_beta                 90
_cell_angle_gamma                90
_cell_volume                     1492.5
_exptl_crystal_colour            colorless
_exptl_crystal_description       block
_cell_formula_units_Z            4
loop_
_atom_site_label
_atom_site_type_symbol
_atom_site_fract_x
_atom_site_fract_y
_atom_site_fract_z
O1 O -0.0657(4) -0.60614(18) -0.87611(16)
C1 C -0.4885(6) -0.3731(2) -0.9892(2)
C2 C -0.3817(6) -0.5823(3) -0.8112(2)
O2 O -0.6222(4) -0.3105(2) -0.99166(17)
C3 C -0.4973(7) -0.6525(3) -1.0865(2)
H1 H -0.5940 -0.7072 -1.0787
H2 H -0.5624 -0.6043 -1.1206
C4 C -0.4491(5) -0.6032(3) -1.0090(2)
H3 H -0.3993 -0.6537 -0.9734
H4 H -0.5765 -0.5758 -0.9879
O3 O -0.4123(4) -0.40576(18) -0.92023(15)
C5 C -0.3821(6) -0.4271(3) -1.0540(2)
H5 H -0.2757 -0.3857 -1.0773
H6 H -0.4811 -0.4468 -1.0934
C6 C -0.7018(7) -0.5634(3) -0.7405(2)
H7 H -0.8275 -0.5304 -0.7333
C7 C -0.0904(6) -0.5581(3) -1.0563(2)
H8 H 0.0041 -0.5028 -1.0651
H9 H -0.0203 -0.6060 -1.0233
C8 C -0.2857(5) -0.5192(3) -1.0147(2)
C9 C -0.4623(7) -0.6915(3) -0.7040(2)
H10 H -0.4265 -0.7451 -0.6725
C10 C -0.2243(6) -0.5577(3) -0.8713(2)
C11 C -0.5703(6) -0.5336(3) -0.7997(2)
H11 H -0.6084 -0.4810 -0.8318
C12 C -0.6485(6) -0.6411(3) -0.6922(2)
H12 H -0.7363 -0.6597 -0.6521
C13 C -0.1417(7) -0.6076(3) -1.1335(2)
H13 H -0.0154 -0.6345 -1.1560
H14 H -0.1967 -0.5579 -1.1687
C14 C -0.3005(7) -0.6916(3) -1.1236(3)
H15 H -0.3331 -0.7202 -1.1736
H16 H -0.2416 -0.7439 -1.0916
Br1 Br -0.00867(7) -0.35128(3) -0.82980(2)
C15 C -0.3307(6) -0.6617(3) -0.7626(2)
H17 H -0.2056 -0.6952 -0.7699
C16 C -0.0401(6) -0.4147(3) -0.9303(2)
H18 H -0.0421 -0.3640 -0.9703
H19 H 0.0771 -0.4585 -0.9399
C17 C -0.2409(6) -0.4747(2) -0.9331(2)
loop_
_geom_bond_atom_site_label_1
_geom_bond_atom_site_label_2
_geom_bond_site_symmetry_1
_geom_bond_site_symmetry_2
O1 C10 1_555 1_555
C1 O2 1_555 1_555
C2 C10 1_555 1_555
C3 H1 1_555 1_555
H2 C3 1_555 1_555
C4 C3 1_555 1_555
H3 C4 1_555 1_555
H4 C4 1_555 1_555
O3 C1 1_555 1_555
C5 C1 1_555 1_555
H5 C5 1_555 1_555
H6 C5 1_555 1_555
C6 H7 1_555 1_555
C7 H8 1_555 1_555
H9 C7 1_555 1_555
C8 C4 1_555 1_555
C9 H10 1_555 1_555
C10 C17 1_555 1_555
C11 C2 1_555 1_555
H11 C11 1_555 1_555
C12 C6 1_555 1_555
H12 C12 1_555 1_555
C13 C7 1_555 1_555
H13 C13 1_555 1_555
H14 C13 1_555 1_555
C14 C3 1_555 1_555
H15 C14 1_555 1_555
H16 C14 1_555 1_555
Br1 C16 1_555 1_555
C15 C2 1_555 1_555
H17 C15 1_555 1_555
C16 H18 1_555 1_555
H19 C16 1_555 1_555
C17 O3 1_555 1_555
C5 C8 1_555 1_555
C6 C11 1_555 1_555
C7 C8 1_555 1_555
C8 C17 1_555 1_555
C9 C12 1_555 1_555
C9 C15 1_555 1_555
C13 C14 1_555 1_555
C16 C17 1_555 1_555

#END
