
#######################################################################
#
#                 Cambridge Crystallographic Data Centre
#                                CCDC 
#
#######################################################################
#
# If this CIF has been generated from an entry in the Cambridge 
# Structural Database, then it will include bibliographic, chemical, 
# crystal, experimental, refinement or atomic coordinate data resulting 
# from the CCDC's data processing and validation procedures.
#
#######################################################################

data_LEYXOE
_chemical_compound_source        
'basidiomycete Stereum sp. CCTCC AF 2012007, collected in Xishuangbanna, Yunnan Province'
_chemical_name_common            'Stereumin L'
_chemical_formula_moiety         'C15 H18 O3'
_chemical_name_systematic        
3,6,9-Trimethyl-5,6,6a,7,9a,9b-hexahydrobenzo[de]chromene-2,4-dione
_symmetry_cell_setting           orthorhombic
_symmetry_space_group_name_H-M   'P 21 21 21'
_symmetry_Int_Tables_number      19
_space_group_name_Hall           'P 2ac 2ab'
loop_
_symmetry_equiv_pos_site_id
_symmetry_equiv_pos_as_xyz
1 x,y,z
2 1/2-x,-y,1/2+z
3 -x,1/2+y,1/2-z
4 1/2+x,1/2-y,-z
_cell_length_a                   4.7304(12)
_cell_length_b                   16.265(4)
_cell_length_c                   16.469(4)
_cell_angle_alpha                90
_cell_angle_beta                 90
_cell_angle_gamma                90
_cell_volume                     1267.12
_exptl_crystal_colour            colorless
_exptl_crystal_description       block
_chemical_melting_point          '169-172 deg.C'
_cell_formula_units_Z            4
loop_
_atom_site_label
_atom_site_type_symbol
_atom_site_fract_x
_atom_site_fract_y
_atom_site_fract_z
O1 O 0.2138(5) 0.90632(14) 0.22787(13)
O2 O 0.1521(5) 1.00041(16) 0.32168(14)
O3 O 0.9591(5) 0.78875(17) 0.42061(14)
C1 C 0.2855(8) 0.9411(2) 0.2994(2)
C2 C 0.4988(8) 0.9001(2) 0.34965(19)
C3 C 0.7462(8) 0.7711(2) 0.3833(2)
C4 C 0.5992(8) 0.6904(2) 0.3905(2)
H1 H 0.4310 0.6977 0.4233
H2 H 0.7225 0.6524 0.4189
C5 C 0.5129(8) 0.6515(2) 0.30955(19)
H3 H 0.6859 0.6334 0.2821
C6 C 0.3090(8) 0.6770(2) 0.16978(19)
H4 H 0.4759 0.6475 0.1519
H5 H 0.1548 0.6379 0.1733
C7 C 0.2370(8) 0.7406(2) 0.1087(2)
H6 H 0.1540 0.7223 0.0608
C8 C 0.2784(8) 0.8194(2) 0.1153(2)
C9 C 0.1995(10) 0.8818(2) 0.0519(2)
H7 H 0.1028 0.8550 0.0081
H8 H 0.3675 0.9078 0.0317
H9 H 0.0777 0.9225 0.0755
C10 C 0.3347(8) 0.5753(2) 0.3267(2)
H10 H 0.1644 0.5911 0.3543
H11 H 0.4400 0.5380 0.3602
H12 H 0.2875 0.5488 0.2764
C11 C 0.5514(8) 0.9402(2) 0.43006(19)
H13 H 0.3743 0.9498 0.4569
H14 H 0.6470 0.9916 0.4219
H15 H 0.6666 0.9048 0.4630
C12 C 0.6000(6) 0.8278(2) 0.32633(19)
C13 C 0.3641(7) 0.7128(2) 0.25363(17)
H16 H 0.1821 0.7275 0.2781
C14 C 0.4235(7) 0.8537(2) 0.18924(19)
H17 H 0.5802 0.8885 0.1709
C15 C 0.5404(7) 0.79024(19) 0.24580(17)
H18 H 0.7232 0.7733 0.2233
loop_
_geom_bond_atom_site_label_1
_geom_bond_atom_site_label_2
_geom_bond_site_symmetry_1
_geom_bond_site_symmetry_2
O1 C1 1_555 1_555
O2 C1 1_555 1_555
O3 C3 1_555 1_555
C1 C2 1_555 1_555
C2 C11 1_555 1_555
C3 C4 1_555 1_555
C4 H1 1_555 1_555
H2 C4 1_555 1_555
C5 C4 1_555 1_555
H3 C5 1_555 1_555
C6 H4 1_555 1_555
H5 C6 1_555 1_555
C7 C6 1_555 1_555
H6 C7 1_555 1_555
C8 C7 1_555 1_555
C9 C8 1_555 1_555
H7 C9 1_555 1_555
H8 C9 1_555 1_555
H9 C9 1_555 1_555
C10 C5 1_555 1_555
H10 C10 1_555 1_555
H11 C10 1_555 1_555
H12 C10 1_555 1_555
C11 H13 1_555 1_555
H14 C11 1_555 1_555
H15 C11 1_555 1_555
C12 C2 1_555 1_555
C13 C5 1_555 1_555
H16 C13 1_555 1_555
C14 O1 1_555 1_555
H17 C14 1_555 1_555
C15 C12 1_555 1_555
H18 C15 1_555 1_555
C3 C12 1_555 1_555
C6 C13 1_555 1_555
C8 C14 1_555 1_555
C13 C15 1_555 1_555
C14 C15 1_555 1_555

#END
