
#######################################################################
#
#                 Cambridge Crystallographic Data Centre
#                                CCDC 
#
#######################################################################
#
# If this CIF has been generated from an entry in the Cambridge 
# Structural Database, then it will include bibliographic, chemical, 
# crystal, experimental, refinement or atomic coordinate data resulting 
# from the CCDC's data processing and validation procedures.
#
#######################################################################

data_LEYYAQ
_chemical_formula_moiety         'C22 H19 Cl1 N2 O2 S1,H2 O1'
_chemical_name_systematic        
'2-Chloro-2,3-diphenyl-3-(p-tosylamino)propionitrile monohydrate'
_symmetry_cell_setting           monoclinic
_symmetry_space_group_name_H-M   'C 2/c'
_symmetry_Int_Tables_number      15
_space_group_name_Hall           '-C 2yn'
loop_
_symmetry_equiv_pos_site_id
_symmetry_equiv_pos_as_xyz
1 x,y,z
2 1/2+x,1/2+y,z
3 -x,y,1/2-z
4 1/2-x,1/2+y,1/2-z
5 -x,-y,-z
6 1/2-x,1/2-y,-z
7 x,-y,1/2+z
8 1/2+x,1/2-y,1/2+z
_cell_length_a                   17.8838(16)
_cell_length_b                   14.3201(16)
_cell_length_c                   18.4191(18)
_cell_angle_alpha                90
_cell_angle_beta                 110.153(2)
_cell_angle_gamma                90
_cell_volume                     4428.29
_chemical_melting_point          154-156deg.C
_cell_formula_units_Z            8
loop_
_atom_site_label
_atom_site_type_symbol
_atom_site_fract_x
_atom_site_fract_y
_atom_site_fract_z
C1 C 0.13894(13) 1.07996(17) 0.47607(13)
C2 C 0.15118(16) 1.1071(2) 0.55164(15)
H1 H 0.1702 1.1666 0.5685
C3 C 0.13498(17) 1.0455(2) 0.60123(15)
H2 H 0.1432 1.0644 0.6517
C4 C 0.10686(16) 0.9564(2) 0.57886(16)
C5 C 0.09471(17) 0.93095(19) 0.50364(17)
H3 H 0.0755 0.8714 0.4871
C6 C 0.11019(17) 0.99149(19) 0.45163(18)
H4 H 0.1013 0.9728 0.4010
C7 C 0.09000(18) 0.8891(2) 0.63374(17)
H5 H 0.0443 0.8520 0.6063
H6 H 0.0797 0.9231 0.6742
H7 H 0.1352 0.8491 0.6558
C8 C 0.28173(14) 1.06234(17) 0.39183(14)
H8 H 0.2370 1.0400 0.3475
C9 C 0.34875(15) 1.09173(18) 0.35955(14)
C10 C 0.37711(14) 1.00702(18) 0.32687(14)
C11 C 0.33201(17) 0.9764(2) 0.25412(15)
H9 H 0.2896 1.0124 0.2235
C12 C 0.34923(18) 0.8923(2) 0.22596(16)
H10 H 0.3175 0.8716 0.1772
C13 C 0.41259(17) 0.8398(2) 0.26960(16)
H11 H 0.4239 0.7831 0.2510
C14 C 0.45948(17) 0.8716(2) 0.34139(17)
H12 H 0.5033 0.8367 0.3709
C15 C 0.44205(15) 0.9554(2) 0.37034(15)
H13 H 0.4741 0.9765 0.4188
C16 C 0.31719(17) 1.1659(2) 0.29994(17)
C17 C 0.30629(14) 0.98150(17) 0.44818(15)
C18 C 0.29224(16) 0.89159(18) 0.42103(16)
H14 H 0.2667 0.8811 0.3684
C19 C 0.31522(17) 0.8174(2) 0.47028(16)
H15 H 0.3060 0.7570 0.4506
C20 C 0.35154(18) 0.8305(2) 0.54790(17)
H16 H 0.3669 0.7793 0.5808
C21 C 0.36541(17) 0.9198(2) 0.57730(17)
H17 H 0.3897 0.9292 0.6302
C22 C 0.34281(17) 0.9960(2) 0.52730(17)
H18 H 0.3521 1.0565 0.5468
Cl1 Cl 0.42954(4) 1.14654(5) 0.43605(4)
N1 N 0.25357(12) 1.14580(13) 0.42031(11)
H19 H 0.2854 1.1693 0.4618
N2 N 0.29541(14) 1.21808(19) 0.25634(15)
O1 O 0.11490(11) 1.12896(14) 0.33494(9)
O2 O 0.15369(11) 1.25087(12) 0.43666(10)
S1 S 0.16039(3) 1.15687(4) 0.41152(3)
O3 O 0.3987(3) 0.3673(4) 0.2182(3)
H20 H 0.3805 0.3306 0.1798
H21 H 0.3693 0.3647 0.2459
O4? O 0.4787(2) 0.3393(3) 0.2633(2)
H22? H 0.4918 0.2918 0.2428
H23? H 0.5105 0.3839 0.2651
loop_
_geom_bond_atom_site_label_1
_geom_bond_atom_site_label_2
_geom_bond_site_symmetry_1
_geom_bond_site_symmetry_2
C1 C2 1_555 1_555
C2 H1 1_555 1_555
C3 C2 1_555 1_555
H2 C3 1_555 1_555
C4 C3 1_555 1_555
C5 C4 1_555 1_555
H3 C5 1_555 1_555
C6 C1 1_555 1_555
H4 C6 1_555 1_555
C7 C4 1_555 1_555
H5 C7 1_555 1_555
H6 C7 1_555 1_555
H7 C7 1_555 1_555
C8 H8 1_555 1_555
C9 C8 1_555 1_555
C10 C9 1_555 1_555
C11 C10 1_555 1_555
H9 C11 1_555 1_555
C12 C11 1_555 1_555
H10 C12 1_555 1_555
C13 C12 1_555 1_555
H11 C13 1_555 1_555
C14 C13 1_555 1_555
H12 C14 1_555 1_555
C15 C10 1_555 1_555
H13 C15 1_555 1_555
C16 C9 1_555 1_555
C17 C8 1_555 1_555
C18 C17 1_555 1_555
H14 C18 1_555 1_555
C19 C18 1_555 1_555
H15 C19 1_555 1_555
C20 C19 1_555 1_555
H16 C20 1_555 1_555
C21 C20 1_555 1_555
H17 C21 1_555 1_555
C22 C17 1_555 1_555
H18 C22 1_555 1_555
Cl1 C9 1_555 1_555
N1 C8 1_555 1_555
H19 N1 1_555 1_555
N2 C16 1_555 1_555
O1 S1 1_555 1_555
O2 S1 1_555 1_555
O3 H20 1_555 1_555
H21 O3 1_555 1_555
S1 C1 1_555 1_555
C5 C6 1_555 1_555
C14 C15 1_555 1_555
C21 C22 1_555 1_555
N1 S1 1_555 1_555

#END
