
#######################################################################
#
#                 Cambridge Crystallographic Data Centre
#                                CCDC 
#
#######################################################################
#
# If this CIF has been generated from an entry in the Cambridge 
# Structural Database, then it will include bibliographic, chemical, 
# crystal, experimental, refinement or atomic coordinate data resulting 
# from the CCDC's data processing and validation procedures.
#
#######################################################################

data_LEZDEB
_chemical_formula_moiety         'C32 H30 Cl1 N1 O4'
_chemical_name_systematic        
't-Butyl 3-benzyl-3-(3-(4-chlorobenzylidene)-4-oxocyclopentyl)-2-oxoindoline-1-carboxylate'
_symmetry_cell_setting           monoclinic
_symmetry_space_group_name_H-M   'P 21'
_symmetry_Int_Tables_number      4
_space_group_name_Hall           'P 2yb'
loop_
_symmetry_equiv_pos_site_id
_symmetry_equiv_pos_as_xyz
1 x,y,z
2 -x,1/2+y,-z
_cell_length_a                   12.462(3)
_cell_length_b                   8.7578(18)
_cell_length_c                   12.979(3)
_cell_angle_alpha                90
_cell_angle_beta                 96.55(3)
_cell_angle_gamma                90
_cell_volume                     1407.28
_exptl_crystal_colour            colorless
_exptl_crystal_description       block
_cell_formula_units_Z            2
loop_
_atom_site_label
_atom_site_type_symbol
_atom_site_fract_x
_atom_site_fract_y
_atom_site_fract_z
Cl1 Cl 0.97728(6) 0.93886(16) 0.94175(7)
O1 O 1.67948(14) 0.8015(2) 1.09156(11)
O2 O 1.77234(13) 0.51075(17) 0.72339(12)
O3 O 2.01854(14) 0.8087(2) 0.66325(17)
N1 N 1.84803(14) 0.75115(19) 0.69919(13)
C1 C 1.57243(17) 0.6692(2) 0.62914(14)
H1 H 1.5564 0.5633 0.6492
H2 H 1.5050 0.7292 0.6285
C2 C 1.69262(16) 0.8972(2) 0.68938(14)
C3 C 1.60588(16) 0.6675(2) 0.52050(14)
C4 C 1.58131(17) 0.7896(3) 0.45365(15)
H3 H 1.5439 0.8754 0.4765
C5 C 1.52685(18) 0.8085(3) 0.96002(15)
C6 C 1.80430(16) 0.9013(2) 0.68439(14)
C7 C 1.62278(16) 0.7155(2) 0.82238(15)
H4 H 1.6106 0.6038 0.8322
C8 C 1.76463(17) 0.6469(2) 0.71276(15)
C9 C 1.7951(2) 1.1683(3) 0.65421(18)
H5 H 1.8296 1.2629 0.6438
C10 C 1.51827(17) 0.7992(3) 0.84310(15)
H6 H 1.5149 0.9024 0.8117
H7 H 1.4535 0.7408 0.8150
C11 C 1.66214(19) 0.5439(3) 0.48564(17)
H8 H 1.6797 0.4595 0.5304
C12 C 1.68374(19) 1.1650(2) 0.65571(17)
H9 H 1.6430 1.2565 0.6453
C13 C 1.65840(16) 0.7371(2) 0.71232(14)
C14 C 1.95738(18) 0.7155(3) 0.69017(17)
C15 C 1.61082(18) 0.7875(3) 0.35409(16)
H10 H 1.5928 0.8713 0.3089
C16 C 1.64286(18) 0.7927(3) 1.00137(16)
C17 C 1.63218(18) 1.0287(2) 0.67241(15)
H11 H 1.5560 1.0257 0.6722
C18 C 1.1793(2) 0.9441(3) 0.89120(19)
H12 H 1.1493 0.9923 0.8289
C19 C 1.28990(19) 0.9149(3) 0.90949(17)
H13 H 1.3352 0.9430 0.8585
C20 C 1.6929(2) 0.5429(3) 0.38604(18)
H14 H 1.7321 0.4587 0.3634
C21 C 1.70706(18) 0.7683(3) 0.91094(16)
H15 H 1.7633 0.6893 0.9273
H16 H 1.7421 0.8643 0.8924
C22 C 1.85706(18) 1.0364(2) 0.66762(17)
H17 H 1.9330 1.0390 0.6653
C23 C 1.6665(2) 0.6639(3) 0.31983(17)
H18 H 1.6864 0.6624 0.2513
C24 C 1.45155(19) 0.8221(3) 1.02446(15)
H19 H 1.4770 0.8155 1.0961
C25 C 2.0847(2) 0.5028(3) 0.7027(2)
C26 C 1.33557(19) 0.8457(3) 1.00067(16)
C27 C 1.1150(2) 0.9018(4) 0.9650(2)
C28 C 1.2669(2) 0.8083(4) 1.07419(19)
H20 H 1.2961 0.7633 1.1379
C29 C 1.1567(2) 0.8354(4) 1.0562(2)
H21 H 1.1106 0.8081 1.1068
O4 O 1.9799(3) 0.5749(6) 0.7243(4)
C30 C 2.0738(3) 0.3470(4) 0.7552(5)
H22 H 2.1347 0.2816 0.7424
H23 H 2.0060 0.2984 0.7267
H24 H 2.0737 0.3617 0.8301
C31 C 2.1768(5) 0.5855(9) 0.7611(6)
H25 H 2.1597 0.6078 0.8314
H26 H 2.1896 0.6814 0.7255
H27 H 2.2418 0.5218 0.7649
C32 C 2.0906(8) 0.4893(10) 0.5889(4)
H28 H 2.0953 0.5914 0.5589
H29 H 2.0256 0.4377 0.5562
H30 H 2.1546 0.4299 0.5768
O5? O 1.9723(8) 0.5699(19) 0.6898(11)
C33? C 2.0593(11) 0.3323(10) 0.6927(17)
H31? H 2.1265 0.2751 0.6901
H32? H 2.0109 0.3139 0.6290
H33? H 2.0243 0.2987 0.7527
C34? C 2.1598(14) 0.571(3) 0.7864(13)
H34? H 2.2321 0.5277 0.7845
H35? H 2.1346 0.5485 0.8536
H36? H 2.1625 0.6817 0.7766
C35? C 2.1145(19) 0.540(3) 0.5958(9)
H37? H 2.1264 0.6507 0.5906
H38? H 2.0556 0.5094 0.5434
H39? H 2.1806 0.4858 0.5842
loop_
_geom_bond_atom_site_label_1
_geom_bond_atom_site_label_2
_geom_bond_site_symmetry_1
_geom_bond_site_symmetry_2
Cl1 C27 1_555 1_555
O1 C16 1_555 1_555
O2 C8 1_555 1_555
O3 C14 1_555 1_555
N1 C6 1_555 1_555
C1 H1 1_555 1_555
H2 C1 1_555 1_555
C2 C6 1_555 1_555
C3 C1 1_555 1_555
C4 C3 1_555 1_555
H3 C4 1_555 1_555
C5 C10 1_555 1_555
C6 C22 1_555 1_555
C7 H4 1_555 1_555
C8 N1 1_555 1_555
C9 H5 1_555 1_555
C10 C7 1_555 1_555
H6 C10 1_555 1_555
H7 C10 1_555 1_555
C11 C3 1_555 1_555
H8 C11 1_555 1_555
C12 C9 1_555 1_555
H9 C12 1_555 1_555
C13 C1 1_555 1_555
C14 N1 1_555 1_555
C15 C4 1_555 1_555
H10 C15 1_555 1_555
C16 C5 1_555 1_555
C17 C2 1_555 1_555
H11 C17 1_555 1_555
C18 H12 1_555 1_555
C19 C18 1_555 1_555
H13 C19 1_555 1_555
C20 C11 1_555 1_555
H14 C20 1_555 1_555
C21 C7 1_555 1_555
H15 C21 1_555 1_555
H16 C21 1_555 1_555
C22 C9 1_555 1_555
H17 C22 1_555 1_555
C23 C15 1_555 1_555
H18 C23 1_555 1_555
C24 C5 1_555 1_555
H19 C24 1_555 1_555
C25 O4 1_555 1_555
C26 C19 1_555 1_555
C27 C18 1_555 1_555
C28 C26 1_555 1_555
H20 C28 1_555 1_555
C29 C27 1_555 1_555
H21 C29 1_555 1_555
O4 C14 1_555 1_555
C30 C25 1_555 1_555
H22 C30 1_555 1_555
H23 C30 1_555 1_555
H24 C30 1_555 1_555
C31 C25 1_555 1_555
H25 C31 1_555 1_555
H26 C31 1_555 1_555
H27 C31 1_555 1_555
C32 C25 1_555 1_555
H28 C32 1_555 1_555
H29 C32 1_555 1_555
H30 C32 1_555 1_555
C2 C13 1_555 1_555
C7 C13 1_555 1_555
C8 C13 1_555 1_555
C12 C17 1_555 1_555
C16 C21 1_555 1_555
C20 C23 1_555 1_555
C24 C26 1_555 1_555
C28 C29 1_555 1_555

#END
