
#######################################################################
#
#                 Cambridge Crystallographic Data Centre
#                                CCDC 
#
#######################################################################
#
# If this CIF has been generated from an entry in the Cambridge 
# Structural Database, then it will include bibliographic, chemical, 
# crystal, experimental, refinement or atomic coordinate data resulting 
# from the CCDC's data processing and validation procedures.
#
#######################################################################

data_LEZQUE01
_chemical_formula_moiety         'C7 H6 O3,C6 H5 N3'
_chemical_name_systematic        '2-hydroxybenzoic acid 1H-benzotriazole'
_symmetry_cell_setting           monoclinic
_symmetry_space_group_name_H-M   'P 21/n'
_symmetry_Int_Tables_number      14
_space_group_name_Hall           '-P 2yn'
loop_
_symmetry_equiv_pos_site_id
_symmetry_equiv_pos_as_xyz
1 x,y,z
2 1/2-x,1/2+y,1/2-z
3 -x,-y,-z
4 1/2+x,1/2-y,1/2+z
_cell_length_a                   13.786(5)
_cell_length_b                   5.372(2)
_cell_length_c                   16.688(6)
_cell_angle_alpha                90
_cell_angle_beta                 101.905(6)
_cell_angle_gamma                90
_cell_volume                     1209.3
_exptl_crystal_colour            colorless
_exptl_crystal_description       block
_cell_formula_units_Z            4
loop_
_atom_site_label
_atom_site_type_symbol
_atom_site_fract_x
_atom_site_fract_y
_atom_site_fract_z
O1 O 0.64888(11) 0.1009(3) 0.15119(8)
H1 H 0.6080 -0.0115 0.1481
O2 O 0.64911(11) -0.0146(3) 0.02254(8)
C1 C 0.67807(13) 0.1197(3) 0.08167(10)
C2 C 0.75050(13) 0.3184(3) 0.08040(10)
O3 O 0.76433(14) 0.1989(3) -0.05541(9)
H2 H 0.7245 0.0944 -0.0465
C3 C 0.79034(15) 0.3475(4) 0.01044(11)
C4 C 0.78119(14) 0.4809(4) 0.14616(11)
H3 H 0.7551 0.4641 0.1930
C5 C 0.85907(17) 0.5330(5) 0.00742(14)
H4 H 0.8860 0.5515 -0.0390
C6 C 0.84895(17) 0.6640(4) 0.14261(13)
H5 H 0.8690 0.7706 0.1868
C7 C 0.88746(17) 0.6898(4) 0.07299(15)
H6 H 0.9333 0.8151 0.0705
C8 C 0.91909(13) 0.0877(3) 0.65805(10)
N1 N 0.94640(12) 0.0827(3) 0.58430(9)
H7 H 0.9261 0.1868 0.5453
C9 C 0.96973(13) -0.1130(3) 0.70005(10)
N2 N 1.02400(12) -0.2250(3) 0.64976(9)
C10 C 0.85692(15) 0.2393(4) 0.69256(12)
H8 H 0.8230 0.3726 0.6642
C11 C 0.95990(14) -0.1706(4) 0.77998(11)
H9 H 0.9934 -0.3039 0.8087
N3 N 1.00855(12) -0.1037(3) 0.58025(9)
C12 C 0.89900(15) -0.0216(4) 0.81320(11)
H10 H 0.8904 -0.0550 0.8660
C13 C 0.84857(15) 0.1812(4) 0.77057(12)
H11 H 0.8083 0.2790 0.7962
loop_
_geom_bond_atom_site_label_1
_geom_bond_atom_site_label_2
_geom_bond_site_symmetry_1
_geom_bond_site_symmetry_2
O1 H1 1_555 1_555
O2 C1 1_555 1_555
C1 O1 1_555 1_555
C2 C1 1_555 1_555
O3 H2 1_555 1_555
C3 C2 1_555 1_555
C4 C2 1_555 1_555
H3 C4 1_555 1_555
C5 C3 1_555 1_555
H4 C5 1_555 1_555
C6 C4 1_555 1_555
H5 C6 1_555 1_555
C7 C5 1_555 1_555
H6 C7 1_555 1_555
C8 N1 1_555 1_555
N1 H7 1_555 1_555
C9 C8 1_555 1_555
N2 C9 1_555 1_555
C10 C8 1_555 1_555
H8 C10 1_555 1_555
C11 C9 1_555 1_555
H9 C11 1_555 1_555
N3 N1 1_555 1_555
C12 C11 1_555 1_555
H10 C12 1_555 1_555
C13 C10 1_555 1_555
H11 C13 1_555 1_555
O3 C3 1_555 1_555
C6 C7 1_555 1_555
N2 N3 1_555 1_555
C12 C13 1_555 1_555

#END
