
#######################################################################
#
#                 Cambridge Crystallographic Data Centre
#                                CCDC 
#
#######################################################################
#
# If this CIF has been generated from an entry in the Cambridge 
# Structural Database, then it will include bibliographic, chemical, 
# crystal, experimental, refinement or atomic coordinate data resulting 
# from the CCDC's data processing and validation procedures.
#
#######################################################################

data_LIBTIC
_chemical_formula_moiety         'C28 H27 N3 O4 S1'
_chemical_name_systematic        
6-methoxy-2-(4-methoxyphenyl)-4-{4-methyl-1-[(4-methylphenyl)sulfonyl]-2,5-dihydro-1H-pyrrol-3-yl}quinazoline
_symmetry_cell_setting           monoclinic
_symmetry_space_group_name_H-M   'P 21/c'
_symmetry_Int_Tables_number      14
_space_group_name_Hall           '-P 2ybc'
loop_
_symmetry_equiv_pos_site_id
_symmetry_equiv_pos_as_xyz
1 x,y,z
2 -x,1/2+y,1/2-z
3 -x,-y,-z
4 x,1/2-y,1/2+z
_cell_length_a                   12.7463(6)
_cell_length_b                   9.9549(5)
_cell_length_c                   20.5251(11)
_cell_angle_alpha                90
_cell_angle_beta                 107.526(6)
_cell_angle_gamma                90
_cell_volume                     2483.5
_exptl_crystal_colour            colorless
_exptl_crystal_description       block
_cell_formula_units_Z            4
loop_
_atom_site_label
_atom_site_type_symbol
_atom_site_fract_x
_atom_site_fract_y
_atom_site_fract_z
S1 S 0.58141(6) 0.10312(7) 0.60176(4)
O1 O 0.67796(18) 0.0528(2) 0.58904(11)
N1 N 0.23559(18) 0.4586(2) 0.46882(11)
O2 O 0.18022(19) 0.1363(2) 0.20908(11)
O3 O 0.50793(19) 0.0141(2) 0.62091(11)
N2 N 0.06663(19) 0.4927(2) 0.38068(12)
O4 O 0.0076(2) 0.8930(2) 0.60827(13)
N3 N 0.51103(19) 0.1776(2) 0.53314(12)
C1 C 0.3788(2) 0.3120(3) 0.46159(13)
C2 C 0.2023(2) 0.3379(3) 0.36342(13)
C3 C 0.2689(2) 0.3729(3) 0.43033(14)
C4 C 0.1345(2) 0.5169(3) 0.44167(14)
C5 C 0.0998(2) 0.6158(3) 0.48447(14)
C6 C 0.4700(2) 0.3297(3) 0.44455(14)
C7 C 0.2332(2) 0.2454(3) 0.32007(14)
H1 H 0.301618 0.203720 0.333959
C8 C 0.3971(2) 0.2221(3) 0.52275(14)
H2 H 0.389927 0.271088 0.562054
H3 H 0.346314 0.146908 0.513278
C9 C 0.1601(3) 0.2184(3) 0.25719(15)
C10 C 0.0983(2) 0.4012(3) 0.34185(14)
C11 C 0.5653(2) 0.2544(3) 0.49111(15)
H4 H 0.599192 0.195414 0.465641
H5 H 0.620409 0.315097 0.518765
C12 C -0.0340(3) 0.7759(3) 0.49936(16)
H6 H -0.100907 0.819956 0.481740
C13 C 0.1642(3) 0.6432(3) 0.55078(16)
H7 H 0.230957 0.599011 0.568625
C14 C 0.0320(3) 0.8034(3) 0.56487(17)
C15 C 0.0001(3) 0.6827(3) 0.46024(15)
H8 H -0.045063 0.664234 0.416338
C16 C 0.6239(2) 0.2246(3) 0.66714(15)
C17 C 0.0557(3) 0.2793(4) 0.23624(16)
H9 H 0.006982 0.258131 0.193730
C18 C 0.0250(3) 0.3680(3) 0.27679(16)
H10 H -0.044342 0.407422 0.262085
C19 C 0.7251(3) 0.2870(3) 0.67928(16)
H11 H 0.770630 0.266020 0.652797
C20 C 0.5572(3) 0.2571(3) 0.70680(16)
H12 H 0.489482 0.214731 0.699117
C21 C 0.5906(3) 0.3520(3) 0.75766(16)
H13 H 0.544727 0.373456 0.783841
C22 C 0.6913(3) 0.4160(3) 0.77050(16)
C23 C -0.0923(3) 0.9661(3) 0.5856(2)
H14 H -0.092839 1.018701 0.546321
H15 H -0.098617 1.024462 0.621490
H16 H -0.153150 0.904608 0.573720
C24 C 0.7579(3) 0.3809(3) 0.73117(17)
H17 H 0.826527 0.421325 0.739785
C25 C 0.4879(3) 0.4143(3) 0.38899(17)
H18 H 0.508621 0.358082 0.356906
H19 H 0.545361 0.478074 0.408199
H20 H 0.421173 0.461216 0.366044
C26 C 0.2807(3) 0.0700(4) 0.22431(19)
H21 H 0.283036 0.016408 0.185871
H22 H 0.289253 0.013013 0.263305
H23 H 0.339259 0.134683 0.234259
C27 C 0.1306(3) 0.7344(4) 0.59018(18)
H24 H 0.174530 0.750541 0.634656
C28 C 0.7272(3) 0.5210(3) 0.82604(19)
H25 H 0.700300 0.607463 0.807743
H26 H 0.806110 0.523155 0.842875
H27 H 0.698085 0.499118 0.862742
loop_
_geom_bond_atom_site_label_1
_geom_bond_atom_site_label_2
_geom_bond_site_symmetry_1
_geom_bond_site_symmetry_2
S1 O1 1_555 1_555
N1 C3 1_555 1_555
O2 C9 1_555 1_555
O3 S1 1_555 1_555
N2 C4 1_555 1_555
O4 C14 1_555 1_555
N3 S1 1_555 1_555
C1 C3 1_555 1_555
C2 C3 1_555 1_555
C4 N1 1_555 1_555
C5 C4 1_555 1_555
C6 C1 1_555 1_555
C7 C2 1_555 1_555
H1 C7 1_555 1_555
C8 N3 1_555 1_555
H2 C8 1_555 1_555
H3 C8 1_555 1_555
C9 C7 1_555 1_555
C10 N2 1_555 1_555
C11 N3 1_555 1_555
H4 C11 1_555 1_555
H5 C11 1_555 1_555
C12 H6 1_555 1_555
C13 C5 1_555 1_555
H7 C13 1_555 1_555
C14 C12 1_555 1_555
C15 C5 1_555 1_555
H8 C15 1_555 1_555
C16 S1 1_555 1_555
C17 C9 1_555 1_555
H9 C17 1_555 1_555
C18 C10 1_555 1_555
H10 C18 1_555 1_555
C19 C16 1_555 1_555
H11 C19 1_555 1_555
C20 C16 1_555 1_555
H12 C20 1_555 1_555
C21 C20 1_555 1_555
H13 C21 1_555 1_555
C22 C21 1_555 1_555
C23 O4 1_555 1_555
H14 C23 1_555 1_555
H15 C23 1_555 1_555
H16 C23 1_555 1_555
C24 C19 1_555 1_555
H17 C24 1_555 1_555
C25 C6 1_555 1_555
H18 C25 1_555 1_555
H19 C25 1_555 1_555
H20 C25 1_555 1_555
C26 O2 1_555 1_555
H21 C26 1_555 1_555
H22 C26 1_555 1_555
H23 C26 1_555 1_555
C27 C13 1_555 1_555
H24 C27 1_555 1_555
C28 C22 1_555 1_555
H25 C28 1_555 1_555
H26 C28 1_555 1_555
H27 C28 1_555 1_555
C1 C8 1_555 1_555
C2 C10 1_555 1_555
C6 C11 1_555 1_555
C12 C15 1_555 1_555
C14 C27 1_555 1_555
C17 C18 1_555 1_555
C22 C24 1_555 1_555

#END
