
#######################################################################
#
#                 Cambridge Crystallographic Data Centre
#                                CCDC 
#
#######################################################################
#
# If this CIF has been generated from an entry in the Cambridge 
# Structural Database, then it will include bibliographic, chemical, 
# crystal, experimental, refinement or atomic coordinate data resulting 
# from the CCDC's data processing and validation procedures.
#
#######################################################################

data_LIBTUO
_chemical_formula_moiety         'C26 H22 Cl1 N3 O2 S1'
_chemical_name_systematic        
6-chloro-4-{4-methyl-1-[(4-methylphenyl)sulfonyl]-2,5-dihydro-1H-pyrrol-3-yl}-2-phenylquinazoline
_symmetry_cell_setting           triclinic
_symmetry_space_group_name_H-M   'P -1'
_symmetry_Int_Tables_number      2
_space_group_name_Hall           '-P 1'
loop_
_symmetry_equiv_pos_site_id
_symmetry_equiv_pos_as_xyz
1 x,y,z
2 -x,-y,-z
_cell_length_a                   10.2875(9)
_cell_length_b                   11.7063(10)
_cell_length_c                   12.0088(11)
_cell_angle_alpha                67.363(8)
_cell_angle_beta                 65.618(9)
_cell_angle_gamma                73.466(8)
_cell_volume                     1202.08
_exptl_crystal_colour            colorless
_exptl_crystal_description       needle
_cell_formula_units_Z            2
loop_
_atom_site_label
_atom_site_type_symbol
_atom_site_fract_x
_atom_site_fract_y
_atom_site_fract_z
S1 S 0.24083(12) 0.66517(11) 0.82158(9)
Cl1 Cl 0.11221(16) 1.01219(13) 0.12926(13)
O1 O 0.0873(3) 0.6784(3) 0.8855(2)
O2 O 0.3219(3) 0.7505(3) 0.8131(2)
N1 N 0.1333(3) 0.4672(3) 0.3182(3)
N2 N 0.2256(3) 0.4513(3) 0.4781(3)
N3 N 0.2680(3) 0.6762(3) 0.6753(2)
C1 C 0.1755(4) 0.6530(4) 0.3347(3)
C2 C 0.2240(4) 0.5726(4) 0.4379(3)
C3 C 0.1813(4) 0.4027(4) 0.4143(3)
C4 C 0.1294(4) 0.5932(4) 0.2777(3)
C5 C 0.3131(4) 0.5121(4) 0.8952(3)
C6 C 0.1681(4) 0.7840(4) 0.2885(3)
H1 H 0.195511 0.824674 0.326505
C7 C 0.1895(4) 0.2649(4) 0.4574(4)
C8 C 0.2747(4) 0.6218(3) 0.5086(3)
C9 C 0.1959(4) 0.6023(4) 0.6493(3)
H2 H 0.093767 0.634086 0.667353
H3 H 0.208108 0.514635 0.698700
C10 C 0.5104(5) 0.3635(5) 0.9445(4)
H4 H 0.606991 0.344683 0.937581
C11 C 0.4089(4) 0.6968(4) 0.5732(3)
H5 H 0.486969 0.638093 0.599070
H6 H 0.426802 0.781565 0.549223
C12 C 0.4567(4) 0.4837(4) 0.8855(3)
H7 H 0.516447 0.545154 0.839611
C13 C 0.3910(4) 0.6741(4) 0.4660(3)
C14 C 0.4242(5) 0.2697(5) 1.0139(4)
C15 C 0.0792(4) 0.6668(5) 0.1741(4)
H8 H 0.048164 0.628666 0.136283
C16 C 0.2257(4) 0.4201(5) 0.9623(4)
H9 H 0.129366 0.438722 0.968381
C17 C 0.5020(4) 0.7060(5) 0.3348(4)
H10 H 0.595954 0.667361 0.339845
H11 H 0.498873 0.795177 0.300060
H12 H 0.482406 0.675993 0.280130
C18 C 0.1625(4) 0.2071(5) 0.3902(4)
H13 H 0.143589 0.255027 0.314766
C19 C 0.2818(5) 0.3005(5) 1.0203(4)
H14 H 0.222292 0.238972 1.064927
C20 C 0.2218(5) 0.1908(5) 0.5674(4)
H15 H 0.241884 0.227494 0.613685
C21 C 0.0764(4) 0.7925(5) 0.1300(4)
H16 H 0.044833 0.840127 0.061115
C22 C 0.1207(4) 0.8509(4) 0.1877(4)
C23 C 0.4842(5) 0.1393(5) 1.0801(5)
H17 H 0.581124 0.117431 1.027086
H18 H 0.425333 0.081030 1.094326
H19 H 0.484232 0.136585 1.161024
C24 C 0.1630(6) 0.0809(6) 0.4321(6)
H20 H 0.142691 0.044033 0.386046
C25 C 0.2241(5) 0.0628(5) 0.6087(5)
H21 H 0.246764 0.013637 0.682082
C26 C 0.1933(6) 0.0078(5) 0.5421(7)
H22 H 0.192831 -0.078089 0.570944
loop_
_geom_bond_atom_site_label_1
_geom_bond_atom_site_label_2
_geom_bond_site_symmetry_1
_geom_bond_site_symmetry_2
S1 O1 1_555 1_555
Cl1 C22 1_555 1_555
O2 S1 1_555 1_555
N1 C3 1_555 1_555
N2 C2 1_555 1_555
N3 S1 1_555 1_555
C1 C2 1_555 1_555
C2 C8 1_555 1_555
C3 N2 1_555 1_555
C4 N1 1_555 1_555
C5 S1 1_555 1_555
C6 C1 1_555 1_555
H1 C6 1_555 1_555
C7 C3 1_555 1_555
C8 C9 1_555 1_555
C9 N3 1_555 1_555
H2 C9 1_555 1_555
H3 C9 1_555 1_555
C10 H4 1_555 1_555
C11 N3 1_555 1_555
H5 C11 1_555 1_555
H6 C11 1_555 1_555
C12 C5 1_555 1_555
H7 C12 1_555 1_555
C13 C8 1_555 1_555
C14 C10 1_555 1_555
C15 C4 1_555 1_555
H8 C15 1_555 1_555
C16 C5 1_555 1_555
H9 C16 1_555 1_555
C17 C13 1_555 1_555
H10 C17 1_555 1_555
H11 C17 1_555 1_555
H12 C17 1_555 1_555
C18 C7 1_555 1_555
H13 C18 1_555 1_555
C19 C14 1_555 1_555
H14 C19 1_555 1_555
C20 C7 1_555 1_555
H15 C20 1_555 1_555
C21 C15 1_555 1_555
H16 C21 1_555 1_555
C22 C6 1_555 1_555
C23 C14 1_555 1_555
H17 C23 1_555 1_555
H18 C23 1_555 1_555
H19 C23 1_555 1_555
C24 C18 1_555 1_555
H20 C24 1_555 1_555
C25 C20 1_555 1_555
H21 C25 1_555 1_555
C26 C24 1_555 1_555
H22 C26 1_555 1_555
C1 C4 1_555 1_555
C10 C12 1_555 1_555
C11 C13 1_555 1_555
C16 C19 1_555 1_555
C21 C22 1_555 1_555
C25 C26 1_555 1_555

#END
