
#######################################################################
#
#                 Cambridge Crystallographic Data Centre
#                                CCDC 
#
#######################################################################
#
# If this CIF has been generated from an entry in the Cambridge 
# Structural Database, then it will include bibliographic, chemical, 
# crystal, experimental, refinement or atomic coordinate data resulting 
# from the CCDC's data processing and validation procedures.
#
#######################################################################

data_LIBVAW
_chemical_formula_moiety         'C27 H25 N3 O2 S1'
_chemical_name_systematic        
4-{4-methyl-1-[(4-methylphenyl)sulfonyl]-2,5-dihydro-1H-pyrrol-3-yl}-2-(2-methylphenyl)quinazoline
_symmetry_cell_setting           monoclinic
_symmetry_space_group_name_H-M   'P 21/c'
_symmetry_Int_Tables_number      14
_space_group_name_Hall           '-P 2ybc'
loop_
_symmetry_equiv_pos_site_id
_symmetry_equiv_pos_as_xyz
1 x,y,z
2 -x,1/2+y,1/2-z
3 -x,-y,-z
4 x,1/2-y,1/2+z
_cell_length_a                   9.9367(2)
_cell_length_b                   19.4963(4)
_cell_length_c                   12.5165(3)
_cell_angle_alpha                90
_cell_angle_beta                 99.218(2)
_cell_angle_gamma                90
_cell_volume                     2393.49
_exptl_crystal_colour            colorless
_exptl_crystal_description       block
_cell_formula_units_Z            4
loop_
_atom_site_label
_atom_site_type_symbol
_atom_site_fract_x
_atom_site_fract_y
_atom_site_fract_z
S1 S 0.31933(6) 0.64016(3) 0.20713(4)
N1 N 0.22415(14) 0.49682(7) 0.56004(11)
N2 N 0.14180(15) 0.48079(8) 0.72706(11)
O1 O 0.4286(2) 0.67763(8) 0.17310(13)
N3 N 0.34689(17) 0.64122(8) 0.33825(13)
O2 O 0.18143(18) 0.66120(9) 0.17448(12)
C1 C 0.16377(16) 0.45944(9) 0.63188(13)
C2 C 0.25157(17) 0.58761(9) 0.69012(13)
C3 C 0.26866(16) 0.55905(8) 0.58907(13)
C4 C 0.33179(18) 0.59555(9) 0.50546(13)
C5 C 0.18529(17) 0.54518(9) 0.75745(13)
C6 C 0.11812(17) 0.38982(9) 0.59301(14)
C7 C 0.46123(19) 0.61304(10) 0.50902(15)
C8 C 0.1632(2) 0.57041(11) 0.85900(15)
H1 H 0.121125 0.542800 0.904503
C9 C 0.11926(19) 0.33315(10) 0.66298(17)
C10 C 0.2908(2) 0.65480(9) 0.72458(16)
H2 H 0.333443 0.683255 0.680595
C11 C 0.07377(19) 0.38166(10) 0.48259(16)
H3 H 0.075693 0.418906 0.436427
C12 C 0.3301(2) 0.55408(10) 0.16581(14)
C13 C 0.2480(2) 0.60708(11) 0.39678(15)
H4 H 0.216285 0.564102 0.362610
H5 H 0.170228 0.636361 0.401576
C14 C 0.4852(2) 0.63807(11) 0.40009(17)
H6 H 0.528005 0.682925 0.405424
H7 H 0.541808 0.606282 0.367432
C15 C 0.4532(2) 0.52796(11) 0.14641(16)
H8 H 0.530299 0.555715 0.154618
C16 C 0.4611(2) 0.46035(11) 0.11475(16)
H9 H 0.544235 0.443070 0.101788
C17 C 0.2661(2) 0.67771(10) 0.82230(16)
H10 H 0.290930 0.722113 0.844352
C18 C 0.2033(2) 0.63500(11) 0.89028(16)
H11 H 0.189012 0.651137 0.957491
C19 C 0.0267(2) 0.31870(12) 0.44036(19)
H12 H -0.003413 0.313928 0.366466
C20 C 0.3487(2) 0.41796(11) 0.10195(16)
C21 C 0.2156(2) 0.51269(13) 0.15390(18)
H13 H 0.132576 0.530028 0.166875
C22 C 0.2264(2) 0.44513(13) 0.1224(2)
H14 H 0.149581 0.417209 0.114777
C23 C 0.0247(2) 0.26369(12) 0.5079(2)
H15 H -0.007672 0.221482 0.480305
C24 C 0.0707(2) 0.27102(11) 0.6164(2)
H16 H 0.069465 0.232960 0.660984
C25 C 0.1728(3) 0.33529(12) 0.78168(19)
H17 H 0.258871 0.358734 0.793564
H18 H 0.184717 0.289336 0.809143
H19 H 0.109214 0.359155 0.818499
C26 C 0.5776(2) 0.60609(17) 0.59930(19)
H20 H 0.610050 0.650824 0.622944
H21 H 0.649759 0.580831 0.574772
H22 H 0.548041 0.582142 0.658425
C27 C 0.3612(3) 0.34401(13) 0.0684(2)
H23 H 0.426854 0.340701 0.020111
H24 H 0.274317 0.327953 0.032410
H25 H 0.390363 0.316432 0.131403
loop_
_geom_bond_atom_site_label_1
_geom_bond_atom_site_label_2
_geom_bond_site_symmetry_1
_geom_bond_site_symmetry_2
S1 O1 1_555 1_555
N1 C1 1_555 1_555
N2 C1 1_555 1_555
N3 S1 1_555 1_555
O2 S1 1_555 1_555
C1 C6 1_555 1_555
C2 C3 1_555 1_555
C3 N1 1_555 1_555
C4 C3 1_555 1_555
C5 N2 1_555 1_555
C6 C9 1_555 1_555
C7 C4 1_555 1_555
C8 C5 1_555 1_555
H1 C8 1_555 1_555
C9 C24 1_555 1_555
C10 C2 1_555 1_555
H2 C10 1_555 1_555
C11 C6 1_555 1_555
H3 C11 1_555 1_555
C12 S1 1_555 1_555
C13 N3 1_555 1_555
H4 C13 1_555 1_555
H5 C13 1_555 1_555
C14 N3 1_555 1_555
H6 C14 1_555 1_555
H7 C14 1_555 1_555
C15 C12 1_555 1_555
H8 C15 1_555 1_555
C16 C15 1_555 1_555
H9 C16 1_555 1_555
C17 C10 1_555 1_555
H10 C17 1_555 1_555
C18 C8 1_555 1_555
H11 C18 1_555 1_555
C19 C11 1_555 1_555
H12 C19 1_555 1_555
C20 C16 1_555 1_555
C21 C12 1_555 1_555
H13 C21 1_555 1_555
C22 C20 1_555 1_555
H14 C22 1_555 1_555
C23 C19 1_555 1_555
H15 C23 1_555 1_555
C24 C23 1_555 1_555
H16 C24 1_555 1_555
C25 C9 1_555 1_555
H17 C25 1_555 1_555
H18 C25 1_555 1_555
H19 C25 1_555 1_555
C26 C7 1_555 1_555
H20 C26 1_555 1_555
H21 C26 1_555 1_555
H22 C26 1_555 1_555
C27 C20 1_555 1_555
H23 C27 1_555 1_555
H24 C27 1_555 1_555
H25 C27 1_555 1_555
C2 C5 1_555 1_555
C4 C13 1_555 1_555
C7 C14 1_555 1_555
C17 C18 1_555 1_555
C21 C22 1_555 1_555

#END
