
#######################################################################
#
#                 Cambridge Crystallographic Data Centre
#                                CCDC 
#
#######################################################################
#
# If this CIF has been generated from an entry in the Cambridge 
# Structural Database, then it will include bibliographic, chemical, 
# crystal, experimental, refinement or atomic coordinate data resulting 
# from the CCDC's data processing and validation procedures.
#
#######################################################################

data_LIBVUQ
_chemical_formula_moiety         'C27 H22 F3 N3 O3 S1'
_chemical_name_systematic        
4-{4-methyl-1-[(4-methylphenyl)sulfonyl]-2,5-dihydro-1H-pyrrol-3-yl}-2-phenyl-6-(trifluoromethoxy)quinazoline
_symmetry_cell_setting           monoclinic
_symmetry_space_group_name_H-M   'P 21/c'
_symmetry_Int_Tables_number      14
_space_group_name_Hall           '-P 2ybc'
loop_
_symmetry_equiv_pos_site_id
_symmetry_equiv_pos_as_xyz
1 x,y,z
2 -x,1/2+y,1/2-z
3 -x,-y,-z
4 x,1/2-y,1/2+z
_cell_length_a                   13.5953(8)
_cell_length_b                   23.2392(12)
_cell_length_c                   8.1895(7)
_cell_angle_alpha                90
_cell_angle_beta                 100.062(7)
_cell_angle_gamma                90
_cell_volume                     2547.63
_exptl_crystal_colour            colorless
_exptl_crystal_description       block
_cell_formula_units_Z            4
loop_
_atom_site_label
_atom_site_type_symbol
_atom_site_fract_x
_atom_site_fract_y
_atom_site_fract_z
S1 S 0.33914(9) 0.53973(5) 0.39696(19)
O1 O 0.3606(3) 0.52077(16) 0.2404(5)
O2 O 0.3842(3) 0.59079(15) 0.4725(6)
N1 N 0.3718(3) 0.48815(16) 0.5272(6)
N2 N 0.2852(3) 0.31028(17) 0.5887(5)
N3 N 0.3468(4) 0.21796(19) 0.6865(6)
C1 C 0.3712(3) 0.3993(2) 0.6472(7)
C2 C 0.3667(4) 0.3356(2) 0.6631(6)
C3 C 0.3541(4) 0.42725(18) 0.4823(7)
H1 H 0.400841 0.413512 0.414218
H2 H 0.286388 0.421025 0.424290
C4 C 0.3832(4) 0.4377(2) 0.7710(7)
C5 C 0.2087(4) 0.5476(2) 0.3759(7)
C6 C 0.2774(4) 0.2521(2) 0.6053(7)
C7 C 0.4351(5) 0.2431(2) 0.7624(7)
C8 C 0.4491(4) 0.3031(2) 0.7544(7)
C9 C 0.1445(4) 0.5151(2) 0.2610(8)
H3 H 0.169677 0.490296 0.189225
C10 C 0.3799(4) 0.4972(2) 0.7054(8)
H4 H 0.322549 0.517934 0.730693
H5 H 0.440287 0.518140 0.750166
C11 C 0.1824(5) 0.2263(3) 0.5316(9)
C12 C 0.1702(5) 0.5860(3) 0.4785(8)
H6 H 0.212646 0.608670 0.553699
C13 C 0.5418(5) 0.3269(3) 0.8252(9)
H7 H 0.552981 0.366299 0.820207
C14 C 0.0031(5) 0.5579(4) 0.3561(11)
C15 C 0.1116(6) 0.2573(4) 0.4287(10)
H8 H 0.125294 0.295065 0.402662
C16 C 0.0442(5) 0.5200(3) 0.2548(9)
H9 H 0.001543 0.497270 0.180222
C17 C 0.5110(6) 0.2084(3) 0.8470(9)
H10 H 0.501241 0.168907 0.853374
C18 C 0.0668(6) 0.5900(3) 0.4667(10)
H11 H 0.040750 0.615312 0.536207
C19 C 0.6139(5) 0.2917(3) 0.8999(11)
C20 C 0.1580(6) 0.1696(3) 0.5659(11)
H12 H 0.205896 0.146874 0.630755
C21 C 0.3979(6) 0.4266(3) 0.9531(8)
H13 H 0.380632 0.387402 0.972150
H14 H 0.355924 0.451968 1.002973
H15 H 0.466517 0.433239 1.001277
C22 C 0.0008(8) 0.1777(5) 0.4026(14)
H16 H -0.059573 0.160744 0.356079
C23 C 0.5963(6) 0.2313(3) 0.9178(10)
H17 H 0.645259 0.208317 0.979393
C24 C 0.0679(8) 0.1470(4) 0.5083(14)
H18 H 0.051889 0.110401 0.541156
C25 C 0.0198(6) 0.2333(5) 0.3623(12)
H19 H -0.027869 0.254625 0.292062
C26 C -0.1099(5) 0.5632(5) 0.3422(13)
H20 H -0.141176 0.559264 0.228252
H21 H -0.125971 0.600241 0.382677
H22 H -0.133781 0.533589 0.407001
O3 O 0.7147(5) 0.3152(3) 0.9447(11)
F1 F 0.8258(4) 0.3629(3) 1.1161(9)
F2 F 0.6719(5) 0.3740(3) 1.1275(9)
C27 C 0.7388(6) 0.3393(4) 1.0973(15)
F3 F 0.7486(8) 0.2968(5) 1.2056(15)
loop_
_geom_bond_atom_site_label_1
_geom_bond_atom_site_label_2
_geom_bond_site_symmetry_1
_geom_bond_site_symmetry_2
S1 O1 1_555 1_555
O2 S1 1_555 1_555
N1 S1 1_555 1_555
N2 C2 1_555 1_555
N3 C6 1_555 1_555
C1 C2 1_555 1_555
C2 C8 1_555 1_555
C3 N1 1_555 1_555
H1 C3 1_555 1_555
H2 C3 1_555 1_555
C4 C1 1_555 1_555
C5 S1 1_555 1_555
C6 N2 1_555 1_555
C7 N3 1_555 1_555
C8 C7 1_555 1_555
C9 C5 1_555 1_555
H3 C9 1_555 1_555
C10 N1 1_555 1_555
H4 C10 1_555 1_555
H5 C10 1_555 1_555
C11 C6 1_555 1_555
C12 C5 1_555 1_555
H6 C12 1_555 1_555
C13 C8 1_555 1_555
H7 C13 1_555 1_555
C14 C16 1_555 1_555
C15 C11 1_555 1_555
H8 C15 1_555 1_555
C16 C9 1_555 1_555
H9 C16 1_555 1_555
C17 C7 1_555 1_555
H10 C17 1_555 1_555
C18 C12 1_555 1_555
H11 C18 1_555 1_555
C19 C13 1_555 1_555
C20 C11 1_555 1_555
H12 C20 1_555 1_555
C21 C4 1_555 1_555
H13 C21 1_555 1_555
H14 C21 1_555 1_555
H15 C21 1_555 1_555
C22 H16 1_555 1_555
C23 C17 1_555 1_555
H17 C23 1_555 1_555
C24 C20 1_555 1_555
H18 C24 1_555 1_555
C25 C15 1_555 1_555
H19 C25 1_555 1_555
C26 C14 1_555 1_555
H20 C26 1_555 1_555
H21 C26 1_555 1_555
H22 C26 1_555 1_555
O3 C19 1_555 1_555
F1 C27 1_555 1_555
F2 C27 1_555 1_555
C27 O3 1_555 1_555
F3 C27 1_555 1_555
C1 C3 1_555 1_555
C4 C10 1_555 1_555
C14 C18 1_555 1_555
C19 C23 1_555 1_555
C22 C24 1_555 1_555
C22 C25 1_555 1_555

#END
