
#######################################################################
#
#                 Cambridge Crystallographic Data Centre
#                                CCDC 
#
#######################################################################
#
# If this CIF has been generated from an entry in the Cambridge 
# Structural Database, then it will include bibliographic, chemical, 
# crystal, experimental, refinement or atomic coordinate data resulting 
# from the CCDC's data processing and validation procedures.
#
#######################################################################

data_LIBVIE
_chemical_formula_moiety         'C27 H25 N3 O2 S1'
_chemical_name_systematic        
4-{4-methyl-1-[(4-methylphenyl)sulfonyl]-2,5-dihydro-1H-pyrrol-3-yl}-2-(3-methylphenyl)quinazoline
_symmetry_cell_setting           monoclinic
_symmetry_space_group_name_H-M   'P 21/c'
_symmetry_Int_Tables_number      14
_space_group_name_Hall           '-P 2ybc'
loop_
_symmetry_equiv_pos_site_id
_symmetry_equiv_pos_as_xyz
1 x,y,z
2 -x,1/2+y,1/2-z
3 -x,-y,-z
4 x,1/2-y,1/2+z
_cell_length_a                   23.7310(3)
_cell_length_b                   8.63190(10)
_cell_length_c                   11.8996(2)
_cell_angle_alpha                90
_cell_angle_beta                 101.6660(10)
_cell_angle_gamma                90
_cell_volume                     2387.2
_exptl_crystal_colour            colorless
_exptl_crystal_description       block
_cell_formula_units_Z            4
loop_
_atom_site_label
_atom_site_type_symbol
_atom_site_fract_x
_atom_site_fract_y
_atom_site_fract_z
S1 S 0.86530(2) 0.81413(5) 0.56191(3)
N1 N 0.68115(5) 0.55527(13) 0.28894(9)
O1 O 0.87029(6) 0.89571(15) 0.46010(11)
N2 N 0.58425(5) 0.49907(15) 0.19669(10)
N3 N 0.79676(6) 0.78720(16) 0.55339(10)
O2 O 0.88691(6) 0.87990(17) 0.67225(11)
C1 C 0.66381(6) 0.61540(15) 0.37857(11)
C2 C 0.64016(6) 0.49823(15) 0.20152(11)
C3 C 0.66171(6) 0.42531(15) 0.10525(12)
C4 C 0.71086(6) 0.66747(16) 0.47232(11)
C5 C 0.60442(6) 0.63050(16) 0.38103(12)
C6 C 0.56573(7) 0.56670(18) 0.28615(13)
C7 C 0.71985(7) 0.63733(17) 0.58437(12)
C8 C 0.71951(7) 0.38760(17) 0.11694(13)
H1 H 0.744987 0.411553 0.184926
C9 C 0.89765(7) 0.6312(2) 0.55775(14)
C10 C 0.74006(8) 0.31468(18) 0.02893(16)
C11 C 0.62379(7) 0.39016(19) 0.00294(13)
H2 H 0.584890 0.413605 -0.005876
C12 C 0.76019(7) 0.7536(2) 0.44121(12)
H3 H 0.780327 0.690221 0.394702
H4 H 0.747307 0.848240 0.399983
C13 C 0.77523(7) 0.7073(2) 0.64530(12)
H5 H 0.768863 0.779775 0.703788
H6 H 0.801969 0.628008 0.680745
C14 C 0.58229(8) 0.7080(2) 0.46774(15)
H7 H 0.607315 0.754066 0.528833
C15 C 0.90049(8) 0.5653(2) 0.45321(16)
H8 H 0.886019 0.618094 0.385379
C16 C 0.68553(8) 0.5405(2) 0.65004(14)
H9 H 0.667766 0.606015 0.698066
H10 H 0.710435 0.467664 0.696854
H11 H 0.656333 0.485544 0.597432
C17 C 0.70132(9) 0.2837(2) -0.07263(15)
H12 H 0.714364 0.237308 -0.133130
C18 C 0.50587(7) 0.5735(2) 0.28426(16)
H13 H 0.479958 0.528555 0.223984
C19 C 0.64421(9) 0.3204(2) -0.08528(15)
H14 H 0.618973 0.298017 -0.153906
C20 C 0.92489(8) 0.4211(2) 0.4501(2)
H15 H 0.926512 0.377179 0.379440
C21 C 0.52462(8) 0.7150(2) 0.46179(17)
H16 H 0.510391 0.766336 0.518888
C22 C 0.94710(8) 0.3395(3) 0.5496(2)
C23 C 0.91989(9) 0.5527(3) 0.65859(17)
H17 H 0.918459 0.596554 0.729345
C24 C 0.48627(8) 0.6457(3) 0.37054(18)
H18 H 0.446949 0.649175 0.368942
C25 C 0.94422(9) 0.4083(3) 0.6524(2)
H19 H 0.959144 0.355815 0.720170
C26 C 0.80243(9) 0.2683(3) 0.0450(2)
H20 H 0.822412 0.298281 0.120189
H21 H 0.819519 0.318903 -0.011746
H22 H 0.805079 0.158021 0.036662
C27 C 0.97359(11) 0.1824(3) 0.5441(3)
H23 H 0.963967 0.117343 0.602942
H24 H 1.014644 0.192482 0.555637
H25 H 0.959090 0.136858 0.470344
loop_
_geom_bond_atom_site_label_1
_geom_bond_atom_site_label_2
_geom_bond_site_symmetry_1
_geom_bond_site_symmetry_2
S1 O1 1_555 1_555
N1 C1 1_555 1_555
N2 C2 1_555 1_555
N3 S1 1_555 1_555
O2 S1 1_555 1_555
C1 C4 1_555 1_555
C2 N1 1_555 1_555
C3 C2 1_555 1_555
C4 C7 1_555 1_555
C5 C1 1_555 1_555
C6 N2 1_555 1_555
C7 C13 1_555 1_555
C8 C3 1_555 1_555
H1 C8 1_555 1_555
C9 S1 1_555 1_555
C10 C8 1_555 1_555
C11 C3 1_555 1_555
H2 C11 1_555 1_555
C12 N3 1_555 1_555
H3 C12 1_555 1_555
H4 C12 1_555 1_555
C13 N3 1_555 1_555
H5 C13 1_555 1_555
H6 C13 1_555 1_555
C14 C5 1_555 1_555
H7 C14 1_555 1_555
C15 C9 1_555 1_555
H8 C15 1_555 1_555
C16 C7 1_555 1_555
H9 C16 1_555 1_555
H10 C16 1_555 1_555
H11 C16 1_555 1_555
C17 C10 1_555 1_555
H12 C17 1_555 1_555
C18 C6 1_555 1_555
H13 C18 1_555 1_555
C19 C11 1_555 1_555
H14 C19 1_555 1_555
C20 C15 1_555 1_555
H15 C20 1_555 1_555
C21 C14 1_555 1_555
H16 C21 1_555 1_555
C22 C20 1_555 1_555
C23 C9 1_555 1_555
H17 C23 1_555 1_555
C24 C18 1_555 1_555
H18 C24 1_555 1_555
C25 C22 1_555 1_555
H19 C25 1_555 1_555
C26 C10 1_555 1_555
H20 C26 1_555 1_555
H21 C26 1_555 1_555
H22 C26 1_555 1_555
C27 C22 1_555 1_555
H23 C27 1_555 1_555
H24 C27 1_555 1_555
H25 C27 1_555 1_555
C4 C12 1_555 1_555
C5 C6 1_555 1_555
C17 C19 1_555 1_555
C21 C24 1_555 1_555
C23 C25 1_555 1_555

#END
