
#######################################################################
#
#                 Cambridge Crystallographic Data Centre
#                                CCDC 
#
#######################################################################
#
# If this CIF has been generated from an entry in the Cambridge 
# Structural Database, then it will include bibliographic, chemical, 
# crystal, experimental, refinement or atomic coordinate data resulting 
# from the CCDC's data processing and validation procedures.
#
#######################################################################

data_LICLOA
_chemical_formula_moiety         'C23 H20 N2 O4'
_chemical_name_systematic        
2,2-bis(4-Amino-3-methoxyphenyl)-1H-indene-1,3(2H)-dione
_symmetry_cell_setting           triclinic
_symmetry_space_group_name_H-M   'P -1'
_symmetry_Int_Tables_number      2
_space_group_name_Hall           '-P 1'
loop_
_symmetry_equiv_pos_site_id
_symmetry_equiv_pos_as_xyz
1 x,y,z
2 -x,-y,-z
_cell_length_a                   9.8361(8)
_cell_length_b                   14.5798(11)
_cell_length_c                   15.6882(18)
_cell_angle_alpha                114.634(5)
_cell_angle_beta                 91.671(5)
_cell_angle_gamma                109.150(4)
_cell_volume                     1895.5
_exptl_crystal_colour            brown
_exptl_crystal_description       rectangular
_cell_formula_units_Z            4
loop_
_atom_site_label
_atom_site_type_symbol
_atom_site_fract_x
_atom_site_fract_y
_atom_site_fract_z
C1 C 0.55296(15) 0.85783(11) 0.21519(10)
C2 C 0.54449(16) 0.89633(12) 0.32240(10)
C3 C 0.56852(15) 0.81860(13) 0.35246(11)
C4 C 0.57332(19) 0.82254(17) 0.44258(13)
H1 H 0.5555 0.8768 0.4934
C5 C 0.6060(2) 0.74176(19) 0.45342(15)
H2 H 0.6112 0.7424 0.5130
C6 C 0.6307(2) 0.66062(17) 0.37778(16)
H3 H 0.6524 0.6079 0.3877
C7 C 0.62428(17) 0.65530(14) 0.28703(13)
H4 H 0.6402 0.6001 0.2360
C8 C 0.59269(15) 0.73703(12) 0.27659(11)
C9 C 0.58243(15) 0.75280(11) 0.19020(10)
C10 C 0.68071(14) 0.93887(11) 0.19910(10)
C11 C 0.78315(16) 1.03183(12) 0.27394(11)
H5 H 0.7766 1.0449 0.3367
C12 C 0.89446(16) 1.10502(12) 0.25617(12)
C13 C 0.90607(16) 1.08965(13) 0.16355(13)
C14 C 0.80892(17) 0.99403(15) 0.08926(13)
H6 H 0.8185 0.9792 0.0266
C15 C 0.69789(16) 0.92019(13) 0.10664(11)
H7 H 0.6337 0.8570 0.0554
C16 C 0.40585(14) 0.83686(11) 0.16075(10)
C17 C 0.36875(15) 0.92657(11) 0.17767(12)
H8 H 0.4361 0.9963 0.2171
C18 C 0.23366(15) 0.91320(12) 0.13670(12)
C19 C 0.13207(15) 0.80957(12) 0.07486(11)
C20 C 0.17114(16) 0.72185(12) 0.05627(11)
H9 H 0.1057 0.6525 0.0142
C21 C 0.30604(16) 0.73411(11) 0.09878(10)
H10 H 0.3293 0.6733 0.0856
C22 C 0.2782(2) 1.10188(15) 0.2199(2)
H11 H 0.3012 1.1012 0.2795
H12 H 0.2286 1.1511 0.2290
H13 H 0.3671 1.1252 0.1978
C23 C 1.0072(3) 1.21191(18) 0.41949(15)
H14 H 0.9173 1.2157 0.4400
H15 H 1.0875 1.2780 0.4607
H16 H 1.0222 1.1513 0.4222
N1 N 1.01341(17) 1.16802(14) 0.14919(14)
H17 H 1.0222 1.1586 0.0921
H18 H 1.0714 1.2262 0.1974
N2 N -0.00122(14) 0.80086(12) 0.03260(11)
H19 H -0.0639 0.7381 -0.0074
H20 H -0.0207 0.8582 0.0465
O1 O 0.52413(15) 0.97792(11) 0.37306(9)
O2 O 0.59734(15) 0.69402(10) 0.11286(8)
O3 O 0.99923(14) 1.19844(10) 0.32549(10)
O4 O 0.18608(13) 0.99582(10) 0.15136(11)
C24 C 0.04210(14) 0.54944(10) 0.26526(9)
C25 C 0.13789(15) 0.66005(11) 0.35072(10)
C26 C 0.10715(15) 0.74735(11) 0.34004(11)
C27 C 0.1670(2) 0.85881(13) 0.40022(14)
H21 H 0.2390 0.8882 0.4541
C28 C 0.1147(3) 0.92344(15) 0.37633(18)
H22 H 0.1515 0.9981 0.4155
C29 C 0.0080(2) 0.87984(16) 0.29505(18)
H23 H -0.0251 0.9258 0.2811
C30 C -0.04889(18) 0.77012(14) 0.23529(14)
H24 H -0.1196 0.7409 0.1807
C31 C 0.00254(15) 0.70421(12) 0.25891(11)
C32 C -0.03822(15) 0.58552(11) 0.20628(10)
C33 C 0.14512(14) 0.49632(10) 0.21449(10)
C34 C 0.17977(15) 0.49147(11) 0.12828(10)
H25 H 0.1322 0.5161 0.0954
C35 C 0.28482(17) 0.45022(12) 0.09034(11)
H26 H 0.3061 0.4471 0.0320
C36 C 0.35880(16) 0.41349(12) 0.13808(11)
C37 C 0.32316(15) 0.41864(11) 0.22519(11)
C38 C 0.21820(15) 0.45822(11) 0.26210(10)
H27 H 0.1952 0.4598 0.3197
C39 C 0.3816(2) 0.39265(17) 0.35977(15)
H28 H 0.3149 0.4224 0.3887
H29 H 0.4342 0.3693 0.3911
C40 C -0.07160(14) 0.47615(11) 0.29752(9)
C41 C -0.08377(17) 0.50548(12) 0.39190(10)
H30 H -0.0244 0.5743 0.4388
C42 C -0.18332(17) 0.43373(14) 0.41781(11)
H31 H -0.1900 0.4558 0.4818
C43 C -0.27229(15) 0.33077(13) 0.35115(11)
C44 C -0.26496(14) 0.30212(12) 0.25430(10)
C45 C -0.16564(14) 0.37290(11) 0.22823(10)
H32 H -0.1610 0.3520 0.1640
C46 C -0.3675(2) 0.16563(14) 0.09404(12)
H33 H -0.3905 0.2157 0.0771
H34 H -0.4425 0.0944 0.0595
H35 H -0.2748 0.1634 0.0782
N3 N 0.46817(19) 0.37508(16) 0.10425(12)
N4 N -0.36964(14) 0.25635(13) 0.37600(10)
H36 H -0.3757 0.2742 0.4350
H37 H -0.4237 0.1926 0.3324
O5 O 0.22325(13) 0.67230(9) 0.41478(8)
O6 O -0.12135(14) 0.52605(10) 0.13013(9)
O7 O 0.40308(14) 0.38308(11) 0.26856(9)
O8 O -0.35988(12) 0.20002(10) 0.19312(8)
loop_
_geom_bond_atom_site_label_1
_geom_bond_atom_site_label_2
_geom_bond_site_symmetry_1
_geom_bond_site_symmetry_2
C1 C2 1_555 1_555
C2 C3 1_555 1_555
C3 C4 1_555 1_555
C4 H1 1_555 1_555
C5 C4 1_555 1_555
H2 C5 1_555 1_555
C6 C5 1_555 1_555
H3 C6 1_555 1_555
C7 C6 1_555 1_555
H4 C7 1_555 1_555
C8 C3 1_555 1_555
C9 C1 1_555 1_555
C10 C1 1_555 1_555
C11 C10 1_555 1_555
H5 C11 1_555 1_555
C12 C11 1_555 1_555
C13 C12 1_555 1_555
C14 C13 1_555 1_555
H6 C14 1_555 1_555
C15 C10 1_555 1_555
H7 C15 1_555 1_555
C16 C1 1_555 1_555
C17 C16 1_555 1_555
H8 C17 1_555 1_555
C18 C17 1_555 1_555
C19 C18 1_555 1_555
C20 C19 1_555 1_555
H9 C20 1_555 1_555
C21 C16 1_555 1_555
H10 C21 1_555 1_555
C22 H11 1_555 1_555
H12 C22 1_555 1_555
H13 C22 1_555 1_555
C23 H14 1_555 1_555
H15 C23 1_555 1_555
H16 C23 1_555 1_555
N1 C13 1_555 1_555
H17 N1 1_555 1_555
H18 N1 1_555 1_555
N2 C19 1_555 1_555
H19 N2 1_555 1_555
H20 N2 1_555 1_555
O1 C2 1_555 1_555
O2 C9 1_555 1_555
O3 C12 1_555 1_555
O4 C18 1_555 1_555
C24 C25 1_555 1_555
C25 C26 1_555 1_555
C26 C27 1_555 1_555
C27 H21 1_555 1_555
C28 C27 1_555 1_555
H22 C28 1_555 1_555
C29 C28 1_555 1_555
H23 C29 1_555 1_555
C30 C29 1_555 1_555
H24 C30 1_555 1_555
C31 C26 1_555 1_555
C32 C24 1_555 1_555
C33 C24 1_555 1_555
C34 C33 1_555 1_555
H25 C34 1_555 1_555
C35 C34 1_555 1_555
H26 C35 1_555 1_555
C36 C35 1_555 1_555
C37 C36 1_555 1_555
C38 C33 1_555 1_555
H27 C38 1_555 1_555
C39 H28 1_555 1_555
H29 C39 1_555 1_555
C40 C24 1_555 1_555
C41 C40 1_555 1_555
H30 C41 1_555 1_555
C42 C41 1_555 1_555
H31 C42 1_555 1_555
C43 C42 1_555 1_555
C44 C43 1_555 1_555
C45 C40 1_555 1_555
H32 C45 1_555 1_555
C46 H33 1_555 1_555
H34 C46 1_555 1_555
H35 C46 1_555 1_555
N3 C36 1_555 1_555
N4 C43 1_555 1_555
H36 N4 1_555 1_555
H37 N4 1_555 1_555
O5 C25 1_555 1_555
O6 C32 1_555 1_555
O7 C37 1_555 1_555
O8 C44 1_555 1_555
C7 C8 1_555 1_555
C8 C9 1_555 1_555
C14 C15 1_555 1_555
C20 C21 1_555 1_555
C22 O4 1_555 1_555
C23 O3 1_555 1_555
C30 C31 1_555 1_555
C31 C32 1_555 1_555
C37 C38 1_555 1_555
C39 O7 1_555 1_555
C44 C45 1_555 1_555
C46 O8 1_555 1_555

#END
