
#######################################################################
#
#                 Cambridge Crystallographic Data Centre
#                                CCDC 
#
#######################################################################
#
# If this CIF has been generated from an entry in the Cambridge 
# Structural Database, then it will include bibliographic, chemical, 
# crystal, experimental, refinement or atomic coordinate data resulting 
# from the CCDC's data processing and validation procedures.
#
#######################################################################

data_LICZON
_chemical_formula_moiety         'C16 H14 Br1 N1 O1'
_chemical_name_systematic        
4-(4-Bromophenyl)-6-methyl-3,4-dihydro-1H-quinolin-2-one
_symmetry_cell_setting           monoclinic
_symmetry_space_group_name_H-M   'P 21/n'
_symmetry_Int_Tables_number      14
_space_group_name_Hall           '-P 2yn'
loop_
_symmetry_equiv_pos_site_id
_symmetry_equiv_pos_as_xyz
1 x,y,z
2 1/2-x,1/2+y,1/2-z
3 -x,-y,-z
4 1/2+x,1/2-y,1/2+z
_cell_length_a                   7.6850(11)
_cell_length_b                   8.3004(11)
_cell_length_c                   21.301(3)
_cell_angle_alpha                90
_cell_angle_beta                 95.110(2)
_cell_angle_gamma                90
_cell_volume                     1353.36
_exptl_crystal_colour            yellow
_exptl_crystal_description       block
_chemical_melting_point          239-241deg.C
_cell_formula_units_Z            4
_exptl_crystal_recrystallization_method ethanol
loop_
_atom_site_label
_atom_site_type_symbol
_atom_site_fract_x
_atom_site_fract_y
_atom_site_fract_z
Br1 Br -0.31766(5) 0.09332(5) 0.193451(15)
O1 O 0.5590(3) -0.0078(3) 0.42004(10)
N1 N 0.4080(3) 0.1903(3) 0.46312(12)
H1 H 0.411(4) 0.140(3) 0.4956(13)
C1 C 0.3495(4) 0.3526(3) 0.34530(13)
H2 H 0.3941 0.4378 0.3192
C2 C 0.4968(4) 0.2286(4) 0.35766(13)
H3 H 0.4955 0.1578 0.3214
H4 H 0.6075 0.2854 0.3610
C3 C 0.4886(4) 0.1263(4) 0.41576(14)
C4 C 0.3332(4) 0.3454(3) 0.46264(13)
C5 C 0.3053(4) 0.4308(3) 0.40622(13)
C6 C 0.2323(4) 0.5833(3) 0.40743(15)
H5 H 0.2153 0.6412 0.3700
C7 C 0.1836(4) 0.6525(4) 0.46265(16)
C8 C 0.2091(4) 0.5625(4) 0.51776(15)
H6 H 0.1739 0.6045 0.5551
C9 C 0.2851(4) 0.4128(4) 0.51814(13)
H7 H 0.3046 0.3563 0.5558
C10 C 0.1050(5) 0.8198(4) 0.46294(18)
H8 H 0.1937 0.8983 0.4570
H9 H 0.0581 0.8385 0.5026
H10 H 0.0133 0.8285 0.4295
C11 C 0.1877(4) 0.2837(3) 0.30862(12)
C12 C 0.0735(4) 0.1813(4) 0.33586(13)
H11 H 0.0968 0.1525 0.3780
C13 C -0.0747(4) 0.1207(4) 0.30195(13)
H12 H -0.1491 0.0506 0.3207
C14 C -0.1095(4) 0.1665(4) 0.24000(13)
C15 C 0.0005(4) 0.2675(4) 0.21105(13)
H13 H -0.0244 0.2974 0.1691
C16 C 0.1485(4) 0.3236(4) 0.24556(13)
H14 H 0.2245 0.3904 0.2260
loop_
_geom_bond_atom_site_label_1
_geom_bond_atom_site_label_2
_geom_bond_site_symmetry_1
_geom_bond_site_symmetry_2
Br1 C14 1_555 1_555
O1 C3 1_555 1_555
N1 H1 1_555 1_555
C1 H2 1_555 1_555
C2 C1 1_555 1_555
H3 C2 1_555 1_555
H4 C2 1_555 1_555
C3 N1 1_555 1_555
C4 N1 1_555 1_555
C5 C1 1_555 1_555
C6 C5 1_555 1_555
H5 C6 1_555 1_555
C7 C6 1_555 1_555
C8 C7 1_555 1_555
H6 C8 1_555 1_555
C9 C4 1_555 1_555
H7 C9 1_555 1_555
C10 C7 1_555 1_555
H8 C10 1_555 1_555
H9 C10 1_555 1_555
H10 C10 1_555 1_555
C11 C1 1_555 1_555
C12 C11 1_555 1_555
H11 C12 1_555 1_555
C13 C12 1_555 1_555
H12 C13 1_555 1_555
C14 C13 1_555 1_555
C15 C14 1_555 1_555
H13 C15 1_555 1_555
C16 C11 1_555 1_555
H14 C16 1_555 1_555
C2 C3 1_555 1_555
C4 C5 1_555 1_555
C8 C9 1_555 1_555
C15 C16 1_555 1_555

#END
