
#######################################################################
#
#                 Cambridge Crystallographic Data Centre
#                                CCDC 
#
#######################################################################
#
# If this CIF has been generated from an entry in the Cambridge 
# Structural Database, then it will include bibliographic, chemical, 
# crystal, experimental, refinement or atomic coordinate data resulting 
# from the CCDC's data processing and validation procedures.
#
#######################################################################

data_LIDBAC
_chemical_formula_moiety         'C20 H21 N3 O4'
_chemical_name_systematic        
4-((1E)-(4-Hydroxy-3,5-dimethoxybenzylidene)amino)-1,5-dimethyl-2-phenyl-2,3-dihydro-1H-pyrazol-3-one
_symmetry_cell_setting           orthorhombic
_symmetry_space_group_name_H-M   'P 21 21 21'
_symmetry_Int_Tables_number      19
_space_group_name_Hall           'P 2ac 2ab'
loop_
_symmetry_equiv_pos_site_id
_symmetry_equiv_pos_as_xyz
1 x,y,z
2 1/2-x,-y,1/2+z
3 -x,1/2+y,1/2-z
4 1/2+x,1/2-y,-z
_cell_length_a                   7.5143(15)
_cell_length_b                   13.901(3)
_cell_length_c                   18.545(4)
_cell_angle_alpha                90
_cell_angle_beta                 90
_cell_angle_gamma                90
_cell_volume                     1937.14
_exptl_crystal_colour            colorless
_exptl_crystal_description       prismatic
_chemical_melting_point          'above 290deg.C'
_cell_formula_units_Z            4
_exptl_crystal_recrystallization_method ethanol
loop_
_atom_site_label
_atom_site_type_symbol
_atom_site_fract_x
_atom_site_fract_y
_atom_site_fract_z
O1 O 0.3315(3) -0.07524(17) 0.25036(14)
O2 O 0.0202(3) -0.05948(18) 0.18903(14)
O3 O -0.1873(3) 0.09744(16) 0.20335(14)
O4 O 0.2014(3) 0.44267(15) 0.42403(12)
N1 N 0.4229(3) 0.2581(2) 0.38003(14)
N2 N 0.6404(3) 0.4432(2) 0.48227(15)
N3 N 0.4743(3) 0.48796(19) 0.47010(14)
C1 C 0.3074(4) 0.0848(2) 0.30332(18)
H1 H 0.4177 0.0798 0.3257
C2 C 0.2451(4) 0.0107(3) 0.26198(18)
C3 C 0.0775(4) 0.0170(3) 0.22815(19)
C4 C -0.0245(4) 0.0994(2) 0.23768(18)
C5 C 0.0377(4) 0.1742(2) 0.27916(17)
H2 H -0.0315 0.2290 0.2855
C6 C 0.2051(4) 0.1679(2) 0.31186(18)
C7 C 0.2668(4) 0.2520(3) 0.35248(18)
H3 H 0.1889 0.3033 0.3586
C8 C 0.3624(4) 0.4252(2) 0.43370(18)
C9 C 0.4697(4) 0.3430(2) 0.41626(17)
C10 C 0.6345(4) 0.3587(2) 0.44506(18)
C11 C 0.4161(4) 0.5642(2) 0.51653(19)
C12 C 0.4716(4) 0.5693(3) 0.58703(19)
H4 H 0.5465 0.5223 0.6057
C13 C 0.4158(5) 0.6446(3) 0.6299(2)
H5 H 0.4539 0.6483 0.6776
C14 C 0.3045(5) 0.7140(3) 0.6029(2)
H6 H 0.2696 0.7656 0.6316
C15 C 0.2448(5) 0.7068(3) 0.5329(2)
H7 H 0.1656 0.7523 0.5149
C16 C 0.3019(4) 0.6325(2) 0.4891(2)
H8 H 0.2635 0.6286 0.4415
C17 C 0.5044(4) -0.0849(3) 0.2810(2)
H9 H 0.5520 -0.1470 0.2692
H10 H 0.4968 -0.0784 0.3325
H11 H 0.5810 -0.0357 0.2620
C18 C -0.2996(4) 0.1789(3) 0.2123(2)
H12 H -0.4076 0.1696 0.1856
H13 H -0.2397 0.2353 0.1949
H14 H -0.3271 0.1869 0.2625
C19 C 0.7941(4) 0.2949(3) 0.43929(19)
H15 H 0.8916 0.3231 0.4652
H16 H 0.8263 0.2876 0.3895
H17 H 0.7669 0.2330 0.4594
C20 C 0.7964(4) 0.5059(3) 0.4823(2)
H18 H 0.9015 0.4681 0.4904
H19 H 0.7848 0.5530 0.5199
H20 H 0.8055 0.5379 0.4365
H21 H -0.058(4) -0.041(3) 0.1553(15)
loop_
_geom_bond_atom_site_label_1
_geom_bond_atom_site_label_2
_geom_bond_site_symmetry_1
_geom_bond_site_symmetry_2
O1 C2 1_555 1_555
O2 C3 1_555 1_555
O3 C4 1_555 1_555
O4 C8 1_555 1_555
N1 C7 1_555 1_555
N2 N3 1_555 1_555
N3 C8 1_555 1_555
C1 H1 1_555 1_555
C2 C1 1_555 1_555
C3 C2 1_555 1_555
C4 C3 1_555 1_555
C5 C4 1_555 1_555
H2 C5 1_555 1_555
C6 C1 1_555 1_555
C7 C6 1_555 1_555
H3 C7 1_555 1_555
C8 C9 1_555 1_555
C9 N1 1_555 1_555
C10 N2 1_555 1_555
C11 N3 1_555 1_555
C12 C11 1_555 1_555
H4 C12 1_555 1_555
C13 C12 1_555 1_555
H5 C13 1_555 1_555
C14 C13 1_555 1_555
H6 C14 1_555 1_555
C15 C14 1_555 1_555
H7 C15 1_555 1_555
C16 C11 1_555 1_555
H8 C16 1_555 1_555
C17 O1 1_555 1_555
H9 C17 1_555 1_555
H10 C17 1_555 1_555
H11 C17 1_555 1_555
C18 O3 1_555 1_555
H12 C18 1_555 1_555
H13 C18 1_555 1_555
H14 C18 1_555 1_555
C19 C10 1_555 1_555
H15 C19 1_555 1_555
H16 C19 1_555 1_555
H17 C19 1_555 1_555
C20 N2 1_555 1_555
H18 C20 1_555 1_555
H19 C20 1_555 1_555
H20 C20 1_555 1_555
H21 O2 1_555 1_555
C5 C6 1_555 1_555
C9 C10 1_555 1_555
C15 C16 1_555 1_555

#END
