
#######################################################################
#
#                 Cambridge Crystallographic Data Centre
#                                CCDC 
#
#######################################################################
#
# If this CIF has been generated from an entry in the Cambridge 
# Structural Database, then it will include bibliographic, chemical, 
# crystal, experimental, refinement or atomic coordinate data resulting 
# from the CCDC's data processing and validation procedures.
#
#######################################################################

data_LIDBUY
_chemical_formula_moiety         'C26 H22 N2 O4'
_chemical_name_systematic        
'ethyl [(benzenecarbonyl)amino](2,5-diphenyl-1,3-oxazol-4-yl)acetate'
_symmetry_cell_setting           triclinic
_symmetry_space_group_name_H-M   'P -1'
_symmetry_Int_Tables_number      2
_space_group_name_Hall           '-P 1'
loop_
_symmetry_equiv_pos_site_id
_symmetry_equiv_pos_as_xyz
1 x,y,z
2 -x,-y,-z
_cell_length_a                   5.0789(5)
_cell_length_b                   9.6010(10)
_cell_length_c                   21.943(2)
_cell_angle_alpha                94.338(4)
_cell_angle_beta                 93.867(3)
_cell_angle_gamma                96.629(3)
_cell_volume                     1056.66
_exptl_crystal_colour            colorless
_exptl_crystal_description       rod
_cell_formula_units_Z            2
loop_
_atom_site_label
_atom_site_type_symbol
_atom_site_fract_x
_atom_site_fract_y
_atom_site_fract_z
O1 O 0.7123(3) 0.21292(17) 0.78654(7)
O2 O 0.5747(3) 0.66551(18) 0.85947(7)
O3 O 0.1948(3) 0.6547(2) 0.67351(8)
O4 O 0.8437(4) 0.7795(2) 0.79690(9)
N1 N 0.6142(4) 0.6063(2) 0.69631(9)
H1 H 0.7738 0.6010 0.6837
N2 N 0.8821(4) 0.4354(2) 0.81263(9)
C1 C 0.9046(4) 0.3038(2) 0.81940(10)
C2 C 0.3253(4) 0.2231(2) 0.71767(10)
C3 C 1.1003(5) 0.2448(2) 0.85816(10)
C4 C 0.5568(4) 0.5683(2) 0.75733(10)
H2 H 0.3595 0.5573 0.7595
C5 C 0.6783(5) 0.6852(2) 0.80591(11)
C6 C 0.4229(5) 0.6497(2) 0.65883(11)
C7 C 0.5528(4) 0.2964(2) 0.75625(10)
C8 C 0.6559(4) 0.4326(2) 0.77283(10)
C9 C 1.2997(5) 0.3341(3) 0.89325(11)
H3 H 1.3048 0.4331 0.8925
C10 C 0.5005(5) 0.6879(3) 0.59685(11)
C11 C -0.0597(5) 0.2253(3) 0.64652(11)
H4 H -0.1705 0.2762 0.6222
C12 C 1.4899(5) 0.2789(3) 0.92913(11)
H5 H 1.6260 0.3402 0.9527
C13 C 1.4828(5) 0.1338(3) 0.93091(12)
H6 H 1.6124 0.0959 0.9558
C14 C 0.1591(5) 0.2962(3) 0.68178(11)
H7 H 0.1964 0.3954 0.6815
C15 C 0.2673(5) 0.0764(3) 0.71682(11)
H8 H 0.3800 0.0246 0.7402
C16 C 1.0942(5) 0.0993(3) 0.85955(12)
H9 H 0.9601 0.0375 0.8356
C17 C 0.7012(5) 0.7543(3) 0.91252(11)
H10 H 0.5697 0.7665 0.9432
H11 H 0.7651 0.8484 0.8999
C18 C -0.1173(5) 0.0806(3) 0.64661(12)
H12 H -0.2677 0.0323 0.6226
C19 C 0.0461(5) 0.0065(3) 0.68193(12)
H13 H 0.0064 -0.0926 0.6823
C20 C 1.2853(5) 0.0456(3) 0.89609(13)
H14 H 1.2804 -0.0534 0.8972
C21 C 0.3578(5) 0.7841(3) 0.56831(12)
H15 H 0.2222 0.8247 0.5886
C22 C 0.6942(5) 0.6271(3) 0.56619(12)
H16 H 0.7917 0.5614 0.5853
C23 C 0.9312(6) 0.6897(3) 0.94071(13)
H17 H 0.8680 0.5963 0.9529
H18 H 1.0113 0.7497 0.9769
H19 H 1.0643 0.6811 0.9108
C24 C 0.4148(6) 0.8202(3) 0.51019(12)
H20 H 0.3198 0.8869 0.4911
C25 C 0.6071(6) 0.7605(4) 0.47991(13)
H21 H 0.6454 0.7862 0.4402
C26 C 0.7455(6) 0.6625(4) 0.50742(13)
H22 H 0.8757 0.6194 0.4861
loop_
_geom_bond_atom_site_label_1
_geom_bond_atom_site_label_2
_geom_bond_site_symmetry_1
_geom_bond_site_symmetry_2
O1 C1 1_555 1_555
O2 C5 1_555 1_555
O3 C6 1_555 1_555
O4 C5 1_555 1_555
N1 H1 1_555 1_555
N2 C1 1_555 1_555
C1 C3 1_555 1_555
C2 C7 1_555 1_555
C3 C9 1_555 1_555
C4 N1 1_555 1_555
H2 C4 1_555 1_555
C5 C4 1_555 1_555
C6 N1 1_555 1_555
C7 O1 1_555 1_555
C8 N2 1_555 1_555
C9 H3 1_555 1_555
C10 C6 1_555 1_555
C11 H4 1_555 1_555
C12 C9 1_555 1_555
H5 C12 1_555 1_555
C13 C12 1_555 1_555
H6 C13 1_555 1_555
C14 C2 1_555 1_555
H7 C14 1_555 1_555
C15 C2 1_555 1_555
H8 C15 1_555 1_555
C16 C3 1_555 1_555
H9 C16 1_555 1_555
C17 O2 1_555 1_555
H10 C17 1_555 1_555
H11 C17 1_555 1_555
C18 C11 1_555 1_555
H12 C18 1_555 1_555
C19 C15 1_555 1_555
H13 C19 1_555 1_555
C20 C13 1_555 1_555
H14 C20 1_555 1_555
C21 C10 1_555 1_555
H15 C21 1_555 1_555
C22 C10 1_555 1_555
H16 C22 1_555 1_555
C23 C17 1_555 1_555
H17 C23 1_555 1_555
H18 C23 1_555 1_555
H19 C23 1_555 1_555
C24 C21 1_555 1_555
H20 C24 1_555 1_555
C25 C24 1_555 1_555
H21 C25 1_555 1_555
C26 C22 1_555 1_555
H22 C26 1_555 1_555
C4 C8 1_555 1_555
C7 C8 1_555 1_555
C11 C14 1_555 1_555
C16 C20 1_555 1_555
C18 C19 1_555 1_555
C25 C26 1_555 1_555

#END
