
#######################################################################
#
#                 Cambridge Crystallographic Data Centre
#                                CCDC 
#
#######################################################################
#
# If this CIF has been generated from an entry in the Cambridge 
# Structural Database, then it will include bibliographic, chemical, 
# crystal, experimental, refinement or atomic coordinate data resulting 
# from the CCDC's data processing and validation procedures.
#
#######################################################################

data_LIDKUF
_chemical_formula_moiety         'C42 H44 N2 O4 2+,2(Cl1 O4 1-),C6 H6'
_chemical_name_systematic        
'r-4-(c-2,t-4-bis(3,4-dimethoxyphenyl)-t-3-(1-ethyl-4-quinoliniumyl)cyclobutyl)-1-ethylquinolinium diperchlorate benzene solvate'
_symmetry_cell_setting           monoclinic
_symmetry_space_group_name_H-M   'P 21/n'
_symmetry_Int_Tables_number      14
_space_group_name_Hall           '-P 2yn'
loop_
_symmetry_equiv_pos_site_id
_symmetry_equiv_pos_as_xyz
1 x,y,z
2 1/2-x,1/2+y,1/2-z
3 -x,-y,-z
4 1/2+x,1/2-y,1/2+z
_cell_length_a                   7.7053(9)
_cell_length_b                   20.304(2)
_cell_length_c                   14.3081(15)
_cell_angle_alpha                90
_cell_angle_beta                 99.737(5)
_cell_angle_gamma                90
_cell_volume                     2206.23
_exptl_crystal_colour            yellow
_exptl_crystal_description       block
_chemical_melting_point          '235-236 deg.C (dec.)'
_cell_formula_units_Z            2
loop_
_atom_site_label
_atom_site_type_symbol
_atom_site_fract_x
_atom_site_fract_y
_atom_site_fract_z
Cl1 Cl 0.4293(3) 0.59937(10) -0.20938(14)
O1 O 0.4644(7) 0.5982(3) -0.1093(4)
O2 O 0.2805(8) 0.5571(3) -0.2444(4)
O3 O 0.5815(10) 0.5750(4) -0.2430(5)
O4 O 0.3918(12) 0.6650(3) -0.2433(6)
O5 O 0.4859(7) 0.6429(2) -0.8166(4)
O6 O 0.4671(9) 0.7602(3) -0.7571(4)
N1 N 0.0048(8) 0.6078(3) -0.7154(4)
C1 C 0.4857(12) 0.5771(4) -0.8551(5)
H1 H 0.4697 0.5795 -0.9244
H2 H 0.3893 0.5517 -0.8362
H3 H 0.5982 0.5556 -0.8308
C2 C 0.4340(19) 0.8253(5) -0.7287(7)
H4 H 0.4125 0.8540 -0.7846
H5 H 0.5364 0.8415 -0.6846
H6 H 0.3304 0.8255 -0.6973
C3 C 0.5006(10) 0.7132(4) -0.6868(6)
C4 C 0.5279(11) 0.7247(4) -0.5905(6)
H7 H 0.5298 0.7687 -0.5678
C5 C 0.5531(11) 0.6723(4) -0.5251(5)
H8 H 0.5703 0.6810 -0.4590
C6 C 0.5529(10) 0.6081(3) -0.5575(5)
C7 C 0.5320(10) 0.5969(4) -0.6557(5)
H9 H 0.5348 0.5529 -0.6783
C8 C 0.5074(9) 0.6482(4) -0.7205(6)
C9 C 0.5468(10) 0.5524(4) -0.4883(5)
C10 C 0.3618(11) 0.5142(4) -0.4931(5)
C11 C 0.2186(11) 0.5411(4) -0.5677(5)
C12 C 0.1457(10) 0.6049(4) -0.5508(5)
C13 C 0.1770(11) 0.6354(4) -0.4623(5)
H10 H 0.2438 0.6129 -0.4100
C14 C 0.1117(11) 0.6986(4) -0.4488(6)
H11 H 0.1308 0.7185 -0.3878
C15 C 0.0177(12) 0.7317(4) -0.5274(6)
H12 H -0.0225 0.7751 -0.5189
C16 C -0.0182(11) 0.7043(4) -0.6148(6)
H13 H -0.0828 0.7281 -0.6664
C17 C 0.0431(10) 0.6384(4) -0.6285(5)
C18 C 0.0560(10) 0.5455(4) -0.7269(6)
H14 H 0.0190 0.5238 -0.7857
C19 C 0.1614(10) 0.5126(4) -0.6543(5)
H15 H 0.1957 0.4686 -0.6646
C20 C -0.0846(11) 0.6437(4) -0.8012(6)
H16 H -0.1841 0.6695 -0.7847
H17 H -0.1329 0.6114 -0.8506
C21 C 0.0416(12) 0.6898(4) -0.8403(6)
H18 H -0.0210 0.7123 -0.8966
H19 H 0.1394 0.6642 -0.8575
H20 H 0.0876 0.7224 -0.7919
H21 H 0.583(10) 0.561(4) -0.418(5)
H22 H 0.329(11) 0.519(4) -0.433(6)
O5B O 0.5141(7) 0.3571(2) -0.1834(4)
O6B O 0.5329(9) 0.2398(3) -0.2429(4)
N1B N 0.9952(8) 0.3922(3) -0.2846(4)
C1B C 0.5143(12) 0.4229(4) -0.1449(5)
H1B H 0.5303 0.4205 -0.0756
H2B H 0.6107 0.4483 -0.1638
H3B H 0.4018 0.4444 -0.1692
C2B C 0.5660(19) 0.1747(5) -0.2713(7)
H4B H 0.5875 0.1460 -0.2154
H5B H 0.4636 0.1585 -0.3154
H6B H 0.6696 0.1745 -0.3027
C3B C 0.4994(10) 0.2868(4) -0.3132(6)
C4B C 0.4721(11) 0.2753(4) -0.4095(6)
H7B H 0.4702 0.2313 -0.4322
C5B C 0.4469(11) 0.3277(4) -0.4749(5)
H8B H 0.4297 0.3190 -0.5410
C6B C 0.4471(10) 0.3919(3) -0.4425(5)
C7B C 0.4680(10) 0.4031(4) -0.3443(5)
H9B H 0.4652 0.4471 -0.3217
C8B C 0.4926(9) 0.3518(4) -0.2795(6)
C9B C 0.4532(10) 0.4476(4) -0.5117(5)
C10B C 0.6382(11) 0.4858(4) -0.5069(5)
C11B C 0.7814(11) 0.4589(4) -0.4323(5)
C12B C 0.8543(10) 0.3951(4) -0.4492(5)
C13B C 0.8230(11) 0.3646(4) -0.5377(5)
H10B H 0.7562 0.3871 -0.5900
C14B C 0.8883(11) 0.3014(4) -0.5512(6)
H11B H 0.8692 0.2815 -0.6122
C15B C 0.9823(12) 0.2683(4) -0.4726(6)
H12B H 1.0225 0.2249 -0.4811
C16B C 1.0182(11) 0.2957(4) -0.3852(6)
H13B H 1.0828 0.2719 -0.3336
C17B C 0.9569(10) 0.3616(4) -0.3715(5)
C18B C 0.9440(10) 0.4545(4) -0.2731(6)
H14B H 0.9810 0.4762 -0.2143
C19B C 0.8386(10) 0.4874(4) -0.3457(5)
H15B H 0.8043 0.5314 -0.3354
C20B C 1.0846(11) 0.3563(4) -0.1988(6)
H16B H 1.1841 0.3305 -0.2153
H17B H 1.1329 0.3886 -0.1494
C21B C 0.9584(12) 0.3102(4) -0.1597(6)
H18B H 1.0210 0.2877 -0.1034
H19B H 0.8606 0.3358 -0.1425
H20B H 0.9124 0.2776 -0.2081
H21B H 0.417(10) 0.439(4) -0.582(5)
H22B H 0.671(11) 0.481(4) -0.567(6)
C22 C 0.9126(14) 0.4482(5) 0.0357(7)
C23 C 0.8211(12) 0.5049(5) 0.0058(6)
C24 C 1.0903(13) 0.4430(5) 0.0299(6)
H23 H 0.843(16) 0.413(6) 0.067(9)
H24 H 0.705(12) 0.497(4) 0.019(5)
H25 H 1.165(13) 0.412(5) 0.056(7)
C22B C 1.0874(14) 0.5518(5) -0.0357(7)
C23B C 1.1789(12) 0.4951(5) -0.0058(6)
C24B C 0.9097(13) 0.5570(5) -0.0299(6)
H23B H 1.157(16) 0.587(6) -0.067(9)
H24B H 1.295(12) 0.503(4) -0.019(5)
H25B H 0.835(13) 0.588(5) -0.056(7)
loop_
_geom_bond_atom_site_label_1
_geom_bond_atom_site_label_2
_geom_bond_site_symmetry_1
_geom_bond_site_symmetry_2
Cl1 O1 1_555 1_555
O2 Cl1 1_555 1_555
O3 Cl1 1_555 1_555
O4 Cl1 1_555 1_555
O5 C1 1_555 1_555
O6 C2 1_555 1_555
N1 C17 1_555 1_555
C1 H1 1_555 1_555
H2 C1 1_555 1_555
H3 C1 1_555 1_555
C2 H4 1_555 1_555
H5 C2 1_555 1_555
H6 C2 1_555 1_555
C3 O6 1_555 1_555
C4 C3 1_555 1_555
H7 C4 1_555 1_555
C5 C4 1_555 1_555
H8 C5 1_555 1_555
C6 C5 1_555 1_555
C7 C6 1_555 1_555
H9 C7 1_555 1_555
C8 O5 1_555 1_555
C9 C6 1_555 1_555
C10 C9 1_555 1_555
C11 C10 1_555 1_555
C12 C11 1_555 1_555
C13 C12 1_555 1_555
H10 C13 1_555 1_555
C14 C13 1_555 1_555
H11 C14 1_555 1_555
C15 C14 1_555 1_555
H12 C15 1_555 1_555
C16 C15 1_555 1_555
H13 C16 1_555 1_555
C17 C12 1_555 1_555
C18 N1 1_555 1_555
H14 C18 1_555 1_555
C19 C11 1_555 1_555
H15 C19 1_555 1_555
C20 N1 1_555 1_555
H16 C20 1_555 1_555
H17 C20 1_555 1_555
C21 C20 1_555 1_555
H18 C21 1_555 1_555
H19 C21 1_555 1_555
H20 C21 1_555 1_555
C22 C23 1_555 1_555
C23 H24 1_555 1_555
C24 C22 1_555 1_555
H21 C9 1_555 1_555
H22 C10 1_555 1_555
H23 C22 1_555 1_555
H25 C24 1_555 1_555
O5B C1B 1_555 1_555
O6B C2B 1_555 1_555
N1B C17B 1_555 1_555
C1B H1B 1_555 1_555
H2B C1B 1_555 1_555
H3B C1B 1_555 1_555
C2B H4B 1_555 1_555
H5B C2B 1_555 1_555
H6B C2B 1_555 1_555
C3B O6B 1_555 1_555
C4B C3B 1_555 1_555
H7B C4B 1_555 1_555
C5B C4B 1_555 1_555
H8B C5B 1_555 1_555
C6B C5B 1_555 1_555
C7B C6B 1_555 1_555
H9B C7B 1_555 1_555
C8B O5B 1_555 1_555
C9B C10 1_555 1_555
C10B C9 1_555 1_555
C11B C10B 1_555 1_555
C12B C11B 1_555 1_555
C13B C12B 1_555 1_555
H10B C13B 1_555 1_555
C14B C13B 1_555 1_555
H11B C14B 1_555 1_555
C15B C14B 1_555 1_555
H12B C15B 1_555 1_555
C16B C15B 1_555 1_555
H13B C16B 1_555 1_555
C17B C12B 1_555 1_555
C18B N1B 1_555 1_555
H14B C18B 1_555 1_555
C19B C11B 1_555 1_555
H15B C19B 1_555 1_555
C20B N1B 1_555 1_555
H16B C20B 1_555 1_555
H17B C20B 1_555 1_555
C21B C20B 1_555 1_555
H18B C21B 1_555 1_555
H19B C21B 1_555 1_555
H20B C21B 1_555 1_555
C22B C23B 1_555 1_555
C23B C24 1_555 1_555
C24B C23 1_555 1_555
H21B C9B 1_555 1_555
H22B C10B 1_555 1_555
H23B C22B 1_555 1_555
H24B C23B 1_555 1_555
H25B C24B 1_555 1_555
C3 C8 1_555 1_555
C7 C8 1_555 1_555
C16 C17 1_555 1_555
C18 C19 1_555 1_555
C3B C8B 1_555 1_555
C6B C9B 1_555 1_555
C7B C8B 1_555 1_555
C9B C10B 1_555 1_555
C16B C17B 1_555 1_555
C18B C19B 1_555 1_555
C22B C24B 1_555 1_555

#END
