
#######################################################################
#
#                 Cambridge Crystallographic Data Centre
#                                CCDC 
#
#######################################################################
#
# If this CIF has been generated from an entry in the Cambridge 
# Structural Database, then it will include bibliographic, chemical, 
# crystal, experimental, refinement or atomic coordinate data resulting 
# from the CCDC's data processing and validation procedures.
#
#######################################################################

data_LIDOCN01
_chemical_formula_moiety         'C14 H23 N2 O1 1+,Cl1 1-,H2 O1'
_chemical_name_systematic        'Lidocaine hydrochloride monohydrate'
_symmetry_cell_setting           monoclinic
_symmetry_space_group_name_H-M   'P 21/n'
_symmetry_Int_Tables_number      14
_space_group_name_Hall           '-P 2yn'
loop_
_symmetry_equiv_pos_site_id
_symmetry_equiv_pos_as_xyz
1 x,y,z
2 1/2-x,1/2+y,1/2-z
3 -x,-y,-z
4 1/2+x,1/2-y,1/2+z
_cell_length_a                   8.391(2)
_cell_length_b                   7.0150(17)
_cell_length_c                   26.163(6)
_cell_angle_alpha                90
_cell_angle_beta                 91.414(3)
_cell_angle_gamma                90
_cell_volume                     1539.56
_cell_formula_units_Z            4
loop_
_atom_site_label
_atom_site_type_symbol
_atom_site_fract_x
_atom_site_fract_y
_atom_site_fract_z
Cl1 Cl 1.0133(2) -0.1442(3) -0.20365(7)
O1 O 0.7584(8) -0.3606(9) -0.1379(2)
H1 H 0.714(11) -0.265(15) -0.124(4)
H2 H 0.825(10) -0.318(13) -0.154(3)
O2 O 0.6330(6) -0.0169(7) -0.10184(19)
N1 N 0.7160(7) 0.2848(9) -0.0894(2)
N2 N 0.4762(7) 0.1402(9) -0.1951(2)
C1 C 0.7652(8) 0.2614(10) -0.0369(3)
C2 C 0.6374(8) 0.1924(10) -0.1742(3)
H3 H 0.6539 0.3310 -0.1788
H4 H 0.7192 0.1250 -0.1940
C3 C 0.6501(8) 0.2478(10) 0.0001(3)
C4 C 0.7038(9) 0.2262(10) 0.0503(3)
H5 H 0.6283 0.2151 0.0766
C5 C 0.4759(8) 0.2540(11) -0.0130(3)
H6 H 0.4149 0.2422 0.0183
H7 H 0.4485 0.1484 -0.0361
H8 H 0.4499 0.3753 -0.0298
C6 C 0.3424(9) 0.2196(11) -0.1647(3)
H9 H 0.3494 0.1676 -0.1295
H10 H 0.2395 0.1780 -0.1804
C7 C 0.9274(9) 0.2563(10) -0.0253(3)
C8 C 0.6606(8) 0.1435(11) -0.1182(3)
C9 C 0.9737(10) 0.2351(12) 0.0252(3)
H11 H 1.0841 0.2305 0.0342
C10 C 0.3456(10) 0.4338(11) -0.1622(3)
H12 H 0.2562 0.4790 -0.1421
H13 H 0.3366 0.4861 -0.1969
H14 H 0.4462 0.4758 -0.1460
C11 C 1.0472(9) 0.2717(13) -0.0667(3)
H15 H 1.1551 0.2653 -0.0516
H16 H 1.0331 0.3935 -0.0846
H17 H 1.0318 0.1666 -0.0910
C12 C 0.4526(9) -0.0688(11) -0.2051(3)
H18 H 0.3398 -0.0917 -0.2153
H19 H 0.4751 -0.1404 -0.1731
C13 C 0.5583(9) -0.1428(12) -0.2463(3)
H20 H 0.5389 -0.2794 -0.2513
H21 H 0.6702 -0.1225 -0.2362
H22 H 0.5346 -0.0747 -0.2783
C14 C 0.8634(10) 0.2205(11) 0.0629(3)
H23 H 0.8975 0.2065 0.0976
H24 H 0.736(8) 0.390(10) -0.102(3)
H25 H 0.471(8) 0.190(10) -0.225(3)
loop_
_geom_bond_atom_site_label_1
_geom_bond_atom_site_label_2
_geom_bond_site_symmetry_1
_geom_bond_site_symmetry_2
O1 H1 1_555 1_555
H2 O1 1_555 1_555
O2 C8 1_555 1_555
N1 C1 1_555 1_555
N2 C2 1_555 1_555
C1 C3 1_555 1_555
C2 H3 1_555 1_555
H4 C2 1_555 1_555
C3 C4 1_555 1_555
C4 H5 1_555 1_555
C5 C3 1_555 1_555
H6 C5 1_555 1_555
H7 C5 1_555 1_555
H8 C5 1_555 1_555
C6 N2 1_555 1_555
H9 C6 1_555 1_555
H10 C6 1_555 1_555
C7 C1 1_555 1_555
C8 N1 1_555 1_555
C9 C7 1_555 1_555
H11 C9 1_555 1_555
C10 C6 1_555 1_555
H12 C10 1_555 1_555
H13 C10 1_555 1_555
H14 C10 1_555 1_555
C11 C7 1_555 1_555
H15 C11 1_555 1_555
H16 C11 1_555 1_555
H17 C11 1_555 1_555
C12 N2 1_555 1_555
H18 C12 1_555 1_555
H19 C12 1_555 1_555
C13 C12 1_555 1_555
H20 C13 1_555 1_555
H21 C13 1_555 1_555
H22 C13 1_555 1_555
C14 C4 1_555 1_555
H23 C14 1_555 1_555
H24 N1 1_555 1_555
H25 N2 1_555 1_555
C2 C8 1_555 1_555
C9 C14 1_555 1_555

#END
