
#######################################################################
#
#                 Cambridge Crystallographic Data Centre
#                                CCDC 
#
#######################################################################
#
# If this CIF has been generated from an entry in the Cambridge 
# Structural Database, then it will include bibliographic, chemical, 
# crystal, experimental, refinement or atomic coordinate data resulting 
# from the CCDC's data processing and validation procedures.
#
#######################################################################

data_LIDPUL
_chemical_formula_moiety         'C14 H14 N1 O2 1+,Cl1 1-'
_chemical_name_systematic        
'1-(4-(Methoxycarbonyl)phenyl)-4-methylpyridinium chloride'
_symmetry_cell_setting           orthorhombic
_symmetry_space_group_name_H-M   'F d d 2'
_symmetry_Int_Tables_number      43
_space_group_name_Hall           'F 2 -2d'
loop_
_symmetry_equiv_pos_site_id
_symmetry_equiv_pos_as_xyz
1 x,y,z
2 -x,-y,z
3 1/4+x,1/4-y,1/4+z
4 1/4-x,1/4+y,1/4+z
5 x,1/2+y,1/2+z
6 -x,1/2-y,1/2+z
7 1/4+x,3/4-y,3/4+z
8 1/4-x,3/4+y,3/4+z
9 1/2+x,y,1/2+z
10 1/2-x,-y,1/2+z
11 3/4+x,1/4-y,3/4+z
12 3/4-x,1/4+y,3/4+z
13 1/2+x,1/2+y,z
14 1/2-x,1/2-y,z
15 3/4+x,3/4-y,1/4+z
16 3/4-x,3/4+y,1/4+z
_cell_length_a                   28.673(15)
_cell_length_b                   42.40(2)
_cell_length_c                   4.232(2)
_cell_angle_alpha                90
_cell_angle_beta                 90
_cell_angle_gamma                90
_cell_volume                     5144.99
_exptl_crystal_colour            colorless
_exptl_crystal_description       needle
_cell_formula_units_Z            16
loop_
_atom_site_label
_atom_site_type_symbol
_atom_site_fract_x
_atom_site_fract_y
_atom_site_fract_z
O1 O 0.81920(19) 0.24419(12) -0.0019(12)
O2 O 0.89349(19) 0.25257(11) 0.1596(14)
N1 N 0.7864(2) 0.37586(15) 0.7022(14)
C1 C 0.7417(3) 0.46403(17) 1.111(2)
H1 H 0.7682 0.4786 1.1224
H2 H 0.7296 0.4603 1.3240
H3 H 0.7172 0.4732 0.9788
C2 C 0.7578(3) 0.4330(2) 0.9677(17)
C3 C 0.7302(3) 0.40562(19) 1.0014(17)
H4 H 0.7018 0.4065 1.1169
C4 C 0.7446(3) 0.37702(19) 0.864(2)
H5 H 0.7258 0.3587 0.8831
C5 C 0.8136(3) 0.40242(17) 0.6704(18)
H6 H 0.8425 0.4012 0.5607
C6 C 0.7991(3) 0.43129(19) 0.7986(17)
H7 H 0.8176 0.4497 0.7696
C7 C 0.8031(3) 0.34610(17) 0.5681(17)
C8 C 0.7707(3) 0.32612(17) 0.4298(17)
H8 H 0.7385 0.3314 0.4281
C9 C 0.7867(3) 0.29784(18) 0.2918(17)
H9 H 0.7651 0.2840 0.1927
C10 C 0.8341(3) 0.28988(17) 0.2992(18)
C11 C 0.8649(3) 0.31033(18) 0.4497(19)
H10 H 0.8971 0.3050 0.4593
C12 C 0.8499(3) 0.33840(18) 0.5863(19)
H11 H 0.8713 0.3520 0.6899
C13 C 0.8528(3) 0.26038(18) 0.145(2)
C14 C 0.8339(3) 0.21523(17) -0.166(2)
H12 H 0.8639 0.2189 -0.2708
H13 H 0.8104 0.2095 -0.3239
H14 H 0.8372 0.1981 -0.0123
Cl1 Cl 0.84550(7) 0.14651(5) 0.3787(5)
loop_
_geom_bond_atom_site_label_1
_geom_bond_atom_site_label_2
_geom_bond_site_symmetry_1
_geom_bond_site_symmetry_2
O1 C13 1_555 1_555
O2 C13 1_555 1_555
N1 C4 1_555 1_555
C1 H1 1_555 1_555
H2 C1 1_555 1_555
H3 C1 1_555 1_555
C2 C1 1_555 1_555
C3 C2 1_555 1_555
H4 C3 1_555 1_555
C4 C3 1_555 1_555
H5 C4 1_555 1_555
C5 N1 1_555 1_555
H6 C5 1_555 1_555
C6 C2 1_555 1_555
H7 C6 1_555 1_555
C7 N1 1_555 1_555
C8 C7 1_555 1_555
H8 C8 1_555 1_555
C9 C8 1_555 1_555
H9 C9 1_555 1_555
C10 C9 1_555 1_555
C11 C10 1_555 1_555
H10 C11 1_555 1_555
C12 C7 1_555 1_555
H11 C12 1_555 1_555
C13 C10 1_555 1_555
C14 O1 1_555 1_555
H12 C14 1_555 1_555
H13 C14 1_555 1_555
H14 C14 1_555 1_555
C5 C6 1_555 1_555
C11 C12 1_555 1_555

#END
