
#######################################################################
#
#                 Cambridge Crystallographic Data Centre
#                                CCDC 
#
#######################################################################
#
# If this CIF has been generated from an entry in the Cambridge 
# Structural Database, then it will include bibliographic, chemical, 
# crystal, experimental, refinement or atomic coordinate data resulting 
# from the CCDC's data processing and validation procedures.
#
#######################################################################

data_LIGDEN
_chemical_formula_moiety         'C17 H18 Cl1 N1 O2'
_chemical_name_systematic        
5-(4-chlorophenyl)-5-hydroxy-N-phenylpentanamide
_symmetry_cell_setting           monoclinic
_symmetry_space_group_name_H-M   'P 21'
_symmetry_Int_Tables_number      4
_space_group_name_Hall           'P 2yb'
loop_
_symmetry_equiv_pos_site_id
_symmetry_equiv_pos_as_xyz
1 x,y,z
2 -x,1/2+y,-z
_cell_length_a                   5.9758(3)
_cell_length_b                   8.5937(4)
_cell_length_c                   15.7695(7)
_cell_angle_alpha                90
_cell_angle_beta                 93.352(2)
_cell_angle_gamma                90
_cell_volume                     808.445
_exptl_crystal_colour            colorless
_exptl_crystal_description       block
_cell_formula_units_Z            2
loop_
_atom_site_label
_atom_site_type_symbol
_atom_site_fract_x
_atom_site_fract_y
_atom_site_fract_z
C1 C -0.3969(8) 0.7927(5) 0.5988(2)
C2 C -0.1955(8) 0.7196(6) 0.5896(2)
H1 H -0.1230 0.7303 0.5393
C3 C -0.1015(6) 0.6311(5) 0.65434(18)
H2 H 0.0330 0.5798 0.6471
C4 C -0.2044(5) 0.6167(3) 0.73098(17)
C5 C -0.4058(6) 0.6937(5) 0.7392(2)
H3 H -0.4772 0.6872 0.7899
C6 C -0.5021(6) 0.7805(5) 0.6720(3)
H4 H -0.6387 0.8301 0.6776
C7 C -0.0873(5) 0.5323(3) 0.80475(16)
H5 H 0.0164 0.4569 0.7819
C8 C 0.0493(4) 0.6475(4) 0.85950(17)
H6 H -0.0530 0.7161 0.8870
H7 H 0.1369 0.7110 0.8228
C9 C 0.2079(5) 0.5737(4) 0.92767(17)
H8 H 0.1246 0.5045 0.9628
H9 H 0.3212 0.5130 0.9010
C10 C 0.3194(6) 0.7003(4) 0.9824(2)
H10 H 0.3675 0.7828 0.9456
H11 H 0.2093 0.7439 1.0184
C11 C 0.5186(5) 0.6463(4) 1.03771(18)
C12 C 0.6818(5) 0.6616(3) 1.18693(17)
C13 C 0.8794(5) 0.5820(4) 1.1778(2)
H12 H 0.9096 0.5390 1.1255
C14 C 1.0319(6) 0.5663(5) 1.2462(2)
H13 H 1.1649 0.5125 1.2400
C15 C 0.9884(7) 0.6304(5) 1.3243(2)
H14 H 1.0918 0.6194 1.3704
C16 C 0.7915(8) 0.7103(6) 1.3334(2)
H15 H 0.7620 0.7550 1.3853
C17 C 0.6368(6) 0.7237(4) 1.26414(19)
H16 H 0.5018 0.7753 1.2704
Cl1 Cl -0.5164(3) 0.9061(2) 0.51685(7)
N1 N 0.5151(4) 0.6842(3) 1.12035(15)
H17 H 0.3941 0.7285 1.1349
O1 O -0.2408(4) 0.4496(3) 0.85297(12)
H18 H -0.2595 0.4968 0.8972
O2 O 0.6738(4) 0.5748(3) 1.00823(13)
loop_
_geom_bond_atom_site_label_1
_geom_bond_atom_site_label_2
_geom_bond_site_symmetry_1
_geom_bond_site_symmetry_2
C1 C2 1_555 1_555
C2 H1 1_555 1_555
C3 C2 1_555 1_555
H2 C3 1_555 1_555
C4 C3 1_555 1_555
C5 C4 1_555 1_555
H3 C5 1_555 1_555
C6 C1 1_555 1_555
H4 C6 1_555 1_555
C7 C4 1_555 1_555
H5 C7 1_555 1_555
C8 C7 1_555 1_555
H6 C8 1_555 1_555
H7 C8 1_555 1_555
C9 C8 1_555 1_555
H8 C9 1_555 1_555
H9 C9 1_555 1_555
C10 C9 1_555 1_555
H10 C10 1_555 1_555
H11 C10 1_555 1_555
C11 C10 1_555 1_555
C12 C13 1_555 1_555
C13 H12 1_555 1_555
C14 C13 1_555 1_555
H13 C14 1_555 1_555
C15 C14 1_555 1_555
H14 C15 1_555 1_555
C16 C15 1_555 1_555
H15 C16 1_555 1_555
C17 C12 1_555 1_555
H16 C17 1_555 1_555
Cl1 C1 1_555 1_555
N1 C11 1_555 1_555
H17 N1 1_555 1_555
O1 C7 1_555 1_555
H18 O1 1_555 1_555
O2 C11 1_555 1_555
C5 C6 1_555 1_555
C12 N1 1_555 1_555
C16 C17 1_555 1_555

#END
