
#######################################################################
#
#                 Cambridge Crystallographic Data Centre
#                                CCDC 
#
#######################################################################
#
# If this CIF has been generated from an entry in the Cambridge 
# Structural Database, then it will include bibliographic, chemical, 
# crystal, experimental, refinement or atomic coordinate data resulting 
# from the CCDC's data processing and validation procedures.
#
#######################################################################

data_LIGSAY
_chemical_formula_moiety         'C21 H26 O4'
_chemical_name_systematic        
2,14-dimethoxy-3,13-dimethyl-7,8,9,10-tetrahydro-6H-dibenzo[b,d][1,6]dioxacycloundecine
_symmetry_cell_setting           triclinic
_symmetry_space_group_name_H-M   'P -1'
_symmetry_Int_Tables_number      2
_space_group_name_Hall           '-P 1'
loop_
_symmetry_equiv_pos_site_id
_symmetry_equiv_pos_as_xyz
1 x,y,z
2 -x,-y,-z
_cell_length_a                   10.9041(3)
_cell_length_b                   11.8130(3)
_cell_length_c                   15.3920(4)
_cell_angle_alpha                67.7180(10)
_cell_angle_beta                 79.8630(10)
_cell_angle_gamma                89.1420(10)
_cell_volume                     1803.04
_exptl_crystal_colour            colorless
_exptl_crystal_description       block
_cell_formula_units_Z            4
loop_
_atom_site_label
_atom_site_type_symbol
_atom_site_fract_x
_atom_site_fract_y
_atom_site_fract_z
O1 O 0.07959(7) 0.66036(7) 0.28572(6)
O2 O 0.15459(8) 1.11890(8) -0.00877(6)
O3 O 0.00556(7) 0.82924(7) 0.39459(6)
O4 O -0.44142(8) 0.72260(8) 0.31078(6)
C1 C 0.18861(11) 0.60093(11) 0.31965(9)
H1 H 0.2512 0.6018 0.2643
H2 H 0.1646 0.5143 0.3616
C2 C 0.24782(12) 0.66207(12) 0.37469(9)
H3 H 0.2361 0.7511 0.3471
H4 H 0.3387 0.6509 0.3653
C3 C 0.19570(12) 0.61359(12) 0.48230(9)
H5 H 0.2054 0.5241 0.5090
H6 H 0.2478 0.6510 0.5120
C4 C 0.05952(11) 0.63636(11) 0.51238(9)
H7 H 0.0072 0.6025 0.4805
H8 H 0.0344 0.5907 0.5821
C5 C 0.03229(11) 0.77017(11) 0.48932(9)
H9 H -0.0399 0.7755 0.5363
H10 H 0.1052 0.8139 0.4952
C6 C 0.00571(11) 0.85625(11) 0.20840(9)
C7 C 0.10048(11) 0.77433(11) 0.21226(8)
C8 C 0.20620(11) 0.80765(11) 0.14032(9)
H11 H 0.2690 0.7506 0.1421
C9 C 0.22215(11) 0.92208(11) 0.06617(9)
C10 C 0.12869(11) 1.00526(11) 0.06420(8)
C11 C 0.02073(11) 0.97142(11) 0.13338(9)
H12 H -0.0437 1.0271 0.1297
C12 C 0.33694(12) 0.95744(12) -0.01057(10)
H13 H 0.3914 0.8885 0.0009
H14 H 0.3816 1.0282 -0.0097
H15 H 0.3127 0.9787 -0.0730
C13 C 0.06772(12) 1.20963(12) -0.00833(10)
H16 H 0.0980 1.2873 -0.0612
H17 H 0.0584 1.2208 0.0524
H18 H -0.0132 1.1834 -0.0159
C14 C -0.11002(11) 0.81847(10) 0.28272(9)
C15 C -0.10634(11) 0.79653(10) 0.37778(9)
C16 C -0.21277(11) 0.74921(10) 0.44794(9)
H19 H -0.2090 0.7338 0.5126
C17 C -0.32455(11) 0.72420(10) 0.42476(9)
C18 C -0.32869(11) 0.75077(11) 0.32861(9)
C19 C -0.22302(11) 0.79796(11) 0.25841(9)
H20 H -0.2275 0.8164 0.1934
C20 C -0.43801(12) 0.66819(12) 0.50072(9)
H21 H -0.4155 0.6448 0.5639
H22 H -0.4698 0.5954 0.4940
H23 H -0.5026 0.7280 0.4938
C21 C -0.44760(11) 0.74392(12) 0.21450(9)
H24 H -0.5303 0.7162 0.2113
H25 H -0.3838 0.6985 0.1902
H26 H -0.4329 0.8317 0.1756
O5 O -0.35247(8) 0.68012(8) 0.70465(6)
O6 O -0.35428(8) 0.30532(8) 1.05545(6)
O7 O -0.24330(8) 0.83175(7) 0.77374(6)
O8 O 0.21007(8) 0.63682(8) 0.69970(6)
C22 C -0.45474(12) 0.76064(12) 0.70024(10)
H27 H -0.4816 0.7673 0.7629
H28 H -0.5266 0.7273 0.6843
C23 C -0.41024(13) 0.88677(12) 0.62344(10)
H29 H -0.4479 0.8985 0.5668
H30 H -0.3186 0.8889 0.6038
C24 C -0.44279(13) 0.99320(12) 0.65533(11)
H31 H -0.5348 0.9945 0.6703
H32 H -0.4117 1.0709 0.6013
C25 C -0.38898(12) 0.98856(12) 0.74348(11)
H33 H -0.4008 1.0679 0.7508
H34 H -0.4369 0.9242 0.8014
C26 C -0.25156(12) 0.96277(11) 0.73719(10)
H35 H -0.2074 0.9997 0.6700
H36 H -0.2129 0.9982 0.7755
C27 C -0.24296(11) 0.57531(11) 0.83135(9)
C28 C -0.35213(11) 0.59012(11) 0.79359(9)
C29 C -0.45729(11) 0.51150(11) 0.84345(9)
H37 H -0.5307 0.5234 0.8165
C30 C -0.45811(11) 0.41657(11) 0.93103(9)
C31 C -0.34759(11) 0.40057(11) 0.96832(9)
C32 C -0.24231(11) 0.47803(11) 0.91906(9)
H38 H -0.1683 0.4649 0.9453
C33 C -0.57216(11) 0.33307(11) 0.98546(9)
H39 H -0.6432 0.3637 0.9537
H40 H -0.5910 0.3309 1.0507
H41 H -0.5566 0.2503 0.9874
C34 C -0.24827(13) 0.28928(15) 1.09982(10)
H42 H -0.2649 0.2190 1.1610
H43 H -0.2304 0.3632 1.1109
H44 H -0.1763 0.2745 1.0582
C35 C -0.12843(11) 0.65793(11) 0.78218(8)
C36 C -0.13030(11) 0.78573(11) 0.75400(9)
C37 C -0.01982(11) 0.85836(11) 0.71024(9)
H45 H -0.0220 0.9446 0.6920
C38 C 0.09344(11) 0.80789(11) 0.69263(9)
C39 C 0.09524(11) 0.68063(11) 0.72141(8)
C40 C -0.01397(11) 0.60722(11) 0.76614(8)
H46 H -0.0108 0.5208 0.7862
C41 C 0.21031(12) 0.88904(12) 0.64096(10)
H47 H 0.2802 0.8383 0.6336
H48 H 0.2290 0.9363 0.6779
H49 H 0.1977 0.9453 0.5778
C42 C 0.21681(12) 0.50786(11) 0.72669(10)
H50 H 0.3006 0.4896 0.7020
H51 H 0.1551 0.4776 0.7002
H52 H 0.1993 0.4676 0.7965
H53? H 0.1910 0.9750 0.6259
H54? H 0.2422 0.8770 0.5816
H55? H 0.2735 0.8679 0.6817
loop_
_geom_bond_atom_site_label_1
_geom_bond_atom_site_label_2
_geom_bond_site_symmetry_1
_geom_bond_site_symmetry_2
O1 C1 1_555 1_555
O2 C10 1_555 1_555
O3 C5 1_555 1_555
O4 C18 1_555 1_555
C1 H1 1_555 1_555
H2 C1 1_555 1_555
C2 C1 1_555 1_555
H3 C2 1_555 1_555
H4 C2 1_555 1_555
C3 C2 1_555 1_555
H5 C3 1_555 1_555
H6 C3 1_555 1_555
C4 C3 1_555 1_555
H7 C4 1_555 1_555
H8 C4 1_555 1_555
C5 C4 1_555 1_555
H9 C5 1_555 1_555
H10 C5 1_555 1_555
C6 C7 1_555 1_555
C7 O1 1_555 1_555
C8 C7 1_555 1_555
H11 C8 1_555 1_555
C9 C8 1_555 1_555
C10 C9 1_555 1_555
C11 C6 1_555 1_555
H12 C11 1_555 1_555
C12 C9 1_555 1_555
H13 C12 1_555 1_555
H14 C12 1_555 1_555
H15 C12 1_555 1_555
C13 O2 1_555 1_555
H16 C13 1_555 1_555
H17 C13 1_555 1_555
H18 C13 1_555 1_555
C14 C6 1_555 1_555
C15 O3 1_555 1_555
C16 C15 1_555 1_555
H19 C16 1_555 1_555
C17 C16 1_555 1_555
C18 C17 1_555 1_555
C19 C14 1_555 1_555
H20 C19 1_555 1_555
C20 C17 1_555 1_555
H21 C20 1_555 1_555
H22 C20 1_555 1_555
H23 C20 1_555 1_555
C21 O4 1_555 1_555
H24 C21 1_555 1_555
H25 C21 1_555 1_555
H26 C21 1_555 1_555
O5 C22 1_555 1_555
O6 C31 1_555 1_555
O7 C26 1_555 1_555
O8 C39 1_555 1_555
C22 H27 1_555 1_555
H28 C22 1_555 1_555
C23 C22 1_555 1_555
H29 C23 1_555 1_555
H30 C23 1_555 1_555
C24 C23 1_555 1_555
H31 C24 1_555 1_555
H32 C24 1_555 1_555
C25 C24 1_555 1_555
H33 C25 1_555 1_555
H34 C25 1_555 1_555
C26 C25 1_555 1_555
H35 C26 1_555 1_555
H36 C26 1_555 1_555
C27 C28 1_555 1_555
C28 O5 1_555 1_555
C29 C28 1_555 1_555
H37 C29 1_555 1_555
C30 C29 1_555 1_555
C31 C30 1_555 1_555
C32 C27 1_555 1_555
H38 C32 1_555 1_555
C33 C30 1_555 1_555
H39 C33 1_555 1_555
H40 C33 1_555 1_555
H41 C33 1_555 1_555
C34 O6 1_555 1_555
H42 C34 1_555 1_555
H43 C34 1_555 1_555
H44 C34 1_555 1_555
C35 C27 1_555 1_555
C36 O7 1_555 1_555
C37 C36 1_555 1_555
H45 C37 1_555 1_555
C38 C37 1_555 1_555
C39 C38 1_555 1_555
C40 C35 1_555 1_555
H46 C40 1_555 1_555
C41 C38 1_555 1_555
H47 C41 1_555 1_555
H48 C41 1_555 1_555
H49 C41 1_555 1_555
C42 O8 1_555 1_555
H50 C42 1_555 1_555
H51 C42 1_555 1_555
H52 C42 1_555 1_555
C10 C11 1_555 1_555
C14 C15 1_555 1_555
C18 C19 1_555 1_555
C31 C32 1_555 1_555
C35 C36 1_555 1_555
C39 C40 1_555 1_555

#END
