
#######################################################################
#
#                 Cambridge Crystallographic Data Centre
#                                CCDC 
#
#######################################################################
#
# If this CIF has been generated from an entry in the Cambridge 
# Structural Database, then it will include bibliographic, chemical, 
# crystal, experimental, refinement or atomic coordinate data resulting 
# from the CCDC's data processing and validation procedures.
#
#######################################################################

data_LIGXEG
_chemical_formula_moiety         'C21 H27 N4 O3 1+,C6 H2 N3 O7 1-'
_chemical_name_systematic        
'4-((2-(2-(2-(Di-isopropylamino)-2-oxoethoxy)benzylidene)hydrazinyl)carbonyl)pyridinium 2,4,6-trinitrophenolate'
_symmetry_cell_setting           orthorhombic
_symmetry_space_group_name_H-M   'P n a 21'
_symmetry_Int_Tables_number      33
_space_group_name_Hall           'P 2c -2n'
loop_
_symmetry_equiv_pos_site_id
_symmetry_equiv_pos_as_xyz
1 x,y,z
2 -x,-y,1/2+z
3 1/2+x,1/2-y,z
4 1/2-x,1/2+y,1/2+z
_cell_length_a                   23.601(2)
_cell_length_b                   19.5451(19)
_cell_length_c                   6.3628(6)
_cell_angle_alpha                90
_cell_angle_beta                 90
_cell_angle_gamma                90
_cell_volume                     2935.06
_exptl_crystal_colour            yellow
_exptl_crystal_description       block
_cell_formula_units_Z            4
loop_
_atom_site_label
_atom_site_type_symbol
_atom_site_fract_x
_atom_site_fract_y
_atom_site_fract_z
O1 O 0.66175(11) 0.73528(13) 0.6308(4)
N1 N 0.55449(11) 0.83952(13) 0.0710(4)
H1 H 0.5619 0.7992 0.0240
N2 N 0.57693(11) 0.86265(14) 0.2571(4)
C1 C 0.66216(14) 0.80204(18) 0.6911(5)
O2 O 0.58684(10) 0.70280(12) 0.9298(5)
C2 C 0.49691(13) 0.85953(16) -0.2419(5)
N3 N 0.44552(12) 0.82960(17) -0.6115(4)
H2 H 0.4289 0.8201 -0.7281
O3 O 0.50756(13) 0.93845(13) 0.0321(5)
C3 C 0.63586(15) 0.91669(18) 0.6008(6)
H3 H 0.6188 0.9476 0.5092
C4 C 0.61031(13) 0.82303(18) 0.3568(5)
H4 H 0.6181 0.7793 0.3069
C5 C 0.49410(14) 0.79189(18) -0.3096(6)
H5 H 0.5100 0.7568 -0.2302
C6 C 0.46724(15) 0.77824(19) -0.4968(6)
H6 H 0.4641 0.7334 -0.5440
C7 C 0.63612(13) 0.84764(17) 0.5507(5)
N4 N 0.63101(12) 0.60632(14) 1.0274(5)
C8 C 0.52033(15) 0.88284(16) -0.0346(5)
C9 C 0.68646(16) 0.8956(2) 0.9180(6)
H7 H 0.7036 0.9117 1.0399
C10 C 0.66050(16) 0.9408(2) 0.7849(7)
H8 H 0.6594 0.9872 0.8173
C11 C 0.44884(15) 0.8947(2) -0.5514(6)
H9 H 0.4340 0.9291 -0.6358
C12 C 0.62821(15) 0.66467(16) 0.9196(6)
C13 C 0.68756(15) 0.82687(19) 0.8742(6)
H10 H 0.7052 0.7968 0.9665
C14 C 0.47408(15) 0.91028(18) -0.3658(5)
H11 H 0.4760 0.9556 -0.3220
C15 C 0.67746(16) 0.68336(18) 0.7780(6)
H12 H 0.7088 0.6995 0.8631
H13 H 0.6900 0.6430 0.7025
C16 C 0.58104(18) 0.5794(2) 1.1413(8)
H14 H 0.5923 0.5352 1.2005
C17 C 0.68305(19) 0.5634(2) 1.0282(7)
H15 H 0.7134 0.5905 0.9639
C18 C 0.5325(2) 0.5651(3) 0.9897(12)
H16 H 0.5464 0.5396 0.8716
H17 H 0.5167 0.6076 0.9418
H18 H 0.5037 0.5390 1.0603
C19 C 0.7014(2) 0.5463(4) 1.2483(10)
H19 H 0.6754 0.5141 1.3086
H20 H 0.7019 0.5872 1.3317
H21 H 0.7387 0.5267 1.2451
C20 C 0.6752(3) 0.5001(2) 0.8955(11)
H22 H 0.6674 0.5132 0.7531
H23 H 0.6441 0.4737 0.9495
H24 H 0.7092 0.4731 0.8997
C21 C 0.5634(3) 0.6239(3) 1.3249(9)
H25 H 0.5494 0.6669 1.2734
H26 H 0.5954 0.6318 1.4145
H27 H 0.5341 0.6012 1.4032
O4 O 0.89953(14) 0.73575(16) 1.0781(5)
N5 N 0.84550(16) 0.6139(2) 0.9003(7)
C22 C 0.80812(15) 0.7513(2) 0.5346(6)
C23 C 0.86917(15) 0.7378(2) 0.9166(6)
N6 N 0.77650(15) 0.7598(2) 0.3395(6)
C24 C 0.81399(14) 0.6872(2) 0.6200(6)
H28 H 0.7991 0.6489 0.5530
C25 C 0.84314(14) 0.68115(19) 0.8114(6)
C26 C 0.85960(16) 0.8010(2) 0.8138(7)
C27 C 0.83057(16) 0.8075(2) 0.6299(7)
H29 H 0.8261 0.8504 0.5692
O5 O 0.82281(19) 0.56865(19) 0.8084(8)
O6 O 0.76834(16) 0.8177(2) 0.2791(6)
O7 O 0.75972(16) 0.7085(2) 0.2497(5)
O8 O 0.86966(19) 0.60469(18) 1.0660(6)
N7 N 0.8827(2) 0.8643(2) 0.9069(11)
O9 O 0.9051(3) 0.9033(3) 0.7858(13)
O10 O 0.8847(3) 0.8718(3) 1.0844(12)
loop_
_geom_bond_atom_site_label_1
_geom_bond_atom_site_label_2
_geom_bond_site_symmetry_1
_geom_bond_site_symmetry_2
O1 C1 1_555 1_555
N1 H1 1_555 1_555
N2 N1 1_555 1_555
C1 C7 1_555 1_555
O2 C12 1_555 1_555
C2 C5 1_555 1_555
N3 H2 1_555 1_555
O3 C8 1_555 1_555
C3 H3 1_555 1_555
C4 N2 1_555 1_555
H4 C4 1_555 1_555
C5 H5 1_555 1_555
C6 N3 1_555 1_555
H6 C6 1_555 1_555
C7 C3 1_555 1_555
N4 C12 1_555 1_555
C8 N1 1_555 1_555
C9 H7 1_555 1_555
C10 C3 1_555 1_555
H8 C10 1_555 1_555
C11 N3 1_555 1_555
H9 C11 1_555 1_555
C12 C15 1_555 1_555
C13 C1 1_555 1_555
H10 C13 1_555 1_555
C14 C2 1_555 1_555
H11 C14 1_555 1_555
C15 O1 1_555 1_555
H12 C15 1_555 1_555
H13 C15 1_555 1_555
C16 N4 1_555 1_555
H14 C16 1_555 1_555
C17 N4 1_555 1_555
H15 C17 1_555 1_555
C18 C16 1_555 1_555
H16 C18 1_555 1_555
H17 C18 1_555 1_555
H18 C18 1_555 1_555
C19 C17 1_555 1_555
H19 C19 1_555 1_555
H20 C19 1_555 1_555
H21 C19 1_555 1_555
C20 C17 1_555 1_555
H22 C20 1_555 1_555
H23 C20 1_555 1_555
H24 C20 1_555 1_555
C21 C16 1_555 1_555
H25 C21 1_555 1_555
H26 C21 1_555 1_555
H27 C21 1_555 1_555
O4 C23 1_555 1_555
N5 C25 1_555 1_555
C22 N6 1_555 1_555
C23 C25 1_555 1_555
N6 O6 1_555 1_555
C24 C22 1_555 1_555
H28 C24 1_555 1_555
C25 C24 1_555 1_555
C26 C23 1_555 1_555
C27 C22 1_555 1_555
H29 C27 1_555 1_555
O5 N5 1_555 1_555
O7 N6 1_555 1_555
O8 N5 1_555 1_555
N7 C26 1_555 1_555
O9 N7 1_555 1_555
O10 N7 1_555 1_555
C2 C8 1_555 1_555
C4 C7 1_555 1_555
C5 C6 1_555 1_555
C9 C10 1_555 1_555
C9 C13 1_555 1_555
C11 C14 1_555 1_555
C26 C27 1_555 1_555

#END
