
#######################################################################
#
#                 Cambridge Crystallographic Data Centre
#                                CCDC 
#
#######################################################################
#
# If this CIF has been generated from an entry in the Cambridge 
# Structural Database, then it will include bibliographic, chemical, 
# crystal, experimental, refinement or atomic coordinate data resulting 
# from the CCDC's data processing and validation procedures.
#
#######################################################################

data_LIHCAG
_chemical_formula_moiety         'C24 H31 N1 O6 S1'
_chemical_name_systematic        
(2R,3S,5S)-1-t-Butoxycarbonyl-2-hydroxymethyl-3-phenylsulfonyl-5-benzyloxymethylpyrrolidine
_symmetry_cell_setting           monoclinic
_symmetry_space_group_name_H-M   'P 21'
_symmetry_Int_Tables_number      4
_space_group_name_Hall           'P 2yb'
loop_
_symmetry_equiv_pos_site_id
_symmetry_equiv_pos_as_xyz
1 x,y,z
2 -x,1/2+y,-z
_cell_length_a                   12.600(4)
_cell_length_b                   5.781(2)
_cell_length_c                   16.649(8)
_cell_angle_alpha                90
_cell_angle_beta                 96.32(2)
_cell_angle_gamma                90
_cell_volume                     1205.35
_exptl_crystal_colour            colorless
_exptl_crystal_description       prism
_cell_formula_units_Z            2
loop_
_atom_site_label
_atom_site_type_symbol
_atom_site_fract_x
_atom_site_fract_y
_atom_site_fract_z
N1 N 0.4112(3) 0.5701(6) 0.7904(2)
C1 C 0.3760(3) 0.4982(7) 0.8671(2)
H1 H 0.3770(3) 0.6306(7) 0.9040(2)
C2 C 0.2616(3) 0.4191(7) 0.8434(2)
H2 H 0.2477(3) 0.2827(7) 0.8756(2)
C3 C 0.2573(3) 0.3473(8) 0.7549(2)
H3 H 0.2717(3) 0.1832(8) 0.7508(2)
H4 H 0.1873(3) 0.3793(8) 0.7268(2)
C4 C 0.3420(3) 0.4875(7) 0.7188(2)
H5 H 0.3830(3) 0.3861(7) 0.6866(2)
C5 C 0.5052(3) 0.6810(8) 0.7877(2)
O1 O 0.5573(2) 0.7649(6) 0.8468(2)
O2 O 0.5296(2) 0.6911(6) 0.7115(2)
C6 C 0.6197(4) 0.8293(9) 0.6873(3)
C7 C 0.6108(4) 0.7865(13) 0.5977(3)
H6 H 0.5434(4) 0.8438(13) 0.5730(3)
H7 H 0.6155(4) 0.6235(13) 0.5877(3)
H8 H 0.6678(4) 0.8650(13) 0.5751(3)
C8 C 0.7235(4) 0.7425(10) 0.7283(3)
H9 H 0.7269(4) 0.7720(10) 0.7852(3)
H10 H 0.7813(4) 0.8204(10) 0.7066(3)
H11 H 0.7289(4) 0.5791(10) 0.7192(3)
C9 C 0.6026(5) 1.0826(10) 0.7070(4)
H12 H 0.5354(5) 1.1335(10) 0.6800(4)
H13 H 0.6592(5) 1.1736(10) 0.6891(4)
H14 H 0.6023(5) 1.1004(10) 0.7643(4)
C10 C 0.4447(4) 0.3037(9) 0.9061(3)
H15 H 0.4477(4) 0.1791(9) 0.8674(3)
H16 H 0.5169(4) 0.3603(9) 0.9201(3)
O3 O 0.4053(3) 0.2177(7) 0.9756(2)
H17 H 0.4289(39) 0.2953(67) 1.0148(7)
S1 S 0.16381(8) 0.6365(2) 0.85850(6)
O4 O 0.0616(2) 0.5531(7) 0.8238(2)
O5 O 0.2002(3) 0.8582(5) 0.8322(2)
C11 C 0.1627(3) 0.6491(9) 0.9642(2)
C12 C 0.2173(4) 0.8232(9) 1.0070(3)
H18 H 0.2570(4) 0.9299(9) 0.9810(3)
C13 C 0.2121(5) 0.8369(12) 1.0888(3)
H19 H 0.2474(5) 0.9560(12) 1.1183(3)
C14 C 0.1560(5) 0.6789(13) 1.1273(3)
H20 H 0.1539(5) 0.6898(13) 1.1828(3)
C15 C 0.1028(4) 0.5041(13) 1.0849(3)
H21 H 0.0646(4) 0.3965(13) 1.1118(3)
C16 C 0.1055(4) 0.4859(10) 1.0020(3)
H22 H 0.0697(4) 0.3670(10) 0.9728(3)
C17 C 0.2967(3) 0.6889(7) 0.6670(2)
H23 H 0.2473(3) 0.7775(7) 0.6955(2)
H24 H 0.3538(3) 0.7905(7) 0.6542(2)
O6 O 0.2430(3) 0.5933(6) 0.5949(2)
C18 C 0.2219(4) 0.7607(9) 0.5346(3)
H25 H 0.2885(4) 0.8093(9) 0.5157(3)
H26 H 0.1897(4) 0.8949(9) 0.5571(3)
C19 C 0.1486(3) 0.6710(8) 0.4646(2)
C20 C 0.1271(4) 0.8145(9) 0.3986(3)
H27 H 0.1599(4) 0.9586(9) 0.3984(3)
C21 C 0.0581(4) 0.7479(12) 0.3333(3)
H28 H 0.0446(4) 0.8469(12) 0.2893(3)
C22 C 0.0090(4) 0.5370(11) 0.3324(3)
H29 H -0.0371(4) 0.4913(11) 0.2877(3)
C23 C 0.0285(4) 0.3923(10) 0.3983(3)
H30 H -0.0054(4) 0.2494(10) 0.3985(3)
C24 C 0.0983(4) 0.4596(8) 0.4643(3)
H31 H 0.1112(4) 0.3616(8) 0.5086(3)
loop_
_geom_bond_atom_site_label_1
_geom_bond_atom_site_label_2
_geom_bond_site_symmetry_1
_geom_bond_site_symmetry_2
N1 C1 1_555 1_555
C1 H1 1_555 1_555
C2 C1 1_555 1_555
H2 C2 1_555 1_555
C3 C2 1_555 1_555
H3 C3 1_555 1_555
H4 C3 1_555 1_555
C4 N1 1_555 1_555
H5 C4 1_555 1_555
C5 N1 1_555 1_555
O1 C5 1_555 1_555
O2 C5 1_555 1_555
C6 O2 1_555 1_555
C7 C6 1_555 1_555
H6 C7 1_555 1_555
H7 C7 1_555 1_555
H8 C7 1_555 1_555
C8 C6 1_555 1_555
H9 C8 1_555 1_555
H10 C8 1_555 1_555
H11 C8 1_555 1_555
C9 C6 1_555 1_555
H12 C9 1_555 1_555
H13 C9 1_555 1_555
H14 C9 1_555 1_555
C10 C1 1_555 1_555
H15 C10 1_555 1_555
H16 C10 1_555 1_555
O3 C10 1_555 1_555
H17 O3 1_555 1_555
S1 C2 1_555 1_555
O4 S1 1_555 1_555
O5 S1 1_555 1_555
C11 S1 1_555 1_555
C12 C11 1_555 1_555
H18 C12 1_555 1_555
C13 C12 1_555 1_555
H19 C13 1_555 1_555
C14 C13 1_555 1_555
H20 C14 1_555 1_555
C15 C14 1_555 1_555
H21 C15 1_555 1_555
C16 C11 1_555 1_555
H22 C16 1_555 1_555
C17 C4 1_555 1_555
H23 C17 1_555 1_555
H24 C17 1_555 1_555
O6 C17 1_555 1_555
C18 O6 1_555 1_555
H25 C18 1_555 1_555
H26 C18 1_555 1_555
C19 C18 1_555 1_555
C20 C19 1_555 1_555
H27 C20 1_555 1_555
C21 C20 1_555 1_555
H28 C21 1_555 1_555
C22 C21 1_555 1_555
H29 C22 1_555 1_555
C23 C22 1_555 1_555
H30 C23 1_555 1_555
C24 C19 1_555 1_555
H31 C24 1_555 1_555
C3 C4 1_555 1_555
C15 C16 1_555 1_555
C23 C24 1_555 1_555

#END
