
#######################################################################
#
#                 Cambridge Crystallographic Data Centre
#                                CCDC 
#
#######################################################################
#
# If this CIF has been generated from an entry in the Cambridge 
# Structural Database, then it will include bibliographic, chemical, 
# crystal, experimental, refinement or atomic coordinate data resulting 
# from the CCDC's data processing and validation procedures.
#
#######################################################################

data_LIHCUD
_chemical_formula_moiety         'C56 H46 N2 O6 S2,2(C1 H2 Cl2)'
_chemical_name_systematic        
"N,N'-[(8,9-dimethoxynaphtho[1,2-b:4,3-b']bisthiene-2,5-diyl)bis(4,1-phenylene)]bis[4-methoxy-N-(4-methoxyphenyl)aniline] dichloromethane solvate"
_symmetry_cell_setting           triclinic
_symmetry_space_group_name_H-M   'P -1'
_symmetry_Int_Tables_number      2
_space_group_name_Hall           '-P 1'
loop_
_symmetry_equiv_pos_site_id
_symmetry_equiv_pos_as_xyz
1 x,y,z
2 -x,-y,-z
_cell_length_a                   11.237(2)
_cell_length_b                   12.606(3)
_cell_length_c                   19.298(4)
_cell_angle_alpha                90.32(3)
_cell_angle_beta                 95.79(3)
_cell_angle_gamma                109.07(3)
_cell_volume                     2568.27
_exptl_crystal_colour            yellow
_exptl_crystal_description       block
_cell_formula_units_Z            2
loop_
_atom_site_label
_atom_site_type_symbol
_atom_site_fract_x
_atom_site_fract_y
_atom_site_fract_z
S1 S 0.35747(6) 0.82082(5) 0.37939(3)
S2 S 0.63394(6) 0.64843(6) 0.62525(3)
O1 O -0.3146(2) 0.8055(2) -0.02475(12)
O2 O -0.5548(2) 0.11882(17) 0.20995(12)
O3 O 0.8049(2) 1.14578(17) 0.46463(11)
O4 O 0.9266(2) 1.07242(18) 0.56248(12)
O5 O 0.8427(2) 0.1398(2) 0.97649(11)
O6 O -0.0598(2) -0.13727(19) 0.78276(13)
N1 N -0.1900(2) 0.5341(2) 0.17895(12)
N2 N 0.4333(2) 0.1623(2) 0.79477(13)
C1 C -0.2260(4) 0.8602(4) -0.07162(19)
C2 C -0.2777(3) 0.7401(3) 0.02390(15)
C3 C -0.1535(3) 0.7436(2) 0.04091(14)
C4 C -0.1251(3) 0.6754(2) 0.09118(14)
C5 C -0.2195(3) 0.6031(2) 0.12654(14)
C6 C -0.3449(3) 0.5990(2) 0.10854(15)
C7 C -0.3738(3) 0.6661(2) 0.05693(15)
C8 C -0.2804(2) 0.4272(2) 0.18821(15)
C9 C -0.3209(3) 0.3988(2) 0.25368(15)
C10 C -0.4115(3) 0.2961(2) 0.26305(16)
C11 C -0.4644(3) 0.2217(2) 0.20683(15)
C12 C -0.4249(3) 0.2490(2) 0.14145(16)
C13 C -0.3327(3) 0.3509(3) 0.13224(15)
C14 C -0.6102(4) 0.0911(3) 0.27339(19)
C15 C -0.0792(3) 0.5741(2) 0.22567(14)
C16 C -0.0283(3) 0.6865(2) 0.24832(15)
C17 C 0.0798(3) 0.7233(2) 0.29556(14)
C18 C 0.1409(2) 0.6497(2) 0.32192(13)
C19 C 0.0901(3) 0.5368(2) 0.29854(14)
C20 C -0.0171(3) 0.4998(2) 0.25150(15)
C21 C 0.2499(3) 0.6853(2) 0.37577(14)
C22 C 0.2817(2) 0.6223(2) 0.42691(13)
C23 C 0.3954(2) 0.6817(2) 0.46964(13)
C24 C 0.4493(2) 0.7915(2) 0.44933(13)
C25 C 0.5684(2) 0.8650(2) 0.48015(13)
C26 C 0.6251(3) 0.9744(2) 0.45637(14)
C27 C 0.7416(3) 1.0401(2) 0.48472(15)
C28 C 0.8090(3) 0.9995(2) 0.53928(15)
C29 C 0.7559(3) 0.8952(2) 0.56381(14)
C30 C 0.6343(2) 0.8249(2) 0.53509(14)
C31 C 0.5754(2) 0.7141(2) 0.55745(13)
C32 C 0.4591(2) 0.6429(2) 0.52679(13)
C33 C 0.4186(3) 0.5378(2) 0.55884(14)
C34 C 0.5003(2) 0.5285(2) 0.61379(14)
C35 C 1.0044(3) 1.0306(3) 0.6095(2)
C36 C 0.7445(3) 1.1877(3) 0.40779(17)
C37 C 0.4843(2) 0.4344(2) 0.66089(14)
C38 C 0.5594(3) 0.4458(2) 0.72469(14)
C39 C 0.5430(3) 0.3574(2) 0.76874(14)
C40 C 0.4504(2) 0.2535(2) 0.75099(14)
C41 C 0.3738(3) 0.2421(2) 0.68734(15)
C42 C 0.3913(3) 0.3305(2) 0.64375(14)
C43 C 0.5345(2) 0.1531(2) 0.84202(14)
C44 C 0.6547(2) 0.1749(2) 0.82038(14)
C45 C 0.7549(3) 0.1688(2) 0.86660(14)
C46 C 0.7366(3) 0.1403(2) 0.93473(15)
C47 C 0.6171(3) 0.1163(2) 0.95681(15)
C48 C 0.5172(3) 0.1235(2) 0.91025(15)
C49 C 0.8294(3) 0.1140(4) 1.04738(18)
C50 C 0.3100(3) 0.0818(2) 0.79431(14)
C51 C 0.2869(3) -0.0305(2) 0.77812(15)
C52 C 0.1649(3) -0.1076(2) 0.77444(16)
C53 C 0.0643(3) -0.0709(2) 0.78653(15)
C54 C 0.0877(3) 0.0415(2) 0.80446(16)
C55 C 0.2092(3) 0.1170(2) 0.80868(15)
C56 C -0.0903(4) -0.2525(3) 0.7637(2)
loop_
_geom_bond_atom_site_label_1
_geom_bond_atom_site_label_2
_geom_bond_site_symmetry_1
_geom_bond_site_symmetry_2
S1 C21 1_555 1_555
S2 C31 1_555 1_555
O1 C1 1_555 1_555
O2 C11 1_555 1_555
O3 C27 1_555 1_555
O4 C28 1_555 1_555
O5 C46 1_555 1_555
O6 C53 1_555 1_555
N1 C5 1_555 1_555
N2 C40 1_555 1_555
C2 O1 1_555 1_555
C3 C2 1_555 1_555
C4 C3 1_555 1_555
C5 C4 1_555 1_555
C6 C5 1_555 1_555
C7 C2 1_555 1_555
C8 N1 1_555 1_555
C9 C8 1_555 1_555
C10 C9 1_555 1_555
C11 C10 1_555 1_555
C12 C11 1_555 1_555
C13 C8 1_555 1_555
C14 O2 1_555 1_555
C15 N1 1_555 1_555
C16 C15 1_555 1_555
C17 C16 1_555 1_555
C18 C17 1_555 1_555
C19 C18 1_555 1_555
C20 C15 1_555 1_555
C21 C18 1_555 1_555
C22 C21 1_555 1_555
C23 C22 1_555 1_555
C24 S1 1_555 1_555
C25 C24 1_555 1_555
C26 C25 1_555 1_555
C27 C26 1_555 1_555
C28 C27 1_555 1_555
C29 C28 1_555 1_555
C30 C25 1_555 1_555
C31 C30 1_555 1_555
C32 C23 1_555 1_555
C33 C32 1_555 1_555
C34 S2 1_555 1_555
C35 O4 1_555 1_555
C36 O3 1_555 1_555
C37 C34 1_555 1_555
C38 C37 1_555 1_555
C39 C38 1_555 1_555
C40 C39 1_555 1_555
C41 C40 1_555 1_555
C42 C37 1_555 1_555
C43 N2 1_555 1_555
C44 C43 1_555 1_555
C45 C44 1_555 1_555
C46 C45 1_555 1_555
C47 C46 1_555 1_555
C48 C43 1_555 1_555
C49 O5 1_555 1_555
C50 N2 1_555 1_555
C51 C50 1_555 1_555
C52 C51 1_555 1_555
C53 C52 1_555 1_555
C54 C53 1_555 1_555
C55 C50 1_555 1_555
C56 O6 1_555 1_555
C6 C7 1_555 1_555
C12 C13 1_555 1_555
C19 C20 1_555 1_555
C23 C24 1_555 1_555
C29 C30 1_555 1_555
C31 C32 1_555 1_555
C33 C34 1_555 1_555
C41 C42 1_555 1_555
C47 C48 1_555 1_555
C54 C55 1_555 1_555

#END
