
#######################################################################
#
#                 Cambridge Crystallographic Data Centre
#                                CCDC 
#
#######################################################################
#
# If this CIF has been generated from an entry in the Cambridge 
# Structural Database, then it will include bibliographic, chemical, 
# crystal, experimental, refinement or atomic coordinate data resulting 
# from the CCDC's data processing and validation procedures.
#
#######################################################################

data_LIHKIZ
_chemical_name_common            ethylbutylamine
_chemical_formula_moiety         'C6 H15 N1'
_chemical_name_systematic        N-ethylbutan-1-amine
_symmetry_cell_setting           monoclinic
_symmetry_space_group_name_H-M   'C c'
_symmetry_Int_Tables_number      9
_space_group_name_Hall           'C -2yc'
loop_
_symmetry_equiv_pos_site_id
_symmetry_equiv_pos_as_xyz
1 x,y,z
2 x,-y,1/2+z
3 1/2+x,1/2+y,z
4 1/2+x,1/2-y,1/2+z
_cell_length_a                   14.348(4)
_cell_length_b                   8.940(3)
_cell_length_c                   17.768(6)
_cell_angle_alpha                90
_cell_angle_beta                 105.637(4)
_cell_angle_gamma                90
_cell_volume                     2194.77
_exptl_crystal_colour            colorless
_exptl_crystal_description       cylinder
_chemical_melting_point          '195 K'
_cell_formula_units_Z            12
_exptl_crystal_recrystallization_method 'From the Melt'
loop_
_atom_site_label
_atom_site_type_symbol
_atom_site_fract_x
_atom_site_fract_y
_atom_site_fract_z
N1 N 0.92863(17) 0.4298(2) 0.07831(12)
H1 H 0.897(2) 0.355(3) 0.0684(17)
C1 C 0.8602(2) 0.5506(3) 0.07892(17)
H2 H 0.8960 0.6461 0.0912
H3 H 0.8276 0.5312 0.1205
C2 C 0.7848(2) 0.5649(3) 0.00155(18)
H4 H 0.7399 0.6457 0.0046
H5 H 0.7491 0.4707 -0.0107
H6 H 0.8166 0.5877 -0.0395
C3 C 0.99955(19) 0.4129(2) 0.15345(14)
H7 H 0.9656 0.4013 0.1948
H8 H 1.0398 0.5044 0.1650
C4 C 1.06469(19) 0.2780(2) 0.15461(14)
H9 H 1.0241 0.1895 0.1347
H10 H 1.1062 0.2970 0.1192
C5 C 1.12849(19) 0.2445(2) 0.23614(14)
H11 H 1.0870 0.2123 0.2696
H12 H 1.1621 0.3374 0.2588
C6 C 1.2038(2) 0.1235(3) 0.23728(16)
H13 H 1.2395 0.1020 0.2915
H14 H 1.2489 0.1584 0.2083
H15 H 1.1713 0.0324 0.2128
N2 N 0.80797(19) 0.0996(2) 0.05062(11)
H16 H 0.744(3) 0.096(3) 0.0324(18)
C7 C 0.8458(2) 0.0555(3) -0.01458(14)
H17 H 0.8249 -0.0479 -0.0308
H18 H 0.9174 0.0570 0.0023
C8 C 0.8102(2) 0.1604(3) -0.08332(14)
H19 H 0.8330 0.1251 -0.1275
H20 H 0.8352 0.2612 -0.0685
H21 H 0.7393 0.1626 -0.0984
C9 C 0.8340(2) -0.0085(2) 0.11495(15)
H22 H 0.9053 -0.0119 0.1356
H23 H 0.8117 -0.1094 0.0949
C10 C 0.7895(2) 0.0317(2) 0.18045(15)
H24 H 0.8029 -0.0502 0.2194
H25 H 0.7184 0.0381 0.1587
C11 C 0.8255(2) 0.1780(2) 0.22218(14)
H26 H 0.8960 0.1703 0.2467
H27 H 0.8148 0.2599 0.1833
C12 C 0.7752(2) 0.2168(3) 0.28450(16)
H28 H 0.8022 0.3099 0.3105
H29 H 0.7851 0.1358 0.3230
H30 H 0.7057 0.2297 0.2602
N3 N 0.56985(17) 0.0929(2) -0.01696(13)
H31 H 0.540(2) 0.049(3) 0.0141(18)
C13 C 0.5504(2) 0.2543(3) -0.01901(17)
H32 H 0.4798 0.2715 -0.0382
H33 H 0.5817 0.3029 -0.0559
C14 C 0.5881(2) 0.3247(3) 0.06138(17)
H34 H 0.5759 0.4327 0.0577
H35 H 0.6578 0.3066 0.0808
H36 H 0.5548 0.2803 0.0974
C15 C 0.5321(2) 0.0235(2) -0.09361(14)
H37 H 0.5603 0.0739 -0.1320
H38 H 0.4610 0.0370 -0.1109
C16 C 0.5557(2) -0.1427(2) -0.09158(15)
H39 H 0.6269 -0.1556 -0.0747
H40 H 0.5284 -0.1923 -0.0524
C17 C 0.5160(2) -0.2184(3) -0.17045(15)
H41 H 0.5438 -0.1694 -0.2094
H42 H 0.4449 -0.2045 -0.1875
C18 C 0.5387(2) -0.3854(3) -0.16839(17)
H43 H 0.5111 -0.4286 -0.2203
H44 H 0.5105 -0.4349 -0.1304
H45 H 0.6090 -0.3999 -0.1531
loop_
_geom_bond_atom_site_label_1
_geom_bond_atom_site_label_2
_geom_bond_site_symmetry_1
_geom_bond_site_symmetry_2
N1 H1 1_555 1_555
C1 N1 1_555 1_555
H2 C1 1_555 1_555
H3 C1 1_555 1_555
C2 C1 1_555 1_555
H4 C2 1_555 1_555
H5 C2 1_555 1_555
H6 C2 1_555 1_555
C3 N1 1_555 1_555
H7 C3 1_555 1_555
H8 C3 1_555 1_555
C4 C3 1_555 1_555
H9 C4 1_555 1_555
H10 C4 1_555 1_555
C5 C4 1_555 1_555
H11 C5 1_555 1_555
H12 C5 1_555 1_555
C6 C5 1_555 1_555
H13 C6 1_555 1_555
H14 C6 1_555 1_555
H15 C6 1_555 1_555
N2 H16 1_555 1_555
C7 N2 1_555 1_555
H17 C7 1_555 1_555
H18 C7 1_555 1_555
C8 C7 1_555 1_555
H19 C8 1_555 1_555
H20 C8 1_555 1_555
H21 C8 1_555 1_555
C9 N2 1_555 1_555
H22 C9 1_555 1_555
H23 C9 1_555 1_555
C10 C9 1_555 1_555
H24 C10 1_555 1_555
H25 C10 1_555 1_555
C11 C10 1_555 1_555
H26 C11 1_555 1_555
H27 C11 1_555 1_555
C12 C11 1_555 1_555
H28 C12 1_555 1_555
H29 C12 1_555 1_555
H30 C12 1_555 1_555
N3 H31 1_555 1_555
C13 N3 1_555 1_555
H32 C13 1_555 1_555
H33 C13 1_555 1_555
C14 C13 1_555 1_555
H34 C14 1_555 1_555
H35 C14 1_555 1_555
H36 C14 1_555 1_555
C15 N3 1_555 1_555
H37 C15 1_555 1_555
H38 C15 1_555 1_555
C16 C15 1_555 1_555
H39 C16 1_555 1_555
H40 C16 1_555 1_555
C17 C16 1_555 1_555
H41 C17 1_555 1_555
H42 C17 1_555 1_555
C18 C17 1_555 1_555
H43 C18 1_555 1_555
H44 C18 1_555 1_555
H45 C18 1_555 1_555

#END
