
#######################################################################
#
#                 Cambridge Crystallographic Data Centre
#                                CCDC 
#
#######################################################################
#
# If this CIF has been generated from an entry in the Cambridge 
# Structural Database, then it will include bibliographic, chemical, 
# crystal, experimental, refinement or atomic coordinate data resulting 
# from the CCDC's data processing and validation procedures.
#
#######################################################################

data_LIHLAS
_chemical_formula_moiety         'C18 H16 O3'
_chemical_name_systematic        
7-ethoxy-8-methyl-3-phenyl-4H-1-benzopyran-4-one
_symmetry_cell_setting           monoclinic
_symmetry_space_group_name_H-M   'P 21/n'
_symmetry_Int_Tables_number      14
_space_group_name_Hall           '-P 2yn'
loop_
_symmetry_equiv_pos_site_id
_symmetry_equiv_pos_as_xyz
1 x,y,z
2 1/2-x,1/2+y,1/2-z
3 -x,-y,-z
4 1/2+x,1/2-y,1/2+z
_cell_length_a                   15.8674(11)
_cell_length_b                   6.1063(4)
_cell_length_c                   15.9922(11)
_cell_angle_alpha                90
_cell_angle_beta                 115.3570(10)
_cell_angle_gamma                90
_cell_volume                     1400.22
_cell_formula_units_Z            4
loop_
_atom_site_label
_atom_site_type_symbol
_atom_site_fract_x
_atom_site_fract_y
_atom_site_fract_z
C1 C 0.37698(8) 0.60119(19) 0.33204(8)
C2 C 0.32721(8) 0.4289(2) 0.27381(9)
C3 C 0.31633(9) 0.4235(2) 0.18375(9)
C4 C 0.35285(8) 0.58858(19) 0.14820(8)
C5 C 0.40006(8) 0.76040(18) 0.20783(8)
C6 C 0.41462(7) 0.77110(19) 0.30001(8)
C7 C 0.46873(9) 0.9548(2) 0.36260(9)
C8 C 0.34218(8) 0.58356(19) 0.05231(9)
C9 C 0.38162(8) 0.77334(19) 0.02552(8)
C10 C 0.42384(8) 0.93152(19) 0.08840(8)
C11 C 0.37465(8) 0.79602(19) -0.06974(8)
C12 C 0.40153(8) 0.6251(2) -0.11136(9)
C13 C 0.39735(9) 0.6507(2) -0.19919(9)
C14 C 0.33810(8) 1.0152(2) -0.20698(9)
C15 C 0.34288(8) 0.9919(2) -0.11879(9)
C16 C 0.36526(8) 0.8448(2) -0.24741(9)
C17 C 0.35121(9) 0.4550(2) 0.45866(9)
C18 C 0.36697(9) 0.5270(2) 0.55437(9)
O1 O 0.43465(6) 0.93310(13) 0.17713(6)
O2 O 0.39182(6) 0.61803(14) 0.42234(6)
O3 O 0.30201(7) 0.43258(15) -0.00078(7)
H1 H 0.3017 0.3188 0.2960
H2 H 0.2840 0.3077 0.1457
H3 H 0.4438 0.9851 0.4065
H4 H 0.4639 1.0834 0.3263
H5 H 0.5330 0.9131 0.3950
H6 H 0.4477 1.0503 0.0691
H7 H 0.4223 0.4935 -0.0799
H8 H 0.4162 0.5369 -0.2260
H9 H 0.3166 1.1455 -0.2392
H10 H 0.3249 1.1072 -0.0920
H11 H 0.3620 0.8608 -0.3066
H12 H 0.3803 0.3139 0.4613
H13 H 0.2850 0.4416 0.4193
H14 H 0.4326 0.5442 0.5921
H15 H 0.3424 0.4185 0.5814
H16 H 0.3359 0.6641 0.5506
loop_
_geom_bond_atom_site_label_1
_geom_bond_atom_site_label_2
_geom_bond_site_symmetry_1
_geom_bond_site_symmetry_2
C1 C2 1_555 1_555
C2 C3 1_555 1_555
C3 C4 1_555 1_555
C4 C5 1_555 1_555
C5 C6 1_555 1_555
C6 C1 1_555 1_555
C7 C6 1_555 1_555
C8 C4 1_555 1_555
C9 C8 1_555 1_555
C10 C9 1_555 1_555
C11 C9 1_555 1_555
C12 C11 1_555 1_555
C13 C12 1_555 1_555
C14 C15 1_555 1_555
C15 C11 1_555 1_555
C16 C13 1_555 1_555
C17 C18 1_555 1_555
C18 H14 1_555 1_555
O1 C5 1_555 1_555
O2 C1 1_555 1_555
O3 C8 1_555 1_555
H1 C2 1_555 1_555
H2 C3 1_555 1_555
H3 C7 1_555 1_555
H4 C7 1_555 1_555
H5 C7 1_555 1_555
H6 C10 1_555 1_555
H7 C12 1_555 1_555
H8 C13 1_555 1_555
H9 C14 1_555 1_555
H10 C15 1_555 1_555
H11 C16 1_555 1_555
H12 C17 1_555 1_555
H13 C17 1_555 1_555
H15 C18 1_555 1_555
H16 C18 1_555 1_555
C10 O1 1_555 1_555
C14 C16 1_555 1_555
C17 O2 1_555 1_555

#END
