
#######################################################################
#
#                 Cambridge Crystallographic Data Centre
#                                CCDC 
#
#######################################################################
#
# If this CIF has been generated from an entry in the Cambridge 
# Structural Database, then it will include bibliographic, chemical, 
# crystal, experimental, refinement or atomic coordinate data resulting 
# from the CCDC's data processing and validation procedures.
#
#######################################################################

data_LIHZOS
_chemical_formula_moiety         'C32 H32 O3'
_chemical_name_systematic        
'2-Methyl-1,3-diphenylpent-4-en-1-yl 2-(6-methoxynaphthalen-2-yl)propanoate'
_symmetry_cell_setting           monoclinic
_symmetry_space_group_name_H-M   'P 21'
_symmetry_Int_Tables_number      4
_space_group_name_Hall           'P 2yb'
loop_
_symmetry_equiv_pos_site_id
_symmetry_equiv_pos_as_xyz
1 x,y,z
2 -x,1/2+y,-z
_cell_length_a                   9.675(2)
_cell_length_b                   6.0983(13)
_cell_length_c                   22.524(5)
_cell_angle_alpha                90
_cell_angle_beta                 102.402(3)
_cell_angle_gamma                90
_cell_volume                     1297.93
_exptl_crystal_colour            colorless
_exptl_crystal_description       prismatic
_cell_formula_units_Z            2
loop_
_atom_site_label
_atom_site_type_symbol
_atom_site_fract_x
_atom_site_fract_y
_atom_site_fract_z
O1 O 0.5758(3) 0.3684(4) 0.29144(10)
O2 O 0.4922(2) 0.6454(4) 0.22935(8)
O3 O 1.0087(3) 0.8092(5) 0.62787(11)
C1 C 0.4290(4) 0.6390(7) 0.32545(16)
C2 C 0.5069(3) 0.5331(6) 0.28109(15)
C3 C 0.3161(4) 0.4837(10) 0.33831(17)
H1 H 0.2420 0.4698 0.3026
H2 H 0.2777 0.5408 0.3711
H3 H 0.3574 0.3424 0.3494
C4 C 0.5382(3) 0.7097(7) 0.38148(14)
C5 C 0.5737(4) 0.5794(6) 0.43216(14)
H4 H 0.5256 0.4483 0.4337
C6 C 0.6821(4) 0.6412(6) 0.48193(14)
C7 C 0.7232(4) 0.5103(7) 0.53393(16)
H5 H 0.6755 0.3797 0.5369
C8 C 0.8315(4) 0.5712(7) 0.58013(16)
H6 H 0.8565 0.4811 0.6140
C9 C 0.9065(4) 0.7671(7) 0.57776(16)
C10 C 0.8693(4) 0.9001(7) 0.52840(16)
H7 H 0.9176 1.0309 0.5266
C11 C 0.7554(4) 0.8389(6) 0.47914(15)
C12 C 0.7164(4) 0.9721(7) 0.42726(16)
H8 H 0.7628 1.1045 0.4251
C13 C 0.6105(4) 0.9077(7) 0.38003(17)
H9 H 0.5859 0.9977 0.3461
C14 C 0.5761(4) 0.5713(7) 0.18630(14)
C15 C 0.4909(3) 0.6198(7) 0.12260(14)
C16 C 0.3392(3) 0.5189(6) 0.11288(16)
C17 C 0.3426(4) 0.2824(7) 0.12772(17)
H10 H 0.3824 0.1894 0.1032
C18 C 0.2947(4) 0.1911(7) 0.17217(17)
H11 H 0.2539 0.2774 0.1979
H12 H 0.3015 0.0402 0.1780
C19 C 0.7177(3) 0.6864(6) 0.20229(13)
C20 C 0.7327(4) 0.8930(7) 0.22635(15)
H13 H 0.6531 0.9703 0.2313
C21 C 0.8650(5) 0.9886(9) 0.24336(18)
H14 H 0.8737 1.1265 0.2614
C22 C 0.9834(5) 0.8827(13) 0.2340(2)
H15 H 1.0718 0.9492 0.2448
C23 C 0.9703(4) 0.6820(12) 0.2091(2)
H16 H 1.0503 0.6112 0.2019
C24 C 0.8384(4) 0.5763(8) 0.19347(15)
H17 H 0.8316 0.4352 0.1775
C25 C 0.5706(4) 0.5337(8) 0.07516(14)
H18 H 0.6605 0.6061 0.0804
H19 H 0.5159 0.5626 0.0351
H20 H 0.5851 0.3785 0.0804
C26 C 0.2532(3) 0.5751(6) 0.04941(14)
C27 C 0.2404(4) 0.4320(7) 0.00088(15)
H21 H 0.2829 0.2946 0.0067
C28 C 0.1647(4) 0.4919(8) -0.05640(18)
H22 H 0.1598 0.3955 -0.0888
C29 C 0.0982(4) 0.6871(9) -0.06605(18)
H23 H 0.0456 0.7239 -0.1044
C30 C 0.1095(4) 0.8311(7) -0.01797(18)
H24 H 0.0656 0.9674 -0.0240
C31 C 0.1854(3) 0.7739(6) 0.03896(16)
H25 H 0.1909 0.8720 0.0710
C32 C 1.0840(4) 1.0098(9) 0.62898(19)
H26 H 1.1393 1.0067 0.5983
H27 H 1.1454 1.0287 0.6682
H28 H 1.0181 1.1294 0.6211
H29 H 0.587(3) 0.412(6) 0.1906(12)
H30 H 0.484(2) 0.789(5) 0.1146(10)
H31 H 0.294(3) 0.586(5) 0.1400(12)
H32 H 0.386(3) 0.772(6) 0.3097(13)
loop_
_geom_bond_atom_site_label_1
_geom_bond_atom_site_label_2
_geom_bond_site_symmetry_1
_geom_bond_site_symmetry_2
O1 C2 1_555 1_555
O2 C2 1_555 1_555
O3 C9 1_555 1_555
C1 C2 1_555 1_555
C3 C1 1_555 1_555
H1 C3 1_555 1_555
H2 C3 1_555 1_555
H3 C3 1_555 1_555
C4 C1 1_555 1_555
C5 C4 1_555 1_555
H4 C5 1_555 1_555
C6 C5 1_555 1_555
C7 C6 1_555 1_555
H5 C7 1_555 1_555
C8 C7 1_555 1_555
H6 C8 1_555 1_555
C9 C8 1_555 1_555
C10 C9 1_555 1_555
H7 C10 1_555 1_555
C11 C6 1_555 1_555
C12 C11 1_555 1_555
H8 C12 1_555 1_555
C13 C4 1_555 1_555
H9 C13 1_555 1_555
C14 O2 1_555 1_555
C15 C14 1_555 1_555
C16 C15 1_555 1_555
C17 C16 1_555 1_555
H10 C17 1_555 1_555
C18 C17 1_555 1_555
H11 C18 1_555 1_555
H12 C18 1_555 1_555
C19 C14 1_555 1_555
C20 C19 1_555 1_555
H13 C20 1_555 1_555
C21 C20 1_555 1_555
H14 C21 1_555 1_555
C22 C21 1_555 1_555
H15 C22 1_555 1_555
C23 C22 1_555 1_555
H16 C23 1_555 1_555
C24 C19 1_555 1_555
H17 C24 1_555 1_555
C25 C15 1_555 1_555
H18 C25 1_555 1_555
H19 C25 1_555 1_555
H20 C25 1_555 1_555
C26 C16 1_555 1_555
C27 C26 1_555 1_555
H21 C27 1_555 1_555
C28 C27 1_555 1_555
H22 C28 1_555 1_555
C29 C28 1_555 1_555
H23 C29 1_555 1_555
C30 C29 1_555 1_555
H24 C30 1_555 1_555
C31 C26 1_555 1_555
H25 C31 1_555 1_555
C32 O3 1_555 1_555
H26 C32 1_555 1_555
H27 C32 1_555 1_555
H28 C32 1_555 1_555
H29 C14 1_555 1_555
H30 C15 1_555 1_555
H31 C16 1_555 1_555
H32 C1 1_555 1_555
C10 C11 1_555 1_555
C12 C13 1_555 1_555
C23 C24 1_555 1_555
C30 C31 1_555 1_555

#END
