
#######################################################################
#
#                 Cambridge Crystallographic Data Centre
#                                CCDC 
#
#######################################################################
#
# If this CIF has been generated from an entry in the Cambridge 
# Structural Database, then it will include bibliographic, chemical, 
# crystal, experimental, refinement or atomic coordinate data resulting 
# from the CCDC's data processing and validation procedures.
#
#######################################################################

data_LIJDEO
_chemical_formula_moiety         'C19 H25 Cl1 N2 O1 S1'
_chemical_name_systematic        
2-t-Butyl-5-(4-t-butylbenzylthio)-4-chloropyridazin-3(2H)-one
_symmetry_cell_setting           orthorhombic
_symmetry_space_group_name_H-M   'P n m a'
_symmetry_Int_Tables_number      62
_space_group_name_Hall           '-P 2ac 2n'
loop_
_symmetry_equiv_pos_site_id
_symmetry_equiv_pos_as_xyz
1 x,y,z
2 1/2-x,-y,1/2+z
3 -x,1/2+y,-z
4 1/2+x,1/2-y,1/2-z
5 -x,-y,-z
6 1/2+x,y,1/2-z
7 x,1/2-y,z
8 1/2-x,1/2+y,1/2+z
_cell_length_a                   10.0905(17)
_cell_length_b                   7.0762(12)
_cell_length_c                   28.103(5)
_cell_angle_alpha                90
_cell_angle_beta                 90
_cell_angle_gamma                90
_cell_volume                     2006.62
_exptl_crystal_colour            yellow
_chemical_melting_point          111-112deg.C
_cell_formula_units_Z            4
_exptl_crystal_recrystallization_method ethanol
loop_
_atom_site_label
_atom_site_type_symbol
_atom_site_fract_x
_atom_site_fract_y
_atom_site_fract_z
S1 S 0.33177(16) 0.2500 0.53049(5)
Cl1 Cl 0.64353(16) 0.2500 0.53144(5)
N1 N 0.5654(6) 0.2500 0.39441(16)
N2 N 0.4329(6) 0.2500 0.39246(17)
O1 O 0.7590(5) 0.2500 0.43639(14)
C1 C 0.6392(7) 0.2500 0.43604(19)
C2 C 0.5578(6) 0.2500 0.47878(18)
C3 C 0.4246(7) 0.2500 0.47826(18)
C4 C 0.3665(7) 0.2500 0.4315(2)
H1 H 0.2745 0.2500 0.4294
C5 C 0.1625(6) 0.2500 0.5086(2)
H2 H 0.1471 0.3611 0.4891
H3 H 0.1471 0.1389 0.4891
C6 C 0.0699(7) 0.2500 0.5505(2)
C7 C 0.0273(5) 0.0859(7) 0.57040(18)
H4 H 0.0539 -0.0288 0.5574
C8 C -0.0545(5) 0.0868(7) 0.60950(17)
H5 H -0.0830 -0.0280 0.6219
C9 C -0.0954(7) 0.2500 0.6308(2)
C10 C 0.6336(7) 0.2500 0.3462(2)
C11 C 0.5324(8) 0.2500 0.3070(2)
C12 C 0.7140(7) 0.0702(11) 0.34257(18)
H9 H 0.7915 0.0805 0.3622
H10 H 0.7401 0.0506 0.3101
H11 H 0.6613 -0.0348 0.3531
C13 C -0.1827(9) 0.2500 0.6756(2)
C14 C -0.3294(9) 0.2500 0.6610(4)
H13 H -0.3428 0.3396 0.6358
C15 C -0.1693(11) 0.0699(11) 0.7031(4)
H16 H -0.0812 0.0608 0.7158
H17 H -0.1857 -0.0355 0.6824
H18 H -0.2323 0.0688 0.7287
C7F C 0.0273(5) 0.4141(7) 0.57040(18)
H4F H 0.0539 0.5288 0.5574
C8F C -0.0545(5) 0.4132(7) 0.60950(17)
H5F H -0.0830 0.5280 0.6219
C12F C 0.7140(7) 0.4298(11) 0.34257(18)
H9F H 0.7915 0.4195 0.3622
H10F H 0.7401 0.4494 0.3101
H11F H 0.6613 0.5348 0.3531
H13F H -0.3428 0.1604 0.6358
C15F C -0.1693(11) 0.4301(11) 0.7031(4)
H16F H -0.0812 0.4392 0.7158
H17F H -0.1857 0.5355 0.6824
H18F H -0.2323 0.4312 0.7287
H6? H 0.5734 0.2896 0.2778
H7? H 0.4619 0.3355 0.3149
H8? H 0.4973 0.1249 0.3032
H12? H -0.2368 0.3615 0.6764
H14? H -0.3831 0.2842 0.6878
H15? H -0.3539 0.1262 0.6501
C16? C -0.0852(16) 0.2500 0.7173(5)
H19? H -0.1331 0.2349 0.7466
H20? H -0.0378 0.3675 0.7179
H21? H -0.0237 0.1476 0.7137
C17? C -0.2679(19) 0.0752(14) 0.6807(12)
H22? H -0.3348 0.0750 0.6564
H23? H -0.3093 0.0750 0.7114
H24? H -0.2136 -0.0355 0.6774
loop_
_geom_bond_atom_site_label_1
_geom_bond_atom_site_label_2
_geom_bond_site_symmetry_1
_geom_bond_site_symmetry_2
S1 C3 1_555 1_555
Cl1 C2 1_555 1_555
N1 N2 1_555 1_555
N2 C4 1_555 1_555
O1 C1 1_555 1_555
C1 N1 1_555 1_555
C2 C1 1_555 1_555
C3 C2 1_555 1_555
C4 C3 1_555 1_555
H1 C4 1_555 1_555
C5 S1 1_555 1_555
H2 C5 1_555 1_555
H3 C5 1_555 1_555
C6 C5 1_555 1_555
C7 C6 1_555 1_555
H4 C7 1_555 1_555
C8 C7 1_555 1_555
H5 C8 1_555 1_555
C9 C8 1_555 1_555
C10 N1 1_555 1_555
C11 C10 1_555 1_555
C12 C10 1_555 1_555
H9 C12 1_555 1_555
H10 C12 1_555 1_555
H11 C12 1_555 1_555
C13 C9 1_555 1_555
C14 C13 1_555 1_555
H13 C14 1_555 1_555
C15 C13 1_555 1_555
H16 C15 1_555 1_555
H17 C15 1_555 1_555
H18 C15 1_555 1_555
C7F C6 1_555 1_555
H4F C7F 1_555 1_555
C8F C9 1_555 1_555
H5F C8F 1_555 1_555
C12F C10 1_555 1_555
H9F C12F 1_555 1_555
H10F C12F 1_555 1_555
H11F C12F 1_555 1_555
H13F C14 1_555 1_555
C15F C13 1_555 1_555
H16F C15F 1_555 1_555
H17F C15F 1_555 1_555
H18F C15F 1_555 1_555
C7F C8F 1_555 1_555

#END
