
#######################################################################
#
#                 Cambridge Crystallographic Data Centre
#                                CCDC 
#
#######################################################################
#
# If this CIF has been generated from an entry in the Cambridge 
# Structural Database, then it will include bibliographic, chemical, 
# crystal, experimental, refinement or atomic coordinate data resulting 
# from the CCDC's data processing and validation procedures.
#
#######################################################################

data_LIJFOA
_chemical_formula_moiety         '2(C13 H9 Cl2 N2 O1 1+),Cl1 1-,Cl1 O4 1-'
_chemical_name_systematic        
'bis(7,10-Dichloro-2-methoxybenzo(b)(1,5)naphthyridinium) chloride perchlorate'
_symmetry_cell_setting           monoclinic
_symmetry_space_group_name_H-M   'P 21/n'
_symmetry_Int_Tables_number      14
_space_group_name_Hall           '-P 2yn'
loop_
_symmetry_equiv_pos_site_id
_symmetry_equiv_pos_as_xyz
1 x,y,z
2 1/2-x,1/2+y,1/2-z
3 -x,-y,-z
4 1/2+x,1/2-y,1/2+z
_cell_length_a                   7.9440(10)
_cell_length_b                   33.972(5)
_cell_length_c                   11.292(2)
_cell_angle_alpha                90
_cell_angle_beta                 107.511(2)
_cell_angle_gamma                90
_cell_volume                     2906.19
_exptl_crystal_colour            colorless
_exptl_crystal_description       block
_cell_formula_units_Z            4
_exptl_crystal_recrystallization_method acetone
loop_
_atom_site_label
_atom_site_type_symbol
_atom_site_fract_x
_atom_site_fract_y
_atom_site_fract_z
C1 C 0.6140(5) 0.43021(10) 0.7364(3)
C2 C 0.5768(5) 0.40037(10) 0.6408(3)
H1 H 0.6354 0.3763 0.6543
C3 C 0.4540(4) 0.40846(10) 0.5306(3)
H2 H 0.4294 0.3903 0.4660
C4 C 0.3638(4) 0.44505(9) 0.5156(3)
C5 C 0.1587(4) 0.48925(9) 0.3868(3)
C6 C 0.0365(4) 0.49704(10) 0.2711(3)
H3 H 0.0114 0.4782 0.2083
C7 C -0.0445(4) 0.53268(11) 0.2525(3)
C8 C -0.0108(4) 0.56188(10) 0.3500(3)
H4 H -0.0716 0.5857 0.3352
C9 C 0.1064(4) 0.55524(9) 0.4609(3)
H5 H 0.1270 0.5744 0.5226
C10 C 0.2016(4) 0.51805(9) 0.4853(3)
C11 C 0.3271(4) 0.50868(9) 0.5972(3)
C12 C 0.4115(4) 0.47234(9) 0.6160(3)
C13 C 0.7692(5) 0.44844(12) 0.9444(3)
H6 H 0.6603 0.4546 0.9606
H7 H 0.8189 0.4720 0.9221
H8 H 0.8503 0.4372 1.0175
Cl1 Cl -0.19461(12) 0.54375(3) 0.11131(9)
Cl2 Cl 0.38505(13) 0.54239(3) 0.71456(9)
N1 N 0.5355(4) 0.46412(8) 0.7254(2)
N2 N 0.2435(4) 0.45403(8) 0.4072(3)
H17 H 0.219(5) 0.4369(11) 0.348(3)
O1 O 0.7353(3) 0.41992(7) 0.8414(2)
C14 C 0.4137(5) 0.22930(10) 0.3372(3)
C15 C 0.4782(5) 0.26862(11) 0.3520(3)
H9 H 0.5966 0.2737 0.3927
C16 C 0.3658(5) 0.29848(12) 0.3065(3)
H10 H 0.4029 0.3246 0.3140
C17 C 0.1844(4) 0.28774(10) 0.2453(3)
C18 C -0.1062(4) 0.30885(10) 0.1355(3)
C19 C -0.2228(5) 0.34054(10) 0.0994(3)
H11 H -0.1847 0.3665 0.1143
C20 C -0.3982(5) 0.33131(11) 0.0402(4)
C21 C -0.4638(5) 0.29252(11) 0.0251(3)
H12 H -0.5826 0.2878 -0.0149
C22 C -0.3486(5) 0.26132(11) 0.0709(4)
H13 H -0.3908 0.2356 0.0633
C23 C -0.1634(5) 0.26903(10) 0.1302(3)
C24 C -0.0407(5) 0.23928(10) 0.1797(3)
C25 C 0.1374(5) 0.24841(10) 0.2374(3)
C26 C 0.4847(5) 0.16054(10) 0.3696(3)
H14 H 0.3919 0.1557 0.4060
H15 H 0.5838 0.1440 0.4086
H16 H 0.4431 0.1548 0.2824
Cl3 Cl -0.54565(12) 0.36936(3) -0.01420(9)
Cl4 Cl -0.10915(12) 0.19125(3) 0.16924(9)
N3 N 0.2544(4) 0.21900(8) 0.2831(3)
N4 N 0.0660(4) 0.31670(9) 0.1966(3)
H18 H 0.101(5) 0.3408(11) 0.205(3)
O3 O 0.5383(3) 0.20162(8) 0.3877(2)
Cl5 Cl 0.88340(11) 0.34019(2) 0.45436(8)
O2 O 0.9062(4) 0.33980(8) 0.5734(2)
O4 O 1.0101(4) 0.36333(7) 0.4258(2)
O5 O 0.7177(3) 0.35640(8) 0.4075(2)
O6 O 0.8922(3) 0.30120(7) 0.4116(2)
Cl6 Cl 0.17575(11) 0.40244(3) 0.18450(8)
loop_
_geom_bond_atom_site_label_1
_geom_bond_atom_site_label_2
_geom_bond_site_symmetry_1
_geom_bond_site_symmetry_2
C1 C2 1_555 1_555
C2 H1 1_555 1_555
C3 C2 1_555 1_555
H2 C3 1_555 1_555
C4 C3 1_555 1_555
C5 C6 1_555 1_555
C6 H3 1_555 1_555
C7 C6 1_555 1_555
C8 C7 1_555 1_555
H4 C8 1_555 1_555
C9 C8 1_555 1_555
H5 C9 1_555 1_555
C10 C5 1_555 1_555
C11 C10 1_555 1_555
C12 C4 1_555 1_555
C13 H6 1_555 1_555
H7 C13 1_555 1_555
H8 C13 1_555 1_555
C14 C15 1_555 1_555
C15 H9 1_555 1_555
C16 C15 1_555 1_555
H10 C16 1_555 1_555
C17 C16 1_555 1_555
C18 C19 1_555 1_555
C19 H11 1_555 1_555
C20 C19 1_555 1_555
C21 C20 1_555 1_555
H12 C21 1_555 1_555
C22 C21 1_555 1_555
H13 C22 1_555 1_555
C23 C18 1_555 1_555
C24 C23 1_555 1_555
C25 C17 1_555 1_555
C26 H14 1_555 1_555
H15 C26 1_555 1_555
H16 C26 1_555 1_555
Cl1 C7 1_555 1_555
Cl2 C11 1_555 1_555
Cl3 C20 1_555 1_555
Cl4 C24 1_555 1_555
Cl5 O2 1_555 1_555
N1 C1 1_555 1_555
N2 C4 1_555 1_555
H17 N2 1_555 1_555
N3 C14 1_555 1_555
N4 C17 1_555 1_555
H18 N4 1_555 1_555
O1 C1 1_555 1_555
O3 C14 1_555 1_555
O4 Cl5 1_555 1_555
O5 Cl5 1_555 1_555
O6 Cl5 1_555 1_555
C5 N2 1_555 1_555
C9 C10 1_555 1_555
C11 C12 1_555 1_555
C12 N1 1_555 1_555
C13 O1 1_555 1_555
C18 N4 1_555 1_555
C22 C23 1_555 1_555
C24 C25 1_555 1_555
C25 N3 1_555 1_555
C26 O3 1_555 1_555

#END
