
#######################################################################
#
#                 Cambridge Crystallographic Data Centre
#                                CCDC 
#
#######################################################################
#
# If this CIF has been generated from an entry in the Cambridge 
# Structural Database, then it will include bibliographic, chemical, 
# crystal, experimental, refinement or atomic coordinate data resulting 
# from the CCDC's data processing and validation procedures.
#
#######################################################################

data_LIJPOJ
_chemical_name_common            cis-2-Oxobicyclo[4.4.0]decanecarbonitrile
_chemical_formula_moiety         'C11 H15 N1 O1'
_chemical_name_systematic        8a-Cyano-1-oxo-cis-decalin
_symmetry_cell_setting           monoclinic
_symmetry_space_group_name_H-M   'P 21/n'
_symmetry_Int_Tables_number      14
_space_group_name_Hall           '-P 2yn'
loop_
_symmetry_equiv_pos_site_id
_symmetry_equiv_pos_as_xyz
1 x,y,z
2 1/2+x,1/2-y,1/2+z
3 -x,-y,-z
4 1/2-x,1/2+y,1/2-z
_cell_length_a                   8.236(4)
_cell_length_b                   12.347(4)
_cell_length_c                   10.083(4)
_cell_angle_alpha                90
_cell_angle_beta                 107.10(3)
_cell_angle_gamma                90
_cell_volume                     980.012
_exptl_crystal_colour            colorless
_exptl_crystal_description       plate
_chemical_melting_point          361-362K
_cell_formula_units_Z            4
_exptl_crystal_recrystallization_method 'hexane/ethyl acetate'
loop_
_atom_site_label
_atom_site_type_symbol
_atom_site_fract_x
_atom_site_fract_y
_atom_site_fract_z
O1 O 0.4314(2) 0.2098(2) 0.5689(2)
N1 N 0.6468(3) 0.0846(2) 0.3790(2)
C1 C 0.7129(3) 0.1379(2) 0.6402(2)
C2 C 0.5512(3) 0.1823(2) 0.6649(2)
C3 C 0.5527(3) 0.1922(2) 0.8127(3)
C4 C 0.6140(3) 0.0891(2) 0.8931(2)
C5 C 0.7854(3) 0.0553(2) 0.8808(2)
C6 C 0.7825(3) 0.0370(2) 0.7304(2)
C7 C 0.9553(3) 0.0033(2) 0.7167(2)
C8 C 1.0837(3) 0.0953(2) 0.7456(3)
C9 C 1.0164(3) 0.1910(2) 0.6534(2)
C10 C 0.8481(3) 0.2300(2) 0.6692(2)
C11 C 0.6738(3) 0.1081(2) 0.4926(2)
H1 H 0.4411 0.2092 0.8170
H2 H 0.6270 0.2505 0.8557
H3 H 0.5336 0.0325 0.8565
H4 H 0.6215 0.0992 0.9885
H5 H 0.8215 -0.0102 0.9323
H6 H 0.8668 0.1105 0.9194
H7 H 0.7048 -0.0219 0.6951
H8 H 0.9991 -0.0542 0.7807
H9 H 0.9408 -0.0224 0.6250
H10 H 1.1080 0.1161 0.8404
H11 H 1.1867 0.0695 0.7303
H12 H 1.0974 0.2474 0.6750
H13 H 0.9991 0.1691 0.5587
H14 H 0.8663 0.2562 0.7619
H15 H 0.8063 0.2886 0.6064
loop_
_geom_bond_atom_site_label_1
_geom_bond_atom_site_label_2
_geom_bond_site_symmetry_1
_geom_bond_site_symmetry_2
O1 C2 1_555 1_555
N1 C11 1_555 1_555
C1 C2 1_555 1_555
C2 C3 1_555 1_555
C3 C4 1_555 1_555
C4 C5 1_555 1_555
C5 C6 1_555 1_555
C6 C1 1_555 1_555
C7 C6 1_555 1_555
C8 C7 1_555 1_555
C9 C8 1_555 1_555
C10 C1 1_555 1_555
C11 C1 1_555 1_555
H1 C3 1_555 1_555
H2 C3 1_555 1_555
H3 C4 1_555 1_555
H4 C4 1_555 1_555
H5 C5 1_555 1_555
H6 C5 1_555 1_555
H7 C6 1_555 1_555
H8 C7 1_555 1_555
H9 C7 1_555 1_555
H10 C8 1_555 1_555
H11 C8 1_555 1_555
H12 C9 1_555 1_555
H13 C9 1_555 1_555
H14 C10 1_555 1_555
H15 C10 1_555 1_555
C9 C10 1_555 1_555

#END
