
#######################################################################
#
#                 Cambridge Crystallographic Data Centre
#                                CCDC 
#
#######################################################################
#
# If this CIF has been generated from an entry in the Cambridge 
# Structural Database, then it will include bibliographic, chemical, 
# crystal, experimental, refinement or atomic coordinate data resulting 
# from the CCDC's data processing and validation procedures.
#
#######################################################################

data_LIJZEL
_chemical_formula_moiety         'C31 H24 Br1 N1 O2'
_chemical_name_systematic        
2-((4-Bromophenyl)(2-methyl-1H-indol-3-yl)methyl)-1,3-diphenylpropane-1,3-dione
_symmetry_cell_setting           monoclinic
_symmetry_space_group_name_H-M   'P 21/c'
_symmetry_Int_Tables_number      14
_space_group_name_Hall           '-P 2ybc'
loop_
_symmetry_equiv_pos_site_id
_symmetry_equiv_pos_as_xyz
1 x,y,z
2 -x,1/2+y,1/2-z
3 -x,-y,-z
4 x,1/2-y,1/2+z
_cell_length_a                   12.788(4)
_cell_length_b                   13.019(4)
_cell_length_c                   16.467(5)
_cell_angle_alpha                90
_cell_angle_beta                 111.497(6)
_cell_angle_gamma                90
_cell_volume                     2550.83
_exptl_crystal_colour            colorless
_exptl_crystal_description       block
_cell_formula_units_Z            4
loop_
_atom_site_label
_atom_site_type_symbol
_atom_site_fract_x
_atom_site_fract_y
_atom_site_fract_z
Br1 Br 1.17313(4) 0.60957(4) 1.08516(3)
C1 C 1.0357(3) 0.6485(3) 0.9956(3)
C2 C 1.0192(3) 0.6293(3) 0.9112(3)
H1 H 1.0753 0.5978 0.8967
C3 C 0.9189(3) 0.6567(3) 0.8463(3)
H2 H 0.9086 0.6443 0.7883
C4 C 0.8333(3) 0.7023(3) 0.8663(3)
C5 C 0.8531(4) 0.7204(3) 0.9520(3)
H3 H 0.7970 0.7511 0.9670
C6 C 0.9534(4) 0.6949(3) 1.0176(3)
H4 H 0.9650 0.7089 1.0757
C7 C 0.7184(3) 0.7310(3) 0.7987(2)
H5 H 0.6624 0.6981 0.8178
C8 C 0.6970(3) 0.8451(3) 0.7980(2)
C9 C 0.6053(4) 0.8896(3) 0.8079(3)
C10 C 0.5085(4) 0.8437(4) 0.8223(4)
H6 H 0.5101 0.7704 0.8160
H7 H 0.4401 0.8705 0.7803
H8 H 0.5120 0.8601 0.8801
C11 C 0.7691(3) 0.9259(3) 0.7894(2)
C12 C 0.7139(4) 1.0192(3) 0.7941(2)
C13 C 0.7611(5) 1.1140(3) 0.7906(3)
H9 H 0.7249 1.1748 0.7943
C14 C 0.8640(5) 1.1146(4) 0.7816(3)
H10 H 0.8973 1.1772 0.7784
C15 C 0.9194(4) 1.0241(4) 0.7770(3)
H11 H 0.9893 1.0273 0.7717
C16 C 0.8724(4) 0.9302(3) 0.7800(3)
H12 H 0.9094 0.8701 0.7758
C17 C 0.6983(3) 0.6889(3) 0.7064(2)
H13 H 0.7543 0.7169 0.6847
C18 C 0.5791(3) 0.7195(3) 0.6453(2)
C19 C 0.5609(3) 0.7903(3) 0.5700(3)
C20 C 0.4517(4) 0.8012(3) 0.5092(3)
H14 H 0.3930 0.7661 0.5173
C21 C 0.4304(5) 0.8630(4) 0.4379(3)
H15 H 0.3574 0.8692 0.3975
C22 C 0.5159(6) 0.9160(4) 0.4254(3)
H16 H 0.5007 0.9577 0.3765
C23 C 0.6240(5) 0.9077(3) 0.4846(3)
H17 H 0.6819 0.9436 0.4759
C24 C 0.6464(4) 0.8454(3) 0.5578(3)
H18 H 0.7192 0.8409 0.5988
C25 C 0.7026(3) 0.5709(3) 0.7071(3)
C26 C 0.7462(3) 0.5164(3) 0.6467(3)
C27 C 0.7625(4) 0.5633(4) 0.5778(3)
H19 H 0.7458 0.6327 0.5673
C28 C 0.8031(5) 0.5095(4) 0.5240(3)
H20 H 0.8131 0.5429 0.4774
C29 C 0.8294(4) 0.4068(4) 0.5380(4)
H21 H 0.8583 0.3706 0.5023
C30 C 0.8116(4) 0.3598(4) 0.6057(4)
H22 H 0.8281 0.2903 0.6156
C31 C 0.7696(3) 0.4126(3) 0.6603(3)
H23 H 0.7572 0.3786 0.7057
N1 N 0.6154(3) 0.9947(2) 0.8044(2)
H24 H 0.5670 1.0385 0.8082
O1 O 0.4990(2) 0.6827(2) 0.6583(2)
O2 O 0.6698(2) 0.5243(2) 0.75765(19)
loop_
_geom_bond_atom_site_label_1
_geom_bond_atom_site_label_2
_geom_bond_site_symmetry_1
_geom_bond_site_symmetry_2
Br1 C1 1_555 1_555
C1 C2 1_555 1_555
C2 H1 1_555 1_555
C3 C2 1_555 1_555
H2 C3 1_555 1_555
C4 C3 1_555 1_555
C5 C4 1_555 1_555
H3 C5 1_555 1_555
C6 C1 1_555 1_555
H4 C6 1_555 1_555
C7 C4 1_555 1_555
H5 C7 1_555 1_555
C8 C7 1_555 1_555
C9 C8 1_555 1_555
C10 C9 1_555 1_555
H6 C10 1_555 1_555
H7 C10 1_555 1_555
H8 C10 1_555 1_555
C11 C8 1_555 1_555
C12 C11 1_555 1_555
C13 C12 1_555 1_555
H9 C13 1_555 1_555
C14 C13 1_555 1_555
H10 C14 1_555 1_555
C15 C14 1_555 1_555
H11 C15 1_555 1_555
C16 C11 1_555 1_555
H12 C16 1_555 1_555
C17 C7 1_555 1_555
H13 C17 1_555 1_555
C18 C17 1_555 1_555
C19 C18 1_555 1_555
C20 C19 1_555 1_555
H14 C20 1_555 1_555
C21 C20 1_555 1_555
H15 C21 1_555 1_555
C22 C21 1_555 1_555
H16 C22 1_555 1_555
C23 C22 1_555 1_555
H17 C23 1_555 1_555
C24 C19 1_555 1_555
H18 C24 1_555 1_555
C25 C17 1_555 1_555
C26 C25 1_555 1_555
C27 C26 1_555 1_555
H19 C27 1_555 1_555
C28 C27 1_555 1_555
H20 C28 1_555 1_555
C29 C28 1_555 1_555
H21 C29 1_555 1_555
C30 C29 1_555 1_555
H22 C30 1_555 1_555
C31 C26 1_555 1_555
H23 C31 1_555 1_555
N1 C9 1_555 1_555
H24 N1 1_555 1_555
O1 C18 1_555 1_555
O2 C25 1_555 1_555
C5 C6 1_555 1_555
C12 N1 1_555 1_555
C15 C16 1_555 1_555
C23 C24 1_555 1_555
C30 C31 1_555 1_555

#END
