
#######################################################################
#
#                 Cambridge Crystallographic Data Centre
#                                CCDC 
#
#######################################################################
#
# If this CIF has been generated from an entry in the Cambridge 
# Structural Database, then it will include bibliographic, chemical, 
# crystal, experimental, refinement or atomic coordinate data resulting 
# from the CCDC's data processing and validation procedures.
#
#######################################################################

data_LIJZIQ
_chemical_formula_moiety         'C7 H8 N1 O2 1+,C2 Cl3 O2 1-'
_chemical_name_systematic        '2-carboxyanilinium trichloroacetate'
_symmetry_cell_setting           triclinic
_symmetry_space_group_name_H-M   'P -1'
_symmetry_Int_Tables_number      2
_space_group_name_Hall           '-P 1'
loop_
_symmetry_equiv_pos_site_id
_symmetry_equiv_pos_as_xyz
1 x,y,z
2 -x,-y,-z
_cell_length_a                   5.322(3)
_cell_length_b                   10.859(6)
_cell_length_c                   11.275(6)
_cell_angle_alpha                102.808(7)
_cell_angle_beta                 101.518(7)
_cell_angle_gamma                100.549(7)
_cell_volume                     604.712
_exptl_crystal_colour            colorless
_exptl_crystal_description       block
_cell_formula_units_Z            2
loop_
_atom_site_label
_atom_site_type_symbol
_atom_site_fract_x
_atom_site_fract_y
_atom_site_fract_z
Cl1 Cl 0.3891(17) 0.3688(10) 0.8366(8)
Cl2 Cl 0.1718(18) 0.3959(7) 0.5838(7)
Cl3 Cl -0.0290(12) 0.5072(6) 0.7916(9)
O1 O -0.1938(8) 0.1766(4) 0.5898(4)
O2 O -0.1576(8) 0.2067(4) 0.7943(4)
C1 C -0.1161(11) 0.2385(5) 0.7004(6)
C2 C 0.0772(12) 0.3758(5) 0.7280(6)
N1 N 0.7373(9) 0.8999(4) 0.5655(4)
H1 H 0.8439 0.8707 0.5203
H2 H 0.7706 0.9862 0.5822
H3 H 0.5701 0.8659 0.5223
O3 O 1.2430(8) 1.0238(4) 0.6467(3)
O4 O 1.4454(7) 1.0625(4) 0.8481(3)
H4 H 1.5593 1.1101 0.8286
C3 C 1.2442(10) 1.0053(5) 0.7481(4)
C4 C 1.0251(9) 0.9164(4) 0.7737(4)
C5 C 0.7817(10) 0.8624(5) 0.6823(4)
C6 C 0.5837(10) 0.7761(5) 0.7041(5)
H5 H 0.4243 0.7411 0.6436
C7 C 0.6216(11) 0.7417(5) 0.8153(5)
H6 H 0.4870 0.6834 0.8296
C8 C 0.8572(12) 0.7925(5) 0.9061(5)
H7 H 0.8810 0.7683 0.9810
C9 C 1.0574(11) 0.8793(5) 0.8852(4)
H8 H 1.2158 0.9134 0.9465
Cl4? Cl 0.3455(14) 0.3725(8) 0.6838(11)
Cl5? Cl -0.144(2) 0.4620(10) 0.6350(11)
Cl6? Cl 0.1267(19) 0.4658(8) 0.8795(10)
Cl7? Cl 0.3219(15) 0.4146(8) 0.8678(9)
Cl8? Cl 0.291(2) 0.3754(8) 0.6120(10)
Cl9? Cl -0.0705(15) 0.4955(7) 0.7140(11)
Cl10? Cl 0.3826(17) 0.3603(9) 0.7805(10)
Cl11? Cl -0.010(2) 0.4590(8) 0.6240(8)
Cl12? Cl 0.0130(16) 0.4825(7) 0.8799(10)
loop_
_geom_bond_atom_site_label_1
_geom_bond_atom_site_label_2
_geom_bond_site_symmetry_1
_geom_bond_site_symmetry_2
Cl1 C2 1_555 1_555
Cl2 C2 1_555 1_555
Cl3 C2 1_555 1_555
O1 C1 1_555 1_555
O2 C1 1_555 1_555
C1 C2 1_555 1_555
N1 H1 1_555 1_555
H2 N1 1_555 1_555
H3 N1 1_555 1_555
O3 C3 1_555 1_555
O4 H4 1_555 1_555
C3 O4 1_555 1_555
C4 C3 1_555 1_555
C5 N1 1_555 1_555
C6 C5 1_555 1_555
H5 C6 1_555 1_555
C7 C6 1_555 1_555
H6 C7 1_555 1_555
C8 C7 1_555 1_555
H7 C8 1_555 1_555
C9 C4 1_555 1_555
H8 C9 1_555 1_555
C4 C5 1_555 1_555
C8 C9 1_555 1_555

#END
