
#######################################################################
#
#                 Cambridge Crystallographic Data Centre
#                                CCDC 
#
#######################################################################
#
# If this CIF has been generated from an entry in the Cambridge 
# Structural Database, then it will include bibliographic, chemical, 
# crystal, experimental, refinement or atomic coordinate data resulting 
# from the CCDC's data processing and validation procedures.
#
#######################################################################

data_LIKLUM
_chemical_formula_moiety         'C29 H48 N4 O5'
_chemical_name_systematic        
'Benzyloxycarbonyl-D-(\a-methyl)valyl-L-(\a-methyl)valyl-D-(\a-methyl)valine isopropyl amide'
_symmetry_cell_setting           monoclinic
_symmetry_space_group_name_H-M   'P 21'
_symmetry_Int_Tables_number      4
_space_group_name_Hall           'P 2yb'
loop_
_symmetry_equiv_pos_site_id
_symmetry_equiv_pos_as_xyz
1 x,y,z
2 -x,1/2+y,-z
_cell_length_a                   14.130
_cell_length_b                   10.599
_cell_length_c                   10.424
_cell_angle_alpha                90
_cell_angle_beta                 98.2
_cell_angle_gamma                90
_cell_volume                     1545.18
_exptl_crystal_colour            colorless
_cell_formula_units_Z            2
loop_
_atom_site_label
_atom_site_type_symbol
_atom_site_fract_x
_atom_site_fract_y
_atom_site_fract_z
O1 O -0.7963(3) -0.206930 -1.3084(3)
O2 O -0.7665(3) -0.2547(4) -1.0980(4)
O3 O -0.6453(2) -0.5522(4) -0.9560(3)
O4 O -0.8280(4) -0.5986(4) -0.7533(4)
O5 O -0.6664(3) -0.4070(6) -0.5102(3)
N1 N -0.7143(3) -0.3804(4) -1.2517(4)
N2 N -0.7900(3) -0.5317(4) -1.0783(4)
N3 N -0.7882(3) -0.4112(4) -0.8351(3)
N4 N -0.6146(4) -0.4694(6) -0.6924(5)
C1 C -0.9420(6) 0.1117(7) -1.6217(4)
C2 C -0.8544(6) 0.1381(7) -1.5469(4)
C3 C -0.8248(6) 0.0688(7) -1.4345(4)
C4 C -0.8828(6) -0.0269(7) -1.3971(4)
C5 C -0.9704(6) -0.0533(7) -1.4719(4)
C6 C -1.001(6) 0.0159(7) -1.5843(4)
C7 C -0.8497(7) -0.0988(7) -1.2745(7)
C8 C -0.7599(4) -0.2782(7) -1.2105(5)
C9 C -0.6482(4) -0.4545(6) -1.1615(5)
C10 C -0.5645(4) -0.3704(7) -1.0998(6)
C11 C -0.6079(4) -0.5597(7) -1.2461(5)
C12 C -0.6858(5) -0.6475(7) -1.3093(7)
C13 C -0.5310(6) -0.640(1) -1.1700(6)
C14 C -0.6938(4) -0.5162(5) -1.0552(5)
C15 C -0.8509(4) -0.5792(6) -0.9841(5)
C16 C -0.9503(4) -0.5171(9) -1.0233(7)
C17 C -0.8599(6) -0.7236(8) -0.9894(7)
C18 C -0.9062(6) -0.771(1) -1.1227(8)
C19 C -0.7653(7) -0.7905(8) -0.9524(8)
C20 C -0.8184(4) -0.5318(8) -0.8447(6)
C21 C -0.7620(4) -0.3464(6) -0.7090(5)
C22 C -0.8464(4) -0.3381(8) -0.6340(6)
C23 C -0.7256(4) -0.2147(7) -0.7459(6)
C24 C -0.8078(6) -0.1347(7) -0.8167(8)
C25 C -0.6744(6) -0.1421(9) -0.6310(8)
C26 C -0.6756(5) -0.4115(6) -0.6254(6)
C27 C -0.5350(6) -0.5442(8) -0.6257(7)
C28 C -0.5620(6) -0.681(1) -0.628(1)
C29 C -0.4479(5) -0.528(1) -0.7031(8)
H1 H -0.7275(3) -0.4072(4) -1.3526(4)
H2 H -0.8253(3) -0.5073(4) -1.17384
H3 H -0.7828(3) -0.3595(4) -0.9231(3)
H4 H -0.6238(4) -0.4613(6) -0.7968(5)
H5 H -0.9106(7) -0.1296(7) -1.2307(7)
H6 H -0.8047(7) -0.0394(7) -1.2072(7)
H7 H -0.5156(4) -0.4258(7) -1.0332(6)
H8 H -0.5922(4) -0.2936(7) -1.0481(6)
H9 H -0.5272(4) -0.3328(7) -1.1749(6)
H10 H -0.7180(5) -0.6956(7) -1.2350(7)
H11 H -0.6551(5) -0.7161(7) -1.3681(7)
H12 H -0.7396(5) -0.5934(7) -1.3695(7)
H13 H -0.5594(6) -0.685(1) -1.0908(6)
H14 H -0.4710(6) -0.582(1) -1.1320(6)
H15 H -0.5077(6) -0.711(1) -1.2329(6)
H16 H -0.9986(4) -0.5479(9) -0.9581(7)
H17 H -0.9785(4) -0.5443(9) -1.1212(7)
H18 H -0.9431(4) -0.4157(9) -1.0181(7)
H19 H -0.8606(6) -0.748(1) -1.1942(8)
H20 H -0.9750(6) -0.726(1) -1.1485(8)
H21 H -0.9157(6) -0.872(1) -1.1192(8)
H22 H -0.7187(7) -0.7702(8) -1.0234(8)
H23 H -0.7774(7) -0.8910(8) -0.9490(8)
H24 H -0.7324(7) -0.7582(8) -0.8583(8)
H25 H -0.8248(4) -0.2905(8) -0.5429(6)
H26 H -0.8712(4) -0.4319(8) -0.6157(6)
H27 H -0.9035(4) -0.2857(8) -0.6902(6)
H28 H -0.8555(6) -0.1074(7) -0.7493(8)
H29 H -0.8468(6) -0.1894(7) -0.8943(8)
H30 H -0.7789(6) -0.0513(7) -0.8562(8)
H31 H -0.7192(6) -0.1382(9) -0.5555(8)
H32 H -0.6593(6) -0.0474(9) -0.6608(8)
H33 H -0.6081(6) -0.1892(9) -0.5949(8)
H34 H -0.5771(6) -0.713(1) -0.727(1)
H35 H -0.6246(6) -0.694(1) -0.581(1)
H36 H -0.5034(6) -0.735(1) -0.577(1)
H37 H -0.4690(5) -0.557(1) -0.8024(8)
H38 H -0.3891(5) -0.586(1) -0.6595(8)
H39 H -0.4258(5) -0.430(1) -0.7006(8)
H40 H -0.96469 0.16232 -1.71194
H41 H -0.80911 0.21012 -1.57968
H42 H -0.75651 0.08893 -1.37922
H43 H -1.01507 -0.12785 -1.44328
H44 H -1.06767 -0.00666 -1.64374
H45 H -0.57821 -0.51378 -1.32723
H46 H -0.90388 -0.74564 -0.91751
H47 H -0.68976 -0.22865 -0.83434
H48 H -0.52068 -0.51735 -0.52327
loop_
_geom_bond_atom_site_label_1
_geom_bond_atom_site_label_2
_geom_bond_site_symmetry_1
_geom_bond_site_symmetry_2
O1 C7 1_555 1_555
O2 C8 1_555 1_555
O3 C14 1_555 1_555
O4 C20 1_555 1_555
O5 C26 1_555 1_555
N1 C8 1_555 1_555
N2 C14 1_555 1_555
N3 C20 1_555 1_555
N4 C26 1_555 1_555
C1 C2 1_555 1_555
C2 C3 1_555 1_555
C3 C4 1_555 1_555
C4 C5 1_555 1_555
C5 C6 1_555 1_555
C6 C1 1_555 1_555
C7 C4 1_555 1_555
C8 O1 1_555 1_555
C9 N1 1_555 1_555
C10 C9 1_555 1_555
C11 C9 1_555 1_555
C12 C11 1_555 1_555
C13 C11 1_555 1_555
C14 C9 1_555 1_555
C15 N2 1_555 1_555
C16 C15 1_555 1_555
C17 C15 1_555 1_555
C18 C17 1_555 1_555
C19 C17 1_555 1_555
C20 C15 1_555 1_555
C21 N3 1_555 1_555
C22 C21 1_555 1_555
C23 C21 1_555 1_555
C24 C23 1_555 1_555
C25 C23 1_555 1_555
C26 C21 1_555 1_555
C27 N4 1_555 1_555
C28 C27 1_555 1_555
C29 C27 1_555 1_555
H1 N1 1_555 1_555
H2 N2 1_555 1_555
H3 N3 1_555 1_555
H4 N4 1_555 1_555
H5 C7 1_555 1_555
H6 C7 1_555 1_555
H7 C10 1_555 1_555
H8 C10 1_555 1_555
H9 C10 1_555 1_555
H10 C12 1_555 1_555
H11 C12 1_555 1_555
H12 C12 1_555 1_555
H13 C13 1_555 1_555
H14 C13 1_555 1_555
H15 C13 1_555 1_555
H16 C16 1_555 1_555
H17 C16 1_555 1_555
H18 C16 1_555 1_555
H19 C18 1_555 1_555
H20 C18 1_555 1_555
H21 C18 1_555 1_555
H22 C19 1_555 1_555
H23 C19 1_555 1_555
H24 C19 1_555 1_555
H25 C22 1_555 1_555
H26 C22 1_555 1_555
H27 C22 1_555 1_555
H28 C24 1_555 1_555
H29 C24 1_555 1_555
H30 C24 1_555 1_555
H31 C25 1_555 1_555
H32 C25 1_555 1_555
H33 C25 1_555 1_555
H34 C28 1_555 1_555
H35 C28 1_555 1_555
H36 C28 1_555 1_555
H37 C29 1_555 1_555
H38 C29 1_555 1_555
H39 C29 1_555 1_555
H40 C1 1_555 1_555
H41 C2 1_555 1_555
H42 C3 1_555 1_555
H43 C5 1_555 1_555
H44 C6 1_555 1_555
H45 C11 1_555 1_555
H46 C17 1_555 1_555
H47 C23 1_555 1_555
H48 C27 1_555 1_555

#END
