
#######################################################################
#
#                 Cambridge Crystallographic Data Centre
#                                CCDC 
#
#######################################################################
#
# If this CIF has been generated from an entry in the Cambridge 
# Structural Database, then it will include bibliographic, chemical, 
# crystal, experimental, refinement or atomic coordinate data resulting 
# from the CCDC's data processing and validation procedures.
#
#######################################################################

data_LIKLIA
_chemical_formula_moiety         'C31 H49 Br1 N4 O6,C1 H4 O1'
_chemical_name_systematic        
'p-Bromobenzoyl-D-isovalyl-L-isovalyl-D-isovalyl-L-isovaline t-butyl ester methanol solvate'
_symmetry_cell_setting           orthorhombic
_symmetry_space_group_name_H-M   'P 21 21 21'
_symmetry_Int_Tables_number      19
_space_group_name_Hall           'P 2bc 2ac'
loop_
_symmetry_equiv_pos_site_id
_symmetry_equiv_pos_as_xyz
1 x,y,z
2 -x,1/2-y,1/2+z
3 1/2+x,-y,1/2-z
4 1/2-x,1/2+y,-z
_cell_length_a                   20.829
_cell_length_b                   17.760
_cell_length_c                   9.470
_cell_angle_alpha                90
_cell_angle_beta                 90
_cell_angle_gamma                90
_cell_volume                     3503.17
_exptl_crystal_colour            colorless
_chemical_melting_point          152-154deg.C
_cell_formula_units_Z            4
loop_
_atom_site_label
_atom_site_type_symbol
_atom_site_fract_x
_atom_site_fract_y
_atom_site_fract_z
Br1 Br -0.23245(8) -0.75967(8) 0.0117(1)
O1 O -0.4408(3) -0.5664(3) -0.3979(6)
O2 O -0.3809(2) -0.5566(3) -0.7146(6)
O3 O -0.3477(2) -0.3509(3) -0.6974(6)
O4 O -0.2087(2) -0.3970(3) -0.4918(6)
O5 O -0.0979(2) -0.5297(4) -0.6069(7)
O6 O -0.1687(2) -0.5549(3) -0.4344(6)
N1 N -0.4353(3) -0.6659(3) -0.5435(7)
N2 N -0.4728(2) -0.4908(3) -0.6898(8)
N3 N -0.3783(2) -0.4245(3) -0.5180(6)
N4 N -0.2645(2) -0.4930(3) -0.5858(7)
C1 C -0.2920(3) -0.7247(3) -0.1191(5)
C2 C -0.2904(3) -0.7519(3) -0.2573(5)
C3 C -0.3327(3) -0.7232(3) -0.3580(5)
C4 C -0.3766(3) -0.6673(3) -0.3206(5)
C5 C -0.3782(3) -0.6402(3) -0.1824(5)
C6 C -0.3359(3) -0.6689(3) -0.0816(5)
C7 C -0.4202(3) -0.6296(4) -0.4242(9)
C8 C -0.4749(3) -0.6291(4) -0.6509(9)
C9 C -0.4709(4) -0.6779(5) -0.7852(9)
C10 C -0.5070(4) -0.6463(5) -0.916(1)
C11 C -0.5425(3) -0.6192(5) -0.604(1)
C12 C -0.4380(3) -0.5545(4) -0.6905(8)
C13 C -0.4454(3) -0.4182(4) -0.7366(8)
C14 C -0.4260(4) -0.4203(5) -0.895(1)
C15 C -0.4954(4) -0.3567(5) -0.717(1)
C16 C -0.5252(5) -0.3502(7) -0.575(1)
C17 C -0.3858(3) -0.3955(4) -0.6493(8)
C18 C -0.3215(3) -0.4078(4) -0.4287(8)
C19 C -0.3187(4) -0.3234(5) -0.3911(9)
C20 C -0.3763(4) -0.2956(5) -0.312(1)
C21 C -0.3235(3) -0.4560(5) -0.3012(8)
C22 C -0.2595(3) -0.4310(4) -0.5104(7)
C23 C -0.2097(3) -0.5276(4) -0.6592(8)
C24 C -0.1918(4) -0.4808(5) -0.789(1)
C25 C -0.2451(5) -0.4727(7) -0.898(1)
C26 C -0.2288(4) -0.6069(5) -0.698(1)
C27 C -0.1524(4) -0.5347(4) -0.5651(9)
C28 C -0.1218(4) -0.5742(5) -0.323(1)
C29 C -0.0911(6) -0.6480(6) -0.360(2)
C30 C -0.1641(6) -0.582(1) -0.197(1)
C31 C -0.0708(6) -0.5119(7) -0.309(1)
H1 H -0.419300 -0.721930 -0.559410
H2 H -0.513770 -0.496020 -0.645570
H3 H -0.411000 -0.468120 -0.490220
H4 H -0.310560 -0.519340 -0.596210
H5 H -0.257060 -0.795770 -0.286350
H6 H -0.331630 -0.744210 -0.465330
H7 H -0.412010 -0.596660 -0.153740
H8 H -0.337410 -0.648220 0.025240
H9 H -0.490630 -0.732530 -0.759920
H10 H -0.420860 -0.683850 -0.812780
H11 H -0.498270 -0.586980 -0.927710
H12 H -0.557880 -0.656620 -0.906800
H13 H -0.484050 -0.679850 -0.990140
H14 H -0.542750 -0.585700 -0.508890
H15 H -0.562280 -0.673820 -0.583240
H16 H -0.569380 -0.594630 -0.671090
H17 H -0.383760 -0.455850 -0.906390
H18 H -0.413220 -0.363400 -0.927010
H19 H -0.457580 -0.438080 -0.957170
H20 H -0.535000 -0.367940 -0.789420
H21 H -0.474040 -0.303160 -0.745330
H22 H -0.538520 -0.404830 -0.535490
H23 H -0.564610 -0.312610 -0.573990
H24 H -0.494040 -0.329520 -0.497360
H25 H -0.316390 -0.290360 -0.486900
H26 H -0.277380 -0.312900 -0.327110
H27 H -0.370770 -0.240250 -0.278240
H28 H -0.416500 -0.302480 -0.373730
H29 H -0.382830 -0.333270 -0.218680
H30 H -0.368870 -0.443020 -0.248270
H31 H -0.284620 -0.436230 -0.234600
H32 H -0.320600 -0.511220 -0.299590
H33 H -0.175540 -0.429530 -0.778630
H34 H -0.149410 -0.499840 -0.811740
H35 H -0.285460 -0.439210 -0.858020
H36 H -0.262280 -0.525180 -0.936080
H37 H -0.224070 -0.440870 -0.985590
H38 H -0.268550 -0.600070 -0.771550
H39 H -0.246970 -0.630780 -0.600930
H40 H -0.207000 -0.639410 -0.732480
H41 H -0.127220 -0.681610 -0.414780
H42 H -0.052500 -0.638970 -0.423310
H43 H -0.077810 -0.676480 -0.263850
H44 H -0.204800 -0.541420 -0.206440
H45 H -0.136530 -0.558890 -0.101250
H46 H -0.168900 -0.622180 -0.201450
H47 H -0.044630 -0.520970 -0.396100
H48 H -0.043900 -0.514290 -0.213050
H49 H -0.090450 -0.455870 -0.323490
O7 O -0.3688(4) -0.8053(4) -0.6618(7)
C32 C -0.353(2) -0.818(2) -0.785(5)
H50 H -0.381890 -0.785750 -0.862360
H51 H -0.361690 -0.878710 -0.814390
H52 H -0.303020 -0.807200 -0.808010
H56 H -0.342830 -0.836210 -0.611110
C33? C -0.381(3) -0.836(3) -0.784(8)
H53? H -0.412540 -0.801940 -0.851800
H54? H -0.405210 -0.891840 -0.774410
H55? H -0.337220 -0.847220 -0.847330
loop_
_geom_bond_atom_site_label_1
_geom_bond_atom_site_label_2
_geom_bond_site_symmetry_1
_geom_bond_site_symmetry_2
Br1 C1 1_555 1_555
O1 C7 1_555 1_555
O2 C12 1_555 1_555
O3 C17 1_555 1_555
O4 C22 1_555 1_555
O5 C27 1_555 1_555
O6 C27 1_555 1_555
N1 C7 1_555 1_555
N2 C12 1_555 1_555
N3 C17 1_555 1_555
N4 C22 1_555 1_555
C1 C2 1_555 1_555
C2 C3 1_555 1_555
C3 C4 1_555 1_555
C4 C5 1_555 1_555
C5 C6 1_555 1_555
C6 C1 1_555 1_555
C7 C4 1_555 1_555
C8 N1 1_555 1_555
C9 C8 1_555 1_555
C10 C9 1_555 1_555
C11 C8 1_555 1_555
C12 C8 1_555 1_555
C13 N2 1_555 1_555
C14 C13 1_555 1_555
C15 C13 1_555 1_555
C16 C15 1_555 1_555
C17 C13 1_555 1_555
C18 N3 1_555 1_555
C19 C18 1_555 1_555
C20 C19 1_555 1_555
C21 C18 1_555 1_555
C22 C18 1_555 1_555
C23 N4 1_555 1_555
C24 C23 1_555 1_555
C25 C24 1_555 1_555
C26 C23 1_555 1_555
C27 C23 1_555 1_555
C28 O6 1_555 1_555
C29 C28 1_555 1_555
C30 C28 1_555 1_555
C31 C28 1_555 1_555
O7 C32 1_555 1_555
C32 H50 1_555 1_555
H1 N1 1_555 1_555
H2 N2 1_555 1_555
H3 N3 1_555 1_555
H4 N4 1_555 1_555
H5 C2 1_555 1_555
H6 C3 1_555 1_555
H7 C5 1_555 1_555
H8 C6 1_555 1_555
H9 C9 1_555 1_555
H10 C9 1_555 1_555
H11 C10 1_555 1_555
H12 C10 1_555 1_555
H13 C10 1_555 1_555
H14 C11 1_555 1_555
H15 C11 1_555 1_555
H16 C11 1_555 1_555
H17 C14 1_555 1_555
H18 C14 1_555 1_555
H19 C14 1_555 1_555
H20 C15 1_555 1_555
H21 C15 1_555 1_555
H22 C16 1_555 1_555
H23 C16 1_555 1_555
H24 C16 1_555 1_555
H25 C19 1_555 1_555
H26 C19 1_555 1_555
H27 C20 1_555 1_555
H28 C20 1_555 1_555
H29 C20 1_555 1_555
H30 C21 1_555 1_555
H31 C21 1_555 1_555
H32 C21 1_555 1_555
H33 C24 1_555 1_555
H34 C24 1_555 1_555
H35 C25 1_555 1_555
H36 C25 1_555 1_555
H37 C25 1_555 1_555
H38 C26 1_555 1_555
H39 C26 1_555 1_555
H40 C26 1_555 1_555
H41 C29 1_555 1_555
H42 C29 1_555 1_555
H43 C29 1_555 1_555
H44 C30 1_555 1_555
H45 C30 1_555 1_555
H46 C30 1_555 1_555
H47 C31 1_555 1_555
H48 C31 1_555 1_555
H49 C31 1_555 1_555
H51 C32 1_555 1_555
H52 C32 1_555 1_555
H56 O7 1_555 1_555

#END
