
#######################################################################
#
#                 Cambridge Crystallographic Data Centre
#                                CCDC 
#
#######################################################################
#
# If this CIF has been generated from an entry in the Cambridge 
# Structural Database, then it will include bibliographic, chemical, 
# crystal, experimental, refinement or atomic coordinate data resulting 
# from the CCDC's data processing and validation procedures.
#
#######################################################################

data_LIKQAA
_chemical_formula_moiety         'C23 H25 N3 O4'
_chemical_name_systematic        
8-benzyl-11-sec-butyl-11-methoxy-10,11-dihydro-6H-oxepino[2,3-d]pyrazino[1,2-a]pyrimidine-6,9(8H)-dione
_symmetry_cell_setting           orthorhombic
_symmetry_space_group_name_H-M   'P 21 21 2'
_symmetry_Int_Tables_number      18
_space_group_name_Hall           'P 2 2ab'
loop_
_symmetry_equiv_pos_site_id
_symmetry_equiv_pos_as_xyz
1 x,y,z
2 -x,-y,z
3 1/2+x,1/2-y,-z
4 1/2-x,1/2+y,-z
_cell_length_a                   20.7156(5)
_cell_length_b                   14.4296(4)
_cell_length_c                   6.96323(17)
_cell_angle_alpha                90
_cell_angle_beta                 90
_cell_angle_gamma                90
_cell_volume                     2081.43
_exptl_crystal_colour            yellow
_exptl_crystal_description       block
_cell_formula_units_Z            4
loop_
_atom_site_label
_atom_site_type_symbol
_atom_site_fract_x
_atom_site_fract_y
_atom_site_fract_z
C1 C 0.93044(10) 0.39952(15) 0.7811(3)
C2 C 1.00548(11) 0.27936(16) 0.8957(3)
C3 C 0.94762(10) 0.23380(14) 0.9922(3)
C4 C 0.90519(10) 0.12563(15) 1.1916(3)
C5 C 0.90071(12) -0.02842(16) 1.2800(3)
H1 H 0.9330 -0.0732 1.2522
C6 C 0.83943(12) -0.05285(17) 1.2688(3)
H2 H 0.8300 -0.1164 1.2470
C7 C 0.78506(11) 0.01088(17) 1.2873(3)
H3 H 0.7466 -0.0113 1.3455
C8 C 0.78661(11) 0.09857(16) 1.2269(3)
H4 H 0.7485 0.1345 1.2413
C9 C 0.84244(10) 0.14313(15) 1.1408(3)
C10 C 0.83123(10) 0.21185(15) 0.9931(3)
C11 C 0.87813(10) 0.32621(14) 0.7745(3)
H5 H 0.8360 0.3575 0.8007
C12 C 1.06565(10) 0.27976(16) 1.0245(3)
H6 H 1.0729 0.2146 1.0685
C13 C 1.05614(11) 0.33945(18) 1.2041(4)
H7 H 1.0555 0.4055 1.1658
H8 H 1.0136 0.3247 1.2615
C14 C 1.12569(11) 0.30939(17) 0.9109(4)
H9 H 1.1230 0.3757 0.8815
H10 H 1.1280 0.2740 0.7910
H11 H 1.1644 0.2974 0.9878
C15 C 1.10841(13) 0.3255(2) 1.3559(4)
H12 H 1.1077 0.2611 1.4004
H13 H 1.1004 0.3670 1.4646
H14 H 1.1508 0.3393 1.3001
C16 C 0.87360(12) 0.28053(16) 0.5731(3)
H15 H 0.9176 0.2739 0.5191
H16 H 0.8549 0.2177 0.5863
C17 C 0.83274(11) 0.33642(15) 0.4367(3)
C18 C 0.85919(13) 0.40295(18) 0.3153(4)
H17 H 0.9045 0.4129 0.3147
C19 C 0.81976(16) 0.45504(19) 0.1949(4)
H18 H 0.8382 0.5000 0.1117
C20 C 0.75392(15) 0.4413(2) 0.1962(4)
H19 H 0.7269 0.4775 0.1154
C21 C 0.72728(13) 0.37535(19) 0.3145(4)
H20 H 0.6819 0.3657 0.3144
C22 C 0.76627(11) 0.32306(17) 0.4333(4)
H21 H 0.7474 0.2773 0.5139
C23 C 1.02660(13) 0.13311(18) 0.7287(4)
H22 H 1.0627 0.1208 0.8160
H23 H 1.0369 0.1091 0.6007
H24 H 0.9876 0.1025 0.7771
N1 N 0.98924(9) 0.37278(13) 0.8413(3)
H25 H 1.0212(14) 0.413(2) 0.823(4)
N2 N 0.95792(9) 0.17024(13) 1.1221(3)
N3 N 0.88824(8) 0.25604(12) 0.9254(3)
O1 O 0.91829(8) 0.47937(10) 0.7301(2)
O2 O 0.91976(8) 0.06199(11) 1.3320(2)
O3 O 0.77898(7) 0.23317(12) 0.9248(2)
O4 O 1.01570(8) 0.23109(11) 0.7175(2)
loop_
_geom_bond_atom_site_label_1
_geom_bond_atom_site_label_2
_geom_bond_site_symmetry_1
_geom_bond_site_symmetry_2
C1 C11 1_555 1_555
C2 C3 1_555 1_555
C3 N2 1_555 1_555
C4 C9 1_555 1_555
C5 H1 1_555 1_555
C6 C5 1_555 1_555
H2 C6 1_555 1_555
C7 C6 1_555 1_555
H3 C7 1_555 1_555
C8 C7 1_555 1_555
H4 C8 1_555 1_555
C9 C8 1_555 1_555
C10 C9 1_555 1_555
C11 H5 1_555 1_555
C12 C2 1_555 1_555
H6 C12 1_555 1_555
C13 C12 1_555 1_555
H7 C13 1_555 1_555
H8 C13 1_555 1_555
C14 C12 1_555 1_555
H9 C14 1_555 1_555
H10 C14 1_555 1_555
H11 C14 1_555 1_555
C15 C13 1_555 1_555
H12 C15 1_555 1_555
H13 C15 1_555 1_555
H14 C15 1_555 1_555
C16 C11 1_555 1_555
H15 C16 1_555 1_555
H16 C16 1_555 1_555
C17 C16 1_555 1_555
C18 C17 1_555 1_555
H17 C18 1_555 1_555
C19 C18 1_555 1_555
H18 C19 1_555 1_555
C20 C19 1_555 1_555
H19 C20 1_555 1_555
C21 C20 1_555 1_555
H20 C21 1_555 1_555
C22 C17 1_555 1_555
H21 C22 1_555 1_555
C23 H22 1_555 1_555
H23 C23 1_555 1_555
H24 C23 1_555 1_555
N1 C1 1_555 1_555
H25 N1 1_555 1_555
N2 C4 1_555 1_555
N3 C3 1_555 1_555
O1 C1 1_555 1_555
O2 C4 1_555 1_555
O3 C10 1_555 1_555
O4 C2 1_555 1_555
C2 N1 1_555 1_555
C5 O2 1_555 1_555
C10 N3 1_555 1_555
C11 N3 1_555 1_555
C21 C22 1_555 1_555
C23 O4 1_555 1_555

#END
