
#######################################################################
#
#                 Cambridge Crystallographic Data Centre
#                                CCDC 
#
#######################################################################
#
# If this CIF has been generated from an entry in the Cambridge 
# Structural Database, then it will include bibliographic, chemical, 
# crystal, experimental, refinement or atomic coordinate data resulting 
# from the CCDC's data processing and validation procedures.
#
#######################################################################

data_LIKRII01
_chemical_name_common            
N'-(3-bromobenzylidene)pyrazine-2-carbohydrazide
_chemical_formula_moiety         'C12 H9 Br1 N4 O1'
_chemical_name_systematic        
'3-Bromobenzaldehyde (pyrazin-2-ylcarbonyl)hydrazone'
_symmetry_cell_setting           monoclinic
_symmetry_space_group_name_H-M   'C 2/c'
_symmetry_Int_Tables_number      15
_space_group_name_Hall           '-C 2yn'
loop_
_symmetry_equiv_pos_site_id
_symmetry_equiv_pos_as_xyz
1 x,y,z
2 1/2+x,1/2+y,z
3 -x,y,1/2-z
4 1/2-x,1/2+y,1/2-z
5 -x,-y,-z
6 1/2-x,1/2-y,-z
7 x,-y,1/2+z
8 1/2+x,1/2-y,1/2+z
_cell_length_a                   14.1379(10)
_cell_length_b                   6.1800(6)
_cell_length_c                   27.425(2)
_cell_angle_alpha                90
_cell_angle_beta                 103.357(5)
_cell_angle_gamma                90
_cell_volume                     2331.37
_exptl_crystal_colour            colorless
_exptl_crystal_description       block
_cell_formula_units_Z            8
loop_
_atom_site_label
_atom_site_type_symbol
_atom_site_fract_x
_atom_site_fract_y
_atom_site_fract_z
Br1 Br 0.62257(3) 0.55823(8) 0.731447(17)
O1 O 0.3450(2) 0.1762(5) 0.48590(11)
N1 N 0.1516(3) 0.1861(7) 0.34450(14)
N2 N 0.2333(2) 0.5617(6) 0.39419(13)
N3 N 0.3518(2) 0.5446(6) 0.48479(13)
H1 H 0.3323 0.6616 0.4670
N4 N 0.4135(2) 0.5660(6) 0.53173(13)
C1 C 0.2523(3) 0.3650(7) 0.41420(16)
C2 C 0.2116(3) 0.1773(8) 0.39010(17)
H2 H 0.2264 0.0413 0.4062
C3 C 0.1328(3) 0.3826(8) 0.32398(18)
H3 H 0.0907 0.3947 0.2916
C4 C 0.1728(3) 0.5687(8) 0.34851(16)
H4 H 0.1571 0.7049 0.3326
C5 C 0.3205(3) 0.3490(8) 0.46545(17)
C6 C 0.4394(3) 0.7635(8) 0.54318(16)
H5 H 0.4163 0.8740 0.5193
C7 C 0.5024(3) 0.8238(8) 0.59114(15)
C8 C 0.5279(3) 0.6782(8) 0.63107(16)
H6 H 0.5044 0.5337 0.6278
C9 C 0.5882(3) 0.7486(7) 0.67560(16)
C10 C 0.6245(3) 0.9587(8) 0.68098(17)
H7 H 0.6671 1.0039 0.7113
C11 C 0.5971(3) 1.0998(8) 0.64126(17)
H8 H 0.6209 1.2441 0.6446
C12 C 0.5363(3) 1.0361(8) 0.59693(17)
H9 H 0.5174 1.1367 0.5703
loop_
_geom_bond_atom_site_label_1
_geom_bond_atom_site_label_2
_geom_bond_site_symmetry_1
_geom_bond_site_symmetry_2
Br1 C9 1_555 1_555
O1 C5 1_555 1_555
N1 C2 1_555 1_555
N2 C1 1_555 1_555
N3 H1 1_555 1_555
N4 N3 1_555 1_555
C1 C2 1_555 1_555
C2 H2 1_555 1_555
C3 N1 1_555 1_555
H3 C3 1_555 1_555
C4 N2 1_555 1_555
H4 C4 1_555 1_555
C5 N3 1_555 1_555
C6 N4 1_555 1_555
H5 C6 1_555 1_555
C7 C6 1_555 1_555
C8 C7 1_555 1_555
H6 C8 1_555 1_555
C9 C8 1_555 1_555
C10 C9 1_555 1_555
H7 C10 1_555 1_555
C11 C10 1_555 1_555
H8 C11 1_555 1_555
C12 C7 1_555 1_555
H9 C12 1_555 1_555
C1 C5 1_555 1_555
C3 C4 1_555 1_555
C11 C12 1_555 1_555

#END
