
#######################################################################
#
#                 Cambridge Crystallographic Data Centre
#                                CCDC 
#
#######################################################################
#
# If this CIF has been generated from an entry in the Cambridge 
# Structural Database, then it will include bibliographic, chemical, 
# crystal, experimental, refinement or atomic coordinate data resulting 
# from the CCDC's data processing and validation procedures.
#
#######################################################################

data_LIKVUX
_chemical_formula_moiety         'C44 H31 N5 O5,2(C7 H8)'
_chemical_name_systematic        
'5-(2-((5-(Hydroxy(4-nitro-5-benzoyl-1H-pyrrol-3-yl)phenylmethyl)-1H-pyrrol-2-yl)(phenyl(methylidene))-2H-pyrrol-5-yl)(phenyl)methylidene)-1,5-dihydro-2H-pyrrol-2-one toluene solvate'
_symmetry_cell_setting           triclinic
_symmetry_space_group_name_H-M   'P -1'
_symmetry_Int_Tables_number      2
_space_group_name_Hall           '-P 1'
loop_
_symmetry_equiv_pos_site_id
_symmetry_equiv_pos_as_xyz
1 x,y,z
2 -x,-y,-z
_cell_length_a                   11.6411(13)
_cell_length_b                   13.4423(16)
_cell_length_c                   16.3028(19)
_cell_angle_alpha                87.924(3)
_cell_angle_beta                 84.528(2)
_cell_angle_gamma                65.713(2)
_cell_volume                     2314.72
_exptl_crystal_colour            purple
_exptl_crystal_description       cubic
_cell_formula_units_Z            2
_exptl_crystal_recrystallization_method n-hexane/toluene
loop_
_atom_site_label
_atom_site_type_symbol
_atom_site_fract_x
_atom_site_fract_y
_atom_site_fract_z
N1 N 0.3822(3) 0.5021(3) -0.04382(19)
H1 H 0.4238 0.4937 -0.0929
N2 N 0.5909(3) 0.4054(3) 0.28662(19)
H2 H 0.5807 0.3562 0.2575
N3 N 0.6437(3) 0.1829(3) 0.29896(18)
N4 N 0.4545(3) 0.2249(3) 0.19674(19)
H3 H 0.4682 0.2583 0.2377
N5 N 0.1605(3) 0.6550(3) 0.1202(2)
O1 O 0.3087(3) 0.6973(2) -0.12837(17)
O2 O 0.4965(2) 0.5556(2) 0.20296(16)
O3 O 0.3205(2) 0.4261(2) 0.22496(15)
H4 H 0.2840 0.4942 0.2312
O4 O 0.1563(3) 0.6401(2) 0.19512(18)
O5 O 0.0823(2) 0.7356(2) 0.08688(17)
C1 C 0.2582(4) 0.5749(3) 0.0669(2)
C2 C 0.3057(3) 0.5995(3) -0.0089(2)
C3 C 0.2953(4) 0.7006(3) -0.0540(3)
C4 C 0.5486(4) 0.5132(3) 0.2664(3)
C5 C 0.5787(4) 0.5646(3) 0.3337(2)
H5 H 0.5577 0.6405 0.3388
C6 C 0.6405(4) 0.4879(3) 0.3866(2)
H6 H 0.6720 0.5003 0.4351
C7 C 0.6525(4) 0.3821(4) 0.3590(2)
C8 C 0.7112(4) 0.2832(4) 0.3931(2)
C9 C 0.7118(4) 0.1835(3) 0.3612(2)
C10 C 0.7809(4) 0.0751(3) 0.3905(2)
H7 H 0.8352 0.0550 0.4338
C11 C 0.7540(3) 0.0072(3) 0.3447(2)
H8 H 0.7855 -0.0699 0.3497
C12 C 0.6687(4) 0.0735(3) 0.2870(2)
C13 C 0.6127(4) 0.0411(3) 0.2278(2)
C14 C 0.5177(4) 0.1147(3) 0.1804(2)
C15 C 0.4674(4) 0.0966(3) 0.1103(2)
H9 H 0.4915 0.0284 0.0836
C16 C 0.3756(4) 0.1964(3) 0.0869(2)
H10 H 0.3264 0.2083 0.0413
C17 C 0.3690(4) 0.2750(3) 0.1419(2)
C18 C 0.2846(3) 0.3957(3) 0.1515(2)
C19 C 0.3098(3) 0.4604(3) 0.0789(2)
C20 C 0.3857(3) 0.4189(3) 0.0074(2)
H11 H 0.4333 0.3436 -0.0044
C21 C 0.2734(4) 0.8018(3) -0.0079(2)
C22 C 0.2225(4) 0.9005(4) -0.0492(3)
H12 H 0.2011 0.9025 -0.1043
C23 C 0.2031(4) 0.9961(4) -0.0094(3)
H13 H 0.1666 1.0640 -0.0370
C24 C 0.2363(4) 0.9938(4) 0.0696(3)
H14 H 0.2240 1.0598 0.0958
C25 C 0.2873(4) 0.8959(4) 0.1111(3)
H15 H 0.3094 0.8948 0.1658
C26 C 0.3062(3) 0.8002(3) 0.0730(3)
H16 H 0.3413 0.7328 0.1015
C27 C 0.7794(4) 0.2760(3) 0.4673(2)
C28 C 0.7120(4) 0.3129(3) 0.5419(3)
H17 H 0.6222 0.3422 0.5464
C29 C 0.7759(5) 0.3072(4) 0.6109(3)
H18 H 0.7295 0.3325 0.6627
C30 C 0.9060(5) 0.2652(4) 0.6047(3)
H19 H 0.9491 0.2621 0.6520
C31 C 0.9730(4) 0.2283(4) 0.5311(3)
H20 H 1.0628 0.1992 0.5267
C32 C 0.9096(4) 0.2332(3) 0.4627(3)
H21 H 0.9567 0.2066 0.4113
C33 C 0.6510(4) -0.0771(3) 0.2119(2)
C34 C 0.5577(4) -0.1170(3) 0.2120(2)
H22 H 0.4713 -0.0691 0.2239
C35 C 0.5895(4) -0.2257(3) 0.1947(3)
H23 H 0.5251 -0.2519 0.1947
C36 C 0.7144(4) -0.2958(4) 0.1777(3)
H24 H 0.7361 -0.3702 0.1652
C37 C 0.8080(4) -0.2582(4) 0.1786(3)
H25 H 0.8942 -0.3069 0.1675
C38 C 0.7765(4) -0.1494(3) 0.1958(2)
H26 H 0.8414 -0.1240 0.1965
C39 C 0.1463(4) 0.4107(3) 0.1610(3)
C40 C 0.0782(4) 0.4259(3) 0.2380(3)
H27 H 0.1147 0.4351 0.2852
C41 C -0.0419(4) 0.4278(4) 0.2462(3)
H28 H -0.0865 0.4374 0.2993
C42 C -0.0972(4) 0.4162(3) 0.1798(3)
H29 H -0.1795 0.4169 0.1864
C43 C -0.0326(4) 0.4033(4) 0.1024(3)
H30 H -0.0713 0.3959 0.0556
C44 C 0.0881(4) 0.4010(3) 0.0926(3)
H31 H 0.1312 0.3929 0.0391
C45 C 0.0817(4) 0.0747(4) 0.2636(3)
C46 C 0.1365(4) 0.1489(4) 0.2618(3)
H32 H 0.1142 0.2061 0.2224
C47 C 0.2236(5) 0.1406(4) 0.3171(3)
H33 H 0.2597 0.1926 0.3152
C48 C 0.2584(5) 0.0585(5) 0.3745(3)
H34 H 0.3173 0.0533 0.4127
C49 C 0.2049(5) -0.0165(5) 0.3748(3)
H35 H 0.2285 -0.0747 0.4133
C50 C 0.1184(5) -0.0080(4) 0.3206(3)
H36 H 0.0829 -0.0605 0.3224
C51 C -0.0177(4) 0.0880(4) 0.2057(3)
H37 H -0.0107 0.0159 0.1900
H38 H -0.0048 0.1271 0.1563
H39 H -0.1020 0.1295 0.2333
C52 C 0.6343(6) 0.7575(5) 0.4734(5)
C53 C 0.6251(6) 0.7051(6) 0.5472(4)
H40 H 0.5536 0.7342 0.5864
C54 C 0.7264(8) 0.6084(7) 0.5598(4)
H41 H 0.7207 0.5719 0.6100
C55 C 0.8298(7) 0.5603(5) 0.5109(5)
H42 H 0.8957 0.4927 0.5239
C56 C 0.8350(6) 0.6182(6) 0.4362(4)
H43 H 0.9077 0.5890 0.3980
C57 C 0.7387(6) 0.7139(5) 0.4187(3)
H44 H 0.7440 0.7504 0.3684
C58 C 0.5311(5) 0.8568(5) 0.4567(4)
H45 H 0.5633 0.9083 0.4309
H46 H 0.4803 0.8881 0.5083
H47 H 0.4783 0.8426 0.4193
loop_
_geom_bond_atom_site_label_1
_geom_bond_atom_site_label_2
_geom_bond_site_symmetry_1
_geom_bond_site_symmetry_2
N1 H1 1_555 1_555
N2 H2 1_555 1_555
N3 C9 1_555 1_555
N4 H3 1_555 1_555
N5 O4 1_555 1_555
O1 C3 1_555 1_555
O2 C4 1_555 1_555
O3 H4 1_555 1_555
O5 N5 1_555 1_555
C1 N5 1_555 1_555
C2 N1 1_555 1_555
C3 C2 1_555 1_555
C4 N2 1_555 1_555
C5 C4 1_555 1_555
H5 C5 1_555 1_555
C6 C5 1_555 1_555
H6 C6 1_555 1_555
C7 N2 1_555 1_555
C8 C7 1_555 1_555
C9 C8 1_555 1_555
C10 C9 1_555 1_555
H7 C10 1_555 1_555
C11 C10 1_555 1_555
H8 C11 1_555 1_555
C12 N3 1_555 1_555
C13 C12 1_555 1_555
C14 N4 1_555 1_555
C15 C14 1_555 1_555
H9 C15 1_555 1_555
C16 C15 1_555 1_555
H10 C16 1_555 1_555
C17 N4 1_555 1_555
C18 O3 1_555 1_555
C19 C1 1_555 1_555
C20 N1 1_555 1_555
H11 C20 1_555 1_555
C21 C3 1_555 1_555
C22 C21 1_555 1_555
H12 C22 1_555 1_555
C23 C22 1_555 1_555
H13 C23 1_555 1_555
C24 C23 1_555 1_555
H14 C24 1_555 1_555
C25 C24 1_555 1_555
H15 C25 1_555 1_555
C26 C21 1_555 1_555
H16 C26 1_555 1_555
C27 C8 1_555 1_555
C28 C27 1_555 1_555
H17 C28 1_555 1_555
C29 C28 1_555 1_555
H18 C29 1_555 1_555
C30 C29 1_555 1_555
H19 C30 1_555 1_555
C31 C30 1_555 1_555
H20 C31 1_555 1_555
C32 C27 1_555 1_555
H21 C32 1_555 1_555
C33 C13 1_555 1_555
C34 C33 1_555 1_555
H22 C34 1_555 1_555
C35 C34 1_555 1_555
H23 C35 1_555 1_555
C36 C35 1_555 1_555
H24 C36 1_555 1_555
C37 C36 1_555 1_555
H25 C37 1_555 1_555
C38 C33 1_555 1_555
H26 C38 1_555 1_555
C39 C18 1_555 1_555
C40 C39 1_555 1_555
H27 C40 1_555 1_555
C41 C40 1_555 1_555
H28 C41 1_555 1_555
C42 C41 1_555 1_555
H29 C42 1_555 1_555
C43 C42 1_555 1_555
H30 C43 1_555 1_555
C44 C39 1_555 1_555
H31 C44 1_555 1_555
C45 C46 1_555 1_555
C46 H32 1_555 1_555
C47 C46 1_555 1_555
H33 C47 1_555 1_555
C48 C47 1_555 1_555
H34 C48 1_555 1_555
C49 C48 1_555 1_555
H35 C49 1_555 1_555
C50 C45 1_555 1_555
H36 C50 1_555 1_555
C51 C45 1_555 1_555
H37 C51 1_555 1_555
H38 C51 1_555 1_555
H39 C51 1_555 1_555
C52 C53 1_555 1_555
C53 H40 1_555 1_555
C54 C53 1_555 1_555
H41 C54 1_555 1_555
C55 C54 1_555 1_555
H42 C55 1_555 1_555
C56 C55 1_555 1_555
H43 C56 1_555 1_555
C57 C52 1_555 1_555
H44 C57 1_555 1_555
C58 C52 1_555 1_555
H45 C58 1_555 1_555
H46 C58 1_555 1_555
H47 C58 1_555 1_555
C1 C2 1_555 1_555
C6 C7 1_555 1_555
C11 C12 1_555 1_555
C13 C14 1_555 1_555
C16 C17 1_555 1_555
C17 C18 1_555 1_555
C18 C19 1_555 1_555
C19 C20 1_555 1_555
C25 C26 1_555 1_555
C31 C32 1_555 1_555
C37 C38 1_555 1_555
C43 C44 1_555 1_555
C49 C50 1_555 1_555
C56 C57 1_555 1_555

#END
