
#######################################################################
#
#                 Cambridge Crystallographic Data Centre
#                                CCDC 
#
#######################################################################
#
# If this CIF has been generated from an entry in the Cambridge 
# Structural Database, then it will include bibliographic, chemical, 
# crystal, experimental, refinement or atomic coordinate data resulting 
# from the CCDC's data processing and validation procedures.
#
#######################################################################

data_LILBAM
_chemical_formula_moiety         'C52 H32 N4 O8,2(C3 H7 N1 O1)'
_chemical_name_systematic        
'dibenzyl 2,8,19,25-tetraoxa-35,38,40,43-tetraazanonacyclo[24.8.4.4^9,18^.1^3,7^.1^20,24^.0^12,42^.0^15,41^.0^29,37^.0^32,36^]tetratetraconta-1(34),3(44),4,6,9,11,13,15,17,20(39),21,23,26,28,30,32,35,37,40,42-icosaene-5,22-dicarboxylate N,N-dimethylformamide solvate'
_symmetry_cell_setting           triclinic
_symmetry_space_group_name_H-M   'P -1'
_symmetry_Int_Tables_number      2
_space_group_name_Hall           '-P 1'
loop_
_symmetry_equiv_pos_site_id
_symmetry_equiv_pos_as_xyz
1 x,y,z
2 -x,-y,-z
_cell_length_a                   13.0550(18)
_cell_length_b                   14.282(3)
_cell_length_c                   15.477(3)
_cell_angle_alpha                83.907(11)
_cell_angle_beta                 66.726(8)
_cell_angle_gamma                66.957(9)
_cell_volume                     2435.36
_exptl_crystal_colour            colorless
_exptl_crystal_description       Prism
_cell_formula_units_Z            2
loop_
_atom_site_label
_atom_site_type_symbol
_atom_site_fract_x
_atom_site_fract_y
_atom_site_fract_z
O1 O 0.14816(12) 0.31764(11) 0.53157(10)
O2 O 0.67596(14) 0.37223(13) 0.25044(10)
O3 O 0.62722(13) 0.10475(11) 0.13635(11)
O4 O 0.01656(13) 0.34141(10) 0.28176(12)
O5 O 0.37474(16) 0.55423(12) 0.09904(13)
O6 O 0.34465(14) 0.42545(11) 0.05526(11)
O7 O 0.20126(18) 0.63250(13) 0.36057(14)
O8 O 0.11149(13) 0.65076(10) 0.25956(11)
N1 N 0.32640(14) 0.33454(12) 0.51031(12)
N2 N 0.54039(15) 0.35697(12) 0.39684(12)
N3 N 0.44055(15) 0.10481(12) 0.15727(12)
N4 N 0.19252(15) 0.20014(12) 0.21695(12)
C1 C 0.22977(17) 0.31895(14) 0.56599(14)
C2 C 0.20137(19) 0.29676(16) 0.66135(15)
H1 H 0.1334 0.2821 0.6962
C3 C 0.2779(2) 0.29777(16) 0.70031(15)
H2 H 0.2634 0.2820 0.7628
C4 C 0.37886(19) 0.32244(15) 0.64686(15)
C5 C 0.4535(2) 0.33517(18) 0.68767(16)
H3 H 0.4370 0.3254 0.7514
C6 C 0.5478(2) 0.36122(19) 0.63491(17)
H4 H 0.5931 0.3728 0.6632
C7 C 0.57865(19) 0.37117(16) 0.53562(16)
C8 C 0.6795(2) 0.39429(17) 0.47748(17)
H5 H 0.7257 0.4071 0.5041
C9 C 0.70952(19) 0.39793(17) 0.38286(16)
H6 H 0.7745 0.4146 0.3436
C10 C 0.63715(18) 0.37516(15) 0.34698(14)
C11 C 0.50943(18) 0.35570(14) 0.49204(14)
C12 C 0.40220(18) 0.33673(14) 0.55047(14)
C13 C 0.61374(18) 0.34162(17) 0.21061(14)
C14 C 0.53309(18) 0.41505(16) 0.17866(15)
H7 H 0.5151 0.4838 0.1881
C15 C 0.47882(18) 0.38412(15) 0.13174(14)
C16 C 0.50429(17) 0.28101(15) 0.11880(14)
H8 H 0.4671 0.2606 0.0883
C17 C 0.58589(17) 0.20958(15) 0.15221(14)
C18 C 0.64233(18) 0.23903(17) 0.19785(14)
H9 H 0.6981 0.1906 0.2192
C19 C 0.55651(19) 0.05642(15) 0.13190(14)
C20 C 0.6214(2) -0.04712(16) 0.10032(16)
H10 H 0.7039 -0.0782 0.0859
C21 C 0.5583(2) -0.09968(15) 0.09186(16)
H11 H 0.5980 -0.1679 0.0705
C22 C 0.4325(2) -0.05101(15) 0.11536(14)
C23 C 0.3624(2) -0.10104(16) 0.10365(15)
H12 H 0.3997 -0.1689 0.0812
C24 C 0.2439(2) -0.05150(16) 0.12462(15)
H13 H 0.2008 -0.0847 0.1141
C25 C 0.1828(2) 0.05127(15) 0.16275(14)
C26 C 0.0575(2) 0.10401(16) 0.18893(15)
H14 H 0.0122 0.0724 0.1796
C27 C 0.0022(2) 0.20122(16) 0.22787(16)
H15 H -0.0803 0.2375 0.2448
C28 C 0.07605(18) 0.24424(14) 0.24132(15)
C29 C 0.24780(18) 0.10327(14) 0.17720(13)
C30 C 0.37677(18) 0.05175(14) 0.14951(13)
C31 C 0.07016(17) 0.37582(14) 0.32740(15)
C32 C 0.08906(17) 0.46474(14) 0.29833(15)
H16 H 0.0733 0.4970 0.2469
C33 C 0.13261(17) 0.50445(14) 0.34864(14)
C34 C 0.15766(17) 0.45548(14) 0.42476(14)
H17 H 0.1876 0.4820 0.4574
C35 C 0.13734(16) 0.36674(14) 0.45119(14)
C36 C 0.09274(17) 0.32647(14) 0.40340(15)
H18 H 0.0782 0.2673 0.4221
C37 C 0.39539(19) 0.46429(16) 0.09460(16)
C38 C 0.2586(2) 0.49889(16) 0.02049(17)
H19 H 0.2984 0.5344 -0.0301
H20 H 0.1955 0.5487 0.0706
C39 C 0.20511(18) 0.44335(15) -0.01497(15)
C40 C 0.1615(2) 0.48502(17) -0.08513(15)
H21 H 0.1734 0.5427 -0.1136
C41 C 0.1010(2) 0.44146(19) -0.11257(16)
H22 H 0.0707 0.4707 -0.1584
C42 C 0.0852(2) 0.35408(18) -0.07203(17)
H23 H 0.0440 0.3249 -0.0904
C43 C 0.1310(2) 0.31061(17) -0.00410(16)
H24 H 0.1225 0.2511 0.0220
C44 C 0.18967(19) 0.35560(16) 0.02520(16)
H25 H 0.2187 0.3269 0.0718
C45 C 0.15309(18) 0.60123(15) 0.32465(15)
C46 C 0.1322(2) 0.74499(16) 0.23435(19)
H26 H 0.2179 0.7299 0.2025
H27 H 0.1013 0.7880 0.2906
C47 C 0.06826(19) 0.79870(14) 0.17051(16)
C48 C 0.1249(2) 0.77880(16) 0.07359(17)
H28 H 0.2028 0.7298 0.0477
C49 C 0.0665(2) 0.83124(18) 0.01513(17)
H29 H 0.1050 0.8173 -0.0497
C50 C -0.0490(2) 0.90429(18) 0.05331(18)
H30 H -0.0881 0.9398 0.0140
C51 C -0.1066(2) 0.92469(16) 0.14918(18)
H31 H -0.1845 0.9737 0.1747
C52 C -0.0481(2) 0.87208(16) 0.20777(17)
H32 H -0.0872 0.8860 0.2726
N5 N 0.1635(2) -0.0466(2) 0.47208(18)
O9 O 0.0513(4) 0.1205(3) 0.5343(3)
C53 C 0.1666(10) -0.0240(10) 0.3835(6)
H33 H 0.0886 0.0236 0.3872
H34 H 0.1877 -0.0852 0.3488
H35 H 0.2256 0.0055 0.3520
C54 C 0.2062(11) -0.1383(7) 0.4930(10)
H36 H 0.2132 -0.1394 0.5526
H37 H 0.2844 -0.1734 0.4452
H38 H 0.1533 -0.1715 0.4970
C55 C 0.1040(8) 0.0337(8) 0.5499(8)
H39 H 0.1073 0.0176 0.6088
O11 O 0.6716(2) 0.0490(3) 0.35472(18)
N6 N 0.4867(2) 0.05367(15) 0.37925(15)
C59 C 0.5221(4) -0.0551(2) 0.3722(3)
H47 H 0.4673 -0.0754 0.4255
H48 H 0.6024 -0.0883 0.3712
H49 H 0.5204 -0.0742 0.3153
C60 C 0.3627(3) 0.1168(2) 0.3971(2)
H50 H 0.3400 0.0994 0.3510
H51 H 0.3530 0.1871 0.3934
H52 H 0.3123 0.1060 0.4589
C61 C 0.5646(3) 0.0953(3) 0.37091(18)
H53 H 0.5351 0.1659 0.3780
O10? O 0.0824(9) 0.1020(6) 0.4200(8)
C56? C 0.2222(6) -0.1116(5) 0.3812(4)
H40? H 0.1947 -0.0724 0.3347
H41? H 0.2009 -0.1702 0.3924
H42? H 0.3083 -0.1333 0.3590
C57? C 0.1831(7) -0.0986(5) 0.5492(5)
H43? H 0.2650 -0.1150 0.5417
H44? H 0.1687 -0.1602 0.5532
H45? H 0.1291 -0.0562 0.6059
C58? C 0.1078(5) 0.0497(4) 0.4686(5)
H46? H 0.0824 0.0834 0.5260
loop_
_geom_bond_atom_site_label_1
_geom_bond_atom_site_label_2
_geom_bond_site_symmetry_1
_geom_bond_site_symmetry_2
O1 C1 1_555 1_555
O2 C10 1_555 1_555
O3 C17 1_555 1_555
O4 C28 1_555 1_555
O5 C37 1_555 1_555
O6 C37 1_555 1_555
O7 C45 1_555 1_555
O8 C45 1_555 1_555
N1 C1 1_555 1_555
N2 C10 1_555 1_555
N3 C19 1_555 1_555
N4 C28 1_555 1_555
C1 C2 1_555 1_555
C2 H1 1_555 1_555
C3 C2 1_555 1_555
H2 C3 1_555 1_555
C4 C3 1_555 1_555
C5 C4 1_555 1_555
H3 C5 1_555 1_555
C6 C5 1_555 1_555
H4 C6 1_555 1_555
C7 C6 1_555 1_555
C8 C7 1_555 1_555
H5 C8 1_555 1_555
C9 C8 1_555 1_555
H6 C9 1_555 1_555
C10 C9 1_555 1_555
C11 N2 1_555 1_555
C12 N1 1_555 1_555
C13 O2 1_555 1_555
C14 C13 1_555 1_555
H7 C14 1_555 1_555
C15 C14 1_555 1_555
C16 C15 1_555 1_555
H8 C16 1_555 1_555
C17 C16 1_555 1_555
C18 C13 1_555 1_555
H9 C18 1_555 1_555
C19 O3 1_555 1_555
C20 C19 1_555 1_555
H10 C20 1_555 1_555
C21 C20 1_555 1_555
H11 C21 1_555 1_555
C22 C21 1_555 1_555
C23 C22 1_555 1_555
H12 C23 1_555 1_555
C24 C23 1_555 1_555
H13 C24 1_555 1_555
C25 C24 1_555 1_555
C26 C25 1_555 1_555
H14 C26 1_555 1_555
C27 C26 1_555 1_555
H15 C27 1_555 1_555
C28 C27 1_555 1_555
C29 N4 1_555 1_555
C30 N3 1_555 1_555
C31 O4 1_555 1_555
C32 C31 1_555 1_555
H16 C32 1_555 1_555
C33 C32 1_555 1_555
C34 C33 1_555 1_555
H17 C34 1_555 1_555
C35 O1 1_555 1_555
C36 C31 1_555 1_555
H18 C36 1_555 1_555
C37 C15 1_555 1_555
C38 O6 1_555 1_555
H19 C38 1_555 1_555
H20 C38 1_555 1_555
C39 C38 1_555 1_555
C40 C39 1_555 1_555
H21 C40 1_555 1_555
C41 C40 1_555 1_555
H22 C41 1_555 1_555
C42 C41 1_555 1_555
H23 C42 1_555 1_555
C43 C42 1_555 1_555
H24 C43 1_555 1_555
C44 C39 1_555 1_555
H25 C44 1_555 1_555
C45 C33 1_555 1_555
C46 O8 1_555 1_555
H26 C46 1_555 1_555
H27 C46 1_555 1_555
C47 C46 1_555 1_555
C48 C47 1_555 1_555
H28 C48 1_555 1_555
C49 C48 1_555 1_555
H29 C49 1_555 1_555
C50 C49 1_555 1_555
H30 C50 1_555 1_555
C51 C50 1_555 1_555
H31 C51 1_555 1_555
C52 C47 1_555 1_555
H32 C52 1_555 1_555
N5 C53 1_555 1_555
O9 C55 1_555 1_555
C53 H33 1_555 1_555
H34 C53 1_555 1_555
H35 C53 1_555 1_555
C54 N5 1_555 1_555
H36 C54 1_555 1_555
H37 C54 1_555 1_555
H38 C54 1_555 1_555
C55 N5 1_555 1_555
H39 C55 1_555 1_555
O11 C61 1_555 1_555
N6 C59 1_555 1_555
C59 H47 1_555 1_555
H48 C59 1_555 1_555
H49 C59 1_555 1_555
C60 N6 1_555 1_555
H50 C60 1_555 1_555
H51 C60 1_555 1_555
H52 C60 1_555 1_555
C61 N6 1_555 1_555
H53 C61 1_555 1_555
C4 C12 1_555 1_555
C7 C11 1_555 1_555
C11 C12 1_555 1_555
C17 C18 1_555 1_555
C22 C30 1_555 1_555
C25 C29 1_555 1_555
C29 C30 1_555 1_555
C34 C35 1_555 1_555
C35 C36 1_555 1_555
C43 C44 1_555 1_555
C51 C52 1_555 1_555

#END
