
#######################################################################
#
#                 Cambridge Crystallographic Data Centre
#                                CCDC 
#
#######################################################################
#
# If this CIF has been generated from an entry in the Cambridge 
# Structural Database, then it will include bibliographic, chemical, 
# crystal, experimental, refinement or atomic coordinate data resulting 
# from the CCDC's data processing and validation procedures.
#
#######################################################################

data_LILCAN
_chemical_formula_moiety         'C60 H56 N4 O8,C1 H1 Cl3'
_chemical_name_systematic        
'15,16,34,35-tetrabutoxy-2,10,21,29-tetraoxa-39,42,46,49-tetraazaundecacyclo[28.8.4.4^11,20^.3^3,9^.3^22,28^.0^6,51^.0^14,48^.0^17,47^.0^25,44^.0^33,41^.0^36,40^]dopentaconta-1(38),3(52),4,6,8,11,13,15,17,19,22(45),23,25,27,30,32,34,36,39,41,43,46,48,50-tetracosaene chloroform solvate'
_symmetry_cell_setting           triclinic
_symmetry_space_group_name_H-M   'P -1'
_symmetry_Int_Tables_number      2
_space_group_name_Hall           '-P 1'
loop_
_symmetry_equiv_pos_site_id
_symmetry_equiv_pos_as_xyz
1 x,y,z
2 -x,-y,-z
_cell_length_a                   9.696(2)
_cell_length_b                   13.200(2)
_cell_length_c                   21.769(4)
_cell_angle_alpha                78.988(5)
_cell_angle_beta                 86.783(6)
_cell_angle_gamma                88.478(5)
_cell_volume                     2730.19
_exptl_crystal_colour            colorless
_exptl_crystal_description       block
_cell_formula_units_Z            2
loop_
_atom_site_label
_atom_site_type_symbol
_atom_site_fract_x
_atom_site_fract_y
_atom_site_fract_z
O1 O 0.8867(2) 0.12350(16) -0.10718(9)
O2 O 1.1671(2) 0.12451(15) -0.07644(9)
O3 O 1.1865(2) 0.32094(16) 0.16511(10)
O4 O 0.8765(2) 0.51319(17) 0.42875(9)
O5 O 0.4730(2) 0.69255(17) 0.61963(9)
O6 O 0.2160(2) 0.73765(16) 0.56571(9)
O7 O 0.2671(2) 0.66731(17) 0.28854(9)
O8 O 0.5414(2) 0.39541(17) 0.05443(10)
N1 N 0.7672(2) 0.33335(18) 0.04769(11)
N2 N 1.0277(2) 0.30217(18) 0.09261(11)
N3 N 0.6540(2) 0.58400(18) 0.43028(11)
N4 N 0.4084(2) 0.64661(18) 0.37308(11)
C1 C 0.6427(3) 0.3411(2) 0.02769(14)
C2 C 0.5968(3) 0.2948(2) -0.02047(14)
H1 H 0.5052 0.3015 -0.0315
C3 C 0.6898(3) 0.2402(2) -0.05029(14)
H2 H 0.6632 0.2093 -0.0827
C4 C 0.8277(3) 0.2305(2) -0.03173(13)
C5 C 0.9310(3) 0.1748(2) -0.06225(13)
C6 C 1.0629(3) 0.1694(2) -0.04440(13)
C7 C 1.0990(3) 0.2120(2) 0.00828(13)
C8 C 1.2345(3) 0.2018(2) 0.03051(14)
H3 H 1.3036 0.1685 0.0101
C9 C 1.2629(3) 0.2409(2) 0.08200(14)
H4 H 1.3511 0.2360 0.0971
C10 C 1.1532(3) 0.2890(2) 0.11135(14)
C11 C 0.9995(3) 0.2646(2) 0.04051(13)
C12 C 0.8613(3) 0.2770(2) 0.01865(13)
C13 C 0.9320(4) 0.1668(2) -0.17074(14)
H5 H 1.0320 0.1704 -0.1743
H6 H 0.8943 0.2362 -0.1826
C14 C 0.8827(4) 0.0990(3) -0.21332(15)
H7 H 0.7825 0.0981 -0.2100
H8 H 0.9104 0.1293 -0.2563
C15 C 0.9365(5) -0.0100(3) -0.19929(18)
H9 H 0.9019 -0.0427 -0.1578
H10 H 1.0365 -0.0094 -0.1992
C16 C 0.8944(7) -0.0728(4) -0.2466(2)
H11 H 0.9240 -0.0387 -0.2881
H12 H 0.7957 -0.0793 -0.2440
H13 H 0.9368 -0.1402 -0.2377
C17 C 1.1737(3) 0.0126(2) -0.06042(15)
H14 H 1.0870 -0.0165 -0.0682
H15 H 1.1919 -0.0098 -0.0165
C18 C 1.2896(3) -0.0217(3) -0.10129(16)
H16 H 1.2872 -0.0961 -0.0970
H17 H 1.2743 0.0083 -0.1447
C19 C 1.4310(4) 0.0080(3) -0.0860(2)
H18 H 1.4286 0.0801 -0.0823
H19 H 1.4542 -0.0325 -0.0458
C20 C 1.5419(5) -0.0079(4) -0.1344(3)
H20 H 1.5263 0.0387 -0.1731
H21 H 1.5398 -0.0778 -0.1410
H22 H 1.6305 0.0050 -0.1201
C21 C 1.1022(3) 0.3959(2) 0.18746(14)
C22 C 1.0676(3) 0.4880(2) 0.14658(14)
H23 H 1.0915 0.4969 0.1039
C23 C 0.9987(3) 0.5634(2) 0.17063(13)
H24 H 0.9759 0.6245 0.1439
C24 C 0.9604(3) 0.5516(2) 0.23539(13)
C25 C 0.8877(3) 0.6291(2) 0.26111(14)
H25 H 0.8614 0.6896 0.2346
C26 C 0.8548(3) 0.6179(2) 0.32409(14)
H26 H 0.8070 0.6698 0.3402
C27 C 0.8947(3) 0.5263(2) 0.36387(13)
C28 C 0.9647(3) 0.4487(2) 0.34135(13)
H27 H 0.9897 0.3889 0.3687
C29 C 0.9994(3) 0.4594(2) 0.27626(13)
C30 C 1.0711(3) 0.3810(2) 0.25004(13)
H28 H 1.0966 0.3195 0.2758
C31 C 0.7678(3) 0.5577(2) 0.45840(13)
C32 C 0.7933(3) 0.5672(2) 0.52021(14)
H29 H 0.8780 0.5474 0.5372
C33 C 0.6901(3) 0.6061(2) 0.55404(13)
H30 H 0.7029 0.6132 0.5950
C34 C 0.5625(3) 0.6357(2) 0.52646(13)
C35 C 0.4505(3) 0.6770(2) 0.56045(13)
C36 C 0.3288(3) 0.7023(2) 0.53351(13)
C37 C 0.3104(3) 0.6899(2) 0.47053(13)
C38 C 0.1825(3) 0.7133(2) 0.44247(14)
H31 H 0.1071 0.7349 0.4653
C39 C 0.1704(3) 0.7040(2) 0.38204(14)
H32 H 0.0870 0.7180 0.3628
C40 C 0.2886(3) 0.6724(2) 0.34942(13)
C41 C 0.4205(3) 0.6539(2) 0.43459(12)
C42 C 0.5492(3) 0.6239(2) 0.46382(12)
C43 C 0.4109(5) 0.6154(3) 0.66952(15)
H33 H 0.4666 0.5525 0.6748
H34 H 0.3193 0.5994 0.6587
C44 C 0.4017(10) 0.6561(7) 0.7289(4)
H35 H 0.4943 0.6720 0.7385
H36 H 0.3673 0.6019 0.7624
C45 C 0.3112(11) 0.7511(5) 0.7287(3)
H37 H 0.3568 0.8088 0.7016
H38 H 0.2255 0.7405 0.7101
C46 C 0.2775(12) 0.7799(10) 0.7879(6)
H39 H 0.2178 0.8398 0.7820
H40 H 0.3607 0.7952 0.8060
H41 H 0.2314 0.7240 0.8154
C47 C 0.2141(4) 0.8476(2) 0.56345(16)
H42 H 0.2251 0.8840 0.5204
H43 H 0.2891 0.8663 0.5866
C48 C 0.0766(4) 0.8761(3) 0.59251(16)
H44 H 0.0776 0.9485 0.5955
H45 H 0.0660 0.8364 0.6348
C49 C -0.0476(4) 0.8579(3) 0.55674(17)
H46 H -0.0503 0.7853 0.5545
H47 H -0.0371 0.8969 0.5143
C50 C -0.1841(4) 0.8893(4) 0.5869(2)
H48 H -0.2589 0.8775 0.5622
H49 H -0.1823 0.9612 0.5891
H50 H -0.1970 0.8491 0.6284
C51 C 0.3784(3) 0.6527(2) 0.24724(13)
C52 C 0.4836(3) 0.7260(2) 0.23255(14)
H51 H 0.4848 0.7815 0.2532
C53 C 0.5839(3) 0.7149(2) 0.18758(13)
H52 H 0.6537 0.7632 0.1778
C54 C 0.5831(3) 0.6308(2) 0.15563(13)
C55 C 0.6851(3) 0.6159(2) 0.10902(14)
H53 H 0.7585 0.6613 0.1001
C56 C 0.6796(3) 0.5371(2) 0.07669(14)
H54 H 0.7481 0.5286 0.0464
C57 C 0.5680(3) 0.4692(2) 0.09025(14)
C58 C 0.4680(3) 0.4788(2) 0.13522(14)
H55 H 0.3959 0.4323 0.1435
C59 C 0.4737(3) 0.5597(2) 0.16956(13)
C60 C 0.3710(3) 0.5726(2) 0.21694(13)
H56 H 0.2991 0.5262 0.2271
Cl1 Cl 0.73199(15) 0.90627(11) 0.29189(6)
Cl2 Cl 0.4791(2) 0.92995(14) 0.35958(14)
Cl3 Cl 0.7278(3) 0.85426(14) 0.42414(7)
C64 C 0.6308(5) 0.8587(3) 0.3595(2)
H66 H 0.6066 0.7877 0.3578
H57? H 0.3433 0.5785 0.6514
H58? H 0.4824 0.5660 0.6852
C61? C 0.349(2) 0.6497(15) 0.7182(9)
H59? H 0.3485 0.5923 0.7535
H60? H 0.2533 0.6642 0.7083
C62? C 0.401(2) 0.7453(11) 0.7422(6)
H61? H 0.4974 0.7289 0.7507
H62? H 0.4032 0.8004 0.7056
C63? C 0.353(3) 0.792(2) 0.7904(12)
H63? H 0.2864 0.8446 0.7753
H64? H 0.4281 0.8219 0.8069
H65? H 0.3096 0.7412 0.8229
loop_
_geom_bond_atom_site_label_1
_geom_bond_atom_site_label_2
_geom_bond_site_symmetry_1
_geom_bond_site_symmetry_2
O1 C5 1_555 1_555
O2 C6 1_555 1_555
O3 C10 1_555 1_555
O4 C27 1_555 1_555
O5 C35 1_555 1_555
O6 C36 1_555 1_555
O7 C40 1_555 1_555
O8 C1 1_555 1_555
N1 C1 1_555 1_555
N2 C10 1_555 1_555
N3 C31 1_555 1_555
N4 C40 1_555 1_555
C1 C2 1_555 1_555
C2 H1 1_555 1_555
C3 C2 1_555 1_555
H2 C3 1_555 1_555
C4 C3 1_555 1_555
C5 C4 1_555 1_555
C6 C5 1_555 1_555
C7 C6 1_555 1_555
C8 C7 1_555 1_555
H3 C8 1_555 1_555
C9 C8 1_555 1_555
H4 C9 1_555 1_555
C10 C9 1_555 1_555
C11 N2 1_555 1_555
C12 N1 1_555 1_555
C13 O1 1_555 1_555
H5 C13 1_555 1_555
H6 C13 1_555 1_555
C14 C13 1_555 1_555
H7 C14 1_555 1_555
H8 C14 1_555 1_555
C15 C14 1_555 1_555
H9 C15 1_555 1_555
H10 C15 1_555 1_555
C16 C15 1_555 1_555
H11 C16 1_555 1_555
H12 C16 1_555 1_555
H13 C16 1_555 1_555
C17 O2 1_555 1_555
H14 C17 1_555 1_555
H15 C17 1_555 1_555
C18 C17 1_555 1_555
H16 C18 1_555 1_555
H17 C18 1_555 1_555
C19 C18 1_555 1_555
H18 C19 1_555 1_555
H19 C19 1_555 1_555
C20 C19 1_555 1_555
H20 C20 1_555 1_555
H21 C20 1_555 1_555
H22 C20 1_555 1_555
C21 O3 1_555 1_555
C22 C21 1_555 1_555
H23 C22 1_555 1_555
C23 C22 1_555 1_555
H24 C23 1_555 1_555
C24 C23 1_555 1_555
C25 C24 1_555 1_555
H25 C25 1_555 1_555
C26 C25 1_555 1_555
H26 C26 1_555 1_555
C27 C26 1_555 1_555
C28 C27 1_555 1_555
H27 C28 1_555 1_555
C29 C24 1_555 1_555
C30 C21 1_555 1_555
H28 C30 1_555 1_555
C31 O4 1_555 1_555
C32 C31 1_555 1_555
H29 C32 1_555 1_555
C33 C32 1_555 1_555
H30 C33 1_555 1_555
C34 C33 1_555 1_555
C35 C34 1_555 1_555
C36 C35 1_555 1_555
C37 C36 1_555 1_555
C38 C37 1_555 1_555
H31 C38 1_555 1_555
C39 C38 1_555 1_555
H32 C39 1_555 1_555
C40 C39 1_555 1_555
C41 N4 1_555 1_555
C42 N3 1_555 1_555
C43 O5 1_555 1_555
H33 C43 1_555 1_555
H34 C43 1_555 1_555
C44 C43 1_555 1_555
H35 C44 1_555 1_555
H36 C44 1_555 1_555
C45 C44 1_555 1_555
H37 C45 1_555 1_555
H38 C45 1_555 1_555
C46 C45 1_555 1_555
H39 C46 1_555 1_555
H40 C46 1_555 1_555
H41 C46 1_555 1_555
C47 O6 1_555 1_555
H42 C47 1_555 1_555
H43 C47 1_555 1_555
C48 C47 1_555 1_555
H44 C48 1_555 1_555
H45 C48 1_555 1_555
C49 C48 1_555 1_555
H46 C49 1_555 1_555
H47 C49 1_555 1_555
C50 C49 1_555 1_555
H48 C50 1_555 1_555
H49 C50 1_555 1_555
H50 C50 1_555 1_555
C51 O7 1_555 1_555
C52 C51 1_555 1_555
H51 C52 1_555 1_555
C53 C52 1_555 1_555
H52 C53 1_555 1_555
C54 C53 1_555 1_555
C55 C54 1_555 1_555
H53 C55 1_555 1_555
C56 C55 1_555 1_555
H54 C56 1_555 1_555
C57 O8 1_555 1_555
C58 C57 1_555 1_555
H55 C58 1_555 1_555
C59 C54 1_555 1_555
C60 C51 1_555 1_555
H56 C60 1_555 1_555
Cl1 C64 1_555 1_555
Cl2 C64 1_555 1_555
Cl3 C64 1_555 1_555
C64 H66 1_555 1_555
C4 C12 1_555 1_555
C7 C11 1_555 1_555
C11 C12 1_555 1_555
C28 C29 1_555 1_555
C29 C30 1_555 1_555
C34 C42 1_555 1_555
C37 C41 1_555 1_555
C41 C42 1_555 1_555
C56 C57 1_555 1_555
C58 C59 1_555 1_555
C59 C60 1_555 1_555

#END
