
#######################################################################
#
#                 Cambridge Crystallographic Data Centre
#                                CCDC 
#
#######################################################################
#
# If this CIF has been generated from an entry in the Cambridge 
# Structural Database, then it will include bibliographic, chemical, 
# crystal, experimental, refinement or atomic coordinate data resulting 
# from the CCDC's data processing and validation procedures.
#
#######################################################################

data_LILKUM
_chemical_formula_moiety         'C13 H9 N1 O1 S4,C7 H8'
_chemical_name_systematic        
'4-(N-Phenylamido)tetrathiafulvalene toluene solvate'
_symmetry_cell_setting           triclinic
_symmetry_space_group_name_H-M   'P -1'
_symmetry_Int_Tables_number      2
_space_group_name_Hall           '-P 1'
loop_
_symmetry_equiv_pos_site_id
_symmetry_equiv_pos_as_xyz
1 x,y,z
2 -x,-y,-z
_cell_length_a                   5.577
_cell_length_b                   13.233
_cell_length_c                   13.490
_cell_angle_alpha                89.94
_cell_angle_beta                 80.87
_cell_angle_gamma                85.24
_cell_volume                     979.49
_exptl_crystal_colour            red
_chemical_melting_point          147-150deg.C
_cell_formula_units_Z            2
loop_
_atom_site_label
_atom_site_type_symbol
_atom_site_fract_x
_atom_site_fract_y
_atom_site_fract_z
S1 S 0.3759(8) 0.4604(3) 0.3332(3)
S2 S 0.8112(8) 0.3175(3) 0.3352(3)
S3 S 0.1452(9) 0.3907(4) 0.5534(3)
S4 S 0.5748(9) 0.2485(4) 0.5645(3)
C1 C 0.5229(22) 0.3684(11) 0.3997(10)
C2 C 0.6216(31) 0.4695(11) 0.2367(11)
C3 C 0.8154(30) 0.4043(11) 0.2398(11)
C4 C 0.4397(20) 0.3399(11) 0.4938(10)
C5 C 0.1435(36) 0.3155(13) 0.6573(12)
C6 C 0.3329(39) 0.2525(13) 0.6640(13)
C7 C 0.5819(33) 0.5458(11) 0.1631(13)
O1 O 0.3756(20) 0.5804(8) 0.1505(8)
N1 N 0.7852(26) 0.5772(10) 0.1057(10)
C8 C 0.8037(28) 0.6512(11) 0.0290(10)
C9 C 0.6354(25) 0.6626(11) -0.0375(11)
C10 C 0.6488(29) 0.7396(14) -0.1073(12)
C11 C 0.8352(33) 0.8033(13) -0.1127(13)
C12 C 0.9942(3) 0.7921(13) -0.0476(14)
C13 C 0.9865(27) 0.7165(12) 0.0237(11)
H1 H 0.9557 0.4044 0.1883
H2 H 0.0051 0.3220 0.7099
H3 H 0.3377 0.2094 0.7210
H4 H 0.9286 0.5467 0.1170
H5 H 0.5085 0.6173 -0.0352
H6 H 0.5319 0.7470 -0.1525
H7 H 0.8454 0.8560 -0.1617
H8 H 1.1222 0.8371 -0.0518
H9 H 1.1020 0.7106 0.0697
C14 C 0.3433(81) 1.0211(20) 0.3141(23)
C15 C 0.1880(41) 0.9555(19) 0.2893(19)
C16 C 0.2386(43) 0.9012(17) 0.2021(23)
C17 C 0.4371(64) 0.9128(21) 0.1357(20)
C18 C 0.6017(52) 0.9759(26) 0.1563(28)
C19 C 0.5579(63) 1.0321(21) 0.2440(36)
C20 C 0.2828(69) 1.0793(23) 0.4071(24)
H10 H 0.0410 0.9461 0.3351
H11 H 0.1264 0.8545 0.1866
H12 H 0.4676 0.8753 0.0736
H13 H 0.7462 0.9840 0.1087
H14 H 0.6770 1.0756 0.2595
H15 H 0.4122 1.1215 0.4128
H16 H 0.2629 1.0346 0.4633
H17 H 0.1336 1.1210 0.4063
loop_
_geom_bond_atom_site_label_1
_geom_bond_atom_site_label_2
_geom_bond_site_symmetry_1
_geom_bond_site_symmetry_2
S1 C1 1_555 1_555
S2 C1 1_555 1_555
S3 C4 1_555 1_555
S4 C4 1_555 1_555
C1 C4 1_555 1_555
C2 S1 1_555 1_555
C3 S2 1_555 1_555
C5 S3 1_555 1_555
C6 S4 1_555 1_555
C7 C2 1_555 1_555
O1 C7 1_555 1_555
N1 C7 1_555 1_555
C8 N1 1_555 1_555
C9 C8 1_555 1_555
C10 C9 1_555 1_555
C11 C10 1_555 1_555
C12 C11 1_555 1_555
C13 C8 1_555 1_555
C14 C15 1_555 1_555
C15 C16 1_555 1_555
C16 C17 1_555 1_555
C17 C18 1_555 1_555
C18 C19 1_555 1_555
C19 C14 1_555 1_555
C20 C14 1_555 1_555
H1 C3 1_555 1_555
H2 C5 1_555 1_555
H3 C6 1_555 1_555
H4 N1 1_555 1_555
H5 C9 1_555 1_555
H6 C10 1_555 1_555
H7 C11 1_555 1_555
H8 C12 1_555 1_555
H9 C13 1_555 1_555
H10 C15 1_555 1_555
H11 C16 1_555 1_555
H12 C17 1_555 1_555
H13 C18 1_555 1_555
H14 C19 1_555 1_555
H15 C20 1_555 1_555
H16 C20 1_555 1_555
H17 C20 1_555 1_555
C2 C3 1_555 1_555
C5 C6 1_555 1_555
C12 C13 1_555 1_555

#END
