
#######################################################################
#
#                 Cambridge Crystallographic Data Centre
#                                CCDC 
#
#######################################################################
#
# If this CIF has been generated from an entry in the Cambridge 
# Structural Database, then it will include bibliographic, chemical, 
# crystal, experimental, refinement or atomic coordinate data resulting 
# from the CCDC's data processing and validation procedures.
#
#######################################################################

data_LILLAT
_chemical_formula_moiety         'C13 H9 N1 S5'
_chemical_name_systematic        4-(N-Phenylthioamido)tetrathiafulvalene
_symmetry_cell_setting           monoclinic
_symmetry_space_group_name_H-M   'P 21'
_symmetry_Int_Tables_number      4
_space_group_name_Hall           'P 2yb'
loop_
_symmetry_equiv_pos_site_id
_symmetry_equiv_pos_as_xyz
1 x,y,z
2 -x,1/2+y,-z
_cell_length_a                   6.093
_cell_length_b                   7.322
_cell_length_c                   15.524
_cell_angle_alpha                90
_cell_angle_beta                 97.12
_cell_angle_gamma                90
_cell_volume                     687.231
_exptl_crystal_colour            black
_chemical_melting_point          169-172deg.C
_cell_formula_units_Z            2
loop_
_atom_site_label
_atom_site_type_symbol
_atom_site_fract_x
_atom_site_fract_y
_atom_site_fract_z
S1 S 0.1800(15) 0.4213 0.3100(6)
S2 S 0.6098(14) 0.3167(23) 0.2543(6)
S3 S -0.0188(14) 0.4868(24) 0.1104(6)
S4 S 0.4164(14) 0.4045(20) 0.0532(6)
S5 S 0.1154(14) 0.4958(23) 0.4997(6)
N1 N 0.5257(42) 0.3647(55) 0.5429(21)
C1 C 0.3338(50) 0.3867(55) 0.2205(21)
C2 C 0.4060(47) 0.3827(54) 0.3931(19)
C3 C 0.5987(53) 0.3406(55) 0.3612(21)
C4 C 0.2579(57) 0.4209(63) 0.1427(24)
C5 C 0.0180(60) 0.5446(62) 0.0052(26)
C6 C 0.2144(53) 0.5069(68) -0.0220(23)
C7 C 0.3592(51) 0.4027(61) 0.4792(21)
C8 C 0.5402(52) 0.3693(54) 0.6349(21)
C9 C 0.3699(54) 0.3056(58) 0.6783(21)
C10 C 0.3939(55) 0.2992(57) 0.7661(20)
C11 C 0.5924(48) 0.3641(48) 0.8136(21)
C12 C 0.7562(55) 0.4156(63) 0.7713(22)
C13 C 0.7360(54) 0.4174(65) 0.6803(22)
H1 H 0.6504 0.3277 0.5226
H2 H 0.7295 0.3215 0.4015
H3 H -0.0959 0.6105 -0.0302
H4 H 0.2401 0.5324 -0.0806
H5 H 0.2375 0.2599 0.6453
H6 H 0.2785 0.2519 0.7966
H7 H 0.6073 0.3766 0.8756
H8 H 0.8945 0.4507 0.8035
H9 H 0.8609 0.4461 0.6507
loop_
_geom_bond_atom_site_label_1
_geom_bond_atom_site_label_2
_geom_bond_site_symmetry_1
_geom_bond_site_symmetry_2
S1 C1 1_555 1_555
S2 C1 1_555 1_555
S3 C4 1_555 1_555
S4 C4 1_555 1_555
S5 C7 1_555 1_555
N1 C7 1_555 1_555
C1 C4 1_555 1_555
C2 S1 1_555 1_555
C3 S2 1_555 1_555
C5 S3 1_555 1_555
C6 S4 1_555 1_555
C7 C2 1_555 1_555
C8 N1 1_555 1_555
C9 C8 1_555 1_555
C10 C9 1_555 1_555
C11 C10 1_555 1_555
C12 C11 1_555 1_555
C13 C8 1_555 1_555
H1 N1 1_555 1_555
H2 C3 1_555 1_555
H3 C5 1_555 1_555
H4 C6 1_555 1_555
H5 C9 1_555 1_555
H6 C10 1_555 1_555
H7 C11 1_555 1_555
H8 C12 1_555 1_555
H9 C13 1_555 1_555
C2 C3 1_555 1_555
C5 C6 1_555 1_555
C12 C13 1_555 1_555

#END
