
#######################################################################
#
#                 Cambridge Crystallographic Data Centre
#                                CCDC 
#
#######################################################################
#
# If this CIF has been generated from an entry in the Cambridge 
# Structural Database, then it will include bibliographic, chemical, 
# crystal, experimental, refinement or atomic coordinate data resulting 
# from the CCDC's data processing and validation procedures.
#
#######################################################################

data_LIMDUJ
_chemical_formula_moiety         'C20 H14 N2 O3'
_chemical_name_systematic        
2-(2-nitropyridin-3-yl)-1,3-diphenylprop-2-en-1-one
_symmetry_cell_setting           monoclinic
_symmetry_space_group_name_H-M   'P 21/c'
_symmetry_Int_Tables_number      14
_space_group_name_Hall           '-P 2ybc'
loop_
_symmetry_equiv_pos_site_id
_symmetry_equiv_pos_as_xyz
1 x,y,z
2 -x,1/2+y,1/2-z
3 -x,-y,-z
4 x,1/2-y,1/2+z
_cell_length_a                   12.5226(3)
_cell_length_b                   12.7446(3)
_cell_length_c                   10.8100(2)
_cell_angle_alpha                90
_cell_angle_beta                 107.865(2)
_cell_angle_gamma                90
_cell_volume                     1642.04
_exptl_crystal_colour            colorless
_exptl_crystal_description       needle
_cell_formula_units_Z            4
_exptl_crystal_recrystallization_method 'ethyl acetate/diethyl ether'
loop_
_atom_site_label
_atom_site_type_symbol
_atom_site_fract_x
_atom_site_fract_y
_atom_site_fract_z
C1 C 0.48984(10) 0.30335(10) 0.64839(11)
C2 C 0.37047(10) 0.33740(10) 0.59046(12)
C3 C 0.30169(10) 0.36081(10) 0.67833(11)
O1 O 0.32910(8) 0.34299(9) 0.47248(8)
C4 C 0.56953(11) 0.33486(12) 0.59071(12)
H1 H 0.5505 0.3835 0.5233
C5 C 0.67741(12) 0.29408(14) 0.63331(14)
H2 H 0.7313 0.3172 0.5966
C6 C 0.70476(11) 0.21915(13) 0.73020(13)
H3 H 0.7763 0.1900 0.7565
C7 C 0.62581(12) 0.18740(12) 0.78812(13)
H4 H 0.6443 0.1366 0.8530
C8 C 0.51915(11) 0.23109(11) 0.74961(12)
H5 H 0.4673 0.2121 0.7915
C9 C 0.35117(10) 0.40060(10) 0.79749(11)
H6 H 0.4290 0.4050 0.8218
C10 C 0.30008(10) 0.43813(10) 0.89470(11)
C11 C 0.18046(10) 0.33428(10) 0.62642(11)
C12 C 0.13763(11) 0.25616(11) 0.68833(12)
H7 H 0.1840 0.2241 0.7628
C13 C 0.02654(12) 0.22628(11) 0.63925(13)
H8 H -0.0035 0.1767 0.6822
C14 C -0.03919(11) 0.27173(11) 0.52467(13)
H9 H -0.1131 0.2493 0.4900
N1 N -0.00146(9) 0.34613(9) 0.46163(10)
C15 C 0.10388(10) 0.37561(10) 0.51493(11)
N2 N 0.13555(8) 0.46714(9) 0.44842(10)
C16 C 0.18782(12) 0.46877(11) 0.86620(13)
H10 H 0.1411 0.4677 0.7807
C17 C 0.14603(13) 0.50083(12) 0.96507(15)
H11 H 0.0709 0.5196 0.9456
C18 C 0.21499(15) 0.50514(13) 1.09228(15)
H12 H 0.1863 0.5266 1.1579
C19 C 0.32669(15) 0.47744(13) 1.12165(14)
H13 H 0.3734 0.4810 1.2070
C20 C 0.36923(12) 0.44432(11) 1.02358(12)
H14 H 0.4446 0.4261 1.0439
O2 O 0.08755(9) 0.47999(8) 0.33276(9)
O3 O 0.20584(8) 0.52698(8) 0.51622(9)
loop_
_geom_bond_atom_site_label_1
_geom_bond_atom_site_label_2
_geom_bond_site_symmetry_1
_geom_bond_site_symmetry_2
C1 C2 1_555 1_555
C2 C3 1_555 1_555
C3 C9 1_555 1_555
O1 C2 1_555 1_555
C4 C1 1_555 1_555
H1 C4 1_555 1_555
C5 C4 1_555 1_555
H2 C5 1_555 1_555
C6 C5 1_555 1_555
H3 C6 1_555 1_555
C7 C6 1_555 1_555
H4 C7 1_555 1_555
C8 C1 1_555 1_555
H5 C8 1_555 1_555
C9 H6 1_555 1_555
C10 C9 1_555 1_555
C11 C3 1_555 1_555
C12 C11 1_555 1_555
H7 C12 1_555 1_555
C13 C12 1_555 1_555
H8 C13 1_555 1_555
C14 C13 1_555 1_555
H9 C14 1_555 1_555
N1 C14 1_555 1_555
C15 C11 1_555 1_555
N2 C15 1_555 1_555
C16 C10 1_555 1_555
H10 C16 1_555 1_555
C17 C16 1_555 1_555
H11 C17 1_555 1_555
C18 C17 1_555 1_555
H12 C18 1_555 1_555
C19 C18 1_555 1_555
H13 C19 1_555 1_555
C20 C10 1_555 1_555
H14 C20 1_555 1_555
O2 N2 1_555 1_555
O3 N2 1_555 1_555
C7 C8 1_555 1_555
N1 C15 1_555 1_555
C19 C20 1_555 1_555

#END
