
#######################################################################
#
#                 Cambridge Crystallographic Data Centre
#                                CCDC 
#
#######################################################################
#
# If this CIF has been generated from an entry in the Cambridge 
# Structural Database, then it will include bibliographic, chemical, 
# crystal, experimental, refinement or atomic coordinate data resulting 
# from the CCDC's data processing and validation procedures.
#
#######################################################################

data_LIMFAR
_chemical_formula_moiety         'C20 H16 N2'
_chemical_name_systematic        3-benzyl-2-phenyl-1H-pyrrolo[2,3-b]pyridine
_symmetry_cell_setting           triclinic
_symmetry_space_group_name_H-M   'P -1'
_symmetry_Int_Tables_number      2
_space_group_name_Hall           '-P 1'
loop_
_symmetry_equiv_pos_site_id
_symmetry_equiv_pos_as_xyz
1 x,y,z
2 -x,-y,-z
_cell_length_a                   10.2371(7)
_cell_length_b                   12.0551(8)
_cell_length_c                   12.5051(9)
_cell_angle_alpha                93.572(6)
_cell_angle_beta                 105.062(6)
_cell_angle_gamma                99.112(6)
_cell_volume                     1462.73
_exptl_crystal_colour            colorless
_exptl_crystal_description       block
_cell_formula_units_Z            4
_exptl_crystal_recrystallization_method 'ethyl acetate/diethyl ether'
loop_
_atom_site_label
_atom_site_type_symbol
_atom_site_fract_x
_atom_site_fract_y
_atom_site_fract_z
C1 C 0.47554(16) 0.71994(13) 0.44164(12)
C2 C 0.51658(17) 0.82737(14) 0.50079(13)
H1 H 0.5823 0.8813 0.4845
C3 C 0.45617(17) 0.85095(14) 0.58449(13)
H2 H 0.4795 0.9223 0.6244
C4 C 0.36017(17) 0.76766(13) 0.60907(13)
H3 H 0.3218 0.7862 0.6660
N1 N 0.31988(14) 0.66305(11) 0.55611(10)
C5 C 0.37738(16) 0.64282(13) 0.47420(12)
N2 N 0.34767(14) 0.54456(11) 0.40535(10)
H4 H 0.2844(18) 0.4816(14) 0.4098(13)
C6 C 0.42114(16) 0.55821(13) 0.32644(12)
C7 C 0.50309(16) 0.66351(13) 0.34773(13)
C8 C 0.61058(17) 0.71194(14) 0.29296(14)
H5 H 0.6136 0.6559 0.2349
H6 H 0.6995 0.7256 0.3479
C9 C 0.58883(16) 0.82033(13) 0.24229(12)
C10 C 0.69954(18) 0.90537(14) 0.24929(14)
H7 H 0.7874 0.8961 0.2876
C11 C 0.68240(19) 1.00395(15) 0.20051(15)
H8 H 0.7583 1.0600 0.2058
C12 C 0.55255(19) 1.01896(14) 0.14399(14)
H9 H 0.5405 1.0847 0.1105
C13 C 0.44058(19) 0.93544(14) 0.13749(13)
H10 H 0.3527 0.9454 0.1002
C14 C 0.45848(17) 0.83740(14) 0.18608(13)
H11 H 0.3823 0.7819 0.1812
C15 C 0.39938(16) 0.46804(13) 0.23482(13)
C16 C 0.38773(16) 0.35493(13) 0.25329(13)
H12 H 0.3920 0.3349 0.3246
C17 C 0.36973(17) 0.27142(14) 0.16654(14)
H13 H 0.3633 0.1961 0.1805
C18 C 0.36124(17) 0.29906(14) 0.05992(14)
H14 H 0.3507 0.2430 0.0022
C19 C 0.36854(18) 0.41079(14) 0.03983(14)
H15 H 0.3606 0.4298 -0.0322
C20 C 0.38761(18) 0.49484(14) 0.12597(13)
H16 H 0.3926 0.5698 0.1113
C21 C 0.01281(16) 0.29836(13) 0.57251(12)
C22 C -0.03167(17) 0.19220(14) 0.51132(13)
H17 H -0.0923 0.1367 0.5312
C23 C 0.01726(18) 0.17213(14) 0.42024(13)
H18 H -0.0097 0.1019 0.3782
C24 C 0.10672(18) 0.25670(14) 0.39114(13)
H19 H 0.1362 0.2406 0.3285
N3 N 0.15324(14) 0.35964(11) 0.44716(10)
C25 C 0.10616(16) 0.37658(13) 0.53580(12)
N4 N 0.14231(14) 0.47321(11) 0.60739(10)
H20 H 0.1952(18) 0.5378(14) 0.5975(13)
C26 C 0.07224(16) 0.46005(13) 0.68836(12)
C27 C -0.00825(16) 0.35443(13) 0.67002(12)
C28 C -0.10011(17) 0.30539(13) 0.73857(14)
H21 H -0.0811 0.3553 0.8068
H22 H -0.1950 0.3038 0.6976
C29 C -0.08475(16) 0.18823(13) 0.76854(12)
C30 C -0.18468(17) 0.09469(14) 0.71865(14)
H23 H -0.2616 0.1039 0.6634
C31 C -0.17185(19) -0.01189(15) 0.74970(15)
H24 H -0.2394 -0.0738 0.7146
C32 C -0.0594(2) -0.02697(15) 0.83247(14)
H25 H -0.0513 -0.0985 0.8543
C33 C 0.04132(19) 0.06564(15) 0.88276(14)
H26 H 0.1177 0.0563 0.9386
C34 C 0.02897(18) 0.17151(14) 0.85044(13)
H27 H 0.0980 0.2328 0.8841
C35 C 0.09669(16) 0.55147(13) 0.77886(12)
C36 C 0.22824(17) 0.61443(13) 0.82544(13)
H28 H 0.3007 0.5997 0.7980
C37 C 0.25198(18) 0.69878(14) 0.91234(13)
H29 H 0.3403 0.7400 0.9431
C38 C 0.14512(18) 0.72206(14) 0.95371(14)
H30 H 0.1614 0.7786 1.0122
C39 C 0.01392(18) 0.66055(14) 0.90739(13)
H31 H -0.0583 0.6759 0.9347
C40 C -0.01003(17) 0.57658(13) 0.82075(13)
H32 H -0.0987 0.5362 0.7899
loop_
_geom_bond_atom_site_label_1
_geom_bond_atom_site_label_2
_geom_bond_site_symmetry_1
_geom_bond_site_symmetry_2
C1 C2 1_555 1_555
C2 H1 1_555 1_555
C3 C2 1_555 1_555
H2 C3 1_555 1_555
C4 C3 1_555 1_555
H3 C4 1_555 1_555
N1 C4 1_555 1_555
C5 C1 1_555 1_555
N2 C5 1_555 1_555
H4 N2 1_555 1_555
C6 N2 1_555 1_555
C7 C1 1_555 1_555
C8 C7 1_555 1_555
H5 C8 1_555 1_555
H6 C8 1_555 1_555
C9 C8 1_555 1_555
C10 C9 1_555 1_555
H7 C10 1_555 1_555
C11 C10 1_555 1_555
H8 C11 1_555 1_555
C12 C11 1_555 1_555
H9 C12 1_555 1_555
C13 C12 1_555 1_555
H10 C13 1_555 1_555
C14 C9 1_555 1_555
H11 C14 1_555 1_555
C15 C6 1_555 1_555
C16 C15 1_555 1_555
H12 C16 1_555 1_555
C17 C16 1_555 1_555
H13 C17 1_555 1_555
C18 C17 1_555 1_555
H14 C18 1_555 1_555
C19 C18 1_555 1_555
H15 C19 1_555 1_555
C20 C15 1_555 1_555
H16 C20 1_555 1_555
C21 C22 1_555 1_555
C22 H17 1_555 1_555
C23 C22 1_555 1_555
H18 C23 1_555 1_555
C24 C23 1_555 1_555
H19 C24 1_555 1_555
N3 C24 1_555 1_555
C25 C21 1_555 1_555
N4 C25 1_555 1_555
H20 N4 1_555 1_555
C26 N4 1_555 1_555
C27 C21 1_555 1_555
C28 C27 1_555 1_555
H21 C28 1_555 1_555
H22 C28 1_555 1_555
C29 C28 1_555 1_555
C30 C29 1_555 1_555
H23 C30 1_555 1_555
C31 C30 1_555 1_555
H24 C31 1_555 1_555
C32 C31 1_555 1_555
H25 C32 1_555 1_555
C33 C32 1_555 1_555
H26 C33 1_555 1_555
C34 C29 1_555 1_555
H27 C34 1_555 1_555
C35 C26 1_555 1_555
C36 C35 1_555 1_555
H28 C36 1_555 1_555
C37 C36 1_555 1_555
H29 C37 1_555 1_555
C38 C37 1_555 1_555
H30 C38 1_555 1_555
C39 C38 1_555 1_555
H31 C39 1_555 1_555
C40 C35 1_555 1_555
H32 C40 1_555 1_555
N1 C5 1_555 1_555
C6 C7 1_555 1_555
C13 C14 1_555 1_555
C19 C20 1_555 1_555
N3 C25 1_555 1_555
C26 C27 1_555 1_555
C33 C34 1_555 1_555
C39 C40 1_555 1_555

#END
