
#######################################################################
#
#                 Cambridge Crystallographic Data Centre
#                                CCDC 
#
#######################################################################
#
# If this CIF has been generated from an entry in the Cambridge 
# Structural Database, then it will include bibliographic, chemical, 
# crystal, experimental, refinement or atomic coordinate data resulting 
# from the CCDC's data processing and validation procedures.
#
#######################################################################

data_LIMGAS
_chemical_formula_moiety         'C18 H21 N1 O1'
_chemical_name_systematic        
9',10'-dihydro-5'H-spiro[cyclohexane-1,6'-phenanthridin]-7'(8'H)-one
_symmetry_cell_setting           monoclinic
_symmetry_space_group_name_H-M   'P 21/n'
_symmetry_Int_Tables_number      14
_space_group_name_Hall           '-P 2yn'
loop_
_symmetry_equiv_pos_site_id
_symmetry_equiv_pos_as_xyz
1 x,y,z
2 1/2-x,1/2+y,1/2-z
3 -x,-y,-z
4 1/2+x,1/2-y,1/2+z
_cell_length_a                   11.0667(3)
_cell_length_b                   10.0284(2)
_cell_length_c                   14.0170(3)
_cell_angle_alpha                90
_cell_angle_beta                 112.696(3)
_cell_angle_gamma                90
_cell_volume                     1435.17
_exptl_crystal_colour            orange
_exptl_crystal_description       plate
_cell_formula_units_Z            4
_exptl_crystal_recrystallization_method 'diethyl ether'
loop_
_atom_site_label
_atom_site_type_symbol
_atom_site_fract_x
_atom_site_fract_y
_atom_site_fract_z
C1 C 0.90234(13) 0.44472(13) 0.59487(11)
H1 H 0.8857 0.4423 0.6579
H2 H 0.9965 0.4438 0.6144
C2 C 0.84471(13) 0.32073(13) 0.53222(10)
H3 H 0.8734 0.2421 0.5754
H4 H 0.8737 0.3131 0.4754
C3 C 0.69673(13) 0.33181(13) 0.49095(10)
H5 H 0.6581 0.2545 0.4485
H6 H 0.6684 0.3327 0.5484
C4 C 0.64917(12) 0.45708(12) 0.42733(9)
C5 C 0.72582(11) 0.56821(12) 0.44416(9)
C6 C 0.84800(12) 0.57314(12) 0.53822(9)
O1 O 0.90450(9) 0.67812(9) 0.57480(7)
C7 C 0.51814(12) 0.45621(12) 0.34582(9)
C8 C 0.42447(13) 0.35739(13) 0.33644(10)
H7 H 0.4440 0.2908 0.3863
C9 C 0.30388(14) 0.35671(15) 0.25484(11)
H8 H 0.2418 0.2922 0.2509
C10 C 0.27678(13) 0.45420(14) 0.17860(10)
H9 H 0.1969 0.4530 0.1224
C11 C 0.36672(12) 0.55243(12) 0.18527(10)
H10 H 0.3475 0.6161 0.1333
C12 C 0.48718(11) 0.55700(11) 0.27006(9)
N1 N 0.57947(10) 0.65169(10) 0.27672(8)
H11 H 0.5499(15) 0.7145(17) 0.2283(13)
C13 C 0.67731(11) 0.69379(11) 0.37780(9)
C14 C 0.61519(11) 0.79026(12) 0.43204(9)
H12 H 0.5380 0.7486 0.4357
H13 H 0.6770 0.8055 0.5023
C15 C 0.57640(13) 0.92474(13) 0.37694(10)
H14 H 0.5044 0.9117 0.3108
H15 H 0.5464 0.9837 0.4182
C16 C 0.69046(14) 0.98978(13) 0.35943(10)
H16 H 0.7595 1.0106 0.4256
H17 H 0.6615 1.0725 0.3216
C17 C 0.74359(13) 0.89710(13) 0.29865(10)
H18 H 0.8173 0.9392 0.2895
H19 H 0.6762 0.8809 0.2308
C18 C 0.78737(11) 0.76450(12) 0.35545(9)
H20 H 0.8606 0.7806 0.4203
H21 H 0.8175 0.7062 0.3140
loop_
_geom_bond_atom_site_label_1
_geom_bond_atom_site_label_2
_geom_bond_site_symmetry_1
_geom_bond_site_symmetry_2
C1 H1 1_555 1_555
H2 C1 1_555 1_555
C2 C1 1_555 1_555
H3 C2 1_555 1_555
H4 C2 1_555 1_555
C3 C2 1_555 1_555
H5 C3 1_555 1_555
H6 C3 1_555 1_555
C4 C3 1_555 1_555
C5 C4 1_555 1_555
C6 C1 1_555 1_555
O1 C6 1_555 1_555
C7 C4 1_555 1_555
C8 C7 1_555 1_555
H7 C8 1_555 1_555
C9 C8 1_555 1_555
H8 C9 1_555 1_555
C10 C9 1_555 1_555
H9 C10 1_555 1_555
C11 C10 1_555 1_555
H10 C11 1_555 1_555
C12 C7 1_555 1_555
N1 C12 1_555 1_555
H11 N1 1_555 1_555
C13 C5 1_555 1_555
C14 C13 1_555 1_555
H12 C14 1_555 1_555
H13 C14 1_555 1_555
C15 C14 1_555 1_555
H14 C15 1_555 1_555
H15 C15 1_555 1_555
C16 C15 1_555 1_555
H16 C16 1_555 1_555
H17 C16 1_555 1_555
C17 C16 1_555 1_555
H18 C17 1_555 1_555
H19 C17 1_555 1_555
C18 C13 1_555 1_555
H20 C18 1_555 1_555
H21 C18 1_555 1_555
C5 C6 1_555 1_555
C11 C12 1_555 1_555
N1 C13 1_555 1_555
C17 C18 1_555 1_555

#END
