
#######################################################################
#
#                 Cambridge Crystallographic Data Centre
#                                CCDC 
#
#######################################################################
#
# If this CIF has been generated from an entry in the Cambridge 
# Structural Database, then it will include bibliographic, chemical, 
# crystal, experimental, refinement or atomic coordinate data resulting 
# from the CCDC's data processing and validation procedures.
#
#######################################################################

data_LIMWEM
_chemical_formula_moiety         'C32 H25 N1 O2 S1'
_chemical_name_systematic        
N-benzyl-N-(chrysen-5-yl)-4-methylbenzene-1-sulfonamide
_symmetry_cell_setting           monoclinic
_symmetry_space_group_name_H-M   'P 21/c'
_symmetry_Int_Tables_number      14
_space_group_name_Hall           '-P 2ybc'
loop_
_symmetry_equiv_pos_site_id
_symmetry_equiv_pos_as_xyz
1 x,y,z
2 -x,1/2+y,1/2-z
3 -x,-y,-z
4 x,1/2-y,1/2+z
_cell_length_a                   10.6386(4)
_cell_length_b                   19.7299(5)
_cell_length_c                   12.6060(4)
_cell_angle_alpha                90
_cell_angle_beta                 104.558(3)
_cell_angle_gamma                90
_cell_volume                     2561.03
_exptl_crystal_colour            colorless
_exptl_crystal_description       prism
_cell_formula_units_Z            4
loop_
_atom_site_label
_atom_site_type_symbol
_atom_site_fract_x
_atom_site_fract_y
_atom_site_fract_z
C1 C 0.2537(6) 0.4698(3) 0.3857(4)
H1 H 0.2592 0.5117 0.4203
C2 C 0.3425(5) 0.4218(3) 0.4275(4)
H2 H 0.4080 0.4302 0.4905
C3 C 0.3343(4) 0.3599(2) 0.3751(3)
H3 H 0.3955 0.3266 0.4029
C4 C 0.2372(4) 0.34667(19) 0.2825(3)
H4 H 0.2339 0.3043 0.2497
C5 C 0.1421(4) 0.39542(16) 0.2356(3)
C6 C 0.1529(5) 0.45838(19) 0.2910(3)
C7 C 0.0624(6) 0.5101(2) 0.2507(4)
H5 H 0.0699 0.5512 0.2879
C8 C -0.0334(5) 0.50191(19) 0.1607(4)
H6 H -0.0911 0.5374 0.1369
C9 C -0.0503(4) 0.43947(16) 0.0992(3)
C10 C 0.0383(3) 0.38597(15) 0.1354(2)
C11 C 0.0211(3) 0.32585(15) 0.0664(2)
C12 C -0.0709(3) 0.32302(18) -0.0296(2)
H7 H -0.0747 0.2850 -0.0738
C13 C -0.1616(4) 0.3758(2) -0.0651(3)
C14 C -0.1529(4) 0.43419(19) 0.0014(3)
C15 C -0.2478(5) 0.4849(2) -0.0350(5)
H8 H -0.2458 0.5237 0.0073
C16 C -0.3399(6) 0.4789(3) -0.1279(6)
H9 H -0.4002 0.5135 -0.1492
C17 C -0.3477(5) 0.4222(4) -0.1930(5)
H10 H -0.4131 0.4190 -0.2576
C18 C -0.2588(5) 0.3697(3) -0.1633(3)
H11 H -0.2635 0.3315 -0.2073
C19 C 0.1788(3) 0.24370(19) 0.0208(3)
H12 H 0.1316 0.2540 -0.0538
H13 H 0.1902 0.1949 0.0266
C20 C 0.3092(3) 0.27652(16) 0.0433(3)
C21 C 0.3297(5) 0.3241(2) -0.0297(4)
H14 H 0.2599 0.3357 -0.0876
C22 C 0.4433(9) 0.3551(4) -0.0233(7)
H15 H 0.4532 0.3882 -0.0730
C23 C 0.5396(7) 0.3355(4) 0.0579(8)
H16 H 0.6197 0.3555 0.0615
C24 C 0.5362(5) 0.2886(4) 0.1387(6)
H17 H 0.6082 0.2784 0.1954
C25 C 0.4087(4) 0.2562(3) 0.1270(4)
H18 H 0.3968 0.2229 0.1757
C26 C -0.0746(3) 0.16015(14) 0.0531(2)
C27 C -0.0304(3) 0.10868(17) -0.0012(3)
H19 H 0.0573 0.0972 0.0170
C28 C -0.1164(4) 0.0743(2) -0.0825(3)
H20 H -0.0865 0.0395 -0.1195
C29 C -0.2467(4) 0.0904(2) -0.1103(3)
C30 C -0.2873(3) 0.1423(2) -0.0547(4)
H21 H -0.3748 0.1539 -0.0727
C31 C -0.2031(3) 0.17742(18) 0.0266(3)
H22 H -0.2328 0.2125 0.0631
C32 C -0.3415(5) 0.0485(3) -0.1966(4)
H23 H -0.3223 0.0544 -0.2664
H24 H -0.4287 0.0633 -0.2011
H25 H -0.3331 0.0015 -0.1764
N1 N 0.1001(2) 0.26576(12) 0.09634(19)
O1 O 0.1393(3) 0.15988(13) 0.2026(2)
O2 O -0.0323(3) 0.23784(13) 0.22479(17)
S1 S 0.03643(8) 0.20533(4) 0.15604(6)
loop_
_geom_bond_atom_site_label_1
_geom_bond_atom_site_label_2
_geom_bond_site_symmetry_1
_geom_bond_site_symmetry_2
C1 H1 1_555 1_555
C2 C1 1_555 1_555
H2 C2 1_555 1_555
C3 C2 1_555 1_555
H3 C3 1_555 1_555
C4 C3 1_555 1_555
H4 C4 1_555 1_555
C5 C4 1_555 1_555
C6 C1 1_555 1_555
C7 C6 1_555 1_555
H5 C7 1_555 1_555
C8 C7 1_555 1_555
H6 C8 1_555 1_555
C9 C8 1_555 1_555
C10 C5 1_555 1_555
C11 C10 1_555 1_555
C12 C11 1_555 1_555
H7 C12 1_555 1_555
C13 C12 1_555 1_555
C14 C9 1_555 1_555
C15 C14 1_555 1_555
H8 C15 1_555 1_555
C16 C15 1_555 1_555
H9 C16 1_555 1_555
C17 C16 1_555 1_555
H10 C17 1_555 1_555
C18 C13 1_555 1_555
H11 C18 1_555 1_555
C19 H12 1_555 1_555
H13 C19 1_555 1_555
C20 C19 1_555 1_555
C21 C20 1_555 1_555
H14 C21 1_555 1_555
C22 C21 1_555 1_555
H15 C22 1_555 1_555
C23 C22 1_555 1_555
H16 C23 1_555 1_555
C24 C23 1_555 1_555
H17 C24 1_555 1_555
C25 C20 1_555 1_555
H18 C25 1_555 1_555
C26 C27 1_555 1_555
C27 H19 1_555 1_555
C28 C27 1_555 1_555
H20 C28 1_555 1_555
C29 C28 1_555 1_555
C30 C29 1_555 1_555
H21 C30 1_555 1_555
C31 C26 1_555 1_555
H22 C31 1_555 1_555
C32 C29 1_555 1_555
H23 C32 1_555 1_555
H24 C32 1_555 1_555
H25 C32 1_555 1_555
N1 C11 1_555 1_555
O1 S1 1_555 1_555
O2 S1 1_555 1_555
S1 C26 1_555 1_555
C5 C6 1_555 1_555
C9 C10 1_555 1_555
C13 C14 1_555 1_555
C17 C18 1_555 1_555
C19 N1 1_555 1_555
C24 C25 1_555 1_555
C30 C31 1_555 1_555
N1 S1 1_555 1_555

#END
