
#######################################################################
#
#                 Cambridge Crystallographic Data Centre
#                                CCDC 
#
#######################################################################
#
# If this CIF has been generated from an entry in the Cambridge 
# Structural Database, then it will include bibliographic, chemical, 
# crystal, experimental, refinement or atomic coordinate data resulting 
# from the CCDC's data processing and validation procedures.
#
#######################################################################

data_LINBOC
_chemical_formula_moiety         'C10 H11 N1 O3 S1'
_chemical_name_systematic        
7-phenyl-3-oxa-2-thia-1-azabicyclo[2.2.1]heptane-2,2-dione
_symmetry_cell_setting           orthorhombic
_symmetry_space_group_name_H-M   'P 21 21 21'
_symmetry_Int_Tables_number      19
_space_group_name_Hall           'P 2ac 2ab'
loop_
_symmetry_equiv_pos_site_id
_symmetry_equiv_pos_as_xyz
1 x,y,z
2 1/2+x,1/2-y,-z
3 -x,1/2+y,1/2-z
4 1/2-x,-y,1/2+z
_cell_length_a                   5.89340(10)
_cell_length_b                   9.8741(2)
_cell_length_c                   17.8348(3)
_cell_angle_alpha                90
_cell_angle_beta                 90
_cell_angle_gamma                90
_cell_volume                     1037.84
_exptl_crystal_colour            silver
_exptl_crystal_description       block
_cell_formula_units_Z            4
loop_
_atom_site_label
_atom_site_type_symbol
_atom_site_fract_x
_atom_site_fract_y
_atom_site_fract_z
S1 S 0.87418(8) 0.80657(4) 0.86637(2)
O1 O 1.0205(3) 0.82392(17) 0.92843(9)
O2 O 0.9074(3) 0.88952(15) 0.80231(9)
O3 O 0.6192(2) 0.82182(13) 0.89515(8)
N1 N 0.8584(3) 0.64288(13) 0.84349(7)
C1 C 0.5102(3) 0.68639(18) 0.88962(10)
H1 H 0.3791 0.6739 0.9227
C2 C 0.4619(4) 0.6611(2) 0.80751(11)
H2 H 0.3966 0.7404 0.7837
H3 H 0.3609 0.5846 0.8007
C3 C 0.7016(4) 0.6307(2) 0.77696(8)
H4 H 0.7082 0.5401 0.7560
H5 H 0.7429 0.6953 0.7383
C4 C 0.7096(3) 0.59251(16) 0.90619(8)
H6 H 0.7771 0.6150 0.9548
C5 C 0.6585(3) 0.44247(17) 0.90197(7)
C6 C 0.4577(3) 0.39307(19) 0.93125(10)
H7 H 0.3527 0.4528 0.9518
C7 C 0.4114(4) 0.2562(2) 0.93025(11)
H8 H 0.2755 0.2238 0.9498
C8 C 0.5682(4) 0.16707(19) 0.89997(10)
H9 H 0.5370 0.0748 0.8988
C9 C 0.7700(4) 0.21496(19) 0.87168(10)
H10 H 0.8753 0.1547 0.8518
C10 C 0.8172(3) 0.35241(19) 0.87267(9)
H11 H 0.9543 0.3844 0.8538
loop_
_geom_bond_atom_site_label_1
_geom_bond_atom_site_label_2
_geom_bond_site_symmetry_1
_geom_bond_site_symmetry_2
S1 O1 1_555 1_555
O2 S1 1_555 1_555
O3 S1 1_555 1_555
N1 S1 1_555 1_555
C1 O3 1_555 1_555
H1 C1 1_555 1_555
C2 C1 1_555 1_555
H2 C2 1_555 1_555
H3 C2 1_555 1_555
C3 N1 1_555 1_555
H4 C3 1_555 1_555
H5 C3 1_555 1_555
C4 N1 1_555 1_555
H6 C4 1_555 1_555
C5 C4 1_555 1_555
C6 C5 1_555 1_555
H7 C6 1_555 1_555
C7 C6 1_555 1_555
H8 C7 1_555 1_555
C8 C7 1_555 1_555
H9 C8 1_555 1_555
C9 C8 1_555 1_555
H10 C9 1_555 1_555
C10 C5 1_555 1_555
H11 C10 1_555 1_555
C1 C4 1_555 1_555
C2 C3 1_555 1_555
C9 C10 1_555 1_555

#END
