
#######################################################################
#
#                 Cambridge Crystallographic Data Centre
#                                CCDC 
#
#######################################################################
#
# If this CIF has been generated from an entry in the Cambridge 
# Structural Database, then it will include bibliographic, chemical, 
# crystal, experimental, refinement or atomic coordinate data resulting 
# from the CCDC's data processing and validation procedures.
#
#######################################################################

data_LINKAU01
_chemical_formula_moiety         'C22 H66 Si10'
_chemical_name_systematic        
2,2,5,5-tetrakis(Trimethylsilyl)-1,1,1,3,3,4,4,6,6,6-decamethylhexasilane
_symmetry_cell_setting           triclinic
_symmetry_space_group_name_H-M   'P -1'
_symmetry_Int_Tables_number      2
_space_group_name_Hall           '-P 1'
loop_
_symmetry_equiv_pos_site_id
_symmetry_equiv_pos_as_xyz
1 x,y,z
2 -x,-y,-z
_cell_length_a                   9.229(2)
_cell_length_b                   9.312(2)
_cell_length_c                   13.709(3)
_cell_angle_alpha                104.15(2)
_cell_angle_beta                 91.35(2)
_cell_angle_gamma                114.64(2)
_cell_volume                     1027.81
_exptl_crystal_colour            colorless
_chemical_melting_point          '238-240 deg.C'
_cell_formula_units_Z            1
loop_
_atom_site_label
_atom_site_type_symbol
_atom_site_fract_x
_atom_site_fract_y
_atom_site_fract_z
Si1 Si 0.1956(1) 0.1535(1) 0.2162(1)
Si2 Si 0.4221(1) 0.3676(1) 0.1856(1)
Si3 Si 0.2910(2) 0.0165(1) 0.3061(1)
Si4 Si 0.0549(1) 0.2669(1) 0.3267(1)
Si5 Si 0.0235(1) -0.0478(1) 0.0687(1)
C1 C 0.5269(5) 0.2862(6) 0.0880(3)
C2 C 0.5731(5) 0.4872(5) 0.3033(3)
C3 C 0.3619(6) 0.5146(5) 0.1448(3)
C4 C 0.1288(6) -0.1846(5) 0.3098(3)
C5 C 0.4569(6) -0.0215(6) 0.2478(4)
C6 C 0.3741(6) 0.1429(6) 0.4409(3)
C7 C -0.0778(6) 0.1170(6) 0.3913(3)
C8 C -0.0748(5) 0.3313(6) 0.2599(3)
C9 C 0.1983(6) 0.4532(5) 0.4272(3)
C10 C -0.1731(5) -0.1596(5) 0.1134(3)
C11 C 0.1091(6) -0.1983(5) 0.0218(3)
Si5A Si -0.0235(1) 0.0478(1) -0.0687(1)
Si1A Si -0.1956(1) -0.1535(1) -0.2162(1)
Si2A Si -0.4221(1) -0.3676(1) -0.1856(1)
C1A C -0.5269(5) -0.2862(6) -0.0880(3)
C2A C -0.5731(5) -0.4872(5) -0.3033(3)
C3A C -0.3619(6) -0.5146(5) -0.1448(3)
Si3A Si -0.2910(2) -0.0165(1) -0.3061(1)
C4A C -0.1288(6) 0.1846(5) -0.3098(3)
C5A C -0.4569(6) 0.0215(6) -0.2478(4)
C6A C -0.3741(6) -0.1429(6) -0.4409(3)
Si4A Si -0.0549(1) -0.2669(1) -0.3267(1)
C7A C 0.0778(6) -0.1170(6) -0.3913(3)
C8A C 0.0748(5) -0.3313(6) -0.2599(3)
C9A C -0.1983(6) -0.4532(5) -0.4272(3)
C10A C 0.1731(5) 0.1596(5) -0.1134(3)
C11A C -0.1091(6) 0.1983(5) -0.0218(3)
loop_
_geom_bond_atom_site_label_1
_geom_bond_atom_site_label_2
_geom_bond_site_symmetry_1
_geom_bond_site_symmetry_2
Si1 Si2 1_555 1_555
Si2 C1 1_555 1_555
Si3 Si1 1_555 1_555
Si4 Si1 1_555 1_555
Si5 Si1 1_555 1_555
C2 Si2 1_555 1_555
C3 Si2 1_555 1_555
C4 Si3 1_555 1_555
C5 Si3 1_555 1_555
C6 Si3 1_555 1_555
C7 Si4 1_555 1_555
C8 Si4 1_555 1_555
C9 Si4 1_555 1_555
C10 Si5 1_555 1_555
C11 Si5 1_555 1_555
Si5A Si5 1_555 1_555
Si1A Si5A 1_555 1_555
Si2A Si1A 1_555 1_555
C1A Si2A 1_555 1_555
C2A Si2A 1_555 1_555
C3A Si2A 1_555 1_555
Si3A Si1A 1_555 1_555
C4A Si3A 1_555 1_555
C5A Si3A 1_555 1_555
C6A Si3A 1_555 1_555
Si4A Si1A 1_555 1_555
C7A Si4A 1_555 1_555
C8A Si4A 1_555 1_555
C9A Si4A 1_555 1_555
C10A Si5A 1_555 1_555
C11A Si5A 1_555 1_555

#END
