
#######################################################################
#
#                 Cambridge Crystallographic Data Centre
#                                CCDC 
#
#######################################################################
#
# If this CIF has been generated from an entry in the Cambridge 
# Structural Database, then it will include bibliographic, chemical, 
# crystal, experimental, refinement or atomic coordinate data resulting 
# from the CCDC's data processing and validation procedures.
#
#######################################################################

data_LINLUQ
_chemical_formula_moiety         'C24 H22 N4 O2'
_chemical_name_systematic        
1,1'-((2-Methyl-2,3-dihydro-1H-1,5-benzodiazepine-2,4-diyl)dipyridine-6,2-diyl)diethanone
_symmetry_cell_setting           triclinic
_symmetry_space_group_name_H-M   'P -1'
_symmetry_Int_Tables_number      2
_space_group_name_Hall           '-P 1'
loop_
_symmetry_equiv_pos_site_id
_symmetry_equiv_pos_as_xyz
1 x,y,z
2 -x,-y,-z
_cell_length_a                   8.42990(10)
_cell_length_b                   10.8619(2)
_cell_length_c                   12.2771(2)
_cell_angle_alpha                104.3390(10)
_cell_angle_beta                 95.6480(10)
_cell_angle_gamma                92.5980(10)
_cell_volume                     1081.01
_exptl_crystal_colour            yellow
_exptl_crystal_description       needle
_cell_formula_units_Z            2
_exptl_crystal_recrystallization_method 'ethyl acetate'
loop_
_atom_site_label
_atom_site_type_symbol
_atom_site_fract_x
_atom_site_fract_y
_atom_site_fract_z
N1 N 0.02257(15) 0.38518(12) 0.36056(11)
N2 N -0.41141(15) 0.11978(11) 0.12827(11)
H1 H -0.4140 0.0807 0.0580
N3 N -0.20441(15) 0.09307(13) 0.32801(12)
N4 N -0.61244(16) 0.27686(13) 0.06505(11)
C1 C -0.00505(18) 0.26105(15) 0.35397(13)
C2 C -0.46233(18) 0.05211(13) 0.20300(13)
C3 C 0.17296(19) 0.43720(16) 0.39348(14)
C4 C -0.36171(19) 0.03694(14) 0.29683(14)
C5 C -0.35346(18) 0.25531(14) 0.16461(13)
O1 O 0.32804(17) 0.63243(13) 0.44025(12)
C6 C -0.4891(2) 0.33767(15) 0.13699(13)
C7 C -0.6119(2) -0.01644(15) 0.17816(15)
H2 H -0.6801 -0.0081 0.1165
C8 C 0.1992(2) 0.57702(17) 0.40066(14)
C9 C 0.1170(2) 0.18484(17) 0.37683(17)
H3 H 0.0950 0.0984 0.3697
C10 C -0.7308(2) 0.34500(19) 0.03447(15)
C11 C 0.2987(2) 0.36820(19) 0.41969(17)
H4 H 0.4007 0.4078 0.4434
C12 C -0.2162(2) 0.27640(18) 0.09682(16)
H5 H -0.1301 0.2262 0.1125
H6 H -0.1792 0.3649 0.1180
H7 H -0.2532 0.2514 0.0175
C13 C 0.0653(3) 0.64269(19) 0.35798(19)
H8 H 0.0985 0.7308 0.3678
H9 H -0.0242 0.6362 0.3994
H10 H 0.0349 0.6035 0.2791
C14 C -0.6609(2) -0.09535(17) 0.24182(17)
H11 H -0.7608 -0.1396 0.2227
C15 C -0.4137(2) -0.04511(18) 0.35939(17)
H12 H -0.3460 -0.0567 0.4200
O2 O -0.9685(2) 0.3266(2) -0.08861(15)
C16 C 0.2702(2) 0.2399(2) 0.4101(2)
H13 H 0.3532 0.1911 0.4257
C17 C -0.4794(3) 0.46918(17) 0.18107(19)
H14 H -0.3918 0.5105 0.2309
C18 C -0.5629(3) -0.10952(19) 0.33381(18)
H15 H -0.5967 -0.1617 0.3780
C19 C -0.7309(3) 0.4747(2) 0.07550(19)
H16 H -0.8154 0.5187 0.0538
C20 C -0.6035(3) 0.5374(2) 0.1490(2)
H17 H -0.5999 0.6253 0.1773
C21 C -0.8666(2) 0.2706(2) -0.04878(17)
C22 C -0.8768(3) 0.1282(3) -0.0749(3)
H18 H -0.9684 0.0943 -0.1287
H19 H -0.8866 0.1017 -0.0067
H20 H -0.7819 0.0971 -0.1062
C23 C -0.17402(17) 0.20742(14) 0.32229(12)
C24 C -0.29913(17) 0.29098(14) 0.29141(12)
H21 H -0.2563 0.3791 0.3145
H22 H -0.3906 0.2834 0.3321
loop_
_geom_bond_atom_site_label_1
_geom_bond_atom_site_label_2
_geom_bond_site_symmetry_1
_geom_bond_site_symmetry_2
N1 C1 1_555 1_555
N2 H1 1_555 1_555
N3 C4 1_555 1_555
N4 C6 1_555 1_555
C1 C9 1_555 1_555
C2 N2 1_555 1_555
C3 N1 1_555 1_555
C4 C2 1_555 1_555
C5 N2 1_555 1_555
O1 C8 1_555 1_555
C6 C5 1_555 1_555
C7 C2 1_555 1_555
H2 C7 1_555 1_555
C8 C3 1_555 1_555
C9 H3 1_555 1_555
C10 N4 1_555 1_555
C11 C3 1_555 1_555
H4 C11 1_555 1_555
C12 C5 1_555 1_555
H5 C12 1_555 1_555
H6 C12 1_555 1_555
H7 C12 1_555 1_555
C13 C8 1_555 1_555
H8 C13 1_555 1_555
H9 C13 1_555 1_555
H10 C13 1_555 1_555
C14 C7 1_555 1_555
H11 C14 1_555 1_555
C15 C4 1_555 1_555
H12 C15 1_555 1_555
O2 C21 1_555 1_555
C16 C9 1_555 1_555
H13 C16 1_555 1_555
C17 C6 1_555 1_555
H14 C17 1_555 1_555
C18 C14 1_555 1_555
H15 C18 1_555 1_555
C19 C10 1_555 1_555
H16 C19 1_555 1_555
C20 C17 1_555 1_555
H17 C20 1_555 1_555
C21 C10 1_555 1_555
C22 C21 1_555 1_555
H18 C22 1_555 1_555
H19 C22 1_555 1_555
H20 C22 1_555 1_555
C23 N3 1_555 1_555
C24 C5 1_555 1_555
H21 C24 1_555 1_555
H22 C24 1_555 1_555
C1 C23 1_555 1_555
C11 C16 1_555 1_555
C15 C18 1_555 1_555
C19 C20 1_555 1_555
C23 C24 1_555 1_555

#END
