
#######################################################################
#
#                 Cambridge Crystallographic Data Centre
#                                CCDC 
#
#######################################################################
#
# If this CIF has been generated from an entry in the Cambridge 
# Structural Database, then it will include bibliographic, chemical, 
# crystal, experimental, refinement or atomic coordinate data resulting 
# from the CCDC's data processing and validation procedures.
#
#######################################################################

data_LINPON
_chemical_formula_moiety         'C44 H26 Br4 N4'
_chemical_name_systematic        
7,8,17,18-Tetrabromo-5,10,15,20-tetraphenylporphyrin
_symmetry_cell_setting           monoclinic
_symmetry_space_group_name_H-M   'P 21/n'
_symmetry_Int_Tables_number      14
_space_group_name_Hall           '-P 2yn'
loop_
_symmetry_equiv_pos_site_id
_symmetry_equiv_pos_as_xyz
1 x,y,z
2 1/2-x,1/2+y,1/2-z
3 -x,-y,-z
4 1/2+x,1/2-y,1/2+z
_cell_length_a                   13.945(8)
_cell_length_b                   6.751(8)
_cell_length_c                   19.326(3)
_cell_angle_alpha                90
_cell_angle_beta                 101.4(9)
_cell_angle_gamma                90
_cell_volume                     1783.51
_exptl_crystal_colour            Purple
_cell_formula_units_Z            2
loop_
_atom_site_label
_atom_site_type_symbol
_atom_site_fract_x
_atom_site_fract_y
_atom_site_fract_z
Br1 Br 0.3823(1) 0.4604(3) 0.0159(1)
Br2 Br 0.2451(1) 0.7266(2) 0.10589(8)
C1 C 0.2054(9) 0.479(2) 0.0658(7)
C2 C 0.2557(9) 0.385(2) 0.0241(7)
C3 C 0.117(1) 0.368(2) 0.0668(7)
C4 C 0.1984(9) 0.211(2) -0.0047(7)
N1 N 0.1145(7) 0.207(2) 0.0230(5)
N2 N 0.0778(7) -0.153(1) -0.0622(6)
C5 C 0.0491(9) 0.405(2) 0.1083(7)
C6 C 0.2222(9) 0.078(2) -0.0532(7)
C7 C 0.0691(9) 0.555(2) 0.1648(7)
C8 C 0.136(1) 0.514(2) 0.2272(7)
C9 C 0.152(1) 0.651(2) 0.2808(7)
C10 C 0.104(1) 0.827(2) 0.2732(9)
C11 C 0.040(1) 0.873(2) 0.2133(9)
C12 C 0.020(1) 0.737(2) 0.1597(7)
C13 C 0.3055(9) 0.110(2) -0.0875(7)
C14 C 0.295(1) 0.259(3) -0.1409(9)
C15 C 0.460(1) 0.185(3) -0.1560(9)
C16 C 0.381(1) 0.299(3) -0.170(1)
C17 C 0.469(1) 0.034(4) -0.106(1)
C18 C 0.388(1) 0.001(2) -0.0732(8)
C19 C 0.165(1) -0.089(2) -0.0778(7)
C20 C 0.1831(9) -0.219(2) -0.1345(6)
C21 C 0.105(1) -0.344(2) -0.1504(7)
C22 C -0.0397(9) 0.310(2) 0.1052(7)
H1 H 0.0478 -0.0969 -0.0267
H2 H 0.171 0.389 0.232
H3 H 0.197 0.622 0.324
H4 H 0.116 0.922 0.311
H5 H 0.007 0.999 0.209
H6 H -0.028 0.766 0.118
H7 H 0.244 0.352 -0.162
H8 H 0.525 0.126 -0.154
H9 H 0.333 0.400 -0.188
H10 H 0.532 -0.028 -0.104
H11 H 0.392 -0.103 -0.039
H12 H 0.240 -0.215 -0.156
H13 H 0.082 -0.457 -0.180
C22B C 0.0397(9) -0.310(2) -0.1052(7)
N2B N -0.0778(7) 0.153(1) 0.0622(6)
C21B C -0.105(1) 0.344(2) 0.1504(7)
C5B C -0.0491(9) -0.405(2) -0.1083(7)
C19B C -0.165(1) 0.089(2) 0.0778(7)
H1B H -0.0478 0.0969 0.0267
C20B C -0.1831(9) 0.219(2) 0.1345(6)
H13B H -0.082 0.457 0.180
C3B C -0.117(1) -0.368(2) -0.0668(7)
C7B C -0.0691(9) -0.555(2) -0.1648(7)
C6B C -0.2222(9) -0.078(2) 0.0532(7)
H12B H -0.240 0.215 0.156
C1B C -0.2054(9) -0.479(2) -0.0658(7)
N1B N -0.1145(7) -0.207(2) -0.0230(5)
C8B C -0.136(1) -0.514(2) -0.2272(7)
C12B C -0.020(1) -0.737(2) -0.1597(7)
C4B C -0.1984(9) -0.211(2) 0.0047(7)
C13B C -0.3055(9) -0.110(2) 0.0875(7)
Br2B Br -0.2451(1) -0.7266(2) -0.10589(8)
C2B C -0.2557(9) -0.385(2) -0.0241(7)
C9B C -0.152(1) -0.651(2) -0.2808(7)
H2B H -0.171 -0.389 -0.232
C11B C -0.040(1) -0.873(2) -0.2133(9)
H6B H 0.028 -0.766 -0.118
C14B C -0.295(1) -0.259(3) 0.1409(9)
C18B C -0.388(1) -0.001(2) 0.0732(8)
Br1B Br -0.3823(1) -0.4604(3) -0.0159(1)
C10B C -0.104(1) -0.827(2) -0.2732(9)
H3B H -0.197 -0.622 -0.324
H5B H -0.007 -0.999 -0.209
C16B C -0.381(1) -0.299(3) 0.170(1)
H7B H -0.244 -0.352 0.162
C17B C -0.469(1) -0.034(4) 0.106(1)
H11B H -0.392 0.103 0.039
H4B H -0.116 -0.922 -0.311
C15B C -0.460(1) -0.185(3) 0.1560(9)
H9B H -0.333 -0.400 0.188
H10B H -0.532 0.028 0.104
H8B H -0.525 -0.126 0.154
loop_
_geom_bond_atom_site_label_1
_geom_bond_atom_site_label_2
_geom_bond_site_symmetry_1
_geom_bond_site_symmetry_2
Br1 C2 1_555 1_555
Br2 C1 1_555 1_555
C1 C2 1_555 1_555
C2 C4 1_555 1_555
C3 C1 1_555 1_555
C4 N1 1_555 1_555
N1 C3 1_555 1_555
N2 C19 1_555 1_555
C5 C3 1_555 1_555
C6 C4 1_555 1_555
C7 C5 1_555 1_555
C8 C7 1_555 1_555
C9 C8 1_555 1_555
C10 C9 1_555 1_555
C11 C10 1_555 1_555
C12 C7 1_555 1_555
C13 C6 1_555 1_555
C14 C13 1_555 1_555
C15 C16 1_555 1_555
C16 C14 1_555 1_555
C17 C15 1_555 1_555
C18 C13 1_555 1_555
C19 C6 1_555 1_555
C20 C19 1_555 1_555
C21 C20 1_555 1_555
C22 C5 1_555 1_555
H1 N2 1_555 1_555
H2 C8 1_555 1_555
H3 C9 1_555 1_555
H4 C10 1_555 1_555
H5 C11 1_555 1_555
H6 C12 1_555 1_555
H7 C14 1_555 1_555
H8 C15 1_555 1_555
H9 C16 1_555 1_555
H10 C17 1_555 1_555
H11 C18 1_555 1_555
H12 C20 1_555 1_555
H13 C21 1_555 1_555
C22B N2 1_555 1_555
N2B C22 1_555 1_555
C21B C22 1_555 1_555
C5B C22B 1_555 1_555
C19B N2B 1_555 1_555
H1B N2B 1_555 1_555
C20B C21B 1_555 1_555
H13B C21B 1_555 1_555
C3B C5B 1_555 1_555
C7B C5B 1_555 1_555
C6B C19B 1_555 1_555
H12B C20B 1_555 1_555
C1B C3B 1_555 1_555
N1B C3B 1_555 1_555
C8B C7B 1_555 1_555
C12B C7B 1_555 1_555
C4B C6B 1_555 1_555
C13B C6B 1_555 1_555
Br2B C1B 1_555 1_555
C2B C1B 1_555 1_555
C9B C8B 1_555 1_555
H2B C8B 1_555 1_555
C11B C12B 1_555 1_555
H6B C12B 1_555 1_555
C14B C13B 1_555 1_555
C18B C13B 1_555 1_555
Br1B C2B 1_555 1_555
C10B C9B 1_555 1_555
H3B C9B 1_555 1_555
H5B C11B 1_555 1_555
C16B C14B 1_555 1_555
H7B C14B 1_555 1_555
C17B C18B 1_555 1_555
H11B C18B 1_555 1_555
H4B C10B 1_555 1_555
C15B C16B 1_555 1_555
H9B C16B 1_555 1_555
H10B C17B 1_555 1_555
H8B C15B 1_555 1_555
C11 C12 1_555 1_555
C17 C18 1_555 1_555
C21 C22B 1_555 1_555
C19B C20B 1_555 1_555
N1B C4B 1_555 1_555
C4B C2B 1_555 1_555
C11B C10B 1_555 1_555
C17B C15B 1_555 1_555

#END
