
#######################################################################
#
#                 Cambridge Crystallographic Data Centre
#                                CCDC 
#
#######################################################################
#
# If this CIF has been generated from an entry in the Cambridge 
# Structural Database, then it will include bibliographic, chemical, 
# crystal, experimental, refinement or atomic coordinate data resulting 
# from the CCDC's data processing and validation procedures.
#
#######################################################################

data_LINTAD
_chemical_formula_moiety         '2(C19 H15 N1 O4),0.5(C4 H8 O2)'
_chemical_name_systematic        
'bis(Methyl 6-methoxy-17-oxo-2-azatricyclo(7.7.1.0^3,8^)heptadeca-3(8),4,6,13-tetraene-11,15-diyne-2-carboxylate) ethyl acetate solvate'
_chemical_properties_biological  
'analogue of Dynemicin A which has antitumour activity'
_symmetry_cell_setting           triclinic
_symmetry_space_group_name_H-M   'P -1'
_symmetry_Int_Tables_number      2
_space_group_name_Hall           '-P 1'
loop_
_symmetry_equiv_pos_site_id
_symmetry_equiv_pos_as_xyz
1 x,y,z
2 -x,-y,-z
_cell_length_a                   10.734(3)
_cell_length_b                   13.096(4)
_cell_length_c                   13.712(4)
_cell_angle_alpha                72.34(2)
_cell_angle_beta                 72.07(2)
_cell_angle_gamma                71.82(2)
_cell_volume                     1695.93
_exptl_crystal_colour            colorless
_cell_formula_units_Z            2
loop_
_atom_site_label
_atom_site_type_symbol
_atom_site_fract_x
_atom_site_fract_y
_atom_site_fract_z
C20 C -0.0328(2) 0.32076(14) 0.56189(14)
C21 C -0.1448(2) 0.2621(2) 0.6339(2)
C22 C -0.1756(2) 0.1980(2) 0.5774(2)
C23 C -0.1822(2) 0.1459(2) 0.5217(2)
C24 C -0.1611(2) 0.0868(2) 0.4442(2)
C25 C -0.0485(2) 0.0836(2) 0.3663(2)
C26 C 0.0475(2) 0.1388(2) 0.3661(2)
C27 C 0.1128(2) 0.1883(2) 0.38140(14)
C28 C 0.1772(2) 0.24197(14) 0.42564(14)
N2 N 0.1683(2) 0.35851(12) 0.37182(12)
C29 C 0.0331(2) 0.42370(14) 0.37165(14)
C30 C 0.0011(2) 0.5013(2) 0.2830(2)
C31 C -0.1320(2) 0.5592(2) 0.2835(2)
C32 C -0.2323(2) 0.5358(2) 0.3725(2)
C33 C -0.2004(2) 0.4580(2) 0.4607(2)
C34 C -0.0675(2) 0.40135(14) 0.46250(13)
C35 C 0.0999(2) 0.23482(14) 0.54087(14)
O5 O 0.14276(14) 0.16436(12) 0.61052(11)
C36 C 0.2755(2) 0.4058(2) 0.34415(14)
O6 O 0.27145(14) 0.50119(11) 0.29901(10)
O7 O 0.38404(13) 0.33232(11) 0.37235(11)
C37 C 0.5061(2) 0.3713(2) 0.3429(2)
O8 O -0.3677(2) 0.58508(12) 0.38183(12)
C38 C -0.4096(3) 0.6542(2) 0.2905(2)
H4 H -0.5056 0.6831 0.3078
H5 H -0.3657 0.7141 0.2634
H6 H -0.3861 0.6123 0.2381
H7 H -0.014(2) 0.360(2) 0.600(2)
H8 H -0.112(2) 0.211(2) 0.698(2)
H9 H -0.226(2) 0.315(2) 0.659(2)
H10 H -0.224(2) 0.049(2) 0.443(2)
H11 H -0.029(2) 0.041(2) 0.313(2)
H12 H 0.274(2) 0.202(2) 0.4257(15)
H13 H 0.073(2) 0.520(2) 0.219(2)
H14 H -0.156(2) 0.614(2) 0.223(2)
H15 H -0.270(2) 0.442(2) 0.520(2)
H16 H 0.582(3) 0.304(2) 0.352(2)
H17 H 0.520(3) 0.413(2) 0.275(2)
H18 H 0.496(3) 0.415(2) 0.393(2)
C39 C -0.0442(3) -0.1626(2) 0.1254(2)
C40 C 0.0052(4) -0.0730(3) 0.1070(3)
O9 O 0.0390(3) -0.0458(3) 0.1695(3)
O10 O 0.00000 0.00000 0.00000
C41 C -0.0642(5) -0.0867(4) 0.0192(4)
C40A C -0.0052(4) 0.0730(3) -0.1070(3)
C41A C 0.0642(5) 0.0867(4) -0.0192(4)
C39A C 0.0442(3) 0.1626(2) -0.1254(2)
O9A O -0.0390(3) 0.0458(3) -0.1695(3)
C1 C 0.5859(2) 0.66606(14) -0.08305(14)
C2 C 0.7178(2) 0.6823(2) -0.0730(2)
C3 C 0.6865(2) 0.7681(2) -0.0154(2)
C4 C 0.6406(2) 0.8370(2) 0.0349(2)
C5 C 0.5606(3) 0.9124(2) 0.1002(2)
C6 C 0.4320(3) 0.9110(2) 0.1455(2)
C7 C 0.3779(2) 0.8346(2) 0.1259(2)
C8 C 0.3535(2) 0.7656(2) 0.09913(14)
C9 C 0.3570(2) 0.6732(2) 0.05849(14)
N1 N 0.29985(14) 0.70876(12) -0.03403(11)
C10 C 0.3617(2) 0.78345(14) -0.12160(13)
C11 C 0.2856(2) 0.8731(2) -0.17996(14)
C12 C 0.3462(2) 0.9470(2) -0.26255(14)
C13 C 0.4853(2) 0.93257(14) -0.28373(13)
C14 C 0.5611(2) 0.84494(14) -0.22334(13)
C15 C 0.5014(2) 0.76829(13) -0.14303(13)
C16 C 0.5074(2) 0.61638(14) 0.02566(13)
O1 O 0.56016(13) 0.53616(10) 0.08362(10)
C17 C 0.2093(2) 0.65582(14) -0.03619(14)
O2 O 0.15793(13) 0.59347(11) 0.03936(10)
O3 O 0.18473(13) 0.68333(11) -0.13155(11)
C18 C 0.0881(3) 0.6342(2) -0.1407(2)
O4 O 0.55611(12) 1.00131(10) -0.36188(10)
C19 C 0.4793(2) 1.0999(2) -0.4168(2)
H1 H 0.0767 0.6583 -0.2116
H2 H 0.1192 0.5552 -0.1233
H3 H 0.0034 0.6563 -0.0931
H19 H 0.611(2) 0.609(2) -0.1201(15)
H20 H 0.763(2) 0.612(2) -0.0334(15)
H21 H 0.777(2) 0.702(2) -0.146(2)
H22 H 0.601(2) 0.959(2) 0.113(2)
H23 H 0.376(2) 0.960(2) 0.190(2)
H24 H 0.312(2) 0.621(2) 0.112(2)
H25 H 0.189(2) 0.8826(15) -0.1664(14)
H26 H 0.292(2) 1.007(2) -0.3018(15)
H27 H 0.657(2) 0.8384(14) -0.2375(14)
H28 H 0.550(3) 1.144(2) -0.459(2)
H29 H 0.422(3) 1.084(2) -0.457(2)
H30 H 0.407(2) 1.144(2) -0.364(2)
loop_
_geom_bond_atom_site_label_1
_geom_bond_atom_site_label_2
_geom_bond_site_symmetry_1
_geom_bond_site_symmetry_2
C1 C2 1_555 1_555
C2 C3 1_555 1_555
C3 C4 1_555 1_555
C4 C5 1_555 1_555
C5 C6 1_555 1_555
C6 C7 1_555 1_555
C7 C8 1_555 1_555
C8 C9 1_555 1_555
C9 N1 1_555 1_555
N1 C10 1_555 1_555
C10 C11 1_555 1_555
C11 C12 1_555 1_555
C12 C13 1_555 1_555
C13 C14 1_555 1_555
C14 C15 1_555 1_555
C15 C1 1_555 1_555
C16 C1 1_555 1_555
O1 C16 1_555 1_555
C17 N1 1_555 1_555
O2 C17 1_555 1_555
O3 C17 1_555 1_555
C18 O3 1_555 1_555
O4 C13 1_555 1_555
C19 O4 1_555 1_555
C20 C21 1_555 1_555
C21 C22 1_555 1_555
C22 C23 1_555 1_555
C23 C24 1_555 1_555
C24 C25 1_555 1_555
C25 C26 1_555 1_555
C26 C27 1_555 1_555
C27 C28 1_555 1_555
C28 N2 1_555 1_555
N2 C29 1_555 1_555
C29 C30 1_555 1_555
C30 C31 1_555 1_555
C31 C32 1_555 1_555
C32 C33 1_555 1_555
C33 C34 1_555 1_555
C34 C20 1_555 1_555
C35 C20 1_555 1_555
O5 C35 1_555 1_555
C36 N2 1_555 1_555
O6 C36 1_555 1_555
O7 C36 1_555 1_555
C37 O7 1_555 1_555
O8 C32 1_555 1_555
C38 O8 1_555 1_555
C39 C40 1_555 1_555
C40 O9 1_555 1_555
O10 C40 1_555 1_555
C41 C39 1_555 1_555
H1 C18 1_555 1_555
H2 C18 1_555 1_555
H3 C18 1_555 1_555
H4 C38 1_555 1_555
H5 C38 1_555 1_555
H6 C38 1_555 1_555
H7 C20 1_555 1_555
H8 C21 1_555 1_555
H9 C21 1_555 1_555
H10 C24 1_555 1_555
H11 C25 1_555 1_555
H12 C28 1_555 1_555
H13 C30 1_555 1_555
H14 C31 1_555 1_555
H15 C33 1_555 1_555
H16 C37 1_555 1_555
H17 C37 1_555 1_555
H18 C37 1_555 1_555
H19 C1 1_555 1_555
H20 C2 1_555 1_555
H21 C2 1_555 1_555
H22 C5 1_555 1_555
H23 C6 1_555 1_555
H24 C9 1_555 1_555
H25 C11 1_555 1_555
H26 C12 1_555 1_555
H27 C14 1_555 1_555
H28 C19 1_555 1_555
H29 C19 1_555 1_555
H30 C19 1_555 1_555
C40A O10 1_555 1_555
C41A O10 1_555 1_555
C39A C40A 1_555 1_555
O9A C40A 1_555 1_555
C9 C16 1_555 1_555
C10 C15 1_555 1_555
C28 C35 1_555 1_555
C29 C34 1_555 1_555
C40 C41 1_555 1_555
O10 C41 1_555 1_555
C40A C41A 1_555 1_555
C41A C39A 1_555 1_555

#END
