
#######################################################################
#
#                 Cambridge Crystallographic Data Centre
#                                CCDC 
#
#######################################################################
#
# If this CIF has been generated from an entry in the Cambridge 
# Structural Database, then it will include bibliographic, chemical, 
# crystal, experimental, refinement or atomic coordinate data resulting 
# from the CCDC's data processing and validation procedures.
#
#######################################################################

data_LINYEP
_chemical_formula_moiety         'C17 H11 Cl1 N2'
_chemical_name_systematic        1-(2-chlorophenyl)-9H-\b-carboline
_symmetry_cell_setting           rhombohedral
_symmetry_space_group_name_H-M   'R -3'
_symmetry_Int_Tables_number      148
_space_group_name_Hall           '-R 3'
loop_
_symmetry_equiv_pos_site_id
_symmetry_equiv_pos_as_xyz
1 x,y,z
2 -y,x-y,z
3 -x+y,-x,z
4 2/3+x,1/3+y,1/3+z
5 2/3-y,1/3+x-y,1/3+z
6 2/3-x+y,1/3-x,1/3+z
7 1/3+x,2/3+y,2/3+z
8 1/3-y,2/3+x-y,2/3+z
9 1/3-x+y,2/3-x,2/3+z
10 -x,-y,-z
11 y,-x+y,-z
12 x-y,x,-z
13 1/3-x,2/3-y,2/3-z
14 1/3+y,2/3-x+y,2/3-z
15 1/3+x-y,2/3+x,2/3-z
16 2/3-x,1/3-y,1/3-z
17 2/3+y,1/3-x+y,1/3-z
18 2/3+x-y,1/3+x,1/3-z
_cell_length_a                   28.146(10)
_cell_length_b                   28.146(10)
_cell_length_c                   9.275(7)
_cell_angle_alpha                90
_cell_angle_beta                 90
_cell_angle_gamma                120
_cell_volume                     6363.23
_exptl_crystal_colour            colorless
_exptl_crystal_description       Block
_cell_formula_units_Z            18
loop_
_atom_site_label
_atom_site_type_symbol
_atom_site_fract_x
_atom_site_fract_y
_atom_site_fract_z
C1 C 0.67734(9) 0.10814(9) 1.0504(2)
C2 C 0.62845(11) 0.05964(10) 1.0711(3)
H1 H 0.6006 0.0468 1.0026
C3 C 0.62257(13) 0.03130(11) 1.1960(3)
H2 H 0.5898 -0.0011 1.2129
C4 C 0.66371(13) 0.04924(11) 1.2976(3)
H3 H 0.6584 0.0285 1.3803
C5 C 0.71267(12) 0.09761(11) 1.2786(3)
H4 H 0.7404 0.1095 1.3471
C6 C 0.71945(10) 0.12819(9) 1.1537(2)
C7 C 0.76217(9) 0.17991(9) 1.0998(2)
C8 C 0.74396(8) 0.18770(8) 0.9650(2)
C9 C 0.77523(9) 0.23540(9) 0.8868(2)
C10 C 0.84016(11) 0.26733(11) 1.0686(3)
H5 H 0.8736 0.2952 1.1032
C11 C 0.81211(11) 0.22123(10) 1.1514(3)
H6 H 0.8260 0.2177 1.2392
C12 C 0.75781(9) 0.24646(9) 0.7455(3)
C13 C 0.75047(11) 0.29165(11) 0.7316(3)
H7 H 0.7557 0.3139 0.8110
C14 C 0.73551(14) 0.30365(14) 0.6013(4)
H8 H 0.7312 0.3342 0.5928
C15 C 0.72693(16) 0.27094(16) 0.4849(4)
H9 H 0.7160 0.2790 0.3980
C16 C 0.73406(14) 0.22655(14) 0.4933(3)
H10 H 0.7286 0.2047 0.4129
C17 C 0.74956(11) 0.21476(11) 0.6241(3)
Cl1 Cl 0.76140(4) 0.16049(3) 0.63189(8)
N1 N 0.69330(7) 0.14373(7) 0.9366(2)
H11 H 0.6745 0.1392 0.8595
N2 N 0.82258(8) 0.27506(8) 0.9399(2)
loop_
_geom_bond_atom_site_label_1
_geom_bond_atom_site_label_2
_geom_bond_site_symmetry_1
_geom_bond_site_symmetry_2
C1 C2 1_555 1_555
C2 H1 1_555 1_555
C3 C2 1_555 1_555
H2 C3 1_555 1_555
C4 C3 1_555 1_555
H3 C4 1_555 1_555
C5 C4 1_555 1_555
H4 C5 1_555 1_555
C6 C1 1_555 1_555
C7 C6 1_555 1_555
C8 C7 1_555 1_555
C9 C8 1_555 1_555
C10 H5 1_555 1_555
C11 C7 1_555 1_555
H6 C11 1_555 1_555
C12 C9 1_555 1_555
C13 C12 1_555 1_555
H7 C13 1_555 1_555
C14 C13 1_555 1_555
H8 C14 1_555 1_555
C15 C14 1_555 1_555
H9 C15 1_555 1_555
C16 C15 1_555 1_555
H10 C16 1_555 1_555
C17 C12 1_555 1_555
Cl1 C17 1_555 1_555
N1 C1 1_555 1_555
H11 N1 1_555 1_555
N2 C9 1_555 1_555
C5 C6 1_555 1_555
C8 N1 1_555 1_555
C10 C11 1_555 1_555
C10 N2 1_555 1_555
C16 C17 1_555 1_555

#END
