
#######################################################################
#
#                 Cambridge Crystallographic Data Centre
#                                CCDC 
#
#######################################################################
#
# If this CIF has been generated from an entry in the Cambridge 
# Structural Database, then it will include bibliographic, chemical, 
# crystal, experimental, refinement or atomic coordinate data resulting 
# from the CCDC's data processing and validation procedures.
#
#######################################################################

data_LINYIT
_chemical_formula_moiety         'C25 H28 Cl1 N1 O6 S1'
_chemical_name_systematic        
'ethyl 1-benzyl-4-{1-(4-chlorophenyl)-3-[(methylsulfonyl)oxy]propyl}-2-methyl-5-oxo-4,5-dihydro-1H-pyrrole-3-carboxylate'
_symmetry_cell_setting           monoclinic
_symmetry_space_group_name_H-M   'P 21/c'
_symmetry_Int_Tables_number      14
_space_group_name_Hall           '-P 2ybc'
loop_
_symmetry_equiv_pos_site_id
_symmetry_equiv_pos_as_xyz
1 x,y,z
2 -x,1/2+y,1/2-z
3 -x,-y,-z
4 x,1/2-y,1/2+z
_cell_length_a                   11.3067(9)
_cell_length_b                   9.6130(7)
_cell_length_c                   23.3153(18)
_cell_angle_alpha                90
_cell_angle_beta                 95.179(3)
_cell_angle_gamma                90
_cell_volume                     2523.82
_exptl_crystal_colour            colorless
_exptl_crystal_description       Block
_cell_formula_units_Z            4
loop_
_atom_site_label
_atom_site_type_symbol
_atom_site_fract_x
_atom_site_fract_y
_atom_site_fract_z
Cl1 Cl 0.57878(6) -0.02750(8) 0.12105(4)
S1 S 0.00501(7) 0.19634(8) -0.15858(3)
O1 O 0.06327(15) 0.2720(2) -0.10412(7)
O2 O 0.34334(15) 0.61871(19) 0.02465(8)
O3 O -0.01317(13) 0.30209(15) 0.07668(6)
O4 O 0.0172(2) 0.3357(2) 0.17031(8)
O5 O -0.1167(2) 0.1841(3) -0.14776(11)
O6 O 0.0734(3) 0.0795(2) -0.17069(11)
N1 N 0.31593(15) 0.56448(17) 0.11790(8)
C1 C 0.0161(3) 0.3164(3) -0.21265(10)
H1 H 0.0977 0.3254 -0.2204
H2 H -0.0129 0.4048 -0.2008
H3 H -0.0303 0.2859 -0.2469
C2 C 0.1922(2) 0.2925(3) -0.09854(10)
H4 H 0.2189 0.3239 -0.1347
H5 H 0.2326 0.2062 -0.0875
C3 C 0.2171(2) 0.3997(3) -0.05315(9)
H6 H 0.1656 0.4790 -0.0618
H7 H 0.2986 0.4311 -0.0537
C4 C 0.19856(17) 0.3462(2) 0.00764(8)
H8 H 0.1246 0.2925 0.0041
C5 C 0.17879(17) 0.4690(2) 0.04845(8)
H9 H 0.1135 0.5262 0.0309
C6 C 0.28826(18) 0.5608(2) 0.05976(10)
C7 C 0.4085(2) 0.6553(2) 0.14445(12)
H10 H 0.3734 0.7166 0.1713
H11 H 0.4380 0.7129 0.1147
C8 C 0.51231(19) 0.5808(3) 0.17609(10)
C9 C 0.5521(2) 0.4551(3) 0.15775(13)
H12 H 0.5135 0.4124 0.1255
C10 C 0.6480(3) 0.3925(4) 0.18661(16)
H13 H 0.6740 0.3070 0.1740
C11 C 0.7059(3) 0.4538(5) 0.2335(2)
H14 H 0.7714 0.4104 0.2529
C12 C 0.15215(17) 0.4312(2) 0.10905(9)
C13 C 0.23406(18) 0.4890(2) 0.14708(9)
C14 C 0.6687(4) 0.5762(5) 0.25173(15)
H15 H 0.7087 0.6179 0.2838
C15 C 0.5706(3) 0.6427(4) 0.22339(12)
H16 H 0.5450 0.7280 0.2365
C16 C 0.2491(2) 0.4825(3) 0.21110(10)
H17 H 0.1834 0.4331 0.2248
H18 H 0.2517 0.5752 0.2265
H19 H 0.3218 0.4351 0.2233
C17 C 0.0483(2) 0.3523(2) 0.12325(9)
C18 C -0.1158(2) 0.2138(3) 0.08380(13)
H20 H -0.1019 0.1589 0.1187
H21 H -0.1856 0.2709 0.0870
C19 C -0.1349(3) 0.1222(3) 0.03402(14)
H22 H -0.1455 0.1771 -0.0005
H23 H -0.2045 0.0667 0.0374
H24 H -0.0672 0.0625 0.0323
C20 C 0.29483(17) 0.2486(2) 0.03266(8)
C21 C 0.26585(19) 0.1372(2) 0.06662(9)
H25 H 0.1864 0.1206 0.0716
C22 C 0.3510(2) 0.0506(2) 0.09309(11)
H26 H 0.3297 -0.0232 0.1158
C23 C 0.4692(2) 0.0757(2) 0.08519(11)
C24 C 0.5007(2) 0.1814(2) 0.05036(11)
H27 H 0.5800 0.1953 0.0442
C25 C 0.41391(19) 0.2671(2) 0.02456(9)
H28 H 0.4357 0.3392 0.0011
loop_
_geom_bond_atom_site_label_1
_geom_bond_atom_site_label_2
_geom_bond_site_symmetry_1
_geom_bond_site_symmetry_2
Cl1 C23 1_555 1_555
S1 O1 1_555 1_555
O1 C2 1_555 1_555
O2 C6 1_555 1_555
O3 C17 1_555 1_555
O4 C17 1_555 1_555
O5 S1 1_555 1_555
O6 S1 1_555 1_555
N1 C6 1_555 1_555
C1 S1 1_555 1_555
H1 C1 1_555 1_555
H2 C1 1_555 1_555
H3 C1 1_555 1_555
C2 H4 1_555 1_555
H5 C2 1_555 1_555
C3 C2 1_555 1_555
H6 C3 1_555 1_555
H7 C3 1_555 1_555
C4 C3 1_555 1_555
H8 C4 1_555 1_555
C5 C4 1_555 1_555
H9 C5 1_555 1_555
C6 C5 1_555 1_555
C7 N1 1_555 1_555
H10 C7 1_555 1_555
H11 C7 1_555 1_555
C8 C7 1_555 1_555
C9 C8 1_555 1_555
H12 C9 1_555 1_555
C10 C9 1_555 1_555
H13 C10 1_555 1_555
C11 C10 1_555 1_555
H14 C11 1_555 1_555
C12 C5 1_555 1_555
C13 N1 1_555 1_555
C14 C11 1_555 1_555
H15 C14 1_555 1_555
C15 C8 1_555 1_555
H16 C15 1_555 1_555
C16 C13 1_555 1_555
H17 C16 1_555 1_555
H18 C16 1_555 1_555
H19 C16 1_555 1_555
C17 C12 1_555 1_555
C18 O3 1_555 1_555
H20 C18 1_555 1_555
H21 C18 1_555 1_555
C19 C18 1_555 1_555
H22 C19 1_555 1_555
H23 C19 1_555 1_555
H24 C19 1_555 1_555
C20 C4 1_555 1_555
C21 C20 1_555 1_555
H25 C21 1_555 1_555
C22 C21 1_555 1_555
H26 C22 1_555 1_555
C23 C22 1_555 1_555
C24 C23 1_555 1_555
H27 C24 1_555 1_555
C25 C20 1_555 1_555
H28 C25 1_555 1_555
C12 C13 1_555 1_555
C14 C15 1_555 1_555
C24 C25 1_555 1_555

#END
