
#######################################################################
#
#                 Cambridge Crystallographic Data Centre
#                                CCDC 
#
#######################################################################
#
# If this CIF has been generated from an entry in the Cambridge 
# Structural Database, then it will include bibliographic, chemical, 
# crystal, experimental, refinement or atomic coordinate data resulting 
# from the CCDC's data processing and validation procedures.
#
#######################################################################

data_LIPCAP
_chemical_name_common            '5-Adamantylhydrantoic acid'
_chemical_formula_moiety         'C13 H20 N2 O3'
_chemical_name_systematic        "2-(N'-Adamantylurea-N)acetic acid"
_symmetry_cell_setting           monoclinic
_symmetry_space_group_name_H-M   'P 21/c'
_symmetry_Int_Tables_number      14
_space_group_name_Hall           '-P 2ybc'
loop_
_symmetry_equiv_pos_site_id
_symmetry_equiv_pos_as_xyz
1 x,y,z
2 -x,1/2+y,1/2-z
3 -x,-y,-z
4 x,1/2-y,1/2+z
_cell_length_a                   15.818(4)
_cell_length_b                   8.225(2)
_cell_length_c                   10.423(2)
_cell_angle_alpha                90
_cell_angle_beta                 108.897(18)
_cell_angle_gamma                90
_cell_volume                     1282.98
_exptl_crystal_colour            colorless
_exptl_crystal_description       plate
_cell_formula_units_Z            4
loop_
_atom_site_label
_atom_site_type_symbol
_atom_site_fract_x
_atom_site_fract_y
_atom_site_fract_z
O1 O 0.39814(6) 0.42434(11) 0.22050(9)
O2 O 0.51247(6) 0.69216(12) 0.45929(10)
O3 O 0.63263(6) 0.53269(12) 0.54941(10)
N1 N 0.36456(8) 0.60288(16) 0.04287(13)
N2 N 0.50537(8) 0.59336(15) 0.19503(12)
C1 C 0.27093(9) 0.55618(17) -0.02562(13)
C2 C 0.21461(10) 0.5679(2) 0.06874(15)
C3 C 0.11666(10) 0.5276(2) -0.00986(15)
C4 C 0.08057(10) 0.6490(2) -0.12583(17)
C5 C 0.13634(10) 0.6373(2) -0.22057(17)
C6 C 0.23429(10) 0.6765(2) -0.14194(16)
C7 C 0.26342(10) 0.38382(18) -0.08326(16)
C8 C 0.16548(10) 0.3451(2) -0.16324(16)
C9 C 0.11001(10) 0.3564(2) -0.06770(17)
C10 C 0.13036(11) 0.4666(2) -0.27876(16)
C11 C 0.42118(9) 0.53404(17) 0.15569(13)
C12 C 0.57340(9) 0.53431(18) 0.31384(13)
C13 C 0.56807(9) 0.59684(16) 0.44700(14)
H1 H 0.3871(10) 0.669(2) -0.0003(17)
H2 H 0.5174(10) 0.667(2) 0.1515(16)
H3 H 0.21880 0.67920 0.10650
H4 H 0.23770 0.49090 0.14510
H5 H 0.6225(11) 0.555(2) 0.6289(18)
H6 H 0.08040 0.53470 0.05270
H7 H 0.01730 0.62420 -0.17630
H8 H 0.08390 0.76070 -0.08910
H9 H 0.11330 0.71690 -0.29640
H10 H 0.27030 0.67070 -0.20380
H11 H 0.23880 0.78850 -0.10540
H12 H 0.28610 0.30480 -0.00830
H13 H 0.30030 0.37430 -0.14370
H14 H 0.16120 0.23260 -0.20120
H15 H 0.04680 0.33020 -0.11780
H16 H 0.13230 0.27690 0.00700
H17 H 0.16620 0.45960 -0.34080
H18 H 0.06750 0.44080 -0.33110
H19 H 0.63250 0.56400 0.30710
H20 H 0.57010 0.41410 0.31440
loop_
_geom_bond_atom_site_label_1
_geom_bond_atom_site_label_2
_geom_bond_site_symmetry_1
_geom_bond_site_symmetry_2
O1 C11 1_555 1_555
O2 C13 1_555 1_555
O3 C13 1_555 1_555
N1 C1 1_555 1_555
N2 C11 1_555 1_555
C1 C2 1_555 1_555
C2 C3 1_555 1_555
C3 C4 1_555 1_555
C4 C5 1_555 1_555
C5 C6 1_555 1_555
C6 C1 1_555 1_555
C7 C1 1_555 1_555
C8 C7 1_555 1_555
C9 C3 1_555 1_555
C10 C5 1_555 1_555
C11 N1 1_555 1_555
C12 N2 1_555 1_555
C13 C12 1_555 1_555
H1 N1 1_555 1_555
H2 N2 1_555 1_555
H3 C2 1_555 1_555
H4 C2 1_555 1_555
H5 O3 1_555 1_555
H6 C3 1_555 1_555
H7 C4 1_555 1_555
H8 C4 1_555 1_555
H9 C5 1_555 1_555
H10 C6 1_555 1_555
H11 C6 1_555 1_555
H12 C7 1_555 1_555
H13 C7 1_555 1_555
H14 C8 1_555 1_555
H15 C9 1_555 1_555
H16 C9 1_555 1_555
H17 C10 1_555 1_555
H18 C10 1_555 1_555
H19 C12 1_555 1_555
H20 C12 1_555 1_555
C8 C9 1_555 1_555
C8 C10 1_555 1_555

#END
