
#######################################################################
#
#                 Cambridge Crystallographic Data Centre
#                                CCDC 
#
#######################################################################
#
# If this CIF has been generated from an entry in the Cambridge 
# Structural Database, then it will include bibliographic, chemical, 
# crystal, experimental, refinement or atomic coordinate data resulting 
# from the CCDC's data processing and validation procedures.
#
#######################################################################

data_LIPDEV
_chemical_formula_moiety         'C24 H18 Cl1 N1 O1'
_chemical_name_systematic        
1-(3-(2-(4-Chlorophenyl)-1-phenylvinyl)-1H-indol-1-yl)ethanone
_symmetry_cell_setting           triclinic
_symmetry_space_group_name_H-M   'P -1'
_symmetry_Int_Tables_number      2
_space_group_name_Hall           '-P 1'
loop_
_symmetry_equiv_pos_site_id
_symmetry_equiv_pos_as_xyz
1 x,y,z
2 -x,-y,-z
_cell_length_a                   7.6077(15)
_cell_length_b                   10.200(2)
_cell_length_c                   13.805(3)
_cell_angle_alpha                76.12(3)
_cell_angle_beta                 82.47(3)
_cell_angle_gamma                69.23(3)
_cell_volume                     971.134
_cell_formula_units_Z            2
loop_
_atom_site_label
_atom_site_type_symbol
_atom_site_fract_x
_atom_site_fract_y
_atom_site_fract_z
C1 C 0.7793(7) 1.3143(5) 0.4786(3)
C2 C 0.6259(8) 1.3046(7) 0.4251(4)
H1 H 0.5114 1.3233 0.4661
H2 H 0.6617 1.2102 0.4117
H3 H 0.6069 1.3741 0.3632
C3 C 1.0234(6) 1.1723(5) 0.6036(3)
C4 C 1.1390(6) 1.2559(5) 0.5932(3)
H4 H 1.1188 1.3404 0.5452
C5 C 1.2857(7) 1.2070(5) 0.6578(4)
H5 H 1.3635 1.2610 0.6536
C6 C 1.3181(7) 1.0805(6) 0.7277(4)
H6 H 1.4185 1.0506 0.7689
C7 C 1.2046(7) 0.9960(5) 0.7384(4)
H7 H 1.2290 0.9102 0.7853
C8 C 1.0521(6) 1.0442(4) 0.6761(3)
C9 C 0.9080(6) 0.9847(4) 0.6664(3)
C10 C 0.8028(6) 1.0770(5) 0.5910(3)
H8 H 0.6998 1.0657 0.5687
C11 C 0.8708(6) 0.8569(4) 0.7296(3)
C12 C 0.8165(6) 0.7706(5) 0.6895(3)
H9 H 0.8278 0.7845 0.6202
C13 C 0.8934(6) 0.8345(5) 0.8396(3)
C14 C 0.8097(7) 0.9444(5) 0.8916(3)
H10 H 0.7405 1.0348 0.8570
C15 C 0.8266(8) 0.9231(6) 0.9933(4)
H11 H 0.7661 0.9973 1.0268
C16 C 0.9339(8) 0.7910(7) 1.0442(4)
H12 H 0.9487 0.7760 1.1122
C17 C 1.0198(7) 0.6802(6) 0.9939(4)
H13 H 1.0913 0.5908 1.0287
C18 C 1.0005(7) 0.7009(5) 0.8925(3)
H14 H 1.0590 0.6256 0.8596
C19 C 0.7405(6) 0.6554(5) 0.7428(3)
C20 C 0.6068(6) 0.6764(5) 0.8227(3)
H15 H 0.5736 0.7604 0.8466
C21 C 0.5231(6) 0.5745(5) 0.8670(3)
H16 H 0.4341 0.5902 0.9198
C22 C 0.5738(6) 0.4479(4) 0.8316(4)
C23 C 0.7108(7) 0.4233(5) 0.7539(3)
H17 H 0.7478 0.3377 0.7319
C24 C 0.7916(7) 0.5271(5) 0.7097(3)
H18 H 0.8812 0.5110 0.6572
Cl1 Cl 0.4635(2) 0.32240(15) 0.88523(12)
N1 N 0.8680(5) 1.1910(4) 0.5507(2)
O1 O 0.8292(6) 1.4167(4) 0.4620(3)
loop_
_geom_bond_atom_site_label_1
_geom_bond_atom_site_label_2
_geom_bond_site_symmetry_1
_geom_bond_site_symmetry_2
C1 C2 1_555 1_555
C2 H1 1_555 1_555
H2 C2 1_555 1_555
H3 C2 1_555 1_555
C3 C4 1_555 1_555
C4 H4 1_555 1_555
C5 C4 1_555 1_555
H5 C5 1_555 1_555
C6 C5 1_555 1_555
H6 C6 1_555 1_555
C7 C6 1_555 1_555
H7 C7 1_555 1_555
C8 C3 1_555 1_555
C9 C8 1_555 1_555
C10 C9 1_555 1_555
H8 C10 1_555 1_555
C11 C9 1_555 1_555
C12 C11 1_555 1_555
H9 C12 1_555 1_555
C13 C11 1_555 1_555
C14 C13 1_555 1_555
H10 C14 1_555 1_555
C15 C14 1_555 1_555
H11 C15 1_555 1_555
C16 C15 1_555 1_555
H12 C16 1_555 1_555
C17 C16 1_555 1_555
H13 C17 1_555 1_555
C18 C13 1_555 1_555
H14 C18 1_555 1_555
C19 C12 1_555 1_555
C20 C19 1_555 1_555
H15 C20 1_555 1_555
C21 C20 1_555 1_555
H16 C21 1_555 1_555
C22 C21 1_555 1_555
C23 C22 1_555 1_555
H17 C23 1_555 1_555
C24 C19 1_555 1_555
H18 C24 1_555 1_555
Cl1 C22 1_555 1_555
N1 C1 1_555 1_555
O1 C1 1_555 1_555
C3 N1 1_555 1_555
C7 C8 1_555 1_555
C10 N1 1_555 1_555
C17 C18 1_555 1_555
C23 C24 1_555 1_555

#END
