
#######################################################################
#
#                 Cambridge Crystallographic Data Centre
#                                CCDC 
#
#######################################################################
#
# If this CIF has been generated from an entry in the Cambridge 
# Structural Database, then it will include bibliographic, chemical, 
# crystal, experimental, refinement or atomic coordinate data resulting 
# from the CCDC's data processing and validation procedures.
#
#######################################################################

data_LIPJOM
_chemical_formula_moiety         'C25 H19 N1 O4'
_chemical_name_systematic        
'methyl 3-acetyl-2-methyl-10-phenyl-9H-furo[2,3-b]carbazole-4-carboxylate'
_symmetry_cell_setting           monoclinic
_symmetry_space_group_name_H-M   'P 21/c'
_symmetry_Int_Tables_number      14
_space_group_name_Hall           '-P 2ybc'
loop_
_symmetry_equiv_pos_site_id
_symmetry_equiv_pos_as_xyz
1 x,y,z
2 -x,1/2+y,1/2-z
3 -x,-y,-z
4 x,1/2-y,1/2+z
_cell_length_a                   12.6115(4)
_cell_length_b                   12.5397(4)
_cell_length_c                   13.3771(5)
_cell_angle_alpha                90
_cell_angle_beta                 115.085(4)
_cell_angle_gamma                90
_cell_volume                     1915.98
_exptl_crystal_colour            'pale yellow'
_exptl_crystal_description       block
_cell_formula_units_Z            4
loop_
_atom_site_label
_atom_site_type_symbol
_atom_site_fract_x
_atom_site_fract_y
_atom_site_fract_z
C1 C 0.86114(10) 0.68771(10) 0.88732(10)
C2 C 0.88347(10) 0.57826(10) 0.88942(10)
H1 H 0.8604 0.5323 0.9311
C3 C 0.94057(11) 0.53955(10) 0.82834(11)
H2 H 0.9558 0.4669 0.8292
C4 C 0.97574(11) 0.60815(11) 0.76539(11)
H3 H 1.0131 0.5800 0.7244
C5 C 0.95612(10) 0.71661(10) 0.76287(10)
H4 H 0.9800 0.7621 0.7215
C6 C 0.89898(10) 0.75531(10) 0.82488(10)
C7 C 0.81517(10) 0.86215(10) 0.90583(10)
C8 C 0.80583(10) 0.75639(10) 0.93923(10)
C9 C 0.74807(10) 0.73457(10) 1.00629(9)
C10 C 0.70318(10) 0.82188(10) 1.04142(10)
C11 C 0.72040(10) 0.92454(10) 1.00998(10)
C12 C 0.77283(10) 0.95149(10) 0.94059(10)
C13 C 0.78151(10) 1.06181(10) 0.90514(11)
C14 C 0.74360(11) 1.08437(10) 0.79290(11)
H5 H 0.7121 1.0303 0.7411
C15 C 0.75272(12) 1.18681(11) 0.75842(12)
H6 H 0.7276 1.2011 0.6836
C16 C 0.79919(11) 1.26794(11) 0.83497(13)
H7 H 0.8052 1.3366 0.8116
C17 C 0.83665(11) 1.24660(11) 0.94641(13)
H8 H 0.8679 1.3010 0.9979
C18 C 0.82762(11) 1.14419(11) 0.98148(12)
H9 H 0.8525 1.1304 1.0563
C19 C 0.57349(11) 1.01629(11) 1.17113(11)
H10 H 0.4980 0.9899 1.1605
H11 H 0.5654 1.0870 1.1413
H12 H 0.6243 1.0180 1.2486
C20 C 0.62431(10) 0.94496(10) 1.11381(10)
C21 C 0.63846(10) 0.83773(10) 1.10863(10)
C22 C 0.59760(10) 0.75235(10) 1.15873(10)
C23 C 0.52225(12) 0.77787(11) 1.21780(11)
H13 H 0.5081 0.7139 1.2497
H14 H 0.4490 0.8070 1.1663
H15 H 0.5616 0.8290 1.2751
C24 C 0.73956(10) 0.62047(10) 1.03493(10)
C25 C 0.62776(13) 0.46346(11) 0.97773(12)
H16 H 0.6953 0.4237 0.9837
H17 H 0.5595 0.4364 0.9172
H18 H 0.6182 0.4564 1.0449
N1 N 0.87360(8) 0.86011(8) 0.83887(8)
H19 H 0.8714 0.9124 0.7968
O1 O 0.67284(7) 0.99973(7) 1.05450(7)
O2 O 0.62254(7) 0.65975(7) 1.14971(7)
O3 O 0.81403(7) 0.57271(7) 1.11036(7)
O4 O 0.64338(8) 0.57469(7) 0.95883(7)
loop_
_geom_bond_atom_site_label_1
_geom_bond_atom_site_label_2
_geom_bond_site_symmetry_1
_geom_bond_site_symmetry_2
C1 C2 1_555 1_555
C2 H1 1_555 1_555
C3 C2 1_555 1_555
H2 C3 1_555 1_555
C4 C3 1_555 1_555
H3 C4 1_555 1_555
C5 C4 1_555 1_555
H4 C5 1_555 1_555
C6 C1 1_555 1_555
C7 C8 1_555 1_555
C8 C1 1_555 1_555
C9 C8 1_555 1_555
C10 C9 1_555 1_555
C11 C10 1_555 1_555
C12 C7 1_555 1_555
C13 C12 1_555 1_555
C14 C13 1_555 1_555
H5 C14 1_555 1_555
C15 C14 1_555 1_555
H6 C15 1_555 1_555
C16 C15 1_555 1_555
H7 C16 1_555 1_555
C17 C16 1_555 1_555
H8 C17 1_555 1_555
C18 C13 1_555 1_555
H9 C18 1_555 1_555
C19 H10 1_555 1_555
H11 C19 1_555 1_555
H12 C19 1_555 1_555
C20 C19 1_555 1_555
C21 C10 1_555 1_555
C22 C21 1_555 1_555
C23 C22 1_555 1_555
H13 C23 1_555 1_555
H14 C23 1_555 1_555
H15 C23 1_555 1_555
C24 C9 1_555 1_555
C25 H16 1_555 1_555
H17 C25 1_555 1_555
H18 C25 1_555 1_555
N1 C6 1_555 1_555
H19 N1 1_555 1_555
O1 C11 1_555 1_555
O2 C22 1_555 1_555
O3 C24 1_555 1_555
O4 C24 1_555 1_555
C5 C6 1_555 1_555
C7 N1 1_555 1_555
C11 C12 1_555 1_555
C17 C18 1_555 1_555
C20 C21 1_555 1_555
C20 O1 1_555 1_555
C25 O4 1_555 1_555

#END
