
#######################################################################
#
#                 Cambridge Crystallographic Data Centre
#                                CCDC 
#
#######################################################################
#
# If this CIF has been generated from an entry in the Cambridge 
# Structural Database, then it will include bibliographic, chemical, 
# crystal, experimental, refinement or atomic coordinate data resulting 
# from the CCDC's data processing and validation procedures.
#
#######################################################################

data_LIPKEC
_chemical_formula_moiety         'C17 H15 N1'
_chemical_name_systematic        6-Methyl-3-(4-methylphenyl)quinoline
_symmetry_cell_setting           monoclinic
_symmetry_space_group_name_H-M   'P 21/n'
_symmetry_Int_Tables_number      14
_space_group_name_Hall           '-P 2yn'
loop_
_symmetry_equiv_pos_site_id
_symmetry_equiv_pos_as_xyz
1 x,y,z
2 1/2-x,1/2+y,1/2-z
3 -x,-y,-z
4 1/2+x,1/2-y,1/2+z
_cell_length_a                   17.1022(7)
_cell_length_b                   7.4395(3)
_cell_length_c                   20.7424(10)
_cell_angle_alpha                90
_cell_angle_beta                 98.282(4)
_cell_angle_gamma                90
_cell_volume                     2611.57
_exptl_crystal_colour            'light colorless'
_exptl_crystal_description       block
_cell_formula_units_Z            8
loop_
_atom_site_label
_atom_site_type_symbol
_atom_site_fract_x
_atom_site_fract_y
_atom_site_fract_z
N1 N 0.18918(12) 0.6258(3) 0.44255(11)
C1 C 0.11742(15) 0.6505(4) 0.45604(13)
H1 H 0.1113 0.6597 0.4997
C2 C 0.04828(14) 0.6645(3) 0.40933(12)
C3 C 0.05855(14) 0.6526(4) 0.34520(12)
H2 H 0.0151 0.6634 0.3128
C4 C 0.13418(14) 0.6241(3) 0.32780(12)
C5 C 0.14868(15) 0.6097(4) 0.26237(13)
H3 H 0.1063 0.6184 0.2290
C6 C 0.22288(17) 0.5836(4) 0.24674(14)
C7 C 0.28586(16) 0.5679(4) 0.29840(16)
H4 H 0.3367 0.5490 0.2888
C8 C 0.27454(16) 0.5797(4) 0.36175(15)
H5 H 0.3175 0.5675 0.3945
C9 C 0.19864(14) 0.6101(3) 0.37854(13)
C10 C 0.2385(2) 0.5738(4) 0.17726(15)
H6 H 0.1892 0.5709 0.1486
H7 H 0.2681 0.4669 0.1713
H8 H 0.2683 0.6774 0.1676
C11 C -0.03088(14) 0.6907(3) 0.42974(12)
C12 C -0.09911(14) 0.6293(3) 0.39155(13)
H9 H -0.0950 0.5675 0.3532
C13 C -0.17271(16) 0.6578(4) 0.40919(14)
H10 H -0.2171 0.6155 0.3822
C14 C -0.18247(18) 0.7476(4) 0.46585(15)
C15 C -0.1148(2) 0.8064(4) 0.50483(15)
H11 H -0.1193 0.8656 0.5436
C16 C -0.04037(17) 0.7792(4) 0.48725(13)
H12 H 0.0040 0.8208 0.5144
C17 C -0.26308(19) 0.7737(5) 0.48558(18)
H13 H -0.2996 0.8109 0.4484
H14 H -0.2603 0.8642 0.5188
H15 H -0.2807 0.6626 0.5021
N2 N 0.43620(13) 0.7095(3) 0.69034(11)
C18 C 0.36384(16) 0.7234(4) 0.70429(13)
H16 H 0.3574 0.7144 0.7479
C19 C 0.29500(14) 0.7508(3) 0.65872(12)
C20 C 0.30574(14) 0.7649(3) 0.59467(12)
H17 H 0.2622 0.7813 0.5628
C21 C 0.38184(15) 0.7550(3) 0.57650(13)
C22 C 0.39646(16) 0.7738(4) 0.51132(13)
H18 H 0.3542 0.7958 0.4787
C23 C 0.47114(17) 0.7604(4) 0.49492(15)
C24 C 0.53370(17) 0.7234(4) 0.54525(17)
H19 H 0.5845 0.7108 0.5349
C25 C 0.52211(17) 0.7055(4) 0.60846(17)
H20 H 0.5648 0.6815 0.6404
C26 C 0.44604(15) 0.7230(4) 0.62588(14)
C27 C 0.48722(19) 0.7836(5) 0.42599(15)
H21 H 0.4383 0.8025 0.3978
H22 H 0.5125 0.6776 0.4126
H23 H 0.5211 0.8855 0.4236
C28 C 0.21593(14) 0.7648(3) 0.68010(12)
C29 C 0.15556(15) 0.8625(3) 0.64417(12)
H24 H 0.1651 0.9203 0.6063
C30 C 0.08184(16) 0.8759(4) 0.66321(13)
H25 H 0.0428 0.9420 0.6378
C31 C 0.06444(17) 0.7936(4) 0.71926(14)
C32 C 0.12453(19) 0.6986(4) 0.75571(14)
H26 H 0.1149 0.6436 0.7940
C33 C 0.19893(17) 0.6826(4) 0.73702(13)
H27 H 0.2378 0.6166 0.7626
C34 C -0.01658(18) 0.8099(5) 0.73943(17)
H28 H -0.0239 0.9298 0.7546
H29 H -0.0214 0.7258 0.7738
H30 H -0.0560 0.7844 0.7028
loop_
_geom_bond_atom_site_label_1
_geom_bond_atom_site_label_2
_geom_bond_site_symmetry_1
_geom_bond_site_symmetry_2
N1 C1 1_555 1_555
C1 H1 1_555 1_555
C2 C1 1_555 1_555
C3 C2 1_555 1_555
H2 C3 1_555 1_555
C4 C3 1_555 1_555
C5 C4 1_555 1_555
H3 C5 1_555 1_555
C6 C5 1_555 1_555
C7 C6 1_555 1_555
H4 C7 1_555 1_555
C8 C7 1_555 1_555
H5 C8 1_555 1_555
C9 N1 1_555 1_555
C10 C6 1_555 1_555
H6 C10 1_555 1_555
H7 C10 1_555 1_555
H8 C10 1_555 1_555
C11 C2 1_555 1_555
C12 C11 1_555 1_555
H9 C12 1_555 1_555
C13 C12 1_555 1_555
H10 C13 1_555 1_555
C14 C13 1_555 1_555
C15 C14 1_555 1_555
H11 C15 1_555 1_555
C16 C11 1_555 1_555
H12 C16 1_555 1_555
C17 C14 1_555 1_555
H13 C17 1_555 1_555
H14 C17 1_555 1_555
H15 C17 1_555 1_555
N2 C18 1_555 1_555
C18 H16 1_555 1_555
C19 C18 1_555 1_555
C20 C19 1_555 1_555
H17 C20 1_555 1_555
C21 C20 1_555 1_555
C22 C21 1_555 1_555
H18 C22 1_555 1_555
C23 C22 1_555 1_555
C24 C23 1_555 1_555
H19 C24 1_555 1_555
C25 C24 1_555 1_555
H20 C25 1_555 1_555
C26 N2 1_555 1_555
C27 C23 1_555 1_555
H21 C27 1_555 1_555
H22 C27 1_555 1_555
H23 C27 1_555 1_555
C28 C19 1_555 1_555
C29 C28 1_555 1_555
H24 C29 1_555 1_555
C30 C29 1_555 1_555
H25 C30 1_555 1_555
C31 C30 1_555 1_555
C32 C31 1_555 1_555
H26 C32 1_555 1_555
C33 C28 1_555 1_555
H27 C33 1_555 1_555
C34 C31 1_555 1_555
H28 C34 1_555 1_555
H29 C34 1_555 1_555
H30 C34 1_555 1_555
C4 C9 1_555 1_555
C8 C9 1_555 1_555
C15 C16 1_555 1_555
C21 C26 1_555 1_555
C25 C26 1_555 1_555
C32 C33 1_555 1_555

#END
