
#######################################################################
#
#                 Cambridge Crystallographic Data Centre
#                                CCDC 
#
#######################################################################
#
# If this CIF has been generated from an entry in the Cambridge 
# Structural Database, then it will include bibliographic, chemical, 
# crystal, experimental, refinement or atomic coordinate data resulting 
# from the CCDC's data processing and validation procedures.
#
#######################################################################

data_LIPNIJ
_chemical_formula_moiety         'C19 H17 N1 O5 S1'
_chemical_name_systematic        
'Benzyl 7-methyl-3,10b-dihydropyrrolo[1,2-c][1,2,3]benzoxathiazine-1-carboxylate 5,5-dioxide'
_symmetry_cell_setting           monoclinic
_symmetry_space_group_name_H-M   'P 21/c'
_symmetry_Int_Tables_number      14
_space_group_name_Hall           '-P 2ybc'
loop_
_symmetry_equiv_pos_site_id
_symmetry_equiv_pos_as_xyz
1 x,y,z
2 -x,1/2+y,1/2-z
3 -x,-y,-z
4 x,1/2-y,1/2+z
_cell_length_a                   12.808(3)
_cell_length_b                   11.901(2)
_cell_length_c                   24.056(7)
_cell_angle_alpha                90
_cell_angle_beta                 112.72(3)
_cell_angle_gamma                90
_cell_volume                     3382.28
_exptl_crystal_colour            colorless
_exptl_crystal_description       Plate
_cell_formula_units_Z            8
loop_
_atom_site_label
_atom_site_type_symbol
_atom_site_fract_x
_atom_site_fract_y
_atom_site_fract_z
S1 S 0.94173(6) 0.19398(6) 0.37493(3)
O1 O 1.04124(17) 0.17150(18) 0.36416(9)
O2 O 0.93723(19) 0.17478(18) 0.43215(9)
O3 O 0.91214(18) 0.32377(16) 0.36205(8)
O4 O 0.72417(18) 0.08770(18) 0.13401(9)
O5 O 0.54878(17) 0.09631(17) 0.13500(9)
N1 N 0.8375(2) 0.1316(2) 0.32315(10)
C1 C 0.8916(2) 0.3589(2) 0.30218(12)
C2 C 0.9152(2) 0.4716(2) 0.29657(13)
C3 C 0.9648(3) 0.5458(3) 0.35115(14)
H1 H 0.9154 0.5452 0.3737
H2 H 0.9713 0.6228 0.3384
H3 H 1.0399 0.5179 0.3769
C4 C 0.8924(2) 0.5110(2) 0.23871(13)
H4 H 0.9054 0.5879 0.2329
C5 C 0.8509(3) 0.4402(2) 0.18918(13)
H5 H 0.8362 0.4688 0.1500
C6 C 0.8308(2) 0.3284(2) 0.19653(12)
H6 H 0.8039 0.2804 0.1624
C7 C 0.8495(2) 0.2848(2) 0.25353(12)
C8 C 0.8263(2) 0.1602(2) 0.26055(12)
H7 H 0.8777 0.1119 0.2484
C9 C 0.7236(2) 0.1350(3) 0.32683(13)
H8 H 0.7152 0.0749 0.3533
H9 H 0.7088 0.2089 0.3413
C10 C 0.6488(3) 0.1156(2) 0.26255(13)
H10 H 0.5707 0.0973 0.2492
C11 C 0.7041(2) 0.1268(2) 0.22596(13)
C12 C 0.6620(2) 0.1019(2) 0.16041(13)
C13 C 0.5027(3) 0.0682(3) 0.07056(13)
H11 H 0.5251 -0.0090 0.0646
H12 H 0.5324 0.1209 0.0484
C14 C 0.3762(3) 0.0769(2) 0.04748(12)
C15 C 0.3079(3) -0.0179(3) 0.03603(14)
H13 H 0.3415 -0.0904 0.0425
C16 C 0.1921(3) -0.0082(3) 0.01546(15)
H14 H 0.1466 -0.0738 0.0085
C17 C 0.1416(3) 0.0964(3) 0.00485(15)
H15 H 0.0616 0.1031 -0.0099
C18 C 0.2084(3) 0.1905(3) 0.01581(16)
H16 H 0.1743 0.2628 0.0089
C19 C 0.3241(3) 0.1812(3) 0.03671(15)
H17 H 0.3691 0.2473 0.0439
S2 S 0.44253(6) 0.25845(6) 0.37714(3)
O6 O 0.54260(17) 0.28118(18) 0.36672(9)
O7 O 0.43670(18) 0.27928(18) 0.43395(9)
O8 O 0.41316(18) 0.12872(16) 0.36436(9)
O9 O 0.22826(19) 0.36094(18) 0.13576(10)
O10 O 0.05219(17) 0.35045(17) 0.13581(9)
N2 N 0.3390(2) 0.32017(19) 0.32500(10)
C20 C 0.3931(2) 0.0927(2) 0.30457(12)
C21 C 0.4173(2) -0.0203(2) 0.30011(13)
C22 C 0.4670(3) -0.0932(3) 0.35524(14)
H18 H 0.4759 -0.1700 0.3431
H19 H 0.4165 -0.0936 0.3771
H20 H 0.5411 -0.0635 0.3814
C23 C 0.3952(3) -0.0605(2) 0.24243(14)
H21 H 0.4088 -0.1375 0.2371
C24 C 0.3540(3) 0.0090(3) 0.19264(13)
H22 H 0.3392 -0.0205 0.1536
C25 C 0.3342(2) 0.1213(2) 0.19935(13)
H23 H 0.3079 0.1688 0.1649
C26 C 0.3521(2) 0.1661(2) 0.25591(12)
C27 C 0.3285(2) 0.2904(2) 0.26253(12)
H24 H 0.3800 0.3386 0.2503
C28 C 0.2247(2) 0.3166(2) 0.32824(13)
H25 H 0.2100 0.2428 0.3428
H26 H 0.2158 0.3768 0.3544
C29 C 0.1501(3) 0.3353(2) 0.26364(13)
H27 H 0.0719 0.3534 0.2499
C30 C 0.2063(2) 0.3237(2) 0.22764(13)
C31 C 0.1648(3) 0.3463(2) 0.16169(13)
C32 C 0.0080(3) 0.3703(3) 0.07063(13)
H28 H 0.0272 0.3063 0.0500
H29 H 0.0419 0.4393 0.0618
C33 C -0.1177(3) 0.3829(2) 0.04886(12)
C34 C -0.1867(3) 0.2938(3) 0.04998(13)
H30 H -0.1539 0.2228 0.0649
C35 C -0.3023(3) 0.3072(3) 0.02966(14)
H31 H -0.3483 0.2454 0.0310
C36 C -0.3515(3) 0.4081(3) 0.00765(15)
H32 H -0.4312 0.4167 -0.0063
C37 C -0.2842(3) 0.4977(3) 0.00583(16)
H33 H -0.3177 0.5683 -0.0093
C38 C -0.1684(3) 0.4845(3) 0.02602(14)
H34 H -0.1229 0.5462 0.0242
loop_
_geom_bond_atom_site_label_1
_geom_bond_atom_site_label_2
_geom_bond_site_symmetry_1
_geom_bond_site_symmetry_2
S1 O1 1_555 1_555
O2 S1 1_555 1_555
O3 S1 1_555 1_555
O4 C12 1_555 1_555
O5 C12 1_555 1_555
N1 S1 1_555 1_555
C1 O3 1_555 1_555
C2 C1 1_555 1_555
C3 C2 1_555 1_555
H1 C3 1_555 1_555
H2 C3 1_555 1_555
H3 C3 1_555 1_555
C4 C2 1_555 1_555
H4 C4 1_555 1_555
C5 C4 1_555 1_555
H5 C5 1_555 1_555
C6 C5 1_555 1_555
H6 C6 1_555 1_555
C7 C1 1_555 1_555
C8 N1 1_555 1_555
H7 C8 1_555 1_555
C9 N1 1_555 1_555
H8 C9 1_555 1_555
H9 C9 1_555 1_555
C10 C9 1_555 1_555
H10 C10 1_555 1_555
C11 C8 1_555 1_555
C12 C11 1_555 1_555
C13 O5 1_555 1_555
H11 C13 1_555 1_555
H12 C13 1_555 1_555
C14 C13 1_555 1_555
C15 C14 1_555 1_555
H13 C15 1_555 1_555
C16 C15 1_555 1_555
H14 C16 1_555 1_555
C17 C16 1_555 1_555
H15 C17 1_555 1_555
C18 C17 1_555 1_555
H16 C18 1_555 1_555
C19 C14 1_555 1_555
H17 C19 1_555 1_555
S2 O6 1_555 1_555
O7 S2 1_555 1_555
O8 S2 1_555 1_555
O9 C31 1_555 1_555
O10 C31 1_555 1_555
N2 S2 1_555 1_555
C20 O8 1_555 1_555
C21 C20 1_555 1_555
C22 C21 1_555 1_555
H18 C22 1_555 1_555
H19 C22 1_555 1_555
H20 C22 1_555 1_555
C23 C21 1_555 1_555
H21 C23 1_555 1_555
C24 C23 1_555 1_555
H22 C24 1_555 1_555
C25 C24 1_555 1_555
H23 C25 1_555 1_555
C26 C20 1_555 1_555
C27 N2 1_555 1_555
H24 C27 1_555 1_555
C28 N2 1_555 1_555
H25 C28 1_555 1_555
H26 C28 1_555 1_555
C29 C28 1_555 1_555
H27 C29 1_555 1_555
C30 C27 1_555 1_555
C31 C30 1_555 1_555
C32 O10 1_555 1_555
H28 C32 1_555 1_555
H29 C32 1_555 1_555
C33 C32 1_555 1_555
C34 C33 1_555 1_555
H30 C34 1_555 1_555
C35 C34 1_555 1_555
H31 C35 1_555 1_555
C36 C35 1_555 1_555
H32 C36 1_555 1_555
C37 C36 1_555 1_555
H33 C37 1_555 1_555
C38 C33 1_555 1_555
H34 C38 1_555 1_555
C6 C7 1_555 1_555
C7 C8 1_555 1_555
C10 C11 1_555 1_555
C18 C19 1_555 1_555
C25 C26 1_555 1_555
C26 C27 1_555 1_555
C29 C30 1_555 1_555
C37 C38 1_555 1_555

#END
