
#######################################################################
#
#                 Cambridge Crystallographic Data Centre
#                                CCDC 
#
#######################################################################
#
# If this CIF has been generated from an entry in the Cambridge 
# Structural Database, then it will include bibliographic, chemical, 
# crystal, experimental, refinement or atomic coordinate data resulting 
# from the CCDC's data processing and validation procedures.
#
#######################################################################

data_LIQNAB
_chemical_formula_moiety         'C12 H24 N3 1+,F6 P1 1-'
_chemical_name_systematic        
"1-(2'-(Di-isopropylamino)ethyl)-3-methylimidazolium hexafluorophosphate"
_symmetry_cell_setting           orthorhombic
_symmetry_space_group_name_H-M   'P b c a'
_symmetry_Int_Tables_number      61
_space_group_name_Hall           '-P 2ac 2ab'
loop_
_symmetry_equiv_pos_site_id
_symmetry_equiv_pos_as_xyz
1 x,y,z
2 1/2-x,-y,1/2+z
3 -x,1/2+y,1/2-z
4 1/2+x,1/2-y,-z
5 -x,-y,-z
6 1/2+x,y,1/2-z
7 x,1/2-y,1/2+z
8 1/2-x,1/2+y,z
_cell_length_a                   11.6985(6)
_cell_length_b                   15.6059(8)
_cell_length_c                   18.2137(9)
_cell_angle_alpha                90
_cell_angle_beta                 90
_cell_angle_gamma                90
_cell_volume                     3325.2
_exptl_crystal_colour            colorless
_cell_formula_units_Z            8
loop_
_atom_site_label
_atom_site_type_symbol
_atom_site_fract_x
_atom_site_fract_y
_atom_site_fract_z
C1 C 0.83218(16) 0.40540(12) 0.05885(11)
H1 H 0.8793 0.4531 0.0413
H2 H 0.8321 0.3595 0.0221
H3 H 0.8636 0.3836 0.1051
C2 C 0.61991(15) 0.38359(11) 0.07758(9)
H4 H 0.6187 0.3228 0.0747
C3 C 0.52921(15) 0.43501(11) 0.08902(9)
H5 H 0.4522 0.4174 0.0958
C4 C 0.68170(15) 0.51643(11) 0.07854(9)
H6 H 0.7306 0.5650 0.0769
C5 C 0.50054(15) 0.59465(11) 0.10561(10)
H7 H 0.4228 0.5875 0.0850
H8 H 0.5357 0.6457 0.0825
C6 C 0.49291(14) 0.60782(12) 0.18861(9)
H9 H 0.4351 0.6524 0.1994
H10 H 0.4676 0.5538 0.2121
C7 C 0.63408(16) 0.59122(12) 0.28912(10)
H11 H 0.6949 0.6272 0.3123
C8 C 0.68808(18) 0.50412(12) 0.27200(11)
H12 H 0.6313 0.4670 0.2485
H13 H 0.7143 0.4775 0.3177
H14 H 0.7532 0.5121 0.2389
C9 C 0.53850(19) 0.58119(15) 0.34600(11)
H15 H 0.5035 0.6372 0.3555
H16 H 0.5704 0.5583 0.3917
H17 H 0.4804 0.5417 0.3271
C10 C 0.62027(15) 0.72706(11) 0.21536(9)
H18 H 0.5889 0.7463 0.1670
C11 C 0.74744(15) 0.74778(12) 0.21475(10)
H19 H 0.7805 0.7343 0.2628
H20 H 0.7582 0.8088 0.2042
H21 H 0.7855 0.7135 0.1768
C12 C 0.56063(16) 0.78040(12) 0.27454(11)
H22 H 0.4789 0.7666 0.2752
H23 H 0.5707 0.8415 0.2638
H24 H 0.5941 0.7673 0.3226
N1 N 0.71459(12) 0.43533(9) 0.07087(8)
N2 N 0.56959(12) 0.51838(9) 0.08893(7)
N3 N 0.60203(12) 0.63348(9) 0.21945(8)
F1 F 0.29980(9) 0.72842(7) 0.07464(6)
F2 F 0.22954(9) 0.86425(7) 0.07708(6)
F3 F 0.39024(9) 0.91234(6) 0.02219(6)
F4 F 0.46081(9) 0.77713(7) 0.01965(6)
F5 F 0.40304(10) 0.83522(7) 0.12735(6)
F6 F 0.28739(9) 0.80546(6) -0.03033(6)
P1 P 0.34554(4) 0.82050(3) 0.04925(2)
loop_
_geom_bond_atom_site_label_1
_geom_bond_atom_site_label_2
_geom_bond_site_symmetry_1
_geom_bond_site_symmetry_2
C1 H1 1_555 1_555
H2 C1 1_555 1_555
H3 C1 1_555 1_555
C2 H4 1_555 1_555
C3 C2 1_555 1_555
H5 C3 1_555 1_555
C4 H6 1_555 1_555
C5 H7 1_555 1_555
H8 C5 1_555 1_555
C6 C5 1_555 1_555
H9 C6 1_555 1_555
H10 C6 1_555 1_555
C7 H11 1_555 1_555
C8 C7 1_555 1_555
H12 C8 1_555 1_555
H13 C8 1_555 1_555
H14 C8 1_555 1_555
C9 C7 1_555 1_555
H15 C9 1_555 1_555
H16 C9 1_555 1_555
H17 C9 1_555 1_555
C10 H18 1_555 1_555
C11 C10 1_555 1_555
H19 C11 1_555 1_555
H20 C11 1_555 1_555
H21 C11 1_555 1_555
C12 C10 1_555 1_555
H22 C12 1_555 1_555
H23 C12 1_555 1_555
H24 C12 1_555 1_555
N1 C1 1_555 1_555
N2 C3 1_555 1_555
N3 C6 1_555 1_555
F1 P1 1_555 1_555
F2 P1 1_555 1_555
F3 P1 1_555 1_555
F4 P1 1_555 1_555
F5 P1 1_555 1_555
F6 P1 1_555 1_555
C2 N1 1_555 1_555
C4 N1 1_555 1_555
C4 N2 1_555 1_555
C5 N2 1_555 1_555
C7 N3 1_555 1_555
C10 N3 1_555 1_555

#END
