
#######################################################################
#
#                 Cambridge Crystallographic Data Centre
#                                CCDC 
#
#######################################################################
#
# If this CIF has been generated from an entry in the Cambridge 
# Structural Database, then it will include bibliographic, chemical, 
# crystal, experimental, refinement or atomic coordinate data resulting 
# from the CCDC's data processing and validation procedures.
#
#######################################################################

data_LIQTAJ
_chemical_formula_moiety         'C30 H30 Cl1 F1 O5 S1'
_chemical_name_systematic        
't-butyl 3-{4-[2-(2-chloro-4-fluorophenyl)-1-{[(4-methylphenyl)sulfonyl]oxy}but-1-en-1-yl]phenyl}prop-2-enoate'
_symmetry_cell_setting           monoclinic
_symmetry_space_group_name_H-M   'C c'
_symmetry_Int_Tables_number      9
_space_group_name_Hall           'C -2yc'
loop_
_symmetry_equiv_pos_site_id
_symmetry_equiv_pos_as_xyz
1 x,y,z
2 x,-y,1/2+z
3 1/2+x,1/2+y,z
4 1/2+x,1/2-y,1/2+z
_cell_length_a                   8.0486(5)
_cell_length_b                   32.6885(18)
_cell_length_c                   10.8430(6)
_cell_angle_alpha                90
_cell_angle_beta                 96.0840(10)
_cell_angle_gamma                90
_cell_volume                     2836.69
_exptl_crystal_colour            colorless
_exptl_crystal_description       plate
_cell_formula_units_Z            4
loop_
_atom_site_label
_atom_site_type_symbol
_atom_site_fract_x
_atom_site_fract_y
_atom_site_fract_z
C1 C 0.5846(5) 0.56319(9) 0.5838(3)
C2 C 0.5584(5) 0.60347(10) 0.5696(3)
C3 C 0.6828(5) 0.63543(10) 0.6198(3)
H1 H 0.7252 0.6500 0.5494
H2 H 0.7789 0.6217 0.6672
C4 C 0.6081(5) 0.66670(11) 0.7040(3)
H3 H 0.5236 0.6831 0.6547
H4 H 0.6969 0.6846 0.7418
H5 H 0.5563 0.6523 0.7693
C5 C 0.3992(5) 0.61994(9) 0.5067(3)
C6 C 0.3900(5) 0.63606(10) 0.3865(3)
C7 C 0.2472(5) 0.65413(10) 0.3301(3)
H6 H 0.2429 0.6649 0.2485
C8 C 0.1109(5) 0.65592(11) 0.3966(4)
C9 C 0.1124(5) 0.64056(11) 0.5145(4)
H7 H 0.0161 0.6422 0.5579
C10 C 0.2573(5) 0.62279(10) 0.5679(3)
H8 H 0.2601 0.6121 0.6495
C11 C 0.4767(5) 0.52842(10) 0.5451(3)
C12 C 0.4769(5) 0.49389(9) 0.6229(3)
H9 H 0.5392 0.4945 0.7024
C13 C 0.3888(5) 0.45940(10) 0.5859(3)
H10 H 0.3913 0.4366 0.6402
C14 C 0.2955(5) 0.45710(10) 0.4703(3)
C15 C 0.2893(5) 0.49201(10) 0.3949(3)
H11 H 0.2222 0.4917 0.3174
C16 C 0.3786(5) 0.52671(10) 0.4311(3)
H12 H 0.3733 0.5498 0.3777
C17 C 0.2156(5) 0.41898(10) 0.4240(3)
H13 H 0.1294 0.4211 0.3573
C18 C 0.2526(5) 0.38221(10) 0.4667(3)
H14 H 0.3336 0.3795 0.5366
C19 C 0.1747(5) 0.34502(10) 0.4113(3)
C20 C 0.2011(6) 0.26984(10) 0.4305(4)
C21 C 0.0202(6) 0.26084(12) 0.4454(5)
H15 H -0.0030 0.2682 0.5295
H16 H -0.0017 0.2316 0.4315
H17 H -0.0519 0.2769 0.3849
C22 C 0.3170(7) 0.24490(12) 0.5195(4)
H18 H 0.4330 0.2525 0.5109
H19 H 0.3009 0.2158 0.5008
H20 H 0.2925 0.2503 0.6046
C23 C 0.2411(7) 0.26351(12) 0.2978(4)
H21 H 0.1652 0.2801 0.2415
H22 H 0.2272 0.2346 0.2756
H23 H 0.3567 0.2718 0.2909
C24 C 0.8613(5) 0.48367(9) 0.5631(3)
C25 C 0.9035(5) 0.45957(10) 0.6670(3)
H24 H 0.9515 0.4716 0.7422
C26 C 0.8749(5) 0.41802(10) 0.6599(3)
H25 H 0.9034 0.4015 0.7312
C27 C 0.8048(5) 0.39967(10) 0.5501(3)
C28 C 0.7653(5) 0.42458(10) 0.4470(3)
H26 H 0.7187 0.4126 0.3712
C29 C 0.7926(5) 0.46637(10) 0.4526(3)
H27 H 0.7646 0.4830 0.3816
C30 C 0.7736(6) 0.35444(10) 0.5411(3)
H28 H 0.6532 0.3492 0.5373
H29 H 0.8309 0.3408 0.6141
H30 H 0.8161 0.3438 0.4661
O1 O 0.0665(4) 0.34401(7) 0.3247(2)
O2 O 0.2426(4) 0.31193(7) 0.4703(2)
O3 O 0.7380(3) 0.55115(7) 0.65127(18)
O4 O 0.8654(3) 0.55484(7) 0.45494(19)
O5 O 1.0327(3) 0.54507(7) 0.6584(2)
F1 F -0.0307(3) 0.67371(7) 0.3417(2)
S1 S 0.88839(11) 0.53663(2) 0.57518(7)
Cl1 Cl 0.56258(12) 0.63296(3) 0.30407(8)
loop_
_geom_bond_atom_site_label_1
_geom_bond_atom_site_label_2
_geom_bond_site_symmetry_1
_geom_bond_site_symmetry_2
C1 C2 1_555 1_555
C2 C3 1_555 1_555
C3 H1 1_555 1_555
H2 C3 1_555 1_555
C4 C3 1_555 1_555
H3 C4 1_555 1_555
H4 C4 1_555 1_555
H5 C4 1_555 1_555
C5 C2 1_555 1_555
C6 C5 1_555 1_555
C7 C6 1_555 1_555
H6 C7 1_555 1_555
C8 C7 1_555 1_555
C9 C8 1_555 1_555
H7 C9 1_555 1_555
C10 C5 1_555 1_555
H8 C10 1_555 1_555
C11 C1 1_555 1_555
C12 C11 1_555 1_555
H9 C12 1_555 1_555
C13 C12 1_555 1_555
H10 C13 1_555 1_555
C14 C13 1_555 1_555
C15 C14 1_555 1_555
H11 C15 1_555 1_555
C16 C11 1_555 1_555
H12 C16 1_555 1_555
C17 C14 1_555 1_555
H13 C17 1_555 1_555
C18 C17 1_555 1_555
H14 C18 1_555 1_555
C19 C18 1_555 1_555
C20 C21 1_555 1_555
C21 H15 1_555 1_555
H16 C21 1_555 1_555
H17 C21 1_555 1_555
C22 C20 1_555 1_555
H18 C22 1_555 1_555
H19 C22 1_555 1_555
H20 C22 1_555 1_555
C23 C20 1_555 1_555
H21 C23 1_555 1_555
H22 C23 1_555 1_555
H23 C23 1_555 1_555
C24 C25 1_555 1_555
C25 H24 1_555 1_555
C26 C25 1_555 1_555
H25 C26 1_555 1_555
C27 C26 1_555 1_555
C28 C27 1_555 1_555
H26 C28 1_555 1_555
C29 C24 1_555 1_555
H27 C29 1_555 1_555
C30 C27 1_555 1_555
H28 C30 1_555 1_555
H29 C30 1_555 1_555
H30 C30 1_555 1_555
O1 C19 1_555 1_555
O2 C19 1_555 1_555
O3 C1 1_555 1_555
O4 S1 1_555 1_555
O5 S1 1_555 1_555
F1 C8 1_555 1_555
S1 C24 1_555 1_555
Cl1 C6 1_555 1_555
C9 C10 1_555 1_555
C15 C16 1_555 1_555
C20 O2 1_555 1_555
C28 C29 1_555 1_555
O3 S1 1_555 1_555

#END
