
#######################################################################
#
#                 Cambridge Crystallographic Data Centre
#                                CCDC 
#
#######################################################################
#
# If this CIF has been generated from an entry in the Cambridge 
# Structural Database, then it will include bibliographic, chemical, 
# crystal, experimental, refinement or atomic coordinate data resulting 
# from the CCDC's data processing and validation procedures.
#
#######################################################################

data_LISGIF
_chemical_formula_moiety         'C14 H12 Br1 N1 O3 S1'
_chemical_name_systematic        
'4-(4-Bromophenyl)-8-methyl-3,4-dihydro-1,2,3-benzoxathiazine 2,2-dioxide'
_symmetry_cell_setting           orthorhombic
_symmetry_space_group_name_H-M   'P 21 21 21'
_symmetry_Int_Tables_number      19
_space_group_name_Hall           'P 2ac 2ab'
loop_
_symmetry_equiv_pos_site_id
_symmetry_equiv_pos_as_xyz
1 x,y,z
2 1/2+x,1/2-y,-z
3 -x,1/2+y,1/2-z
4 1/2-x,-y,1/2+z
_cell_length_a                   9.6530(3)
_cell_length_b                   12.3548(4)
_cell_length_c                   24.1314(9)
_cell_angle_alpha                90
_cell_angle_beta                 90
_cell_angle_gamma                90
_cell_volume                     2877.93
_exptl_crystal_colour            colorless
_exptl_crystal_description       block
_cell_formula_units_Z            8
loop_
_atom_site_label
_atom_site_type_symbol
_atom_site_fract_x
_atom_site_fract_y
_atom_site_fract_z
Br1 Br 0.11923(4) -0.39043(3) 0.058561(18)
S1 S 0.04414(8) 0.27994(7) 0.06026(3)
O1 O 0.1696(2) 0.33735(17) 0.05561(10)
O2 O -0.0767(2) 0.31395(17) 0.03157(9)
O3 O -0.0031(2) 0.28108(18) 0.12375(8)
N1 N 0.0742(3) 0.1549(2) 0.04817(11)
C1 C 0.1412(3) -0.2386(2) 0.06626(14)
C2 C 0.0476(4) -0.1812(3) 0.09766(16)
H1 H -0.0272 -0.2178 0.1151
C3 C 0.0618(4) -0.0707(3) 0.10401(15)
H2 H -0.0027 -0.0314 0.1259
C4 C 0.1700(3) -0.0174(3) 0.07849(12)
C5 C 0.1814(3) 0.1044(3) 0.08396(13)
H3 H 0.2740 0.1263 0.0692
C6 C 0.1727(3) 0.1431(3) 0.14355(13)
C7 C 0.2573(3) 0.0945(3) 0.18362(14)
H4 H 0.3185 0.0377 0.1735
C8 C 0.2513(5) 0.1295(4) 0.23796(17)
H5 H 0.3080 0.0959 0.2652
C9 C 0.1634(4) 0.2131(4) 0.25316(15)
H6 H 0.1617 0.2363 0.2907
C10 C 0.2627(3) -0.0744(3) 0.04670(12)
H7 H 0.3368 -0.0377 0.0289
C11 C 0.2482(3) -0.1857(3) 0.04058(13)
H8 H 0.3125 -0.2251 0.0186
C12 C 0.0871(3) 0.2260(3) 0.16104(12)
C13 C 0.0788(4) 0.2633(3) 0.21542(14)
C14 C -0.0196(5) 0.3527(3) 0.23134(16)
H9 H -0.0056 0.3717 0.2704
H10 H -0.1152 0.3283 0.2259
H11 H -0.0019 0.4164 0.2081
H12 H 0.003(3) 0.125(2) 0.0465(10)
Br2 Br 0.64499(5) 0.78799(3) 0.090701(16)
S2 S 0.67111(8) 0.10815(7) 0.09539(4)
O4 O 0.7310(2) 0.1152(2) 0.15702(9)
O5 O 0.7804(2) 0.06208(17) 0.06435(10)
O6 O 0.5405(2) 0.05690(18) 0.09861(12)
N2 N 0.6501(3) 0.2314(2) 0.07860(10)
H13 H 0.6911 0.2594 0.0494
C15 C 0.6225(3) 0.6359(2) 0.09345(13)
C16 C 0.7298(4) 0.5722(3) 0.11135(13)
H14 H 0.8173 0.6032 0.1200
C17 C 0.7085(3) 0.4619(3) 0.11665(13)
H15 H 0.7819 0.4175 0.1297
C18 C 0.5844(3) 0.4155(2) 0.10354(12)
C19 C 0.5583(3) 0.2969(3) 0.11454(13)
H16 H 0.4599 0.2800 0.1050
C20 C 0.5820(3) 0.2703(3) 0.17548(14)
C21 C 0.6614(4) 0.1848(3) 0.19414(15)
C22 C 0.6849(5) 0.1630(4) 0.25017(19)
C23 C 0.7781(5) 0.0717(4) 0.26680(18)
H17 H 0.8710 0.0839 0.2516
H18 H 0.7410 0.0035 0.2523
H19 H 0.7832 0.0679 0.3073
C24 C 0.6219(6) 0.2323(5) 0.28783(19)
H20 H 0.6350 0.2205 0.3264
C25 C 0.5420(6) 0.3166(5) 0.2709(2)
H21 H 0.5007 0.3630 0.2976
C26 C 0.5205(5) 0.3351(4) 0.21588(18)
H22 H 0.4624 0.3933 0.2048
C27 C 0.4805(3) 0.4799(3) 0.08353(16)
H23 H 0.3949 0.4484 0.0726
C28 C 0.4994(4) 0.5916(3) 0.07901(16)
H24 H 0.4263 0.6363 0.0659
loop_
_geom_bond_atom_site_label_1
_geom_bond_atom_site_label_2
_geom_bond_site_symmetry_1
_geom_bond_site_symmetry_2
Br1 C1 1_555 1_555
S1 O1 1_555 1_555
O2 S1 1_555 1_555
O3 S1 1_555 1_555
N1 S1 1_555 1_555
C1 C2 1_555 1_555
C2 H1 1_555 1_555
C3 C2 1_555 1_555
H2 C3 1_555 1_555
C4 C3 1_555 1_555
C5 N1 1_555 1_555
H3 C5 1_555 1_555
C6 C5 1_555 1_555
C7 C6 1_555 1_555
H4 C7 1_555 1_555
C8 C7 1_555 1_555
H5 C8 1_555 1_555
C9 C8 1_555 1_555
H6 C9 1_555 1_555
C10 C4 1_555 1_555
H7 C10 1_555 1_555
C11 C1 1_555 1_555
H8 C11 1_555 1_555
C12 O3 1_555 1_555
C13 C9 1_555 1_555
C14 C13 1_555 1_555
H9 C14 1_555 1_555
H10 C14 1_555 1_555
H11 C14 1_555 1_555
H12 N1 1_555 1_555
Br2 C15 1_555 1_555
S2 O4 1_555 1_555
O4 C21 1_555 1_555
O5 S2 1_555 1_555
O6 S2 1_555 1_555
N2 S2 1_555 1_555
H13 N2 1_555 1_555
C15 C16 1_555 1_555
C16 H14 1_555 1_555
C17 C16 1_555 1_555
H15 C17 1_555 1_555
C18 C17 1_555 1_555
C19 N2 1_555 1_555
H16 C19 1_555 1_555
C20 C19 1_555 1_555
C21 C20 1_555 1_555
C22 C21 1_555 1_555
C23 C22 1_555 1_555
H17 C23 1_555 1_555
H18 C23 1_555 1_555
H19 C23 1_555 1_555
C24 C22 1_555 1_555
H20 C24 1_555 1_555
C25 C24 1_555 1_555
H21 C25 1_555 1_555
C26 C20 1_555 1_555
H22 C26 1_555 1_555
C27 C18 1_555 1_555
H23 C27 1_555 1_555
C28 C15 1_555 1_555
H24 C28 1_555 1_555
C4 C5 1_555 1_555
C6 C12 1_555 1_555
C10 C11 1_555 1_555
C12 C13 1_555 1_555
C18 C19 1_555 1_555
C25 C26 1_555 1_555
C27 C28 1_555 1_555

#END
