
#######################################################################
#
#                 Cambridge Crystallographic Data Centre
#                                CCDC 
#
#######################################################################
#
# If this CIF has been generated from an entry in the Cambridge 
# Structural Database, then it will include bibliographic, chemical, 
# crystal, experimental, refinement or atomic coordinate data resulting 
# from the CCDC's data processing and validation procedures.
#
#######################################################################

data_LISNAE
_chemical_formula_moiety         'C23 H16 Br1 F3 O6'
_chemical_name_systematic        
'Ethyl 4-(3-bromophenyl)-2-hydroxy-5,10-dioxo-2-(trifluoromethyl)-3,4,5,10-tetrahydro-2H-benzo[g]chromene-3-carboxylate'
_symmetry_cell_setting           monoclinic
_symmetry_space_group_name_H-M   'P 21/c'
_symmetry_Int_Tables_number      14
_space_group_name_Hall           '-P 2ybc'
loop_
_symmetry_equiv_pos_site_id
_symmetry_equiv_pos_as_xyz
1 x,y,z
2 -x,1/2+y,1/2-z
3 -x,-y,-z
4 x,1/2-y,1/2+z
_cell_length_a                   11.6050(7)
_cell_length_b                   22.5959(14)
_cell_length_c                   8.0282(5)
_cell_angle_alpha                90
_cell_angle_beta                 99.311(2)
_cell_angle_gamma                90
_cell_volume                     2077.46
_exptl_crystal_colour            colorless
_exptl_crystal_description       block
_cell_formula_units_Z            4
loop_
_atom_site_label
_atom_site_type_symbol
_atom_site_fract_x
_atom_site_fract_y
_atom_site_fract_z
Br1 Br 0.69266(4) 0.01233(2) 0.36021(5)
F1 F 1.08884(17) -0.17665(10) -0.1846(3)
F2 F 1.03064(18) -0.12078(10) -0.3937(3)
F3 F 1.03748(18) -0.21424(10) -0.4279(3)
O1 O 0.9339(2) -0.16025(10) 0.1083(3)
O2 O 0.99329(19) -0.07509(10) 0.0057(3)
O3 O 0.87345(19) -0.23196(9) -0.2151(3)
H1 H 0.8069 -0.2441 -0.2469
O4 O 0.6771(2) -0.18946(11) -0.7418(3)
O5 O 0.48358(19) -0.15867(10) -0.1904(3)
O6 O 0.81709(17) -0.17269(9) -0.4514(2)
C1 C 0.5010(3) -0.18042(13) -0.6304(4)
C2 C 0.4304(3) -0.18921(14) -0.7846(4)
H2 H 0.4639 -0.1938 -0.8815
C3 C 0.3110(3) -0.19125(16) -0.7954(5)
H3 H 0.2640 -0.1968 -0.8996
C4 C 0.2607(3) -0.18510(16) -0.6512(5)
H4 H 0.1801 -0.1879 -0.6580
C5 C 0.3301(3) -0.17480(14) -0.4970(4)
H5 H 0.2960 -0.1694 -0.4009
C6 C 0.4504(3) -0.17246(13) -0.4853(4)
C7 C 0.5253(3) -0.16159(13) -0.3198(4)
C8 C 0.6521(2) -0.15500(12) -0.3138(4)
C9 C 0.7000(3) -0.16913(12) -0.4509(4)
C10 C 0.6297(3) -0.18107(13) -0.6194(4)
C11 C 0.7250(2) -0.13506(13) -0.1516(3)
H6 H 0.7194 -0.1645 -0.0637
C12 C 0.8542(2) -0.12878(13) -0.1748(4)
H7 H 0.8617 -0.0912 -0.2330
C13 C 0.8874(3) -0.17834(13) -0.2882(4)
C14 C 0.6854(2) -0.07488(13) -0.0935(4)
C15 C 0.6433(3) -0.03129(14) -0.2100(4)
H8 H 0.6324 -0.0398 -0.3248
C16 C 0.6174(3) 0.02462(15) -0.1566(4)
H9 H 0.5892 0.0532 -0.2362
C17 C 0.6326(3) 0.03871(16) 0.0120(4)
H10 H 0.6161 0.0764 0.0480
C18 C 0.6731(3) -0.00485(15) 0.1249(4)
C19 C 0.6999(3) -0.06131(14) 0.0761(4)
H11 H 0.7273 -0.0897 0.1566
C20 C 1.0118(3) -0.17227(15) -0.3250(4)
C21 C 0.9313(3) -0.12507(14) -0.0034(4)
C22 C 1.0706(3) -0.06218(18) 0.1621(5)
H12 H 1.1329 -0.0364 0.1390
H13 H 1.1055 -0.0987 0.2098
C23 C 1.0071(4) -0.0334(2) 0.2857(5)
H14 H 1.0605 -0.0253 0.3876
H15 H 0.9464 -0.0591 0.3104
H16 H 0.9734 0.0031 0.2394
loop_
_geom_bond_atom_site_label_1
_geom_bond_atom_site_label_2
_geom_bond_site_symmetry_1
_geom_bond_site_symmetry_2
Br1 C18 1_555 1_555
F1 C20 1_555 1_555
F2 C20 1_555 1_555
F3 C20 1_555 1_555
O1 C21 1_555 1_555
O2 C21 1_555 1_555
O3 H1 1_555 1_555
O4 C10 1_555 1_555
O5 C7 1_555 1_555
O6 C9 1_555 1_555
C1 C2 1_555 1_555
C2 H2 1_555 1_555
C3 C2 1_555 1_555
H3 C3 1_555 1_555
C4 C3 1_555 1_555
H4 C4 1_555 1_555
C5 C4 1_555 1_555
H5 C5 1_555 1_555
C6 C1 1_555 1_555
C7 C6 1_555 1_555
C8 C7 1_555 1_555
C9 C8 1_555 1_555
C10 C1 1_555 1_555
C11 C8 1_555 1_555
H6 C11 1_555 1_555
C12 C11 1_555 1_555
H7 C12 1_555 1_555
C13 O3 1_555 1_555
C14 C11 1_555 1_555
C15 C14 1_555 1_555
H8 C15 1_555 1_555
C16 C15 1_555 1_555
H9 C16 1_555 1_555
C17 C16 1_555 1_555
H10 C17 1_555 1_555
C18 C17 1_555 1_555
C19 C14 1_555 1_555
H11 C19 1_555 1_555
C20 C13 1_555 1_555
C21 C12 1_555 1_555
C22 O2 1_555 1_555
H12 C22 1_555 1_555
H13 C22 1_555 1_555
C23 C22 1_555 1_555
H14 C23 1_555 1_555
H15 C23 1_555 1_555
H16 C23 1_555 1_555
O6 C13 1_555 1_555
C5 C6 1_555 1_555
C9 C10 1_555 1_555
C12 C13 1_555 1_555
C18 C19 1_555 1_555

#END
