
#######################################################################
#
#                 Cambridge Crystallographic Data Centre
#                                CCDC 
#
#######################################################################
#
# If this CIF has been generated from an entry in the Cambridge 
# Structural Database, then it will include bibliographic, chemical, 
# crystal, experimental, refinement or atomic coordinate data resulting 
# from the CCDC's data processing and validation procedures.
#
#######################################################################

data_LISQAI
_chemical_formula_moiety         'C18 H7 Cl8 N1'
_chemical_name_systematic        
4-[bis(2,4,6-trichlorophenyl)methyl]-3,5-dichloropyridine
_symmetry_cell_setting           triclinic
_symmetry_space_group_name_H-M   'P -1'
_symmetry_Int_Tables_number      2
_space_group_name_Hall           '-P 1'
loop_
_symmetry_equiv_pos_site_id
_symmetry_equiv_pos_as_xyz
1 x,y,z
2 -x,-y,-z
_cell_length_a                   8.294(3)
_cell_length_b                   9.816(4)
_cell_length_c                   13.421(5)
_cell_angle_alpha                77.841(15)
_cell_angle_beta                 70.630(15)
_cell_angle_gamma                74.272(15)
_cell_volume                     983.407
_exptl_crystal_colour            orange
_exptl_crystal_description       block
_cell_formula_units_Z            2
loop_
_atom_site_label
_atom_site_type_symbol
_atom_site_fract_x
_atom_site_fract_y
_atom_site_fract_z
Cl1 Cl -0.08637(17) 0.18690(16) 0.26651(12)
Cl2 Cl 0.61888(17) 0.08044(17) 0.20543(12)
Cl3 Cl -0.06517(19) 0.49472(16) 0.39858(10)
Cl4 Cl 0.41259(17) 0.32486(14) 0.02899(11)
Cl5 Cl -0.0563(2) 0.81550(16) 0.02350(11)
Cl6 Cl 0.15651(19) 0.08122(16) 0.49159(12)
Cl7 Cl 0.49707(19) 0.48138(15) 0.21927(10)
Cl8 Cl 0.6263(3) 0.26632(16) 0.58942(13)
N1 N 0.3107(7) -0.1183(5) 0.1487(4)
C1 C 0.2205(8) 0.2740(6) 0.2850(5)
C2 C 0.1535(8) -0.0340(6) 0.1822(5)
C3 C 0.1278(7) 0.0907(6) 0.2249(4)
C4 C 0.2672(7) 0.1357(6) 0.2340(4)
C5 C 0.4284(7) 0.0446(6) 0.2005(4)
C6 C 0.4460(8) -0.0768(7) 0.1579(5)
C7 C 0.0275(7) 0.6595(6) 0.0957(5)
C8 C -0.0421(7) 0.6397(6) 0.2053(5)
C9 C 0.0276(7) 0.5154(6) 0.2610(4)
C10 C 0.1667(7) 0.4098(6) 0.2128(4)
C11 C 0.2327(7) 0.4377(6) 0.1014(4)
C12 C 0.1641(7) 0.5599(6) 0.0429(5)
C13 C 0.5128(7) 0.2703(6) 0.5015(5)
C14 C 0.3962(8) 0.1823(6) 0.5251(5)
C15 C 0.3072(7) 0.1895(6) 0.4529(4)
C16 C 0.3314(6) 0.2780(5) 0.3545(4)
C17 C 0.4487(7) 0.3650(6) 0.3362(4)
C18 C 0.5376(7) 0.3623(6) 0.4078(4)
H1 H 0.1059 0.2660 0.3396
H2 H 0.0546 -0.0599 0.1768
H3 H 0.5602 -0.1341 0.1337
H4 H -0.1351 0.7095 0.2411
H5 H 0.2104 0.5751 -0.0325
H6 H 0.3779 0.1183 0.5896
H7 H 0.6159 0.4241 0.3921
loop_
_geom_bond_atom_site_label_1
_geom_bond_atom_site_label_2
_geom_bond_site_symmetry_1
_geom_bond_site_symmetry_2
Cl1 C3 1_555 1_555
Cl2 C5 1_555 1_555
Cl3 C9 1_555 1_555
Cl4 C11 1_555 1_555
Cl5 C7 1_555 1_555
Cl6 C15 1_555 1_555
Cl7 C17 1_555 1_555
Cl8 C13 1_555 1_555
N1 C2 1_555 1_555
C1 C4 1_555 1_555
C2 C3 1_555 1_555
C3 C4 1_555 1_555
C4 C5 1_555 1_555
C5 C6 1_555 1_555
C6 N1 1_555 1_555
C7 C8 1_555 1_555
C8 C9 1_555 1_555
C9 C10 1_555 1_555
C10 C1 1_555 1_555
C11 C10 1_555 1_555
C12 C7 1_555 1_555
C13 C14 1_555 1_555
C14 C15 1_555 1_555
C15 C16 1_555 1_555
C16 C1 1_555 1_555
C17 C16 1_555 1_555
C18 C13 1_555 1_555
H1 C1 1_555 1_555
H2 C2 1_555 1_555
H3 C6 1_555 1_555
H4 C8 1_555 1_555
H5 C12 1_555 1_555
H6 C14 1_555 1_555
H7 C18 1_555 1_555
C11 C12 1_555 1_555
C17 C18 1_555 1_555

#END
