
#######################################################################
#
#                 Cambridge Crystallographic Data Centre
#                                CCDC 
#
#######################################################################
#
# If this CIF has been generated from an entry in the Cambridge 
# Structural Database, then it will include bibliographic, chemical, 
# crystal, experimental, refinement or atomic coordinate data resulting 
# from the CCDC's data processing and validation procedures.
#
#######################################################################

data_LISVOB
_chemical_formula_moiety         'C29 H20 Br1 N1 O4 S1'
_chemical_name_systematic        
2-(benzenecarbonyl)-3-(4-bromophenyl)-1'-(phenylsulfonyl)spiro[cyclopropane-1,2'-indol]-3'(1'H)-one
_symmetry_cell_setting           triclinic
_symmetry_space_group_name_H-M   'P -1'
_symmetry_Int_Tables_number      2
_space_group_name_Hall           '-P 1'
loop_
_symmetry_equiv_pos_site_id
_symmetry_equiv_pos_as_xyz
1 x,y,z
2 -x,-y,-z
_cell_length_a                   9.8247(5)
_cell_length_b                   11.5260(6)
_cell_length_c                   11.6543(5)
_cell_angle_alpha                86.407(4)
_cell_angle_beta                 74.525(4)
_cell_angle_gamma                72.819(5)
_cell_volume                     1214.94
_exptl_crystal_colour            colorless
_exptl_crystal_description       irregular
_cell_formula_units_Z            2
loop_
_atom_site_label
_atom_site_type_symbol
_atom_site_fract_x
_atom_site_fract_y
_atom_site_fract_z
Br1 Br 0.08964(4) 0.43926(3) 0.82943(3)
S1 S 0.34951(8) 0.95095(6) 0.28371(6)
O1 O 0.3350(3) 0.53141(18) 0.2966(2)
N1 N 0.3248(2) 0.8364(2) 0.21595(19)
O2 O 0.2072(3) 1.02736(18) 0.3388(2)
O3 O -0.0735(3) 0.9570(2) 0.2985(2)
O4 O 0.4487(3) 0.9986(2) 0.1944(2)
C1 C 0.2544(3) 0.7511(2) 0.2890(2)
C2 C 0.1073(3) 0.5447(2) 0.6973(2)
C3 C 0.4484(3) 0.7640(3) 0.1285(2)
C4 C 0.4717(3) 0.6412(3) 0.1521(2)
C5 C 0.0933(3) 0.7603(3) 0.2970(2)
H1 H 0.0726 0.6825 0.2950
C6 C -0.0044(3) 0.8483(3) 0.1173(2)
C7 C 0.3560(3) 0.6250(2) 0.2549(2)
C8 C 0.1370(3) 0.7827(3) 0.4043(2)
H2 H 0.1071 0.8685 0.4283
C9 C -0.0010(3) 0.8645(3) 0.2419(2)
C10 C -0.0149(3) 0.5973(3) 0.6550(3)
H3 H -0.1044 0.5816 0.6898
C11 C 0.1312(3) 0.6967(2) 0.5063(2)
C12 C -0.0007(3) 0.6738(3) 0.5599(3)
H4 H -0.0825 0.7110 0.5312
C13 C 0.2402(3) 0.5671(3) 0.6466(2)
H5 H 0.3214 0.5313 0.6765
C14 C 0.2516(3) 0.6430(3) 0.5511(2)
H6 H 0.3412 0.6585 0.5162
C15 C 0.4362(3) 0.8826(2) 0.3950(2)
C16 C 0.1111(4) 0.7692(3) 0.0378(3)
H7 H 0.1917 0.7212 0.0631
C17 C 0.3620(3) 0.9099(3) 0.5131(3)
H8 H 0.2675 0.9638 0.5338
C18 C 0.5826(3) 0.5535(3) 0.0756(3)
H9 H 0.5986 0.4713 0.0918
C19 C -0.1256(4) 0.9170(3) 0.0787(3)
H10 H -0.2043 0.9704 0.1312
C20 C 0.5768(3) 0.8041(3) 0.3626(3)
H11 H 0.6265 0.7882 0.2827
C21 C 0.5305(4) 0.8033(4) 0.0273(3)
H12 H 0.5130 0.8855 0.0101
C22 C 0.6670(4) 0.5922(4) -0.0242(3)
H13 H 0.7425 0.5357 -0.0761
C23 C -0.1289(5) 0.9059(4) -0.0367(4)
H14 H -0.2115 0.9506 -0.0613
C24 C 0.1074(5) 0.7610(3) -0.0789(3)
H15 H 0.1864 0.7086 -0.1322
C25 C 0.4307(4) 0.8555(3) 0.5994(3)
H16 H 0.3826 0.8742 0.6792
C26 C 0.5687(5) 0.7745(4) 0.5696(4)
H17 H 0.6130 0.7364 0.6286
C27 C 0.6420(4) 0.7497(4) 0.4499(4)
H18 H 0.7364 0.6956 0.4292
C28 C -0.0129(5) 0.8301(3) -0.1167(3)
H19 H -0.0152 0.8253 -0.1955
C29 C 0.6407(4) 0.7152(4) -0.0482(3)
H20 H 0.6986 0.7393 -0.1169
loop_
_geom_bond_atom_site_label_1
_geom_bond_atom_site_label_2
_geom_bond_site_symmetry_1
_geom_bond_site_symmetry_2
Br1 C2 1_555 1_555
S1 N1 1_555 1_555
O1 C7 1_555 1_555
N1 C1 1_555 1_555
O2 S1 1_555 1_555
O3 C9 1_555 1_555
O4 S1 1_555 1_555
C1 C5 1_555 1_555
C2 C10 1_555 1_555
C3 N1 1_555 1_555
C4 C3 1_555 1_555
C5 H1 1_555 1_555
C6 C9 1_555 1_555
C7 C1 1_555 1_555
C8 C1 1_555 1_555
H2 C8 1_555 1_555
C9 C5 1_555 1_555
C10 H3 1_555 1_555
C11 C8 1_555 1_555
C12 C10 1_555 1_555
H4 C12 1_555 1_555
C13 C2 1_555 1_555
H5 C13 1_555 1_555
C14 C11 1_555 1_555
H6 C14 1_555 1_555
C15 S1 1_555 1_555
C16 C6 1_555 1_555
H7 C16 1_555 1_555
C17 C15 1_555 1_555
H8 C17 1_555 1_555
C18 C4 1_555 1_555
H9 C18 1_555 1_555
C19 C6 1_555 1_555
H10 C19 1_555 1_555
C20 C15 1_555 1_555
H11 C20 1_555 1_555
C21 C3 1_555 1_555
H12 C21 1_555 1_555
C22 C18 1_555 1_555
H13 C22 1_555 1_555
C23 C19 1_555 1_555
H14 C23 1_555 1_555
C24 C16 1_555 1_555
H15 C24 1_555 1_555
C25 C17 1_555 1_555
H16 C25 1_555 1_555
C26 C25 1_555 1_555
H17 C26 1_555 1_555
C27 C20 1_555 1_555
H18 C27 1_555 1_555
C28 C23 1_555 1_555
H19 C28 1_555 1_555
C29 C21 1_555 1_555
H20 C29 1_555 1_555
C4 C7 1_555 1_555
C5 C8 1_555 1_555
C11 C12 1_555 1_555
C13 C14 1_555 1_555
C22 C29 1_555 1_555
C24 C28 1_555 1_555
C26 C27 1_555 1_555

#END
