
#######################################################################
#
#                 Cambridge Crystallographic Data Centre
#                                CCDC 
#
#######################################################################
#
# If this CIF has been generated from an entry in the Cambridge 
# Structural Database, then it will include bibliographic, chemical, 
# crystal, experimental, refinement or atomic coordinate data resulting 
# from the CCDC's data processing and validation procedures.
#
#######################################################################

data_LISYOE
_chemical_formula_moiety         'C138 H178 N12 S2 Si8,x(C4 H8 O1)'
_chemical_name_systematic        
'11,17,23,29,41,47,53,59-octakis((2-[triisopropylsilyl]ethynyl))-20,50-dithia-3,7,15,19,21,25,33,37,45,49,51,55-dodecaazaheptadecacyclo[37.21.2.2^9,27^.0^2,38^.0^4,36^.0^6,34^.0^8,32^.0^14,26^.0^16,24^.0^18,22^.0^43,62^.0^44,56^.0^46,54^.0^48,52^.0^57,61^.0^13,64^.0^31,63^]tetrahexaconta-1(61),2,4,6(34),7,9(64),10,12,14,16,18,21,23,25,27,29,31(63),32,35,37,39(62),40,42,44,46,48,51,53,55,57,59-hentriacontaene tetrahydrofuran solvate'
_symmetry_cell_setting           triclinic
_symmetry_space_group_name_H-M   'P -1'
_symmetry_Int_Tables_number      2
_space_group_name_Hall           '-P 1'
loop_
_symmetry_equiv_pos_site_id
_symmetry_equiv_pos_as_xyz
1 x,y,z
2 -x,-y,-z
_cell_length_a                   13.9717(7)
_cell_length_b                   18.5673(8)
_cell_length_c                   27.9688(12)
_cell_angle_alpha                98.093(4)
_cell_angle_beta                 91.956(4)
_cell_angle_gamma                94.994(4)
_cell_volume                     7148.13
_exptl_crystal_colour            brown
_exptl_crystal_description       needle
_cell_formula_units_Z            2
_exptl_crystal_recrystallization_method 
'Re-crystallisation from solvent: tetrahydrofuran'
loop_
_atom_site_label
_atom_site_type_symbol
_atom_site_fract_x
_atom_site_fract_y
_atom_site_fract_z
Si1 Si 0.13004(17) 0.27803(12) 0.79534(7)
Si2 Si 0.70749(19) 0.75711(13) 0.90488(9)
Si3 Si 0.1865(3) 0.17177(17) 0.53921(10)
Si4 Si 0.9150(2) 0.87419(15) 0.71218(10)
Si5 Si 0.5788(2) 0.05952(13) 0.23106(11)
Si6 Si 1.2860(2) 0.75880(16) 0.37301(11)
Si7 Si 0.80191(18) 0.12941(12) 0.01783(8)
Si8 Si 1.37489(17) 0.60774(12) 0.11652(8)
S1 S 0.27079(15) 0.58022(11) 0.95740(6)
N1 N 0.2362(4) 0.5222(3) 0.91056(19)
C1 C 0.2928(5) 0.5390(4) 0.8742(2)
C2 C 0.3625(5) 0.6010(4) 0.8895(2)
N2 N 0.3569(4) 0.6289(3) 0.93751(19)
C3 C 0.2894(5) 0.4988(4) 0.8266(2)
C4 C 0.3568(5) 0.5255(4) 0.7952(2)
C5 C 0.4247(5) 0.5883(4) 0.8101(2)
C6 C 0.4316(5) 0.6252(4) 0.8582(2)
N3 N 0.3568(4) 0.4880(3) 0.74888(18)
C7 C 0.4217(5) 0.5118(3) 0.7199(2)
C8 C 0.4862(5) 0.5757(4) 0.7350(2)
N4 N 0.4896(4) 0.6123(3) 0.77885(18)
C9 C 0.4273(5) 0.4704(4) 0.6714(2)
C10 C 0.4946(5) 0.4962(4) 0.6399(2)
C11 C 0.5582(5) 0.5615(4) 0.6543(2)
C12 C 0.5558(5) 0.6018(4) 0.7007(2)
C13 C 0.3670(5) 0.4078(4) 0.6570(2)
H1 H 0.3226 0.3912 0.6790
C14 C 0.3698(6) 0.3682(4) 0.6106(2)
C15 C 0.4363(5) 0.3924(4) 0.5789(2)
H2 H 0.4387 0.3662 0.5474
C16 C 0.4994(5) 0.4549(4) 0.5932(2)
C17 C 0.5700(6) 0.4801(4) 0.5602(2)
C18 C 0.6318(6) 0.5448(4) 0.5736(2)
C19 C 0.6271(5) 0.5861(4) 0.6224(2)
C20 C 0.6877(6) 0.6482(4) 0.6364(3)
H3 H 0.7319 0.6642 0.6142
C21 C 0.6862(6) 0.6891(4) 0.6828(3)
C22 C 0.6173(6) 0.6645(4) 0.7145(2)
H4 H 0.6134 0.6915 0.7458
N5 N 0.5701(5) 0.4386(3) 0.5164(2)
N6 N 0.6968(5) 0.5693(3) 0.5447(2)
N7 N 0.7135(4) 0.4035(3) 0.36357(19)
N8 N 0.8431(5) 0.5311(3) 0.39258(19)
N9 N 0.9034(4) 0.3633(3) 0.12633(19)
N10 N 1.0404(4) 0.4853(3) 0.15556(19)
N11 N 1.0163(4) 0.3570(3) -0.03563(19)
N12 N 1.1332(4) 0.4661(3) -0.01056(19)
C23 C 0.6385(6) 0.4631(4) 0.4861(2)
C24 C 0.7001(6) 0.5275(4) 0.4993(2)
C25 C 0.6419(6) 0.4225(4) 0.4396(2)
H5 H 0.5983 0.3804 0.4297
C26 C 0.7103(6) 0.4452(4) 0.4087(2)
C27 C 0.7757(5) 0.5092(4) 0.4225(2)
C28 C 0.7710(6) 0.5509(4) 0.4683(2)
H6 H 0.8140 0.5933 0.4781
C29 C 0.7792(5) 0.4278(4) 0.3348(2)
C30 C 0.8431(5) 0.4904(4) 0.3487(2)
C31 C 0.7810(5) 0.3848(4) 0.2861(2)
C32 C 0.8481(5) 0.4109(4) 0.2532(2)
C33 C 0.9171(5) 0.4733(4) 0.2682(2)
C34 C 0.9188(5) 0.5121(4) 0.3154(2)
C35 C 0.7224(5) 0.3212(4) 0.2730(2)
H7 H 0.6786 0.3048 0.2953
C36 C 0.7263(5) 0.2797(4) 0.2269(2)
C37 C 0.7857(5) 0.3073(4) 0.1939(2)
H8 H 0.7851 0.2819 0.1619
C38 C 0.8458(5) 0.3706(4) 0.2062(2)
C39 C 0.9116(5) 0.3981(4) 0.1712(2)
C40 C 0.9793(5) 0.4597(4) 0.1863(2)
C41 C 0.9856(5) 0.4959(4) 0.2367(2)
C42 C 1.0563(6) 0.5517(4) 0.2524(3)
H9 H 1.1005 0.5674 0.2301
C43 C 1.0639(6) 0.5856(4) 0.3008(3)
C44 C 0.9895(6) 0.5667(4) 0.3312(2)
H10 H 0.9888 0.5923 0.3630
C45 C 0.9633(5) 0.3905(4) 0.0942(2)
C46 C 1.0316(5) 0.4519(4) 0.1084(2)
C47 C 0.9546(5) 0.3533(4) 0.0457(2)
C48 C 1.0136(5) 0.3838(4) 0.0126(2)
C49 C 1.0814(5) 0.4454(4) 0.0265(2)
C50 C 1.0948(5) 0.4806(4) 0.0754(2)
S2 S 1.09457(15) 0.40963(10) -0.05793(6)
C51 C 0.2299(5) 0.4335(4) 0.8145(2)
C52 C 0.1827(6) 0.3755(4) 0.8066(2)
C53 C 0.1713(9) 0.2341(6) 0.8476(4)
H11 H 0.1329 0.2548 0.8749
C54 C 0.2716(9) 0.2536(7) 0.8654(4)
H12 H 0.2863 0.3067 0.8683
H13 H 0.2810 0.2378 0.8970
H14 H 0.3144 0.2294 0.8425
C55 C 0.1451(12) 0.1573(7) 0.8424(6)
H15 H 0.0778 0.1469 0.8306
H16 H 0.1864 0.1319 0.8193
H17 H 0.1530 0.1404 0.8738
C56 C -0.0043(7) 0.2792(5) 0.7907(3)
H18 H -0.0200 0.3052 0.7629
C57 C -0.0460(6) 0.3195(5) 0.8354(3)
H19 H -0.0134 0.3689 0.8428
H20 H -0.1150 0.3224 0.8292
H21 H -0.0366 0.2930 0.8628
C58 C -0.0585(8) 0.2011(6) 0.7804(5)
H22 H -0.0332 0.1737 0.7518
H23 H -0.0490 0.1755 0.8084
H24 H -0.1273 0.2049 0.7747
C59 C 0.1680(8) 0.2399(5) 0.7352(3)
H25 H 0.1442 0.1870 0.7279
C60 C 0.1346(7) 0.2793(5) 0.6947(3)
H26 H 0.0642 0.2755 0.6924
H27 H 0.1595 0.3309 0.7013
H28 H 0.1586 0.2570 0.6641
C61 C 0.2902(8) 0.2490(7) 0.7366(4)
H29 H 0.3152 0.2243 0.7625
H30 H 0.3125 0.2271 0.7055
H31 H 0.3134 0.3010 0.7428
C62 C 0.5091(6) 0.6781(4) 0.8746(2)
C63 C 0.5820(6) 0.7151(4) 0.8884(3)
C64 C 0.7293(11) 0.7508(11) 0.9687(5)
H32 H 0.6943 0.7933 0.9822
C65 C 0.6927(11) 0.7049(8) 0.9944(4)
H33 H 0.6286 0.6854 0.9808
H34 H 0.7338 0.6648 0.9946
H35 H 0.6875 0.7292 1.0275
C66 C 0.8279(11) 0.7790(10) 0.9914(6)
H36 H 0.8584 0.8146 0.9725
H37 H 0.8215 0.8025 1.0246
H38 H 0.8677 0.7381 0.9917
C67 C 0.7128(10) 0.8548(6) 0.8912(4)
H39 H 0.7815 0.8757 0.8943
C68 C 0.6574(12) 0.8937(8) 0.9354(6)
H40 H 0.6931 0.8914 0.9659
H41 H 0.6524 0.9449 0.9316
H42 H 0.5928 0.8687 0.9359
C69 C 0.6747(13) 0.8474(10) 0.8328(6)
H43 H 0.7202 0.8215 0.8124
H44 H 0.6111 0.8199 0.8282
H45 H 0.6707 0.8962 0.8239
C70 C 0.7893(9) 0.7043(7) 0.8631(5)
H46 H 0.7707 0.7287 0.8350
C71 C 0.7579(9) 0.6345(7) 0.8389(5)
H47 H 0.6887 0.6246 0.8425
H48 H 0.7708 0.6322 0.8045
H49 H 0.7923 0.5979 0.8527
C72 C 0.8907(10) 0.7369(9) 0.8651(7)
H50 H 0.8958 0.7858 0.8839
H51 H 0.9323 0.7060 0.8804
H52 H 0.9108 0.7403 0.8322
C73 C 0.3089(6) 0.3042(4) 0.5928(2)
C74 C 0.2605(6) 0.2504(5) 0.5737(3)
C75 C 0.0639(10) 0.1890(9) 0.5408(6)
H53 H 0.0476 0.1669 0.5704
C76 C 0.0291(9) 0.2632(7) 0.5558(5)
H54 H 0.0765 0.2927 0.5788
H55 H 0.0210 0.2876 0.5273
H56 H -0.0326 0.2574 0.5711
C77 C -0.0053(10) 0.1393(9) 0.5049(6)
H57 H 0.0209 0.0921 0.4965
H58 H -0.0675 0.1317 0.5195
H59 H -0.0139 0.1619 0.4757
C78 C 0.2129(14) 0.0881(6) 0.5675(5)
H60 H 0.2814 0.0833 0.5593
C79 C 0.2192(16) 0.0953(8) 0.6166(5)
H61 H 0.2522 0.1431 0.6296
H62 H 0.1545 0.0911 0.6290
H63 H 0.2556 0.0567 0.6267
C80 C 0.1645(13) 0.0180(7) 0.5416(5)
H64 H 0.1641 0.0190 0.5067
H65 H 0.1993 -0.0227 0.5495
H66 H 0.0982 0.0117 0.5518
C81 C 0.2331(9) 0.1564(6) 0.4769(3)
H67 H 0.1911 0.1157 0.4574
C82 C 0.2332(11) 0.2214(6) 0.4515(4)
H68 H 0.1681 0.2371 0.4502
H69 H 0.2773 0.2611 0.4690
H70 H 0.2544 0.2088 0.4186
C83 C 0.3334(9) 0.1349(7) 0.4779(4)
H71 H 0.3360 0.0920 0.4945
H72 H 0.3537 0.1232 0.4447
H73 H 0.3765 0.1754 0.4952
C84 C 0.7534(6) 0.7522(4) 0.6960(3)
C85 C 0.8119(6) 0.8027(5) 0.7049(3)
C86 C 0.9007(10) 0.9380(6) 0.7722(4)
H74 H 0.8852 0.9058 0.7972
C87 C 0.8154(10) 0.9856(7) 0.7687(5)
H75 H 0.7563 0.9539 0.7585
H76 H 0.8075 1.0141 0.8003
H77 H 0.8285 1.0189 0.7449
C88 C 1.0006(11) 0.9814(7) 0.7881(5)
H78 H 1.0497 0.9470 0.7893
H79 H 1.0178 1.0146 0.7648
H80 H 0.9967 1.0098 0.8202
C89 C 0.9058(8) 0.9182(6) 0.6531(4)
H81 H 0.9121 0.8792 0.6251
C90 C 0.9880(9) 0.9781(7) 0.6523(5)
H82 H 1.0497 0.9578 0.6566
H83 H 0.9852 0.9968 0.6213
H84 H 0.9817 1.0180 0.6786
C91 C 0.8140(8) 0.9478(6) 0.6468(4)
H85 H 0.7617 0.9092 0.6474
H86 H 0.8075 0.9876 0.6731
H87 H 0.8110 0.9664 0.6158
C92 C 1.0191(10) 0.8267(8) 0.7099(6)
H88 H 1.0747 0.8650 0.7160
C93 C 1.0375(11) 0.7787(8) 0.6604(6)
H89 H 1.0341 0.8083 0.6342
H90 H 1.1014 0.7609 0.6622
H91 H 0.9885 0.7370 0.6542
C94 C 1.0237(11) 0.7828(9) 0.7513(6)
H92 H 1.0121 0.8137 0.7815
H93 H 0.9746 0.7411 0.7456
H94 H 1.0875 0.7650 0.7537
C95 C 0.6726(5) 0.2090(4) 0.2181(2)
C96 C 0.6334(6) 0.1489(4) 0.2173(3)
C97 C 0.4710(10) 0.0750(8) 0.2644(6)
H95 H 0.4168 0.0725 0.2397
C98 C 0.4438(13) 0.0144(9) 0.2967(7)
H96 H 0.4439 -0.0340 0.2774
H97 H 0.4910 0.0189 0.3240
H98 H 0.3797 0.0203 0.3089
C99 C 0.4685(10) 0.1448(8) 0.2972(6)
H99 H 0.4849 0.1858 0.2795
H100 H 0.4039 0.1482 0.3094
H101 H 0.5152 0.1467 0.3244
C100 C 0.6634(11) 0.0219(8) 0.2683(6)
H102 H 0.6317 -0.0227 0.2795
C101 C 0.7051(11) 0.0817(8) 0.3160(5)
H103 H 0.6511 0.0984 0.3347
H104 H 0.7478 0.0583 0.3363
H105 H 0.7409 0.1236 0.3050
C102 C 0.7534(14) 0.0045(12) 0.2459(8)
H106 H 0.7391 -0.0311 0.2166
H107 H 0.7871 0.0491 0.2374
H108 H 0.7941 -0.0163 0.2687
C103 C 0.5775(15) -0.0103(7) 0.1762(6)
H109 H 0.6438 -0.0204 0.1664
C104 C 0.5178(18) -0.0773(9) 0.1833(7)
H110 H 0.5469 -0.0991 0.2095
H111 H 0.4531 -0.0650 0.1916
H112 H 0.5139 -0.1122 0.1534
C105 C 0.5218(16) 0.0078(10) 0.1389(7)
H113 H 0.5509 0.0528 0.1287
H114 H 0.5178 -0.0319 0.1116
H115 H 0.4571 0.0153 0.1499
C106 C 1.1367(6) 0.6416(4) 0.3186(3)
C107 C 1.1973(7) 0.6890(5) 0.3370(3)
C108 C 1.3274(9) 0.7116(8) 0.4279(4)
H116 H 1.3563 0.6665 0.4135
C109 C 1.2502(10) 0.6872(9) 0.4571(5)
H117 H 1.1995 0.6578 0.4360
H118 H 1.2755 0.6576 0.4801
H119 H 1.2237 0.7298 0.4748
C110 C 1.4066(11) 0.7574(10) 0.4605(5)
H120 H 1.4586 0.7737 0.4408
H121 H 1.3802 0.8000 0.4782
H122 H 1.4320 0.7278 0.4836
C111 C 1.2170(10) 0.8345(7) 0.4000(5)
H123 H 1.1820 0.8188 0.4279
C112 C 1.1407(8) 0.8529(6) 0.3610(4)
H124 H 1.0969 0.8092 0.3498
H125 H 1.1039 0.8921 0.3758
H126 H 1.1744 0.8687 0.3336
C113 C 1.2894(11) 0.9043(8) 0.4191(6)
H127 H 1.3357 0.8918 0.4430
H128 H 1.3238 0.9203 0.3919
H129 H 1.2533 0.9438 0.4341
C114 C 1.3903(10) 0.7778(8) 0.3369(5)
H130 H 1.4332 0.8182 0.3564
C115 C 1.4482(9) 0.7156(8) 0.3250(5)
H131 H 1.4726 0.7003 0.3549
H132 H 1.4081 0.6748 0.3060
H133 H 1.5024 0.7302 0.3060
C116 C 1.3417(10) 0.8121(8) 0.2897(5)
H134 H 1.3050 0.8530 0.3018
H135 H 1.3931 0.8294 0.2699
H136 H 1.2988 0.7739 0.2699
C117 C 0.8995(6) 0.2842(4) 0.0339(2)
C118 C 0.8574(6) 0.2233(4) 0.0258(3)
C119 C 0.6654(7) 0.1370(5) 0.0231(4)
H137 H 0.6467 0.1690 -0.0009
C120 C 0.6437(8) 0.1767(5) 0.0737(4)
H138 H 0.6852 0.2226 0.0809
H139 H 0.5762 0.1872 0.0738
H140 H 0.6560 0.1455 0.0982
C121 C 0.6035(7) 0.0666(5) 0.0107(5)
H141 H 0.6186 0.0426 -0.0213
H142 H 0.6155 0.0346 0.0349
H143 H 0.5357 0.0764 0.0105
C122 C 0.8551(8) 0.0847(5) 0.0671(3)
H144 H 0.9233 0.0832 0.0576
C123 C 0.8674(9) 0.1268(6) 0.1153(4)
H145 H 0.8874 0.1780 0.1127
H146 H 0.8064 0.1238 0.1315
H147 H 0.9167 0.1070 0.1341
C124 C 0.8243(9) 0.0051(5) 0.0663(4)
H148 H 0.8176 -0.0192 0.0327
H149 H 0.8727 -0.0172 0.0841
H150 H 0.7624 -0.0004 0.0815
C125 C 0.8312(9) 0.0818(6) -0.0419(4)
H151 H 0.8043 0.0295 -0.0453
C126 C 0.7872(11) 0.1184(7) -0.0840(4)
H152 H 0.7173 0.1170 -0.0816
H153 H 0.8147 0.1692 -0.0813
H154 H 0.8022 0.0917 -0.1152
C127 C 0.9390(10) 0.0848(7) -0.0467(5)
H155 H 0.9681 0.0623 -0.0208
H156 H 0.9531 0.0583 -0.0781
H157 H 0.9656 0.1359 -0.0443
C128 C 1.1741(6) 0.5340(4) 0.0896(2)
C129 C 1.2472(6) 0.5730(4) 0.1002(2)
C130 C 1.3924(7) 0.7087(4) 0.1174(3)
H158 H 1.4591 0.7243 0.1314
C131 C 1.3247(7) 0.7503(5) 0.1511(3)
H159 H 1.3284 0.7343 0.1830
H160 H 1.3439 0.8029 0.1543
H161 H 1.2585 0.7403 0.1374
C132 C 1.3894(9) 0.7314(5) 0.0674(3)
H162 H 1.4333 0.7039 0.0470
H163 H 1.3238 0.7212 0.0531
H164 H 1.4091 0.7838 0.0699
C133 C 1.4070(6) 0.5793(5) 0.1762(3)
H165 H 1.4304 0.5297 0.1691
C134 C 1.4911(6) 0.6305(5) 0.2040(3)
H166 H 1.5449 0.6354 0.1827
H167 H 1.4692 0.6787 0.2144
H168 H 1.5123 0.6095 0.2324
C135 C 1.3253(7) 0.5729(5) 0.2100(3)
H169 H 1.2714 0.5408 0.1932
H170 H 1.3474 0.5522 0.2384
H171 H 1.3042 0.6214 0.2204
C136 C 1.4495(5) 0.5599(4) 0.0682(3)
H172 H 1.4332 0.5786 0.0373
C137 C 1.5551(6) 0.5784(5) 0.0785(3)
H173 H 1.5692 0.6316 0.0842
H174 H 1.5751 0.5579 0.1073
H175 H 1.5901 0.5579 0.0508
C138 C 1.4247(6) 0.4781(4) 0.0591(3)
H176 H 1.3552 0.4674 0.0524
H177 H 1.4588 0.4569 0.0313
H178 H 1.4438 0.4569 0.0878
loop_
_geom_bond_atom_site_label_1
_geom_bond_atom_site_label_2
_geom_bond_site_symmetry_1
_geom_bond_site_symmetry_2
Si1 C52 1_555 1_555
Si2 C63 1_555 1_555
Si3 C74 1_555 1_555
Si4 C85 1_555 1_555
Si5 C96 1_555 1_555
Si6 C107 1_555 1_555
Si7 C118 1_555 1_555
Si8 C129 1_555 1_555
S1 N1 1_555 1_555
N1 C1 1_555 1_555
C1 C2 1_555 1_555
C2 N2 1_555 1_555
N2 S1 1_555 1_555
C3 C1 1_555 1_555
C4 C3 1_555 1_555
C5 C4 1_555 1_555
C6 C2 1_555 1_555
N3 C4 1_555 1_555
C7 N3 1_555 1_555
C8 C7 1_555 1_555
N4 C5 1_555 1_555
C9 C7 1_555 1_555
C10 C9 1_555 1_555
C11 C10 1_555 1_555
C12 C8 1_555 1_555
C13 C9 1_555 1_555
H1 C13 1_555 1_555
C14 C13 1_555 1_555
C15 C14 1_555 1_555
H2 C15 1_555 1_555
C16 C10 1_555 1_555
C17 C16 1_555 1_555
C18 C17 1_555 1_555
C19 C11 1_555 1_555
C20 C19 1_555 1_555
H3 C20 1_555 1_555
C21 C20 1_555 1_555
C22 C12 1_555 1_555
H4 C22 1_555 1_555
N5 C17 1_555 1_555
N6 C18 1_555 1_555
N7 C26 1_555 1_555
N8 C27 1_555 1_555
N9 C39 1_555 1_555
N10 C40 1_555 1_555
N11 C48 1_555 1_555
N12 C49 1_555 1_555
C23 N5 1_555 1_555
C24 N6 1_555 1_555
C25 C23 1_555 1_555
H5 C25 1_555 1_555
C26 C25 1_555 1_555
C27 C26 1_555 1_555
C28 C24 1_555 1_555
H6 C28 1_555 1_555
C29 N7 1_555 1_555
C30 N8 1_555 1_555
C31 C29 1_555 1_555
C32 C31 1_555 1_555
C33 C32 1_555 1_555
C34 C30 1_555 1_555
C35 C31 1_555 1_555
H7 C35 1_555 1_555
C36 C35 1_555 1_555
C37 C36 1_555 1_555
H8 C37 1_555 1_555
C38 C32 1_555 1_555
C39 C38 1_555 1_555
C40 C39 1_555 1_555
C41 C33 1_555 1_555
C42 C41 1_555 1_555
H9 C42 1_555 1_555
C43 C42 1_555 1_555
C44 C34 1_555 1_555
H10 C44 1_555 1_555
C45 N9 1_555 1_555
C46 N10 1_555 1_555
C47 C45 1_555 1_555
C48 C47 1_555 1_555
C49 C48 1_555 1_555
C50 C46 1_555 1_555
S2 N11 1_555 1_555
C51 C3 1_555 1_555
C52 C51 1_555 1_555
C53 Si1 1_555 1_555
H11 C53 1_555 1_555
C54 C53 1_555 1_555
H12 C54 1_555 1_555
H13 C54 1_555 1_555
H14 C54 1_555 1_555
C55 C53 1_555 1_555
H15 C55 1_555 1_555
H16 C55 1_555 1_555
H17 C55 1_555 1_555
C56 Si1 1_555 1_555
H18 C56 1_555 1_555
C57 C56 1_555 1_555
H19 C57 1_555 1_555
H20 C57 1_555 1_555
H21 C57 1_555 1_555
C58 C56 1_555 1_555
H22 C58 1_555 1_555
H23 C58 1_555 1_555
H24 C58 1_555 1_555
C59 Si1 1_555 1_555
H25 C59 1_555 1_555
C60 C59 1_555 1_555
H26 C60 1_555 1_555
H27 C60 1_555 1_555
H28 C60 1_555 1_555
C61 C59 1_555 1_555
H29 C61 1_555 1_555
H30 C61 1_555 1_555
H31 C61 1_555 1_555
C62 C6 1_555 1_555
C63 C62 1_555 1_555
C64 Si2 1_555 1_555
H32 C64 1_555 1_555
C65 C64 1_555 1_555
H33 C65 1_555 1_555
H34 C65 1_555 1_555
H35 C65 1_555 1_555
C66 C64 1_555 1_555
H36 C66 1_555 1_555
H37 C66 1_555 1_555
H38 C66 1_555 1_555
C67 Si2 1_555 1_555
H39 C67 1_555 1_555
C68 C67 1_555 1_555
H40 C68 1_555 1_555
H41 C68 1_555 1_555
H42 C68 1_555 1_555
C69 C67 1_555 1_555
H43 C69 1_555 1_555
H44 C69 1_555 1_555
H45 C69 1_555 1_555
C70 Si2 1_555 1_555
H46 C70 1_555 1_555
C71 C70 1_555 1_555
H47 C71 1_555 1_555
H48 C71 1_555 1_555
H49 C71 1_555 1_555
C72 C70 1_555 1_555
H50 C72 1_555 1_555
H51 C72 1_555 1_555
H52 C72 1_555 1_555
C73 C14 1_555 1_555
C74 C73 1_555 1_555
C75 Si3 1_555 1_555
H53 C75 1_555 1_555
C76 C75 1_555 1_555
H54 C76 1_555 1_555
H55 C76 1_555 1_555
H56 C76 1_555 1_555
C77 C75 1_555 1_555
H57 C77 1_555 1_555
H58 C77 1_555 1_555
H59 C77 1_555 1_555
C78 Si3 1_555 1_555
H60 C78 1_555 1_555
C79 C78 1_555 1_555
H61 C79 1_555 1_555
H62 C79 1_555 1_555
H63 C79 1_555 1_555
C80 C78 1_555 1_555
H64 C80 1_555 1_555
H65 C80 1_555 1_555
H66 C80 1_555 1_555
C81 Si3 1_555 1_555
H67 C81 1_555 1_555
C82 C81 1_555 1_555
H68 C82 1_555 1_555
H69 C82 1_555 1_555
H70 C82 1_555 1_555
C83 C81 1_555 1_555
H71 C83 1_555 1_555
H72 C83 1_555 1_555
H73 C83 1_555 1_555
C84 C21 1_555 1_555
C85 C84 1_555 1_555
C86 Si4 1_555 1_555
H74 C86 1_555 1_555
C87 C86 1_555 1_555
H75 C87 1_555 1_555
H76 C87 1_555 1_555
H77 C87 1_555 1_555
C88 C86 1_555 1_555
H78 C88 1_555 1_555
H79 C88 1_555 1_555
H80 C88 1_555 1_555
C89 Si4 1_555 1_555
H81 C89 1_555 1_555
C90 C89 1_555 1_555
H82 C90 1_555 1_555
H83 C90 1_555 1_555
H84 C90 1_555 1_555
C91 C89 1_555 1_555
H85 C91 1_555 1_555
H86 C91 1_555 1_555
H87 C91 1_555 1_555
C92 Si4 1_555 1_555
H88 C92 1_555 1_555
C93 C92 1_555 1_555
H89 C93 1_555 1_555
H90 C93 1_555 1_555
H91 C93 1_555 1_555
C94 C92 1_555 1_555
H92 C94 1_555 1_555
H93 C94 1_555 1_555
H94 C94 1_555 1_555
C95 C36 1_555 1_555
C96 C95 1_555 1_555
C97 Si5 1_555 1_555
H95 C97 1_555 1_555
C98 C97 1_555 1_555
H96 C98 1_555 1_555
H97 C98 1_555 1_555
H98 C98 1_555 1_555
C99 C97 1_555 1_555
H99 C99 1_555 1_555
H100 C99 1_555 1_555
H101 C99 1_555 1_555
C100 Si5 1_555 1_555
H102 C100 1_555 1_555
C101 C100 1_555 1_555
H103 C101 1_555 1_555
H104 C101 1_555 1_555
H105 C101 1_555 1_555
C102 C100 1_555 1_555
H106 C102 1_555 1_555
H107 C102 1_555 1_555
H108 C102 1_555 1_555
C103 Si5 1_555 1_555
H109 C103 1_555 1_555
C104 C103 1_555 1_555
H110 C104 1_555 1_555
H111 C104 1_555 1_555
H112 C104 1_555 1_555
C105 C103 1_555 1_555
H113 C105 1_555 1_555
H114 C105 1_555 1_555
H115 C105 1_555 1_555
C106 C43 1_555 1_555
C107 C106 1_555 1_555
C108 Si6 1_555 1_555
H116 C108 1_555 1_555
C109 C108 1_555 1_555
H117 C109 1_555 1_555
H118 C109 1_555 1_555
H119 C109 1_555 1_555
C110 C108 1_555 1_555
H120 C110 1_555 1_555
H121 C110 1_555 1_555
H122 C110 1_555 1_555
C111 Si6 1_555 1_555
H123 C111 1_555 1_555
C112 C111 1_555 1_555
H124 C112 1_555 1_555
H125 C112 1_555 1_555
H126 C112 1_555 1_555
C113 C111 1_555 1_555
H127 C113 1_555 1_555
H128 C113 1_555 1_555
H129 C113 1_555 1_555
C114 Si6 1_555 1_555
H130 C114 1_555 1_555
C115 C114 1_555 1_555
H131 C115 1_555 1_555
H132 C115 1_555 1_555
H133 C115 1_555 1_555
C116 C114 1_555 1_555
H134 C116 1_555 1_555
H135 C116 1_555 1_555
H136 C116 1_555 1_555
C117 C47 1_555 1_555
C118 C117 1_555 1_555
C119 Si7 1_555 1_555
H137 C119 1_555 1_555
C120 C119 1_555 1_555
H138 C120 1_555 1_555
H139 C120 1_555 1_555
H140 C120 1_555 1_555
C121 C119 1_555 1_555
H141 C121 1_555 1_555
H142 C121 1_555 1_555
H143 C121 1_555 1_555
C122 Si7 1_555 1_555
H144 C122 1_555 1_555
C123 C122 1_555 1_555
H145 C123 1_555 1_555
H146 C123 1_555 1_555
H147 C123 1_555 1_555
C124 C122 1_555 1_555
H148 C124 1_555 1_555
H149 C124 1_555 1_555
H150 C124 1_555 1_555
C125 Si7 1_555 1_555
H151 C125 1_555 1_555
C126 C125 1_555 1_555
H152 C126 1_555 1_555
H153 C126 1_555 1_555
H154 C126 1_555 1_555
C127 C125 1_555 1_555
H155 C127 1_555 1_555
H156 C127 1_555 1_555
H157 C127 1_555 1_555
C128 C50 1_555 1_555
C129 C128 1_555 1_555
C130 Si8 1_555 1_555
H158 C130 1_555 1_555
C131 C130 1_555 1_555
H159 C131 1_555 1_555
H160 C131 1_555 1_555
H161 C131 1_555 1_555
C132 C130 1_555 1_555
H162 C132 1_555 1_555
H163 C132 1_555 1_555
H164 C132 1_555 1_555
C133 Si8 1_555 1_555
H165 C133 1_555 1_555
C134 C133 1_555 1_555
H166 C134 1_555 1_555
H167 C134 1_555 1_555
H168 C134 1_555 1_555
C135 C133 1_555 1_555
H169 C135 1_555 1_555
H170 C135 1_555 1_555
H171 C135 1_555 1_555
C136 Si8 1_555 1_555
H172 C136 1_555 1_555
C137 C136 1_555 1_555
H173 C137 1_555 1_555
H174 C137 1_555 1_555
H175 C137 1_555 1_555
C138 C136 1_555 1_555
H176 C138 1_555 1_555
H177 C138 1_555 1_555
H178 C138 1_555 1_555
C5 C6 1_555 1_555
C8 N4 1_555 1_555
C11 C12 1_555 1_555
C15 C16 1_555 1_555
C18 C19 1_555 1_555
C21 C22 1_555 1_555
N12 S2 1_555 1_555
C23 C24 1_555 1_555
C27 C28 1_555 1_555
C29 C30 1_555 1_555
C33 C34 1_555 1_555
C37 C38 1_555 1_555
C40 C41 1_555 1_555
C43 C44 1_555 1_555
C45 C46 1_555 1_555
C49 C50 1_555 1_555

#END
