
#######################################################################
#
#                 Cambridge Crystallographic Data Centre
#                                CCDC 
#
#######################################################################
#
# If this CIF has been generated from an entry in the Cambridge 
# Structural Database, then it will include bibliographic, chemical, 
# crystal, experimental, refinement or atomic coordinate data resulting 
# from the CCDC's data processing and validation procedures.
#
#######################################################################

data_LISZAQ
_chemical_formula_moiety         'C36 H54 N2 O2'
_chemical_name_systematic        
2,2'-(Cyclohexane-1,2-diylbis(nitrilomethylylidene))bis(4,6-di-t-butylphenol)
_symmetry_cell_setting           orthorhombic
_symmetry_space_group_name_H-M   'P 21 21 21'
_symmetry_Int_Tables_number      19
_space_group_name_Hall           'P 2ac 2ab'
loop_
_symmetry_equiv_pos_site_id
_symmetry_equiv_pos_as_xyz
1 x,y,z
2 1/2+x,1/2-y,-z
3 -x,1/2+y,1/2-z
4 1/2-x,-y,1/2+z
_cell_length_a                   6.7206(3)
_cell_length_b                   18.1510(6)
_cell_length_c                   27.3382(14)
_cell_angle_alpha                90
_cell_angle_beta                 90
_cell_angle_gamma                90
_cell_volume                     3334.87
_exptl_crystal_colour            'pale yellow'
_exptl_crystal_description       plate
_cell_formula_units_Z            4
loop_
_atom_site_label
_atom_site_type_symbol
_atom_site_fract_x
_atom_site_fract_y
_atom_site_fract_z
C1 C 0.4464(6) 0.29902(17) 0.62859(12)
C2 C 0.6851(5) 0.3530(2) 0.56762(13)
C3 C 0.3713(6) 0.29317(17) 0.54000(12)
C4 C 0.4640(5) 0.34052(16) 0.58001(11)
C5 C 0.3600(5) 0.41524(15) 0.58477(10)
C6 C 0.4160(5) 0.46467(15) 0.62191(10)
C7 C 0.3278(5) 0.53268(15) 0.63039(9)
C8 C 0.3931(5) 0.58313(16) 0.67241(10)
C9 C 0.5591(7) 0.54815(19) 0.70339(12)
C10 C 0.2177(6) 0.59903(19) 0.70642(11)
C11 C 0.4757(6) 0.65615(17) 0.65266(11)
C12 C 0.1734(5) 0.55380(15) 0.59826(9)
C13 C 0.1122(4) 0.50587(15) 0.56061(9)
C14 C 0.2051(5) 0.43750(15) 0.55473(10)
C15 C -0.0508(5) 0.52498(15) 0.52761(9)
C16 C -0.2997(4) 0.60071(15) 0.49337(9)
C17 C -0.4685(4) 0.63934(17) 0.52022(10)
C18 C -0.6394(4) 0.65657(16) 0.48565(10)
C19 C -0.5662(4) 0.70598(15) 0.44410(10)
C20 C -0.3973(4) 0.66810(15) 0.41660(9)
C21 C -0.2253(4) 0.64610(15) 0.45005(9)
C22 C 0.0136(4) 0.63244(15) 0.38719(9)
C23 C 0.1691(4) 0.59582(15) 0.35919(9)
C24 C 0.2585(4) 0.63469(15) 0.32050(9)
C25 C 0.2399(4) 0.52552(15) 0.37200(9)
C26 C 0.4020(4) 0.49443(14) 0.34678(9)
C27 C 0.4892(5) 0.41925(15) 0.36159(10)
C28 C 0.6630(5) 0.39660(16) 0.32858(11)
C29 C 0.3292(5) 0.35935(15) 0.35842(11)
C30 C 0.5697(6) 0.42327(17) 0.41424(10)
C31 C 0.4842(4) 0.53593(14) 0.30889(9)
C32 C 0.4165(4) 0.60599(14) 0.29470(9)
C33 C 0.5210(5) 0.64788(16) 0.25355(10)
C34 C 0.7406(5) 0.6596(2) 0.26683(12)
C35 C 0.5084(6) 0.60375(17) 0.20583(10)
C36 C 0.4254(6) 0.72329(16) 0.24456(11)
O1 O 0.0849(3) 0.62012(10) 0.60331(7)
O2 O 0.1550(3) 0.48877(10) 0.40983(6)
N1 N -0.1357(4) 0.58772(12) 0.52800(8)
N2 N -0.0761(4) 0.60221(12) 0.42313(7)
H1 H 0.0082 0.6274 0.5794
H2 H 0.0624 0.5141 0.4214
H3 H 0.3072 0.2920 0.6364
H4 H 0.5096 0.3267 0.6553
H5 H 0.5112 0.2524 0.6253
H6 H 0.6972 0.3766 0.5356
H7 H 0.7461 0.3850 0.5917
H8 H 0.7568 0.3062 0.5668
H9 H 0.3837 0.3163 0.5086
H10 H 0.2316 0.2842 0.5467
H11 H 0.4390 0.2464 0.5388
H12 H 0.5211 0.4492 0.6417
H13 H 0.5956 0.5822 0.7294
H14 H 0.5143 0.5029 0.7178
H15 H 0.6744 0.5398 0.6829
H16 H 0.2612 0.6317 0.7318
H17 H 0.1717 0.5533 0.7208
H18 H 0.1137 0.6211 0.6879
H19 H 0.5087 0.6870 0.6801
H20 H 0.3764 0.6811 0.6323
H21 H 0.5960 0.6475 0.6342
H22 H 0.1609 0.4067 0.5291
H23 H -0.0950 0.4886 0.5048
H24 H -0.3478 0.5527 0.4802
H25 H -0.4146 0.6849 0.5346
H26 H -0.5175 0.6073 0.5469
H27 H -0.7485 0.6811 0.5040
H28 H -0.6912 0.6109 0.4712
H29 H -0.5189 0.7531 0.4578
H30 H -0.6768 0.7163 0.4215
H31 H -0.3492 0.7017 0.3905
H32 H -0.4497 0.6242 0.4005
H33 H -0.1622 0.6917 0.4629
H34 H -0.0200 0.6820 0.3786
H35 H 0.2119 0.6811 0.3125
H36 H 0.7102 0.3487 0.3386
H37 H 0.7731 0.4320 0.3325
H38 H 0.6245 0.3943 0.2944
H39 H 0.3877 0.3123 0.3677
H40 H 0.2214 0.3709 0.3801
H41 H 0.2794 0.3563 0.3256
H42 H 0.6237 0.3756 0.4228
H43 H 0.6764 0.4588 0.4164
H44 H 0.4645 0.4370 0.4366
H45 H 0.5940 0.5156 0.2914
H46 H 0.8071 0.6850 0.2403
H47 H 0.7470 0.6888 0.2961
H48 H 0.8043 0.6130 0.2728
H49 H 0.5765 0.6302 0.1803
H50 H 0.3706 0.5967 0.1966
H51 H 0.5720 0.5558 0.2100
H52 H 0.4929 0.7485 0.2182
H53 H 0.4370 0.7526 0.2738
H54 H 0.2861 0.7181 0.2362
loop_
_geom_bond_atom_site_label_1
_geom_bond_atom_site_label_2
_geom_bond_site_symmetry_1
_geom_bond_site_symmetry_2
C1 C4 1_555 1_555
C2 C4 1_555 1_555
C3 C4 1_555 1_555
C4 C5 1_555 1_555
C5 C6 1_555 1_555
C6 C7 1_555 1_555
C7 C8 1_555 1_555
C8 C9 1_555 1_555
C9 H13 1_555 1_555
C10 C8 1_555 1_555
C11 C8 1_555 1_555
C12 C7 1_555 1_555
C13 C12 1_555 1_555
C14 C5 1_555 1_555
C15 C13 1_555 1_555
C16 C17 1_555 1_555
C17 C18 1_555 1_555
C18 C19 1_555 1_555
C19 C20 1_555 1_555
C20 C21 1_555 1_555
C21 C16 1_555 1_555
C22 C23 1_555 1_555
C23 C24 1_555 1_555
C24 C32 1_555 1_555
C25 C23 1_555 1_555
C26 C25 1_555 1_555
C27 C26 1_555 1_555
C28 C27 1_555 1_555
C29 C27 1_555 1_555
C30 C27 1_555 1_555
C31 C26 1_555 1_555
C32 C31 1_555 1_555
C33 C32 1_555 1_555
C34 C33 1_555 1_555
C35 C33 1_555 1_555
C36 C33 1_555 1_555
O1 C12 1_555 1_555
O2 C25 1_555 1_555
N1 C15 1_555 1_555
N2 C21 1_555 1_555
H1 O1 1_555 1_555
H2 O2 1_555 1_555
H3 C1 1_555 1_555
H4 C1 1_555 1_555
H5 C1 1_555 1_555
H6 C2 1_555 1_555
H7 C2 1_555 1_555
H8 C2 1_555 1_555
H9 C3 1_555 1_555
H10 C3 1_555 1_555
H11 C3 1_555 1_555
H12 C6 1_555 1_555
H14 C9 1_555 1_555
H15 C9 1_555 1_555
H16 C10 1_555 1_555
H17 C10 1_555 1_555
H18 C10 1_555 1_555
H19 C11 1_555 1_555
H20 C11 1_555 1_555
H21 C11 1_555 1_555
H22 C14 1_555 1_555
H23 C15 1_555 1_555
H24 C16 1_555 1_555
H25 C17 1_555 1_555
H26 C17 1_555 1_555
H27 C18 1_555 1_555
H28 C18 1_555 1_555
H29 C19 1_555 1_555
H30 C19 1_555 1_555
H31 C20 1_555 1_555
H32 C20 1_555 1_555
H33 C21 1_555 1_555
H34 C22 1_555 1_555
H35 C24 1_555 1_555
H36 C28 1_555 1_555
H37 C28 1_555 1_555
H38 C28 1_555 1_555
H39 C29 1_555 1_555
H40 C29 1_555 1_555
H41 C29 1_555 1_555
H42 C30 1_555 1_555
H43 C30 1_555 1_555
H44 C30 1_555 1_555
H45 C31 1_555 1_555
H46 C34 1_555 1_555
H47 C34 1_555 1_555
H48 C34 1_555 1_555
H49 C35 1_555 1_555
H50 C35 1_555 1_555
H51 C35 1_555 1_555
H52 C36 1_555 1_555
H53 C36 1_555 1_555
H54 C36 1_555 1_555
C13 C14 1_555 1_555
C16 N1 1_555 1_555
C22 N2 1_555 1_555

#END
