
#######################################################################
#
#                 Cambridge Crystallographic Data Centre
#                                CCDC 
#
#######################################################################
#
# If this CIF has been generated from an entry in the Cambridge 
# Structural Database, then it will include bibliographic, chemical, 
# crystal, experimental, refinement or atomic coordinate data resulting 
# from the CCDC's data processing and validation procedures.
#
#######################################################################

data_LIVBAU
_chemical_formula_moiety         'C1 H6 N3 1+,C6 H4 I1 O3 S1 1-,C9 H12 O1'
_chemical_name_systematic        
'Guanidinium 4-iodobenzenesulfonate 1-methoxy-3,4-dimethylbenzene clathrate'
_symmetry_cell_setting           orthorhombic
_symmetry_space_group_name_H-M   'P 21 21 21'
_symmetry_Int_Tables_number      19
_space_group_name_Hall           'P 2ac 2ab'
loop_
_symmetry_equiv_pos_site_id
_symmetry_equiv_pos_as_xyz
1 x,y,z
2 1/2-x,-y,1/2+z
3 1/2+x,1/2-y,-z
4 -x,1/2+y,1/2-z
_cell_length_a                   7.5106(4)
_cell_length_b                   11.8486(7)
_cell_length_c                   22.9872(13)
_cell_angle_alpha                90
_cell_angle_beta                 90
_cell_angle_gamma                90
_cell_volume                     2045.63
_exptl_crystal_colour            colorless
_exptl_crystal_description       plate
_cell_formula_units_Z            4
loop_
_atom_site_label
_atom_site_type_symbol
_atom_site_fract_x
_atom_site_fract_y
_atom_site_fract_z
I1 I 0.13845(5) 0.61926(4) 0.091003(17)
S1 S 0.24473(15) 0.64173(10) -0.19456(6)
O1 O 0.4073(4) 0.5812(3) -0.20776(15)
C1 C 0.2213(5) 0.6372(4) -0.1180(2)
O2 O 0.0882(4) 0.5849(3) -0.21918(16)
C2 C 0.2704(7) 0.5410(4) -0.0881(3)
H5 H 0.3206 0.4790 -0.1086
O3 O 0.2510(5) 0.7601(3) -0.21140(15)
C3 C 0.2469(8) 0.5345(4) -0.0286(3)
H8 H 0.2817 0.4687 -0.0080
C4 C 0.1719(6) 0.6250(5) 0.0006(2)
C5 C 0.1202(8) 0.7218(4) -0.0298(2)
H9 H 0.0690 0.7835 -0.0094
C6 C 0.1430(7) 0.7283(4) -0.0891(2)
H10 H 0.1063 0.7935 -0.1100
N1 N 0.0970(5) 0.3496(4) -0.2490(2)
H1 H -0.0037 0.3122 -0.2526
H2 H 0.0961 0.4203 -0.2373
N2 N 0.4014(5) 0.3573(4) -0.25848(19)
H3 H 0.5028 0.3253 -0.2682
H4 H 0.3999 0.4280 -0.2467
N3 N 0.2536(6) 0.1930(3) -0.27916(18)
H6 H 0.3551 0.1612 -0.2889
H7 H 0.1538 0.1543 -0.2812
C7 C 0.2508(7) 0.2992(4) -0.2615(2)
O4 O 0.6794(8) 0.4896(5) 0.0928(3)
C8 C 0.6119(7) 0.3084(4) -0.0608(2)
C9 C 0.7032(7) 0.4110(5) -0.0636(3)
C10 C 0.7241(8) 0.4717(5) -0.0105(4)
H11 H 0.7837 0.5424 -0.0107
C11 C 0.6589(9) 0.4293(7) 0.0414(3)
C12 C 0.5709(9) 0.3298(7) 0.0422(3)
H12 H 0.5257 0.3002 0.0776
C13 C 0.5486(8) 0.2735(5) -0.0077(3)
H13 H 0.4843 0.2045 -0.0063
C14 C 0.5802(10) 0.2389(6) -0.1144(3)
H14 H 0.5093 0.1723 -0.1043
H15 H 0.6947 0.2150 -0.1307
H16 H 0.5158 0.2842 -0.1433
C15 C 0.7760(10) 0.4568(7) -0.1195(4)
H17 H 0.8697 0.4066 -0.1340
H18 H 0.8258 0.5321 -0.1128
H19 H 0.6802 0.4617 -0.1484
C16 C 0.6157(18) 0.4426(10) 0.1459(4)
H20 H 0.4852 0.4420 0.1457
H21 H 0.6582 0.4882 0.1787
H22 H 0.6599 0.3652 0.1500
O5? O 0.537(2) 0.3316(12) 0.0961(8)
C17? C 0.552(5) 0.403(3) 0.1454(17)
H23? H 0.6758 0.4045 0.1585
H24? H 0.4761 0.3737 0.1768
H25? H 0.5134 0.4793 0.1351
loop_
_geom_bond_atom_site_label_1
_geom_bond_atom_site_label_2
_geom_bond_site_symmetry_1
_geom_bond_site_symmetry_2
I1 C4 1_555 1_555
S1 O1 1_555 1_555
N1 H1 1_555 1_555
H2 N1 1_555 1_555
C1 S1 1_555 1_555
O2 S1 1_555 1_555
N2 H3 1_555 1_555
H4 N2 1_555 1_555
C2 C1 1_555 1_555
H5 C2 1_555 1_555
O3 S1 1_555 1_555
N3 H6 1_555 1_555
H7 N3 1_555 1_555
C3 C2 1_555 1_555
H8 C3 1_555 1_555
C4 C3 1_555 1_555
C5 C4 1_555 1_555
H9 C5 1_555 1_555
C6 C1 1_555 1_555
H10 C6 1_555 1_555
C7 N1 1_555 1_555
O4 C11 1_555 1_555
C8 C9 1_555 1_555
C9 C10 1_555 1_555
C10 H11 1_555 1_555
C11 C10 1_555 1_555
C12 C11 1_555 1_555
H12 C12 1_555 1_555
C13 C8 1_555 1_555
H13 C13 1_555 1_555
C14 C8 1_555 1_555
H14 C14 1_555 1_555
H15 C14 1_555 1_555
H16 C14 1_555 1_555
C15 C9 1_555 1_555
H17 C15 1_555 1_555
H18 C15 1_555 1_555
H19 C15 1_555 1_555
C16 O4 1_555 1_555
H20 C16 1_555 1_555
H21 C16 1_555 1_555
H22 C16 1_555 1_555
N2 C7 1_555 1_555
N3 C7 1_555 1_555
C5 C6 1_555 1_555
C12 C13 1_555 1_555

#END
