
#######################################################################
#
#                 Cambridge Crystallographic Data Centre
#                                CCDC 
#
#######################################################################
#
# If this CIF has been generated from an entry in the Cambridge 
# Structural Database, then it will include bibliographic, chemical, 
# crystal, experimental, refinement or atomic coordinate data resulting 
# from the CCDC's data processing and validation procedures.
#
#######################################################################

data_LIVCEZ
_chemical_formula_moiety         'C1 H6 N3 1+,C7 H7 O3 S1 1-,C9 H12 O1'
_chemical_name_systematic        
'Guanidinium 4-methylbenzenesulfonate 1-methoxy-3,4-dimethylbenzene clathrate'
_symmetry_cell_setting           orthorhombic
_symmetry_space_group_name_H-M   'P 21 21 21'
_symmetry_Int_Tables_number      19
_space_group_name_Hall           'P 2ac 2ab'
loop_
_symmetry_equiv_pos_site_id
_symmetry_equiv_pos_as_xyz
1 x,y,z
2 1/2-x,-y,1/2+z
3 1/2+x,1/2-y,-z
4 -x,1/2+y,1/2-z
_cell_length_a                   7.4622(4)
_cell_length_b                   11.8703(6)
_cell_length_c                   22.1066(11)
_cell_angle_alpha                90
_cell_angle_beta                 90
_cell_angle_gamma                90
_cell_volume                     1958.17
_exptl_crystal_colour            colorless
_exptl_crystal_description       plate
_cell_formula_units_Z            4
loop_
_atom_site_label
_atom_site_type_symbol
_atom_site_fract_x
_atom_site_fract_y
_atom_site_fract_z
S1 S 0.25419(7) 0.66965(4) 0.80833(2)
O1 O 0.2564(2) 0.79058(10) 0.79667(6)
O2 O 0.0954(2) 0.61566(13) 0.78248(7)
O3 O 0.41822(19) 0.61306(13) 0.78880(7)
C2 C 0.2404(3) 0.65147(14) 0.88721(9)
C4 C 0.1654(3) 0.73465(18) 0.92330(10)
H7 H 0.1275 0.8040 0.9060
C5 C 0.1462(4) 0.7156(2) 0.98492(11)
H8 H 0.0948 0.7726 1.0096
C8 C 0.2744(4) 0.53319(19) 0.97419(11)
H11 H 0.3122 0.4639 0.9915
C10 C 0.2007(3) 0.6149(2) 1.01124(11)
C16 C 0.1802(5) 0.5953(3) 1.07853(12)
H22 H 0.1558 0.6671 1.0988
H23 H 0.2911 0.5628 1.0947
H24 H 0.0806 0.5432 1.0857
C17 C 0.2947(3) 0.54977(19) 0.91269(11)
H25 H 0.3451 0.4924 0.8881
C1 C -0.2456(3) 0.83364(15) 0.76821(8)
N1 N -0.3985(2) 0.88739(17) 0.76073(8)
H1 H -0.5004 0.8535 0.7691
H2 H -0.3987 0.9572 0.7474
N2 N -0.2443(3) 0.72841(12) 0.78835(8)
H3 H -0.3459 0.6942 0.7968
H4 H -0.1419 0.6928 0.7933
N3 N -0.0916(2) 0.88380(18) 0.75515(9)
H5 H -0.0911 0.9534 0.7414
H6 H 0.0101 0.8475 0.7602
O4 O 0.2277(3) 1.02291(15) 0.89868(8)
C3 C 0.2339(3) 1.08170(18) 1.06082(10)
C6 C 0.2544(4) 1.03044(17) 1.00433(11)
H9 H 0.3094 0.9584 1.0020
C7 C 0.1136(3) 1.1845(2) 0.95397(12)
H10 H 0.0719 1.2201 0.9181
C9 C 0.0917(3) 1.2347(2) 1.00946(11)
H12 H 0.0337 1.3059 1.0110
C11 C 0.1496(3) 1.18731(19) 1.06333(11)
C12 C 0.1759(5) 1.0753(3) 0.84362(13)
H13 H 0.0463 1.0886 0.8439
H14 H 0.2067 1.0261 0.8096
H15 H 0.2390 1.1473 0.8394
C13 C 0.1963(3) 1.0825(2) 0.95159(11)
C14 C 0.3020(4) 1.0243(3) 1.11700(13)
H16 H 0.3453 0.9487 1.1067
H17 H 0.2046 1.0182 1.1466
H18 H 0.4004 1.0684 1.1343
C15 C 0.1234(4) 1.2488(3) 1.12216(13)
H19 H 0.0637 1.3209 1.1145
H20 H 0.2402 1.2625 1.1411
H21 H 0.0492 1.2030 1.1493
loop_
_geom_bond_atom_site_label_1
_geom_bond_atom_site_label_2
_geom_bond_site_symmetry_1
_geom_bond_site_symmetry_2
S1 O1 1_555 1_555
C1 N1 1_555 1_555
O2 S1 1_555 1_555
O3 S1 1_555 1_555
N1 H1 1_555 1_555
H2 N1 1_555 1_555
N2 C1 1_555 1_555
H3 N2 1_555 1_555
H4 N2 1_555 1_555
N3 C1 1_555 1_555
H5 N3 1_555 1_555
H6 N3 1_555 1_555
C2 S1 1_555 1_555
O4 C12 1_555 1_555
C3 C6 1_555 1_555
C4 C2 1_555 1_555
H7 C4 1_555 1_555
C5 C4 1_555 1_555
H8 C5 1_555 1_555
C6 H9 1_555 1_555
C7 H10 1_555 1_555
C8 H11 1_555 1_555
C9 C7 1_555 1_555
H12 C9 1_555 1_555
C10 C5 1_555 1_555
C11 C3 1_555 1_555
C12 H13 1_555 1_555
H14 C12 1_555 1_555
H15 C12 1_555 1_555
C13 O4 1_555 1_555
C14 C3 1_555 1_555
H16 C14 1_555 1_555
H17 C14 1_555 1_555
H18 C14 1_555 1_555
C15 C11 1_555 1_555
H19 C15 1_555 1_555
H20 C15 1_555 1_555
H21 C15 1_555 1_555
C16 C10 1_555 1_555
H22 C16 1_555 1_555
H23 C16 1_555 1_555
H24 C16 1_555 1_555
C17 C2 1_555 1_555
H25 C17 1_555 1_555
C6 C13 1_555 1_555
C7 C13 1_555 1_555
C8 C10 1_555 1_555
C8 C17 1_555 1_555
C9 C11 1_555 1_555

#END
