
#######################################################################
#
#                 Cambridge Crystallographic Data Centre
#                                CCDC 
#
#######################################################################
#
# If this CIF has been generated from an entry in the Cambridge 
# Structural Database, then it will include bibliographic, chemical, 
# crystal, experimental, refinement or atomic coordinate data resulting 
# from the CCDC's data processing and validation procedures.
#
#######################################################################

data_LIVVUI
_chemical_formula_moiety         'C12 H14 N2 O1'
_chemical_name_systematic        (S)-2-(1H-Imidazol-1-yl)-3-phenylpropanol
_symmetry_cell_setting           monoclinic
_symmetry_space_group_name_H-M   'P 21'
_symmetry_Int_Tables_number      4
_space_group_name_Hall           'P 2yb'
loop_
_symmetry_equiv_pos_site_id
_symmetry_equiv_pos_as_xyz
1 x,y,z
2 -x,1/2+y,-z
_cell_length_a                   8.021(4)
_cell_length_b                   6.069(3)
_cell_length_c                   11.629(5)
_cell_angle_alpha                90
_cell_angle_beta                 90.13(5)
_cell_angle_gamma                90
_cell_volume                     566.092
_exptl_crystal_colour            colorless
_exptl_crystal_description       block
_chemical_melting_point          '359-361 K'
_cell_formula_units_Z            2
_exptl_crystal_recrystallization_method dichloromethane
loop_
_atom_site_label
_atom_site_type_symbol
_atom_site_fract_x
_atom_site_fract_y
_atom_site_fract_z
O1 O 0.6488(3) 0.9519(5) -0.06637(15)
H1 H 0.7178 1.0460 -0.0835
N1 N 0.8556(3) 0.8538(4) 0.13967(17)
N2 N 1.1263(3) 0.7863(6) 0.1257(2)
C1 C 0.7787(4) 0.7337(7) 0.4142(2)
H2 H 0.8315 0.8693 0.4069
C2 C 0.8278(4) 0.5915(8) 0.5001(3)
H3 H 0.9137 0.6313 0.5497
C3 C 0.7501(5) 0.3908(7) 0.5128(3)
H4 H 0.7824 0.2955 0.5714
C4 C 0.6247(5) 0.3324(7) 0.4383(2)
H5 H 0.5716 0.1970 0.4464
C5 C 0.5773(4) 0.4746(6) 0.3512(2)
H6 H 0.4935 0.4324 0.3003
C6 C 0.6522(3) 0.6781(6) 0.3385(2)
C7 C 0.5912(3) 0.8393(6) 0.2488(2)
H7 H 0.6073 0.9875 0.2780
H8 H 0.4723 0.8176 0.2383
C8 C 0.6752(3) 0.8225(6) 0.1318(2)
H9 H 0.6550 0.6738 0.1021
C9 C 0.5963(3) 0.9848(6) 0.0484(2)
H10 H 0.4760 0.9703 0.0520
H11 H 0.6248 1.1335 0.0719
C10 C 0.9385(4) 1.0364(6) 0.1796(2)
H12 H 0.8907 1.1653 0.2075
C11 C 1.1038(4) 0.9919(7) 0.1705(2)
H13 H 1.1892 1.0874 0.1917
C12 C 0.9738(4) 0.7106(6) 0.1088(2)
H14 H 0.9510 0.5720 0.0785
loop_
_geom_bond_atom_site_label_1
_geom_bond_atom_site_label_2
_geom_bond_site_symmetry_1
_geom_bond_site_symmetry_2
O1 H1 1_555 1_555
N1 C8 1_555 1_555
N2 C11 1_555 1_555
C1 H2 1_555 1_555
C2 C1 1_555 1_555
H3 C2 1_555 1_555
C3 C2 1_555 1_555
H4 C3 1_555 1_555
C4 C3 1_555 1_555
H5 C4 1_555 1_555
C5 C4 1_555 1_555
H6 C5 1_555 1_555
C6 C1 1_555 1_555
C7 C6 1_555 1_555
H7 C7 1_555 1_555
H8 C7 1_555 1_555
C8 C7 1_555 1_555
H9 C8 1_555 1_555
C9 O1 1_555 1_555
H10 C9 1_555 1_555
H11 C9 1_555 1_555
C10 N1 1_555 1_555
H12 C10 1_555 1_555
C11 C10 1_555 1_555
H13 C11 1_555 1_555
C12 N1 1_555 1_555
H14 C12 1_555 1_555
N2 C12 1_555 1_555
C5 C6 1_555 1_555
C8 C9 1_555 1_555

#END
