
#######################################################################
#
#                 Cambridge Crystallographic Data Centre
#                                CCDC 
#
#######################################################################
#
# If this CIF has been generated from an entry in the Cambridge 
# Structural Database, then it will include bibliographic, chemical, 
# crystal, experimental, refinement or atomic coordinate data resulting 
# from the CCDC's data processing and validation procedures.
#
#######################################################################

data_LIWHUV
_chemical_formula_moiety         'C38 H46 N4 O4'
_chemical_name_systematic        
1,4-bis(5-(4-methylphenyl)-1,3,4-oxadiazol-2-yl)-2,5-bis(heptyloxy)benzene
_symmetry_cell_setting           orthorhombic
_symmetry_space_group_name_H-M   'P 21 21 21'
_symmetry_Int_Tables_number      19
_space_group_name_Hall           'P 2ac 2ab'
loop_
_symmetry_equiv_pos_site_id
_symmetry_equiv_pos_as_xyz
1 x,y,z
2 1/2-x,-y,1/2+z
3 -x,1/2+y,1/2-z
4 1/2+x,1/2-y,-z
_cell_length_a                   27.2918
_cell_length_b                   25.6604
_cell_length_c                   4.7365
_cell_angle_alpha                90
_cell_angle_beta                 90
_cell_angle_gamma                90
_cell_volume                     3317.06
_exptl_crystal_colour            white
_chemical_melting_point          '170-172 deg.C'
_cell_formula_units_Z            4
_exptl_crystal_recrystallization_method DMSO
loop_
_atom_site_label
_atom_site_type_symbol
_atom_site_fract_x
_atom_site_fract_y
_atom_site_fract_z
C1 C -0.10638 0.18733 0.33201
C2 C -0.09594 0.13755 0.45328
C3 C -0.05069 0.11684 0.38015
C4 C -0.04122 0.06742 0.50181
C5 C 0.00523 0.04772 0.44429
C6 C 0.01484 -0.00108 0.57156
C7 C 0.06021 -0.02097 0.51915
H1 H -0.11156 0.18358 0.11577
H2 H -0.12293 0.11190 0.39980
H3 H -0.09837 0.14136 0.66676
H4 H -0.02412 0.14290 0.43779
H5 H -0.04797 0.11405 0.16561
H6 H -0.06678 0.04086 0.43543
H7 H -0.04592 0.06986 0.71531
H8 H 0.03076 0.07452 0.50787
H9 H 0.00995 0.04444 0.23120
H10 H -0.01047 -0.02805 0.50942
H11 H 0.01006 0.00197 0.78396
H12 H 0.06584 -0.02910 0.31559
H13 H 0.06545 -0.05480 0.62352
H14 H 0.08683 0.00329 0.58043
C8 C -0.25704 0.39546 -0.10531
C9 C -0.28687 0.39436 -0.34983
C10 C -0.29345 0.44310 -0.48214
C11 C -0.32327 0.44025 -0.72131
C12 C -0.33264 0.48915 -0.84841
C13 C -0.36266 0.48581 -1.08602
C14 C -0.37290 0.53329 -1.21162
H15 H -0.26527 0.42821 0.01829
H16 H -0.22062 0.39872 -0.16095
H17 H -0.31960 0.37924 -0.29091
H18 H -0.27315 0.36744 -0.48778
H19 H -0.26054 0.45883 -0.53610
H20 H -0.30798 0.46922 -0.34110
H21 H -0.35545 0.42276 -0.66774
H22 H -0.30793 0.41529 -0.86561
H23 H -0.30067 0.50689 -0.90339
H24 H -0.34809 0.51408 -0.70453
H25 H -0.39442 0.46767 -1.03329
H26 H -0.34733 0.46128 -1.23124
H27 H -0.39107 0.55799 -1.08560
H28 H -0.39363 0.52818 -1.38237
H29 H -0.34325 0.55241 -1.27731
C15 C -0.40293 0.05781 -0.41789
C16 C -0.36366 0.05730 -0.26601
C17 C -0.34152 0.09998 -0.20199
C18 C -0.35774 0.14554 -0.28767
C19 C -0.39714 0.14628 -0.44015
C20 C -0.41904 0.10360 -0.50302
C21 C -0.33361 0.19322 -0.22014
N1 N -0.34578 0.23851 -0.29898
N2 N -0.31420 0.27220 -0.19284
C22 C -0.28378 0.24598 -0.05255
O1 O -0.29394 0.19427 -0.05989
C23 C -0.24279 0.26414 0.09787
C24 C -0.21292 0.23030 0.20463
C25 C -0.17443 0.24390 0.34636
C26 C -0.16546 0.29559 0.38428
C27 C -0.19500 0.32988 0.27606
C28 C -0.23379 0.31620 0.13443
C29 C 0.03813 0.27051 1.35719
C30 C 0.00294 0.23883 1.28806
C31 C -0.03060 0.25338 1.11940
C32 C -0.03052 0.30058 1.01010
C33 C 0.00449 0.33269 1.08065
C34 C 0.03787 0.31790 1.24871
C35 C -0.06721 0.31687 0.81989
N3 N -0.07495 0.36304 0.73632
N4 N -0.11231 0.36125 0.56304
C36 C -0.12581 0.31398 0.54668
O2 O -0.09839 0.28244 0.70734
H30 H -0.34972 0.02183 -0.19465
H31 H -0.31038 0.09793 -0.08077
H32 H -0.41083 0.18198 -0.51087
H33 H -0.45017 0.10561 -0.62442
H34 H -0.21939 0.19044 0.18035
H35 H -0.18867 0.36941 0.31418
H36 H 0.00166 0.20102 1.37021
H37 H -0.05813 0.22716 1.07123
H38 H 0.00551 0.37047 0.99733
O3 O -0.14780 0.20607 0.46578
O4 O -0.26685 0.34997 0.04675
C37 C 0.07493 0.25468 1.53448
C38 C -0.42687 0.01192 -0.48877
H40 H -0.07747 0.21306 0.36184
H41 H 0.06840 0.21977 1.62656
H42 H 0.08093 0.28061 1.69127
H43 H 0.10668 0.25080 1.43133
H44 H -0.46243 0.01347 -0.44200
H45 H -0.41362 -0.01996 -0.39007
H46 H -0.42482 0.00426 -0.69685
H39? H 0.06530 0.34419 1.29865
loop_
_geom_bond_atom_site_label_1
_geom_bond_atom_site_label_2
_geom_bond_site_symmetry_1
_geom_bond_site_symmetry_2
C1 C2 1_555 1_555
C2 C3 1_555 1_555
C3 C4 1_555 1_555
C4 C5 1_555 1_555
C5 C6 1_555 1_555
C6 C7 1_555 1_555
C7 H12 1_555 1_555
H1 C1 1_555 1_555
H2 C2 1_555 1_555
H3 C2 1_555 1_555
H4 C3 1_555 1_555
H5 C3 1_555 1_555
H6 C4 1_555 1_555
H7 C4 1_555 1_555
H8 C5 1_555 1_555
H9 C5 1_555 1_555
H10 C6 1_555 1_555
H11 C6 1_555 1_555
H13 C7 1_555 1_555
H14 C7 1_555 1_555
C8 C9 1_555 1_555
C9 C10 1_555 1_555
C10 C11 1_555 1_555
C11 C12 1_555 1_555
C12 C13 1_555 1_555
C13 C14 1_555 1_555
C14 H27 1_555 1_555
H15 C8 1_555 1_555
H16 C8 1_555 1_555
H17 C9 1_555 1_555
H18 C9 1_555 1_555
H19 C10 1_555 1_555
H20 C10 1_555 1_555
H21 C11 1_555 1_555
H22 C11 1_555 1_555
H23 C12 1_555 1_555
H24 C12 1_555 1_555
H25 C13 1_555 1_555
H26 C13 1_555 1_555
H28 C14 1_555 1_555
H29 C14 1_555 1_555
C15 C16 1_555 1_555
C16 C17 1_555 1_555
C17 C18 1_555 1_555
C18 C19 1_555 1_555
C19 C20 1_555 1_555
C20 C15 1_555 1_555
C21 C18 1_555 1_555
N1 C21 1_555 1_555
N2 N1 1_555 1_555
C22 N2 1_555 1_555
O1 C21 1_555 1_555
C23 C22 1_555 1_555
C24 C23 1_555 1_555
C25 C24 1_555 1_555
C26 C25 1_555 1_555
C27 C26 1_555 1_555
C28 C23 1_555 1_555
C29 C30 1_555 1_555
C30 C31 1_555 1_555
C31 C32 1_555 1_555
C32 C33 1_555 1_555
C33 C34 1_555 1_555
C34 C29 1_555 1_555
C35 C32 1_555 1_555
N3 C35 1_555 1_555
N4 N3 1_555 1_555
C36 C26 1_555 1_555
O2 C35 1_555 1_555
H30 C16 1_555 1_555
H31 C17 1_555 1_555
H32 C19 1_555 1_555
H33 C20 1_555 1_555
H34 C24 1_555 1_555
H35 C27 1_555 1_555
H36 C30 1_555 1_555
H37 C31 1_555 1_555
H38 C33 1_555 1_555
O3 C1 1_555 1_555
O4 C8 1_555 1_555
C37 C29 1_555 1_555
C38 C15 1_555 1_555
H40 C1 1_555 1_555
H41 C37 1_555 1_555
H42 C37 1_555 1_555
H43 C37 1_555 1_555
H44 C38 1_555 1_555
H45 C38 1_555 1_555
H46 C38 1_555 1_555
C22 O1 1_555 1_555
C25 O3 1_555 1_555
C27 C28 1_555 1_555
C28 O4 1_555 1_555
N4 C36 1_555 1_555
C36 O2 1_555 1_555

#END
