
#######################################################################
#
#                 Cambridge Crystallographic Data Centre
#                                CCDC 
#
#######################################################################
#
# If this CIF has been generated from an entry in the Cambridge 
# Structural Database, then it will include bibliographic, chemical, 
# crystal, experimental, refinement or atomic coordinate data resulting 
# from the CCDC's data processing and validation procedures.
#
#######################################################################

data_LIWYIZ
_chemical_formula_moiety         'C12 H12 Cl1 N1 Se1'
_chemical_name_systematic        
Chloro-(8-(N,N-dimethylamino)naphthyl)-selenium(ii)
_symmetry_cell_setting           orthorhombic
_symmetry_space_group_name_H-M   'P b c a'
_symmetry_Int_Tables_number      61
_space_group_name_Hall           '-P 2ac 2ab'
loop_
_symmetry_equiv_pos_site_id
_symmetry_equiv_pos_as_xyz
1 x,y,z
2 1/2-x,-y,1/2+z
3 1/2+x,1/2-y,-z
4 -x,1/2+y,1/2-z
5 -x,-y,-z
6 1/2+x,y,1/2-z
7 1/2-x,1/2+y,z
8 x,1/2-y,1/2+z
_cell_length_a                   6.9907(10)
_cell_length_b                   11.725(3)
_cell_length_c                   29.301(3)
_cell_angle_alpha                90
_cell_angle_beta                 90
_cell_angle_gamma                90
_cell_volume                     2401.68
_exptl_crystal_colour            white
_chemical_melting_point          '166-168 deg.C.(dec.)'
_cell_formula_units_Z            8
_exptl_crystal_recrystallization_method dichloromethane/ether
loop_
_atom_site_label
_atom_site_type_symbol
_atom_site_fract_x
_atom_site_fract_y
_atom_site_fract_z
Se1 Se -0.0006(1) 0.0875(1) 0.4373(1)
Cl1 Cl -0.2361(3) -0.0628(2) 0.4471(1)
N1 N 0.2167(6) 0.2163(4) 0.4246(2)
C1 C -0.0652(8) 0.1158(5) 0.3752(2)
C2 C -0.1970(9) 0.0572(7) 0.3493(2)
C3 C -0.2325(11) 0.0916(8) 0.3032(3)
C4 C -0.1411(10) 0.1813(7) 0.2845(3)
C5 C 0.0907(11) 0.3430(7) 0.2935(2)
C6 C 0.2234(13) 0.3981(7) 0.3193(2)
C7 C 0.2695(11) 0.3574(6) 0.3629(2)
C8 C 0.1753(8) 0.2673(5) 0.3803(2)
C9 C 0.0331(7) 0.2086(5) 0.3553(2)
C10 C -0.0074(9) 0.2458(6) 0.3101(2)
C11 C 0.4046(8) 0.1552(6) 0.4246(3)
C12 C 0.2089(9) 0.3015(6) 0.4625(2)
H1 H -0.2626(9) -0.0045(7) 0.3617(2)
H2 H -0.3206(11) 0.0511(8) 0.2858(3)
H3 H -0.1659(10) 0.2011(7) 0.2543(3)
H4 H 0.0638(11) 0.3697(7) 0.2643(2)
H5 H 0.2838(13) 0.4629(7) 0.3080(2)
H6 H 0.3651(11) 0.3927(6) 0.3799(2)
H7 H 0.5064(8) 0.2094(7) 0.4211(14)
H8 H 0.4079(22) 0.1018(23) 0.3998(8)
H9 H 0.4200(26) 0.1151(27) 0.4530(5)
H10 H 0.3162(29) 0.3522(19) 0.4602(7)
H11 H 0.2131(50) 0.2625(6) 0.4913(2)
H12 H 0.0924(25) 0.3444(21) 0.4604(7)
loop_
_geom_bond_atom_site_label_1
_geom_bond_atom_site_label_2
_geom_bond_site_symmetry_1
_geom_bond_site_symmetry_2
Se1 Cl1 1_555 1_555
N1 C8 1_555 1_555
C1 Se1 1_555 1_555
C2 C1 1_555 1_555
C3 C2 1_555 1_555
C4 C3 1_555 1_555
C5 C6 1_555 1_555
C6 C7 1_555 1_555
C7 C8 1_555 1_555
C8 C9 1_555 1_555
C9 C1 1_555 1_555
C10 C4 1_555 1_555
C11 N1 1_555 1_555
C12 N1 1_555 1_555
H1 C2 1_555 1_555
H2 C3 1_555 1_555
H3 C4 1_555 1_555
H4 C5 1_555 1_555
H5 C6 1_555 1_555
H6 C7 1_555 1_555
H7 C11 1_555 1_555
H8 C11 1_555 1_555
H9 C11 1_555 1_555
H10 C12 1_555 1_555
H11 C12 1_555 1_555
H12 C12 1_555 1_555
C5 C10 1_555 1_555
C9 C10 1_555 1_555

#END
