
#######################################################################
#
#                 Cambridge Crystallographic Data Centre
#                                CCDC 
#
#######################################################################
#
# If this CIF has been generated from an entry in the Cambridge 
# Structural Database, then it will include bibliographic, chemical, 
# crystal, experimental, refinement or atomic coordinate data resulting 
# from the CCDC's data processing and validation procedures.
#
#######################################################################

data_LIYTIW
_chemical_formula_moiety         'C20 H14 N4'
_chemical_name_systematic        1,4-bis(2-Benzimidazolyl)benzene
_symmetry_cell_setting           orthorhombic
_symmetry_space_group_name_H-M   'P b c a'
_symmetry_Int_Tables_number      61
_space_group_name_Hall           '-P 2ac 2ab'
loop_
_symmetry_equiv_pos_site_id
_symmetry_equiv_pos_as_xyz
1 x,y,z
2 1/2-x,-y,1/2+z
3 1/2+x,1/2-y,-z
4 -x,1/2+y,1/2-z
5 -x,-y,-z
6 1/2+x,y,1/2-z
7 1/2-x,1/2+y,z
8 x,1/2-y,1/2+z
_cell_length_a                   10.2400(3)
_cell_length_b                   9.7505(2)
_cell_length_c                   15.0310(4)
_cell_angle_alpha                90
_cell_angle_beta                 90
_cell_angle_gamma                90
_cell_volume                     1500.77
_exptl_crystal_colour            'dark red'
_exptl_crystal_description       needle
_cell_formula_units_Z            4
_exptl_crystal_recrystallization_method ethanol
loop_
_atom_site_label
_atom_site_type_symbol
_atom_site_fract_x
_atom_site_fract_y
_atom_site_fract_z
N1 N 0.16043(17) 0.05717(17) 0.41094(13)
N2 N 0.20392(17) -0.16702(16) 0.39828(12)
H1 H 0.2467 -0.2428 0.4013
C1 C 0.07906(19) -0.1500(2) 0.36575(14)
C2 C -0.0120(2) -0.2423(2) 0.33129(15)
H2 H 0.0062 -0.3355 0.3272
C3 C -0.1289(2) -0.1899(2) 0.30385(17)
H3 H -0.1913 -0.2486 0.2799
C4 C -0.1571(2) -0.0490(2) 0.31097(17)
H4 H -0.2374 -0.0163 0.2912
C5 C -0.0685(2) 0.0409(2) 0.34651(17)
H5 H -0.0884 0.1335 0.3523
C6 C 0.0526(2) -0.0099(2) 0.37380(15)
C7 C 0.2466(2) -0.04138(19) 0.42458(14)
C8 C 0.37635(19) -0.02064(19) 0.46375(14)
C9 C 0.4812(2) -0.1039(2) 0.43866(16)
H6 H 0.4680 -0.1767 0.3967
C10 C 0.3967(2) 0.0829(2) 0.52542(15)
H7 H 0.3251 0.1396 0.5440
C10D C 0.6033(2) -0.0829(2) 0.47458(15)
C8D C 0.62365(19) 0.02064(19) 0.53625(14)
C7D C 0.7534(2) 0.04138(19) 0.57542(14)
N1D N 0.83957(17) -0.05717(17) 0.58906(13)
C6D C 0.9474(2) 0.0099(2) 0.62620(15)
C1D C 0.92094(19) 0.1500(2) 0.63425(14)
N2D N 0.79608(17) 0.16702(16) 0.60172(12)
H1D H 0.7533 0.2428 0.5987
C2D C 1.0120(2) 0.2423(2) 0.66871(15)
H2D H 0.9938 0.3355 0.6728
C3D C 1.1289(2) 0.1899(2) 0.69615(17)
H3D H 1.1913 0.2486 0.7201
C4D C 1.1571(2) 0.0490(2) 0.68903(17)
H4D H 1.2374 0.0163 0.7088
C5D C 1.0685(2) -0.0409(2) 0.65349(17)
H5D H 1.0884 -0.1335 0.6477
C9D C 0.5188(2) 0.1039(2) 0.56134(16)
H6D H 0.5320 0.1767 0.6033
H7D H 0.6749 -0.1396 0.4560
loop_
_geom_bond_atom_site_label_1
_geom_bond_atom_site_label_2
_geom_bond_site_symmetry_1
_geom_bond_site_symmetry_2
N1 C6 1_555 1_555
N2 H1 1_555 1_555
C1 N2 1_555 1_555
C2 C1 1_555 1_555
H2 C2 1_555 1_555
C3 C2 1_555 1_555
H3 C3 1_555 1_555
C4 C3 1_555 1_555
H4 C4 1_555 1_555
C5 C4 1_555 1_555
H5 C5 1_555 1_555
C6 C1 1_555 1_555
C7 N1 1_555 1_555
C8 C7 1_555 1_555
C9 C8 1_555 1_555
H6 C9 1_555 1_555
C10 C8 1_555 1_555
H7 C10 1_555 1_555
C10D C9 1_555 1_555
C8D C10D 1_555 1_555
C7D C8D 1_555 1_555
N1D C7D 1_555 1_555
C6D N1D 1_555 1_555
C1D C6D 1_555 1_555
N2D C7D 1_555 1_555
H1D N2D 1_555 1_555
C2D C1D 1_555 1_555
H2D C2D 1_555 1_555
C3D C2D 1_555 1_555
H3D C3D 1_555 1_555
C4D C3D 1_555 1_555
H4D C4D 1_555 1_555
C5D C6D 1_555 1_555
H5D C5D 1_555 1_555
C9D C10 1_555 1_555
H6D C9D 1_555 1_555
H7D C10D 1_555 1_555
N2 C7 1_555 1_555
C5 C6 1_555 1_555
C8D C9D 1_555 1_555
C1D N2D 1_555 1_555
C4D C5D 1_555 1_555

#END
