
#######################################################################
#
#                 Cambridge Crystallographic Data Centre
#                                CCDC 
#
#######################################################################
#
# If this CIF has been generated from an entry in the Cambridge 
# Structural Database, then it will include bibliographic, chemical, 
# crystal, experimental, refinement or atomic coordinate data resulting 
# from the CCDC's data processing and validation procedures.
#
#######################################################################

data_LIYWAT
_chemical_formula_moiety         'C30 H26 Cl3 N3 O2'
_chemical_name_systematic        
5-Chloro-5''-(4-chlorobenzylidene)-4'-(4-chlorophenyl)-1',1''-dimethyl-4''H-dispiro[indole-3,2'-pyrrolidine-3',3''-piperidine]-2,4''(1H)-dione
_symmetry_cell_setting           triclinic
_symmetry_space_group_name_H-M   'P -1'
_symmetry_Int_Tables_number      2
_space_group_name_Hall           '-P 1'
loop_
_symmetry_equiv_pos_site_id
_symmetry_equiv_pos_as_xyz
1 x,y,z
2 -x,-y,-z
_cell_length_a                   11.2102(3)
_cell_length_b                   11.5909(3)
_cell_length_c                   12.3569(4)
_cell_angle_alpha                99.0734(8)
_cell_angle_beta                 90.1887(9)
_cell_angle_gamma                116.4041(10)
_cell_volume                     1415.22
_exptl_crystal_colour            'pale yellow'
_exptl_crystal_description       plate
_cell_formula_units_Z            2
loop_
_atom_site_label
_atom_site_type_symbol
_atom_site_fract_x
_atom_site_fract_y
_atom_site_fract_z
Cl1 Cl 0.60430(10) 0.03618(8) 0.26749(8)
C1 C 0.6044(3) 0.1352(3) 0.3894(3)
C2 C 0.6541(3) 0.1232(3) 0.4866(3)
C3 C 0.6557(3) 0.2027(3) 0.5831(3)
C4 C 0.6067(3) 0.2943(2) 0.5838(2)
C5 C 0.5543(3) 0.3014(3) 0.4848(2)
C6 C 0.5530(3) 0.2237(3) 0.3873(3)
C7 C 0.6072(2) 0.3840(2) 0.6877(2)
C8 C 0.5750(3) 0.3253(3) 0.7914(3)
N1 N 0.6166(2) 0.4411(2) 0.8759(2)
C9 C 0.7498(3) 0.5363(2) 0.8520(2)
C10 C 0.7408(2) 0.5121(2) 0.7215(2)
C11 C 0.8657(2) 0.5050(2) 0.6782(2)
N2 N 0.9809(2) 0.6228(2) 0.73096(19)
C12 C 1.1053(3) 0.6102(3) 0.7277(3)
C13 C 0.9952(3) 0.7356(2) 0.6850(2)
C14 C 0.8667(3) 0.7462(2) 0.6750(2)
C15 C 0.7363(3) 0.6297(2) 0.6818(2)
O1 O 0.63054(19) 0.62778(19) 0.65825(18)
C16 C 0.8581(3) 0.8543(2) 0.6587(2)
C17 C 0.9613(3) 0.9854(3) 0.6496(2)
C18 C 1.0951(3) 1.0193(3) 0.6338(2)
C19 C 1.1861(3) 1.1452(3) 0.6272(3)
C20 C 1.1446(3) 1.2413(3) 0.6355(3)
Cl2 Cl 1.25982(10) 1.40017(8) 0.62645(10)
C21 C 1.0126(3) 1.2121(3) 0.6494(3)
C22 C 0.9234(3) 1.0851(3) 0.6562(3)
C23 C 0.8616(3) 0.5122(3) 0.9037(2)
O2 O 0.8737(2) 0.4106(2) 0.88320(18)
N3 N 0.9342(3) 0.6146(2) 0.9844(2)
C24 C 0.8905(3) 0.7109(3) 0.9914(3)
C25 C 0.7834(3) 0.6724(3) 0.9147(2)
C26 C 0.7187(3) 0.7487(3) 0.9109(3)
C27 C 0.7670(5) 0.8668(3) 0.9847(3)
Cl3 Cl 0.68788(17) 0.96581(12) 0.98031(12)
C28 C 0.8741(5) 0.9054(4) 1.0601(3)
C29 C 0.9380(5) 0.8278(4) 1.0642(3)
C30 C 0.6049(4) 0.4161(4) 0.9884(3)
H1 H 0.6875 0.0600 0.4875
H2 H 0.6912 0.1947 0.6508
H3 H 0.5179 0.3622 0.4839
H4 H 0.5171 0.2309 0.3194
H5 H 0.5398 0.4108 0.6738
H6 H 0.6249 0.2780 0.8011
H7 H 0.4813 0.2684 0.7906
H8 H 0.8702 0.4292 0.6959
H9 H 0.8631 0.5003 0.5999
H10 H 1.1779 0.6908 0.7637
H11 H 1.0970 0.5405 0.7648
H12 H 1.1224 0.5912 0.6526
H13 H 1.0599 0.8133 0.7317
H14 H 1.0265 0.7293 0.6131
H15 H 0.7683 0.8438 0.6517
H16 H 1.1247 0.9526 0.6274
H17 H 1.2778 1.1659 0.6168
H18 H 0.9835 1.2790 0.6542
H19 H 0.8317 1.0649 0.6659
H20 H 0.6431 0.7215 0.8593
H21 H 0.9045 0.9868 1.1105
H22 H 1.0133 0.8547 1.1160
H23 H 0.6343 0.4974 1.0388
H24 H 0.6594 0.3746 1.0027
H25 H 0.5134 0.3597 0.9977
H26 H 1.0063 0.6204 1.0307
loop_
_geom_bond_atom_site_label_1
_geom_bond_atom_site_label_2
_geom_bond_site_symmetry_1
_geom_bond_site_symmetry_2
Cl1 C1 1_555 1_555
C1 C2 1_555 1_555
C2 C3 1_555 1_555
C3 C4 1_555 1_555
C4 C5 1_555 1_555
C5 C6 1_555 1_555
C6 C1 1_555 1_555
C7 C4 1_555 1_555
C8 C7 1_555 1_555
N1 C8 1_555 1_555
C9 N1 1_555 1_555
C10 C7 1_555 1_555
C11 C10 1_555 1_555
N2 C11 1_555 1_555
C12 N2 1_555 1_555
C13 N2 1_555 1_555
C14 C13 1_555 1_555
C15 C10 1_555 1_555
O1 C15 1_555 1_555
C16 C14 1_555 1_555
C17 C16 1_555 1_555
C18 C17 1_555 1_555
C19 C18 1_555 1_555
C20 C19 1_555 1_555
Cl2 C20 1_555 1_555
C21 C20 1_555 1_555
C22 C17 1_555 1_555
C23 C9 1_555 1_555
O2 C23 1_555 1_555
N3 C23 1_555 1_555
C24 N3 1_555 1_555
C25 C9 1_555 1_555
C26 C25 1_555 1_555
C27 C26 1_555 1_555
Cl3 C27 1_555 1_555
C28 C27 1_555 1_555
C29 C24 1_555 1_555
C30 N1 1_555 1_555
H1 C2 1_555 1_555
H2 C3 1_555 1_555
H3 C5 1_555 1_555
H4 C6 1_555 1_555
H5 C7 1_555 1_555
H6 C8 1_555 1_555
H7 C8 1_555 1_555
H8 C11 1_555 1_555
H9 C11 1_555 1_555
H10 C12 1_555 1_555
H11 C12 1_555 1_555
H12 C12 1_555 1_555
H13 C13 1_555 1_555
H14 C13 1_555 1_555
H15 C16 1_555 1_555
H16 C18 1_555 1_555
H17 C19 1_555 1_555
H18 C21 1_555 1_555
H19 C22 1_555 1_555
H20 C26 1_555 1_555
H21 C28 1_555 1_555
H22 C29 1_555 1_555
H23 C30 1_555 1_555
H24 C30 1_555 1_555
H25 C30 1_555 1_555
H26 N3 1_555 1_555
C9 C10 1_555 1_555
C14 C15 1_555 1_555
C21 C22 1_555 1_555
C24 C25 1_555 1_555
C28 C29 1_555 1_555

#END
