
#######################################################################
#
#                 Cambridge Crystallographic Data Centre
#                                CCDC 
#
#######################################################################
#
# If this CIF has been generated from an entry in the Cambridge 
# Structural Database, then it will include bibliographic, chemical, 
# crystal, experimental, refinement or atomic coordinate data resulting 
# from the CCDC's data processing and validation procedures.
#
#######################################################################

data_LIZPEQ
_chemical_formula_moiety         'C6 H2 Br2 N2 O1'
_chemical_name_systematic        4,7-Dibromo-2,1,3-benzoxadiazole
_symmetry_cell_setting           orthorhombic
_symmetry_space_group_name_H-M   'P 21 21 21'
_symmetry_Int_Tables_number      19
_space_group_name_Hall           'P 2ac 2ab'
loop_
_symmetry_equiv_pos_site_id
_symmetry_equiv_pos_as_xyz
1 x,y,z
2 1/2-x,-y,1/2+z
3 -x,1/2+y,1/2-z
4 1/2+x,1/2-y,-z
_cell_length_a                   4.0985(10)
_cell_length_b                   6.5533(16)
_cell_length_c                   26.857(7)
_cell_angle_alpha                90
_cell_angle_beta                 90
_cell_angle_gamma                90
_cell_volume                     721.344
_exptl_crystal_colour            colorless
_exptl_crystal_description       Block
_chemical_melting_point          99-100deg.C
_cell_formula_units_Z            4
_exptl_crystal_recrystallization_method ethanol
loop_
_atom_site_label
_atom_site_type_symbol
_atom_site_fract_x
_atom_site_fract_y
_atom_site_fract_z
Br1 Br -0.24297(9) 0.49077(4) 0.011283(10)
Br2 Br 0.27135(7) 0.75876(4) 0.232512(10)
O1 O 0.3768(6) 0.2015(3) 0.13213(8)
N1 N 0.3805(6) 0.3506(4) 0.16817(9)
N2 N 0.1951(6) 0.2555(4) 0.09200(9)
C1 C 0.1965(6) 0.4942(4) 0.14993(10)
C2 C 0.0856(7) 0.4376(5) 0.10248(10)
C3 C -0.1098(7) 0.5714(5) 0.07434(11)
C4 C -0.1838(7) 0.7520(4) 0.09441(11)
H1 H -0.3107 0.8460 0.0757
C5 C -0.0779(7) 0.8076(5) 0.14308(11)
H2 H -0.1445 0.9352 0.1565
C6 C 0.1125(7) 0.6856(4) 0.17043(11)
loop_
_geom_bond_atom_site_label_1
_geom_bond_atom_site_label_2
_geom_bond_site_symmetry_1
_geom_bond_site_symmetry_2
Br1 C3 1_555 1_555
Br2 C6 1_555 1_555
O1 N1 1_555 1_555
N1 C1 1_555 1_555
N2 O1 1_555 1_555
C1 C2 1_555 1_555
C2 N2 1_555 1_555
C3 C2 1_555 1_555
C4 C3 1_555 1_555
H1 C4 1_555 1_555
C5 C4 1_555 1_555
H2 C5 1_555 1_555
C6 C1 1_555 1_555
C5 C6 1_555 1_555

#END
