
#######################################################################
#
#                 Cambridge Crystallographic Data Centre
#                                CCDC 
#
#######################################################################
#
# If this CIF has been generated from an entry in the Cambridge 
# Structural Database, then it will include bibliographic, chemical, 
# crystal, experimental, refinement or atomic coordinate data resulting 
# from the CCDC's data processing and validation procedures.
#
#######################################################################

data_LIZTEV
_chemical_formula_moiety         'C17 H21 N2 O2 1+,N1 O3 1-'
_chemical_name_systematic        
'N-(4-(Diethylamino)-2-hydroxybenzylidene)-2-hydroxyanilinium nitrate'
_symmetry_cell_setting           monoclinic
_symmetry_space_group_name_H-M   'P 21/c'
_symmetry_Int_Tables_number      14
_space_group_name_Hall           '-P 2ybc'
loop_
_symmetry_equiv_pos_site_id
_symmetry_equiv_pos_as_xyz
1 x,y,z
2 -x,1/2+y,1/2-z
3 -x,-y,-z
4 x,1/2-y,1/2+z
_cell_length_a                   8.1825(5)
_cell_length_b                   15.0467(11)
_cell_length_c                   14.7289(12)
_cell_angle_alpha                90
_cell_angle_beta                 102.646(7)
_cell_angle_gamma                90
_cell_volume                     1769.43
_exptl_crystal_colour            red
_exptl_crystal_description       rectangular
_cell_formula_units_Z            4
loop_
_atom_site_label
_atom_site_type_symbol
_atom_site_fract_x
_atom_site_fract_y
_atom_site_fract_z
O1 O 0.37913(18) 0.03407(10) 0.59655(10)
H1 H 0.4446 0.0136 0.6419
O2 O 0.3905(2) 0.27395(10) 0.56058(11)
H2 H 0.4114 0.3197 0.5913
N1 N 0.28140(18) 0.14108(10) 0.45139(11)
H3 H 0.3404 0.1355 0.5071
N2 N 0.18327(18) -0.26629(11) 0.57155(12)
C1 C 0.2892(2) 0.22467(13) 0.40888(14)
C2 C 0.1911(2) -0.01119(13) 0.45945(14)
C3 C 0.0908(2) -0.07971(14) 0.41136(14)
H4 H 0.0259 -0.0676 0.3525
C4 C 0.3463(2) 0.29467(14) 0.46922(15)
C5 C 0.1833(2) -0.18393(13) 0.53587(14)
C6 C 0.2825(2) -0.11556(14) 0.58622(14)
H5 H 0.3461 -0.1274 0.6454
C7 C 0.1952(2) 0.07091(13) 0.41627(14)
H6 H 0.1300 0.0766 0.3563
C8 C 0.2455(2) 0.23859(15) 0.31410(15)
H7 H 0.2088 0.1914 0.2740
C9 C 0.3528(3) 0.37895(15) 0.43326(18)
H8 H 0.3880 0.4265 0.4731
C10 C 0.2865(2) -0.03250(14) 0.54935(14)
C11 C 0.0797(2) -0.33851(14) 0.52265(17)
H9 H -0.0235 -0.3139 0.4861
H10 H 0.0507 -0.3789 0.5680
C12 C 0.2567(2) 0.32284(16) 0.27908(17)
H11 H 0.2300 0.3325 0.2152
C13 C 0.0845(2) -0.16229(14) 0.44685(14)
H12 H 0.0151 -0.2051 0.4127
C14 C 0.3075(2) 0.39283(16) 0.33918(18)
H13 H 0.3111 0.4500 0.3156
C15 C 0.2950(2) -0.29077(15) 0.65954(16)
H14 H 0.3998 -0.2589 0.6654
H15 H 0.3192 -0.3538 0.6586
C16 C 0.1683(3) -0.38950(17) 0.4593(2)
H16 H 0.1938 -0.3501 0.4131
H17 H 0.0971 -0.4365 0.4294
H18 H 0.2702 -0.4143 0.4953
C17 C 0.2234(3) -0.2709(2) 0.74282(17)
H19 H 0.1189 -0.3017 0.7373
H20 H 0.2050 -0.2081 0.7463
H21 H 0.3004 -0.2901 0.7982
O3 O 0.4887(2) 0.40731(11) 0.68671(12)
N3 N 0.3622(3) 0.44867(13) 0.69668(14)
O4 O 0.36977(19) 0.49824(12) 0.76514(11)
O5 O 0.2302(2) 0.43968(15) 0.64105(14)
loop_
_geom_bond_atom_site_label_1
_geom_bond_atom_site_label_2
_geom_bond_site_symmetry_1
_geom_bond_site_symmetry_2
O1 H1 1_555 1_555
O2 H2 1_555 1_555
N1 H3 1_555 1_555
N2 C5 1_555 1_555
C1 N1 1_555 1_555
C2 C3 1_555 1_555
C3 H4 1_555 1_555
C4 O2 1_555 1_555
C5 C6 1_555 1_555
C6 H5 1_555 1_555
C7 N1 1_555 1_555
H6 C7 1_555 1_555
C8 C1 1_555 1_555
H7 C8 1_555 1_555
C9 C4 1_555 1_555
H8 C9 1_555 1_555
C10 O1 1_555 1_555
C11 N2 1_555 1_555
H9 C11 1_555 1_555
H10 C11 1_555 1_555
C12 C8 1_555 1_555
H11 C12 1_555 1_555
C13 C3 1_555 1_555
H12 C13 1_555 1_555
C14 C9 1_555 1_555
H13 C14 1_555 1_555
C15 N2 1_555 1_555
H14 C15 1_555 1_555
H15 C15 1_555 1_555
C16 C11 1_555 1_555
H16 C16 1_555 1_555
H17 C16 1_555 1_555
H18 C16 1_555 1_555
C17 C15 1_555 1_555
H19 C17 1_555 1_555
H20 C17 1_555 1_555
H21 C17 1_555 1_555
O3 N3 1_555 1_555
N3 O4 1_555 1_555
O5 N3 1_555 1_555
C1 C4 1_555 1_555
C2 C7 1_555 1_555
C2 C10 1_555 1_555
C5 C13 1_555 1_555
C6 C10 1_555 1_555
C12 C14 1_555 1_555

#END
