
#######################################################################
#
#                 Cambridge Crystallographic Data Centre
#                                CCDC 
#
#######################################################################
#
# If this CIF has been generated from an entry in the Cambridge 
# Structural Database, then it will include bibliographic, chemical, 
# crystal, experimental, refinement or atomic coordinate data resulting 
# from the CCDC's data processing and validation procedures.
#
#######################################################################

data_LIZVEW
_chemical_formula_moiety         'C29 H23 N1 O2'
_chemical_name_systematic        
9-Benzyl-7-phenyl-7,7a,10a,11-tetrahydro-9H-naphtho[2,1-f]isoindole-8,10-dione
_symmetry_cell_setting           orthorhombic
_symmetry_space_group_name_H-M   'P b c a'
_symmetry_Int_Tables_number      61
_space_group_name_Hall           '-P 2ac 2ab'
loop_
_symmetry_equiv_pos_site_id
_symmetry_equiv_pos_as_xyz
1 x,y,z
2 1/2-x,-y,1/2+z
3 -x,1/2+y,1/2-z
4 1/2+x,1/2-y,-z
5 -x,-y,-z
6 1/2+x,y,1/2-z
7 x,1/2-y,1/2+z
8 1/2-x,1/2+y,z
_cell_length_a                   19.173(4)
_cell_length_b                   11.274(2)
_cell_length_c                   20.135(4)
_cell_angle_alpha                90
_cell_angle_beta                 90
_cell_angle_gamma                90
_cell_volume                     4352.31
_exptl_crystal_colour            colorless
_chemical_melting_point          167-168deg.C
_cell_formula_units_Z            8
loop_
_atom_site_label
_atom_site_type_symbol
_atom_site_fract_x
_atom_site_fract_y
_atom_site_fract_z
O1 O 0.16199(10) 0.52812(18) 0.27377(10)
O2 O 0.20863(10) 0.89744(19) 0.19583(9)
N1 N 0.18421(11) 0.7043(2) 0.22047(10)
C1 C 0.0812(2) 0.6950(4) 0.06299(16)
H1 H 0.1142 0.6616 0.0348
C2 C 0.0183(2) 0.7306(5) 0.03744(19)
H2 H 0.0088 0.7198 -0.0075
C3 C -0.0307(2) 0.7822(3) 0.07774(19)
H3 H -0.0726 0.8093 0.0602
C4 C -0.01698(17) 0.7930(3) 0.14359(17)
H4 H -0.0503 0.8255 0.1718
C5 C 0.04632(15) 0.7559(3) 0.16869(15)
H5 H 0.0551 0.7641 0.2139
C6 C 0.09650(15) 0.7074(2) 0.12872(13)
C7 C 0.16668(15) 0.6665(3) 0.15329(13)
H6 H 0.1680 0.5805 0.1516
H7 H 0.2022 0.6958 0.1232
C8 C 0.18067(13) 0.6310(3) 0.27555(14)
C9 C 0.20381(13) 0.8182(3) 0.23610(13)
C10 C 0.21850(13) 0.8254(2) 0.30961(12)
H8 H 0.2682 0.8416 0.3167
C11 C 0.20095(13) 0.7015(2) 0.33603(13)
H9 H 0.2424 0.6663 0.3565
C12 C 0.17497(12) 0.9240(2) 0.34124(13)
H10 H 0.1795 0.9937 0.3125
C13 C 0.09884(13) 0.8875(2) 0.33941(12)
C14 C 0.04737(14) 0.9636(2) 0.31430(13)
H11 H 0.0597 1.0393 0.3003
C15 C -0.02011(15) 0.9286(3) 0.31017(14)
H12 H -0.0536 0.9813 0.2945
C16 C -0.04003(14) 0.8132(3) 0.32940(13)
C17 C -0.10977(15) 0.7736(3) 0.32240(15)
H13 H -0.1435 0.8259 0.3068
C18 C -0.12811(16) 0.6616(3) 0.33799(17)
H14 H -0.1739 0.6365 0.3320
C19 C -0.07832(16) 0.5835(3) 0.36318(15)
H15 H -0.0913 0.5065 0.3743
C20 C -0.01064(14) 0.6188(2) 0.37177(14)
H16 H 0.0216 0.5656 0.3892
C21 C 0.01111(13) 0.7345(2) 0.35459(12)
C22 C 0.08132(13) 0.7751(2) 0.36070(12)
C23 C 0.14017(13) 0.6992(2) 0.38549(13)
H17 H 0.1240 0.6183 0.3912
H18 H 0.1559 0.7282 0.4283
C24 C 0.19912(14) 0.9619(2) 0.41077(12)
C25 C 0.25977(17) 0.9214(3) 0.43979(15)
H19 H 0.2868 0.8651 0.4179
C26 C 0.2808(2) 0.9633(4) 0.50062(17)
H20 H 0.3218 0.9346 0.5194
C27 C 0.2429(3) 1.0458(4) 0.53394(17)
H21 H 0.2578 1.0739 0.5750
C28 C 0.1824(2) 1.0870(3) 0.50595(18)
H22 H 0.1559 1.1437 0.5280
C29 C 0.16060(18) 1.0440(3) 0.44471(15)
H23 H 0.1191 1.0716 0.4265
loop_
_geom_bond_atom_site_label_1
_geom_bond_atom_site_label_2
_geom_bond_site_symmetry_1
_geom_bond_site_symmetry_2
O1 C8 1_555 1_555
O2 C9 1_555 1_555
N1 C7 1_555 1_555
C1 H1 1_555 1_555
C2 C1 1_555 1_555
H2 C2 1_555 1_555
C3 C2 1_555 1_555
H3 C3 1_555 1_555
C4 C3 1_555 1_555
H4 C4 1_555 1_555
C5 C4 1_555 1_555
H5 C5 1_555 1_555
C6 C1 1_555 1_555
C7 C6 1_555 1_555
H6 C7 1_555 1_555
H7 C7 1_555 1_555
C8 N1 1_555 1_555
C9 N1 1_555 1_555
C10 C9 1_555 1_555
H8 C10 1_555 1_555
C11 C8 1_555 1_555
H9 C11 1_555 1_555
C12 C10 1_555 1_555
H10 C12 1_555 1_555
C13 C12 1_555 1_555
C14 C13 1_555 1_555
H11 C14 1_555 1_555
C15 C14 1_555 1_555
H12 C15 1_555 1_555
C16 C15 1_555 1_555
C17 C16 1_555 1_555
H13 C17 1_555 1_555
C18 C17 1_555 1_555
H14 C18 1_555 1_555
C19 C18 1_555 1_555
H15 C19 1_555 1_555
C20 C19 1_555 1_555
H16 C20 1_555 1_555
C21 C16 1_555 1_555
C22 C13 1_555 1_555
C23 C11 1_555 1_555
H17 C23 1_555 1_555
H18 C23 1_555 1_555
C24 C12 1_555 1_555
C25 C24 1_555 1_555
H19 C25 1_555 1_555
C26 C25 1_555 1_555
H20 C26 1_555 1_555
C27 C26 1_555 1_555
H21 C27 1_555 1_555
C28 C27 1_555 1_555
H22 C28 1_555 1_555
C29 C24 1_555 1_555
H23 C29 1_555 1_555
C5 C6 1_555 1_555
C10 C11 1_555 1_555
C20 C21 1_555 1_555
C21 C22 1_555 1_555
C22 C23 1_555 1_555
C28 C29 1_555 1_555

#END
