
#######################################################################
#
#                 Cambridge Crystallographic Data Centre
#                                CCDC 
#
#######################################################################
#
# If this CIF has been generated from an entry in the Cambridge 
# Structural Database, then it will include bibliographic, chemical, 
# crystal, experimental, refinement or atomic coordinate data resulting 
# from the CCDC's data processing and validation procedures.
#
#######################################################################

data_LIZVAS
_chemical_formula_moiety         'C29 H29 N1 O3'
_chemical_name_systematic        
'Isopropyl 2-benzyl-4-phenyl-1-oxo-2,3,3a,4,9,9a-hexahydro-1H-benzo[f]isoindole-6-carboxylate'
_symmetry_cell_setting           orthorhombic
_symmetry_space_group_name_H-M   'P b c a'
_symmetry_Int_Tables_number      61
_space_group_name_Hall           '-P 2ac 2ab'
loop_
_symmetry_equiv_pos_site_id
_symmetry_equiv_pos_as_xyz
1 x,y,z
2 1/2-x,-y,1/2+z
3 -x,1/2+y,1/2-z
4 1/2+x,1/2-y,-z
5 -x,-y,-z
6 1/2+x,y,1/2-z
7 x,1/2-y,1/2+z
8 1/2-x,1/2+y,z
_cell_length_a                   11.327(2)
_cell_length_b                   9.6720(19)
_cell_length_c                   44.381(9)
_cell_angle_alpha                90
_cell_angle_beta                 90
_cell_angle_gamma                90
_cell_volume                     4862.15
_exptl_crystal_colour            colorless
_chemical_melting_point          166-167deg.C
_cell_formula_units_Z            8
loop_
_atom_site_label
_atom_site_type_symbol
_atom_site_fract_x
_atom_site_fract_y
_atom_site_fract_z
O1 O 0.3194(3) 0.7198(3) 0.01991(6)
O2 O 0.4898(3) 0.6704(3) 0.04311(7)
O3 O 0.2238(3) 1.2761(3) 0.19524(7)
N1 N 0.4222(3) 1.2301(4) 0.19929(8)
C1 C 0.4255(5) 0.6906(6) -0.02702(12)
H1 H 0.4998 0.7121 -0.0177
H2 H 0.3895 0.7741 -0.0342
H3 H 0.4383 0.6287 -0.0436
C2 C 0.2256(5) 0.5820(6) -0.01704(12)
H4 H 0.1795 0.5379 -0.0016
H5 H 0.2367 0.5192 -0.0335
H6 H 0.1852 0.6631 -0.0240
C3 C 0.3452(5) 0.6227(5) -0.00423(11)
H7 H 0.3842 0.5408 0.0041
C4 C 0.3981(4) 0.7333(5) 0.04226(9)
C5 C 0.3578(3) 0.8324(4) 0.06547(9)
C6 C 0.2445(4) 0.8860(5) 0.06591(10)
H8 H 0.1906 0.8616 0.0510
C7 C 0.2121(4) 0.9757(5) 0.08849(10)
H9 H 0.1359 1.0116 0.0884
C8 C 0.2886(3) 1.0149(4) 0.11155(9)
C9 C 0.4027(3) 0.9589(4) 0.11146(9)
C10 C 0.4339(3) 0.8693(4) 0.08852(9)
H10 H 0.5096 0.8321 0.0886
C11 C 0.2462(4) 1.1137(5) 0.13544(8)
H11 H 0.2467 1.2071 0.1275
H12 H 0.1656 1.0909 0.1409
C12 C 0.3231(3) 1.1070(4) 0.16287(9)
H13 H 0.3097 1.0171 0.1724
C13 C 0.4524(3) 1.1146(4) 0.15436(9)
H14 H 0.4625 1.1957 0.1414
C14 C 0.4921(3) 0.9898(4) 0.13660(9)
H15 H 0.4915 0.9106 0.1504
C15 C 0.3125(4) 1.2156(4) 0.18690(10)
C16 C 0.5111(4) 1.1468(5) 0.18423(10)
H16 H 0.5280 1.0631 0.1955
H17 H 0.5838 1.1983 0.1814
C17 C 0.4482(4) 1.3067(5) 0.22661(10)
H18 H 0.4852 1.2448 0.2410
H19 H 0.3747 1.3387 0.2354
C18 C 0.5277(3) 1.4286(5) 0.22163(10)
C19 C 0.4995(5) 1.5257(6) 0.20056(12)
H20 H 0.4305 1.5155 0.1894
C20 C 0.5704(6) 1.6378(7) 0.19542(14)
H21 H 0.5487 1.7039 0.1812
C21 C 0.6733(5) 1.6523(7) 0.21121(15)
H22 H 0.7232 1.7265 0.2073
C22 C 0.7026(4) 1.5592(6) 0.23249(14)
H23 H 0.7719 1.5706 0.2435
C23 C 0.6293(4) 1.4451(5) 0.23818(11)
H24 H 0.6493 1.3812 0.2530
C24 C 0.6185(3) 1.0071(4) 0.12530(9)
C25 C 0.6470(4) 1.0968(5) 0.10293(11)
H25 H 0.5867 1.1455 0.0934
C26 C 0.7602(5) 1.1181(6) 0.09389(11)
H26 H 0.7759 1.1816 0.0787
C27 C 0.8491(4) 1.0490(6) 0.10667(14)
H27 H 0.9261 1.0627 0.1000
C28 C 0.8270(4) 0.9579(6) 0.12955(15)
H28 H 0.8886 0.9108 0.1389
C29 C 0.7093(4) 0.9364(5) 0.13879(12)
H29 H 0.6931 0.8738 0.1542
loop_
_geom_bond_atom_site_label_1
_geom_bond_atom_site_label_2
_geom_bond_site_symmetry_1
_geom_bond_site_symmetry_2
O1 C3 1_555 1_555
O2 C4 1_555 1_555
O3 C15 1_555 1_555
N1 C15 1_555 1_555
C1 H1 1_555 1_555
H2 C1 1_555 1_555
H3 C1 1_555 1_555
C2 H4 1_555 1_555
H5 C2 1_555 1_555
H6 C2 1_555 1_555
C3 C1 1_555 1_555
H7 C3 1_555 1_555
C4 O1 1_555 1_555
C5 C4 1_555 1_555
C6 C5 1_555 1_555
H8 C6 1_555 1_555
C7 C6 1_555 1_555
H9 C7 1_555 1_555
C8 C7 1_555 1_555
C9 C8 1_555 1_555
C10 C5 1_555 1_555
H10 C10 1_555 1_555
C11 C8 1_555 1_555
H11 C11 1_555 1_555
H12 C11 1_555 1_555
C12 C11 1_555 1_555
H13 C12 1_555 1_555
C13 C12 1_555 1_555
H14 C13 1_555 1_555
C14 C9 1_555 1_555
H15 C14 1_555 1_555
C15 C12 1_555 1_555
C16 N1 1_555 1_555
H16 C16 1_555 1_555
H17 C16 1_555 1_555
C17 N1 1_555 1_555
H18 C17 1_555 1_555
H19 C17 1_555 1_555
C18 C17 1_555 1_555
C19 C18 1_555 1_555
H20 C19 1_555 1_555
C20 C19 1_555 1_555
H21 C20 1_555 1_555
C21 C20 1_555 1_555
H22 C21 1_555 1_555
C22 C21 1_555 1_555
H23 C22 1_555 1_555
C23 C18 1_555 1_555
H24 C23 1_555 1_555
C24 C14 1_555 1_555
C25 C24 1_555 1_555
H25 C25 1_555 1_555
C26 C25 1_555 1_555
H26 C26 1_555 1_555
C27 C26 1_555 1_555
H27 C27 1_555 1_555
C28 C27 1_555 1_555
H28 C28 1_555 1_555
C29 C24 1_555 1_555
H29 C29 1_555 1_555
C2 C3 1_555 1_555
C9 C10 1_555 1_555
C13 C14 1_555 1_555
C13 C16 1_555 1_555
C22 C23 1_555 1_555
C28 C29 1_555 1_555

#END
