
#######################################################################
#
#                 Cambridge Crystallographic Data Centre
#                                CCDC 
#
#######################################################################
#
# If this CIF has been generated from an entry in the Cambridge 
# Structural Database, then it will include bibliographic, chemical, 
# crystal, experimental, refinement or atomic coordinate data resulting 
# from the CCDC's data processing and validation procedures.
#
#######################################################################

data_LIZWUM
_chemical_formula_moiety         'C23 H21 N3 O2'
_chemical_name_systematic        
(3aSR,4RS,8aSR,8bRS)-4-(2-Benzyl-1,3-dioxoperhydropyrrolo(3,4-a)pyrrolizin-4-yl)benzonitrile
_chemical_properties_biological  'potential thrombin inhibitory activity'
_symmetry_cell_setting           triclinic
_symmetry_space_group_name_H-M   'P -1'
_symmetry_Int_Tables_number      2
_space_group_name_Hall           '-P 1'
loop_
_symmetry_equiv_pos_site_id
_symmetry_equiv_pos_as_xyz
1 x,y,z
2 -x,-y,-z
_cell_length_a                   10.810(2)
_cell_length_b                   11.138(2)
_cell_length_c                   16.153(3)
_cell_angle_alpha                84.29(3)
_cell_angle_beta                 84.33(3)
_cell_angle_gamma                77.40(3)
_cell_volume                     1882.63
_exptl_crystal_colour            colorless
_chemical_melting_point          191-193deg.C
_cell_formula_units_Z            4
_exptl_crystal_recrystallization_method methanol
loop_
_atom_site_label
_atom_site_type_symbol
_atom_site_fract_x
_atom_site_fract_y
_atom_site_fract_z
C1 C 0.9393(3) 0.3569(3) 0.2067(2)
H1 H 0.9433(3) 0.4175(3) 0.1605(2)
C2 C 1.0668(2) 0.2563(3) 0.2092(2)
H2 H 1.1116(2) 0.2577(3) 0.1549(2)
N1 N 1.0241(2) 0.1385(2) 0.22628(15)
C3 C 0.9075(3) 0.1524(3) 0.1826(2)
H3 H 0.8580(3) 0.0943(3) 0.2074(2)
C4 C 0.8369(3) 0.2831(3) 0.1978(2)
H4 H 0.7856(3) 0.3188(3) 0.1528(2)
C5 C 0.7585(3) 0.2881(3) 0.2806(2)
N2 N 0.8009(2) 0.3655(2) 0.32866(15)
C6 C 0.8976(3) 0.4179(2) 0.2875(2)
O1 O 0.9374(2) 0.4991(2) 0.31326(15)
O2 O 0.6733(2) 0.2345(2) 0.3037(2)
C7 C 0.9519(3) 0.1259(3) 0.0927(2)
H5 H 0.8896(3) 0.0960(3) 0.0667(2)
H6 H 0.9692(3) 0.1986(3) 0.0606(2)
C8 C 1.0727(3) 0.0261(3) 0.1013(2)
H7 H 1.0563(3) -0.0543(3) 0.0969(2)
H8 H 1.1370(3) 0.0409(3) 0.0585(2)
C9 C 1.1159(3) 0.0357(3) 0.1883(2)
H9 H 1.1999(3) 0.0524(3) 0.1834(2)
H10 H 1.1166(3) -0.0402(3) 0.2222(2)
C10 C 1.1547(2) 0.2722(2) 0.2730(2)
C11 C 1.2589(3) 0.3254(3) 0.2490(2)
H11 H 1.2766(3) 0.3497(3) 0.1911(2)
C12 C 1.3378(3) 0.3433(3) 0.3069(2)
H12 H 1.4094(3) 0.3802(3) 0.2894(2)
C13 C 1.3117(3) 0.3087(3) 0.3907(2)
C14 C 1.2086(3) 0.2527(3) 0.4153(2)
H13 H 1.1916(3) 0.2266(3) 0.4730(2)
C15 C 1.1315(3) 0.2340(3) 0.3571(2)
H14 H 1.0613(3) 0.1948(3) 0.3741(2)
C16 C 1.3901(3) 0.3279(3) 0.4534(2)
N3 N 1.4491(3) 0.3435(3) 0.5050(2)
C17 C 0.7445(3) 0.3945(3) 0.4125(2)
H15 H 0.7440(3) 0.4790(3) 0.4201(2)
H16 H 0.6579(3) 0.3847(3) 0.4178(2)
C18 C 0.8156(3) 0.3108(3) 0.4795(2)
C19 C 0.8027(4) 0.1902(3) 0.4953(2)
H17 H 0.7454(4) 0.1592(3) 0.4655(2)
C20 C 0.8734(5) 0.1123(4) 0.5547(3)
H18 H 0.8664(5) 0.0277(4) 0.5664(3)
C21 C 0.9562(4) 0.1580(6) 0.5981(3)
H19 H 1.0058(4) 0.1051(6) 0.6388(3)
C22 C 0.9664(4) 0.2774(5) 0.5833(2)
H20 H 1.0235(4) 0.3082(5) 0.6135(2)
C23 C 0.8970(3) 0.3543(4) 0.5246(2)
H21 H 0.9042(3) 0.4391(4) 0.5150(2)
C24 C 0.6492(3) 0.6988(3) 0.2682(2)
H22 H 0.6716(3) 0.6427(3) 0.3161(2)
C25 C 0.5121(3) 0.7793(3) 0.2836(2)
H23 H 0.4883(3) 0.7755(3) 0.3425(2)
N4 N 0.5278(2) 0.9064(2) 0.25624(14)
C26 C 0.6557(3) 0.9133(3) 0.2771(2)
H24 H 0.6838(3) 0.9808(3) 0.2447(2)
C27 C 0.7369(3) 0.7913(3) 0.2529(2)
H25 H 0.8096(3) 0.7671(3) 0.2851(2)
C28 C 0.7759(3) 0.7929(3) 0.1597(2)
N5 N 0.7376(2) 0.6953(2) 0.1296(2)
C29 C 0.6714(3) 0.6311(3) 0.1892(2)
O3 O 0.6386(2) 0.5374(2) 0.17853(15)
O4 O 0.8292(3) 0.8650(3) 0.1177(2)
C30 C 0.6417(3) 0.9348(3) 0.3706(2)
H26 H 0.6607(3) 0.8575(3) 0.4037(2)
H27 H 0.6976(3) 0.9858(3) 0.3828(2)
C31 C 0.5028(4) 0.9990(4) 0.3875(2)
H28 H 0.4623(4) 0.9549(4) 0.4325(2)
H29 H 0.4966(4) 1.0819(4) 0.4018(2)
C32 C 0.4410(3) 0.9985(3) 0.3058(2)
H30 H 0.4293(3) 1.0788(3) 0.2762(2)
H31 H 0.3596(3) 0.9764(3) 0.3173(2)
C33 C 0.4088(3) 0.7450(2) 0.2397(2)
C34 C 0.3238(3) 0.6792(3) 0.2827(2)
H32 H 0.3290(3) 0.6587(3) 0.3415(2)
C35 C 0.2334(3) 0.6423(3) 0.2424(2)
H33 H 0.1751(3) 0.5972(3) 0.2731(2)
C36 C 0.3099(3) 0.7412(3) 0.1127(2)
H34 H 0.3048(3) 0.7625(3) 0.0539(2)
C37 C 0.3988(3) 0.7776(3) 0.1545(2)
H35 H 0.4543(3) 0.8266(3) 0.1247(2)
C38 C 0.1376(3) 0.6281(3) 0.1133(2)
N6 N 0.0691(3) 0.5904(3) 0.0779(2)
C39 C 0.7688(3) 0.6606(4) 0.0434(2)
H36 H 0.8390(3) 0.6955(4) 0.0189(2)
H37 H 0.7947(3) 0.5724(4) 0.0440(2)
C40 C 0.6579(3) 0.7041(3) -0.0100(2)
C41 C 0.5958(3) 0.6202(3) -0.0371(2)
H38 H 0.6218(3) 0.5341(3) -0.0199(2)
C42 C 0.4964(3) 0.6603(3) -0.0884(2)
H39 H 0.4543(3) 0.6017(3) -0.1073(2)
C43 C 0.4586(3) 0.7834(3) -0.1126(2)
H40 H 0.3907(3) 0.8117(3) -0.1485(2)
C44 C 0.2273(3) 0.6721(3) 0.1564(2)
C45 C 0.5191(3) 0.8676(3) -0.0852(2)
H41 H 0.4919(3) 0.9540(3) -0.1012(2)
C46 C 0.6184(3) 0.8283(3) -0.0343(2)
H42 H 0.6596(3) 0.8876(3) -0.0157(2)
loop_
_geom_bond_atom_site_label_1
_geom_bond_atom_site_label_2
_geom_bond_site_symmetry_1
_geom_bond_site_symmetry_2
C1 H1 1_555 1_555
C2 C1 1_555 1_555
H2 C2 1_555 1_555
N1 C2 1_555 1_555
C3 N1 1_555 1_555
H3 C3 1_555 1_555
C4 C1 1_555 1_555
H4 C4 1_555 1_555
C5 C4 1_555 1_555
N2 C5 1_555 1_555
C6 C1 1_555 1_555
O1 C6 1_555 1_555
O2 C5 1_555 1_555
C7 C3 1_555 1_555
H5 C7 1_555 1_555
H6 C7 1_555 1_555
C8 C7 1_555 1_555
H7 C8 1_555 1_555
H8 C8 1_555 1_555
C9 N1 1_555 1_555
H9 C9 1_555 1_555
H10 C9 1_555 1_555
C10 C2 1_555 1_555
C11 C10 1_555 1_555
H11 C11 1_555 1_555
C12 C11 1_555 1_555
H12 C12 1_555 1_555
C13 C12 1_555 1_555
C14 C13 1_555 1_555
H13 C14 1_555 1_555
C15 C10 1_555 1_555
H14 C15 1_555 1_555
C16 C13 1_555 1_555
N3 C16 1_555 1_555
C17 N2 1_555 1_555
H15 C17 1_555 1_555
H16 C17 1_555 1_555
C18 C17 1_555 1_555
C19 C18 1_555 1_555
H17 C19 1_555 1_555
C20 C19 1_555 1_555
H18 C20 1_555 1_555
C21 C20 1_555 1_555
H19 C21 1_555 1_555
C22 C21 1_555 1_555
H20 C22 1_555 1_555
C23 C18 1_555 1_555
H21 C23 1_555 1_555
C24 H22 1_555 1_555
C25 C24 1_555 1_555
H23 C25 1_555 1_555
N4 C25 1_555 1_555
C26 N4 1_555 1_555
H24 C26 1_555 1_555
C27 C24 1_555 1_555
H25 C27 1_555 1_555
C28 C27 1_555 1_555
N5 C28 1_555 1_555
C29 C24 1_555 1_555
O3 C29 1_555 1_555
O4 C28 1_555 1_555
C30 C26 1_555 1_555
H26 C30 1_555 1_555
H27 C30 1_555 1_555
C31 C30 1_555 1_555
H28 C31 1_555 1_555
H29 C31 1_555 1_555
C32 N4 1_555 1_555
H30 C32 1_555 1_555
H31 C32 1_555 1_555
C33 C25 1_555 1_555
C34 C33 1_555 1_555
H32 C34 1_555 1_555
C35 C34 1_555 1_555
H33 C35 1_555 1_555
C36 H34 1_555 1_555
C37 C33 1_555 1_555
H35 C37 1_555 1_555
C38 N6 1_555 1_555
C39 N5 1_555 1_555
H36 C39 1_555 1_555
H37 C39 1_555 1_555
C40 C39 1_555 1_555
C41 C40 1_555 1_555
H38 C41 1_555 1_555
C42 C41 1_555 1_555
H39 C42 1_555 1_555
C43 C42 1_555 1_555
H40 C43 1_555 1_555
C44 C35 1_555 1_555
C45 C43 1_555 1_555
H41 C45 1_555 1_555
C46 C40 1_555 1_555
H42 C46 1_555 1_555
C3 C4 1_555 1_555
N2 C6 1_555 1_555
C8 C9 1_555 1_555
C14 C15 1_555 1_555
C22 C23 1_555 1_555
C26 C27 1_555 1_555
N5 C29 1_555 1_555
C31 C32 1_555 1_555
C36 C44 1_555 1_555
C36 C37 1_555 1_555
C38 C44 1_555 1_555
C45 C46 1_555 1_555

#END
