
#######################################################################
#
#                 Cambridge Crystallographic Data Centre
#                                CCDC 
#
#######################################################################
#
# If this CIF has been generated from an entry in the Cambridge 
# Structural Database, then it will include bibliographic, chemical, 
# crystal, experimental, refinement or atomic coordinate data resulting 
# from the CCDC's data processing and validation procedures.
#
#######################################################################

data_LIZWOH
_chemical_formula_moiety         'C54 H46 N2 O8 S2,C4 H8 O2'
_chemical_name_systematic        
'10,16-bis(bis(Ethoxycarbonyl)methylidene)-5,21-di-p-tolyl-26,30-dithiabenzisappirin ethyl acetate solvate'
_symmetry_cell_setting           triclinic
_symmetry_space_group_name_H-M   'P -1'
_symmetry_Int_Tables_number      2
_space_group_name_Hall           '-P 1'
loop_
_symmetry_equiv_pos_site_id
_symmetry_equiv_pos_as_xyz
1 x,y,z
2 -x,-y,-z
_cell_length_a                   12.3625(4)
_cell_length_b                   12.3557(4)
_cell_length_c                   19.3979(9)
_cell_angle_alpha                96.957(2)
_cell_angle_beta                 93.558(2)
_cell_angle_gamma                119.028(2)
_cell_volume                     2546.66
_cell_formula_units_Z            2
_exptl_crystal_recrystallization_method 'ethyl acetate'
loop_
_atom_site_label
_atom_site_type_symbol
_atom_site_fract_x
_atom_site_fract_y
_atom_site_fract_z
S1 S 0.71959(10) 0.29589(9) 0.36697(5)
S2 S 0.65471(9) 0.49638(8) 0.42482(5)
O1 O 0.2587(3) 0.3654(2) 0.09626(15)
O2 O 0.0959(3) 0.2109(2) 0.13590(15)
O3 O 0.1083(3) 0.3410(2) 0.30753(15)
O4 O 0.0785(2) 0.4212(2) 0.21450(14)
O5 O 0.2323(3) 0.0791(3) 0.03911(16)
O6 O 0.4214(3) 0.2138(2) 0.01416(14)
O7 O 0.3531(3) -0.1047(2) -0.00074(15)
O8 O 0.3260(3) -0.1348(2) 0.11057(14)
N1 N 0.4932(3) 0.5481(3) 0.36463(16)
N2 N 0.6222(3) 0.1317(3) 0.24431(17)
C1 C 0.7754(4) 0.1935(3) 0.3775(2)
C2 C 0.8423(4) 0.2258(3) 0.4436(2)
H1 H 0.8799 0.1805 0.4596
C3 C 0.8499(4) 0.3311(3) 0.4851(2)
H2 H 0.8925 0.3643 0.5316
C4 C 0.7880(3) 0.3812(3) 0.4501(2)
C5 C 0.7666(3) 0.4826(3) 0.47461(19)
C6 C 0.8182(4) 0.5732(3) 0.5342(2)
H3 H 0.8824 0.5817 0.5678
C7 C 0.7652(3) 0.6521(3) 0.5398(2)
H4 H 0.7905 0.7193 0.5778
C8 C 0.6732(3) 0.6224(3) 0.48490(19)
C9 C 0.5983(3) 0.6820(3) 0.4760(2)
C10 C 0.5088(4) 0.6416(3) 0.4187(2)
C11 C 0.4188(3) 0.6817(3) 0.4019(2)
H5 H 0.4091 0.7446 0.4295
C12 C 0.3512(4) 0.6117(3) 0.3391(2)
H6 H 0.2851 0.6157 0.3142
C13 C 0.4009(3) 0.5294(3) 0.3180(2)
C14 C 0.3624(4) 0.4382(3) 0.2516(2)
C15 C 0.4608(4) 0.4152(3) 0.2239(2)
C16 C 0.4331(4) 0.2928(3) 0.19521(19)
H7 H 0.3496 0.2254 0.1902
C17 C 0.5261(3) 0.2690(3) 0.17412(19)
C18 C 0.6480(4) 0.3684(3) 0.1823(2)
H8 H 0.7131 0.3534 0.1694
C19 C 0.6752(4) 0.4896(3) 0.2093(2)
H9 H 0.7586 0.5571 0.2137
C20 C 0.5830(4) 0.5126(3) 0.2296(2)
H10 H 0.6030 0.5960 0.2478
C21 C 0.4962(4) 0.1382(3) 0.1445(2)
C22 C 0.5702(4) 0.0892(3) 0.1779(2)
C23 C 0.5994(4) -0.0045(3) 0.1455(2)
H11 H 0.5740 -0.0472 0.0983
C24 C 0.6699(4) -0.0185(3) 0.1960(2)
H12 H 0.7029 -0.0739 0.1912
C25 C 0.6853(4) 0.0671(3) 0.2588(2)
C26 C 0.7554(3) 0.0928(3) 0.3223(2)
C27 C 0.6191(4) 0.7881(3) 0.5310(2)
C28 C 0.6169(3) 0.7779(3) 0.6017(2)
H13 H 0.6063 0.7029 0.6161
C29 C 0.6300(4) 0.8760(3) 0.6514(2)
H14 H 0.6273 0.8671 0.6993
C30 C 0.6469(4) 0.9876(3) 0.6315(2)
C31 C 0.6520(4) 0.9984(3) 0.5617(2)
H15 H 0.6656 1.0746 0.5477
C32 C 0.6376(4) 0.9006(3) 0.5113(2)
H16 H 0.6402 0.9100 0.4635
C33 C 0.6607(5) 1.0935(4) 0.6866(2)
H17 H 0.7340 1.1724 0.6814
H18 H 0.6711 1.0748 0.7334
H19 H 0.5858 1.1016 0.6806
C34 C 0.2443(3) 0.3815(3) 0.2188(2)
C35 C 0.2049(4) 0.3192(3) 0.1437(2)
C36 C 0.0265(4) 0.1580(4) 0.0645(2)
H20 H -0.0251 0.0654 0.0592
H21 H 0.0855 0.1779 0.0296
C37 C -0.0555(5) 0.2140(5) 0.0528(3)
H22 H -0.1166 0.1900 0.0859
H23 H -0.0994 0.1829 0.0047
H24 H -0.0041 0.3058 0.0601
C38 C 0.1384(4) 0.3785(3) 0.2535(2)
C39 C -0.0338(4) 0.4136(4) 0.2378(2)
H25 H -0.0809 0.3339 0.2557
H26 H -0.0874 0.4127 0.1975
C40 C -0.0043(4) 0.5222(4) 0.2946(2)
H27 H 0.0458 0.5212 0.3354
H28 H -0.0823 0.5149 0.3081
H29 H 0.0427 0.6013 0.2771
C41 C 0.4086(4) 0.0713(3) 0.0886(2)
C42 C 0.3438(4) 0.1227(3) 0.0464(2)
C43 C 0.3627(4) 0.2634(4) -0.0306(2)
H30 H 0.3288 0.3084 -0.0016
H31 H 0.2929 0.1938 -0.0641
C44 C 0.4587(5) 0.3509(5) -0.0693(3)
H32 H 0.5296 0.4166 -0.0359
H33 H 0.4225 0.3895 -0.0973
H34 H 0.4872 0.3043 -0.1005
C45 C 0.3620(4) -0.0640(4) 0.0602(2)
C46 C 0.2853(4) -0.2678(3) 0.0881(2)
H35 H 0.3442 -0.2770 0.0588
H36 H 0.2012 -0.3114 0.0602
C47 C 0.2827(5) -0.3223(4) 0.1530(3)
H37 H 0.3649 -0.2744 0.1818
H38 H 0.2616 -0.4102 0.1402
H39 H 0.2197 -0.3181 0.1798
C48 C 0.8141(4) 0.0160(3) 0.3371(2)
C49 C 0.9415(4) 0.0713(3) 0.3570(2)
H40 H 0.9930 0.1593 0.3592
C50 C 0.9951(4) 0.0004(3) 0.3737(2)
H41 H 1.0830 0.0402 0.3866
C51 C 0.9223(4) -0.1276(3) 0.3719(2)
C52 C 0.7944(4) -0.1841(3) 0.3513(2)
H42 H 0.7432 -0.2721 0.3492
C53 C 0.7406(4) -0.1135(3) 0.3338(2)
H43 H 0.6531 -0.1536 0.3196
C54 C 0.9806(4) -0.2042(4) 0.3924(3)
H44 H 0.9806 -0.2570 0.3504
H45 H 0.9322 -0.2577 0.4251
H46 H 1.0667 -0.1476 0.4151
O9 O 0.9768(8) 0.6473(8) 0.1623(5)
O10 O 0.8949(7) 0.7502(7) 0.1197(4)
C55 C 0.8515(12) 0.5589(11) 0.0499(7)
H47 H 0.8717 0.4929 0.0493
H48 H 0.7634 0.5247 0.0505
H49 H 0.8745 0.5965 0.0088
C56 C 0.9164(14) 0.6544(11) 0.1136(7)
C57 C 0.9546(9) 0.8494(11) 0.1808(6)
H50 H 0.9514 0.8126 0.2220
H51 H 0.9090 0.8938 0.1856
C58 C 1.0869(8) 0.9402(8) 0.1782(6)
H52 H 1.1236 1.0046 0.2191
H53 H 1.1326 0.8958 0.1740
H54 H 1.0899 0.9778 0.1373
O11? O 0.9844(14) 0.6051(13) 0.1258(8)
O12? O 0.9353(13) 0.7464(11) 0.1032(7)
C59? C 0.7983(15) 0.5347(15) 0.0474(10)
H55? H 0.7898 0.4527 0.0438
H56? H 0.7291 0.5343 0.0674
H57? H 0.7995 0.5567 0.0015
C60? C 0.911(2) 0.6275(15) 0.0955(13)
C61? C 1.0276(15) 0.8364(15) 0.1607(10)
H58? H 1.1068 0.8819 0.1444
H59? H 1.0376 0.7962 0.1980
C62? C 0.9926(19) 0.9309(16) 0.1884(10)
H60? H 1.0515 0.9941 0.2263
H61? H 0.9831 0.9704 0.1506
H62? H 0.9134 0.8843 0.2045
loop_
_geom_bond_atom_site_label_1
_geom_bond_atom_site_label_2
_geom_bond_site_symmetry_1
_geom_bond_site_symmetry_2
S1 C1 1_555 1_555
S2 C5 1_555 1_555
O1 C35 1_555 1_555
O2 C35 1_555 1_555
O3 C38 1_555 1_555
O4 C38 1_555 1_555
O5 C42 1_555 1_555
O6 C42 1_555 1_555
O7 C45 1_555 1_555
O8 C45 1_555 1_555
N1 C10 1_555 1_555
N2 C22 1_555 1_555
C1 C2 1_555 1_555
C2 H1 1_555 1_555
C3 C2 1_555 1_555
H2 C3 1_555 1_555
C4 S1 1_555 1_555
C5 C4 1_555 1_555
C6 C5 1_555 1_555
H3 C6 1_555 1_555
C7 C6 1_555 1_555
H4 C7 1_555 1_555
C8 S2 1_555 1_555
C9 C8 1_555 1_555
C10 C9 1_555 1_555
C11 C10 1_555 1_555
H5 C11 1_555 1_555
C12 C11 1_555 1_555
H6 C12 1_555 1_555
C13 N1 1_555 1_555
C14 C13 1_555 1_555
C15 C14 1_555 1_555
C16 C15 1_555 1_555
H7 C16 1_555 1_555
C17 C16 1_555 1_555
C18 C17 1_555 1_555
H8 C18 1_555 1_555
C19 C18 1_555 1_555
H9 C19 1_555 1_555
C20 C15 1_555 1_555
H10 C20 1_555 1_555
C21 C17 1_555 1_555
C22 C21 1_555 1_555
C23 C22 1_555 1_555
H11 C23 1_555 1_555
C24 C23 1_555 1_555
H12 C24 1_555 1_555
C25 N2 1_555 1_555
C26 C1 1_555 1_555
C27 C9 1_555 1_555
C28 C27 1_555 1_555
H13 C28 1_555 1_555
C29 C28 1_555 1_555
H14 C29 1_555 1_555
C30 C29 1_555 1_555
C31 C30 1_555 1_555
H15 C31 1_555 1_555
C32 C27 1_555 1_555
H16 C32 1_555 1_555
C33 C30 1_555 1_555
H17 C33 1_555 1_555
H18 C33 1_555 1_555
H19 C33 1_555 1_555
C34 C14 1_555 1_555
C35 C34 1_555 1_555
C36 O2 1_555 1_555
H20 C36 1_555 1_555
H21 C36 1_555 1_555
C37 C36 1_555 1_555
H22 C37 1_555 1_555
H23 C37 1_555 1_555
H24 C37 1_555 1_555
C38 C34 1_555 1_555
C39 O4 1_555 1_555
H25 C39 1_555 1_555
H26 C39 1_555 1_555
C40 C39 1_555 1_555
H27 C40 1_555 1_555
H28 C40 1_555 1_555
H29 C40 1_555 1_555
C41 C21 1_555 1_555
C42 C41 1_555 1_555
C43 O6 1_555 1_555
H30 C43 1_555 1_555
H31 C43 1_555 1_555
C44 C43 1_555 1_555
H32 C44 1_555 1_555
H33 C44 1_555 1_555
H34 C44 1_555 1_555
C45 C41 1_555 1_555
C46 O8 1_555 1_555
H35 C46 1_555 1_555
H36 C46 1_555 1_555
C47 C46 1_555 1_555
H37 C47 1_555 1_555
H38 C47 1_555 1_555
H39 C47 1_555 1_555
C48 C26 1_555 1_555
C49 C48 1_555 1_555
H40 C49 1_555 1_555
C50 C49 1_555 1_555
H41 C50 1_555 1_555
C51 C50 1_555 1_555
C52 C51 1_555 1_555
H42 C52 1_555 1_555
C53 C48 1_555 1_555
H43 C53 1_555 1_555
C54 C51 1_555 1_555
H44 C54 1_555 1_555
H45 C54 1_555 1_555
H46 C54 1_555 1_555
O9 C56 1_555 1_555
O10 C56 1_555 1_555
C55 H47 1_555 1_555
H48 C55 1_555 1_555
H49 C55 1_555 1_555
C56 C55 1_555 1_555
C57 O10 1_555 1_555
H50 C57 1_555 1_555
H51 C57 1_555 1_555
C58 C57 1_555 1_555
H52 C58 1_555 1_555
H53 C58 1_555 1_555
H54 C58 1_555 1_555
C3 C4 1_555 1_555
C7 C8 1_555 1_555
C12 C13 1_555 1_555
C19 C20 1_555 1_555
C24 C25 1_555 1_555
C25 C26 1_555 1_555
C31 C32 1_555 1_555
C52 C53 1_555 1_555

#END
