
#######################################################################
#
#                 Cambridge Crystallographic Data Centre
#                                CCDC 
#
#######################################################################
#
# If this CIF has been generated from an entry in the Cambridge 
# Structural Database, then it will include bibliographic, chemical, 
# crystal, experimental, refinement or atomic coordinate data resulting 
# from the CCDC's data processing and validation procedures.
#
#######################################################################

data_LOBFOY
_chemical_formula_moiety         'C4 H32 N2 Na2 O20 P4'
_chemical_name_systematic        
bis(\m~2~-Aqua)-bis(1-ammonioethylidenediphosphonato)-hexaaqua-di-sodium
_symmetry_cell_setting           triclinic
_symmetry_space_group_name_H-M   'P -1'
_symmetry_Int_Tables_number      2
_space_group_name_Hall           '-P 1'
loop_
_symmetry_equiv_pos_site_id
_symmetry_equiv_pos_as_xyz
1 x,y,z
2 -x,-y,-z
_cell_length_a                   5.6933(5)
_cell_length_b                   8.9074(7)
_cell_length_c                   11.9358(10)
_cell_angle_alpha                70.860(1)
_cell_angle_beta                 85.235(1)
_cell_angle_gamma                79.315(1)
_cell_volume                     561.757
_exptl_crystal_colour            colorless
_exptl_crystal_description       block
_cell_formula_units_Z            1
loop_
_atom_site_label
_atom_site_type_symbol
_atom_site_fract_x
_atom_site_fract_y
_atom_site_fract_z
P1 P 0.32319(5) 0.99354(4) 0.26012(3)
P2 P 0.36227(5) 0.72862(4) 0.50708(3)
C1 C 0.2050(2) 0.81883(14) 0.36584(11)
Na1 Na -0.03302(10) 1.29341(7) 0.02746(5)
O1 O 0.61768(16) 0.66866(11) 0.47990(9)
O2 O 0.58260(16) 0.94219(12) 0.23391(8)
O3 O 0.32324(17) 0.84652(12) 0.57512(9)
O4 O 0.28936(18) 1.12167(12) 0.32815(9)
O5 O 0.22737(17) 0.58575(12) 0.57721(8)
N1 N -0.05241(18) 0.87736(14) 0.39168(10)
O6 O 0.15743(17) 1.05520(12) 0.15867(8)
C2 C 0.2071(2) 0.69009(16) 0.30600(12)
O7 O -0.2883(2) 1.12697(14) -0.00050(11)
O8 O 0.2871(2) 1.29321(15) -0.11537(12)
O9 O -0.2990(2) 1.37455(17) 0.17165(11)
O10 O -0.2095(3) 1.55218(15) -0.10900(13)
H1 H -0.121(3) 0.798(2) 0.4438(16)
H2 H -0.073(3) 0.956(2) 0.4173(16)
H3 H -0.146(3) 0.909(2) 0.3265(17)
H4 H 0.127(3) 0.737(2) 0.2326(17)
H5 H 0.126(3) 0.607(2) 0.3552(17)
H6 H 0.362(3) 0.647(2) 0.2919(17)
H7 H 0.280(4) 0.504(3) 0.557(2)
H8 H -0.296(4) 1.474(3) 0.173(2)
H9 H 0.393(5) 1.256(3) -0.076(2)
H10 H 0.303(4) 1.247(3) -0.163(2)
H11 H -0.313(4) 1.076(3) 0.066(2)
H12 H -0.243(4) 1.075(3) -0.036(2)
H13 H -0.346(5) 1.572(3) -0.121(2)
H14 H 0.400(4) 1.127(3) 0.3613(19)
H15 H -0.153(6) 1.588(4) -0.177(3)
H16 H -0.286(5) 1.317(3) 0.242(3)
P1A P -0.32319(5) 2.00646(4) -0.26012(3)
P2A P -0.36227(5) 2.27138(4) -0.50708(3)
C1A C -0.2050(2) 2.18117(14) -0.36584(11)
Na1A Na 0.03302(10) 1.70659(7) -0.02746(5)
O1A O -0.61768(16) 2.33134(11) -0.47990(9)
O2A O -0.58260(16) 2.05781(12) -0.23391(8)
O3A O -0.32324(17) 2.15348(12) -0.57512(9)
O4A O -0.28936(18) 1.87833(12) -0.32815(9)
O5A O -0.22737(17) 2.41425(12) -0.57721(8)
N1A N 0.05241(18) 2.12264(14) -0.39168(10)
O6A O -0.15743(17) 1.94480(12) -0.15867(8)
C2A C -0.2071(2) 2.30991(16) -0.30600(12)
O7A O 0.2883(2) 1.87303(14) 0.00050(11)
O8A O -0.2871(2) 1.70679(15) 0.11537(12)
O9A O 0.2990(2) 1.62545(17) -0.17165(11)
O10A O 0.2095(3) 1.44782(15) 0.10900(13)
H1A H 0.121(3) 2.202(2) -0.4438(16)
H2A H 0.073(3) 2.044(2) -0.4173(16)
H3A H 0.146(3) 2.091(2) -0.3265(17)
H4A H -0.127(3) 2.263(2) -0.2326(17)
H5A H -0.126(3) 2.393(2) -0.3552(17)
H6A H -0.362(3) 2.353(2) -0.2919(17)
H7A H -0.280(4) 2.496(3) -0.557(2)
H8A H 0.296(4) 1.526(3) -0.173(2)
H9A H -0.393(5) 1.744(3) 0.076(2)
H10A H -0.303(4) 1.753(3) 0.163(2)
H11A H 0.313(4) 1.924(3) -0.066(2)
H12A H 0.243(4) 1.925(3) 0.036(2)
H13A H 0.346(5) 1.428(3) 0.121(2)
H14A H -0.400(4) 1.873(3) -0.3613(19)
H15A H 0.153(6) 1.412(4) 0.177(3)
H16A H 0.286(5) 1.683(3) -0.242(3)
loop_
_geom_bond_atom_site_label_1
_geom_bond_atom_site_label_2
_geom_bond_site_symmetry_1
_geom_bond_site_symmetry_2
P1 C1 1_555 1_555
P2 C1 1_555 1_555
C1 N1 1_555 1_555
Na1 O6 1_555 1_555
O1 P2 1_555 1_555
O2 P1 1_555 1_555
O3 P2 1_555 1_555
O4 P1 1_555 1_555
O5 P2 1_555 1_555
N1 H1 1_555 1_555
O6 P1 1_555 1_555
C2 C1 1_555 1_555
O7 Na1 1_555 1_555
O8 Na1 1_555 1_555
O9 Na1 1_555 1_555
O10 Na1 1_555 1_555
H2 N1 1_555 1_555
H3 N1 1_555 1_555
H4 C2 1_555 1_555
H5 C2 1_555 1_555
H6 C2 1_555 1_555
H7 O5 1_555 1_555
H8 O9 1_555 1_555
H9 O8 1_555 1_555
H10 O8 1_555 1_555
H11 O7 1_555 1_555
H12 O7 1_555 1_555
H13 O10 1_555 1_555
H14 O4 1_555 1_555
H15 O10 1_555 1_555
H16 O9 1_555 1_555
P1A C1A 1_555 1_555
P2A C1A 1_555 1_555
C1A N1A 1_555 1_555
Na1A O10 1_555 1_555
O1A P2A 1_555 1_555
O2A P1A 1_555 1_555
O3A P2A 1_555 1_555
O4A P1A 1_555 1_555
O5A P2A 1_555 1_555
N1A H1A 1_555 1_555
O6A P1A 1_555 1_555
C2A C1A 1_555 1_555
O7A Na1A 1_555 1_555
O8A Na1A 1_555 1_555
O9A Na1A 1_555 1_555
O10A Na1 1_555 1_555
H2A N1A 1_555 1_555
H3A N1A 1_555 1_555
H4A C2A 1_555 1_555
H5A C2A 1_555 1_555
H6A C2A 1_555 1_555
H7A O5A 1_555 1_555
H8A O9A 1_555 1_555
H9A O8A 1_555 1_555
H10A O8A 1_555 1_555
H11A O7A 1_555 1_555
H12A O7A 1_555 1_555
H13A O10A 1_555 1_555
H14A O4A 1_555 1_555
H15A O10A 1_555 1_555
H16A O9A 1_555 1_555
Na1A O6A 1_555 1_555
Na1A O10A 1_555 1_555

#END
