
#######################################################################
#
#                 Cambridge Crystallographic Data Centre
#                                CCDC 
#
#######################################################################
#
# If this CIF has been generated from an entry in the Cambridge 
# Structural Database, then it will include bibliographic, chemical, 
# crystal, experimental, refinement or atomic coordinate data resulting 
# from the CCDC's data processing and validation procedures.
#
#######################################################################

data_LOBGAL
_chemical_formula_moiety         'C2 H8 N1 1+,C2 H8 N1 O6 P2 1-,H2 O1'
_chemical_name_systematic        
'Dimethylammonium 1-ammonioethylidenediphosphonate monohydrate'
_symmetry_cell_setting           monoclinic
_symmetry_space_group_name_H-M   'P 21/n'
_symmetry_Int_Tables_number      14
_space_group_name_Hall           '-P 2yn'
loop_
_symmetry_equiv_pos_site_id
_symmetry_equiv_pos_as_xyz
1 x,y,z
2 1/2-x,1/2+y,1/2-z
3 -x,-y,-z
4 1/2+x,1/2-y,1/2+z
_cell_length_a                   11.0738(6)
_cell_length_b                   6.9390(4)
_cell_length_c                   14.4504(8)
_cell_angle_alpha                90
_cell_angle_beta                 94.0950(10)
_cell_angle_gamma                90
_cell_volume                     1107.55
_exptl_crystal_colour            colorless
_exptl_crystal_description       block
_cell_formula_units_Z            4
loop_
_atom_site_label
_atom_site_type_symbol
_atom_site_fract_x
_atom_site_fract_y
_atom_site_fract_z
P1 P 0.41844(3) 0.23266(4) 0.29230(2)
P2 P 0.43185(3) -0.04790(4) 0.12851(2)
C1 C 0.39343(10) 0.19901(17) 0.16521(8)
C2 C 0.46379(12) 0.35100(19) 0.11392(10)
N1 N 0.25985(9) 0.22723(16) 0.13864(8)
O1 O 0.30958(9) 0.12095(13) 0.33281(6)
O2 O 0.53429(8) 0.13344(14) 0.32272(7)
O3 O 0.40774(8) 0.44326(13) 0.31265(6)
O4 O 0.56488(8) -0.05632(14) 0.11450(6)
O5 O 0.38480(8) -0.18666(13) 0.19670(6)
O6 O 0.35345(8) -0.07381(14) 0.03450(6)
H1 H 0.247(2) 0.180(4) 0.3266(17)
H2 H 0.387(2) -0.038(4) -0.0127(17)
H3 H 0.4346(16) 0.491(3) 0.1312(12)
H4 H 0.5490(18) 0.343(3) 0.1315(13)
H5 H 0.4531(18) 0.329(3) 0.0488(15)
H6 H 0.2377(17) 0.335(3) 0.1600(13)
H7 H 0.2485(17) 0.237(3) 0.0747(14)
H8 H 0.2154(17) 0.130(3) 0.1573(13)
C3 C 0.68554(19) 0.6969(4) 0.30750(18)
C4 C 0.5814(2) 0.7367(3) 0.45106(14)
N2 N 0.57185(11) 0.74058(19) 0.34892(9)
H9 H 0.5192(19) 0.656(3) 0.3298(14)
H10 H 0.5497(18) 0.848(3) 0.3307(14)
H11 H 0.737(3) 0.798(5) 0.321(2)
H12 H 0.711(3) 0.584(5) 0.3235(19)
H13 H 0.675(3) 0.705(5) 0.239(3)
H14 H 0.507(3) 0.767(4) 0.4748(19)
H15 H 0.640(2) 0.826(4) 0.4742(18)
H16 H 0.604(3) 0.616(5) 0.4713(19)
O7 O 0.73008(14) 0.2097(2) 0.44239(9)
H17 H 0.674(2) 0.202(3) 0.4070(16)
H18 H 0.779(3) 0.257(4) 0.4166(19)
loop_
_geom_bond_atom_site_label_1
_geom_bond_atom_site_label_2
_geom_bond_site_symmetry_1
_geom_bond_site_symmetry_2
P1 C1 1_555 1_555
P2 C1 1_555 1_555
C1 C2 1_555 1_555
C2 H3 1_555 1_555
C3 N2 1_555 1_555
C4 N2 1_555 1_555
N1 C1 1_555 1_555
N2 H9 1_555 1_555
O1 P1 1_555 1_555
O2 P1 1_555 1_555
O3 P1 1_555 1_555
O4 P2 1_555 1_555
O5 P2 1_555 1_555
O6 P2 1_555 1_555
O7 H17 1_555 1_555
H1 O1 1_555 1_555
H2 O6 1_555 1_555
H4 C2 1_555 1_555
H5 C2 1_555 1_555
H6 N1 1_555 1_555
H7 N1 1_555 1_555
H8 N1 1_555 1_555
H10 N2 1_555 1_555
H11 C3 1_555 1_555
H12 C3 1_555 1_555
H13 C3 1_555 1_555
H14 C4 1_555 1_555
H15 C4 1_555 1_555
H16 C4 1_555 1_555
H18 O7 1_555 1_555

#END
