
#######################################################################
#
#                 Cambridge Crystallographic Data Centre
#                                CCDC 
#
#######################################################################
#
# If this CIF has been generated from an entry in the Cambridge 
# Structural Database, then it will include bibliographic, chemical, 
# crystal, experimental, refinement or atomic coordinate data resulting 
# from the CCDC's data processing and validation procedures.
#
#######################################################################

data_LOBKEU
_chemical_formula_moiety         'C13 H14 N2 O3'
_chemical_name_systematic        
'Ethyl 3-(4-methoxyphenyl)-1H-pyrazole-5-carboxylate'
_symmetry_cell_setting           monoclinic
_symmetry_space_group_name_H-M   'P 21/c'
_symmetry_Int_Tables_number      14
_space_group_name_Hall           '-P 2ybc'
loop_
_symmetry_equiv_pos_site_id
_symmetry_equiv_pos_as_xyz
1 x,y,z
2 -x,1/2+y,1/2-z
3 -x,-y,-z
4 x,1/2-y,1/2+z
_cell_length_a                   17.2878(11)
_cell_length_b                   5.5888(2)
_cell_length_c                   13.5021(9)
_cell_angle_alpha                90
_cell_angle_beta                 111.246(8)
_cell_angle_gamma                90
_cell_volume                     1215.88
_cell_formula_units_Z            4
loop_
_atom_site_label
_atom_site_type_symbol
_atom_site_fract_x
_atom_site_fract_y
_atom_site_fract_z
O1 O 0.06697(7) 0.5676(2) 0.91972(9)
O2 O 0.37376(7) 0.97848(18) 0.48109(10)
O3 O 0.38482(7) 0.60572(17) 0.42605(9)
C1 C 0.24380(8) 0.5605(2) 0.64231(11)
N1 N 0.31209(8) 0.4144(2) 0.55379(10)
H1 H 0.3355 0.3129 0.5257
N2 N 0.27001(8) 0.3529(2) 0.61592(11)
C2 C 0.31368(8) 0.6533(2) 0.54009(11)
C3 C 0.19614(9) 0.5646(2) 0.71318(11)
C4 C 0.35935(9) 0.7665(2) 0.48001(12)
C5 C 0.26974(9) 0.7532(2) 0.59622(12)
H2 H 0.2594 0.9147 0.6023
C6 C 0.20136(9) 0.3783(2) 0.78388(12)
H3 H 0.2350 0.2473 0.7858
C7 C 0.10094(10) 0.7655(3) 0.78025(13)
H4 H 0.0671 0.8959 0.7786
C8 C 0.15758(10) 0.3849(3) 0.85082(12)
H5 H 0.1616 0.2582 0.8971
C9 C 0.10752(9) 0.5788(3) 0.84988(12)
C10 C 0.43453(10) 0.6920(3) 0.36722(14)
H6 H 0.4860 0.7608 0.4152
H7 H 0.4046 0.8137 0.3166
C11 C 0.14530(10) 0.7569(3) 0.71290(12)
H8 H 0.1409 0.8832 0.6663
C12 C 0.45201(12) 0.4809(3) 0.31055(15)
H9 H 0.4850 0.5306 0.2703
H10 H 0.4006 0.4146 0.2635
H11 H 0.4817 0.3621 0.3615
C13 C 0.02083(12) 0.7721(3) 0.92820(15)
H12 H -0.0047 0.7417 0.9794
H13 H -0.0213 0.8054 0.8603
H14 H 0.0574 0.9071 0.9506
loop_
_geom_bond_atom_site_label_1
_geom_bond_atom_site_label_2
_geom_bond_site_symmetry_1
_geom_bond_site_symmetry_2
O1 C9 1_555 1_555
O2 C4 1_555 1_555
O3 C4 1_555 1_555
C1 N2 1_555 1_555
N1 H1 1_555 1_555
N2 N1 1_555 1_555
C2 N1 1_555 1_555
C3 C1 1_555 1_555
C4 C2 1_555 1_555
C5 C1 1_555 1_555
H2 C5 1_555 1_555
C6 C3 1_555 1_555
H3 C6 1_555 1_555
C7 H4 1_555 1_555
C8 C6 1_555 1_555
H5 C8 1_555 1_555
C9 C7 1_555 1_555
C10 O3 1_555 1_555
H6 C10 1_555 1_555
H7 C10 1_555 1_555
C11 C3 1_555 1_555
H8 C11 1_555 1_555
C12 C10 1_555 1_555
H9 C12 1_555 1_555
H10 C12 1_555 1_555
H11 C12 1_555 1_555
C13 O1 1_555 1_555
H12 C13 1_555 1_555
H13 C13 1_555 1_555
H14 C13 1_555 1_555
C2 C5 1_555 1_555
C7 C11 1_555 1_555
C8 C9 1_555 1_555

#END
