
#######################################################################
#
#                 Cambridge Crystallographic Data Centre
#                                CCDC 
#
#######################################################################
#
# If this CIF has been generated from an entry in the Cambridge 
# Structural Database, then it will include bibliographic, chemical, 
# crystal, experimental, refinement or atomic coordinate data resulting 
# from the CCDC's data processing and validation procedures.
#
#######################################################################

data_LOBNOH
_chemical_formula_moiety         'C17 H13 N1 O1'
_chemical_name_systematic        
3-Phenyl-1,5-dihydro-2-benzoxepine-4-carbonitrile
_symmetry_cell_setting           triclinic
_symmetry_space_group_name_H-M   'P -1'
_symmetry_Int_Tables_number      2
_space_group_name_Hall           '-P 1'
loop_
_symmetry_equiv_pos_site_id
_symmetry_equiv_pos_as_xyz
1 x,y,z
2 -x,-y,-z
_cell_length_a                   6.006(3)
_cell_length_b                   9.939(4)
_cell_length_c                   11.157(4)
_cell_angle_alpha                96.43(4)
_cell_angle_beta                 100.267(9)
_cell_angle_gamma                95.843(8)
_cell_volume                     646.146
_cell_formula_units_Z            2
loop_
_atom_site_label
_atom_site_type_symbol
_atom_site_fract_x
_atom_site_fract_y
_atom_site_fract_z
O1 O 0.7981(3) 0.90711(18) 0.78532(18)
N1 N 0.1472(5) 1.1124(2) 0.6234(2)
C1 C 0.4340(5) 0.6880(3) 0.6213(2)
C2 C 0.6526(5) 0.6765(3) 0.6819(3)
C3 C 0.6953(6) 0.5557(3) 0.7281(3)
H1 H 0.8405 0.5474 0.7701
C4 C 0.5230(7) 0.4473(3) 0.7122(3)
H2 H 0.5541 0.3662 0.7422
C5 C 0.3073(7) 0.4594(3) 0.6525(3)
H3 H 0.1914 0.3871 0.6424
C6 C 0.2635(6) 0.5797(3) 0.6075(3)
H4 H 0.1170 0.5881 0.5672
C7 C 0.3881(5) 0.8178(3) 0.5676(2)
H5 H 0.2287 0.8095 0.5285
H6 H 0.4787 0.8290 0.5048
C8 C 0.4429(5) 0.9444(2) 0.6634(2)
C9 C 0.6188(5) 0.9778(3) 0.7587(3)
C10 C 0.8337(5) 0.7954(3) 0.6980(3)
H7 H 0.9810 0.7661 0.7262
H8 H 0.8358 0.8275 0.6192
C11 C 0.6450(5) 1.1010(3) 0.8510(3)
C12 C 0.4696(6) 1.1265(3) 0.9145(3)
H9 H 0.3340 1.0676 0.8980
C13 C 0.4997(7) 1.2403(4) 1.0019(3)
H10 H 0.3841 1.2571 1.0449
C14 C 0.6984(7) 1.3288(4) 1.0261(3)
H11 H 0.7157 1.4056 1.0844
C15 C 0.8734(7) 1.3037(3) 0.9638(3)
H12 H 1.0082 1.3632 0.9803
C16 C 0.8458(6) 1.1892(3) 0.8767(3)
H13 H 0.9632 1.1717 0.8352
C17 C 0.2821(5) 1.0405(3) 0.6455(2)
loop_
_geom_bond_atom_site_label_1
_geom_bond_atom_site_label_2
_geom_bond_site_symmetry_1
_geom_bond_site_symmetry_2
O1 C9 1_555 1_555
N1 C17 1_555 1_555
C1 C2 1_555 1_555
C2 C3 1_555 1_555
C3 H1 1_555 1_555
C4 C3 1_555 1_555
H2 C4 1_555 1_555
C5 C4 1_555 1_555
H3 C5 1_555 1_555
C6 C1 1_555 1_555
H4 C6 1_555 1_555
C7 C1 1_555 1_555
H5 C7 1_555 1_555
H6 C7 1_555 1_555
C8 C7 1_555 1_555
C9 C8 1_555 1_555
C10 O1 1_555 1_555
H7 C10 1_555 1_555
H8 C10 1_555 1_555
C11 C9 1_555 1_555
C12 C11 1_555 1_555
H9 C12 1_555 1_555
C13 C12 1_555 1_555
H10 C13 1_555 1_555
C14 C13 1_555 1_555
H11 C14 1_555 1_555
C15 C14 1_555 1_555
H12 C15 1_555 1_555
C16 C11 1_555 1_555
H13 C16 1_555 1_555
C17 C8 1_555 1_555
C2 C10 1_555 1_555
C5 C6 1_555 1_555
C15 C16 1_555 1_555

#END
