
#######################################################################
#
#                 Cambridge Crystallographic Data Centre
#                                CCDC 
#
#######################################################################
#
# If this CIF has been generated from an entry in the Cambridge 
# Structural Database, then it will include bibliographic, chemical, 
# crystal, experimental, refinement or atomic coordinate data resulting 
# from the CCDC's data processing and validation procedures.
#
#######################################################################

data_LOBSIF
_chemical_formula_moiety         'C10 H19 N3 2+,2(Br1 1-)'
_chemical_name_systematic        
'(S)-1-(2-Ammonio-3-methylbutyl)-1,2-dihydropyridin-2-iminium dibromide'
_symmetry_cell_setting           monoclinic
_symmetry_space_group_name_H-M   'P 21'
_symmetry_Int_Tables_number      4
_space_group_name_Hall           'P 2yb'
loop_
_symmetry_equiv_pos_site_id
_symmetry_equiv_pos_as_xyz
1 x,y,z
2 -x,1/2+y,-z
_cell_length_a                   5.9311(11)
_cell_length_b                   12.456(2)
_cell_length_c                   9.6807(18)
_cell_angle_alpha                90
_cell_angle_beta                 99.733(3)
_cell_angle_gamma                90
_cell_volume                     704.894
_exptl_crystal_colour            colorless
_exptl_crystal_description       prismatic
_cell_formula_units_Z            2
loop_
_atom_site_label
_atom_site_type_symbol
_atom_site_fract_x
_atom_site_fract_y
_atom_site_fract_z
Br1 Br 1.02019(11) 0.21057(4) 0.84434(6)
Br2 Br 0.61945(10) 0.78903(5) 0.54550(7)
N1 N 0.7631(8) 0.4733(4) 0.2958(5)
N2 N 0.4665(11) 0.5923(5) 0.3096(7)
N3 N 0.9054(9) 0.3672(4) 0.5746(5)
H1 H 0.7799 0.3302 0.5406
H2 H 0.9481 0.3518 0.6651
H3 H 1.0172 0.3496 0.5280
C1 C 0.5506(11) 0.5110(5) 0.2454(6)
C2 C 0.4223(13) 0.4609(6) 0.1291(7)
H4 H 0.2766 0.4863 0.0937
C3 C 0.5050(15) 0.3772(7) 0.0677(7)
H5 H 0.4149 0.3427 -0.0072
C4 C 0.7331(15) 0.3408(7) 0.1176(8)
H6 H 0.7975 0.2856 0.0725
C5 C 0.8497(13) 0.3880(6) 0.2301(7)
H7 H 0.9953 0.3628 0.2661
C6 C 0.9101(11) 0.5224(6) 0.4176(7)
H8 H 0.8922 0.5998 0.4119
H9 H 1.0686 0.5060 0.4131
C7 C 0.8569(10) 0.4843(5) 0.5581(6)
H10 H 0.6928 0.4945 0.5567
C8 C 0.9855(11) 0.5495(6) 0.6818(7)
H11 H 0.9549 0.6256 0.6605
C9 C 0.8975(15) 0.5251(8) 0.8154(7)
H12 H 0.9414 0.4535 0.8456
H13 H 0.7338 0.5309 0.7994
H14 H 0.9614 0.5753 0.8867
C10 C 1.2447(12) 0.5333(8) 0.6994(8)
H15 H 1.3194 0.5787 0.7734
H16 H 1.2962 0.5514 0.6135
H17 H 1.2809 0.4596 0.7224
H18 H 0.355(12) 0.623(8) 0.260(9)
H19 H 0.525(13) 0.636(6) 0.371(7)
loop_
_geom_bond_atom_site_label_1
_geom_bond_atom_site_label_2
_geom_bond_site_symmetry_1
_geom_bond_site_symmetry_2
N1 C1 1_555 1_555
N2 C1 1_555 1_555
N3 H1 1_555 1_555
H2 N3 1_555 1_555
H3 N3 1_555 1_555
C1 C2 1_555 1_555
C2 H4 1_555 1_555
C3 C2 1_555 1_555
H5 C3 1_555 1_555
C4 C3 1_555 1_555
H6 C4 1_555 1_555
C5 N1 1_555 1_555
H7 C5 1_555 1_555
C6 N1 1_555 1_555
H8 C6 1_555 1_555
H9 C6 1_555 1_555
C7 N3 1_555 1_555
H10 C7 1_555 1_555
C8 C7 1_555 1_555
H11 C8 1_555 1_555
C9 C8 1_555 1_555
H12 C9 1_555 1_555
H13 C9 1_555 1_555
H14 C9 1_555 1_555
C10 C8 1_555 1_555
H15 C10 1_555 1_555
H16 C10 1_555 1_555
H17 C10 1_555 1_555
H18 N2 1_555 1_555
H19 N2 1_555 1_555
C4 C5 1_555 1_555
C6 C7 1_555 1_555

#END
