
#######################################################################
#
#                 Cambridge Crystallographic Data Centre
#                                CCDC 
#
#######################################################################
#
# If this CIF has been generated from an entry in the Cambridge 
# Structural Database, then it will include bibliographic, chemical, 
# crystal, experimental, refinement or atomic coordinate data resulting 
# from the CCDC's data processing and validation procedures.
#
#######################################################################

data_LOCPOJ
_chemical_formula_moiety         'C58 H72 B1 N3 O1,3(C1 H4 O1)'
_chemical_name_systematic        
'Methoxy-(5,10,15-tris(3,5-di-t-butylphenyl)subporphyrinato)-boron(iii) methanol solvate'
_symmetry_cell_setting           triclinic
_symmetry_space_group_name_H-M   'P -1'
_symmetry_Int_Tables_number      2
_space_group_name_Hall           '-P 1'
loop_
_symmetry_equiv_pos_site_id
_symmetry_equiv_pos_as_xyz
1 x,y,z
2 -x,-y,-z
_cell_length_a                   13.985(3)
_cell_length_b                   14.281(4)
_cell_length_c                   17.057(3)
_cell_angle_alpha                94.387(9)
_cell_angle_beta                 113.318(8)
_cell_angle_gamma                112.094(10)
_cell_volume                     2795.12
_exptl_crystal_colour            yellow
_exptl_crystal_description       prism
_cell_formula_units_Z            2
_exptl_crystal_recrystallization_method dichloromethane/methanol
_exptl_crystal_preparation       fluorescent
loop_
_atom_site_label
_atom_site_type_symbol
_atom_site_fract_x
_atom_site_fract_y
_atom_site_fract_z
C1 C 0.6491(3) 0.1963(3) 0.70965(19)
C2 C 0.7476(3) 0.2976(3) 0.7449(2)
H1 H 0.8202 0.3131 0.7453
C3 C 0.7191(3) 0.3681(3) 0.7777(2)
H2 H 0.7680 0.4410 0.8041
C4 C 0.6025(3) 0.3128(3) 0.76535(19)
C5 C 0.5342(3) 0.3344(3) 0.8006(2)
C6 C 0.4358(3) 0.2490(3) 0.7957(2)
C7 C 0.3737(3) 0.2359(3) 0.8469(2)
H3 H 0.3757 0.2906 0.8839
C8 C 0.3109(3) 0.1307(3) 0.8329(2)
H4 H 0.2618 0.0997 0.8588
C9 C 0.3318(3) 0.0749(3) 0.77233(19)
C10 C 0.3153(3) -0.0290(3) 0.74928(19)
C11 C 0.3799(3) -0.0494(3) 0.70949(19)
C12 C 0.4124(3) -0.1323(3) 0.7025(2)
H5 H 0.3762 -0.1999 0.7097
C13 C 0.5045(3) -0.0978(3) 0.6838(2)
H6 H 0.5422 -0.1376 0.6748
C14 C 0.5341(3) 0.0088(3) 0.68027(19)
C15 C 0.6335(3) 0.0924(3) 0.68589(19)
N1 N 0.5631(2) 0.2124(2) 0.71864(16)
N2 N 0.4004(2) 0.1513(2) 0.74786(16)
N3 N 0.4493(2) 0.0300(2) 0.68782(16)
B1 B 0.4407(3) 0.1309(3) 0.6821(2)
O1 O 0.36285(19) 0.13191(19) 0.59606(14)
C16 C 0.3927(3) 0.1185(3) 0.5262(2)
H7 H 0.4642 0.1797 0.5379
H8 H 0.3295 0.1114 0.4698
H9 H 0.4049 0.0554 0.5230
C17 C 0.5727(3) 0.4409(3) 0.8515(2)
C18 C 0.6884(3) 0.5002(3) 0.9164(2)
H10 H 0.7409 0.4698 0.9298
C19 C 0.7269(3) 0.6024(3) 0.9614(2)
C20 C 0.6474(3) 0.6443(3) 0.9412(2)
H11 H 0.6737 0.7148 0.9710
C21 C 0.5311(3) 0.5873(3) 0.8793(2)
C22 C 0.4954(3) 0.4847(3) 0.8348(2)
H12 H 0.4165 0.4439 0.7922
C23 C 0.8545(3) 0.6696(3) 1.0292(2)
C24 C 0.9091(3) 0.7553(3) 0.9899(2)
H13 H 0.9087 0.7228 0.9369
H14 H 0.9894 0.8021 1.0337
H15 H 0.8643 0.7956 0.9739
C25 C 0.8633(3) 0.7212(4) 1.1153(2)
H16 H 0.8247 0.7671 1.1034
H17 H 0.9453 0.7627 1.1583
H18 H 0.8255 0.6669 1.1393
C26 C 0.9242(3) 0.6057(3) 1.0506(3)
H19 H 0.8873 0.5472 1.0716
H20 H 1.0037 0.6507 1.0967
H21 H 0.9263 0.5782 0.9971
C27 C 0.4426(3) 0.6320(3) 0.8597(2)
C28 C 0.5005(3) 0.7515(3) 0.8953(2)
H22 H 0.5413 0.7707 0.9601
H23 H 0.4411 0.7770 0.8757
H24 H 0.5562 0.7833 0.8726
C29 C 0.3665(4) 0.5834(4) 0.9042(3)
H25 H 0.3262 0.5071 0.8802
H26 H 0.3092 0.6110 0.8925
H27 H 0.4155 0.6011 0.9682
C30 C 0.3661(4) 0.6055(3) 0.7601(2)
H28 H 0.4148 0.6363 0.7317
H29 H 0.3096 0.6339 0.7490
H30 H 0.3249 0.5292 0.7356
C31 C 0.2543(3) -0.1124(3) 0.7831(2)
C32 C 0.2861(3) -0.0934(3) 0.8733(2)
H31 H 0.3438 -0.0262 0.9116
C33 C 0.2347(3) -0.1713(3) 0.9088(2)
C34 C 0.1501(3) -0.2677(3) 0.8501(2)
H32 H 0.1143 -0.3214 0.8730
C35 C 0.1149(3) -0.2900(3) 0.7594(2)
C36 C 0.1694(3) -0.2108(3) 0.7269(2)
H33 H 0.1482 -0.2242 0.6656
C37 C 0.2750(3) -0.1479(3) 1.0085(2)
C38 C 0.4055(3) -0.1128(4) 1.0579(2)
H34 H 0.4237 -0.1675 1.0385
H35 H 0.4304 -0.1003 1.1217
H36 H 0.4465 -0.0479 1.0454
C39 C 0.2479(4) -0.0604(3) 1.0362(2)
H37 H 0.2903 0.0033 1.0229
H38 H 0.2718 -0.0463 1.0998
H39 H 0.1642 -0.0820 1.0035
C40 C 0.2155(4) -0.2430(3) 1.0360(2)
H40 H 0.1310 -0.2692 1.0031
H41 H 0.2402 -0.2231 1.0996
H42 H 0.2368 -0.2981 1.0229
C41 C 0.0149(3) -0.3970(3) 0.6989(2)
C42 C -0.0969(4) -0.4039(4) 0.6996(3)
H43 H -0.1173 -0.3519 0.6722
H44 H -0.0847 -0.3901 0.7608
H45 H -0.1602 -0.4742 0.6663
C43 C 0.0350(4) -0.4866(4) 0.7372(3)
H46 H -0.0328 -0.5537 0.7013
H47 H 0.0465 -0.4748 0.7983
H48 H 0.1041 -0.4880 0.7363
C44 C -0.0014(4) -0.4160(4) 0.6069(3)
H49 H -0.0176 -0.3615 0.5809
H50 H -0.0668 -0.4848 0.5719
H51 H 0.0694 -0.4144 0.6071
C45 C 0.7304(3) 0.0762(3) 0.6815(2)
C46 C 0.7718(3) 0.0117(3) 0.7258(2)
H52 H 0.7381 -0.0224 0.7605
C47 C 0.8614(3) -0.0044(3) 0.7205(2)
C48 C 0.9110(3) 0.0493(3) 0.6715(2)
H53 H 0.9731 0.0398 0.6680
C49 C 0.8735(3) 0.1166(3) 0.6271(2)
C50 C 0.7828(3) 0.1293(3) 0.6327(2)
H54 H 0.7556 0.1746 0.6030
C51 C 0.9022(3) -0.0784(3) 0.7696(2)
C52 C 0.9593(4) -0.0300(4) 0.8696(3)
H55 H 0.9029 -0.0201 0.8852
H56 H 1.0261 0.0379 0.8861
H57 H 0.9855 -0.0770 0.9014
C53 C 0.7978(3) -0.1838(3) 0.7454(3)
H58 H 0.7457 -0.1738 0.7665
H59 H 0.8250 -0.2326 0.7731
H60 H 0.7560 -0.2126 0.6809
C54 C 0.9889(4) -0.0986(4) 0.7466(3)
H61 H 1.0120 -0.1465 0.7790
H62 H 1.0576 -0.0322 0.7633
H63 H 0.9527 -0.1301 0.6828
C55 C 0.9343(3) 0.1750(3) 0.5756(2)
C56 C 0.8757(4) 0.2398(3) 0.5276(3)
H64 H 0.8786 0.2913 0.5710
H65 H 0.7945 0.1932 0.4855
H66 H 0.9165 0.2763 0.4957
C57 C 0.9256(4) 0.0938(3) 0.5047(3)
H67 H 0.9622 0.1302 0.4703
H68 H 0.8436 0.0466 0.4652
H69 H 0.9654 0.0532 0.5337
C58 C 1.0608(3) 0.2477(4) 0.6389(3)
H70 H 1.0650 0.2980 0.6840
H71 H 1.0990 0.2856 0.6059
H72 H 1.1000 0.2065 0.6675
C59 C 0.6423(6) 0.3490(6) 0.4848(5)
H73 H 0.6971 0.3808 0.4614
H74 H 0.6464 0.2851 0.4994
H75 H 0.6625 0.3986 0.5383
O2 O 0.5291(5) 0.3239(6) 0.4209(4)
C60 C 0.3973(6) 0.4723(8) 0.3487(7)
H76 H 0.3669 0.4275 0.3822
H77 H 0.3509 0.4367 0.2853
H78 H 0.3931 0.5386 0.3599
O3 O 0.5126(7) 0.4922(6) 0.3752(5)
C61 C 0.7571(5) 0.7175(7) 0.4917(3)
H79 H 0.8169 0.7897 0.5088
H80 H 0.7935 0.6699 0.5000
H81 H 0.7176 0.7114 0.5287
O4 O 0.6778(3) 0.6917(3) 0.4044(2)
loop_
_geom_bond_atom_site_label_1
_geom_bond_atom_site_label_2
_geom_bond_site_symmetry_1
_geom_bond_site_symmetry_2
C1 C2 1_555 1_555
C2 H1 1_555 1_555
C3 C2 1_555 1_555
H2 C3 1_555 1_555
C4 C3 1_555 1_555
C5 C4 1_555 1_555
C6 C5 1_555 1_555
C7 C6 1_555 1_555
H3 C7 1_555 1_555
C8 C7 1_555 1_555
H4 C8 1_555 1_555
C9 C8 1_555 1_555
C10 C9 1_555 1_555
C11 C10 1_555 1_555
C12 C11 1_555 1_555
H5 C12 1_555 1_555
C13 C12 1_555 1_555
H6 C13 1_555 1_555
C14 C13 1_555 1_555
C15 C1 1_555 1_555
N1 C1 1_555 1_555
N2 C6 1_555 1_555
N3 C11 1_555 1_555
B1 N1 1_555 1_555
O1 B1 1_555 1_555
C16 O1 1_555 1_555
H7 C16 1_555 1_555
H8 C16 1_555 1_555
H9 C16 1_555 1_555
C17 C5 1_555 1_555
C18 C17 1_555 1_555
H10 C18 1_555 1_555
C19 C18 1_555 1_555
C20 C19 1_555 1_555
H11 C20 1_555 1_555
C21 C20 1_555 1_555
C22 C17 1_555 1_555
H12 C22 1_555 1_555
C23 C19 1_555 1_555
C24 C23 1_555 1_555
H13 C24 1_555 1_555
H14 C24 1_555 1_555
H15 C24 1_555 1_555
C25 C23 1_555 1_555
H16 C25 1_555 1_555
H17 C25 1_555 1_555
H18 C25 1_555 1_555
C26 C23 1_555 1_555
H19 C26 1_555 1_555
H20 C26 1_555 1_555
H21 C26 1_555 1_555
C27 C21 1_555 1_555
C28 C27 1_555 1_555
H22 C28 1_555 1_555
H23 C28 1_555 1_555
H24 C28 1_555 1_555
C29 C27 1_555 1_555
H25 C29 1_555 1_555
H26 C29 1_555 1_555
H27 C29 1_555 1_555
C30 C27 1_555 1_555
H28 C30 1_555 1_555
H29 C30 1_555 1_555
H30 C30 1_555 1_555
C31 C10 1_555 1_555
C32 C31 1_555 1_555
H31 C32 1_555 1_555
C33 C32 1_555 1_555
C34 C33 1_555 1_555
H32 C34 1_555 1_555
C35 C34 1_555 1_555
C36 C31 1_555 1_555
H33 C36 1_555 1_555
C37 C33 1_555 1_555
C38 C37 1_555 1_555
H34 C38 1_555 1_555
H35 C38 1_555 1_555
H36 C38 1_555 1_555
C39 C37 1_555 1_555
H37 C39 1_555 1_555
H38 C39 1_555 1_555
H39 C39 1_555 1_555
C40 C37 1_555 1_555
H40 C40 1_555 1_555
H41 C40 1_555 1_555
H42 C40 1_555 1_555
C41 C35 1_555 1_555
C42 C41 1_555 1_555
H43 C42 1_555 1_555
H44 C42 1_555 1_555
H45 C42 1_555 1_555
C43 C41 1_555 1_555
H46 C43 1_555 1_555
H47 C43 1_555 1_555
H48 C43 1_555 1_555
C44 C41 1_555 1_555
H49 C44 1_555 1_555
H50 C44 1_555 1_555
H51 C44 1_555 1_555
C45 C15 1_555 1_555
C46 C45 1_555 1_555
H52 C46 1_555 1_555
C47 C46 1_555 1_555
C48 C47 1_555 1_555
H53 C48 1_555 1_555
C49 C48 1_555 1_555
C50 C45 1_555 1_555
H54 C50 1_555 1_555
C51 C47 1_555 1_555
C52 C51 1_555 1_555
H55 C52 1_555 1_555
H56 C52 1_555 1_555
H57 C52 1_555 1_555
C53 C51 1_555 1_555
H58 C53 1_555 1_555
H59 C53 1_555 1_555
H60 C53 1_555 1_555
C54 C51 1_555 1_555
H61 C54 1_555 1_555
H62 C54 1_555 1_555
H63 C54 1_555 1_555
C55 C49 1_555 1_555
C56 C55 1_555 1_555
H64 C56 1_555 1_555
H65 C56 1_555 1_555
H66 C56 1_555 1_555
C57 C55 1_555 1_555
H67 C57 1_555 1_555
H68 C57 1_555 1_555
H69 C57 1_555 1_555
C58 C55 1_555 1_555
H70 C58 1_555 1_555
H71 C58 1_555 1_555
H72 C58 1_555 1_555
C59 H73 1_555 1_555
H74 C59 1_555 1_555
H75 C59 1_555 1_555
O2 C59 1_555 1_555
C60 H76 1_555 1_555
H77 C60 1_555 1_555
H78 C60 1_555 1_555
O3 C60 1_555 1_555
C61 H79 1_555 1_555
H80 C61 1_555 1_555
H81 C61 1_555 1_555
O4 C61 1_555 1_555
C4 N1 1_555 1_555
C9 N2 1_555 1_555
C14 C15 1_555 1_555
C14 N3 1_555 1_555
N2 B1 1_555 1_555
N3 B1 1_555 1_555
C21 C22 1_555 1_555
C35 C36 1_555 1_555
C49 C50 1_555 1_555

#END
