
#######################################################################
#
#                 Cambridge Crystallographic Data Centre
#                                CCDC 
#
#######################################################################
#
# If this CIF has been generated from an entry in the Cambridge 
# Structural Database, then it will include bibliographic, chemical, 
# crystal, experimental, refinement or atomic coordinate data resulting 
# from the CCDC's data processing and validation procedures.
#
#######################################################################

data_LOCQIF
_chemical_formula_moiety         'C20 H14 O2,C17 H12 O2'
_chemical_name_systematic        
"tetracyclo[7.7.1.0^2,7^.0^10,15^]heptadeca-2,4,6,10,12,14-hexaene-8,16-dione 1,1'-binaphthalene-2,2'-diol"
_symmetry_cell_setting           orthorhombic
_symmetry_space_group_name_H-M   'P 21 21 2'
_symmetry_Int_Tables_number      18
_space_group_name_Hall           'P 2 2ab'
loop_
_symmetry_equiv_pos_site_id
_symmetry_equiv_pos_as_xyz
1 x,y,z
2 -x,-y,z
3 1/2+x,1/2-y,-z
4 1/2-x,1/2+y,-z
_cell_length_a                   13.1215(7)
_cell_length_b                   11.0922(5)
_cell_length_c                   9.3453(4)
_cell_angle_alpha                90
_cell_angle_beta                 90
_cell_angle_gamma                90
_cell_volume                     1360.17
_cell_formula_units_Z            2
loop_
_atom_site_label
_atom_site_type_symbol
_atom_site_fract_x
_atom_site_fract_y
_atom_site_fract_z
O1 O -0.62761(14) 0.05938(19) -0.7174(2)
H1 H -0.5735 0.0963 -0.7191
C1 C -0.54375(19) -0.1433(2) -0.4258(3)
C2 C -0.6269(2) -0.2244(3) -0.4266(3)
C3 C -0.62166(19) -0.0320(2) -0.6196(3)
C4 C -0.54273(17) -0.0440(2) -0.5249(3)
C5 C -0.4648(2) -0.1608(3) -0.3246(3)
H2 H -0.4099 -0.1078 -0.3222
C6 C -0.7041(2) -0.1138(3) -0.6206(4)
H3 H -0.7569 -0.1041 -0.6859
C7 C -0.6282(3) -0.3200(3) -0.3256(4)
H4 H -0.6827 -0.3734 -0.3241
C8 C -0.5506(3) -0.3340(3) -0.2314(4)
H5 H -0.5523 -0.3975 -0.1665
C9 C -0.4686(3) -0.2548(3) -0.2305(3)
H6 H -0.4159 -0.2659 -0.1653
C10 C -0.7060(2) -0.2064(3) -0.5262(4)
H7 H -0.7609 -0.2594 -0.5271
O1A O -0.37239(14) -0.05938(19) -0.7174(2)
H1A H -0.4265 -0.0963 -0.7191
C1A C -0.45625(19) 0.1433(2) -0.4258(3)
C2A C -0.3731(2) 0.2244(3) -0.4266(3)
C3A C -0.37834(19) 0.0320(2) -0.6196(3)
C4A C -0.45727(17) 0.0440(2) -0.5249(3)
C5A C -0.5352(2) 0.1608(3) -0.3246(3)
H2A H -0.5901 0.1078 -0.3222
C6A C -0.2959(2) 0.1138(3) -0.6206(4)
H3A H -0.2431 0.1041 -0.6859
C7A C -0.3718(3) 0.3200(3) -0.3256(4)
H4A H -0.3173 0.3734 -0.3241
C8A C -0.4494(3) 0.3340(3) -0.2314(4)
H5A H -0.4477 0.3975 -0.1665
C9A C -0.5314(3) 0.2548(3) -0.2305(3)
H6A H -0.5841 0.2659 -0.1653
C10A C -0.2940(2) 0.2064(3) -0.5262(4)
H7A H -0.2391 0.2594 -0.5271
O2 O -1.01435(16) -0.26428(18) -0.1932(2)
C11 C -1.0259(2) -0.1583(3) -0.2272(3)
C12 C -0.8841(2) 0.0886(2) -0.1786(3)
C13 C -0.8117(3) 0.1438(3) -0.0918(3)
H8 H -0.8197 0.2243 -0.0667
C14 C -0.8718(3) -0.0311(3) -0.2181(3)
C15 C -0.7284(3) 0.0810(4) -0.0428(4)
H9 H -0.6800 0.1183 0.0149
C16 C -0.7875(3) -0.0939(3) -0.1653(5)
H10 H -0.7790 -0.1748 -0.1884
C17 C -0.9477(3) -0.0928(3) -0.3158(3)
H11 H -0.9116 -0.1511 -0.3761
C18 C -1.0000 0.0000 -0.4111(5)
H12 H -1.0499 -0.0393 -0.4719
C19 C -0.7181(3) -0.0380(4) -0.0807(6)
H13 H -0.6622 -0.0813 -0.0475
H12A H -0.9501 0.0393 -0.4719
O2A O -0.98565(16) 0.26428(18) -0.1932(2)
C11A C -0.9741(2) 0.1583(3) -0.2272(3)
C12A C -1.1159(2) -0.0886(2) -0.1786(3)
C13A C -1.1883(3) -0.1438(3) -0.0918(3)
H8A H -1.1803 -0.2243 -0.0667
C14A C -1.1282(3) 0.0311(3) -0.2181(3)
C15A C -1.2716(3) -0.0810(4) -0.0428(4)
H9A H -1.3200 -0.1183 0.0149
C16A C -1.2125(3) 0.0939(3) -0.1653(5)
H10A H -1.2210 0.1748 -0.1884
C17A C -1.0523(3) 0.0928(3) -0.3158(3)
H11A H -1.0884 0.1511 -0.3761
C19A C -1.2819(3) 0.0380(4) -0.0807(6)
H13A H -1.3378 0.0813 -0.0475
H14? H -1.0499 -0.0393 -0.4719
loop_
_geom_bond_atom_site_label_1
_geom_bond_atom_site_label_2
_geom_bond_site_symmetry_1
_geom_bond_site_symmetry_2
O1 H1 1_555 1_555
C1 C2 1_555 1_555
C2 C7 1_555 1_555
C3 O1 1_555 1_555
C4 C1 1_555 1_555
C5 C1 1_555 1_555
H2 C5 1_555 1_555
C6 C3 1_555 1_555
H3 C6 1_555 1_555
C7 H4 1_555 1_555
C8 C7 1_555 1_555
H5 C8 1_555 1_555
C9 C5 1_555 1_555
H6 C9 1_555 1_555
C10 C2 1_555 1_555
H7 C10 1_555 1_555
O2 C11 1_555 1_555
C11 C17 1_555 1_555
C12 C13 1_555 1_555
C13 H8 1_555 1_555
C14 C12 1_555 1_555
C15 C13 1_555 1_555
H9 C15 1_555 1_555
C16 C14 1_555 1_555
H10 C16 1_555 1_555
C17 C14 1_555 1_555
H11 C17 1_555 1_555
C18 C17 1_555 1_555
H12 C18 1_555 1_555
C19 C15 1_555 1_555
H13 C19 1_555 1_555
O1A H1A 1_555 1_555
C1A C2A 1_555 1_555
C2A C7A 1_555 1_555
C3A O1A 1_555 1_555
C4A C4 1_555 1_555
C5A C1A 1_555 1_555
H2A C5A 1_555 1_555
C6A C3A 1_555 1_555
H3A C6A 1_555 1_555
C7A H4A 1_555 1_555
C8A C7A 1_555 1_555
H5A C8A 1_555 1_555
C9A C5A 1_555 1_555
H6A C9A 1_555 1_555
C10A C2A 1_555 1_555
H7A C10A 1_555 1_555
H12A C18 1_555 1_555
O2A C11A 1_555 1_555
C11A C12 1_555 1_555
C12A C11 1_555 1_555
C13A C12A 1_555 1_555
H8A C13A 1_555 1_555
C14A C12A 1_555 1_555
C15A C13A 1_555 1_555
H9A C15A 1_555 1_555
C16A C14A 1_555 1_555
H10A C16A 1_555 1_555
C17A C18 1_555 1_555
H11A C17A 1_555 1_555
C19A C15A 1_555 1_555
H13A C19A 1_555 1_555
C3 C4 1_555 1_555
C6 C10 1_555 1_555
C8 C9 1_555 1_555
C16 C19 1_555 1_555
C1A C4A 1_555 1_555
C3A C4A 1_555 1_555
C6A C10A 1_555 1_555
C8A C9A 1_555 1_555
C11A C17A 1_555 1_555
C14A C17A 1_555 1_555
C16A C19A 1_555 1_555

#END
