
#######################################################################
#
#                 Cambridge Crystallographic Data Centre
#                                CCDC 
#
#######################################################################
#
# If this CIF has been generated from an entry in the Cambridge 
# Structural Database, then it will include bibliographic, chemical, 
# crystal, experimental, refinement or atomic coordinate data resulting 
# from the CCDC's data processing and validation procedures.
#
#######################################################################

data_LODBUD
_chemical_formula_moiety         'C7 H11 N2 O2 1+,Br1 1-'
_chemical_name_systematic        '3-(3-carboxypropyl)-1H-imidazol-3-ium bromide'
_symmetry_cell_setting           monoclinic
_symmetry_space_group_name_H-M   'P 21/c'
_symmetry_Int_Tables_number      14
_space_group_name_Hall           '-P 2ybc'
loop_
_symmetry_equiv_pos_site_id
_symmetry_equiv_pos_as_xyz
1 x,y,z
2 -x,1/2+y,1/2-z
3 -x,-y,-z
4 x,1/2-y,1/2+z
_cell_length_a                   7.114(5)
_cell_length_b                   17.602(13)
_cell_length_c                   8.188(6)
_cell_angle_alpha                90
_cell_angle_beta                 110.666(12)
_cell_angle_gamma                90
_cell_volume                     959.332
_exptl_crystal_colour            colorless
_exptl_crystal_description       block
_cell_formula_units_Z            4
loop_
_atom_site_label
_atom_site_type_symbol
_atom_site_fract_x
_atom_site_fract_y
_atom_site_fract_z
O1 O 0.8265(5) 0.1156(2) 1.0493(6)
O2 O 1.0290(4) 0.19567(18) 0.9878(5)
H1 H 1.1150 0.1666 1.0494
N1 N 0.2229(5) 0.08917(17) 0.6961(5)
N2 N -0.0168(5) 0.0233(2) 0.7225(5)
H2 H -0.0802 -0.0100 0.7601
C1 C -0.1028(6) 0.0729(3) 0.5913(7)
H3 H -0.2387 0.0769 0.5249
C2 C 0.0479(6) 0.1154(3) 0.5758(6)
H4 H 0.0350 0.1551 0.4977
C3 C 0.1787(6) 0.0339(2) 0.7838(5)
H5 H 0.2706 0.0067 0.8745
C4 C 0.4250(6) 0.1181(3) 0.7242(6)
H6 H 0.4369 0.1286 0.6119
H7 H 0.5227 0.0793 0.7814
C5 C 0.4727(5) 0.1890(2) 0.8329(6)
H8 H 0.4644 0.1784 0.9464
H9 H 0.3741 0.2278 0.7770
C6 C 0.6831(6) 0.2187(3) 0.8567(6)
H10 H 0.6976 0.2211 0.7433
H11 H 0.6961 0.2700 0.9027
C7 C 0.8497(6) 0.1711(2) 0.9760(6)
Br1 Br 0.37684(6) 0.08911(2) 0.24416(6)
loop_
_geom_bond_atom_site_label_1
_geom_bond_atom_site_label_2
_geom_bond_site_symmetry_1
_geom_bond_site_symmetry_2
O1 C7 1_555 1_555
O2 H1 1_555 1_555
N1 C2 1_555 1_555
N2 H2 1_555 1_555
C1 N2 1_555 1_555
H3 C1 1_555 1_555
C2 C1 1_555 1_555
H4 C2 1_555 1_555
C3 N1 1_555 1_555
H5 C3 1_555 1_555
C4 N1 1_555 1_555
H6 C4 1_555 1_555
H7 C4 1_555 1_555
C5 C4 1_555 1_555
H8 C5 1_555 1_555
H9 C5 1_555 1_555
C6 C5 1_555 1_555
H10 C6 1_555 1_555
H11 C6 1_555 1_555
C7 O2 1_555 1_555
N2 C3 1_555 1_555
C6 C7 1_555 1_555

#END
