
#######################################################################
#
#                 Cambridge Crystallographic Data Centre
#                                CCDC 
#
#######################################################################
#
# If this CIF has been generated from an entry in the Cambridge 
# Structural Database, then it will include bibliographic, chemical, 
# crystal, experimental, refinement or atomic coordinate data resulting 
# from the CCDC's data processing and validation procedures.
#
#######################################################################

data_LODGOC
_chemical_formula_moiety         'C21 H16 O2 S1'
_chemical_name_systematic        '4-Methylphenyl 9-phenanthryl sulfone'
_symmetry_cell_setting           triclinic
_symmetry_space_group_name_H-M   'P -1'
_symmetry_Int_Tables_number      2
_space_group_name_Hall           '-P 1'
loop_
_symmetry_equiv_pos_site_id
_symmetry_equiv_pos_as_xyz
1 x,y,z
2 -x,-y,-z
_cell_length_a                   8.9084(9)
_cell_length_b                   9.2635(9)
_cell_length_c                   10.4687(9)
_cell_angle_alpha                70.157(6)
_cell_angle_beta                 88.000(6)
_cell_angle_gamma                75.063(6)
_cell_volume                     783.841
_exptl_crystal_colour            colorless
_cell_formula_units_Z            2
loop_
_atom_site_label
_atom_site_type_symbol
_atom_site_fract_x
_atom_site_fract_y
_atom_site_fract_z
S1 S 0.28224(5) 0.79527(5) 0.19975(4)
O1 O 0.43641(16) 0.70289(16) 0.25529(13)
O2 O 0.21273(16) 0.75846(17) 0.09581(13)
C1 C 0.2975(3) 1.4820(3) -0.0696(2)
H1 H 0.2938 1.5352 -0.0026
H2 H 0.2081 1.5376 -0.1354
H3 H 0.3941 1.4836 -0.1172
C2 C 0.2923(3) 1.3128(2) 0.00172(18)
C3 C 0.1558(2) 1.2667(2) -0.00231(19)
H4 H 0.0643 1.3443 -0.0481
C4 C 0.1513(2) 1.1097(2) 0.05939(18)
H5 H 0.0583 1.0792 0.0543
C5 C 0.2848(2) 0.9976(2) 0.12870(18)
C6 C 0.1534(2) 0.7826(2) 0.33399(18)
C7 C 0.0241(2) 0.7361(2) 0.31846(19)
H6 H 0.0042 0.7219 0.2356
C8 C -0.0818(2) 0.7082(2) 0.42353(19)
C9 C -0.2122(2) 0.6543(2) 0.40621(19)
H7 H -0.2314 0.6409 0.3228
C10 C -0.3109(2) 0.6215(2) 0.5095(2)
H8 H -0.3977 0.5842 0.4982
C11 C -0.2829(2) 0.6432(3) 0.6318(2)
H9 H -0.3508 0.6193 0.7035
C12 C 0.4246(2) 1.1982(2) 0.07212(19)
H10 H 0.5181 1.2282 0.0761
C13 C 0.4219(2) 1.0409(2) 0.13651(18)
H11 H 0.5123 0.9638 0.1852
C14 C 0.1860(2) 0.8130(2) 0.45627(18)
C15 C 0.0768(2) 0.7928(2) 0.55977(18)
C16 C 0.1019(2) 0.8332(2) 0.67445(18)
H12 H 0.0287 0.8236 0.7431
C17 C 0.2285(2) 0.8859(2) 0.69001(19)
H13 H 0.2417 0.9127 0.7680
C18 C 0.3378(2) 0.8998(2) 0.59032(19)
H14 H 0.4268 0.9339 0.6016
C19 C 0.3165(2) 0.8641(2) 0.47563(19)
H15 H 0.3913 0.8743 0.4084
C20 C -0.0552(2) 0.7337(2) 0.54564(18)
C21 C -0.1595(2) 0.6982(2) 0.64984(19)
H16 H -0.1436 0.7128 0.7334
loop_
_geom_bond_atom_site_label_1
_geom_bond_atom_site_label_2
_geom_bond_site_symmetry_1
_geom_bond_site_symmetry_2
S1 O1 1_555 1_555
O2 S1 1_555 1_555
C1 H1 1_555 1_555
H2 C1 1_555 1_555
H3 C1 1_555 1_555
C2 C1 1_555 1_555
C3 C2 1_555 1_555
H4 C3 1_555 1_555
C4 C3 1_555 1_555
H5 C4 1_555 1_555
C5 S1 1_555 1_555
C6 S1 1_555 1_555
C7 C6 1_555 1_555
H6 C7 1_555 1_555
C8 C7 1_555 1_555
C9 C8 1_555 1_555
H7 C9 1_555 1_555
C10 C9 1_555 1_555
H8 C10 1_555 1_555
C11 C10 1_555 1_555
H9 C11 1_555 1_555
C12 C2 1_555 1_555
H10 C12 1_555 1_555
C13 C5 1_555 1_555
H11 C13 1_555 1_555
C14 C6 1_555 1_555
C15 C14 1_555 1_555
C16 C15 1_555 1_555
H12 C16 1_555 1_555
C17 C16 1_555 1_555
H13 C17 1_555 1_555
C18 C17 1_555 1_555
H14 C18 1_555 1_555
C19 C14 1_555 1_555
H15 C19 1_555 1_555
C20 C8 1_555 1_555
C21 C11 1_555 1_555
H16 C21 1_555 1_555
C4 C5 1_555 1_555
C12 C13 1_555 1_555
C15 C20 1_555 1_555
C18 C19 1_555 1_555
C20 C21 1_555 1_555

#END
