
#######################################################################
#
#                 Cambridge Crystallographic Data Centre
#                                CCDC 
#
#######################################################################
#
# If this CIF has been generated from an entry in the Cambridge 
# Structural Database, then it will include bibliographic, chemical, 
# crystal, experimental, refinement or atomic coordinate data resulting 
# from the CCDC's data processing and validation procedures.
#
#######################################################################

data_LODNOI
_chemical_formula_moiety         'C64 Cl4'
_chemical_name_systematic        Tetrachloro-C64fullerene
_symmetry_cell_setting           orthorhombic
_symmetry_space_group_name_H-M   'P n m a'
_symmetry_Int_Tables_number      62
_space_group_name_Hall           '-P 2ac 2n'
loop_
_symmetry_equiv_pos_site_id
_symmetry_equiv_pos_as_xyz
1 x,y,z
2 1/2-x,-y,1/2+z
3 -x,1/2+y,-z
4 1/2+x,1/2-y,1/2-z
5 -x,-y,-z
6 1/2+x,y,1/2-z
7 x,1/2-y,z
8 1/2-x,1/2+y,1/2+z
_cell_length_a                   16.6815(6)
_cell_length_b                   14.5131(5)
_cell_length_c                   13.1990(5)
_cell_angle_alpha                90
_cell_angle_beta                 90
_cell_angle_gamma                90
_cell_volume                     3195.48
_exptl_crystal_colour            black
_exptl_crystal_description       plate
_cell_formula_units_Z            4
_exptl_crystal_recrystallization_method toluene/acetone
loop_
_atom_site_label
_atom_site_type_symbol
_atom_site_fract_x
_atom_site_fract_y
_atom_site_fract_z
C1 C 0.34048(17) 0.01319(16) -0.0811(2)
C2 C 0.3828(2) 0.2500 0.3244(3)
C3 C 0.27713(17) 0.04132(16) 0.0817(2)
C4 C 0.1175(2) 0.2500 0.0581(3)
C5 C 0.1637(2) 0.2500 0.1461(3)
C6 C 0.4529(2) 0.2500 -0.2472(3)
C7 C 0.33571(17) 0.04302(17) -0.1858(2)
C8 C 0.45747(17) 0.09351(17) -0.1192(2)
C9 C 0.27252(17) 0.01182(15) -0.0225(2)
C10 C 0.41538(16) 0.04649(16) -0.0388(2)
C11 C 0.47525(15) 0.15130(17) 0.0866(2)
C12 C 0.50350(15) 0.17042(18) -0.0966(2)
C13 C 0.41518(16) 0.16423(16) 0.2631(2)
C14 C 0.51053(16) 0.19989(17) 0.0065(2)
C15 C 0.26340(17) 0.07205(17) -0.2253(2)
C16 C 0.14525(16) 0.15252(17) -0.1876(2)
C17 C 0.19231(16) 0.07189(16) -0.1627(2)
C18 C 0.35004(16) 0.06626(16) 0.1257(2)
C19 C 0.5001(2) 0.2500 -0.1618(3)
C20 C 0.2898(2) 0.2500 0.3048(3)
C21 C 0.11172(15) 0.16995(17) -0.0076(2)
C22 C 0.19649(17) 0.04161(16) -0.0633(2)
C23 C 0.10592(16) 0.20031(17) -0.1110(2)
C24 C 0.46233(15) 0.20268(16) 0.1770(2)
C25 C 0.20544(16) 0.16504(17) 0.1731(2)
C26 C 0.34307(16) 0.12187(16) 0.2157(2)
C27 C 0.27420(16) 0.16855(16) 0.2376(2)
C28 C 0.15547(16) 0.09143(16) 0.0151(2)
C29 C 0.40860(17) 0.09237(17) -0.2097(2)
C30 C 0.20408(16) 0.09107(17) 0.1050(2)
C31 C 0.40561(17) 0.16889(18) -0.2721(2)
C32 C 0.25987(17) 0.15225(18) -0.2902(2)
C33 C 0.18699(17) 0.20183(18) -0.2662(2)
C34 C 0.32926(18) 0.20015(18) -0.3127(2)
C35 C 0.42064(16) 0.07456(16) 0.0625(2)
Cl1 Cl 0.40863(7) 0.2500 0.45307(8)
Cl2 Cl 0.22588(7) 0.2500 0.41423(8)
Cl3 Cl 0.47400(4) 0.08191(4) 0.33333(5)
C1F C 0.34048(17) 0.48681(16) -0.0811(2)
C3F C 0.27713(17) 0.45868(16) 0.0817(2)
C7F C 0.33571(17) 0.45698(17) -0.1858(2)
C8F C 0.45747(17) 0.40649(17) -0.1192(2)
C9F C 0.27252(17) 0.48818(15) -0.0225(2)
C10F C 0.41538(16) 0.45351(16) -0.0388(2)
C11F C 0.47525(15) 0.34870(17) 0.0866(2)
C12F C 0.50350(15) 0.32958(18) -0.0966(2)
C13F C 0.41518(16) 0.33577(16) 0.2631(2)
C14F C 0.51053(16) 0.30011(17) 0.0065(2)
C15F C 0.26340(17) 0.42795(17) -0.2253(2)
C16F C 0.14525(16) 0.34748(17) -0.1876(2)
C17F C 0.19231(16) 0.42811(16) -0.1627(2)
C18F C 0.35004(16) 0.43374(16) 0.1257(2)
C21F C 0.11172(15) 0.33005(17) -0.0076(2)
C22F C 0.19649(17) 0.45839(16) -0.0633(2)
C23F C 0.10592(16) 0.29969(17) -0.1110(2)
C24F C 0.46233(15) 0.29732(16) 0.1770(2)
C25F C 0.20544(16) 0.33496(17) 0.1731(2)
C26F C 0.34307(16) 0.37813(16) 0.2157(2)
C27F C 0.27420(16) 0.33145(16) 0.2376(2)
C28F C 0.15547(16) 0.40857(16) 0.0151(2)
C29F C 0.40860(17) 0.40763(17) -0.2097(2)
C30F C 0.20408(16) 0.40893(17) 0.1050(2)
C31F C 0.40561(17) 0.33111(18) -0.2721(2)
C32F C 0.25987(17) 0.34775(18) -0.2902(2)
C33F C 0.18699(17) 0.29817(18) -0.2662(2)
C34F C 0.32926(18) 0.29985(18) -0.3127(2)
C35F C 0.42064(16) 0.42544(16) 0.0625(2)
Cl3F Cl 0.47400(4) 0.41809(4) 0.33333(5)
loop_
_geom_bond_atom_site_label_1
_geom_bond_atom_site_label_2
_geom_bond_site_symmetry_1
_geom_bond_site_symmetry_2
C1 C7 1_555 1_555
C2 C13 1_555 1_555
C3 C9 1_555 1_555
C4 C5 1_555 1_555
C5 C25 1_555 1_555
C6 C19 1_555 1_555
C7 C15 1_555 1_555
C8 C10 1_555 1_555
C9 C1 1_555 1_555
C10 C1 1_555 1_555
C11 C14 1_555 1_555
C12 C8 1_555 1_555
C13 C24 1_555 1_555
C14 C12 1_555 1_555
C15 C17 1_555 1_555
C16 C17 1_555 1_555
C17 C22 1_555 1_555
C18 C3 1_555 1_555
C19 C12 1_555 1_555
C20 C2 1_555 1_555
C21 C4 1_555 1_555
C22 C9 1_555 1_555
C23 C16 1_555 1_555
C24 C11 1_555 1_555
C25 C27 1_555 1_555
C26 C13 1_555 1_555
C27 C20 1_555 1_555
C28 C21 1_555 1_555
C29 C7 1_555 1_555
C30 C3 1_555 1_555
C31 C6 1_555 1_555
C32 C15 1_555 1_555
C33 C16 1_555 1_555
C34 C31 1_555 1_555
C35 C10 1_555 1_555
Cl1 C2 1_555 1_555
Cl2 C20 1_555 1_555
Cl3 C13 1_555 1_555
C1F C7F 1_555 1_555
C3F C9F 1_555 1_555
C7F C15F 1_555 1_555
C8F C10F 1_555 1_555
C9F C1F 1_555 1_555
C10F C1F 1_555 1_555
C11F C14F 1_555 1_555
C12F C19 1_555 1_555
C13F C2 1_555 1_555
C14F C14 1_555 1_555
C15F C17F 1_555 1_555
C16F C17F 1_555 1_555
C17F C22F 1_555 1_555
C18F C3F 1_555 1_555
C21F C4 1_555 1_555
C22F C9F 1_555 1_555
C23F C23 1_555 1_555
C24F C24 1_555 1_555
C25F C5 1_555 1_555
C26F C13F 1_555 1_555
C27F C20 1_555 1_555
C28F C21F 1_555 1_555
C29F C7F 1_555 1_555
C30F C3F 1_555 1_555
C31F C6 1_555 1_555
C32F C15F 1_555 1_555
C33F C33 1_555 1_555
C34F C34 1_555 1_555
C35F C10F 1_555 1_555
Cl3F C13F 1_555 1_555
C8 C29 1_555 1_555
C11 C35 1_555 1_555
C18 C26 1_555 1_555
C18 C35 1_555 1_555
C21 C23 1_555 1_555
C22 C28 1_555 1_555
C25 C30 1_555 1_555
C26 C27 1_555 1_555
C28 C30 1_555 1_555
C29 C31 1_555 1_555
C32 C33 1_555 1_555
C32 C34 1_555 1_555
C8F C12F 1_555 1_555
C8F C29F 1_555 1_555
C11F C24F 1_555 1_555
C11F C35F 1_555 1_555
C12F C14F 1_555 1_555
C13F C24F 1_555 1_555
C16F C23F 1_555 1_555
C16F C33F 1_555 1_555
C18F C26F 1_555 1_555
C18F C35F 1_555 1_555
C21F C23F 1_555 1_555
C22F C28F 1_555 1_555
C25F C27F 1_555 1_555
C25F C30F 1_555 1_555
C26F C27F 1_555 1_555
C28F C30F 1_555 1_555
C29F C31F 1_555 1_555
C31F C34F 1_555 1_555
C32F C33F 1_555 1_555
C32F C34F 1_555 1_555

#END
