
#######################################################################
#
#                 Cambridge Crystallographic Data Centre
#                                CCDC 
#
#######################################################################
#
# If this CIF has been generated from an entry in the Cambridge 
# Structural Database, then it will include bibliographic, chemical, 
# crystal, experimental, refinement or atomic coordinate data resulting 
# from the CCDC's data processing and validation procedures.
#
#######################################################################

data_LOFCOY
_chemical_formula_moiety         'C24 H19 N1 O3'
_chemical_name_systematic        
4-Benzylamino-3-benzoyl-5-phenyl-5H-furan-2-one
_symmetry_cell_setting           monoclinic
_symmetry_space_group_name_H-M   'P 21/c'
_symmetry_Int_Tables_number      14
_space_group_name_Hall           '-P 2ybc'
loop_
_symmetry_equiv_pos_site_id
_symmetry_equiv_pos_as_xyz
1 x,y,z
2 x,1/2-y,1/2+z
3 -x,-y,-z
4 -x,1/2+y,1/2-z
_cell_length_a                   13.727(3)
_cell_length_b                   12.281(2)
_cell_length_c                   12.075(2)
_cell_angle_alpha                90.00
_cell_angle_beta                 104.43(3)
_cell_angle_gamma                90.00
_cell_volume                     1971.4
_chemical_melting_point          '206-207 deg.C'
_cell_formula_units_Z            4
_exptl_crystal_recrystallization_method chloroform/hexane
loop_
_atom_site_label
_atom_site_type_symbol
_atom_site_fract_x
_atom_site_fract_y
_atom_site_fract_z
O1 O 0.84637(12) 0.20802(14) 0.54257(14)
O2 O 0.78598(14) 0.2505(2) 0.3596(2)
O3 O 0.53592(14) 0.0550(2) 0.4014(2)
N1 N 0.6616(2) 0.0386(2) 0.6199(2)
C1 C 0.7757(2) 0.1984(2) 0.4407(2)
C2 C 0.6969(2) 0.1252(2) 0.4545(2)
C3 C 0.7179(2) 0.0954(2) 0.5685(2)
C4 C 0.8180(2) 0.1437(2) 0.6307(2)
C5 C 0.9001(2) 0.0633(2) 0.6791(2)
C6 C 0.9262(2) -0.0162(3) 0.6098(3)
C7 C 1.0018(2) -0.0897(3) 0.6553(4)
C8 C 1.0500(2) -0.0854(3) 0.7687(4)
C9 C 1.0246(2) -0.0071(4) 0.8385(3)
C10 C 0.9504(2) 0.0677(3) 0.7932(2)
C11 C 0.6866(2) 0.0076(2) 0.7406(2)
C12 C 0.7335(2) -0.1034(2) 0.7653(2)
C13 C 0.7798(3) -0.1297(4) 0.8760(3)
C14 C 0.8229(4) -0.2320(4) 0.9026(4)
C15 C 0.8223(4) -0.3064(4) 0.8199(4)
C16 C 0.7742(5) -0.2819(4) 0.7106(4)
C17 C 0.7302(3) -0.1805(3) 0.6829(3)
C18 C 0.6062(2) 0.0982(2) 0.3713(2)
C19 C 0.5941(2) 0.1201(3) 0.2463(2)
C20 C 0.6667(3) 0.0844(3) 0.1921(3)
C21 C 0.6520(5) 0.0980(4) 0.0753(4)
C22 C 0.5650(5) 0.1497(5) 0.0143(4)
C23 C 0.4966(4) 0.1873(6) 0.0669(4)
C24 C 0.5095(3) 0.1714(4) 0.1849(3)
H1 H 0.6032(23) 0.0163(25) 0.5785(26)
H2 H 0.8106(20) 0.1975(25) 0.6904(23)
H3 H 0.8938(24) -0.0155(28) 0.5288(31)
H4 H 1.0179(28) -0.1446(32) 0.6032(32)
H5 H 1.1037(34) -0.1443(39) 0.8008(36)
H6 H 1.0503(33) -0.0154(37) 0.9201(39)
H7 H 0.9248(22) 0.1217(25) 0.8357(25)
H8 H 0.6186(22) 0.0102(25) 0.7655(24)
H9 H 0.7341(20) 0.0677(23) 0.7839(23)
H10 H 0.7748(41) -0.0822(42) 0.9284(42)
H11 H 0.8583(41) -0.2435(41) 0.9794(46)
H12 H 0.8609(33) -0.3678(39) 0.8464(35)
H13 H 0.7755(41) -0.3319(48) 0.6486(47)
H14 H 0.7075(30) -0.1639(34) 0.6059(35)
H15 H 0.7354(32) 0.0527(32) 0.2451(37)
H16 H 0.7136(43) 0.0778(41) 0.0262(48)
H17 H 0.5482(40) 0.1610(43) -0.0778(51)
H18 H 0.4295(50) 0.2273(48) 0.0359(55)
H19 H 0.4615(38) 0.2090(39) 0.2276(41)
loop_
_geom_bond_atom_site_label_1
_geom_bond_atom_site_label_2
_geom_bond_site_symmetry_1
_geom_bond_site_symmetry_2
O1 C1 1_555 1_555
O2 C1 1_555 1_555
O3 C18 1_555 1_555
N1 C3 1_555 1_555
C1 C2 1_555 1_555
C2 C3 1_555 1_555
C3 C4 1_555 1_555
C4 O1 1_555 1_555
C5 C4 1_555 1_555
C6 C5 1_555 1_555
C7 C6 1_555 1_555
C8 C7 1_555 1_555
C9 C8 1_555 1_555
C10 C5 1_555 1_555
C11 N1 1_555 1_555
C12 C11 1_555 1_555
C13 C12 1_555 1_555
C14 C13 1_555 1_555
C15 C14 1_555 1_555
C16 C15 1_555 1_555
C17 C12 1_555 1_555
C18 C2 1_555 1_555
C19 C18 1_555 1_555
C20 C19 1_555 1_555
C21 C20 1_555 1_555
C22 C21 1_555 1_555
C23 C22 1_555 1_555
C24 C19 1_555 1_555
H1 N1 1_555 1_555
H2 C4 1_555 1_555
H3 C6 1_555 1_555
H4 C7 1_555 1_555
H5 C8 1_555 1_555
H6 C9 1_555 1_555
H7 C10 1_555 1_555
H8 C11 1_555 1_555
H9 C11 1_555 1_555
H10 C13 1_555 1_555
H11 C14 1_555 1_555
H12 C15 1_555 1_555
H13 C16 1_555 1_555
H14 C17 1_555 1_555
H15 C20 1_555 1_555
H16 C21 1_555 1_555
H17 C22 1_555 1_555
H18 C23 1_555 1_555
H19 C24 1_555 1_555
C9 C10 1_555 1_555
C16 C17 1_555 1_555
C23 C24 1_555 1_555

#END
