
#######################################################################
#
#                 Cambridge Crystallographic Data Centre
#                                CCDC 
#
#######################################################################
#
# If this CIF has been generated from an entry in the Cambridge 
# Structural Database, then it will include bibliographic, chemical, 
# crystal, experimental, refinement or atomic coordinate data resulting 
# from the CCDC's data processing and validation procedures.
#
#######################################################################

data_LOFTUX
_chemical_formula_moiety         'C18 H14 Br1 N1 O2'
_chemical_name_systematic        
1-(4-bromophenyl)-10-methyl-1H-[1,4]oxazino[4,3-a]indol-4(3H)-one
_symmetry_cell_setting           monoclinic
_symmetry_space_group_name_H-M   'P 21/c'
_symmetry_Int_Tables_number      14
_space_group_name_Hall           '-P 2ybc'
loop_
_symmetry_equiv_pos_site_id
_symmetry_equiv_pos_as_xyz
1 x,y,z
2 -x,1/2+y,1/2-z
3 -x,-y,-z
4 x,1/2-y,1/2+z
_cell_length_a                   11.9849(8)
_cell_length_b                   8.8043(6)
_cell_length_c                   14.3967(10)
_cell_angle_alpha                90
_cell_angle_beta                 93.670(2)
_cell_angle_gamma                90
_cell_volume                     1516.01
_exptl_crystal_colour            colorless
_exptl_crystal_description       block
_cell_formula_units_Z            4
loop_
_atom_site_label
_atom_site_type_symbol
_atom_site_fract_x
_atom_site_fract_y
_atom_site_fract_z
Br1 Br -0.05846(3) 0.24115(5) 0.04578(3)
O1 O 0.50476(19) -0.0548(2) 0.38236(17)
O2 O 0.25661(16) 0.1199(2) 0.45209(12)
N1 N 0.45543(18) 0.1939(2) 0.38321(15)
C1 C 0.3744(2) 0.3094(3) 0.39096(17)
C2 C 0.4224(2) 0.4463(3) 0.38445(17)
C3 C 0.5394(2) 0.4214(3) 0.37269(17)
C4 C 0.6293(3) 0.5200(4) 0.3649(2)
H1 H 0.6187 0.6246 0.3650
C5 C 0.7338(3) 0.4592(5) 0.3573(2)
H2 H 0.7945 0.5238 0.3522
C6 C 0.7507(3) 0.3036(5) 0.3568(2)
H3 H 0.8225 0.2662 0.3510
C7 C 0.6634(2) 0.2021(4) 0.3649(2)
H4 H 0.6746 0.0976 0.3653
C8 C 0.5585(2) 0.2650(3) 0.37255(18)
C9 C 0.4340(2) 0.0411(3) 0.39038(19)
C10 C 0.3142(3) 0.0039(3) 0.4063(2)
H5 H 0.2748 -0.0164 0.3466
H6 H 0.3124 -0.0883 0.4431
C11 C 0.2565(2) 0.2613(3) 0.40313(19)
H7 H 0.2242 0.3371 0.4435
C12 C 0.1820(2) 0.2561(3) 0.31421(19)
C13 C 0.0826(2) 0.1739(4) 0.3113(2)
H8 H 0.0638 0.1205 0.3638
C14 C 0.0116(2) 0.1700(4) 0.2323(2)
H9 H -0.0541 0.1136 0.2314
C15 C 0.0385(2) 0.2501(3) 0.1548(2)
C16 C 0.1361(2) 0.3319(3) 0.1548(2)
H10 H 0.1540 0.3854 0.1021
C17 C 0.2074(2) 0.3336(3) 0.23433(18)
H11 H 0.2739 0.3880 0.2342
C18 C 0.3668(3) 0.5981(3) 0.3892(2)
H12 H 0.2887 0.5843 0.3975
H13 H 0.3759 0.6527 0.3324
H14 H 0.4004 0.6547 0.4407
loop_
_geom_bond_atom_site_label_1
_geom_bond_atom_site_label_2
_geom_bond_site_symmetry_1
_geom_bond_site_symmetry_2
Br1 C15 1_555 1_555
O1 C9 1_555 1_555
O2 C10 1_555 1_555
N1 C1 1_555 1_555
C1 C2 1_555 1_555
C2 C3 1_555 1_555
C3 C4 1_555 1_555
C4 H1 1_555 1_555
C5 C4 1_555 1_555
H2 C5 1_555 1_555
C6 C5 1_555 1_555
H3 C6 1_555 1_555
C7 C6 1_555 1_555
H4 C7 1_555 1_555
C8 N1 1_555 1_555
C9 N1 1_555 1_555
C10 C9 1_555 1_555
H5 C10 1_555 1_555
H6 C10 1_555 1_555
C11 O2 1_555 1_555
H7 C11 1_555 1_555
C12 C11 1_555 1_555
C13 C12 1_555 1_555
H8 C13 1_555 1_555
C14 C13 1_555 1_555
H9 C14 1_555 1_555
C15 C14 1_555 1_555
C16 C15 1_555 1_555
H10 C16 1_555 1_555
C17 C12 1_555 1_555
H11 C17 1_555 1_555
C18 C2 1_555 1_555
H12 C18 1_555 1_555
H13 C18 1_555 1_555
H14 C18 1_555 1_555
C1 C11 1_555 1_555
C3 C8 1_555 1_555
C7 C8 1_555 1_555
C16 C17 1_555 1_555

#END
