
#######################################################################
#
#                 Cambridge Crystallographic Data Centre
#                                CCDC 
#
#######################################################################
#
# If this CIF has been generated from an entry in the Cambridge 
# Structural Database, then it will include bibliographic, chemical, 
# crystal, experimental, refinement or atomic coordinate data resulting 
# from the CCDC's data processing and validation procedures.
#
#######################################################################

data_LOGCAN
_chemical_formula_moiety         'C24 H30 Br2 N4 O2'
_chemical_name_systematic        
2,2'-(piperazine-1,4-diylbis(propane-3,1-diylnitrilomethylylidene))bis(4-bromophenol)
_symmetry_cell_setting           monoclinic
_symmetry_space_group_name_H-M   'P 21/c'
_symmetry_Int_Tables_number      14
_space_group_name_Hall           '-P 2ybc'
loop_
_symmetry_equiv_pos_site_id
_symmetry_equiv_pos_as_xyz
1 x,y,z
2 -x,1/2+y,1/2-z
3 -x,-y,-z
4 x,1/2-y,1/2+z
_cell_length_a                   10.0467(2)
_cell_length_b                   6.54480(10)
_cell_length_c                   19.1166(3)
_cell_angle_alpha                90
_cell_angle_beta                 102.1260(10)
_cell_angle_gamma                90
_cell_volume                     1228.94
_cell_formula_units_Z            2
loop_
_atom_site_label
_atom_site_type_symbol
_atom_site_fract_x
_atom_site_fract_y
_atom_site_fract_z
C1 C 0.5204(2) 0.2596(4) 0.10949(12)
C2 C 0.4796(2) 0.0601(4) 0.09461(12)
H1 H 0.5172 -0.0161 0.0625
C3 C 0.3834(2) -0.0264(4) 0.12712(13)
H2 H 0.3568 -0.1612 0.1171
C4 C 0.3260(2) 0.0861(3) 0.17467(12)
C5 C 0.3667(2) 0.2885(3) 0.18996(10)
C6 C 0.4643(2) 0.3728(3) 0.15663(11)
H3 H 0.4921 0.5073 0.1663
Br1 Br 0.65616(3) 0.37871(4) 0.066431(14)
O1 O 0.23298(19) -0.0054(3) 0.20585(11)
C7 C 0.3022(2) 0.4125(3) 0.23682(11)
H4 H 0.3298 0.5473 0.2458
N1 N 0.20940(18) 0.3414(3) 0.26568(9)
C8 C 0.1461(2) 0.4757(4) 0.31039(12)
H5 H 0.0531 0.5045 0.2861
H6 H 0.1953 0.6041 0.3174
C9 C 0.1460(2) 0.3794(3) 0.38273(11)
H7 H 0.2375 0.3345 0.4041
H8 H 0.1195 0.4815 0.4140
C10 C 0.0501(2) 0.1995(3) 0.37713(11)
H9 H -0.0425 0.2483 0.3612
H10 H 0.0691 0.1066 0.3409
N2 N 0.05930(17) 0.0863(2) 0.44412(8)
C11 C -0.0332(2) -0.0874(3) 0.43197(11)
H11 H -0.0107 -0.1735 0.3948
H12 H -0.1257 -0.0387 0.4155
C12 C 0.0250(2) 0.2117(3) 0.50085(11)
H13 H -0.0664 0.2655 0.4854
H14 H 0.0874 0.3262 0.5107
H15 H 0.212(3) 0.081(4) 0.2328(14)
C1B C -0.5204(2) -0.2596(4) 0.89051(12)
C2B C -0.4796(2) -0.0601(4) 0.90539(12)
H1B H -0.5172 0.0161 0.9375
C3B C -0.3834(2) 0.0264(4) 0.87288(13)
H2B H -0.3568 0.1612 0.8829
C4B C -0.3260(2) -0.0861(3) 0.82533(12)
C5B C -0.3667(2) -0.2885(3) 0.81004(10)
C6B C -0.4643(2) -0.3728(3) 0.84337(11)
H3B H -0.4921 -0.5073 0.8337
Br1B Br -0.65616(3) -0.37871(4) 0.933569(14)
O1B O -0.23298(19) 0.0054(3) 0.79415(11)
C7B C -0.3022(2) -0.4125(3) 0.76318(11)
H4B H -0.3298 -0.5473 0.7542
N1B N -0.20940(18) -0.3414(3) 0.73432(9)
C8B C -0.1461(2) -0.4757(4) 0.68961(12)
H5B H -0.0531 -0.5045 0.7139
H6B H -0.1953 -0.6041 0.6826
C9B C -0.1460(2) -0.3794(3) 0.61727(11)
H7B H -0.2375 -0.3345 0.5959
H8B H -0.1195 -0.4815 0.5860
C10B C -0.0501(2) -0.1995(3) 0.62287(11)
H9B H 0.0425 -0.2483 0.6388
H10B H -0.0691 -0.1066 0.6591
N2B N -0.05930(17) -0.0863(2) 0.55588(8)
C11B C 0.0332(2) 0.0874(3) 0.56803(11)
H11B H 0.0107 0.1735 0.6052
H12B H 0.1257 0.0387 0.5845
C12B C -0.0250(2) -0.2117(3) 0.49915(11)
H13B H 0.0664 -0.2655 0.5146
H14B H -0.0874 -0.3262 0.4893
H15B H -0.212(3) -0.081(4) 0.7672(14)
loop_
_geom_bond_atom_site_label_1
_geom_bond_atom_site_label_2
_geom_bond_site_symmetry_1
_geom_bond_site_symmetry_2
C1 C2 1_555 1_555
C2 H1 1_555 1_555
C3 C2 1_555 1_555
H2 C3 1_555 1_555
C4 C3 1_555 1_555
C5 C4 1_555 1_555
C6 C1 1_555 1_555
H3 C6 1_555 1_555
Br1 C1 1_555 1_555
O1 C4 1_555 1_555
C7 C5 1_555 1_555
H4 C7 1_555 1_555
N1 C7 1_555 1_555
C8 N1 1_555 1_555
H5 C8 1_555 1_555
H6 C8 1_555 1_555
C9 C8 1_555 1_555
H7 C9 1_555 1_555
H8 C9 1_555 1_555
C10 C9 1_555 1_555
H9 C10 1_555 1_555
H10 C10 1_555 1_555
N2 C10 1_555 1_555
C11 N2 1_555 1_555
H11 C11 1_555 1_555
H12 C11 1_555 1_555
C12 N2 1_555 1_555
H13 C12 1_555 1_555
H14 C12 1_555 1_555
H15 O1 1_555 1_555
C1B C2B 1_555 1_555
C2B H1B 1_555 1_555
C3B C2B 1_555 1_555
H2B C3B 1_555 1_555
C4B C3B 1_555 1_555
C5B C4B 1_555 1_555
C6B C1B 1_555 1_555
H3B C6B 1_555 1_555
Br1B C1B 1_555 1_555
O1B C4B 1_555 1_555
C7B C5B 1_555 1_555
H4B C7B 1_555 1_555
N1B C7B 1_555 1_555
C8B N1B 1_555 1_555
H5B C8B 1_555 1_555
H6B C8B 1_555 1_555
C9B C8B 1_555 1_555
H7B C9B 1_555 1_555
H8B C9B 1_555 1_555
C10B C9B 1_555 1_555
H9B C10B 1_555 1_555
H10B C10B 1_555 1_555
N2B C10B 1_555 1_555
C11B C12 1_555 1_555
H11B C11B 1_555 1_555
H12B C11B 1_555 1_555
C12B C11 1_555 1_555
H13B C12B 1_555 1_555
H14B C12B 1_555 1_555
H15B O1B 1_555 1_555
C5 C6 1_555 1_555
C5B C6B 1_555 1_555
N2B C11B 1_555 1_555
N2B C12B 1_555 1_555

#END
