
#######################################################################
#
#                 Cambridge Crystallographic Data Centre
#                                CCDC 
#
#######################################################################
#
# If this CIF has been generated from an entry in the Cambridge 
# Structural Database, then it will include bibliographic, chemical, 
# crystal, experimental, refinement or atomic coordinate data resulting 
# from the CCDC's data processing and validation procedures.
#
#######################################################################

data_LOHBER
_chemical_formula_moiety         'C51 H48 S3'
_chemical_name_systematic        
"2,2',2''-(5,5,10,10,15,15-hexaethyl-10,15-dihydro-5H-diindeno[1,2-a:1',2'-c]fluorene-2,7,12-triyl)trithiophene unknown solvate"
_symmetry_cell_setting           monoclinic
_symmetry_space_group_name_H-M   'P 21/n'
_symmetry_Int_Tables_number      14
_space_group_name_Hall           '-P 2yn'
loop_
_symmetry_equiv_pos_site_id
_symmetry_equiv_pos_as_xyz
1 x,y,z
2 1/2-x,1/2+y,1/2-z
3 -x,-y,-z
4 1/2+x,1/2-y,1/2+z
_cell_length_a                   9.5613(8)
_cell_length_b                   18.5974(14)
_cell_length_c                   28.616(3)
_cell_angle_alpha                90
_cell_angle_beta                 98.6910(10)
_cell_angle_gamma                90
_cell_volume                     5029.94
_cell_formula_units_Z            4
loop_
_atom_site_label
_atom_site_type_symbol
_atom_site_fract_x
_atom_site_fract_y
_atom_site_fract_z
S1 S 0.7612(7) 0.7397(4) 0.16285(15)
S2 S 0.6467(4) 0.3918(3) 0.5265(2)
S3 S -0.3925(4) 0.18122(18) 0.14776(14)
C1 C 0.3053(4) 0.49037(18) 0.21708(12)
C2 C 0.3802(4) 0.49358(17) 0.26338(13)
C3 C 0.3372(4) 0.45220(18) 0.29868(13)
C4 C 0.2187(4) 0.40661(18) 0.28881(13)
C5 C 0.1440(4) 0.40238(18) 0.24314(13)
C6 C 0.1888(4) 0.44427(19) 0.20684(12)
C7 C 0.3730(4) 0.53994(18) 0.18743(13)
C8 C 0.3482(4) 0.5597(2) 0.13998(14)
H1 H 0.2747 0.5382 0.1198
C9 C 0.4306(4) 0.6104(2) 0.12267(14)
H2 H 0.4103 0.6230 0.0909
C10 C 0.5413(4) 0.64319(19) 0.15019(14)
C11 C 0.5697(4) 0.62388(18) 0.19757(14)
H3 H 0.6446 0.6452 0.2172
C12 C 0.4862(4) 0.57270(19) 0.21559(13)
C13 C 0.5025(4) 0.54655(18) 0.26560(12)
C14 C 0.6468(4) 0.5104(2) 0.27762(13)
H4 H 0.7188 0.5445 0.2717
H5 H 0.6626 0.4997 0.3112
C15 C 0.6660(4) 0.4439(2) 0.25164(18)
H6 H 0.5998 0.4083 0.2590
H7 H 0.7607 0.4264 0.2607
H8 H 0.6499 0.4534 0.2183
C16 C 0.4863(4) 0.61005(19) 0.29858(13)
H9 H 0.5001 0.5926 0.3309
H10 H 0.5607 0.6446 0.2959
C17 C 0.3484(5) 0.6475(2) 0.28925(14)
H11 H 0.3294 0.6612 0.2566
H12 H 0.3513 0.6897 0.3087
H13 H 0.2751 0.6160 0.2964
C18 C 0.6232(4) 0.7009(2) 0.13095(15)
C19 C 0.613(2) 0.7306(16) 0.0851(9)
H14 H 0.5513 0.7124 0.0595
C20 C 0.7013(6) 0.7894(3) 0.0808(2)
H15 H 0.6994 0.8191 0.0546
C21 C 0.7883(5) 0.7945(2) 0.1213(2)
H16 H 0.8615 0.8279 0.1256
C22 C 0.3942(4) 0.44365(18) 0.34992(12)
C23 C 0.5085(4) 0.47183(18) 0.37956(13)
H17 H 0.5685 0.5043 0.3678
C24 C 0.5338(4) 0.45209(19) 0.42626(14)
H18 H 0.6108 0.4721 0.4456
C25 C 0.4491(4) 0.4036(2) 0.44575(13)
C26 C 0.3347(4) 0.37571(19) 0.41621(13)
H19 H 0.2752 0.3431 0.4281
C27 C 0.3073(4) 0.39561(18) 0.36914(13)
C28 C 0.1885(4) 0.36826(18) 0.33317(12)
C29 C 0.0473(4) 0.3914(2) 0.34810(13)
H20 H -0.0296 0.3731 0.3251
H21 H 0.0392 0.3694 0.3783
C30 C 0.0303(4) 0.4719(2) 0.35239(16)
H22 H 0.1085 0.4909 0.3739
H23 H -0.0564 0.4821 0.3642
H24 H 0.0281 0.4937 0.3219
C31 C 0.1994(4) 0.28507(18) 0.32997(13)
H25 H 0.1872 0.2646 0.3603
H26 H 0.1224 0.2678 0.3067
C32 C 0.3359(4) 0.2583(2) 0.31697(16)
H27 H 0.3454 0.2748 0.2858
H28 H 0.3367 0.2067 0.3175
H29 H 0.4133 0.2763 0.3392
C33 C 0.4810(5) 0.3818(2) 0.49594(14)
C34 C 0.4072(19) 0.3372(13) 0.5226(8)
H30 H 0.3272 0.3115 0.5097
C35 C 0.4646(7) 0.3343(3) 0.57115(16)
H31 H 0.4177 0.3211 0.5960
C36 C 0.5976(6) 0.3540(3) 0.57398(17)
H32 H 0.6616 0.3471 0.6015
C37 C 0.0192(4) 0.36004(18) 0.22179(13)
C38 C -0.0705(4) 0.31238(18) 0.23914(13)
H33 H -0.0566 0.3012 0.2712
C39 C -0.1810(4) 0.28091(18) 0.20932(15)
H34 H -0.2418 0.2500 0.2221
C40 C -0.2038(4) 0.2938(2) 0.16146(15)
C41 C -0.1153(4) 0.3428(2) 0.14384(14)
H35 H -0.1294 0.3537 0.1118
C42 C -0.0062(4) 0.37541(19) 0.17369(14)
C43 C 0.0950(4) 0.4296(2) 0.15944(13)
C44 C 0.0109(4) 0.4970(2) 0.13950(15)
H36 H 0.0770 0.5310 0.1293
H37 H -0.0542 0.4827 0.1117
C45 C -0.0712(5) 0.5348(3) 0.17237(19)
H38 H -0.1507 0.5058 0.1773
H39 H -0.1041 0.5801 0.1589
H40 H -0.0116 0.5428 0.2021
C46 C 0.1785(5) 0.3959(2) 0.12338(14)
H41 H 0.1121 0.3804 0.0962
H42 H 0.2381 0.4327 0.1126
C47 C 0.2699(5) 0.3330(3) 0.14116(18)
H43 H 0.3379 0.3477 0.1676
H44 H 0.3184 0.3156 0.1164
H45 H 0.2118 0.2953 0.1508
C48 C -0.3176(4) 0.2566(2) 0.13064(16)
C49 C -0.371(3) 0.2657(10) 0.0835(10)
H46 H -0.3336 0.2997 0.0649
C50 C -0.4833(6) 0.2214(4) 0.0650(2)
H47 H -0.5380 0.2259 0.0354
C51 C -0.4985(6) 0.1719(3) 0.0968(2)
H48 H -0.5637 0.1346 0.0910
C52? C 0.744(4) 0.740(2) 0.1499(10)
H49? H 0.7915 0.7310 0.1800
C53? C 0.607(3) 0.3764(19) 0.5276(13)
H50? H 0.6938 0.3872 0.5183
C54? C -0.416(5) 0.202(2) 0.1371(18)
H51? H -0.4261 0.1860 0.1673
S4? S 0.5730(9) 0.7316(6) 0.0757(3)
S5? S 0.3483(7) 0.3509(5) 0.5235(3)
S6? S -0.383(2) 0.2926(8) 0.0779(8)
loop_
_geom_bond_atom_site_label_1
_geom_bond_atom_site_label_2
_geom_bond_site_symmetry_1
_geom_bond_site_symmetry_2
S1 C18 1_555 1_555
S2 C33 1_555 1_555
S3 C48 1_555 1_555
C1 C2 1_555 1_555
C2 C3 1_555 1_555
C3 C4 1_555 1_555
C4 C5 1_555 1_555
C5 C6 1_555 1_555
C6 C1 1_555 1_555
C7 C1 1_555 1_555
C8 C7 1_555 1_555
H1 C8 1_555 1_555
C9 C8 1_555 1_555
H2 C9 1_555 1_555
C10 C9 1_555 1_555
C11 C10 1_555 1_555
H3 C11 1_555 1_555
C12 C7 1_555 1_555
C13 C2 1_555 1_555
C14 C13 1_555 1_555
H4 C14 1_555 1_555
H5 C14 1_555 1_555
C15 C14 1_555 1_555
H6 C15 1_555 1_555
H7 C15 1_555 1_555
H8 C15 1_555 1_555
C16 C13 1_555 1_555
H9 C16 1_555 1_555
H10 C16 1_555 1_555
C17 C16 1_555 1_555
H11 C17 1_555 1_555
H12 C17 1_555 1_555
H13 C17 1_555 1_555
C18 C10 1_555 1_555
C19 C18 1_555 1_555
H14 C19 1_555 1_555
C20 C19 1_555 1_555
H15 C20 1_555 1_555
C21 S1 1_555 1_555
H16 C21 1_555 1_555
C22 C3 1_555 1_555
C23 C22 1_555 1_555
H17 C23 1_555 1_555
C24 C23 1_555 1_555
H18 C24 1_555 1_555
C25 C24 1_555 1_555
C26 C25 1_555 1_555
H19 C26 1_555 1_555
C27 C22 1_555 1_555
C28 C4 1_555 1_555
C29 C28 1_555 1_555
H20 C29 1_555 1_555
H21 C29 1_555 1_555
C30 C29 1_555 1_555
H22 C30 1_555 1_555
H23 C30 1_555 1_555
H24 C30 1_555 1_555
C31 C28 1_555 1_555
H25 C31 1_555 1_555
H26 C31 1_555 1_555
C32 C31 1_555 1_555
H27 C32 1_555 1_555
H28 C32 1_555 1_555
H29 C32 1_555 1_555
C33 C25 1_555 1_555
C34 C33 1_555 1_555
H30 C34 1_555 1_555
C35 C34 1_555 1_555
H31 C35 1_555 1_555
C36 S2 1_555 1_555
H32 C36 1_555 1_555
C37 C5 1_555 1_555
C38 C37 1_555 1_555
H33 C38 1_555 1_555
C39 C38 1_555 1_555
H34 C39 1_555 1_555
C40 C39 1_555 1_555
C41 C40 1_555 1_555
H35 C41 1_555 1_555
C42 C37 1_555 1_555
C43 C6 1_555 1_555
C44 C43 1_555 1_555
H36 C44 1_555 1_555
H37 C44 1_555 1_555
C45 C44 1_555 1_555
H38 C45 1_555 1_555
H39 C45 1_555 1_555
H40 C45 1_555 1_555
C46 C43 1_555 1_555
H41 C46 1_555 1_555
H42 C46 1_555 1_555
C47 C46 1_555 1_555
H43 C47 1_555 1_555
H44 C47 1_555 1_555
H45 C47 1_555 1_555
C48 C40 1_555 1_555
C49 C48 1_555 1_555
H46 C49 1_555 1_555
C50 C49 1_555 1_555
H47 C50 1_555 1_555
C51 S3 1_555 1_555
H48 C51 1_555 1_555
C11 C12 1_555 1_555
C12 C13 1_555 1_555
C20 C21 1_555 1_555
C26 C27 1_555 1_555
C27 C28 1_555 1_555
C35 C36 1_555 1_555
C41 C42 1_555 1_555
C42 C43 1_555 1_555
C50 C51 1_555 1_555

#END
