
#######################################################################
#
#                 Cambridge Crystallographic Data Centre
#                                CCDC 
#
#######################################################################
#
# If this CIF has been generated from an entry in the Cambridge 
# Structural Database, then it will include bibliographic, chemical, 
# crystal, experimental, refinement or atomic coordinate data resulting 
# from the CCDC's data processing and validation procedures.
#
#######################################################################

data_LOHVIO01
_chemical_formula_moiety         'C29 H35 N3'
_chemical_name_systematic        
2,6-bis(1-(2,6-Diethylphenylimino)ethyl)pyridine
_symmetry_cell_setting           monoclinic
_symmetry_space_group_name_H-M   'P 21/c'
_symmetry_Int_Tables_number      14
_space_group_name_Hall           '-P 2ybc'
loop_
_symmetry_equiv_pos_site_id
_symmetry_equiv_pos_as_xyz
1 x,y,z
2 -x,1/2+y,1/2-z
3 -x,-y,-z
4 x,1/2-y,1/2+z
_cell_length_a                   7.9390(8)
_cell_length_b                   12.3208(13)
_cell_length_c                   25.998(3)
_cell_angle_alpha                90
_cell_angle_beta                 96.234(2)
_cell_angle_gamma                90
_cell_volume                     2527.95
_exptl_crystal_colour            yellow
_exptl_crystal_description       block
_cell_formula_units_Z            4
loop_
_atom_site_label
_atom_site_type_symbol
_atom_site_fract_x
_atom_site_fract_y
_atom_site_fract_z
N1 N -0.5544(2) 0.61937(15) -0.15400(7)
N2 N -0.2647(2) 0.69242(15) -0.04651(7)
N3 N 0.0206(2) 0.83861(14) 0.04282(7)
C1 C -0.4636(3) 0.60967(19) -0.11083(9)
C2 C -0.3645(3) 0.70650(19) -0.09065(9)
C3 C -0.3771(3) 0.80441(18) -0.11695(9)
H1 H -0.4480 0.8113 -0.1477
C4 C -0.2830(3) 0.89137(19) -0.09692(9)
H2 H -0.2893 0.9580 -0.1139
C5 C -0.1790(3) 0.87807(18) -0.05110(9)
H3 H -0.1140 0.9355 -0.0367
C6 C -0.1734(3) 0.77816(18) -0.02709(9)
C7 C -0.0646(3) 0.75836(19) 0.02294(9)
C8 C -0.4473(3) 0.50849(18) -0.07891(9)
H4 H -0.5166 0.4524 -0.0959
H5 H -0.4837 0.5227 -0.0455
H6 H -0.3311 0.4854 -0.0748
C9 C -0.0684(3) 0.64705(18) 0.04624(9)
H7 H 0.0057 0.6450 0.0780
H8 H -0.0314 0.5947 0.0225
H9 H -0.1818 0.6302 0.0531
C10 C -0.6522(3) 0.52973(18) -0.17576(9)
C11 C -0.5797(3) 0.46024(19) -0.20928(9)
C12 C -0.6793(3) 0.3774(2) -0.23284(9)
H10 H -0.6339 0.3312 -0.2560
C13 C -0.8439(4) 0.3630(2) -0.22238(10)
H11 H -0.9089 0.3071 -0.2382
C14 C -0.9118(3) 0.4313(2) -0.18850(10)
H12 H -1.0227 0.4202 -0.1813
C15 C -0.8197(3) 0.5162(2) -0.16479(10)
C16 C -0.3966(3) 0.4759(2) -0.21860(9)
H13 H -0.3738 0.5533 -0.2186
H14 H -0.3261 0.4447 -0.1895
C17 C -0.3415(3) 0.4290(2) -0.26723(10)
H15 H -0.2233 0.4437 -0.2685
H16 H -0.4061 0.4613 -0.2967
H17 H -0.3599 0.3520 -0.2677
C18 C -0.8989(3) 0.5920(2) -0.12862(10)
H18 H -0.9946 0.5565 -0.1155
H19 H -0.8167 0.6094 -0.0994
C19 C -0.9567(4) 0.6936(2) -0.15592(11)
H20 H -1.0065 0.7408 -0.1324
H21 H -1.0392 0.6764 -0.1845
H22 H -0.8616 0.7292 -0.1685
C20 C 0.1215(3) 0.82874(17) 0.09135(9)
C21 C 0.2917(3) 0.79922(18) 0.09253(10)
C22 C 0.3912(3) 0.80093(19) 0.14006(11)
H23 H 0.5045 0.7806 0.1417
C23 C 0.3256(4) 0.8321(2) 0.18473(11)
H24 H 0.3947 0.8347 0.2160
C24 C 0.1569(4) 0.85952(19) 0.18268(10)
H25 H 0.1129 0.8799 0.2130
C25 C 0.0504(3) 0.85759(18) 0.13639(9)
C26 C 0.3694(3) 0.76989(19) 0.04370(9)
H26 H 0.2924 0.7225 0.0227
H27 H 0.4738 0.7302 0.0530
C27 C 0.4070(3) 0.86848(19) 0.01206(10)
H28 H 0.4547 0.8456 -0.0185
H29 H 0.4862 0.9146 0.0323
H30 H 0.3040 0.9077 0.0024
C28 C -0.1336(3) 0.8865(2) 0.13489(9)
H31 H -0.1670 0.8812 0.1696
H32 H -0.1999 0.8342 0.1134
C29 C -0.1747(4) 0.9995(2) 0.11419(10)
H33 H -0.2938 1.0131 0.1142
H34 H -0.1447 1.0051 0.0795
H35 H -0.1117 1.0520 0.1357
loop_
_geom_bond_atom_site_label_1
_geom_bond_atom_site_label_2
_geom_bond_site_symmetry_1
_geom_bond_site_symmetry_2
N1 C1 1_555 1_555
N2 C2 1_555 1_555
N3 C7 1_555 1_555
C1 C2 1_555 1_555
C2 C3 1_555 1_555
C3 H1 1_555 1_555
C4 C3 1_555 1_555
H2 C4 1_555 1_555
C5 C4 1_555 1_555
H3 C5 1_555 1_555
C6 N2 1_555 1_555
C7 C6 1_555 1_555
C8 C1 1_555 1_555
H4 C8 1_555 1_555
H5 C8 1_555 1_555
H6 C8 1_555 1_555
C9 C7 1_555 1_555
H7 C9 1_555 1_555
H8 C9 1_555 1_555
H9 C9 1_555 1_555
C10 N1 1_555 1_555
C11 C10 1_555 1_555
C12 C11 1_555 1_555
H10 C12 1_555 1_555
C13 C12 1_555 1_555
H11 C13 1_555 1_555
C14 C13 1_555 1_555
H12 C14 1_555 1_555
C15 C10 1_555 1_555
C16 C11 1_555 1_555
H13 C16 1_555 1_555
H14 C16 1_555 1_555
C17 C16 1_555 1_555
H15 C17 1_555 1_555
H16 C17 1_555 1_555
H17 C17 1_555 1_555
C18 C15 1_555 1_555
H18 C18 1_555 1_555
H19 C18 1_555 1_555
C19 C18 1_555 1_555
H20 C19 1_555 1_555
H21 C19 1_555 1_555
H22 C19 1_555 1_555
C20 N3 1_555 1_555
C21 C20 1_555 1_555
C22 C21 1_555 1_555
H23 C22 1_555 1_555
C23 C22 1_555 1_555
H24 C23 1_555 1_555
C24 C23 1_555 1_555
H25 C24 1_555 1_555
C25 C20 1_555 1_555
C26 C21 1_555 1_555
H26 C26 1_555 1_555
H27 C26 1_555 1_555
C27 C26 1_555 1_555
H28 C27 1_555 1_555
H29 C27 1_555 1_555
H30 C27 1_555 1_555
C28 C25 1_555 1_555
H31 C28 1_555 1_555
H32 C28 1_555 1_555
C29 C28 1_555 1_555
H33 C29 1_555 1_555
H34 C29 1_555 1_555
H35 C29 1_555 1_555
C5 C6 1_555 1_555
C14 C15 1_555 1_555
C24 C25 1_555 1_555

#END
