
#######################################################################
#
#                 Cambridge Crystallographic Data Centre
#                                CCDC 
#
#######################################################################
#
# If this CIF has been generated from an entry in the Cambridge 
# Structural Database, then it will include bibliographic, chemical, 
# crystal, experimental, refinement or atomic coordinate data resulting 
# from the CCDC's data processing and validation procedures.
#
#######################################################################

data_LOHWOV
_chemical_formula_moiety         'C4 H9 N1 O1,C6 H5 I1 O3 S1,H2 O1'
_chemical_name_systematic        
'N,N-Dimethylacetamide 4-iodobenzenesulfonic acid monohydrate'
_symmetry_cell_setting           orthorhombic
_symmetry_space_group_name_H-M   'P c a 21'
_symmetry_Int_Tables_number      29
_space_group_name_Hall           'P 2c -2ac'
loop_
_symmetry_equiv_pos_site_id
_symmetry_equiv_pos_as_xyz
1 x,y,z
2 -x,-y,1/2+z
3 1/2+x,-y,z
4 1/2-x,y,1/2+z
_cell_length_a                   14.173(3)
_cell_length_b                   7.7480(15)
_cell_length_c                   13.272(3)
_cell_angle_alpha                90
_cell_angle_beta                 90
_cell_angle_gamma                90
_cell_volume                     1457.43
_exptl_crystal_colour            colorless
_exptl_crystal_description       block
_chemical_melting_point          '363 K'
_cell_formula_units_Z            4
loop_
_atom_site_label
_atom_site_type_symbol
_atom_site_fract_x
_atom_site_fract_y
_atom_site_fract_z
I1 I 0.20688(5) 0.25040(11) 0.7328(2)
S1 S 0.1876(2) 0.9056(4) 1.0531(3)
O1 O 0.1588(10) 0.8396(14) 1.1505(8)
O2 O 0.2802(7) 0.9782(15) 1.0512(14)
H1 H 0.2768 1.0848 1.0659
O3 O 0.1189(8) 1.0230(11) 1.0115(8)
C1 C 0.1840(9) 0.4229(16) 0.9376(10)
H2 H 0.1756 0.3110 0.9613
C2 C 0.1806(9) 0.5632(16) 1.0022(10)
H3 H 0.1709 0.5450 1.0706
C3 C 0.1912(8) 0.7263(14) 0.9674(11)
C4 C 0.2059(8) 0.7609(14) 0.8682(12)
H4 H 0.2132 0.8741 0.8461
C5 C 0.2100(8) 0.6222(17) 0.7992(10)
H5 H 0.2188 0.6412 0.7306
C6 C 0.2002(8) 0.4547(15) 0.8381(10)
O4 O 0.9586(8) 0.1582(19) 0.0789(10)
H6 H 0.914(10) 0.084(19) 0.065(17)
H7 H 1.023(7) 0.13(2) 0.082(15)
O5 O -0.0108(7) 0.6431(14) 0.7131(8)
N1 N -0.0502(9) 0.597(2) 0.8736(12)
C7 C -0.0714(13) 0.648(3) 0.9756(12)
H8 H -0.1176 0.7386 0.9748
H9 H -0.0149 0.6890 1.0076
H10 H -0.0956 0.5509 1.0121
C8 C -0.0515(12) 0.407(2) 0.8500(15)
H11 H -0.0490 0.3903 0.7784
H12 H -0.1084 0.3562 0.8760
H13 H 0.0020 0.3519 0.8808
C9 C -0.0327(13) 0.897(2) 0.8184(15)
H14 H 0.0203 0.9300 0.8590
H15 H -0.0901 0.9276 0.8522
H16 H -0.0296 0.9548 0.7546
C10 C -0.0305(12) 0.705(2) 0.8017(15)
loop_
_geom_bond_atom_site_label_1
_geom_bond_atom_site_label_2
_geom_bond_site_symmetry_1
_geom_bond_site_symmetry_2
I1 C6 1_555 1_555
S1 O1 1_555 1_555
O2 S1 1_555 1_555
H1 O2 1_555 1_555
O3 S1 1_555 1_555
C1 H2 1_555 1_555
C2 C1 1_555 1_555
H3 C2 1_555 1_555
C3 S1 1_555 1_555
C4 C3 1_555 1_555
H4 C4 1_555 1_555
C5 C4 1_555 1_555
H5 C5 1_555 1_555
C6 C1 1_555 1_555
O4 H6 1_555 1_555
H7 O4 1_555 1_555
O5 C10 1_555 1_555
N1 C7 1_555 1_555
C7 H8 1_555 1_555
H9 C7 1_555 1_555
H10 C7 1_555 1_555
C8 N1 1_555 1_555
H11 C8 1_555 1_555
H12 C8 1_555 1_555
H13 C8 1_555 1_555
C9 H14 1_555 1_555
H15 C9 1_555 1_555
H16 C9 1_555 1_555
C10 N1 1_555 1_555
C2 C3 1_555 1_555
C5 C6 1_555 1_555
C9 C10 1_555 1_555

#END
