
#######################################################################
#
#                 Cambridge Crystallographic Data Centre
#                                CCDC 
#
#######################################################################
#
# If this CIF has been generated from an entry in the Cambridge 
# Structural Database, then it will include bibliographic, chemical, 
# crystal, experimental, refinement or atomic coordinate data resulting 
# from the CCDC's data processing and validation procedures.
#
#######################################################################

data_LOJLAY
_chemical_formula_moiety         'C13 H13 Cl1 N2 O2'
_chemical_name_systematic        
5-Acetyl-4-(2-chlorophenyl)-6-methyl-3,4-dihydropyrimidin-2(1H)-one
_symmetry_cell_setting           orthorhombic
_symmetry_space_group_name_H-M   'P n a 21'
_symmetry_Int_Tables_number      33
_space_group_name_Hall           'P 2c -2n'
loop_
_symmetry_equiv_pos_site_id
_symmetry_equiv_pos_as_xyz
1 x,y,z
2 -x,-y,1/2+z
3 1/2-x,1/2+y,1/2+z
4 1/2+x,1/2-y,z
_cell_length_a                   14.5364(8)
_cell_length_b                   12.1587(5)
_cell_length_c                   7.0780(4)
_cell_angle_alpha                90
_cell_angle_beta                 90
_cell_angle_gamma                90
_cell_volume                     1250.99
_exptl_crystal_colour            colorless
_exptl_crystal_description       needle
_chemical_melting_point          '555.5 K'
_cell_formula_units_Z            4
loop_
_atom_site_label
_atom_site_type_symbol
_atom_site_fract_x
_atom_site_fract_y
_atom_site_fract_z
Cl1 Cl 0.55079(4) 0.22136(5) 1.08117(7)
O1 O 0.50642(8) 0.51312(9) 0.62182(16)
O2 O 0.27723(11) 0.09996(13) 0.7672(3)
N1 N 0.42438(10) 0.38746(11) 0.4557(2)
N2 N 0.44410(10) 0.36578(10) 0.7731(2)
C1 C 0.46183(10) 0.42625(12) 0.6203(2)
C2 C 0.41461(11) 0.25076(12) 0.7555(2)
C3 C 0.34298(9) 0.24351(12) 0.6009(2)
C4 C 0.35395(10) 0.31050(12) 0.4495(2)
C5 C 0.27134(12) 0.16018(14) 0.6294(3)
C6 C 0.19130(12) 0.14572(17) 0.4994(4)
C7 C 0.49732(11) 0.17499(12) 0.7223(2)
C8 C 0.56389(12) 0.15910(13) 0.8612(3)
C9 C 0.64096(14) 0.09425(16) 0.8322(3)
C10 C 0.65258(14) 0.04277(16) 0.6600(3)
C11 C 0.58767(13) 0.05448(15) 0.5208(3)
C12 C 0.51081(12) 0.11989(13) 0.5529(2)
C13 C 0.30143(13) 0.31541(15) 0.2672(3)
H1 H 0.4383(13) 0.4194(16) 0.362(3)
H2 H 0.4662(12) 0.3844(14) 0.876(3)
H3 H 0.38548 0.22909 0.87471
H4 H 0.15191 0.08874 0.54708
H5 H 0.21307 0.12573 0.37608
H6 H 0.15749 0.21339 0.49164
H7 H 0.68435 0.08551 0.92754
H8 H 0.70457 0.00002 0.63836
H9 H 0.59505 0.01882 0.40558
H10 H 0.46706 0.12694 0.45776
H11 H 0.32656 0.37231 0.18861
H12 H 0.23793 0.33107 0.29304
H13 H 0.30619 0.24599 0.20333
H14? H 0.25389 0.26060 0.26804
H15? H 0.34252 0.30185 0.16361
H16? H 0.27426 0.38692 0.25332
loop_
_geom_bond_atom_site_label_1
_geom_bond_atom_site_label_2
_geom_bond_site_symmetry_1
_geom_bond_site_symmetry_2
Cl1 C8 1_555 1_555
O1 C1 1_555 1_555
O2 C5 1_555 1_555
N1 C1 1_555 1_555
N2 C1 1_555 1_555
C2 N2 1_555 1_555
C3 C2 1_555 1_555
C4 N1 1_555 1_555
C5 C3 1_555 1_555
C6 C5 1_555 1_555
C7 C2 1_555 1_555
C8 C7 1_555 1_555
C9 C8 1_555 1_555
C10 C9 1_555 1_555
C11 C10 1_555 1_555
C12 C7 1_555 1_555
C13 C4 1_555 1_555
H1 N1 1_555 1_555
H2 N2 1_555 1_555
H3 C2 1_555 1_555
H4 C6 1_555 1_555
H5 C6 1_555 1_555
H6 C6 1_555 1_555
H7 C9 1_555 1_555
H8 C10 1_555 1_555
H9 C11 1_555 1_555
H10 C12 1_555 1_555
H11 C13 1_555 1_555
H12 C13 1_555 1_555
H13 C13 1_555 1_555
C3 C4 1_555 1_555
C11 C12 1_555 1_555

#END
