
#######################################################################
#
#                 Cambridge Crystallographic Data Centre
#                                CCDC 
#
#######################################################################
#
# If this CIF has been generated from an entry in the Cambridge 
# Structural Database, then it will include bibliographic, chemical, 
# crystal, experimental, refinement or atomic coordinate data resulting 
# from the CCDC's data processing and validation procedures.
#
#######################################################################

data_LOJRUY
_chemical_formula_moiety         'C22 H32 N4'
_chemical_name_systematic        
2,6,8,12-Tetramethyl-2,6,8,12-tetra-aza-1,7(1,4)-dibenzenacyclododecaphane
_symmetry_cell_setting           orthorhombic
_symmetry_space_group_name_H-M   'I b a 2'
_symmetry_Int_Tables_number      45
_space_group_name_Hall           'I 2 -2c'
loop_
_symmetry_equiv_pos_site_id
_symmetry_equiv_pos_as_xyz
1 x,y,z
2 -x,-y,z
3 1/2+x,1/2-y,z
4 1/2-x,1/2+y,z
5 1/2+x,1/2+y,1/2+z
6 1/2-x,1/2-y,1/2+z
7 x,-y,1/2+z
8 -x,y,1/2+z
_cell_length_a                   17.3647(3)
_cell_length_b                   20.5552(4)
_cell_length_c                   10.8911(2)
_cell_angle_alpha                90
_cell_angle_beta                 90
_cell_angle_gamma                90
_cell_volume                     3887.41
_exptl_crystal_colour            colorless
_exptl_crystal_description       needle
_cell_formula_units_Z            8
loop_
_atom_site_label
_atom_site_type_symbol
_atom_site_fract_x
_atom_site_fract_y
_atom_site_fract_z
N1 N 0.00524(6) 0.34755(5) 0.16505(10)
N2 N 0.26216(6) 0.31867(5) 0.48478(11)
N3 N 0.42599(6) 0.43768(5) 0.18587(11)
N4 N 0.17919(6) 0.43583(5) -0.15771(10)
C1 C -0.03343(8) 0.28870(7) 0.12524(14)
H1 H -0.0532(5) 0.2644(4) 0.1991(8)
H2 H 0.0039(4) 0.2604(4) 0.0789(9)
H3 H -0.0779(6) 0.30044(14) 0.0701(10)
C2 C 0.06880(7) 0.33934(7) 0.24487(12)
C3 C 0.09118(7) 0.27870(7) 0.29063(13)
H4 H 0.0626(5) 0.2416(7) 0.2689(4)
C4 C 0.15475(7) 0.27174(6) 0.36771(13)
H5 H 0.1687(3) 0.2291(8) 0.3958(5)
C5 C 0.19870(7) 0.32498(6) 0.40511(11)
C6 C 0.17518(8) 0.38623(6) 0.36103(12)
H6 H 0.2033(5) 0.4243(7) 0.3852(4)
C7 C 0.11252(7) 0.39278(7) 0.28387(13)
H7 H 0.0979(3) 0.4372(8) 0.2549(5)
C8 C 0.28780(9) 0.25290(7) 0.51108(13)
H8 H 0.2446(5) 0.2277(3) 0.5492(11)
H9 H 0.3324(7) 0.25440(8) 0.5692(11)
H10 H 0.3040(6) 0.2312(3) 0.4330(9)
C9 C 0.32431(7) 0.36633(7) 0.47112(13)
H11 H 0.3631 0.3585 0.5361
H12 H 0.3028 0.4104 0.4844
C10 C 0.36515(8) 0.36504(6) 0.34553(12)
H13 H 0.4044 0.3301 0.3456
H14 H 0.3270 0.3548 0.2808
C11 C 0.40418(8) 0.43002(7) 0.31543(13)
H15 H 0.3688 0.4658 0.3381
H16 H 0.4510 0.4343 0.3667
C12 C 0.49859(8) 0.40808(7) 0.15172(15)
H17 H 0.5177(4) 0.4282(4) 0.0737(9)
H18 H 0.49104(17) 0.3603(5) 0.1393(10)
H19 H 0.5372(4) 0.4154(5) 0.2186(8)
C13 C 0.36609(7) 0.43633(6) 0.09908(12)
C14 C 0.29405(8) 0.46411(6) 0.12661(12)
H20 H 0.28639(15) 0.4840(4) 0.2058(14)
C15 C 0.23411(7) 0.46372(6) 0.04354(13)
H21 H 0.1842(8) 0.4839(3) 0.0674(4)
C16 C 0.24115(8) 0.43567(6) -0.07397(12)
C17 C 0.31325(8) 0.40891(6) -0.10202(13)
H22 H 0.32113(17) 0.3901(4) -0.1806(15)
C18 C 0.37369(8) 0.40913(6) -0.01796(14)
H23 H 0.4214(9) 0.3903(3) -0.0407(4)
C19 C 0.18637(8) 0.39297(7) -0.26366(13)
H24 H 0.2309(6) 0.4068(3) -0.3142(7)
H25 H 0.1387(5) 0.3953(4) -0.3135(7)
H26 H 0.1944(6) 0.3477(5) -0.2353(3)
C20 C 0.10131(7) 0.43875(6) -0.10506(13)
H27 H 0.0635 0.4407 -0.1729
H28 H 0.0963 0.4794 -0.0569
C21 C 0.08121(7) 0.38083(6) -0.02183(12)
H29 H 0.0667 0.3432 -0.0737
H30 H 0.1274 0.3684 0.0261
C22 C 0.01505(7) 0.39586(6) 0.06681(13)
H31 H 0.0243 0.4390 0.1046
H32 H -0.0335 0.3987 0.0194
loop_
_geom_bond_atom_site_label_1
_geom_bond_atom_site_label_2
_geom_bond_site_symmetry_1
_geom_bond_site_symmetry_2
N1 C1 1_555 1_555
N2 C5 1_555 1_555
N3 C11 1_555 1_555
N4 C16 1_555 1_555
C1 H1 1_555 1_555
H2 C1 1_555 1_555
H3 C1 1_555 1_555
C2 N1 1_555 1_555
C3 C2 1_555 1_555
H4 C3 1_555 1_555
C4 C3 1_555 1_555
H5 C4 1_555 1_555
C5 C4 1_555 1_555
C6 C5 1_555 1_555
H6 C6 1_555 1_555
C7 C2 1_555 1_555
H7 C7 1_555 1_555
C8 N2 1_555 1_555
H8 C8 1_555 1_555
H9 C8 1_555 1_555
H10 C8 1_555 1_555
C9 N2 1_555 1_555
H11 C9 1_555 1_555
H12 C9 1_555 1_555
C10 C9 1_555 1_555
H13 C10 1_555 1_555
H14 C10 1_555 1_555
C11 C10 1_555 1_555
H15 C11 1_555 1_555
H16 C11 1_555 1_555
C12 N3 1_555 1_555
H17 C12 1_555 1_555
H18 C12 1_555 1_555
H19 C12 1_555 1_555
C13 N3 1_555 1_555
C14 C13 1_555 1_555
H20 C14 1_555 1_555
C15 C14 1_555 1_555
H21 C15 1_555 1_555
C16 C15 1_555 1_555
C17 C16 1_555 1_555
H22 C17 1_555 1_555
C18 C13 1_555 1_555
H23 C18 1_555 1_555
C19 N4 1_555 1_555
H24 C19 1_555 1_555
H25 C19 1_555 1_555
H26 C19 1_555 1_555
C20 N4 1_555 1_555
H27 C20 1_555 1_555
H28 C20 1_555 1_555
C21 C20 1_555 1_555
H29 C21 1_555 1_555
H30 C21 1_555 1_555
C22 N1 1_555 1_555
H31 C22 1_555 1_555
H32 C22 1_555 1_555
C6 C7 1_555 1_555
C17 C18 1_555 1_555
C21 C22 1_555 1_555

#END
