
#######################################################################
#
#                 Cambridge Crystallographic Data Centre
#                                CCDC 
#
#######################################################################
#
# If this CIF has been generated from an entry in the Cambridge 
# Structural Database, then it will include bibliographic, chemical, 
# crystal, experimental, refinement or atomic coordinate data resulting 
# from the CCDC's data processing and validation procedures.
#
#######################################################################

data_LOJSAF
_chemical_formula_moiety         'C30 H48 N4'
_chemical_name_systematic        
2,6,8,12-Tetraisopropyl-2,6,8,12-tetra-aza-1,7(1,4)-dibenzenacyclododecaphane
_symmetry_cell_setting           triclinic
_symmetry_space_group_name_H-M   'P -1'
_symmetry_Int_Tables_number      2
_space_group_name_Hall           '-P 1'
loop_
_symmetry_equiv_pos_site_id
_symmetry_equiv_pos_as_xyz
1 x,y,z
2 -x,-y,-z
_cell_length_a                   10.2619(3)
_cell_length_b                   11.3556(3)
_cell_length_c                   12.6191(3)
_cell_angle_alpha                104.5250(10)
_cell_angle_beta                 101.0890(10)
_cell_angle_gamma                91.0590(10)
_cell_volume                     1393.48
_exptl_crystal_colour            colorless
_exptl_crystal_description       block
_cell_formula_units_Z            2
loop_
_atom_site_label
_atom_site_type_symbol
_atom_site_fract_x
_atom_site_fract_y
_atom_site_fract_z
N1 N 1.06778(8) 0.76356(7) 0.83513(7)
N2 N 0.67985(8) 0.88140(7) 0.71974(7)
N3 N 0.78265(8) 0.78612(8) 0.28040(7)
N4 N 1.17404(8) 0.67638(7) 0.39889(7)
C1 C 1.05185(12) 0.67496(10) 0.99356(9)
H1 H 1.0479(15) 0.7509(14) 1.0555(13)
H2 H 1.0905(15) 0.6145(14) 1.0301(13)
H3 H 0.9590(16) 0.6457(14) 0.9518(13)
C2 C 1.27340(12) 0.76010(13) 0.97840(11)
H4 H 1.3291(17) 0.7711(15) 0.9250(14)
H5 H 1.3201(17) 0.7107(16) 1.0254(14)
H6 H 1.2614(17) 0.8410(16) 1.0318(15)
C3 C 1.13799(10) 0.69770(10) 0.91425(9)
H7 H 1.1533(13) 0.6191(12) 0.8671(11)
C4 C 1.03423(10) 0.88652(9) 0.88684(8)
H8 H 1.1113(13) 0.9498(12) 0.9042(10)
H9 H 1.0147(12) 0.8848(11) 0.9612(11)
C5 C 0.91331(10) 0.92658(9) 0.81621(8)
H10 H 0.9035(12) 1.0148(12) 0.8493(10)
H11 H 0.9299(12) 0.9212(11) 0.7420(11)
C6 C 0.78354(10) 0.85222(9) 0.80518(8)
H12 H 0.7999(12) 0.7636(12) 0.7911(10)
H13 H 0.7542(13) 0.8745(11) 0.8787(11)
C7 C 0.54077(9) 0.85705(9) 0.72963(8)
H14 H 0.4853(13) 0.8714(11) 0.6615(11)
C8 C 0.50835(11) 0.72507(10) 0.72954(10)
H15 H 0.5363(15) 0.6681(13) 0.6657(12)
H16 H 0.4122(15) 0.7102(13) 0.7213(12)
H17 H 0.5547(15) 0.7075(13) 0.7996(13)
C9 C 0.50687(11) 0.94725(10) 0.83073(9)
H18 H 0.5551(15) 0.9339(13) 0.9034(13)
H19 H 0.4124(15) 0.9365(13) 0.8289(12)
H20 H 0.5286(15) 1.0326(14) 0.8291(12)
C10 C 0.70160(9) 0.84619(8) 0.60847(8)
C11 C 0.64034(9) 0.90904(9) 0.53170(8)
H21 H 0.5832(13) 0.9729(12) 0.5581(10)
C12 C 0.66404(10) 0.88557(9) 0.42470(8)
H22 H 0.6229(12) 0.9331(11) 0.3736(11)
C13 C 0.75243(9) 0.79864(9) 0.38828(8)
C14 C 0.81172(10) 0.73481(9) 0.46386(8)
H23 H 0.8752(13) 0.6752(12) 0.4434(10)
C15 C 0.78679(9) 0.75750(9) 0.57132(8)
H24 H 0.8316(12) 0.7128(11) 0.6200(11)
C16 C 0.66979(11) 0.73263(10) 0.18662(9)
H25 H 0.5903(14) 0.7691(12) 0.2120(11)
C17 C 0.64893(13) 0.59432(11) 0.16289(11)
H26 H 0.7220(18) 0.5544(16) 0.1266(14)
H27 H 0.5637(18) 0.5640(16) 0.1096(15)
H28 H 0.6463(17) 0.5690(16) 0.2304(15)
C18 C 0.68307(13) 0.77161(13) 0.08169(10)
H29 H 0.7015(17) 0.8660(16) 0.0998(14)
H30 H 0.6012(18) 0.7464(15) 0.0258(14)
H31 H 0.7575(17) 0.7308(16) 0.0478(14)
C19 C 0.91208(10) 0.73800(10) 0.26728(9)
H32 H 0.9187(13) 0.7264(12) 0.1896(12)
H33 H 0.9233(13) 0.6565(12) 0.2837(11)
C20 C 1.02526(10) 0.82921(9) 0.33998(9)
H34 H 1.0276(13) 0.8992(12) 0.3083(11)
H35 H 1.0064(13) 0.8582(12) 0.4152(12)
C21 C 1.16288(10) 0.77871(9) 0.34671(9)
H36 H 1.1802(13) 0.7481(12) 0.2701(11)
H37 H 1.2327(13) 0.8451(12) 0.3852(11)
C22 C 1.27231(10) 0.58842(9) 0.36386(8)
H38 H 1.2760(13) 0.5298(12) 0.4115(11)
C23 C 1.22517(12) 0.51534(11) 0.24330(10)
H39 H 1.1339(17) 0.4751(15) 0.2333(13)
H40 H 1.2876(16) 0.4506(15) 0.2224(13)
H41 H 1.2227(16) 0.5675(15) 0.1906(14)
C24 C 1.41188(11) 0.64851(12) 0.38382(12)
H42 H 1.4147(17) 0.7018(15) 0.3328(14)
H43 H 1.4781(17) 0.5868(15) 0.3722(14)
H44 H 1.4405(17) 0.6980(16) 0.4612(15)
C25 C 1.16624(9) 0.70284(9) 0.51306(8)
C26 C 1.13626(9) 0.60642(9) 0.55814(8)
H45 H 1.1273(12) 0.5229(12) 0.5087(10)
C27 C 1.10932(9) 0.62736(9) 0.66371(8)
H46 H 1.0822(12) 0.5587(11) 0.6901(10)
C28 C 1.11209(9) 0.74627(9) 0.73292(8)
C29 C 1.14964(9) 0.84181(9) 0.69076(8)
H47 H 1.1552(12) 0.9270(12) 0.7352(10)
C30 C 1.17563(9) 0.82036(9) 0.58340(8)
H48 H 1.1975(12) 0.8896(12) 0.5565(10)
loop_
_geom_bond_atom_site_label_1
_geom_bond_atom_site_label_2
_geom_bond_site_symmetry_1
_geom_bond_site_symmetry_2
N1 C3 1_555 1_555
N2 C6 1_555 1_555
N3 C13 1_555 1_555
N4 C21 1_555 1_555
C1 H1 1_555 1_555
H2 C1 1_555 1_555
H3 C1 1_555 1_555
C2 H4 1_555 1_555
H5 C2 1_555 1_555
H6 C2 1_555 1_555
C3 C1 1_555 1_555
H7 C3 1_555 1_555
C4 N1 1_555 1_555
H8 C4 1_555 1_555
H9 C4 1_555 1_555
C5 C4 1_555 1_555
H10 C5 1_555 1_555
H11 C5 1_555 1_555
C6 C5 1_555 1_555
H12 C6 1_555 1_555
H13 C6 1_555 1_555
C7 N2 1_555 1_555
H14 C7 1_555 1_555
C8 C7 1_555 1_555
H15 C8 1_555 1_555
H16 C8 1_555 1_555
H17 C8 1_555 1_555
C9 C7 1_555 1_555
H18 C9 1_555 1_555
H19 C9 1_555 1_555
H20 C9 1_555 1_555
C10 N2 1_555 1_555
C11 C10 1_555 1_555
H21 C11 1_555 1_555
C12 C11 1_555 1_555
H22 C12 1_555 1_555
C13 C12 1_555 1_555
C14 C13 1_555 1_555
H23 C14 1_555 1_555
C15 C10 1_555 1_555
H24 C15 1_555 1_555
C16 N3 1_555 1_555
H25 C16 1_555 1_555
C17 C16 1_555 1_555
H26 C17 1_555 1_555
H27 C17 1_555 1_555
H28 C17 1_555 1_555
C18 C16 1_555 1_555
H29 C18 1_555 1_555
H30 C18 1_555 1_555
H31 C18 1_555 1_555
C19 N3 1_555 1_555
H32 C19 1_555 1_555
H33 C19 1_555 1_555
C20 C19 1_555 1_555
H34 C20 1_555 1_555
H35 C20 1_555 1_555
C21 C20 1_555 1_555
H36 C21 1_555 1_555
H37 C21 1_555 1_555
C22 N4 1_555 1_555
H38 C22 1_555 1_555
C23 C22 1_555 1_555
H39 C23 1_555 1_555
H40 C23 1_555 1_555
H41 C23 1_555 1_555
C24 C22 1_555 1_555
H42 C24 1_555 1_555
H43 C24 1_555 1_555
H44 C24 1_555 1_555
C25 N4 1_555 1_555
C26 C25 1_555 1_555
H45 C26 1_555 1_555
C27 C26 1_555 1_555
H46 C27 1_555 1_555
C28 N1 1_555 1_555
C29 C28 1_555 1_555
H47 C29 1_555 1_555
C30 C25 1_555 1_555
H48 C30 1_555 1_555
C2 C3 1_555 1_555
C14 C15 1_555 1_555
C27 C28 1_555 1_555
C29 C30 1_555 1_555

#END
