
#######################################################################
#
#                 Cambridge Crystallographic Data Centre
#                                CCDC 
#
#######################################################################
#
# If this CIF has been generated from an entry in the Cambridge 
# Structural Database, then it will include bibliographic, chemical, 
# crystal, experimental, refinement or atomic coordinate data resulting 
# from the CCDC's data processing and validation procedures.
#
#######################################################################

data_LOKXUF
_chemical_formula_moiety         
'C54 H13 D5 F20 N6 O1 2+,2(C2 F3 O2 1-),2.92(C2 D1 F3 O2)'
_chemical_name_systematic        
'5,10,20,25-tetrakis(Pentafluorophenyl)-31,32,33,34,36-pentadeuterohexaphyrin(1.1.1.1.1.1)-15-one-32,36-di-ium bis(trifluoroacetate) deutero-trifluoroacetic acid solvate'
_symmetry_cell_setting           triclinic
_symmetry_space_group_name_H-M   'P -1'
_symmetry_Int_Tables_number      2
_space_group_name_Hall           '-P 1'
loop_
_symmetry_equiv_pos_site_id
_symmetry_equiv_pos_as_xyz
1 x,y,z
2 -x,-y,-z
_cell_length_a                   12.647(5)
_cell_length_b                   14.656(7)
_cell_length_c                   19.176(7)
_cell_angle_alpha                69.389(14)
_cell_angle_beta                 76.860(15)
_cell_angle_gamma                77.937(17)
_cell_volume                     3207.15
_exptl_crystal_colour            brown
_exptl_crystal_description       prism
_cell_formula_units_Z            2
loop_
_atom_site_label
_atom_site_type_symbol
_atom_site_fract_x
_atom_site_fract_y
_atom_site_fract_z
F1 F 0.1319(3) -0.4253(2) 0.24242(17)
F4 F 0.0818(5) -0.5921(2) 0.3485(2)
F7 F -0.0722(3) -0.5883(2) 0.47214(17)
F10 F -0.1786(2) -0.4153(2) 0.48587(15)
F11 F -0.1324(2) -0.2461(2) 0.37827(14)
F12 F 0.3630(2) -0.0062(2) 0.32814(14)
F13 F 0.3896(2) 0.0563(3) 0.43879(15)
F14 F 0.2254(3) 0.1734(2) 0.49642(14)
F15 F 0.0308(3) 0.22419(19) 0.44671(14)
F16 F 0.0045(2) 0.16650(18) 0.33332(13)
F17 F 0.6091(3) 0.2601(3) -0.3076(3)
F18 F 0.7112(3) 0.4147(3) -0.3981(4)
F19 F 0.5919(3) 0.5863(2) -0.46652(17)
F20 F 0.3733(3) 0.6013(3) -0.4440(2)
F21 F 0.2713(3) 0.4466(3) -0.3526(3)
F22 F 0.4399(2) -0.1415(2) -0.32001(14)
F23 F 0.4690(2) -0.2226(2) -0.43085(16)
F24 F 0.3069(2) -0.1885(2) -0.51177(14)
F25 F 0.1176(2) -0.07063(19) -0.48345(12)
F26 F 0.09189(18) 0.01580(18) -0.37691(12)
O1 O 0.1323(2) -0.0055(2) -0.01559(15)
N1 N 0.0711(2) -0.1440(2) 0.11545(14)
D1 D 0.1057 -0.1003 0.1194
N2 N 0.0990(2) -0.0822(2) 0.23987(15)
D2 D 0.0893 -0.0485 0.1931
N3 N 0.2010(2) 0.0831(2) 0.12878(15)
D3 D 0.1950 0.0245 0.1285
N4 N 0.3072(2) 0.1937(2) -0.13811(15)
D4 D 0.2973 0.1376 -0.1410
N5 N 0.3056(2) 0.1188(2) -0.25648(16)
N6 N 0.1725(2) -0.0286(2) -0.15287(15)
D5 D 0.2004 0.0204 -0.1507
C1 C 0.0552(2) -0.1494(3) 0.04946(17)
C4 C -0.0065(3) -0.2261(3) 0.06728(19)
H1 H -0.0309 -0.2460 0.0322
C7 C -0.0255(3) -0.2674(3) 0.1448(2)
H2 H -0.0656 -0.3207 0.1728
C8 C 0.0253(3) -0.2163(2) 0.17488(18)
C9 C 0.0353(3) -0.2356(2) 0.25071(18)
C10 C 0.0764(3) -0.1771(2) 0.27886(17)
C11 C 0.1041(3) -0.2037(3) 0.35250(18)
H3 H 0.0970 -0.2648 0.3916
C12 C 0.1420(3) -0.1264(3) 0.35636(19)
H4 H 0.1668 -0.1236 0.3987
C13 C 0.1384(3) -0.0494(3) 0.28551(17)
C14 C 0.1676(3) 0.0455(3) 0.26538(17)
C15 C 0.1871(3) 0.1097(3) 0.19227(18)
C16 C 0.1974(3) 0.2114(3) 0.1675(2)
H5 H 0.1898 0.2504 0.1993
C17 C 0.2195(3) 0.2431(3) 0.0916(2)
H6 H 0.2294 0.3085 0.0604
C18 C 0.2257(3) 0.1612(3) 0.06587(18)
C19 C 0.2535(3) 0.1477(3) -0.00471(18)
H7 H 0.2499 0.0843 -0.0063
C20 C 0.2861(3) 0.2179(3) -0.07309(19)
C21 C 0.3070(3) 0.3171(3) -0.0936(2)
H8 H 0.2959 0.3550 -0.0606
C22 C 0.3454(3) 0.3471(3) -0.1690(2)
H9 H 0.3682 0.4093 -0.1979
C23 C 0.3458(3) 0.2694(3) -0.19758(19)
C24 C 0.3804(3) 0.2665(3) -0.27130(18)
C25 C 0.3656(3) 0.1917(3) -0.29780(18)
C26 C 0.4103(3) 0.1857(3) -0.37349(19)
H10 H 0.4547 0.2290 -0.4127
C27 C 0.3760(3) 0.1068(3) -0.37642(19)
H11 H 0.3921 0.0826 -0.4181
C28 C 0.3097(3) 0.0655(3) -0.30351(18)
C29 C 0.2516(3) -0.0131(3) -0.28562(18)
C30 C 0.1838(3) -0.0545(3) -0.21646(18)
C31 C 0.1233(3) -0.1327(3) -0.1962(2)
H12 H 0.1145 -0.1654 -0.2289
C32 C 0.0789(3) -0.1538(3) -0.1206(2)
H13 H 0.0338 -0.2033 -0.0921
C33 C 0.1120(3) -0.0896(3) -0.09357(18)
C34 C 0.1011(3) -0.0781(3) -0.01975(18)
C35 C 0.0024(3) -0.3297(3) 0.30707(18)
C36 C 0.0533(4) -0.4202(3) 0.3016(2)
C37 C 0.0296(5) -0.5071(3) 0.3554(3)
C38 C -0.0491(4) -0.5039(4) 0.4188(2)
C39 C -0.1023(3) -0.4171(3) 0.4252(2)
C40 C -0.0779(3) -0.3303(3) 0.3703(2)
C41 C 0.1823(3) 0.0790(3) 0.32729(17)
C42 C 0.2806(3) 0.0528(3) 0.3551(2)
C43 C 0.2955(4) 0.0841(3) 0.4116(2)
C44 C 0.2115(4) 0.1433(3) 0.4408(2)
C45 C 0.1126(4) 0.1695(3) 0.4167(2)
C46 C 0.1008(3) 0.1376(3) 0.35865(19)
C47 C 0.4371(3) 0.3502(3) -0.32562(19)
C48 C 0.5508(4) 0.3440(4) -0.3394(3)
C49 C 0.6021(4) 0.4230(4) -0.3861(4)
C50 C 0.5427(4) 0.5098(3) -0.4215(2)
C51 C 0.4322(4) 0.5177(3) -0.4098(2)
C52 C 0.3815(4) 0.4374(3) -0.3628(2)
C53 C 0.2649(3) -0.0612(3) -0.34481(18)
C54 C 0.3597(3) -0.1234(3) -0.3599(2)
C55 C 0.3755(3) -0.1656(3) -0.4156(2)
C56 C 0.2927(3) -0.1480(3) -0.45683(19)
C57 C 0.1976(3) -0.0887(3) -0.44268(18)
C58 C 0.1852(3) -0.0451(3) -0.38781(18)
F2 F 0.4496(3) -0.3037(4) 0.0889(4)
F5 F 0.3369(15) -0.3112(6) 0.1799(7)
F8 F 0.2889(4) -0.2639(6) 0.0807(8)
O2 O 0.4559(3) -0.1345(3) 0.1085(4)
O4 O 0.2770(2) -0.1019(2) 0.1153(2)
C2 C 0.3629(3) -0.1529(4) 0.1114(3)
C5 C 0.3606(4) -0.2569(5) 0.1129(5)
F3 F 0.5269(3) -0.2282(3) -0.0777(3)
F6 F 0.3853(3) -0.1830(3) -0.1290(3)
F9 F 0.5439(4) -0.1561(4) -0.1953(3)
O3 O 0.5531(3) -0.0300(3) -0.1227(3)
O5 O 0.3720(2) -0.0171(3) -0.1006(2)
C3 C 0.4623(3) -0.0594(3) -0.1140(3)
C6 C 0.4780(4) -0.1599(4) -0.1281(4)
F30 F 0.3203(11) 0.4444(11) 0.3132(7)
F31 F 0.4923(13) 0.3893(15) 0.2633(12)
F32 F 0.3631(10) 0.2913(7) 0.2999(9)
C61 C 0.309(3) 0.411(3) 0.2242(14)
C62 C 0.3873(15) 0.3807(12) 0.2832(17)
O8 O 0.308(2) 0.4441(19) 0.1555(13)
O9 O 0.242(2) 0.349(2) 0.2446(16)
F33 F 0.8038(7) 0.2914(5) 0.2828(5)
F34 F 0.8491(10) 0.3572(8) 0.3478(6)
F35 F 0.7285(10) 0.4287(8) 0.2741(7)
C63 C 0.9074(12) 0.4161(10) 0.2200(10)
C64 C 0.8173(12) 0.3747(8) 0.2694(12)
O10 O 0.9669(7) 0.3565(9) 0.1864(7)
O11 O 0.8958(10) 0.5051(8) 0.2190(8)
F36 F 0.7860(14) 0.3478(11) 0.0287(9)
F37 F 0.675(2) 0.5028(18) 0.0090(12)
F38 F 0.768(2) 0.4334(17) 0.1083(13)
C65 C 0.762(3) 0.442(2) 0.032(3)
C66 C 0.876(3) 0.467(3) -0.0258(11)
O12 O 0.875(4) 0.515(3) -0.0946(13)
O13 O 0.948(2) 0.410(2) 0.0120(16)
C59? C 0.347(3) 0.371(3) 0.2867(14)
C60? C 0.4394(18) 0.402(2) 0.2267(14)
O6? O 0.286(2) 0.361(2) 0.2479(14)
O7? O 0.3540(17) 0.3195(17) 0.3557(12)
F27? F 0.391(2) 0.4306(18) 0.1678(13)
F28? F 0.529(2) 0.3404(16) 0.2221(16)
F29? F 0.4635(17) 0.4782(11) 0.2472(10)
O14? O 0.991(2) 0.364(2) 0.247(2)
O15? O 0.883(3) 0.523(3) 0.017(2)
O16? O 0.935(2) 0.4930(13) 0.1784(13)
O17? O 0.877(2) 0.498(2) -0.0971(9)
loop_
_geom_bond_atom_site_label_1
_geom_bond_atom_site_label_2
_geom_bond_site_symmetry_1
_geom_bond_site_symmetry_2
F1 C36 1_555 1_555
F2 C5 1_555 1_555
F3 C6 1_555 1_555
F4 C37 1_555 1_555
F5 C5 1_555 1_555
F6 C6 1_555 1_555
F7 C38 1_555 1_555
F8 C5 1_555 1_555
F9 C6 1_555 1_555
F10 C39 1_555 1_555
F11 C40 1_555 1_555
F12 C42 1_555 1_555
F13 C43 1_555 1_555
F14 C44 1_555 1_555
F15 C45 1_555 1_555
F16 C46 1_555 1_555
F17 C48 1_555 1_555
F18 C49 1_555 1_555
F19 C50 1_555 1_555
F20 C51 1_555 1_555
F21 C52 1_555 1_555
F22 C54 1_555 1_555
F23 C55 1_555 1_555
F24 C56 1_555 1_555
F25 C57 1_555 1_555
F26 C58 1_555 1_555
O1 C34 1_555 1_555
O2 C2 1_555 1_555
O3 C3 1_555 1_555
O4 C2 1_555 1_555
O5 C3 1_555 1_555
N1 D1 1_555 1_555
N2 D2 1_555 1_555
N3 D3 1_555 1_555
N4 D4 1_555 1_555
N5 C25 1_555 1_555
N6 D5 1_555 1_555
C1 N1 1_555 1_555
C2 C5 1_555 1_555
C3 C6 1_555 1_555
C4 C1 1_555 1_555
H1 C4 1_555 1_555
C7 C4 1_555 1_555
H2 C7 1_555 1_555
C8 N1 1_555 1_555
C9 C8 1_555 1_555
C10 N2 1_555 1_555
C11 C10 1_555 1_555
H3 C11 1_555 1_555
C12 C11 1_555 1_555
H4 C12 1_555 1_555
C13 N2 1_555 1_555
C14 C13 1_555 1_555
C15 N3 1_555 1_555
C16 C15 1_555 1_555
H5 C16 1_555 1_555
C17 C16 1_555 1_555
H6 C17 1_555 1_555
C18 N3 1_555 1_555
C19 C18 1_555 1_555
H7 C19 1_555 1_555
C20 N4 1_555 1_555
C21 C20 1_555 1_555
H8 C21 1_555 1_555
C22 C21 1_555 1_555
H9 C22 1_555 1_555
C23 N4 1_555 1_555
C24 C23 1_555 1_555
C25 C24 1_555 1_555
C26 C25 1_555 1_555
H10 C26 1_555 1_555
C27 C26 1_555 1_555
H11 C27 1_555 1_555
C28 N5 1_555 1_555
C29 C28 1_555 1_555
C30 N6 1_555 1_555
C31 C30 1_555 1_555
H12 C31 1_555 1_555
C32 C31 1_555 1_555
H13 C32 1_555 1_555
C33 N6 1_555 1_555
C34 C1 1_555 1_555
C35 C9 1_555 1_555
C36 C35 1_555 1_555
C37 C36 1_555 1_555
C38 C37 1_555 1_555
C39 C38 1_555 1_555
C40 C35 1_555 1_555
C41 C14 1_555 1_555
C42 C41 1_555 1_555
C43 C42 1_555 1_555
C44 C43 1_555 1_555
C45 C44 1_555 1_555
C46 C41 1_555 1_555
C47 C24 1_555 1_555
C48 C47 1_555 1_555
C49 C48 1_555 1_555
C50 C49 1_555 1_555
C51 C50 1_555 1_555
C52 C47 1_555 1_555
C53 C29 1_555 1_555
C54 C53 1_555 1_555
C55 C54 1_555 1_555
C56 C55 1_555 1_555
C57 C56 1_555 1_555
C58 C53 1_555 1_555
F30 C62 1_555 1_555
F31 C62 1_555 1_555
F32 C62 1_555 1_555
C61 C62 1_555 1_555
O8 C61 1_555 1_555
O9 C61 1_555 1_555
F33 C64 1_555 1_555
F34 C64 1_555 1_555
F35 C64 1_555 1_555
C63 C64 1_555 1_555
O10 C63 1_555 1_555
O11 C63 1_555 1_555
F36 C65 1_555 1_555
F37 C65 1_555 1_555
F38 C65 1_555 1_555
C65 C66 1_555 1_555
C66 O12 1_555 1_555
O13 C66 1_555 1_555
C7 C8 1_555 1_555
C9 C10 1_555 1_555
C12 C13 1_555 1_555
C14 C15 1_555 1_555
C17 C18 1_555 1_555
C19 C20 1_555 1_555
C22 C23 1_555 1_555
C27 C28 1_555 1_555
C29 C30 1_555 1_555
C32 C33 1_555 1_555
C33 C34 1_555 1_555
C39 C40 1_555 1_555
C45 C46 1_555 1_555
C51 C52 1_555 1_555
C57 C58 1_555 1_555

#END
