
#######################################################################
#
#                 Cambridge Crystallographic Data Centre
#                                CCDC 
#
#######################################################################
#
# If this CIF has been generated from an entry in the Cambridge 
# Structural Database, then it will include bibliographic, chemical, 
# crystal, experimental, refinement or atomic coordinate data resulting 
# from the CCDC's data processing and validation procedures.
#
#######################################################################

data_LOKZIU
_chemical_formula_moiety         'C21 H24 N2 O1'
_chemical_name_systematic        
N-[(R)-\a-Methylbenzyl]-(2S)-2-butyl-2-cyano-2-phenylacetamide
_symmetry_cell_setting           monoclinic
_symmetry_space_group_name_H-M   'C 2'
_symmetry_Int_Tables_number      5
_space_group_name_Hall           'C 2y'
loop_
_symmetry_equiv_pos_site_id
_symmetry_equiv_pos_as_xyz
1 x,y,z
2 -x,y,-z
3 1/2+x,1/2+y,z
4 1/2-x,1/2+y,-z
_cell_length_a                   20.003(4)
_cell_length_b                   8.612(4)
_cell_length_c                   11.063(2)
_cell_angle_alpha                90
_cell_angle_beta                 99.969(15)
_cell_angle_gamma                90
_cell_volume                     1877
_chemical_melting_point          100-103deg.C
_cell_formula_units_Z            4
_exptl_crystal_recrystallization_method methanol
loop_
_atom_site_label
_atom_site_type_symbol
_atom_site_fract_x
_atom_site_fract_y
_atom_site_fract_z
N1 N 0.4238(3) 0.5980(6) 1.0075(4)
N2 N 0.4799(2) 0.4713(6) 0.7465(4)
O1 O 0.3889(2) 0.3943(5) 0.6134(3)
C1 C 0.5493(3) 0.2374(6) 0.7271(5)
C2 C 0.5748(3) 0.1381(7) 0.6487(6)
C3 C 0.5934(4) -0.0142(8) 0.6861(8)
C4 C 0.5864(4) -0.0609(8) 0.8004(7)
C5 C 0.5620(3) 0.0364(9) 0.8789(7)
C6 C 0.5433(3) 0.1868(8) 0.8426(6)
C7 C 0.5294(3) 0.4024(7) 0.6820(5)
C8 C 0.5911(4) 0.5066(8) 0.6861(7)
C9 C 0.4140(3) 0.4614(6) 0.7067(4)
C10 C 0.3653(2) 0.5506(6) 0.7798(4)
C11 C 0.3986(3) 0.5794(7) 0.9073(5)
C12 C 0.3497(3) 0.7099(7) 0.7157(4)
C13 C 0.3999(3) 0.8208(7) 0.7253(6)
C14 C 0.3880(4) 0.9631(8) 0.6666(6)
C15 C 0.3258(3) 0.9946(8) 0.5991(6)
C16 C 0.2751(3) 0.8864(8) 0.5893(6)
C17 C 0.2871(3) 0.7418(7) 0.6482(5)
C18 C 0.3023(3) 0.4483(7) 0.7828(5)
C19 C 0.3175(3) 0.2956(6) 0.8525(5)
C20 C 0.2548(3) 0.1982(8) 0.8470(7)
C21 C 0.2685(4) 0.0425(9) 0.9138(7)
H1 H 0.4920(18) 0.5000(5) 0.8040(4)
H2 H 0.5797 0.1719 0.5708
H3 H 0.6103 -0.0820 0.6333
H4 H 0.5985 -0.1617 0.8253
H5 H 0.5579 0.0023 0.9570
H6 H 0.5267 0.2535 0.8965
H7 H 0.5080 0.3937 0.5957
H8 H 0.5766 0.6083 0.6571
H9 H 0.6205 0.4637 0.6348
H10 H 0.6150 0.5136 0.7690
H11 H 0.4424 0.8001 0.7717
H12 H 0.4224 1.0369 0.6733
H13 H 0.3177 1.0899 0.5598
H14 H 0.2327 0.9084 0.5435
H15 H 0.2527 0.6682 0.6415
H16 H 0.2699 0.5069 0.8204
H17 H 0.2811 0.4252 0.6991
H18 H 0.3512 0.2379 0.8174
H19 H 0.3364 0.3177 0.9375
H20 H 0.2356 0.1787 0.7617
H21 H 0.2216 0.2558 0.8832
H22 H 0.2267 -0.0143 0.9080
H23 H 0.2870 0.0608 0.9986
H24 H 0.3002 -0.0167 0.8767
loop_
_geom_bond_atom_site_label_1
_geom_bond_atom_site_label_2
_geom_bond_site_symmetry_1
_geom_bond_site_symmetry_2
N1 C11 1_555 1_555
N2 C7 1_555 1_555
O1 C9 1_555 1_555
C1 C2 1_555 1_555
C2 C3 1_555 1_555
C3 C4 1_555 1_555
C4 C5 1_555 1_555
C5 C6 1_555 1_555
C6 C1 1_555 1_555
C7 C1 1_555 1_555
C8 C7 1_555 1_555
C9 N2 1_555 1_555
C10 C9 1_555 1_555
C11 C10 1_555 1_555
C12 C10 1_555 1_555
C13 C12 1_555 1_555
C14 C13 1_555 1_555
C15 C14 1_555 1_555
C16 C15 1_555 1_555
C17 C12 1_555 1_555
C18 C10 1_555 1_555
C19 C18 1_555 1_555
C20 C19 1_555 1_555
C21 C20 1_555 1_555
H1 N2 1_555 1_555
H2 C2 1_555 1_555
H3 C3 1_555 1_555
H4 C4 1_555 1_555
H5 C5 1_555 1_555
H6 C6 1_555 1_555
H7 C7 1_555 1_555
H8 C8 1_555 1_555
H9 C8 1_555 1_555
H10 C8 1_555 1_555
H11 C13 1_555 1_555
H12 C14 1_555 1_555
H13 C15 1_555 1_555
H14 C16 1_555 1_555
H15 C17 1_555 1_555
H16 C18 1_555 1_555
H17 C18 1_555 1_555
H18 C19 1_555 1_555
H19 C19 1_555 1_555
H20 C20 1_555 1_555
H21 C20 1_555 1_555
H22 C21 1_555 1_555
H23 C21 1_555 1_555
H24 C21 1_555 1_555
C16 C17 1_555 1_555

#END
