
#######################################################################
#
#                 Cambridge Crystallographic Data Centre
#                                CCDC 
#
#######################################################################
#
# If this CIF has been generated from an entry in the Cambridge 
# Structural Database, then it will include bibliographic, chemical, 
# crystal, experimental, refinement or atomic coordinate data resulting 
# from the CCDC's data processing and validation procedures.
#
#######################################################################

data_LOLJIH
_chemical_formula_moiety         'C15 H24 O2'
_chemical_name_systematic        
4,12,12-trimethyl-9-methylene-5-oxatricyclo[8.2.0.0^4,6^]dodecan-11-ol
_symmetry_cell_setting           monoclinic
_symmetry_space_group_name_H-M   'P 21'
_symmetry_Int_Tables_number      4
_space_group_name_Hall           'P 2yb'
loop_
_symmetry_equiv_pos_site_id
_symmetry_equiv_pos_as_xyz
1 x,y,z
2 -x,1/2+y,-z
_cell_length_a                   7.0662(15)
_cell_length_b                   28.442(6)
_cell_length_c                   7.2340(15)
_cell_angle_alpha                90
_cell_angle_beta                 103.911(4)
_cell_angle_gamma                90
_cell_volume                     1411.23
_exptl_crystal_colour            colorless
_exptl_crystal_description       block
_cell_formula_units_Z            4
loop_
_atom_site_label
_atom_site_type_symbol
_atom_site_fract_x
_atom_site_fract_y
_atom_site_fract_z
O1 O 0.3082(3) 0.41761(8) 0.7281(3)
O2 O -0.3457(3) 0.38789(8) 0.0131(3)
H1 H -0.4503 0.3923 -0.0636
C1 C 0.2987(5) 0.42793(11) 0.5268(4)
C2 C 0.1430(4) 0.40112(11) 0.5805(4)
H2 H 0.0247 0.4197 0.5731
C3 C 0.1024(5) 0.34999(11) 0.5487(4)
H3 H 0.0462 0.3375 0.6483
H4 H 0.2228 0.3332 0.5520
C4 C -0.0404(5) 0.34333(11) 0.3538(4)
H5 H -0.0820 0.3108 0.3400
H6 H -0.1548 0.3626 0.3478
C5 C 0.0493(4) 0.35636(10) 0.1907(4)
C6 C 0.0047(4) 0.40323(10) 0.0887(4)
H7 H 0.1035 0.4082 0.0160
C7 C -0.0227(4) 0.45081(9) 0.1844(4)
H8 H -0.0899 0.4452 0.2861
C8 C 0.1509(5) 0.48364(11) 0.2590(4)
H9 H 0.2467 0.4783 0.1851
H10 H 0.1061 0.5158 0.2365
C9 C 0.2518(5) 0.47833(12) 0.4701(4)
H11 H 0.3715 0.4965 0.4977
H12 H 0.1679 0.4911 0.5460
C10 C 0.4600(5) 0.40590(14) 0.4546(5)
H13 H 0.5771 0.4240 0.4971
H14 H 0.4243 0.4052 0.3180
H15 H 0.4818 0.3744 0.5026
C11 C 0.1697(6) 0.32733(12) 0.1349(5)
H16 H 0.2003 0.2986 0.1958
H17 H 0.2242 0.3356 0.0345
C12 C -0.1964(4) 0.41135(10) -0.0493(4)
H18 H -0.1972 0.4045 -0.1823
C13 C -0.1760(4) 0.46492(10) -0.0011(4)
C14 C -0.0885(5) 0.49112(11) -0.1441(4)
H19 H -0.1800 0.4913 -0.2660
H20 H 0.0292 0.4757 -0.1549
H21 H -0.0595 0.5229 -0.1015
C15 C -0.3557(4) 0.49026(12) 0.0284(5)
H22 H -0.3197 0.5211 0.0790
H23 H -0.4109 0.4728 0.1161
H24 H -0.4499 0.4930 -0.0913
O3 O 1.0708(3) 0.17854(8) 0.9810(3)
O4 O 0.3500(3) 0.20702(8) 0.3270(3)
H25 H 0.2796 0.2009 0.2221
C16 C 0.8643(4) 0.16768(11) 0.9660(4)
C17 C 0.9232(4) 0.19446(11) 0.8166(4)
H26 H 0.9201 0.1756 0.7024
C18 C 0.8879(5) 0.24525(11) 0.7737(5)
H27 H 0.9916 0.2580 0.7220
H28 H 0.8861 0.2623 0.8895
C19 C 0.6906(5) 0.25085(11) 0.6282(5)
H29 H 0.6751 0.2833 0.5857
H30 H 0.6894 0.2313 0.5182
C20 C 0.5213(4) 0.23727(10) 0.7118(4)
C21 C 0.4216(4) 0.19067(10) 0.6675(4)
H31 H 0.3443 0.1855 0.7614
C22 C 0.5255(4) 0.14324(9) 0.6446(4)
H32 H 0.6345 0.1494 0.5861
C23 C 0.5947(4) 0.11118(10) 0.8167(4)
H33 H 0.5741 0.0788 0.7747
H34 H 0.5143 0.1169 0.9058
C24 C 0.8095(4) 0.11720(12) 0.9223(5)
H35 H 0.8340 0.0996 1.0404
H36 H 0.8914 0.1042 0.8450
C25 C 0.7855(5) 0.19049(14) 1.1194(4)
H37 H 0.8274 0.2227 1.1340
H38 H 0.8332 0.1741 1.2374
H39 H 0.6456 0.1893 1.0849
C26 C 0.4618(5) 0.26651(13) 0.8295(6)
H40 H 0.3597 0.2579 0.8831
H41 H 0.5223 0.2955 0.8584
C27 C 0.2857(4) 0.18181(11) 0.4680(4)
H42 H 0.1479 0.1873 0.4642
C28 C 0.3420(4) 0.12891(10) 0.4859(4)
C29 C 0.3864(5) 0.10622(13) 0.3112(4)
H43 H 0.4397 0.0754 0.3435
H44 H 0.4792 0.1251 0.2671
H45 H 0.2686 0.1038 0.2127
C30 C 0.1934(5) 0.10020(13) 0.5592(5)
H46 H 0.0747 0.0980 0.4615
H47 H 0.1676 0.1153 0.6692
H48 H 0.2442 0.0692 0.5929
loop_
_geom_bond_atom_site_label_1
_geom_bond_atom_site_label_2
_geom_bond_site_symmetry_1
_geom_bond_site_symmetry_2
O1 C1 1_555 1_555
O2 H1 1_555 1_555
C1 C2 1_555 1_555
C2 O1 1_555 1_555
H2 C2 1_555 1_555
C3 C2 1_555 1_555
H3 C3 1_555 1_555
H4 C3 1_555 1_555
C4 C3 1_555 1_555
H5 C4 1_555 1_555
H6 C4 1_555 1_555
C5 C4 1_555 1_555
C6 C5 1_555 1_555
H7 C6 1_555 1_555
C7 C6 1_555 1_555
H8 C7 1_555 1_555
C8 C7 1_555 1_555
H9 C8 1_555 1_555
H10 C8 1_555 1_555
C9 C1 1_555 1_555
H11 C9 1_555 1_555
H12 C9 1_555 1_555
C10 C1 1_555 1_555
H13 C10 1_555 1_555
H14 C10 1_555 1_555
H15 C10 1_555 1_555
C11 C5 1_555 1_555
H16 C11 1_555 1_555
H17 C11 1_555 1_555
C12 O2 1_555 1_555
H18 C12 1_555 1_555
C13 C7 1_555 1_555
C14 C13 1_555 1_555
H19 C14 1_555 1_555
H20 C14 1_555 1_555
H21 C14 1_555 1_555
C15 C13 1_555 1_555
H22 C15 1_555 1_555
H23 C15 1_555 1_555
H24 C15 1_555 1_555
O3 C16 1_555 1_555
O4 H25 1_555 1_555
C16 C17 1_555 1_555
C17 O3 1_555 1_555
H26 C17 1_555 1_555
C18 C17 1_555 1_555
H27 C18 1_555 1_555
H28 C18 1_555 1_555
C19 C18 1_555 1_555
H29 C19 1_555 1_555
H30 C19 1_555 1_555
C20 C19 1_555 1_555
C21 C20 1_555 1_555
H31 C21 1_555 1_555
C22 C21 1_555 1_555
H32 C22 1_555 1_555
C23 C22 1_555 1_555
H33 C23 1_555 1_555
H34 C23 1_555 1_555
C24 C16 1_555 1_555
H35 C24 1_555 1_555
H36 C24 1_555 1_555
C25 C16 1_555 1_555
H37 C25 1_555 1_555
H38 C25 1_555 1_555
H39 C25 1_555 1_555
C26 C20 1_555 1_555
H40 C26 1_555 1_555
H41 C26 1_555 1_555
C27 O4 1_555 1_555
H42 C27 1_555 1_555
C28 C22 1_555 1_555
C29 C28 1_555 1_555
H43 C29 1_555 1_555
H44 C29 1_555 1_555
H45 C29 1_555 1_555
C30 C28 1_555 1_555
H46 C30 1_555 1_555
H47 C30 1_555 1_555
H48 C30 1_555 1_555
C6 C12 1_555 1_555
C8 C9 1_555 1_555
C12 C13 1_555 1_555
C21 C27 1_555 1_555
C23 C24 1_555 1_555
C27 C28 1_555 1_555

#END
