
#######################################################################
#
#                 Cambridge Crystallographic Data Centre
#                                CCDC 
#
#######################################################################
#
# If this CIF has been generated from an entry in the Cambridge 
# Structural Database, then it will include bibliographic, chemical, 
# crystal, experimental, refinement or atomic coordinate data resulting 
# from the CCDC's data processing and validation procedures.
#
#######################################################################

data_LOLLIJ
_chemical_formula_moiety         'C38 H44 O9'
_chemical_name_systematic        
'3a,4-Diacetoxy-2,5,8,8,12-pentamethyl-9-oxo-2,3,3a,4,5,8,9,10,11,13a-decahydro-1H-cyclopenta[12]annulene-1,11-diyl dibenzoate'
_symmetry_cell_setting           orthorhombic
_symmetry_space_group_name_H-M   'P 21 21 21'
_symmetry_Int_Tables_number      19
_space_group_name_Hall           'P 2ac 2ab'
loop_
_symmetry_equiv_pos_site_id
_symmetry_equiv_pos_as_xyz
1 x,y,z
2 1/2-x,-y,1/2+z
3 -x,1/2+y,1/2-z
4 1/2+x,1/2-y,-z
_cell_length_a                   8.8209(18)
_cell_length_b                   18.434(4)
_cell_length_c                   22.947(5)
_cell_angle_alpha                90
_cell_angle_beta                 90
_cell_angle_gamma                90
_cell_volume                     3731.28
_cell_formula_units_Z            4
loop_
_atom_site_label
_atom_site_type_symbol
_atom_site_fract_x
_atom_site_fract_y
_atom_site_fract_z
O1 O 0.43886(16) 0.82209(8) 0.19887(6)
O2 O 0.16648(17) 0.78785(8) 0.25861(6)
O3 O -0.0217(2) 0.71706(10) 0.29158(7)
O4 O 0.30902(19) 0.85026(9) 0.05009(6)
C1 C 0.1131(3) 0.77774(11) 0.19932(8)
H1 H 0.0025 0.7818 0.1974
C2 C 0.1887(2) 0.83555(11) 0.16162(8)
H2 H 0.1331 0.8368 0.1247
O5 O 0.0322(2) 1.01453(10) 0.26814(7)
C3 C 0.0888(3) 0.75469(12) 0.30085(9)
C4 C 0.5314(3) 0.89965(11) 0.09470(9)
H3 H 0.6048 0.8908 0.1259
C5 C 0.1766(2) 0.91012(11) 0.18781(8)
H4 H 0.2432 0.9209 0.2180
C6 C 0.3464(2) 0.80463(11) 0.14810(9)
O6 O 0.6423(2) 0.75698(12) 0.17015(9)
O7 O 0.2001(2) 1.10562(11) 0.11493(8)
C7 C 0.4572(3) 0.97133(12) 0.10671(9)
H5 H 0.3646 0.9808 0.0888
C8 C 0.4255(3) 0.83351(12) 0.09172(9)
H6 H 0.4848 0.7933 0.0756
C9 C 0.2860(3) 1.09350(12) 0.15506(10)
C10 C 0.5805(3) 0.79569(14) 0.20466(10)
O8 O 0.3697(3) 0.75663(13) -0.00794(9)
C11 C 0.5142(3) 1.02143(12) 0.14077(9)
H7 H 0.5979 1.0085 0.1631
C12 C 0.3152(3) 0.72222(12) 0.14318(12)
H8 H 0.3082 0.7083 0.1025
H9 H 0.3973 0.6951 0.1609
C13 C 0.0817(3) 0.96170(13) 0.17241(10)
C14 C 0.15053(17) 0.76946(9) 0.35908(5)
C15 C 0.08677(18) 0.73390(9) 0.40654(6)
H10 H 0.0083 0.7009 0.4009
C16 C 0.1402(2) 0.74762(11) 0.46245(5)
H11 H 0.0976 0.7238 0.4942
C17 C 0.2575(2) 0.79690(13) 0.47089(5)
H12 H 0.2933 0.8061 0.5083
C18 C 0.32123(19) 0.83246(11) 0.42343(7)
H13 H 0.3997 0.8654 0.4291
C19 C 0.26776(18) 0.81875(9) 0.36753(6)
H14 H 0.3104 0.8425 0.3358
C20 C 0.1666(3) 0.70546(12) 0.17422(9)
H15 H 0.1864 0.6717 0.2063
C21 C 0.6197(3) 0.90423(16) 0.03744(11)
H16 H 0.6854 0.9457 0.0383
H17 H 0.5499 0.9088 0.0055
H18 H 0.6791 0.8610 0.0325
C22 C 0.2265(3) 1.06934(13) 0.21293(10)
H19 H 0.2151 1.1112 0.2381
H20 H 0.2992 1.0368 0.2309
O9 O -0.2102(3) 1.01330(19) 0.24097(12)
C23 C 0.5317(4) 1.13470(16) 0.20074(14)
H21 H 0.5061 1.1079 0.2352
H22 H 0.4960 1.1837 0.2045
H23 H 0.6398 1.1348 0.1958
C24 C 0.4961(4) 1.14170(16) 0.09187(13)
H24 H 0.4482 1.1195 0.0588
H25 H 0.6040 1.1417 0.0864
H26 H 0.4609 1.1907 0.0958
C25 C 0.0768(3) 1.03135(13) 0.20761(10)
H27 H 0.0023 1.0645 0.1904
C26 C 0.6521(3) 0.82418(19) 0.25890(12)
H28 H 0.7526 0.8048 0.2626
H29 H 0.5926 0.8100 0.2920
H30 H 0.6571 0.8761 0.2570
C27 C 0.4565(3) 1.09875(12) 0.14720(10)
C28 C -0.1167(4) 1.00420(15) 0.27784(13)
C29 C 0.0473(4) 0.67311(18) 0.13439(14)
H31 H -0.0439 0.6645 0.1561
H32 H 0.0839 0.6281 0.1187
H33 H 0.0265 0.7062 0.1031
C30 C -0.1534(3) 0.98328(13) 0.33725(8)
C31 C -0.0443(3) 0.95053(16) 0.37215(12)
H34 H 0.0535 0.9437 0.3580
C32 C -0.0813(5) 0.92805(19) 0.42819(11)
H35 H -0.0083 0.9061 0.4515
C33 C -0.2274(5) 0.93832(19) 0.44933(10)
H36 H -0.2522 0.9233 0.4868
C34 C -0.3365(4) 0.9711(2) 0.41442(15)
H37 H -0.4342 0.9779 0.4286
C35 C -0.2995(3) 0.99355(16) 0.35838(14)
H38 H -0.3725 1.0155 0.3350
C36 C -0.0254(4) 0.9582(2) 0.12131(15)
H39 H -0.0137 0.9125 0.1018
H40 H -0.0028 0.9969 0.0947
H41 H -0.1278 0.9630 0.1349
C37 C 0.2982(4) 0.80984(17) 0.00098(11)
C38 C 0.1839(4) 0.8418(2) -0.03934(13)
H42 H 0.1780 0.8129 -0.0741
H43 H 0.2135 0.8903 -0.0494
H44 H 0.0867 0.8427 -0.0206
loop_
_geom_bond_atom_site_label_1
_geom_bond_atom_site_label_2
_geom_bond_site_symmetry_1
_geom_bond_site_symmetry_2
O1 C6 1_555 1_555
O2 C1 1_555 1_555
O3 C3 1_555 1_555
O4 C8 1_555 1_555
C1 H1 1_555 1_555
C2 C1 1_555 1_555
H2 C2 1_555 1_555
O5 C25 1_555 1_555
C3 O2 1_555 1_555
C4 H3 1_555 1_555
C5 C2 1_555 1_555
H4 C5 1_555 1_555
C6 C2 1_555 1_555
O6 C10 1_555 1_555
O7 C9 1_555 1_555
C7 C4 1_555 1_555
H5 C7 1_555 1_555
C8 C4 1_555 1_555
H6 C8 1_555 1_555
C9 C22 1_555 1_555
C10 O1 1_555 1_555
O8 C37 1_555 1_555
C11 C7 1_555 1_555
H7 C11 1_555 1_555
C12 C6 1_555 1_555
H8 C12 1_555 1_555
H9 C12 1_555 1_555
C13 C5 1_555 1_555
C14 C3 1_555 1_555
C15 C14 1_555 1_555
H10 C15 1_555 1_555
C16 C15 1_555 1_555
H11 C16 1_555 1_555
C17 C16 1_555 1_555
H12 C17 1_555 1_555
C18 C17 1_555 1_555
H13 C18 1_555 1_555
C19 C14 1_555 1_555
H14 C19 1_555 1_555
C20 C1 1_555 1_555
H15 C20 1_555 1_555
C21 C4 1_555 1_555
H16 C21 1_555 1_555
H17 C21 1_555 1_555
H18 C21 1_555 1_555
C22 H19 1_555 1_555
H20 C22 1_555 1_555
O9 C28 1_555 1_555
C23 H21 1_555 1_555
H22 C23 1_555 1_555
H23 C23 1_555 1_555
C24 H24 1_555 1_555
H25 C24 1_555 1_555
H26 C24 1_555 1_555
C25 C13 1_555 1_555
H27 C25 1_555 1_555
C26 C10 1_555 1_555
H28 C26 1_555 1_555
H29 C26 1_555 1_555
H30 C26 1_555 1_555
C27 C9 1_555 1_555
C28 O5 1_555 1_555
C29 C20 1_555 1_555
H31 C29 1_555 1_555
H32 C29 1_555 1_555
H33 C29 1_555 1_555
C30 C28 1_555 1_555
C31 C30 1_555 1_555
H34 C31 1_555 1_555
C32 C31 1_555 1_555
H35 C32 1_555 1_555
C33 C32 1_555 1_555
H36 C33 1_555 1_555
C34 C33 1_555 1_555
H37 C34 1_555 1_555
C35 C30 1_555 1_555
H38 C35 1_555 1_555
C36 C13 1_555 1_555
H39 C36 1_555 1_555
H40 C36 1_555 1_555
H41 C36 1_555 1_555
C37 O4 1_555 1_555
C38 C37 1_555 1_555
H42 C38 1_555 1_555
H43 C38 1_555 1_555
H44 C38 1_555 1_555
C6 C8 1_555 1_555
C11 C27 1_555 1_555
C12 C20 1_555 1_555
C18 C19 1_555 1_555
C22 C25 1_555 1_555
C23 C27 1_555 1_555
C24 C27 1_555 1_555
C34 C35 1_555 1_555

#END
