
#######################################################################
#
#                 Cambridge Crystallographic Data Centre
#                                CCDC 
#
#######################################################################
#
# If this CIF has been generated from an entry in the Cambridge 
# Structural Database, then it will include bibliographic, chemical, 
# crystal, experimental, refinement or atomic coordinate data resulting 
# from the CCDC's data processing and validation procedures.
#
#######################################################################

data_LOLMEG
_chemical_compound_source        
'whole body of the American cockroach Periplaneta americana'
_chemical_name_common            'Periplanetin A'
_chemical_formula_moiety         'C11 H10 O5'
_chemical_name_systematic        
6,8-Dihydroxy-3-methyl-1-oxo-3,4-dihydro-1H-isochromene-7-carbaldehyde
_symmetry_cell_setting           monoclinic
_symmetry_space_group_name_H-M   'P 21'
_symmetry_Int_Tables_number      4
_space_group_name_Hall           'P 2yb'
loop_
_symmetry_equiv_pos_site_id
_symmetry_equiv_pos_as_xyz
1 x,y,z
2 -x,1/2+y,-z
_cell_length_a                   7.2672(2)
_cell_length_b                   12.3723(2)
_cell_length_c                   11.3200(2)
_cell_angle_alpha                90
_cell_angle_beta                 108.671(2)
_cell_angle_gamma                90
_cell_volume                     964.239
_exptl_crystal_colour            colorless
_exptl_crystal_description       block
_chemical_melting_point          '152-153 deg.C'
_cell_formula_units_Z            4
loop_
_atom_site_label
_atom_site_type_symbol
_atom_site_fract_x
_atom_site_fract_y
_atom_site_fract_z
O1 O 0.55755(15) 0.39710(7) 0.17760(8)
O2 O 0.53168(14) 0.49818(7) 0.01344(8)
O3 O 0.56988(15) 0.86490(8) 0.41116(9)
H1 H 0.5645 0.8513 0.4809
O4 O 0.53512(17) 0.74509(8) 0.59056(9)
O5 O 0.53608(14) 0.48147(7) 0.38250(8)
H2 H 0.5393 0.4331 0.3337
C1 C 0.54950(17) 0.48872(10) 0.13498(11)
C2 C 0.47129(19) 0.60406(10) -0.04770(11)
H3 H 0.3347 0.6167 -0.0557
C3 C 0.59359(19) 0.69226(11) 0.03188(11)
H4 H 0.7282 0.6829 0.0363
H5 H 0.5501 0.7621 -0.0056
C4 C 0.58484(19) 0.78053(11) 0.23026(12)
H6 H 0.5997 0.8478 0.1978
C5 C 0.56950(18) 0.77270(11) 0.34970(11)
C6 C 0.55251(19) 0.67138(12) 0.40236(12)
C7 C 0.54911(18) 0.57751(11) 0.33105(12)
C8 C 0.55725(17) 0.58613(11) 0.20914(12)
C9 C 0.57790(17) 0.68885(11) 0.16078(11)
C10 C 0.5361(2) 0.66503(12) 0.52705(12)
H7 H 0.5259 0.5972 0.5599
C11 C 0.4903(2) 0.59631(12) -0.17583(12)
H8 H 0.4097 0.5387 -0.2211
H9 H 0.6233 0.5820 -0.1689
H10 H 0.4502 0.6632 -0.2194
O6 O 0.00477(15) 0.17006(7) 0.17335(8)
O7 O -0.03760(13) 0.26732(7) 0.00448(8)
O8 O 0.06204(16) 0.64268(7) 0.40061(9)
H11 H 0.0601 0.6310 0.4715
O9 O 0.01587(17) 0.52738(8) 0.58318(9)
O10 O -0.00746(15) 0.26072(8) 0.37783(8)
H12 H -0.0041 0.2107 0.3310
C12 C -0.00537(18) 0.26088(11) 0.12804(11)
C13 C -0.08976(18) 0.37341(10) -0.05684(11)
H13 H -0.2231 0.3916 -0.0615
C14 C 0.04679(19) 0.45820(11) 0.01903(11)
H14 H 0.1781 0.4428 0.0200
H15 H 0.0102 0.5286 -0.0189
C15 C 0.05766(19) 0.55313(11) 0.21807(13)
H16 H 0.0765 0.6188 0.1836
C16 C 0.04732(18) 0.54926(10) 0.33921(11)
C17 C 0.02167(19) 0.45009(11) 0.39362(12)
C18 C 0.01009(18) 0.35437(10) 0.32400(12)
C19 C 0.01463(18) 0.35928(11) 0.20121(12)
C20 C 0.03995(17) 0.45967(10) 0.15024(11)
C21 C 0.0076(2) 0.44651(12) 0.51849(12)
H17 H -0.0085 0.3796 0.5514
C22 C -0.0790(2) 0.36143(12) -0.18723(11)
H18 H -0.1676 0.3061 -0.2306
H19 H 0.0508 0.3419 -0.1830
H20 H -0.1134 0.4287 -0.2310
loop_
_geom_bond_atom_site_label_1
_geom_bond_atom_site_label_2
_geom_bond_site_symmetry_1
_geom_bond_site_symmetry_2
O1 C1 1_555 1_555
O2 C1 1_555 1_555
O3 H1 1_555 1_555
O4 C10 1_555 1_555
O5 H2 1_555 1_555
C1 C8 1_555 1_555
C2 O2 1_555 1_555
H3 C2 1_555 1_555
C3 C2 1_555 1_555
H4 C3 1_555 1_555
H5 C3 1_555 1_555
C4 H6 1_555 1_555
C5 O3 1_555 1_555
C6 C5 1_555 1_555
C7 O5 1_555 1_555
C8 C7 1_555 1_555
C9 C3 1_555 1_555
C10 C6 1_555 1_555
H7 C10 1_555 1_555
C11 C2 1_555 1_555
H8 C11 1_555 1_555
H9 C11 1_555 1_555
H10 C11 1_555 1_555
O6 C12 1_555 1_555
O7 C12 1_555 1_555
O8 H11 1_555 1_555
O9 C21 1_555 1_555
O10 H12 1_555 1_555
C12 C19 1_555 1_555
C13 O7 1_555 1_555
H13 C13 1_555 1_555
C14 C13 1_555 1_555
H14 C14 1_555 1_555
H15 C14 1_555 1_555
C15 H16 1_555 1_555
C16 O8 1_555 1_555
C17 C16 1_555 1_555
C18 O10 1_555 1_555
C19 C18 1_555 1_555
C20 C14 1_555 1_555
C21 C17 1_555 1_555
H17 C21 1_555 1_555
C22 C13 1_555 1_555
H18 C22 1_555 1_555
H19 C22 1_555 1_555
H20 C22 1_555 1_555
C4 C5 1_555 1_555
C4 C9 1_555 1_555
C6 C7 1_555 1_555
C8 C9 1_555 1_555
C15 C16 1_555 1_555
C15 C20 1_555 1_555
C17 C18 1_555 1_555
C19 C20 1_555 1_555

#END
