
#######################################################################
#
#                 Cambridge Crystallographic Data Centre
#                                CCDC 
#
#######################################################################
#
# If this CIF has been generated from an entry in the Cambridge 
# Structural Database, then it will include bibliographic, chemical, 
# crystal, experimental, refinement or atomic coordinate data resulting 
# from the CCDC's data processing and validation procedures.
#
#######################################################################

data_LOLNUX
_chemical_compound_source        
'cultures of basidiomycete Trichaptum pargamenum'
_chemical_name_common            
(+)-(1R,3R,6S,7S,11R)-3,12-Dihydroxy-alpha-muurolene
_chemical_formula_moiety         'C15 H24 O2'
_chemical_name_systematic        
5-(1-Hydroxypropan-2-yl)-3,8-dimethyl-1,2,4a,5,6,8a-hexahydronaphthalen-2-ol
_symmetry_cell_setting           monoclinic
_symmetry_space_group_name_H-M   'P 21'
_symmetry_Int_Tables_number      4
_space_group_name_Hall           'P 2yb'
loop_
_symmetry_equiv_pos_site_id
_symmetry_equiv_pos_as_xyz
1 x,y,z
2 -x,1/2+y,-z
_cell_length_a                   9.7826(2)
_cell_length_b                   14.4461(3)
_cell_length_c                   9.7855(2)
_cell_angle_alpha                90
_cell_angle_beta                 90.0170(10)
_cell_angle_gamma                90
_cell_volume                     1382.89
_exptl_crystal_colour            colorless
_exptl_crystal_description       prism
_chemical_melting_point          '189-191 deg.C'
_cell_formula_units_Z            4
_exptl_crystal_recrystallization_method methanol
loop_
_atom_site_label
_atom_site_type_symbol
_atom_site_fract_x
_atom_site_fract_y
_atom_site_fract_z
O1 O 0.5624(2) 0.12859(17) 0.8647(2)
H1 H 0.5394 0.1408 0.9454
C1 C 0.3564(3) 0.2092(2) 0.5457(3)
H2 H 0.3070 0.1611 0.4913
C2 C 0.3088(3) 0.2004(2) 0.6957(3)
H3 H 0.3138 0.1332 0.7199
C3 C 0.4083(3) 0.2511(2) 0.7902(3)
H4 H 0.4112 0.3174 0.7648
H5 H 0.3749 0.2467 0.8855
C4 C 0.5522(3) 0.2110(2) 0.7823(3)
H6 H 0.6176 0.2580 0.8191
C5 C 0.1590(3) 0.3131(3) 0.4902(3)
H7 H 0.1333 0.3787 0.4756
H8 H 0.1207 0.2765 0.4137
C6 C 0.0971(3) 0.2800(2) 0.6221(3)
H9 H 0.0045 0.2958 0.6398
C7 C 0.1629(3) 0.2298(2) 0.7160(3)
C8 C 0.0942(3) 0.2019(3) 0.8478(3)
H10 H -0.0003 0.2245 0.8480
H11 H 0.1438 0.2289 0.9252
H12 H 0.0944 0.1343 0.8558
C9 C 0.5071(3) 0.1891(2) 0.5349(3)
H13 H 0.5422 0.1764 0.4463
C10 C 0.5942(3) 0.1875(2) 0.6369(3)
C11 C 0.7442(3) 0.1659(3) 0.6195(4)
H14 H 0.7613 0.1458 0.5254
H15 H 0.7704 0.1163 0.6828
H16 H 0.7983 0.2214 0.6391
C12 C 0.3414(3) 0.4240(3) 0.3034(3)
H17 H 0.2416 0.4299 0.2889
H18 H 0.3682 0.4672 0.3773
C13 C 0.3758(3) 0.3252(2) 0.3448(3)
H19 H 0.4776 0.3213 0.3532
C14 C 0.3151(3) 0.3048(2) 0.4883(3)
H20 H 0.3519 0.3527 0.5523
C15 C 0.3328(4) 0.2563(3) 0.2356(3)
H21 H 0.2339 0.2610 0.2207
H22 H 0.3557 0.1935 0.2654
H23 H 0.3809 0.2702 0.1501
O2 O 0.4121(3) 0.4475(2) 0.1806(2)
H24 H 0.3932 0.4086 0.1195
O3 O 0.6354(2) 0.37874(17) 1.0629(2)
H25 H 0.5545 0.3905 1.0398
O4 O 1.3197(3) 0.69761(18) 0.9124(2)
H26 H 1.3417 0.7523 0.8932
C16 C 0.7169(3) 0.4612(2) 1.0512(3)
H27 H 0.6803 0.5083 1.1166
C17 C 0.8618(3) 0.4374(2) 1.0938(3)
C18 C 0.9660(3) 0.4392(2) 1.0069(3)
H28 H 1.0544 0.4266 1.0426
C19 C 0.9552(3) 0.4596(2) 0.8558(3)
H29 H 1.0099 0.4117 0.8065
C20 C 1.0122(3) 0.5547(2) 0.8153(3)
H30 H 0.9479 0.6024 0.8520
C21 C 1.1555(3) 0.5756(2) 0.8766(3)
H31 H 1.1471 0.5719 0.9783
C22 C 1.1961(3) 0.6737(2) 0.8413(3)
H32 H 1.2106 0.6792 0.7415
H33 H 1.1220 0.7169 0.8678
C23 C 0.7102(3) 0.5016(2) 0.9084(3)
H34 H 0.7371 0.5677 0.9118
H35 H 0.6148 0.4984 0.8748
C24 C 0.8044(3) 0.4499(2) 0.8080(3)
H36 H 0.7801 0.3827 0.8128
C25 C 0.7844(3) 0.4804(2) 0.6634(3)
C26 C 0.8776(3) 0.5296(2) 0.5978(3)
H37 H 0.8597 0.5451 0.5052
C27 C 1.0099(3) 0.5630(3) 0.6591(3)
H38 H 1.0243 0.6286 0.6333
H39 H 1.0864 0.5265 0.6205
C28 C 1.2654(3) 0.5060(3) 0.8332(4)
H40 H 1.2781 0.5091 0.7340
H41 H 1.2367 0.4434 0.8589
H42 H 1.3518 0.5209 0.8789
C29 C 0.8800(4) 0.4166(3) 1.2438(3)
H43 H 0.9737 0.3953 1.2603
H44 H 0.8154 0.3683 1.2714
H45 H 0.8629 0.4729 1.2972
C30 C 0.6519(4) 0.4510(3) 0.5942(3)
H46 H 0.6519 0.4724 0.4992
H47 H 0.5741 0.4783 0.6428
H48 H 0.6444 0.3834 0.5962
loop_
_geom_bond_atom_site_label_1
_geom_bond_atom_site_label_2
_geom_bond_site_symmetry_1
_geom_bond_site_symmetry_2
O1 H1 1_555 1_555
C1 H2 1_555 1_555
C2 C1 1_555 1_555
H3 C2 1_555 1_555
C3 C2 1_555 1_555
H4 C3 1_555 1_555
H5 C3 1_555 1_555
C4 O1 1_555 1_555
H6 C4 1_555 1_555
C5 H7 1_555 1_555
H8 C5 1_555 1_555
C6 C5 1_555 1_555
H9 C6 1_555 1_555
C7 C2 1_555 1_555
C8 C7 1_555 1_555
H10 C8 1_555 1_555
H11 C8 1_555 1_555
H12 C8 1_555 1_555
C9 C1 1_555 1_555
H13 C9 1_555 1_555
C10 C4 1_555 1_555
C11 C10 1_555 1_555
H14 C11 1_555 1_555
H15 C11 1_555 1_555
H16 C11 1_555 1_555
C12 H17 1_555 1_555
H18 C12 1_555 1_555
C13 C12 1_555 1_555
H19 C13 1_555 1_555
C14 C1 1_555 1_555
H20 C14 1_555 1_555
C15 C13 1_555 1_555
H21 C15 1_555 1_555
H22 C15 1_555 1_555
H23 C15 1_555 1_555
O2 C12 1_555 1_555
H24 O2 1_555 1_555
O3 H25 1_555 1_555
O4 H26 1_555 1_555
C16 O3 1_555 1_555
H27 C16 1_555 1_555
C17 C16 1_555 1_555
C18 C17 1_555 1_555
H28 C18 1_555 1_555
C19 C18 1_555 1_555
H29 C19 1_555 1_555
C20 C19 1_555 1_555
H30 C20 1_555 1_555
C21 C20 1_555 1_555
H31 C21 1_555 1_555
C22 O4 1_555 1_555
H32 C22 1_555 1_555
H33 C22 1_555 1_555
C23 C16 1_555 1_555
H34 C23 1_555 1_555
H35 C23 1_555 1_555
C24 C19 1_555 1_555
H36 C24 1_555 1_555
C25 C24 1_555 1_555
C26 C25 1_555 1_555
H37 C26 1_555 1_555
C27 C20 1_555 1_555
H38 C27 1_555 1_555
H39 C27 1_555 1_555
C28 C21 1_555 1_555
H40 C28 1_555 1_555
H41 C28 1_555 1_555
H42 C28 1_555 1_555
C29 C17 1_555 1_555
H43 C29 1_555 1_555
H44 C29 1_555 1_555
H45 C29 1_555 1_555
C30 C25 1_555 1_555
H46 C30 1_555 1_555
H47 C30 1_555 1_555
H48 C30 1_555 1_555
C3 C4 1_555 1_555
C5 C14 1_555 1_555
C6 C7 1_555 1_555
C9 C10 1_555 1_555
C13 C14 1_555 1_555
C21 C22 1_555 1_555
C23 C24 1_555 1_555
C26 C27 1_555 1_555

#END
