
#######################################################################
#
#                 Cambridge Crystallographic Data Centre
#                                CCDC 
#
#######################################################################
#
# If this CIF has been generated from an entry in the Cambridge 
# Structural Database, then it will include bibliographic, chemical, 
# crystal, experimental, refinement or atomic coordinate data resulting 
# from the CCDC's data processing and validation procedures.
#
#######################################################################

data_LOMGEA
_chemical_formula_moiety         'C17 H16 Cl1 N1 O2'
_chemical_name_systematic        
'Ethyl 3-((4-chlorophenyl)amino)-3-phenylacrylate'
_symmetry_cell_setting           triclinic
_symmetry_space_group_name_H-M   'P -1'
_symmetry_Int_Tables_number      2
_space_group_name_Hall           '-P 1'
loop_
_symmetry_equiv_pos_site_id
_symmetry_equiv_pos_as_xyz
1 x,y,z
2 -x,-y,-z
_cell_length_a                   8.1059(3)
_cell_length_b                   10.4070(4)
_cell_length_c                   11.1117(7)
_cell_angle_alpha                110.879(4)
_cell_angle_beta                 97.568(4)
_cell_angle_gamma                109.414(2)
_cell_volume                     792.028
_cell_formula_units_Z            2
loop_
_atom_site_label
_atom_site_type_symbol
_atom_site_fract_x
_atom_site_fract_y
_atom_site_fract_z
C1 C -0.4088(3) 0.0691(2) 0.16732(18)
H1 H -0.4607 -0.0195 0.1772
C2 C -0.2452(3) 0.1046(2) 0.13715(19)
H2 H -0.1860 0.0403 0.1276
C3 C -0.1676(3) 0.2356(2) 0.12081(18)
C4 C -0.2561(3) 0.3313(2) 0.13846(19)
H3 H -0.2047 0.4201 0.1289
C5 C -0.4191(3) 0.2967(2) 0.1699(2)
H4 H -0.4771 0.3620 0.1824
C6 C -0.4955(3) 0.1643(2) 0.18286(19)
C7 C 0.1635(3) 0.5283(2) 0.22824(19)
C8 C 0.1988(3) 0.6684(2) 0.2292(2)
H5 H 0.1937 0.6782 0.1490
C9 C 0.2416(4) 0.7941(3) 0.3478(2)
H6 H 0.2641 0.8874 0.3472
C10 C 0.2507(4) 0.7798(3) 0.4669(2)
H7 H 0.2819 0.8641 0.5472
C11 C 0.2139(4) 0.6419(3) 0.4670(2)
H8 H 0.2185 0.6326 0.5475
C12 C 0.1701(3) 0.5167(3) 0.3496(2)
H9 H 0.1448 0.4235 0.3511
N1 N -0.0082(2) 0.26047(17) 0.07831(18)
H10 H 0.0064 0.1811 0.0318
C13 C 0.1260(3) 0.3951(2) 0.1019(2)
C14 C 0.2317(3) 0.4071(2) 0.0180(2)
H11 H 0.3287 0.4991 0.0430
C15 C 0.2009(3) 0.2842(2) -0.1082(2)
C16 C 0.2726(5) 0.2191(3) -0.3170(3)
H12 H 0.3664 0.1807 -0.3150
H13 H 0.1550 0.1353 -0.3449
C17 C 0.2792(7) 0.2833(4) -0.4096(3)
H14 H 0.1858 0.3207 -0.4117
H15 H 0.2597 0.2081 -0.4973
H16 H 0.3964 0.3649 -0.3826
Cl1 Cl -0.70574(9) 0.11594(8) 0.21629(7)
O1 O 0.0966(2) 0.15335(15) -0.14725(16)
O2 O 0.3005(2) 0.33134(16) -0.18403(15)
loop_
_geom_bond_atom_site_label_1
_geom_bond_atom_site_label_2
_geom_bond_site_symmetry_1
_geom_bond_site_symmetry_2
C1 H1 1_555 1_555
C2 C1 1_555 1_555
H2 C2 1_555 1_555
C3 C2 1_555 1_555
C4 C3 1_555 1_555
H3 C4 1_555 1_555
C5 C4 1_555 1_555
H4 C5 1_555 1_555
C6 C1 1_555 1_555
C7 C8 1_555 1_555
C8 H5 1_555 1_555
C9 C8 1_555 1_555
H6 C9 1_555 1_555
C10 C9 1_555 1_555
H7 C10 1_555 1_555
C11 C10 1_555 1_555
H8 C11 1_555 1_555
C12 C7 1_555 1_555
H9 C12 1_555 1_555
N1 C3 1_555 1_555
H10 N1 1_555 1_555
C13 C7 1_555 1_555
C14 C13 1_555 1_555
H11 C14 1_555 1_555
C15 C14 1_555 1_555
C16 H12 1_555 1_555
H13 C16 1_555 1_555
C17 C16 1_555 1_555
H14 C17 1_555 1_555
H15 C17 1_555 1_555
H16 C17 1_555 1_555
Cl1 C6 1_555 1_555
O1 C15 1_555 1_555
O2 C15 1_555 1_555
C5 C6 1_555 1_555
C11 C12 1_555 1_555
N1 C13 1_555 1_555
C16 O2 1_555 1_555

#END
