
#######################################################################
#
#                 Cambridge Crystallographic Data Centre
#                                CCDC 
#
#######################################################################
#
# If this CIF has been generated from an entry in the Cambridge 
# Structural Database, then it will include bibliographic, chemical, 
# crystal, experimental, refinement or atomic coordinate data resulting 
# from the CCDC's data processing and validation procedures.
#
#######################################################################

data_LOMJAY
_chemical_formula_moiety         'C14 H10 O2'
_chemical_name_systematic        
trans-1,4-Diethynyl-1,4-dihydroxy-1,4-dihydronaphthalene
_symmetry_cell_setting           monoclinic
_symmetry_space_group_name_H-M   'P 21/c'
_symmetry_Int_Tables_number      14
_space_group_name_Hall           '-P 2ybc'
loop_
_symmetry_equiv_pos_site_id
_symmetry_equiv_pos_as_xyz
1 x,y,z
2 -x,1/2+y,1/2-z
3 -x,-y,-z
4 x,1/2-y,1/2+z
_cell_length_a                   10.8247(3)
_cell_length_b                   22.6384(8)
_cell_length_c                   10.4783(3)
_cell_angle_alpha                90
_cell_angle_beta                 118.1850(10)
_cell_angle_gamma                90
_cell_volume                     2263.28
_exptl_crystal_colour            colorless
_exptl_crystal_description       plate
_chemical_melting_point          407K
_cell_formula_units_Z            8
loop_
_atom_site_label
_atom_site_type_symbol
_atom_site_fract_x
_atom_site_fract_y
_atom_site_fract_z
C1 C 0.6057(2) 0.16584(9) 0.0655(2)
H1 H 0.703(2) 0.1669(8) 0.105(2)
C2 C 0.48196(19) 0.16350(8) 0.01449(19)
C3 C 0.32622(18) 0.16012(8) -0.05833(17)
O1 O 0.28541(14) 0.17313(6) 0.05084(13)
H2 H 0.192(2) 0.1761(8) 0.008(2)
C4 C 0.28267(17) 0.09749(8) -0.11667(17)
C5 C 0.3303(2) 0.05028(8) -0.0182(2)
H3 H 0.387(2) 0.0605(9) 0.086(2)
C6 C 0.2980(2) -0.00698(9) -0.0650(2)
H4 H 0.339(2) -0.0405(9) 0.004(3)
C7 C 0.2183(2) -0.01898(9) -0.2132(2)
H5 H 0.198(2) -0.0609(11) -0.241(3)
C8 C 0.1701(2) 0.02680(9) -0.3109(2)
H6 H 0.112(2) 0.0179(9) -0.413(3)
C9 C 0.19988(17) 0.08572(7) -0.26428(17)
C10 C 0.13988(18) 0.13488(8) -0.37732(17)
C11 C -0.01601(19) 0.13251(8) -0.44756(18)
C12 C -0.1393(2) 0.13167(9) -0.4965(2)
H7 H -0.238(3) 0.1306(10) -0.533(3)
O2 O 0.17743(15) 0.12550(6) -0.49066(13)
H8 H 0.276(3) 0.1259(10) -0.448(3)
C13 C 0.18568(19) 0.19571(8) -0.31458(19)
H9 H 0.149(2) 0.2288(10) -0.382(3)
C14 C 0.26793(19) 0.20682(8) -0.17528(19)
H10 H 0.2925(19) 0.2480(9) -0.146(2)
C15 C 0.0004(2) 0.15781(10) 0.1815(2)
H11 H 0.044(3) 0.1561(11) 0.293(3)
C16 C -0.05315(18) 0.16146(8) 0.05225(19)
C17 C -0.11749(17) 0.16598(8) -0.10767(18)
O3 O -0.00582(14) 0.18835(6) -0.13431(15)
H12 H -0.036(3) 0.1888(14) -0.230(4)
C18 C -0.16527(17) 0.10569(8) -0.17697(17)
C19 C -0.0664(2) 0.06005(9) -0.1399(2)
H13 H 0.032(2) 0.0682(9) -0.079(2)
C20 C -0.1044(2) 0.00488(9) -0.2001(2)
H14 H -0.039(3) -0.0254(10) -0.178(3)
C21 C -0.2444(2) -0.00721(10) -0.2976(2)
H15 H -0.267(2) -0.0479(10) -0.337(3)
C22 C -0.3427(2) 0.03720(9) -0.3345(2)
H16 H -0.442(3) 0.0287(10) -0.397(3)
C23 C -0.30452(18) 0.09391(8) -0.27648(18)
C24 C -0.41771(18) 0.14099(8) -0.32551(18)
C25 C -0.48351(19) 0.14777(9) -0.48569(19)
C26 C -0.5363(2) 0.15364(10) -0.6138(2)
H17 H -0.582(3) 0.1582(13) -0.720(4)
O4 O -0.53108(14) 0.12168(7) -0.29872(16)
H18 H -0.500(3) 0.1227(12) -0.214(3)
C27 C -0.3652(2) 0.20015(9) -0.25591(19)
H19 H -0.436(2) 0.2292(10) -0.285(2)
C28 C -0.2337(2) 0.21101(8) -0.15949(19)
H20 H -0.208(2) 0.2508(10) -0.123(3)
loop_
_geom_bond_atom_site_label_1
_geom_bond_atom_site_label_2
_geom_bond_site_symmetry_1
_geom_bond_site_symmetry_2
C1 H1 1_555 1_555
C2 C1 1_555 1_555
C3 C2 1_555 1_555
O1 C3 1_555 1_555
H2 O1 1_555 1_555
C4 C3 1_555 1_555
C5 C4 1_555 1_555
H3 C5 1_555 1_555
C6 C5 1_555 1_555
H4 C6 1_555 1_555
C7 C6 1_555 1_555
H5 C7 1_555 1_555
C8 C7 1_555 1_555
H6 C8 1_555 1_555
C9 C4 1_555 1_555
C10 C9 1_555 1_555
C11 C10 1_555 1_555
C12 C11 1_555 1_555
H7 C12 1_555 1_555
O2 C10 1_555 1_555
H8 O2 1_555 1_555
C13 C10 1_555 1_555
H9 C13 1_555 1_555
C14 C3 1_555 1_555
H10 C14 1_555 1_555
C15 H11 1_555 1_555
C16 C15 1_555 1_555
C17 C16 1_555 1_555
O3 C17 1_555 1_555
H12 O3 1_555 1_555
C18 C17 1_555 1_555
C19 C18 1_555 1_555
H13 C19 1_555 1_555
C20 C19 1_555 1_555
H14 C20 1_555 1_555
C21 C20 1_555 1_555
H15 C21 1_555 1_555
C22 C21 1_555 1_555
H16 C22 1_555 1_555
C23 C18 1_555 1_555
C24 C23 1_555 1_555
C25 C24 1_555 1_555
C26 C25 1_555 1_555
H17 C26 1_555 1_555
O4 C24 1_555 1_555
H18 O4 1_555 1_555
C27 C24 1_555 1_555
H19 C27 1_555 1_555
C28 C17 1_555 1_555
H20 C28 1_555 1_555
C8 C9 1_555 1_555
C13 C14 1_555 1_555
C22 C23 1_555 1_555
C27 C28 1_555 1_555

#END
