
#######################################################################
#
#                 Cambridge Crystallographic Data Centre
#                                CCDC 
#
#######################################################################
#
# If this CIF has been generated from an entry in the Cambridge 
# Structural Database, then it will include bibliographic, chemical, 
# crystal, experimental, refinement or atomic coordinate data resulting 
# from the CCDC's data processing and validation procedures.
#
#######################################################################

data_LONGEB
_chemical_formula_moiety         'C5 H12 Cl1 N2 1+,Cl1 1-'
_chemical_name_systematic        
"N,N,N',N'-Tetramethyl-chloroformamidinium chloride"
_symmetry_cell_setting           monoclinic
_symmetry_space_group_name_H-M   'P 21/n'
_symmetry_Int_Tables_number      14
_space_group_name_Hall           '-P 2yn'
loop_
_symmetry_equiv_pos_site_id
_symmetry_equiv_pos_as_xyz
1 x,y,z
2 1/2-x,1/2+y,1/2-z
3 -x,-y,-z
4 1/2+x,1/2-y,1/2+z
_cell_length_a                   9.3586(2)
_cell_length_b                   9.0716(2)
_cell_length_c                   9.5704(2)
_cell_angle_alpha                90
_cell_angle_beta                 90.140(3)
_cell_angle_gamma                90
_cell_volume                     812.5
_exptl_crystal_colour            colorless
_exptl_crystal_description       lath
_cell_formula_units_Z            4
_chemical_properties_physical    'hygroscopic and moisture-sensitive'
_exptl_crystal_recrystallization_method acetonitrile
loop_
_atom_site_label
_atom_site_type_symbol
_atom_site_fract_x
_atom_site_fract_y
_atom_site_fract_z
Cl1 Cl 0.03521(3) 0.21611(3) -0.34734(3)
Cl2 Cl 0.07938(3) 0.28908(3) -0.03139(3)
N1 N -0.03056(11) 0.29572(10) 0.21904(11)
N2 N 0.16901(10) 0.44505(11) 0.18093(10)
C1 C 0.07317(12) 0.34832(13) 0.14032(12)
C2 C -0.09715(13) 0.38352(14) 0.33091(13)
H1 H -0.1995(18) 0.3752(17) 0.3144(16)
H2 H -0.0702(19) 0.346(2) 0.4220(19)
H3 H -0.0635(16) 0.484(2) 0.3263(16)
C3 C -0.10059(14) 0.15332(14) 0.19346(16)
H4 H -0.196(2) 0.168(2) 0.1606(18)
H5 H -0.0500(18) 0.1003(19) 0.1231(18)
H6 H -0.1026(17) 0.100(2) 0.2833(18)
C4 C 0.25491(14) 0.53454(16) 0.08415(15)
H7 H 0.3515(18) 0.495(2) 0.0804(17)
H8 H 0.2110(18) 0.5338(19) -0.0044(18)
H9 H 0.258(2) 0.633(2) 0.126(2)
C5 C 0.21022(14) 0.46363(15) 0.32809(13)
H10 H 0.1734(18) 0.3897(19) 0.3866(18)
H11 H 0.1834(19) 0.554(2) 0.3609(19)
H12 H 0.312(2) 0.455(2) 0.3302(18)
loop_
_geom_bond_atom_site_label_1
_geom_bond_atom_site_label_2
_geom_bond_site_symmetry_1
_geom_bond_site_symmetry_2
Cl2 C1 1_555 1_555
N1 C1 1_555 1_555
N2 C1 1_555 1_555
C2 N1 1_555 1_555
H1 C2 1_555 1_555
H2 C2 1_555 1_555
H3 C2 1_555 1_555
C3 N1 1_555 1_555
H4 C3 1_555 1_555
H5 C3 1_555 1_555
H6 C3 1_555 1_555
C4 N2 1_555 1_555
H7 C4 1_555 1_555
H8 C4 1_555 1_555
H9 C4 1_555 1_555
C5 N2 1_555 1_555
H10 C5 1_555 1_555
H11 C5 1_555 1_555
H12 C5 1_555 1_555

#END
