
#######################################################################
#
#                 Cambridge Crystallographic Data Centre
#                                CCDC 
#
#######################################################################
#
# If this CIF has been generated from an entry in the Cambridge 
# Structural Database, then it will include bibliographic, chemical, 
# crystal, experimental, refinement or atomic coordinate data resulting 
# from the CCDC's data processing and validation procedures.
#
#######################################################################

data_LONLIK
_chemical_formula_moiety         'C23 H14 O2'
_chemical_name_systematic        '2-(1-Pyrenyl)benzoic acid'
_chemical_properties_biological  'fluorescent receptor for 9-butyladenine'
_symmetry_cell_setting           monoclinic
_symmetry_space_group_name_H-M   'P 21/c'
_symmetry_Int_Tables_number      14
_space_group_name_Hall           '-P 2ybc'
loop_
_symmetry_equiv_pos_site_id
_symmetry_equiv_pos_as_xyz
1 x,y,z
2 -x,1/2+y,1/2-z
3 -x,-y,-z
4 x,1/2-y,1/2+z
_cell_length_a                   9.250(4)
_cell_length_b                   7.029(3)
_cell_length_c                   25.857(11)
_cell_angle_alpha                90
_cell_angle_beta                 101.114(6)
_cell_angle_gamma                90
_cell_volume                     1649.65
_exptl_crystal_colour            colorless
_exptl_crystal_description       prism
_chemical_melting_point          '244-245 deg.C'
_cell_formula_units_Z            4
_exptl_crystal_recrystallization_method acetonitrile
loop_
_atom_site_label
_atom_site_type_symbol
_atom_site_fract_x
_atom_site_fract_y
_atom_site_fract_z
O1 O 0.0713(2) 0.8351(3) 0.55059(6)
H1 H 0.0212 0.9315 0.5413
O2 O 0.0934(3) 0.8485(3) 0.46641(7)
C1 C 0.2193(3) 0.5956(3) 0.51844(9)
C2 C 0.2952(2) 0.5289(3) 0.56861(8)
C3 C 0.3779(3) 0.3585(4) 0.56941(10)
H2 H 0.4263 0.3100 0.6021
C4 C 0.3899(3) 0.2607(4) 0.52371(10)
H3 H 0.4465 0.1488 0.5258
C5 C 0.3184(3) 0.3282(4) 0.47492(10)
H4 H 0.3275 0.2635 0.4439
C6 C 0.2323(3) 0.4936(4) 0.47235(9)
H5 H 0.1823 0.5375 0.4394
C7 C 0.1233(3) 0.7717(4) 0.51192(9)
C8 C 0.3029(2) 0.6373(3) 0.62007(8)
C9 C 0.3742(3) 0.8158(3) 0.62659(9)
H6 H 0.4095 0.8690 0.5981
C10 C 0.3938(2) 0.9159(3) 0.67417(10)
H7 H 0.4399 1.0356 0.6767
C11 C 0.3456(2) 0.8401(3) 0.71827(9)
C12 C 0.3649(2) 0.9388(3) 0.76864(10)
H8 H 0.4095 1.0596 0.7720
C13 C 0.3199(3) 0.8600(4) 0.81086(10)
H9 H 0.3326 0.9285 0.8426
C14 C 0.2523(2) 0.6716(3) 0.80813(9)
C15 C 0.2086(3) 0.5827(4) 0.85207(9)
H10 H 0.2261 0.6453 0.8848
C16 C 0.1403(3) 0.4047(4) 0.84776(10)
H11 H 0.1113 0.3498 0.8773
C17 C 0.1150(3) 0.3077(4) 0.79948(10)
H12 H 0.0691 0.1878 0.7970
C18 C 0.1574(2) 0.3874(3) 0.75450(9)
C19 C 0.1323(2) 0.2929(3) 0.70377(9)
H13 H 0.0855 0.1736 0.7004
C20 C 0.1744(2) 0.3717(3) 0.66074(9)
H14 H 0.1539 0.3062 0.6285
C21 C 0.2507(2) 0.5551(3) 0.66332(8)
C22 C 0.2738(2) 0.6558(3) 0.71331(8)
C23 C 0.2284(2) 0.5723(3) 0.75866(8)
loop_
_geom_bond_atom_site_label_1
_geom_bond_atom_site_label_2
_geom_bond_site_symmetry_1
_geom_bond_site_symmetry_2
O1 H1 1_555 1_555
O2 C7 1_555 1_555
C1 C2 1_555 1_555
C2 C3 1_555 1_555
C3 H2 1_555 1_555
C4 C3 1_555 1_555
H3 C4 1_555 1_555
C5 C4 1_555 1_555
H4 C5 1_555 1_555
C6 C1 1_555 1_555
H5 C6 1_555 1_555
C7 O1 1_555 1_555
C8 C2 1_555 1_555
C9 C8 1_555 1_555
H6 C9 1_555 1_555
C10 C9 1_555 1_555
H7 C10 1_555 1_555
C11 C10 1_555 1_555
C12 C11 1_555 1_555
H8 C12 1_555 1_555
C13 C12 1_555 1_555
H9 C13 1_555 1_555
C14 C13 1_555 1_555
C15 C14 1_555 1_555
H10 C15 1_555 1_555
C16 C15 1_555 1_555
H11 C16 1_555 1_555
C17 C16 1_555 1_555
H12 C17 1_555 1_555
C18 C17 1_555 1_555
C19 C18 1_555 1_555
H13 C19 1_555 1_555
C20 C19 1_555 1_555
H14 C20 1_555 1_555
C21 C8 1_555 1_555
C22 C11 1_555 1_555
C23 C14 1_555 1_555
C1 C7 1_555 1_555
C5 C6 1_555 1_555
C18 C23 1_555 1_555
C20 C21 1_555 1_555
C21 C22 1_555 1_555
C22 C23 1_555 1_555

#END
