
#######################################################################
#
#                 Cambridge Crystallographic Data Centre
#                                CCDC 
#
#######################################################################
#
# If this CIF has been generated from an entry in the Cambridge 
# Structural Database, then it will include bibliographic, chemical, 
# crystal, experimental, refinement or atomic coordinate data resulting 
# from the CCDC's data processing and validation procedures.
#
#######################################################################

data_LONMAD
_chemical_name_common            Oxacalix(3)arene(3)pyrazine
_chemical_formula_moiety         'C30 H18 N6 O6'
_chemical_name_systematic        
2,9,15,22,28,35-Hexaoxa-12,25,38,40,41,42-hexaazaheptacyclo[34.3.1.1^10,14^.1^23,27^.0^3,8^.0^16,21^.0^29,34^]dotetraconta-1(40),3,5,7,10(42),11,13,16,18,20,23(41),24,26,29,31,33,36,38-octadecaene
_symmetry_cell_setting           triclinic
_symmetry_space_group_name_H-M   'P -1'
_symmetry_Int_Tables_number      2
_space_group_name_Hall           '-P 1'
loop_
_symmetry_equiv_pos_site_id
_symmetry_equiv_pos_as_xyz
1 x,y,z
2 -x,-y,-z
_cell_length_a                   8.730(3)
_cell_length_b                   9.001(3)
_cell_length_c                   17.867(6)
_cell_angle_alpha                77.598(5)
_cell_angle_beta                 87.461(6)
_cell_angle_gamma                72.300(6)
_cell_volume                     1305.96
_exptl_crystal_colour            yellow
_exptl_crystal_description       prismatic
_cell_formula_units_Z            2
loop_
_atom_site_label
_atom_site_type_symbol
_atom_site_fract_x
_atom_site_fract_y
_atom_site_fract_z
O1 O 0.5416(4) 1.0385(4) 0.20880(17)
O2 O 0.9146(3) 0.5470(3) 0.19938(14)
O3 O 1.1482(3) 0.2793(3) 0.22246(14)
O4 O 1.4401(3) 0.6340(3) 0.20386(16)
O5 O 1.1737(4) 0.8644(4) 0.18652(16)
O6 O 0.7002(4) 1.2525(4) 0.21791(19)
N1 N 0.6673(5) 0.8398(5) 0.05439(18)
N2 N 0.7291(3) 0.7922(4) 0.20973(16)
N3 N 1.3588(4) 0.4357(4) 0.06248(18)
N4 N 1.2919(3) 0.4581(3) 0.21298(16)
N5 N 0.9411(5) 1.1944(5) 0.0515(2)
N6 N 0.9343(4) 1.0545(4) 0.20523(18)
C1 C 0.6239(5) 0.9210(5) 0.1718(2)
C2 C 0.5905(5) 0.9470(5) 0.0949(2)
H1 H 0.5137 1.0401 0.0709
C3 C 0.7726(5) 0.7091(5) 0.0911(2)
H2 H 0.8273 0.6308 0.0647
C4 C 0.8032(4) 0.6868(4) 0.16952(19)
C5 C 0.9536(4) 0.4786(4) 0.27671(19)
C6 C 0.8795(5) 0.5360(5) 0.3392(2)
H3 H 0.7959 0.6313 0.3326
C7 C 0.9336(5) 0.4470(5) 0.4125(2)
H4 H 0.8855 0.4836 0.4552
C8 C 1.0558(5) 0.3072(5) 0.4222(2)
H5 H 1.0904 0.2494 0.4713
C9 C 1.1289(5) 0.2508(5) 0.3586(2)
H6 H 1.2120 0.1552 0.3649
C10 C 1.0769(4) 0.3381(4) 0.28683(19)
C11 C 1.2388(4) 0.3660(4) 0.1800(2)
C12 C 1.2724(5) 0.3508(5) 0.1048(2)
H7 H 1.2348 0.2817 0.0841
C13 C 1.4123(5) 0.5314(5) 0.0951(2)
H8 H 1.4720 0.5931 0.0669
C14 C 1.3787(4) 0.5385(4) 0.1709(2)
C15 C 1.3626(4) 0.6742(4) 0.2701(2)
C16 C 1.4263(5) 0.5914(5) 0.3410(3)
H9 H 1.5199 0.5058 0.3457
C17 C 1.3489(5) 0.6373(6) 0.4056(3)
H10 H 1.3926 0.5833 0.4540
C18 C 1.2106(5) 0.7598(5) 0.3990(2)
H11 H 1.1595 0.7888 0.4428
C19 C 1.1458(5) 0.8410(6) 0.3280(2)
H12 H 1.0506 0.9248 0.3235
C20 C 1.2230(5) 0.7976(5) 0.2628(2)
C21 C 1.0507(5) 0.9964(5) 0.1601(2)
C22 C 1.0549(6) 1.0642(6) 0.0828(2)
H13 H 1.1383 1.0175 0.0531
C23 C 0.8222(6) 1.2574(6) 0.0963(3)
H14 H 0.7398 1.3492 0.0760
C24 C 0.8234(5) 1.1847(5) 0.1724(2)
C25 C 0.6745(5) 1.1502(5) 0.2839(2)
C26 C 0.7214(5) 1.1638(5) 0.3545(3)
H15 H 0.7734 1.2384 0.3578
C27 C 0.6903(6) 1.0660(6) 0.4195(3)
H16 H 0.7239 1.0733 0.4669
C28 C 0.6112(5) 0.9580(5) 0.4164(2)
H17 H 0.5899 0.8937 0.4612
C29 C 0.5623(5) 0.9446(5) 0.3452(2)
H18 H 0.5086 0.8712 0.3421
C30 C 0.5950(4) 1.0415(5) 0.2805(2)
loop_
_geom_bond_atom_site_label_1
_geom_bond_atom_site_label_2
_geom_bond_site_symmetry_1
_geom_bond_site_symmetry_2
O1 C1 1_555 1_555
O2 C4 1_555 1_555
O3 C10 1_555 1_555
O4 C14 1_555 1_555
O5 C20 1_555 1_555
O6 C24 1_555 1_555
N1 C2 1_555 1_555
N2 C1 1_555 1_555
N3 C12 1_555 1_555
N4 C11 1_555 1_555
N5 C22 1_555 1_555
N6 C21 1_555 1_555
C1 C2 1_555 1_555
C2 H1 1_555 1_555
C3 N1 1_555 1_555
H2 C3 1_555 1_555
C4 N2 1_555 1_555
C5 O2 1_555 1_555
C6 C5 1_555 1_555
H3 C6 1_555 1_555
C7 C6 1_555 1_555
H4 C7 1_555 1_555
C8 C7 1_555 1_555
H5 C8 1_555 1_555
C9 C8 1_555 1_555
H6 C9 1_555 1_555
C10 C5 1_555 1_555
C11 O3 1_555 1_555
C12 C11 1_555 1_555
H7 C12 1_555 1_555
C13 N3 1_555 1_555
H8 C13 1_555 1_555
C14 N4 1_555 1_555
C15 O4 1_555 1_555
C16 C15 1_555 1_555
H9 C16 1_555 1_555
C17 C16 1_555 1_555
H10 C17 1_555 1_555
C18 C17 1_555 1_555
H11 C18 1_555 1_555
C19 C18 1_555 1_555
H12 C19 1_555 1_555
C20 C15 1_555 1_555
C21 O5 1_555 1_555
C22 C21 1_555 1_555
H13 C22 1_555 1_555
C23 N5 1_555 1_555
H14 C23 1_555 1_555
C24 N6 1_555 1_555
C25 O6 1_555 1_555
C26 C25 1_555 1_555
H15 C26 1_555 1_555
C27 C26 1_555 1_555
H16 C27 1_555 1_555
C28 C27 1_555 1_555
H17 C28 1_555 1_555
C29 C28 1_555 1_555
H18 C29 1_555 1_555
C30 O1 1_555 1_555
C3 C4 1_555 1_555
C9 C10 1_555 1_555
C13 C14 1_555 1_555
C19 C20 1_555 1_555
C23 C24 1_555 1_555
C25 C30 1_555 1_555
C29 C30 1_555 1_555

#END
