
#######################################################################
#
#                 Cambridge Crystallographic Data Centre
#                                CCDC 
#
#######################################################################
#
# If this CIF has been generated from an entry in the Cambridge 
# Structural Database, then it will include bibliographic, chemical, 
# crystal, experimental, refinement or atomic coordinate data resulting 
# from the CCDC's data processing and validation procedures.
#
#######################################################################

data_LONMEH
_chemical_name_common            oxacalix(2)arene(2)pyrazine
_chemical_formula_moiety         'C20 H12 N4 O4'
_chemical_name_systematic        
2,9,15,22-Tetraoxa-12,25,27,28-tetraazapentacyclo(21.3.1.1^10,14^.0^3,8^.0^16,21^)octacosa-1(27),3,5,7,10(28),11,13,16,18,20,23,25-dodecaene
_symmetry_cell_setting           triclinic
_symmetry_space_group_name_H-M   'P -1'
_symmetry_Int_Tables_number      2
_space_group_name_Hall           '-P 1'
loop_
_symmetry_equiv_pos_site_id
_symmetry_equiv_pos_as_xyz
1 x,y,z
2 -x,-y,-z
_cell_length_a                   7.15620(10)
_cell_length_b                   10.0339(2)
_cell_length_c                   12.7082(2)
_cell_angle_alpha                97.4090(10)
_cell_angle_beta                 94.1430(10)
_cell_angle_gamma                109.3420(10)
_cell_volume                     847.347
_exptl_crystal_colour            colorless
_exptl_crystal_description       block
_cell_formula_units_Z            2
loop_
_atom_site_label
_atom_site_type_symbol
_atom_site_fract_x
_atom_site_fract_y
_atom_site_fract_z
O1 O 0.5140(3) 0.9299(2) 0.88547(13)
O2 O 0.4135(3) 0.7023(2) 0.53524(14)
O3 O 0.0298(3) 0.59365(16) 0.59368(12)
O4 O 0.1211(3) 0.88191(18) 0.92017(13)
N1 N 0.5772(3) 0.6061(2) 0.77846(19)
N2 N 0.4697(3) 0.82428(18) 0.70819(13)
N3 N 0.0646(3) 0.74306(17) 0.75382(13)
N4 N -0.0112(3) 0.5024(2) 0.85320(15)
C1 C 0.5211(4) 0.6020(3) 0.6757(2)
H1 H 0.5189 0.5250 0.6257
C2 C 0.4667(3) 0.7103(3) 0.64268(18)
C3 C 0.5206(3) 0.8246(2) 0.80949(16)
C4 C 0.5756(4) 0.7171(3) 0.84594(19)
H2 H 0.6117 0.7232 0.9187
C5 C 0.0242(3) 0.6138(2) 0.70051(15)
C6 C -0.0155(4) 0.4930(2) 0.74846(17)
H3 H -0.0457 0.4038 0.7064
C7 C 0.0354(4) 0.6326(2) 0.90921(17)
H4 H 0.0420 0.6444 0.9833
C8 C 0.0739(3) 0.7504(2) 0.85833(16)
C9 C 0.3064(4) 0.8539(3) 0.43582(18)
H5 H 0.4338 0.8886 0.4157
C10 C 0.1598(5) 0.8990(3) 0.39623(19)
H6 H 0.1880 0.9643 0.3489
C11 C -0.0273(4) 0.8497(3) 0.42506(19)
H7 H -0.1261 0.8814 0.3976
C12 C -0.0700(4) 0.7528(3) 0.49488(18)
H8 H -0.1978 0.7190 0.5147
C13 C 0.0757(4) 0.7060(2) 0.53530(15)
C14 C 0.2655(4) 0.7566(3) 0.50578(17)
C15 C 0.5365(4) 1.1570(3) 0.83585(19)
H9 H 0.6685 1.1739 0.8240
C16 C 0.4538(5) 1.2599(3) 0.8272(2)
H10 H 0.5296 1.3471 0.8095
C17 C 0.2608(5) 1.2357(3) 0.8443(2)
H11 H 0.2055 1.3066 0.8382
C18 C 0.1455(4) 1.1059(3) 0.87067(18)
H12 H 0.0132 1.0891 0.8818
C19 C 0.2303(4) 1.0028(2) 0.88007(15)
C20 C 0.4253(4) 1.0288(2) 0.86193(16)
loop_
_geom_bond_atom_site_label_1
_geom_bond_atom_site_label_2
_geom_bond_site_symmetry_1
_geom_bond_site_symmetry_2
O1 C3 1_555 1_555
O2 C2 1_555 1_555
O3 C5 1_555 1_555
O4 C8 1_555 1_555
N1 C1 1_555 1_555
N2 C2 1_555 1_555
N3 C5 1_555 1_555
N4 C6 1_555 1_555
C1 H1 1_555 1_555
C2 C1 1_555 1_555
C3 N2 1_555 1_555
C4 N1 1_555 1_555
H2 C4 1_555 1_555
C5 C6 1_555 1_555
C6 H3 1_555 1_555
C7 N4 1_555 1_555
H4 C7 1_555 1_555
C8 N3 1_555 1_555
C9 H5 1_555 1_555
C10 C9 1_555 1_555
H6 C10 1_555 1_555
C11 C10 1_555 1_555
H7 C11 1_555 1_555
C12 C11 1_555 1_555
H8 C12 1_555 1_555
C13 O3 1_555 1_555
C14 O2 1_555 1_555
C15 H9 1_555 1_555
C16 C15 1_555 1_555
H10 C16 1_555 1_555
C17 C16 1_555 1_555
H11 C17 1_555 1_555
C18 C17 1_555 1_555
H12 C18 1_555 1_555
C19 O4 1_555 1_555
C20 O1 1_555 1_555
C3 C4 1_555 1_555
C7 C8 1_555 1_555
C9 C14 1_555 1_555
C12 C13 1_555 1_555
C13 C14 1_555 1_555
C15 C20 1_555 1_555
C18 C19 1_555 1_555
C19 C20 1_555 1_555

#END
