
#######################################################################
#
#                 Cambridge Crystallographic Data Centre
#                                CCDC 
#
#######################################################################
#
# If this CIF has been generated from an entry in the Cambridge 
# Structural Database, then it will include bibliographic, chemical, 
# crystal, experimental, refinement or atomic coordinate data resulting 
# from the CCDC's data processing and validation procedures.
#
#######################################################################

data_LOQBUO
_chemical_name_common            '3,4-bis(2-Chlorophenyl)furazan N-oxide'
_chemical_formula_moiety         'C14 H8 Cl2 N2 O2'
_chemical_name_systematic        3,4-bis(2-Chlorophenyl)furoxan
_symmetry_cell_setting           orthorhombic
_symmetry_space_group_name_H-M   'P 21 21 21'
_symmetry_Int_Tables_number      19
_space_group_name_Hall           'P 2ac 2ab'
loop_
_symmetry_equiv_pos_site_id
_symmetry_equiv_pos_as_xyz
1 x,y,z
2 1/2-x,-y,1/2+z
3 1/2+x,1/2-y,-z
4 -x,1/2+y,1/2-z
_cell_length_a                   7.201(4)
_cell_length_b                   12.280(7)
_cell_length_c                   15.178(45)
_cell_angle_alpha                90
_cell_angle_beta                 90
_cell_angle_gamma                90
_cell_volume                     1342.16
_cell_formula_units_Z            4
_exptl_crystal_recrystallization_method 'hexane/ethyl acetate'
loop_
_atom_site_label
_atom_site_type_symbol
_atom_site_fract_x
_atom_site_fract_y
_atom_site_fract_z
Cl1 Cl -0.1810(6) 0.0623(4) 0.4814(3)
Cl2 Cl 0.1746(6) 0.1015(3) 0.2934(3)
O1 O 0.035(1) -0.2471(7) 0.3951(7)
O2 O -0.093(1) -0.1863(9) 0.5218(7)
N1 N 0.018(1) -0.1673(9) 0.4645(8)
N2 N 0.168(2) -0.2158(9) 0.3387(7)
C1 C 0.172(2) 0.000(1) 0.5091(7)
C2 C 0.356(2) 0.012(1) 0.5454(9)
C3 C 0.385(2) 0.106(1) 0.6004(9)
C4 C 0.247(2) 0.179(1) 0.618(1)
C5 C 0.067(2) 0.164(1) 0.5826(9)
C6 C 0.032(2) 0.076(1) 0.5281(9)
C7 C 0.396(2) -0.068(1) 0.3263(8)
C8 C 0.557(2) -0.127(1) 0.3249(8)
C9 C 0.710(2) -0.080(1) 0.278(1)
C10 C 0.692(2) 0.019(1) 0.2394(8)
C11 C 0.522(2) 0.081(1) 0.2419(9)
C12 C 0.375(2) 0.032(1) 0.289(1)
C13 C 0.140(2) -0.092(1) 0.4514(9)
C14 C 0.235(2) -0.122(1) 0.372(1)
loop_
_geom_bond_atom_site_label_1
_geom_bond_atom_site_label_2
_geom_bond_site_symmetry_1
_geom_bond_site_symmetry_2
Cl1 C6 1_555 1_555
Cl2 C12 1_555 1_555
O1 N1 1_555 1_555
O2 N1 1_555 1_555
N1 C13 1_555 1_555
N2 O1 1_555 1_555
C1 C2 1_555 1_555
C2 C3 1_555 1_555
C3 C4 1_555 1_555
C4 C5 1_555 1_555
C5 C6 1_555 1_555
C6 C1 1_555 1_555
C7 C8 1_555 1_555
C8 C9 1_555 1_555
C9 C10 1_555 1_555
C10 C11 1_555 1_555
C11 C12 1_555 1_555
C12 C7 1_555 1_555
C13 C1 1_555 1_555
C14 N2 1_555 1_555
C7 C14 1_555 1_555
C13 C14 1_555 1_555

#END
