
#######################################################################
#
#                 Cambridge Crystallographic Data Centre
#                                CCDC 
#
#######################################################################
#
# If this CIF has been generated from an entry in the Cambridge 
# Structural Database, then it will include bibliographic, chemical, 
# crystal, experimental, refinement or atomic coordinate data resulting 
# from the CCDC's data processing and validation procedures.
#
#######################################################################

data_LOQZIC
_chemical_formula_moiety         'C9 H14 N3 O1 1+,Cl1 1-'
_chemical_name_systematic        
'(hydroxyamino)((2-phenylethyl)amino)methaniminium chloride'
_symmetry_cell_setting           monoclinic
_symmetry_space_group_name_H-M   'P 21/c'
_symmetry_Int_Tables_number      14
_space_group_name_Hall           '-P 2ybc'
loop_
_symmetry_equiv_pos_site_id
_symmetry_equiv_pos_as_xyz
1 x,y,z
2 -x,1/2+y,1/2-z
3 -x,-y,-z
4 x,1/2-y,1/2+z
_cell_length_a                   11.980(3)
_cell_length_b                   7.3875(15)
_cell_length_c                   24.609(7)
_cell_angle_alpha                90
_cell_angle_beta                 99.080(6)
_cell_angle_gamma                90
_cell_volume                     2150.66
_exptl_crystal_colour            colorless
_exptl_crystal_description       Platelet
_cell_formula_units_Z            8
loop_
_atom_site_label
_atom_site_type_symbol
_atom_site_fract_x
_atom_site_fract_y
_atom_site_fract_z
Cl1 Cl 0.17473(9) 0.43902(15) 0.54844(4)
Cl2 Cl -0.32833(9) -0.04866(15) 0.53655(4)
C1 C 0.0736(4) -0.3327(6) 0.29865(16)
C2 C 0.1770(4) -0.4194(6) 0.30821(17)
H1 H 0.2068 -0.4581 0.3444
C3 C 0.2379(4) -0.4508(7) 0.26574(19)
H2 H 0.3088 -0.5107 0.2729
C4 C 0.1953(4) -0.3948(7) 0.21317(19)
H3 H 0.2361 -0.4181 0.1838
C5 C 0.0927(4) -0.3044(7) 0.20325(17)
H4 H 0.0644 -0.2634 0.1671
C6 C 0.0313(4) -0.2731(6) 0.24539(17)
H5 H -0.0392 -0.2116 0.2382
C7 C 0.0065(4) -0.2956(7) 0.34466(19)
H6 H -0.0721 -0.2640 0.3285
H7 H 0.0038 -0.4072 0.3667
C8 C 0.0559(4) -0.1440(6) 0.38217(16)
H8 H 0.1219 -0.1888 0.4080
H9 H 0.0815 -0.0447 0.3601
N1 N -0.0308(3) -0.0769(5) 0.41305(13)
H10 H -0.103(2) -0.135(6) 0.4126(19)
C9 C -0.0259(3) 0.0823(6) 0.43797(15)
N2 N 0.0649(3) 0.1880(5) 0.44282(14)
H11 H 0.139(2) 0.129(5) 0.4427(17)
H12 H 0.060(4) 0.299(4) 0.4633(17)
N3 N -0.1168(3) 0.1420(5) 0.45974(14)
H13 H -0.111(4) 0.272(3) 0.462(2)
O1 O -0.2179(3) 0.0527(4) 0.43744(11)
H14 H -0.257(5) 0.029(9) 0.4685(18)
C10 C 0.4502(4) 0.1432(6) 0.31167(16)
C11 C 0.4878(4) 0.2167(6) 0.26543(16)
H15 H 0.5605 0.2712 0.2690
C12 C 0.4199(4) 0.2106(6) 0.21436(16)
H16 H 0.4465 0.2597 0.1831
C13 C 0.3134(4) 0.1331(6) 0.20867(18)
H17 H 0.2677 0.1266 0.1735
C14 C 0.2739(4) 0.0652(6) 0.25438(18)
H18 H 0.1997 0.0168 0.2510
C15 C 0.3431(4) 0.0680(6) 0.30550(17)
H19 H 0.3164 0.0176 0.3366
C16 C 0.5272(4) 0.1405(6) 0.36682(16)
H20 H 0.5981 0.0777 0.3623
H21 H 0.4903 0.0685 0.3929
C17 C 0.5570(4) 0.3254(6) 0.39215(17)
H22 H 0.6200 0.3129 0.4232
H23 H 0.5823 0.4059 0.3643
N4 N 0.4589(3) 0.4065(5) 0.41204(13)
H24 H 0.389(3) 0.340(7) 0.411(2)
C18 C 0.4638(4) 0.5680(6) 0.43594(14)
N5 N 0.5530(3) 0.6745(5) 0.43828(14)
H25 H 0.566(5) 0.791(5) 0.457(2)
H26 H 0.627(3) 0.616(7) 0.438(2)
N6 N 0.3761(3) 0.6272(5) 0.45942(14)
H27 H 0.378(4) 0.757(3) 0.4624(17)
O2 O 0.2744(3) 0.5303(4) 0.44425(11)
H28 H 0.247(5) 0.508(9) 0.4787(16)
loop_
_geom_bond_atom_site_label_1
_geom_bond_atom_site_label_2
_geom_bond_site_symmetry_1
_geom_bond_site_symmetry_2
C1 C2 1_555 1_555
C2 H1 1_555 1_555
C3 C2 1_555 1_555
H2 C3 1_555 1_555
C4 C3 1_555 1_555
H3 C4 1_555 1_555
C5 C4 1_555 1_555
H4 C5 1_555 1_555
C6 C1 1_555 1_555
H5 C6 1_555 1_555
C7 C1 1_555 1_555
H6 C7 1_555 1_555
H7 C7 1_555 1_555
C8 C7 1_555 1_555
H8 C8 1_555 1_555
H9 C8 1_555 1_555
N1 C8 1_555 1_555
H10 N1 1_555 1_555
C9 N1 1_555 1_555
N2 C9 1_555 1_555
H11 N2 1_555 1_555
H12 N2 1_555 1_555
N3 C9 1_555 1_555
H13 N3 1_555 1_555
O1 N3 1_555 1_555
H14 O1 1_555 1_555
C10 C11 1_555 1_555
C11 H15 1_555 1_555
C12 C11 1_555 1_555
H16 C12 1_555 1_555
C13 C12 1_555 1_555
H17 C13 1_555 1_555
C14 C13 1_555 1_555
H18 C14 1_555 1_555
C15 C10 1_555 1_555
H19 C15 1_555 1_555
C16 C10 1_555 1_555
H20 C16 1_555 1_555
H21 C16 1_555 1_555
C17 C16 1_555 1_555
H22 C17 1_555 1_555
H23 C17 1_555 1_555
N4 C17 1_555 1_555
H24 N4 1_555 1_555
C18 N4 1_555 1_555
N5 C18 1_555 1_555
H25 N5 1_555 1_555
H26 N5 1_555 1_555
N6 C18 1_555 1_555
H27 N6 1_555 1_555
O2 N6 1_555 1_555
H28 O2 1_555 1_555
C5 C6 1_555 1_555
C14 C15 1_555 1_555

#END
