
#######################################################################
#
#                 Cambridge Crystallographic Data Centre
#                                CCDC 
#
#######################################################################
#
# If this CIF has been generated from an entry in the Cambridge 
# Structural Database, then it will include bibliographic, chemical, 
# crystal, experimental, refinement or atomic coordinate data resulting 
# from the CCDC's data processing and validation procedures.
#
#######################################################################

data_LORQAL
_chemical_formula_moiety         'C12 H14 Cl1 N1 O6'
_chemical_name_systematic        
'Methyl 4-(3-chloropropoxy)-5-methoxy-2-nitrobenzoate'
_symmetry_cell_setting           monoclinic
_symmetry_space_group_name_H-M   'P 21/c'
_symmetry_Int_Tables_number      14
_space_group_name_Hall           '-P 2ybc'
loop_
_symmetry_equiv_pos_site_id
_symmetry_equiv_pos_as_xyz
1 x,y,z
2 -x,1/2+y,1/2-z
3 -x,-y,-z
4 x,1/2-y,1/2+z
_cell_length_a                   23.150(5)
_cell_length_b                   15.013(3)
_cell_length_c                   8.0700(16)
_cell_angle_alpha                90
_cell_angle_beta                 93.42(3)
_cell_angle_gamma                90
_cell_volume                     2799.74
_exptl_crystal_colour            'light yellow'
_exptl_crystal_description       needle
_chemical_melting_point          '337 K'
_cell_formula_units_Z            8
_exptl_crystal_recrystallization_method methanol
loop_
_atom_site_label
_atom_site_type_symbol
_atom_site_fract_x
_atom_site_fract_y
_atom_site_fract_z
Cl1 Cl 0.26534(6) 0.48992(8) 0.29390(17)
O1 O -0.10537(13) 0.2705(2) 0.1972(5)
O2 O -0.05735(14) 0.1596(2) 0.3282(4)
O3 O -0.06317(19) 0.3963(3) 0.4296(5)
O4 O -0.05061(16) 0.5014(2) 0.2559(6)
O5 O 0.13459(12) 0.23218(18) 0.0445(4)
O6 O 0.14060(12) 0.40304(18) 0.0445(4)
N1 N -0.04080(17) 0.4270(3) 0.3109(6)
C1 C -0.1592(2) 0.2271(5) 0.2275(9)
H1 H -0.1907 0.2607 0.1761
H2 H -0.1635 0.2237 0.3449
H3 H -0.1593 0.1681 0.1816
C2 C -0.05727(18) 0.2299(3) 0.2610(6)
C3 C -0.00469(17) 0.2813(3) 0.2209(5)
C4 C 0.00118(18) 0.3722(3) 0.2282(5)
C5 C 0.04788(18) 0.4163(3) 0.1691(5)
H4 H 0.0498 0.4781 0.1724
C6 C 0.09190(17) 0.3675(3) 0.1046(5)
C7 C 0.08873(17) 0.2742(3) 0.1040(5)
C8 C 0.04040(17) 0.2321(3) 0.1598(5)
H5 H 0.0380 0.1702 0.1564
C9 C 0.1376(2) 0.1372(3) 0.0606(6)
H6 H 0.1721 0.1159 0.0133
H7 H 0.1043 0.1109 0.0033
H8 H 0.1384 0.1213 0.1759
C10 C 0.1491(2) 0.4975(3) 0.0631(7)
H9 H 0.1494 0.5140 0.1794
H10 H 0.1182 0.5297 0.0031
C11 C 0.2060(2) 0.5190(3) -0.0057(6)
H11 H 0.2128 0.5825 0.0057
H12 H 0.2037 0.5053 -0.1234
C12 C 0.25688(19) 0.4705(3) 0.0750(6)
H13 H 0.2918 0.4893 0.0241
H14 H 0.2521 0.4071 0.0553
Cl2 Cl 0.30461(6) 0.79461(8) 0.6560(2)
O7 O 0.40610(12) 0.06586(17) 0.5910(4)
O8 O 0.48185(14) 0.1024(2) 0.7607(4)
O9 O 0.53876(12) 0.3392(2) 0.6019(4)
O10 O 0.51561(13) 0.2122(2) 0.4944(4)
O11 O 0.28231(11) 0.33078(17) 0.7787(4)
O12 O 0.34201(12) 0.46634(17) 0.7009(4)
N2 N 0.50447(14) 0.2793(2) 0.5715(4)
C13 C 0.4229(2) -0.0264(3) 0.6021(7)
H15 H 0.3962 -0.0617 0.5344
H16 H 0.4226 -0.0458 0.7154
H17 H 0.4611 -0.0332 0.5638
C14 C 0.43940(17) 0.1222(3) 0.6788(5)
C15 C 0.41457(15) 0.2145(2) 0.6687(4)
C16 C 0.35887(16) 0.2280(2) 0.7183(5)
H18 H 0.3365 0.1790 0.7442
C17 C 0.33587(16) 0.3122(2) 0.7300(5)
C18 C 0.36847(16) 0.3871(2) 0.6871(5)
C19 C 0.42370(16) 0.3744(2) 0.6376(5)
H19 H 0.4460 0.4231 0.6098
C20 C 0.44601(15) 0.2890(2) 0.6293(4)
C21 C 0.24745(17) 0.2586(3) 0.8302(5)
H20 H 0.2108 0.2811 0.8613
H21 H 0.2667 0.2292 0.9235
H22 H 0.2414 0.2171 0.7404
C22 C 0.3705(2) 0.5435(3) 0.6460(6)
H23 H 0.3781 0.5384 0.5295
H24 H 0.4070 0.5523 0.7096
C23 C 0.3290(2) 0.6207(3) 0.6738(7)
H25 H 0.2931 0.6108 0.6080
H26 H 0.3201 0.6222 0.7897
C24 C 0.3531(2) 0.7046(3) 0.6292(8)
H27 H 0.3629 0.7024 0.5141
H28 H 0.3885 0.7149 0.6969
loop_
_geom_bond_atom_site_label_1
_geom_bond_atom_site_label_2
_geom_bond_site_symmetry_1
_geom_bond_site_symmetry_2
Cl1 C12 1_555 1_555
Cl2 C24 1_555 1_555
O1 C1 1_555 1_555
O2 C2 1_555 1_555
O3 N1 1_555 1_555
O4 N1 1_555 1_555
O5 C7 1_555 1_555
O6 C6 1_555 1_555
O7 C13 1_555 1_555
O8 C14 1_555 1_555
O9 N2 1_555 1_555
O10 N2 1_555 1_555
O11 C17 1_555 1_555
O12 C18 1_555 1_555
N1 C4 1_555 1_555
N2 C20 1_555 1_555
C1 H1 1_555 1_555
H2 C1 1_555 1_555
H3 C1 1_555 1_555
C2 O1 1_555 1_555
C3 C2 1_555 1_555
C4 C3 1_555 1_555
C5 C4 1_555 1_555
H4 C5 1_555 1_555
C6 C5 1_555 1_555
C7 C6 1_555 1_555
C8 C3 1_555 1_555
H5 C8 1_555 1_555
C9 O5 1_555 1_555
H6 C9 1_555 1_555
H7 C9 1_555 1_555
H8 C9 1_555 1_555
C10 O6 1_555 1_555
H9 C10 1_555 1_555
H10 C10 1_555 1_555
C11 C10 1_555 1_555
H11 C11 1_555 1_555
H12 C11 1_555 1_555
C12 C11 1_555 1_555
H13 C12 1_555 1_555
H14 C12 1_555 1_555
C13 H15 1_555 1_555
H16 C13 1_555 1_555
H17 C13 1_555 1_555
C14 O7 1_555 1_555
C15 C14 1_555 1_555
C16 C15 1_555 1_555
H18 C16 1_555 1_555
C17 C16 1_555 1_555
C18 C17 1_555 1_555
C19 C18 1_555 1_555
H19 C19 1_555 1_555
C20 C15 1_555 1_555
C21 O11 1_555 1_555
H20 C21 1_555 1_555
H21 C21 1_555 1_555
H22 C21 1_555 1_555
C22 O12 1_555 1_555
H23 C22 1_555 1_555
H24 C22 1_555 1_555
C23 C22 1_555 1_555
H25 C23 1_555 1_555
H26 C23 1_555 1_555
C24 C23 1_555 1_555
H27 C24 1_555 1_555
H28 C24 1_555 1_555
C7 C8 1_555 1_555
C19 C20 1_555 1_555

#END
