
#######################################################################
#
#                 Cambridge Crystallographic Data Centre
#                                CCDC 
#
#######################################################################
#
# If this CIF has been generated from an entry in the Cambridge 
# Structural Database, then it will include bibliographic, chemical, 
# crystal, experimental, refinement or atomic coordinate data resulting 
# from the CCDC's data processing and validation procedures.
#
#######################################################################

data_LORREQ
_chemical_formula_moiety         'C13 H20 O4 Si2'
_chemical_name_systematic        
3,3,5,5-Tetramethyl-3,5-disila-4,10-dioxatetracyclo[5.5.1.0^2,6^.0^8,12^]tridecane-9,11-dione
_symmetry_cell_setting           monoclinic
_symmetry_space_group_name_H-M   'P 21/n'
_symmetry_Int_Tables_number      14
_space_group_name_Hall           '-P 2yn'
loop_
_symmetry_equiv_pos_site_id
_symmetry_equiv_pos_as_xyz
1 x,y,z
2 1/2-x,1/2+y,1/2-z
3 -x,-y,-z
4 1/2+x,1/2-y,1/2+z
_cell_length_a                   8.0475(16)
_cell_length_b                   12.047(2)
_cell_length_c                   15.361(3)
_cell_angle_alpha                90
_cell_angle_beta                 95.84(3)
_cell_angle_gamma                90
_cell_volume                     1481.49
_exptl_crystal_colour            colorless
_exptl_crystal_description       block
_cell_formula_units_Z            4
loop_
_atom_site_label
_atom_site_type_symbol
_atom_site_fract_x
_atom_site_fract_y
_atom_site_fract_z
Si1 Si 0.16741(6) 0.26208(4) 0.90062(3)
Si2 Si -0.13909(6) 0.22004(4) 0.97218(3)
O1 O 0.1060(2) 0.08686(13) 1.26700(10)
O2 O 0.34875(17) 0.10991(11) 1.21113(8)
O3 O 0.57506(18) 0.17797(12) 1.15730(9)
O4 O -0.03918(16) 0.25012(11) 0.88621(8)
C1 C 0.1966(3) 0.14869(17) 1.23476(11)
C2 C 0.4400(2) 0.19586(15) 1.17782(11)
C3 C 0.3389(2) 0.30054(14) 1.17335(11)
H1 H 0.3993 0.3615 1.2076
C4 C 0.2776(2) 0.33916(14) 1.07905(11)
H2 H 0.3590 0.3866 1.0509
C5 C 0.1164(2) 0.39877(14) 1.09749(11)
H3 H 0.0507 0.4253 1.0435
H4 H 0.1368 0.4605 1.1397
C6 C 0.0379(2) 0.29693(14) 1.13743(11)
H5 H -0.0747 0.3105 1.1575
C7 C 0.1770(2) 0.26977(15) 1.21202(11)
H6 H 0.1630 0.3151 1.2653
C8 C 0.2102(2) 0.23867(14) 1.02310(10)
H7 H 0.2885 0.1746 1.0341
C9 C 0.0397(2) 0.21144(13) 1.06256(10)
H8 H 0.0451 0.1348 1.0876
C10 C 0.2621(3) 0.15072(18) 0.83835(13)
H9 H 0.2381 0.1647 0.7755
H10 H 0.2149 0.0788 0.8528
H11 H 0.3832 0.1498 0.8539
C11 C 0.2318(2) 0.40101(16) 0.86415(12)
H12 H 0.2057 0.4074 0.8006
H13 H 0.3523 0.4105 0.8793
H14 H 0.1716 0.4585 0.8933
C12 C -0.2961(2) 0.32903(15) 0.98616(12)
H15 H -0.3828 0.3271 0.9365
H16 H -0.2418 0.4019 0.9888
H17 H -0.3470 0.3158 1.0405
C13 C -0.2450(3) 0.08331(15) 0.95812(14)
H18 H -0.3371 0.0884 0.9114
H19 H -0.2890 0.0621 1.0129
H20 H -0.1647 0.0273 0.9427
loop_
_geom_bond_atom_site_label_1
_geom_bond_atom_site_label_2
_geom_bond_site_symmetry_1
_geom_bond_site_symmetry_2
Si1 O4 1_555 1_555
Si2 O4 1_555 1_555
O1 C1 1_555 1_555
O2 C1 1_555 1_555
O3 C2 1_555 1_555
C1 C7 1_555 1_555
C2 O2 1_555 1_555
C3 C2 1_555 1_555
H1 C3 1_555 1_555
C4 C3 1_555 1_555
H2 C4 1_555 1_555
C5 C4 1_555 1_555
H3 C5 1_555 1_555
H4 C5 1_555 1_555
C6 C5 1_555 1_555
H5 C6 1_555 1_555
C7 C3 1_555 1_555
H6 C7 1_555 1_555
C8 Si1 1_555 1_555
H7 C8 1_555 1_555
C9 Si2 1_555 1_555
H8 C9 1_555 1_555
C10 Si1 1_555 1_555
H9 C10 1_555 1_555
H10 C10 1_555 1_555
H11 C10 1_555 1_555
C11 Si1 1_555 1_555
H12 C11 1_555 1_555
H13 C11 1_555 1_555
H14 C11 1_555 1_555
C12 Si2 1_555 1_555
H15 C12 1_555 1_555
H16 C12 1_555 1_555
H17 C12 1_555 1_555
C13 Si2 1_555 1_555
H18 C13 1_555 1_555
H19 C13 1_555 1_555
H20 C13 1_555 1_555
C4 C8 1_555 1_555
C6 C7 1_555 1_555
C6 C9 1_555 1_555
C8 C9 1_555 1_555

#END
