
#######################################################################
#
#                 Cambridge Crystallographic Data Centre
#                                CCDC 
#
#######################################################################
#
# If this CIF has been generated from an entry in the Cambridge 
# Structural Database, then it will include bibliographic, chemical, 
# crystal, experimental, refinement or atomic coordinate data resulting 
# from the CCDC's data processing and validation procedures.
#
#######################################################################

data_LORWAQ
_chemical_formula_moiety         'C50 H66 Cl2 N2 P2'
_chemical_name_systematic        
2,4-bis(2,4,6-Tri-t-butylphenyl)-1,3-bis(p-chlorophenylimino)-2,3-diphosphacyclobutane
_symmetry_cell_setting           triclinic
_symmetry_space_group_name_H-M   'P -1'
_symmetry_Int_Tables_number      2
_space_group_name_Hall           '-P 1'
loop_
_symmetry_equiv_pos_site_id
_symmetry_equiv_pos_as_xyz
1 x,y,z
2 -x,-y,-z
_cell_length_a                   9.5349(7)
_cell_length_b                   10.3912(8)
_cell_length_c                   13.5741(10)
_cell_angle_alpha                69.4530(10)
_cell_angle_beta                 75.2420(10)
_cell_angle_gamma                70.8920(10)
_cell_volume                     1175.01
_exptl_crystal_colour            yellow
_chemical_melting_point          238-240deg.C
_cell_formula_units_Z            1
loop_
_atom_site_label
_atom_site_type_symbol
_atom_site_fract_x
_atom_site_fract_y
_atom_site_fract_z
P1 P 0.05818(6) 0.58489(6) 0.02308(4)
Cl1 Cl 0.54776(10) 0.18158(11) 0.41926(7)
N1 N 0.1472(2) 0.2760(2) 0.11681(16)
C1 C 0.0711(3) 0.3946(2) 0.06214(17)
C2 C 0.2312(2) 0.7985(2) 0.00584(18)
C3 C 0.3668(3) 0.6694(3) -0.0036(2)
H1 H 0.4351 0.6969 -0.0677
H2 H 0.3321 0.5937 -0.0058
H3 H 0.4174 0.6375 0.0568
C4 C 0.2972(3) 0.9143(3) 0.0081(2)
H4 H 0.3668 0.9376 -0.0561
H5 H 0.3484 0.8796 0.0685
H6 H 0.2174 0.9979 0.0133
C5 C 0.1565(3) 0.8627(3) -0.0948(2)
H7 H 0.2303 0.8859 -0.1563
H8 H 0.0785 0.9475 -0.0896
H9 H 0.1138 0.7948 -0.1014
C6 C 0.0373(3) 0.8205(3) 0.3827(2)
C7 C 0.1990(5) 0.7701(6) 0.4028(3)
H10 H 0.2298 0.6679 0.4249
H11 H 0.2062 0.8048 0.4577
H12 H 0.2630 0.8058 0.3385
C8 C -0.0622(6) 0.7676(6) 0.4845(3)
H13 H -0.0358 0.6653 0.5061
H14 H -0.1652 0.8038 0.4735
H15 H -0.0493 0.7997 0.5390
C9 C -0.0056(6) 0.9858(4) 0.3482(3)
H16 H -0.1075 1.0221 0.3349
H17 H 0.0602 1.0198 0.2844
H18 H 0.0041 1.0177 0.4039
C10 C -0.2430(3) 0.6117(3) 0.2352(2)
C11 C -0.3556(4) 0.6405(5) 0.3339(3)
H19 H -0.4390 0.6024 0.3436
H20 H -0.3912 0.7413 0.3238
H21 H -0.3067 0.5956 0.3957
C12 C -0.3277(4) 0.6811(5) 0.1413(3)
H22 H -0.4125 0.6433 0.1555
H23 H -0.2623 0.6621 0.0785
H24 H -0.3620 0.7821 0.1305
C13 C -0.1972(4) 0.4498(4) 0.2583(3)
H25 H -0.2850 0.4169 0.2704
H26 H -0.1491 0.4064 0.3205
H27 H -0.1289 0.4244 0.1985
C14 C 0.2393(3) 0.2625(2) 0.18782(18)
C15 C 0.3418(3) 0.1309(3) 0.2188(2)
H28 H 0.3462 0.0584 0.1919
C16 C 0.4372(3) 0.1058(3) 0.2889(2)
H29 H 0.5050 0.0171 0.3091
C17 C 0.4313(3) 0.2128(3) 0.3287(2)
C18 C 0.3320(3) 0.3434(3) 0.2995(2)
H30 H 0.3292 0.4158 0.3259
C19 C 0.2357(3) 0.3671(3) 0.2304(2)
H31 H 0.1667 0.4554 0.2120
C20 C 0.0067(2) 0.6845(2) 0.12154(17)
C21 C 0.1166(2) 0.7585(2) 0.10902(17)
C22 C 0.1213(3) 0.7987(2) 0.19488(18)
H32 H 0.1936 0.8447 0.1881
C23 C 0.0238(3) 0.7742(3) 0.29043(18)
C24 C -0.0893(3) 0.7155(3) 0.29594(18)
H33 H -0.1600 0.7053 0.3577
C25 C -0.1041(2) 0.6704(2) 0.21489(18)
P1A P -0.05818(6) 0.41511(6) -0.02308(4)
C1A C -0.0711(3) 0.6054(2) -0.06214(17)
N1A N -0.1472(2) 0.7240(2) -0.11681(16)
C14A C -0.2393(3) 0.7375(2) -0.18782(18)
C15A C -0.3418(3) 0.8691(3) -0.2188(2)
H28A H -0.3462 0.9416 -0.1919
C16A C -0.4372(3) 0.8942(3) -0.2889(2)
H29A H -0.5050 0.9829 -0.3091
C17A C -0.4313(3) 0.7872(3) -0.3287(2)
Cl1A Cl -0.54776(10) 0.81842(11) -0.41926(7)
C18A C -0.3320(3) 0.6566(3) -0.2995(2)
H30A H -0.3292 0.5842 -0.3259
C19A C -0.2357(3) 0.6329(3) -0.2304(2)
H31A H -0.1667 0.5446 -0.2120
C20A C -0.0067(2) 0.3155(2) -0.12154(17)
C21A C -0.1166(2) 0.2415(2) -0.10902(17)
C2A C -0.2312(2) 0.2015(2) -0.00584(18)
C3A C -0.3668(3) 0.3306(3) 0.0036(2)
H1A H -0.4351 0.3031 0.0677
H2A H -0.3321 0.4063 0.0058
H3A H -0.4174 0.3625 -0.0568
C4A C -0.2972(3) 0.0857(3) -0.0081(2)
H4A H -0.3668 0.0624 0.0561
H5A H -0.3484 0.1204 -0.0685
H6A H -0.2174 0.0021 -0.0133
C5A C -0.1565(3) 0.1373(3) 0.0948(2)
H7A H -0.2303 0.1141 0.1563
H8A H -0.0785 0.0525 0.0896
H9A H -0.1138 0.2052 0.1014
C22A C -0.1213(3) 0.2013(2) -0.19488(18)
H32A H -0.1936 0.1553 -0.1881
C23A C -0.0238(3) 0.2258(3) -0.29043(18)
C6A C -0.0373(3) 0.1795(3) -0.3827(2)
C7A C -0.1990(5) 0.2299(6) -0.4028(3)
H10A H -0.2298 0.3321 -0.4249
H11A H -0.2062 0.1952 -0.4577
H12A H -0.2630 0.1942 -0.3385
C8A C 0.0622(6) 0.2324(6) -0.4845(3)
H13A H 0.0358 0.3347 -0.5061
H14A H 0.1652 0.1962 -0.4735
H15A H 0.0493 0.2003 -0.5390
C9A C 0.0056(6) 0.0142(4) -0.3482(3)
H16A H 0.1075 -0.0221 -0.3349
H17A H -0.0602 -0.0198 -0.2844
H18A H -0.0041 -0.0177 -0.4039
C24A C 0.0893(3) 0.2845(3) -0.29594(18)
H33A H 0.1600 0.2947 -0.3577
C25A C 0.1041(2) 0.3296(2) -0.21489(18)
C10A C 0.2430(3) 0.3883(3) -0.2352(2)
C11A C 0.3556(4) 0.3595(5) -0.3339(3)
H19A H 0.4390 0.3976 -0.3436
H20A H 0.3912 0.2587 -0.3238
H21A H 0.3067 0.4044 -0.3957
C12A C 0.3277(4) 0.3189(5) -0.1413(3)
H22A H 0.4125 0.3567 -0.1555
H23A H 0.2623 0.3379 -0.0785
H24A H 0.3620 0.2179 -0.1305
C13A C 0.1972(4) 0.5502(4) -0.2583(3)
H25A H 0.2850 0.5831 -0.2704
H26A H 0.1491 0.5936 -0.3205
H27A H 0.1289 0.5756 -0.1985
loop_
_geom_bond_atom_site_label_1
_geom_bond_atom_site_label_2
_geom_bond_site_symmetry_1
_geom_bond_site_symmetry_2
P1 C1 1_555 1_555
Cl1 C17 1_555 1_555
N1 C1 1_555 1_555
C1 P1A 1_555 1_555
C2 C3 1_555 1_555
C3 H1 1_555 1_555
H2 C3 1_555 1_555
H3 C3 1_555 1_555
C4 C2 1_555 1_555
H4 C4 1_555 1_555
H5 C4 1_555 1_555
H6 C4 1_555 1_555
C5 C2 1_555 1_555
H7 C5 1_555 1_555
H8 C5 1_555 1_555
H9 C5 1_555 1_555
C6 C7 1_555 1_555
C7 H10 1_555 1_555
H11 C7 1_555 1_555
H12 C7 1_555 1_555
C8 C6 1_555 1_555
H13 C8 1_555 1_555
H14 C8 1_555 1_555
H15 C8 1_555 1_555
C9 C6 1_555 1_555
H16 C9 1_555 1_555
H17 C9 1_555 1_555
H18 C9 1_555 1_555
C10 C11 1_555 1_555
C11 H19 1_555 1_555
H20 C11 1_555 1_555
H21 C11 1_555 1_555
C12 C10 1_555 1_555
H22 C12 1_555 1_555
H23 C12 1_555 1_555
H24 C12 1_555 1_555
C13 C10 1_555 1_555
H25 C13 1_555 1_555
H26 C13 1_555 1_555
H27 C13 1_555 1_555
C14 N1 1_555 1_555
C15 C14 1_555 1_555
H28 C15 1_555 1_555
C16 C15 1_555 1_555
H29 C16 1_555 1_555
C17 C16 1_555 1_555
C18 C17 1_555 1_555
H30 C18 1_555 1_555
C19 C14 1_555 1_555
H31 C19 1_555 1_555
C20 P1 1_555 1_555
C21 C2 1_555 1_555
C22 C21 1_555 1_555
H32 C22 1_555 1_555
C23 C6 1_555 1_555
C24 C23 1_555 1_555
H33 C24 1_555 1_555
C25 C10 1_555 1_555
P1A C1A 1_555 1_555
C1A P1 1_555 1_555
N1A C1A 1_555 1_555
C14A N1A 1_555 1_555
C15A C14A 1_555 1_555
H28A C15A 1_555 1_555
C16A C15A 1_555 1_555
H29A C16A 1_555 1_555
C17A C16A 1_555 1_555
Cl1A C17A 1_555 1_555
C18A C17A 1_555 1_555
H30A C18A 1_555 1_555
C19A C14A 1_555 1_555
H31A C19A 1_555 1_555
C20A P1A 1_555 1_555
C21A C20A 1_555 1_555
C2A C21A 1_555 1_555
C3A C2A 1_555 1_555
H1A C3A 1_555 1_555
H2A C3A 1_555 1_555
H3A C3A 1_555 1_555
C4A C2A 1_555 1_555
H4A C4A 1_555 1_555
H5A C4A 1_555 1_555
H6A C4A 1_555 1_555
C5A C2A 1_555 1_555
H7A C5A 1_555 1_555
H8A C5A 1_555 1_555
H9A C5A 1_555 1_555
C22A C21A 1_555 1_555
H32A C22A 1_555 1_555
C23A C22A 1_555 1_555
C6A C23A 1_555 1_555
C7A C6A 1_555 1_555
H10A C7A 1_555 1_555
H11A C7A 1_555 1_555
H12A C7A 1_555 1_555
C8A C6A 1_555 1_555
H13A C8A 1_555 1_555
H14A C8A 1_555 1_555
H15A C8A 1_555 1_555
C9A C6A 1_555 1_555
H16A C9A 1_555 1_555
H17A C9A 1_555 1_555
H18A C9A 1_555 1_555
C24A C23A 1_555 1_555
H33A C24A 1_555 1_555
C25A C20A 1_555 1_555
C10A C25A 1_555 1_555
C11A C10A 1_555 1_555
H19A C11A 1_555 1_555
H20A C11A 1_555 1_555
H21A C11A 1_555 1_555
C12A C10A 1_555 1_555
H22A C12A 1_555 1_555
H23A C12A 1_555 1_555
H24A C12A 1_555 1_555
C13A C10A 1_555 1_555
H25A C13A 1_555 1_555
H26A C13A 1_555 1_555
H27A C13A 1_555 1_555
C18 C19 1_555 1_555
C20 C21 1_555 1_555
C20 C25 1_555 1_555
C22 C23 1_555 1_555
C24 C25 1_555 1_555
C18A C19A 1_555 1_555
C24A C25A 1_555 1_555

#END
