
#######################################################################
#
#                 Cambridge Crystallographic Data Centre
#                                CCDC 
#
#######################################################################
#
# If this CIF has been generated from an entry in the Cambridge 
# Structural Database, then it will include bibliographic, chemical, 
# crystal, experimental, refinement or atomic coordinate data resulting 
# from the CCDC's data processing and validation procedures.
#
#######################################################################

data_LORWAS
_chemical_formula_moiety         'C27 H25 Cl1 N2 O4 S1'
_chemical_name_systematic        
'methyl 10-chloro-4-((4-methylphenyl)sulfonyl)-1-phenyl-1,6,7,11b-tetrahydro-4H-pyridazino[6,1-a]isoquinoline-2-carboxylate'
_symmetry_cell_setting           orthorhombic
_symmetry_space_group_name_H-M   'P 21 21 21'
_symmetry_Int_Tables_number      19
_space_group_name_Hall           'P 2ac 2ab'
loop_
_symmetry_equiv_pos_site_id
_symmetry_equiv_pos_as_xyz
1 x,y,z
2 1/2-x,-y,1/2+z
3 -x,1/2+y,1/2-z
4 1/2+x,1/2-y,-z
_cell_length_a                   8.8234(19)
_cell_length_b                   9.577(2)
_cell_length_c                   29.407(7)
_cell_angle_alpha                90
_cell_angle_beta                 90
_cell_angle_gamma                90
_cell_volume                     2484.94
_exptl_crystal_colour            colorless
_exptl_crystal_description       block
_cell_formula_units_Z            4
loop_
_atom_site_label
_atom_site_type_symbol
_atom_site_fract_x
_atom_site_fract_y
_atom_site_fract_z
Cl1 Cl 0.66136(10) 0.45333(9) 0.32164(4)
S1 S 0.03176(7) 1.06649(6) 0.34140(2)
O1 O 0.0339(2) 1.1144(2) 0.29546(6)
O2 O -0.0746(2) 1.1231(2) 0.37312(7)
O3 O 0.4739(2) 1.0641(2) 0.50354(6)
O4 O 0.2581(2) 1.1872(2) 0.49786(7)
N1 N 0.2041(2) 1.1006(2) 0.36408(7)
N2 N 0.3236(2) 1.0344(2) 0.33922(7)
C1 C 0.3825(3) 0.9139(3) 0.36481(8)
H1 H 0.2982 0.8484 0.3690
C2 C 0.4429(3) 0.9526(3) 0.41295(8)
H2 H 0.5432 0.9955 0.4100
C3 C 0.3352(3) 1.0569(3) 0.43439(8)
C4 C 0.2205(3) 1.1143(3) 0.41114(9)
H3 H 0.1484 1.1656 0.4271
C5 C 0.4999(3) 0.8415(3) 0.33588(8)
C6 C 0.5222(3) 0.6977(3) 0.34074(9)
H4 H 0.4638 0.6465 0.3611
C7 C 0.6328(3) 0.6327(3) 0.31478(11)
C8 C 0.7192(3) 0.7052(3) 0.28375(10)
H5 H 0.7925 0.6599 0.2665
C9 C 0.6945(3) 0.8467(3) 0.27890(10)
H6 H 0.7517 0.8963 0.2578
C10 C 0.5857(3) 0.9179(3) 0.30478(9)
C11 C 0.5580(3) 1.0712(3) 0.29673(9)
H7 H 0.5224 1.0836 0.2658
H8 H 0.6536 1.1205 0.2995
C12 C 0.4440(3) 1.1372(3) 0.32898(9)
H9 H 0.4942 1.1653 0.3569
H10 H 0.4000 1.2197 0.3151
C13 C 0.4577(3) 0.8171(3) 0.43938(8)
C14 C 0.5985(3) 0.7544(3) 0.44483(10)
H11 H 0.6856 0.8026 0.4364
C15 C 0.6111(4) 0.6215(3) 0.46263(11)
H12 H 0.7062 0.5810 0.4660
C16 C 0.4828(4) 0.5481(3) 0.47547(11)
H13 H 0.4913 0.4579 0.4869
C17 C 0.3425(4) 0.6099(3) 0.47116(11)
H14 H 0.2560 0.5620 0.4803
C18 C 0.3299(3) 0.7436(3) 0.45316(10)
H15 H 0.2347 0.7844 0.4503
C19 C 0.3653(3) 1.1005(3) 0.48175(9)
C20 C 0.2814(4) 1.2394(4) 0.54359(10)
H16 H 0.3791 1.2831 0.5455
H17 H 0.2764 1.1633 0.5648
H18 H 0.2040 1.3064 0.5507
C21 C 0.0236(3) 0.8841(3) 0.34231(9)
C22 C 0.0836(3) 0.8093(3) 0.30568(10)
H19 H 0.1115 0.8542 0.2789
C23 C 0.0999(4) 0.6670(3) 0.31040(13)
H20 H 0.1391 0.6156 0.2863
C24 C 0.0596(4) 0.5982(3) 0.35012(14)
C25 C -0.0041(3) 0.6748(3) 0.38521(13)
H21 H -0.0359 0.6292 0.4114
C26 C -0.0211(3) 0.8181(3) 0.38192(10)
H22 H -0.0619 0.8691 0.4059
C27 C 0.0862(5) 0.4430(4) 0.35509(18)
H23 H 0.0575 0.3965 0.3275
H24 H 0.0264 0.4077 0.3798
H25 H 0.1916 0.4261 0.3611
loop_
_geom_bond_atom_site_label_1
_geom_bond_atom_site_label_2
_geom_bond_site_symmetry_1
_geom_bond_site_symmetry_2
Cl1 C7 1_555 1_555
S1 O1 1_555 1_555
O2 S1 1_555 1_555
O3 C19 1_555 1_555
O4 C19 1_555 1_555
N1 S1 1_555 1_555
N2 N1 1_555 1_555
C1 N2 1_555 1_555
H1 C1 1_555 1_555
C2 C1 1_555 1_555
H2 C2 1_555 1_555
C3 C2 1_555 1_555
C4 N1 1_555 1_555
H3 C4 1_555 1_555
C5 C1 1_555 1_555
C6 C5 1_555 1_555
H4 C6 1_555 1_555
C7 C6 1_555 1_555
C8 C7 1_555 1_555
H5 C8 1_555 1_555
C9 C8 1_555 1_555
H6 C9 1_555 1_555
C10 C5 1_555 1_555
C11 C10 1_555 1_555
H7 C11 1_555 1_555
H8 C11 1_555 1_555
C12 N2 1_555 1_555
H9 C12 1_555 1_555
H10 C12 1_555 1_555
C13 C2 1_555 1_555
C14 C13 1_555 1_555
H11 C14 1_555 1_555
C15 C14 1_555 1_555
H12 C15 1_555 1_555
C16 C15 1_555 1_555
H13 C16 1_555 1_555
C17 C16 1_555 1_555
H14 C17 1_555 1_555
C18 C13 1_555 1_555
H15 C18 1_555 1_555
C19 C3 1_555 1_555
C20 O4 1_555 1_555
H16 C20 1_555 1_555
H17 C20 1_555 1_555
H18 C20 1_555 1_555
C21 S1 1_555 1_555
C22 C21 1_555 1_555
H19 C22 1_555 1_555
C23 C22 1_555 1_555
H20 C23 1_555 1_555
C24 C23 1_555 1_555
C25 C24 1_555 1_555
H21 C25 1_555 1_555
C26 C21 1_555 1_555
H22 C26 1_555 1_555
C27 C24 1_555 1_555
H23 C27 1_555 1_555
H24 C27 1_555 1_555
H25 C27 1_555 1_555
C3 C4 1_555 1_555
C9 C10 1_555 1_555
C11 C12 1_555 1_555
C17 C18 1_555 1_555
C25 C26 1_555 1_555

#END
