
#######################################################################
#
#                 Cambridge Crystallographic Data Centre
#                                CCDC 
#
#######################################################################
#
# If this CIF has been generated from an entry in the Cambridge 
# Structural Database, then it will include bibliographic, chemical, 
# crystal, experimental, refinement or atomic coordinate data resulting 
# from the CCDC's data processing and validation procedures.
#
#######################################################################

data_LORYAU
_chemical_formula_moiety         'C36 H35 N3 2+,2(C10 H7 O3 S1 1-),C1 H3 N1 O2'
_chemical_name_systematic        
'13-(2-(4-(dimethylamino)phenyl)vinyl)-6,7-dimethyl-4,5,8,9-tetrahydroisoquinolino[1,2-a]pyrido[1,2-k][2,9]phenanthrolinediium bis(naphthalene-2-sulfonate) nitromethane solvate'
_symmetry_cell_setting           triclinic
_symmetry_space_group_name_H-M   'P -1'
_symmetry_Int_Tables_number      2
_space_group_name_Hall           '-P 1'
loop_
_symmetry_equiv_pos_site_id
_symmetry_equiv_pos_as_xyz
1 x,y,z
2 -x,-y,-z
_cell_length_a                   8.2074(6)
_cell_length_b                   16.4498(11)
_cell_length_c                   19.3506(12)
_cell_angle_alpha                70.455(2)
_cell_angle_beta                 86.370(2)
_cell_angle_gamma                77.900(2)
_cell_volume                     2407.23
_exptl_crystal_colour            violet
_exptl_crystal_description       bar
_cell_formula_units_Z            2
loop_
_atom_site_label
_atom_site_type_symbol
_atom_site_fract_x
_atom_site_fract_y
_atom_site_fract_z
C1 C 0.5392(3) 0.54530(17) 0.17921(15)
H1 H 0.5071 0.5756 0.2135
C2 C 0.6000(3) 0.58982(18) 0.11073(15)
C3 C 0.6473(4) 0.54184(19) 0.06277(16)
H2 H 0.6826 0.5703 0.0146
C4 C 0.6431(4) 0.45459(19) 0.08464(16)
H3 H 0.6821 0.4221 0.0524
N1 N 0.5850(3) 0.41346(14) 0.15090(12)
C5 C 0.5870(4) 0.31753(18) 0.17358(16)
H4 H 0.6689 0.2902 0.1439
H5 H 0.4757 0.3081 0.1652
C6 C 0.6331(4) 0.27540(18) 0.25385(16)
H6 H 0.6291 0.2121 0.2697
H7 H 0.7483 0.2805 0.2613
C7 C 0.5155(3) 0.31925(18) 0.29927(16)
C8 C 0.4642(4) 0.27341(19) 0.37015(16)
C9 C 0.3569(4) 0.3190(2) 0.40986(15)
C10 C 0.2918(3) 0.40839(19) 0.37775(15)
C11 C 0.1803(4) 0.4623(2) 0.41859(16)
H8 H 0.0633 0.4573 0.4149
H9 H 0.2124 0.4390 0.4711
C12 C 0.1945(4) 0.5577(2) 0.38725(16)
H10 H 0.1137 0.5929 0.4116
H11 H 0.3079 0.5636 0.3966
N2 N 0.1612(3) 0.59115(15) 0.30741(13)
C13 C 0.0718(4) 0.67462(19) 0.27619(19)
H12 H 0.0331 0.7102 0.3061
C14 C 0.0375(4) 0.7073(2) 0.20390(19)
H13 H -0.0141 0.7674 0.1824
C15 C 0.0778(3) 0.65283(18) 0.15989(16)
C16 C 0.0295(4) 0.6799(2) 0.08581(17)
H14 H -0.0181 0.7400 0.0614
C17 C 0.0500(4) 0.6214(2) 0.04860(17)
H15 H 0.0192 0.6410 -0.0017
C18 C 0.1165(4) 0.5324(2) 0.08466(15)
H16 H 0.1222 0.4910 0.0597
C19 C 0.1736(3) 0.50403(18) 0.15554(15)
H17 H 0.2216 0.4437 0.1787
C20 C 0.1616(3) 0.56398(17) 0.19438(15)
C21 C 0.2190(3) 0.53766(17) 0.26776(15)
C22 C 0.3280(3) 0.45237(17) 0.30469(14)
C23 C 0.4523(3) 0.40926(17) 0.26777(15)
C24 C 0.5248(3) 0.45817(17) 0.19816(14)
C25 C 0.5294(5) 0.1752(2) 0.40218(19)
H18 H 0.5572 0.1598 0.4541
H19 H 0.6294 0.1583 0.3757
H20 H 0.4438 0.1438 0.3975
C26 C 0.3035(4) 0.2722(2) 0.48682(16)
H21 H 0.3713 0.2814 0.5224
H22 H 0.3191 0.2091 0.4946
H23 H 0.1858 0.2959 0.4932
C27 C 0.6210(4) 0.68053(19) 0.08745(17)
H24 H 0.6478 0.7063 0.0374
C28 C 0.6062(4) 0.7305(2) 0.12967(16)
H25 H 0.5732 0.7056 0.1789
C29 C 0.6355(4) 0.82006(19) 0.10781(17)
C30 C 0.6859(4) 0.86546(19) 0.03761(17)
H26 H 0.7036 0.8369 0.0017
C31 C 0.7109(4) 0.9515(2) 0.01872(18)
H27 H 0.7496 0.9797 -0.0289
C32 C 0.6793(4) 0.9967(2) 0.06976(18)
C33 C 0.6313(4) 0.9508(2) 0.14043(19)
H28 H 0.6120 0.9791 0.1765
C34 C 0.6115(4) 0.8646(2) 0.15848(18)
H29 H 0.5806 0.8349 0.2071
N3 N 0.6948(4) 1.08333(17) 0.05081(16)
C35 C 0.7620(5) 1.1264(2) -0.0194(2)
H30 H 0.8758 1.0951 -0.0236
H31 H 0.7636 1.1874 -0.0238
H32 H 0.6924 1.1261 -0.0586
C36 C 0.6266(5) 1.1347(2) 0.0978(2)
H33 H 0.5112 1.1283 0.1100
H34 H 0.6292 1.1969 0.0721
H35 H 0.6932 1.1136 0.1429
C37 C 0.8551(4) 0.83396(19) 0.82073(16)
C38 C 0.7659(4) 0.8893(2) 0.76044(17)
H36 H 0.7141 0.8658 0.7309
C39 C 0.7492(4) 0.9824(2) 0.74099(19)
C40 C 0.6561(5) 1.0415(2) 0.6796(2)
H37 H 0.6053 1.0196 0.6486
C41 C 0.6379(5) 1.1303(3) 0.6641(3)
H38 H 0.5736 1.1697 0.6227
C42 C 0.7133(5) 1.1639(3) 0.7088(3)
H39 H 0.6989 1.2257 0.6980
C43 C 0.8064(5) 1.1083(2) 0.7674(3)
H40 H 0.8584 1.1317 0.7968
C44 C 0.8279(4) 1.0156(2) 0.7857(2)
C45 C 0.9244(5) 0.9563(2) 0.8464(2)
H41 H 0.9817 0.9782 0.8753
C46 C 0.9361(4) 0.8680(2) 0.86412(18)
H42 H 0.9992 0.8289 0.9060
S1 S 0.86838(9) 0.71943(5) 0.84760(4)
O1 O 0.7645(3) 0.69742(13) 0.91178(11)
O2 O 1.0418(3) 0.67942(14) 0.86324(13)
O3 O 0.8038(3) 0.70451(13) 0.78544(11)
C47 C 0.7280(3) 0.50738(19) 0.36698(15)
C48 C 0.7148(4) 0.4368(2) 0.42790(16)
H43 H 0.6483 0.4455 0.4678
C49 C 0.8000(4) 0.3505(2) 0.43198(16)
C50 C 0.7923(4) 0.2774(2) 0.49475(17)
H44 H 0.7276 0.2848 0.5355
C51 C 0.8779(4) 0.1953(2) 0.4973(2)
H45 H 0.8718 0.1460 0.5399
C52 C 0.9749(4) 0.1835(2) 0.43744(19)
H46 H 1.0342 0.1263 0.4402
C53 C 0.9846(4) 0.2528(2) 0.37586(18)
H47 H 1.0498 0.2438 0.3358
C54 C 0.8973(4) 0.3392(2) 0.37108(16)
C55 C 0.9043(4) 0.4131(2) 0.30807(16)
H48 H 0.9662 0.4055 0.2667
C56 C 0.8229(3) 0.4955(2) 0.30598(16)
H49 H 0.8300 0.5448 0.2636
S2 S 0.62417(9) 0.61553(5) 0.36172(4)
O4 O 0.5432(3) 0.60789(13) 0.43173(11)
O5 O 0.7520(3) 0.66764(15) 0.34699(14)
O6 O 0.5049(3) 0.64206(13) 0.30177(11)
N4 N 0.2334(6) 0.0382(3) 0.6577(3)
C57 C 0.1803(5) 0.1239(3) 0.6637(2)
H50 H 0.1312 0.1189 0.7121
H51 H 0.0969 0.1592 0.6255
H52 H 0.2762 0.1524 0.6576
O7 O 0.2835(5) -0.0272(2) 0.7090(2)
O8 O 0.2626(8) 0.0419(4) 0.5919(4)
C58? C 0.118(2) -0.0025(10) 0.6280(9)
H53? H 0.1573 -0.0665 0.6441
H54? H 0.1178 0.0209 0.5743
H55? H 0.0055 0.0116 0.6461
O9? O 0.347(3) 0.0538(17) 0.5835(14)
loop_
_geom_bond_atom_site_label_1
_geom_bond_atom_site_label_2
_geom_bond_site_symmetry_1
_geom_bond_site_symmetry_2
C1 H1 1_555 1_555
C2 C1 1_555 1_555
C3 C2 1_555 1_555
H2 C3 1_555 1_555
C4 C3 1_555 1_555
H3 C4 1_555 1_555
N1 C4 1_555 1_555
C5 N1 1_555 1_555
H4 C5 1_555 1_555
H5 C5 1_555 1_555
C6 C5 1_555 1_555
H6 C6 1_555 1_555
H7 C6 1_555 1_555
C7 C6 1_555 1_555
C8 C7 1_555 1_555
C9 C8 1_555 1_555
C10 C9 1_555 1_555
C11 C10 1_555 1_555
H8 C11 1_555 1_555
H9 C11 1_555 1_555
C12 C11 1_555 1_555
H10 C12 1_555 1_555
H11 C12 1_555 1_555
N2 C12 1_555 1_555
C13 N2 1_555 1_555
H12 C13 1_555 1_555
C14 C13 1_555 1_555
H13 C14 1_555 1_555
C15 C14 1_555 1_555
C16 C15 1_555 1_555
H14 C16 1_555 1_555
C17 C16 1_555 1_555
H15 C17 1_555 1_555
C18 C17 1_555 1_555
H16 C18 1_555 1_555
C19 C18 1_555 1_555
H17 C19 1_555 1_555
C20 C15 1_555 1_555
C21 N2 1_555 1_555
C22 C10 1_555 1_555
C23 C7 1_555 1_555
C24 C1 1_555 1_555
C25 C8 1_555 1_555
H18 C25 1_555 1_555
H19 C25 1_555 1_555
H20 C25 1_555 1_555
C26 C9 1_555 1_555
H21 C26 1_555 1_555
H22 C26 1_555 1_555
H23 C26 1_555 1_555
C27 C2 1_555 1_555
H24 C27 1_555 1_555
C28 C27 1_555 1_555
H25 C28 1_555 1_555
C29 C28 1_555 1_555
C30 C29 1_555 1_555
H26 C30 1_555 1_555
C31 C30 1_555 1_555
H27 C31 1_555 1_555
C32 C31 1_555 1_555
C33 C32 1_555 1_555
H28 C33 1_555 1_555
C34 C29 1_555 1_555
H29 C34 1_555 1_555
N3 C32 1_555 1_555
C35 N3 1_555 1_555
H30 C35 1_555 1_555
H31 C35 1_555 1_555
H32 C35 1_555 1_555
C36 N3 1_555 1_555
H33 C36 1_555 1_555
H34 C36 1_555 1_555
H35 C36 1_555 1_555
C37 C38 1_555 1_555
C38 H36 1_555 1_555
C39 C38 1_555 1_555
C40 C39 1_555 1_555
H37 C40 1_555 1_555
C41 C40 1_555 1_555
H38 C41 1_555 1_555
C42 C41 1_555 1_555
H39 C42 1_555 1_555
C43 C42 1_555 1_555
H40 C43 1_555 1_555
C44 C39 1_555 1_555
C45 C44 1_555 1_555
H41 C45 1_555 1_555
C46 C37 1_555 1_555
H42 C46 1_555 1_555
S1 C37 1_555 1_555
O1 S1 1_555 1_555
O2 S1 1_555 1_555
O3 S1 1_555 1_555
C47 C48 1_555 1_555
C48 H43 1_555 1_555
C49 C48 1_555 1_555
C50 C49 1_555 1_555
H44 C50 1_555 1_555
C51 C50 1_555 1_555
H45 C51 1_555 1_555
C52 C51 1_555 1_555
H46 C52 1_555 1_555
C53 C52 1_555 1_555
H47 C53 1_555 1_555
C54 C49 1_555 1_555
C55 C54 1_555 1_555
H48 C55 1_555 1_555
C56 C47 1_555 1_555
H49 C56 1_555 1_555
S2 C47 1_555 1_555
O4 S2 1_555 1_555
O5 S2 1_555 1_555
O6 S2 1_555 1_555
N4 C57 1_555 1_555
C57 H50 1_555 1_555
H51 C57 1_555 1_555
H52 C57 1_555 1_555
O7 N4 1_555 1_555
O8 N4 1_555 1_555
N1 C24 1_555 1_555
C19 C20 1_555 1_555
C20 C21 1_555 1_555
C21 C22 1_555 1_555
C22 C23 1_555 1_555
C23 C24 1_555 1_555
C33 C34 1_555 1_555
C43 C44 1_555 1_555
C45 C46 1_555 1_555
C53 C54 1_555 1_555
C55 C56 1_555 1_555

#END
