
#######################################################################
#
#                 Cambridge Crystallographic Data Centre
#                                CCDC 
#
#######################################################################
#
# If this CIF has been generated from an entry in the Cambridge 
# Structural Database, then it will include bibliographic, chemical, 
# crystal, experimental, refinement or atomic coordinate data resulting 
# from the CCDC's data processing and validation procedures.
#
#######################################################################

data_LOSFUV
_chemical_name_common            
"N-(Diphenylphosphorothioyl)-P-phenyl-N,N'-di-2-propanylphosphonothioic diamide"
_chemical_formula_moiety         'C24 H30 N2 P2 S2'
_chemical_name_systematic        
'P-[N-(Diphenylphosphorothioyl)isopropylamino]-N-isopropyl-P-phenylthiophosphinic amide'
_symmetry_cell_setting           monoclinic
_symmetry_space_group_name_H-M   'P 21/c'
_symmetry_Int_Tables_number      14
_space_group_name_Hall           '-P 2ybc'
loop_
_symmetry_equiv_pos_site_id
_symmetry_equiv_pos_as_xyz
1 x,y,z
2 -x,1/2+y,1/2-z
3 -x,-y,-z
4 x,1/2-y,1/2+z
_cell_length_a                   9.08354(19)
_cell_length_b                   25.4654(7)
_cell_length_c                   10.6557(2)
_cell_angle_alpha                90
_cell_angle_beta                 100.1488(17)
_cell_angle_gamma                90
_cell_volume                     2426.27
_exptl_crystal_colour            colorless
_exptl_crystal_description       prism
_cell_formula_units_Z            4
loop_
_atom_site_label
_atom_site_type_symbol
_atom_site_fract_x
_atom_site_fract_y
_atom_site_fract_z
C1 C 0.10362(14) 0.36285(5) 0.96160(12)
C2 C 0.03459(17) 0.41159(5) 0.96335(13)
H1 H -0.0041 0.4289 0.8855
C3 C 0.02223(19) 0.43493(6) 1.07847(14)
H2 H -0.0262 0.4680 1.0794
C4 C 0.0804(2) 0.41023(6) 1.19223(14)
H3 H 0.0722 0.4264 1.2711
C5 C 0.15020(18) 0.36216(6) 1.19100(14)
H4 H 0.1908 0.3454 1.2691
C6 C 0.16137(15) 0.33825(6) 1.07616(13)
H5 H 0.2086 0.3050 1.0758
C7 C -0.07285(15) 0.29565(5) 0.77859(13)
C8 C -0.19321(16) 0.31171(6) 0.83371(15)
H6 H -0.1839 0.3417 0.8876
C9 C -0.32629(17) 0.28415(7) 0.81026(17)
H7 H -0.4081 0.2954 0.8482
C10 C -0.34149(18) 0.24077(7) 0.73275(16)
H8 H -0.4343 0.2227 0.7150
C11 C -0.22185(19) 0.22362(7) 0.68090(16)
H9 H -0.2314 0.1932 0.6286
C12 C -0.08742(17) 0.25057(6) 0.70473(15)
H10 H -0.0045 0.2380 0.6701
C13 C 0.00109(16) 0.38464(6) 0.57993(13)
H11 H 0.0478 0.4120 0.5323
C14 C -0.14292(18) 0.40909(7) 0.60510(17)
H12 H -0.1196 0.4391 0.6628
H13 H -0.1998 0.3830 0.6444
H14 H -0.2026 0.4210 0.5244
C15 C -0.0230(2) 0.33753(7) 0.49071(15)
H15 H 0.0741 0.3238 0.4780
H16 H -0.0812 0.3483 0.4084
H17 H -0.0773 0.3101 0.5283
C16 C 0.47654(15) 0.43480(5) 0.92161(13)
H18 H 0.4224 0.4681 0.9341
C17 C 0.5216(2) 0.40897(7) 1.05016(16)
H19 H 0.4318 0.4007 1.0856
H20 H 0.5854 0.4329 1.1078
H21 H 0.5767 0.3766 1.0405
C18 C 0.61096(18) 0.44872(7) 0.86165(17)
H22 H 0.5771 0.4653 0.7786
H23 H 0.6671 0.4167 0.8502
H24 H 0.6755 0.4731 0.9174
C19 C 0.34557(15) 0.40237(5) 0.57479(12)
C20 C 0.39580(17) 0.35128(6) 0.56205(13)
H25 H 0.3719 0.3245 0.6171
C21 C 0.48033(17) 0.33927(6) 0.46965(14)
H26 H 0.5154 0.3045 0.4621
C22 C 0.51353(17) 0.37820(6) 0.38836(13)
H27 H 0.5725 0.3702 0.3256
C23 C 0.46149(18) 0.42831(6) 0.39823(14)
H28 H 0.4831 0.4547 0.3410
C24 C 0.37749(17) 0.44093(6) 0.49107(13)
H29 H 0.3420 0.4758 0.4974
N1 N 0.11346(12) 0.37534(4) 0.70123(10)
N2 N 0.37172(13) 0.39982(5) 0.83996(11)
H30 H 0.392(2) 0.3668(8) 0.8425(17)
P1 P 0.10723(4) 0.328578(13) 0.81322(3)
P2 P 0.25813(4) 0.418481(13) 0.71077(3)
S1 S 0.26642(4) 0.275781(13) 0.82829(4)
S2 S 0.20212(4) 0.491907(14) 0.71375(3)
loop_
_geom_bond_atom_site_label_1
_geom_bond_atom_site_label_2
_geom_bond_site_symmetry_1
_geom_bond_site_symmetry_2
C1 C2 1_555 1_555
C2 H1 1_555 1_555
C3 C2 1_555 1_555
H2 C3 1_555 1_555
C4 C3 1_555 1_555
H3 C4 1_555 1_555
C5 C4 1_555 1_555
H4 C5 1_555 1_555
C6 C1 1_555 1_555
H5 C6 1_555 1_555
C7 C8 1_555 1_555
C8 H6 1_555 1_555
C9 C8 1_555 1_555
H7 C9 1_555 1_555
C10 C9 1_555 1_555
H8 C10 1_555 1_555
C11 C10 1_555 1_555
H9 C11 1_555 1_555
C12 C7 1_555 1_555
H10 C12 1_555 1_555
C13 H11 1_555 1_555
C14 C13 1_555 1_555
H12 C14 1_555 1_555
H13 C14 1_555 1_555
H14 C14 1_555 1_555
C15 C13 1_555 1_555
H15 C15 1_555 1_555
H16 C15 1_555 1_555
H17 C15 1_555 1_555
C16 H18 1_555 1_555
C17 C16 1_555 1_555
H19 C17 1_555 1_555
H20 C17 1_555 1_555
H21 C17 1_555 1_555
C18 C16 1_555 1_555
H22 C18 1_555 1_555
H23 C18 1_555 1_555
H24 C18 1_555 1_555
C19 C20 1_555 1_555
C20 H25 1_555 1_555
C21 C20 1_555 1_555
H26 C21 1_555 1_555
C22 C21 1_555 1_555
H27 C22 1_555 1_555
C23 C22 1_555 1_555
H28 C23 1_555 1_555
C24 C19 1_555 1_555
H29 C24 1_555 1_555
N1 C13 1_555 1_555
N2 C16 1_555 1_555
H30 N2 1_555 1_555
P1 C1 1_555 1_555
P2 C19 1_555 1_555
S1 P1 1_555 1_555
S2 P2 1_555 1_555
C5 C6 1_555 1_555
C7 P1 1_555 1_555
C11 C12 1_555 1_555
C23 C24 1_555 1_555
N1 P1 1_555 1_555
N1 P2 1_555 1_555
N2 P2 1_555 1_555

#END
