
#######################################################################
#
#                 Cambridge Crystallographic Data Centre
#                                CCDC 
#
#######################################################################
#
# If this CIF has been generated from an entry in the Cambridge 
# Structural Database, then it will include bibliographic, chemical, 
# crystal, experimental, refinement or atomic coordinate data resulting 
# from the CCDC's data processing and validation procedures.
#
#######################################################################

data_LOTGIM
_chemical_formula_moiety         'C14 H15 N1 O1'
_chemical_name_systematic        2-benzylidenehexahydro-3H-pyrrolizin-3-one
_symmetry_cell_setting           triclinic
_symmetry_space_group_name_H-M   'P -1'
_symmetry_Int_Tables_number      2
_space_group_name_Hall           '-P 1'
loop_
_symmetry_equiv_pos_site_id
_symmetry_equiv_pos_as_xyz
1 x,y,z
2 -x,-y,-z
_cell_length_a                   7.8602(6)
_cell_length_b                   8.4121(8)
_cell_length_c                   9.3329(7)
_cell_angle_alpha                102.282(7)
_cell_angle_beta                 108.921(7)
_cell_angle_gamma                93.927(7)
_cell_volume                     564.051
_exptl_crystal_colour            'light colorless'
_exptl_crystal_description       block
_cell_formula_units_Z            2
loop_
_atom_site_label
_atom_site_type_symbol
_atom_site_fract_x
_atom_site_fract_y
_atom_site_fract_z
O1 O 0.8271(3) 1.2546(3) 1.0294(2)
N1 N 1.0502(3) 1.1937(3) 0.9300(3)
C1 C 0.4884(3) 0.8286(3) 0.6604(3)
C2 C 0.8809(4) 1.1742(3) 0.9321(3)
C3 C 0.7752(4) 1.0336(3) 0.7971(3)
C4 C 0.6120(4) 0.9645(3) 0.7832(3)
H1 H 0.5701 1.0090 0.8633
C5 C 0.4946(4) 0.7828(4) 0.5104(3)
H2 H 0.5817 0.8404 0.4853
C6 C 0.2368(4) 0.6095(4) 0.5799(4)
H3 H 0.1502 0.5502 0.6042
C7 C 0.3546(4) 0.7399(4) 0.6924(4)
H4 H 0.3447 0.7690 0.7910
C8 C 1.0807(4) 1.0836(4) 0.7997(3)
H5 H 1.1578 1.0039 0.8379
C9 C 0.3745(4) 0.6538(4) 0.3976(4)
H6 H 0.3808 0.6262 0.2978
C10 C 0.8898(4) 0.9955(4) 0.6960(4)
H7 H 0.8454 1.0367 0.6031
H8 H 0.8894 0.8779 0.6643
C11 C 0.2459(4) 0.5662(4) 0.4321(4)
H9 H 0.1658 0.4785 0.3566
C12 C 1.1914(4) 1.3376(4) 1.0048(4)
H10 H 1.2675 1.3322 1.1083
H11 H 1.1386 1.4386 1.0130
C13 C 1.1814(5) 1.1999(5) 0.7448(4)
H12 H 1.0980 1.2518 0.6738
H13 H 1.2564 1.1435 0.6922
C14 C 1.2991(5) 1.3269(4) 0.8949(4)
H14 H 1.4153 1.2918 0.9403
H15 H 1.3206 1.4329 0.8735
loop_
_geom_bond_atom_site_label_1
_geom_bond_atom_site_label_2
_geom_bond_site_symmetry_1
_geom_bond_site_symmetry_2
O1 C2 1_555 1_555
N1 C2 1_555 1_555
C1 C4 1_555 1_555
C2 C3 1_555 1_555
C3 C4 1_555 1_555
C4 H1 1_555 1_555
C5 C1 1_555 1_555
H2 C5 1_555 1_555
C6 H3 1_555 1_555
C7 C1 1_555 1_555
H4 C7 1_555 1_555
C8 N1 1_555 1_555
H5 C8 1_555 1_555
C9 C5 1_555 1_555
H6 C9 1_555 1_555
C10 C3 1_555 1_555
H7 C10 1_555 1_555
H8 C10 1_555 1_555
C11 C6 1_555 1_555
H9 C11 1_555 1_555
C12 N1 1_555 1_555
H10 C12 1_555 1_555
H11 C12 1_555 1_555
C13 C8 1_555 1_555
H12 C13 1_555 1_555
H13 C13 1_555 1_555
C14 C12 1_555 1_555
H14 C14 1_555 1_555
H15 C14 1_555 1_555
C6 C7 1_555 1_555
C8 C10 1_555 1_555
C9 C11 1_555 1_555
C13 C14 1_555 1_555

#END
