
#######################################################################
#
#                 Cambridge Crystallographic Data Centre
#                                CCDC 
#
#######################################################################
#
# If this CIF has been generated from an entry in the Cambridge 
# Structural Database, then it will include bibliographic, chemical, 
# crystal, experimental, refinement or atomic coordinate data resulting 
# from the CCDC's data processing and validation procedures.
#
#######################################################################

data_LOTJAH
_chemical_formula_moiety         
'C78 H28 F20 N6 S6,1.01(C7 H16),1.89(C1 H2 Cl2)'
_chemical_name_systematic        
"7,12,22,27-tetrakis(pentafluorophenyl)-2,17-di(2,2':5',2''-terthiophen-5-yl)-31,32,33,34,35,36-hexaazaheptacyclo[26.2.1.1^3,6^.1^8,11^.1^13,16^.1^18,21^.1^23,26^]hexatriaconta-1(31),2,4,6(36),7,9,11,13(34),14,16,18(33),19,21,23,25,27,29-heptadecaene n-heptane dichloromethane solvate"
_symmetry_cell_setting           monoclinic
_symmetry_space_group_name_H-M   'C 2/c'
_symmetry_Int_Tables_number      15
_space_group_name_Hall           '-C 2yn'
loop_
_symmetry_equiv_pos_site_id
_symmetry_equiv_pos_as_xyz
1 x,y,z
2 -x,y,1/2-z
3 1/2+x,1/2+y,z
4 1/2-x,1/2+y,1/2-z
5 -x,-y,-z
6 x,-y,1/2+z
7 1/2-x,1/2-y,-z
8 1/2+x,1/2-y,1/2+z
_cell_length_a                   49.998(16)
_cell_length_b                   12.402(3)
_cell_length_c                   35.242(11)
_cell_angle_alpha                90
_cell_angle_beta                 131.613(5)
_cell_angle_gamma                90
_cell_volume                     16338.1
_exptl_crystal_colour            brown
_exptl_crystal_description       Prism
_cell_formula_units_Z            8
loop_
_atom_site_label
_atom_site_type_symbol
_atom_site_fract_x
_atom_site_fract_y
_atom_site_fract_z
C1 C 0.14215(11) 0.0572(3) 0.65732(16)
C2 C 0.11714(12) -0.0190(3) 0.61719(17)
H1 H 0.1080 -0.0825 0.6201
C3 C 0.10951(12) 0.0181(3) 0.57501(17)
H2 H 0.0935 -0.0132 0.5421
C4 C 0.13073(11) 0.1165(3) 0.58980(16)
C5 C 0.13148(11) 0.1796(3) 0.55515(15)
C6 C 0.09942(11) 0.1953(3) 0.50524(16)
C7 C 0.06297(12) 0.1633(3) 0.48088(16)
H3 H 0.0559 0.1228 0.4958
C8 C 0.04146(12) 0.2023(4) 0.43327(17)
H4 H 0.0163 0.1934 0.4077
C9 C 0.06442(11) 0.2608(3) 0.42872(15)
C10 C 0.05284(12) 0.3256(4) 0.38654(15)
C11 C 0.07449(12) 0.4042(4) 0.39071(16)
C12 C 0.06958(13) 0.4682(4) 0.35196(17)
H5 H 0.0492 0.4660 0.3167
C13 C 0.09859(12) 0.5313(4) 0.37420(16)
H6 H 0.1024 0.5794 0.3572
C14 C 0.12292(11) 0.5131(3) 0.42855(15)
C15 C 0.15532(11) 0.5613(3) 0.46776(15)
C16 C 0.17169(11) 0.5511(3) 0.51964(15)
C17 C 0.20922(11) 0.5667(3) 0.56410(15)
H7 H 0.2275 0.5897 0.5645
C18 C 0.21304(11) 0.5420(3) 0.60496(15)
H8 H 0.2345 0.5428 0.6396
C19 C 0.17723(10) 0.5137(3) 0.58478(15)
C20 C 0.16718(10) 0.4767(3) 0.61160(14)
C21 C 0.19408(10) 0.4762(3) 0.66694(15)
C22 C 0.22180(11) 0.5603(3) 0.69909(15)
H9 H 0.2265 0.6206 0.6876
C23 C 0.23904(11) 0.5344(3) 0.74756(15)
H10 H 0.2581 0.5732 0.7770
C24 C 0.22282(11) 0.4356(3) 0.74613(15)
C25 C 0.23076(11) 0.3792(3) 0.78600(15)
C26 C 0.21382(11) 0.2800(3) 0.78101(15)
C27 C 0.21736(11) 0.2230(3) 0.81913(15)
H11 H 0.2317 0.2434 0.8537
C28 C 0.19601(11) 0.1325(3) 0.79642(16)
H12 H 0.1928 0.0796 0.8126
C29 C 0.17982(11) 0.1321(3) 0.74516(16)
C30 C 0.15606(11) 0.0553(3) 0.70634(16)
C31 C 0.16576(11) 0.2189(3) 0.57315(15)
C32 C 0.19811(11) 0.2228(3) 0.62259(15)
H13 H 0.2007 0.2026 0.6509
C33 C 0.22671(11) 0.2593(3) 0.62711(16)
H14 H 0.2505 0.2663 0.6586
C34 C 0.21661(11) 0.2838(3) 0.58084(16)
C35 C 0.23833(11) 0.3227(3) 0.57011(16)
C36 C 0.22874(12) 0.3414(3) 0.52416(16)
H15 H 0.2053 0.3298 0.4925
C37 C 0.25753(12) 0.3799(3) 0.52866(16)
H16 H 0.2552 0.3963 0.5003
C38 C 0.28862(12) 0.3910(4) 0.57740(17)
C39 C 0.32381(12) 0.4268(4) 0.59717(18)
C40 C 0.33923(13) 0.4030(5) 0.5764(2)
H17 H 0.3284 0.3599 0.5471
C41 C 0.37383(15) 0.4532(6) 0.6061(3)
H18 H 0.3886 0.4465 0.5982
C42 C 0.38346(15) 0.5109(6) 0.6461(2)
H19 H 0.4054 0.5488 0.6692
C43 C 0.17383(10) 0.6280(3) 0.45611(14)
C44 C 0.18121(12) 0.5907(3) 0.42659(16)
C45 C 0.19883(13) 0.6530(4) 0.41660(18)
C46 C 0.20961(12) 0.7562(4) 0.43643(17)
C47 C 0.20367(12) 0.7953(3) 0.46667(16)
C48 C 0.18565(11) 0.7320(3) 0.47554(15)
C49 C 0.25865(11) 0.4186(3) 0.83912(15)
C50 C 0.29432(11) 0.3832(3) 0.86970(16)
C51 C 0.31955(11) 0.4092(4) 0.92025(16)
C52 C 0.31057(12) 0.4711(3) 0.94268(16)
C53 C 0.27539(12) 0.5062(3) 0.91369(16)
C54 C 0.25046(11) 0.4807(3) 0.86311(16)
C55 C 0.14564(12) -0.0372(3) 0.72196(16)
C56 C 0.16619(12) -0.1294(4) 0.74436(16)
C57 C 0.15643(14) -0.2151(4) 0.75785(17)
C58 C 0.12515(17) -0.2105(4) 0.7484(2)
C59 C 0.10428(18) -0.1191(5) 0.7270(3)
C60 C 0.11452(16) -0.0333(4) 0.7143(2)
C61 C 0.13087(11) 0.4448(3) 0.58560(15)
C62 C 0.11797(11) 0.3967(3) 0.60632(16)
H20 H 0.1330 0.3765 0.6410
C63 C 0.08093(11) 0.3808(3) 0.57153(16)
H21 H 0.0684 0.3472 0.5800
C64 C 0.06450(11) 0.4188(3) 0.52389(16)
C65 C 0.02684(11) 0.4198(4) 0.47907(17)
C66 C 0.00996(13) 0.4674(4) 0.43299(18)
H22 H 0.0221 0.5065 0.4252
C67 C -0.02760(14) 0.4520(5) 0.3982(2)
H23 H -0.0432 0.4792 0.3645
C68 C -0.03913(12) 0.3945(4) 0.4179(2)
C69 C 0.01573(6) 0.3065(2) 0.33524(8)
C70 C 0.00718(7) 0.2053(2) 0.31285(11)
C71 C -0.02642(9) 0.1869(2) 0.26559(11)
C72 C -0.05147(7) 0.2696(3) 0.24072(9)
C73 C -0.04292(7) 0.3708(3) 0.26311(11)
C74 C -0.00932(8) 0.3893(2) 0.31037(11)
F1 F 0.03046(8) 0.1246(3) 0.33559(11)
F2 F -0.03452(9) 0.0894(3) 0.24420(12)
F3 F -0.08372(9) 0.2524(4) 0.19521(11)
F4 F -0.06741(9) 0.4488(3) 0.24029(12)
F5 F -0.00254(8) 0.4868(3) 0.33042(11)
F6 F 0.17203(8) 0.4898(2) 0.40776(11)
F7 F 0.20562(9) 0.6150(3) 0.38831(12)
F8 F 0.22679(8) 0.8168(2) 0.42666(11)
F9 F 0.21540(8) 0.8928(2) 0.48783(10)
F10 F 0.17977(7) 0.77364(19) 0.50476(10)
F11 F 0.30357(7) 0.3210(2) 0.84899(9)
F12 F 0.35328(7) 0.3710(2) 0.94889(10)
F13 F 0.33491(7) 0.4945(2) 0.99188(9)
F14 F 0.26595(8) 0.5632(2) 0.93568(10)
F15 F 0.21665(7) 0.5153(2) 0.83544(10)
F16 F 0.19659(7) -0.1371(2) 0.75293(12)
F17 F 0.17658(9) -0.3028(2) 0.77904(12)
F18 F 0.11501(11) -0.2943(3) 0.76050(15)
F19 F 0.07405(14) -0.1133(3) 0.7190(2)
F20 F 0.09427(11) 0.0549(3) 0.69448(19)
N1 N 0.15026(9) 0.1387(3) 0.63859(13)
N2 N 0.09871(9) 0.2546(3) 0.47164(13)
N3 N 0.10669(9) 0.4367(3) 0.43578(13)
H24 H 0.1159 0.4117 0.4657
N4 N 0.15312(9) 0.5204(3) 0.53315(12)
N5 N 0.19548(9) 0.4026(3) 0.69574(12)
N6 N 0.19103(9) 0.2232(3) 0.73691(13)
H25 H 0.1845 0.2419 0.7077
S1 S 0.17129(3) 0.26303(8) 0.53177(4)
S2 S 0.28301(3) 0.35390(10) 0.61929(4)
S3 S 0.35126(4) 0.50744(14) 0.65033(5)
S4 S 0.09523(3) 0.47232(8) 0.52143(4)
S5 S -0.00364(3) 0.35633(9) 0.47976(5)
S6 S -0.11142(5) 0.3993(2) 0.33219(9)
C75 C -0.0763(4) 0.3656(15) 0.3918(3)
C76 C -0.0885(3) 0.3128(8) 0.4136(4)
H26 H -0.0730 0.2864 0.4474
C77 C -0.1264(2) 0.3035(8) 0.3794(4)
H27 H -0.1392 0.2713 0.3878
C78 C -0.1412(2) 0.3442(8) 0.3358(4)
H28 H -0.1663 0.3437 0.3080
C85 C 0.0174(6) 0.221(3) 0.9019(10)
H36 H 0.0085 0.1796 0.8715
H37 H 0.0149 0.2988 0.8932
C86 C -0.0070(6) 0.197(2) 0.9135(11)
H38 H -0.0310 0.1754 0.8818
H39 H -0.0097 0.2627 0.9265
C87 C 0.0804(8) 0.271(3) 0.9365(12)
H40 H 0.0692 0.3426 0.9230
H41 H 0.1052 0.2802 0.9691
C88 C 0.0800(11) 0.207(3) 0.8966(15)
H42 H 0.0973 0.2394 0.8955
H43 H 0.0560 0.2101 0.8629
H44 H 0.0865 0.1310 0.9072
C89 C 0.0573(7) 0.197(3) 0.9445(12)
H45 H 0.0619 0.1194 0.9437
H46 H 0.0648 0.2128 0.9779
C90 C 0.0088(8) 0.104(2) 0.9537(11)
H47 H 0.0240 0.1351 0.9882
H48 H 0.0239 0.0559 0.9522
C91 C -0.0230(9) 0.036(3) 0.9422(14)
H49 H -0.0131 -0.0207 0.9676
H50 H -0.0376 0.0042 0.9083
H51 H -0.0379 0.0844 0.9435
C92 C 0.1288(3) 0.3709(9) 0.7608(4)
H52 H 0.1224 0.4473 0.7594
H53 H 0.1545 0.3682 0.7786
Cl5 Cl 0.12177(7) 0.2981(2) 0.79598(9)
Cl6 Cl 0.10439(11) 0.3246(3) 0.69921(12)
C93 C 0.0266(10) 0.149(3) 0.7017(14)
C94 C 0.0152(11) 0.284(3) 0.7398(16)
C95 C 0.0457(7) 0.229(3) 0.7467(15)
C96 C 0.0000 0.191(4) 0.7500
C93A C -0.0266(10) 0.149(3) 0.7983(14)
C94A C -0.0152(11) 0.284(3) 0.7602(16)
C95A C -0.0457(7) 0.229(3) 0.7533(15)
S7? S -0.0808(4) 0.2952(13) 0.4338(7)
C79? C -0.0726(16) 0.363(6) 0.4046(17)
C80? C -0.1303(12) 0.329(3) 0.3492(19)
H29? H -0.1548 0.3275 0.3190
C81? C -0.1158(18) 0.289(3) 0.3957(18)
H30? H -0.1306 0.2576 0.4005
C82? C -0.1011(11) 0.373(2) 0.3554(14)
H31? H -0.1020 0.4037 0.3298
C83? C 0.0836(3) 0.2846(10) 0.9474(5)
H32? H 0.1064 0.3059 0.9810
H33? H 0.0725 0.3504 0.9263
Cl1? Cl 0.09302(10) 0.1909(3) 0.91790(14)
Cl2? Cl 0.05637(13) 0.2339(4) 0.95503(18)
C84? C -0.0154(6) 0.0366(16) 0.9121(8)
H34? H 0.0109 0.0304 0.9351
H35? H -0.0250 0.0563 0.8778
Cl3? Cl -0.03484(9) -0.0900(3) 0.90989(16)
Cl4? Cl -0.0273(4) 0.1338(7) 0.9346(5)
loop_
_geom_bond_atom_site_label_1
_geom_bond_atom_site_label_2
_geom_bond_site_symmetry_1
_geom_bond_site_symmetry_2
C1 C2 1_555 1_555
C2 H1 1_555 1_555
C3 C2 1_555 1_555
H2 C3 1_555 1_555
C4 C3 1_555 1_555
C5 C4 1_555 1_555
C6 C5 1_555 1_555
C7 C6 1_555 1_555
H3 C7 1_555 1_555
C8 C7 1_555 1_555
H4 C8 1_555 1_555
C9 C8 1_555 1_555
C10 C9 1_555 1_555
C11 C10 1_555 1_555
C12 C11 1_555 1_555
H5 C12 1_555 1_555
C13 C12 1_555 1_555
H6 C13 1_555 1_555
C14 C13 1_555 1_555
C15 C14 1_555 1_555
C16 C15 1_555 1_555
C17 C16 1_555 1_555
H7 C17 1_555 1_555
C18 C17 1_555 1_555
H8 C18 1_555 1_555
C19 C18 1_555 1_555
C20 C19 1_555 1_555
C21 C20 1_555 1_555
C22 C21 1_555 1_555
H9 C22 1_555 1_555
C23 C22 1_555 1_555
H10 C23 1_555 1_555
C24 C23 1_555 1_555
C25 C24 1_555 1_555
C26 C25 1_555 1_555
C27 C26 1_555 1_555
H11 C27 1_555 1_555
C28 C27 1_555 1_555
H12 C28 1_555 1_555
C29 C28 1_555 1_555
C30 C1 1_555 1_555
C31 C5 1_555 1_555
C32 C31 1_555 1_555
H13 C32 1_555 1_555
C33 C32 1_555 1_555
H14 C33 1_555 1_555
C34 C33 1_555 1_555
C35 C34 1_555 1_555
C36 C35 1_555 1_555
H15 C36 1_555 1_555
C37 C36 1_555 1_555
H16 C37 1_555 1_555
C38 C37 1_555 1_555
C39 C38 1_555 1_555
C40 C39 1_555 1_555
H17 C40 1_555 1_555
C41 C40 1_555 1_555
H18 C41 1_555 1_555
C42 C41 1_555 1_555
H19 C42 1_555 1_555
C43 C15 1_555 1_555
C44 C43 1_555 1_555
C45 C44 1_555 1_555
C46 C45 1_555 1_555
C47 C46 1_555 1_555
C48 C43 1_555 1_555
C49 C25 1_555 1_555
C50 C49 1_555 1_555
C51 C50 1_555 1_555
C52 C51 1_555 1_555
C53 C52 1_555 1_555
C54 C49 1_555 1_555
C55 C30 1_555 1_555
C56 C55 1_555 1_555
C57 C56 1_555 1_555
C58 C57 1_555 1_555
C59 C58 1_555 1_555
C60 C55 1_555 1_555
C61 C20 1_555 1_555
C62 C61 1_555 1_555
H20 C62 1_555 1_555
C63 C62 1_555 1_555
H21 C63 1_555 1_555
C64 C63 1_555 1_555
C65 C64 1_555 1_555
C66 C65 1_555 1_555
H22 C66 1_555 1_555
C67 C66 1_555 1_555
H23 C67 1_555 1_555
C68 C67 1_555 1_555
C69 C10 1_555 1_555
C70 C69 1_555 1_555
C71 C70 1_555 1_555
C72 C71 1_555 1_555
C73 C72 1_555 1_555
C74 C69 1_555 1_555
F1 C70 1_555 1_555
F2 C71 1_555 1_555
F3 C72 1_555 1_555
F4 C73 1_555 1_555
F5 C74 1_555 1_555
F6 C44 1_555 1_555
F7 C45 1_555 1_555
F8 C46 1_555 1_555
F9 C47 1_555 1_555
F10 C48 1_555 1_555
F11 C50 1_555 1_555
F12 C51 1_555 1_555
F13 C52 1_555 1_555
F14 C53 1_555 1_555
F15 C54 1_555 1_555
F16 C56 1_555 1_555
F17 C57 1_555 1_555
F18 C58 1_555 1_555
F19 C59 1_555 1_555
F20 C60 1_555 1_555
N1 C1 1_555 1_555
N2 C6 1_555 1_555
N3 C11 1_555 1_555
H24 N3 1_555 1_555
N4 C16 1_555 1_555
N5 C21 1_555 1_555
N6 C26 1_555 1_555
H25 N6 1_555 1_555
S1 C31 1_555 1_555
S2 C35 1_555 1_555
S3 C39 1_555 1_555
S4 C61 1_555 1_555
S5 C65 1_555 1_555
S6 C75 1_555 1_555
C75 C68 1_555 1_555
C76 C75 1_555 1_555
H26 C76 1_555 1_555
C77 C76 1_555 1_555
H27 C77 1_555 1_555
C78 S6 1_555 1_555
H28 C78 1_555 1_555
C85 H36 1_555 1_555
H37 C85 1_555 1_555
C86 C85 1_555 1_555
H38 C86 1_555 1_555
H39 C86 1_555 1_555
C87 H40 1_555 1_555
H41 C87 1_555 1_555
C88 C87 1_555 1_555
H42 C88 1_555 1_555
H43 C88 1_555 1_555
H44 C88 1_555 1_555
C89 C85 1_555 1_555
H45 C89 1_555 1_555
H46 C89 1_555 1_555
C90 C86 1_555 1_555
H47 C90 1_555 1_555
H48 C90 1_555 1_555
C91 C90 1_555 1_555
H49 C91 1_555 1_555
H50 C91 1_555 1_555
H51 C91 1_555 1_555
C92 H52 1_555 1_555
H53 C92 1_555 1_555
Cl5 C92 1_555 1_555
Cl6 C92 1_555 1_555
C93 C95 1_555 1_555
C94 C95 1_555 1_555
C96 C94 1_555 1_555
C93A C95A 1_555 1_555
C94A C96 1_555 1_555
C95A C94A 1_555 1_555
C4 N1 1_555 1_555
C9 N2 1_555 1_555
C14 N3 1_555 1_555
C19 N4 1_555 1_555
C24 N5 1_555 1_555
C29 C30 1_555 1_555
C29 N6 1_555 1_555
C34 S1 1_555 1_555
C38 S2 1_555 1_555
C42 S3 1_555 1_555
C47 C48 1_555 1_555
C53 C54 1_555 1_555
C59 C60 1_555 1_555
C64 S4 1_555 1_555
C68 S5 1_555 1_555
C73 C74 1_555 1_555
C77 C78 1_555 1_555
C87 C89 1_555 1_555

#END
