
#######################################################################
#
#                 Cambridge Crystallographic Data Centre
#                                CCDC 
#
#######################################################################
#
# If this CIF has been generated from an entry in the Cambridge 
# Structural Database, then it will include bibliographic, chemical, 
# crystal, experimental, refinement or atomic coordinate data resulting 
# from the CCDC's data processing and validation procedures.
#
#######################################################################

data_LOTKAG
_chemical_formula_moiety         'C32 H44 N4 O6 Si4'
_chemical_name_systematic        
1,7(1,3)-Dibenzena-2,6,8,12(3,5)-tetrakis(4,5-dihydroisoxazola)-4,10-dioxa-3,5,9,11-tetrakis(dimethylsilyl)cyclododecaphane
_symmetry_cell_setting           triclinic
_symmetry_space_group_name_H-M   'P -1'
_symmetry_Int_Tables_number      2
_space_group_name_Hall           '-P 1'
loop_
_symmetry_equiv_pos_site_id
_symmetry_equiv_pos_as_xyz
1 x,y,z
2 -x,-y,-z
_cell_length_a                   6.8037(8)
_cell_length_b                   9.3283(11)
_cell_length_c                   15.4738(18)
_cell_angle_alpha                82.616(2)
_cell_angle_beta                 77.729(2)
_cell_angle_gamma                78.150(2)
_cell_volume                     935.48
_exptl_crystal_colour            colorless
_exptl_crystal_description       plate
_chemical_melting_point          267-270deg.C
_cell_formula_units_Z            1
loop_
_atom_site_label
_atom_site_type_symbol
_atom_site_fract_x
_atom_site_fract_y
_atom_site_fract_z
Si1 Si 0.21639(18) 0.73091(12) 0.89833(7)
Si2 Si 0.31372(19) 1.02131(12) 0.77422(7)
O1 O 0.5457(4) 0.8933(3) 0.62810(17)
O2 O 0.8260(4) 0.4359(3) 0.22575(18)
O3 O 0.2689(6) 0.8706(3) 0.83281(19)
N1 N 0.5275(5) 0.8069(4) 0.5616(2)
N2 N 0.7101(5) 0.5071(4) 0.3019(2)
C1 C 0.3482(6) 0.9892(4) 0.6544(2)
H1 H 0.3485 1.0838 0.6185
C2 C 0.1964(6) 0.9109(4) 0.6278(2)
H2 H 0.0915 0.9798 0.6026
H3 H 0.1325 0.8510 0.6776
C3 C 0.3386(6) 0.8180(4) 0.5593(2)
C4 C 0.2752(5) 0.7372(4) 0.4975(2)
C5 C 0.0703(6) 0.7369(5) 0.5010(3)
H4 H -0.0291 0.7876 0.5431
C6 C 0.0142(7) 0.6617(5) 0.4423(3)
H5 H -0.1234 0.6594 0.4462
C7 C 0.1578(6) 0.5894(5) 0.3777(3)
H6 H 0.1155 0.5392 0.3363
C8 C 0.3642(6) 0.5894(4) 0.3725(2)
C9 C 0.4205(5) 0.6630(4) 0.4330(2)
H7 H 0.5584 0.6627 0.4304
C10 C 0.5200(6) 0.5177(4) 0.3019(2)
C11 C 0.4786(6) 0.4493(4) 0.2264(2)
H8 H 0.4403 0.3539 0.2454
H9 H 0.3730 0.5125 0.1986
C12 C 0.3132(6) 0.5638(4) 0.8344(2)
H10 H 0.3113 0.4755 0.8762
C13 C 0.3480(7) 0.7107(6) 0.9929(3)
H11 H 0.4926 0.7026 0.9713
H12 H 0.3216 0.6239 1.0305
H13 H 0.2983 0.7952 1.0262
C14 C -0.0638(7) 0.7489(6) 0.9359(3)
H14 H -0.1154 0.8350 0.9677
H15 H -0.0936 0.6635 0.9743
H16 H -0.1276 0.7574 0.8854
C15 C 0.5502(8) 1.0655(6) 0.7949(3)
H17 H 0.6620 0.9861 0.7794
H18 H 0.5339 1.0794 0.8566
H19 H 0.5781 1.1540 0.7595
C16 C 0.0931(7) 1.1697(5) 0.8016(3)
H20 H -0.0270 1.1430 0.7898
H21 H 0.1184 1.2586 0.7659
H22 H 0.0727 1.1851 0.8633
C12A C 0.6868(6) 0.4362(4) 0.1656(2)
Si1A Si 0.78361(18) 0.26909(12) 0.10167(7)
O3A O 0.7311(6) 0.1294(3) 0.16719(19)
Si2A Si 0.68628(19) -0.02131(12) 0.22578(7)
C1A C 0.6518(6) 0.0108(4) 0.3456(2)
O1A O 0.4543(4) 0.1067(3) 0.37190(17)
N1A N 0.4725(5) 0.1931(4) 0.4384(2)
C3A C 0.6614(6) 0.1820(4) 0.4407(2)
C2A C 0.8036(6) 0.0891(4) 0.3722(2)
H1A H 0.6515 -0.0838 0.3815
H2A H 0.9085 0.0202 0.3974
H3A H 0.8675 0.1490 0.3224
C4A C 0.7248(5) 0.2628(4) 0.5025(2)
C5A C 0.9297(6) 0.2631(5) 0.4990(3)
H4A H 1.0291 0.2124 0.4569
C6A C 0.9858(7) 0.3383(5) 0.5577(3)
H5A H 1.1234 0.3406 0.5538
C7A C 0.8422(6) 0.4106(5) 0.6223(3)
H6A H 0.8845 0.4608 0.6637
C8A C 0.6358(6) 0.4106(4) 0.6275(2)
C9A C 0.5795(5) 0.3370(4) 0.5670(2)
H7A H 0.4416 0.3373 0.5696
C10A C 0.4800(6) 0.4823(4) 0.6981(2)
N2A N 0.2899(5) 0.4929(4) 0.6981(2)
O2A O 0.1740(4) 0.5641(3) 0.77425(18)
C11A C 0.5214(6) 0.5507(4) 0.7736(2)
H8A H 0.5597 0.6461 0.7546
H9A H 0.6270 0.4875 0.8014
C15A C 0.4498(8) -0.0655(6) 0.2051(3)
H17A H 0.3380 0.0139 0.2206
H18A H 0.4661 -0.0794 0.1434
H19A H 0.4219 -0.1540 0.2405
C16A C 0.9069(7) -0.1697(5) 0.1984(3)
H20A H 1.0270 -0.1430 0.2102
H21A H 0.8816 -0.2586 0.2341
H22A H 0.9273 -0.1851 0.1367
C13A C 0.6520(7) 0.2893(6) 0.0071(3)
H11A H 0.5074 0.2974 0.0287
H12A H 0.6784 0.3761 -0.0305
H13A H 0.7017 0.2048 -0.0262
C14A C 1.0638(7) 0.2511(6) 0.0641(3)
H14A H 1.1154 0.1650 0.0323
H15A H 1.0936 0.3365 0.0257
H16A H 1.1276 0.2426 0.1146
H10A H 0.6887 0.5245 0.1238
loop_
_geom_bond_atom_site_label_1
_geom_bond_atom_site_label_2
_geom_bond_site_symmetry_1
_geom_bond_site_symmetry_2
Si1 O3 1_555 1_555
Si2 O3 1_555 1_555
O1 N1 1_555 1_555
O2 N2 1_555 1_555
N1 C3 1_555 1_555
N2 C10 1_555 1_555
C1 Si2 1_555 1_555
H1 C1 1_555 1_555
C2 C1 1_555 1_555
H2 C2 1_555 1_555
H3 C2 1_555 1_555
C3 C2 1_555 1_555
C4 C3 1_555 1_555
C5 C4 1_555 1_555
H4 C5 1_555 1_555
C6 C5 1_555 1_555
H5 C6 1_555 1_555
C7 C6 1_555 1_555
H6 C7 1_555 1_555
C8 C7 1_555 1_555
C9 C4 1_555 1_555
H7 C9 1_555 1_555
C10 C8 1_555 1_555
C11 C10 1_555 1_555
H8 C11 1_555 1_555
H9 C11 1_555 1_555
C12 Si1 1_555 1_555
H10 C12 1_555 1_555
C13 Si1 1_555 1_555
H11 C13 1_555 1_555
H12 C13 1_555 1_555
H13 C13 1_555 1_555
C14 Si1 1_555 1_555
H14 C14 1_555 1_555
H15 C14 1_555 1_555
H16 C14 1_555 1_555
C15 Si2 1_555 1_555
H17 C15 1_555 1_555
H18 C15 1_555 1_555
H19 C15 1_555 1_555
C16 Si2 1_555 1_555
H20 C16 1_555 1_555
H21 C16 1_555 1_555
H22 C16 1_555 1_555
C12A O2 1_555 1_555
Si1A C12A 1_555 1_555
O3A Si1A 1_555 1_555
Si2A O3A 1_555 1_555
C1A Si2A 1_555 1_555
O1A C1A 1_555 1_555
N1A O1A 1_555 1_555
C3A N1A 1_555 1_555
C2A C1A 1_555 1_555
H1A C1A 1_555 1_555
H2A C2A 1_555 1_555
H3A C2A 1_555 1_555
C4A C3A 1_555 1_555
C5A C4A 1_555 1_555
H4A C5A 1_555 1_555
C6A C5A 1_555 1_555
H5A C6A 1_555 1_555
C7A C6A 1_555 1_555
H6A C7A 1_555 1_555
C8A C7A 1_555 1_555
C9A C4A 1_555 1_555
H7A C9A 1_555 1_555
C10A C8A 1_555 1_555
N2A C10A 1_555 1_555
O2A C12 1_555 1_555
C11A C12 1_555 1_555
H8A C11A 1_555 1_555
H9A C11A 1_555 1_555
C15A Si2A 1_555 1_555
H17A C15A 1_555 1_555
H18A C15A 1_555 1_555
H19A C15A 1_555 1_555
C16A Si2A 1_555 1_555
H20A C16A 1_555 1_555
H21A C16A 1_555 1_555
H22A C16A 1_555 1_555
C13A Si1A 1_555 1_555
H11A C13A 1_555 1_555
H12A C13A 1_555 1_555
H13A C13A 1_555 1_555
C14A Si1A 1_555 1_555
H14A C14A 1_555 1_555
H15A C14A 1_555 1_555
H16A C14A 1_555 1_555
H10A C12A 1_555 1_555
O1 C1 1_555 1_555
C8 C9 1_555 1_555
C11 C12A 1_555 1_555
C3A C2A 1_555 1_555
C8A C9A 1_555 1_555
C10A C11A 1_555 1_555
N2A O2A 1_555 1_555

#END
