
#######################################################################
#
#                 Cambridge Crystallographic Data Centre
#                                CCDC 
#
#######################################################################
#
# If this CIF has been generated from an entry in the Cambridge 
# Structural Database, then it will include bibliographic, chemical, 
# crystal, experimental, refinement or atomic coordinate data resulting 
# from the CCDC's data processing and validation procedures.
#
#######################################################################

data_LOTLAH
_chemical_name_common            
'exo-N-allyl 7-oxabenzobicyclo(2.2.1)hept-5-ene-2-carboxamide'
_chemical_formula_moiety         'C14 H15 N1 O2'
_chemical_name_systematic        
exo-5-(Allylaminocarbonyl)-7-oxabenzobicyclo(2.2.1)hept-2-ene
_symmetry_cell_setting           orthorhombic
_symmetry_space_group_name_H-M   'P b c a'
_symmetry_Int_Tables_number      61
_space_group_name_Hall           '-P 2ac 2ab'
loop_
_symmetry_equiv_pos_site_id
_symmetry_equiv_pos_as_xyz
1 x,y,z
2 1/2-x,-y,1/2+z
3 -x,1/2+y,1/2-z
4 1/2+x,1/2-y,-z
5 -x,-y,-z
6 1/2+x,y,1/2-z
7 x,1/2-y,1/2+z
8 1/2-x,1/2+y,z
_cell_length_a                   7.313(2)
_cell_length_b                   9.464(3)
_cell_length_c                   35.068(10)
_cell_angle_alpha                90
_cell_angle_beta                 90
_cell_angle_gamma                90
_cell_volume                     2427.06
_exptl_crystal_colour            colorless
_exptl_crystal_description       'thin plate'
_chemical_melting_point          129-130deg.C
_cell_formula_units_Z            8
_exptl_crystal_recrystallization_method dichloromethane/hexane
loop_
_atom_site_label
_atom_site_type_symbol
_atom_site_fract_x
_atom_site_fract_y
_atom_site_fract_z
O1 O 0.0707(4) 0.3910(2) 0.13558(8)
O2 O 0.3184(4) 0.4076(2) 0.06051(7)
N1 N 0.2300(5) 0.6186(3) 0.03784(9)
C1 C 0.2161(6) 0.5820(4) 0.10605(10)
C2 C 0.0228(6) 0.5263(4) 0.11949(11)
C3 C -0.0283(6) 0.6090(4) 0.15474(10)
C4 C -0.1474(6) 0.7189(5) 0.16198(13)
C5 C -0.1499(8) 0.7753(6) 0.19844(14)
C6 C -0.0372(9) 0.7240(6) 0.22680(16)
C7 C 0.0825(8) 0.6127(6) 0.21939(13)
C8 C 0.0854(6) 0.5559(4) 0.18306(11)
C9 C 0.2000(6) 0.4454(4) 0.16346(12)
C10 C 0.3402(7) 0.5200(4) 0.13749(13)
C11 C 0.2620(5) 0.5292(3) 0.06654(10)
C12 C 0.2651(8) 0.5843(4) -0.00192(12)
C13 C 0.1514(8) 0.6658(5) -0.02803(13)
C14 C 0.2073(11) 0.7378(6) -0.05691(17)
H1 H 0.205(5) 0.697(4) 0.0420(9)
H2 H 0.222(5) 0.672(4) 0.1046(8)
H3 H -0.076(5) 0.514(3) 0.0972(9)
H4 H -0.226(6) 0.754(4) 0.1406(12)
H5 H -0.228(6) 0.859(5) 0.2042(12)
H6 H -0.040(6) 0.764(4) 0.2513(12)
H7 H 0.164(6) 0.580(4) 0.2385(11)
H8 H 0.244(5) 0.372(4) 0.1814(9)
H9 H 0.430(5) 0.453(4) 0.1252(9)
H10 H 0.407(4) 0.590(3) 0.1521(8)
H11 H 0.242(5) 0.489(4) -0.0047(11)
H12 H 0.396(6) 0.600(4) -0.0093(11)
H13 H 0.013(7) 0.661(5) -0.0236(12)
H14 H 0.320(7) 0.719(5) -0.0633(14)
H15 H 0.124(6) 0.792(5) -0.0717(12)
loop_
_geom_bond_atom_site_label_1
_geom_bond_atom_site_label_2
_geom_bond_site_symmetry_1
_geom_bond_site_symmetry_2
O1 C2 1_555 1_555
O2 C11 1_555 1_555
N1 C11 1_555 1_555
C1 C2 1_555 1_555
C2 C3 1_555 1_555
C3 C4 1_555 1_555
C4 C5 1_555 1_555
C5 C6 1_555 1_555
C6 C7 1_555 1_555
C7 C8 1_555 1_555
C8 C3 1_555 1_555
C9 O1 1_555 1_555
C10 C1 1_555 1_555
C11 C1 1_555 1_555
C12 N1 1_555 1_555
C13 C12 1_555 1_555
C14 C13 1_555 1_555
H1 N1 1_555 1_555
H2 C1 1_555 1_555
H3 C2 1_555 1_555
H4 C4 1_555 1_555
H5 C5 1_555 1_555
H6 C6 1_555 1_555
H7 C7 1_555 1_555
H8 C9 1_555 1_555
H9 C10 1_555 1_555
H10 C10 1_555 1_555
H11 C12 1_555 1_555
H12 C12 1_555 1_555
H13 C13 1_555 1_555
H14 C14 1_555 1_555
H15 C14 1_555 1_555
C8 C9 1_555 1_555
C9 C10 1_555 1_555

#END
