
#######################################################################
#
#                 Cambridge Crystallographic Data Centre
#                                CCDC 
#
#######################################################################
#
# If this CIF has been generated from an entry in the Cambridge 
# Structural Database, then it will include bibliographic, chemical, 
# crystal, experimental, refinement or atomic coordinate data resulting 
# from the CCDC's data processing and validation procedures.
#
#######################################################################

data_LOVCAC
_chemical_formula_moiety         'C26 H21 N1 O3'
_chemical_name_systematic        
(1-(4-methoxyphenyl)-1,4-dihydropyridine-3,5-diyl)bis(phenylmethanone)
_symmetry_cell_setting           monoclinic
_symmetry_space_group_name_H-M   'P 21/n'
_symmetry_Int_Tables_number      14
_space_group_name_Hall           '-P 2yn'
loop_
_symmetry_equiv_pos_site_id
_symmetry_equiv_pos_as_xyz
1 x,y,z
2 1/2-x,1/2+y,1/2-z
3 -x,-y,-z
4 1/2+x,1/2-y,1/2+z
_cell_length_a                   11.9416(16)
_cell_length_b                   7.9022(10)
_cell_length_c                   21.377(3)
_cell_angle_alpha                90
_cell_angle_beta                 92.997(2)
_cell_angle_gamma                90
_cell_volume                     2014.48
_exptl_crystal_colour            yellow
_exptl_crystal_description       block
_cell_formula_units_Z            4
loop_
_atom_site_label
_atom_site_type_symbol
_atom_site_fract_x
_atom_site_fract_y
_atom_site_fract_z
N1 N 0.12364(12) 1.04079(18) 0.15304(7)
O1 O -0.09017(12) 1.31105(18) -0.06263(7)
O2 O 0.47570(11) 0.8670(2) 0.23732(7)
O3 O 0.12080(12) 0.8497(2) 0.36189(7)
C1 C 0.39967(18) 0.7605(3) 0.08046(10)
H1 H 0.3273 0.7232 0.0870
C2 C 0.4470(2) 0.7276(3) 0.02421(11)
H2 H 0.4066 0.6673 -0.0067
C3 C 0.5535(3) 0.7832(4) 0.01347(13)
H3 H 0.5847 0.7620 -0.0247
C4 C 0.6131(2) 0.8700(3) 0.05967(13)
H4 H 0.6853 0.9073 0.0528
C5 C 0.56715(18) 0.9023(3) 0.11625(11)
H5 H 0.6088 0.9605 0.1473
C6 C 0.45933(16) 0.8489(2) 0.12727(10)
C7 C 0.41385(16) 0.8778(2) 0.18985(10)
C8 C 0.29531(15) 0.9206(2) 0.19629(9)
C9 C 0.23372(15) 0.9880(2) 0.14851(9)
H6 H 0.2664 1.0001 0.1102
C10 C 0.07083(16) 0.9969(2) 0.20631(9)
H7 H -0.0056 1.0179 0.2076
C11 C 0.12393(15) 0.9250(2) 0.25665(9)
C12 C 0.24982(15) 0.9062(3) 0.26004(9)
H8 H 0.2830 0.9932 0.2871
H9 H 0.2700 0.7969 0.2780
C13 C 0.06606(17) 0.8803(2) 0.31278(9)
C14 C -0.05912(16) 0.8713(2) 0.31181(9)
C15 C -0.12326(18) 0.7866(3) 0.26571(10)
H10 H -0.0886 0.7353 0.2327
C16 C -0.23847(18) 0.7781(3) 0.26868(10)
H11 H -0.2809 0.7209 0.2377
C17 C -0.29026(18) 0.8535(3) 0.31692(11)
H12 H -0.3679 0.8488 0.3185
C18 C -0.22726(19) 0.9365(3) 0.36320(11)
H13 H -0.2625 0.9872 0.3961
C19 C -0.11225(17) 0.9448(3) 0.36101(9)
H14 H -0.0702 1.0000 0.3927
C20 C 0.06683(15) 1.1215(2) 0.10030(8)
C21 C 0.12677(16) 1.2249(2) 0.06202(9)
H15 H 0.2012 1.2504 0.0731
C22 C 0.07709(17) 1.2909(2) 0.00735(9)
H16 H 0.1187 1.3583 -0.0186
C23 C -0.03377(17) 1.2569(2) -0.00871(9)
C24 C -0.09561(16) 1.1634(2) 0.03139(9)
H17 H -0.1718 1.1468 0.0222
C25 C -0.04563(16) 1.0937(2) 0.08517(9)
H18 H -0.0878 1.0279 0.1113
C26 C -0.02514(19) 1.3824(3) -0.11012(10)
H19 H 0.0070 1.4874 -0.0955
H20 H -0.0724 1.4025 -0.1471
H21 H 0.0337 1.3054 -0.1197
loop_
_geom_bond_atom_site_label_1
_geom_bond_atom_site_label_2
_geom_bond_site_symmetry_1
_geom_bond_site_symmetry_2
N1 C9 1_555 1_555
O1 C23 1_555 1_555
O2 C7 1_555 1_555
O3 C13 1_555 1_555
C1 H1 1_555 1_555
C2 C1 1_555 1_555
H2 C2 1_555 1_555
C3 C2 1_555 1_555
H3 C3 1_555 1_555
C4 C3 1_555 1_555
H4 C4 1_555 1_555
C5 C4 1_555 1_555
H5 C5 1_555 1_555
C6 C1 1_555 1_555
C7 C6 1_555 1_555
C8 C7 1_555 1_555
C9 C8 1_555 1_555
H6 C9 1_555 1_555
C10 N1 1_555 1_555
H7 C10 1_555 1_555
C11 C10 1_555 1_555
C12 C8 1_555 1_555
H8 C12 1_555 1_555
H9 C12 1_555 1_555
C13 C11 1_555 1_555
C14 C13 1_555 1_555
C15 C14 1_555 1_555
H10 C15 1_555 1_555
C16 C15 1_555 1_555
H11 C16 1_555 1_555
C17 C16 1_555 1_555
H12 C17 1_555 1_555
C18 C17 1_555 1_555
H13 C18 1_555 1_555
C19 C14 1_555 1_555
H14 C19 1_555 1_555
C20 N1 1_555 1_555
C21 C20 1_555 1_555
H15 C21 1_555 1_555
C22 C21 1_555 1_555
H16 C22 1_555 1_555
C23 C22 1_555 1_555
C24 C23 1_555 1_555
H17 C24 1_555 1_555
C25 C20 1_555 1_555
H18 C25 1_555 1_555
C26 O1 1_555 1_555
H19 C26 1_555 1_555
H20 C26 1_555 1_555
H21 C26 1_555 1_555
C5 C6 1_555 1_555
C11 C12 1_555 1_555
C18 C19 1_555 1_555
C24 C25 1_555 1_555

#END
