
#######################################################################
#
#                 Cambridge Crystallographic Data Centre
#                                CCDC 
#
#######################################################################
#
# If this CIF has been generated from an entry in the Cambridge 
# Structural Database, then it will include bibliographic, chemical, 
# crystal, experimental, refinement or atomic coordinate data resulting 
# from the CCDC's data processing and validation procedures.
#
#######################################################################

data_LOVLIT
_chemical_formula_moiety         'C21 H21 N3 O2'
_chemical_name_systematic        
2,6-dimethyl-N,N'-diphenyl-1,4-dihydropyridine-3,5-dicarboxamide
_symmetry_cell_setting           orthorhombic
_symmetry_space_group_name_H-M   'P b c n'
_symmetry_Int_Tables_number      60
_space_group_name_Hall           '-P 2n 2ab'
loop_
_symmetry_equiv_pos_site_id
_symmetry_equiv_pos_as_xyz
1 x,y,z
2 1/2-x,1/2-y,1/2+z
3 1/2+x,1/2-y,-z
4 -x,y,1/2-z
5 -x,-y,-z
6 1/2+x,1/2+y,1/2-z
7 1/2-x,1/2+y,z
8 x,-y,1/2+z
_cell_length_a                   23.278(5)
_cell_length_b                   8.3400(17)
_cell_length_c                   9.4260(19)
_cell_angle_alpha                90
_cell_angle_beta                 90
_cell_angle_gamma                90
_cell_volume                     1829.95
_cell_formula_units_Z            4
loop_
_atom_site_label
_atom_site_type_symbol
_atom_site_fract_x
_atom_site_fract_y
_atom_site_fract_z
O1 O 0.40618(10) 0.4153(3) -0.04175(19)
N1 N 0.39241(10) 0.5724(3) 0.1522(2)
H1 H 0.4022 0.5847 0.2395
C1 C 0.35326(14) 0.7362(4) -0.0411(3)
H2 H 0.3808 0.6974 -0.1037
N2 N 0.5000 0.1149(4) 0.2500
H3 H 0.5000 0.0118 0.2500
C2 C 0.31408(16) 0.8458(4) -0.0860(3)
H4 H 0.3149 0.8806 -0.1797
C3 C 0.27319(15) 0.9059(4) 0.0048(4)
H5 H 0.2466 0.9807 -0.0272
C4 C 0.27208(15) 0.8543(4) 0.1434(4)
H6 H 0.2447 0.8947 0.2056
C5 C 0.31125(14) 0.7435(4) 0.1899(3)
H7 H 0.3104 0.7091 0.2838
C6 C 0.35207(12) 0.6825(3) 0.0981(3)
C7 C 0.41745(12) 0.4494(3) 0.0819(3)
C8 C 0.46020(12) 0.3587(3) 0.1676(2)
C9 C 0.5000 0.4421(5) 0.2500
H8 H 0.4786 0.5107 0.3125
C10 C 0.46213(14) 0.1927(4) 0.1676(3)
C11 C 0.42324(18) 0.0894(4) 0.0811(4)
H9 H 0.4324 -0.0213 0.0975
H10 H 0.4282 0.1139 -0.0176
H11 H 0.3841 0.1092 0.1079
O1C O 0.59382(10) 0.4153(3) 0.54175(19)
N1C N 0.60759(10) 0.5724(3) 0.3478(2)
H1C H 0.5978 0.5847 0.2605
C1C C 0.64674(14) 0.7362(4) 0.5411(3)
H2C H 0.6192 0.6974 0.6037
C2C C 0.68592(16) 0.8458(4) 0.5860(3)
H4C H 0.6851 0.8806 0.6797
C3C C 0.72681(15) 0.9059(4) 0.4952(4)
H5C H 0.7534 0.9807 0.5272
C4C C 0.72792(15) 0.8543(4) 0.3566(4)
H6C H 0.7553 0.8947 0.2944
C5C C 0.68875(14) 0.7435(4) 0.3101(3)
H7C H 0.6896 0.7091 0.2162
C6C C 0.64793(12) 0.6825(3) 0.4019(3)
C7C C 0.58255(12) 0.4494(3) 0.4181(3)
C8C C 0.53980(12) 0.3587(3) 0.3324(2)
H8C H 0.5214 0.5107 0.1875
C10C C 0.53787(14) 0.1927(4) 0.3324(3)
C11C C 0.57676(18) 0.0894(4) 0.4189(4)
H9C H 0.5676 -0.0213 0.4025
H10C H 0.5718 0.1139 0.5176
H11C H 0.6159 0.1092 0.3921
loop_
_geom_bond_atom_site_label_1
_geom_bond_atom_site_label_2
_geom_bond_site_symmetry_1
_geom_bond_site_symmetry_2
O1 C7 1_555 1_555
N1 H1 1_555 1_555
C1 H2 1_555 1_555
N2 H3 1_555 1_555
C2 C1 1_555 1_555
H4 C2 1_555 1_555
C3 C2 1_555 1_555
H5 C3 1_555 1_555
C4 C3 1_555 1_555
H6 C4 1_555 1_555
C5 C4 1_555 1_555
H7 C5 1_555 1_555
C6 N1 1_555 1_555
C7 N1 1_555 1_555
C8 C7 1_555 1_555
C9 C8 1_555 1_555
H8 C9 1_555 1_555
C10 N2 1_555 1_555
C11 C10 1_555 1_555
H9 C11 1_555 1_555
H10 C11 1_555 1_555
H11 C11 1_555 1_555
O1C C7C 1_555 1_555
N1C H1C 1_555 1_555
C1C H2C 1_555 1_555
C2C C1C 1_555 1_555
H4C C2C 1_555 1_555
C3C C2C 1_555 1_555
H5C C3C 1_555 1_555
C4C C3C 1_555 1_555
H6C C4C 1_555 1_555
C5C C4C 1_555 1_555
H7C C5C 1_555 1_555
C6C N1C 1_555 1_555
C7C N1C 1_555 1_555
C8C C9 1_555 1_555
H8C C9 1_555 1_555
C10C N2 1_555 1_555
C11C C10C 1_555 1_555
H9C C11C 1_555 1_555
H10C C11C 1_555 1_555
H11C C11C 1_555 1_555
C1 C6 1_555 1_555
C5 C6 1_555 1_555
C8 C10 1_555 1_555
C1C C6C 1_555 1_555
C5C C6C 1_555 1_555
C7C C8C 1_555 1_555
C8C C10C 1_555 1_555

#END
