
#######################################################################
#
#                 Cambridge Crystallographic Data Centre
#                                CCDC 
#
#######################################################################
#
# If this CIF has been generated from an entry in the Cambridge 
# Structural Database, then it will include bibliographic, chemical, 
# crystal, experimental, refinement or atomic coordinate data resulting 
# from the CCDC's data processing and validation procedures.
#
#######################################################################

data_LOVMOA
_chemical_formula_moiety         'C17 H15 N3'
_chemical_name_systematic        4-benzyl-6-phenylpyrimidin-2-amine
_symmetry_cell_setting           orthorhombic
_symmetry_space_group_name_H-M   'P b c a'
_symmetry_Int_Tables_number      61
_space_group_name_Hall           '-P 2ac 2ab'
loop_
_symmetry_equiv_pos_site_id
_symmetry_equiv_pos_as_xyz
1 x,y,z
2 1/2-x,-y,1/2+z
3 -x,1/2+y,1/2-z
4 1/2+x,1/2-y,-z
5 -x,-y,-z
6 1/2+x,y,1/2-z
7 x,1/2-y,1/2+z
8 1/2-x,1/2+y,z
_cell_length_a                   10.6980(16)
_cell_length_b                   9.7042(14)
_cell_length_c                   26.597(4)
_cell_angle_alpha                90
_cell_angle_beta                 90
_cell_angle_gamma                90
_cell_volume                     2761.18
_exptl_crystal_colour            colorless
_exptl_crystal_description       block
_cell_formula_units_Z            8
loop_
_atom_site_label
_atom_site_type_symbol
_atom_site_fract_x
_atom_site_fract_y
_atom_site_fract_z
N1 N 0.53048(15) -0.01883(15) 0.57112(7)
N2 N 0.44426(12) 0.15201(14) 0.61975(5)
N3 N 0.38180(13) 0.11799(13) 0.53401(5)
C1 C 0.45020(14) 0.08824(16) 0.57493(6)
C2 C 0.36226(14) 0.25506(16) 0.62398(6)
C3 C 0.28426(16) 0.29016(18) 0.58419(6)
H1 H 0.2242 0.3603 0.5876
C4 C 0.29744(15) 0.21913(17) 0.53951(7)
C5 C 0.36184(16) 0.33045(17) 0.67287(6)
C6 C 0.45406(18) 0.3039(2) 0.70840(7)
H2 H 0.5159 0.2379 0.7015
C7 C 0.4561(2) 0.3731(2) 0.75366(8)
H3 H 0.5188 0.3533 0.7773
C8 C 0.3672(2) 0.4706(2) 0.76435(8)
H4 H 0.3689 0.5176 0.7952
C9 C 0.2756(2) 0.4991(2) 0.72974(8)
H5 H 0.2147 0.5660 0.7369
C10 C 0.2729(2) 0.4292(2) 0.68412(7)
H6 H 0.2099 0.4494 0.6606
C11 C 0.21794(17) 0.2515(2) 0.49430(7)
H7 H 0.1596 0.3254 0.5032
H8 H 0.1683 0.1698 0.4859
C12 C 0.29108(16) 0.29502(18) 0.44819(7)
C13 C 0.3984(2) 0.37419(19) 0.45191(8)
H9 H 0.4276 0.4007 0.4838
C14 C 0.4634(3) 0.4149(2) 0.40959(9)
H10 H 0.5367 0.4675 0.4129
C15 C 0.4209(3) 0.3788(3) 0.36248(9)
H11 H 0.4643 0.4077 0.3336
C16 C 0.3149(2) 0.3003(2) 0.35802(8)
H12 H 0.2858 0.2749 0.3260
C17 C 0.25078(19) 0.2585(2) 0.40034(7)
H13 H 0.1785 0.2044 0.3968
H14 H 0.552(2) -0.047(2) 0.5371(9)
H15 H 0.584(2) -0.032(2) 0.5967(8)
loop_
_geom_bond_atom_site_label_1
_geom_bond_atom_site_label_2
_geom_bond_site_symmetry_1
_geom_bond_site_symmetry_2
N1 C1 1_555 1_555
N2 C1 1_555 1_555
N3 C1 1_555 1_555
C2 N2 1_555 1_555
C3 C2 1_555 1_555
H1 C3 1_555 1_555
C4 N3 1_555 1_555
C5 C2 1_555 1_555
C6 C5 1_555 1_555
H2 C6 1_555 1_555
C7 C6 1_555 1_555
H3 C7 1_555 1_555
C8 C7 1_555 1_555
H4 C8 1_555 1_555
C9 C8 1_555 1_555
H5 C9 1_555 1_555
C10 C5 1_555 1_555
H6 C10 1_555 1_555
C11 C4 1_555 1_555
H7 C11 1_555 1_555
H8 C11 1_555 1_555
C12 C11 1_555 1_555
C13 C12 1_555 1_555
H9 C13 1_555 1_555
C14 C13 1_555 1_555
H10 C14 1_555 1_555
C15 C14 1_555 1_555
H11 C15 1_555 1_555
C16 C15 1_555 1_555
H12 C16 1_555 1_555
C17 C12 1_555 1_555
H13 C17 1_555 1_555
H14 N1 1_555 1_555
H15 N1 1_555 1_555
C3 C4 1_555 1_555
C9 C10 1_555 1_555
C16 C17 1_555 1_555

#END
