
#######################################################################
#
#                 Cambridge Crystallographic Data Centre
#                                CCDC 
#
#######################################################################
#
# If this CIF has been generated from an entry in the Cambridge 
# Structural Database, then it will include bibliographic, chemical, 
# crystal, experimental, refinement or atomic coordinate data resulting 
# from the CCDC's data processing and validation procedures.
#
#######################################################################

data_LOVMUG
_chemical_formula_moiety         'C17 H13 N3 O1'
_chemical_name_systematic        
(2-amino-6-phenylpyrimidin-4-yl)(phenyl)methanone
_symmetry_cell_setting           monoclinic
_symmetry_space_group_name_H-M   'P 21/n'
_symmetry_Int_Tables_number      14
_space_group_name_Hall           '-P 2yn'
loop_
_symmetry_equiv_pos_site_id
_symmetry_equiv_pos_as_xyz
1 x,y,z
2 1/2-x,1/2+y,1/2-z
3 -x,-y,-z
4 1/2+x,1/2-y,1/2+z
_cell_length_a                   5.2120(10)
_cell_length_b                   17.471(3)
_cell_length_c                   15.196(3)
_cell_angle_alpha                90
_cell_angle_beta                 92.267(3)
_cell_angle_gamma                90
_cell_volume                     1382.65
_exptl_crystal_colour            yellow
_exptl_crystal_description       prism
_cell_formula_units_Z            4
loop_
_atom_site_label
_atom_site_type_symbol
_atom_site_fract_x
_atom_site_fract_y
_atom_site_fract_z
N1 N 0.7192(2) 0.45002(7) 0.09084(7)
N2 N 1.0412(2) 0.53952(7) 0.14432(8)
N3 N 0.7544(3) 0.57071(8) 0.03154(9)
O1 O 0.6354(3) 0.30056(7) 0.23438(8)
C1 C 0.8080(3) 0.40074(8) 0.15237(9)
C2 C 0.8418(3) 0.51848(8) 0.09086(9)
C3 C 1.1256(3) 0.48873(8) 0.20469(9)
C4 C 1.0113(3) 0.41681(8) 0.21064(10)
H1 H 1.0709 0.3803 0.2531
C5 C 0.6619(3) 0.32669(9) 0.16105(9)
C6 C 0.5497(3) 0.28715(8) 0.08183(9)
C7 C 0.6544(3) 0.29390(8) -0.00047(10)
H2 H 0.7952 0.3274 -0.0085
C8 C 0.5528(4) 0.25167(9) -0.07103(10)
H3 H 0.6278 0.2551 -0.1269
C9 C 0.3431(4) 0.20462(9) -0.06034(11)
H4 H 0.2716 0.1768 -0.1091
C10 C 0.2372(3) 0.19805(9) 0.02139(11)
H5 H 0.0931 0.1657 0.0286
C11 C 0.3399(3) 0.23826(9) 0.09230(10)
H6 H 0.2684 0.2329 0.1485
C12 C 1.3415(3) 0.51404(8) 0.26498(9)
C13 C 1.4703(3) 0.58216(9) 0.24837(10)
H7 H 1.4182 0.6123 0.1988
C14 C 1.6730(3) 0.60650(10) 0.30298(11)
H8 H 1.7596 0.6528 0.2903
C15 C 1.7499(3) 0.56382(10) 0.37578(11)
H9 H 1.8889 0.5806 0.4133
C16 C 1.6230(4) 0.49660(10) 0.39352(12)
H10 H 1.6750 0.4671 0.4437
C17 C 1.4203(3) 0.47151(10) 0.33903(11)
H11 H 1.3346 0.4251 0.3522
H12 H 0.805(3) 0.6187(11) 0.0377(11)
H13 H 0.615(4) 0.5629(11) -0.0032(13)
loop_
_geom_bond_atom_site_label_1
_geom_bond_atom_site_label_2
_geom_bond_site_symmetry_1
_geom_bond_site_symmetry_2
N1 C1 1_555 1_555
N2 C2 1_555 1_555
N3 C2 1_555 1_555
O1 C5 1_555 1_555
C1 C4 1_555 1_555
C2 N1 1_555 1_555
C3 N2 1_555 1_555
C4 C3 1_555 1_555
H1 C4 1_555 1_555
C5 C1 1_555 1_555
C6 C5 1_555 1_555
C7 C6 1_555 1_555
H2 C7 1_555 1_555
C8 C7 1_555 1_555
H3 C8 1_555 1_555
C9 C8 1_555 1_555
H4 C9 1_555 1_555
C10 C9 1_555 1_555
H5 C10 1_555 1_555
C11 C6 1_555 1_555
H6 C11 1_555 1_555
C12 C3 1_555 1_555
C13 C12 1_555 1_555
H7 C13 1_555 1_555
C14 C13 1_555 1_555
H8 C14 1_555 1_555
C15 C14 1_555 1_555
H9 C15 1_555 1_555
C16 C15 1_555 1_555
H10 C16 1_555 1_555
C17 C12 1_555 1_555
H11 C17 1_555 1_555
H12 N3 1_555 1_555
H13 N3 1_555 1_555
C10 C11 1_555 1_555
C16 C17 1_555 1_555

#END
