
#######################################################################
#
#                 Cambridge Crystallographic Data Centre
#                                CCDC 
#
#######################################################################
#
# If this CIF has been generated from an entry in the Cambridge 
# Structural Database, then it will include bibliographic, chemical, 
# crystal, experimental, refinement or atomic coordinate data resulting 
# from the CCDC's data processing and validation procedures.
#
#######################################################################

data_LOWTOI
_chemical_formula_moiety         'C17 H19 N1 O1'
_chemical_name_systematic        
1-amino-1-benzyl-1,2,3,4-tetrahydronaphthalen-2-ol
_symmetry_cell_setting           monoclinic
_symmetry_space_group_name_H-M   'P 21'
_symmetry_Int_Tables_number      4
_space_group_name_Hall           'P 2yb'
loop_
_symmetry_equiv_pos_site_id
_symmetry_equiv_pos_as_xyz
1 x,y,z
2 -x,1/2+y,-z
_cell_length_a                   8.3714(4)
_cell_length_b                   5.7588(3)
_cell_length_c                   14.2612(6)
_cell_angle_alpha                90
_cell_angle_beta                 96.106(4)
_cell_angle_gamma                90
_cell_volume                     683.621
_exptl_crystal_colour            colorless
_exptl_crystal_description       rod
_cell_formula_units_Z            2
loop_
_atom_site_label
_atom_site_type_symbol
_atom_site_fract_x
_atom_site_fract_y
_atom_site_fract_z
N1 N 0.4178(2) 1.1709(4) 0.38422(12)
O1 O 0.48799(15) 0.6849(3) 0.38401(11)
H1 H 0.4939 0.5442 0.3762
C1 C 0.3261(2) 0.7587(4) 0.36114(14)
H2 H 0.2756 0.6545 0.3123
C2 C 0.2310(2) 0.7450(4) 0.44551(14)
H3 H 0.2702 0.8602 0.4920
H4 H 0.2440 0.5928 0.4744
C3 C 0.0549(2) 0.7886(4) 0.41367(15)
H5 H 0.0086 0.6491 0.3839
H6 H -0.0008 0.8203 0.4686
C4 C 0.0277(2) 0.9878(4) 0.34573(13)
C5 C -0.1283(2) 1.0701(5) 0.32450(16)
H7 H -0.2115 0.9988 0.3519
C6 C -0.1628(3) 1.2531(5) 0.26441(18)
H8 H -0.2681 1.3050 0.2515
C7 C -0.0405(3) 1.3600(5) 0.22314(16)
H9 H -0.0623 1.4858 0.1829
C8 C 0.1145(2) 1.2785(4) 0.24214(15)
H10 H 0.1964 1.3509 0.2139
C9 C 0.1522(2) 1.0905(4) 0.30244(13)
C10 C 0.3256(2) 1.0039(4) 0.31986(13)
C11 C 0.4139(2) 1.0019(4) 0.23001(14)
H11 H 0.4038 1.1553 0.2019
H12 H 0.5272 0.9762 0.2492
C12 C 0.3599(2) 0.8262(4) 0.15410(13)
C13 C 0.2145(3) 0.8437(5) 0.09811(15)
H13 H 0.1438 0.9629 0.1089
C14 C 0.1732(3) 0.6859(7) 0.02633(18)
H14 H 0.0750 0.7001 -0.0104
C15 C 0.2753(4) 0.5092(6) 0.00884(19)
H15 H 0.2467 0.4033 -0.0392
C16 C 0.4195(4) 0.4900(5) 0.06252(18)
H16 H 0.4902 0.3718 0.0505
C17 C 0.4608(3) 0.6457(5) 0.13484(16)
H17 H 0.5588 0.6287 0.1715
H18 H 0.367(3) 1.188(6) 0.4349(13)
H19 H 0.514(2) 1.115(4) 0.4021(17)
loop_
_geom_bond_atom_site_label_1
_geom_bond_atom_site_label_2
_geom_bond_site_symmetry_1
_geom_bond_site_symmetry_2
N1 C10 1_555 1_555
O1 H1 1_555 1_555
C1 O1 1_555 1_555
H2 C1 1_555 1_555
C2 C1 1_555 1_555
H3 C2 1_555 1_555
H4 C2 1_555 1_555
C3 C2 1_555 1_555
H5 C3 1_555 1_555
H6 C3 1_555 1_555
C4 C3 1_555 1_555
C5 C4 1_555 1_555
H7 C5 1_555 1_555
C6 C5 1_555 1_555
H8 C6 1_555 1_555
C7 C6 1_555 1_555
H9 C7 1_555 1_555
C8 C7 1_555 1_555
H10 C8 1_555 1_555
C9 C4 1_555 1_555
C10 C1 1_555 1_555
C11 C10 1_555 1_555
H11 C11 1_555 1_555
H12 C11 1_555 1_555
C12 C11 1_555 1_555
C13 C12 1_555 1_555
H13 C13 1_555 1_555
C14 C13 1_555 1_555
H14 C14 1_555 1_555
C15 C14 1_555 1_555
H15 C15 1_555 1_555
C16 C15 1_555 1_555
H16 C16 1_555 1_555
C17 C12 1_555 1_555
H17 C17 1_555 1_555
H18 N1 1_555 1_555
H19 N1 1_555 1_555
C8 C9 1_555 1_555
C9 C10 1_555 1_555
C16 C17 1_555 1_555

#END
