
#######################################################################
#
#                 Cambridge Crystallographic Data Centre
#                                CCDC 
#
#######################################################################
#
# If this CIF has been generated from an entry in the Cambridge 
# Structural Database, then it will include bibliographic, chemical, 
# crystal, experimental, refinement or atomic coordinate data resulting 
# from the CCDC's data processing and validation procedures.
#
#######################################################################

data_LOYKAL
_chemical_compound_source        
'leaves and new branches of Isodon henryi (Hemsl.) Kudo (Labiatae)'
_chemical_formula_moiety         'C22 H30 O5'
_chemical_name_systematic        'Taibaihenryiin C'
_chemical_properties_biological  'potential bioactivity'
_symmetry_cell_setting           orthorhombic
_symmetry_space_group_name_H-M   'P 21 21 21'
_symmetry_Int_Tables_number      19
_space_group_name_Hall           'P 2ac 2ab'
loop_
_symmetry_equiv_pos_site_id
_symmetry_equiv_pos_as_xyz
1 x,y,z
2 1/2-x,-y,1/2+z
3 -x,1/2+y,1/2-z
4 1/2+x,1/2-y,-z
_cell_length_a                   6.1620(1)
_cell_length_b                   12.7300(1)
_cell_length_c                   25.193(3)
_cell_angle_alpha                90
_cell_angle_beta                 90
_cell_angle_gamma                90
_cell_volume                     1976.2
_exptl_crystal_colour            colorless
_exptl_crystal_description       'irregular hexagonal'
_chemical_melting_point          255-256.5deg.C
_cell_formula_units_Z            4
loop_
_atom_site_label
_atom_site_type_symbol
_atom_site_fract_x
_atom_site_fract_y
_atom_site_fract_z
O1 O 0.2004(3) 1.16887(12) 0.12865(6)
O2 O 0.0579(3) 1.14009(18) 0.20854(7)
O3 O 0.3065(3) 0.94074(11) 0.13249(6)
O4 O 0.4642(5) 0.79696(15) 0.16464(8)
O5 O 0.1145(3) 0.86877(17) -0.09995(8)
C1 C 0.2150(4) 1.1454(2) 0.18087(9)
C2 C 0.4465(4) 1.1289(2) 0.19493(9)
C3 C 0.5764(4) 1.13186(18) 0.14504(8)
H1 H 0.7003 1.1792 0.1499
C4 C 0.4178(4) 1.18057(18) 0.10504(8)
H2 H 0.4504 1.2556 0.1017
C5 C 0.4210(4) 1.13207(17) 0.05092(8)
C6 C 0.3988(4) 1.01369(15) 0.04691(8)
H3 H 0.2429 0.9985 0.0462
C7 C 0.4904(4) 0.95962(17) 0.09687(9)
H4 H 0.5544 0.8921 0.0867
C8 C 0.6587(4) 1.02406(18) 0.12626(9)
H5 H 0.7828 1.0346 0.1032
H6 H 0.7078 0.9845 0.1569
C9 C 0.5147(6) 1.1179(3) 0.24392(12)
C10 C 0.3172(5) 0.85875(19) 0.16515(9)
C11 C 0.1261(6) 0.8534(2) 0.20156(10)
H7 H 0.1546 0.8037 0.2293
H8 H 0.0003 0.8317 0.1819
H9 H 0.1006 0.9214 0.2168
C12 C 0.4495(4) 1.19213(18) 0.00881(9)
C13 C 0.4607(4) 1.15190(17) -0.04698(8)
H10 H 0.6083 1.1589 -0.0599
H11 H 0.3677 1.1944 -0.0694
C14 C 0.3910(4) 1.03708(16) -0.05113(8)
H12 H 0.2353 1.0374 -0.0432
C15 C 0.4947(4) 0.97033(16) -0.00633(9)
C16 C 0.7442(4) 0.97799(19) -0.00498(10)
H13 H 0.8027 0.9513 -0.0376
H14 H 0.7989 0.9374 0.0242
H15 H 0.7864 1.0501 -0.0007
C17 C 0.4250(4) 0.85565(16) -0.01318(9)
H16 H 0.5036 0.8125 0.0121
H17 H 0.2715 0.8496 -0.0052
C18 C 0.4662(5) 0.81416(18) -0.06917(9)
H18 H 0.6203 0.8172 -0.0768
H19 H 0.4209 0.7413 -0.0712
C19 C 0.3438(4) 0.8777(2) -0.10985(10)
H20 H 0.3749 0.8492 -0.1452
C20 C 0.4075(4) 0.99482(19) -0.10906(8)
C21 C 0.6326(4) 1.0059(2) -0.13482(10)
H21 H 0.7340 0.9612 -0.1168
H22 H 0.6800 1.0775 -0.1323
H23 H 0.6242 0.9858 -0.1715
C22 C 0.2497(4) 1.0567(2) -0.14436(9)
H24 H 0.3011 1.1274 -0.1484
H25 H 0.1086 1.0575 -0.1282
H26 H 0.2407 1.0238 -0.1786
H27 H 0.473(4) 1.2743(19) 0.0133(9)
H28 H 0.076(8) 0.812(3) -0.1172(16)
H29 H 0.409(4) 1.119(2) 0.2689(10)
H30 H 0.680(5) 1.108(2) 0.2528(11)
loop_
_geom_bond_atom_site_label_1
_geom_bond_atom_site_label_2
_geom_bond_site_symmetry_1
_geom_bond_site_symmetry_2
O1 C1 1_555 1_555
O2 C1 1_555 1_555
O3 C7 1_555 1_555
O4 C10 1_555 1_555
O5 C19 1_555 1_555
C1 C2 1_555 1_555
C2 C3 1_555 1_555
C3 H1 1_555 1_555
C4 O1 1_555 1_555
H2 C4 1_555 1_555
C5 C4 1_555 1_555
C6 C5 1_555 1_555
H3 C6 1_555 1_555
C7 C6 1_555 1_555
H4 C7 1_555 1_555
C8 C3 1_555 1_555
H5 C8 1_555 1_555
H6 C8 1_555 1_555
C9 C2 1_555 1_555
C10 O3 1_555 1_555
C11 C10 1_555 1_555
H7 C11 1_555 1_555
H8 C11 1_555 1_555
H9 C11 1_555 1_555
C12 C5 1_555 1_555
C13 C12 1_555 1_555
H10 C13 1_555 1_555
H11 C13 1_555 1_555
C14 C13 1_555 1_555
H12 C14 1_555 1_555
C15 C6 1_555 1_555
C16 C15 1_555 1_555
H13 C16 1_555 1_555
H14 C16 1_555 1_555
H15 C16 1_555 1_555
C17 C15 1_555 1_555
H16 C17 1_555 1_555
H17 C17 1_555 1_555
C18 C17 1_555 1_555
H18 C18 1_555 1_555
H19 C18 1_555 1_555
C19 C18 1_555 1_555
H20 C19 1_555 1_555
C20 C14 1_555 1_555
C21 C20 1_555 1_555
H21 C21 1_555 1_555
H22 C21 1_555 1_555
H23 C21 1_555 1_555
C22 C20 1_555 1_555
H24 C22 1_555 1_555
H25 C22 1_555 1_555
H26 C22 1_555 1_555
H27 C12 1_555 1_555
H28 O5 1_555 1_555
H29 C9 1_555 1_555
H30 C9 1_555 1_555
C3 C4 1_555 1_555
C7 C8 1_555 1_555
C14 C15 1_555 1_555
C19 C20 1_555 1_555

#END
