
#######################################################################
#
#                 Cambridge Crystallographic Data Centre
#                                CCDC 
#
#######################################################################
#
# If this CIF has been generated from an entry in the Cambridge 
# Structural Database, then it will include bibliographic, chemical, 
# crystal, experimental, refinement or atomic coordinate data resulting 
# from the CCDC's data processing and validation procedures.
#
#######################################################################

data_LOYNEU
_chemical_formula_moiety         'C62 H22 F20 N8,1.34(C6 H14),2.16(C1 H1 Cl3)'
_chemical_name_systematic        
"5,5'-bis(10,15-bis(pentafluorophenyl)corrole) chloroform hexane solvate"
_symmetry_cell_setting           monoclinic
_symmetry_space_group_name_H-M   'P 21/n'
_symmetry_Int_Tables_number      14
_space_group_name_Hall           '-P 2yn'
loop_
_symmetry_equiv_pos_site_id
_symmetry_equiv_pos_as_xyz
1 x,y,z
2 1/2-x,1/2+y,1/2-z
3 -x,-y,-z
4 1/2+x,1/2-y,1/2+z
_cell_length_a                   15.446(2)
_cell_length_b                   10.3117(16)
_cell_length_c                   42.338(6)
_cell_angle_alpha                90
_cell_angle_beta                 95.341(4)
_cell_angle_gamma                90
_cell_volume                     6714.09
_exptl_crystal_colour            green
_exptl_crystal_description       prism
_cell_formula_units_Z            4
_exptl_crystal_recrystallization_method 'Vapour Deposition'
loop_
_atom_site_label
_atom_site_type_symbol
_atom_site_fract_x
_atom_site_fract_y
_atom_site_fract_z
Cl1 Cl 0.66264(8) 0.05011(13) 0.07733(3)
Cl2 Cl 0.80309(10) -0.00227(13) 0.12546(3)
Cl3 Cl 0.83194(9) -0.01729(14) 0.05908(4)
C1 C 0.7564(3) -0.0408(5) 0.08790(12)
H1 H 0.7398 -0.1346 0.0878
Cl4 Cl 0.26888(8) 0.54442(14) 0.12779(4)
Cl5 Cl 0.12774(9) 0.49444(13) 0.07953(3)
Cl6 Cl 0.09758(9) 0.48984(12) 0.14576(4)
C2 C 0.1723(3) 0.4567(5) 0.11822(13)
H2 H 0.1862 0.3620 0.1192
F1 F 0.11587(15) 0.6111(2) 0.22161(6)
F2 F 0.08006(17) 0.6000(3) 0.28261(6)
F3 F -0.04921(18) 0.7486(3) 0.30273(5)
F4 F -0.14114(16) 0.9110(3) 0.26164(5)
F5 F -0.10573(14) 0.9243(2) 0.20132(5)
F6 F 0.29284(15) 1.1872(2) 0.11965(6)
F7 F 0.45116(17) 1.2946(2) 0.13353(7)
F8 F 0.59467(14) 1.1406(3) 0.14325(6)
F9 F 0.57753(14) 0.8796(3) 0.14048(6)
F10 F 0.41956(14) 0.7715(2) 0.12778(6)
F11 F 0.35405(15) 0.3144(2) -0.07576(7)
F12 F 0.51060(18) 0.1981(2) -0.06878(7)
F13 F 0.65771(16) 0.3438(3) -0.06420(7)
F14 F 0.64698(16) 0.6055(3) -0.06403(9)
F15 F 0.49078(15) 0.7228(2) -0.07057(7)
F16 F 0.26055(15) 0.8880(2) -0.20278(5)
F17 F 0.27914(16) 0.8970(3) -0.26526(5)
F18 F 0.18638(19) 0.7369(3) -0.30577(5)
F19 F 0.0730(2) 0.5641(3) -0.28335(6)
F20 F 0.05373(17) 0.5534(2) -0.22084(5)
N1 N -0.02453(19) 0.7560(3) 0.12130(7)
H3 H 0.0202 0.7976 0.1148
N2 N 0.13438(18) 0.8319(3) 0.13791(7)
N3 N 0.16742(18) 0.8270(3) 0.07084(7)
H4 H 0.1308 0.7886 0.0826
N4 N -0.00471(18) 0.7605(3) 0.06006(7)
H5 H 0.0242 0.8191 0.0719
N5 N 0.04309(19) 0.7510(3) -0.06999(7)
H6 H 0.0841 0.7010 -0.0765
N6 N 0.20690(18) 0.6815(3) -0.05483(7)
N7 N 0.22705(18) 0.6652(3) -0.12277(6)
H7 H 0.1895 0.6999 -0.1109
N8 N 0.05901(19) 0.7352(3) -0.13141(7)
H8 H 0.0928 0.6856 -0.1186
C3 C -0.0880(2) 0.6978(4) 0.10160(8)
C4 C -0.1498(2) 0.6476(4) 0.12139(9)
H9 H -0.2021 0.6033 0.1145
C5 C -0.1194(2) 0.6753(4) 0.15246(9)
H10 H -0.1475 0.6537 0.1708
C6 C -0.0392(2) 0.7415(4) 0.15217(8)
C7 C 0.0269(2) 0.7783(4) 0.17546(8)
C8 C 0.1093(2) 0.8220(4) 0.16834(8)
C9 C 0.1781(2) 0.8688(4) 0.19070(8)
H11 H 0.1774 0.8726 0.2131
C10 C 0.2443(2) 0.9066(4) 0.17377(8)
H12 H 0.2986 0.9418 0.1820
C11 C 0.2159(2) 0.8828(4) 0.14063(8)
C12 C 0.2648(2) 0.9145(3) 0.11506(8)
C13 C 0.2398(2) 0.8949(3) 0.08272(8)
C14 C 0.2790(2) 0.9428(4) 0.05589(8)
H13 H 0.3301 0.9944 0.0566
C15 C 0.2311(2) 0.9023(4) 0.02904(8)
H14 H 0.2433 0.9211 0.0079
C16 C 0.1597(2) 0.8271(4) 0.03780(8)
C17 C 0.0921(2) 0.7675(4) 0.01820(8)
C18 C 0.0147(2) 0.7255(4) 0.03012(8)
C19 C -0.0506(2) 0.6358(4) 0.01929(8)
H15 H -0.0561 0.5954 -0.0010
C20 C -0.1058(2) 0.6160(4) 0.04310(9)
H16 H -0.1554 0.5610 0.0419
C21 C -0.0745(2) 0.6928(4) 0.06917(8)
C22 C -0.0206(2) 0.8077(4) -0.08961(9)
C23 C -0.0751(2) 0.8721(4) -0.06993(9)
H17 H -0.1268 0.9181 -0.0767
C24 C -0.0403(2) 0.8567(4) -0.03897(9)
H18 H -0.0635 0.8911 -0.0207
C25 C 0.0359(2) 0.7807(4) -0.03901(8)
C26 C 0.1037(2) 0.7455(4) -0.01570(8)
C27 C 0.1822(2) 0.6902(4) -0.02418(8)
C28 C 0.2474(2) 0.6271(4) -0.00313(8)
H19 H 0.2465 0.6175 0.0191
C29 C 0.3109(2) 0.5835(4) -0.02082(8)
H20 H 0.3623 0.5387 -0.0132
C30 C 0.2852(2) 0.6182(3) -0.05327(8)
C31 C 0.3311(2) 0.5867(3) -0.07945(8)
C32 C 0.3030(2) 0.6057(3) -0.11168(8)
C33 C 0.3441(2) 0.5612(4) -0.13856(8)
H21 H 0.3977 0.5158 -0.1380
C34 C 0.2923(2) 0.5959(4) -0.16520(8)
H22 H 0.3038 0.5786 -0.1864
C35 C 0.2184(2) 0.6623(4) -0.15569(8)
C36 C 0.1473(2) 0.7115(4) -0.17488(8)
C37 C 0.0706(2) 0.7564(4) -0.16270(8)
C38 C 0.0006(3) 0.8347(4) -0.17452(9)
H23 H -0.0103 0.8635 -0.1958
C39 C -0.0501(3) 0.8632(4) -0.15013(9)
H24 H -0.1012 0.9149 -0.1516
C40 C -0.0115(2) 0.8008(4) -0.12257(8)
C41 C 0.0076(2) 0.7695(4) 0.20920(8)
C42 C 0.0531(2) 0.6885(4) 0.23117(9)
C43 C 0.0355(3) 0.6810(4) 0.26239(9)
C44 C -0.0305(3) 0.7546(4) 0.27275(9)
C45 C -0.0777(2) 0.8358(4) 0.25169(9)
C46 C -0.0584(2) 0.8425(4) 0.22059(8)
C47 C 0.3515(2) 0.9760(4) 0.12297(8)
C48 C 0.3630(2) 1.1083(4) 0.12485(9)
C49 C 0.4435(3) 1.1651(4) 0.13181(9)
C50 C 0.5160(2) 1.0880(4) 0.13696(8)
C51 C 0.5072(2) 0.9555(4) 0.13564(9)
C52 C 0.4259(2) 0.9010(4) 0.12897(8)
C53 C 0.4173(2) 0.5225(4) -0.07323(8)
C54 C 0.4250(2) 0.3887(4) -0.07237(9)
C55 C 0.5053(3) 0.3276(4) -0.06887(10)
C56 C 0.5794(2) 0.4013(4) -0.06641(10)
C57 C 0.5745(3) 0.5342(5) -0.06659(11)
C58 C 0.4939(2) 0.5930(4) -0.06981(10)
C59 C 0.1554(2) 0.7214(4) -0.20960(8)
C60 C 0.2126(2) 0.8074(4) -0.22203(8)
C61 C 0.2225(3) 0.8129(4) -0.25414(9)
C62 C 0.1757(3) 0.7317(4) -0.27466(9)
C63 C 0.1185(3) 0.6456(4) -0.26342(9)
C64 C 0.1089(3) 0.6421(4) -0.23122(9)
C65 C 0.4722(5) 0.5729(7) 0.19138(15)
H25 H 0.4629 0.4905 0.1801
H26 H 0.5299 0.5729 0.2032
H27 H 0.4684 0.6445 0.1761
C66 C 0.4072(10) 0.5889(15) 0.2130(4)
H28 H 0.4119 0.5109 0.2267
H29 H 0.3510 0.5811 0.1999
C67 C 0.3961(7) 0.6964(12) 0.2343(3)
H30 H 0.3832 0.7749 0.2213
H31 H 0.4523 0.7113 0.2470
C68 C 0.3283(5) 0.6840(7) 0.2565(2)
H32 H 0.2714 0.6606 0.2453
H33 H 0.3445 0.6188 0.2732
C69 C 0.3271(9) 0.8121(10) 0.2694(4)
H34 H 0.3115 0.8762 0.2524
H35 H 0.3848 0.8349 0.2801
C70 C 0.2518(8) 0.8105(16) 0.2956(4)
H36 H 0.2479 0.8968 0.3051
H37 H 0.2684 0.7470 0.3123
H38 H 0.1953 0.7866 0.2848
C71 C 0.5401(10) 0.008(2) -0.0067(4)
H39 H 0.5750 0.0814 0.0029
H40 H 0.5331 0.0165 -0.0301
C72 C 0.6473(12) -0.2118(13) -0.0040(4)
H41 H 0.6473 -0.2924 0.0083
H42 H 0.7031 -0.1672 0.0008
H43 H 0.6389 -0.2320 -0.0266
C73 C 0.5750(13) -0.1260(18) 0.0048(5)
H44 H 0.5872 -0.1149 0.0280
H45 H 0.5231 -0.1827 0.0020
C71B C 0.4599(10) -0.008(2) 0.0067(4)
H39B H 0.4250 -0.0814 -0.0029
H40B H 0.4669 -0.0165 0.0301
C72B C 0.3527(12) 0.2118(13) 0.0040(4)
H41B H 0.3527 0.2924 -0.0083
H42B H 0.2969 0.1672 -0.0008
H43B H 0.3611 0.2320 0.0266
C73B C 0.4250(13) 0.1260(18) -0.0048(5)
H44B H 0.4128 0.1149 -0.0280
H45B H 0.4769 0.1827 -0.0020
C74? C 0.4812(14) 0.072(3) 0.0123(19)
H46? H 0.4840 0.0518 0.0355
Cl7? Cl 0.3867(8) 0.1579(13) -0.0005(3)
Cl8? Cl 0.5661(6) 0.1785(9) 0.0035(2)
Cl9? Cl 0.4968(8) -0.0686(13) -0.0108(4)
loop_
_geom_bond_atom_site_label_1
_geom_bond_atom_site_label_2
_geom_bond_site_symmetry_1
_geom_bond_site_symmetry_2
Cl1 C1 1_555 1_555
Cl2 C1 1_555 1_555
Cl3 C1 1_555 1_555
C1 H1 1_555 1_555
Cl4 C2 1_555 1_555
Cl5 C2 1_555 1_555
Cl6 C2 1_555 1_555
C2 H2 1_555 1_555
F1 C42 1_555 1_555
F2 C43 1_555 1_555
F3 C44 1_555 1_555
F4 C45 1_555 1_555
F5 C46 1_555 1_555
F6 C48 1_555 1_555
F7 C49 1_555 1_555
F8 C50 1_555 1_555
F9 C51 1_555 1_555
F10 C52 1_555 1_555
F11 C54 1_555 1_555
F12 C55 1_555 1_555
F13 C56 1_555 1_555
F14 C57 1_555 1_555
F15 C58 1_555 1_555
F16 C60 1_555 1_555
F17 C61 1_555 1_555
F18 C62 1_555 1_555
F19 C63 1_555 1_555
F20 C64 1_555 1_555
N1 H3 1_555 1_555
N2 C8 1_555 1_555
N3 H4 1_555 1_555
N4 H5 1_555 1_555
N5 H6 1_555 1_555
N6 C27 1_555 1_555
N7 H7 1_555 1_555
N8 H8 1_555 1_555
C3 N1 1_555 1_555
C4 C3 1_555 1_555
H9 C4 1_555 1_555
C5 C4 1_555 1_555
H10 C5 1_555 1_555
C6 N1 1_555 1_555
C7 C6 1_555 1_555
C8 C7 1_555 1_555
C9 C8 1_555 1_555
H11 C9 1_555 1_555
C10 C9 1_555 1_555
H12 C10 1_555 1_555
C11 N2 1_555 1_555
C12 C11 1_555 1_555
C13 N3 1_555 1_555
C14 C13 1_555 1_555
H13 C14 1_555 1_555
C15 C14 1_555 1_555
H14 C15 1_555 1_555
C16 N3 1_555 1_555
C17 C16 1_555 1_555
C18 N4 1_555 1_555
C19 C18 1_555 1_555
H15 C19 1_555 1_555
C20 C19 1_555 1_555
H16 C20 1_555 1_555
C21 N4 1_555 1_555
C22 N5 1_555 1_555
C23 C22 1_555 1_555
H17 C23 1_555 1_555
C24 C23 1_555 1_555
H18 C24 1_555 1_555
C25 N5 1_555 1_555
C26 C17 1_555 1_555
C27 C26 1_555 1_555
C28 C27 1_555 1_555
H19 C28 1_555 1_555
C29 C28 1_555 1_555
H20 C29 1_555 1_555
C30 N6 1_555 1_555
C31 C30 1_555 1_555
C32 N7 1_555 1_555
C33 C32 1_555 1_555
H21 C33 1_555 1_555
C34 C33 1_555 1_555
H22 C34 1_555 1_555
C35 N7 1_555 1_555
C36 C35 1_555 1_555
C37 N8 1_555 1_555
C38 C37 1_555 1_555
H23 C38 1_555 1_555
C39 C38 1_555 1_555
H24 C39 1_555 1_555
C40 N8 1_555 1_555
C41 C7 1_555 1_555
C42 C41 1_555 1_555
C43 C42 1_555 1_555
C44 C43 1_555 1_555
C45 C44 1_555 1_555
C46 C41 1_555 1_555
C47 C12 1_555 1_555
C48 C47 1_555 1_555
C49 C48 1_555 1_555
C50 C49 1_555 1_555
C51 C50 1_555 1_555
C52 C47 1_555 1_555
C53 C31 1_555 1_555
C54 C53 1_555 1_555
C55 C54 1_555 1_555
C56 C55 1_555 1_555
C57 C56 1_555 1_555
C58 C53 1_555 1_555
C59 C36 1_555 1_555
C60 C59 1_555 1_555
C61 C60 1_555 1_555
C62 C61 1_555 1_555
C63 C62 1_555 1_555
C64 C59 1_555 1_555
C65 H25 1_555 1_555
H26 C65 1_555 1_555
H27 C65 1_555 1_555
C66 C65 1_555 1_555
H28 C66 1_555 1_555
H29 C66 1_555 1_555
C67 C66 1_555 1_555
H30 C67 1_555 1_555
H31 C67 1_555 1_555
C68 C67 1_555 1_555
H32 C68 1_555 1_555
H33 C68 1_555 1_555
C69 C68 1_555 1_555
H34 C69 1_555 1_555
H35 C69 1_555 1_555
C70 C69 1_555 1_555
H36 C70 1_555 1_555
H37 C70 1_555 1_555
H38 C70 1_555 1_555
C71 H39 1_555 1_555
H40 C71 1_555 1_555
C72 H41 1_555 1_555
H42 C72 1_555 1_555
H43 C72 1_555 1_555
C73 C71 1_555 1_555
H44 C73 1_555 1_555
H45 C73 1_555 1_555
C71B C71 1_555 1_555
H39B C71B 1_555 1_555
H40B C71B 1_555 1_555
C72B H41B 1_555 1_555
H42B C72B 1_555 1_555
H43B C72B 1_555 1_555
C73B C71B 1_555 1_555
H44B C73B 1_555 1_555
H45B C73B 1_555 1_555
C3 C21 1_555 1_555
C5 C6 1_555 1_555
C10 C11 1_555 1_555
C12 C13 1_555 1_555
C15 C16 1_555 1_555
C17 C18 1_555 1_555
C20 C21 1_555 1_555
C22 C40 1_555 1_555
C24 C25 1_555 1_555
C25 C26 1_555 1_555
C29 C30 1_555 1_555
C31 C32 1_555 1_555
C34 C35 1_555 1_555
C36 C37 1_555 1_555
C39 C40 1_555 1_555
C45 C46 1_555 1_555
C51 C52 1_555 1_555
C57 C58 1_555 1_555
C63 C64 1_555 1_555
C72 C73 1_555 1_555
C72B C73B 1_555 1_555

#END
