
#######################################################################
#
#                 Cambridge Crystallographic Data Centre
#                                CCDC 
#
#######################################################################
#
# If this CIF has been generated from an entry in the Cambridge 
# Structural Database, then it will include bibliographic, chemical, 
# crystal, experimental, refinement or atomic coordinate data resulting 
# from the CCDC's data processing and validation procedures.
#
#######################################################################

data_LOYNIY
_chemical_formula_moiety         
'C62 H22 F20 N8 2+,2.75(C5 H12),2(C2 H1 F3 O2),2(C2 F3 O2 1-)'
_chemical_name_systematic        
"3,3':5,5'-bis(10,15-bis(pentafluorophenyl)corrol-21-ium) bis(trifluoroacetic acid) bis(trifluoroacetate) pentane solvate"
_symmetry_cell_setting           triclinic
_symmetry_space_group_name_H-M   'P -1'
_symmetry_Int_Tables_number      2
_space_group_name_Hall           '-P 1'
loop_
_symmetry_equiv_pos_site_id
_symmetry_equiv_pos_as_xyz
1 x,y,z
2 -x,-y,-z
_cell_length_a                   8.709(3)
_cell_length_b                   22.694(3)
_cell_length_c                   23.833(3)
_cell_angle_alpha                64.69(3)
_cell_angle_beta                 83.17(3)
_cell_angle_gamma                82.32(3)
_cell_volume                     4210
_exptl_crystal_colour            violet
_exptl_crystal_description       prism
_cell_formula_units_Z            2
_exptl_crystal_recrystallization_method 'Vapour Deposition'
loop_
_atom_site_label
_atom_site_type_symbol
_atom_site_fract_x
_atom_site_fract_y
_atom_site_fract_z
O1 O 0.6851(3) 0.09568(16) 0.20338(15)
O2 O 0.9246(4) 0.07896(17) 0.23685(18)
H1 H 0.9154 0.1195 0.2268
F1 F 0.6900(6) -0.0275(2) 0.3096(4)
F2 F 0.7241(8) -0.0301(2) 0.2234(4)
F3 F 0.9173(4) -0.04745(17) 0.2771(2)
C1 C 0.7874(7) -0.0120(3) 0.2596(4)
C2 C 0.7965(5) 0.0616(2) 0.2293(2)
O3 O -0.0606(3) 0.19774(16) 0.19691(16)
O4 O 0.1909(3) 0.17854(15) 0.17008(15)
F4 F 0.2174(3) 0.30238(14) 0.15660(17)
F5 F 0.0859(5) 0.31126(16) 0.08192(15)
F6 F -0.0286(3) 0.32246(14) 0.16090(16)
C3 C 0.0881(5) 0.2883(2) 0.1431(2)
C4 C 0.0721(5) 0.2138(2) 0.1731(2)
O5 O 0.0578(4) 0.34775(19) 0.7691(2)
H2 H 0.0558 0.3090 0.7961
O6 O 0.3088(4) 0.33415(17) 0.78661(16)
F7 F 0.204(2) 0.4354(5) 0.6515(4)
F8 F 0.075(3) 0.4796(13) 0.7107(8)
F9 F 0.3214(12) 0.4616(7) 0.7129(12)
C5 C 0.2059(7) 0.4372(3) 0.7188(5)
C6 C 0.1919(5) 0.3658(2) 0.7634(2)
O7 O 0.2048(3) 0.75975(15) 0.18425(15)
O8 O -0.0510(4) 0.77118(18) 0.17607(19)
F10 F 0.2031(4) 0.88896(18) 0.1270(3)
F11 F 0.0563(6) 0.8741(2) 0.2076(3)
F12 F -0.0441(4) 0.89880(16) 0.1224(2)
C7 C 0.0740(6) 0.8639(3) 0.1549(3)
C8 C 0.0790(5) 0.7911(2) 0.1731(2)
N1 N 0.6820(4) 0.95665(16) -0.23182(16)
H3 H 0.6811 0.9138 -0.2151
N2 N 0.5820(4) 0.86834(17) -0.26758(15)
H4 H 0.5551 0.8802 -0.2369
N3 N 0.5111(4) 0.78557(16) -0.12952(14)
H5 H 0.5855 0.8115 -0.1483
N4 N 0.5603(4) 0.90012(16) -0.12174(16)
H6 H 0.5341 0.8888 -0.1501
N5 N 0.4730(4) 0.76835(17) 0.24095(16)
H7 H 0.4067 0.7549 0.2249
N6 N 0.3885(4) 0.64237(17) 0.27309(15)
H8 H 0.4471 0.6684 0.2420
N7 N 0.3962(4) 0.67987(16) 0.13373(15)
H9 H 0.3657 0.7054 0.1530
N8 N 0.5367(4) 0.78494(17) 0.12765(15)
H10 H 0.5148 0.7459 0.1556
F13 F 1.0182(4) 1.0001(2) -0.37510(13)
F14 F 1.1185(4) 1.0757(2) -0.49240(15)
F15 F 0.9249(4) 1.12416(18) -0.58284(14)
F16 F 0.6211(5) 1.0972(3) -0.55654(19)
F17 F 0.5180(4) 1.0209(2) -0.43979(17)
F18 F 0.2617(3) 0.80925(12) -0.31488(11)
F19 F 0.1265(3) 0.73152(14) -0.34974(12)
F20 F 0.1747(3) 0.59970(13) -0.28928(12)
F21 F 0.3626(3) 0.54524(11) -0.19344(12)
F22 F 0.5086(3) 0.62108(11) -0.16027(11)
F23 F 0.2784(5) 0.78580(14) 0.38892(14)
F24 F 0.2683(6) 0.77016(17) 0.50755(16)
F25 F 0.3812(6) 0.6550(2) 0.59656(15)
F26 F 0.5038(6) 0.55535(19) 0.56569(17)
F27 F 0.5255(5) 0.57164(16) 0.44677(14)
F28 F 0.4463(3) 0.45380(12) 0.31333(11)
F29 F 0.3534(3) 0.33818(12) 0.33400(12)
F30 F 0.1368(3) 0.33130(13) 0.26470(14)
F31 F 0.0148(3) 0.44235(14) 0.17274(13)
F32 F 0.1002(3) 0.55911(13) 0.15350(12)
C9 C 0.6626(5) 0.9939(2) -0.19850(19)
C10 C 0.6773(5) 1.0593(2) -0.2421(2)
H11 H 0.6724 1.0963 -0.2328
C11 C 0.6997(5) 1.0599(2) -0.3004(2)
H12 H 0.7113 1.0977 -0.3384
C12 C 0.7030(5) 0.9947(2) -0.29467(19)
C13 C 0.7096(5) 0.9677(2) -0.33847(19)
C14 C 0.6627(5) 0.9053(2) -0.32300(18)
C15 C 0.6859(5) 0.8667(2) -0.3575(2)
H13 H 0.7398 0.8788 -0.3973
C16 C 0.6191(5) 0.8098(2) -0.32465(19)
H14 H 0.6184 0.7755 -0.3374
C17 C 0.5502(4) 0.8107(2) -0.26754(18)
C18 C 0.4652(4) 0.76274(19) -0.21827(18)
C19 C 0.4368(4) 0.75581(19) -0.15691(17)
C20 C 0.3262(4) 0.7186(2) -0.11045(18)
H15 H 0.2571 0.6925 -0.1155
C21 C 0.3359(4) 0.7268(2) -0.05724(18)
H16 H 0.2748 0.7074 -0.0193
C22 C 0.4539(4) 0.76952(19) -0.06871(18)
C23 C 0.4991(4) 0.79840(19) -0.03127(18)
C24 C 0.5485(4) 0.8624(2) -0.05934(18)
C25 C 0.5909(4) 0.9006(2) -0.03003(19)
C26 C 0.6359(5) 0.9600(2) -0.0767(2)
H17 H 0.6711 0.9946 -0.0708
C27 C 0.6188(5) 0.9584(2) -0.1345(2)
C28 C 0.5711(5) 0.8158(2) 0.2068(2)
C29 C 0.6509(5) 0.8255(2) 0.2497(2)
H18 H 0.7249 0.8562 0.2399
C30 C 0.6018(6) 0.7817(2) 0.3091(2)
H19 H 0.6365 0.7775 0.3471
C31 C 0.4914(5) 0.7448(2) 0.3030(2)
C32 C 0.4166(5) 0.6902(2) 0.3467(2)
C33 C 0.3579(5) 0.6456(2) 0.3297(2)
C34 C 0.2560(5) 0.5960(2) 0.3652(2)
H20 H 0.2137 0.5863 0.4065
C35 C 0.2298(5) 0.5651(2) 0.32980(19)
H21 H 0.1650 0.5306 0.3420
C36 C 0.3154(5) 0.5931(2) 0.27162(19)
C37 C 0.3278(4) 0.5758(2) 0.22064(18)
C38 C 0.3873(4) 0.61317(19) 0.15967(18)
C39 C 0.4524(5) 0.5914(2) 0.11334(18)
H22 H 0.4639 0.5474 0.1178
C40 C 0.4956(5) 0.6450(2) 0.06104(19)
H23 H 0.5418 0.6443 0.0232
C41 C 0.4604(4) 0.7010(2) 0.07279(18)
C42 C 0.4910(4) 0.76813(19) 0.03581(18)
C43 C 0.5310(4) 0.8059(2) 0.06503(18)
C44 C 0.5803(4) 0.8704(2) 0.03665(19)
C45 C 0.7654(5) 1.0077(2) -0.4034(2)
C46 C 0.9181(6) 1.0232(2) -0.4185(2)
C47 C 0.9713(6) 1.0616(3) -0.4787(2)
C48 C 0.8707(6) 1.0878(3) -0.5249(2)
C49 C 0.7187(7) 1.0723(3) -0.5115(3)
C50 C 0.6690(6) 1.0331(3) -0.4518(3)
C51 C 0.3909(4) 0.71840(19) -0.23647(17)
C52 C 0.2922(5) 0.7442(2) -0.28478(18)
C53 C 0.2198(5) 0.7053(2) -0.30305(19)
C54 C 0.2426(5) 0.6378(2) -0.27200(19)
C55 C 0.3405(5) 0.61043(19) -0.22333(19)
C56 C 0.4117(4) 0.65058(19) -0.20642(17)
C57 C 0.4032(6) 0.6790(2) 0.4132(2)
C58 C 0.3370(7) 0.7285(2) 0.4312(2)
C59 C 0.3301(8) 0.7204(3) 0.4925(2)
C60 C 0.3848(8) 0.6625(3) 0.5376(2)
C61 C 0.4509(9) 0.6121(3) 0.5215(3)
C62 C 0.4580(7) 0.6212(3) 0.4605(2)
C63 C 0.2771(4) 0.5112(2) 0.23255(18)
C64 C 0.3371(4) 0.4530(2) 0.27846(18)
C65 C 0.2909(5) 0.3931(2) 0.28988(19)
C66 C 0.1824(5) 0.3892(2) 0.2539(2)
C67 C 0.1207(5) 0.4459(2) 0.2073(2)
C68 C 0.1685(5) 0.5051(2) 0.19748(19)
C69 C 0.5813(4) 0.8332(2) 0.14125(19)
C70 C 0.6123(5) 0.8867(2) 0.0845(2)
H24 H 0.6482 0.9265 0.0794
C71 C 0.8467(11) 0.0629(4) 0.0452(5)
H25 H 0.8183 0.0271 0.0851
H26 H 0.9203 0.0455 0.0204
H27 H 0.7533 0.0839 0.0226
C72 C 0.9231(8) 0.1141(4) 0.0573(4)
H28 H 0.8494 0.1306 0.0835
H29 H 1.0166 0.0925 0.0807
C73 C 0.9693(7) 0.1719(3) -0.0027(3)
H30 H 1.0387 0.1546 -0.0294
H31 H 0.8745 0.1937 -0.0251
C74 C 1.0501(6) 0.2227(4) 0.0049(3)
H32 H 0.9865 0.2365 0.0352
H33 H 1.1512 0.2023 0.0225
C75 C 1.0779(8) 0.2822(4) -0.0540(4)
H34 H 1.1306 0.3125 -0.0452
H35 H 0.9782 0.3037 -0.0713
H36 H 1.1430 0.2693 -0.0841
C76 C 0.316(3) 0.2131(11) 0.4858(10)
H37 H 0.2649 0.1785 0.4831
H38 H 0.4180 0.1953 0.5023
H39 H 0.3286 0.2488 0.4443
C77 C 0.210(3) 0.2408(8) 0.5316(10)
H40 H 0.1017 0.2316 0.5329
H41 H 0.2458 0.2159 0.5742
C78 C 0.211(2) 0.3124(7) 0.5151(7)
H42 H 0.1363 0.3209 0.5461
H43 H 0.3148 0.3172 0.5247
C79 C 0.1799(16) 0.3689(6) 0.4549(5)
H44 H 0.2719 0.3708 0.4256
H45 H 0.1704 0.4093 0.4617
C80 C 0.0214(19) 0.3698(10) 0.4198(8)
H46 H 0.0073 0.4116 0.3833
H47 H -0.0704 0.3647 0.4490
H48 H 0.0354 0.3338 0.4069
F33? F 0.260(3) 0.4606(5) 0.7691(13)
F34? F 0.3145(19) 0.4487(8) 0.6841(12)
F35? F 0.085(3) 0.4704(14) 0.7111(12)
C81? C 0.062(3) 0.4849(11) 0.5203(11)
H49? H 0.0461 0.4644 0.5662
H50? H 0.1678 0.4999 0.5108
C82? C -0.050(3) 0.5484(12) 0.4987(13)
H51? H -0.0265 0.5762 0.5181
H52? H -0.1573 0.5371 0.5110
H53? H -0.0371 0.5720 0.4533
C83? C 0.2861(15) 0.5270(10) -0.0123(10)
H54? H 0.3486 0.5632 -0.0403
H55? H 0.3518 0.4953 0.0209
C84? C 0.1419(14) 0.5543(6) 0.0169(5)
H56? H 0.1233 0.6023 -0.0068
H57? H 0.1572 0.5447 0.0605
C85? C -0.1447(19) 0.5384(10) 0.0476(9)
H58? H -0.2321 0.5169 0.0448
H59? H -0.1691 0.5860 0.0281
H60? H -0.1260 0.5244 0.0914
C86? C 0.0007(17) 0.5196(8) 0.0139(7)
H61? H -0.0190 0.5325 -0.0301
H62? H 0.0256 0.4715 0.0336
C87? C 0.2318(18) 0.4928(9) -0.0493(7)
H63? H 0.3223 0.4771 -0.0694
H64? H 0.1638 0.5240 -0.0811
H65? H 0.1746 0.4557 -0.0209
C88? C 0.0527(13) 0.3056(6) 0.6008(6)
H66? H 0.0449 0.3530 0.5759
H67? H 0.1282 0.2938 0.6322
H68? H -0.0491 0.2923 0.6216
C89? C 0.131(3) 0.1969(10) 0.5951(11)
H69? H 0.0302 0.1783 0.6103
H70? H 0.1907 0.1869 0.6316
C90? C 0.106(4) 0.2703(10) 0.5581(11)
H71? H 0.0266 0.2802 0.5280
H72? H 0.2040 0.2868 0.5342
C91? C 0.223(4) 0.1661(12) 0.5525(13)
H73? H 0.1824 0.1246 0.5594
H74? H 0.3352 0.1574 0.5599
C92? C 0.194(5) 0.2217(18) 0.4830(13)
H75? H 0.2650 0.2113 0.4527
H76? H 0.2134 0.2645 0.4804
H77? H 0.0866 0.2232 0.4739
C93? C -0.034(2) 0.4194(11) 0.4567(9)
C94? C 0.072(3) 0.4272(13) 0.5000(14)
H78? H -0.1239 0.4005 0.4853
H79? H -0.0714 0.4654 0.4309
H80? H 0.1791 0.4247 0.4812
H81? H 0.0660 0.3870 0.5392
C95? C -0.025(2) 0.3878(9) 0.4112(7)
H82? H -0.1254 0.3968 0.3928
H83? H -0.0014 0.3404 0.4334
H84? H 0.0562 0.4059 0.3782
loop_
_geom_bond_atom_site_label_1
_geom_bond_atom_site_label_2
_geom_bond_site_symmetry_1
_geom_bond_site_symmetry_2
O1 C2 1_555 1_555
O2 H1 1_555 1_555
F1 C1 1_555 1_555
F2 C1 1_555 1_555
F3 C1 1_555 1_555
C1 C2 1_555 1_555
C2 O2 1_555 1_555
O3 C4 1_555 1_555
O4 C4 1_555 1_555
F4 C3 1_555 1_555
F5 C3 1_555 1_555
F6 C3 1_555 1_555
C3 C4 1_555 1_555
O5 H2 1_555 1_555
O6 C6 1_555 1_555
F7 C5 1_555 1_555
F8 C5 1_555 1_555
F9 C5 1_555 1_555
C5 C6 1_555 1_555
C6 O5 1_555 1_555
O7 C8 1_555 1_555
O8 C8 1_555 1_555
F10 C7 1_555 1_555
F11 C7 1_555 1_555
F12 C7 1_555 1_555
C7 C8 1_555 1_555
N1 H3 1_555 1_555
N2 H4 1_555 1_555
N3 H5 1_555 1_555
N4 H6 1_555 1_555
N5 H7 1_555 1_555
N6 H8 1_555 1_555
N7 H9 1_555 1_555
N8 H10 1_555 1_555
F13 C46 1_555 1_555
F14 C47 1_555 1_555
F15 C48 1_555 1_555
F16 C49 1_555 1_555
F17 C50 1_555 1_555
F18 C52 1_555 1_555
F19 C53 1_555 1_555
F20 C54 1_555 1_555
F21 C55 1_555 1_555
F22 C56 1_555 1_555
F23 C58 1_555 1_555
F24 C59 1_555 1_555
F25 C60 1_555 1_555
F26 C61 1_555 1_555
F27 C62 1_555 1_555
F28 C64 1_555 1_555
F29 C65 1_555 1_555
F30 C66 1_555 1_555
F31 C67 1_555 1_555
F32 C68 1_555 1_555
C9 N1 1_555 1_555
C10 C9 1_555 1_555
H11 C10 1_555 1_555
C11 C10 1_555 1_555
H12 C11 1_555 1_555
C12 N1 1_555 1_555
C13 C12 1_555 1_555
C14 N2 1_555 1_555
C15 C14 1_555 1_555
H13 C15 1_555 1_555
C16 C15 1_555 1_555
H14 C16 1_555 1_555
C17 N2 1_555 1_555
C18 C17 1_555 1_555
C19 N3 1_555 1_555
C20 C19 1_555 1_555
H15 C20 1_555 1_555
C21 C20 1_555 1_555
H16 C21 1_555 1_555
C22 N3 1_555 1_555
C23 C22 1_555 1_555
C24 N4 1_555 1_555
C25 C24 1_555 1_555
C26 C25 1_555 1_555
H17 C26 1_555 1_555
C27 N4 1_555 1_555
C28 N5 1_555 1_555
C29 C28 1_555 1_555
H18 C29 1_555 1_555
C30 C29 1_555 1_555
H19 C30 1_555 1_555
C31 N5 1_555 1_555
C32 C31 1_555 1_555
C33 N6 1_555 1_555
C34 C33 1_555 1_555
H20 C34 1_555 1_555
C35 C34 1_555 1_555
H21 C35 1_555 1_555
C36 N6 1_555 1_555
C37 C36 1_555 1_555
C38 N7 1_555 1_555
C39 C38 1_555 1_555
H22 C39 1_555 1_555
C40 C39 1_555 1_555
H23 C40 1_555 1_555
C41 N7 1_555 1_555
C42 C23 1_555 1_555
C43 N8 1_555 1_555
C44 C25 1_555 1_555
C45 C13 1_555 1_555
C46 C45 1_555 1_555
C47 C46 1_555 1_555
C48 C47 1_555 1_555
C49 C48 1_555 1_555
C50 C45 1_555 1_555
C51 C18 1_555 1_555
C52 C51 1_555 1_555
C53 C52 1_555 1_555
C54 C53 1_555 1_555
C55 C54 1_555 1_555
C56 C51 1_555 1_555
C57 C32 1_555 1_555
C58 C57 1_555 1_555
C59 C58 1_555 1_555
C60 C59 1_555 1_555
C61 C60 1_555 1_555
C62 C57 1_555 1_555
C63 C37 1_555 1_555
C64 C63 1_555 1_555
C65 C64 1_555 1_555
C66 C65 1_555 1_555
C67 C66 1_555 1_555
C68 C63 1_555 1_555
C69 N8 1_555 1_555
C70 C44 1_555 1_555
H24 C70 1_555 1_555
C71 H25 1_555 1_555
H26 C71 1_555 1_555
H27 C71 1_555 1_555
C72 C71 1_555 1_555
H28 C72 1_555 1_555
H29 C72 1_555 1_555
C73 C72 1_555 1_555
H30 C73 1_555 1_555
H31 C73 1_555 1_555
C74 C73 1_555 1_555
H32 C74 1_555 1_555
H33 C74 1_555 1_555
C75 C74 1_555 1_555
H34 C75 1_555 1_555
H35 C75 1_555 1_555
H36 C75 1_555 1_555
C76 H37 1_555 1_555
H38 C76 1_555 1_555
H39 C76 1_555 1_555
C77 C76 1_555 1_555
H40 C77 1_555 1_555
H41 C77 1_555 1_555
C78 C77 1_555 1_555
H42 C78 1_555 1_555
H43 C78 1_555 1_555
C79 C78 1_555 1_555
H44 C79 1_555 1_555
H45 C79 1_555 1_555
C80 C79 1_555 1_555
H46 C80 1_555 1_555
H47 C80 1_555 1_555
H48 C80 1_555 1_555
C9 C27 1_555 1_555
C11 C12 1_555 1_555
C13 C14 1_555 1_555
C16 C17 1_555 1_555
C18 C19 1_555 1_555
C21 C22 1_555 1_555
C23 C24 1_555 1_555
C26 C27 1_555 1_555
C28 C69 1_555 1_555
C30 C31 1_555 1_555
C32 C33 1_555 1_555
C35 C36 1_555 1_555
C37 C38 1_555 1_555
C40 C41 1_555 1_555
C41 C42 1_555 1_555
C42 C43 1_555 1_555
C43 C44 1_555 1_555
C49 C50 1_555 1_555
C55 C56 1_555 1_555
C61 C62 1_555 1_555
C67 C68 1_555 1_555
C69 C70 1_555 1_555

#END
