
#######################################################################
#
#                 Cambridge Crystallographic Data Centre
#                                CCDC 
#
#######################################################################
#
# If this CIF has been generated from an entry in the Cambridge 
# Structural Database, then it will include bibliographic, chemical, 
# crystal, experimental, refinement or atomic coordinate data resulting 
# from the CCDC's data processing and validation procedures.
#
#######################################################################

data_LOYROI
_chemical_formula_moiety         
'C50 H59 O13 P1,C12 H14 N2 2+,C2 H3 N1,2(H2 O1),2(F6 P1 1-)'
_chemical_name_systematic        
"1,1'-dimethyl-4,4'-bipyridinium 12-phenyl-5,19,26,29,32,35,38,41,44,47,50,53-dodecaoxa-12-phosphahexacyclo[21.17.13.1^3,39^.1^6,10^.1^14,18^.1^21,25^]heptapentaconta-1,3(54),6(57),7,9,14(56),15,17,21(55),22,24,39-dodecaene 12-oxide bis(hexafluorophosphate) acetonitrile solvate dihydrate"
_symmetry_cell_setting           monoclinic
_symmetry_space_group_name_H-M   'P 21'
_symmetry_Int_Tables_number      4
_space_group_name_Hall           'P 2yb'
loop_
_symmetry_equiv_pos_site_id
_symmetry_equiv_pos_as_xyz
1 x,y,z
2 -x,1/2+y,-z
_cell_length_a                   11.316(2)
_cell_length_b                   24.717(2)
_cell_length_c                   14.0638(11)
_cell_angle_alpha                90
_cell_angle_beta                 100.065(3)
_cell_angle_gamma                90
_cell_volume                     3873.07
_exptl_crystal_colour            yellow
_exptl_crystal_description       block
_cell_formula_units_Z            2
loop_
_atom_site_label
_atom_site_type_symbol
_atom_site_fract_x
_atom_site_fract_y
_atom_site_fract_z
C1 C 0.2557(3) 0.50428(15) 0.3001(3)
C2 C 0.2609(3) 0.44939(14) 0.3235(3)
H1 H 0.2598 0.4232 0.2739
C3 C 0.2675(3) 0.43297(14) 0.4177(3)
C4 C 0.2707(3) 0.47091(15) 0.4909(3)
H2 H 0.2751 0.4597 0.5561
C5 C 0.2671(3) 0.52631(14) 0.4667(3)
C6 C 0.2614(3) 0.54263(14) 0.3732(2)
H3 H 0.2612 0.5801 0.3581
C7 C 0.2442(3) 0.48351(16) 0.1342(3)
H4 H 0.1729 0.4597 0.1287
H5 H 0.3172 0.4610 0.1503
C8 C 0.2443(3) 0.51453(15) 0.0375(3)
H6 H 0.2378 0.4890 -0.0174
H7 H 0.1767 0.5404 0.0249
C9 C 0.3701(3) 0.57189(15) -0.0342(3)
H8 H 0.3005 0.5963 -0.0526
H9 H 0.3723 0.5463 -0.0880
C10 C 0.4828(3) 0.60394(15) -0.0155(2)
H10 H 0.4865 0.6271 -0.0724
H11 H 0.4804 0.6281 0.0403
C11 C 0.6780(3) 0.61307(16) 0.0161(2)
H12 H 0.6701 0.6377 0.0701
H13 H 0.6756 0.6350 -0.0431
C12 C 0.7989(3) 0.58160(15) 0.0391(2)
H14 H 0.8085 0.5589 -0.0170
H15 H 0.8663 0.6077 0.0506
C13 C 0.9242(3) 0.51303(16) 0.1569(3)
H16 H 0.9281 0.4838 0.1095
H17 H 0.9936 0.5374 0.1566
C14 C 0.9299(3) 0.48950(15) 0.2544(2)
H18 H 0.8587 0.4665 0.2557
H19 H 1.0025 0.4667 0.2707
C15 C 0.9368(3) 0.51423(14) 0.4126(3)
C16 C 0.9426(3) 0.46030(15) 0.4415(3)
H20 H 0.9415 0.4327 0.3944
C17 C 0.9498(3) 0.44638(14) 0.5363(2)
C18 C 0.9488(3) 0.48746(15) 0.6062(3)
H21 H 0.9503 0.4780 0.6719
C19 C 0.9458(3) 0.54131(14) 0.5793(2)
C20 C 0.9392(3) 0.55492(14) 0.4818(3)
H22 H 0.9363 0.5918 0.4628
C21 C 0.9489(3) 0.57099(14) 0.7448(2)
H23 H 1.0248 0.5538 0.7763
H24 H 0.8817 0.5464 0.7510
C22 C 0.9318(3) 0.62644(15) 0.7942(3)
H25 H 0.9393 0.6219 0.8649
H26 H 0.9927 0.6529 0.7811
C23 C 0.8029(3) 0.70058(15) 0.7858(3)
H27 H 0.8703 0.7235 0.7735
H28 H 0.8001 0.7019 0.8557
C24 C 0.6862(3) 0.72142(15) 0.7286(3)
H29 H 0.6812 0.7607 0.7409
H30 H 0.6886 0.7168 0.6591
C25 C 0.4901(3) 0.71957(15) 0.6964(3)
H31 H 0.4953 0.7153 0.6272
H32 H 0.4913 0.7588 0.7107
C26 C 0.3733(3) 0.69666(16) 0.7131(3)
H33 H 0.3058 0.7177 0.6768
H34 H 0.3685 0.6982 0.7826
C27 C 0.2631(3) 0.61161(15) 0.6792(2)
H35 H 0.1973 0.6343 0.6445
H36 H 0.2514 0.6087 0.7472
C28 C 0.2533(3) 0.55625(15) 0.6354(2)
H37 H 0.1757 0.5388 0.6399
H38 H 0.3202 0.5325 0.6648
C29 C 0.2783(3) 0.37800(16) 0.4664(3)
H39 H 0.3243 0.3534 0.4309
H40 H 0.3233 0.3818 0.5331
C30 C 0.1829(3) 0.30333(14) 0.5012(2)
C31 C 0.1244(3) 0.26363(15) 0.4388(3)
H41 H 0.0807 0.2730 0.3771
C32 C 0.1320(3) 0.21080(14) 0.4695(2)
H42 H 0.0936 0.1834 0.4278
C33 C 0.1939(3) 0.19655(15) 0.5592(2)
H43 H 0.1980 0.1597 0.5789
C34 C 0.2506(3) 0.23655(13) 0.6211(2)
C35 C 0.2450(3) 0.29095(14) 0.5903(3)
H44 H 0.2840 0.3185 0.6312
C36 C 0.3290(3) 0.22084(15) 0.7119(3)
H45 H 0.2931 0.1900 0.7416
H46 H 0.3375 0.2515 0.7579
C37 C 0.5100(3) 0.25269(15) 0.5932(3)
H47 H 0.4647 0.2417 0.5294
H48 H 0.4769 0.2878 0.6100
C38 C 0.6371(3) 0.26104(15) 0.5838(2)
C39 C 0.7075(3) 0.21822(14) 0.5688(2)
H49 H 0.6791 0.1823 0.5729
C40 C 0.8211(3) 0.22754(15) 0.5474(3)
H50 H 0.8655 0.1984 0.5273
C41 C 0.8702(3) 0.27906(14) 0.5551(3)
H51 H 0.9482 0.2851 0.5411
C42 C 0.8043(3) 0.32200(15) 0.5836(3)
C43 C 0.6914(3) 0.31308(15) 0.6070(2)
H52 H 0.6517 0.3403 0.6372
C44 C 0.9497(3) 0.38811(14) 0.5528(3)
H53 H 1.0224 0.3777 0.5990
H54 H 0.9505 0.3687 0.4913
C45 C 0.5941(3) 0.20322(14) 0.7969(2)
C46 C 0.6707(3) 0.16132(14) 0.8171(2)
H55 H 0.6646 0.1313 0.7743
C47 C 0.7587(3) 0.16147(15) 0.8997(2)
H56 H 0.8126 0.1319 0.9135
C48 C 0.7661(3) 0.20519(15) 0.9611(2)
H57 H 0.8254 0.2058 1.0180
C49 C 0.6871(3) 0.24862(16) 0.9404(3)
H58 H 0.6929 0.2788 0.9828
C50 C 0.6014(3) 0.24770(16) 0.8588(3)
H59 H 0.5471 0.2771 0.8443
O1 O 0.2414(2) 0.52353(10) 0.20646(16)
O2 O 0.3584(2) 0.54275(10) 0.05149(16)
O3 O 0.58117(19) 0.57456(10) 0.00244(16)
O4 O 0.8029(2) 0.54593(10) 0.12757(16)
O5 O 0.9336(2) 0.53242(9) 0.32379(16)
O6 O 0.9520(2) 0.58050(10) 0.64820(17)
O7 O 0.8219(2) 0.64314(10) 0.75585(17)
O8 O 0.58331(19) 0.69740(10) 0.74777(16)
O9 O 0.3664(2) 0.63650(11) 0.67756(17)
O10 O 0.2619(2) 0.57161(10) 0.53064(17)
O11 O 0.17051(19) 0.35632(10) 0.46917(17)
O12 O 0.8414(2) 0.37311(10) 0.59191(19)
O13 O 0.4798(2) 0.14864(10) 0.64115(17)
P1 P 0.48182(7) 0.20099(4) 0.68523(6)
C51 C 0.5965(3) 0.44614(15) 0.0968(2)
H60 H 0.5520 0.4752 0.0587
H61 H 0.5606 0.4111 0.0755
H62 H 0.6804 0.4468 0.0876
C52 C 0.6706(4) 0.42709(17) 0.2720(3)
H63 H 0.7188 0.3975 0.2587
C53 C 0.6751(4) 0.44630(17) 0.3694(3)
H64 H 0.7265 0.4302 0.4224
C54 C 0.6017(3) 0.48894(13) 0.3820(2)
C55 C 0.5299(4) 0.51289(18) 0.3057(3)
H65 H 0.4806 0.5428 0.3155
C56 C 0.5300(4) 0.49325(18) 0.2154(3)
H66 H 0.4797 0.5107 0.1631
C57 C 0.6099(3) 0.55326(14) 0.7786(2)
H67 H 0.6356 0.5219 0.8196
H68 H 0.5309 0.5653 0.7896
H69 H 0.6682 0.5826 0.7946
C58 C 0.5979(3) 0.57461(16) 0.6020(3)
H70 H 0.6001 0.6122 0.6165
C59 C 0.5906(3) 0.55863(15) 0.5108(3)
H71 H 0.5801 0.5856 0.4619
C60 C 0.5972(3) 0.50587(13) 0.4828(2)
C61 C 0.6154(3) 0.46768(15) 0.5564(2)
H72 H 0.6223 0.4303 0.5429
C62 C 0.6231(3) 0.48596(15) 0.6491(3)
H73 H 0.6445 0.4604 0.6996
N1 N 0.5915(2) 0.45386(12) 0.1958(2)
N2 N 0.6025(2) 0.53794(12) 0.6753(2)
C63 C 0.0616(4) 0.21097(19) 0.8305(3)
H74 H 0.0301 0.1919 0.8819
H75 H 0.1486 0.2154 0.8491
H76 H 0.0439 0.1900 0.7706
C64 C 0.0068(4) 0.26255(18) 0.8158(3)
N3 N -0.0390(3) 0.30630(14) 0.8017(2)
F1 F 0.9143(2) 0.30444(10) 0.08068(17)
F2 F 0.7312(2) 0.30998(10) 0.16488(18)
F3 F 0.8571(2) 0.34183(10) 0.30416(17)
F4 F 1.03566(19) 0.33783(10) 0.23310(17)
F5 F 0.8392(2) 0.38669(9) 0.14709(18)
F6 F 0.9118(2) 0.25672(10) 0.23245(17)
P2 P 0.88430(8) 0.32293(4) 0.19189(7)
F7 F 0.2669(2) 0.35589(11) 0.79683(17)
F8 F 0.4744(2) 0.35569(11) 0.85316(19)
F9 F 0.4820(2) 0.45631(10) 0.82460(18)
F10 F 0.2742(2) 0.45843(11) 0.76698(19)
F11 F 0.3485(2) 0.41016(10) 0.92924(16)
F12 F 0.4103(2) 0.39877(11) 0.69537(16)
P3 P 0.37277(8) 0.40706(4) 0.80970(7)
O14 O 0.7730(4) 0.8209(2) 0.9467(4)
H77 H 0.7407 0.8180 0.9967
H78 H 0.8469 0.8126 0.9610
O15 O 0.0072(6) 0.4151(3) 0.9150(5)
H79 H -0.0100 0.4100 0.9708
H80 H -0.0565 0.4226 0.8754
O16 O 0.6159(5) 0.8518(2) 0.8558(5)
H81 H 0.6386 0.8645 0.9122
H82 H 0.6771 0.8447 0.8305
O17 O 0.5573(6) 0.7876(3) 0.9383(4)
H83 H 0.4812 0.7884 0.9317
H84 H 0.5790 0.7577 0.9167
O18 O 0.2333(5) 0.8922(3) 0.1273(4)
H85 H 0.1805 0.8695 0.1025
H86 H 0.2033 0.9238 0.1225
loop_
_geom_bond_atom_site_label_1
_geom_bond_atom_site_label_2
_geom_bond_site_symmetry_1
_geom_bond_site_symmetry_2
C1 C2 1_555 1_555
C2 H1 1_555 1_555
C3 C2 1_555 1_555
C4 C3 1_555 1_555
H2 C4 1_555 1_555
C5 C4 1_555 1_555
C6 C1 1_555 1_555
H3 C6 1_555 1_555
C7 H4 1_555 1_555
H5 C7 1_555 1_555
C8 C7 1_555 1_555
H6 C8 1_555 1_555
H7 C8 1_555 1_555
C9 H8 1_555 1_555
H9 C9 1_555 1_555
C10 C9 1_555 1_555
H10 C10 1_555 1_555
H11 C10 1_555 1_555
C11 H12 1_555 1_555
H13 C11 1_555 1_555
C12 C11 1_555 1_555
H14 C12 1_555 1_555
H15 C12 1_555 1_555
C13 H16 1_555 1_555
H17 C13 1_555 1_555
C14 C13 1_555 1_555
H18 C14 1_555 1_555
H19 C14 1_555 1_555
C15 C16 1_555 1_555
C16 H20 1_555 1_555
C17 C16 1_555 1_555
C18 C17 1_555 1_555
H21 C18 1_555 1_555
C19 C18 1_555 1_555
C20 C15 1_555 1_555
H22 C20 1_555 1_555
C21 H23 1_555 1_555
H24 C21 1_555 1_555
C22 C21 1_555 1_555
H25 C22 1_555 1_555
H26 C22 1_555 1_555
C23 H27 1_555 1_555
H28 C23 1_555 1_555
C24 C23 1_555 1_555
H29 C24 1_555 1_555
H30 C24 1_555 1_555
C25 H31 1_555 1_555
H32 C25 1_555 1_555
C26 C25 1_555 1_555
H33 C26 1_555 1_555
H34 C26 1_555 1_555
C27 H35 1_555 1_555
H36 C27 1_555 1_555
C28 C27 1_555 1_555
H37 C28 1_555 1_555
H38 C28 1_555 1_555
C29 C3 1_555 1_555
H39 C29 1_555 1_555
H40 C29 1_555 1_555
C30 C31 1_555 1_555
C31 H41 1_555 1_555
C32 C31 1_555 1_555
H42 C32 1_555 1_555
C33 C32 1_555 1_555
H43 C33 1_555 1_555
C34 C33 1_555 1_555
C35 C30 1_555 1_555
H44 C35 1_555 1_555
C36 C34 1_555 1_555
H45 C36 1_555 1_555
H46 C36 1_555 1_555
C37 H47 1_555 1_555
H48 C37 1_555 1_555
C38 C37 1_555 1_555
C39 C38 1_555 1_555
H49 C39 1_555 1_555
C40 C39 1_555 1_555
H50 C40 1_555 1_555
C41 C40 1_555 1_555
H51 C41 1_555 1_555
C42 C41 1_555 1_555
C43 C38 1_555 1_555
H52 C43 1_555 1_555
C44 C17 1_555 1_555
H53 C44 1_555 1_555
H54 C44 1_555 1_555
C45 C46 1_555 1_555
C46 H55 1_555 1_555
C47 C46 1_555 1_555
H56 C47 1_555 1_555
C48 C47 1_555 1_555
H57 C48 1_555 1_555
C49 C48 1_555 1_555
H58 C49 1_555 1_555
C50 C45 1_555 1_555
H59 C50 1_555 1_555
O1 C1 1_555 1_555
O2 C8 1_555 1_555
O3 C10 1_555 1_555
O4 C12 1_555 1_555
O5 C14 1_555 1_555
O6 C19 1_555 1_555
O7 C22 1_555 1_555
O8 C24 1_555 1_555
O9 C26 1_555 1_555
O10 C5 1_555 1_555
O11 C29 1_555 1_555
O12 C42 1_555 1_555
O13 P1 1_555 1_555
P1 C36 1_555 1_555
C51 H60 1_555 1_555
H61 C51 1_555 1_555
H62 C51 1_555 1_555
C52 H63 1_555 1_555
C53 C52 1_555 1_555
H64 C53 1_555 1_555
C54 C53 1_555 1_555
C55 C54 1_555 1_555
H65 C55 1_555 1_555
C56 C55 1_555 1_555
H66 C56 1_555 1_555
C57 H67 1_555 1_555
H68 C57 1_555 1_555
H69 C57 1_555 1_555
C58 H70 1_555 1_555
C59 C58 1_555 1_555
H71 C59 1_555 1_555
C60 C54 1_555 1_555
C61 C60 1_555 1_555
H72 C61 1_555 1_555
C62 C61 1_555 1_555
H73 C62 1_555 1_555
N1 C51 1_555 1_555
N2 C57 1_555 1_555
C63 H74 1_555 1_555
H75 C63 1_555 1_555
H76 C63 1_555 1_555
C64 C63 1_555 1_555
N3 C64 1_555 1_555
F1 P2 1_555 1_555
F2 P2 1_555 1_555
F3 P2 1_555 1_555
F4 P2 1_555 1_555
F5 P2 1_555 1_555
F6 P2 1_555 1_555
F7 P3 1_555 1_555
F8 P3 1_555 1_555
F9 P3 1_555 1_555
F10 P3 1_555 1_555
F11 P3 1_555 1_555
F12 P3 1_555 1_555
O14 H77 1_555 1_555
H78 O14 1_555 1_555
O15 H79 1_555 1_555
H80 O15 1_555 1_555
O16 H81 1_555 1_555
H82 O16 1_555 1_555
O17 H83 1_555 1_555
H84 O17 1_555 1_555
O18 H85 1_555 1_555
H86 O18 1_555 1_555
C5 C6 1_555 1_555
C7 O1 1_555 1_555
C9 O2 1_555 1_555
C11 O3 1_555 1_555
C13 O4 1_555 1_555
C15 O5 1_555 1_555
C19 C20 1_555 1_555
C21 O6 1_555 1_555
C23 O7 1_555 1_555
C25 O8 1_555 1_555
C27 O9 1_555 1_555
C28 O10 1_555 1_555
C30 O11 1_555 1_555
C34 C35 1_555 1_555
C37 P1 1_555 1_555
C42 C43 1_555 1_555
C44 O12 1_555 1_555
C45 P1 1_555 1_555
C49 C50 1_555 1_555
C52 N1 1_555 1_555
C56 N1 1_555 1_555
C58 N2 1_555 1_555
C59 C60 1_555 1_555
C62 N2 1_555 1_555

#END
