
#######################################################################
#
#                 Cambridge Crystallographic Data Centre
#                                CCDC 
#
#######################################################################
#
# If this CIF has been generated from an entry in the Cambridge 
# Structural Database, then it will include bibliographic, chemical, 
# crystal, experimental, refinement or atomic coordinate data resulting 
# from the CCDC's data processing and validation procedures.
#
#######################################################################

data_LOZGUC
_chemical_compound_source        
'aerial parts of Artemisia argyi Levl. et Vant.'
_chemical_formula_moiety         'C25 H32 O4'
_chemical_name_systematic        Artemisolide
_symmetry_cell_setting           monoclinic
_symmetry_space_group_name_H-M   'P 21'
_symmetry_Int_Tables_number      4
_space_group_name_Hall           'P 2yb'
loop_
_symmetry_equiv_pos_site_id
_symmetry_equiv_pos_as_xyz
1 x,y,z
2 -x,1/2+y,-z
_cell_length_a                   6.3991(13)
_cell_length_b                   14.028(3)
_cell_length_c                   11.857(2)
_cell_angle_alpha                90
_cell_angle_beta                 91.98(3)
_cell_angle_gamma                90
_cell_volume                     1063.73
_exptl_crystal_colour            colorless
_exptl_crystal_description       block
_chemical_melting_point          '200-201 deg.C'
_cell_formula_units_Z            2
_exptl_crystal_recrystallization_method acetone/hexane
loop_
_atom_site_label
_atom_site_type_symbol
_atom_site_fract_x
_atom_site_fract_y
_atom_site_fract_z
O1 O -0.0313(3) 0.92039(15) -0.06124(16)
O2 O -0.2875(4) 0.94566(19) -0.1893(2)
O3 O 0.2497(3) 0.62274(15) 0.04004(19)
H1 H 0.2694 0.5796 0.0859
O4 O -0.1017(3) 0.77810(17) 0.29001(19)
C1 C 0.1508(4) 0.8569(2) -0.0449(2)
H2 H 0.2773 0.8884 -0.0705
C2 C 0.1760(4) 0.83178(19) 0.0786(2)
H3 H 0.0537 0.7960 0.1024
C3 C 0.3797(4) 0.7750(2) 0.1097(2)
C4 C 0.4293(4) 0.6847(2) 0.0414(3)
C5 C 0.4761(5) 0.7092(2) -0.0806(3)
H4 H 0.5668 0.6599 -0.1089
H5 H 0.5547 0.7683 -0.0802
C6 C 0.2898(5) 0.7203(2) -0.1650(3)
H6 H 0.3360 0.7558 -0.2297
H7 H 0.2481 0.6574 -0.1913
C7 C 0.0993(4) 0.7699(2) -0.1194(2)
H8 H 0.0262 0.7236 -0.0730
C8 C -0.0569(5) 0.8092(2) -0.2043(2)
C9 C -0.1418(5) 0.8974(2) -0.1561(3)
C10 C 0.2251(4) 0.9133(2) 0.1630(2)
C11 C 0.2417(4) 0.8524(2) 0.2767(2)
C12 C 0.3445(4) 0.7589(2) 0.2370(2)
H9 H 0.2532 0.7049 0.2483
H10 H 0.4763 0.7479 0.2778
C13 C 0.0217(4) 0.8370(2) 0.3230(2)
C14 C -0.0143(5) 0.9054(3) 0.4179(3)
H11 H -0.0825 0.8733 0.4790
H12 H -0.1021 0.9579 0.3918
C15 C 0.1988(5) 0.9417(2) 0.4574(3)
C16 C 0.3523(4) 0.9055(2) 0.3726(2)
H13 H 0.4708 0.9464 0.3547
C17 C 0.5387(4) 0.8546(2) 0.1053(2)
H14 H 0.6765 0.8481 0.0839
C18 C 0.4506(4) 0.9339(2) 0.1366(2)
H15 H 0.5155 0.9932 0.1418
C19 C 0.3478(5) 0.8628(3) 0.4887(3)
H16 H 0.2909 0.7991 0.4957
H17 H 0.4630 0.8775 0.5411
C20 C -0.1204(6) 0.7770(3) -0.3032(3)
H18 H -0.2221 0.8100 -0.3453
H19 H -0.0638 0.7212 -0.3314
C21 C 0.6172(5) 0.6330(2) 0.0969(3)
H20 H 0.5873 0.6177 0.1736
H21 H 0.7380 0.6736 0.0957
H22 H 0.6440 0.5754 0.0562
C22 C 0.0803(4) 0.9992(2) 0.1663(3)
H23 H -0.0580 0.9785 0.1836
H24 H 0.0767 1.0303 0.0942
H25 H 0.1309 1.0429 0.2233
C23 C 0.2091(6) 1.0387(3) 0.5136(3)
H26 H 0.1244 1.0825 0.4666
C24 C 0.1093(8) 1.0334(4) 0.6288(4)
H27 H -0.0286 1.0069 0.6200
H28 H 0.1008 1.0962 0.6603
H29 H 0.1931 0.9936 0.6783
C25 C 0.4269(9) 1.0803(4) 0.5246(5)
H30 H 0.4211 1.1414 0.5608
H31 H 0.4828 1.0875 0.4510
H32 H 0.5150 1.0383 0.5691
loop_
_geom_bond_atom_site_label_1
_geom_bond_atom_site_label_2
_geom_bond_site_symmetry_1
_geom_bond_site_symmetry_2
O1 C1 1_555 1_555
O2 C9 1_555 1_555
O3 H1 1_555 1_555
O4 C13 1_555 1_555
C1 H2 1_555 1_555
C2 C1 1_555 1_555
H3 C2 1_555 1_555
C3 C2 1_555 1_555
C4 O3 1_555 1_555
C5 C4 1_555 1_555
H4 C5 1_555 1_555
H5 C5 1_555 1_555
C6 C5 1_555 1_555
H6 C6 1_555 1_555
H7 C6 1_555 1_555
C7 C1 1_555 1_555
H8 C7 1_555 1_555
C8 C7 1_555 1_555
C9 O1 1_555 1_555
C10 C2 1_555 1_555
C11 C10 1_555 1_555
C12 C3 1_555 1_555
H9 C12 1_555 1_555
H10 C12 1_555 1_555
C13 C11 1_555 1_555
C14 C13 1_555 1_555
H11 C14 1_555 1_555
H12 C14 1_555 1_555
C15 C14 1_555 1_555
C16 C11 1_555 1_555
H13 C16 1_555 1_555
C17 C3 1_555 1_555
H14 C17 1_555 1_555
C18 C10 1_555 1_555
H15 C18 1_555 1_555
C19 C15 1_555 1_555
H16 C19 1_555 1_555
H17 C19 1_555 1_555
C20 C8 1_555 1_555
H18 C20 1_555 1_555
H19 C20 1_555 1_555
C21 C4 1_555 1_555
H20 C21 1_555 1_555
H21 C21 1_555 1_555
H22 C21 1_555 1_555
C22 C10 1_555 1_555
H23 C22 1_555 1_555
H24 C22 1_555 1_555
H25 C22 1_555 1_555
C23 C15 1_555 1_555
H26 C23 1_555 1_555
C24 C23 1_555 1_555
H27 C24 1_555 1_555
H28 C24 1_555 1_555
H29 C24 1_555 1_555
C25 C23 1_555 1_555
H30 C25 1_555 1_555
H31 C25 1_555 1_555
H32 C25 1_555 1_555
C3 C4 1_555 1_555
C6 C7 1_555 1_555
C8 C9 1_555 1_555
C11 C12 1_555 1_555
C15 C16 1_555 1_555
C16 C19 1_555 1_555
C17 C18 1_555 1_555

#END
