
#######################################################################
#
#                 Cambridge Crystallographic Data Centre
#                                CCDC 
#
#######################################################################
#
# If this CIF has been generated from an entry in the Cambridge 
# Structural Database, then it will include bibliographic, chemical, 
# crystal, experimental, refinement or atomic coordinate data resulting 
# from the CCDC's data processing and validation procedures.
#
#######################################################################

data_LUCDUK
_chemical_formula_moiety         
'C45 H64 Ca2 Cl1 N20 O12 3+,6.5(H2 O1),3(Cl1 1-)'
_chemical_name_systematic        
'(\m-chloro)-(\m-cucurbit[5]dimethylpropanediuril)-diaqua-di-calcium trichloride unknown solvate hydrate'
_symmetry_cell_setting           monoclinic
_symmetry_space_group_name_H-M   'P 21/c'
_symmetry_Int_Tables_number      14
_space_group_name_Hall           '-P 2ybc'
loop_
_symmetry_equiv_pos_site_id
_symmetry_equiv_pos_as_xyz
1 x,y,z
2 -x,1/2+y,1/2-z
3 -x,-y,-z
4 x,1/2-y,1/2+z
_cell_length_a                   29.068(4)
_cell_length_b                   15.5743(19)
_cell_length_c                   28.894(4)
_cell_angle_alpha                90
_cell_angle_beta                 109.519(2)
_cell_angle_gamma                90
_cell_volume                     12329
_exptl_crystal_colour            colorless
_exptl_crystal_description       block
_cell_formula_units_Z            8
loop_
_atom_site_label
_atom_site_type_symbol
_atom_site_fract_x
_atom_site_fract_y
_atom_site_fract_z
Ca1 Ca 0.41743(2) 0.62200(4) 0.72826(2)
Ca2 Ca 0.34960(2) 0.65253(4) 0.52515(2)
Cl1 Cl 0.38472(3) 0.63977(5) 0.62663(3)
O1 O 0.33275(7) 0.61270(13) 0.72648(7)
O2 O 0.26633(8) 0.64599(14) 0.52689(7)
O3 O 0.39276(7) 0.47418(13) 0.71459(7)
O4 O 0.32732(7) 0.50165(13) 0.51920(7)
O5 O 0.48685(7) 0.53393(14) 0.72262(7)
O6 O 0.42103(7) 0.56916(14) 0.52603(7)
O7 O 0.48420(8) 0.71938(14) 0.73270(7)
O8 O 0.41869(8) 0.75222(14) 0.53276(7)
O9 O 0.38813(7) 0.76666(14) 0.73425(7)
O10 O 0.32269(8) 0.79879(14) 0.53534(7)
O11 O 0.44707(9) 0.60843(17) 0.81253(8)
O12 O 0.32442(10) 0.63291(17) 0.44043(8)
N1 N 0.27034(9) 0.69112(16) 0.67520(9)
N2 N 0.27299(9) 0.54257(16) 0.66695(9)
N3 N 0.24447(9) 0.55676(16) 0.57843(9)
N4 N 0.24135(9) 0.70504(16) 0.58647(9)
N5 N 0.32371(9) 0.42118(16) 0.65845(9)
N6 N 0.40058(9) 0.38223(16) 0.65678(9)
N7 N 0.37130(9) 0.39497(16) 0.56845(9)
N8 N 0.29407(9) 0.43302(16) 0.56998(9)
N9 N 0.48185(9) 0.43664(16) 0.66245(9)
N10 N 0.52710(9) 0.56350(16) 0.66906(9)
N11 N 0.49847(9) 0.57741(16) 0.58018(9)
N12 N 0.45195(9) 0.45288(16) 0.57402(9)
N13 N 0.52407(9) 0.71972(16) 0.67720(9)
N14 N 0.47548(9) 0.83619(16) 0.68321(9)
N15 N 0.44624(9) 0.84965(16) 0.59488(9)
N16 N 0.49477(9) 0.73399(16) 0.58865(9)
N17 N 0.39407(9) 0.87647(16) 0.68484(9)
N18 N 0.31786(9) 0.82403(16) 0.68208(9)
N19 N 0.28919(9) 0.83696(16) 0.59327(9)
N20 N 0.36523(9) 0.88948(16) 0.59630(9)
C1 C 0.29466(10) 0.61579(19) 0.69091(10)
C2 C 0.23055(10) 0.5439(2) 0.62236(10)
H1 H 0.2131 0.4878 0.6193
C3 C 0.25213(10) 0.63620(19) 0.56264(10)
C4 C 0.22772(10) 0.6960(2) 0.63065(11)
H2 H 0.2080 0.7473 0.6332
C5 C 0.19600(10) 0.6159(2) 0.62575(11)
C6 C 0.18097(12) 0.6047(2) 0.67164(12)
H3 H 0.2097 0.5892 0.6997
H4 H 0.1564 0.5591 0.6658
H5 H 0.1672 0.6586 0.6786
C7 C 0.15048(11) 0.6206(2) 0.58019(12)
H6 H 0.1312 0.6712 0.5824
H7 H 0.1309 0.5687 0.5781
H8 H 0.1601 0.6251 0.5509
C8 C 0.29428(11) 0.45947(19) 0.68516(11)
H9 H 0.2676 0.4193 0.6840
H10 H 0.3149 0.4660 0.7200
C9 C 0.24886(10) 0.48193(19) 0.55002(10)
H11 H 0.2459 0.5011 0.5165
H12 H 0.2211 0.4431 0.5471
C10 C 0.37326(10) 0.42933(18) 0.67789(10)
C11 C 0.37856(11) 0.33658(18) 0.61024(11)
H13 H 0.4009 0.2891 0.6080
C12 C 0.33110(10) 0.44703(18) 0.55161(10)
C13 C 0.29963(11) 0.37674(19) 0.61194(10)
H14 H 0.2666 0.3574 0.6112
C14 C 0.32978(11) 0.29786(19) 0.60860(11)
C15 C 0.33658(12) 0.2374(2) 0.65242(12)
H15 H 0.3602 0.1925 0.6524
H16 H 0.3052 0.2110 0.6498
H17 H 0.3487 0.2703 0.6831
C16 C 0.30622(12) 0.2482(2) 0.56061(12)
H18 H 0.3013 0.2869 0.5326
H19 H 0.2747 0.2251 0.5600
H20 H 0.3277 0.2009 0.5585
C17 C 0.45321(10) 0.37851(19) 0.68118(10)
H21 H 0.4603 0.3909 0.7165
H22 H 0.4642 0.3191 0.6786
C18 C 0.40946(10) 0.40147(19) 0.54652(10)
H23 H 0.3951 0.4265 0.5133
H24 H 0.4207 0.3428 0.5426
C19 C 0.49728(10) 0.51302(19) 0.68615(10)
C20 C 0.53679(10) 0.5432(2) 0.62354(10)
H25 H 0.5687 0.5695 0.6253
C21 C 0.45470(10) 0.5352(2) 0.55901(10)
C22 C 0.48996(10) 0.41447(19) 0.61651(10)
H26 H 0.4886 0.3506 0.6127
C23 C 0.54033(11) 0.4457(2) 0.61843(11)
C24 C 0.58062(12) 0.4084(2) 0.66281(12)
H27 H 0.5756 0.4274 0.6931
H28 H 0.6125 0.4285 0.6626
H29 H 0.5795 0.3456 0.6611
C25 C 0.55070(12) 0.4219(2) 0.57135(12)
H30 H 0.5552 0.3597 0.5703
H31 H 0.5804 0.4513 0.5709
H32 H 0.5231 0.4396 0.5427
C26 C 0.54863(10) 0.63971(19) 0.69672(11)
H33 H 0.5830 0.6438 0.6980
H34 H 0.5488 0.6328 0.7308
C27 C 0.50459(11) 0.66134(19) 0.56134(11)
H35 H 0.4826 0.6654 0.5268
H36 H 0.5385 0.6662 0.5612
C28 C 0.49346(10) 0.75565(19) 0.69920(10)
C29 C 0.48327(10) 0.87763(19) 0.64088(10)
H37 H 0.4807 0.9412 0.6441
C30 C 0.45158(10) 0.77660(19) 0.57100(10)
C31 C 0.53262(10) 0.75885(19) 0.63462(11)
H38 H 0.5649 0.7388 0.6336
C32 C 0.53414(11) 0.8560(2) 0.63996(11)
C33 C 0.57435(12) 0.8827(2) 0.68737(12)
H39 H 0.5671 0.8594 0.7157
H40 H 0.5759 0.9455 0.6896
H41 H 0.6058 0.8603 0.6872
C34 C 0.54350(12) 0.8999(2) 0.59673(12)
H42 H 0.5750 0.8810 0.5950
H43 H 0.5439 0.9623 0.6013
H44 H 0.5175 0.8846 0.5662
C35 C 0.44658(10) 0.88021(19) 0.70845(10)
H45 H 0.4547 0.8554 0.7418
H46 H 0.4565 0.9413 0.7123
C36 C 0.40251(11) 0.90195(19) 0.57400(10)
H47 H 0.4122 0.9632 0.5772
H48 H 0.3883 0.8890 0.5385
C37 C 0.36777(10) 0.81834(19) 0.70155(10)
C38 C 0.29346(11) 0.87956(18) 0.63978(10)
H49 H 0.2599 0.8931 0.6400
C39 C 0.32582(10) 0.83881(18) 0.57340(10)
C40 C 0.37128(11) 0.93303(19) 0.64315(10)
H50 H 0.3927 0.9843 0.6458
C41 C 0.32162(11) 0.96340(19) 0.64398(11)
C42 C 0.32647(12) 1.0107(2) 0.69206(12)
H51 H 0.2944 1.0319 0.6909
H52 H 0.3490 1.0592 0.6961
H53 H 0.3392 0.9711 0.7198
C43 C 0.29812(12) 1.0232(2) 0.60011(12)
H54 H 0.2870 0.9893 0.5698
H55 H 0.3222 1.0657 0.5979
H56 H 0.2702 1.0528 0.6047
C44 C 0.28879(11) 0.77007(19) 0.70257(10)
H57 H 0.2607 0.8040 0.7044
H58 H 0.3088 0.7544 0.7365
C45 C 0.24433(10) 0.79079(19) 0.56774(10)
H59 H 0.2164 0.8249 0.5699
H60 H 0.2410 0.7862 0.5326
Ca3 Ca 0.14963(2) 0.48517(4) 0.97708(2)
Ca4 Ca 0.07596(2) 0.45655(4) 0.77204(2)
Cl2 Cl 0.11279(3) 0.47239(6) 0.87444(3)
O13 O 0.23115(7) 0.50153(13) 0.97097(7)
O14 O 0.16103(8) 0.47195(14) 0.76932(8)
O15 O 0.16299(8) 0.63901(14) 0.96739(8)
O16 O 0.09112(8) 0.60951(14) 0.76987(8)
O17 O 0.07455(8) 0.56462(15) 0.97394(8)
O18 O 0.00286(8) 0.53731(15) 0.77401(8)
O19 O 0.08932(8) 0.38097(15) 0.97959(8)
O20 O 0.01722(8) 0.35280(15) 0.78134(8)
O21 O 0.18607(8) 0.34146(14) 0.98037(8)
O22 O 0.11546(8) 0.31549(14) 0.78247(8)
O23 O 0.17189(9) 0.48941(17) 1.06167(9)
O24 O 0.04095(10) 0.4291(2) 0.67949(11)
N21 N 0.25813(9) 0.42823(16) 0.91687(9)
N22 N 0.24666(9) 0.57621(16) 0.91012(9)
N23 N 0.21531(9) 0.56331(16) 0.82141(9)
N24 N 0.22785(9) 0.41540(16) 0.82789(9)
N25 N 0.18976(9) 0.69370(16) 0.90783(9)
N26 N 0.11187(9) 0.72644(17) 0.90934(9)
N27 N 0.08011(9) 0.71274(16) 0.82095(9)
N28 N 0.15780(9) 0.68020(16) 0.81931(9)
N29 N 0.03649(9) 0.66036(17) 0.91417(10)
N30 N -0.00096(9) 0.53070(18) 0.92114(10)
N31 N -0.03258(10) 0.51813(18) 0.83238(10)
N32 N 0.00416(9) 0.64843(17) 0.82555(10)
N33 N 0.01154(9) 0.37453(18) 0.92643(10)
N34 N 0.06695(9) 0.26366(17) 0.92989(10)
N35 N 0.03435(9) 0.25057(17) 0.84138(10)
N36 N -0.02113(10) 0.36095(19) 0.83806(10)
N37 N 0.14973(9) 0.22899(16) 0.93109(9)
N38 N 0.22162(9) 0.28986(16) 0.92670(9)
N39 N 0.18933(9) 0.28002(16) 0.83780(9)
N40 N 0.11763(9) 0.21984(16) 0.84241(9)
C46 C 0.24385(10) 0.50159(19) 0.93410(10)
C47 C 0.25826(10) 0.57772(19) 0.86455(11)
H61 H 0.2720 0.6354 0.8614
C48 C 0.19912(11) 0.48276(19) 0.80494(11)
C49 C 0.27095(10) 0.42673(19) 0.87177(10)
H62 H 0.2937 0.3776 0.8739
C50 C 0.29704(11) 0.5100(2) 0.86758(12)
C51 C 0.34240(11) 0.5237(2) 0.91230(13)
H63 H 0.3558 0.5809 0.9108
H64 H 0.3668 0.4800 0.9128
H65 H 0.3337 0.5188 0.9422
C52 C 0.31103(13) 0.5103(2) 0.82083(13)
H66 H 0.2818 0.5009 0.7922
H67 H 0.3346 0.4643 0.8228
H68 H 0.3256 0.5658 0.8177
C53 C 0.23827(10) 0.65698(18) 0.93106(11)
H69 H 0.2629 0.6991 0.9287
H70 H 0.2434 0.6480 0.9664
C54 C 0.18871(11) 0.63789(19) 0.79551(11)
H71 H 0.1680 0.6198 0.7622
H72 H 0.2126 0.6802 0.7916
C55 C 0.15502(10) 0.68262(18) 0.92983(10)
C56 C 0.10069(11) 0.77188(19) 0.86251(11)
H73 H 0.0761 0.8176 0.8610
C57 C 0.10890(11) 0.66330(19) 0.80235(11)
C58 C 0.18013(11) 0.73787(19) 0.86092(11)
H74 H 0.2117 0.7596 0.8588
C59 C 0.14659(12) 0.81422(19) 0.85864(11)
C60 C 0.17015(13) 0.8754(2) 0.90161(13)
H75 H 0.1769 0.8443 0.9327
H76 H 0.1479 0.9231 0.9005
H77 H 0.2007 0.8978 0.8991
C61 C 0.13531(14) 0.8638(2) 0.81019(13)
H78 H 0.1655 0.8885 0.8080
H79 H 0.1120 0.9099 0.8091
H80 H 0.1212 0.8245 0.7826
C62 C 0.07561(11) 0.7231(2) 0.93402(11)
H81 H 0.0608 0.7807 0.9323
H82 H 0.0925 0.7098 0.9691
C63 C 0.02730(11) 0.7038(2) 0.79913(11)
H83 H 0.0125 0.7616 0.7964
H84 H 0.0198 0.6811 0.7654
C64 C 0.03902(11) 0.5837(2) 0.93791(11)
C65 C -0.04201(11) 0.5490(2) 0.87642(12)
H85 H -0.0716 0.5191 0.8787
C66 C -0.00727(11) 0.5658(2) 0.80929(11)
C67 C -0.00431(11) 0.6817(2) 0.86929(12)
H86 H -0.0073 0.7456 0.8665
C68 C -0.05190(12) 0.6453(2) 0.87264(13)
C69 C -0.06221(14) 0.6794(3) 0.91850(15)
H87 H -0.0710 0.7403 0.9139
H88 H -0.0330 0.6725 0.9475
H89 H -0.0892 0.6470 0.9231
C70 C -0.09525(13) 0.6684(3) 0.82684(15)
H90 H -0.0894 0.6465 0.7975
H91 H -0.0990 0.7310 0.8245
H92 H -0.1251 0.6426 0.8293
C71 C -0.00107(12) 0.4510(2) 0.94781(12)
H93 H 0.0222 0.4573 0.9816
H94 H -0.0340 0.4431 0.9502
C72 C -0.05047(11) 0.4339(2) 0.81283(12)
H95 H -0.0527 0.4321 0.7779
H96 H -0.0839 0.4269 0.8139
C73 C 0.05795(11) 0.3421(2) 0.94640(11)
C74 C 0.03091(11) 0.2204(2) 0.88821(12)
H97 H 0.0376 0.1573 0.8910
C75 C 0.01108(11) 0.3241(2) 0.81885(11)
C76 C -0.02534(11) 0.3331(2) 0.88492(12)
H98 H -0.0584 0.3495 0.8855
C77 C -0.02023(12) 0.2357(2) 0.88991(13)
C78 C -0.02473(14) 0.2052(3) 0.93863(15)
H99 H 0.0034 0.2258 0.9659
H100 H -0.0256 0.1423 0.9391
H101 H -0.0549 0.2280 0.9420
C79 C -0.05881(13) 0.1905(3) 0.84660(15)
H102 H -0.0913 0.2126 0.8434
H103 H -0.0578 0.1285 0.8527
H104 H -0.0518 0.2017 0.8162
C80 C 0.11313(11) 0.2213(2) 0.95514(11)
H105 H 0.1067 0.1596 0.9585
H106 H 0.1267 0.2456 0.9886
C81 C 0.06543(11) 0.2043(2) 0.81990(11)
H107 H 0.0557 0.2196 0.7847
H108 H 0.0594 0.1420 0.8218
C82 C 0.18526(10) 0.29065(18) 0.94718(10)
C83 C 0.21831(11) 0.23728(19) 0.88361(11)
H109 H 0.2520 0.2275 0.8828
C84 C 0.13944(11) 0.27514(19) 0.81946(11)
C85 C 0.14482(11) 0.17536(19) 0.88816(11)
H110 H 0.1268 0.1218 0.8906
C86 C 0.19547(11) 0.15053(19) 0.88712(11)
C87 C 0.22440(13) 0.1028(2) 0.93423(12)
H111 H 0.2565 0.0866 0.9327
H112 H 0.2066 0.0509 0.9374
H113 H 0.2287 0.1402 0.9626
C88 C 0.19167(13) 0.0939(2) 0.84243(12)
H114 H 0.1752 0.1259 0.8122
H115 H 0.1729 0.0420 0.8434
H116 H 0.2245 0.0777 0.8432
C89 C 0.26215(10) 0.34946(19) 0.94508(11)
H117 H 0.2925 0.3196 0.9460
H118 H 0.2654 0.3650 0.9793
C90 C 0.21409(11) 0.32830(19) 0.81049(11)
H119 H 0.1926 0.3311 0.7757
H120 H 0.2439 0.2967 0.8115
Cl3 Cl 0.15393(3) 0.61553(6) 0.13705(3)
Cl4 Cl 0.29638(3) 0.71655(6) 0.33688(3)
Cl5 Cl 0.15919(4) 0.35072(7) 0.58029(4)
Cl6 Cl 0.35119(4) 0.27376(7) 0.38867(5)
Cl7 Cl 0.05870(5) 0.50653(9) 0.38537(6)
Cl8 Cl 0.55776(4) 0.61652(8) 0.87032(6)
O25 O 0.19428(14) 0.4895(2) 0.22987(13)
O26 O 0.31873(13) 0.3562(2) 0.28207(13)
O27 O 0.28501(12) 0.5245(2) 0.29803(12)
O28 O 0.20149(12) 0.3393(2) 0.11059(12)
O29 O 0.44982(13) 0.4958(3) 0.00396(14)
O30 O 0.32871(14) 0.4750(2) 0.39752(12)
O31 O 0.18975(12) 0.3593(2) 0.69410(11)
O32 O 0.40009(12) 0.6939(2) 0.86256(11)
O33 O 0.44352(13) 0.6584(2) 0.96201(12)
O34 O 0.39207(14) 0.3443(3) 0.98345(14)
O35 O 0.47399(12) 0.2780(2) 0.05702(13)
O36 O 0.22638(13) 0.3151(2) 0.21385(12)
O37 O 0.0709(4) 0.4319(8) 0.6027(5)
loop_
_geom_bond_atom_site_label_1
_geom_bond_atom_site_label_2
_geom_bond_site_symmetry_1
_geom_bond_site_symmetry_2
Ca1 Cl1 1_555 1_555
Ca2 Cl1 1_555 1_555
O1 Ca1 1_555 1_555
O2 Ca2 1_555 1_555
O3 Ca1 1_555 1_555
O4 Ca2 1_555 1_555
O5 Ca1 1_555 1_555
O6 Ca2 1_555 1_555
O7 Ca1 1_555 1_555
O8 Ca2 1_555 1_555
O9 Ca1 1_555 1_555
O10 Ca2 1_555 1_555
O11 Ca1 1_555 1_555
O12 Ca2 1_555 1_555
N1 C1 1_555 1_555
N2 C1 1_555 1_555
N3 C2 1_555 1_555
N4 C3 1_555 1_555
N5 C8 1_555 1_555
N6 C10 1_555 1_555
N7 C11 1_555 1_555
N8 C9 1_555 1_555
N9 C17 1_555 1_555
N10 C19 1_555 1_555
N11 C20 1_555 1_555
N12 C18 1_555 1_555
N13 C26 1_555 1_555
N14 C28 1_555 1_555
N15 C29 1_555 1_555
N16 C27 1_555 1_555
N17 C35 1_555 1_555
N18 C37 1_555 1_555
N19 C38 1_555 1_555
N20 C36 1_555 1_555
C1 O1 1_555 1_555
C2 N2 1_555 1_555
H1 C2 1_555 1_555
C3 O2 1_555 1_555
C4 N1 1_555 1_555
H2 C4 1_555 1_555
C5 C2 1_555 1_555
C6 C5 1_555 1_555
H3 C6 1_555 1_555
H4 C6 1_555 1_555
H5 C6 1_555 1_555
C7 C5 1_555 1_555
H6 C7 1_555 1_555
H7 C7 1_555 1_555
H8 C7 1_555 1_555
C8 N2 1_555 1_555
H9 C8 1_555 1_555
H10 C8 1_555 1_555
C9 N3 1_555 1_555
H11 C9 1_555 1_555
H12 C9 1_555 1_555
C10 O3 1_555 1_555
C11 N6 1_555 1_555
H13 C11 1_555 1_555
C12 O4 1_555 1_555
C13 N5 1_555 1_555
H14 C13 1_555 1_555
C14 C11 1_555 1_555
C15 C14 1_555 1_555
H15 C15 1_555 1_555
H16 C15 1_555 1_555
H17 C15 1_555 1_555
C16 C14 1_555 1_555
H18 C16 1_555 1_555
H19 C16 1_555 1_555
H20 C16 1_555 1_555
C17 N6 1_555 1_555
H21 C17 1_555 1_555
H22 C17 1_555 1_555
C18 N7 1_555 1_555
H23 C18 1_555 1_555
H24 C18 1_555 1_555
C19 O5 1_555 1_555
C20 N10 1_555 1_555
H25 C20 1_555 1_555
C21 O6 1_555 1_555
C22 N9 1_555 1_555
H26 C22 1_555 1_555
C23 C20 1_555 1_555
C24 C23 1_555 1_555
H27 C24 1_555 1_555
H28 C24 1_555 1_555
H29 C24 1_555 1_555
C25 C23 1_555 1_555
H30 C25 1_555 1_555
H31 C25 1_555 1_555
H32 C25 1_555 1_555
C26 N10 1_555 1_555
H33 C26 1_555 1_555
H34 C26 1_555 1_555
C27 N11 1_555 1_555
H35 C27 1_555 1_555
H36 C27 1_555 1_555
C28 O7 1_555 1_555
C29 N14 1_555 1_555
H37 C29 1_555 1_555
C30 O8 1_555 1_555
C31 N13 1_555 1_555
H38 C31 1_555 1_555
C32 C29 1_555 1_555
C33 C32 1_555 1_555
H39 C33 1_555 1_555
H40 C33 1_555 1_555
H41 C33 1_555 1_555
C34 C32 1_555 1_555
H42 C34 1_555 1_555
H43 C34 1_555 1_555
H44 C34 1_555 1_555
C35 N14 1_555 1_555
H45 C35 1_555 1_555
H46 C35 1_555 1_555
C36 N15 1_555 1_555
H47 C36 1_555 1_555
H48 C36 1_555 1_555
C37 O9 1_555 1_555
C38 N18 1_555 1_555
H49 C38 1_555 1_555
C39 O10 1_555 1_555
C40 N17 1_555 1_555
H50 C40 1_555 1_555
C41 C38 1_555 1_555
C42 C41 1_555 1_555
H51 C42 1_555 1_555
H52 C42 1_555 1_555
H53 C42 1_555 1_555
C43 C41 1_555 1_555
H54 C43 1_555 1_555
H55 C43 1_555 1_555
H56 C43 1_555 1_555
C44 N1 1_555 1_555
H57 C44 1_555 1_555
H58 C44 1_555 1_555
C45 N4 1_555 1_555
H59 C45 1_555 1_555
H60 C45 1_555 1_555
Ca3 Cl2 1_555 1_555
Ca4 Cl2 1_555 1_555
O13 Ca3 1_555 1_555
O14 Ca4 1_555 1_555
O15 Ca3 1_555 1_555
O16 Ca4 1_555 1_555
O17 Ca3 1_555 1_555
O18 Ca4 1_555 1_555
O19 Ca3 1_555 1_555
O20 Ca4 1_555 1_555
O21 Ca3 1_555 1_555
O22 Ca4 1_555 1_555
O23 Ca3 1_555 1_555
O24 Ca4 1_555 1_555
N21 C46 1_555 1_555
N22 C46 1_555 1_555
N23 C47 1_555 1_555
N24 C48 1_555 1_555
N25 C53 1_555 1_555
N26 C55 1_555 1_555
N27 C56 1_555 1_555
N28 C54 1_555 1_555
N29 C62 1_555 1_555
N30 C64 1_555 1_555
N31 C65 1_555 1_555
N32 C63 1_555 1_555
N33 C71 1_555 1_555
N34 C73 1_555 1_555
N35 C74 1_555 1_555
N36 C72 1_555 1_555
N37 C80 1_555 1_555
N38 C82 1_555 1_555
N39 C83 1_555 1_555
N40 C81 1_555 1_555
C46 O13 1_555 1_555
C47 N22 1_555 1_555
H61 C47 1_555 1_555
C48 O14 1_555 1_555
C49 N21 1_555 1_555
H62 C49 1_555 1_555
C50 C47 1_555 1_555
C51 C50 1_555 1_555
H63 C51 1_555 1_555
H64 C51 1_555 1_555
H65 C51 1_555 1_555
C52 C50 1_555 1_555
H66 C52 1_555 1_555
H67 C52 1_555 1_555
H68 C52 1_555 1_555
C53 N22 1_555 1_555
H69 C53 1_555 1_555
H70 C53 1_555 1_555
C54 N23 1_555 1_555
H71 C54 1_555 1_555
H72 C54 1_555 1_555
C55 O15 1_555 1_555
C56 N26 1_555 1_555
H73 C56 1_555 1_555
C57 O16 1_555 1_555
C58 N25 1_555 1_555
H74 C58 1_555 1_555
C59 C56 1_555 1_555
C60 C59 1_555 1_555
H75 C60 1_555 1_555
H76 C60 1_555 1_555
H77 C60 1_555 1_555
C61 C59 1_555 1_555
H78 C61 1_555 1_555
H79 C61 1_555 1_555
H80 C61 1_555 1_555
C62 N26 1_555 1_555
H81 C62 1_555 1_555
H82 C62 1_555 1_555
C63 N27 1_555 1_555
H83 C63 1_555 1_555
H84 C63 1_555 1_555
C64 O17 1_555 1_555
C65 N30 1_555 1_555
H85 C65 1_555 1_555
C66 O18 1_555 1_555
C67 N29 1_555 1_555
H86 C67 1_555 1_555
C68 C65 1_555 1_555
C69 C68 1_555 1_555
H87 C69 1_555 1_555
H88 C69 1_555 1_555
H89 C69 1_555 1_555
C70 C68 1_555 1_555
H90 C70 1_555 1_555
H91 C70 1_555 1_555
H92 C70 1_555 1_555
C71 N30 1_555 1_555
H93 C71 1_555 1_555
H94 C71 1_555 1_555
C72 N31 1_555 1_555
H95 C72 1_555 1_555
H96 C72 1_555 1_555
C73 O19 1_555 1_555
C74 N34 1_555 1_555
H97 C74 1_555 1_555
C75 O20 1_555 1_555
C76 N33 1_555 1_555
H98 C76 1_555 1_555
C77 C74 1_555 1_555
C78 C77 1_555 1_555
H99 C78 1_555 1_555
H100 C78 1_555 1_555
H101 C78 1_555 1_555
C79 C77 1_555 1_555
H102 C79 1_555 1_555
H103 C79 1_555 1_555
H104 C79 1_555 1_555
C80 N34 1_555 1_555
H105 C80 1_555 1_555
H106 C80 1_555 1_555
C81 N35 1_555 1_555
H107 C81 1_555 1_555
H108 C81 1_555 1_555
C82 O21 1_555 1_555
C83 N38 1_555 1_555
H109 C83 1_555 1_555
C84 O22 1_555 1_555
C85 N37 1_555 1_555
H110 C85 1_555 1_555
C86 C83 1_555 1_555
C87 C86 1_555 1_555
H111 C87 1_555 1_555
H112 C87 1_555 1_555
H113 C87 1_555 1_555
C88 C86 1_555 1_555
H114 C88 1_555 1_555
H115 C88 1_555 1_555
H116 C88 1_555 1_555
C89 N21 1_555 1_555
H117 C89 1_555 1_555
H118 C89 1_555 1_555
C90 N24 1_555 1_555
H119 C90 1_555 1_555
H120 C90 1_555 1_555
N3 C3 1_555 1_555
N4 C4 1_555 1_555
N5 C10 1_555 1_555
N7 C12 1_555 1_555
N8 C12 1_555 1_555
N8 C13 1_555 1_555
N9 C19 1_555 1_555
N11 C21 1_555 1_555
N12 C21 1_555 1_555
N12 C22 1_555 1_555
N13 C28 1_555 1_555
N15 C30 1_555 1_555
N16 C30 1_555 1_555
N16 C31 1_555 1_555
N17 C37 1_555 1_555
N18 C44 1_555 1_555
N19 C39 1_555 1_555
N19 C45 1_555 1_555
N20 C39 1_555 1_555
N20 C40 1_555 1_555
C4 C5 1_555 1_555
C13 C14 1_555 1_555
C22 C23 1_555 1_555
C31 C32 1_555 1_555
C40 C41 1_555 1_555
N23 C48 1_555 1_555
N24 C49 1_555 1_555
N25 C55 1_555 1_555
N27 C57 1_555 1_555
N28 C57 1_555 1_555
N28 C58 1_555 1_555
N29 C64 1_555 1_555
N31 C66 1_555 1_555
N32 C66 1_555 1_555
N32 C67 1_555 1_555
N33 C73 1_555 1_555
N35 C75 1_555 1_555
N36 C75 1_555 1_555
N36 C76 1_555 1_555
N37 C82 1_555 1_555
N38 C89 1_555 1_555
N39 C84 1_555 1_555
N39 C90 1_555 1_555
N40 C84 1_555 1_555
N40 C85 1_555 1_555
C49 C50 1_555 1_555
C58 C59 1_555 1_555
C67 C68 1_555 1_555
C76 C77 1_555 1_555
C85 C86 1_555 1_555

#END
