
#######################################################################
#
#                 Cambridge Crystallographic Data Centre
#                                CCDC 
#
#######################################################################
#
# If this CIF has been generated from an entry in the Cambridge 
# Structural Database, then it will include bibliographic, chemical, 
# crystal, experimental, refinement or atomic coordinate data resulting 
# from the CCDC's data processing and validation procedures.
#
#######################################################################

data_LUCFAS
_chemical_formula_moiety         
'C8 H13 N2 1+,6.5(H2 O1),Cl1 1-,C45 H60 N20 O10'
_chemical_name_systematic        
'(4-(aminomethyl)phenyl)methanaminium cucurbit[5]dimethylpropanediuril chloride unknown solvate hydrate'
_symmetry_cell_setting           orthorhombic
_symmetry_space_group_name_H-M   'P b c n'
_symmetry_Int_Tables_number      60
_space_group_name_Hall           '-P 2n 2ab'
loop_
_symmetry_equiv_pos_site_id
_symmetry_equiv_pos_as_xyz
1 x,y,z
2 1/2-x,1/2-y,1/2+z
3 -x,y,1/2-z
4 1/2+x,1/2-y,-z
5 -x,-y,-z
6 1/2+x,1/2+y,1/2-z
7 x,-y,1/2+z
8 1/2-x,1/2+y,z
_cell_length_a                   28.753(3)
_cell_length_b                   36.229(4)
_cell_length_c                   14.8139(17)
_cell_angle_alpha                90
_cell_angle_beta                 90
_cell_angle_gamma                90
_cell_volume                     15431.5
_exptl_crystal_colour            colorless
_exptl_crystal_description       rod
_cell_formula_units_Z            8
loop_
_atom_site_label
_atom_site_type_symbol
_atom_site_fract_x
_atom_site_fract_y
_atom_site_fract_z
N1 N 0.22801(18) 0.02632(13) 0.4325(3)
N2 N 0.30724(17) 0.03243(13) 0.4657(3)
N3 N 0.32512(19) 0.03483(13) 0.3039(3)
N4 N 0.2453(2) 0.02946(14) 0.2714(3)
N5 N 0.36921(17) 0.07724(12) 0.4931(3)
N6 N 0.38637(16) 0.14027(12) 0.5041(3)
N7 N 0.40448(17) 0.14165(12) 0.3437(3)
N8 N 0.38753(18) 0.07863(13) 0.3320(3)
N9 N 0.35448(17) 0.20335(13) 0.4991(3)
N10 N 0.28541(17) 0.23559(13) 0.4720(3)
N11 N 0.30143(17) 0.23704(13) 0.3115(3)
N12 N 0.36984(17) 0.20297(13) 0.3368(3)
N13 N 0.20276(18) 0.22893(15) 0.4377(3)
N14 N 0.14300(19) 0.18644(16) 0.4083(4)
N15 N 0.15813(19) 0.18949(14) 0.2469(3)
N16 N 0.21833(18) 0.23148(14) 0.2752(3)
N17 N 0.12429(18) 0.12034(16) 0.3987(4)
N18 N 0.15645(19) 0.06106(15) 0.4055(3)
N19 N 0.1742(2) 0.06385(15) 0.2444(3)
N20 N 0.14088(19) 0.12290(15) 0.2378(3)
O1 O 0.25214(15) 0.05505(12) 0.5609(3)
O2 O 0.29459(19) 0.06089(12) 0.1783(3)
O3 O 0.33216(15) 0.11325(11) 0.5959(3)
O4 O 0.37502(16) 0.11737(11) 0.2140(3)
O5 O 0.29061(14) 0.19420(11) 0.5888(2)
O6 O 0.32854(15) 0.19584(12) 0.2078(3)
O7 O 0.18402(17) 0.18501(13) 0.5409(3)
O8 O 0.22226(16) 0.19102(12) 0.1575(3)
O9 O 0.15970(16) 0.10051(13) 0.5260(3)
O10 O 0.20085(19) 0.10609(13) 0.1442(3)
C1 C 0.2621(2) 0.03909(15) 0.4902(4)
C2 C 0.3193(2) 0.01095(16) 0.3838(4)
H1 H 0.3495 -0.0020 0.3952
C3 C 0.2888(2) 0.04270(17) 0.2472(4)
C4 C 0.2389(2) 0.00556(17) 0.3509(4)
H2 H 0.2122 -0.0114 0.3383
C5 C 0.3445(2) 0.04443(15) 0.5247(4)
H3 H 0.3671 0.0240 0.5313
H4 H 0.3314 0.0496 0.5852
C6 C 0.3716(2) 0.04682(17) 0.2798(4)
H5 H 0.3722 0.0532 0.2148
H6 H 0.3935 0.0261 0.2892
C7 C 0.3604(2) 0.11099(15) 0.5336(4)
C8 C 0.4225(2) 0.13683(16) 0.4340(4)
H7 H 0.4466 0.1562 0.4450
C9 C 0.3881(2) 0.11286(15) 0.2924(4)
C10 C 0.4058(2) 0.07237(16) 0.4238(3)
H8 H 0.4179 0.0465 0.4275
C11 C 0.3806(2) 0.17579(15) 0.5486(4)
H9 H 0.3649 0.1716 0.6072
H10 H 0.4118 0.1859 0.5617
C12 C 0.4061(2) 0.17853(15) 0.3038(4)
H11 H 0.4368 0.1897 0.3168
H12 H 0.4031 0.1763 0.2374
C13 C 0.3090(2) 0.20965(15) 0.5236(3)
C14 C 0.3074(2) 0.25576(16) 0.3974(3)
H13 H 0.2923 0.2806 0.3929
C15 C 0.3326(2) 0.21086(16) 0.2809(4)
C16 C 0.3771(2) 0.22199(16) 0.4238(4)
H14 H 0.4112 0.2231 0.4362
C17 C 0.2376(2) 0.24422(17) 0.4956(4)
H15 H 0.2318 0.2354 0.5578
H16 H 0.2340 0.2714 0.4959
C18 C 0.2628(2) 0.24700(16) 0.2509(4)
H17 H 0.2599 0.2742 0.2498
H18 H 0.2707 0.2388 0.1890
C19 C 0.1764(2) 0.19913(18) 0.4669(4)
C20 C 0.1317(2) 0.20414(18) 0.3244(4)
H19 H 0.0978 0.2004 0.3123
C21 C 0.2008(2) 0.20302(17) 0.2244(4)
C22 C 0.1919(2) 0.24710(17) 0.3507(4)
H20 H 0.2007 0.2737 0.3563
C23 C 0.1129(2) 0.1560(2) 0.4405(5)
H21 H 0.1161 0.1538 0.5068
H22 H 0.0801 0.1622 0.4271
C24 C 0.1381(2) 0.15927(19) 0.1944(5)
H23 H 0.1543 0.1580 0.1355
H24 H 0.1050 0.1650 0.1823
C25 C 0.1479(2) 0.09418(19) 0.4482(5)
C26 C 0.1403(3) 0.05312(19) 0.3139(5)
H25 H 0.1352 0.0259 0.3090
C27 C 0.1737(3) 0.09774(18) 0.2059(4)
C28 C 0.1077(3) 0.1127(2) 0.3058(5)
H26 H 0.0793 0.1281 0.2958
C29 C 0.1795(2) 0.03178(18) 0.4572(4)
H27 H 0.1778 0.0379 0.5222
H28 H 0.1624 0.0084 0.4478
C30 C 0.2072(2) 0.03580(19) 0.2109(4)
H29 H 0.1903 0.0123 0.2014
H30 H 0.2196 0.0439 0.1517
C31 C 0.2823(2) -0.01817(16) 0.3663(4)
C32 C 0.2765(3) -0.04378(18) 0.4477(4)
H31 H 0.2730 -0.0290 0.5026
H32 H 0.3039 -0.0597 0.4532
H33 H 0.2487 -0.0591 0.4393
C33 C 0.2942(3) -0.04138(19) 0.2804(5)
H34 H 0.2709 -0.0610 0.2728
H35 H 0.3251 -0.0524 0.2872
H36 H 0.2939 -0.0253 0.2272
C34 C 0.4457(2) 0.09885(16) 0.4436(4)
C35 C 0.4654(2) 0.09267(18) 0.5390(4)
H37 H 0.4769 0.0673 0.5443
H38 H 0.4409 0.0969 0.5838
H39 H 0.4911 0.1099 0.5498
C36 C 0.4842(2) 0.09509(19) 0.3736(4)
H40 H 0.5085 0.1134 0.3856
H41 H 0.4713 0.0992 0.3132
H42 H 0.4976 0.0702 0.3769
C37 C 0.3587(2) 0.26145(16) 0.4159(4)
C38 C 0.3662(2) 0.28285(17) 0.5047(4)
H43 H 0.3990 0.2815 0.5221
H44 H 0.3470 0.2719 0.5524
H45 H 0.3573 0.3087 0.4961
C39 C 0.3832(3) 0.28241(17) 0.3406(4)
H46 H 0.3801 0.2687 0.2839
H47 H 0.4162 0.2852 0.3556
H48 H 0.3690 0.3069 0.3340
C40 C 0.1410(2) 0.24541(18) 0.3318(4)
C41 C 0.1113(2) 0.2619(2) 0.4097(5)
H49 H 0.1143 0.2464 0.4635
H50 H 0.0786 0.2628 0.3912
H51 H 0.1222 0.2869 0.4234
C42 C 0.1279(3) 0.2667(2) 0.2443(4)
H52 H 0.1321 0.2933 0.2541
H53 H 0.0953 0.2618 0.2289
H54 H 0.1480 0.2586 0.1947
C43 C 0.0932(3) 0.0725(2) 0.2954(5)
C44 C 0.0576(3) 0.0611(3) 0.3691(6)
H55 H 0.0302 0.0771 0.3654
H56 H 0.0719 0.0636 0.4288
H57 H 0.0482 0.0354 0.3595
C45 C 0.0752(3) 0.0648(2) 0.2046(6)
H58 H 0.0474 0.0798 0.1935
H59 H 0.0670 0.0386 0.2000
H60 H 0.0990 0.0707 0.1596
C46 C 0.2356(2) 0.13681(16) 0.7877(4)
C47 C 0.2833(2) 0.14190(17) 0.7893(4)
H61 H 0.3003 0.1418 0.7343
C48 C 0.3063(2) 0.14717(17) 0.8704(4)
H62 H 0.3391 0.1501 0.8703
C49 C 0.2827(2) 0.14825(17) 0.9506(4)
C50 C 0.2345(2) 0.14365(17) 0.9504(4)
H63 H 0.2177 0.1444 1.0056
C51 C 0.2109(2) 0.13782(17) 0.8684(4)
H64 H 0.1781 0.1346 0.8681
C52 C 0.2076(2) 0.1291(2) 0.7027(4)
H65 H 0.1920 0.1049 0.7091
H66 H 0.1831 0.1481 0.6968
C53 C 0.3093(3) 0.1546(2) 1.0369(4)
H67 H 0.3421 0.1472 1.0269
H68 H 0.3091 0.1814 1.0500
N21 N 0.23611(18) 0.12880(14) 0.6183(3)
H69 H 0.2493 0.1514 0.6101
H70 H 0.2175 0.1234 0.5703
H71 H 0.2588 0.1114 0.6231
N22 N 0.2918(2) 0.13499(15) 1.1165(3)
H72 H 0.2627 0.1431 1.1298
H73 H 0.2909 0.1103 1.1049
O11 O 0.48721(18) 0.20565(14) 0.0542(5)
O12 O 0.43843(17) 0.02195(11) 0.9673(4)
O13 O 0.13474(14) 0.05065(9) 0.8188(4)
O14 O 0.3919(3) 0.0939(2) 0.0411(5)
Cl1 Cl 0.9984(4) 0.1666(4) 0.3125(10)
O15 O 1.0000 0.1612(4) 0.2500
O16 O 0.4329(4) 0.0455(3) 0.7848(7)
O17 O 0.4446(4) 0.1325(3) 0.7714(5)
O18 O 0.4268(2) 0.1489(2) 0.9441(6)
Cl1B Cl 1.0016(4) 0.1666(4) 0.1875(10)
Cl2? Cl 0.48721(18) 0.20565(14) 0.0542(5)
Cl3? Cl 0.13474(14) 0.05065(9) 0.8188(4)
H74? H 0.3110 0.1393 1.1642
loop_
_geom_bond_atom_site_label_1
_geom_bond_atom_site_label_2
_geom_bond_site_symmetry_1
_geom_bond_site_symmetry_2
N1 C1 1_555 1_555
N2 C1 1_555 1_555
N3 C2 1_555 1_555
N4 C3 1_555 1_555
N5 C5 1_555 1_555
N6 C7 1_555 1_555
N7 C8 1_555 1_555
N8 C6 1_555 1_555
N9 C11 1_555 1_555
N10 C13 1_555 1_555
N11 C14 1_555 1_555
N12 C12 1_555 1_555
N13 C17 1_555 1_555
N14 C19 1_555 1_555
N15 C20 1_555 1_555
N16 C18 1_555 1_555
N17 C23 1_555 1_555
N18 C25 1_555 1_555
N19 C26 1_555 1_555
N20 C24 1_555 1_555
O1 C1 1_555 1_555
O2 C3 1_555 1_555
O3 C7 1_555 1_555
O4 C9 1_555 1_555
O5 C13 1_555 1_555
O6 C15 1_555 1_555
O7 C19 1_555 1_555
O8 C21 1_555 1_555
O9 C25 1_555 1_555
O10 C27 1_555 1_555
C2 N2 1_555 1_555
H1 C2 1_555 1_555
C3 N3 1_555 1_555
C4 N1 1_555 1_555
H2 C4 1_555 1_555
C5 N2 1_555 1_555
H3 C5 1_555 1_555
H4 C5 1_555 1_555
C6 N3 1_555 1_555
H5 C6 1_555 1_555
H6 C6 1_555 1_555
C7 N5 1_555 1_555
C8 N6 1_555 1_555
H7 C8 1_555 1_555
C9 N7 1_555 1_555
C10 N5 1_555 1_555
H8 C10 1_555 1_555
C11 N6 1_555 1_555
H9 C11 1_555 1_555
H10 C11 1_555 1_555
C12 N7 1_555 1_555
H11 C12 1_555 1_555
H12 C12 1_555 1_555
C13 N9 1_555 1_555
C14 N10 1_555 1_555
H13 C14 1_555 1_555
C15 N11 1_555 1_555
C16 N9 1_555 1_555
H14 C16 1_555 1_555
C17 N10 1_555 1_555
H15 C17 1_555 1_555
H16 C17 1_555 1_555
C18 N11 1_555 1_555
H17 C18 1_555 1_555
H18 C18 1_555 1_555
C19 N13 1_555 1_555
C20 N14 1_555 1_555
H19 C20 1_555 1_555
C21 N15 1_555 1_555
C22 N13 1_555 1_555
H20 C22 1_555 1_555
C23 N14 1_555 1_555
H21 C23 1_555 1_555
H22 C23 1_555 1_555
C24 N15 1_555 1_555
H23 C24 1_555 1_555
H24 C24 1_555 1_555
C25 N17 1_555 1_555
C26 N18 1_555 1_555
H25 C26 1_555 1_555
C27 N19 1_555 1_555
C28 N17 1_555 1_555
H26 C28 1_555 1_555
C29 N1 1_555 1_555
H27 C29 1_555 1_555
H28 C29 1_555 1_555
C30 N4 1_555 1_555
H29 C30 1_555 1_555
H30 C30 1_555 1_555
C31 C2 1_555 1_555
C32 C31 1_555 1_555
H31 C32 1_555 1_555
H32 C32 1_555 1_555
H33 C32 1_555 1_555
C33 C31 1_555 1_555
H34 C33 1_555 1_555
H35 C33 1_555 1_555
H36 C33 1_555 1_555
C34 C8 1_555 1_555
C35 C34 1_555 1_555
H37 C35 1_555 1_555
H38 C35 1_555 1_555
H39 C35 1_555 1_555
C36 C34 1_555 1_555
H40 C36 1_555 1_555
H41 C36 1_555 1_555
H42 C36 1_555 1_555
C37 C14 1_555 1_555
C38 C37 1_555 1_555
H43 C38 1_555 1_555
H44 C38 1_555 1_555
H45 C38 1_555 1_555
C39 C37 1_555 1_555
H46 C39 1_555 1_555
H47 C39 1_555 1_555
H48 C39 1_555 1_555
C40 C20 1_555 1_555
C41 C40 1_555 1_555
H49 C41 1_555 1_555
H50 C41 1_555 1_555
H51 C41 1_555 1_555
C42 C40 1_555 1_555
H52 C42 1_555 1_555
H53 C42 1_555 1_555
H54 C42 1_555 1_555
C43 C26 1_555 1_555
C44 C43 1_555 1_555
H55 C44 1_555 1_555
H56 C44 1_555 1_555
H57 C44 1_555 1_555
C45 C43 1_555 1_555
H58 C45 1_555 1_555
H59 C45 1_555 1_555
H60 C45 1_555 1_555
C46 C47 1_555 1_555
C47 H61 1_555 1_555
C48 C47 1_555 1_555
H62 C48 1_555 1_555
C49 C48 1_555 1_555
C50 C49 1_555 1_555
H63 C50 1_555 1_555
C51 C46 1_555 1_555
H64 C51 1_555 1_555
C52 C46 1_555 1_555
H65 C52 1_555 1_555
H66 C52 1_555 1_555
C53 C49 1_555 1_555
H67 C53 1_555 1_555
H68 C53 1_555 1_555
N21 C52 1_555 1_555
H69 N21 1_555 1_555
H70 N21 1_555 1_555
H71 N21 1_555 1_555
N22 C53 1_555 1_555
H72 N22 1_555 1_555
H73 N22 1_555 1_555
N4 C4 1_555 1_555
N8 C9 1_555 1_555
N8 C10 1_555 1_555
N12 C15 1_555 1_555
N12 C16 1_555 1_555
N16 C21 1_555 1_555
N16 C22 1_555 1_555
N18 C29 1_555 1_555
N19 C30 1_555 1_555
N20 C27 1_555 1_555
N20 C28 1_555 1_555
C4 C31 1_555 1_555
C10 C34 1_555 1_555
C16 C37 1_555 1_555
C22 C40 1_555 1_555
C28 C43 1_555 1_555
C50 C51 1_555 1_555

#END
