
#######################################################################
#
#                 Cambridge Crystallographic Data Centre
#                                CCDC 
#
#######################################################################
#
# If this CIF has been generated from an entry in the Cambridge 
# Structural Database, then it will include bibliographic, chemical, 
# crystal, experimental, refinement or atomic coordinate data resulting 
# from the CCDC's data processing and validation procedures.
#
#######################################################################

data_LUCQUX
_chemical_formula_moiety         'C7 H4 N1 O5 1-,C7 H7 N2 1+'
_chemical_name_systematic        
'1H-3,1-benzimidazol-3-ium 2-hydroxy-5-nitrobenzoate'
_symmetry_cell_setting           orthorhombic
_symmetry_space_group_name_H-M   'P 21 21 21'
_symmetry_Int_Tables_number      19
_space_group_name_Hall           'P 2ac 2ab'
loop_
_symmetry_equiv_pos_site_id
_symmetry_equiv_pos_as_xyz
1 x,y,z
2 1/2-x,-y,1/2+z
3 -x,1/2+y,1/2-z
4 1/2+x,1/2-y,-z
_cell_length_a                   6.9536(8)
_cell_length_b                   7.7171(9)
_cell_length_c                   25.112(3)
_cell_angle_alpha                90
_cell_angle_beta                 90
_cell_angle_gamma                90
_cell_volume                     1347.55
_exptl_crystal_colour            colorless
_exptl_crystal_description       block
_cell_formula_units_Z            4
loop_
_atom_site_label
_atom_site_type_symbol
_atom_site_fract_x
_atom_site_fract_y
_atom_site_fract_z
C1 C 1.1019(4) 0.0913(3) 0.09176(10)
O1 O 1.2504(3) 0.1945(2) 0.17039(7)
O2 O 1.4017(3) 0.2350(3) 0.09336(7)
C2 C 1.2615(4) 0.1785(3) 0.12087(10)
C3 C 0.7927(4) -0.0453(3) 0.09247(11)
O3 O 1.2654(3) 0.1095(3) 0.00839(7)
H1 H 1.3437 0.1569 0.0280
N1 N 0.6250(4) -0.1049(4) 0.12216(12)
C4 C 0.9391(4) 0.0377(3) 0.11889(11)
H2 H 0.9288 0.0580 0.1553
C5 C 1.1130(4) 0.0594(4) 0.03693(11)
C6 C 0.9622(5) -0.0254(4) 0.01086(11)
H3 H 0.9701 -0.0454 -0.0256
O4 O 0.5008(3) -0.1874(3) 0.09810(10)
C7 C 0.8045(5) -0.0786(4) 0.03818(12)
H4 H 0.7056 -0.1367 0.0208
O5 O 0.6148(3) -0.0709(3) 0.16984(10)
N2 N 0.6246(4) 0.4122(3) 0.16228(9)
H5 H 0.5634 0.3573 0.1378
N3 N 0.6946(4) 0.5248(3) 0.23885(8)
H6 H 0.6853 0.5540 0.2718
C8 C 0.8017(4) 0.4911(3) 0.15673(10)
C9 C 0.5652(5) 0.4360(4) 0.21192(12)
H7 H 0.4493 0.3959 0.2257
C10 C 1.0928(5) 0.5987(4) 0.12192(12)
H8 H 1.1786 0.6123 0.0938
C11 C 0.8485(4) 0.5640(4) 0.20559(10)
C12 C 1.1384(5) 0.6697(4) 0.17140(13)
H9 H 1.2541 0.7288 0.1756
C13 C 0.9246(5) 0.5092(4) 0.11343(11)
H10 H 0.8945 0.4629 0.0803
C14 C 1.0156(5) 0.6542(4) 0.21421(12)
H11 H 1.0446 0.7023 0.2472
loop_
_geom_bond_atom_site_label_1
_geom_bond_atom_site_label_2
_geom_bond_site_symmetry_1
_geom_bond_site_symmetry_2
C1 C2 1_555 1_555
O1 C2 1_555 1_555
O2 C2 1_555 1_555
C3 N1 1_555 1_555
O3 H1 1_555 1_555
N1 O4 1_555 1_555
C4 C1 1_555 1_555
H2 C4 1_555 1_555
C5 C1 1_555 1_555
C6 C5 1_555 1_555
H3 C6 1_555 1_555
C7 C3 1_555 1_555
H4 C7 1_555 1_555
O5 N1 1_555 1_555
N2 H5 1_555 1_555
N3 H6 1_555 1_555
C8 N2 1_555 1_555
C9 N2 1_555 1_555
H7 C9 1_555 1_555
C10 H8 1_555 1_555
C11 N3 1_555 1_555
C12 C10 1_555 1_555
H9 C12 1_555 1_555
C13 C8 1_555 1_555
H10 C13 1_555 1_555
C14 C11 1_555 1_555
H11 C14 1_555 1_555
C3 C4 1_555 1_555
O3 C5 1_555 1_555
C6 C7 1_555 1_555
N3 C9 1_555 1_555
C8 C11 1_555 1_555
C10 C13 1_555 1_555
C12 C14 1_555 1_555

#END
