
#######################################################################
#
#                 Cambridge Crystallographic Data Centre
#                                CCDC 
#
#######################################################################
#
# If this CIF has been generated from an entry in the Cambridge 
# Structural Database, then it will include bibliographic, chemical, 
# crystal, experimental, refinement or atomic coordinate data resulting 
# from the CCDC's data processing and validation procedures.
#
#######################################################################

data_LUCRAE
_chemical_formula_moiety         'C8 H4 N1 O6 1-,C7 H7 N2 1+'
_chemical_name_systematic        
'1H-benzimidazol-3-ium 2-carboxy-5-nitrobenzoate'
_symmetry_cell_setting           monoclinic
_symmetry_space_group_name_H-M   'P 21/n'
_symmetry_Int_Tables_number      14
_space_group_name_Hall           '-P 2yn'
loop_
_symmetry_equiv_pos_site_id
_symmetry_equiv_pos_as_xyz
1 x,y,z
2 1/2-x,1/2+y,1/2-z
3 -x,-y,-z
4 1/2+x,1/2-y,1/2+z
_cell_length_a                   6.4078(5)
_cell_length_b                   8.0337(7)
_cell_length_c                   27.689(3)
_cell_angle_alpha                90
_cell_angle_beta                 92.1780(10)
_cell_angle_gamma                90
_cell_volume                     1424.35
_exptl_crystal_colour            colorless
_exptl_crystal_description       block
_cell_formula_units_Z            4
loop_
_atom_site_label
_atom_site_type_symbol
_atom_site_fract_x
_atom_site_fract_y
_atom_site_fract_z
N1 N -0.0901(3) 0.7124(3) 0.86505(6)
H1 H -0.2094 0.6637 0.8658
N2 N 0.2147(3) 0.8056(2) 0.88811(6)
H2 H 0.3234 0.8267 0.9062
C1 C 0.0496(4) 0.7223(3) 0.90117(8)
H3 H 0.0335 0.6765 0.9317
C2 C 0.1843(3) 0.8539(3) 0.84024(7)
C3 C -0.0112(3) 0.7944(3) 0.82566(8)
C4 C -0.0952(4) 0.8219(3) 0.77931(8)
H4 H -0.2259 0.7814 0.7694
C5 C 0.0252(4) 0.9119(4) 0.74922(8)
H5 H -0.0253 0.9330 0.7179
C6 C 0.2204(4) 0.9731(4) 0.76369(9)
H6 H 0.2959 1.0347 0.7419
C7 C 0.3051(4) 0.9450(3) 0.80939(9)
H7 H 0.4363 0.9850 0.8190
N3 N -0.1034(3) 0.2366(3) 0.84923(8)
O1 O 0.4383(3) 0.1436(2) 1.04374(5)
O2 O 0.6726(3) 0.2986(2) 1.01058(6)
H8 H 0.6879 0.3481 0.9851
O3 O 0.7192(2) 0.4668(2) 0.94097(5)
O4 O 0.5523(3) 0.5339(2) 0.87348(5)
O5 O -0.0733(3) 0.3256(3) 0.81465(7)
O6 O -0.2573(3) 0.1491(3) 0.85322(7)
C8 C 0.4945(4) 0.2271(3) 1.00947(8)
C9 C 0.5622(3) 0.4544(3) 0.91156(8)
C10 C 0.3497(3) 0.2437(3) 0.96463(7)
C11 C 0.3822(3) 0.3385(3) 0.92248(7)
C12 C 0.2303(3) 0.3317(3) 0.88520(7)
H9 H 0.2486 0.3923 0.8570
C13 C 0.0543(3) 0.2368(3) 0.88955(7)
C14 C 0.0177(4) 0.1466(3) 0.92997(8)
H10 H -0.1034 0.0839 0.9324
C15 C 0.1673(4) 0.1517(3) 0.96725(8)
H11 H 0.1448 0.0911 0.9952
H12? H 0.7027 0.4056 0.9642
loop_
_geom_bond_atom_site_label_1
_geom_bond_atom_site_label_2
_geom_bond_site_symmetry_1
_geom_bond_site_symmetry_2
N1 H1 1_555 1_555
N2 H2 1_555 1_555
C1 N1 1_555 1_555
H3 C1 1_555 1_555
C2 N2 1_555 1_555
C3 N1 1_555 1_555
C4 C3 1_555 1_555
H4 C4 1_555 1_555
C5 C4 1_555 1_555
H5 C5 1_555 1_555
C6 C5 1_555 1_555
H6 C6 1_555 1_555
C7 C2 1_555 1_555
H7 C7 1_555 1_555
N3 O5 1_555 1_555
O1 C8 1_555 1_555
O2 H8 1_555 1_555
O3 C9 1_555 1_555
O4 C9 1_555 1_555
O6 N3 1_555 1_555
C8 O2 1_555 1_555
C9 C11 1_555 1_555
C10 C8 1_555 1_555
C11 C10 1_555 1_555
C12 C11 1_555 1_555
H9 C12 1_555 1_555
C13 N3 1_555 1_555
C14 C13 1_555 1_555
H10 C14 1_555 1_555
C15 C10 1_555 1_555
H11 C15 1_555 1_555
N2 C1 1_555 1_555
C2 C3 1_555 1_555
C6 C7 1_555 1_555
C12 C13 1_555 1_555
C14 C15 1_555 1_555

#END
