
#######################################################################
#
#                 Cambridge Crystallographic Data Centre
#                                CCDC 
#
#######################################################################
#
# If this CIF has been generated from an entry in the Cambridge 
# Structural Database, then it will include bibliographic, chemical, 
# crystal, experimental, refinement or atomic coordinate data resulting 
# from the CCDC's data processing and validation procedures.
#
#######################################################################

data_LUCRIL
_chemical_formula_moiety         
'C48 H48 N32 O16,2(C15 H19 N2 O3 1+),2(Cl1 1-),16(H2 O1)'
_chemical_name_systematic        
'Cucurbit[8]uril bis(1-(2-aminophenoxy)-3-(2-ammoniophenoxy)propan-2-ol) clathrate dichloride hexadecahydrate'
_symmetry_cell_setting           monoclinic
_symmetry_space_group_name_H-M   'P 21/c'
_symmetry_Int_Tables_number      14
_space_group_name_Hall           '-P 2ybc'
loop_
_symmetry_equiv_pos_site_id
_symmetry_equiv_pos_as_xyz
1 x,y,z
2 -x,1/2+y,1/2-z
3 -x,-y,-z
4 x,1/2-y,1/2+z
_cell_length_a                   14.1097(12)
_cell_length_b                   14.0454(12)
_cell_length_c                   24.310(2)
_cell_angle_alpha                90
_cell_angle_beta                 92.507(2)
_cell_angle_gamma                90
_cell_volume                     4813.06
_cell_formula_units_Z            2
loop_
_atom_site_label
_atom_site_type_symbol
_atom_site_fract_x
_atom_site_fract_y
_atom_site_fract_z
O1 O 0.2785(2) 0.8215(2) 0.07003(14)
O2 O 0.5039(2) 0.6684(2) 0.15515(12)
O3 O 0.7714(2) 0.0522(2) 0.01171(13)
O4 O 0.1265(3) 0.6985(3) 0.04643(18)
O5 O 0.0339(3) 0.5615(4) 0.58839(19)
O6 O 0.9579(3) 0.1107(3) 0.0410(2)
O7 O 0.4199(4) 0.0726(3) 0.83679(18)
O8 O 0.2475(10) 0.0820(8) 0.7905(5)
C1 C 0.8042(2) 0.2814(2) 0.12659(15)
C2 C 0.7383(2) 0.3052(2) 0.21189(14)
H1 H 0.7597 0.2724 0.2458
C3 C 0.7054(2) 0.1500(2) 0.16126(15)
H2 H 0.7187 0.1176 0.1960
H3 H 0.7363 0.1146 0.1328
C4 C 0.5720(2) 0.3019(3) 0.24661(14)
H4 H 0.6004 0.2613 0.2751
H5 H 0.5342 0.3496 0.2644
C5 C 0.5652(2) 0.1190(2) 0.10027(14)
C6 C 0.5355(2) 0.1493(2) 0.19202(13)
H6 H 0.5548 0.1077 0.2229
C7 C 0.4426(2) 0.1150(2) 0.16243(13)
H7 H 0.4207 0.0545 0.1774
C8 C 0.4180(2) 0.2661(2) 0.20004(13)
C9 C 0.4112(3) 0.0575(2) 0.06445(14)
H8 H 0.3817 0.0027 0.0809
H9 H 0.4509 0.0346 0.0357
C10 C 0.2741(2) 0.1831(3) 0.16262(13)
H10 H 0.2551 0.1198 0.1737
H11 H 0.2435 0.2285 0.1862
C11 C 0.3323(2) 0.1369(2) -0.01524(13)
C12 C 0.2456(2) 0.1272(2) 0.06413(13)
H12 H 0.2225 0.0654 0.0766
C13 C 0.1818(2) 0.1679(3) 0.01661(14)
H13 H 0.1250 0.1289 0.0094
C14 C 0.1843(2) 0.2744(2) 0.09071(14)
C15 C 0.2048(3) 0.1677(2) -0.08602(14)
H14 H 0.1468 0.1306 -0.0879
H15 H 0.2498 0.1368 -0.1092
C16 C 0.0854(2) 0.3209(3) 0.00953(14)
H16 H 0.0303 0.2817 0.0006
H17 H 0.0666 0.3694 0.0353
C17 C 0.2362(2) 0.3009(2) -0.14797(13)
C18 C 0.1051(2) 0.3199(3) -0.09366(14)
H18 H 0.0452 0.2848 -0.0979
C19 C 0.1091(2) 0.4035(2) -0.13465(14)
H19 H 0.0540 0.4034 -0.1606
C20 C 0.1104(2) 0.4645(3) -0.04533(14)
C21 C 0.2196(3) 0.4346(2) -0.21261(13)
H20 H 0.1632 0.4393 -0.2368
H21 H 0.2660 0.3970 -0.2313
C22 C 0.0866(2) 0.5826(3) -0.12031(16)
H22 H 0.0651 0.6207 -0.0900
H23 H 0.0344 0.5777 -0.1475
C23 C 0.6525(2) 0.4472(2) 0.21667(13)
C24 C 0.8041(2) 0.3895(2) 0.19962(13)
H24 H 0.8576 0.3936 0.2266
N1 N 0.74580(19) 0.2442(2) 0.16459(11)
N2 N 0.60438(19) 0.14881(19) 0.14931(11)
N3 N 0.64721(19) 0.34924(19) 0.21802(11)
N4 N 0.51056(19) 0.24498(19) 0.21071(11)
N5 N 0.46991(19) 0.1054(2) 0.10596(11)
N6 N 0.33775(19) 0.1188(2) 0.04007(11)
N7 N 0.37646(19) 0.1919(2) 0.17148(12)
N8 N 0.2407(2) 0.1990(2) 0.10660(11)
N9 N 0.2430(2) 0.1679(2) -0.02978(11)
N10 N 0.1848(2) 0.2620(2) -0.10737(11)
N11 N 0.1582(2) 0.2623(2) 0.03578(11)
N12 N 0.1149(2) 0.3670(2) -0.04021(11)
N13 N 0.1955(2) 0.3862(2) -0.16224(11)
N14 N 0.7426(2) 0.47108(19) 0.20258(11)
N15 N 0.1101(2) 0.4871(2) -0.09985(12)
N16 N 0.8353(2) 0.3685(2) 0.14490(12)
O9 O 0.82682(19) 0.24196(19) 0.08392(11)
O10 O 0.60687(17) 0.10622(18) 0.05761(10)
O11 O 0.39840(17) 0.12815(17) -0.04659(10)
O12 O 0.30643(18) 0.26609(18) -0.16822(10)
O13 O 0.58894(17) 0.50315(17) 0.22607(10)
O14 O 0.37672(17) 0.33879(17) 0.21397(10)
O15 O 0.16029(17) 0.33977(17) 0.11973(10)
O16 O 0.10804(18) 0.52097(19) -0.00697(10)
C1B C 0.1958(2) 0.7186(2) -0.12659(15)
C2B C 0.2617(2) 0.6948(2) -0.21189(14)
H1B H 0.2403 0.7276 -0.2458
C3B C 0.2946(2) 0.8500(2) -0.16126(15)
H2B H 0.2813 0.8824 -0.1960
H3B H 0.2637 0.8854 -0.1328
C4B C 0.4280(2) 0.6981(3) -0.24661(14)
H4B H 0.3996 0.7387 -0.2751
H5B H 0.4658 0.6504 -0.2644
C5B C 0.4348(2) 0.8810(2) -0.10027(14)
C6B C 0.4645(2) 0.8507(2) -0.19202(13)
H6B H 0.4452 0.8923 -0.2229
C7B C 0.5574(2) 0.8850(2) -0.16243(13)
H7B H 0.5793 0.9455 -0.1774
C8B C 0.5820(2) 0.7339(2) -0.20004(13)
C9B C 0.5888(3) 0.9425(2) -0.06445(14)
H8B H 0.6183 0.9973 -0.0809
H9B H 0.5491 0.9654 -0.0357
C10B C 0.7259(2) 0.8169(3) -0.16262(13)
H10B H 0.7449 0.8802 -0.1737
H11B H 0.7565 0.7715 -0.1862
C11B C 0.6677(2) 0.8631(2) 0.01524(13)
C12B C 0.7544(2) 0.8728(2) -0.06413(13)
H12B H 0.7775 0.9346 -0.0766
C13B C 0.8182(2) 0.8321(3) -0.01661(14)
H13B H 0.8750 0.8711 -0.0094
C14B C 0.8157(2) 0.7256(2) -0.09071(14)
C15B C 0.7952(3) 0.8323(2) 0.08602(14)
H14B H 0.8532 0.8694 0.0879
H15B H 0.7502 0.8632 0.1092
C16B C 0.9146(2) 0.6791(3) -0.00953(14)
H16B H 0.9697 0.7183 -0.0006
H17B H 0.9334 0.6306 -0.0353
C17B C 0.7638(2) 0.6991(2) 0.14797(13)
C18B C 0.8949(2) 0.6801(3) 0.09366(14)
H18B H 0.9548 0.7152 0.0979
C19B C 0.8909(2) 0.5965(2) 0.13465(14)
H19B H 0.9460 0.5966 0.1606
C20B C 0.8896(2) 0.5355(3) 0.04533(14)
C21B C 0.7804(3) 0.5654(2) 0.21261(13)
H20B H 0.8368 0.5607 0.2368
H21B H 0.7340 0.6030 0.2313
C22B C 0.9134(2) 0.4174(3) 0.12031(16)
H22B H 0.9349 0.3793 0.0900
H23B H 0.9656 0.4223 0.1475
C23B C 0.3475(2) 0.5528(2) -0.21667(13)
C24B C 0.1959(2) 0.6105(2) -0.19962(13)
H24B H 0.1424 0.6064 -0.2266
N1B N 0.25420(19) 0.7558(2) -0.16459(11)
N2B N 0.39562(19) 0.85119(19) -0.14931(11)
N3B N 0.35279(19) 0.65076(19) -0.21802(11)
N4B N 0.48944(19) 0.75502(19) -0.21071(11)
N5B N 0.53009(19) 0.8946(2) -0.10596(11)
N6B N 0.66225(19) 0.8812(2) -0.04007(11)
N7B N 0.62354(19) 0.8081(2) -0.17148(12)
N8B N 0.7593(2) 0.8010(2) -0.10660(11)
N9B N 0.7570(2) 0.8321(2) 0.02978(11)
N10B N 0.8152(2) 0.7380(2) 0.10737(11)
N11B N 0.8418(2) 0.7377(2) -0.03578(11)
N12B N 0.8851(2) 0.6330(2) 0.04021(11)
N13B N 0.8045(2) 0.6138(2) 0.16224(11)
N14B N 0.2574(2) 0.52892(19) -0.20258(11)
N15B N 0.8899(2) 0.5129(2) 0.09985(12)
N16B N 0.1647(2) 0.6315(2) -0.14490(12)
O9B O 0.17318(19) 0.75804(19) -0.08392(11)
O10B O 0.39313(17) 0.89378(18) -0.05761(10)
O11B O 0.60160(17) 0.87185(17) 0.04659(10)
O12B O 0.69357(18) 0.73391(18) 0.16822(10)
O13B O 0.41106(17) 0.49685(17) -0.22607(10)
O14B O 0.62328(17) 0.66121(17) -0.21397(10)
O15B O 0.83971(17) 0.66023(17) -0.11973(10)
O16B O 0.89196(18) 0.47903(19) 0.00697(10)
C25 C 0.4329(2) 0.6626(3) 0.01129(15)
C26 C 0.4698(3) 0.6693(3) -0.04021(17)
H25 H 0.5077 0.7209 -0.0489
C27 C 0.4503(3) 0.5995(3) -0.07853(18)
H26 H 0.4751 0.6038 -0.1132
C28 C 0.3940(3) 0.5232(3) -0.06586(17)
H27 H 0.3804 0.4767 -0.0923
C29 C 0.3577(3) 0.5151(3) -0.01407(16)
H28 H 0.3203 0.4631 -0.0056
C30 C 0.3774(2) 0.5855(3) 0.02523(15)
O17 O 0.34589(18) 0.58694(17) 0.07766(10)
C31 C 0.3001(3) 0.5030(3) 0.09713(15)
H29 H 0.3411 0.4482 0.0932
H30 H 0.2416 0.4918 0.0757
C32 C 0.2794(3) 0.5168(3) 0.15640(15)
H31 H 0.2489 0.4587 0.1693
C33 C 0.2122(3) 0.5986(3) 0.16426(15)
H32 H 0.2460 0.6586 0.1629
H33 H 0.1625 0.5985 0.1354
O18 O 0.17203(18) 0.5865(2) 0.21725(11)
C34 C 0.0987(3) 0.6472(3) 0.23033(16)
C35 C 0.0721(3) 0.7275(3) 0.20069(17)
H34 H 0.1029 0.7427 0.1688
C36 C 0.0011(3) 0.7845(3) 0.21785(19)
H35 H -0.0170 0.8381 0.1975
C37 C -0.0442(3) 0.7627(3) 0.2657(2)
H36 H -0.0920 0.8021 0.2778
C38 C -0.0182(3) 0.6821(4) 0.2957(2)
H37 H -0.0488 0.6677 0.3277
C39 C 0.0530(3) 0.6229(3) 0.27816(17)
O19 O 0.36387(18) 0.53287(18) 0.19089(11)
H38 H 0.4105 0.5320 0.1719
N17 N 0.4490(2) 0.7359(2) 0.05335(14)
H39 H 0.4201 0.7194 0.0837
H40 H 0.4257 0.7912 0.0409
H41 H 0.5110 0.7419 0.0610
N18 N 0.0813(3) 0.5423(3) 0.30743(18)
H42 H 0.0544 0.5278 0.3374
H43 H 0.1257 0.5068 0.2956
Cl1 Cl 0.20850(15) 0.56405(11) 0.66521(5)
loop_
_geom_bond_atom_site_label_1
_geom_bond_atom_site_label_2
_geom_bond_site_symmetry_1
_geom_bond_site_symmetry_2
C1 N1 1_555 1_555
C2 H1 1_555 1_555
C3 H2 1_555 1_555
H3 C3 1_555 1_555
C4 H4 1_555 1_555
H5 C4 1_555 1_555
C5 N2 1_555 1_555
C6 H6 1_555 1_555
C7 C6 1_555 1_555
H7 C7 1_555 1_555
C8 N4 1_555 1_555
C9 H8 1_555 1_555
H9 C9 1_555 1_555
C10 H10 1_555 1_555
H11 C10 1_555 1_555
C11 N6 1_555 1_555
C12 H12 1_555 1_555
C13 C12 1_555 1_555
H13 C13 1_555 1_555
C14 N8 1_555 1_555
C15 H14 1_555 1_555
H15 C15 1_555 1_555
C16 H16 1_555 1_555
H17 C16 1_555 1_555
C17 N10 1_555 1_555
C18 H18 1_555 1_555
C19 C18 1_555 1_555
H19 C19 1_555 1_555
C20 N12 1_555 1_555
C21 H20 1_555 1_555
H21 C21 1_555 1_555
C22 H22 1_555 1_555
H23 C22 1_555 1_555
C23 N3 1_555 1_555
C24 C2 1_555 1_555
H24 C24 1_555 1_555
N1 C2 1_555 1_555
N2 C3 1_555 1_555
N3 C2 1_555 1_555
N4 C4 1_555 1_555
N5 C5 1_555 1_555
N6 C9 1_555 1_555
N7 C7 1_555 1_555
N8 C10 1_555 1_555
N9 C11 1_555 1_555
N10 C15 1_555 1_555
N11 C13 1_555 1_555
N12 C16 1_555 1_555
N13 C17 1_555 1_555
N14 C23 1_555 1_555
N15 C19 1_555 1_555
N16 C1 1_555 1_555
O9 C1 1_555 1_555
O10 C5 1_555 1_555
O11 C11 1_555 1_555
O12 C17 1_555 1_555
O13 C23 1_555 1_555
O14 C8 1_555 1_555
O15 C14 1_555 1_555
O16 C20 1_555 1_555
C25 C26 1_555 1_555
C26 H25 1_555 1_555
C27 C26 1_555 1_555
H26 C27 1_555 1_555
C28 C27 1_555 1_555
H27 C28 1_555 1_555
C29 C28 1_555 1_555
H28 C29 1_555 1_555
C30 C25 1_555 1_555
O17 C30 1_555 1_555
C31 O17 1_555 1_555
H29 C31 1_555 1_555
H30 C31 1_555 1_555
C32 C31 1_555 1_555
H31 C32 1_555 1_555
C33 C32 1_555 1_555
H32 C33 1_555 1_555
H33 C33 1_555 1_555
O18 C33 1_555 1_555
C34 O18 1_555 1_555
C35 C34 1_555 1_555
H34 C35 1_555 1_555
C36 C35 1_555 1_555
H35 C36 1_555 1_555
C37 C36 1_555 1_555
H36 C37 1_555 1_555
C38 C37 1_555 1_555
H37 C38 1_555 1_555
C39 C34 1_555 1_555
O19 C32 1_555 1_555
H38 O19 1_555 1_555
N17 C25 1_555 1_555
H39 N17 1_555 1_555
H40 N17 1_555 1_555
H41 N17 1_555 1_555
N18 C39 1_555 1_555
H42 N18 1_555 1_555
H43 N18 1_555 1_555
C1B N1B 1_555 1_555
C2B H1B 1_555 1_555
C3B H2B 1_555 1_555
H3B C3B 1_555 1_555
C4B H4B 1_555 1_555
H5B C4B 1_555 1_555
C5B N2B 1_555 1_555
C6B H6B 1_555 1_555
C7B C6B 1_555 1_555
H7B C7B 1_555 1_555
C8B N4B 1_555 1_555
C9B H8B 1_555 1_555
H9B C9B 1_555 1_555
C10B H10B 1_555 1_555
H11B C10B 1_555 1_555
C11B N6B 1_555 1_555
C12B H12B 1_555 1_555
C13B C12B 1_555 1_555
H13B C13B 1_555 1_555
C14B N8B 1_555 1_555
C15B H14B 1_555 1_555
H15B C15B 1_555 1_555
C16B H16B 1_555 1_555
H17B C16B 1_555 1_555
C17B N10B 1_555 1_555
C18B H18B 1_555 1_555
C19B C18B 1_555 1_555
H19B C19B 1_555 1_555
C20B N12B 1_555 1_555
C21B N14 1_555 1_555
H20B C21B 1_555 1_555
H21B C21B 1_555 1_555
C22B N16 1_555 1_555
H22B C22B 1_555 1_555
H23B C22B 1_555 1_555
C23B N3B 1_555 1_555
C24B C2B 1_555 1_555
H24B C24B 1_555 1_555
N1B C2B 1_555 1_555
N2B C3B 1_555 1_555
N3B C2B 1_555 1_555
N4B C4B 1_555 1_555
N5B C5B 1_555 1_555
N6B C9B 1_555 1_555
N7B C7B 1_555 1_555
N8B C10B 1_555 1_555
N9B C11B 1_555 1_555
N10B C15B 1_555 1_555
N11B C13B 1_555 1_555
N12B C16B 1_555 1_555
N13B C17B 1_555 1_555
N14B C21 1_555 1_555
N15B C19B 1_555 1_555
N16B C22 1_555 1_555
O9B C1B 1_555 1_555
O10B C5B 1_555 1_555
O11B C11B 1_555 1_555
O12B C17B 1_555 1_555
O13B C23B 1_555 1_555
O14B C8B 1_555 1_555
O15B C14B 1_555 1_555
O16B C20B 1_555 1_555
C3 N1 1_555 1_555
C4 N3 1_555 1_555
C6 N2 1_555 1_555
C6 N4 1_555 1_555
C7 N5 1_555 1_555
C8 N7 1_555 1_555
C9 N5 1_555 1_555
C10 N7 1_555 1_555
C12 N6 1_555 1_555
C12 N8 1_555 1_555
C13 N9 1_555 1_555
C14 N11 1_555 1_555
C15 N9 1_555 1_555
C16 N11 1_555 1_555
C18 N10 1_555 1_555
C18 N12 1_555 1_555
C19 N13 1_555 1_555
C20 N15 1_555 1_555
C21 N13 1_555 1_555
C22 N15 1_555 1_555
C24 N14 1_555 1_555
C24 N16 1_555 1_555
C29 C30 1_555 1_555
C38 C39 1_555 1_555
C1B N16B 1_555 1_555
C3B N1B 1_555 1_555
C4B N3B 1_555 1_555
C6B N2B 1_555 1_555
C6B N4B 1_555 1_555
C7B N5B 1_555 1_555
C8B N7B 1_555 1_555
C9B N5B 1_555 1_555
C10B N7B 1_555 1_555
C12B N6B 1_555 1_555
C12B N8B 1_555 1_555
C13B N9B 1_555 1_555
C14B N11B 1_555 1_555
C15B N9B 1_555 1_555
C16B N11B 1_555 1_555
C18B N10B 1_555 1_555
C18B N12B 1_555 1_555
C19B N13B 1_555 1_555
C20B N15B 1_555 1_555
C21B N13B 1_555 1_555
C22B N15B 1_555 1_555
C23B N14B 1_555 1_555
C24B N14B 1_555 1_555
C24B N16B 1_555 1_555

#END
