
#######################################################################
#
#                 Cambridge Crystallographic Data Centre
#                                CCDC 
#
#######################################################################
#
# If this CIF has been generated from an entry in the Cambridge 
# Structural Database, then it will include bibliographic, chemical, 
# crystal, experimental, refinement or atomic coordinate data resulting 
# from the CCDC's data processing and validation procedures.
#
#######################################################################

data_LUDFOF
_chemical_formula_moiety         'C5 H9 N1 O2,C5 H10 N1 O2 1+,N1 O3 1-'
_chemical_name_systematic        'bis(L-Proline) hydrogen nitrate'
_symmetry_cell_setting           orthorhombic
_symmetry_space_group_name_H-M   'P 21 21 21'
_symmetry_Int_Tables_number      19
_space_group_name_Hall           'P 2ac 2ab'
loop_
_symmetry_equiv_pos_site_id
_symmetry_equiv_pos_as_xyz
1 x,y,z
2 1/2-x,-y,1/2+z
3 1/2+x,1/2-y,-z
4 -x,1/2+y,1/2-z
_cell_length_a                   7.2006(6)
_cell_length_b                   7.7110(10)
_cell_length_c                   24.060(3)
_cell_angle_alpha                90
_cell_angle_beta                 90
_cell_angle_gamma                90
_cell_volume                     1335.9
_exptl_crystal_colour            colorless
_exptl_crystal_description       block
_cell_formula_units_Z            4
_exptl_crystal_recrystallization_method water
loop_
_atom_site_label
_atom_site_type_symbol
_atom_site_fract_x
_atom_site_fract_y
_atom_site_fract_z
O1 O 1.1931(3) -0.0793(3) 0.49046(8)
O2 O 1.0311(3) 0.0038(3) 0.41810(8)
C1 C 1.0476(4) -0.0425(3) 0.46762(11)
C2 C 0.8657(4) -0.0524(4) 0.49757(10)
H1 H 0.7794 -0.1230 0.4757
N1 N 0.8923(4) -0.1340(3) 0.55183(9)
H2 H 1.0057 -0.1088 0.5654
H3 H 0.8816 -0.2500 0.5490
C3 C 0.7734(5) 0.1195(4) 0.51134(13)
H4 H 0.8625 0.2029 0.5254
H5 H 0.7108 0.1679 0.4792
C4 C 0.6374(5) 0.0664(5) 0.55541(14)
H6 H 0.6004 0.1648 0.5780
H7 H 0.5275 0.0140 0.5392
C5 C 0.7449(5) -0.0629(5) 0.58893(12)
H8 H 0.8002 -0.0073 0.6211
H9 H 0.6639 -0.1552 0.6017
O3 O 0.5232(3) -0.0304(3) 0.40632(9)
O4 O 0.2852(3) 0.0571(5) 0.35494(9)
H10 H 0.200(8) 0.004(7) 0.389(2)
C6 C 0.4573(4) 0.0281(4) 0.36512(11)
C7 C 0.5786(4) 0.0743(4) 0.31718(10)
H11 H 0.5474 0.1910 0.3041
N2 N 0.7797(3) 0.0672(4) 0.33214(10)
H12 H 0.8234 0.1755 0.3370
H13 H 0.7941 0.0089 0.3643
C8 C 0.5624(5) -0.0517(6) 0.26988(13)
H14 H 0.4650 -0.0175 0.2443
H15 H 0.5373 -0.1681 0.2833
C9 C 0.7500(5) -0.0413(8) 0.24289(15)
H16 H 0.7755 -0.1464 0.2221
H17 H 0.7553 0.0565 0.2176
C10 C 0.8848(5) -0.0199(6) 0.28760(14)
H18 H 0.9887 0.0508 0.2756
H19 H 0.9313 -0.1314 0.3000
N3 N 0.7577(5) 0.4984(4) 0.35805(13)
O5 O 0.6564(5) 0.3986(5) 0.38431(13)
O6 O 0.8670(4) 0.4309(5) 0.32523(12)
O7 O 0.7491(9) 0.6519(4) 0.36692(17)
loop_
_geom_bond_atom_site_label_1
_geom_bond_atom_site_label_2
_geom_bond_site_symmetry_1
_geom_bond_site_symmetry_2
O1 C1 1_555 1_555
O2 C1 1_555 1_555
C1 C2 1_555 1_555
C2 H1 1_555 1_555
N1 C2 1_555 1_555
H2 N1 1_555 1_555
H3 N1 1_555 1_555
C3 C2 1_555 1_555
H4 C3 1_555 1_555
H5 C3 1_555 1_555
C4 C3 1_555 1_555
H6 C4 1_555 1_555
H7 C4 1_555 1_555
C5 N1 1_555 1_555
H8 C5 1_555 1_555
H9 C5 1_555 1_555
O3 C6 1_555 1_555
O4 H10 1_555 1_555
C6 O4 1_555 1_555
C7 C6 1_555 1_555
H11 C7 1_555 1_555
N2 C7 1_555 1_555
H12 N2 1_555 1_555
H13 N2 1_555 1_555
C8 C7 1_555 1_555
H14 C8 1_555 1_555
H15 C8 1_555 1_555
C9 C8 1_555 1_555
H16 C9 1_555 1_555
H17 C9 1_555 1_555
C10 N2 1_555 1_555
H18 C10 1_555 1_555
H19 C10 1_555 1_555
N3 O5 1_555 1_555
O6 N3 1_555 1_555
O7 N3 1_555 1_555
C4 C5 1_555 1_555
C9 C10 1_555 1_555

#END
