
#######################################################################
#
#                 Cambridge Crystallographic Data Centre
#                                CCDC 
#
#######################################################################
#
# If this CIF has been generated from an entry in the Cambridge 
# Structural Database, then it will include bibliographic, chemical, 
# crystal, experimental, refinement or atomic coordinate data resulting 
# from the CCDC's data processing and validation procedures.
#
#######################################################################

data_LUDLAX
_chemical_formula_moiety         'C32 H41 N1 O12'
_chemical_name_systematic        
'11-[bis(acetyloxy)methyl]-4,15-dimethoxy-17-methyl-13-methylene-17-azahexacyclo[10.3.2.1^5,8^.0^2,7^.0^9,14^.0^9,16^]octadec-10-ene-2,5,6-triyl triacetate'
_symmetry_cell_setting           monoclinic
_symmetry_space_group_name_H-M   'P 21'
_symmetry_Int_Tables_number      4
_space_group_name_Hall           'P 2yb'
loop_
_symmetry_equiv_pos_site_id
_symmetry_equiv_pos_as_xyz
1 x,y,z
2 -x,1/2+y,-z
_cell_length_a                   8.4220(10)
_cell_length_b                   14.712(2)
_cell_length_c                   12.984(2)
_cell_angle_alpha                90
_cell_angle_beta                 91.050
_cell_angle_gamma                90
_cell_volume                     1608.51
_exptl_crystal_colour            colorless
_chemical_melting_point          '208-209 deg.C'
_cell_formula_units_Z            2
_exptl_crystal_recrystallization_method n-hexane/acetone
loop_
_atom_site_label
_atom_site_type_symbol
_atom_site_fract_x
_atom_site_fract_y
_atom_site_fract_z
N1 N 0.8657(3) 0.9005(2) 0.7002(2)
O1 O 1.0084(3) 0.7519(2) 0.9133(2)
O2 O 0.7826(3) 0.6679(2) 0.9144(2)
O3 O 0.5239(3) 0.9662(2) 0.6058(2)
O4 O 0.6976(2) 0.9533(1) 0.3399(1)
O5 O 0.8142(3) 1.0875(2) 0.3765(2)
O6 O 1.0908(3) 0.6848(2) 0.2771(2)
O7 O 1.3076(3) 0.6876(2) 0.3812(2)
O8 O 0.8537(2) 0.8166(2) 0.2077(1)
O9 O 0.6061(3) 0.7827(2) 0.1583(2)
O10 O 1.1777(2) 0.8522(2) 0.2663(2)
C1 C 0.8538(4) 0.7104(2) 0.6651(2)
C2 C 0.8538(4) 0.7415(2) 0.7604(2)
C3 C 0.9150(4) 0.6916(3) 0.8522(2)
C4 C 1.1462(5) 0.7250(3) 0.9557(3)
C5 C 1.2174(5) 0.7933(3) 1.0223(3)
C6 C 0.6152(4) 0.8247(2) 0.7252(2)
C7 C 0.7750(7) 0.5891(3) 0.9616(4)
C8 C 0.6337(6) 0.5770(4) 1.0239(4)
C9 C 0.6165(3) 0.8078(2) 0.6105(2)
C10 C 0.5996(3) 0.8981(2) 0.5478(2)
C11 C 0.7705(3) 0.9243(2) 0.5200(2)
C12 C 0.8071(3) 0.9001(2) 0.4083(2)
C13 C 0.7125(4) 1.0446(2) 0.3338(2)
C14 C 0.5877(5) 1.0840(3) 0.2651(3)
C15 C 0.7538(4) 0.8013(2) 0.3868(2)
C16 C 0.7996(4) 0.7358(2) 0.4748(2)
C17 C 0.7875(3) 0.7737(2) 0.5844(2)
C18 C 0.9691(4) 0.7023(2) 0.4481(2)
C19 C 1.0057(4) 0.7452(2) 0.3441(2)
C20 C 1.2436(5) 0.6639(3) 0.3026(3)
C21 C 1.3172(5) 0.6079(3) 0.2205(3)
C22 C 0.8426(4) 0.7599(2) 0.2972(2)
C23 C 0.7247(4) 0.8252(3) 0.1465(2)
C24 C 0.7522(5) 0.8948(3) 0.0655(3)
C25 C 0.9790(3) 0.9183(2) 0.3768(2)
C26 C 1.0914(3) 0.8372(2) 0.3575(2)
C27 C 1.3033(5) 0.9141(4) 0.2770(3)
C28 C 0.8715(4) 0.8663(2) 0.5932(2)
C29 C 0.4887(5) 0.8262(3) 0.7825(3)
C30 C 0.7828(4) 0.8354(2) 0.7671(2)
C31 C 1.0188(4) 0.9287(3) 0.7414(3)
O11 O 1.2094(13) 0.6608(11) 0.9125(7)
O12 O 0.8985(8) 0.5475(5) 0.9831(6)
C32 C 0.4352(13) 1.0271(7) 0.5543(6)
H1 H 0.8924 0.6530 0.6490
H2 H 0.9758 0.6377 0.8325
H3 H 1.3156 0.7706 1.0508
H4 H 1.1463 0.8071 1.0771
H5 H 1.2374 0.8473 0.9832
H6 H 0.6380 0.5188 1.0572
H7 H 0.5405 0.5803 0.9804
H8 H 0.6298 0.6240 1.0750
H9 H 0.5353 0.7634 0.5895
H10 H 0.5377 0.8866 0.4844
H11 H 0.7892 0.9891 0.5328
H12 H 0.6018 1.1486 0.2610
H13 H 0.4850 1.0708 0.2923
H14 H 0.5955 1.0580 0.1976
H15 H 0.6390 0.7990 0.3733
H16 H 0.7283 0.6833 0.4697
H17 H 1.0457 0.7217 0.5002
H18 H 0.9717 0.6365 0.4434
H19 H 1.4252 0.5943 0.2397
H20 H 1.3151 0.6412 0.1568
H21 H 1.2588 0.5523 0.2120
H22 H 0.7951 0.7013 0.2782
H23 H 0.6589 0.9001 0.0223
H24 H 0.8406 0.8767 0.0246
H25 H 0.7747 0.9523 0.0974
H26 H 1.0280 0.9558 0.4300
H27 H 0.9750 0.9545 0.3143
H28 H 1.1668 0.8325 0.4157
H29 H 1.3552 0.9207 0.2122
H30 H 1.3781 0.8921 0.3278
H31 H 1.2628 0.9720 0.2983
H32 H 0.9813 0.8623 0.5698
H33 H 0.7826 0.8568 0.8385
H34 H 1.0072 0.9496 0.8109
H35 H 1.0600 0.9770 0.7000
H36 H 1.0909 0.8782 0.7406
H37 H 0.5010(30) 0.8380(20) 0.8550(30)
H38 H 0.3840(40) 0.8170(20) 0.7590(20)
H39 H 0.3785 1.0639 0.6024
H40 H 0.3609 0.9960 0.5099
H41 H 0.5025 1.0651 0.5139
O13? O 1.1820(19) 0.6464(10) 0.9643(9)
O14? O 0.8268(18) 0.5317(7) 0.8949(10)
C33? C 0.3707(14) 0.9774(10) 0.5895(11)
H42? H 0.3306 1.0205 0.6380
H43? H 0.3173 0.9203 0.5979
H44? H 0.3522 0.9994 0.5207
loop_
_geom_bond_atom_site_label_1
_geom_bond_atom_site_label_2
_geom_bond_site_symmetry_1
_geom_bond_site_symmetry_2
N1 C28 1_555 1_555
O1 C3 1_555 1_555
O2 C3 1_555 1_555
O3 C10 1_555 1_555
O4 C12 1_555 1_555
O5 C13 1_555 1_555
O6 C19 1_555 1_555
O7 C20 1_555 1_555
O8 C22 1_555 1_555
O9 C23 1_555 1_555
O10 C26 1_555 1_555
C1 C2 1_555 1_555
C2 C3 1_555 1_555
C3 H2 1_555 1_555
C4 O1 1_555 1_555
C5 C4 1_555 1_555
C6 C9 1_555 1_555
C7 O2 1_555 1_555
C8 C7 1_555 1_555
C9 C10 1_555 1_555
C10 C11 1_555 1_555
C11 C12 1_555 1_555
C12 C15 1_555 1_555
C13 O4 1_555 1_555
C14 C13 1_555 1_555
C15 C16 1_555 1_555
C16 C17 1_555 1_555
C17 C1 1_555 1_555
C18 C16 1_555 1_555
C19 C18 1_555 1_555
C20 O6 1_555 1_555
C21 C20 1_555 1_555
C22 C15 1_555 1_555
C23 O8 1_555 1_555
C24 C23 1_555 1_555
C25 C12 1_555 1_555
C26 C19 1_555 1_555
C27 O10 1_555 1_555
C28 C11 1_555 1_555
C29 C6 1_555 1_555
C30 N1 1_555 1_555
C31 N1 1_555 1_555
O11 C4 1_555 1_555
O12 C7 1_555 1_555
C32 O3 1_555 1_555
H1 C1 1_555 1_555
H3 C5 1_555 1_555
H4 C5 1_555 1_555
H5 C5 1_555 1_555
H6 C8 1_555 1_555
H7 C8 1_555 1_555
H8 C8 1_555 1_555
H9 C9 1_555 1_555
H10 C10 1_555 1_555
H11 C11 1_555 1_555
H12 C14 1_555 1_555
H13 C14 1_555 1_555
H14 C14 1_555 1_555
H15 C15 1_555 1_555
H16 C16 1_555 1_555
H17 C18 1_555 1_555
H18 C18 1_555 1_555
H19 C21 1_555 1_555
H20 C21 1_555 1_555
H21 C21 1_555 1_555
H22 C22 1_555 1_555
H23 C24 1_555 1_555
H24 C24 1_555 1_555
H25 C24 1_555 1_555
H26 C25 1_555 1_555
H27 C25 1_555 1_555
H28 C26 1_555 1_555
H29 C27 1_555 1_555
H30 C27 1_555 1_555
H31 C27 1_555 1_555
H32 C28 1_555 1_555
H33 C30 1_555 1_555
H34 C31 1_555 1_555
H35 C31 1_555 1_555
H36 C31 1_555 1_555
H37 C29 1_555 1_555
H38 C29 1_555 1_555
H39 C32 1_555 1_555
H40 C32 1_555 1_555
H41 C32 1_555 1_555
C2 C30 1_555 1_555
C6 C30 1_555 1_555
C9 C17 1_555 1_555
C17 C28 1_555 1_555
C19 C22 1_555 1_555
C25 C26 1_555 1_555

#END
