
#######################################################################
#
#                 Cambridge Crystallographic Data Centre
#                                CCDC 
#
#######################################################################
#
# If this CIF has been generated from an entry in the Cambridge 
# Structural Database, then it will include bibliographic, chemical, 
# crystal, experimental, refinement or atomic coordinate data resulting 
# from the CCDC's data processing and validation procedures.
#
#######################################################################

data_LUDLEC
_chemical_formula_moiety         'C28 H20 O2,C4 H8 O1'
_chemical_name_systematic        
'trans-5,10-Diphenyl-5,10-dihydroindeno[2,1-a]indene-5,10-diol tetrahydrofuran solvate'
_symmetry_cell_setting           triclinic
_symmetry_space_group_name_H-M   'P -1'
_symmetry_Int_Tables_number      2
_space_group_name_Hall           '-P 1'
loop_
_symmetry_equiv_pos_site_id
_symmetry_equiv_pos_as_xyz
1 x,y,z
2 -x,-y,-z
_cell_length_a                   9.372(4)
_cell_length_b                   10.346(3)
_cell_length_c                   13.724(5)
_cell_angle_alpha                68.111(18)
_cell_angle_beta                 84.53(2)
_cell_angle_gamma                76.94(2)
_cell_volume                     1202.75
_exptl_crystal_colour            colorless
_exptl_crystal_description       block
_chemical_melting_point          'above 573 K'
_cell_formula_units_Z            2
_exptl_crystal_recrystallization_method hexane/THF
loop_
_atom_site_label
_atom_site_type_symbol
_atom_site_fract_x
_atom_site_fract_y
_atom_site_fract_z
C1 C 0.0152(3) 0.4982(3) 0.45210(17)
C2 C 0.0936(3) 0.6154(3) 0.38376(18)
C3 C 0.2473(3) 0.5564(3) 0.35122(18)
C4 C 0.2914(3) 0.5918(3) 0.24691(19)
H1 H 0.2246 0.6538 0.1931
C5 C 0.4328(3) 0.5374(3) 0.2206(2)
H2 H 0.4618 0.5620 0.1488
C6 C 0.5311(3) 0.4485(3) 0.2972(2)
H3 H 0.6279 0.4118 0.2788
C7 C 0.4878(3) 0.4129(3) 0.4014(2)
H4 H 0.5551 0.3509 0.4548
C8 C 0.3476(3) 0.4665(3) 0.4284(2)
H5 H 0.3195 0.4417 0.5003
O1 O 0.01546(19) 0.70707(18) 0.28988(12)
H6 H -0.0742 0.7260 0.3041
C9 C -0.0315(3) 0.3778(3) 0.44238(18)
C10 C -0.0191(3) 0.3269(3) 0.3603(2)
H7 H 0.0248 0.3736 0.2950
C11 C -0.0732(3) 0.2052(3) 0.3774(2)
H8 H -0.0662 0.1683 0.3229
C12 C -0.1366(3) 0.1379(3) 0.4721(2)
H9 H -0.1730 0.0552 0.4819
C13 C -0.1482(3) 0.1889(3) 0.5538(2)
H10 H -0.1916 0.1416 0.6191
C14 C 0.0957(3) 0.6910(3) 0.46168(18)
C1A C -0.0152(3) 0.5018(3) 0.54790(17)
C2A C -0.0936(3) 0.3846(3) 0.61624(18)
C3A C -0.2473(3) 0.4436(3) 0.64878(18)
C4A C -0.2914(3) 0.4082(3) 0.75309(19)
H1A H -0.2246 0.3462 0.8069
C5A C -0.4328(3) 0.4626(3) 0.7794(2)
H2A H -0.4618 0.4380 0.8512
C6A C -0.5311(3) 0.5515(3) 0.7028(2)
H3A H -0.6279 0.5882 0.7212
C7A C -0.4878(3) 0.5871(3) 0.5986(2)
H4A H -0.5551 0.6491 0.5452
C8A C -0.3476(3) 0.5335(3) 0.5716(2)
H5A H -0.3195 0.5583 0.4997
O1A O -0.01546(19) 0.29293(18) 0.71012(12)
H6A H 0.0742 0.2740 0.6959
C9A C 0.0315(3) 0.6222(3) 0.55762(18)
C10A C 0.0191(3) 0.6731(3) 0.6397(2)
H7A H -0.0248 0.6264 0.7050
C11A C 0.0732(3) 0.7948(3) 0.6226(2)
H8A H 0.0662 0.8317 0.6771
C12A C 0.1366(3) 0.8621(3) 0.5279(2)
H9A H 0.1730 0.9448 0.5181
C13A C 0.1482(3) 0.8111(3) 0.4462(2)
H10A H 0.1916 0.8584 0.3809
C14A C -0.0957(3) 0.3090(3) 0.53832(18)
C15 C 0.0207(5) 0.0762(4) 1.1001(3)
C16 C 0.0938(6) 0.2051(5) 1.0692(3)
C17 C 0.0929(8) 0.2962(6) 0.9640(5)
H11 H 0.0474 0.2793 0.9122
C18 C 0.1608(3) 0.4135(3) 0.9367(2)
H12 H 0.1696 0.4709 0.8648
C19 C 0.2142(3) 0.4458(3) 1.0124(2)
H14 H 0.2485 0.5316 0.9938
C20 C 0.2182(3) 0.3538(3) 1.1155(2)
H15 H 0.2565 0.3755 1.1679
C21 C 0.1661(3) 0.2296(3) 1.1425(2)
H16 H 0.1798 0.1607 1.2116
O2 O 0.0966(10) -0.0237(11) 1.2022(8)
H18 H 0.0903 -0.1076 1.2128
C22 C 0.0592(8) -0.0010(6) 1.0254(5)
C23 C 0.1912(6) -0.0751(5) 0.9879(5)
C24 C -0.1471(5) 0.1207(5) 1.0876(4)
C25 C -0.2490(6) 0.1936(6) 1.1379(4)
H19 H -0.2191 0.2228 1.1893
C26 C -0.3965(12) 0.2242(15) 1.1126(11)
H20 H -0.4672 0.2767 1.1457
C27 C -0.4406(7) 0.1785(6) 1.0395(5)
H21 H -0.5418 0.1971 1.0247
C28 C 0.3372(9) -0.1049(7) 1.0129(5)
H22 H 0.3673 -0.0763 1.0646
C15A C -0.0207(5) -0.0762(4) 0.8999(3)
C16A C -0.0938(6) -0.2051(5) 0.9308(3)
C17A C -0.0929(8) -0.2962(6) 1.0360(5)
H11A H -0.0474 -0.2793 1.0878
C18A C -0.1608(3) -0.4135(3) 1.0633(2)
H12A H -0.1696 -0.4709 1.1352
C19A C -0.2142(3) -0.4458(3) 0.9876(2)
H14A H -0.2485 -0.5316 1.0062
C20A C -0.2182(3) -0.3538(3) 0.8845(2)
H15A H -0.2565 -0.3755 0.8321
C21A C -0.1661(3) -0.2296(3) 0.8575(2)
H16A H -0.1798 -0.1607 0.7884
O2A O -0.0966(10) 0.0237(11) 0.7978(8)
H18A H -0.0903 0.1076 0.7872
C22A C -0.0592(8) 0.0010(6) 0.9746(5)
C23A C -0.1912(6) 0.0751(5) 1.0121(5)
C24A C 0.1471(5) -0.1207(5) 0.9124(4)
C25A C 0.2490(6) -0.1936(6) 0.8621(4)
H19A H 0.2191 -0.2228 0.8107
C26A C 0.3965(12) -0.2242(15) 0.8874(11)
H20A H 0.4672 -0.2767 0.8543
C27A C 0.4406(7) -0.1785(6) 0.9605(5)
H21A H 0.5418 -0.1971 0.9753
C28A C -0.3372(9) 0.1049(7) 0.9871(5)
H22A H -0.3673 0.0763 0.9354
O4 O 0.2666(2) 0.2223(2) 0.66350(14)
C39 C 0.3084(4) 0.1187(4) 0.6145(2)
H29 H 0.2865 0.1628 0.5386
H30 H 0.2549 0.0402 0.6470
C40 C 0.4729(4) 0.0630(4) 0.6315(3)
H31 H 0.4954 -0.0416 0.6681
H32 H 0.5270 0.0874 0.5637
C41 C 0.5128(3) 0.1372(4) 0.6989(2)
H33 H 0.5820 0.0707 0.7546
H34 H 0.5570 0.2192 0.6558
C42 C 0.3685(3) 0.1852(3) 0.7447(2)
H35 H 0.3438 0.1076 0.8082
H36 H 0.3699 0.2683 0.7637
H13? H 0.1373 0.4844 0.8693
H17? H 0.1386 0.1802 1.2128
C29? C 0.1265(11) 0.0270(8) 1.0835(7)
C30? C 0.1552(14) 0.1785(12) 1.0601(8)
C31? C 0.1415(14) 0.2774(15) 0.9592(12)
H23? H 0.1183 0.2511 0.9042
O3? O 0.0520(14) -0.011(2) 1.2044(15)
H24? H 0.0283 -0.0902 1.2240
C32? C 0.2351(15) -0.0549(10) 1.0271(9)
C33? C 0.1696(13) -0.0920(13) 0.9577(12)
C34? C 0.2513(17) -0.1688(14) 0.9010(10)
H25? H 0.2062 -0.1967 0.8550
C35? C 0.402(2) -0.204(3) 0.913(2)
H26? H 0.4615 -0.2515 0.8718
C36? C 0.4692(17) -0.1712(17) 0.9851(11)
H27? H 0.5719 -0.2018 0.9958
C37? C 0.3845(17) -0.0942(14) 1.0401(10)
H28? H 0.4291 -0.0679 1.0873
C38? C 0.013(2) -0.0310(13) 0.9673(11)
loop_
_geom_bond_atom_site_label_1
_geom_bond_atom_site_label_2
_geom_bond_site_symmetry_1
_geom_bond_site_symmetry_2
C1 C2 1_555 1_555
C2 C3 1_555 1_555
C3 C4 1_555 1_555
C4 H1 1_555 1_555
C5 C4 1_555 1_555
H2 C5 1_555 1_555
C6 C5 1_555 1_555
H3 C6 1_555 1_555
C7 C6 1_555 1_555
H4 C7 1_555 1_555
C8 C3 1_555 1_555
H5 C8 1_555 1_555
O1 C2 1_555 1_555
H6 O1 1_555 1_555
C9 C1 1_555 1_555
C10 C9 1_555 1_555
H7 C10 1_555 1_555
C11 C10 1_555 1_555
H8 C11 1_555 1_555
C12 C11 1_555 1_555
H9 C12 1_555 1_555
C13 C12 1_555 1_555
H10 C13 1_555 1_555
C14 C2 1_555 1_555
C15 C16 1_555 1_555
C16 C17 1_555 1_555
C17 H11 1_555 1_555
C18 C17 1_555 1_555
H12 C18 1_555 1_555
C19 C18 1_555 1_555
H14 C19 1_555 1_555
C20 C19 1_555 1_555
H15 C20 1_555 1_555
C21 C16 1_555 1_555
H16 C21 1_555 1_555
O2 C15 1_555 1_555
H18 O2 1_555 1_555
C22 C15 1_555 1_555
C23 C22 1_555 1_555
C24 C15 1_555 1_555
C25 C24 1_555 1_555
H19 C25 1_555 1_555
C26 C25 1_555 1_555
H20 C26 1_555 1_555
C27 C26 1_555 1_555
H21 C27 1_555 1_555
C28 C23 1_555 1_555
H22 C28 1_555 1_555
O4 C39 1_555 1_555
C39 H29 1_555 1_555
H30 C39 1_555 1_555
C40 C39 1_555 1_555
H31 C40 1_555 1_555
H32 C40 1_555 1_555
C41 C40 1_555 1_555
H33 C41 1_555 1_555
H34 C41 1_555 1_555
C42 O4 1_555 1_555
H35 C42 1_555 1_555
H36 C42 1_555 1_555
C1A C1 1_555 1_555
C2A C1A 1_555 1_555
C3A C2A 1_555 1_555
C4A C3A 1_555 1_555
H1A C4A 1_555 1_555
C5A C4A 1_555 1_555
H2A C5A 1_555 1_555
C6A C5A 1_555 1_555
H3A C6A 1_555 1_555
C7A C6A 1_555 1_555
H4A C7A 1_555 1_555
C8A C3A 1_555 1_555
H5A C8A 1_555 1_555
O1A C2A 1_555 1_555
H6A O1A 1_555 1_555
C9A C14 1_555 1_555
C10A C9A 1_555 1_555
H7A C10A 1_555 1_555
C11A C10A 1_555 1_555
H8A C11A 1_555 1_555
C12A C11A 1_555 1_555
H9A C12A 1_555 1_555
C13A C14 1_555 1_555
H10A C13A 1_555 1_555
C14A C9 1_555 1_555
C15A C16A 1_555 1_555
C16A C17A 1_555 1_555
C17A H11A 1_555 1_555
C18A C17A 1_555 1_555
H12A C18A 1_555 1_555
C19A C18A 1_555 1_555
H14A C19A 1_555 1_555
C20A C19A 1_555 1_555
H15A C20A 1_555 1_555
C21A C16A 1_555 1_555
H16A C21A 1_555 1_555
O2A C15A 1_555 1_555
H18A O2A 1_555 1_555
C22A C22 1_555 1_555
C23A C24 1_555 1_555
C24A C23 1_555 1_555
C25A C24A 1_555 1_555
H19A C25A 1_555 1_555
C26A C25A 1_555 1_555
H20A C26A 1_555 1_555
C27A C28 1_555 1_555
H21A C27A 1_555 1_555
C28A C27 1_555 1_555
H22A C28A 1_555 1_555
C7 C8 1_555 1_555
C13 C14A 1_555 1_555
C20 C21 1_555 1_555
C41 C42 1_555 1_555
C1A C9A 1_555 1_555
C2A C14A 1_555 1_555
C7A C8A 1_555 1_555
C12A C13A 1_555 1_555
C15A C22A 1_555 1_555
C15A C24A 1_555 1_555
C20A C21A 1_555 1_555
C22A C23A 1_555 1_555
C23A C28A 1_555 1_555
C26A C27A 1_555 1_555

#END
