
#######################################################################
#
#                 Cambridge Crystallographic Data Centre
#                                CCDC 
#
#######################################################################
#
# If this CIF has been generated from an entry in the Cambridge 
# Structural Database, then it will include bibliographic, chemical, 
# crystal, experimental, refinement or atomic coordinate data resulting 
# from the CCDC's data processing and validation procedures.
#
#######################################################################

data_LUDPIL
_chemical_formula_moiety         'C7 H6 N2 S2'
_chemical_name_systematic        
2-(methylsulfanyl)[1,3]thiazolo[5,4-b]pyridine
_symmetry_cell_setting           orthorhombic
_symmetry_space_group_name_H-M   'P 21 21 21'
_symmetry_Int_Tables_number      19
_space_group_name_Hall           'P 2ac 2ab'
loop_
_symmetry_equiv_pos_site_id
_symmetry_equiv_pos_as_xyz
1 x,y,z
2 1/2-x,-y,1/2+z
3 -x,1/2+y,1/2-z
4 1/2+x,1/2-y,-z
_cell_length_a                   4.9698(13)
_cell_length_b                   10.634(3)
_cell_length_c                   15.259(4)
_cell_angle_alpha                90
_cell_angle_beta                 90
_cell_angle_gamma                90
_cell_volume                     806.421
_exptl_crystal_colour            yellow
_exptl_crystal_description       block
_cell_formula_units_Z            4
loop_
_atom_site_label
_atom_site_type_symbol
_atom_site_fract_x
_atom_site_fract_y
_atom_site_fract_z
C1 C 0.8115(4) 0.94296(19) 0.69373(13)
C2 C 0.5003(6) 0.8054(2) 0.73981(16)
H1 H 0.3830 0.7761 0.7827
C3 C 0.5054(5) 0.7433(2) 0.66000(16)
H2 H 0.3959 0.6735 0.6511
C4 C 0.6706(5) 0.7840(2) 0.59433(15)
H3 H 0.6759 0.7431 0.5405
C5 C 0.8308(4) 0.88873(18) 0.61071(13)
C6 C 1.1248(4) 1.03985(18) 0.59102(13)
C7 C 1.4014(6) 1.0641(3) 0.43911(16)
H4 H 1.4548 0.9781 0.4471
H5 H 1.5361 1.1076 0.4057
H6 H 1.2330 1.0670 0.4084
N1 N 0.6544(4) 0.90519(18) 0.75895(12)
N2 N 1.0100(4) 0.94521(16) 0.55361(11)
S1 S 1.03099(12) 1.07065(5) 0.70012(4)
S2 S 1.36483(14) 1.13799(6) 0.54387(4)
loop_
_geom_bond_atom_site_label_1
_geom_bond_atom_site_label_2
_geom_bond_site_symmetry_1
_geom_bond_site_symmetry_2
C1 C5 1_555 1_555
C2 H1 1_555 1_555
C3 C2 1_555 1_555
H2 C3 1_555 1_555
C4 C3 1_555 1_555
H3 C4 1_555 1_555
C5 C4 1_555 1_555
C6 N2 1_555 1_555
C7 H4 1_555 1_555
H5 C7 1_555 1_555
H6 C7 1_555 1_555
N1 C1 1_555 1_555
N2 C5 1_555 1_555
S1 C1 1_555 1_555
S2 C6 1_555 1_555
C2 N1 1_555 1_555
C6 S1 1_555 1_555
C7 S2 1_555 1_555

#END
