
#######################################################################
#
#                 Cambridge Crystallographic Data Centre
#                                CCDC 
#
#######################################################################
#
# If this CIF has been generated from an entry in the Cambridge 
# Structural Database, then it will include bibliographic, chemical, 
# crystal, experimental, refinement or atomic coordinate data resulting 
# from the CCDC's data processing and validation procedures.
#
#######################################################################

data_LUDSIO
_chemical_formula_moiety         'C22 H23 N3 O4'
_chemical_name_systematic        
't-butyl 2-(4-allyl-4-methyl-2-oxo-1,4-dihydro-2H-3,1-benzoxazin-6-yl)-5-cyano-1H-pyrrole-1-carboxylate'
_symmetry_cell_setting           triclinic
_symmetry_space_group_name_H-M   'P -1'
_symmetry_Int_Tables_number      2
_space_group_name_Hall           '-P 1'
loop_
_symmetry_equiv_pos_site_id
_symmetry_equiv_pos_as_xyz
1 x,y,z
2 -x,-y,-z
_cell_length_a                   6.992(3)
_cell_length_b                   8.159(4)
_cell_length_c                   18.778(8)
_cell_angle_alpha                92.118(7)
_cell_angle_beta                 93.463(7)
_cell_angle_gamma                101.623(7)
_cell_volume                     1046.04
_cell_formula_units_Z            2
loop_
_atom_site_label
_atom_site_type_symbol
_atom_site_fract_x
_atom_site_fract_y
_atom_site_fract_z
C1 C 0.6185(4) 0.0262(3) 0.29860(15)
C2 C 0.5426(3) 0.0827(3) 0.23449(12)
C3 C 0.5903(3) 0.0528(3) 0.16707(13)
H1 H 0.6914 0.0015 0.1543
C4 C 0.4604(3) 0.1127(3) 0.12013(12)
H2 H 0.4615 0.1084 0.0706
C5 C 0.3318(3) 0.1785(2) 0.15855(10)
C6 C 0.2644(3) 0.1821(2) 0.28792(11)
C7 C 0.2919(5) 0.1923(5) 0.41884(13)
C8 C 0.1873(5) 0.0095(5) 0.42196(18)
H3 H 0.1560 -0.0133 0.4702
H4 H 0.2711 -0.0624 0.4063
H5 H 0.0690 -0.0105 0.3914
C9 C 0.4764(6) 0.2357(6) 0.46872(16)
H6 H 0.5404 0.3497 0.4632
H7 H 0.5631 0.1625 0.4573
H8 H 0.4423 0.2223 0.5172
C10 C 0.1610(6) 0.3160(6) 0.42799(18)
H9 H 0.2312 0.4262 0.4191
H10 H 0.1200 0.3147 0.4759
H11 H 0.0481 0.2859 0.3948
C11 C 0.1742(3) 0.2607(2) 0.13209(10)
C12 C 0.0564(3) 0.1902(3) 0.07201(11)
H12 H 0.0777 0.0917 0.0503
C13 C -0.0918(3) 0.2630(3) 0.04379(11)
H13 H -0.1671 0.2157 0.0028
C14 C -0.1266(3) 0.4069(2) 0.07717(10)
C15 C -0.0100(3) 0.4816(2) 0.13733(10)
C16 C 0.1411(3) 0.4092(2) 0.16322(10)
H14 H 0.2223 0.4606 0.2022
C17 C -0.2933(3) 0.6384(3) 0.06989(11)
C18 C -0.0695(3) 0.6307(2) 0.17318(10)
C19 C 0.0995(3) 0.7599(3) 0.20796(13)
H15 H 0.1973 0.7895 0.1743
H16 H 0.1554 0.7142 0.2487
H17 H 0.0532 0.8579 0.2229
C20 C -0.2319(4) 0.5742(3) 0.22425(12)
H18 H -0.2887 0.6696 0.2368
H19 H -0.3341 0.4905 0.1990
C21 C -0.1688(5) 0.5055(4) 0.28945(15)
H20 H -0.1163 0.4098 0.2851
C22 C -0.1799(8) 0.5672(6) 0.35376(18)
H21 H -0.2315 0.6627 0.3603
H22 H -0.1361 0.5156 0.3931
N1 N 0.6817(4) -0.0261(4) 0.34850(15)
N2 N 0.3818(2) 0.16217(19) 0.23038(8)
N3 N -0.2812(2) 0.4799(2) 0.05235(9)
H23 H -0.3750 0.4177 0.0173
O1 O 0.3777(2) 0.2122(2) 0.34739(8)
O2 O 0.0917(2) 0.1707(2) 0.27973(8)
O3 O -0.1559(2) 0.72368(17) 0.11812(8)
O4 O -0.4167(2) 0.70871(19) 0.04325(8)
loop_
_geom_bond_atom_site_label_1
_geom_bond_atom_site_label_2
_geom_bond_site_symmetry_1
_geom_bond_site_symmetry_2
C1 C2 1_555 1_555
C2 C3 1_555 1_555
C3 H1 1_555 1_555
C4 C3 1_555 1_555
H2 C4 1_555 1_555
C5 C4 1_555 1_555
C6 N2 1_555 1_555
C7 C8 1_555 1_555
C8 H3 1_555 1_555
H4 C8 1_555 1_555
H5 C8 1_555 1_555
C9 C7 1_555 1_555
H6 C9 1_555 1_555
H7 C9 1_555 1_555
H8 C9 1_555 1_555
C10 C7 1_555 1_555
H9 C10 1_555 1_555
H10 C10 1_555 1_555
H11 C10 1_555 1_555
C11 C5 1_555 1_555
C12 C11 1_555 1_555
H12 C12 1_555 1_555
C13 C12 1_555 1_555
H13 C13 1_555 1_555
C14 C13 1_555 1_555
C15 C14 1_555 1_555
C16 C11 1_555 1_555
H14 C16 1_555 1_555
C17 N3 1_555 1_555
C18 C15 1_555 1_555
C19 C18 1_555 1_555
H15 C19 1_555 1_555
H16 C19 1_555 1_555
H17 C19 1_555 1_555
C20 C18 1_555 1_555
H18 C20 1_555 1_555
H19 C20 1_555 1_555
C21 C20 1_555 1_555
H20 C21 1_555 1_555
C22 C21 1_555 1_555
H21 C22 1_555 1_555
H22 C22 1_555 1_555
N1 C1 1_555 1_555
N2 C2 1_555 1_555
N3 C14 1_555 1_555
H23 N3 1_555 1_555
O1 C6 1_555 1_555
O2 C6 1_555 1_555
O3 C17 1_555 1_555
O4 C17 1_555 1_555
C5 N2 1_555 1_555
C7 O1 1_555 1_555
C15 C16 1_555 1_555
C18 O3 1_555 1_555

#END
