
#######################################################################
#
#                 Cambridge Crystallographic Data Centre
#                                CCDC 
#
#######################################################################
#
# If this CIF has been generated from an entry in the Cambridge 
# Structural Database, then it will include bibliographic, chemical, 
# crystal, experimental, refinement or atomic coordinate data resulting 
# from the CCDC's data processing and validation procedures.
#
#######################################################################

data_LUDTUA
_chemical_formula_moiety         'C21 H34 O4'
_chemical_name_systematic        
(3R,5R,6R,8S,9R,10R,13R,14R,17S,20R)-3,5-Cyclopregnane-6,8,14,20-tetraol
_chemical_properties_biological  'tested for anticancer activity'
_symmetry_cell_setting           monoclinic
_symmetry_space_group_name_H-M   'C 2'
_symmetry_Int_Tables_number      5
_space_group_name_Hall           'C 2y'
loop_
_symmetry_equiv_pos_site_id
_symmetry_equiv_pos_as_xyz
1 x,y,z
2 -x,y,-z
3 1/2+x,1/2+y,z
4 1/2-x,1/2+y,-z
_cell_length_a                   17.854(10)
_cell_length_b                   7.164(4)
_cell_length_c                   16.135(8)
_cell_angle_alpha                90
_cell_angle_beta                 107.171(13)
_cell_angle_gamma                90
_cell_volume                     1971.78
_exptl_crystal_colour            colorless
_exptl_crystal_description       block
_chemical_melting_point          '250-251 deg.C'
_cell_formula_units_Z            4
loop_
_atom_site_label
_atom_site_type_symbol
_atom_site_fract_x
_atom_site_fract_y
_atom_site_fract_z
O1 O 0.50942(8) 1.03454(18) 0.66285(8)
H1 H 0.5561 1.0229 0.6672
C1 C 0.48807(10) 0.9041(2) 0.72046(10)
C2 C 0.39923(10) 0.8645(2) 0.67591(10)
C3 C 0.34074(10) 1.0252(2) 0.67985(10)
O2 O 0.39153(7) 0.82273(18) 0.58576(7)
H2 H 0.4232 0.8852 0.5697
O3 O 0.65388(8) 0.8762(2) 0.70860(9)
H3 H 0.6524 0.8178 0.6644
C4 C 0.53597(10) 0.7255(2) 0.72588(11)
H4 H 0.5262 0.6732 0.6682
H5 H 0.5192 0.6349 0.7613
C5 C 0.50292(10) 0.9907(2) 0.81179(10)
H6 H 0.4850 0.8977 0.8463
C6 C 0.59135(11) 1.0270(3) 0.86083(11)
C7 C 0.36601(10) 0.6969(2) 0.71086(12)
H7 H 0.3790 0.7021 0.7736
H8 H 0.3859 0.5812 0.6943
C8 C 0.62433(10) 0.7612(3) 0.76482(12)
H9 H 0.6519 0.6412 0.7730
C9 C 0.45041(13) 1.1614(3) 0.80704(13)
H10 H 0.4606 1.2160 0.8643
H11 H 0.4624 1.2543 0.7691
C10 C 0.64003(11) 0.8564(3) 0.85130(12)
C11 C 0.36447(11) 1.1068(3) 0.77290(12)
H12 H 0.3326 1.2160 0.7736
H13 H 0.3531 1.0151 0.8118
C12 C 0.27763(11) 0.7130(3) 0.66894(15)
H14 H 0.2495 0.6504 0.7040
H15 H 0.2626 0.6573 0.6116
C13 C 0.25919(10) 0.9247(2) 0.66314(11)
H16 H 0.2391 0.9559 0.7117
O4 O 0.17345(10) 1.1615(2) 0.57803(8)
H17 H 0.1536 1.1952 0.5278
C14 C 0.19371(11) 0.9667(3) 0.57929(11)
H18 H 0.2127 0.9396 0.5294
C15 C 0.12006(11) 0.8518(4) 0.57181(14)
H19 H 0.1013 0.8775 0.6206
H20 H 0.1322 0.7214 0.5709
H21 H 0.0804 0.8843 0.5192
C16 C 0.34200(13) 1.1832(3) 0.61613(13)
H22 H 0.3084 1.2826 0.6233
H23 H 0.3238 1.1366 0.5578
H24 H 0.3946 1.2291 0.6274
C17 C 0.62240(14) 1.2090(3) 0.83334(17)
H25 H 0.6781 1.2162 0.8597
H26 H 0.5975 1.3133 0.8517
H27 H 0.6111 1.2113 0.7714
C18 C 0.72197(13) 0.8425(4) 0.91276(15)
H28 H 0.7430 0.9506 0.9482
H29 H 0.7602 0.7708 0.8942
C19 C 0.65564(13) 0.7375(4) 0.93201(13)
H30 H 0.6536 0.6013 0.9262
C20 C 0.60260(14) 1.0293(4) 0.96029(13)
H31 H 0.6472 1.1067 0.9896
H32 H 0.5563 1.0796 0.9719
C21 C 0.61640(16) 0.8295(5) 0.99233(13)
H33 H 0.6500 0.8255 1.0518
H34 H 0.5672 0.7683 0.9892
loop_
_geom_bond_atom_site_label_1
_geom_bond_atom_site_label_2
_geom_bond_site_symmetry_1
_geom_bond_site_symmetry_2
O1 H1 1_555 1_555
C1 O1 1_555 1_555
C2 C1 1_555 1_555
C3 C2 1_555 1_555
O2 C2 1_555 1_555
H2 O2 1_555 1_555
O3 H3 1_555 1_555
C4 C1 1_555 1_555
H4 C4 1_555 1_555
H5 C4 1_555 1_555
C5 C1 1_555 1_555
H6 C5 1_555 1_555
C6 C5 1_555 1_555
C7 C2 1_555 1_555
H7 C7 1_555 1_555
H8 C7 1_555 1_555
C8 O3 1_555 1_555
H9 C8 1_555 1_555
C9 C5 1_555 1_555
H10 C9 1_555 1_555
H11 C9 1_555 1_555
C10 C6 1_555 1_555
C11 C3 1_555 1_555
H12 C11 1_555 1_555
H13 C11 1_555 1_555
C12 C7 1_555 1_555
H14 C12 1_555 1_555
H15 C12 1_555 1_555
C13 C3 1_555 1_555
H16 C13 1_555 1_555
O4 H17 1_555 1_555
C14 C13 1_555 1_555
H18 C14 1_555 1_555
C15 C14 1_555 1_555
H19 C15 1_555 1_555
H20 C15 1_555 1_555
H21 C15 1_555 1_555
C16 C3 1_555 1_555
H22 C16 1_555 1_555
H23 C16 1_555 1_555
H24 C16 1_555 1_555
C17 C6 1_555 1_555
H25 C17 1_555 1_555
H26 C17 1_555 1_555
H27 C17 1_555 1_555
C18 C10 1_555 1_555
H28 C18 1_555 1_555
H29 C18 1_555 1_555
C19 C10 1_555 1_555
H30 C19 1_555 1_555
C20 C6 1_555 1_555
H31 C20 1_555 1_555
H32 C20 1_555 1_555
C21 C19 1_555 1_555
H33 C21 1_555 1_555
H34 C21 1_555 1_555
C4 C8 1_555 1_555
C8 C10 1_555 1_555
C9 C11 1_555 1_555
C12 C13 1_555 1_555
O4 C14 1_555 1_555
C18 C19 1_555 1_555
C20 C21 1_555 1_555

#END
