
#######################################################################
#
#                 Cambridge Crystallographic Data Centre
#                                CCDC 
#
#######################################################################
#
# If this CIF has been generated from an entry in the Cambridge 
# Structural Database, then it will include bibliographic, chemical, 
# crystal, experimental, refinement or atomic coordinate data resulting 
# from the CCDC's data processing and validation procedures.
#
#######################################################################

data_LUDZAM
_chemical_formula_moiety         'C30 H35 F2 N1 O2'
_chemical_name_systematic        
N-(((1RS,4RS)-3,3-Difluoro-4-hydroxycyclohexyl)methyl)-2-(2-naphthyl)-N-(4-pentylphenyl)acetamide
_chemical_properties_biological  
'tested for inhibition of the malarial aspartic proteases plasmepsin II and IV and human cathepsins Cath D and Cath E'
_symmetry_cell_setting           monoclinic
_symmetry_space_group_name_H-M   'P 21/n'
_symmetry_Int_Tables_number      14
_space_group_name_Hall           '-P 2yn'
loop_
_symmetry_equiv_pos_site_id
_symmetry_equiv_pos_as_xyz
1 x,y,z
2 1/2-x,1/2+y,1/2-z
3 -x,-y,-z
4 1/2+x,1/2-y,1/2+z
_cell_length_a                   9.4492(4)
_cell_length_b                   16.4318(8)
_cell_length_c                   16.9333(7)
_cell_angle_alpha                90
_cell_angle_beta                 96.750(3)
_cell_angle_gamma                90
_cell_volume                     2610.96
_exptl_crystal_colour            colorless
_exptl_crystal_description       plate
_cell_formula_units_Z            4
loop_
_atom_site_label
_atom_site_type_symbol
_atom_site_fract_x
_atom_site_fract_y
_atom_site_fract_z
C1 C 0.5167(15) 0.4676(6) 0.3885(10)
C2 C 0.5619(11) 0.4089(5) 0.4207(6)
C3 C 0.7041(12) 0.4206(6) 0.4734(6)
C4 C 0.7749(10) 0.4911(6) 0.4808(5)
C5 C 0.7912(8) 0.6407(5) 0.4500(5)
C6 C 0.7310(8) 0.6981(3) 0.4019(4)
C7 C 0.6094(11) 0.6797(5) 0.3532(4)
C8 C 0.5342(12) 0.6172(6) 0.3500(6)
C9 C 0.5880(7) 0.5560(5) 0.3877(5)
C10 C 0.7119(10) 0.5535(4) 0.4413(5)
C11 C 0.2983(6) 0.2006(3) 0.3603(3)
C12 C 0.1666(7) 0.2294(4) 0.3330(3)
C13 C 0.0485(6) 0.2079(4) 0.3714(3)
C14 C 0.0631(6) 0.1583(4) 0.4365(3)
C15 C 0.1964(6) 0.1306(3) 0.4631(3)
C16 C 0.3165(5) 0.1510(3) 0.4267(3)
C17 C 0.4898(10) 0.3280(4) 0.4190(6)
C18 C 0.5171(10) 0.2764(4) 0.3449(6)
C19 C 0.4325(8) 0.1718(3) 0.2471(3)
C20 C 0.4802(5) 0.0848(3) 0.2636(2)
C21 C 0.6303(5) 0.0786(3) 0.3029(3)
C22 C 0.6734(6) -0.0094(4) 0.3163(4)
C23 C 0.6563(7) -0.0606(3) 0.2440(4)
C24 C 0.5065(8) -0.0517(3) 0.2012(4)
C25 C 0.4626(6) 0.0355(3) 0.1856(3)
C26 C -0.0643(8) 0.1333(6) 0.4756(4)
C27 C -0.0903(11) 0.1852(8) 0.5448(8)
C28 C -0.2405(16) 0.1715(15) 0.5713(12)
C29 C -0.2643(18) 0.0928(10) 0.5984(12)
C30 C -0.1453(18) 0.073(2) 0.672(2)
F1 F 0.5952(6) -0.0427(3) 0.3691(3)
F2 F 0.8105(6) -0.0189(4) 0.3427(4)
N1 N 0.4198(6) 0.2192(2) 0.3194(3)
O1 O 0.6268(9) 0.2862(3) 0.3140(6)
O2 O 0.6802(6) -0.1441(3) 0.2637(3)
H1 H 0.4247 0.4585 0.3593
H2 H 0.7475 0.3758 0.5034
H3 H 0.8657 0.4966 0.5124
H4 H 0.8765 0.6531 0.4846
H5 H 0.7709 0.7518 0.4024
H6 H 0.5689 0.7196 0.3158
H7 H 0.4434 0.6126 0.3184
H8 H 0.1553 0.2643 0.2871
H9 H -0.0447 0.2275 0.3518
H10 H 0.2065 0.0954 0.5087
H11 H 0.4099 0.1316 0.4464
H12 H 0.3893 0.3365 0.4191
H13 H 0.5268 0.2992 0.4663
H14 H 0.3415 0.1706 0.2153
H15 H 0.5013 0.1971 0.2176
H16 H 0.4172 0.0623 0.2985
H17 H 0.6928 0.1034 0.2692
H18 H 0.6390 0.1062 0.3532
H19 H 0.7244 -0.0432 0.2097
H20 H 0.5009 -0.0804 0.1509
H21 H 0.4398 -0.0771 0.2329
H22 H 0.3648 0.0368 0.1628
H23 H 0.5214 0.0590 0.1491
H24 H -0.1483 0.1342 0.4378
H25 H -0.0485 0.0790 0.4957
H26 H -0.0210 0.1734 0.5895
H27 H -0.0811 0.2410 0.5293
H28 H -0.2557 0.2072 0.6144
H29 H -0.3100 0.1827 0.5266
H30 H -0.3601 0.0905 0.6119
H31 H -0.2536 0.0547 0.5566
H32 H -0.1661 0.0188 0.6893
H33 H -0.1558 0.1106 0.7145
H34 H -0.0492 0.0747 0.6592
H35 H 0.7509 -0.1640 0.2243
F3? F 0.4318(10) -0.0904(5) 0.2473(6)
F4? F 0.5300(11) -0.0926(6) 0.1370(5)
H36? H 0.7725 -0.0112 0.3390
H37? H 0.6170 -0.0327 0.3549
loop_
_geom_bond_atom_site_label_1
_geom_bond_atom_site_label_2
_geom_bond_site_symmetry_1
_geom_bond_site_symmetry_2
C1 C2 1_555 1_555
C2 C3 1_555 1_555
C3 C4 1_555 1_555
C4 C10 1_555 1_555
C5 C6 1_555 1_555
C6 C7 1_555 1_555
C7 C8 1_555 1_555
C8 C9 1_555 1_555
C9 C1 1_555 1_555
C10 C5 1_555 1_555
C11 C12 1_555 1_555
C12 C13 1_555 1_555
C13 C14 1_555 1_555
C14 C15 1_555 1_555
C15 C16 1_555 1_555
C16 C11 1_555 1_555
C17 C2 1_555 1_555
C18 C17 1_555 1_555
C19 C20 1_555 1_555
C20 C21 1_555 1_555
C21 C22 1_555 1_555
C22 C23 1_555 1_555
C23 C24 1_555 1_555
C24 C25 1_555 1_555
C25 C20 1_555 1_555
C26 C14 1_555 1_555
C27 C26 1_555 1_555
C28 C27 1_555 1_555
C29 C28 1_555 1_555
C30 C29 1_555 1_555
F1 C22 1_555 1_555
F2 C22 1_555 1_555
N1 C11 1_555 1_555
O1 C18 1_555 1_555
O2 C23 1_555 1_555
H1 C1 1_555 1_555
H2 C3 1_555 1_555
H3 C4 1_555 1_555
H4 C5 1_555 1_555
H5 C6 1_555 1_555
H6 C7 1_555 1_555
H7 C8 1_555 1_555
H8 C12 1_555 1_555
H9 C13 1_555 1_555
H10 C15 1_555 1_555
H11 C16 1_555 1_555
H12 C17 1_555 1_555
H13 C17 1_555 1_555
H14 C19 1_555 1_555
H15 C19 1_555 1_555
H16 C20 1_555 1_555
H17 C21 1_555 1_555
H18 C21 1_555 1_555
H19 C23 1_555 1_555
H20 C24 1_555 1_555
H21 C24 1_555 1_555
H22 C25 1_555 1_555
H23 C25 1_555 1_555
H24 C26 1_555 1_555
H25 C26 1_555 1_555
H26 C27 1_555 1_555
H27 C27 1_555 1_555
H28 C28 1_555 1_555
H29 C28 1_555 1_555
H30 C29 1_555 1_555
H31 C29 1_555 1_555
H32 C30 1_555 1_555
H33 C30 1_555 1_555
H34 C30 1_555 1_555
H35 O2 1_555 1_555
C9 C10 1_555 1_555
C18 N1 1_555 1_555
C19 N1 1_555 1_555

#END
