
#######################################################################
#
#                 Cambridge Crystallographic Data Centre
#                                CCDC 
#
#######################################################################
#
# If this CIF has been generated from an entry in the Cambridge 
# Structural Database, then it will include bibliographic, chemical, 
# crystal, experimental, refinement or atomic coordinate data resulting 
# from the CCDC's data processing and validation procedures.
#
#######################################################################

data_LUFMOP
_chemical_formula_moiety         'C13 H16 O3'
_chemical_name_systematic        
2,2-Dimethyl-3a-phenyltetrahydrofuro[3,4-d][1,3]dioxole
_symmetry_cell_setting           monoclinic
_symmetry_space_group_name_H-M   'P 21/n'
_symmetry_Int_Tables_number      14
_space_group_name_Hall           '-P 2yn'
loop_
_symmetry_equiv_pos_site_id
_symmetry_equiv_pos_as_xyz
1 x,y,z
2 1/2-x,1/2+y,1/2-z
3 -x,-y,-z
4 1/2+x,1/2-y,1/2+z
_cell_length_a                   12.351(3)
_cell_length_b                   5.8250(12)
_cell_length_c                   15.939(3)
_cell_angle_alpha                90
_cell_angle_beta                 96.42(3)
_cell_angle_gamma                90
_cell_volume                     1139.53
_exptl_crystal_colour            colorless
_cell_formula_units_Z            4
loop_
_atom_site_label
_atom_site_type_symbol
_atom_site_fract_x
_atom_site_fract_y
_atom_site_fract_z
O1 O 0.67673(8) 0.7938(2) 0.66835(7)
O2 O 0.48688(8) 1.08277(16) 0.71329(6)
O3 O 0.52887(9) 0.79437(18) 0.80625(6)
C1 C 0.59050(11) 0.8935(3) 0.61372(9)
H1 H 0.5781 0.8062 0.5602
H2 H 0.6079 1.0545 0.6006
C2 C 0.48914(10) 0.8829(2) 0.66157(8)
C3 C 0.51787(11) 0.6845(2) 0.72575(8)
C4 C 0.62835(12) 0.6004(3) 0.70507(10)
H3 H 0.6737 0.5494 0.7569
H4 H 0.6198 0.4707 0.6647
C5 C 0.47570(11) 1.0114(2) 0.79790(8)
C6 C 0.38487(11) 0.8516(2) 0.60238(8)
C7 C 0.30628(11) 1.0224(3) 0.59177(9)
H5 H 0.3156 1.1596 0.6240
C8 C 0.21375(12) 0.9941(3) 0.53406(9)
H6 H 0.1601 1.1117 0.5276
C9 C 0.19940(12) 0.7966(3) 0.48619(9)
H7 H 0.1369 0.7793 0.4462
C10 C 0.27682(12) 0.6238(3) 0.49695(9)
H8 H 0.2669 0.4866 0.4648
C11 C 0.36893(11) 0.6507(3) 0.55463(9)
H9 H 0.4216 0.5314 0.5617
C12 C 0.35695(12) 0.9877(3) 0.81158(9)
H10 H 0.3216 1.1383 0.8056
H11 H 0.3515 0.9276 0.8684
H12 H 0.3208 0.8818 0.7696
C13 C 0.53681(13) 1.1767(3) 0.85877(9)
H13 H 0.5013 1.3273 0.8539
H14 H 0.6120 1.1912 0.8454
H15 H 0.5368 1.1192 0.9165
loop_
_geom_bond_atom_site_label_1
_geom_bond_atom_site_label_2
_geom_bond_site_symmetry_1
_geom_bond_site_symmetry_2
O1 C1 1_555 1_555
O2 C2 1_555 1_555
O3 C3 1_555 1_555
C1 H1 1_555 1_555
H2 C1 1_555 1_555
C2 C1 1_555 1_555
C3 C2 1_555 1_555
C4 O1 1_555 1_555
H3 C4 1_555 1_555
H4 C4 1_555 1_555
C5 O2 1_555 1_555
C6 C2 1_555 1_555
C7 C6 1_555 1_555
H5 C7 1_555 1_555
C8 C7 1_555 1_555
H6 C8 1_555 1_555
C9 C8 1_555 1_555
H7 C9 1_555 1_555
C10 C9 1_555 1_555
H8 C10 1_555 1_555
C11 C6 1_555 1_555
H9 C11 1_555 1_555
C12 C5 1_555 1_555
H10 C12 1_555 1_555
H11 C12 1_555 1_555
H12 C12 1_555 1_555
C13 C5 1_555 1_555
H13 C13 1_555 1_555
H14 C13 1_555 1_555
H15 C13 1_555 1_555
O3 C5 1_555 1_555
C3 C4 1_555 1_555
C10 C11 1_555 1_555

#END
