
#######################################################################
#
#                 Cambridge Crystallographic Data Centre
#                                CCDC 
#
#######################################################################
#
# If this CIF has been generated from an entry in the Cambridge 
# Structural Database, then it will include bibliographic, chemical, 
# crystal, experimental, refinement or atomic coordinate data resulting 
# from the CCDC's data processing and validation procedures.
#
#######################################################################

data_LUFVIT
_chemical_formula_moiety         'C14 H37 B10 N1'
_chemical_name_systematic        
1-(1-(Di-isobutylamino)-2-methylpropyl)-1,2-dicarba-closo-dodecaborane
_symmetry_cell_setting           monoclinic
_symmetry_space_group_name_H-M   'P 21/m'
_symmetry_Int_Tables_number      11
_space_group_name_Hall           '-P 2yb'
loop_
_symmetry_equiv_pos_site_id
_symmetry_equiv_pos_as_xyz
1 x,y,z
2 -x,1/2+y,-z
3 -x,-y,-z
4 x,1/2-y,z
_cell_length_a                   9.0098(9)
_cell_length_b                   11.4561(11)
_cell_length_c                   10.4627(10)
_cell_angle_alpha                90
_cell_angle_beta                 90.337(2)
_cell_angle_gamma                90
_cell_volume                     1079.91
_exptl_crystal_colour            colorless
_exptl_crystal_description       block
_cell_formula_units_Z            2
loop_
_atom_site_label
_atom_site_type_symbol
_atom_site_fract_x
_atom_site_fract_y
_atom_site_fract_z
N1 N 0.6522(4) 0.2500 0.7500(3)
C1 C 0.6236(5) 0.2500 0.9869(3)
C2 C 0.8071(5) 0.2500 0.9873(4)
C3 C 0.5458(5) 0.2500 0.8529(4)
C4 C 0.3900(6) 0.2500 0.8449(6)
C5 C 0.3224(6) 0.2500 0.7103(6)
H1 H 0.2161 0.2500 0.7161
H2 H 0.3543 0.1816 0.6652
C6 C 0.2772(6) 0.2500 0.9362(7)
H3 H 0.1823 0.2500 0.8939
H4 H 0.2858 0.3184 0.9887
C7 C 0.6509(4) 0.1425(5) 0.6761(6)
H5 H 0.5611 0.1014 0.7000
H6 H 0.6379 0.1655 0.5875
C8 C 0.7657(7) 0.0587(4) 0.6776(5)
H7 H 0.7512 0.0225 0.7615
C9 C 0.7288(9) -0.0426(6) 0.5888(8)
H8 H 0.8070 -0.0994 0.5927
H9 H 0.7189 -0.0143 0.5028
H10 H 0.6373 -0.0780 0.6148
C10 C 0.9143(6) 0.0820(7) 0.6810(9)
H11 H 0.9330 0.1459 0.7382
H12 H 0.9474 0.1022 0.5968
H13 H 0.9671 0.0142 0.7104
B1 B 0.7213(5) 0.1261(4) 1.0303(4)
B2 B 0.5669(5) 0.1726(4) 1.1188(3)
B3 B 0.8826(6) 0.1726(6) 1.1091(4)
B4 B 0.7315(7) 0.1265(5) 1.1986(4)
B5 B 0.6319(8) 0.2500 1.2537(5)
B6 B 0.8305(9) 0.2500 1.2490(5)
H14 H 0.728(4) 0.043(4) 0.966(4)
H15 H 0.843(6) 0.2500 0.903(6)
H16 H 0.564(7) 0.2500 1.328(6)
H17 H 1.002(5) 0.114(4) 1.079(4)
H18 H 0.459(5) 0.110(4) 1.116(5)
H19 H 0.906(12) 0.2500 1.331(12)
H20 H 0.728(5) 0.051(4) 1.258(4)
H2C H 0.3543 0.3184 0.6652
H4C H 0.2858 0.1816 0.9887
C7C C 0.6509(4) 0.3575(5) 0.6761(6)
H5C H 0.5611 0.3986 0.7000
H6C H 0.6379 0.3345 0.5875
C8C C 0.7657(7) 0.4413(4) 0.6776(5)
H7C H 0.7512 0.4775 0.7615
C9C C 0.7288(9) 0.5426(6) 0.5888(8)
H8C H 0.8070 0.5994 0.5927
H9C H 0.7189 0.5143 0.5028
H10C H 0.6373 0.5780 0.6148
C10C C 0.9143(6) 0.4180(7) 0.6810(9)
H11C H 0.9330 0.3541 0.7382
H12C H 0.9474 0.3978 0.5968
H13C H 0.9671 0.4858 0.7104
B1C B 0.7213(5) 0.3739(4) 1.0303(4)
B2C B 0.5669(5) 0.3274(4) 1.1188(3)
B3C B 0.8826(6) 0.3274(6) 1.1091(4)
B4C B 0.7315(7) 0.3735(5) 1.1986(4)
H14C H 0.728(4) 0.457(4) 0.966(4)
H17C H 1.002(5) 0.386(4) 1.079(4)
H18C H 0.459(5) 0.390(4) 1.116(5)
H20C H 0.728(5) 0.449(4) 1.258(4)
H21? H 0.3543 0.1816 0.6652
H22? H 0.2858 0.3184 0.9887
H23? H 0.5458 0.3355 0.8529
H24? H 0.3900 0.1645 0.8449
loop_
_geom_bond_atom_site_label_1
_geom_bond_atom_site_label_2
_geom_bond_site_symmetry_1
_geom_bond_site_symmetry_2
N1 C3 1_555 1_555
C1 C2 1_555 1_555
C2 B1 1_555 1_555
C3 C1 1_555 1_555
C4 C3 1_555 1_555
C5 C4 1_555 1_555
H1 C5 1_555 1_555
H2 C5 1_555 1_555
C6 C4 1_555 1_555
H3 C6 1_555 1_555
H4 C6 1_555 1_555
C7 N1 1_555 1_555
H5 C7 1_555 1_555
H6 C7 1_555 1_555
C8 C7 1_555 1_555
H7 C8 1_555 1_555
C9 C8 1_555 1_555
H8 C9 1_555 1_555
H9 C9 1_555 1_555
H10 C9 1_555 1_555
C10 C8 1_555 1_555
H11 C10 1_555 1_555
H12 C10 1_555 1_555
H13 C10 1_555 1_555
B1 C1 1_555 1_555
B2 C1 1_555 1_555
B3 C2 1_555 1_555
B4 B1 1_555 1_555
B5 B2 1_555 1_555
B6 B3 1_555 1_555
H14 B1 1_555 1_555
H15 C2 1_555 1_555
H16 B5 1_555 1_555
H17 B3 1_555 1_555
H18 B2 1_555 1_555
H19 B6 1_555 1_555
H20 B4 1_555 1_555
H2C C5 1_555 1_555
H4C C6 1_555 1_555
C7C N1 1_555 1_555
H5C C7C 1_555 1_555
H6C C7C 1_555 1_555
C8C C7C 1_555 1_555
H7C C8C 1_555 1_555
C9C C8C 1_555 1_555
H8C C9C 1_555 1_555
H9C C9C 1_555 1_555
H10C C9C 1_555 1_555
C10C C8C 1_555 1_555
H11C C10C 1_555 1_555
H12C C10C 1_555 1_555
H13C C10C 1_555 1_555
B1C C1 1_555 1_555
B2C C1 1_555 1_555
B3C C2 1_555 1_555
B4C B5 1_555 1_555
H14C B1C 1_555 1_555
H17C B3C 1_555 1_555
H18C B2C 1_555 1_555
H20C B4C 1_555 1_555
C2 B1C 1_555 1_555
B1 B2 1_555 1_555
B1 B3 1_555 1_555
B2 B4 1_555 1_555
B2 B2C 1_555 1_555
B3 B4 1_555 1_555
B3 B3C 1_555 1_555
B4 B5 1_555 1_555
B4 B6 1_555 1_555
B5 B6 1_555 1_555
B5 B2C 1_555 1_555
B6 B3C 1_555 1_555
B6 B4C 1_555 1_555
B1C B2C 1_555 1_555
B1C B3C 1_555 1_555
B1C B4C 1_555 1_555
B2C B4C 1_555 1_555
B3C B4C 1_555 1_555

#END
