
#######################################################################
#
#                 Cambridge Crystallographic Data Centre
#                                CCDC 
#
#######################################################################
#
# If this CIF has been generated from an entry in the Cambridge 
# Structural Database, then it will include bibliographic, chemical, 
# crystal, experimental, refinement or atomic coordinate data resulting 
# from the CCDC's data processing and validation procedures.
#
#######################################################################

data_LUFXAM
_chemical_formula_moiety         'C20 H20 N6,2(C1 H1 Cl3)'
_chemical_name_systematic        
"2,2'-Hydrazine-1,2-diylidene-bis(5,7-dimethyl-1,2-dihydro-1,8-naphthyridine) chloroform solvate"
_symmetry_cell_setting           monoclinic
_symmetry_space_group_name_H-M   'P 21/n'
_symmetry_Int_Tables_number      14
_space_group_name_Hall           '-P 2yn'
loop_
_symmetry_equiv_pos_site_id
_symmetry_equiv_pos_as_xyz
1 x,y,z
2 1/2-x,1/2+y,1/2-z
3 -x,-y,-z
4 1/2+x,1/2-y,1/2+z
_cell_length_a                   7.3383(15)
_cell_length_b                   22.678(5)
_cell_length_c                   8.0867(16)
_cell_angle_alpha                90
_cell_angle_beta                 95.07(3)
_cell_angle_gamma                90
_cell_volume                     1340.51
_exptl_crystal_colour            brown
_exptl_crystal_description       block
_chemical_melting_point          'above 250deg.C'
_cell_formula_units_Z            2
_exptl_crystal_recrystallization_method chloroform
loop_
_atom_site_label
_atom_site_type_symbol
_atom_site_fract_x
_atom_site_fract_y
_atom_site_fract_z
Cl1 Cl -0.0492(4) -0.26664(9) 0.9379(3)
Cl2 Cl 0.3244(4) -0.26226(9) 0.8728(3)
Cl3 Cl 0.0773(3) -0.32799(8) 0.6630(2)
C11 C 0.1301(8) -0.3036(2) 0.8616(6)
H11 H 0.1554 -0.3385 0.9316
N1 N 0.7193(4) -0.06611(15) 0.5171(4)
N2 N 0.6351(4) -0.01681(14) 0.2740(4)
H1 H 0.5661 -0.0450 0.2225
N3 N 0.5283(5) 0.02816(12) 0.0183(4)
C1 C 0.7110(5) -0.0141(2) 0.4350(5)
C2 C 0.7717(5) 0.04025(19) 0.5014(5)
C3 C 0.8453(5) 0.0399(2) 0.6701(5)
C4 C 0.8500(6) -0.0136(3) 0.7519(5)
H2 H 0.8952 -0.0149 0.8629
C5 C 0.7903(6) -0.0654(2) 0.6749(5)
C6 C 0.7547(5) 0.09080(18) 0.3949(5)
H3 H 0.7958 0.1273 0.4348
C7 C 0.6807(5) 0.08586(19) 0.2402(5)
H4 H 0.6744 0.1192 0.1729
C8 C 0.6096(5) 0.03107(18) 0.1716(5)
C9 C 0.8008(6) -0.1221(2) 0.7668(5)
H5 H 0.7527 -0.1532 0.6950
H6 H 0.7303 -0.1193 0.8610
H7 H 0.9260 -0.1305 0.8037
C10 C 0.9121(7) 0.0953(2) 0.7577(5)
H8 H 0.8978 0.1280 0.6823
H9 H 1.0389 0.0910 0.7962
H10 H 0.8422 0.1024 0.8506
N1B N 0.2807(4) 0.06611(15) -0.5171(4)
N2B N 0.3649(4) 0.01681(14) -0.2740(4)
H1B H 0.4339 0.0450 -0.2225
N3B N 0.4717(5) -0.02816(12) -0.0183(4)
C1B C 0.2890(5) 0.0141(2) -0.4350(5)
C2B C 0.2283(5) -0.04025(19) -0.5014(5)
C3B C 0.1547(5) -0.0399(2) -0.6701(5)
C4B C 0.1500(6) 0.0136(3) -0.7519(5)
H2B H 0.1048 0.0149 -0.8629
C5B C 0.2097(6) 0.0654(2) -0.6749(5)
C6B C 0.2453(5) -0.09080(18) -0.3949(5)
H3B H 0.2042 -0.1273 -0.4348
C7B C 0.3193(5) -0.08586(19) -0.2402(5)
H4B H 0.3256 -0.1192 -0.1729
C8B C 0.3904(5) -0.03107(18) -0.1716(5)
C9B C 0.1992(6) 0.1221(2) -0.7668(5)
H5B H 0.2473 0.1532 -0.6950
H6B H 0.2697 0.1193 -0.8610
H7B H 0.0740 0.1305 -0.8037
C10B C 0.0879(7) -0.0953(2) -0.7577(5)
H8B H 0.1022 -0.1280 -0.6823
H9B H -0.0389 -0.0910 -0.7962
H10B H 0.1578 -0.1024 -0.8506
loop_
_geom_bond_atom_site_label_1
_geom_bond_atom_site_label_2
_geom_bond_site_symmetry_1
_geom_bond_site_symmetry_2
Cl1 C11 1_555 1_555
Cl2 C11 1_555 1_555
Cl3 C11 1_555 1_555
N1 C1 1_555 1_555
N2 H1 1_555 1_555
N3 C8 1_555 1_555
C1 N2 1_555 1_555
C2 C1 1_555 1_555
C3 C2 1_555 1_555
C4 C3 1_555 1_555
H2 C4 1_555 1_555
C5 N1 1_555 1_555
C6 C2 1_555 1_555
H3 C6 1_555 1_555
C7 C6 1_555 1_555
H4 C7 1_555 1_555
C8 N2 1_555 1_555
C9 C5 1_555 1_555
H5 C9 1_555 1_555
H6 C9 1_555 1_555
H7 C9 1_555 1_555
C10 C3 1_555 1_555
H8 C10 1_555 1_555
H9 C10 1_555 1_555
H10 C10 1_555 1_555
C11 H11 1_555 1_555
N1B C1B 1_555 1_555
N2B H1B 1_555 1_555
N3B N3 1_555 1_555
C1B N2B 1_555 1_555
C2B C1B 1_555 1_555
C3B C2B 1_555 1_555
C4B C3B 1_555 1_555
H2B C4B 1_555 1_555
C5B N1B 1_555 1_555
C6B C2B 1_555 1_555
H3B C6B 1_555 1_555
C7B C6B 1_555 1_555
H4B C7B 1_555 1_555
C8B N2B 1_555 1_555
C9B C5B 1_555 1_555
H5B C9B 1_555 1_555
H6B C9B 1_555 1_555
H7B C9B 1_555 1_555
C10B C3B 1_555 1_555
H8B C10B 1_555 1_555
H9B C10B 1_555 1_555
H10B C10B 1_555 1_555
C4 C5 1_555 1_555
C7 C8 1_555 1_555
N3B C8B 1_555 1_555
C4B C5B 1_555 1_555
C7B C8B 1_555 1_555

#END
