
#######################################################################
#
#                 Cambridge Crystallographic Data Centre
#                                CCDC 
#
#######################################################################
#
# If this CIF has been generated from an entry in the Cambridge 
# Structural Database, then it will include bibliographic, chemical, 
# crystal, experimental, refinement or atomic coordinate data resulting 
# from the CCDC's data processing and validation procedures.
#
#######################################################################

data_LUHHON
_chemical_formula_moiety         'C21 H18 Br1 N1 O7'
_chemical_name_systematic        
'dimethyl 3-(5-bromo-2-hydroxyphenyl)-4-oxo-2,3,3a,9b-tetrahydrochromeno[3,4-c]pyrrole-1,1(4H)-dicarboxylate'
_symmetry_cell_setting           triclinic
_symmetry_space_group_name_H-M   'P -1'
_symmetry_Int_Tables_number      2
_space_group_name_Hall           '-P 1'
loop_
_symmetry_equiv_pos_site_id
_symmetry_equiv_pos_as_xyz
1 x,y,z
2 -x,-y,-z
_cell_length_a                   9.5553(9)
_cell_length_b                   10.9208(11)
_cell_length_c                   11.4750(11)
_cell_angle_alpha                65.160(2)
_cell_angle_beta                 75.590(2)
_cell_angle_gamma                64.253(2)
_cell_volume                     975.538
_exptl_crystal_colour            colorless
_exptl_crystal_description       prism
_cell_formula_units_Z            2
loop_
_atom_site_label
_atom_site_type_symbol
_atom_site_fract_x
_atom_site_fract_y
_atom_site_fract_z
C1 C 0.3218(3) 0.5881(3) 0.8934(2)
C2 C 0.3803(3) 0.6978(3) 0.8443(2)
H1 H 0.3270 0.7825 0.8663
C3 C 0.5167(3) 0.6840(3) 0.7630(2)
C4 C 0.5959(3) 0.5564(3) 0.7341(3)
C5 C 0.5357(4) 0.4468(3) 0.7850(3)
H2 H 0.5895 0.3607 0.7650
C6 C 0.3988(4) 0.4621(3) 0.8641(3)
H3 H 0.3578 0.3875 0.8980
C7 C 0.5767(3) 0.8074(3) 0.7006(2)
H4 H 0.6155 0.8157 0.6093
C8 C 0.7096(3) 0.7906(3) 0.7698(3)
H5 H 0.7273 0.7012 0.8494
C9 C 0.8582(3) 0.7709(3) 0.6821(3)
C10 C 0.9150(3) 0.9302(3) 0.7407(2)
C11 C 1.0323(3) 0.9771(3) 0.7314(3)
H6 H 1.1264 0.9503 0.6793
C12 C 1.0090(4) 1.0634(4) 0.7995(3)
H7 H 1.0876 1.0971 0.7941
C13 C 0.8717(4) 1.1012(4) 0.8758(3)
H8 H 0.8572 1.1590 0.9240
C14 C 0.7559(3) 1.0549(3) 0.8816(3)
H9 H 0.6619 1.0816 0.9338
C15 C 0.7745(3) 0.9698(3) 0.8123(2)
C16 C 0.6473(3) 0.9241(3) 0.8106(2)
H10 H 0.5934 0.8994 0.8991
C17 C 0.5224(3) 1.0384(3) 0.7131(2)
C18 C 0.6071(3) 1.1130(3) 0.5894(2)
C19 C 0.3918(3) 1.1544(3) 0.7608(2)
C20 C 0.7080(4) 1.3010(3) 0.4919(3)
H11 H 0.6986 1.3882 0.5036
H12 H 0.6758 1.3284 0.4068
H13 H 0.8165 1.2322 0.4983
C21 C 0.1594(4) 1.3632(3) 0.6932(3)
H14 H 0.0940 1.4165 0.6205
H15 H 0.1988 1.4279 0.7018
H16 H 0.0975 1.3284 0.7725
O1 O 0.7286(3) 0.5327(2) 0.6546(2)
H17 H 0.7783 0.5951 0.6256
O2 O 0.9021(3) 0.6907(3) 0.6214(3)
O3 O 0.9511(2) 0.8391(2) 0.6712(2)
O4 O 0.6718(2) 1.0613(2) 0.50620(17)
O5 O 0.6082(2) 1.23309(19) 0.59137(16)
O6 O 0.3792(2) 1.1668(2) 0.86242(18)
O7 O 0.2899(2) 1.2396(2) 0.67046(18)
Br1 Br 0.12964(3) 0.61088(3) 0.99808(3)
N1 N 0.4545(2) 0.9482(2) 0.70165(19)
H18 H 0.3891 0.9947 0.6322
loop_
_geom_bond_atom_site_label_1
_geom_bond_atom_site_label_2
_geom_bond_site_symmetry_1
_geom_bond_site_symmetry_2
C1 C2 1_555 1_555
C2 H1 1_555 1_555
C3 C2 1_555 1_555
C4 C3 1_555 1_555
C5 C4 1_555 1_555
H2 C5 1_555 1_555
C6 C1 1_555 1_555
H3 C6 1_555 1_555
C7 C3 1_555 1_555
H4 C7 1_555 1_555
C8 C7 1_555 1_555
H5 C8 1_555 1_555
C9 C8 1_555 1_555
C10 C11 1_555 1_555
C11 H6 1_555 1_555
C12 C11 1_555 1_555
H7 C12 1_555 1_555
C13 C12 1_555 1_555
H8 C13 1_555 1_555
C14 C13 1_555 1_555
H9 C14 1_555 1_555
C15 C10 1_555 1_555
C16 C8 1_555 1_555
H10 C16 1_555 1_555
C17 C16 1_555 1_555
C18 C17 1_555 1_555
C19 C17 1_555 1_555
C20 H11 1_555 1_555
H12 C20 1_555 1_555
H13 C20 1_555 1_555
C21 H14 1_555 1_555
H15 C21 1_555 1_555
H16 C21 1_555 1_555
O1 C4 1_555 1_555
H17 O1 1_555 1_555
O2 C9 1_555 1_555
O3 C9 1_555 1_555
O4 C18 1_555 1_555
O5 C18 1_555 1_555
O6 C19 1_555 1_555
O7 C19 1_555 1_555
Br1 C1 1_555 1_555
N1 C7 1_555 1_555
H18 N1 1_555 1_555
C5 C6 1_555 1_555
C10 O3 1_555 1_555
C14 C15 1_555 1_555
C15 C16 1_555 1_555
C17 N1 1_555 1_555
C20 O5 1_555 1_555
C21 O7 1_555 1_555

#END
