
#######################################################################
#
#                 Cambridge Crystallographic Data Centre
#                                CCDC 
#
#######################################################################
#
# If this CIF has been generated from an entry in the Cambridge 
# Structural Database, then it will include bibliographic, chemical, 
# crystal, experimental, refinement or atomic coordinate data resulting 
# from the CCDC's data processing and validation procedures.
#
#######################################################################

data_LUJDEA
_chemical_formula_moiety         'C20 H14 O2,C12 H7 N3 O2'
_chemical_name_systematic        
"1,1'-Binaphthalene-2,2'-diol 5-nitro-1,10-phenanthroline"
_symmetry_cell_setting           monoclinic
_symmetry_space_group_name_H-M   'P 21/c'
_symmetry_Int_Tables_number      14
_space_group_name_Hall           '-P 2ybc'
loop_
_symmetry_equiv_pos_site_id
_symmetry_equiv_pos_as_xyz
1 x,y,z
2 -x,1/2+y,1/2-z
3 -x,-y,-z
4 x,1/2-y,1/2+z
_cell_length_a                   13.5444(5)
_cell_length_b                   13.1492(5)
_cell_length_c                   14.1450(6)
_cell_angle_alpha                90
_cell_angle_beta                 100.4100(10)
_cell_angle_gamma                90
_cell_volume                     2477.73
_exptl_crystal_colour            yellow
_exptl_crystal_description       block
_cell_formula_units_Z            4
loop_
_atom_site_label
_atom_site_type_symbol
_atom_site_fract_x
_atom_site_fract_y
_atom_site_fract_z
O1 O 0.28791(8) 0.53161(8) 0.37641(8)
H1 H 0.2552(16) 0.5499(17) 0.3217(10)
O2 O 0.51439(8) 0.40062(9) 0.56813(9)
H2 H 0.5735(10) 0.4234(16) 0.5892(15)
C1 C 0.31729(10) 0.38327(11) 0.47253(10)
C2 C 0.28781(10) 0.42737(11) 0.38330(10)
C3 C 0.26102(12) 0.36800(13) 0.29925(11)
H3 H 0.2397 0.3996 0.2403
C4 C 0.26637(12) 0.26491(13) 0.30423(11)
H4 H 0.2481 0.2266 0.2486
C5 C 0.29925(11) 0.21519(12) 0.39288(11)
C6 C 0.31026(13) 0.10796(13) 0.39884(14)
H5 H 0.2954 0.0691 0.3431
C7 C 0.34218(16) 0.06105(14) 0.48451(16)
H6 H 0.3499 -0.0092 0.4871
C8 C 0.36335(15) 0.11899(14) 0.56896(15)
H7 H 0.3836 0.0864 0.6276
C9 C 0.35466(12) 0.22231(13) 0.56642(12)
H8 H 0.3694 0.2591 0.6234
C10 C 0.32355(10) 0.27457(11) 0.47831(10)
C11 C 0.34567(10) 0.44814(10) 0.56023(10)
C12 C 0.44483(11) 0.45557(11) 0.60438(10)
C13 C 0.47430(12) 0.51812(12) 0.68631(11)
H9 H 0.5417 0.5224 0.7146
C14 C 0.40496(13) 0.57176(12) 0.72381(11)
H10 H 0.4254 0.6121 0.7778
C15 C 0.30214(12) 0.56711(11) 0.68185(10)
C16 C 0.22832(14) 0.62252(12) 0.71965(12)
H11 H 0.2476 0.6620 0.7744
C17 C 0.12997(14) 0.61916(14) 0.67749(14)
H12 H 0.0827 0.6565 0.7030
C18 C 0.10013(13) 0.55916(14) 0.59541(14)
H13 H 0.0329 0.5575 0.5663
C19 C 0.16865(11) 0.50297(13) 0.55754(12)
H14 H 0.1470 0.4628 0.5037
C20 C 0.27210(11) 0.50495(11) 0.59893(10)
O3 O -0.1043(2) 0.7484(4) -0.0669(3)
O4 O -0.0245(3) 0.7182(4) -0.1785(2)
N1 N 0.14290(10) 0.58267(12) 0.21925(11)
N2 N 0.32241(10) 0.63775(11) 0.17474(11)
N3 N -0.02878(12) 0.71720(15) -0.09471(12)
C21 C 0.05644(15) 0.55546(18) 0.24173(17)
H15 H 0.0569 0.5265 0.3018
C22 C -0.03579(14) 0.56776(19) 0.18034(18)
H16 H -0.0948 0.5463 0.1991
C23 C -0.03823(13) 0.61146(16) 0.09279(15)
H17 H -0.0991 0.6209 0.0512
C24 C 0.05218(11) 0.64229(12) 0.06569(12)
C25 C 0.06043(12) 0.69230(13) -0.02275(12)
C26 C 0.14890(13) 0.72441(13) -0.04396(12)
H18 H 0.1501 0.7581 -0.1016
C27 C 0.24006(12) 0.70680(11) 0.02161(11)
C28 C 0.33333(13) 0.73942(13) 0.00266(13)
H19 H 0.3373 0.7731 -0.0544
C29 C 0.41778(13) 0.72129(14) 0.06855(15)
H20 H 0.4803 0.7425 0.0577
C30 C 0.40830(13) 0.67002(14) 0.15291(15)
H21 H 0.4667 0.6576 0.1972
C31 C 0.23806(11) 0.65655(11) 0.10939(11)
C32 C 0.14233(11) 0.62538(11) 0.13211(11)
O5? O -0.0957(3) 0.6411(4) -0.1019(3)
O6? O -0.0373(4) 0.7870(4) -0.1399(4)
loop_
_geom_bond_atom_site_label_1
_geom_bond_atom_site_label_2
_geom_bond_site_symmetry_1
_geom_bond_site_symmetry_2
O1 H1 1_555 1_555
O2 H2 1_555 1_555
O3 N3 1_555 1_555
O4 N3 1_555 1_555
N1 C21 1_555 1_555
N2 C30 1_555 1_555
N3 C25 1_555 1_555
C1 C2 1_555 1_555
C2 O1 1_555 1_555
C3 C2 1_555 1_555
H3 C3 1_555 1_555
C4 C3 1_555 1_555
H4 C4 1_555 1_555
C5 C4 1_555 1_555
C6 C5 1_555 1_555
H5 C6 1_555 1_555
C7 C6 1_555 1_555
H6 C7 1_555 1_555
C8 C7 1_555 1_555
H7 C8 1_555 1_555
C9 C8 1_555 1_555
H8 C9 1_555 1_555
C10 C1 1_555 1_555
C11 C1 1_555 1_555
C12 O2 1_555 1_555
C13 C12 1_555 1_555
H9 C13 1_555 1_555
C14 C13 1_555 1_555
H10 C14 1_555 1_555
C15 C14 1_555 1_555
C16 C15 1_555 1_555
H11 C16 1_555 1_555
C17 C16 1_555 1_555
H12 C17 1_555 1_555
C18 C17 1_555 1_555
H13 C18 1_555 1_555
C19 C18 1_555 1_555
H14 C19 1_555 1_555
C20 C11 1_555 1_555
C21 H15 1_555 1_555
C22 C21 1_555 1_555
H16 C22 1_555 1_555
C23 C22 1_555 1_555
H17 C23 1_555 1_555
C24 C23 1_555 1_555
C25 C24 1_555 1_555
C26 C25 1_555 1_555
H18 C26 1_555 1_555
C27 C26 1_555 1_555
C28 C27 1_555 1_555
H19 C28 1_555 1_555
C29 C28 1_555 1_555
H20 C29 1_555 1_555
C30 C29 1_555 1_555
H21 C30 1_555 1_555
C31 N2 1_555 1_555
C32 N1 1_555 1_555
C5 C10 1_555 1_555
C9 C10 1_555 1_555
C11 C12 1_555 1_555
C15 C20 1_555 1_555
C19 C20 1_555 1_555
C24 C32 1_555 1_555
C27 C31 1_555 1_555
C31 C32 1_555 1_555

#END
