
#######################################################################
#
#                 Cambridge Crystallographic Data Centre
#                                CCDC 
#
#######################################################################
#
# If this CIF has been generated from an entry in the Cambridge 
# Structural Database, then it will include bibliographic, chemical, 
# crystal, experimental, refinement or atomic coordinate data resulting 
# from the CCDC's data processing and validation procedures.
#
#######################################################################

data_LUJJEF
_chemical_formula_moiety         'C20 H22 O2 S2'
_chemical_name_systematic        2,11-Dithia-(4,4)metaquinocyclophane
_symmetry_cell_setting           monoclinic
_symmetry_space_group_name_H-M   'P 21/c'
_symmetry_Int_Tables_number      14
_space_group_name_Hall           '-P 2ybc'
loop_
_symmetry_equiv_pos_site_id
_symmetry_equiv_pos_as_xyz
1 x,y,z
2 x,1/2-y,1/2+z
3 -x,-y,-z
4 -x,1/2+y,1/2-z
_cell_length_a                   16.7998(8)
_cell_length_b                   7.3924(4)
_cell_length_c                   14.2021(7)
_cell_angle_alpha                90
_cell_angle_beta                 91.3370(10)
_cell_angle_gamma                90
_cell_volume                     1763.29
_exptl_crystal_colour            yellow-orange
_exptl_crystal_description       block
_chemical_melting_point          '148.5-149.3 deg.C'
_cell_formula_units_Z            4
loop_
_atom_site_label
_atom_site_type_symbol
_atom_site_fract_x
_atom_site_fract_y
_atom_site_fract_z
S1 S 0.61518(4) 0.17198(8) 0.97649(4)
S2 S 0.96361(4) 0.06997(9) 1.15249(5)
O1 O 0.68594(11) -0.0874(3) 1.36118(11)
O2 O 0.77556(10) -0.0825(2) 1.00879(11)
C1 C 0.76120(15) 0.4084(4) 1.28647(17)
H1 H 0.7606 0.3958 1.3523
C2 C 0.69089(14) 0.4340(3) 1.23640(16)
H2 H 0.6426 0.4383 1.2684
C3 C 0.69054(13) 0.4535(3) 1.13915(15)
C4 C 0.76266(13) 0.4445(3) 1.09400(16)
H3 H 0.7633 0.4562 1.0281
C5 C 0.83430(13) 0.4186(3) 1.14353(16)
C6 C 0.83249(15) 0.4014(3) 1.24043(17)
H4 H 0.8802 0.3848 1.2752
C7 C 0.61368(13) 0.4815(3) 1.08459(16)
H5 H 0.6253 0.5386 1.0242
H6 H 0.5799 0.5645 1.1197
C8 C 0.91111(14) 0.4074(3) 1.09130(18)
H7 H 0.9547 0.4497 1.1327
H8 H 0.9079 0.4887 1.0369
C9 C 0.56822(13) 0.3066(3) 1.06618(16)
H9 H 0.5135 0.3350 1.0459
H10 H 0.5660 0.2366 1.1247
C10 C 0.93053(15) 0.2168(4) 1.05713(18)
H11 H 0.9723 0.2239 1.0102
H12 H 0.8830 0.1644 1.0264
C11 C 0.61440(13) -0.0523(3) 1.02842(16)
H13 H 0.5601 -0.0814 1.0471
H14 H 0.6301 -0.1409 0.9810
C12 C 0.89985(13) -0.1266(3) 1.13922(18)
H15 H 0.8997 -0.1641 1.0730
H16 H 0.9231 -0.2256 1.1766
C13 C 0.70716(14) -0.0854(3) 1.27954(15)
C14 C 0.64629(13) -0.0733(3) 1.20244(15)
C15 C 0.66913(13) -0.0679(3) 1.11242(15)
C16 C 0.75514(13) -0.0823(3) 1.09080(15)
C17 C 0.81533(13) -0.1007(3) 1.16801(15)
C18 C 0.79268(14) -0.0988(3) 1.25802(16)
C19 C 0.56193(14) -0.0712(4) 1.23526(19)
H17 H 0.5258 -0.0627 1.1812
H18 H 0.5543 0.0321 1.2761
H19 H 0.5513 -0.1817 1.2696
C20 C 0.84911(16) -0.1128(4) 1.34044(18)
H20 H 0.9032 -0.1207 1.3184
H21 H 0.8369 -0.2202 1.3766
H22 H 0.8439 -0.0066 1.3799
loop_
_geom_bond_atom_site_label_1
_geom_bond_atom_site_label_2
_geom_bond_site_symmetry_1
_geom_bond_site_symmetry_2
S1 C9 1_555 1_555
S2 C10 1_555 1_555
O1 C13 1_555 1_555
O2 C16 1_555 1_555
C1 H1 1_555 1_555
C2 C1 1_555 1_555
H2 C2 1_555 1_555
C3 C2 1_555 1_555
C4 C3 1_555 1_555
H3 C4 1_555 1_555
C5 C4 1_555 1_555
C6 C1 1_555 1_555
H4 C6 1_555 1_555
C7 C3 1_555 1_555
H5 C7 1_555 1_555
H6 C7 1_555 1_555
C8 C5 1_555 1_555
H7 C8 1_555 1_555
H8 C8 1_555 1_555
C9 C7 1_555 1_555
H9 C9 1_555 1_555
H10 C9 1_555 1_555
C10 C8 1_555 1_555
H11 C10 1_555 1_555
H12 C10 1_555 1_555
C11 S1 1_555 1_555
H13 C11 1_555 1_555
H14 C11 1_555 1_555
C12 S2 1_555 1_555
H15 C12 1_555 1_555
H16 C12 1_555 1_555
C13 C14 1_555 1_555
C14 C15 1_555 1_555
C15 C11 1_555 1_555
C16 C15 1_555 1_555
C17 C12 1_555 1_555
C18 C13 1_555 1_555
C19 C14 1_555 1_555
H17 C19 1_555 1_555
H18 C19 1_555 1_555
H19 C19 1_555 1_555
C20 C18 1_555 1_555
H20 C20 1_555 1_555
H21 C20 1_555 1_555
H22 C20 1_555 1_555
C5 C6 1_555 1_555
C16 C17 1_555 1_555
C17 C18 1_555 1_555

#END
