
#######################################################################
#
#                 Cambridge Crystallographic Data Centre
#                                CCDC 
#
#######################################################################
#
# If this CIF has been generated from an entry in the Cambridge 
# Structural Database, then it will include bibliographic, chemical, 
# crystal, experimental, refinement or atomic coordinate data resulting 
# from the CCDC's data processing and validation procedures.
#
#######################################################################

data_LUKJEH
_chemical_formula_moiety         'C23 H13 Cl2 N5 O2 S1,C4 H11 N1,C3 H7 N1 O1'
_chemical_name_systematic        
'8-Amino-6,10-bis(4-chlorophenyl)-2,4-dioxo-1-thia-3-azaspiro[4.5]dec-8-ene-7,7,9-tricarbonitrile diethylamine N,N-dimethylformamide solvate'
_symmetry_cell_setting           monoclinic
_symmetry_space_group_name_H-M   'P 21/c'
_symmetry_Int_Tables_number      14
_space_group_name_Hall           '-P 2ybc'
loop_
_symmetry_equiv_pos_site_id
_symmetry_equiv_pos_as_xyz
1 x,y,z
2 -x,1/2+y,1/2-z
3 -x,-y,-z
4 x,1/2-y,1/2+z
_cell_length_a                   23.222(16)
_cell_length_b                   13.940(10)
_cell_length_c                   21.503(15)
_cell_angle_alpha                90
_cell_angle_beta                 111.936(9)
_cell_angle_gamma                90
_cell_volume                     6456.88
_cell_formula_units_Z            8
loop_
_atom_site_label
_atom_site_type_symbol
_atom_site_fract_x
_atom_site_fract_y
_atom_site_fract_z
C1 C 0.54831(11) -0.05239(19) 0.25629(12)
H1 H 0.5626 -0.1183 0.2555
C2 C 0.54513(12) -0.03921(19) 0.32485(13)
C3 C 0.49798(12) -0.00178(19) 0.33968(13)
C4 C 0.43885(11) 0.03481(19) 0.28297(13)
C5 C 0.44589(11) 0.03980(18) 0.21284(12)
H2 H 0.4732 0.0947 0.2162
C6 C 0.48156(12) -0.04816(18) 0.20123(13)
C7 C 0.48440(11) -0.03988(19) 0.13082(13)
C8 C 0.44941(12) -0.1937(2) 0.11930(14)
C9 C 0.59822(11) 0.01206(19) 0.24729(12)
C10 C 0.60486(12) 0.1088(2) 0.26606(14)
H3 H 0.5775 0.1363 0.2833
C11 C 0.65199(12) 0.1647(2) 0.25925(15)
H4 H 0.6549 0.2297 0.2697
C12 C 0.69412(12) 0.1221(2) 0.23682(15)
C13 C 0.68908(13) 0.0262(2) 0.21887(16)
H5 H 0.7177 -0.0018 0.2036
C14 C 0.64080(12) -0.0276(2) 0.22395(14)
H6 H 0.6370 -0.0919 0.2114
C15 C 0.38417(12) 0.06663(19) 0.15737(13)
C16 C 0.37542(13) 0.1599(2) 0.13284(14)
H7 H 0.4080 0.2034 0.1491
C17 C 0.31947(13) 0.1901(2) 0.08473(15)
H8 H 0.3145 0.2531 0.0693
C18 C 0.27164(13) 0.1252(2) 0.06041(14)
C19 C 0.27851(13) 0.0313(2) 0.08301(14)
H9 H 0.2457 -0.0117 0.0661
C20 C 0.33448(12) 0.0017(2) 0.13100(14)
H10 H 0.3392 -0.0615 0.1459
C21 C 0.59954(13) -0.0686(2) 0.38068(14)
C22 C 0.38670(13) -0.0292(2) 0.28162(14)
C23 C 0.42396(12) 0.1335(2) 0.29897(13)
Cl1 Cl 0.75549(4) 0.19011(6) 0.23170(5)
Cl2 Cl 0.20050(4) 0.16330(7) 0.00130(4)
N1 N 0.64275(12) -0.0919(2) 0.42551(13)
N2 N 0.34728(12) -0.0773(2) 0.28306(13)
N3 N 0.47100(10) -0.11904(16) 0.09339(11)
H45 H 0.4756 -0.1227 0.0556
N4 N 0.49644(11) 0.00487(18) 0.40146(11)
H46 H 0.5272 -0.0157 0.4356
H47 H 0.4647 0.0297 0.4068
N6 N 0.41229(11) 0.20999(18) 0.31042(12)
O2 O 0.50012(8) 0.03850(14) 0.11424(9)
O3 O 0.43317(10) -0.27282(15) 0.09487(10)
S2 S 0.44523(3) -0.16462(5) 0.20016(4)
C24 C 0.58649(18) 0.2233(3) 0.0825(2)
H11 H 0.5886 0.1693 0.1110
H12 H 0.6081 0.2766 0.1094
H13 H 0.6055 0.2069 0.0512
C25 C 0.52036(18) 0.2498(2) 0.04529(18)
H14 H 0.5179 0.3002 0.0133
H15 H 0.5025 0.2739 0.0764
C26 C 0.41678(15) 0.1836(3) -0.02746(17)
H16 H 0.4111 0.2220 -0.0669
H17 H 0.4010 0.2198 0.0013
C27 C 0.38119(17) 0.0916(3) -0.04803(19)
H18 H 0.3971 0.0556 -0.0762
H19 H 0.3381 0.1056 -0.0722
H20 H 0.3856 0.0546 -0.0088
N5 N 0.48437(11) 0.16384(17) 0.00901(11)
H48 H 0.4884 0.1169 0.0391
C28 C 1.05346(11) -0.02221(18) 0.26220(12)
H21 H 1.0685 -0.0881 0.2629
C29 C 1.05131(11) -0.00429(19) 0.33111(12)
C30 C 1.00420(11) 0.03230(18) 0.34628(12)
C31 C 0.94384(11) 0.06553(18) 0.28931(11)
C32 C 0.95127(11) 0.06909(18) 0.21952(11)
H22 H 0.9793 0.1231 0.2227
C33 C 0.89041(11) 0.09516(19) 0.16250(12)
C34 C 0.88367(13) 0.1883(2) 0.13665(13)
H23 H 0.9162 0.2316 0.1540
C35 C 0.82937(14) 0.2174(2) 0.08554(14)
H24 H 0.8255 0.2795 0.0687
C36 C 0.78144(14) 0.1529(2) 0.06021(14)
C37 C 0.78650(13) 0.0601(2) 0.08475(14)
H25 H 0.7537 0.0172 0.0671
C38 C 0.84062(12) 0.0319(2) 0.13572(13)
H26 H 0.8440 -0.0303 0.1525
C39 C 1.10126(11) 0.04290(19) 0.24908(12)
C40 C 1.13651(12) 0.0049(2) 0.21507(13)
H27 H 1.1305 -0.0587 0.2009
C41 C 1.18004(13) 0.0594(2) 0.20205(14)
H28 H 1.2032 0.0333 0.1790
C42 C 1.18899(12) 0.1542(2) 0.22373(15)
C43 C 1.15548(12) 0.1932(2) 0.25846(14)
H29 H 1.1618 0.2566 0.2729
C44 C 1.11203(12) 0.13696(19) 0.27189(13)
H30 H 1.0900 0.1625 0.2963
C45 C 1.10652(13) -0.0295(2) 0.38601(13)
C46 C 0.92796(11) 0.1652(2) 0.30377(12)
C47 C 0.89157(12) 0.00345(18) 0.28913(12)
Cl3 Cl 0.71239(4) 0.19000(7) -0.00359(4)
Cl4 Cl 1.24556(4) 0.22314(7) 0.20888(5)
N7 N 1.15179(13) -0.0492(2) 0.42979(12)
N8 N 1.00495(10) 0.04318(16) 0.40887(10)
H49 H 1.0371 0.0263 0.4428
H50 H 0.9732 0.0670 0.4148
N9 N 0.91383(10) 0.24117(17) 0.31220(11)
N10 N 0.85093(10) -0.04264(17) 0.29012(11)
S1 S 0.95035(3) -0.13624(5) 0.21338(3)
O4 O 1.00262(8) 0.05796(13) 0.11812(8)
O5 O 0.93011(9) -0.24885(13) 0.10821(9)
N13 N 0.96848(9) -0.09837(15) 0.10099(10)
H52 H 0.9697 -0.1044 0.0617
C54 C 0.94854(11) -0.16976(19) 0.13084(12)
C55 C 0.98609(11) -0.01789(18) 0.13705(12)
C56 C 0.98595(11) -0.02076(17) 0.20903(12)
C48 C 0.25398(16) 0.5620(4) 0.0912(2)
H31 H 0.2662 0.5533 0.0536
H32 H 0.2836 0.5312 0.1299
H33 H 0.2524 0.6292 0.1000
C49 C 0.14470(16) 0.5736(3) 0.06428(15)
H34 H 0.1518 0.6388 0.0728
O1 O 0.08973(10) 0.5468(2) 0.04251(12)
N11 N 0.19311(12) 0.5198(2) 0.07635(12)
C57 C 0.1882(3) 0.4177(3) 0.0643(3)
H53 H 0.1463 0.3975 0.0548
H54 H 0.2156 0.3847 0.1033
H55 H 0.1995 0.4031 0.0267
C50 C 1.04003(18) 0.2893(2) 0.09784(16)
H35 H 1.0023 0.3260 0.0816
H36 H 1.0744 0.3311 0.1200
H37 H 1.0373 0.2417 0.1289
C51 C 1.04949(17) 0.2405(2) 0.03960(15)
H38 H 1.0457 0.2877 0.0052
H39 H 1.0912 0.2143 0.0547
C52 C 0.93703(15) 0.1917(2) -0.02125(15)
H40 H 0.9315 0.2331 -0.0593
H41 H 0.9259 0.2277 0.0112
C53 C 0.89586(15) 0.1058(3) -0.04378(17)
H42 H 0.9084 0.0686 -0.0742
H43 H 0.8536 0.1262 -0.0660
H44 H 0.8992 0.0673 -0.0056
N12 N 1.00326(11) 0.16069(16) 0.00968(10)
H51 H 1.0066 0.1181 0.0423
O6 O 0.41446(11) 0.0525(2) 0.46731(12)
N14 N 0.31720(12) -0.0065(2) 0.41444(14)
C58 C 0.3745(2) -0.0175(4) 0.4535(2)
H56 H 0.3878 -0.0774 0.4724
C59 C 0.2761(2) -0.0921(4) 0.3924(3)
H57 H 0.2691 -0.1061 0.3464
H58 H 0.2372 -0.0793 0.3967
H59 H 0.2957 -0.1462 0.4198
C60 C 0.2898(3) 0.0803(4) 0.3848(3)
H60 H 0.3178 0.1323 0.4045
H61 H 0.2519 0.0899 0.3920
H62 H 0.2812 0.0780 0.3375
loop_
_geom_bond_atom_site_label_1
_geom_bond_atom_site_label_2
_geom_bond_site_symmetry_1
_geom_bond_site_symmetry_2
C1 H1 1_555 1_555
C2 C1 1_555 1_555
C3 C2 1_555 1_555
C4 C3 1_555 1_555
C5 C4 1_555 1_555
H2 C5 1_555 1_555
C6 C1 1_555 1_555
C7 C6 1_555 1_555
C8 N3 1_555 1_555
C9 C1 1_555 1_555
C10 C9 1_555 1_555
H3 C10 1_555 1_555
C11 C10 1_555 1_555
H4 C11 1_555 1_555
C12 C11 1_555 1_555
C13 C12 1_555 1_555
H5 C13 1_555 1_555
C14 C9 1_555 1_555
H6 C14 1_555 1_555
C15 C5 1_555 1_555
C16 C15 1_555 1_555
H7 C16 1_555 1_555
C17 C16 1_555 1_555
H8 C17 1_555 1_555
C18 C17 1_555 1_555
C19 C18 1_555 1_555
H9 C19 1_555 1_555
C20 C15 1_555 1_555
H10 C20 1_555 1_555
C21 C2 1_555 1_555
C22 C4 1_555 1_555
C23 C4 1_555 1_555
C24 H11 1_555 1_555
H12 C24 1_555 1_555
H13 C24 1_555 1_555
C25 C24 1_555 1_555
H14 C25 1_555 1_555
H15 C25 1_555 1_555
C26 H16 1_555 1_555
H17 C26 1_555 1_555
C27 C26 1_555 1_555
H18 C27 1_555 1_555
H19 C27 1_555 1_555
H20 C27 1_555 1_555
C28 H21 1_555 1_555
C29 C28 1_555 1_555
C30 C29 1_555 1_555
C31 C30 1_555 1_555
C32 C31 1_555 1_555
H22 C32 1_555 1_555
C33 C32 1_555 1_555
C34 C33 1_555 1_555
H23 C34 1_555 1_555
C35 C34 1_555 1_555
H24 C35 1_555 1_555
C36 C35 1_555 1_555
C37 C36 1_555 1_555
H25 C37 1_555 1_555
C38 C33 1_555 1_555
H26 C38 1_555 1_555
C39 C28 1_555 1_555
C40 C39 1_555 1_555
H27 C40 1_555 1_555
C41 C40 1_555 1_555
H28 C41 1_555 1_555
C42 C41 1_555 1_555
C43 C42 1_555 1_555
H29 C43 1_555 1_555
C44 C39 1_555 1_555
H30 C44 1_555 1_555
C45 C29 1_555 1_555
C46 C31 1_555 1_555
C47 C31 1_555 1_555
C48 H31 1_555 1_555
H32 C48 1_555 1_555
H33 C48 1_555 1_555
C49 H34 1_555 1_555
O1 C49 1_555 1_555
C50 H35 1_555 1_555
H36 C50 1_555 1_555
H37 C50 1_555 1_555
C51 C50 1_555 1_555
H38 C51 1_555 1_555
H39 C51 1_555 1_555
C52 H40 1_555 1_555
H41 C52 1_555 1_555
C53 C52 1_555 1_555
H42 C53 1_555 1_555
H43 C53 1_555 1_555
H44 C53 1_555 1_555
Cl1 C12 1_555 1_555
Cl2 C18 1_555 1_555
Cl3 C36 1_555 1_555
Cl4 C42 1_555 1_555
N1 C21 1_555 1_555
N2 C22 1_555 1_555
N3 C7 1_555 1_555
H45 N3 1_555 1_555
N4 C3 1_555 1_555
H46 N4 1_555 1_555
H47 N4 1_555 1_555
N5 C25 1_555 1_555
H48 N5 1_555 1_555
N6 C23 1_555 1_555
N7 C45 1_555 1_555
N8 C30 1_555 1_555
H49 N8 1_555 1_555
H50 N8 1_555 1_555
N9 C46 1_555 1_555
N10 C47 1_555 1_555
N11 C48 1_555 1_555
N12 C51 1_555 1_555
H51 N12 1_555 1_555
O2 C7 1_555 1_555
O3 C8 1_555 1_555
S1 C54 1_555 1_555
S2 C6 1_555 1_555
O4 C55 1_555 1_555
O5 C54 1_555 1_555
N13 H52 1_555 1_555
C54 N13 1_555 1_555
C55 N13 1_555 1_555
C56 C28 1_555 1_555
C57 N11 1_555 1_555
H53 C57 1_555 1_555
H54 C57 1_555 1_555
H55 C57 1_555 1_555
O6 C58 1_555 1_555
N14 C58 1_555 1_555
C58 H56 1_555 1_555
C59 N14 1_555 1_555
H57 C59 1_555 1_555
H58 C59 1_555 1_555
H59 C59 1_555 1_555
C60 N14 1_555 1_555
H60 C60 1_555 1_555
H61 C60 1_555 1_555
H62 C60 1_555 1_555
C5 C6 1_555 1_555
C8 S2 1_555 1_555
C13 C14 1_555 1_555
C19 C20 1_555 1_555
C26 N5 1_555 1_555
C32 C56 1_555 1_555
C37 C38 1_555 1_555
C43 C44 1_555 1_555
C49 N11 1_555 1_555
C52 N12 1_555 1_555
S1 C56 1_555 1_555
C55 C56 1_555 1_555

#END
