
#######################################################################
#
#                 Cambridge Crystallographic Data Centre
#                                CCDC 
#
#######################################################################
#
# If this CIF has been generated from an entry in the Cambridge 
# Structural Database, then it will include bibliographic, chemical, 
# crystal, experimental, refinement or atomic coordinate data resulting 
# from the CCDC's data processing and validation procedures.
#
#######################################################################

data_LUKNEM
_chemical_formula_moiety         'C9 H16 B10'
_chemical_name_systematic        
1,3-(2-Methylenephenyl)-1,2-dicarba-closo-dodecaborane(10)
_symmetry_cell_setting           orthorhombic
_symmetry_space_group_name_H-M   'P 21 21 21'
_symmetry_Int_Tables_number      19
_space_group_name_Hall           'P 2ac 2ab'
loop_
_symmetry_equiv_pos_site_id
_symmetry_equiv_pos_as_xyz
1 x,y,z
2 1/2-x,-y,1/2+z
3 -x,1/2+y,1/2-z
4 1/2+x,1/2-y,-z
_cell_length_a                   6.9513(14)
_cell_length_b                   8.9094(19)
_cell_length_c                   22.121(5)
_cell_angle_alpha                90
_cell_angle_beta                 90
_cell_angle_gamma                90
_cell_volume                     1370
_exptl_crystal_colour            colorless
_exptl_crystal_description       block
_cell_formula_units_Z            4
loop_
_atom_site_label
_atom_site_type_symbol
_atom_site_fract_x
_atom_site_fract_y
_atom_site_fract_z
C1 C 0.7472(6) -0.0007(4) 0.16389(16)
C2 C 0.6328(6) -0.0361(4) 0.10026(19)
H1 H 0.5834 0.0557 0.0708
C3 C 0.8122(7) 0.1607(4) 0.17169(19)
H2 H 0.8640 0.1761 0.2119
H3 H 0.7050 0.2289 0.1658
C4 C 0.9667(6) 0.1879(4) 0.12414(18)
C5 C 1.0654(7) 0.3238(4) 0.1169(2)
H4 H 1.0395 0.4047 0.1422
C6 C 1.2008(8) 0.3362(5) 0.0719(2)
H5 H 1.2670 0.4262 0.0671
C7 C 1.2401(7) 0.2183(5) 0.0341(2)
H6 H 1.3332 0.2288 0.0042
C8 C 1.1413(6) 0.0821(4) 0.03998(19)
H7 H 1.1665 0.0034 0.0135
C9 C 1.0055(6) 0.0652(4) 0.08559(16)
B1 B 0.8790(6) -0.0718(4) 0.1038(2)
B2 B 0.9066(7) -0.1380(5) 0.1792(2)
H8 H 1.0417 -0.1195 0.2040
B3 B 0.6875(8) -0.1298(6) 0.2178(2)
H9 H 0.6795 -0.1058 0.2665
B4 B 0.5113(8) -0.0623(5) 0.1671(2)
H10 H 0.3889 0.0061 0.1824
B5 B 0.7178(8) -0.1961(5) 0.0673(2)
H11 H 0.7262 -0.2155 0.0183
B6 B 0.8944(8) -0.2657(4) 0.1184(2)
H12 H 1.0187 -0.3317 0.1029
B7 B 0.7752(8) -0.3028(5) 0.1889(2)
H13 H 0.8230 -0.3940 0.2189
B8 B 0.5269(8) -0.2552(5) 0.1810(2)
H14 H 0.4130 -0.3150 0.2057
B9 B 0.4925(9) -0.1909(5) 0.1064(2)
H15 H 0.3561 -0.2076 0.0822
B10 B 0.6550(8) -0.3396(5) 0.1200(2)
H16 H 0.6242 -0.4550 0.1052
loop_
_geom_bond_atom_site_label_1
_geom_bond_atom_site_label_2
_geom_bond_site_symmetry_1
_geom_bond_site_symmetry_2
C1 C2 1_555 1_555
C2 H1 1_555 1_555
C3 C1 1_555 1_555
H2 C3 1_555 1_555
H3 C3 1_555 1_555
C4 C3 1_555 1_555
C5 C4 1_555 1_555
H4 C5 1_555 1_555
C6 C5 1_555 1_555
H5 C6 1_555 1_555
C7 C6 1_555 1_555
H6 C7 1_555 1_555
C8 C7 1_555 1_555
H7 C8 1_555 1_555
C9 C4 1_555 1_555
B1 C1 1_555 1_555
B2 C1 1_555 1_555
H8 B2 1_555 1_555
B3 C1 1_555 1_555
H9 B3 1_555 1_555
B4 C1 1_555 1_555
H10 B4 1_555 1_555
B5 C2 1_555 1_555
H11 B5 1_555 1_555
B6 B1 1_555 1_555
H12 B6 1_555 1_555
B7 B2 1_555 1_555
H13 B7 1_555 1_555
B8 B3 1_555 1_555
H14 B8 1_555 1_555
B9 C2 1_555 1_555
H15 B9 1_555 1_555
B10 B5 1_555 1_555
H16 B10 1_555 1_555
C2 B1 1_555 1_555
C2 B4 1_555 1_555
C8 C9 1_555 1_555
C9 B1 1_555 1_555
B1 B2 1_555 1_555
B1 B5 1_555 1_555
B2 B3 1_555 1_555
B2 B6 1_555 1_555
B3 B4 1_555 1_555
B3 B7 1_555 1_555
B4 B8 1_555 1_555
B4 B9 1_555 1_555
B5 B6 1_555 1_555
B5 B9 1_555 1_555
B6 B7 1_555 1_555
B6 B10 1_555 1_555
B7 B8 1_555 1_555
B7 B10 1_555 1_555
B8 B9 1_555 1_555
B8 B10 1_555 1_555
B9 B10 1_555 1_555

#END
