
#######################################################################
#
#                 Cambridge Crystallographic Data Centre
#                                CCDC 
#
#######################################################################
#
# If this CIF has been generated from an entry in the Cambridge 
# Structural Database, then it will include bibliographic, chemical, 
# crystal, experimental, refinement or atomic coordinate data resulting 
# from the CCDC's data processing and validation procedures.
#
#######################################################################

data_LUKTUI
_chemical_formula_moiety         'C25 H22 Cl1 N1 O2'
_chemical_name_systematic        
'ethyl 3-(5-chloro-2-phenyl-1H-indol-3-yl)-3-phenylpropanoate'
_symmetry_cell_setting           orthorhombic
_symmetry_space_group_name_H-M   'P b c n'
_symmetry_Int_Tables_number      60
_space_group_name_Hall           '-P 2n 2ab'
loop_
_symmetry_equiv_pos_site_id
_symmetry_equiv_pos_as_xyz
1 x,y,z
2 1/2-x,1/2-y,1/2+z
3 1/2+x,1/2-y,-z
4 -x,y,1/2-z
5 -x,-y,-z
6 1/2+x,1/2+y,1/2-z
7 1/2-x,1/2+y,z
8 x,-y,1/2+z
_cell_length_a                   10.1558(7)
_cell_length_b                   12.1446(9)
_cell_length_c                   33.605(2)
_cell_angle_alpha                90
_cell_angle_beta                 90
_cell_angle_gamma                90
_cell_volume                     4144.78
_exptl_crystal_colour            colorless
_exptl_crystal_description       block
_cell_formula_units_Z            8
loop_
_atom_site_label
_atom_site_type_symbol
_atom_site_fract_x
_atom_site_fract_y
_atom_site_fract_z
C1 C 0.54948(15) 0.29890(13) 0.09779(5)
C2 C 0.61955(17) 0.22877(13) 0.07259(5)
H1 H 0.5861 0.1603 0.0654
C3 C 0.73983(18) 0.26430(14) 0.05867(5)
H2 H 0.7883 0.2201 0.0415
C4 C 0.78952(16) 0.36789(14) 0.07051(5)
C5 C 0.72080(16) 0.43914(13) 0.09457(5)
H3 H 0.7557 0.5072 0.1016
C6 C 0.59588(16) 0.40567(12) 0.10815(5)
C7 C 0.49436(15) 0.45698(12) 0.13159(5)
C8 C 0.39449(16) 0.38103(13) 0.13567(5)
C9 C 0.49669(15) 0.57406(12) 0.14740(5)
H4 H 0.4144 0.5860 0.1620
C10 C 0.50018(16) 0.65784(13) 0.11262(5)
H5 H 0.4879 0.7316 0.1231
H6 H 0.5857 0.6550 0.0998
C11 C 0.39491(17) 0.63402(13) 0.08240(5)
C12 C 0.3469(2) 0.55713(18) 0.01910(6)
H7 H 0.3883 0.5551 -0.0069
H8 H 0.2762 0.6108 0.0182
C13 C 0.2900(2) 0.44405(18) 0.02866(7)
H9 H 0.2238 0.4257 0.0094
H10 H 0.2515 0.4452 0.0547
H11 H 0.3590 0.3900 0.0278
C14 C 0.61049(16) 0.59166(12) 0.17675(5)
C15 C 0.62031(17) 0.52108(14) 0.20950(5)
H12 H 0.5587 0.4651 0.2126
C16 C 0.72023(18) 0.53266(16) 0.23754(6)
H13 H 0.7253 0.4848 0.2591
C17 C 0.81262(18) 0.61658(16) 0.23304(6)
H14 H 0.8796 0.6250 0.2517
C18 C 0.80455(18) 0.68715(15) 0.20092(6)
H15 H 0.8664 0.7430 0.1980
C19 C 0.70415(17) 0.67531(14) 0.17278(5)
H16 H 0.6996 0.7234 0.1513
C20 C 0.26765(16) 0.38379(13) 0.15729(5)
C21 C 0.17591(17) 0.46826(14) 0.15152(5)
H17 H 0.1954 0.5257 0.1342
C22 C 0.05587(17) 0.46706(15) 0.17144(6)
H18 H -0.0045 0.5234 0.1672
C23 C 0.02557(18) 0.38227(15) 0.19767(5)
H19 H -0.0548 0.3817 0.2109
C24 C 0.11659(17) 0.29816(14) 0.20392(5)
H20 H 0.0973 0.2416 0.2216
C25 C 0.23610(17) 0.29836(14) 0.18378(5)
H21 H 0.2957 0.2414 0.1879
N1 N 0.42951(14) 0.28435(11) 0.11609(5)
H22 H 0.3687(19) 0.2319(17) 0.1108(6)
O1 O 0.44406(12) 0.59120(10) 0.04889(4)
O2 O 0.27802(12) 0.65045(10) 0.08742(4)
Cl1 Cl 0.94493(4) 0.40680(4) 0.052348(14)
loop_
_geom_bond_atom_site_label_1
_geom_bond_atom_site_label_2
_geom_bond_site_symmetry_1
_geom_bond_site_symmetry_2
C1 C2 1_555 1_555
C2 H1 1_555 1_555
C3 C2 1_555 1_555
H2 C3 1_555 1_555
C4 C3 1_555 1_555
C5 C4 1_555 1_555
H3 C5 1_555 1_555
C6 C1 1_555 1_555
C7 C6 1_555 1_555
C8 C7 1_555 1_555
C9 C7 1_555 1_555
H4 C9 1_555 1_555
C10 C9 1_555 1_555
H5 C10 1_555 1_555
H6 C10 1_555 1_555
C11 C10 1_555 1_555
C12 H7 1_555 1_555
H8 C12 1_555 1_555
C13 C12 1_555 1_555
H9 C13 1_555 1_555
H10 C13 1_555 1_555
H11 C13 1_555 1_555
C14 C9 1_555 1_555
C15 C14 1_555 1_555
H12 C15 1_555 1_555
C16 C15 1_555 1_555
H13 C16 1_555 1_555
C17 C16 1_555 1_555
H14 C17 1_555 1_555
C18 C17 1_555 1_555
H15 C18 1_555 1_555
C19 C14 1_555 1_555
H16 C19 1_555 1_555
C20 C8 1_555 1_555
C21 C20 1_555 1_555
H17 C21 1_555 1_555
C22 C21 1_555 1_555
H18 C22 1_555 1_555
C23 C22 1_555 1_555
H19 C23 1_555 1_555
C24 C23 1_555 1_555
H20 C24 1_555 1_555
C25 C20 1_555 1_555
H21 C25 1_555 1_555
N1 C1 1_555 1_555
H22 N1 1_555 1_555
O1 C11 1_555 1_555
O2 C11 1_555 1_555
Cl1 C4 1_555 1_555
C5 C6 1_555 1_555
C8 N1 1_555 1_555
C12 O1 1_555 1_555
C18 C19 1_555 1_555
C24 C25 1_555 1_555

#END
