
#######################################################################
#
#                 Cambridge Crystallographic Data Centre
#                                CCDC 
#
#######################################################################
#
# If this CIF has been generated from an entry in the Cambridge 
# Structural Database, then it will include bibliographic, chemical, 
# crystal, experimental, refinement or atomic coordinate data resulting 
# from the CCDC's data processing and validation procedures.
#
#######################################################################

data_LULYOH
_chemical_formula_moiety         'C26 H46 Ca1 N4 O2'
_chemical_name_systematic        
bis(N-ethyl-N-((1H-pyrrol-2-yl)methyl)ethanaminato)-bis(tetrahydrofuran)-calcium
_symmetry_cell_setting           monoclinic
_symmetry_space_group_name_H-M   'P 21/c'
_symmetry_Int_Tables_number      14
_space_group_name_Hall           '-P 2ybc'
loop_
_symmetry_equiv_pos_site_id
_symmetry_equiv_pos_as_xyz
1 x,y,z
2 -x,1/2+y,1/2-z
3 -x,-y,-z
4 x,1/2-y,1/2+z
_cell_length_a                   8.7173(3)
_cell_length_b                   14.7092(5)
_cell_length_c                   10.4000(3)
_cell_angle_alpha                90
_cell_angle_beta                 92.366(2)
_cell_angle_gamma                90
_cell_volume                     1332.4
_exptl_crystal_colour            colorless
_exptl_crystal_description       block
_cell_formula_units_Z            2
loop_
_atom_site_label
_atom_site_type_symbol
_atom_site_fract_x
_atom_site_fract_y
_atom_site_fract_z
C1 C 1.29336(18) -0.09530(11) 0.69197(15)
H1 H 1.3414 -0.1332 0.6316
C2 C 1.36426(18) -0.06415(12) 0.80489(15)
H2 H 1.4662 -0.0766 0.8359
C3 C 1.25411(18) -0.01010(11) 0.86468(15)
H3 H 1.2674 0.0215 0.9440
C4 C 1.12279(18) -0.01219(11) 0.78513(14)
C5 C 0.96606(18) 0.02546(12) 0.80905(15)
H4 H 0.8954 -0.0256 0.8249
H5 H 0.9724 0.0635 0.8877
C6 C 0.73055(17) 0.08313(12) 0.70090(15)
H6 H 0.6932 0.0196 0.6997
H7 H 0.6914 0.1123 0.6203
C7 C 0.66009(19) 0.13194(13) 0.81375(16)
H8 H 0.7080 0.1098 0.8947
H9 H 0.5495 0.1199 0.8127
H10 H 0.6776 0.1975 0.8063
C8 C 0.96636(18) 0.17419(11) 0.70784(15)
H11 H 1.0796 0.1699 0.7065
H12 H 0.9403 0.2015 0.7912
C9 C 0.9097(2) 0.23697(12) 0.59972(16)
H13 H 0.9198 0.2064 0.5168
H14 H 0.9711 0.2928 0.6016
H15 H 0.8016 0.2522 0.6112
C10 C 1.34699(18) 0.11461(12) 0.55453(16)
H16 H 1.4330 0.0801 0.5189
H17 H 1.3309 0.0931 0.6431
C11 C 1.3802(2) 0.21639(12) 0.55359(17)
H18 H 1.3461 0.2454 0.6334
H19 H 1.4914 0.2278 0.5461
C12 C 1.2896(2) 0.25310(14) 0.43645(19)
H20 H 1.2077 0.2950 0.4626
H21 H 1.3578 0.2857 0.3781
C13 C 1.2218(2) 0.16907(12) 0.37200(15)
H22 H 1.1199 0.1826 0.3309
H23 H 1.2901 0.1459 0.3057
Ca1 Ca 1.0000 0.0000 0.5000
N1 N 1.14533(14) -0.06480(9) 0.67804(12)
N2 N 0.90091(14) 0.08128(9) 0.69978(11)
O1 O 1.20831(12) 0.10378(8) 0.47420(10)
C1B C 0.70664(18) 0.09530(11) 0.30803(15)
H1B H 0.6586 0.1332 0.3684
C2B C 0.63574(18) 0.06415(12) 0.19511(15)
H2B H 0.5338 0.0766 0.1641
C3B C 0.74589(18) 0.01010(11) 0.13532(15)
H3B H 0.7326 -0.0215 0.0560
C4B C 0.87721(18) 0.01219(11) 0.21487(14)
C5B C 1.03394(18) -0.02546(12) 0.19095(15)
H4B H 1.1046 0.0256 0.1751
H5B H 1.0276 -0.0635 0.1123
C6B C 1.26945(17) -0.08313(12) 0.29910(15)
H6B H 1.3068 -0.0196 0.3003
H7B H 1.3086 -0.1123 0.3797
C7B C 1.33991(19) -0.13194(13) 0.18625(16)
H8B H 1.2920 -0.1098 0.1053
H9B H 1.4505 -0.1199 0.1873
H10B H 1.3224 -0.1975 0.1937
C8B C 1.03364(18) -0.17419(11) 0.29216(15)
H11B H 0.9204 -0.1699 0.2935
H12B H 1.0597 -0.2015 0.2088
C9B C 1.0903(2) -0.23697(12) 0.40028(16)
H13B H 1.0802 -0.2064 0.4832
H14B H 1.0289 -0.2928 0.3984
H15B H 1.1984 -0.2522 0.3888
C10B C 0.65301(18) -0.11461(12) 0.44547(16)
H16B H 0.5670 -0.0801 0.4811
H17B H 0.6691 -0.0931 0.3569
C11B C 0.6198(2) -0.21639(12) 0.44641(17)
H18B H 0.6539 -0.2454 0.3666
H19B H 0.5086 -0.2278 0.4539
C12B C 0.7104(2) -0.25310(14) 0.56355(19)
H20B H 0.7923 -0.2950 0.5374
H21B H 0.6422 -0.2857 0.6219
C13B C 0.7782(2) -0.16907(12) 0.62800(15)
H22B H 0.8801 -0.1826 0.6691
H23B H 0.7099 -0.1459 0.6943
N1B N 0.85467(14) 0.06480(9) 0.32196(12)
N2B N 1.09909(14) -0.08128(9) 0.30022(11)
O1B O 0.79169(12) -0.10378(8) 0.52580(10)
loop_
_geom_bond_atom_site_label_1
_geom_bond_atom_site_label_2
_geom_bond_site_symmetry_1
_geom_bond_site_symmetry_2
C1 H1 1_555 1_555
C2 C1 1_555 1_555
H2 C2 1_555 1_555
C3 C2 1_555 1_555
H3 C3 1_555 1_555
C4 C3 1_555 1_555
C5 C4 1_555 1_555
H4 C5 1_555 1_555
H5 C5 1_555 1_555
C6 H6 1_555 1_555
H7 C6 1_555 1_555
C7 C6 1_555 1_555
H8 C7 1_555 1_555
H9 C7 1_555 1_555
H10 C7 1_555 1_555
C8 H11 1_555 1_555
H12 C8 1_555 1_555
C9 C8 1_555 1_555
H13 C9 1_555 1_555
H14 C9 1_555 1_555
H15 C9 1_555 1_555
C10 H16 1_555 1_555
H17 C10 1_555 1_555
C11 C10 1_555 1_555
H18 C11 1_555 1_555
H19 C11 1_555 1_555
C12 C11 1_555 1_555
H20 C12 1_555 1_555
H21 C12 1_555 1_555
C13 C12 1_555 1_555
H22 C13 1_555 1_555
H23 C13 1_555 1_555
Ca1 N1 1_555 1_555
N1 C1 1_555 1_555
N2 C5 1_555 1_555
O1 C10 1_555 1_555
C1B H1B 1_555 1_555
C2B C1B 1_555 1_555
H2B C2B 1_555 1_555
C3B C2B 1_555 1_555
H3B C3B 1_555 1_555
C4B C3B 1_555 1_555
C5B C4B 1_555 1_555
H4B C5B 1_555 1_555
H5B C5B 1_555 1_555
C6B H6B 1_555 1_555
H7B C6B 1_555 1_555
C7B C6B 1_555 1_555
H8B C7B 1_555 1_555
H9B C7B 1_555 1_555
H10B C7B 1_555 1_555
C8B H11B 1_555 1_555
H12B C8B 1_555 1_555
C9B C8B 1_555 1_555
H13B C9B 1_555 1_555
H14B C9B 1_555 1_555
H15B C9B 1_555 1_555
C10B H16B 1_555 1_555
H17B C10B 1_555 1_555
C11B C10B 1_555 1_555
H18B C11B 1_555 1_555
H19B C11B 1_555 1_555
C12B C11B 1_555 1_555
H20B C12B 1_555 1_555
H21B C12B 1_555 1_555
C13B C12B 1_555 1_555
H22B C13B 1_555 1_555
H23B C13B 1_555 1_555
N1B Ca1 1_555 1_555
N2B Ca1 1_555 1_555
O1B Ca1 1_555 1_555
C4 N1 1_555 1_555
C6 N2 1_555 1_555
C8 N2 1_555 1_555
C13 O1 1_555 1_555
Ca1 N2 1_555 1_555
Ca1 O1 1_555 1_555
C1B N1B 1_555 1_555
C4B N1B 1_555 1_555
C5B N2B 1_555 1_555
C6B N2B 1_555 1_555
C8B N2B 1_555 1_555
C10B O1B 1_555 1_555
C13B O1B 1_555 1_555

#END
