
#######################################################################
#
#                 Cambridge Crystallographic Data Centre
#                                CCDC 
#
#######################################################################
#
# If this CIF has been generated from an entry in the Cambridge 
# Structural Database, then it will include bibliographic, chemical, 
# crystal, experimental, refinement or atomic coordinate data resulting 
# from the CCDC's data processing and validation procedures.
#
#######################################################################

data_LUMHIL
_chemical_formula_moiety         'C26 H46 N6 4+,4(Br1 1-)'
_chemical_name_systematic        
'6,19-Dimethyl-6,19-diaza-3,9,16,22-tetra-azoniatricyclo(22.2.2.2^11,14^)triaconta-1(26),11,13,24,27,29-hexaene tetrabromide'
_symmetry_cell_setting           triclinic
_symmetry_space_group_name_H-M   'P -1'
_symmetry_Int_Tables_number      2
_space_group_name_Hall           '-P 1'
loop_
_symmetry_equiv_pos_site_id
_symmetry_equiv_pos_as_xyz
1 x,y,z
2 -x,-y,-z
_cell_length_a                   5.7991(5)
_cell_length_b                   9.5238(10)
_cell_length_c                   14.7954(14)
_cell_angle_alpha                74.360(5)
_cell_angle_beta                 84.001(6)
_cell_angle_gamma                88.462(6)
_cell_volume                     782.577
_exptl_crystal_colour            colorless
_cell_formula_units_Z            1
loop_
_atom_site_label
_atom_site_type_symbol
_atom_site_fract_x
_atom_site_fract_y
_atom_site_fract_z
Br1 Br 0.84343(2) 0.323097(14) 0.711615(9)
Br2 Br 0.84492(2) 0.805221(15) 0.807756(10)
N1 N 0.36336(19) 0.28291(12) 0.88993(8)
N2 N 0.3433(2) 0.14206(13) 0.74313(8)
H1 H 0.461(4) 0.201(2) 0.7358(15)
H2 H 0.221(4) 0.199(2) 0.7296(15)
N3 N 0.4844(2) 0.57342(13) 0.77189(8)
H3 H 0.567(4) 0.500(2) 0.7655(15)
H4 H 0.581(4) 0.650(2) 0.7618(15)
C1 C 0.2114(2) 0.15690(14) 0.90398(9)
H5 H 0.0552 0.1911 0.8866
H6 H 0.1962 0.1021 0.9715
C2 C 0.3065(2) 0.05620(14) 0.84449(9)
H7 H 0.4552 0.0133 0.8660
H8 H 0.1957 -0.0243 0.8516
C3 C 0.3846(3) 0.04757(15) 0.67641(10)
H9 H 0.2405 -0.0058 0.6763
H10 H 0.5062 -0.0251 0.6980
C4 C 0.4592(2) 0.13819(14) 0.57791(9)
C5 C 0.6802(2) 0.12124(15) 0.53534(10)
H11 H 0.7840 0.0525 0.5688
C6 C 0.7500(2) 0.20425(15) 0.44425(10)
H12 H 0.9000 0.1904 0.4155
C7 C 0.6012(2) 0.30781(15) 0.39473(9)
C8 C 0.3801(3) 0.32538(17) 0.43742(10)
H13 H 0.2776 0.3958 0.4046
C9 C 0.3092(2) 0.24004(16) 0.52787(10)
H14 H 0.1572 0.2513 0.5558
C10 C 0.3082(2) 0.59895(16) 0.70152(10)
H15 H 0.1706 0.6468 0.7255
H16 H 0.2581 0.5036 0.6954
C11 C 0.3796(2) 0.54823(15) 0.87180(10)
H17 H 0.2810 0.6327 0.8771
H18 H 0.5051 0.5417 0.9132
C12 C 0.2342(2) 0.40995(15) 0.90567(10)
H19 H 0.1842 0.3926 0.9738
H20 H 0.0934 0.4229 0.8718
C13 C 0.5564(2) 0.24481(16) 0.94838(10)
H21 H 0.6659 0.3265 0.9326
H22 H 0.6356 0.1584 0.9365
H23 H 0.4969 0.2241 1.0151
N1A N 0.63664(19) 0.71709(12) 0.11007(8)
N2A N 0.6567(2) 0.85794(13) 0.25687(8)
H1A H 0.539(4) 0.799(2) 0.2642(15)
H2A H 0.779(4) 0.801(2) 0.2704(15)
N3A N 0.5156(2) 0.42658(13) 0.22811(8)
H3A H 0.433(4) 0.500(2) 0.2345(15)
H4A H 0.419(4) 0.350(2) 0.2382(15)
C1A C 0.7886(2) 0.84310(14) 0.09602(9)
H5A H 0.9448 0.8089 0.1134
H6A H 0.8038 0.8979 0.0285
C2A C 0.6935(2) 0.94380(14) 0.15551(9)
H7A H 0.5448 0.9867 0.1340
H8A H 0.8043 1.0243 0.1484
C3A C 0.6154(3) 0.95243(15) 0.32359(10)
H9A H 0.7595 1.0058 0.3237
H10A H 0.4938 1.0251 0.3020
C4A C 0.5408(2) 0.86181(14) 0.42209(9)
C5A C 0.3198(2) 0.87876(15) 0.46466(10)
H11A H 0.2160 0.9475 0.4312
C6A C 0.2500(2) 0.79575(15) 0.55575(10)
H12A H 0.1000 0.8096 0.5845
C7A C 0.3988(2) 0.69219(15) 0.60527(9)
C8A C 0.6199(3) 0.67462(17) 0.56258(10)
H13A H 0.7224 0.6042 0.5954
C9A C 0.6908(2) 0.75996(16) 0.47213(10)
H14A H 0.8428 0.7487 0.4442
C10A C 0.6918(2) 0.40105(16) 0.29848(10)
H15A H 0.8294 0.3532 0.2745
H16A H 0.7419 0.4964 0.3046
C11A C 0.6204(2) 0.45177(15) 0.12820(10)
H17A H 0.7190 0.3673 0.1229
H18A H 0.4949 0.4583 0.0868
C12A C 0.7658(2) 0.59005(15) 0.09433(10)
H19A H 0.8158 0.6074 0.0262
H20A H 0.9066 0.5771 0.1282
C13A C 0.4436(2) 0.75519(16) 0.05162(10)
H21A H 0.3341 0.6735 0.0674
H22A H 0.3644 0.8416 0.0635
H23A H 0.5031 0.7759 -0.0151
loop_
_geom_bond_atom_site_label_1
_geom_bond_atom_site_label_2
_geom_bond_site_symmetry_1
_geom_bond_site_symmetry_2
N1 C1 1_555 1_555
N2 H1 1_555 1_555
H2 N2 1_555 1_555
N3 H3 1_555 1_555
H4 N3 1_555 1_555
C1 H5 1_555 1_555
H6 C1 1_555 1_555
C2 N2 1_555 1_555
H7 C2 1_555 1_555
H8 C2 1_555 1_555
C3 N2 1_555 1_555
H9 C3 1_555 1_555
H10 C3 1_555 1_555
C4 C3 1_555 1_555
C5 C4 1_555 1_555
H11 C5 1_555 1_555
C6 C5 1_555 1_555
H12 C6 1_555 1_555
C7 C6 1_555 1_555
C8 C7 1_555 1_555
H13 C8 1_555 1_555
C9 C4 1_555 1_555
H14 C9 1_555 1_555
C10 N3 1_555 1_555
H15 C10 1_555 1_555
H16 C10 1_555 1_555
C11 N3 1_555 1_555
H17 C11 1_555 1_555
H18 C11 1_555 1_555
C12 N1 1_555 1_555
H19 C12 1_555 1_555
H20 C12 1_555 1_555
C13 N1 1_555 1_555
H21 C13 1_555 1_555
H22 C13 1_555 1_555
H23 C13 1_555 1_555
N1A C1A 1_555 1_555
N2A H1A 1_555 1_555
H2A N2A 1_555 1_555
N3A H3A 1_555 1_555
H4A N3A 1_555 1_555
C1A H5A 1_555 1_555
H6A C1A 1_555 1_555
C2A N2A 1_555 1_555
H7A C2A 1_555 1_555
H8A C2A 1_555 1_555
C3A N2A 1_555 1_555
H9A C3A 1_555 1_555
H10A C3A 1_555 1_555
C4A C3A 1_555 1_555
C5A C4A 1_555 1_555
H11A C5A 1_555 1_555
C6A C5A 1_555 1_555
H12A C6A 1_555 1_555
C7A C10 1_555 1_555
C8A C7A 1_555 1_555
H13A C8A 1_555 1_555
C9A C4A 1_555 1_555
H14A C9A 1_555 1_555
C10A C7 1_555 1_555
H15A C10A 1_555 1_555
H16A C10A 1_555 1_555
C11A N3A 1_555 1_555
H17A C11A 1_555 1_555
H18A C11A 1_555 1_555
C12A N1A 1_555 1_555
H19A C12A 1_555 1_555
H20A C12A 1_555 1_555
C13A N1A 1_555 1_555
H21A C13A 1_555 1_555
H22A C13A 1_555 1_555
H23A C13A 1_555 1_555
C1 C2 1_555 1_555
C8 C9 1_555 1_555
C11 C12 1_555 1_555
N3A C10A 1_555 1_555
C1A C2A 1_555 1_555
C6A C7A 1_555 1_555
C8A C9A 1_555 1_555
C11A C12A 1_555 1_555

#END
