
#######################################################################
#
#                 Cambridge Crystallographic Data Centre
#                                CCDC 
#
#######################################################################
#
# If this CIF has been generated from an entry in the Cambridge 
# Structural Database, then it will include bibliographic, chemical, 
# crystal, experimental, refinement or atomic coordinate data resulting 
# from the CCDC's data processing and validation procedures.
#
#######################################################################

data_LUNHUY
_chemical_formula_moiety         'C31 H37 N1 O1'
_chemical_name_systematic        
3,6-Di-t-butyl-1-(3-t-butylisoquinolin-1-yl)-2-naphthol
_symmetry_cell_setting           monoclinic
_symmetry_space_group_name_H-M   'C 2/c'
_symmetry_Int_Tables_number      15
_space_group_name_Hall           '-C 2yn'
loop_
_symmetry_equiv_pos_site_id
_symmetry_equiv_pos_as_xyz
1 x,y,z
2 -x,y,1/2-z
3 1/2+x,1/2+y,z
4 1/2-x,1/2+y,1/2-z
5 -x,-y,-z
6 x,-y,1/2+z
7 1/2-x,1/2-y,-z
8 1/2+x,1/2-y,1/2+z
_cell_length_a                   25.055(4)
_cell_length_b                   12.368(2)
_cell_length_c                   17.991(4)
_cell_angle_alpha                90
_cell_angle_beta                 113.732(13)
_cell_angle_gamma                90
_cell_volume                     5103.62
_exptl_crystal_colour            'light yellow'
_exptl_crystal_description       rod
_cell_formula_units_Z            8
loop_
_atom_site_label
_atom_site_type_symbol
_atom_site_fract_x
_atom_site_fract_y
_atom_site_fract_z
O1 O 0.29495(9) 0.37599(17) 0.17113(14)
N1 N 0.37501(10) 0.51089(18) 0.15975(14)
C1 C 0.39496(13) 0.3801(2) 0.26451(17)
C2 C 0.34115(13) 0.3301(2) 0.23343(18)
C3 C 0.33016(13) 0.2294(2) 0.26297(18)
C4 C 0.37827(13) 0.1761(2) 0.31562(18)
H1 H 0.3727 0.1093 0.3376
C5 C 0.43627(13) 0.2148(2) 0.33951(18)
C6 C 0.48486(13) 0.1487(2) 0.38192(18)
H2 H 0.4784 0.0786 0.3981
C7 C 0.54114(13) 0.1813(2) 0.40082(18)
C8 C 0.54855(13) 0.2872(2) 0.37909(17)
H3 H 0.5870 0.3130 0.3923
C9 C 0.50288(13) 0.3548(2) 0.33973(17)
H4 H 0.5103 0.4265 0.3275
C10 C 0.44484(13) 0.3201(2) 0.31680(17)
C11 C 0.40023(12) 0.4928(2) 0.23897(18)
C12 C 0.37821(12) 0.6115(2) 0.12919(19)
C13 C 0.40614(12) 0.6938(2) 0.17952(18)
H5 H 0.4095 0.7618 0.1572
C14 C 0.43019(12) 0.6802(2) 0.26429(18)
C15 C 0.45448(13) 0.7673(3) 0.3181(2)
H6 H 0.4578 0.8365 0.2974
C16 C 0.47304(13) 0.7525(3) 0.3993(2)
H7 H 0.4896 0.8112 0.4354
C17 C 0.46798(13) 0.6512(3) 0.4303(2)
H8 H 0.4804 0.6423 0.4873
C18 C 0.44562(12) 0.5652(3) 0.38030(19)
H9 H 0.4429 0.4968 0.4025
C19 C 0.42642(12) 0.5775(2) 0.29554(19)
C20 C 0.26858(13) 0.1834(3) 0.2359(2)
C21 C 0.22746(13) 0.2663(3) 0.2485(2)
H10 H 0.2436 0.2899 0.3053
H11 H 0.1892 0.2331 0.2350
H12 H 0.2234 0.3288 0.2131
C22 C 0.24551(14) 0.1506(3) 0.1464(2)
H13 H 0.2481 0.2124 0.1139
H14 H 0.2048 0.1276 0.1280
H15 H 0.2690 0.0907 0.1400
C23 C 0.26750(14) 0.0827(3) 0.2846(2)
H16 H 0.2906 0.0253 0.2743
H17 H 0.2272 0.0580 0.2681
H18 H 0.2840 0.1002 0.3427
C24 C 0.59310(14) 0.1052(3) 0.4377(2)
C25 C 0.64889(17) 0.1644(3) 0.4848(3)
H19 H 0.6599 0.2075 0.4474
H20 H 0.6798 0.1122 0.5131
H21 H 0.6434 0.2123 0.5245
C26 C 0.58473(16) 0.0234(3) 0.4950(2)
H22 H 0.6190 -0.0238 0.5170
H23 H 0.5500 -0.0203 0.4654
H24 H 0.5798 0.0614 0.5396
C27 C 0.59997(19) 0.0422(3) 0.3698(2)
H25 H 0.6064 0.0926 0.3322
H26 H 0.5645 0.0001 0.3405
H27 H 0.6334 -0.0067 0.3927
C28 C 0.34748(13) 0.6204(2) 0.03745(18)
C29 C 0.28269(12) 0.5958(3) 0.01213(19)
H28 H 0.2780 0.5207 0.0257
H29 H 0.2619 0.6067 -0.0465
H30 H 0.2666 0.6444 0.0410
C30 C 0.37398(13) 0.5385(2) -0.00174(18)
H31 H 0.3673 0.4651 0.0132
H32 H 0.4160 0.5515 0.0174
H33 H 0.3556 0.5464 -0.0609
C31 C 0.35419(13) 0.7331(2) 0.00803(19)
H34 H 0.3341 0.7362 -0.0513
H35 H 0.3957 0.7491 0.0241
H36 H 0.3371 0.7866 0.0323
H37 H 0.3110(12) 0.424(2) 0.1545(18)
loop_
_geom_bond_atom_site_label_1
_geom_bond_atom_site_label_2
_geom_bond_site_symmetry_1
_geom_bond_site_symmetry_2
O1 C2 1_555 1_555
N1 C11 1_555 1_555
C1 C2 1_555 1_555
C2 C3 1_555 1_555
C3 C4 1_555 1_555
C4 H1 1_555 1_555
C5 C4 1_555 1_555
C6 C5 1_555 1_555
H2 C6 1_555 1_555
C7 C6 1_555 1_555
C8 C7 1_555 1_555
H3 C8 1_555 1_555
C9 C8 1_555 1_555
H4 C9 1_555 1_555
C10 C1 1_555 1_555
C11 C1 1_555 1_555
C12 N1 1_555 1_555
C13 C12 1_555 1_555
H5 C13 1_555 1_555
C14 C13 1_555 1_555
C15 C14 1_555 1_555
H6 C15 1_555 1_555
C16 C15 1_555 1_555
H7 C16 1_555 1_555
C17 C16 1_555 1_555
H8 C17 1_555 1_555
C18 C17 1_555 1_555
H9 C18 1_555 1_555
C19 C11 1_555 1_555
C20 C3 1_555 1_555
C21 C20 1_555 1_555
H10 C21 1_555 1_555
H11 C21 1_555 1_555
H12 C21 1_555 1_555
C22 C20 1_555 1_555
H13 C22 1_555 1_555
H14 C22 1_555 1_555
H15 C22 1_555 1_555
C23 C20 1_555 1_555
H16 C23 1_555 1_555
H17 C23 1_555 1_555
H18 C23 1_555 1_555
C24 C7 1_555 1_555
C25 C24 1_555 1_555
H19 C25 1_555 1_555
H20 C25 1_555 1_555
H21 C25 1_555 1_555
C26 C24 1_555 1_555
H22 C26 1_555 1_555
H23 C26 1_555 1_555
H24 C26 1_555 1_555
C27 C24 1_555 1_555
H25 C27 1_555 1_555
H26 C27 1_555 1_555
H27 C27 1_555 1_555
C28 C12 1_555 1_555
C29 C28 1_555 1_555
H28 C29 1_555 1_555
H29 C29 1_555 1_555
H30 C29 1_555 1_555
C30 C28 1_555 1_555
H31 C30 1_555 1_555
H32 C30 1_555 1_555
H33 C30 1_555 1_555
C31 C28 1_555 1_555
H34 C31 1_555 1_555
H35 C31 1_555 1_555
H36 C31 1_555 1_555
H37 O1 1_555 1_555
C5 C10 1_555 1_555
C9 C10 1_555 1_555
C14 C19 1_555 1_555
C18 C19 1_555 1_555

#END
