
#######################################################################
#
#                 Cambridge Crystallographic Data Centre
#                                CCDC 
#
#######################################################################
#
# If this CIF has been generated from an entry in the Cambridge 
# Structural Database, then it will include bibliographic, chemical, 
# crystal, experimental, refinement or atomic coordinate data resulting 
# from the CCDC's data processing and validation procedures.
#
#######################################################################

data_LUNPUF
_chemical_formula_moiety         'C15 H14 Cl1 N1 O1'
_chemical_name_systematic        (+-)-N-(2-Chlorobenzoyl)-\a-methylbenzylamine
_symmetry_cell_setting           monoclinic
_symmetry_space_group_name_H-M   'P 21/c'
_symmetry_Int_Tables_number      14
_space_group_name_Hall           '-P 2ybc'
loop_
_symmetry_equiv_pos_site_id
_symmetry_equiv_pos_as_xyz
1 x,y,z
2 x,1/2-y,1/2+z
3 -x,-y,-z
4 -x,1/2+y,1/2-z
_cell_length_a                   8.7493(5)
_cell_length_b                   17.6087(11)
_cell_length_c                   9.4563(6)
_cell_angle_alpha                90
_cell_angle_beta                 108.697(5)
_cell_angle_gamma                90
_cell_volume                     1379.99
_exptl_crystal_colour            colorless
_exptl_crystal_description       plates
_chemical_melting_point          103-105deg.C
_cell_formula_units_Z            4
_exptl_crystal_recrystallization_method methanol/chloroform
loop_
_atom_site_label
_atom_site_type_symbol
_atom_site_fract_x
_atom_site_fract_y
_atom_site_fract_z
Cl1 Cl 0.08775(12) 0.93045(6) 0.92552(11)
O1 O 0.2887(3) 0.79436(11) 1.1165(2)
N1 N 0.2684(3) 0.72562(11) 0.9112(2)
H1 H 0.2874 0.7241 0.8275
C1 C 0.4619(5) 0.9783(2) 0.7949(4)
H2 H 0.4980 1.0196 0.7532
C2 C 0.5507(4) 0.9138(2) 0.8244(4)
H3 H 0.6478 0.9113 0.8042
C3 C 0.4967(4) 0.85132(17) 0.8849(3)
H4 H 0.5564 0.8066 0.9021
C4 C 0.3546(3) 0.85514(14) 0.9198(3)
C5 C 0.2680(4) 0.92202(16) 0.8883(3)
C6 C 0.3204(5) 0.98338(18) 0.8254(4)
H5 H 0.2597 1.0277 0.8041
C7 C 0.3005(3) 0.78893(15) 0.9913(3)
C8 C 0.2020(3) 0.65843(14) 0.9603(3)
H6 H 0.2499 0.6545 1.0690
C9 C 0.2487(4) 0.58784(16) 0.8910(4)
H7 H 0.3640 0.5854 0.9168
H8 H 0.2014 0.5901 0.7844
H9 H 0.2102 0.5435 0.9281
C10 C 0.0206(3) 0.66412(14) 0.9231(3)
C11 C -0.0754(4) 0.70098(19) 0.7988(4)
H10 H -0.0286 0.7251 0.7353
C12 C -0.2415(5) 0.7028(2) 0.7666(5)
H11 H -0.3050 0.7280 0.6817
C13 C -0.3120(4) 0.6683(2) 0.8569(5)
H12 H -0.4236 0.6695 0.8344
C14 C -0.2200(5) 0.6322(2) 0.9798(5)
H13 H -0.2684 0.6082 1.0421
C15 C -0.0538(4) 0.63019(17) 1.0146(3)
H14 H 0.0083 0.6056 1.1010
loop_
_geom_bond_atom_site_label_1
_geom_bond_atom_site_label_2
_geom_bond_site_symmetry_1
_geom_bond_site_symmetry_2
Cl1 C5 1_555 1_555
O1 C7 1_555 1_555
N1 H1 1_555 1_555
C1 H2 1_555 1_555
C2 C1 1_555 1_555
H3 C2 1_555 1_555
C3 C2 1_555 1_555
H4 C3 1_555 1_555
C4 C3 1_555 1_555
C5 C4 1_555 1_555
C6 C1 1_555 1_555
H5 C6 1_555 1_555
C7 N1 1_555 1_555
C8 N1 1_555 1_555
H6 C8 1_555 1_555
C9 C8 1_555 1_555
H7 C9 1_555 1_555
H8 C9 1_555 1_555
H9 C9 1_555 1_555
C10 C8 1_555 1_555
C11 C10 1_555 1_555
H10 C11 1_555 1_555
C12 C11 1_555 1_555
H11 C12 1_555 1_555
C13 C12 1_555 1_555
H12 C13 1_555 1_555
C14 C13 1_555 1_555
H13 C14 1_555 1_555
C15 C10 1_555 1_555
H14 C15 1_555 1_555
C4 C7 1_555 1_555
C5 C6 1_555 1_555
C14 C15 1_555 1_555

#END
