
#######################################################################
#
#                 Cambridge Crystallographic Data Centre
#                                CCDC 
#
#######################################################################
#
# If this CIF has been generated from an entry in the Cambridge 
# Structural Database, then it will include bibliographic, chemical, 
# crystal, experimental, refinement or atomic coordinate data resulting 
# from the CCDC's data processing and validation procedures.
#
#######################################################################

data_LUPBOP
_chemical_compound_source        'Stachybotrys bisbyi (PYH05-7)'
_chemical_name_common            '4,5-seco-probotryenol A monohydrate'
_chemical_formula_moiety         'C15 H26 O2,H2 O1'
_chemical_name_systematic        
'3-(4-hydroxybutan-2-yl)-5,5,6a-trimethyl-1,2,3,5,6,6a-hexahydropentalen-1-ol monohydrate'
_symmetry_cell_setting           orthorhombic
_symmetry_space_group_name_H-M   'P 21 21 21'
_symmetry_Int_Tables_number      19
_space_group_name_Hall           'P 2ac 2ab'
loop_
_symmetry_equiv_pos_site_id
_symmetry_equiv_pos_as_xyz
1 x,y,z
2 1/2-x,-y,1/2+z
3 1/2+x,1/2-y,-z
4 -x,1/2+y,1/2-z
_cell_length_a                   6.30805(13)
_cell_length_b                   14.8331(3)
_cell_length_c                   16.7092(3)
_cell_angle_alpha                90
_cell_angle_beta                 90
_cell_angle_gamma                90
_cell_volume                     1563.45
_exptl_crystal_colour            colorless
_cell_formula_units_Z            4
loop_
_atom_site_label
_atom_site_type_symbol
_atom_site_fract_x
_atom_site_fract_y
_atom_site_fract_z
O1 O -0.21329(16) -0.21809(6) -0.90316(6)
H1 H -0.2967 -0.2558 -0.8860
O2 O 0.49828(17) 0.16952(6) -0.65733(6)
H2 H 0.6091 0.1778 -0.6328
C1 C 0.2020(2) -0.03991(9) -0.71924(8)
H3 H 0.2970 -0.0517 -0.7645
C2 C -0.2845(2) 0.00075(9) -0.94312(8)
H4 H -0.4278 -0.0220 -0.9370
H5 H -0.2467 -0.0016 -0.9994
C3 C -0.0944(2) 0.00253(9) -0.81991(8)
C4 C 0.2388(2) 0.05719(9) -0.69146(8)
H6 H 0.1987 0.0981 -0.7341
H7 H 0.1482 0.0695 -0.6458
C5 C 0.0778(2) -0.07555(9) -0.93814(8)
H8 H 0.0489 -0.1148 -0.9825
H9 H 0.1767 -0.1041 -0.9026
H10 H 0.1372 -0.0201 -0.9575
C6 C -0.2153(2) -0.14061(9) -0.85201(8)
H11 H -0.3615 -0.1291 -0.8350
C7 C -0.0279(2) -0.05347(9) -0.74825(8)
H12 H -0.1237 -0.0396 -0.7037
C8 C -0.0754(3) -0.15135(9) -0.77733(9)
H13 H 0.0550 -0.1826 -0.7905
H14 H -0.1494 -0.1851 -0.7362
C9 C -0.4895(3) 0.14119(9) -0.90282(9)
H15 H -0.5550 0.1454 -0.9545
H16 H -0.4769 0.2004 -0.8801
H17 H -0.5748 0.1041 -0.8685
C10 C -0.1678(2) 0.08549(9) -0.83006(8)
H18 H -0.1582 0.1304 -0.7914
C11 C 0.4659(2) 0.07481(9) -0.66844(8)
H19 H 0.4991 0.0430 -0.6193
H20 H 0.5595 0.0528 -0.7101
C12 C -0.2689(2) 0.09933(9) -0.91136(8)
C13 C -0.1286(2) -0.05582(9) -0.89315(8)
C14 C -0.1332(3) 0.15939(10) -0.96556(9)
H21 H 0.0031 0.1319 -0.9733
H22 H -0.1155 0.2174 -0.9410
H23 H -0.2021 0.1665 -1.0164
C15 C 0.2549(3) -0.10715(11) -0.65299(11)
H24 H 0.4013 -0.1009 -0.6382
H25 H 0.2296 -0.1673 -0.6718
H26 H 0.1671 -0.0955 -0.6072
O3 O -0.34124(17) -0.18495(7) -1.06391(6)
H27 H -0.4509 -0.2157 -1.0752
H28 H -0.3072 -0.1939 -1.0153
loop_
_geom_bond_atom_site_label_1
_geom_bond_atom_site_label_2
_geom_bond_site_symmetry_1
_geom_bond_site_symmetry_2
O1 H1 1_555 1_555
O2 H2 1_555 1_555
C1 H3 1_555 1_555
C2 H4 1_555 1_555
H5 C2 1_555 1_555
C3 C7 1_555 1_555
C4 C1 1_555 1_555
H6 C4 1_555 1_555
H7 C4 1_555 1_555
C5 H8 1_555 1_555
H9 C5 1_555 1_555
H10 C5 1_555 1_555
C6 O1 1_555 1_555
H11 C6 1_555 1_555
C7 C1 1_555 1_555
H12 C7 1_555 1_555
C8 C6 1_555 1_555
H13 C8 1_555 1_555
H14 C8 1_555 1_555
C9 H15 1_555 1_555
H16 C9 1_555 1_555
H17 C9 1_555 1_555
C10 C3 1_555 1_555
H18 C10 1_555 1_555
C11 O2 1_555 1_555
H19 C11 1_555 1_555
H20 C11 1_555 1_555
C12 C2 1_555 1_555
C13 C2 1_555 1_555
C14 C12 1_555 1_555
H21 C14 1_555 1_555
H22 C14 1_555 1_555
H23 C14 1_555 1_555
C15 C1 1_555 1_555
H24 C15 1_555 1_555
H25 C15 1_555 1_555
H26 C15 1_555 1_555
O3 H27 1_555 1_555
H28 O3 1_555 1_555
C3 C13 1_555 1_555
C4 C11 1_555 1_555
C5 C13 1_555 1_555
C6 C13 1_555 1_555
C7 C8 1_555 1_555
C9 C12 1_555 1_555
C10 C12 1_555 1_555

#END
