
#######################################################################
#
#                 Cambridge Crystallographic Data Centre
#                                CCDC 
#
#######################################################################
#
# If this CIF has been generated from an entry in the Cambridge 
# Structural Database, then it will include bibliographic, chemical, 
# crystal, experimental, refinement or atomic coordinate data resulting 
# from the CCDC's data processing and validation procedures.
#
#######################################################################

data_LUPCIJ
_chemical_formula_moiety         'C9 H9 F3 N2 O2'
_chemical_name_systematic        
4,5,6-Trifluoro-2-(tetrahydro-2H-pyran-2-yl)pyridazin-3(2H)-one
_symmetry_cell_setting           orthorhombic
_symmetry_space_group_name_H-M   'P b c a'
_symmetry_Int_Tables_number      61
_space_group_name_Hall           '-P 2ac 2ab'
loop_
_symmetry_equiv_pos_site_id
_symmetry_equiv_pos_as_xyz
1 x,y,z
2 1/2-x,-y,1/2+z
3 -x,1/2+y,1/2-z
4 1/2+x,1/2-y,-z
5 -x,-y,-z
6 1/2+x,y,1/2-z
7 x,1/2-y,1/2+z
8 1/2-x,1/2+y,z
_cell_length_a                   10.3753(2)
_cell_length_b                   9.3352(2)
_cell_length_c                   20.3706(4)
_cell_angle_alpha                90
_cell_angle_beta                 90
_cell_angle_gamma                90
_cell_volume                     1973
_exptl_crystal_colour            colorless
_exptl_crystal_description       block
_chemical_melting_point          '56-58 deg.C'
_cell_formula_units_Z            8
loop_
_atom_site_label
_atom_site_type_symbol
_atom_site_fract_x
_atom_site_fract_y
_atom_site_fract_z
F1 F 0.19035(7) 0.23027(8) 0.15202(3)
F2 F -0.01499(8) 0.05643(7) 0.18731(4)
F3 F -0.08100(7) 0.04382(8) 0.31448(4)
O1 O 0.32168(7) 0.36392(8) 0.25086(4)
O2 O 0.34305(7) 0.24367(8) 0.39743(4)
N1 N 0.07563(8) 0.19392(9) 0.34371(4)
N2 N 0.17605(8) 0.27934(8) 0.32621(4)
C1 C 0.22524(9) 0.29408(10) 0.26314(4)
C2 C 0.15074(10) 0.21751(10) 0.21371(5)
C3 C 0.05123(11) 0.13394(10) 0.23024(5)
C4 C 0.01794(10) 0.12749(10) 0.29757(5)
C5 C 0.24728(10) 0.34508(9) 0.38037(4)
C6 C 0.16409(11) 0.38350(12) 0.43877(5)
C7 C 0.25165(13) 0.44407(11) 0.49267(5)
C8 C 0.36095(13) 0.34085(12) 0.50790(5)
C9 C 0.43092(12) 0.30173(15) 0.44495(6)
H1 H 0.2903(11) 0.4290(14) 0.3623(6)
H2 H 0.1008(14) 0.4526(16) 0.4259(7)
H3 H 0.1208(14) 0.2985(15) 0.4534(7)
H4 H 0.2887(14) 0.5352(16) 0.4777(7)
H5 H 0.1995(13) 0.4654(15) 0.5324(7)
H6 H 0.4220(15) 0.3840(16) 0.5387(8)
H7 H 0.3258(15) 0.2557(17) 0.5278(8)
H8 H 0.4723(15) 0.3899(17) 0.4265(7)
H9 H 0.4951(17) 0.2252(19) 0.4524(8)
loop_
_geom_bond_atom_site_label_1
_geom_bond_atom_site_label_2
_geom_bond_site_symmetry_1
_geom_bond_site_symmetry_2
F1 C2 1_555 1_555
F2 C3 1_555 1_555
F3 C4 1_555 1_555
O1 C1 1_555 1_555
O2 C5 1_555 1_555
N1 N2 1_555 1_555
N2 C1 1_555 1_555
C1 C2 1_555 1_555
C2 C3 1_555 1_555
C3 C4 1_555 1_555
C4 N1 1_555 1_555
C5 N2 1_555 1_555
C6 C5 1_555 1_555
C7 C6 1_555 1_555
C8 C7 1_555 1_555
C9 O2 1_555 1_555
H1 C5 1_555 1_555
H2 C6 1_555 1_555
H3 C6 1_555 1_555
H4 C7 1_555 1_555
H5 C7 1_555 1_555
H6 C8 1_555 1_555
H7 C8 1_555 1_555
H8 C9 1_555 1_555
H9 C9 1_555 1_555
C8 C9 1_555 1_555

#END
