
#######################################################################
#
#                 Cambridge Crystallographic Data Centre
#                                CCDC 
#
#######################################################################
#
# If this CIF has been generated from an entry in the Cambridge 
# Structural Database, then it will include bibliographic, chemical, 
# crystal, experimental, refinement or atomic coordinate data resulting 
# from the CCDC's data processing and validation procedures.
#
#######################################################################

data_LUPKOX
_chemical_formula_moiety         'C13 H13 Br1 O1'
_chemical_name_systematic        
5-(1-Bromovinyl)-5,7,8,9-tetrahydro-6H-benzo[7]annulen-6-one
_symmetry_cell_setting           monoclinic
_symmetry_space_group_name_H-M   'P 21/n'
_symmetry_Int_Tables_number      14
_space_group_name_Hall           '-P 2yn'
loop_
_symmetry_equiv_pos_site_id
_symmetry_equiv_pos_as_xyz
1 x,y,z
2 1/2-x,1/2+y,1/2-z
3 -x,-y,-z
4 1/2+x,1/2-y,1/2+z
_cell_length_a                   12.7860(4)
_cell_length_b                   6.0794(2)
_cell_length_c                   14.2698(4)
_cell_angle_alpha                90
_cell_angle_beta                 99.934(2)
_cell_angle_gamma                90
_cell_volume                     1092.58
_exptl_crystal_colour            colorless
_exptl_crystal_description       block
_cell_formula_units_Z            4
loop_
_atom_site_label
_atom_site_type_symbol
_atom_site_fract_x
_atom_site_fract_y
_atom_site_fract_z
Br1 Br 0.463255(15) 0.15708(3) 0.109257(13)
O1 O 0.25230(10) 0.3756(2) 0.22281(10)
C1 C 0.53550(13) 0.5001(3) 0.28543(13)
C2 C 0.61279(15) 0.6519(3) 0.27216(15)
H1 H 0.5948 0.7690 0.2283
C3 C 0.71606(16) 0.6357(3) 0.32191(15)
H2 H 0.7682 0.7406 0.3120
C4 C 0.74200(15) 0.4664(4) 0.38560(14)
H3 H 0.8123 0.4538 0.4199
C5 C 0.66570(15) 0.3143(3) 0.39971(14)
H4 H 0.6846 0.1984 0.4440
C6 C 0.56138(14) 0.3271(3) 0.35034(14)
C7 C 0.48042(15) 0.1613(3) 0.37008(14)
H5 H 0.5177 0.0386 0.4074
H6 H 0.4436 0.1004 0.3089
C8 C 0.39738(15) 0.2566(3) 0.42449(14)
H7 H 0.4316 0.2903 0.4906
H8 H 0.3415 0.1453 0.4272
C9 C 0.34607(14) 0.4672(3) 0.37724(13)
H9 H 0.2761 0.4910 0.3965
H10 H 0.3917 0.5956 0.3985
C10 C 0.33220(14) 0.4465(3) 0.27095(13)
C11 C 0.42503(13) 0.5291(3) 0.22555(12)
H11 H 0.4147 0.6920 0.2205
C12 C 0.41767(13) 0.4521(3) 0.12443(13)
C13 C 0.38217(15) 0.5668(4) 0.04732(15)
H12 H 0.3785(17) 0.508(4) -0.0126(17)
H13 H 0.3631(18) 0.713(4) 0.0557(16)
loop_
_geom_bond_atom_site_label_1
_geom_bond_atom_site_label_2
_geom_bond_site_symmetry_1
_geom_bond_site_symmetry_2
Br1 C12 1_555 1_555
O1 C10 1_555 1_555
C1 C2 1_555 1_555
C2 H1 1_555 1_555
C3 C2 1_555 1_555
H2 C3 1_555 1_555
C4 C3 1_555 1_555
H3 C4 1_555 1_555
C5 C4 1_555 1_555
H4 C5 1_555 1_555
C6 C1 1_555 1_555
C7 C6 1_555 1_555
H5 C7 1_555 1_555
H6 C7 1_555 1_555
C8 C7 1_555 1_555
H7 C8 1_555 1_555
H8 C8 1_555 1_555
C9 C8 1_555 1_555
H9 C9 1_555 1_555
H10 C9 1_555 1_555
C10 C9 1_555 1_555
C11 C1 1_555 1_555
H11 C11 1_555 1_555
C12 C11 1_555 1_555
C13 C12 1_555 1_555
H12 C13 1_555 1_555
H13 C13 1_555 1_555
C5 C6 1_555 1_555
C10 C11 1_555 1_555

#END
