
#######################################################################
#
#                 Cambridge Crystallographic Data Centre
#                                CCDC 
#
#######################################################################
#
# If this CIF has been generated from an entry in the Cambridge 
# Structural Database, then it will include bibliographic, chemical, 
# crystal, experimental, refinement or atomic coordinate data resulting 
# from the CCDC's data processing and validation procedures.
#
#######################################################################

data_LUPNUG
_chemical_formula_moiety         'C33 H30 O3'
_chemical_name_systematic        
(6,7-Dimethoxy-2-phenyl-4-(2-phenylvinyl)-1,2,3,4-tetrahydronaphthalen-1-yl)(phenyl)methanone
_symmetry_cell_setting           triclinic
_symmetry_space_group_name_H-M   'P -1'
_symmetry_Int_Tables_number      2
_space_group_name_Hall           '-P 1'
loop_
_symmetry_equiv_pos_site_id
_symmetry_equiv_pos_as_xyz
1 x,y,z
2 -x,-y,-z
_cell_length_a                   9.7878(14)
_cell_length_b                   11.0201(15)
_cell_length_c                   12.8268(17)
_cell_angle_alpha                78.217(3)
_cell_angle_beta                 77.396(3)
_cell_angle_gamma                75.968(2)
_cell_volume                     1293.07
_exptl_crystal_colour            colorless
_exptl_crystal_description       prismatic
_cell_formula_units_Z            2
loop_
_atom_site_label
_atom_site_type_symbol
_atom_site_fract_x
_atom_site_fract_y
_atom_site_fract_z
O1 O 0.3972(2) 0.44014(17) 0.24085(14)
O2 O 0.37172(16) -0.15947(14) 0.14929(12)
O3 O 0.19095(16) 0.03671(17) 0.21096(15)
C1 C 0.6210(2) 0.0548(2) 0.12083(15)
C2 C 0.5708(2) -0.0526(2) 0.11685(16)
H1 H 0.6353 -0.1223 0.0922
C3 C 0.4282(2) -0.0576(2) 0.14855(16)
C4 C 0.3315(2) 0.0481(2) 0.18294(17)
C5 C 0.3797(2) 0.1539(2) 0.18743(17)
H2 H 0.3144 0.2237 0.2112
C6 C 0.5253(2) 0.15889(19) 0.15695(15)
C7 C 0.5711(2) 0.2804(2) 0.16011(16)
H3 H 0.5458 0.3395 0.0956
C8 C 0.7349(2) 0.2634(2) 0.15046(16)
H4 H 0.7610 0.2126 0.2181
C9 C 0.8090(2) 0.1865(2) 0.05934(17)
H5 H 0.7756 0.2299 -0.0071
H6 H 0.9113 0.1815 0.0479
C10 C 0.7799(2) 0.0534(2) 0.08460(16)
H7 H 0.8095 0.0188 0.0167
C11 C 0.8701(2) -0.0323(2) 0.16342(18)
H8 H 0.9685 -0.0384 0.1435
C12 C 0.8261(2) -0.0996(2) 0.25719(18)
H9 H 0.7276 -0.0913 0.2784
C13 C 0.9136(2) -0.1851(2) 0.33122(19)
C14 C 1.0608(3) -0.2289(3) 0.3015(2)
H10 H 1.1066 -0.2007 0.2323
C15 C 1.1383(3) -0.3118(3) 0.3716(3)
H11 H 1.2359 -0.3403 0.3494
C16 C 1.0753(4) -0.3540(3) 0.4740(3)
H12 H 1.1300 -0.4096 0.5216
C17 C 0.9300(4) -0.3140(3) 0.5067(2)
H13 H 0.8857 -0.3430 0.5761
C18 C 0.8516(3) -0.2306(2) 0.4354(2)
H14 H 0.7537 -0.2039 0.4578
C19 C 0.4856(2) 0.3425(2) 0.25703(18)
C20 C 0.5106(2) 0.2871(2) 0.36875(17)
C21 C 0.5785(3) 0.1643(2) 0.39808(19)
H15 H 0.6088 0.1103 0.3467
C22 C 0.6026(3) 0.1195(3) 0.5022(2)
H16 H 0.6494 0.0361 0.5208
C23 C 0.5571(4) 0.1989(4) 0.5785(2)
H17 H 0.5748 0.1698 0.6486
C24 C 0.4870(4) 0.3187(4) 0.5515(2)
H18 H 0.4549 0.3714 0.6038
C25 C 0.4620(3) 0.3644(3) 0.4479(2)
H19 H 0.4126 0.4471 0.4308
C26 C 0.7786(2) 0.3879(2) 0.13775(18)
C27 C 0.8209(3) 0.4212(2) 0.2229(2)
H20 H 0.8199 0.3661 0.2884
C28 C 0.8642(3) 0.5337(3) 0.2126(3)
H21 H 0.8922 0.5534 0.2709
C29 C 0.8663(3) 0.6158(3) 0.1183(3)
H22 H 0.8958 0.6916 0.1116
C30 C 0.8247(3) 0.5865(3) 0.0330(3)
H23 H 0.8265 0.6426 -0.0319
C31 C 0.7797(3) 0.4734(2) 0.0425(2)
H24 H 0.7501 0.4553 -0.0158
C32 C 0.4705(3) -0.2750(2) 0.1294(2)
H25 H 0.5230 -0.2637 0.0568
H26 H 0.4189 -0.3413 0.1384
H27 H 0.5357 -0.2974 0.1796
C33 C 0.0968(3) 0.1202(3) 0.2762(3)
H28 H 0.1400 0.1244 0.3354
H29 H 0.0094 0.0904 0.3038
H30 H 0.0766 0.2030 0.2340
loop_
_geom_bond_atom_site_label_1
_geom_bond_atom_site_label_2
_geom_bond_site_symmetry_1
_geom_bond_site_symmetry_2
O1 C19 1_555 1_555
O2 C3 1_555 1_555
O3 C4 1_555 1_555
C1 C2 1_555 1_555
C2 H1 1_555 1_555
C3 C2 1_555 1_555
C4 C3 1_555 1_555
C5 C4 1_555 1_555
H2 C5 1_555 1_555
C6 C1 1_555 1_555
C7 C6 1_555 1_555
H3 C7 1_555 1_555
C8 C7 1_555 1_555
H4 C8 1_555 1_555
C9 C8 1_555 1_555
H5 C9 1_555 1_555
H6 C9 1_555 1_555
C10 C1 1_555 1_555
H7 C10 1_555 1_555
C11 C10 1_555 1_555
H8 C11 1_555 1_555
C12 C11 1_555 1_555
H9 C12 1_555 1_555
C13 C12 1_555 1_555
C14 C13 1_555 1_555
H10 C14 1_555 1_555
C15 C14 1_555 1_555
H11 C15 1_555 1_555
C16 C15 1_555 1_555
H12 C16 1_555 1_555
C17 C16 1_555 1_555
H13 C17 1_555 1_555
C18 C13 1_555 1_555
H14 C18 1_555 1_555
C19 C7 1_555 1_555
C20 C19 1_555 1_555
C21 C20 1_555 1_555
H15 C21 1_555 1_555
C22 C21 1_555 1_555
H16 C22 1_555 1_555
C23 C22 1_555 1_555
H17 C23 1_555 1_555
C24 C23 1_555 1_555
H18 C24 1_555 1_555
C25 C20 1_555 1_555
H19 C25 1_555 1_555
C26 C8 1_555 1_555
C27 C26 1_555 1_555
H20 C27 1_555 1_555
C28 C27 1_555 1_555
H21 C28 1_555 1_555
C29 C28 1_555 1_555
H22 C29 1_555 1_555
C30 C29 1_555 1_555
H23 C30 1_555 1_555
C31 C26 1_555 1_555
H24 C31 1_555 1_555
C32 O2 1_555 1_555
H25 C32 1_555 1_555
H26 C32 1_555 1_555
H27 C32 1_555 1_555
C33 O3 1_555 1_555
H28 C33 1_555 1_555
H29 C33 1_555 1_555
H30 C33 1_555 1_555
C5 C6 1_555 1_555
C9 C10 1_555 1_555
C17 C18 1_555 1_555
C24 C25 1_555 1_555
C30 C31 1_555 1_555

#END
