
#######################################################################
#
#                 Cambridge Crystallographic Data Centre
#                                CCDC 
#
#######################################################################
#
# If this CIF has been generated from an entry in the Cambridge 
# Structural Database, then it will include bibliographic, chemical, 
# crystal, experimental, refinement or atomic coordinate data resulting 
# from the CCDC's data processing and validation procedures.
#
#######################################################################

data_LUQLEP
_chemical_formula_moiety         'C21 H19 Br1 N2 O3'
_chemical_name_systematic        
3-((2-Bromo-7,11b,12,13-tetrahydro-6H-isoquinolino[2,1-a]quinolin-12-yl)carbonyl)-1,3-oxazolidin-2-one
_symmetry_cell_setting           orthorhombic
_symmetry_space_group_name_H-M   'P 21 21 21'
_symmetry_Int_Tables_number      19
_space_group_name_Hall           'P 2ac 2ab'
loop_
_symmetry_equiv_pos_site_id
_symmetry_equiv_pos_as_xyz
1 x,y,z
2 1/2-x,-y,1/2+z
3 -x,1/2+y,1/2-z
4 1/2+x,1/2-y,-z
_cell_length_a                   5.5391(8)
_cell_length_b                   10.8776(15)
_cell_length_c                   29.488(4)
_cell_angle_alpha                90
_cell_angle_beta                 90
_cell_angle_gamma                90
_cell_volume                     1776.71
_exptl_crystal_colour            colorless
_exptl_crystal_description       rod
_cell_formula_units_Z            4
loop_
_atom_site_label
_atom_site_type_symbol
_atom_site_fract_x
_atom_site_fract_y
_atom_site_fract_z
Br1 Br -0.11123(4) 0.38699(2) 0.890484(7)
O1 O 0.4687(4) 0.81404(17) 0.96632(6)
O2 O 0.5687(3) 1.17768(15) 0.92283(6)
O3 O 0.8255(4) 1.17655(16) 0.98149(6)
N1 N 0.5458(3) 0.82686(17) 0.85428(6)
N2 N 0.6391(4) 1.00003(17) 0.96532(6)
C1 C 0.3836(4) 0.72786(18) 0.86050(6)
C2 C 0.4439(4) 0.6097(2) 0.84424(7)
H1 H 0.560(6) 0.601(3) 0.8275(9)
C3 C 0.2977(4) 0.5090(2) 0.85244(7)
H2 H 0.347(6) 0.424(3) 0.8419(10)
C4 C 0.0851(4) 0.52495(19) 0.87622(7)
C5 C 0.0201(4) 0.64018(19) 0.89240(7)
H3 H -0.131(6) 0.653(2) 0.9095(8)
C6 C 0.1685(4) 0.74142(19) 0.88511(7)
C7 C 0.1003(5) 0.86282(19) 0.90558(7)
H4 H 0.039(6) 0.848(3) 0.9369(9)
H5 H -0.023(6) 0.898(3) 0.8885(10)
C8 C 0.3131(4) 0.9509(2) 0.90878(7)
H6 H 0.268(6) 1.033(3) 0.9126(9)
C9 C 0.4525(4) 0.9510(2) 0.86356(7)
H7 H 0.596(6) 1.001(2) 0.8668(8)
C10 C 0.3016(4) 1.0000(2) 0.82411(7)
C11 C 0.1459(4) 1.0998(2) 0.83016(8)
H8 H 0.127(6) 1.139(3) 0.8590(9)
C12 C -0.0004(5) 1.1417(2) 0.79474(9)
H9 H -0.107(7) 1.204(3) 0.8002(10)
C13 C 0.0111(5) 1.0834(2) 0.75275(9)
H10 H -0.088(6) 1.106(3) 0.7277(10)
C14 C 0.1720(5) 0.9875(2) 0.74613(8)
H11 H 0.175(7) 0.946(3) 0.7178(11)
C15 C 0.3212(4) 0.9458(2) 0.78118(7)
C16 C 0.5027(5) 0.8456(2) 0.77145(7)
H12 H 0.602(6) 0.866(3) 0.7418(9)
H13 H 0.423(6) 0.770(3) 0.7657(9)
C17 C 0.6783(4) 0.8296(2) 0.81102(7)
H14 H 0.780(6) 0.761(3) 0.8063(10)
H15 H 0.781(5) 0.897(3) 0.8134(9)
C18 C 0.4768(4) 0.9136(2) 0.94812(7)
C19 C 0.6659(4) 1.1234(2) 0.95315(7)
C20 C 0.9268(6) 1.0864(2) 1.01269(10)
H16 H 0.928(7) 1.121(3) 1.0408(12)
H17 H 1.079(9) 1.074(4) 1.0024(13)
C21 C 0.7733(5) 0.9718(2) 1.00693(7)
H18 H 0.857(6) 0.897(3) 1.0052(9)
H19 H 0.664(6) 0.956(3) 1.0323(10)
loop_
_geom_bond_atom_site_label_1
_geom_bond_atom_site_label_2
_geom_bond_site_symmetry_1
_geom_bond_site_symmetry_2
Br1 C4 1_555 1_555
O1 C18 1_555 1_555
O2 C19 1_555 1_555
O3 C19 1_555 1_555
N1 C1 1_555 1_555
N2 C18 1_555 1_555
C1 C2 1_555 1_555
C2 H1 1_555 1_555
C3 C2 1_555 1_555
H2 C3 1_555 1_555
C4 C3 1_555 1_555
C5 C4 1_555 1_555
H3 C5 1_555 1_555
C6 C1 1_555 1_555
C7 C6 1_555 1_555
H4 C7 1_555 1_555
H5 C7 1_555 1_555
C8 C7 1_555 1_555
H6 C8 1_555 1_555
C9 N1 1_555 1_555
H7 C9 1_555 1_555
C10 C9 1_555 1_555
C11 C10 1_555 1_555
H8 C11 1_555 1_555
C12 C11 1_555 1_555
H9 C12 1_555 1_555
C13 C12 1_555 1_555
H10 C13 1_555 1_555
C14 C13 1_555 1_555
H11 C14 1_555 1_555
C15 C10 1_555 1_555
C16 C15 1_555 1_555
H12 C16 1_555 1_555
H13 C16 1_555 1_555
C17 N1 1_555 1_555
H14 C17 1_555 1_555
H15 C17 1_555 1_555
C18 C8 1_555 1_555
C19 N2 1_555 1_555
C20 O3 1_555 1_555
H16 C20 1_555 1_555
H17 C20 1_555 1_555
C21 N2 1_555 1_555
H18 C21 1_555 1_555
H19 C21 1_555 1_555
C5 C6 1_555 1_555
C8 C9 1_555 1_555
C14 C15 1_555 1_555
C16 C17 1_555 1_555
C20 C21 1_555 1_555

#END
