
#######################################################################
#
#                 Cambridge Crystallographic Data Centre
#                                CCDC 
#
#######################################################################
#
# If this CIF has been generated from an entry in the Cambridge 
# Structural Database, then it will include bibliographic, chemical, 
# crystal, experimental, refinement or atomic coordinate data resulting 
# from the CCDC's data processing and validation procedures.
#
#######################################################################

data_LUQPUJ
_chemical_formula_moiety         'C16 H36 N1 1+,C12 H21 O4 1-'
_chemical_name_systematic        
'Tetra-n-butylammonium (hydrogen 2,3-di-t-butylsuccinate)'
_symmetry_cell_setting           monoclinic
_symmetry_space_group_name_H-M   'P n'
_symmetry_Int_Tables_number      7
_space_group_name_Hall           'P -2yac'
loop_
_symmetry_equiv_pos_site_id
_symmetry_equiv_pos_as_xyz
1 x,y,z
2 1/2+x,-y,1/2+z
_cell_length_a                   13.0950(10)
_cell_length_b                   13.9148(10)
_cell_length_c                   16.7377(12)
_cell_angle_alpha                90
_cell_angle_beta                 96.2900(10)
_cell_angle_gamma                90
_cell_volume                     3031.49
_exptl_crystal_colour            colorless
_exptl_crystal_description       block
_cell_formula_units_Z            4
loop_
_atom_site_label
_atom_site_type_symbol
_atom_site_fract_x
_atom_site_fract_y
_atom_site_fract_z
C1 C 0.5247(4) 0.9533(3) 0.7799(3)
C2 C 0.4943(4) 0.8743(3) 0.7148(3)
H1 H 0.5080 0.8123 0.7442
C3 C 0.3817(4) 0.8704(3) 0.6860(3)
H2 H 0.3729 0.8107 0.6527
C4 C 0.3419(4) 0.9520(3) 0.6293(3)
C5 C 0.5642(3) 0.8699(3) 0.6452(2)
C6 C 0.5404(4) 0.7822(3) 0.5922(3)
H3 H 0.4733 0.7904 0.5609
H4 H 0.5393 0.7247 0.6260
H5 H 0.5934 0.7750 0.5556
C7 C 0.5574(5) 0.9602(4) 0.5916(4)
H6 H 0.4870 0.9673 0.5656
H7 H 0.6047 0.9537 0.5504
H8 H 0.5761 1.0170 0.6246
C8 C 0.6771(3) 0.8631(5) 0.6833(3)
H9 H 0.6862 0.8047 0.7161
H10 H 0.6938 0.9195 0.7173
H11 H 0.7227 0.8608 0.6407
C9 C 0.3093(3) 0.8534(4) 0.7608(3)
C54 C 0.1979(5) 0.8357(6) 0.7164(4)
H104 H 0.1510 0.8188 0.7560
H105 H 0.2001 0.7830 0.6778
H106 H 0.1735 0.8943 0.6880
C55 C 0.3036(5) 0.9336(6) 0.8158(4)
H107 H 0.2525 0.9196 0.8528
H108 H 0.2837 0.9919 0.7852
H109 H 0.3709 0.9433 0.8466
C56 C 0.3418(6) 0.7584(6) 0.8004(5)
H110 H 0.2885 0.7362 0.8328
H111 H 0.4065 0.7670 0.8350
H112 H 0.3514 0.7106 0.7589
O1 O 0.5817(3) 0.9338(2) 0.8413(2)
O2 O 0.4927(2) 1.04012(19) 0.76488(19)
O3 O 0.3610(3) 1.0392(2) 0.6531(2)
O4 O 0.2903(3) 0.9325(2) 0.56656(19)
H122 H 0.444(4) 1.044(3) 0.711(4)
C10 C 0.7692(3) 0.7508(3) 0.0961(2)
H12 H 0.7821 0.8137 0.1229
H13 H 0.8366 0.7242 0.0857
C11 C 0.7216(3) 0.6836(3) 0.1538(2)
H14 H 0.7127 0.6188 0.1295
H15 H 0.6531 0.7080 0.1637
C12 C 0.7922(4) 0.6772(4) 0.2347(3)
H16 H 0.8136 0.7430 0.2515
H17 H 0.7515 0.6509 0.2761
C13 C 0.8840(4) 0.6183(5) 0.2325(4)
H18 H 0.9189 0.6114 0.2870
H19 H 0.9304 0.6493 0.1982
H20 H 0.8644 0.5548 0.2107
C14 C 0.6994(3) 0.6735(3) -0.0308(2)
H21 H 0.7701 0.6490 -0.0323
H22 H 0.6623 0.6261 -0.0006
C15 C 0.6479(3) 0.6769(3) -0.1160(2)
H23 H 0.6872 0.7194 -0.1489
H24 H 0.5776 0.7032 -0.1166
C16 C 0.6433(3) 0.5748(3) -0.1510(3)
H25 H 0.7138 0.5484 -0.1482
H26 H 0.6032 0.5333 -0.1179
C17 C 0.5948(4) 0.5720(4) -0.2375(3)
H27 H 0.5952 0.5058 -0.2575
H28 H 0.6339 0.6131 -0.2706
H29 H 0.5238 0.5951 -0.2403
C18 C 0.5967(3) 0.7989(3) 0.0276(2)
H30 H 0.5608 0.8159 -0.0257
H31 H 0.5603 0.7433 0.0480
C19 C 0.5871(3) 0.8829(3) 0.0839(2)
H32 H 0.6133 0.9421 0.0605
H33 H 0.6285 0.8705 0.1360
C20 C 0.4750(3) 0.8963(3) 0.0971(3)
H34 H 0.4345 0.9087 0.0447
H35 H 0.4492 0.8360 0.1190
C21 C 0.4583(4) 0.9776(3) 0.1536(3)
H36 H 0.3847 0.9839 0.1586
H37 H 0.4840 1.0375 0.1325
H38 H 0.4953 0.9642 0.2065
C22 C 0.7545(3) 0.8462(3) -0.0285(2)
H39 H 0.7544 0.9058 0.0038
H40 H 0.7111 0.8580 -0.0798
C23 C 0.8634(3) 0.8274(3) -0.0471(3)
H41 H 0.8664 0.7651 -0.0753
H42 H 0.9099 0.8237 0.0037
C24 C 0.8988(3) 0.9078(3) -0.0997(3)
H43 H 0.8540 0.9088 -0.1514
H44 H 0.8907 0.9702 -0.0727
C25 C 1.0101(4) 0.8971(3) -0.1169(3)
H45 H 1.0265 0.9472 -0.1546
H46 H 1.0197 0.8337 -0.1406
H47 H 1.0556 0.9034 -0.0667
N1 N 0.7055(2) 0.7675(2) 0.01593(17)
C26 C 0.9771(3) 0.5143(3) 0.5295(3)
C27 C 0.8754(3) 0.5459(3) 0.5597(3)
H48 H 0.8701 0.6160 0.5467
C28 C 0.8729(3) 0.5415(3) 0.6510(3)
H49 H 0.8053 0.5705 0.6600
C29 C 0.8713(4) 0.4416(4) 0.6897(3)
C30 C 0.7788(3) 0.4990(3) 0.5075(3)
C31 C 0.6805(7) 0.5249(11) 0.5386(8)
H50 H 0.6230 0.4973 0.5036
H51 H 0.6735 0.5950 0.5396
H52 H 0.6801 0.4994 0.5932
C32 C 0.7808(6) 0.3906(5) 0.5074(4)
H53 H 0.7160 0.3662 0.4800
H54 H 0.7897 0.3671 0.5629
H55 H 0.8381 0.3682 0.4791
C33 C 0.7835(5) 0.5302(5) 0.4197(3)
H56 H 0.7197 0.5116 0.3872
H57 H 0.8419 0.4989 0.3985
H58 H 0.7918 0.6001 0.4174
C34 C 0.9544(3) 0.6066(3) 0.7007(3)
C35 C 1.0644(3) 0.5666(4) 0.7070(3)
H59 H 1.1110 0.6109 0.7387
H60 H 1.0859 0.5598 0.6531
H61 H 1.0663 0.5037 0.7334
C36 C 0.9536(5) 0.7068(4) 0.6636(4)
H62 H 0.9986 0.7493 0.6983
H63 H 0.8834 0.7322 0.6581
H64 H 0.9783 0.7031 0.6104
C37 C 0.9246(5) 0.6170(5) 0.7861(3)
H65 H 0.9706 0.6632 0.8160
H66 H 0.9304 0.5545 0.8132
H67 H 0.8536 0.6400 0.7838
O5 O 1.0149(3) 0.5661(3) 0.4815(2)
O6 O 1.0149(3) 0.4335(2) 0.5537(2)
O7 O 0.9315(3) 0.3755(2) 0.6665(2)
O8 O 0.8117(3) 0.4269(3) 0.7398(2)
H123 H 1.000(5) 0.408(5) 0.607(4)
C38 C 0.6744(4) 0.2558(3) 0.7955(3)
H68 H 0.5998 0.2696 0.7905
H69 H 0.7094 0.3157 0.7821
C39 C 0.6929(4) 0.1816(4) 0.7333(2)
H70 H 0.6628 0.1192 0.7465
H71 H 0.7676 0.1727 0.7309
C40 C 0.6407(8) 0.2197(6) 0.6515(3)
H72 H 0.5667 0.2035 0.6470
H73 H 0.6467 0.2906 0.6508
C41 C 0.6867(10) 0.1789(7) 0.5783(5)
H74 H 0.6410 0.1935 0.5295
H75 H 0.6943 0.1091 0.5841
H76 H 0.7541 0.2081 0.5746
C42 C 0.6338(3) 0.1624(3) 0.9163(2)
H77 H 0.6596 0.1471 0.9727
H78 H 0.6340 0.1019 0.8852
C43 C 0.5232(3) 0.1965(3) 0.9144(3)
H79 H 0.4901 0.1982 0.8584
H80 H 0.5213 0.2621 0.9372
C44 C 0.4663(3) 0.1264(3) 0.9644(3)
H81 H 0.4754 0.0602 0.9446
H82 H 0.4969 0.1293 1.0211
C45 C 0.3530(4) 0.1484(4) 0.9603(3)
H83 H 0.3200 0.1023 0.9935
H84 H 0.3218 0.1436 0.9045
H85 H 0.3435 0.2137 0.9803
C46 C 0.7142(3) 0.3265(3) 0.9293(2)
H86 H 0.7650 0.3684 0.9068
H87 H 0.6464 0.3585 0.9195
C47 C 0.7425(3) 0.3188(3) 1.0181(3)
H88 H 0.8009 0.2738 1.0290
H89 H 0.6836 0.2925 1.0434
C48 C 0.7724(3) 0.4170(3) 1.0554(3)
H90 H 0.7170 0.4636 1.0391
H91 H 0.7784 0.4112 1.1147
C49 C 0.8734(3) 0.4557(3) 1.0308(3)
H92 H 0.8890 0.5177 1.0571
H93 H 0.8673 0.4641 0.9723
H94 H 0.9288 0.4101 1.0471
C50 C 0.8118(3) 0.1821(3) 0.8925(3)
H95 H 0.8061 0.1228 0.8596
H96 H 0.8282 0.1626 0.9493
C51 C 0.9004(3) 0.2410(3) 0.8682(3)
H97 H 0.9220 0.2887 0.9105
H98 H 0.8787 0.2760 0.8177
C52 C 0.9896(4) 0.1747(4) 0.8561(3)
H99 H 0.9678 0.1281 0.8129
H100 H 1.0091 0.1381 0.9062
C53 C 1.0829(4) 0.2308(5) 0.8339(3)
H101 H 1.1346 0.1858 0.8182
H102 H 1.1121 0.2685 0.8804
H103 H 1.0616 0.2741 0.7890
N2 N 0.7088(3) 0.2318(2) 0.88379(19)
C57? C 0.280(2) 0.7676(19) 0.7495(17)
H113? H 0.2320 0.7508 0.7886
H114? H 0.3390 0.7245 0.7561
H115? H 0.2445 0.7611 0.6949
C58? C 0.2551(18) 0.9432(15) 0.7620(15)
H116? H 0.1902 0.9333 0.7849
H117? H 0.2409 0.9677 0.7070
H118? H 0.2973 0.9898 0.7948
C59? C 0.3353(15) 0.8522(14) 0.8740(11)
H119? H 0.2710 0.8404 0.8974
H120? H 0.3637 0.9144 0.8928
H121? H 0.3846 0.8011 0.8908
C60? C 0.6944(12) 0.2050(19) 0.6436(6)
C61? C 0.5878(10) 0.2482(12) 0.6175(11)
C62? C 0.6902(19) 0.5722(15) 0.5258(16)
H124? H 0.7056 0.1461 0.6126
H125? H 0.7494 0.2519 0.6358
H126? H 0.5846 0.2696 0.5615
H127? H 0.5760 0.3031 0.6520
H128? H 0.5349 0.1993 0.6223
H129? H 0.6255 0.5538 0.4945
H130? H 0.7091 0.6375 0.5109
H131? H 0.6817 0.5704 0.5832
loop_
_geom_bond_atom_site_label_1
_geom_bond_atom_site_label_2
_geom_bond_site_symmetry_1
_geom_bond_site_symmetry_2
C1 C2 1_555 1_555
C2 H1 1_555 1_555
C3 C2 1_555 1_555
H2 C3 1_555 1_555
C4 C3 1_555 1_555
C5 C2 1_555 1_555
C6 C5 1_555 1_555
H3 C6 1_555 1_555
H4 C6 1_555 1_555
H5 C6 1_555 1_555
C7 C5 1_555 1_555
H6 C7 1_555 1_555
H7 C7 1_555 1_555
H8 C7 1_555 1_555
C8 C5 1_555 1_555
H9 C8 1_555 1_555
H10 C8 1_555 1_555
H11 C8 1_555 1_555
C9 C3 1_555 1_555
C10 H12 1_555 1_555
H13 C10 1_555 1_555
C11 C10 1_555 1_555
H14 C11 1_555 1_555
H15 C11 1_555 1_555
C12 C11 1_555 1_555
H16 C12 1_555 1_555
H17 C12 1_555 1_555
C13 C12 1_555 1_555
H18 C13 1_555 1_555
H19 C13 1_555 1_555
H20 C13 1_555 1_555
C14 H21 1_555 1_555
H22 C14 1_555 1_555
C15 C14 1_555 1_555
H23 C15 1_555 1_555
H24 C15 1_555 1_555
C16 C15 1_555 1_555
H25 C16 1_555 1_555
H26 C16 1_555 1_555
C17 C16 1_555 1_555
H27 C17 1_555 1_555
H28 C17 1_555 1_555
H29 C17 1_555 1_555
C18 H30 1_555 1_555
H31 C18 1_555 1_555
C19 C18 1_555 1_555
H32 C19 1_555 1_555
H33 C19 1_555 1_555
C20 C19 1_555 1_555
H34 C20 1_555 1_555
H35 C20 1_555 1_555
C21 C20 1_555 1_555
H36 C21 1_555 1_555
H37 C21 1_555 1_555
H38 C21 1_555 1_555
C22 H39 1_555 1_555
H40 C22 1_555 1_555
C23 C22 1_555 1_555
H41 C23 1_555 1_555
H42 C23 1_555 1_555
C24 C23 1_555 1_555
H43 C24 1_555 1_555
H44 C24 1_555 1_555
C25 C24 1_555 1_555
H45 C25 1_555 1_555
H46 C25 1_555 1_555
H47 C25 1_555 1_555
C26 C27 1_555 1_555
C27 H48 1_555 1_555
C28 C27 1_555 1_555
H49 C28 1_555 1_555
C29 C28 1_555 1_555
C30 C27 1_555 1_555
C31 C30 1_555 1_555
H50 C31 1_555 1_555
H51 C31 1_555 1_555
H52 C31 1_555 1_555
C32 C30 1_555 1_555
H53 C32 1_555 1_555
H54 C32 1_555 1_555
H55 C32 1_555 1_555
C33 C30 1_555 1_555
H56 C33 1_555 1_555
H57 C33 1_555 1_555
H58 C33 1_555 1_555
C34 C28 1_555 1_555
C35 C34 1_555 1_555
H59 C35 1_555 1_555
H60 C35 1_555 1_555
H61 C35 1_555 1_555
C36 C34 1_555 1_555
H62 C36 1_555 1_555
H63 C36 1_555 1_555
H64 C36 1_555 1_555
C37 C34 1_555 1_555
H65 C37 1_555 1_555
H66 C37 1_555 1_555
H67 C37 1_555 1_555
C38 H68 1_555 1_555
H69 C38 1_555 1_555
C39 C38 1_555 1_555
H70 C39 1_555 1_555
H71 C39 1_555 1_555
C40 C39 1_555 1_555
H72 C40 1_555 1_555
H73 C40 1_555 1_555
C41 C40 1_555 1_555
H74 C41 1_555 1_555
H75 C41 1_555 1_555
H76 C41 1_555 1_555
C42 H77 1_555 1_555
H78 C42 1_555 1_555
C43 C42 1_555 1_555
H79 C43 1_555 1_555
H80 C43 1_555 1_555
C44 C43 1_555 1_555
H81 C44 1_555 1_555
H82 C44 1_555 1_555
C45 C44 1_555 1_555
H83 C45 1_555 1_555
H84 C45 1_555 1_555
H85 C45 1_555 1_555
C46 H86 1_555 1_555
H87 C46 1_555 1_555
C47 C46 1_555 1_555
H88 C47 1_555 1_555
H89 C47 1_555 1_555
C48 C47 1_555 1_555
H90 C48 1_555 1_555
H91 C48 1_555 1_555
C49 C48 1_555 1_555
H92 C49 1_555 1_555
H93 C49 1_555 1_555
H94 C49 1_555 1_555
C50 H95 1_555 1_555
H96 C50 1_555 1_555
C51 C50 1_555 1_555
H97 C51 1_555 1_555
H98 C51 1_555 1_555
C52 C51 1_555 1_555
H99 C52 1_555 1_555
H100 C52 1_555 1_555
C53 C52 1_555 1_555
H101 C53 1_555 1_555
H102 C53 1_555 1_555
H103 C53 1_555 1_555
C54 C9 1_555 1_555
H104 C54 1_555 1_555
H105 C54 1_555 1_555
H106 C54 1_555 1_555
C55 C9 1_555 1_555
H107 C55 1_555 1_555
H108 C55 1_555 1_555
H109 C55 1_555 1_555
C56 C9 1_555 1_555
H110 C56 1_555 1_555
H111 C56 1_555 1_555
H112 C56 1_555 1_555
N1 C10 1_555 1_555
N2 C38 1_555 1_555
O1 C1 1_555 1_555
O2 C1 1_555 1_555
O3 C4 1_555 1_555
O4 C4 1_555 1_555
O5 C26 1_555 1_555
O6 C26 1_555 1_555
O7 C29 1_555 1_555
O8 C29 1_555 1_555
H122 O2 1_555 1_555
H123 O6 1_555 1_555
C14 N1 1_555 1_555
C18 N1 1_555 1_555
C22 N1 1_555 1_555
C42 N2 1_555 1_555
C46 N2 1_555 1_555
C50 N2 1_555 1_555

#END
