
#######################################################################
#
#                 Cambridge Crystallographic Data Centre
#                                CCDC 
#
#######################################################################
#
# If this CIF has been generated from an entry in the Cambridge 
# Structural Database, then it will include bibliographic, chemical, 
# crystal, experimental, refinement or atomic coordinate data resulting 
# from the CCDC's data processing and validation procedures.
#
#######################################################################

data_LUQQAQ
_chemical_formula_moiety         'C16 H36 P1 1+,C12 H21 O4 1-'
_chemical_name_systematic        
'Tetrabutylphosphonium (hydrogen 2,3-di-t-butylsuccinate)'
_symmetry_cell_setting           monoclinic
_symmetry_space_group_name_H-M   'P 21/n'
_symmetry_Int_Tables_number      14
_space_group_name_Hall           '-P 2yn'
loop_
_symmetry_equiv_pos_site_id
_symmetry_equiv_pos_as_xyz
1 x,y,z
2 1/2-x,1/2+y,1/2-z
3 -x,-y,-z
4 1/2+x,1/2-y,1/2+z
_cell_length_a                   13.0862(11)
_cell_length_b                   15.4546(13)
_cell_length_c                   15.2946(13)
_cell_angle_alpha                90
_cell_angle_beta                 96.1360(10)
_cell_angle_gamma                90
_cell_volume                     3075.49
_exptl_crystal_colour            colorless
_exptl_crystal_description       plate
_cell_formula_units_Z            4
loop_
_atom_site_label
_atom_site_type_symbol
_atom_site_fract_x
_atom_site_fract_y
_atom_site_fract_z
C1 C 0.643(2) 0.137(2) 0.3506(15)
C2 C 0.5838(10) 0.1411(8) 0.4308(8)
H1 H 0.5979 0.0851 0.4627
C3 C 0.6110(9) 0.2103(6) 0.4970(6)
H2 H 0.5660 0.1995 0.5448
C4 C 0.5828(12) 0.3016(15) 0.4633(16)
C5 C 0.7201(4) 0.1908(4) 0.5385(4)
C6 C 0.7920(15) 0.1065(19) 0.5444(17)
H3 H 0.8530 0.1171 0.5860
H4 H 0.8132 0.0938 0.4862
H5 H 0.7537 0.0572 0.5646
C7 C 0.6737(8) 0.1976(7) 0.6214(6)
H6 H 0.7276 0.2089 0.6696
H7 H 0.6386 0.1434 0.6325
H8 H 0.6240 0.2453 0.6174
C8 C 0.7725(14) 0.258(2) 0.5058(19)
H9 H 0.8045 0.2931 0.5545
H10 H 0.7248 0.2937 0.4676
H11 H 0.8259 0.2350 0.4718
C9 C 0.4583(11) 0.1392(10) 0.3943(8)
C10 C 0.442(3) 0.208(3) 0.321(3)
H12 H 0.4433 0.2656 0.3472
H13 H 0.3760 0.1980 0.2861
H14 H 0.4976 0.2031 0.2827
C11 C 0.3990(8) 0.1334(11) 0.4702(9)
H15 H 0.4074 0.1870 0.5044
H16 H 0.4239 0.0844 0.5072
H17 H 0.3262 0.1250 0.4497
C12 C 0.4436(12) 0.0503(9) 0.3446(10)
H18 H 0.3719 0.0445 0.3193
H19 H 0.4609 0.0029 0.3861
H20 H 0.4888 0.0481 0.2976
O1 O 0.674(2) 0.0634(19) 0.3309(13)
O2 O 0.664(4) 0.203(2) 0.311(4)
O3 O 0.6123(18) 0.3330(12) 0.3956(14)
O4 O 0.5419(12) 0.3564(18) 0.5111(18)
H57 H 0.638(5) 0.263(5) 0.344(4)
C13 C 0.8592(4) -0.0428(3) 0.2680(3)
H21 H 0.7849 -0.0334 0.2713
H22 H 0.8663 -0.0982 0.2368
C14 C 0.9103(3) -0.0531(3) 0.3608(3)
H23 H 0.9840 -0.0667 0.3588
H24 H 0.9059 0.0022 0.3927
C15 C 0.8614(4) -0.1238(3) 0.4100(3)
H25 H 0.8674 -0.1791 0.3783
H26 H 0.7873 -0.1108 0.4100
C16 C 0.9088(4) -0.1348(4) 0.5046(4)
H27 H 0.9811 -0.1514 0.5052
H28 H 0.8717 -0.1800 0.5331
H29 H 0.9040 -0.0801 0.5363
C17 C 0.9034(4) 0.1423(3) 0.2619(3)
H30 H 0.8360 0.1476 0.2853
H31 H 0.9566 0.1388 0.3129
C18 C 0.9220(4) 0.2243(3) 0.2105(4)
H32 H 0.9860 0.2177 0.1821
H33 H 0.8645 0.2325 0.1637
C19 C 0.9307(8) 0.3035(4) 0.2697(6)
H34 H 0.8652 0.3094 0.2961
H35 H 0.9850 0.2918 0.3184
C20 C 0.9521(9) 0.3826(6) 0.2337(7)
H36 H 1.0189 0.3799 0.2103
H37 H 0.9541 0.4274 0.2792
H38 H 0.8985 0.3967 0.1861
C21 C 0.8162(6) 0.0479(3) 0.1017(3)
H39 H 0.8439 0.0886 0.0601
H40 H 0.8117 -0.0099 0.0738
C22 C 0.7010(5) 0.0793(6) 0.1193(5)
H41 H 0.6713 0.0354 0.1563
H42 H 0.7071 0.1340 0.1532
C23 C 0.6339(7) 0.0923(7) 0.0451(7)
H43 H 0.6312 0.0395 0.0083
H44 H 0.6590 0.1405 0.0105
C24 C 0.5343(7) 0.1118(6) 0.0666(6)
H45 H 0.5104 0.0652 0.1029
H46 H 0.4874 0.1173 0.0125
H47 H 0.5358 0.1664 0.0993
C25 C 1.0226(4) 0.0187(4) 0.1642(4)
H48 H 1.0097 -0.0288 0.1210
H49 H 1.0417 0.0700 0.1308
C26 C 1.1156(5) -0.0061(9) 0.2223(6)
H50 H 1.0979 -0.0564 0.2578
H51 H 1.1331 0.0423 0.2636
C27 C 1.2113(5) -0.0288(7) 0.1792(6)
H52 H 1.2638 -0.0527 0.2241
H53 H 1.1941 -0.0741 0.1342
C28 C 1.2489(9) 0.0372(13) 0.1426(8)
H54 H 1.2090 0.0485 0.0859
H55 H 1.3206 0.0255 0.1334
H56 H 1.2460 0.0879 0.1808
P1 P 0.90461(9) 0.04263(8) 0.20152(7)
C29? C 0.428(3) 0.184(3) 0.3089(18)
C30? C 0.4091(14) 0.0816(9) 0.4279(9)
C31? C 0.3368(8) 0.2297(8) 0.4231(9)
C32? C 0.670(2) 0.1377(17) 0.3774(14)
C33? C 1.252(2) -0.1118(19) 0.1485(19)
C34? C 0.6271(9) 0.1547(7) 0.4655(7)
C35? C 0.5261(6) 0.2098(4) 0.4609(5)
C36? C 0.5376(13) 0.3076(14) 0.4461(16)
C37? C 0.7542(14) 0.1070(14) 0.5681(13)
C38? C 0.7286(13) 0.2541(12) 0.6311(8)
C39? C 0.8089(14) 0.2437(18) 0.495(2)
C40? C 0.4304(14) 0.1785(8) 0.4060(10)
H58? H 0.4440 0.2429 0.2919
H59? H 0.3597 0.1675 0.2815
H60? H 0.4794 0.1439 0.2892
H61? H 0.4685 0.0463 0.4168
H62? H 0.3481 0.0614 0.3907
H63? H 0.3972 0.0766 0.4899
H64? H 0.3226 0.2210 0.4841
H65? H 0.2776 0.2102 0.3832
H66? H 0.3491 0.2913 0.4130
H67? H 1.2078 0.0093 0.1285
H68? H 1.2670 -0.0063 0.2198
H69? H 1.2619 -0.1526 0.1977
H70? H 1.3182 -0.1015 0.1255
H71? H 1.2034 -0.1362 0.1018
H72? H 0.6082 0.0965 0.4875
H73? H 0.5067 0.2065 0.5223
H74? H 0.8139 0.1128 0.6121
H75? H 0.7734 0.0733 0.5181
H76? H 0.6987 0.0773 0.5943
H77? H 0.7226 0.3152 0.6141
H78? H 0.7950 0.2443 0.6657
H79? H 0.6730 0.2390 0.6665
H80? H 0.7851 0.3027 0.4815
H81? H 0.8242 0.2146 0.4414
H82? H 0.8711 0.2457 0.5371
O5? O 0.699(2) 0.0676(18) 0.3594(12)
O6? O 0.674(4) 0.207(3) 0.324(4)
O7? O 0.586(2) 0.3219(16) 0.3740(16)
O8? O 0.4986(12) 0.3562(17) 0.4934(17)
loop_
_geom_bond_atom_site_label_1
_geom_bond_atom_site_label_2
_geom_bond_site_symmetry_1
_geom_bond_site_symmetry_2
C1 C2 1_555 1_555
C2 H1 1_555 1_555
C3 C2 1_555 1_555
H2 C3 1_555 1_555
C4 C3 1_555 1_555
C5 C3 1_555 1_555
C6 C5 1_555 1_555
H3 C6 1_555 1_555
H4 C6 1_555 1_555
H5 C6 1_555 1_555
C7 C5 1_555 1_555
H6 C7 1_555 1_555
H7 C7 1_555 1_555
H8 C7 1_555 1_555
C8 C5 1_555 1_555
H9 C8 1_555 1_555
H10 C8 1_555 1_555
H11 C8 1_555 1_555
C9 C2 1_555 1_555
C10 C9 1_555 1_555
H12 C10 1_555 1_555
H13 C10 1_555 1_555
H14 C10 1_555 1_555
C11 C9 1_555 1_555
H15 C11 1_555 1_555
H16 C11 1_555 1_555
H17 C11 1_555 1_555
C12 C9 1_555 1_555
H18 C12 1_555 1_555
H19 C12 1_555 1_555
H20 C12 1_555 1_555
C13 H21 1_555 1_555
H22 C13 1_555 1_555
C14 C13 1_555 1_555
H23 C14 1_555 1_555
H24 C14 1_555 1_555
C15 C14 1_555 1_555
H25 C15 1_555 1_555
H26 C15 1_555 1_555
C16 C15 1_555 1_555
H27 C16 1_555 1_555
H28 C16 1_555 1_555
H29 C16 1_555 1_555
C17 H30 1_555 1_555
H31 C17 1_555 1_555
C18 C17 1_555 1_555
H32 C18 1_555 1_555
H33 C18 1_555 1_555
C19 C18 1_555 1_555
H34 C19 1_555 1_555
H35 C19 1_555 1_555
C20 C19 1_555 1_555
H36 C20 1_555 1_555
H37 C20 1_555 1_555
H38 C20 1_555 1_555
C21 H39 1_555 1_555
H40 C21 1_555 1_555
C22 C21 1_555 1_555
H41 C22 1_555 1_555
H42 C22 1_555 1_555
C23 C22 1_555 1_555
H43 C23 1_555 1_555
H44 C23 1_555 1_555
C24 C23 1_555 1_555
H45 C24 1_555 1_555
H46 C24 1_555 1_555
H47 C24 1_555 1_555
C25 H48 1_555 1_555
H49 C25 1_555 1_555
C26 C25 1_555 1_555
H50 C26 1_555 1_555
H51 C26 1_555 1_555
C27 C26 1_555 1_555
H52 C27 1_555 1_555
H53 C27 1_555 1_555
C28 C27 1_555 1_555
H54 C28 1_555 1_555
H55 C28 1_555 1_555
H56 C28 1_555 1_555
O1 C1 1_555 1_555
O2 C1 1_555 1_555
O3 C4 1_555 1_555
O4 C4 1_555 1_555
P1 C13 1_555 1_555
H57 O2 1_555 1_555
C17 P1 1_555 1_555
C21 P1 1_555 1_555
C25 P1 1_555 1_555

#END
