
#######################################################################
#
#                 Cambridge Crystallographic Data Centre
#                                CCDC 
#
#######################################################################
#
# If this CIF has been generated from an entry in the Cambridge 
# Structural Database, then it will include bibliographic, chemical, 
# crystal, experimental, refinement or atomic coordinate data resulting 
# from the CCDC's data processing and validation procedures.
#
#######################################################################

data_LUVXAD
_chemical_formula_moiety         'C18 H22 B10 Cl2'
_chemical_name_systematic        
4,5-bis(2-(3-chlorophenyl)vinyl)-1,2-dicarba-closo-dodecaborane
_symmetry_cell_setting           monoclinic
_symmetry_space_group_name_H-M   'P 21/m'
_symmetry_Int_Tables_number      11
_space_group_name_Hall           '-P 2yb'
loop_
_symmetry_equiv_pos_site_id
_symmetry_equiv_pos_as_xyz
1 x,y,z
2 -x,1/2+y,-z
3 -x,-y,-z
4 x,1/2-y,z
_cell_length_a                   6.5512(5)
_cell_length_b                   20.4249(17)
_cell_length_c                   8.4544(7)
_cell_angle_alpha                90
_cell_angle_beta                 95.750(2)
_cell_angle_gamma                90
_cell_volume                     1125.57
_exptl_crystal_colour            colorless
_exptl_crystal_description       block
_cell_formula_units_Z            2
loop_
_atom_site_label
_atom_site_type_symbol
_atom_site_fract_x
_atom_site_fract_y
_atom_site_fract_z
Cl1 Cl 0.2887(2) 0.45770(8) 0.71414(19)
C1 C 0.0860(10) 0.7500 1.4479(10)
H1 H -0.0781 0.7500 1.4047
C2 C 0.1587(10) 0.7500 1.6331(9)
H2 H 0.0474 0.7500 1.7222
C3 C 0.097(2) 0.6755(4) 1.1971(16)
H3 H -0.0429 0.6844 1.1807
C4 C 0.186(3) 0.6358(5) 1.1035(15)
H4 H 0.3264 0.6290 1.1221
C5 C 0.0658(11) 0.6004(3) 0.9644(6)
C6 C -0.1334(10) 0.6051(3) 0.8937(7)
H5 H -0.2224 0.6357 0.9304
C7 C -0.2008(9) 0.5643(3) 0.7686(6)
H6 H -0.3349 0.5680 0.7217
C8 C -0.0738(9) 0.5189(2) 0.7131(5)
H7 H -0.1200 0.4913 0.6296
C9 C 0.1243(8) 0.5147(2) 0.7833(6)
C10 C 0.1945(9) 0.5545(3) 0.9065(6)
H8 H 0.3294 0.5508 0.9517
B1 B 0.178(2) 0.6828(6) 1.5327(9)
H9 H 0.0889 0.6382 1.5494
B2 B 0.2381(11) 0.7078(3) 1.3404(7)
B3 B 0.3676(11) 0.7075(3) 1.6755(7)
H10 H 0.4094 0.6791 1.7847
B4 B 0.421(2) 0.6818(4) 1.4888(8)
H11 H 0.5010 0.6351 1.4737
B5 B 0.4669(12) 0.7500 1.3751(11)
H12 H 0.5814 0.7500 1.2883
B6 B 0.5432(13) 0.7500 1.5801(11)
H13 H 0.7064 0.7500 1.6260
Cl1C Cl 0.2887(2) 1.04230(8) 0.71414(19)
C3C C 0.097(2) 0.8245(4) 1.1971(16)
H3C H -0.0429 0.8156 1.1807
C4C C 0.186(3) 0.8642(5) 1.1035(15)
H4C H 0.3264 0.8710 1.1221
C5C C 0.0658(11) 0.8996(3) 0.9644(6)
C6C C -0.1334(10) 0.8949(3) 0.8937(7)
H5C H -0.2224 0.8643 0.9304
C7C C -0.2008(9) 0.9357(3) 0.7686(6)
H6C H -0.3349 0.9320 0.7217
C8C C -0.0738(9) 0.9811(2) 0.7131(5)
H7C H -0.1200 1.0087 0.6296
C9C C 0.1243(8) 0.9853(2) 0.7833(6)
C10C C 0.1945(9) 0.9455(3) 0.9065(6)
H8C H 0.3294 0.9492 0.9517
B1C B 0.178(2) 0.8172(6) 1.5327(9)
H9C H 0.0889 0.8618 1.5494
B2C B 0.2381(11) 0.7922(3) 1.3404(7)
B3C B 0.3676(11) 0.7925(3) 1.6755(7)
H10C H 0.4094 0.8209 1.7847
B4C B 0.421(2) 0.8182(4) 1.4888(8)
H11C H 0.5010 0.8649 1.4737
C11? C 0.244(2) 0.6591(9) 1.187(2)
H14? H 0.3643 0.6387 1.1635
C12? C 0.069(3) 0.6505(10) 1.099(2)
H15? H -0.0476 0.6739 1.1178
loop_
_geom_bond_atom_site_label_1
_geom_bond_atom_site_label_2
_geom_bond_site_symmetry_1
_geom_bond_site_symmetry_2
Cl1 C9 1_555 1_555
C1 H1 1_555 1_555
C2 C1 1_555 1_555
H2 C2 1_555 1_555
C3 H3 1_555 1_555
C4 C3 1_555 1_555
H4 C4 1_555 1_555
C5 C4 1_555 1_555
C6 C5 1_555 1_555
H5 C6 1_555 1_555
C7 C6 1_555 1_555
H6 C7 1_555 1_555
C8 C7 1_555 1_555
H7 C8 1_555 1_555
C9 C8 1_555 1_555
C10 C5 1_555 1_555
H8 C10 1_555 1_555
B1 C1 1_555 1_555
H9 B1 1_555 1_555
B2 C1 1_555 1_555
B3 C2 1_555 1_555
H10 B3 1_555 1_555
B4 B1 1_555 1_555
H11 B4 1_555 1_555
B5 B2 1_555 1_555
H12 B5 1_555 1_555
B6 B3 1_555 1_555
H13 B6 1_555 1_555
Cl1C C9C 1_555 1_555
C3C H3C 1_555 1_555
C4C C3C 1_555 1_555
H4C C4C 1_555 1_555
C5C C4C 1_555 1_555
C6C C5C 1_555 1_555
H5C C6C 1_555 1_555
C7C C6C 1_555 1_555
H6C C7C 1_555 1_555
C8C C7C 1_555 1_555
H7C C8C 1_555 1_555
C9C C8C 1_555 1_555
C10C C5C 1_555 1_555
H8C C10C 1_555 1_555
B1C C1 1_555 1_555
H9C B1C 1_555 1_555
B2C C1 1_555 1_555
B3C C2 1_555 1_555
H10C B3C 1_555 1_555
B4C B5 1_555 1_555
H11C B4C 1_555 1_555
C2 B1 1_555 1_555
C2 B1C 1_555 1_555
C3 B2 1_555 1_555
C9 C10 1_555 1_555
B1 B2 1_555 1_555
B1 B3 1_555 1_555
B2 B4 1_555 1_555
B2 B2C 1_555 1_555
B3 B4 1_555 1_555
B3 B3C 1_555 1_555
B4 B5 1_555 1_555
B4 B6 1_555 1_555
B5 B6 1_555 1_555
B5 B2C 1_555 1_555
B6 B3C 1_555 1_555
B6 B4C 1_555 1_555
C3C B2C 1_555 1_555
C9C C10C 1_555 1_555
B1C B2C 1_555 1_555
B1C B3C 1_555 1_555
B1C B4C 1_555 1_555
B2C B4C 1_555 1_555
B3C B4C 1_555 1_555

#END
