
#######################################################################
#
#                 Cambridge Crystallographic Data Centre
#                                CCDC 
#
#######################################################################
#
# If this CIF has been generated from an entry in the Cambridge 
# Structural Database, then it will include bibliographic, chemical, 
# crystal, experimental, refinement or atomic coordinate data resulting 
# from the CCDC's data processing and validation procedures.
#
#######################################################################

data_LUWNUO
_chemical_formula_moiety         'C12 H17 F3 N2 O1 S1,H2 O1'
_chemical_name_systematic        
'2-Methyl-N-(1,1,1-trifluoro-3-(pyridin-2-yl)propan-2-yl)propane-2-sulfinamide monohydrate'
_symmetry_cell_setting           orthorhombic
_symmetry_space_group_name_H-M   'P 21 21 21'
_symmetry_Int_Tables_number      19
_space_group_name_Hall           'P 2ac 2ab'
loop_
_symmetry_equiv_pos_site_id
_symmetry_equiv_pos_as_xyz
1 x,y,z
2 1/2-x,-y,1/2+z
3 -x,1/2+y,1/2-z
4 1/2+x,1/2-y,-z
_cell_length_a                   7.0751(6)
_cell_length_b                   12.9998(11)
_cell_length_c                   16.8095(14)
_cell_angle_alpha                90
_cell_angle_beta                 90
_cell_angle_gamma                90
_cell_volume                     1546.05
_exptl_crystal_colour            colorless
_exptl_crystal_description       prismatic
_chemical_melting_point          '75-77 deg.C'
_cell_formula_units_Z            4
loop_
_atom_site_label
_atom_site_type_symbol
_atom_site_fract_x
_atom_site_fract_y
_atom_site_fract_z
S1 S 0.23651(6) 0.35092(3) 0.32126(2)
F1 F 0.2235(3) 0.58451(17) 0.16982(9)
F2 F 0.0430(3) 0.45453(13) 0.16643(8)
F3 F -0.0766(3) 0.60235(16) 0.17931(9)
N1 N -0.1254(3) 0.59179(14) 0.43912(9)
N2 N 0.2475(2) 0.47649(10) 0.31407(9)
O1 O 0.2999(3) 0.29990(11) 0.24754(8)
C1 C 0.0687(3) 0.5452(2) 0.20146(12)
C2 C 0.0820(2) 0.53431(14) 0.29098(10)
H1 H -0.0295 0.4962 0.3091
C3 C 0.0796(3) 0.63994(14) 0.33129(11)
H2 H 0.2003 0.6737 0.3231
H3 H -0.0178 0.6823 0.3073
C4 C 0.0425(3) 0.62964(13) 0.41914(11)
C5 C 0.1740(3) 0.65765(17) 0.47565(13)
H4 H 0.2904 0.6842 0.4603
C6 C 0.1316(4) 0.6460(2) 0.55469(14)
H5 H 0.2180 0.6656 0.5935
C7 C -0.0378(5) 0.6054(2) 0.57557(13)
H6 H -0.0686 0.5950 0.6287
C8 C -0.1617(4) 0.5802(2) 0.51671(13)
H7 H -0.2784 0.5533 0.5313
C9 C 0.4293(3) 0.32958(14) 0.39336(11)
C10 C 0.3948(4) 0.3975(2) 0.46557(13)
H8 H 0.2626 0.3970 0.4785
H9 H 0.4340 0.4665 0.4539
H10 H 0.4659 0.3717 0.5099
C11 C 0.4111(4) 0.21576(18) 0.41457(15)
H11 H 0.5069 0.1977 0.4526
H12 H 0.4266 0.1749 0.3674
H13 H 0.2886 0.2031 0.4371
C12 C 0.6181(3) 0.35032(19) 0.35451(16)
H14 H 0.6276 0.4220 0.3415
H15 H 0.6288 0.3101 0.3068
H16 H 0.7179 0.3319 0.3905
H17 H 0.348(3) 0.5032(15) 0.3088(11)
O2 O 0.5731(2) 0.61500(14) 0.32148(13)
H18 H 0.645(3) 0.606(2) 0.3573(13)
H19 H 0.606(4) 0.6656(16) 0.2987(14)
loop_
_geom_bond_atom_site_label_1
_geom_bond_atom_site_label_2
_geom_bond_site_symmetry_1
_geom_bond_site_symmetry_2
S1 N2 1_555 1_555
F1 C1 1_555 1_555
F2 C1 1_555 1_555
F3 C1 1_555 1_555
N1 C4 1_555 1_555
N2 C2 1_555 1_555
O1 S1 1_555 1_555
C1 C2 1_555 1_555
C2 H1 1_555 1_555
C3 C2 1_555 1_555
H2 C3 1_555 1_555
H3 C3 1_555 1_555
C4 C3 1_555 1_555
C5 C4 1_555 1_555
H4 C5 1_555 1_555
C6 C5 1_555 1_555
H5 C6 1_555 1_555
C7 C6 1_555 1_555
H6 C7 1_555 1_555
C8 N1 1_555 1_555
H7 C8 1_555 1_555
C9 S1 1_555 1_555
C10 C9 1_555 1_555
H8 C10 1_555 1_555
H9 C10 1_555 1_555
H10 C10 1_555 1_555
C11 C9 1_555 1_555
H11 C11 1_555 1_555
H12 C11 1_555 1_555
H13 C11 1_555 1_555
C12 C9 1_555 1_555
H14 C12 1_555 1_555
H15 C12 1_555 1_555
H16 C12 1_555 1_555
H17 N2 1_555 1_555
O2 H18 1_555 1_555
H19 O2 1_555 1_555
C7 C8 1_555 1_555

#END
