
#######################################################################
#
#                 Cambridge Crystallographic Data Centre
#                                CCDC 
#
#######################################################################
#
# If this CIF has been generated from an entry in the Cambridge 
# Structural Database, then it will include bibliographic, chemical, 
# crystal, experimental, refinement or atomic coordinate data resulting 
# from the CCDC's data processing and validation procedures.
#
#######################################################################

data_LUXXEI
_chemical_name_common            
'meso-octakis(Pentafluorophenyl)[36]octaphyrin (1.1.1.1.1.1.1.1) bis(trifluoroacetate) trifluoroacetic acid solvate'
_chemical_formula_moiety         
'C88 H22 F40 N8 2+,2(C2 F3 O2 1-),6(C2 H1 F3 O2)'
_chemical_name_systematic        
'2,7,12,17,22,27,32,37-octakis(pentafluorophenyl)-41,42,43,44,45,46,47,48-octaazanonacyclo[36.2.1.1^3,6^.1^8,11^.1^13,16^.1^18,21^.1^23,26^.1^28,31^.1^33,36^]octatetraconta-1(41),2,4,6(48),7,9,11,13,15,17,19,21,23,25,27,29,31,33,35,37,39-henicosaene bis(trifluoroacetate) trifluoroacetic acid solvate'
_symmetry_cell_setting           monoclinic
_symmetry_space_group_name_H-M   'C 2/c'
_symmetry_Int_Tables_number      15
_space_group_name_Hall           '-C 2yn'
loop_
_symmetry_equiv_pos_site_id
_symmetry_equiv_pos_as_xyz
1 x,y,z
2 -x,y,1/2-z
3 1/2+x,1/2+y,z
4 1/2-x,1/2+y,1/2-z
5 -x,-y,-z
6 x,-y,1/2+z
7 1/2-x,1/2-y,-z
8 1/2+x,1/2-y,1/2+z
_cell_length_a                   30.357(2)
_cell_length_b                   22.0294(16)
_cell_length_c                   38.924(4)
_cell_angle_alpha                90
_cell_angle_beta                 104.353(2)
_cell_angle_gamma                90
_cell_volume                     25217.8
_exptl_crystal_colour            violet
_exptl_crystal_description       prism
_cell_formula_units_Z            8
_exptl_crystal_recrystallization_method chloroform/heptane
loop_
_atom_site_label
_atom_site_type_symbol
_atom_site_fract_x
_atom_site_fract_y
_atom_site_fract_z
F1 F 0.46668(9) 0.13064(14) 0.00196(8)
F2 F 0.57101(9) 0.10764(13) 0.11337(8)
F3 F 0.30957(11) -0.34613(14) 0.17467(9)
F4 F 0.63892(9) 0.14361(15) 0.08507(9)
F5 F 0.53545(11) 0.16353(16) -0.02633(9)
F6 F 0.41051(11) 0.26163(16) -0.00704(8)
F7 F 0.22953(10) -0.25844(14) 0.06660(8)
F8 F 0.62123(10) 0.17103(15) 0.01495(10)
F9 F 0.21095(11) -0.36958(16) 0.03942(9)
F10 F 0.29044(12) -0.45726(15) 0.14734(12)
C1 C 0.58761(18) 0.1546(3) 0.02898(16)
F11 F 0.45361(11) 0.39554(16) 0.08988(10)
F12 F 0.22319(14) 0.3429(2) 0.15851(11)
F13 F 0.51183(14) 0.42018(19) -0.00999(13)
F14 F 0.50599(13) 0.45671(16) 0.05640(13)
F15 F 0.46569(16) 0.3202(2) -0.03995(11)
F16 F 0.47013(12) -0.3243(2) 0.08567(11)
F17 F 0.39430(19) -0.4657(2) 0.1704(2)
F18 F 0.41146(13) -0.34867(17) 0.18758(12)
F19 F 0.17282(12) -0.04442(16) 0.07359(10)
F20 F 0.07989(14) 0.0783(2) 0.15352(18)
F21 F 0.24132(12) -0.46943(15) 0.07892(11)
F22 F 0.15962(13) 0.02555(18) 0.18495(13)
F23 F 0.04681(13) 0.07083(19) 0.08257(19)
F24 F 0.09327(14) 0.01006(17) 0.04297(14)
F25 F 0.29966(15) 0.1544(2) 0.33146(10)
F26 F 0.38243(16) 0.20526(19) 0.34482(9)
F27 F 0.42539(13) 0.2207(2) 0.29207(10)
F28 F 0.38419(11) 0.18534(16) 0.22578(9)
F29 F 0.20758(17) 0.4300(2) 0.20300(13)
F30 F 0.37559(14) 0.40432(19) 0.18030(11)
F31 F 0.41253(18) -0.5118(2) 0.1104(2)
F32 F 0.45175(18) -0.4422(3) 0.07004(19)
F33 F 0.2770(2) 0.5037(2) 0.23679(14)
F34 F 0.3600(2) 0.4898(2) 0.22475(13)
F35 F 0.25850(14) 0.11920(18) 0.26526(11)
F36 F 0.56233(10) -0.17843(13) 0.06673(8)
F37 F 0.60179(10) -0.01390(14) 0.14628(9)
F38 F 0.68309(10) -0.00723(15) 0.13080(10)
F39 F 0.70473(10) -0.08580(16) 0.08396(10)
F40 F 0.64284(12) -0.16923(16) 0.05078(11)
N1 N 0.24922(15) 0.0529(2) 0.17068(13)
N2 N 0.29717(14) 0.2364(2) 0.18128(12)
H1 H 0.2995 0.2569 0.2010
N3 N 0.35232(13) 0.29664(18) 0.10245(11)
H2 H 0.3571 0.2588 0.1097
N4 N 0.44535(13) 0.20067(18) 0.06456(11)
H3 H 0.4699 0.2188 0.0614
N5 N 0.51132(13) -0.00088(17) 0.09036(11)
H4 H 0.5325 0.0015 0.0786
N6 N 0.48031(14) -0.17380(18) 0.13093(12)
H5 H 0.4560 -0.1505 0.1268
N7 N 0.36196(13) -0.26051(19) 0.13678(12)
H6 H 0.3554 -0.2934 0.1237
N8 N 0.25772(13) -0.13281(19) 0.14487(12)
C2 C 0.40094(16) -0.1849(2) 0.16988(14)
H7 H 0.4254 -0.1594 0.1814
C3 C 0.52789(18) -0.2549(2) 0.14610(16)
H8 H 0.5389 -0.2947 0.1525
C4 C 0.25007(16) -0.1942(2) 0.13755(14)
C5 C 0.20261(16) -0.2033(2) 0.13007(15)
H9 H 0.1874 -0.2411 0.1249
C6 C 0.24694(18) -0.0098(2) 0.17056(17)
C7 C 0.23383(18) -0.3629(3) 0.07259(16)
C8 C 0.29037(18) 0.2145(2) 0.12387(15)
H10 H 0.2880 0.2195 0.0992
C9 C 0.35125(17) 0.3836(2) 0.07144(15)
H11 H 0.3557 0.4122 0.0544
C10 C 0.26969(16) -0.2982(2) 0.12202(14)
C11 C 0.29553(18) 0.1338(2) 0.20571(15)
C12 C 0.55290(17) -0.2065(2) 0.14013(16)
H12 H 0.5849 -0.2060 0.1432
C13 C 0.44329(17) -0.2663(2) 0.14334(15)
C14 C 0.56140(16) 0.1216(2) 0.07950(14)
C15 C 0.40034(16) 0.2934(2) 0.06111(14)
C16 C 0.40624(15) 0.2284(2) 0.06468(13)
C17 C 0.28017(19) -0.0294(3) 0.19996(16)
H13 H 0.2871 -0.0706 0.2062
C18 C 0.37434(17) 0.1828(2) 0.06920(14)
H14 H 0.3437 0.1892 0.0702
C19 C 0.46787(16) -0.0355(2) 0.12466(14)
H15 H 0.4553 -0.0615 0.1393
C20 C 0.18229(17) -0.1485(2) 0.13144(15)
H16 H 0.1505 -0.1412 0.1269
C21 C 0.39639(16) 0.1285(2) 0.07185(13)
H17 H 0.3834 0.0900 0.0744
C22 C 0.43296(19) 0.3102(3) 0.00889(17)
C23 C 0.28349(16) -0.2367(2) 0.13695(13)
C24 C 0.45394(18) 0.3778(2) 0.05763(19)
C25 C 0.51703(15) 0.1184(2) 0.05813(15)
C26 C 0.44135(16) 0.1386(2) 0.07018(13)
C27 C 0.50976(17) 0.1329(2) 0.02342(14)
C28 C 0.32647(17) 0.3374(2) 0.11556(13)
C29 C 0.54327(17) 0.1510(3) 0.00829(15)
C30 C 0.48017(16) 0.0430(2) 0.09116(14)
C31 C 0.40419(16) -0.2381(2) 0.14893(14)
C32 C 0.2978(2) 0.3710(2) 0.16711(16)
C33 C 0.35609(16) -0.1780(2) 0.17008(15)
H18 H 0.3438 -0.1480 0.1826
C34 C 0.4849(2) 0.3897(3) 0.00700(19)
C35 C 0.47836(15) 0.0985(2) 0.07360(12)
C36 C 0.52261(15) -0.1561(2) 0.12845(14)
C37 C 0.59650(16) 0.1404(2) 0.06436(15)
C38 C 0.29881(17) 0.2609(2) 0.14946(13)
C39 C 0.30714(18) 0.3232(3) 0.14352(16)
C40 C 0.45308(17) 0.0212(2) 0.11379(13)
H19 H 0.4291 0.0426 0.1201
C41 C 0.48143(19) 0.4092(2) 0.0389(2)
C42 C 0.42862(17) 0.3274(2) 0.04233(15)
C43 C 0.28550(18) -0.3514(2) 0.14105(15)
C44 C 0.21213(17) -0.0426(2) 0.14710(16)
C45 C 0.48189(16) -0.2346(2) 0.14100(14)
C46 C 0.16857(19) -0.0120(3) 0.13062(18)
C47 C 0.53439(15) -0.1010(2) 0.11603(13)
C48 C 0.28608(19) 0.1602(3) 0.14075(16)
H20 H 0.2807 0.1213 0.1300
C49 C 0.30130(18) 0.0196(2) 0.21856(16)
H21 H 0.3242 0.0185 0.2402
C50 C 0.27566(19) -0.4078(3) 0.12734(17)
C51 C 0.33072(16) -0.2256(2) 0.14744(14)
C52 C 0.4613(2) 0.3408(3) -0.00941(19)
C53 C 0.36989(17) 0.3227(2) 0.07642(15)
C54 C 0.24442(16) -0.3067(2) 0.08699(14)
C55 C 0.2582(2) 0.3790(3) 0.17464(19)
C56 C 0.28266(18) 0.0721(3) 0.19970(16)
C57 C 0.50496(16) -0.0491(2) 0.11041(13)
C58 C 0.29131(17) 0.1743(2) 0.17771(14)
C59 C 0.32591(19) 0.3927(2) 0.09582(15)
H22 H 0.3107 0.4291 0.0991
C60 C 0.4411(2) -0.3326(3) 0.1364(2)
C61 C 0.4521(2) -0.3589(3) 0.1078(2)
C62 C 0.4435(2) -0.4184(4) 0.0990(3)
C63 C 0.4127(2) -0.4313(3) 0.1493(3)
C64 C 0.4210(2) -0.3708(3) 0.1582(3)
C65 C 0.1505(2) -0.0155(3) 0.0947(2)
C66 C 0.1099(2) 0.0122(3) 0.0778(2)
C67 C 0.0866(2) 0.0435(3) 0.0992(4)
C68 C 0.1041(2) 0.0479(3) 0.1346(3)
C69 C 0.14392(19) 0.0192(3) 0.1504(3)
C70 C 0.3189(2) 0.1514(2) 0.24213(15)
C71 C 0.2993(2) 0.1436(3) 0.27076(19)
C72 C 0.3207(3) 0.1615(3) 0.30480(17)
C73 C 0.3611(2) 0.1875(3) 0.31212(16)
C74 C 0.3841(2) 0.1945(3) 0.28530(16)
C75 C 0.3620(2) 0.1778(3) 0.25102(16)
C76 C 0.2482(3) 0.4235(4) 0.1968(2)
C77 C 0.2842(4) 0.4600(3) 0.2125(3)
C78 C 0.3267(3) 0.4530(3) 0.2087(2)
C79 C 0.3334(3) 0.4119(3) 0.18383(18)
C80 C 0.4239(3) -0.4552(4) 0.1213(3)
C81 C 0.25034(18) -0.4150(2) 0.09301(17)
C82 C 0.59152(17) -0.1360(2) 0.08330(15)
C83 C 0.57904(16) -0.0965(2) 0.10694(14)
C84 C 0.61061(16) -0.0534(2) 0.12268(15)
C85 C 0.65364(18) -0.0491(3) 0.11523(17)
C86 C 0.66381(17) -0.0887(3) 0.09161(17)
C87 C 0.63327(18) -0.1320(2) 0.07522(16)
C88 C 0.21733(17) -0.1040(2) 0.14090(14)
F41 F 0.35881(19) 0.5734(2) 0.00975(15)
F42 F 0.2921(2) 0.5991(3) 0.0071(2)
F43 F 0.3285(2) 0.5460(2) 0.05132(16)
O1 O 0.34172(15) 0.6560(2) 0.07829(12)
O2 O 0.36872(17) 0.6859(2) 0.03302(13)
H23 H 0.3777 0.7166 0.0456
C89 C 0.3320(3) 0.5903(4) 0.0279(3)
C90 C 0.3493(2) 0.6488(3) 0.0501(2)
F44 F 0.5404(2) 0.4097(3) 0.1513(2)
F45 F 0.4786(3) 0.4316(4) 0.1667(2)
F46 F 0.5314(3) 0.3856(4) 0.20245(18)
O3 O 0.4563(2) 0.3120(3) 0.16881(16)
O4 O 0.50749(18) 0.2943(3) 0.13502(16)
C91 C 0.5126(6) 0.3849(6) 0.1703(4)
C92 C 0.4906(3) 0.3269(4) 0.1570(3)
F47 F 0.64723(11) 1.02905(18) 0.02393(10)
F48 F 0.60997(13) 1.0179(2) -0.03051(11)
F49 F 0.62867(13) 0.94061(18) 0.00240(11)
O5 O 0.53459(12) 1.00325(17) -0.01057(10)
H24 H 0.5116 1.0042 -0.0023
O6 O 0.57357(12) 0.99756(16) 0.04657(10)
C93 C 0.6141(2) 0.9978(3) 0.00232(17)
C94 C 0.57006(19) 0.9997(2) 0.01459(16)
F50 F 0.51993(14) 0.1953(2) 0.29273(12)
F51 F 0.53564(18) 0.1008(2) 0.29791(16)
F52 F 0.50544(14) 0.1467(2) 0.33576(14)
O7 O 0.60865(15) 0.1228(2) 0.34642(12)
O8 O 0.58984(14) 0.22021(18) 0.34961(11)
H25 H 0.5663 0.2408 0.3413
C95 C 0.5356(3) 0.1525(3) 0.31607(19)
C96 C 0.5829(2) 0.1653(3) 0.33935(18)
F53 F 0.17930(11) 0.38511(17) 0.46792(9)
F54 F 0.20238(12) 0.3385(2) 0.42767(11)
F55 F 0.18962(13) 0.29007(19) 0.47171(12)
O9 O 0.10382(14) 0.2797(2) 0.43300(11)
O10 O 0.11022(13) 0.36719(17) 0.40568(11)
C97 C 0.12459(19) 0.3263(3) 0.42739(16)
C98 C 0.1745(2) 0.3333(3) 0.44869(17)
F56 F 0.06928(12) 0.79975(18) 0.01342(11)
F57 F 0.09505(13) 0.87309(16) 0.04847(12)
F58 F 0.12733(11) 0.78629(18) 0.05655(11)
O11 O 0.02519(12) 0.76229(18) 0.05939(13)
O12 O 0.06779(17) 0.8217(3) 0.10081(16)
H26 H 0.0499 0.8107 0.1130
C99 C 0.0563(2) 0.7961(3) 0.0701(2)
C100 C 0.08773(19) 0.8141(3) 0.0465(2)
F59 F 0.3784(3) 0.3469(3) 0.25948(17)
F60 F 0.37531(18) 0.3248(2) 0.31181(12)
F61 F 0.3517(2) 0.4116(3) 0.29139(18)
O13 O 0.3005(3) 0.2944(3) 0.24388(14)
O14 O 0.2767(3) 0.3472(4) 0.28247(17)
H27 H 0.2889 0.3704 0.2993
C101 C 0.3535(5) 0.3541(5) 0.2824(3)
C102 C 0.3054(4) 0.3298(4) 0.2674(2)
F62 F 0.1092(3) 0.1819(3) 0.1188(3)
F63 F 0.16129(19) 0.2507(3) 0.1378(2)
F64 F 0.1809(3) 0.1614(3) 0.15694(16)
C103 C 0.1613(4) 0.1927(4) 0.1302(4)
O15 O 0.1825(3) 0.1216(4) 0.0980(3)
C104 C 0.1728(3) 0.1735(8) 0.0988(3)
O16 O 0.1756(3) 0.2131(4) 0.0764(2)
H28 H 0.1555 0.2069 0.0576
loop_
_geom_bond_atom_site_label_1
_geom_bond_atom_site_label_2
_geom_bond_site_symmetry_1
_geom_bond_site_symmetry_2
F1 C27 1_555 1_555
F2 C14 1_555 1_555
F3 C43 1_555 1_555
F4 C37 1_555 1_555
F5 C29 1_555 1_555
F6 C22 1_555 1_555
F7 C54 1_555 1_555
F8 C1 1_555 1_555
F9 C7 1_555 1_555
F10 C50 1_555 1_555
C1 C29 1_555 1_555
F11 C24 1_555 1_555
F12 C55 1_555 1_555
F13 C34 1_555 1_555
F14 C41 1_555 1_555
F15 C52 1_555 1_555
F16 C61 1_555 1_555
F17 C63 1_555 1_555
F18 C64 1_555 1_555
F19 C65 1_555 1_555
F20 C68 1_555 1_555
F21 C81 1_555 1_555
F22 C69 1_555 1_555
F23 C67 1_555 1_555
F24 C66 1_555 1_555
F25 C72 1_555 1_555
F26 C73 1_555 1_555
F27 C74 1_555 1_555
F28 C75 1_555 1_555
F29 C76 1_555 1_555
F30 C79 1_555 1_555
F31 C80 1_555 1_555
F32 C62 1_555 1_555
F33 C77 1_555 1_555
F34 C78 1_555 1_555
F35 C71 1_555 1_555
F36 C82 1_555 1_555
F37 C84 1_555 1_555
F38 C85 1_555 1_555
F39 C86 1_555 1_555
F40 C87 1_555 1_555
N1 C6 1_555 1_555
N2 H1 1_555 1_555
N3 H2 1_555 1_555
N4 H3 1_555 1_555
N5 H4 1_555 1_555
N6 H5 1_555 1_555
N7 H6 1_555 1_555
N8 C4 1_555 1_555
C2 H7 1_555 1_555
C3 H8 1_555 1_555
C4 C5 1_555 1_555
C5 H9 1_555 1_555
C6 C17 1_555 1_555
C7 C54 1_555 1_555
C8 H10 1_555 1_555
C9 H11 1_555 1_555
C10 C23 1_555 1_555
C11 C56 1_555 1_555
C12 C3 1_555 1_555
H12 C12 1_555 1_555
C13 C31 1_555 1_555
C14 C25 1_555 1_555
C15 C16 1_555 1_555
C16 N4 1_555 1_555
C17 H13 1_555 1_555
C18 C16 1_555 1_555
H14 C18 1_555 1_555
C19 H15 1_555 1_555
C20 C5 1_555 1_555
H16 C20 1_555 1_555
C21 C18 1_555 1_555
H17 C21 1_555 1_555
C22 C42 1_555 1_555
C23 C4 1_555 1_555
C24 C41 1_555 1_555
C25 C27 1_555 1_555
C26 N4 1_555 1_555
C27 C29 1_555 1_555
C28 N3 1_555 1_555
C30 N5 1_555 1_555
C31 N7 1_555 1_555
C32 C39 1_555 1_555
C33 C2 1_555 1_555
H18 C33 1_555 1_555
C34 C41 1_555 1_555
C35 C25 1_555 1_555
C36 N6 1_555 1_555
C37 C1 1_555 1_555
C38 N2 1_555 1_555
C39 C28 1_555 1_555
C40 C19 1_555 1_555
H19 C40 1_555 1_555
C42 C15 1_555 1_555
C43 C10 1_555 1_555
C44 C6 1_555 1_555
C45 N6 1_555 1_555
C46 C44 1_555 1_555
C47 C36 1_555 1_555
C48 C8 1_555 1_555
H20 C48 1_555 1_555
C49 C17 1_555 1_555
H21 C49 1_555 1_555
C50 C43 1_555 1_555
C51 N7 1_555 1_555
C52 C22 1_555 1_555
C53 N3 1_555 1_555
C54 C10 1_555 1_555
C55 C32 1_555 1_555
C56 N1 1_555 1_555
C57 N5 1_555 1_555
C58 N2 1_555 1_555
C59 C9 1_555 1_555
H22 C59 1_555 1_555
C60 C13 1_555 1_555
C61 C60 1_555 1_555
C62 C61 1_555 1_555
C63 C64 1_555 1_555
C64 C60 1_555 1_555
C65 C46 1_555 1_555
C66 C65 1_555 1_555
C67 C66 1_555 1_555
C68 C67 1_555 1_555
C69 C46 1_555 1_555
C70 C11 1_555 1_555
C71 C70 1_555 1_555
C72 C71 1_555 1_555
C73 C72 1_555 1_555
C74 C73 1_555 1_555
C75 C70 1_555 1_555
C76 C55 1_555 1_555
C77 C76 1_555 1_555
C78 C77 1_555 1_555
C79 C32 1_555 1_555
C80 C62 1_555 1_555
C81 C7 1_555 1_555
C82 C83 1_555 1_555
C83 C47 1_555 1_555
C84 C83 1_555 1_555
C85 C84 1_555 1_555
C86 C85 1_555 1_555
C87 C82 1_555 1_555
C88 N8 1_555 1_555
F41 C89 1_555 1_555
F42 C89 1_555 1_555
F43 C89 1_555 1_555
O1 C90 1_555 1_555
O2 H23 1_555 1_555
C89 C90 1_555 1_555
C90 O2 1_555 1_555
F44 C91 1_555 1_555
F45 C91 1_555 1_555
F46 C91 1_555 1_555
O3 C92 1_555 1_555
O4 C92 1_555 1_555
C91 C92 1_555 1_555
F47 C93 1_555 1_555
F48 C93 1_555 1_555
F49 C93 1_555 1_555
O5 H24 1_555 1_555
O6 C94 1_555 1_555
C93 C94 1_555 1_555
C94 O5 1_555 1_555
F50 C95 1_555 1_555
F51 C95 1_555 1_555
F52 C95 1_555 1_555
O7 C96 1_555 1_555
O8 H25 1_555 1_555
C95 C96 1_555 1_555
C96 O8 1_555 1_555
F53 C98 1_555 1_555
F54 C98 1_555 1_555
F55 C98 1_555 1_555
O9 C97 1_555 1_555
O10 C97 1_555 1_555
C97 C98 1_555 1_555
F56 C100 1_555 1_555
F57 C100 1_555 1_555
F58 C100 1_555 1_555
O11 C99 1_555 1_555
O12 H26 1_555 1_555
C99 O12 1_555 1_555
C100 C99 1_555 1_555
F59 C101 1_555 1_555
F60 C101 1_555 1_555
F61 C101 1_555 1_555
O13 C102 1_555 1_555
O14 H27 1_555 1_555
C101 C102 1_555 1_555
C102 O14 1_555 1_555
F62 C103 1_555 1_555
F63 C103 1_555 1_555
F64 C103 1_555 1_555
C103 C104 1_555 1_555
O15 C104 1_555 1_555
C104 O16 1_555 1_555
O16 H28 1_555 1_555
C2 C31 1_555 1_555
C3 C45 1_555 1_555
C8 C38 1_555 1_555
C9 C53 1_555 1_555
C11 C58 1_555 1_555
C12 C36 1_555 1_555
C13 C45 1_555 1_555
C14 C37 1_555 1_555
C15 C53 1_555 1_555
C19 C57 1_555 1_555
C20 C88 1_555 1_555
C21 C26 1_555 1_555
C23 C51 1_555 1_555
C24 C42 1_555 1_555
C26 C35 1_555 1_555
C28 C59 1_555 1_555
C30 C35 1_555 1_555
C30 C40 1_555 1_555
C33 C51 1_555 1_555
C34 C52 1_555 1_555
C38 C39 1_555 1_555
C44 C88 1_555 1_555
C47 C57 1_555 1_555
C48 C58 1_555 1_555
C49 C56 1_555 1_555
C50 C81 1_555 1_555
C63 C80 1_555 1_555
C68 C69 1_555 1_555
C74 C75 1_555 1_555
C78 C79 1_555 1_555
C86 C87 1_555 1_555

#END
