
#######################################################################
#
#                 Cambridge Crystallographic Data Centre
#                                CCDC 
#
#######################################################################
#
# If this CIF has been generated from an entry in the Cambridge 
# Structural Database, then it will include bibliographic, chemical, 
# crystal, experimental, refinement or atomic coordinate data resulting 
# from the CCDC's data processing and validation procedures.
#
#######################################################################

data_LUZFUJ
_chemical_formula_moiety         'C2 H10 N2 2+,C2 N10 2-,2(H2 O1)'
_chemical_name_systematic        
'ethane-1,2-diaminium 5-(tetrazol-1-id-5-yldiazenyl)tetrazol-1-ide dihydrate'
_symmetry_cell_setting           triclinic
_symmetry_space_group_name_H-M   'P -1'
_symmetry_Int_Tables_number      2
_space_group_name_Hall           '-P 1'
loop_
_symmetry_equiv_pos_site_id
_symmetry_equiv_pos_as_xyz
1 x,y,z
2 -x,-y,-z
_cell_length_a                   7.4023(6)
_cell_length_b                   7.4476(6)
_cell_length_c                   11.8696(10)
_cell_angle_alpha                107.352(2)
_cell_angle_beta                 90.453(2)
_cell_angle_gamma                105.575(2)
_cell_volume                     598.888
_exptl_crystal_colour            yellow
_exptl_crystal_description       block
_cell_formula_units_Z            2
loop_
_atom_site_label
_atom_site_type_symbol
_atom_site_fract_x
_atom_site_fract_y
_atom_site_fract_z
H1 H 0.233(3) 0.260(3) 0.5809(19)
H2 H 0.073(3) 0.315(3) 0.5427(18)
H3 H 0.233(3) 0.288(3) 0.4615(19)
C1 C 0.0564(2) 0.0430(2) 0.45653(14)
H4 H 0.1455 -0.0301 0.4261
H5 H -0.0275 0.0323 0.3902
N1 N 0.1585(2) 0.2505(2) 0.51527(13)
H1A H -0.233(3) -0.260(3) 0.4191(19)
H2A H -0.073(3) -0.315(3) 0.4573(18)
H3A H -0.233(3) -0.288(3) 0.5385(19)
C1A C -0.0564(2) -0.0430(2) 0.54347(14)
H4A H -0.1455 0.0301 0.5739
H5A H 0.0275 -0.0323 0.6098
N1A N -0.1585(2) -0.2505(2) 0.48473(13)
H6 H 0.018(3) 0.159(3) 0.8869(17)
H7 H -0.045(3) 0.198(3) 1.006(2)
H8 H -0.156(3) 0.196(3) 0.8958(17)
C2 C 0.0540(2) 0.4403(2) 0.95878(16)
H9 H 0.0616 0.4727 0.8853
H10 H 0.1812 0.4712 0.9948
N2 N -0.0403(2) 0.2292(2) 0.93358(14)
H6A H -0.018(3) 0.841(3) 1.1131(17)
H7A H 0.045(3) 0.802(3) 0.994(2)
H8A H 0.156(3) 0.804(3) 1.1042(17)
C2A C -0.0540(2) 0.5597(2) 1.04122(16)
H9A H -0.0616 0.5273 1.1147
H10A H -0.1812 0.5288 1.0052
N2A N 0.0403(2) 0.7708(2) 1.06642(14)
C3 C 0.4442(2) 0.2218(2) 0.87448(13)
C4 C 0.5262(2) 0.2653(2) 1.17367(13)
N3 N 0.60491(18) 0.2199(2) 0.82457(11)
N4 N 0.56632(19) 0.2183(2) 0.71458(12)
N5 N 0.38957(19) 0.2191(2) 0.70006(12)
N6 N 0.30900(18) 0.2205(2) 0.80008(12)
N7 N 0.41054(17) 0.23452(19) 0.99258(11)
N8 N 0.55270(17) 0.24255(18) 1.05391(11)
N9 N 0.37032(18) 0.2716(2) 1.22838(12)
N10 N 0.4237(2) 0.2991(2) 1.34102(12)
N11 N 0.6037(2) 0.3088(2) 1.35340(12)
N12 N 0.67224(19) 0.2880(2) 1.24823(12)
O1 O -0.01363(17) 0.16393(19) 0.15103(12)
H11 H 0.097(2) 0.216(3) 0.183(2)
H12 H -0.080(3) 0.211(3) 0.2003(18)
O2 O 0.83533(18) 0.3806(2) 0.56570(12)
H13 H 0.763(3) 0.342(3) 0.6151(18)
H14 H 0.768(3) 0.345(3) 0.5000(16)
loop_
_geom_bond_atom_site_label_1
_geom_bond_atom_site_label_2
_geom_bond_site_symmetry_1
_geom_bond_site_symmetry_2
H1 N1 1_555 1_555
H2 N1 1_555 1_555
H3 N1 1_555 1_555
C1 H4 1_555 1_555
H5 C1 1_555 1_555
N1 C1 1_555 1_555
H6 N2 1_555 1_555
H7 N2 1_555 1_555
H8 N2 1_555 1_555
C2 H9 1_555 1_555
H10 C2 1_555 1_555
N2 C2 1_555 1_555
C3 N3 1_555 1_555
C4 N8 1_555 1_555
N3 N4 1_555 1_555
N4 N5 1_555 1_555
N5 N6 1_555 1_555
N6 C3 1_555 1_555
N7 C3 1_555 1_555
N8 N7 1_555 1_555
N9 C4 1_555 1_555
N10 N9 1_555 1_555
N11 N10 1_555 1_555
N12 C4 1_555 1_555
O1 H11 1_555 1_555
H12 O1 1_555 1_555
O2 H13 1_555 1_555
H14 O2 1_555 1_555
H1A N1A 1_555 1_555
H2A N1A 1_555 1_555
H3A N1A 1_555 1_555
C1A C1 1_555 1_555
H4A C1A 1_555 1_555
H5A C1A 1_555 1_555
N1A C1A 1_555 1_555
H6A N2A 1_555 1_555
H7A N2A 1_555 1_555
H8A N2A 1_555 1_555
C2A C2 1_555 1_555
H9A C2A 1_555 1_555
H10A C2A 1_555 1_555
N2A C2A 1_555 1_555
N11 N12 1_555 1_555

#END
