
#######################################################################
#
#                 Cambridge Crystallographic Data Centre
#                                CCDC 
#
#######################################################################
#
# If this CIF has been generated from an entry in the Cambridge 
# Structural Database, then it will include bibliographic, chemical, 
# crystal, experimental, refinement or atomic coordinate data resulting 
# from the CCDC's data processing and validation procedures.
#
#######################################################################

data_MAFQES
_chemical_compound_source        'Dysidea sp. marine sponge'
_chemical_formula_moiety         'C21 H28 O2'
_chemical_name_systematic        
11a-hydroxy-3a,6,6a-trimethyl-3-methylene-2,3,3a,5,6,6a,7,11a,11b,11c-decahydro-1H-benzo[de]anthracen-9(4H)-one
_symmetry_cell_setting           monoclinic
_symmetry_space_group_name_H-M   'P 21'
_symmetry_Int_Tables_number      4
_space_group_name_Hall           'P 2yb'
loop_
_symmetry_equiv_pos_site_id
_symmetry_equiv_pos_as_xyz
1 x,y,z
2 -x,1/2+y,-z
_cell_length_a                   10.4012(3)
_cell_length_b                   6.5192(2)
_cell_length_c                   12.5869(3)
_cell_angle_alpha                90
_cell_angle_beta                 94.667(2)
_cell_angle_gamma                90
_cell_volume                     850.656
_exptl_crystal_colour            colorless
_exptl_crystal_description       block
_cell_formula_units_Z            2
loop_
_atom_site_label
_atom_site_type_symbol
_atom_site_fract_x
_atom_site_fract_y
_atom_site_fract_z
O1 O 0.39449(17) 0.8761(3) 0.73138(14)
H1 H 0.4500 0.9512 0.7060
O2 O 0.4097(2) 0.6071(4) 0.34492(15)
C1 C 0.3492(2) 0.5146(4) 0.75109(19)
H2 H 0.3398 0.3823 0.7110
C2 C 0.4625(2) 0.4934(5) 0.8379(2)
H3 H 0.5376 0.4338 0.8054
H4 H 0.4875 0.6316 0.8649
C3 C 0.4303(3) 0.3589(5) 0.9319(2)
H5 H 0.4221 0.2143 0.9084
H6 H 0.5014 0.3671 0.9891
C4 C 0.3066(3) 0.4267(4) 0.9750(2)
C5 C 0.1900(3) 0.4181(4) 0.8924(2)
C6 C 0.0686(3) 0.4993(5) 0.9395(2)
H7 H 0.0448 0.4046 0.9961
H8 H 0.0881 0.6346 0.9727
C7 C -0.0463(3) 0.5218(5) 0.8563(2)
H9 H -0.0709 0.3849 0.8272
H10 H -0.1208 0.5780 0.8909
C8 C -0.0152(2) 0.6629(5) 0.7651(2)
H11 H 0.0075 0.7994 0.7976
C9 C 0.1050(2) 0.5892(4) 0.71061(19)
C10 C 0.2201(2) 0.5624(4) 0.79832(19)
H12 H 0.2325 0.7012 0.8314
C11 C 0.3025(3) 0.4858(6) 1.0755(2)
H13 H 0.3789 0.4859 1.1222
H14 H 0.2230 0.5280 1.1007
C12 C 0.1712(3) 0.1890(5) 0.8618(2)
H15 H 0.2356 0.1490 0.8130
H16 H 0.0845 0.1690 0.8267
H17 H 0.1816 0.1044 0.9263
C13 C -0.1360(3) 0.6962(6) 0.6882(2)
H18 H -0.1690 0.5632 0.6619
H19 H -0.1138 0.7806 0.6280
H20 H -0.2024 0.7660 0.7259
C14 C 0.0740(3) 0.3945(5) 0.6425(2)
H21 H 0.0228 0.2993 0.6822
H22 H 0.1546 0.3278 0.6265
H23 H 0.0249 0.4332 0.5757
C15 C 0.1446(2) 0.7608(5) 0.63477(19)
H24 H 0.0758 0.7790 0.5764
H25 H 0.1542 0.8917 0.6745
C16 C 0.2688(2) 0.7102(4) 0.5885(2)
C17 C 0.3819(2) 0.6881(4) 0.67151(19)
C18 C 0.5060(2) 0.6446(4) 0.6230(2)
H26 H 0.5825 0.6340 0.6694
C19 C 0.5159(3) 0.6198(5) 0.5187(2)
H27 H 0.5980 0.5931 0.4938
C20 C 0.4017(3) 0.6329(5) 0.4415(2)
C21 C 0.2788(3) 0.6806(5) 0.4845(2)
H28 H 0.2034 0.6908 0.4369
loop_
_geom_bond_atom_site_label_1
_geom_bond_atom_site_label_2
_geom_bond_site_symmetry_1
_geom_bond_site_symmetry_2
O1 H1 1_555 1_555
O2 C20 1_555 1_555
C1 H2 1_555 1_555
C2 C1 1_555 1_555
H3 C2 1_555 1_555
H4 C2 1_555 1_555
C3 C2 1_555 1_555
H5 C3 1_555 1_555
H6 C3 1_555 1_555
C4 C3 1_555 1_555
C5 C4 1_555 1_555
C6 C5 1_555 1_555
H7 C6 1_555 1_555
H8 C6 1_555 1_555
C7 C6 1_555 1_555
H9 C7 1_555 1_555
H10 C7 1_555 1_555
C8 C7 1_555 1_555
H11 C8 1_555 1_555
C9 C8 1_555 1_555
C10 C1 1_555 1_555
H12 C10 1_555 1_555
C11 C4 1_555 1_555
H13 C11 1_555 1_555
H14 C11 1_555 1_555
C12 C5 1_555 1_555
H15 C12 1_555 1_555
H16 C12 1_555 1_555
H17 C12 1_555 1_555
C13 C8 1_555 1_555
H18 C13 1_555 1_555
H19 C13 1_555 1_555
H20 C13 1_555 1_555
C14 C9 1_555 1_555
H21 C14 1_555 1_555
H22 C14 1_555 1_555
H23 C14 1_555 1_555
C15 C9 1_555 1_555
H24 C15 1_555 1_555
H25 C15 1_555 1_555
C16 C15 1_555 1_555
C17 O1 1_555 1_555
C18 C17 1_555 1_555
H26 C18 1_555 1_555
C19 C18 1_555 1_555
H27 C19 1_555 1_555
C20 C19 1_555 1_555
C21 C16 1_555 1_555
H28 C21 1_555 1_555
C1 C17 1_555 1_555
C5 C10 1_555 1_555
C9 C10 1_555 1_555
C16 C17 1_555 1_555
C20 C21 1_555 1_555

#END
