
#######################################################################
#
#                 Cambridge Crystallographic Data Centre
#                                CCDC 
#
#######################################################################
#
# If this CIF has been generated from an entry in the Cambridge 
# Structural Database, then it will include bibliographic, chemical, 
# crystal, experimental, refinement or atomic coordinate data resulting 
# from the CCDC's data processing and validation procedures.
#
#######################################################################

data_MAGKOX01
_chemical_formula_moiety         'C16 H30 N6 O4'
_chemical_name_systematic        
't-butyl 2-(2-(1-(1-methoxy-4-methyl-1-oxopentan-2-yl)-1H-tetrazol-5-yl)propan-2-yl)hydrazinecarboxylate'
_symmetry_cell_setting           monoclinic
_symmetry_space_group_name_H-M   'P 21/c'
_symmetry_Int_Tables_number      14
_space_group_name_Hall           '-P 2ybc'
loop_
_symmetry_equiv_pos_site_id
_symmetry_equiv_pos_as_xyz
1 x,y,z
2 -x,1/2+y,1/2-z
3 -x,-y,-z
4 x,1/2-y,1/2+z
_cell_length_a                   22.7944(8)
_cell_length_b                   7.5374(2)
_cell_length_c                   12.1001(4)
_cell_angle_alpha                90
_cell_angle_beta                 102.072(4)
_cell_angle_gamma                90
_cell_volume                     2032.95
_exptl_crystal_colour            white
_exptl_crystal_description       plate
_cell_formula_units_Z            4
loop_
_atom_site_label
_atom_site_type_symbol
_atom_site_fract_x
_atom_site_fract_y
_atom_site_fract_z
O1 O 0.62373(4) 0.78428(12) 0.13063(8)
O2 O 0.84315(4) 0.98567(13) 0.28039(8)
O3 O 0.81308(4) 0.83909(12) 0.11589(8)
O4 O 0.61014(4) 1.07864(13) 0.16533(8)
N1 N 0.81900(5) 1.14809(14) -0.00273(9)
N2 N 0.69091(5) 0.97792(15) 0.10006(10)
N3 N 0.72133(5) 1.14203(15) 0.11585(9)
N4 N 0.84708(5) 1.09583(15) -0.08560(9)
N5 N 0.75329(5) 1.15971(15) -0.16000(9)
N6 N 0.80759(5) 1.10460(16) -0.17908(10)
C1 C 0.63814(6) 0.95750(18) 0.13544(11)
C2 C 0.76115(6) 1.18549(17) -0.05008(11)
C3 C 0.83205(6) 0.97047(18) 0.16805(11)
C4 C 0.57305(6) 0.72063(18) 0.17911(12)
C5 C 0.71418(6) 1.25117(17) 0.01194(11)
C6 C 1.01104(7) 1.3053(2) 0.10577(15)
H1 H 1.0267 1.4117 0.0793
H2 H 1.0207 1.2056 0.0635
H3 H 1.0285 1.2888 0.1845
C7 C 0.85005(6) 1.14103(17) 0.11646(11)
H4 H 0.8372 1.2423 0.1563
C8 C 0.82927(7) 0.8297(2) 0.34039(14)
H5 H 0.7873 0.803 0.3175
H6 H 0.839 0.852 0.4203
H7 H 0.8524 0.7308 0.3231
C9 C 0.91844(6) 1.14853(18) 0.12980(12)
H8 H 0.9367 1.1311 0.2089
H9 H 0.9308 1.0505 0.0879
C10 C 0.94295(6) 1.32091(19) 0.08986(12)
H10 H 0.9258 1.3358 0.0091
C11 C 0.58563(8) 0.7604(2) 0.30469(13)
H11 H 0.6247 0.7166 0.3393
H12 H 0.556 0.7035 0.3383
H13 H 0.5842 0.8862 0.316
C12 C 0.65193(6) 1.2395(2) -0.06475(12)
H14 H 0.6438 1.1188 -0.0884
H15 H 0.6505 1.3133 -0.1299
H16 H 0.6224 1.2791 -0.0242
C13 C 0.72822(6) 1.44402(17) 0.04834(12)
H17 H 0.6977 1.4882 0.085
H18 H 0.7293 1.5152 -0.017
H19 H 0.7664 1.4494 0.0998
C14 C 0.57414(7) 0.52218(19) 0.15757(15)
H20 H 0.5681 0.5009 0.0778
H21 H 0.5428 0.4657 0.1867
H22 H 0.6123 0.4746 0.1946
C15 C 0.51454(7) 0.8009(2) 0.11626(14)
H23 H 0.5149 0.9265 0.1295
H24 H 0.4817 0.7481 0.1427
H25 H 0.51 0.7789 0.0368
C16 C 0.92643(8) 1.4820(2) 0.15243(15)
H26 H 0.8836 1.4966 0.1357
H27 H 0.9449 1.5859 0.1288
H28 H 0.9403 1.4654 0.2323
H29 H 0.7091(7) 1.202(2) 0.1699(14)
H30 H 0.7147(7) 0.885(2) 0.1026(12)
loop_
_geom_bond_atom_site_label_1
_geom_bond_atom_site_label_2
_geom_bond_site_symmetry_1
_geom_bond_site_symmetry_2
O1 C1 1_555 1_555
O2 C3 1_555 1_555
O3 C3 1_555 1_555
O4 C1 1_555 1_555
N1 N4 1_555 1_555
N2 N3 1_555 1_555
N3 C5 1_555 1_555
N4 N6 1_555 1_555
N5 N6 1_555 1_555
C1 N2 1_555 1_555
C2 N1 1_555 1_555
C3 C7 1_555 1_555
C4 O1 1_555 1_555
C5 C2 1_555 1_555
C6 H1 1_555 1_555
H2 C6 1_555 1_555
H3 C6 1_555 1_555
C7 N1 1_555 1_555
H4 C7 1_555 1_555
C8 O2 1_555 1_555
H5 C8 1_555 1_555
H6 C8 1_555 1_555
H7 C8 1_555 1_555
C9 C7 1_555 1_555
H8 C9 1_555 1_555
H9 C9 1_555 1_555
C10 C6 1_555 1_555
H10 C10 1_555 1_555
C11 C4 1_555 1_555
H11 C11 1_555 1_555
H12 C11 1_555 1_555
H13 C11 1_555 1_555
C12 C5 1_555 1_555
H14 C12 1_555 1_555
H15 C12 1_555 1_555
H16 C12 1_555 1_555
C13 C5 1_555 1_555
H17 C13 1_555 1_555
H18 C13 1_555 1_555
H19 C13 1_555 1_555
C14 C4 1_555 1_555
H20 C14 1_555 1_555
H21 C14 1_555 1_555
H22 C14 1_555 1_555
C15 C4 1_555 1_555
H23 C15 1_555 1_555
H24 C15 1_555 1_555
H25 C15 1_555 1_555
C16 C10 1_555 1_555
H26 C16 1_555 1_555
H27 C16 1_555 1_555
H28 C16 1_555 1_555
H29 N3 1_555 1_555
H30 N2 1_555 1_555
N5 C2 1_555 1_555
C9 C10 1_555 1_555

#END
