
#######################################################################
#
#                 Cambridge Crystallographic Data Centre
#                                CCDC 
#
#######################################################################
#
# If this CIF has been generated from an entry in the Cambridge 
# Structural Database, then it will include bibliographic, chemical, 
# crystal, experimental, refinement or atomic coordinate data resulting 
# from the CCDC's data processing and validation procedures.
#
#######################################################################

data_MAGWAV
_chemical_formula_moiety         'C25 H24 O6'
_chemical_name_systematic        
'Ethyl 2,3-dihydroxy-4-(4-methoxyphenyl)-2-phenylchromane-3-carboxylate'
_symmetry_cell_setting           monoclinic
_symmetry_space_group_name_H-M   'P 21/c'
_symmetry_Int_Tables_number      14
_space_group_name_Hall           '-P 2ybc'
loop_
_symmetry_equiv_pos_site_id
_symmetry_equiv_pos_as_xyz
1 x,y,z
2 -x,1/2+y,1/2-z
3 -x,-y,-z
4 x,1/2-y,1/2+z
_cell_length_a                   14.5184(3)
_cell_length_b                   6.21380(10)
_cell_length_c                   22.7227(5)
_cell_angle_alpha                90
_cell_angle_beta                 96.537(2)
_cell_angle_gamma                90
_cell_volume                     2036.59
_exptl_crystal_colour            colorless
_exptl_crystal_description       prism
_cell_formula_units_Z            4
loop_
_atom_site_label
_atom_site_type_symbol
_atom_site_fract_x
_atom_site_fract_y
_atom_site_fract_z
O1 O 0.10819(5) 0.17986(12) 0.03919(3)
O2 O 0.08132(5) 0.54335(13) 0.03589(3)
O3 O 0.29444(5) 0.24645(12) 0.07702(3)
O4 O 0.36964(5) 0.60594(12) 0.06102(4)
O5 O 0.24111(6) 0.79948(13) 0.06703(4)
O6 O 0.47205(6) 0.57531(13) 0.33078(3)
C1 C 0.14772(7) 0.38468(16) 0.02947(4)
C2 C 0.23157(6) 0.41793(15) 0.07840(4)
C3 C 0.19165(7) 0.43906(16) 0.13858(4)
C4 C 0.12800(7) 0.25008(16) 0.14567(4)
C5 C 0.10413(8) 0.18855(19) 0.20093(5)
C6 C 0.04300(8) 0.0203(2) 0.20695(5)
C7 C 0.00332(8) -0.08829(19) 0.15684(5)
C8 C 0.02480(7) -0.02842(18) 0.10129(5)
C9 C 0.08713(7) 0.13860(16) 0.09624(4)
C10 C 0.17629(7) 0.37837(17) -0.03277(4)
C11 C 0.21571(7) 0.1934(2) -0.05411(5)
C12 C 0.24308(8) 0.1924(2) -0.11082(5)
C13 C 0.23047(9) 0.3733(3) -0.14630(6)
C14 C 0.19049(10) 0.5559(2) -0.12572(6)
C15 C 0.16345(9) 0.5595(2) -0.06876(5)
C16 C 0.28096(7) 0.62803(16) 0.06770(4)
C17 C 0.41914(8) 0.80859(19) 0.05608(6)
C18 C 0.51876(8) 0.7574(2) 0.05094(7)
C19 C 0.26651(7) 0.47381(16) 0.18975(4)
C20 C 0.27430(7) 0.67354(18) 0.21718(5)
C21 C 0.34230(8) 0.71523(18) 0.26437(5)
C22 C 0.40338(7) 0.55351(17) 0.28461(4)
C23 C 0.39725(7) 0.35190(17) 0.25747(5)
C24 C 0.32941(7) 0.31316(17) 0.21062(5)
C25 C 0.47423(9) 0.7727(2) 0.36303(5)
H1 H 0.110(2) 0.668(4) 0.0443(15)
H2 H 0.2634(12) 0.122(3) 0.0749(7)
H3 H 0.1533(9) 0.568(2) 0.1353(6)
H4 H 0.1292(10) 0.267(2) 0.2350(6)
H5 H 0.0295(11) -0.020(3) 0.2472(7)
H6 H -0.0409(11) -0.208(3) 0.1599(7)
H7 H -0.0027(10) -0.099(3) 0.0648(7)
H8 H 0.2228(10) 0.065(3) -0.0303(7)
H9 H 0.2705(11) 0.061(3) -0.1259(7)
H10 H 0.2466(12) 0.373(3) -0.1865(8)
H11 H 0.1806(12) 0.682(3) -0.1511(8)
H12 H 0.1348(11) 0.685(3) -0.0545(7)
H13 H 0.4096(12) 0.899(3) 0.0923(8)
H14 H 0.3894(11) 0.881(3) 0.0210(7)
H15 H 0.5478(13) 0.679(3) 0.0865(8)
H16 H 0.5269(13) 0.681(3) 0.0151(9)
H17 H 0.5542(12) 0.891(3) 0.0499(8)
H18 H 0.2314(10) 0.788(2) 0.2034(6)
H19 H 0.3471(10) 0.857(3) 0.2831(7)
H20 H 0.4417(10) 0.238(2) 0.2712(7)
H21 H 0.3264(10) 0.170(2) 0.1926(6)
H22 H 0.4854(10) 0.898(3) 0.3368(7)
H23 H 0.5270(10) 0.758(2) 0.3936(7)
H24 H 0.4147(12) 0.795(3) 0.3795(7)
H25? H 0.0314(17) 0.512(6) 0.0116(13)
loop_
_geom_bond_atom_site_label_1
_geom_bond_atom_site_label_2
_geom_bond_site_symmetry_1
_geom_bond_site_symmetry_2
O1 C1 1_555 1_555
O2 C1 1_555 1_555
O3 C2 1_555 1_555
O4 C16 1_555 1_555
O5 C16 1_555 1_555
O6 C22 1_555 1_555
C1 C2 1_555 1_555
C2 C3 1_555 1_555
C3 C4 1_555 1_555
C4 C5 1_555 1_555
C5 C6 1_555 1_555
C6 C7 1_555 1_555
C7 C8 1_555 1_555
C8 C9 1_555 1_555
C9 O1 1_555 1_555
C10 C1 1_555 1_555
C11 C10 1_555 1_555
C12 C11 1_555 1_555
C13 C12 1_555 1_555
C14 C13 1_555 1_555
C15 C10 1_555 1_555
C16 C2 1_555 1_555
C17 O4 1_555 1_555
C18 C17 1_555 1_555
C19 C3 1_555 1_555
C20 C19 1_555 1_555
C21 C20 1_555 1_555
C22 C21 1_555 1_555
C23 C22 1_555 1_555
C24 C19 1_555 1_555
C25 O6 1_555 1_555
H1 O2 1_555 1_555
H2 O3 1_555 1_555
H3 C3 1_555 1_555
H4 C5 1_555 1_555
H5 C6 1_555 1_555
H6 C7 1_555 1_555
H7 C8 1_555 1_555
H8 C11 1_555 1_555
H9 C12 1_555 1_555
H10 C13 1_555 1_555
H11 C14 1_555 1_555
H12 C15 1_555 1_555
H13 C17 1_555 1_555
H14 C17 1_555 1_555
H15 C18 1_555 1_555
H16 C18 1_555 1_555
H17 C18 1_555 1_555
H18 C20 1_555 1_555
H19 C21 1_555 1_555
H20 C23 1_555 1_555
H21 C24 1_555 1_555
H22 C25 1_555 1_555
H23 C25 1_555 1_555
H24 C25 1_555 1_555
C4 C9 1_555 1_555
C14 C15 1_555 1_555
C23 C24 1_555 1_555

#END
