
#######################################################################
#
#                 Cambridge Crystallographic Data Centre
#                                CCDC 
#
#######################################################################
#
# If this CIF has been generated from an entry in the Cambridge 
# Structural Database, then it will include bibliographic, chemical, 
# crystal, experimental, refinement or atomic coordinate data resulting 
# from the CCDC's data processing and validation procedures.
#
#######################################################################

data_MAHBED
_chemical_compound_source        'aerial part of Mikania micrantha'
_chemical_formula_moiety         'C15 H18 O5'
_chemical_name_systematic        1,10-Epoxy-4-germacrene-12,8;15,6-diolide
_chemical_properties_biological  'antiviral activity'
_symmetry_cell_setting           monoclinic
_symmetry_space_group_name_H-M   'P 21'
_symmetry_Int_Tables_number      4
_space_group_name_Hall           'P 2yb'
loop_
_symmetry_equiv_pos_site_id
_symmetry_equiv_pos_as_xyz
1 x,y,z
2 -x,1/2+y,-z
_cell_length_a                   9.4641(12)
_cell_length_b                   6.9503(8)
_cell_length_c                   10.5597(12)
_cell_angle_alpha                90
_cell_angle_beta                 102.045(2)
_cell_angle_gamma                90
_cell_volume                     679.307
_exptl_crystal_colour            colorless
_exptl_crystal_description       plate
_chemical_melting_point          '215-217 deg.C'
_cell_formula_units_Z            2
_exptl_crystal_recrystallization_method chloroform/methanol
loop_
_atom_site_label
_atom_site_type_symbol
_atom_site_fract_x
_atom_site_fract_y
_atom_site_fract_z
O1 O -0.07775(17) 0.3177(3) 1.01689(14)
O2 O -0.5812(2) 0.4027(3) 0.7582(2)
O3 O -0.45655(16) 0.3691(3) 0.60184(16)
O4 O 0.08495(18) 0.2898(2) 0.40818(16)
O5 O 0.04032(14) 0.2779(2) 0.60596(14)
C1 C -0.1796(3) 0.1873(3) 0.9401(2)
H1 H -0.1347 0.0745 0.9091
C2 C -0.3174(3) 0.1441(4) 0.9822(2)
H2 H -0.3592 0.2638 1.0043
H3 H -0.2962 0.0652 1.0596
C3 C -0.4260(3) 0.0420(4) 0.8810(3)
H4 H -0.4016 -0.0935 0.8809
H5 H -0.5209 0.0531 0.9016
C4 C -0.4299(2) 0.1244(3) 0.7506(2)
C5 C -0.3585(2) 0.0716(3) 0.6624(2)
H6 H -0.3124 -0.0464 0.6611
C6 C -0.3612(2) 0.2263(3) 0.5648(2)
H7 H -0.4052 0.1760 0.4789
C7 C -0.2134(2) 0.3140(3) 0.56033(18)
H8 H -0.2230 0.4544 0.5598
C8 C -0.0828(2) 0.2584(3) 0.66866(18)
H9 H -0.0922 0.1228 0.6909
C9 C -0.0414(2) 0.3733(4) 0.7931(2)
H10 H 0.0517 0.3272 0.8395
H11 H -0.0288 0.5063 0.7700
C10 C -0.1435(2) 0.3697(3) 0.88467(19)
C11 C -0.1627(2) 0.2539(3) 0.43782(19)
H12 H -0.1837 0.1165 0.4242
C12 C -0.0015(2) 0.2754(3) 0.4773(2)
C13 C -0.2304(3) 0.3576(4) 0.3138(2)
H13 H -0.1915 0.3072 0.2435
H14 H -0.2094 0.4926 0.3233
H15 H -0.3331 0.3387 0.2959
C14 C -0.2375(3) 0.5463(4) 0.8774(3)
H16 H -0.3004 0.5338 0.9375
H17 H -0.2943 0.5595 0.7912
H18 H -0.1776 0.6580 0.8990
C15 C -0.4997(2) 0.3103(4) 0.7099(2)
loop_
_geom_bond_atom_site_label_1
_geom_bond_atom_site_label_2
_geom_bond_site_symmetry_1
_geom_bond_site_symmetry_2
O1 C1 1_555 1_555
O2 C15 1_555 1_555
O3 C6 1_555 1_555
O4 C12 1_555 1_555
O5 C8 1_555 1_555
C1 H1 1_555 1_555
C2 C1 1_555 1_555
H2 C2 1_555 1_555
H3 C2 1_555 1_555
C3 C2 1_555 1_555
H4 C3 1_555 1_555
H5 C3 1_555 1_555
C4 C3 1_555 1_555
C5 C4 1_555 1_555
H6 C5 1_555 1_555
C6 C5 1_555 1_555
H7 C6 1_555 1_555
C7 C6 1_555 1_555
H8 C7 1_555 1_555
C8 C7 1_555 1_555
H9 C8 1_555 1_555
C9 C8 1_555 1_555
H10 C9 1_555 1_555
H11 C9 1_555 1_555
C10 O1 1_555 1_555
C11 C7 1_555 1_555
H12 C11 1_555 1_555
C12 O5 1_555 1_555
C13 C11 1_555 1_555
H13 C13 1_555 1_555
H14 C13 1_555 1_555
H15 C13 1_555 1_555
C14 C10 1_555 1_555
H16 C14 1_555 1_555
H17 C14 1_555 1_555
H18 C14 1_555 1_555
C15 O3 1_555 1_555
C1 C10 1_555 1_555
C4 C15 1_555 1_555
C9 C10 1_555 1_555
C11 C12 1_555 1_555

#END
