
#######################################################################
#
#                 Cambridge Crystallographic Data Centre
#                                CCDC 
#
#######################################################################
#
# If this CIF has been generated from an entry in the Cambridge 
# Structural Database, then it will include bibliographic, chemical, 
# crystal, experimental, refinement or atomic coordinate data resulting 
# from the CCDC's data processing and validation procedures.
#
#######################################################################

data_MAHJOX
_chemical_formula_moiety         'C24 H16 Br1 N1 O2 S1,C7 H8'
_chemical_name_systematic        
'9-(4-((4-Bromophenyl)sulfonyl)phenyl)-9H-carbazole toluene solvate'
_symmetry_cell_setting           orthorhombic
_symmetry_space_group_name_H-M   'P n a 21'
_symmetry_Int_Tables_number      33
_space_group_name_Hall           'P 2c -2n'
loop_
_symmetry_equiv_pos_site_id
_symmetry_equiv_pos_as_xyz
1 x,y,z
2 -x,-y,1/2+z
3 1/2+x,1/2-y,z
4 1/2-x,1/2+y,1/2+z
_cell_length_a                   40.1922(7)
_cell_length_b                   9.5263(2)
_cell_length_c                   13.2078(3)
_cell_angle_alpha                90
_cell_angle_beta                 90
_cell_angle_gamma                90
_cell_volume                     5057.04
_exptl_crystal_colour            'pale yellow'
_exptl_crystal_description       block
_cell_formula_units_Z            8
loop_
_atom_site_label
_atom_site_type_symbol
_atom_site_fract_x
_atom_site_fract_y
_atom_site_fract_z
Br1 Br 0.332960(13) 0.06891(6) 0.66666(6)
C1 C 0.37858(11) 0.1203(5) 0.6653(5)
C2 C 0.38731(13) 0.2520(5) 0.6956(5)
H1 H 0.3708 0.3172 0.7163
C3 C 0.42072(13) 0.2900(5) 0.6958(5)
H2 H 0.4272 0.3820 0.7152
C4 C 0.44454(11) 0.1914(5) 0.6672(5)
C5 C 0.43529(13) 0.0583(5) 0.6379(4)
H3 H 0.4517 -0.0079 0.6179
C6 C 0.40143(14) 0.0208(6) 0.6375(5)
H4 H 0.3946 -0.0710 0.6186
C7 C 0.49787(13) 0.2580(5) 0.7944(5)
C8 C 0.49406(11) 0.1423(5) 0.8571(5)
H5 H 0.4850 0.0572 0.8315
C9 C 0.50355(12) 0.1524(5) 0.9575(4)
H6 H 0.5011 0.0742 1.0016
C10 C 0.51676(13) 0.2777(5) 0.9934(4)
C11 C 0.52002(13) 0.3938(5) 0.9307(4)
H7 H 0.5287 0.4794 0.9567
C12 C 0.51057(13) 0.3842(5) 0.8299(4)
H8 H 0.5128 0.4626 0.7860
C13 C 0.50804(13) 0.2608(5) 1.1803(5)
C14 C 0.47429(13) 0.2280(5) 1.1851(5)
H9 H 0.4613 0.2181 1.1255
C15 C 0.46041(14) 0.2103(6) 1.2810(5)
H10 H 0.4375 0.1873 1.2867
C16 C 0.47952(15) 0.2258(5) 1.3696(6)
H11 H 0.4693 0.2128 1.4338
C17 C 0.51270(15) 0.2596(5) 1.3643(6)
H12 H 0.5255 0.2705 1.4242
C18 C 0.52735(14) 0.2778(5) 1.2684(4)
C19 C 0.56050(13) 0.3171(5) 1.2352(4)
C20 C 0.59019(13) 0.3450(5) 1.2861(5)
H13 H 0.5913 0.3424 1.3580
C21 C 0.61821(14) 0.3766(6) 1.2285(5)
H14 H 0.6387 0.3956 1.2617
C22 C 0.61686(14) 0.3809(6) 1.1240(5)
H15 H 0.6365 0.4017 1.0871
C23 C 0.58781(13) 0.3560(5) 1.0721(5)
H16 H 0.5870 0.3610 1.0003
C24 C 0.55934(12) 0.3230(5) 1.1287(4)
N1 N 0.52752(11) 0.2861(4) 1.0955(3)
O1 O 0.50538(9) 0.1280(4) 0.6206(3)
O2 O 0.48919(9) 0.3795(4) 0.6199(3)
S1 S 0.48681(3) 0.24211(11) 0.66465(12)
Br2 Br 0.082848(14) 0.40173(6) 0.86079(6)
C25 C 0.12899(12) 0.3615(5) 0.8632(5)
C26 C 0.13951(14) 0.2277(6) 0.8394(6)
H17 H 0.1239 0.1571 0.8218
C27 C 0.17314(14) 0.1980(5) 0.8415(5)
H18 H 0.1809 0.1061 0.8266
C28 C 0.19552(12) 0.3040(5) 0.8656(4)
C29 C 0.18465(14) 0.4390(6) 0.8881(4)
H19 H 0.2002 0.5108 0.9033
C30 C 0.15138(14) 0.4673(6) 0.8880(5)
H20 H 0.1436 0.5585 0.9048
C31 C 0.25075(13) 0.2758(5) 0.7382(5)
C32 C 0.24515(11) 0.1617(5) 0.6755(5)
H21 H 0.2351 0.0791 0.7016
C33 C 0.25430(13) 0.1686(5) 0.5745(4)
H22 H 0.2502 0.0918 0.5304
C34 C 0.26964(13) 0.2894(5) 0.5387(4)
C35 C 0.27507(13) 0.4027(5) 0.6005(5)
H23 H 0.2853 0.4849 0.5741
C36 C 0.26568(13) 0.3976(5) 0.7015(4)
H24 H 0.2694 0.4757 0.7448
C37 C 0.31259(13) 0.3170(5) 0.4007(4)
C38 C 0.34136(13) 0.3371(5) 0.4575(5)
H25 H 0.3408 0.3389 0.5294
C39 C 0.37112(14) 0.3544(6) 0.4043(5)
H26 H 0.3913 0.3677 0.4407
C40 C 0.37175(14) 0.3525(6) 0.2988(5)
H27 H 0.3923 0.3654 0.2645
C41 C 0.34289(14) 0.3320(5) 0.2432(5)
H28 H 0.3435 0.3297 0.1713
C42 C 0.31276(13) 0.3146(5) 0.2956(4)
C43 C 0.27883(14) 0.2919(5) 0.2621(4)
C44 C 0.26304(13) 0.2886(5) 0.1681(6)
H29 H 0.2757 0.2959 0.1075
C45 C 0.22881(14) 0.2747(5) 0.1640(6)
H30 H 0.2179 0.2726 0.1002
C46 C 0.21009(14) 0.2636(6) 0.2527(5)
H31 H 0.1866 0.2544 0.2480
C47 C 0.22494(13) 0.2657(5) 0.3469(5)
H32 H 0.2122 0.2578 0.4071
C48 C 0.25923(12) 0.2799(5) 0.3502(5)
N2 N 0.27997(11) 0.2942(5) 0.4348(3)
O3 O 0.25538(9) 0.3780(4) 0.9200(3)
O4 O 0.24249(10) 0.1225(4) 0.8998(3)
S2 S 0.23870(3) 0.26580(11) 0.86660(12)
C49 C 0.1502(2) 0.4940(7) 0.5439(6)
C50 C 0.1428(2) 0.4740(7) 0.4409(6)
H33 H 0.1603 0.4715 0.3925
C51 C 0.1112(3) 0.4587(9) 0.4107(8)
H34 H 0.1068 0.4397 0.3414
C52 C 0.0833(2) 0.4702(8) 0.4811(8)
H35 H 0.0608 0.4616 0.4594
C53 C 0.0912(2) 0.4932(8) 0.5771(8)
H36 H 0.0740 0.5015 0.6260
C54 C 0.12474(16) 0.5058(6) 0.6084(5)
H37 H 0.1293 0.5234 0.6778
C55 C 0.1848(2) 0.5039(8) 0.5753(11)
H38 H 0.1868 0.5727 0.6301
H39 H 0.1985 0.5337 0.5177
H40 H 0.1924 0.4120 0.5991
C56 C 0.4290(3) 0.5766(16) 0.0995(13)
H41 H 0.4254 0.6678 0.1321
H42 H 0.4460 0.5860 0.0470
H43 H 0.4363 0.5083 0.1503
C57 C 0.39709(18) 0.5272(9) 0.0525(8)
C58 C 0.3679(2) 0.6051(8) 0.0573(8)
H44 H 0.3676 0.6930 0.0912
C59 C 0.33900(18) 0.5542(11) 0.0124(9)
H45 H 0.3190 0.6074 0.0157
C60 C 0.3393(2) 0.4255(12) -0.0372(9)
H46 H 0.3196 0.3908 -0.0678
C61 C 0.3685(3) 0.3477(9) -0.0419(9)
H47 H 0.3688 0.2597 -0.0758
C62 C 0.3974(2) 0.3985(9) 0.0029(9)
H48 H 0.4174 0.3453 -0.0003
C63? C 0.32998(17) 0.4921(14) -0.0169(12)
H49? H 0.3192 0.5751 0.0123
H50? H 0.3200 0.4072 0.0117
H51? H 0.3269 0.4925 -0.0905
C64? C 0.36644(15) 0.4947(9) 0.0072(8)
C65? C 0.3801(2) 0.6057(9) 0.0613(9)
H52? H 0.3663 0.6793 0.0852
C66? C 0.4141(2) 0.6088(9) 0.0805(9)
H53? H 0.4235 0.6846 0.1175
C67? C 0.43443(16) 0.5010(10) 0.0455(9)
H54? H 0.4577 0.5032 0.0587
C68? C 0.42071(19) 0.3901(9) -0.0086(9)
H55? H 0.4346 0.3164 -0.0325
C69? C 0.3867(2) 0.3869(9) -0.0278(8)
H56? H 0.3773 0.3111 -0.0648
loop_
_geom_bond_atom_site_label_1
_geom_bond_atom_site_label_2
_geom_bond_site_symmetry_1
_geom_bond_site_symmetry_2
Br1 C1 1_555 1_555
C1 C2 1_555 1_555
C2 H1 1_555 1_555
C3 C2 1_555 1_555
H2 C3 1_555 1_555
C4 C3 1_555 1_555
C5 C4 1_555 1_555
H3 C5 1_555 1_555
C6 C1 1_555 1_555
H4 C6 1_555 1_555
C7 C8 1_555 1_555
C8 H5 1_555 1_555
C9 C8 1_555 1_555
H6 C9 1_555 1_555
C10 C9 1_555 1_555
C11 C10 1_555 1_555
H7 C11 1_555 1_555
C12 C7 1_555 1_555
H8 C12 1_555 1_555
C13 C14 1_555 1_555
C14 H9 1_555 1_555
C15 C14 1_555 1_555
H10 C15 1_555 1_555
C16 C15 1_555 1_555
H11 C16 1_555 1_555
C17 C16 1_555 1_555
H12 C17 1_555 1_555
C18 C13 1_555 1_555
C19 C18 1_555 1_555
C20 C19 1_555 1_555
H13 C20 1_555 1_555
C21 C20 1_555 1_555
H14 C21 1_555 1_555
C22 C21 1_555 1_555
H15 C22 1_555 1_555
C23 C22 1_555 1_555
H16 C23 1_555 1_555
C24 C19 1_555 1_555
N1 C10 1_555 1_555
O1 S1 1_555 1_555
O2 S1 1_555 1_555
S1 C4 1_555 1_555
Br2 C25 1_555 1_555
C25 C26 1_555 1_555
C26 H17 1_555 1_555
C27 C26 1_555 1_555
H18 C27 1_555 1_555
C28 C27 1_555 1_555
C29 C28 1_555 1_555
H19 C29 1_555 1_555
C30 C25 1_555 1_555
H20 C30 1_555 1_555
C31 C32 1_555 1_555
C32 H21 1_555 1_555
C33 C32 1_555 1_555
H22 C33 1_555 1_555
C34 C33 1_555 1_555
C35 C34 1_555 1_555
H23 C35 1_555 1_555
C36 C31 1_555 1_555
H24 C36 1_555 1_555
C37 C38 1_555 1_555
C38 H25 1_555 1_555
C39 C38 1_555 1_555
H26 C39 1_555 1_555
C40 C39 1_555 1_555
H27 C40 1_555 1_555
C41 C40 1_555 1_555
H28 C41 1_555 1_555
C42 C37 1_555 1_555
C43 C42 1_555 1_555
C44 C43 1_555 1_555
H29 C44 1_555 1_555
C45 C44 1_555 1_555
H30 C45 1_555 1_555
C46 C45 1_555 1_555
H31 C46 1_555 1_555
C47 C46 1_555 1_555
H32 C47 1_555 1_555
C48 C43 1_555 1_555
N2 C34 1_555 1_555
O3 S2 1_555 1_555
O4 S2 1_555 1_555
S2 C28 1_555 1_555
C49 C50 1_555 1_555
C50 H33 1_555 1_555
C51 C50 1_555 1_555
H34 C51 1_555 1_555
C52 C51 1_555 1_555
H35 C52 1_555 1_555
C53 C52 1_555 1_555
H36 C53 1_555 1_555
C54 C49 1_555 1_555
H37 C54 1_555 1_555
C55 C49 1_555 1_555
H38 C55 1_555 1_555
H39 C55 1_555 1_555
H40 C55 1_555 1_555
C56 H41 1_555 1_555
H42 C56 1_555 1_555
H43 C56 1_555 1_555
C57 C56 1_555 1_555
C58 C57 1_555 1_555
H44 C58 1_555 1_555
C59 C58 1_555 1_555
H45 C59 1_555 1_555
C60 C59 1_555 1_555
H46 C60 1_555 1_555
C61 C60 1_555 1_555
H47 C61 1_555 1_555
C62 C57 1_555 1_555
H48 C62 1_555 1_555
C5 C6 1_555 1_555
C7 S1 1_555 1_555
C11 C12 1_555 1_555
C13 N1 1_555 1_555
C17 C18 1_555 1_555
C23 C24 1_555 1_555
C24 N1 1_555 1_555
C29 C30 1_555 1_555
C31 S2 1_555 1_555
C35 C36 1_555 1_555
C37 N2 1_555 1_555
C41 C42 1_555 1_555
C47 C48 1_555 1_555
C48 N2 1_555 1_555
C53 C54 1_555 1_555
C61 C62 1_555 1_555

#END
