
#######################################################################
#
#                 Cambridge Crystallographic Data Centre
#                                CCDC 
#
#######################################################################
#
# If this CIF has been generated from an entry in the Cambridge 
# Structural Database, then it will include bibliographic, chemical, 
# crystal, experimental, refinement or atomic coordinate data resulting 
# from the CCDC's data processing and validation procedures.
#
#######################################################################

data_MAHXEB
_chemical_formula_moiety         'C21 H15 N3 O6 S1'
_chemical_name_systematic        
2-(2-(2,4-Dinitrophenoxy)-3-ethoxyphenyl)-1,3-benzothiazole
_symmetry_cell_setting           monoclinic
_symmetry_space_group_name_H-M   'P 21/n'
_symmetry_Int_Tables_number      14
_space_group_name_Hall           '-P 2yn'
loop_
_symmetry_equiv_pos_site_id
_symmetry_equiv_pos_as_xyz
1 x,y,z
2 1/2-x,1/2+y,1/2-z
3 -x,-y,-z
4 1/2+x,1/2-y,1/2+z
_cell_length_a                   13.0129(18)
_cell_length_b                   10.5938(15)
_cell_length_c                   14.874(2)
_cell_angle_alpha                90
_cell_angle_beta                 98.394(2)
_cell_angle_gamma                90
_cell_volume                     2028.51
_exptl_crystal_colour            colorless
_exptl_crystal_description       block
_cell_formula_units_Z            4
loop_
_atom_site_label
_atom_site_type_symbol
_atom_site_fract_x
_atom_site_fract_y
_atom_site_fract_z
S1 S 0.25803(5) 0.50622(7) 0.00172(4)
O1 O 0.31700(10) 0.33127(14) 0.13712(9)
O2 O 0.1167(2) 0.2835(3) 0.30548(17)
O3 O 0.12197(13) 0.31890(19) 0.16566(15)
O4 O 0.4568(3) 0.6364(2) 0.49338(16)
O5 O 0.3005(3) 0.5868(3) 0.51258(17)
O6 O 0.43813(13) 0.16562(17) 0.23362(11)
N1 N 0.37194(14) 0.44877(18) -0.12065(12)
N2 N 0.15791(17) 0.3283(2) 0.24506(17)
N3 N 0.3735(3) 0.5873(3) 0.46835(17)
C1 C 0.1597(2) 0.6747(3) -0.13079(19)
H1 H 0.1153 0.7053 -0.0922
C2 C 0.1531(2) 0.7178(3) -0.21823(19)
H2 H 0.1036 0.7783 -0.2392
C3 C 0.2195(2) 0.6725(3) -0.27638(18)
H3 H 0.2139 0.7034 -0.3354
C4 C 0.29249(19) 0.5834(2) -0.24777(16)
H4 H 0.3357 0.5525 -0.2873
C5 C 0.30185(16) 0.5389(2) -0.15861(14)
C6 C 0.23419(17) 0.5841(2) -0.10105(15)
C7 C 0.35795(15) 0.4221(2) -0.03780(13)
C8 C 0.42248(16) 0.3276(2) 0.01698(14)
C9 C 0.50669(19) 0.2733(3) -0.01776(16)
H5 H 0.5204 0.2967 -0.0751
C10 C 0.5688(2) 0.1866(3) 0.03126(17)
H6 H 0.6249 0.1530 0.0071
C11 C 0.5502(2) 0.1476(3) 0.11605(17)
H7 H 0.5934 0.0884 0.1487
C12 C 0.46665(18) 0.1974(2) 0.15198(15)
C13 C 0.40485(16) 0.2876(2) 0.10235(14)
C14 C 0.5155(2) 0.1164(3) 0.30209(18)
H8 H 0.5764 0.1703 0.3095
H9 H 0.5360 0.0325 0.2855
C15 C 0.4695(3) 0.1116(3) 0.38825(18)
H10 H 0.5198 0.0787 0.4361
H11 H 0.4094 0.0578 0.3801
H12 H 0.4495 0.1951 0.4039
C16 C 0.33241(16) 0.3971(2) 0.21649(13)
C17 C 0.25474(17) 0.3970(2) 0.27126(14)
C18 C 0.2671(2) 0.4597(2) 0.35356(16)
H13 H 0.2148 0.4588 0.3900
C19 C 0.3578(2) 0.5230(2) 0.38012(16)
C20 C 0.4354(2) 0.5272(3) 0.32656(17)
H14 H 0.4963 0.5717 0.3457
C21 C 0.42244(18) 0.4653(2) 0.24457(16)
H15 H 0.4742 0.4691 0.2077
loop_
_geom_bond_atom_site_label_1
_geom_bond_atom_site_label_2
_geom_bond_site_symmetry_1
_geom_bond_site_symmetry_2
S1 C6 1_555 1_555
O1 C13 1_555 1_555
O2 N2 1_555 1_555
O3 N2 1_555 1_555
O4 N3 1_555 1_555
O5 N3 1_555 1_555
O6 C12 1_555 1_555
N1 C5 1_555 1_555
N2 C17 1_555 1_555
N3 C19 1_555 1_555
C1 H1 1_555 1_555
C2 C1 1_555 1_555
H2 C2 1_555 1_555
C3 C2 1_555 1_555
H3 C3 1_555 1_555
C4 C3 1_555 1_555
H4 C4 1_555 1_555
C5 C4 1_555 1_555
C6 C1 1_555 1_555
C7 S1 1_555 1_555
C8 C7 1_555 1_555
C9 C8 1_555 1_555
H5 C9 1_555 1_555
C10 C9 1_555 1_555
H6 C10 1_555 1_555
C11 C10 1_555 1_555
H7 C11 1_555 1_555
C12 C11 1_555 1_555
C13 C8 1_555 1_555
C14 O6 1_555 1_555
H8 C14 1_555 1_555
H9 C14 1_555 1_555
C15 C14 1_555 1_555
H10 C15 1_555 1_555
H11 C15 1_555 1_555
H12 C15 1_555 1_555
C16 O1 1_555 1_555
C17 C16 1_555 1_555
C18 C17 1_555 1_555
H13 C18 1_555 1_555
C19 C18 1_555 1_555
C20 C19 1_555 1_555
H14 C20 1_555 1_555
C21 C16 1_555 1_555
H15 C21 1_555 1_555
N1 C7 1_555 1_555
C5 C6 1_555 1_555
C12 C13 1_555 1_555
C20 C21 1_555 1_555

#END
