
#######################################################################
#
#                 Cambridge Crystallographic Data Centre
#                                CCDC 
#
#######################################################################
#
# If this CIF has been generated from an entry in the Cambridge 
# Structural Database, then it will include bibliographic, chemical, 
# crystal, experimental, refinement or atomic coordinate data resulting 
# from the CCDC's data processing and validation procedures.
#
#######################################################################

data_MAHXAU
_chemical_formula_moiety         'C40 H54 N4'
_chemical_name_systematic        5,10,15,20-Tetra-n-pentylporphyrin
_symmetry_cell_setting           orthorhombic
_symmetry_space_group_name_H-M   'P 21 21 21'
_symmetry_Int_Tables_number      19
_space_group_name_Hall           'P 2ac 2ab'
loop_
_symmetry_equiv_pos_site_id
_symmetry_equiv_pos_as_xyz
1 x,y,z
2 1/2-x,-y,1/2+z
3 -x,1/2+y,1/2-z
4 1/2+x,1/2-y,-z
_cell_length_a                   13.416(2)
_cell_length_b                   15.734(3)
_cell_length_c                   16.473(2)
_cell_angle_alpha                90
_cell_angle_beta                 90
_cell_angle_gamma                90
_cell_volume                     3477.24
_exptl_crystal_colour            'dark purple'
_exptl_crystal_description       plate
_cell_formula_units_Z            4
_exptl_crystal_recrystallization_method methanol/THF
loop_
_atom_site_label
_atom_site_type_symbol
_atom_site_fract_x
_atom_site_fract_y
_atom_site_fract_z
N1 N 0.3865(2) 0.43884(19) 0.23273(17)
H1 H 0.3788 0.4861 0.2606
N2 N 0.4394(2) 0.49404(19) 0.39583(17)
N3 N 0.3642(2) 0.66244(18) 0.35797(17)
H3 H 0.3705 0.6149 0.3303
N4 N 0.3046(2) 0.60552(18) 0.19690(17)
C1 C 0.3623(3) 0.4269(2) 0.1529(2)
C2 C 0.3880(3) 0.3409(3) 0.1308(2)
H5 H 0.3796 0.3158 0.0788
C3 C 0.4257(3) 0.3027(3) 0.1965(2)
H6 H 0.4486 0.2456 0.1997
C4 C 0.4252(3) 0.3637(2) 0.2615(2)
C5 C 0.4589(3) 0.3483(2) 0.3404(2)
C6 C 0.4652(3) 0.4096(2) 0.4022(2)
C7 C 0.5051(3) 0.3964(3) 0.4818(2)
H7 H 0.5272 0.3438 0.5037
C8 C 0.5055(3) 0.4722(3) 0.5204(2)
H8 H 0.5289 0.4824 0.5739
C9 C 0.4647(3) 0.5346(3) 0.4665(2)
C10 C 0.4515(3) 0.6203(2) 0.4843(2)
C11 C 0.4019(3) 0.6780(2) 0.4338(2)
C12 C 0.3766(3) 0.7640(2) 0.4564(2)
H9 H 0.3949 0.7922 0.5052
C13 C 0.3219(3) 0.7968(3) 0.3953(2)
H10 H 0.2931 0.8519 0.3940
C14 C 0.3149(3) 0.7341(2) 0.3329(2)
C15 C 0.2670(3) 0.7455(2) 0.2582(2)
C16 C 0.2663(3) 0.6860(2) 0.1944(2)
C17 C 0.2264(3) 0.7001(3) 0.1143(2)
H11 H 0.1950 0.7506 0.0958
C18 C 0.2413(3) 0.6294(3) 0.0706(2)
H12 H 0.2228 0.6210 0.0156
C19 C 0.2907(3) 0.5681(2) 0.1224(2)
C20 C 0.3174(3) 0.4853(2) 0.1003(2)
C21 C 0.4915(3) 0.2579(2) 0.3609(3)
H13 H 0.5431 0.2600 0.4038
H14 H 0.5218 0.2317 0.3121
C22 C 0.4047(3) 0.2020(3) 0.3901(3)
H15 H 0.3745 0.2279 0.4390
H16 H 0.3530 0.1995 0.3473
C23 C 0.4388(4) 0.1140(3) 0.4096(5)
H17 H 0.4997 0.1170 0.4401
H18 H 0.4513 0.0837 0.3594
C24 C 0.3565(7) 0.0627(6) 0.4643(5)
H19 H 0.3368 0.0979 0.5101
H20 H 0.3835 0.0115 0.4860
C26 C 0.2739(11) 0.0514(9) 0.4349(9)
H23 H 0.2322 0.0202 0.4736
H24 H 0.2802 0.0186 0.3846
H25 H 0.2431 0.1065 0.4230
C28 C 0.4854(3) 0.6521(3) 0.5673(2)
H29 H 0.5076 0.7119 0.5623
H30 H 0.5431 0.6179 0.5855
C29 C 0.4025(3) 0.6468(3) 0.6318(2)
H31 H 0.3453 0.6819 0.6142
H32 H 0.3794 0.5872 0.6361
C30 C 0.4373(3) 0.6769(3) 0.7149(2)
H33 H 0.4620 0.7360 0.7100
H34 H 0.4938 0.6410 0.7326
C31 C 0.3562(3) 0.6740(3) 0.7796(2)
H35 H 0.2990 0.7088 0.7614
H36 H 0.3328 0.6147 0.7857
C32 C 0.3921(4) 0.7065(3) 0.8615(2)
H37 H 0.4478 0.6715 0.8804
H38 H 0.3374 0.7034 0.9009
H39 H 0.4141 0.7656 0.8561
C33 C 0.2187(3) 0.8310(2) 0.2422(3)
H40 H 0.1913 0.8534 0.2938
H41 H 0.1623 0.8232 0.2041
C34 C 0.2906(3) 0.8960(2) 0.2068(3)
H42 H 0.3206 0.8723 0.1568
H43 H 0.3451 0.9061 0.2462
C35 C 0.2408(3) 0.9807(2) 0.1867(3)
H44 H 0.1868 0.9707 0.1469
H45 H 0.2101 1.0041 0.2366
C36 C 0.3125(3) 1.0455(3) 0.1523(3)
H46 H 0.3495 1.0194 0.1067
H47 H 0.3615 1.0610 0.1947
C37 C 0.2611(4) 1.1260(3) 0.1224(4)
H48 H 0.2132 1.1113 0.0797
H49 H 0.3110 1.1652 0.1005
H50 H 0.2260 1.1531 0.1676
C38 C 0.3005(3) 0.4575(3) 0.0130(2)
H51 H 0.2469 0.4926 -0.0112
H52 H 0.2781 0.3976 0.0124
C39 C 0.3949(3) 0.4661(3) -0.0386(2)
H53 H 0.4151 0.5265 -0.0401
H54 H 0.4494 0.4336 -0.0125
C40 C 0.3812(3) 0.4342(3) -0.1253(2)
H55 H 0.3270 0.4667 -0.1518
H56 H 0.3612 0.3736 -0.1241
C41 C 0.4768(3) 0.4436(3) -0.1746(2)
H57 H 0.4983 0.5038 -0.1727
H58 H 0.5297 0.4090 -0.1489
C42 C 0.4668(3) 0.4170(3) -0.2624(2)
H59 H 0.4432 0.3581 -0.2650
H60 H 0.5317 0.4214 -0.2892
H61 H 0.4189 0.4543 -0.2898
H2? H 0.4112 0.5180 0.3533
H4? H 0.3334 0.5817 0.2392
C25? C 0.3646(11) 0.0422(9) 0.4056(8)
H21? H 0.3908 -0.0015 0.4404
H22? H 0.3722 0.0192 0.3506
C27? C 0.2680(17) 0.0409(15) 0.3985(14)
H26? H 0.2445 -0.0180 0.4002
H27? H 0.2489 0.0667 0.3466
H28? H 0.2380 0.0731 0.4432
loop_
_geom_bond_atom_site_label_1
_geom_bond_atom_site_label_2
_geom_bond_site_symmetry_1
_geom_bond_site_symmetry_2
N1 H1 1_555 1_555
N2 C6 1_555 1_555
N3 H3 1_555 1_555
N4 C16 1_555 1_555
C1 N1 1_555 1_555
C2 C1 1_555 1_555
H5 C2 1_555 1_555
C3 C2 1_555 1_555
H6 C3 1_555 1_555
C4 N1 1_555 1_555
C5 C4 1_555 1_555
C6 C5 1_555 1_555
C7 C6 1_555 1_555
H7 C7 1_555 1_555
C8 C7 1_555 1_555
H8 C8 1_555 1_555
C9 N2 1_555 1_555
C10 C9 1_555 1_555
C11 N3 1_555 1_555
C12 C11 1_555 1_555
H9 C12 1_555 1_555
C13 C12 1_555 1_555
H10 C13 1_555 1_555
C14 N3 1_555 1_555
C15 C14 1_555 1_555
C16 C15 1_555 1_555
C17 C16 1_555 1_555
H11 C17 1_555 1_555
C18 C17 1_555 1_555
H12 C18 1_555 1_555
C19 N4 1_555 1_555
C20 C1 1_555 1_555
C21 C5 1_555 1_555
H13 C21 1_555 1_555
H14 C21 1_555 1_555
C22 C21 1_555 1_555
H15 C22 1_555 1_555
H16 C22 1_555 1_555
C23 C22 1_555 1_555
H17 C23 1_555 1_555
H18 C23 1_555 1_555
C24 C23 1_555 1_555
H19 C24 1_555 1_555
H20 C24 1_555 1_555
C26 C24 1_555 1_555
H23 C26 1_555 1_555
H24 C26 1_555 1_555
H25 C26 1_555 1_555
C28 C10 1_555 1_555
H29 C28 1_555 1_555
H30 C28 1_555 1_555
C29 C28 1_555 1_555
H31 C29 1_555 1_555
H32 C29 1_555 1_555
C30 C29 1_555 1_555
H33 C30 1_555 1_555
H34 C30 1_555 1_555
C31 C30 1_555 1_555
H35 C31 1_555 1_555
H36 C31 1_555 1_555
C32 C31 1_555 1_555
H37 C32 1_555 1_555
H38 C32 1_555 1_555
H39 C32 1_555 1_555
C33 C15 1_555 1_555
H40 C33 1_555 1_555
H41 C33 1_555 1_555
C34 C33 1_555 1_555
H42 C34 1_555 1_555
H43 C34 1_555 1_555
C35 C34 1_555 1_555
H44 C35 1_555 1_555
H45 C35 1_555 1_555
C36 C35 1_555 1_555
H46 C36 1_555 1_555
H47 C36 1_555 1_555
C37 C36 1_555 1_555
H48 C37 1_555 1_555
H49 C37 1_555 1_555
H50 C37 1_555 1_555
C38 C20 1_555 1_555
H51 C38 1_555 1_555
H52 C38 1_555 1_555
C39 C38 1_555 1_555
H53 C39 1_555 1_555
H54 C39 1_555 1_555
C40 C39 1_555 1_555
H55 C40 1_555 1_555
H56 C40 1_555 1_555
C41 C40 1_555 1_555
H57 C41 1_555 1_555
H58 C41 1_555 1_555
C42 C41 1_555 1_555
H59 C42 1_555 1_555
H60 C42 1_555 1_555
H61 C42 1_555 1_555
C3 C4 1_555 1_555
C8 C9 1_555 1_555
C10 C11 1_555 1_555
C13 C14 1_555 1_555
C18 C19 1_555 1_555
C19 C20 1_555 1_555

#END
