
#######################################################################
#
#                 Cambridge Crystallographic Data Centre
#                                CCDC 
#
#######################################################################
#
# If this CIF has been generated from an entry in the Cambridge 
# Structural Database, then it will include bibliographic, chemical, 
# crystal, experimental, refinement or atomic coordinate data resulting 
# from the CCDC's data processing and validation procedures.
#
#######################################################################

data_MAJCUY
_chemical_formula_moiety         'C19 H20 O4'
_chemical_name_systematic        
2-(3-Furyl)-6a,10b-dimethyl-1,6,6a,8,10a,10b-hexahydro-2H-benzo[f]isochromene-4,7-dione
_symmetry_cell_setting           orthorhombic
_symmetry_space_group_name_H-M   'P 21 21 21'
_symmetry_Int_Tables_number      19
_space_group_name_Hall           'P 2ac 2ab'
loop_
_symmetry_equiv_pos_site_id
_symmetry_equiv_pos_as_xyz
1 x,y,z
2 1/2+x,1/2-y,-z
3 -x,1/2+y,1/2-z
4 1/2-x,-y,1/2+z
_cell_length_a                   6.4950(4)
_cell_length_b                   13.3441(8)
_cell_length_c                   17.5919(11)
_cell_angle_alpha                90
_cell_angle_beta                 90
_cell_angle_gamma                90
_cell_volume                     1524.69
_exptl_crystal_colour            colorless
_exptl_crystal_description       prism
_cell_formula_units_Z            4
loop_
_atom_site_label
_atom_site_type_symbol
_atom_site_fract_x
_atom_site_fract_y
_atom_site_fract_z
O1 O 0.8471(4) 0.88270(18) 0.65981(12)
O2 O 0.9378(4) 0.58933(15) 0.97807(11)
O3 O 1.2255(4) 0.67355(17) 0.96791(16)
O4 O 0.4257(4) 0.37307(17) 1.04138(12)
C1 C 0.5232(5) 0.8060(2) 0.65814(15)
H1 H 0.4321 0.8624 0.6438
H2 H 0.5680 0.7727 0.6106
C2 C 0.7092(4) 0.8474(2) 0.69752(16)
C3 C 0.7083(4) 0.8483(2) 0.78455(15)
C4 C 0.6272(4) 0.74749(19) 0.81843(13)
H3 H 0.5750 0.7634 0.8705
C5 C 0.7999(4) 0.66755(19) 0.82898(14)
C6 C 0.7220(5) 0.5707(2) 0.86726(15)
H4 H 0.5797 0.5568 0.8501
H5 H 0.8098 0.5138 0.8513
C7 C 0.7250(5) 0.5787(2) 0.95278(15)
H6 H 0.6429 0.6383 0.9693
C8 C 0.6444(5) 0.4855(2) 0.99125(14)
C9 C 0.7537(6) 0.3965(2) 1.00861(18)
H7 H 0.8963 0.3849 1.0005
C10 C 0.6191(6) 0.3320(2) 1.03850(18)
H8 H 0.6527 0.2664 1.0555
C11 C 0.5536(5) 0.9315(2) 0.80615(17)
H9 H 0.4170 0.9143 0.7864
H10 H 0.5986 0.9953 0.7841
H11 H 0.5471 0.9376 0.8616
C12 C 0.9261(5) 0.8776(2) 0.81308(16)
H12 H 1.0190 0.8814 0.7686
H13 H 0.9184 0.9455 0.8355
C13 C 1.0203(4) 0.8097(2) 0.86978(15)
H14 H 1.1264 0.8354 0.9014
C14 C 0.9641(4) 0.7141(2) 0.87894(15)
C15 C 1.0535(5) 0.6594(2) 0.94316(16)
C16 C 0.4473(6) 0.4681(2) 1.01203(17)
H15 H 0.3382 0.5151 1.0070
C17 C 0.8917(4) 0.6381(2) 0.75131(15)
H16 H 1.0030 0.5895 0.7589
H17 H 0.9462 0.6979 0.7261
H18 H 0.7841 0.6080 0.7196
C18 C 0.4460(4) 0.7079(2) 0.77459(16)
H19 H 0.3574 0.6617 0.7994
C19 C 0.4020(4) 0.7331(2) 0.70384(16)
H20 H 0.2856 0.7028 0.6807
loop_
_geom_bond_atom_site_label_1
_geom_bond_atom_site_label_2
_geom_bond_site_symmetry_1
_geom_bond_site_symmetry_2
O1 C2 1_555 1_555
O2 C7 1_555 1_555
O3 C15 1_555 1_555
O4 C10 1_555 1_555
C1 H1 1_555 1_555
H2 C1 1_555 1_555
C2 C1 1_555 1_555
C3 C2 1_555 1_555
C4 C3 1_555 1_555
H3 C4 1_555 1_555
C5 C4 1_555 1_555
C6 C5 1_555 1_555
H4 C6 1_555 1_555
H5 C6 1_555 1_555
C7 C6 1_555 1_555
H6 C7 1_555 1_555
C8 C7 1_555 1_555
C9 C8 1_555 1_555
H7 C9 1_555 1_555
C10 C9 1_555 1_555
H8 C10 1_555 1_555
C11 C3 1_555 1_555
H9 C11 1_555 1_555
H10 C11 1_555 1_555
H11 C11 1_555 1_555
C12 C3 1_555 1_555
H12 C12 1_555 1_555
H13 C12 1_555 1_555
C13 C12 1_555 1_555
H14 C13 1_555 1_555
C14 C5 1_555 1_555
C15 O2 1_555 1_555
C16 O4 1_555 1_555
H15 C16 1_555 1_555
C17 C5 1_555 1_555
H16 C17 1_555 1_555
H17 C17 1_555 1_555
H18 C17 1_555 1_555
C18 C4 1_555 1_555
H19 C18 1_555 1_555
C19 C1 1_555 1_555
H20 C19 1_555 1_555
C8 C16 1_555 1_555
C13 C14 1_555 1_555
C14 C15 1_555 1_555
C18 C19 1_555 1_555

#END
