
#######################################################################
#
#                 Cambridge Crystallographic Data Centre
#                                CCDC 
#
#######################################################################
#
# If this CIF has been generated from an entry in the Cambridge 
# Structural Database, then it will include bibliographic, chemical, 
# crystal, experimental, refinement or atomic coordinate data resulting 
# from the CCDC's data processing and validation procedures.
#
#######################################################################

data_MAJDOR
_chemical_formula_moiety         'C10 H9 N1 O1'
_chemical_name_systematic        (4-Ethynylphenyl)methoxymethanimine
_symmetry_cell_setting           monoclinic
_symmetry_space_group_name_H-M   'P 21/c'
_symmetry_Int_Tables_number      14
_space_group_name_Hall           '-P 2ybc'
loop_
_symmetry_equiv_pos_site_id
_symmetry_equiv_pos_as_xyz
1 x,y,z
2 x,1/2-y,1/2+z
3 -x,-y,-z
4 -x,1/2+y,1/2-z
_cell_length_a                   3.9367(5)
_cell_length_b                   20.461(3)
_cell_length_c                   10.0799(13)
_cell_angle_alpha                90
_cell_angle_beta                 94.512(2)
_cell_angle_gamma                90
_cell_volume                     809.408
_exptl_crystal_colour            colorless
_exptl_crystal_description       'thick plate'
_chemical_melting_point          '373 K'
_cell_formula_units_Z            4
_exptl_crystal_recrystallization_method dichloromethane-hexane
loop_
_atom_site_label
_atom_site_type_symbol
_atom_site_fract_x
_atom_site_fract_y
_atom_site_fract_z
O1 O 0.3539(3) 0.05965(5) 0.26922(11)
N1 N 0.5700(3) 0.16183(7) 0.24378(13)
C1 C -0.0840(4) 0.15429(7) 0.83284(16)
C2 C 0.0494(4) 0.14635(7) 0.69972(15)
C3 C 0.2523(4) 0.19229(7) 0.50019(15)
H1 H 0.3058 0.2288 0.4509
C4 C 0.2174(4) 0.07615(8) 0.52456(15)
H2 H 0.2459 0.0343 0.4913
C5 C 0.0960(4) 0.08403(8) 0.64858(15)
H3 H 0.0452 0.0475 0.6982
C6 C 0.1286(4) 0.20049(8) 0.62364(15)
H4 H 0.0979 0.2424 0.6563
C7 C -0.1802(4) 0.16001(8) 0.93319(18)
H5 H -0.2606 0.1648 1.0170
C8 C 0.2975(4) 0.13000(7) 0.44883(15)
C9 C 0.4614(4) 0.04424(8) 0.13995(16)
H6 H 0.4021 -0.0002 0.1180
H7 H 0.7038 0.0496 0.1405
H8 H 0.3502 0.0730 0.0750
C10 C 0.4213(4) 0.12106(8) 0.31437(15)
H9 H 0.605(5) 0.2019(11) 0.292(2)
loop_
_geom_bond_atom_site_label_1
_geom_bond_atom_site_label_2
_geom_bond_site_symmetry_1
_geom_bond_site_symmetry_2
O1 C9 1_555 1_555
N1 C10 1_555 1_555
C1 C2 1_555 1_555
C2 C5 1_555 1_555
C3 H1 1_555 1_555
C4 H2 1_555 1_555
C5 C4 1_555 1_555
H3 C5 1_555 1_555
C6 C2 1_555 1_555
H4 C6 1_555 1_555
C7 C1 1_555 1_555
H5 C7 1_555 1_555
C8 C3 1_555 1_555
C9 H6 1_555 1_555
H7 C9 1_555 1_555
H8 C9 1_555 1_555
C10 O1 1_555 1_555
H9 N1 1_555 1_555
C3 C6 1_555 1_555
C4 C8 1_555 1_555
C8 C10 1_555 1_555

#END
