
#######################################################################
#
#                 Cambridge Crystallographic Data Centre
#                                CCDC 
#
#######################################################################
#
# If this CIF has been generated from an entry in the Cambridge 
# Structural Database, then it will include bibliographic, chemical, 
# crystal, experimental, refinement or atomic coordinate data resulting 
# from the CCDC's data processing and validation procedures.
#
#######################################################################

data_MAJDAF
_chemical_formula_moiety         'C19 H20 O5'
_chemical_name_systematic        
2-(3-Furyl)-6a,10b-dimethyl-4a,5,6,6a,10a,10b-hexahydro-2H-benzo[f]isochromene-4,7,8(1H)-trione
_symmetry_cell_setting           orthorhombic
_symmetry_space_group_name_H-M   'P 21 21 21'
_symmetry_Int_Tables_number      19
_space_group_name_Hall           'P 2ac 2ab'
loop_
_symmetry_equiv_pos_site_id
_symmetry_equiv_pos_as_xyz
1 x,y,z
2 1/2+x,1/2-y,-z
3 -x,1/2+y,1/2-z
4 1/2-x,-y,1/2+z
_cell_length_a                   7.109(2)
_cell_length_b                   11.671(4)
_cell_length_c                   19.641(6)
_cell_angle_alpha                90
_cell_angle_beta                 90
_cell_angle_gamma                90
_cell_volume                     1629.6
_exptl_crystal_colour            yellow
_exptl_crystal_description       block
_cell_formula_units_Z            4
loop_
_atom_site_label
_atom_site_type_symbol
_atom_site_fract_x
_atom_site_fract_y
_atom_site_fract_z
O1 O 0.4232(3) 1.00175(14) 0.83058(10)
O2 O 0.1493(3) 0.28434(15) 0.55806(12)
O3 O 0.2396(2) 1.09347(13) 0.72059(10)
O4 O 0.1410(2) 0.65533(12) 0.52652(9)
O5 O 0.0983(2) 0.81512(14) 0.47192(9)
C1 C 0.4073(3) 0.94649(18) 0.77851(13)
C2 C 0.3205(3) 1.00335(17) 0.71411(12)
C3 C 0.3593(3) 0.94493(16) 0.64726(11)
C4 C 0.3356(3) 0.81344(16) 0.65450(11)
H1 H 0.3935 0.7779 0.6132
C5 C 0.1234(3) 0.77452(17) 0.65621(12)
C6 C 0.1059(3) 0.64413(17) 0.65264(12)
H2 H 0.1681 0.6103 0.6930
H3 H -0.0289 0.6231 0.6545
C7 C 0.1923(3) 0.59273(17) 0.58886(11)
H4 H 0.3323 0.5944 0.5937
C8 C 0.1325(3) 0.47186(19) 0.57768(11)
C9 C 0.2504(4) 0.3833(2) 0.56551(15)
H5 H 0.3834 0.3889 0.5626
C10 C 0.4717(3) 0.8278(2) 0.77195(13)
H6 H 0.5363 0.7926 0.8088
C11 C 0.4409(3) 0.76839(18) 0.71495(13)
H7 H 0.4888 0.6925 0.7126
C12 C 0.0258(3) 0.82207(17) 0.59214(12)
H8 H -0.1109 0.8034 0.5965
C13 C 0.0404(3) 0.95240(18) 0.58720(13)
H9 H -0.0217 0.9787 0.5449
H10 H -0.0261 0.9876 0.6262
C14 C 0.2439(3) 0.99148(17) 0.58713(11)
H11 H 0.2471 1.0763 0.5883
H12 H 0.3038 0.9666 0.5441
C15 C 0.5691(3) 0.97346(19) 0.63247(12)
H13 H 0.5830 1.0562 0.6257
H14 H 0.6097 0.9330 0.5913
H15 H 0.6467 0.9492 0.6711
C16 C 0.0937(3) 0.76673(18) 0.52639(13)
C17 C -0.0349(5) 0.3140(2) 0.56596(15)
H16 H -0.1369 0.2616 0.5635
C18 C -0.0538(4) 0.4266(2) 0.57766(14)
H17 H -0.1676 0.4677 0.5845
C19 C 0.0206(3) 0.81313(18) 0.72054(12)
H18 H -0.1113 0.7891 0.7181
H19 H 0.0270 0.8968 0.7242
H20 H 0.0802 0.7783 0.7605
loop_
_geom_bond_atom_site_label_1
_geom_bond_atom_site_label_2
_geom_bond_site_symmetry_1
_geom_bond_site_symmetry_2
O1 C1 1_555 1_555
O2 C9 1_555 1_555
O3 C2 1_555 1_555
O4 C7 1_555 1_555
O5 C16 1_555 1_555
C1 C2 1_555 1_555
C2 C3 1_555 1_555
C3 C4 1_555 1_555
C4 H1 1_555 1_555
C5 C4 1_555 1_555
C6 C5 1_555 1_555
H2 C6 1_555 1_555
H3 C6 1_555 1_555
C7 C6 1_555 1_555
H4 C7 1_555 1_555
C8 C7 1_555 1_555
C9 C8 1_555 1_555
H5 C9 1_555 1_555
C10 C1 1_555 1_555
H6 C10 1_555 1_555
C11 C4 1_555 1_555
H7 C11 1_555 1_555
C12 C5 1_555 1_555
H8 C12 1_555 1_555
C13 C12 1_555 1_555
H9 C13 1_555 1_555
H10 C13 1_555 1_555
C14 C3 1_555 1_555
H11 C14 1_555 1_555
H12 C14 1_555 1_555
C15 C3 1_555 1_555
H13 C15 1_555 1_555
H14 C15 1_555 1_555
H15 C15 1_555 1_555
C16 O4 1_555 1_555
C17 O2 1_555 1_555
H16 C17 1_555 1_555
C18 C8 1_555 1_555
H17 C18 1_555 1_555
C19 C5 1_555 1_555
H18 C19 1_555 1_555
H19 C19 1_555 1_555
H20 C19 1_555 1_555
C10 C11 1_555 1_555
C12 C16 1_555 1_555
C13 C14 1_555 1_555
C17 C18 1_555 1_555

#END
