
#######################################################################
#
#                 Cambridge Crystallographic Data Centre
#                                CCDC 
#
#######################################################################
#
# If this CIF has been generated from an entry in the Cambridge 
# Structural Database, then it will include bibliographic, chemical, 
# crystal, experimental, refinement or atomic coordinate data resulting 
# from the CCDC's data processing and validation procedures.
#
#######################################################################

data_MAJPUK
_chemical_formula_moiety         'C20 H20 N6 O1'
_chemical_name_systematic        
N,N-Diallyl-3-(1H-benzotriazol-1-yl)-5-methoxy-2H-indazol-2-amine
_symmetry_cell_setting           triclinic
_symmetry_space_group_name_H-M   'P -1'
_symmetry_Int_Tables_number      2
_space_group_name_Hall           '-P 1'
loop_
_symmetry_equiv_pos_site_id
_symmetry_equiv_pos_as_xyz
1 x,y,z
2 -x,-y,-z
_cell_length_a                   8.009(3)
_cell_length_b                   8.019(2)
_cell_length_c                   14.760(8)
_cell_angle_alpha                81.91(5)
_cell_angle_beta                 82.16(4)
_cell_angle_gamma                86.01(3)
_cell_volume                     928.515
_exptl_crystal_colour            colorless
_exptl_crystal_description       prism
_cell_formula_units_Z            2
loop_
_atom_site_label
_atom_site_type_symbol
_atom_site_fract_x
_atom_site_fract_y
_atom_site_fract_z
C1 C -0.1431(2) 0.1572(2) 0.39861(11)
C2 C -0.04656(19) 0.1123(2) 0.31995(11)
C3 C -0.0153(2) -0.0544(2) 0.30415(15)
C4 C -0.0847(3) -0.1734(3) 0.37291(16)
C5 C -0.1808(3) -0.1296(3) 0.45289(16)
C6 C -0.2122(3) 0.0340(3) 0.46740(14)
C7 C 0.1093(2) 0.2964(2) 0.18828(11)
C8 C 0.0925(2) 0.2884(2) 0.09707(11)
C9 C -0.0359(2) 0.2403(2) 0.05048(12)
C10 C -0.0050(2) 0.2536(2) -0.04274(12)
C11 C 0.1498(2) 0.3149(2) -0.09224(13)
C12 C 0.2744(2) 0.3606(2) -0.04877(12)
C13 C 0.2469(2) 0.3472(2) 0.04849(11)
C14 C -0.2710(3) 0.1485(4) -0.05401(18)
C15 C 0.3371(3) 0.5593(2) 0.27549(13)
C16 C 0.3425(3) 0.5874(3) 0.37236(15)
C17 C 0.4715(4) 0.6406(3) 0.4021(2)
C18 C 0.4917(3) 0.2844(3) 0.27554(16)
C19 C 0.4771(3) 0.1005(3) 0.27827(16)
C20 C 0.5545(4) 0.0100(3) 0.2193(2)
N1 N -0.1516(2) 0.33070(19) 0.39382(10)
N2 N -0.06722(19) 0.39368(18) 0.31762(10)
N3 N -0.00131(17) 0.26332(17) 0.26980(9)
N4 N 0.35191(18) 0.38897(18) 0.10532(10)
N5 N 0.26409(17) 0.35461(18) 0.18928(9)
N6 N 0.32714(18) 0.37763(18) 0.27039(10)
O1 O -0.11555(17) 0.21325(18) -0.09817(9)
H1 H 0.046(2) -0.085(2) 0.2484(14)
H2 H -0.068(3) -0.284(3) 0.3623(15)
H3 H -0.220(3) -0.217(3) 0.4999(17)
H4 H -0.282(3) 0.069(3) 0.5226(16)
H5 H -0.136(2) 0.204(2) 0.0829(13)
H6 H 0.161(2) 0.320(2) -0.1576(14)
H7 H 0.380(3) 0.404(2) -0.0829(14)
H8 H -0.338(3) 0.229(3) -0.0175(16)
H9 H -0.257(3) 0.046(3) -0.0070(17)
H10 H -0.332(3) 0.123(3) -0.1021(16)
H11 H 0.232(3) 0.612(3) 0.2546(14)
H12 H 0.440(3) 0.601(3) 0.2347(14)
H13 H 0.577(3) 0.323(2) 0.2220(14)
H14 H 0.241(3) 0.561(3) 0.4149(16)
H15 H 0.578(3) 0.658(3) 0.3577(19)
H16 H 0.471(4) 0.654(4) 0.466(2)
H17 H 0.525(2) 0.310(2) 0.3335(15)
H18 H 0.407(3) 0.053(3) 0.326(2)
H19 H 0.539(3) -0.115(4) 0.2215(17)
H20 H 0.626(4) 0.066(3) 0.163(2)
loop_
_geom_bond_atom_site_label_1
_geom_bond_atom_site_label_2
_geom_bond_site_symmetry_1
_geom_bond_site_symmetry_2
C1 C2 1_555 1_555
C2 C3 1_555 1_555
C3 C4 1_555 1_555
C4 C5 1_555 1_555
C5 C6 1_555 1_555
C6 C1 1_555 1_555
C7 C8 1_555 1_555
C8 C9 1_555 1_555
C9 C10 1_555 1_555
C10 C11 1_555 1_555
C11 C12 1_555 1_555
C12 C13 1_555 1_555
C13 C8 1_555 1_555
C14 O1 1_555 1_555
C15 C16 1_555 1_555
C16 C17 1_555 1_555
C17 H15 1_555 1_555
C18 C19 1_555 1_555
C19 C20 1_555 1_555
C20 H19 1_555 1_555
N1 C1 1_555 1_555
N2 N1 1_555 1_555
N3 C2 1_555 1_555
N4 C13 1_555 1_555
N5 C7 1_555 1_555
N6 C15 1_555 1_555
O1 C10 1_555 1_555
H1 C3 1_555 1_555
H2 C4 1_555 1_555
H3 C5 1_555 1_555
H4 C6 1_555 1_555
H5 C9 1_555 1_555
H6 C11 1_555 1_555
H7 C12 1_555 1_555
H8 C14 1_555 1_555
H9 C14 1_555 1_555
H10 C14 1_555 1_555
H11 C15 1_555 1_555
H12 C15 1_555 1_555
H13 C18 1_555 1_555
H14 C16 1_555 1_555
H16 C17 1_555 1_555
H17 C18 1_555 1_555
H18 C19 1_555 1_555
H20 C20 1_555 1_555
C7 N3 1_555 1_555
C18 N6 1_555 1_555
N2 N3 1_555 1_555
N4 N5 1_555 1_555
N5 N6 1_555 1_555

#END
