
#######################################################################
#
#                 Cambridge Crystallographic Data Centre
#                                CCDC 
#
#######################################################################
#
# If this CIF has been generated from an entry in the Cambridge 
# Structural Database, then it will include bibliographic, chemical, 
# crystal, experimental, refinement or atomic coordinate data resulting 
# from the CCDC's data processing and validation procedures.
#
#######################################################################

data_MAJROH
_chemical_formula_moiety         'C33 H22 B1 N3 O2'
_chemical_name_systematic        
9c-Hydroperoxy-3,6,9-triphenyl-9cH-8b\l^5^,9b,9d-triaza-9\L^5^-boratricyclopenta[cd,gh,kl]phenalene
_symmetry_cell_setting           triclinic
_symmetry_space_group_name_H-M   'P -1'
_symmetry_Int_Tables_number      2
_space_group_name_Hall           '-P 1'
loop_
_symmetry_equiv_pos_site_id
_symmetry_equiv_pos_as_xyz
1 x,y,z
2 -x,-y,-z
_cell_length_a                   7.452(2)
_cell_length_b                   12.8870(19)
_cell_length_c                   13.6805(15)
_cell_angle_alpha                67.55(2)
_cell_angle_beta                 82.21(4)
_cell_angle_gamma                84.73(4)
_cell_volume                     1201.87
_exptl_crystal_colour            orange
_exptl_crystal_description       Prism
_cell_formula_units_Z            2
loop_
_atom_site_label
_atom_site_type_symbol
_atom_site_fract_x
_atom_site_fract_y
_atom_site_fract_z
B1 B 0.1200(2) 0.67068(14) 0.30754(12)
O1 O 0.00415(12) 0.59272(8) 0.39537(7)
O2 O -0.02773(14) 0.63706(9) 0.48075(8)
H1 H -0.0302 0.5835 0.5400
N1 N 0.30621(15) 0.67858(10) 0.33006(9)
N2 N 0.13994(15) 0.62513(10) 0.22211(9)
N3 N 0.04400(15) 0.78800(10) 0.26060(9)
C1 C 0.36384(18) 0.76264(12) 0.35418(10)
C2 C 0.54660(18) 0.72860(12) 0.38039(10)
H2 H 0.6208 0.7665 0.4061
C3 C 0.59460(18) 0.63208(12) 0.36172(10)
H3 H 0.7087 0.5922 0.3712
C4 C 0.44302(18) 0.60159(12) 0.32536(10)
C5 C 0.42306(18) 0.52740(12) 0.27293(11)
C6 C 0.26795(18) 0.54347(12) 0.21701(11)
C7 C 0.20909(19) 0.50226(12) 0.14331(11)
H4 H 0.2666 0.4427 0.1243
C8 C 0.05507(19) 0.56374(12) 0.10490(11)
H5 H -0.0125 0.5532 0.0556
C9 C 0.01426(18) 0.64636(12) 0.15216(10)
C10 C -0.10221(18) 0.74452(12) 0.13433(10)
C11 C -0.06965(18) 0.81984(12) 0.18225(10)
C12 C -0.10055(19) 0.93948(12) 0.15293(11)
H6 H -0.1789 0.9864 0.1029
C13 C 0.00264(19) 0.97394(13) 0.20976(11)
H7 H 0.0080 1.0489 0.2056
C14 C 0.10118(18) 0.87762(12) 0.27653(10)
C15 C 0.25553(18) 0.86441(12) 0.33190(10)
C16 C 0.57303(19) 0.44539(12) 0.26733(11)
C17 C 0.66800(19) 0.38835(12) 0.35573(11)
H8 H 0.6336 0.4014 0.4196
C18 C 0.81170(19) 0.31290(12) 0.35147(11)
H9 H 0.8758 0.2758 0.4118
C19 C 0.8616(2) 0.29172(13) 0.25909(12)
H10 H 0.9594 0.2398 0.2562
C20 C 0.76819(19) 0.34672(13) 0.17119(12)
H11 H 0.8008 0.3315 0.1083
C21 C 0.62699(19) 0.42406(12) 0.17447(11)
H12 H 0.5664 0.4629 0.1130
C22 C -0.24789(18) 0.77258(12) 0.06343(11)
C23 C -0.2267(2) 0.75660(12) -0.03313(11)
H13 H -0.1135 0.7283 -0.0562
C24 C -0.3679(2) 0.78137(13) -0.09541(12)
H14 H -0.3505 0.7708 -0.1611
C25 C -0.5351(2) 0.82158(13) -0.06262(12)
H15 H -0.6324 0.8372 -0.1051
C26 C -0.5593(2) 0.83892(13) 0.03276(12)
H16 H -0.6732 0.8667 0.0555
C27 C -0.41648(19) 0.81540(12) 0.09463(11)
H17 H -0.4331 0.8285 0.1591
C28 C 0.31120(19) 0.96031(12) 0.35319(11)
C29 C 0.1829(2) 1.02344(13) 0.39457(11)
H18 H 0.0592 1.0047 0.4084
C30 C 0.2337(2) 1.11299(13) 0.41574(12)
H19 H 0.1448 1.1550 0.4437
C31 C 0.4133(2) 1.14134(14) 0.39625(12)
H20 H 0.4483 1.2024 0.4112
C32 C 0.5421(2) 1.07976(13) 0.35463(12)
H21 H 0.6657 1.0988 0.3412
C33 C 0.4919(2) 0.99128(13) 0.33271(11)
H22 H 0.5811 0.9507 0.3033
loop_
_geom_bond_atom_site_label_1
_geom_bond_atom_site_label_2
_geom_bond_site_symmetry_1
_geom_bond_site_symmetry_2
B1 O1 1_555 1_555
O1 O2 1_555 1_555
O2 H1 1_555 1_555
N1 B1 1_555 1_555
N2 B1 1_555 1_555
N3 B1 1_555 1_555
C1 N1 1_555 1_555
C2 C1 1_555 1_555
H2 C2 1_555 1_555
C3 C2 1_555 1_555
H3 C3 1_555 1_555
C4 N1 1_555 1_555
C5 C4 1_555 1_555
C6 N2 1_555 1_555
C7 C6 1_555 1_555
H4 C7 1_555 1_555
C8 C7 1_555 1_555
H5 C8 1_555 1_555
C9 N2 1_555 1_555
C10 C9 1_555 1_555
C11 N3 1_555 1_555
C12 C11 1_555 1_555
H6 C12 1_555 1_555
C13 C12 1_555 1_555
H7 C13 1_555 1_555
C14 N3 1_555 1_555
C15 C1 1_555 1_555
C16 C5 1_555 1_555
C17 C16 1_555 1_555
H8 C17 1_555 1_555
C18 C17 1_555 1_555
H9 C18 1_555 1_555
C19 C18 1_555 1_555
H10 C19 1_555 1_555
C20 C19 1_555 1_555
H11 C20 1_555 1_555
C21 C16 1_555 1_555
H12 C21 1_555 1_555
C22 C10 1_555 1_555
C23 C22 1_555 1_555
H13 C23 1_555 1_555
C24 C23 1_555 1_555
H14 C24 1_555 1_555
C25 C24 1_555 1_555
H15 C25 1_555 1_555
C26 C25 1_555 1_555
H16 C26 1_555 1_555
C27 C22 1_555 1_555
H17 C27 1_555 1_555
C28 C15 1_555 1_555
C29 C28 1_555 1_555
H18 C29 1_555 1_555
C30 C29 1_555 1_555
H19 C30 1_555 1_555
C31 C30 1_555 1_555
H20 C31 1_555 1_555
C32 C31 1_555 1_555
H21 C32 1_555 1_555
C33 C28 1_555 1_555
H22 C33 1_555 1_555
C3 C4 1_555 1_555
C5 C6 1_555 1_555
C8 C9 1_555 1_555
C10 C11 1_555 1_555
C13 C14 1_555 1_555
C14 C15 1_555 1_555
C20 C21 1_555 1_555
C26 C27 1_555 1_555
C32 C33 1_555 1_555

#END
