
#######################################################################
#
#                 Cambridge Crystallographic Data Centre
#                                CCDC 
#
#######################################################################
#
# If this CIF has been generated from an entry in the Cambridge 
# Structural Database, then it will include bibliographic, chemical, 
# crystal, experimental, refinement or atomic coordinate data resulting 
# from the CCDC's data processing and validation procedures.
#
#######################################################################

data_MAKBAE
_chemical_formula_moiety         'C55 H51 B1 N1 P1,C4 H8 O1'
_chemical_name_systematic        
'6-methyl-9,9-diphenyl-5,5-bis(2,4,6-trimethylphenyl)-5,6,9,10-tetrahydro-1,4:11,14-diethenonaphtho[1,8-gh][1,2,15]azaboraphosphacycloheptadecine tetrahydrofuran solvate'
_symmetry_cell_setting           triclinic
_symmetry_space_group_name_H-M   'P -1'
_symmetry_Int_Tables_number      2
_space_group_name_Hall           '-P 1'
loop_
_symmetry_equiv_pos_site_id
_symmetry_equiv_pos_as_xyz
1 x,y,z
2 -x,-y,-z
_cell_length_a                   11.133(3)
_cell_length_b                   13.275(4)
_cell_length_c                   17.732(5)
_cell_angle_alpha                109.811(3)
_cell_angle_beta                 99.369(3)
_cell_angle_gamma                103.071(3)
_cell_volume                     2318.22
_exptl_crystal_colour            colorless
_exptl_crystal_description       block
_cell_formula_units_Z            2
loop_
_atom_site_label
_atom_site_type_symbol
_atom_site_fract_x
_atom_site_fract_y
_atom_site_fract_z
P1 P 0.72273(8) 0.18074(6) 0.16197(5)
N1 N 0.8698(2) 0.48829(19) 0.33706(14)
B1 B 0.8351(3) 0.6035(3) 0.3632(2)
C1 C 0.8177(3) 0.2894(2) 0.25063(18)
H1 H 0.8807 0.2766 0.2863
C2 C 0.8047(3) 0.3957(2) 0.27163(18)
H2 H 0.7399 0.4033 0.2337
C3 C 0.9688(3) 0.4764(3) 0.39576(18)
H3 H 1.0203 0.4352 0.3654
H4 H 0.9286 0.4350 0.4261
H5 H 1.0238 0.5509 0.4351
C4 C 0.5965(3) 0.2227(2) 0.11700(18)
C5 C 0.5060(3) 0.2534(2) 0.15922(18)
H6 H 0.5067 0.2457 0.2106
C6 C 0.4156(3) 0.2949(2) 0.12698(17)
H7 H 0.3536 0.3134 0.1557
C7 C 0.4147(3) 0.3096(2) 0.05278(17)
C8 C 0.5045(3) 0.2796(3) 0.01127(19)
H8 H 0.5044 0.2883 -0.0398
C9 C 0.5945(3) 0.2370(3) 0.04273(18)
H9 H 0.6554 0.2175 0.0133
C10 C 0.6623(3) 0.0594(2) 0.18391(18)
C11 C 0.7513(3) 0.0172(3) 0.21879(19)
H10 H 0.8399 0.0497 0.2262
C12 C 0.7120(3) -0.0704(3) 0.2424(2)
H11 H 0.7736 -0.0976 0.2664
C13 C 0.5851(3) -0.1190(3) 0.2316(2)
H12 H 0.5584 -0.1801 0.2477
C14 C 0.4968(3) -0.0791(3) 0.1976(2)
H13 H 0.4086 -0.1118 0.1913
C15 C 0.5341(3) 0.0085(3) 0.1723(2)
H14 H 0.4715 0.0335 0.1469
C16 C 0.8054(3) 0.1371(3) 0.08353(18)
C17 C 0.7576(3) 0.0323(3) 0.0172(2)
H15 H 0.6829 -0.0209 0.0155
C18 C 0.8178(3) 0.0049(3) -0.0459(2)
H16 H 0.7842 -0.0664 -0.0908
C19 C 0.9269(4) 0.0818(3) -0.0432(2)
H17 H 0.9682 0.0633 -0.0865
C20 C 0.9760(3) 0.1848(3) 0.0218(2)
H18 H 1.0514 0.2369 0.0232
C21 C 0.9170(3) 0.2132(3) 0.0850(2)
H19 H 0.9519 0.2846 0.1298
C22 C 0.6981(3) 0.5845(2) 0.29841(18)
C23 C 0.6945(3) 0.5660(2) 0.21564(18)
H20 H 0.7709 0.5641 0.1986
C24 C 0.5850(3) 0.5502(2) 0.15642(18)
H21 H 0.5884 0.5381 0.1009
C25 C 0.4709(3) 0.5523(2) 0.17841(18)
C26 C 0.4731(3) 0.5746(2) 0.26090(18)
H22 H 0.3971 0.5787 0.2779
C27 C 0.5832(3) 0.5913(2) 0.31987(18)
H23 H 0.5805 0.6076 0.3759
C28 C 0.9383(3) 0.7039(2) 0.34847(17)
C29 C 1.0381(3) 0.6902(2) 0.30866(17)
C30 C 1.1134(3) 0.7795(3) 0.29587(18)
H24 H 1.1792 0.7668 0.2692
C31 C 1.0979(3) 0.8847(3) 0.3196(2)
C32 C 0.9993(3) 0.8986(3) 0.35714(19)
H25 H 0.9850 0.9699 0.3743
C33 C 0.9201(3) 0.8118(2) 0.37065(17)
C34 C 1.0728(3) 0.5822(3) 0.2754(2)
H26 H 1.1365 0.5918 0.2442
H27 H 0.9962 0.5208 0.2387
H28 H 1.1082 0.5642 0.3218
C35 C 1.1795(3) 0.9771(3) 0.3024(3)
H29 H 1.2648 0.9684 0.3040
H30 H 1.1864 1.0501 0.3446
H31 H 1.1404 0.9732 0.2474
C36 C 0.8147(3) 0.8411(3) 0.4096(2)
H32 H 0.8387 0.9226 0.4402
H33 H 0.8018 0.8033 0.4478
H34 H 0.7354 0.8164 0.3659
C37 C 0.8248(3) 0.6277(2) 0.46022(18)
C38 C 0.7270(3) 0.5526(3) 0.47555(19)
C39 C 0.7047(3) 0.5769(3) 0.5543(2)
H35 H 0.6367 0.5259 0.5612
C40 C 0.7778(3) 0.6717(3) 0.6216(2)
C41 C 0.8826(3) 0.7388(3) 0.61120(19)
H36 H 0.9386 0.8016 0.6582
C42 C 0.9095(3) 0.7175(3) 0.53332(18)
C43 C 1.0355(3) 0.7900(3) 0.53418(19)
H37 H 1.0930 0.8219 0.5902
H38 H 1.0218 0.8510 0.5179
H39 H 1.0738 0.7444 0.4950
C44 C 0.7492(4) 0.6996(4) 0.7055(2)
H40 H 0.7094 0.6300 0.7115
H41 H 0.6908 0.7454 0.7100
H42 H 0.8289 0.7417 0.7494
C45 C 0.6471(3) 0.4372(3) 0.4113(2)
H43 H 0.5729 0.4089 0.4297
H44 H 0.6988 0.3856 0.4046
H45 H 0.6180 0.4428 0.3580
C46 C 0.3135(3) 0.3443(2) 0.01070(17)
C47 C 0.2414(3) 0.2636(3) -0.06534(18)
H46 H 0.2600 0.1943 -0.0845
C48 C 0.1420(3) 0.2783(3) -0.11605(18)
H47 H 0.0945 0.2203 -0.1683
C49 C 0.1152(3) 0.3769(3) -0.0890(2)
H48 H 0.0475 0.3877 -0.1225
C50 C 0.1851(3) 0.4632(3) -0.01251(18)
C51 C 0.1520(3) 0.5649(3) 0.0123(2)
H49 H 0.0869 0.5739 -0.0245
C52 C 0.2116(3) 0.6488(3) 0.0873(2)
H50 H 0.1863 0.7150 0.1042
C53 C 0.3545(3) 0.5442(2) 0.11852(18)
C54 C 0.3116(3) 0.6371(3) 0.14019(19)
H51 H 0.3514 0.6959 0.1933
C55 C 0.2879(3) 0.4503(2) 0.04060(18)
loop_
_geom_bond_atom_site_label_1
_geom_bond_atom_site_label_2
_geom_bond_site_symmetry_1
_geom_bond_site_symmetry_2
P1 C1 1_555 1_555
N1 B1 1_555 1_555
B1 C22 1_555 1_555
C1 H1 1_555 1_555
C2 N1 1_555 1_555
H2 C2 1_555 1_555
C3 N1 1_555 1_555
H3 C3 1_555 1_555
H4 C3 1_555 1_555
H5 C3 1_555 1_555
C4 P1 1_555 1_555
C5 C4 1_555 1_555
H6 C5 1_555 1_555
C6 C5 1_555 1_555
H7 C6 1_555 1_555
C7 C6 1_555 1_555
C8 C7 1_555 1_555
H8 C8 1_555 1_555
C9 C4 1_555 1_555
H9 C9 1_555 1_555
C10 P1 1_555 1_555
C11 C10 1_555 1_555
H10 C11 1_555 1_555
C12 C11 1_555 1_555
H11 C12 1_555 1_555
C13 C12 1_555 1_555
H12 C13 1_555 1_555
C14 C13 1_555 1_555
H13 C14 1_555 1_555
C15 C10 1_555 1_555
H14 C15 1_555 1_555
C16 P1 1_555 1_555
C17 C16 1_555 1_555
H15 C17 1_555 1_555
C18 C17 1_555 1_555
H16 C18 1_555 1_555
C19 C18 1_555 1_555
H17 C19 1_555 1_555
C20 C19 1_555 1_555
H18 C20 1_555 1_555
C21 C16 1_555 1_555
H19 C21 1_555 1_555
C22 C23 1_555 1_555
C23 H20 1_555 1_555
C24 C23 1_555 1_555
H21 C24 1_555 1_555
C25 C24 1_555 1_555
C26 C25 1_555 1_555
H22 C26 1_555 1_555
C27 C22 1_555 1_555
H23 C27 1_555 1_555
C28 B1 1_555 1_555
C29 C28 1_555 1_555
C30 C29 1_555 1_555
H24 C30 1_555 1_555
C31 C30 1_555 1_555
C32 C31 1_555 1_555
H25 C32 1_555 1_555
C33 C28 1_555 1_555
C34 C29 1_555 1_555
H26 C34 1_555 1_555
H27 C34 1_555 1_555
H28 C34 1_555 1_555
C35 C31 1_555 1_555
H29 C35 1_555 1_555
H30 C35 1_555 1_555
H31 C35 1_555 1_555
C36 C33 1_555 1_555
H32 C36 1_555 1_555
H33 C36 1_555 1_555
H34 C36 1_555 1_555
C37 B1 1_555 1_555
C38 C37 1_555 1_555
C39 C38 1_555 1_555
H35 C39 1_555 1_555
C40 C39 1_555 1_555
C41 C40 1_555 1_555
H36 C41 1_555 1_555
C42 C37 1_555 1_555
C43 C42 1_555 1_555
H37 C43 1_555 1_555
H38 C43 1_555 1_555
H39 C43 1_555 1_555
C44 C40 1_555 1_555
H40 C44 1_555 1_555
H41 C44 1_555 1_555
H42 C44 1_555 1_555
C45 C38 1_555 1_555
H43 C45 1_555 1_555
H44 C45 1_555 1_555
H45 C45 1_555 1_555
C46 C7 1_555 1_555
C47 C46 1_555 1_555
H46 C47 1_555 1_555
C48 C47 1_555 1_555
H47 C48 1_555 1_555
C49 C48 1_555 1_555
H48 C49 1_555 1_555
C50 C49 1_555 1_555
C51 C50 1_555 1_555
H49 C51 1_555 1_555
C52 C51 1_555 1_555
H50 C52 1_555 1_555
C53 C25 1_555 1_555
C54 C52 1_555 1_555
H51 C54 1_555 1_555
C55 C46 1_555 1_555
C1 C2 1_555 1_555
C8 C9 1_555 1_555
C14 C15 1_555 1_555
C20 C21 1_555 1_555
C26 C27 1_555 1_555
C32 C33 1_555 1_555
C41 C42 1_555 1_555
C50 C55 1_555 1_555
C53 C54 1_555 1_555
C53 C55 1_555 1_555

#END
