
#######################################################################
#
#                 Cambridge Crystallographic Data Centre
#                                CCDC 
#
#######################################################################
#
# If this CIF has been generated from an entry in the Cambridge 
# Structural Database, then it will include bibliographic, chemical, 
# crystal, experimental, refinement or atomic coordinate data resulting 
# from the CCDC's data processing and validation procedures.
#
#######################################################################

data_MAKNAQ
_chemical_formula_moiety         'C15 H23 B1 F3 O2 P1'
_chemical_name_systematic        
(2-((2-carboxyethyl)(diisopropyl)phosphonio)phenyl)(trifluoro)borate
_symmetry_cell_setting           monoclinic
_symmetry_space_group_name_H-M   'P 21/n'
_symmetry_Int_Tables_number      14
_space_group_name_Hall           '-P 2yn'
loop_
_symmetry_equiv_pos_site_id
_symmetry_equiv_pos_as_xyz
1 x,y,z
2 1/2-x,1/2+y,1/2-z
3 -x,-y,-z
4 1/2+x,1/2-y,1/2+z
_cell_length_a                   8.174(8)
_cell_length_b                   14.540(13)
_cell_length_c                   13.759(13)
_cell_angle_alpha                90
_cell_angle_beta                 92.568(12)
_cell_angle_gamma                90
_cell_volume                     1633.61
_exptl_crystal_description       single
_cell_formula_units_Z            4
loop_
_atom_site_label
_atom_site_type_symbol
_atom_site_fract_x
_atom_site_fract_y
_atom_site_fract_z
P1 P 0.24600(6) 0.80737(4) 0.13324(4)
F1 F -0.12107(15) 0.81155(10) 0.16359(10)
O1 O -0.12845(18) 0.58227(11) 0.14229(11)
C1 C 0.0755(2) 0.88954(14) 0.28573(15)
B1 B -0.1071(3) 0.87896(18) 0.23557(19)
F2 F -0.22103(15) 0.85984(10) 0.30581(10)
O2 O -0.06826(18) 0.55570(11) 0.29975(11)
H1 H -0.1533 0.5258 0.2959
C2 C 0.0809(3) 0.93534(15) 0.37497(16)
H2 H -0.0164 0.9579 0.3982
F3 F -0.15513(15) 0.96355(10) 0.19043(10)
C3 C 0.2252(3) 0.94879(16) 0.43071(16)
H3 H 0.2229 0.9790 0.4902
C4 C 0.3709(3) 0.91733(15) 0.39761(16)
H4 H 0.4674 0.9250 0.4352
C5 C 0.3735(2) 0.87426(14) 0.30831(15)
H5 H 0.4727 0.8545 0.2852
C6 C 0.2280(2) 0.85983(14) 0.25163(15)
C7 C 0.1581(3) 0.88843(15) 0.04437(15)
H6 H 0.0564 0.9107 0.0713
C8 C 0.2684(3) 0.97247(16) 0.03666(17)
H7 H 0.2207 1.0145 -0.0104
H8 H 0.3742 0.9535 0.0167
H9 H 0.2797 1.0023 0.0989
C9 C 0.1088(3) 0.84619(17) -0.05475(17)
H10 H 0.0636 0.8931 -0.0971
H11 H 0.0284 0.7991 -0.0464
H12 H 0.2035 0.8199 -0.0829
C10 C 0.4618(3) 0.78404(16) 0.11462(16)
H13 H 0.5252 0.8380 0.1366
C11 C 0.5204(3) 0.70149(16) 0.17606(19)
H14 H 0.6341 0.6902 0.1658
H15 H 0.4575 0.6481 0.1572
H16 H 0.5064 0.7144 0.2436
C12 C 0.4962(3) 0.76708(19) 0.00707(18)
H17 H 0.6110 0.7557 0.0009
H18 H 0.4644 0.8202 -0.0306
H19 H 0.4347 0.7147 -0.0163
C13 C 0.1410(3) 0.69782(15) 0.12185(16)
H20 H 0.0349 0.7079 0.0892
H21 H 0.2032 0.6580 0.0806
C14 C 0.1153(3) 0.64790(16) 0.21773(16)
H22 H 0.2075 0.6074 0.2323
H23 H 0.1109 0.6926 0.2699
C15 C -0.0403(2) 0.59247(15) 0.21311(16)
loop_
_geom_bond_atom_site_label_1
_geom_bond_atom_site_label_2
_geom_bond_site_symmetry_1
_geom_bond_site_symmetry_2
P1 C6 1_555 1_555
F1 B1 1_555 1_555
O1 C15 1_555 1_555
C1 B1 1_555 1_555
B1 F2 1_555 1_555
O2 H1 1_555 1_555
C2 C1 1_555 1_555
H2 C2 1_555 1_555
F3 B1 1_555 1_555
C3 C2 1_555 1_555
H3 C3 1_555 1_555
C4 C3 1_555 1_555
H4 C4 1_555 1_555
C5 C4 1_555 1_555
H5 C5 1_555 1_555
C6 C1 1_555 1_555
C7 P1 1_555 1_555
H6 C7 1_555 1_555
C8 C7 1_555 1_555
H7 C8 1_555 1_555
H8 C8 1_555 1_555
H9 C8 1_555 1_555
C9 C7 1_555 1_555
H10 C9 1_555 1_555
H11 C9 1_555 1_555
H12 C9 1_555 1_555
C10 P1 1_555 1_555
H13 C10 1_555 1_555
C11 C10 1_555 1_555
H14 C11 1_555 1_555
H15 C11 1_555 1_555
H16 C11 1_555 1_555
C12 C10 1_555 1_555
H17 C12 1_555 1_555
H18 C12 1_555 1_555
H19 C12 1_555 1_555
C13 P1 1_555 1_555
H20 C13 1_555 1_555
H21 C13 1_555 1_555
C14 C13 1_555 1_555
H22 C14 1_555 1_555
H23 C14 1_555 1_555
C15 O2 1_555 1_555
C5 C6 1_555 1_555
C14 C15 1_555 1_555

#END
