
#######################################################################
#
#                 Cambridge Crystallographic Data Centre
#                                CCDC 
#
#######################################################################
#
# If this CIF has been generated from an entry in the Cambridge 
# Structural Database, then it will include bibliographic, chemical, 
# crystal, experimental, refinement or atomic coordinate data resulting 
# from the CCDC's data processing and validation procedures.
#
#######################################################################

data_MAKPUM
_chemical_formula_moiety         'C31 H21 N1 O2 S1,1.25(C2 H6 O1)'
_chemical_name_systematic        
"2',3'-diphenylspiro[1,2-benzothiazole-3,1'-cyclopenta[b]naphthalene] 1,1-dioxide ethanol solvate"
_symmetry_cell_setting           monoclinic
_symmetry_space_group_name_H-M   'P 21'
_symmetry_Int_Tables_number      4
_space_group_name_Hall           'P 2yb'
loop_
_symmetry_equiv_pos_site_id
_symmetry_equiv_pos_as_xyz
1 x,y,z
2 -x,1/2+y,-z
_cell_length_a                   13.3414(17)
_cell_length_b                   17.086(3)
_cell_length_c                   24.139(5)
_cell_angle_alpha                90
_cell_angle_beta                 94.331(17)
_cell_angle_gamma                90
_cell_volume                     5486.8
_exptl_crystal_colour            colorless
_exptl_crystal_description       prism
_cell_formula_units_Z            8
loop_
_atom_site_label
_atom_site_type_symbol
_atom_site_fract_x
_atom_site_fract_y
_atom_site_fract_z
S1 S 0.73807(5) 0.14690(4) 0.08800(3)
O1 O 0.63578(14) 0.16555(13) 0.09834(8)
O2 O 0.76654(16) 0.06633(12) 0.09956(9)
N1 N 0.76682(17) 0.17235(13) 0.02599(9)
H1 H 0.725(3) 0.170(2) 0.0013(14)
C1 C 0.83068(18) 0.24333(15) 0.02357(10)
C2 C 0.82466(19) 0.21116(16) 0.12205(10)
C3 C 0.8482(2) 0.21600(19) 0.17913(11)
H2 H 0.8150 0.1842 0.2044
C4 C 0.9218(2) 0.2689(2) 0.19762(12)
H3 H 0.9395 0.2745 0.2363
C5 C 0.9700(2) 0.31395(19) 0.15942(12)
H4 H 1.0221 0.3485 0.1728
C6 C 0.9446(2) 0.31017(17) 0.10256(11)
H5 H 0.9772 0.3422 0.0773
C7 C 0.86934(19) 0.25748(16) 0.08394(10)
C8 C 0.91790(19) 0.23376(15) -0.01455(10)
C9 C 0.99531(19) 0.17180(16) -0.00830(10)
C10 C 0.9700(2) 0.09225(16) -0.01053(11)
H6 H 0.9016 0.0767 -0.0106
C11 C 1.0448(2) 0.03640(17) -0.01262(12)
H7 H 1.0273 -0.0175 -0.0146
C12 C 1.1448(2) 0.05810(19) -0.01192(12)
H8 H 1.1951 0.0193 -0.0148
C13 C 1.1717(2) 0.13581(19) -0.00700(13)
H9 H 1.2406 0.1503 -0.0048
C14 C 1.0975(2) 0.19329(17) -0.00524(11)
H10 H 1.1160 0.2469 -0.0020
C15 C 0.91717(19) 0.29325(15) -0.05180(10)
C16 C 0.98887(19) 0.30432(16) -0.09573(10)
C17 C 1.0064(2) 0.24376(18) -0.13217(11)
H11 H 0.9732 0.1950 -0.1285
C18 C 1.0717(2) 0.2534(2) -0.17394(12)
H12 H 1.0822 0.2117 -0.1989
C19 C 1.1215(2) 0.3240(2) -0.17915(13)
H13 H 1.1664 0.3307 -0.2075
C20 C 1.1056(2) 0.38456(19) -0.14292(13)
H14 H 1.1402 0.4328 -0.1462
C21 C 1.0391(2) 0.37530(17) -0.10165(12)
H15 H 1.0278 0.4175 -0.0773
C22 C 0.82899(18) 0.34403(15) -0.04648(10)
C23 C 0.79382(19) 0.40701(15) -0.07704(10)
H16 H 0.8312 0.4273 -0.1058
C24 C 0.7010(2) 0.44197(15) -0.06555(10)
C25 C 0.6625(2) 0.50872(15) -0.09550(11)
H17 H 0.6985 0.5296 -0.1246
C26 C 0.5745(2) 0.54308(17) -0.08291(12)
H18 H 0.5509 0.5882 -0.1028
C27 C 0.5186(2) 0.51238(18) -0.04077(13)
H19 H 0.4571 0.5363 -0.0327
C28 C 0.5531(2) 0.44776(17) -0.01131(12)
H20 H 0.5147 0.4272 0.0169
C29 C 0.64506(19) 0.41116(15) -0.02240(10)
C30 C 0.68459(19) 0.34592(15) 0.00930(10)
H21 H 0.6486 0.3250 0.0384
C31 C 0.77398(18) 0.31399(15) -0.00247(9)
S2 S 0.23795(5) 0.42605(4) 0.06785(3)
O3 O 0.13331(14) 0.40291(12) 0.06237(8)
O4 O 0.25607(16) 0.50600(12) 0.05240(9)
N2 N 0.29499(17) 0.40816(13) 0.12914(9)
H22 H 0.261(3) 0.421(2) 0.1570(15)
C32 C 0.35366(19) 0.33420(15) 0.13223(10)
C33 C 0.31140(19) 0.35973(16) 0.03377(11)
C34 C 0.3090(2) 0.34698(18) -0.02318(11)
H23 H 0.2669 0.3771 -0.0485
C35 C 0.3704(2) 0.28875(19) -0.04137(11)
H24 H 0.3706 0.2783 -0.0800
C36 C 0.4322(2) 0.24511(17) -0.00369(11)
H25 H 0.4738 0.2054 -0.0171
C37 C 0.4339(2) 0.25882(16) 0.05331(11)
H26 H 0.4768 0.2294 0.0787
C38 C 0.37108(18) 0.31682(15) 0.07210(10)
C39 C 0.45220(19) 0.33957(15) 0.17067(10)
C40 C 0.5351(2) 0.39290(16) 0.15887(10)
C41 C 0.5168(2) 0.46767(17) 0.13626(11)
H27 H 0.4495 0.4855 0.1296
C42 C 0.5956(2) 0.51599(19) 0.12343(12)
H28 H 0.5817 0.5663 0.1080
C43 C 0.6945(2) 0.49135(19) 0.13298(12)
H29 H 0.7481 0.5247 0.1243
C44 C 0.7142(2) 0.4178(2) 0.15520(13)
H30 H 0.7818 0.4005 0.1617
C45 C 0.6353(2) 0.36887(19) 0.16809(12)
H31 H 0.6499 0.3185 0.1833
C46 C 0.4526(2) 0.28186(16) 0.20980(10)
C47 C 0.5300(2) 0.26188(16) 0.25538(10)
C48 C 0.5863(2) 0.19326(17) 0.25220(11)
H32 H 0.5782 0.1616 0.2198
C49 C 0.6540(2) 0.17093(19) 0.29596(12)
H33 H 0.6927 0.1246 0.2931
C50 C 0.6651(2) 0.21598(19) 0.34358(12)
H34 H 0.7109 0.2003 0.3736
C51 C 0.6092(2) 0.28422(19) 0.34767(12)
H35 H 0.6165 0.3150 0.3805
C52 C 0.5424(2) 0.30725(18) 0.30347(11)
H36 H 0.5051 0.3543 0.3061
C53 C 0.3596(2) 0.23453(16) 0.20243(10)
C54 C 0.3299(2) 0.16940(16) 0.22977(10)
H37 H 0.3705 0.1490 0.2604
C55 C 0.2375(2) 0.13254(16) 0.21179(11)
C56 C 0.2048(2) 0.06253(17) 0.23722(12)
H38 H 0.2435 0.0409 0.2681
C57 C 0.1178(3) 0.02642(18) 0.21730(13)
H39 H 0.0972 -0.0202 0.2346
C58 C 0.0583(2) 0.05692(18) 0.17166(14)
H40 H -0.0018 0.0309 0.1585
C59 C 0.0871(2) 0.12440(17) 0.14621(12)
H41 H 0.0469 0.1447 0.1154
C60 C 0.1766(2) 0.16393(16) 0.16568(11)
C61 C 0.2099(2) 0.23243(16) 0.13848(10)
H42 H 0.1704 0.2544 0.1080
C62 C 0.29855(19) 0.26558(15) 0.15679(10)
S3 S 0.75121(5) 0.97554(4) 0.44286(3)
O5 O 0.85691(15) 0.95776(13) 0.44969(9)
O6 O 0.72532(17) 1.05617(12) 0.45338(9)
N3 N 0.69995(19) 0.94824(14) 0.38253(10)
H43 H 0.732(2) 0.9545(18) 0.3579(13)
C63 C 0.6341(2) 0.87882(15) 0.38262(10)
C64 C 0.6802(2) 0.91028(16) 0.48017(10)
C65 C 0.6831(2) 0.90290(19) 0.53751(11)
H44 H 0.7240 0.9360 0.5614
C66 C 0.6236(2) 0.8449(2) 0.55837(12)
H45 H 0.6246 0.8371 0.5974
C67 C 0.5621(2) 0.79765(18) 0.52258(12)
H46 H 0.5207 0.7591 0.5378
C68 C 0.5606(2) 0.80617(16) 0.46530(11)
H47 H 0.5190 0.7738 0.4412
C69 C 0.62145(19) 0.86329(15) 0.44394(10)
C70 C 0.5307(2) 0.88968(15) 0.34975(10)
C71 C 0.4589(2) 0.95175(16) 0.36375(10)
C72 C 0.4875(2) 1.03067(17) 0.36695(11)
H48 H 0.5547 1.0450 0.3611
C73 C 0.4184(3) 1.08809(18) 0.37856(13)
H49 H 0.4384 1.1414 0.3803
C74 C 0.3202(3) 1.0680(2) 0.38767(12)
H50 H 0.2734 1.1076 0.3956
C75 C 0.2905(2) 0.9905(2) 0.38526(11)
H51 H 0.2235 0.9768 0.3919
C76 C 0.3591(2) 0.93221(18) 0.37309(10)
H52 H 0.3382 0.8791 0.3711
C77 C 0.51438(19) 0.83154(15) 0.31231(10)
C78 C 0.4212(2) 0.81582(16) 0.27607(10)
C79 C 0.3705(2) 0.87590(17) 0.24605(11)
H53 H 0.3963 0.9277 0.2479
C80 C 0.2825(2) 0.8599(2) 0.21361(11)
H54 H 0.2488 0.9008 0.1931
C81 C 0.2433(2) 0.7846(2) 0.21088(11)
H55 H 0.1827 0.7743 0.1888
C82 C 0.2927(2) 0.72448(19) 0.24047(11)
H56 H 0.2663 0.6728 0.2384
C83 C 0.3811(2) 0.74002(17) 0.27322(11)
H57 H 0.4144 0.6989 0.2937
C84 C 0.6044(2) 0.78073(15) 0.31207(10)
C85 C 0.6269(2) 0.71896(15) 0.27864(10)
H58 H 0.5801 0.7022 0.2494
C86 C 0.7215(2) 0.68041(16) 0.28837(10)
C87 C 0.7463(2) 0.61475(17) 0.25615(12)
H59 H 0.7011 0.5980 0.2262
C88 C 0.8352(2) 0.57500(18) 0.26774(13)
H60 H 0.8506 0.5308 0.2460
C89 C 0.9036(2) 0.59964(19) 0.31182(14)
H61 H 0.9645 0.5716 0.3198
C90 C 0.8825(2) 0.66406(18) 0.34337(12)
H62 H 0.9293 0.6804 0.3727
C91 C 0.7918(2) 0.70594(16) 0.33224(11)
C92 C 0.7670(2) 0.77245(16) 0.36488(11)
H63 H 0.8134 0.7913 0.3937
C93 C 0.6771(2) 0.80809(15) 0.35429(10)
S4 S 0.24892(5) 0.67929(4) 0.42296(3)
O7 O 0.34877(15) 0.70132(13) 0.40987(8)
O8 O 0.22102(17) 0.59937(13) 0.40918(9)
N4 N 0.22837(18) 0.69966(14) 0.48711(9)
H64 H 0.231(2) 0.665(2) 0.5058(14)
C94 C 0.16523(19) 0.76894(15) 0.49547(10)
C95 C 0.1595(2) 0.74702(17) 0.39528(11)
C96 C 0.1278(2) 0.7575(2) 0.33944(11)
H65 H 0.1548 0.7270 0.3112
C97 C 0.0554(2) 0.8142(2) 0.32660(13)
H66 H 0.0328 0.8236 0.2889
C98 C 0.0160(2) 0.8571(2) 0.36800(13)
H67 H -0.0354 0.8942 0.3584
C99 C 0.0492(2) 0.84760(17) 0.42352(12)
H68 H 0.0231 0.8790 0.4515
C100 C 0.12248(19) 0.79042(16) 0.43705(10)
C101 C 0.07984(19) 0.75709(15) 0.53353(10)
C102 C -0.0056(2) 0.70309(16) 0.51924(10)
C103 C 0.0080(2) 0.62236(17) 0.51328(12)
H69 H 0.0738 0.6008 0.5164
C104 C -0.0745(3) 0.57375(19) 0.50281(14)
H70 H -0.0649 0.5190 0.4992
C105 C -0.1703(2) 0.6042(2) 0.49765(12)
H71 H -0.2263 0.5702 0.4914
C106 C -0.1857(2) 0.6843(2) 0.50147(12)
H72 H -0.2517 0.7054 0.4967
C107 C -0.1035(2) 0.73342(17) 0.51226(11)
H73 H -0.1137 0.7883 0.5150
C108 C 0.08366(19) 0.81232(16) 0.57417(10)
C109 C 0.0083(2) 0.82381(17) 0.61594(11)
C110 C -0.0282(2) 0.7600(2) 0.64403(12)
H74 H -0.0026 0.7092 0.6377
C111 C -0.1014(3) 0.7699(2) 0.68107(13)
H75 H -0.1257 0.7259 0.7000
C112 C -0.1394(3) 0.8434(3) 0.69068(15)
H76 H -0.1894 0.8500 0.7163
C113 C -0.1044(3) 0.9075(2) 0.66278(16)
H77 H -0.1309 0.9581 0.6692
C114 C -0.0306(2) 0.8983(2) 0.62541(13)
H78 H -0.0068 0.9425 0.6064
C115 C 0.17289(19) 0.86319(15) 0.56967(10)
C116 C 0.2088(2) 0.92549(16) 0.60107(10)
H79 H 0.1764 0.9412 0.6330
C117 C 0.2952(2) 0.96631(16) 0.58513(10)
C118 C 0.3304(2) 1.03564(17) 0.61282(12)
H80 H 0.2994 1.0526 0.6449
C119 C 0.4078(2) 1.07836(17) 0.59435(12)
H81 H 0.4284 1.1254 0.6129
C120 C 0.4572(2) 1.05322(18) 0.54807(12)
H82 H 0.5110 1.0832 0.5354
C121 C 0.4276(2) 0.98484(17) 0.52098(11)
H83 H 0.4627 0.9673 0.4905
C122 C 0.34560(19) 0.94062(15) 0.53808(10)
C123 C 0.30849(19) 0.87277(15) 0.50819(10)
H84 H 0.3426 0.8530 0.4780
C124 C 0.22394(19) 0.83717(15) 0.52359(10)
C125 C 0.4351(3) 0.7332(2) 0.12481(13)
H85 H 0.5026 0.7109 0.1314
H86 H 0.4176 0.7617 0.1580
H87 H 0.4337 0.7693 0.0932
C126 C 0.3608(2) 0.66887(19) 0.11239(12)
H88 H 0.3650 0.6302 0.1430
H89 H 0.2918 0.6905 0.1087
O9 O 0.38345(15) 0.63163(12) 0.06129(8)
H90 H 0.3557 0.5875 0.0590
C127 C 0.4431(3) 0.5185(2) 0.26885(14)
H91 H 0.4156 0.4750 0.2460
H92 H 0.5147 0.5094 0.2788
H93 H 0.4347 0.5675 0.2479
C128 C 0.3886(3) 0.5239(3) 0.32052(15)
H94 H 0.3944 0.4736 0.3408
H95 H 0.4195 0.5653 0.3450
O10 O 0.28611(18) 0.54150(15) 0.30736(9)
H96 H 0.2601 0.5568 0.3361
C129 C 0.5912(4) -0.0909(2) 0.16734(17)
H97 H 0.6034 -0.0791 0.1287
H98 H 0.5247 -0.1148 0.1687
H99 H 0.6427 -0.1273 0.1829
C130 C 0.5955(4) -0.0174(3) 0.20024(16)
H100 H 0.5451 0.0199 0.1836
H101 H 0.5782 -0.0290 0.2386
O11 O 0.6931(3) 0.01806(18) 0.20220(11)
H102 H 0.7058 0.0318 0.1701
C131 C 0.0294(4) 0.5244(3) 0.1624(2)
H103 H 0.0506 0.5113 0.1255
H104 H -0.0172 0.5688 0.1593
H105 H -0.0042 0.4792 0.1777
C132 C 0.1109(4) 0.5437(4) 0.1964(3)
H106 H 0.0861 0.5623 0.2317
H107 H 0.1433 0.5890 0.1794
O12 O 0.18700(19) 0.48807(15) 0.21011(9)
H108 H 0.2156 0.4988 0.2414
C133 C 0.0750(3) 0.5652(2) 0.68072(19)
H109 H 0.1294 0.5762 0.6568
H110 H 0.0565 0.6135 0.6994
H111 H 0.0164 0.5452 0.6581
C134 C 0.1076(4) 0.5085(3) 0.7212(2)
H112 H 0.1155 0.5336 0.7582
H113 H 0.0558 0.4671 0.7225
O13 O 0.1914(3) 0.4773(2) 0.71013(15)
H114 H 0.2388 0.5080 0.7197
loop_
_geom_bond_atom_site_label_1
_geom_bond_atom_site_label_2
_geom_bond_site_symmetry_1
_geom_bond_site_symmetry_2
S1 O1 1_555 1_555
O2 S1 1_555 1_555
N1 S1 1_555 1_555
H1 N1 1_555 1_555
C1 N1 1_555 1_555
C2 S1 1_555 1_555
C3 C2 1_555 1_555
H2 C3 1_555 1_555
C4 C3 1_555 1_555
H3 C4 1_555 1_555
C5 C4 1_555 1_555
H4 C5 1_555 1_555
C6 C5 1_555 1_555
H5 C6 1_555 1_555
C7 C1 1_555 1_555
C8 C1 1_555 1_555
C9 C8 1_555 1_555
C10 C9 1_555 1_555
H6 C10 1_555 1_555
C11 C10 1_555 1_555
H7 C11 1_555 1_555
C12 C11 1_555 1_555
H8 C12 1_555 1_555
C13 C12 1_555 1_555
H9 C13 1_555 1_555
C14 C9 1_555 1_555
H10 C14 1_555 1_555
C15 C8 1_555 1_555
C16 C15 1_555 1_555
C17 C16 1_555 1_555
H11 C17 1_555 1_555
C18 C17 1_555 1_555
H12 C18 1_555 1_555
C19 C18 1_555 1_555
H13 C19 1_555 1_555
C20 C19 1_555 1_555
H14 C20 1_555 1_555
C21 C16 1_555 1_555
H15 C21 1_555 1_555
C22 C15 1_555 1_555
C23 C22 1_555 1_555
H16 C23 1_555 1_555
C24 C23 1_555 1_555
C25 C24 1_555 1_555
H17 C25 1_555 1_555
C26 C25 1_555 1_555
H18 C26 1_555 1_555
C27 C26 1_555 1_555
H19 C27 1_555 1_555
C28 C27 1_555 1_555
H20 C28 1_555 1_555
C29 C24 1_555 1_555
C30 C29 1_555 1_555
H21 C30 1_555 1_555
C31 C1 1_555 1_555
S2 O3 1_555 1_555
O4 S2 1_555 1_555
N2 S2 1_555 1_555
H22 N2 1_555 1_555
C32 N2 1_555 1_555
C33 S2 1_555 1_555
C34 C33 1_555 1_555
H23 C34 1_555 1_555
C35 C34 1_555 1_555
H24 C35 1_555 1_555
C36 C35 1_555 1_555
H25 C36 1_555 1_555
C37 C36 1_555 1_555
H26 C37 1_555 1_555
C38 C32 1_555 1_555
C39 C32 1_555 1_555
C40 C39 1_555 1_555
C41 C40 1_555 1_555
H27 C41 1_555 1_555
C42 C41 1_555 1_555
H28 C42 1_555 1_555
C43 C42 1_555 1_555
H29 C43 1_555 1_555
C44 C43 1_555 1_555
H30 C44 1_555 1_555
C45 C40 1_555 1_555
H31 C45 1_555 1_555
C46 C39 1_555 1_555
C47 C46 1_555 1_555
C48 C47 1_555 1_555
H32 C48 1_555 1_555
C49 C48 1_555 1_555
H33 C49 1_555 1_555
C50 C49 1_555 1_555
H34 C50 1_555 1_555
C51 C50 1_555 1_555
H35 C51 1_555 1_555
C52 C47 1_555 1_555
H36 C52 1_555 1_555
C53 C46 1_555 1_555
C54 C53 1_555 1_555
H37 C54 1_555 1_555
C55 C54 1_555 1_555
C56 C55 1_555 1_555
H38 C56 1_555 1_555
C57 C56 1_555 1_555
H39 C57 1_555 1_555
C58 C57 1_555 1_555
H40 C58 1_555 1_555
C59 C58 1_555 1_555
H41 C59 1_555 1_555
C60 C55 1_555 1_555
C61 C60 1_555 1_555
H42 C61 1_555 1_555
C62 C32 1_555 1_555
S3 O5 1_555 1_555
O6 S3 1_555 1_555
N3 S3 1_555 1_555
H43 N3 1_555 1_555
C63 N3 1_555 1_555
C64 S3 1_555 1_555
C65 C64 1_555 1_555
H44 C65 1_555 1_555
C66 C65 1_555 1_555
H45 C66 1_555 1_555
C67 C66 1_555 1_555
H46 C67 1_555 1_555
C68 C67 1_555 1_555
H47 C68 1_555 1_555
C69 C63 1_555 1_555
C70 C63 1_555 1_555
C71 C70 1_555 1_555
C72 C71 1_555 1_555
H48 C72 1_555 1_555
C73 C72 1_555 1_555
H49 C73 1_555 1_555
C74 C73 1_555 1_555
H50 C74 1_555 1_555
C75 C74 1_555 1_555
H51 C75 1_555 1_555
C76 C71 1_555 1_555
H52 C76 1_555 1_555
C77 C70 1_555 1_555
C78 C77 1_555 1_555
C79 C78 1_555 1_555
H53 C79 1_555 1_555
C80 C79 1_555 1_555
H54 C80 1_555 1_555
C81 C80 1_555 1_555
H55 C81 1_555 1_555
C82 C81 1_555 1_555
H56 C82 1_555 1_555
C83 C78 1_555 1_555
H57 C83 1_555 1_555
C84 C77 1_555 1_555
C85 C84 1_555 1_555
H58 C85 1_555 1_555
C86 C85 1_555 1_555
C87 C86 1_555 1_555
H59 C87 1_555 1_555
C88 C87 1_555 1_555
H60 C88 1_555 1_555
C89 C88 1_555 1_555
H61 C89 1_555 1_555
C90 C89 1_555 1_555
H62 C90 1_555 1_555
C91 C86 1_555 1_555
C92 C91 1_555 1_555
H63 C92 1_555 1_555
C93 C63 1_555 1_555
S4 O7 1_555 1_555
O8 S4 1_555 1_555
N4 S4 1_555 1_555
H64 N4 1_555 1_555
C94 N4 1_555 1_555
C95 S4 1_555 1_555
C96 C95 1_555 1_555
H65 C96 1_555 1_555
C97 C96 1_555 1_555
H66 C97 1_555 1_555
C98 C97 1_555 1_555
H67 C98 1_555 1_555
C99 C98 1_555 1_555
H68 C99 1_555 1_555
C100 C94 1_555 1_555
C101 C94 1_555 1_555
C102 C101 1_555 1_555
C103 C102 1_555 1_555
H69 C103 1_555 1_555
C104 C103 1_555 1_555
H70 C104 1_555 1_555
C105 C104 1_555 1_555
H71 C105 1_555 1_555
C106 C105 1_555 1_555
H72 C106 1_555 1_555
C107 C102 1_555 1_555
H73 C107 1_555 1_555
C108 C101 1_555 1_555
C109 C108 1_555 1_555
C110 C109 1_555 1_555
H74 C110 1_555 1_555
C111 C110 1_555 1_555
H75 C111 1_555 1_555
C112 C111 1_555 1_555
H76 C112 1_555 1_555
C113 C112 1_555 1_555
H77 C113 1_555 1_555
C114 C109 1_555 1_555
H78 C114 1_555 1_555
C115 C108 1_555 1_555
C116 C115 1_555 1_555
H79 C116 1_555 1_555
C117 C116 1_555 1_555
C118 C117 1_555 1_555
H80 C118 1_555 1_555
C119 C118 1_555 1_555
H81 C119 1_555 1_555
C120 C119 1_555 1_555
H82 C120 1_555 1_555
C121 C120 1_555 1_555
H83 C121 1_555 1_555
C122 C117 1_555 1_555
C123 C122 1_555 1_555
H84 C123 1_555 1_555
C124 C94 1_555 1_555
C125 H85 1_555 1_555
H86 C125 1_555 1_555
H87 C125 1_555 1_555
C126 C125 1_555 1_555
H88 C126 1_555 1_555
H89 C126 1_555 1_555
O9 C126 1_555 1_555
H90 O9 1_555 1_555
C127 H91 1_555 1_555
H92 C127 1_555 1_555
H93 C127 1_555 1_555
C128 C127 1_555 1_555
H94 C128 1_555 1_555
H95 C128 1_555 1_555
O10 C128 1_555 1_555
H96 O10 1_555 1_555
C129 H97 1_555 1_555
H98 C129 1_555 1_555
H99 C129 1_555 1_555
C130 C129 1_555 1_555
H100 C130 1_555 1_555
H101 C130 1_555 1_555
O11 C130 1_555 1_555
H102 O11 1_555 1_555
C131 H103 1_555 1_555
H104 C131 1_555 1_555
H105 C131 1_555 1_555
C132 C131 1_555 1_555
H106 C132 1_555 1_555
H107 C132 1_555 1_555
O12 C132 1_555 1_555
H108 O12 1_555 1_555
C133 H109 1_555 1_555
H110 C133 1_555 1_555
H111 C133 1_555 1_555
C134 C133 1_555 1_555
H112 C134 1_555 1_555
H113 C134 1_555 1_555
O13 C134 1_555 1_555
H114 O13 1_555 1_555
C2 C7 1_555 1_555
C6 C7 1_555 1_555
C13 C14 1_555 1_555
C20 C21 1_555 1_555
C22 C31 1_555 1_555
C28 C29 1_555 1_555
C30 C31 1_555 1_555
C33 C38 1_555 1_555
C37 C38 1_555 1_555
C44 C45 1_555 1_555
C51 C52 1_555 1_555
C53 C62 1_555 1_555
C59 C60 1_555 1_555
C61 C62 1_555 1_555
C64 C69 1_555 1_555
C68 C69 1_555 1_555
C75 C76 1_555 1_555
C82 C83 1_555 1_555
C84 C93 1_555 1_555
C90 C91 1_555 1_555
C92 C93 1_555 1_555
C95 C100 1_555 1_555
C99 C100 1_555 1_555
C106 C107 1_555 1_555
C113 C114 1_555 1_555
C115 C124 1_555 1_555
C121 C122 1_555 1_555
C123 C124 1_555 1_555

#END
