
#######################################################################
#
#                 Cambridge Crystallographic Data Centre
#                                CCDC 
#
#######################################################################
#
# If this CIF has been generated from an entry in the Cambridge 
# Structural Database, then it will include bibliographic, chemical, 
# crystal, experimental, refinement or atomic coordinate data resulting 
# from the CCDC's data processing and validation procedures.
#
#######################################################################

data_MAKXOL
_chemical_compound_source        
'Briareum excavatum, hexane/ethyl acetate elution'
_chemical_formula_moiety         'C28 H38 O10'
_chemical_name_systematic        'Briaexcavatolide B'
_chemical_properties_biological  'potential cytotoxic agent'
_symmetry_cell_setting           orthorhombic
_symmetry_space_group_name_H-M   'P 21 21 21'
_symmetry_Int_Tables_number      19
_space_group_name_Hall           'P 2ac 2ab'
loop_
_symmetry_equiv_pos_site_id
_symmetry_equiv_pos_as_xyz
1 x,y,z
2 1/2-x,-y,1/2+z
3 1/2+x,1/2-y,-z
4 -x,1/2+y,1/2-z
_cell_length_a                   14.785(5)
_cell_length_b                   21.551(5)
_cell_length_c                   8.773(4)
_cell_angle_alpha                90
_cell_angle_beta                 90
_cell_angle_gamma                90
_cell_volume                     2795.35
_exptl_crystal_colour            colorless
_exptl_crystal_description       prism
_chemical_melting_point          219-221deg.C
_cell_formula_units_Z            4
_exptl_crystal_recrystallization_method ethanol
loop_
_atom_site_label
_atom_site_type_symbol
_atom_site_fract_x
_atom_site_fract_y
_atom_site_fract_z
O1 O 0.0054(6) 0.6211(4) 1.013(1)
O2 O -0.1321(7) 0.6322(5) 1.118(1)
O3 O 0.2963(6) 0.6689(4) 1.187(1)
O4 O 0.4299(6) 0.6220(4) 1.219(1)
O5 O 0.3500(6) 0.6706(4) 0.8804(9)
O6 O 0.1576(6) 0.5682(4) 0.8951(9)
O7 O 0.2204(6) 0.4936(5) 0.750(1)
O8 O 0.1622(6) 0.6340(4) 0.4752(9)
O9 O 0.1342(7) 0.7965(4) 0.600(1)
O10 O 0.0811(8) 0.8542(6) 0.402(1)
C1 C 0.0307(9) 0.6487(6) 0.740(2)
C2 C -0.0201(8) 0.6624(6) 0.892(1)
C3 C -0.0146(8) 0.7344(6) 0.945(1)
C4 C 0.0462(9) 0.7472(6) 1.088(1)
C5 C 0.137(1) 0.7733(6) 1.059(2)
C6 C 0.2154(8) 0.7465(6) 1.044(1)
C7 C 0.2262(9) 0.6761(6) 1.068(1)
C8 C 0.2649(9) 0.6442(6) 0.930(1)
C9 C 0.2047(9) 0.6176(6) 0.812(1)
C10 C 0.1350(9) 0.6654(5) 0.740(1)
C11 C 0.1716(9) 0.6873(6) 0.577(1)
C12 C 0.113(1) 0.7376(7) 0.512(2)
C13 C 0.0148(9) 0.7250(6) 0.522(2)
C14 C -0.0197(9) 0.6899(6) 0.622(2)
C15 C 0.009(1) 0.5808(7) 0.690(2)
C16 C 0.131(1) 0.8431(6) 1.028(2)
C17 C 0.3507(9) 0.6165(6) 0.975(1)
C18 C 0.399(1) 0.5596(6) 0.912(2)
C19 C 0.368(1) 0.6353(6) 1.138(2)
C20 C 0.2691(9) 0.7071(6) 0.584(2)
C21 C 0.118(1) 0.851(1) 0.525(2)
C22 C 0.149(1) 0.9052(8) 0.623(2)
C23 C 0.175(2) 0.969(1) 0.543(3)
C24 C 0.245(2) 0.960(1) 0.463(3)
C25 C -0.057(1) 0.6117(7) 1.120(2)
C26 C -0.017(1) 0.5713(7) 1.245(2)
C27 C 0.1775(9) 0.5089(6) 0.858(1)
C28 C 0.132(1) 0.4661(6) 0.975(2)
H1 H -0.0822 0.6544 0.8721
H2 H 0.0089 0.7579 0.8624
H3 H -0.0742 0.7480 0.9677
H4 H 0.0147 0.7754 1.1524
H5 H 0.0542 0.7089 1.1406
H6 H 0.2668 0.7709 1.0188
H7 H 0.1707 0.6577 1.0981
H8 H 0.2405 0.5998 0.7329
H9 H 0.1396 0.7013 0.8022
H10 H 0.1290 0.7436 0.4079
H11 H -0.0243 0.7443 0.4504
H12 H -0.0839 0.6884 0.6249
H13 H -0.0549 0.5744 0.6931
H14 H 0.0298 0.5744 0.5887
H15 H 0.0377 0.5524 0.7566
H16 H 0.1703 0.8645 1.0961
H17 H 0.1495 0.8513 0.9258
H18 H 0.0710 0.8570 1.0423
H19 H 0.3947 0.5268 0.9842
H20 H 0.3711 0.5473 0.8195
H21 H 0.4605 0.5693 0.8944
H22 H 0.3048 0.6739 0.6224
H23 H 0.2893 0.7180 0.4851
H24 H 0.2747 0.7420 0.6501
H25 H 0.1020 0.9139 0.6928
H26 H 0.2013 0.8915 0.6768
H27 H 0.1269 0.9823 0.4799
H28 H 0.1873 0.9994 0.6182
H29 H 0.2932 0.9467 0.5256
H30 H 0.2328 0.9301 0.3869
H31 H 0.2616 0.9984 0.4149
H32 H -0.0610 0.5644 1.3220
H33 H 0.0013 0.5327 1.2029
H34 H 0.0341 0.5916 1.2882
H35 H 0.0685 0.4719 0.9717
H36 H 0.1460 0.4241 0.9511
H37 H 0.1539 0.4755 1.0741
loop_
_geom_bond_atom_site_label_1
_geom_bond_atom_site_label_2
_geom_bond_site_symmetry_1
_geom_bond_site_symmetry_2
O1 C2 1_555 1_555
O2 C25 1_555 1_555
O3 C7 1_555 1_555
O4 C19 1_555 1_555
O5 C8 1_555 1_555
O6 C9 1_555 1_555
O7 C27 1_555 1_555
O8 C11 1_555 1_555
O9 C12 1_555 1_555
O10 C21 1_555 1_555
C1 C2 1_555 1_555
C2 C3 1_555 1_555
C3 C4 1_555 1_555
C4 C5 1_555 1_555
C5 C6 1_555 1_555
C6 C7 1_555 1_555
C7 C8 1_555 1_555
C8 C9 1_555 1_555
C9 C10 1_555 1_555
C10 C1 1_555 1_555
C11 C10 1_555 1_555
C12 C11 1_555 1_555
C13 C12 1_555 1_555
C14 C1 1_555 1_555
C15 C1 1_555 1_555
C16 C5 1_555 1_555
C17 O5 1_555 1_555
C18 C17 1_555 1_555
C19 O3 1_555 1_555
C20 C11 1_555 1_555
C21 O9 1_555 1_555
C22 C21 1_555 1_555
C23 C22 1_555 1_555
C24 C23 1_555 1_555
C25 O1 1_555 1_555
C26 C25 1_555 1_555
C27 O6 1_555 1_555
C28 C27 1_555 1_555
H1 C2 1_555 1_555
H2 C3 1_555 1_555
H3 C3 1_555 1_555
H4 C4 1_555 1_555
H5 C4 1_555 1_555
H6 C6 1_555 1_555
H7 C7 1_555 1_555
H8 C9 1_555 1_555
H9 C10 1_555 1_555
H10 C12 1_555 1_555
H11 C13 1_555 1_555
H12 C14 1_555 1_555
H13 C15 1_555 1_555
H14 C15 1_555 1_555
H15 C15 1_555 1_555
H16 C16 1_555 1_555
H17 C16 1_555 1_555
H18 C16 1_555 1_555
H19 C18 1_555 1_555
H20 C18 1_555 1_555
H21 C18 1_555 1_555
H22 C20 1_555 1_555
H23 C20 1_555 1_555
H24 C20 1_555 1_555
H25 C22 1_555 1_555
H26 C22 1_555 1_555
H27 C23 1_555 1_555
H28 C23 1_555 1_555
H29 C24 1_555 1_555
H30 C24 1_555 1_555
H31 C24 1_555 1_555
H32 C26 1_555 1_555
H33 C26 1_555 1_555
H34 C26 1_555 1_555
H35 C28 1_555 1_555
H36 C28 1_555 1_555
H37 C28 1_555 1_555
C8 C17 1_555 1_555
C13 C14 1_555 1_555
C17 C19 1_555 1_555

#END
