
#######################################################################
#
#                 Cambridge Crystallographic Data Centre
#                                CCDC 
#
#######################################################################
#
# If this CIF has been generated from an entry in the Cambridge 
# Structural Database, then it will include bibliographic, chemical, 
# crystal, experimental, refinement or atomic coordinate data resulting 
# from the CCDC's data processing and validation procedures.
#
#######################################################################

data_MAKXED
_chemical_formula_moiety         'C5 H10 N1 O3 1-,C4 H12 N1 O1 1+'
_chemical_name_systematic        
'1-Hydroxy-2-methylpropan-2-aminium (1-hydroxy-2-methylpropan-2-yl)carbamate'
_symmetry_cell_setting           monoclinic
_symmetry_space_group_name_H-M   'P 21/n'
_symmetry_Int_Tables_number      14
_space_group_name_Hall           '-P 2yn'
loop_
_symmetry_equiv_pos_site_id
_symmetry_equiv_pos_as_xyz
1 x,y,z
2 1/2-x,1/2+y,1/2-z
3 -x,-y,-z
4 1/2+x,1/2-y,1/2+z
_cell_length_a                   6.0537(3)
_cell_length_b                   9.9108(6)
_cell_length_c                   20.4773(12)
_cell_angle_alpha                90
_cell_angle_beta                 98.102(4)
_cell_angle_gamma                90
_cell_volume                     1216.31
_exptl_crystal_colour            colorless
_exptl_crystal_description       block
_cell_formula_units_Z            4
loop_
_atom_site_label
_atom_site_type_symbol
_atom_site_fract_x
_atom_site_fract_y
_atom_site_fract_z
O1 O 0.90020(17) 0.19194(11) 0.36197(5)
O2 O 0.54668(16) 0.33360(11) 0.35681(5)
O3 O 0.40671(16) 0.49725(10) 0.41370(5)
N1 N 0.69870(19) 0.37746(12) 0.46332(6)
C1 C 1.0001(2) 0.23796(16) 0.42521(7)
C2 C 0.8408(2) 0.25592(13) 0.47618(6)
C3 C 0.6972(3) 0.13058(16) 0.48027(8)
C4 C 0.9867(3) 0.28098(17) 0.54241(7)
C5 C 0.5455(2) 0.40266(14) 0.40941(6)
H1 H 0.777(3) 0.2342(19) 0.3558(9)
H2 H 1.081(3) 0.3211(19) 0.4223(8)
H3 H 1.111(3) 0.1687(19) 0.4416(9)
H4 H 0.791(3) 0.049(2) 0.4905(10)
H5 H 0.609(3) 0.1392(18) 0.5159(9)
H6 H 0.594(3) 0.1126(17) 0.4388(8)
H7 H 1.077(3) 0.2036(18) 0.5543(9)
H8 H 1.078(3) 0.356(2) 0.5397(9)
H9 H 0.892(3) 0.2942(18) 0.5755(9)
H10 H 0.673(3) 0.4204(18) 0.4988(9)
O4 O 0.20348(18) 0.59572(10) 0.30525(5)
N2 N 0.16092(19) 0.30060(11) 0.27194(5)
C6 C 0.0060(2) 0.52795(14) 0.27905(7)
C7 C 0.0442(2) 0.41352(13) 0.23200(6)
C8 C -0.1793(3) 0.36005(17) 0.19886(9)
C9 C 0.1923(3) 0.45804(16) 0.18181(7)
H11 H 0.266(3) 0.555(2) 0.3415(11)
H12 H -0.092(3) 0.5934(17) 0.2535(8)
H13 H -0.072(3) 0.4920(16) 0.3148(8)
H14 H -0.251(3) 0.4280(19) 0.1683(9)
H15 H -0.152(3) 0.279(2) 0.1724(10)
H16 H -0.274(4) 0.342(2) 0.2322(11)
H17 H 0.340(3) 0.4772(18) 0.2047(9)
H18 H 0.123(3) 0.5326(19) 0.1565(9)
H19 H 0.206(3) 0.3857(18) 0.1513(9)
H20 H 0.067(3) 0.2634(16) 0.2994(8)
H21 H 0.193(3) 0.2359(18) 0.2444(9)
H22 H 0.294(3) 0.3304(17) 0.3001(8)
loop_
_geom_bond_atom_site_label_1
_geom_bond_atom_site_label_2
_geom_bond_site_symmetry_1
_geom_bond_site_symmetry_2
O1 C1 1_555 1_555
O2 C5 1_555 1_555
O3 C5 1_555 1_555
N1 C2 1_555 1_555
C1 C2 1_555 1_555
C2 C3 1_555 1_555
C3 H4 1_555 1_555
C4 C2 1_555 1_555
C5 N1 1_555 1_555
H1 O1 1_555 1_555
H2 C1 1_555 1_555
H3 C1 1_555 1_555
H5 C3 1_555 1_555
H6 C3 1_555 1_555
H7 C4 1_555 1_555
H8 C4 1_555 1_555
H9 C4 1_555 1_555
H10 N1 1_555 1_555
O4 C6 1_555 1_555
N2 C7 1_555 1_555
C6 C7 1_555 1_555
C7 C8 1_555 1_555
C8 H14 1_555 1_555
C9 C7 1_555 1_555
H11 O4 1_555 1_555
H12 C6 1_555 1_555
H13 C6 1_555 1_555
H15 C8 1_555 1_555
H16 C8 1_555 1_555
H17 C9 1_555 1_555
H18 C9 1_555 1_555
H19 C9 1_555 1_555
H20 N2 1_555 1_555
H21 N2 1_555 1_555
H22 N2 1_555 1_555

#END
