
#######################################################################
#
#                 Cambridge Crystallographic Data Centre
#                                CCDC 
#
#######################################################################
#
# If this CIF has been generated from an entry in the Cambridge 
# Structural Database, then it will include bibliographic, chemical, 
# crystal, experimental, refinement or atomic coordinate data resulting 
# from the CCDC's data processing and validation procedures.
#
#######################################################################

data_MALBOS
_chemical_formula_moiety         'C18 H18 Br1 N1 O4'
_chemical_name_systematic        
'1-Bromo-8-(1,3-dioxo-1,3-dihydro-2H-isoindol-2-yl)octa-1,3-dien-2-yl acetate'
_symmetry_cell_setting           monoclinic
_symmetry_space_group_name_H-M   'C 2/c'
_symmetry_Int_Tables_number      15
_space_group_name_Hall           '-C 2yn'
loop_
_symmetry_equiv_pos_site_id
_symmetry_equiv_pos_as_xyz
1 x,y,z
2 -x,y,1/2-z
3 1/2+x,1/2+y,z
4 1/2-x,1/2+y,1/2-z
5 -x,-y,-z
6 x,-y,1/2+z
7 1/2-x,1/2-y,-z
8 1/2+x,1/2-y,1/2+z
_cell_length_a                   31.963(4)
_cell_length_b                   5.3557(7)
_cell_length_c                   20.129(3)
_cell_angle_alpha                90
_cell_angle_beta                 100.544(2)
_cell_angle_gamma                90
_cell_volume                     3387.58
_exptl_crystal_colour            colorless
_exptl_crystal_description       needle
_cell_formula_units_Z            8
loop_
_atom_site_label
_atom_site_type_symbol
_atom_site_fract_x
_atom_site_fract_y
_atom_site_fract_z
Br1 Br 0.203764(8) 0.97546(5) 0.501725(12)
C1 C 0.15341(7) 0.9795(4) 0.53764(12)
H1 H 0.1341 1.1092 0.5261
C2 C 0.14475(7) 0.8017(4) 0.57906(10)
C3 C 0.20470(7) 0.6225(4) 0.64721(10)
C4 C 0.23314(7) 0.4008(4) 0.65397(12)
H2 H 0.2525 0.4150 0.6229
H3 H 0.2163 0.2523 0.6441
H4 H 0.2490 0.3919 0.6993
C5 C 0.10712(7) 0.7963(4) 0.60987(10)
H5 H 0.0887 0.9319 0.6022
C6 C 0.09695(7) 0.6113(4) 0.64839(11)
H6 H 0.1151 0.4740 0.6549
C7 C 0.05891(7) 0.6059(4) 0.68201(11)
H7 H 0.0430 0.7597 0.6718
H8 H 0.0684 0.5981 0.7306
C8 C 0.02943(7) 0.3844(4) 0.65965(11)
H9 H 0.0451 0.2303 0.6705
H10 H 0.0062 0.3863 0.6846
C9 C 0.01130(7) 0.3900(4) 0.58445(10)
H11 H 0.0344 0.3672 0.5598
H12 H -0.0009 0.5536 0.5729
C10 C -0.02253(7) 0.1930(4) 0.56121(10)
H13 H -0.0316 0.2052 0.5126
H14 H -0.0103 0.0285 0.5713
C11 C -0.06815(7) 0.0632(4) 0.64495(11)
C12 C -0.10766(7) 0.1638(4) 0.66429(10)
C13 C -0.13038(7) 0.0806(4) 0.71200(11)
H15 H -0.1217 -0.0589 0.7385
C14 C -0.16663(7) 0.2126(4) 0.71902(12)
H16 H -0.1827 0.1603 0.7506
C15 C -0.17936(8) 0.4215(5) 0.67963(13)
H17 H -0.2036 0.5081 0.6857
C16 C -0.15646(8) 0.5038(4) 0.63119(14)
H18 H -0.1652 0.6423 0.6043
C17 C -0.12045(7) 0.3722(4) 0.62468(10)
C18 C -0.08941(7) 0.4109(4) 0.57871(11)
N1 N -0.05944(5) 0.2209(3) 0.59378(8)
O1 O 0.17220(5) 0.5972(3) 0.59312(7)
O2 O 0.20871(5) 0.8028(3) 0.68275(8)
O3 O -0.04703(5) -0.1159(3) 0.66685(8)
O4 O -0.08905(5) 0.5703(3) 0.53613(8)
loop_
_geom_bond_atom_site_label_1
_geom_bond_atom_site_label_2
_geom_bond_site_symmetry_1
_geom_bond_site_symmetry_2
Br1 C1 1_555 1_555
C1 H1 1_555 1_555
C2 C1 1_555 1_555
C3 C4 1_555 1_555
C4 H2 1_555 1_555
H3 C4 1_555 1_555
H4 C4 1_555 1_555
C5 C2 1_555 1_555
H5 C5 1_555 1_555
C6 C5 1_555 1_555
H6 C6 1_555 1_555
C7 C6 1_555 1_555
H7 C7 1_555 1_555
H8 C7 1_555 1_555
C8 C7 1_555 1_555
H9 C8 1_555 1_555
H10 C8 1_555 1_555
C9 C8 1_555 1_555
H11 C9 1_555 1_555
H12 C9 1_555 1_555
C10 C9 1_555 1_555
H13 C10 1_555 1_555
H14 C10 1_555 1_555
C11 C12 1_555 1_555
C12 C13 1_555 1_555
C13 H15 1_555 1_555
C14 C13 1_555 1_555
H16 C14 1_555 1_555
C15 C14 1_555 1_555
H17 C15 1_555 1_555
C16 C15 1_555 1_555
H18 C16 1_555 1_555
C17 C12 1_555 1_555
C18 C17 1_555 1_555
N1 C10 1_555 1_555
O1 C2 1_555 1_555
O2 C3 1_555 1_555
O3 C11 1_555 1_555
O4 C18 1_555 1_555
C3 O1 1_555 1_555
C11 N1 1_555 1_555
C16 C17 1_555 1_555
C18 N1 1_555 1_555

#END
