
#######################################################################
#
#                 Cambridge Crystallographic Data Centre
#                                CCDC 
#
#######################################################################
#
# If this CIF has been generated from an entry in the Cambridge 
# Structural Database, then it will include bibliographic, chemical, 
# crystal, experimental, refinement or atomic coordinate data resulting 
# from the CCDC's data processing and validation procedures.
#
#######################################################################

data_MANGEO
_chemical_formula_moiety         'C25 H29 N3 O4'
_chemical_name_systematic        
'N-(N-((4S,5R)-4-Benzyl-1,3-oxazolidin-2-one-5-carbonyl)piperidine-4-carbonyl)-(R)-1-phenylethyl amide'
_symmetry_cell_setting           orthorhombic
_symmetry_space_group_name_H-M   'P 21 21 21'
_symmetry_Int_Tables_number      19
_space_group_name_Hall           'P 2ac 2ab'
loop_
_symmetry_equiv_pos_site_id
_symmetry_equiv_pos_as_xyz
1 x,y,z
2 1/2-x,-y,1/2+z
3 1/2+x,1/2-y,-z
4 -x,1/2+y,1/2-z
_cell_length_a                   17.986(2)
_cell_length_b                   23.841(2)
_cell_length_c                   5.269(3)
_cell_angle_alpha                90
_cell_angle_beta                 90
_cell_angle_gamma                90
_cell_volume                     2259.37
_exptl_crystal_colour            colorless
_exptl_crystal_description       needle
_chemical_melting_point          190-191deg.C
_cell_formula_units_Z            4
_exptl_crystal_recrystallization_method chloroform
loop_
_atom_site_label
_atom_site_type_symbol
_atom_site_fract_x
_atom_site_fract_y
_atom_site_fract_z
O1 O 0.2624(7) 0.0457(5) 0.535(3)
O2 O 0.1619(6) 0.0553(4) 0.787(2)
O3 O -0.0177(7) 0.0715(5) 0.652(2)
O4 O 0.1576(8) 0.2880(4) 0.812(2)
N1 N 0.1558(8) -0.0087(5) 0.484(2)
N2 N 0.0370(8) 0.1148(5) 0.988(3)
N3 N 0.1791(9) 0.2966(5) 1.231(3)
C1 C 0.199(1) 0.0327(9) 0.588(4)
C2 C 0.0905(10) 0.0289(6) 0.831(3)
C3 C 0.0837(9) -0.0171(6) 0.618(3)
C4 C 0.0780(10) -0.0771(6) 0.723(3)
C5 C 0.085(1) -0.1209(6) 0.529(4)
C6 C 0.0233(9) -0.1294(6) 0.366(4)
C7 C 0.025(1) -0.1697(7) 0.181(4)
C8 C 0.090(1) -0.2008(7) 0.139(4)
C9 C 0.152(1) -0.1926(7) 0.296(4)
C10 C 0.148(1) -0.1518(7) 0.482(4)
C11 C 0.030(1) 0.0736(7) 0.818(4)
C12 C 0.092(1) 0.1199(7) 1.185(4)
C13 C 0.1411(8) 0.1696(6) 1.128(3)
C14 C 0.097(1) 0.2237(6) 1.100(4)
C15 C 0.036(1) 0.2169(6) 0.911(4)
C16 C -0.0119(8) 0.1649(6) 0.964(4)
C17 C 0.146(1) 0.2735(7) 1.030(4)
C18 C 0.2305(9) 0.3473(7) 1.207(3)
C19 C 0.2933(9) 0.3377(6) 1.388(3)
C20 C 0.191(1) 0.4015(6) 1.239(4)
C21 C 0.2027(10) 0.4430(7) 1.061(4)
C22 C 0.163(1) 0.4938(9) 1.090(4)
C23 C 0.123(1) 0.5055(8) 1.293(4)
C24 C 0.113(1) 0.4649(7) 1.473(4)
C25 C 0.1481(10) 0.4133(6) 1.444(4)
H1 H 0.1634 0.0054 0.2678
H2 H 0.0901 0.0117 0.9932
H3 H 0.0431 -0.0092 0.5085
H4 H 0.1168 -0.0823 0.8438
H5 H 0.0313 -0.0813 0.8035
H6 H -0.0199 -0.1069 0.3853
H7 H -0.0177 -0.1768 0.0803
H8 H 0.0930 -0.2273 0.0049
H9 H 0.1949 -0.2148 0.2764
H10 H 0.1914 -0.1448 0.5807
H11 H 0.1210 0.0866 1.1909
H12 H 0.0679 0.1251 1.3437
H13 H 0.1668 0.1623 0.9740
H14 H 0.1756 0.1736 1.2624
H15 H 0.0753 0.2316 1.2595
H16 H 0.0052 0.2492 0.9168
H17 H 0.0572 0.2134 0.7463
H18 H -0.0391 0.1701 1.1164
H19 H -0.0458 0.1593 0.8269
H20 H 0.1849 0.3038 1.4549
H21 H 0.2508 0.3470 1.0406
H22 H 0.3153 0.3022 1.3543
H23 H 0.3296 0.3664 1.3662
H24 H 0.2752 0.3385 1.5567
H25 H 0.2367 0.4376 0.9256
H26 H 0.1652 0.5208 0.9570
H27 H 0.1016 0.5416 1.3146
H28 H 0.0825 0.4721 1.6163
H29 H 0.1414 0.3856 1.5713
loop_
_geom_bond_atom_site_label_1
_geom_bond_atom_site_label_2
_geom_bond_site_symmetry_1
_geom_bond_site_symmetry_2
O1 C1 1_555 1_555
O2 C1 1_555 1_555
O3 C11 1_555 1_555
O4 C17 1_555 1_555
N1 C1 1_555 1_555
N2 C11 1_555 1_555
N3 C17 1_555 1_555
C2 O2 1_555 1_555
C3 N1 1_555 1_555
C4 C3 1_555 1_555
C5 C4 1_555 1_555
C6 C5 1_555 1_555
C7 C6 1_555 1_555
C8 C7 1_555 1_555
C9 C8 1_555 1_555
C10 C5 1_555 1_555
C11 C2 1_555 1_555
C12 N2 1_555 1_555
C13 C12 1_555 1_555
C14 C13 1_555 1_555
C15 C14 1_555 1_555
C16 N2 1_555 1_555
C17 C14 1_555 1_555
C18 N3 1_555 1_555
C19 C18 1_555 1_555
C20 C18 1_555 1_555
C21 C20 1_555 1_555
C22 C21 1_555 1_555
C23 C22 1_555 1_555
C24 C23 1_555 1_555
C25 C20 1_555 1_555
H1 N1 1_555 1_555
H2 C2 1_555 1_555
H3 C3 1_555 1_555
H4 C4 1_555 1_555
H5 C4 1_555 1_555
H6 C6 1_555 1_555
H7 C7 1_555 1_555
H8 C8 1_555 1_555
H9 C9 1_555 1_555
H10 C10 1_555 1_555
H11 C12 1_555 1_555
H12 C12 1_555 1_555
H13 C13 1_555 1_555
H14 C13 1_555 1_555
H15 C14 1_555 1_555
H16 C15 1_555 1_555
H17 C15 1_555 1_555
H18 C16 1_555 1_555
H19 C16 1_555 1_555
H20 N3 1_555 1_555
H21 C18 1_555 1_555
H22 C19 1_555 1_555
H23 C19 1_555 1_555
H24 C19 1_555 1_555
H25 C21 1_555 1_555
H26 C22 1_555 1_555
H27 C23 1_555 1_555
H28 C24 1_555 1_555
H29 C25 1_555 1_555
C2 C3 1_555 1_555
C9 C10 1_555 1_555
C15 C16 1_555 1_555
C24 C25 1_555 1_555

#END
