
#######################################################################
#
#                 Cambridge Crystallographic Data Centre
#                                CCDC 
#
#######################################################################
#
# If this CIF has been generated from an entry in the Cambridge 
# Structural Database, then it will include bibliographic, chemical, 
# crystal, experimental, refinement or atomic coordinate data resulting 
# from the CCDC's data processing and validation procedures.
#
#######################################################################

data_MANHIV
_chemical_formula_moiety         'C23 H35 N4 O3 P1'
_chemical_name_systematic        
'methyl (4R,5S)-1-((3aR,7aR)-1,3-di-isopropyl-2-oxido-octahydro-1H-1,3,2-benzodiazaphosphol-2-yl)-5-phenyl-4,5-dihydro-1H-imidazole-4-carboxylate'
_symmetry_cell_setting           monoclinic
_symmetry_space_group_name_H-M   'P 21'
_symmetry_Int_Tables_number      4
_space_group_name_Hall           'P 2yb'
loop_
_symmetry_equiv_pos_site_id
_symmetry_equiv_pos_as_xyz
1 x,y,z
2 -x,1/2+y,-z
_cell_length_a                   5.920(2)
_cell_length_b                   18.387(7)
_cell_length_c                   10.941(4)
_cell_angle_alpha                90
_cell_angle_beta                 91.628(5)
_cell_angle_gamma                90
_cell_volume                     1190.46
_exptl_crystal_colour            colorless
_exptl_crystal_description       blade
_cell_formula_units_Z            2
loop_
_atom_site_label
_atom_site_type_symbol
_atom_site_fract_x
_atom_site_fract_y
_atom_site_fract_z
P1 P 0.76729(13) 0.50201(4) 0.78972(7)
O1 O 1.0095(3) 0.48847(11) 0.77370(18)
O2 O 0.7155(4) 0.68179(13) 0.5168(2)
O3 O 0.8627(4) 0.63949(13) 0.3433(2)
N1 N 0.6064(4) 0.44137(14) 0.8568(2)
N2 N 0.6995(4) 0.57026(15) 0.8802(2)
N3 N 0.6559(4) 0.51482(13) 0.6475(2)
N4 N 0.4048(4) 0.56314(15) 0.5077(2)
C1 C 0.5415(5) 0.46767(19) 0.9776(3)
H1 H 0.6709 0.4596 1.0368
C2 C 0.5103(6) 0.54980(17) 0.9590(3)
H2 H 0.365 0.5581 0.9121
C3 C 0.4951(6) 0.5870(2) 1.0829(3)
H3 H 0.4775 0.6401 1.0719
H4 H 0.6347 0.5779 1.1325
C4 C 0.2898(7) 0.5558(2) 1.1476(3)
H5 H 0.2863 0.5759 1.2315
H6 H 0.1501 0.5715 1.1033
C5 C 0.2925(7) 0.4726(2) 1.1550(3)
H7 H 0.1471 0.4557 1.1873
H8 H 0.4143 0.4573 1.2133
C6 C 0.3295(6) 0.4361(2) 1.0312(3)
H9 H 0.3466 0.3829 1.0422
H10 H 0.198 0.445 0.9753
C7 C 0.6406(6) 0.36332(18) 0.8285(3)
H11 H 0.7378 0.3614 0.7553
C8 C 0.7419(6) 0.64608(18) 0.8403(3)
H12 H 0.8247 0.6425 0.7622
C9 C 0.4191(6) 0.3258(2) 0.7921(3)
H13 H 0.4514 0.2785 0.755
H14 H 0.3346 0.3561 0.7331
H15 H 0.329 0.3185 0.8649
C10 C 0.7698(6) 0.32396(19) 0.9311(3)
H16 H 0.7863 0.2725 0.9096
H17 H 0.6867 0.3281 1.0069
H18 H 0.9197 0.3459 0.9426
C11 C 0.8961(7) 0.6863(2) 0.9289(4)
H19 H 0.9283 0.7347 0.8963
H20 H 1.0377 0.6592 0.9403
H21 H 0.8226 0.6911 1.0076
C12 C 0.5259(6) 0.68799(19) 0.8106(3)
H22 H 0.5641 0.7368 0.7818
H23 H 0.4361 0.6918 0.8841
H24 H 0.4384 0.6623 0.7466
C13 C 0.4397(5) 0.53889(17) 0.6170(3)
H25 H 0.3222 0.5375 0.6743
C14 C 0.7849(5) 0.51279(17) 0.5336(2)
H26 H 0.9351 0.5369 0.5461
C15 C 0.6256(5) 0.56019(17) 0.4486(3)
H27 H 0.6096 0.5379 0.3655
C16 C 0.7319(6) 0.63519(18) 0.4410(3)
C17 C 1.0153(7) 0.7008(2) 0.3405(4)
H28 H 0.9346 0.7451 0.3633
H29 H 1.0727 0.7064 0.2579
H30 H 1.1421 0.6926 0.3984
C18 C 0.8138(5) 0.43626(17) 0.4844(3)
C19 C 0.6412(6) 0.38443(18) 0.4901(3)
H31 H 0.5045 0.3962 0.5291
C20 C 0.6687(6) 0.31581(19) 0.4391(3)
H32 H 0.551 0.2809 0.443
C21 C 0.8667(6) 0.2987(2) 0.3831(4)
H33 H 0.8849 0.2519 0.348
C22 C 1.0385(6) 0.3488(2) 0.3776(4)
H34 H 1.1751 0.3363 0.3391
C23 C 1.0132(6) 0.41785(18) 0.4281(3)
H35 H 1.1324 0.4523 0.424
loop_
_geom_bond_atom_site_label_1
_geom_bond_atom_site_label_2
_geom_bond_site_symmetry_1
_geom_bond_site_symmetry_2
P1 O1 1_555 1_555
O2 C16 1_555 1_555
O3 C16 1_555 1_555
N1 P1 1_555 1_555
N2 P1 1_555 1_555
N3 P1 1_555 1_555
N4 C13 1_555 1_555
C1 N1 1_555 1_555
H1 C1 1_555 1_555
C2 N2 1_555 1_555
H2 C2 1_555 1_555
C3 C2 1_555 1_555
H3 C3 1_555 1_555
H4 C3 1_555 1_555
C4 C3 1_555 1_555
H5 C4 1_555 1_555
H6 C4 1_555 1_555
C5 C4 1_555 1_555
H7 C5 1_555 1_555
H8 C5 1_555 1_555
C6 C1 1_555 1_555
H9 C6 1_555 1_555
H10 C6 1_555 1_555
C7 N1 1_555 1_555
H11 C7 1_555 1_555
C8 N2 1_555 1_555
H12 C8 1_555 1_555
C9 C7 1_555 1_555
H13 C9 1_555 1_555
H14 C9 1_555 1_555
H15 C9 1_555 1_555
C10 C7 1_555 1_555
H16 C10 1_555 1_555
H17 C10 1_555 1_555
H18 C10 1_555 1_555
C11 C8 1_555 1_555
H19 C11 1_555 1_555
H20 C11 1_555 1_555
H21 C11 1_555 1_555
C12 C8 1_555 1_555
H22 C12 1_555 1_555
H23 C12 1_555 1_555
H24 C12 1_555 1_555
C13 N3 1_555 1_555
H25 C13 1_555 1_555
C14 N3 1_555 1_555
H26 C14 1_555 1_555
C15 N4 1_555 1_555
H27 C15 1_555 1_555
C16 C15 1_555 1_555
C17 O3 1_555 1_555
H28 C17 1_555 1_555
H29 C17 1_555 1_555
H30 C17 1_555 1_555
C18 C14 1_555 1_555
C19 C18 1_555 1_555
H31 C19 1_555 1_555
C20 C19 1_555 1_555
H32 C20 1_555 1_555
C21 C20 1_555 1_555
H33 C21 1_555 1_555
C22 C21 1_555 1_555
H34 C22 1_555 1_555
C23 C18 1_555 1_555
H35 C23 1_555 1_555
C1 C2 1_555 1_555
C5 C6 1_555 1_555
C14 C15 1_555 1_555
C22 C23 1_555 1_555

#END
