
#######################################################################
#
#                 Cambridge Crystallographic Data Centre
#                                CCDC 
#
#######################################################################
#
# If this CIF has been generated from an entry in the Cambridge 
# Structural Database, then it will include bibliographic, chemical, 
# crystal, experimental, refinement or atomic coordinate data resulting 
# from the CCDC's data processing and validation procedures.
#
#######################################################################

data_MANMUJ09
_chemical_name_common            'bis(1H-imidazol-3-ium) bis(picrate) betaine'
_chemical_formula_moiety         '2(C3 H5 N2 1+),2(C6 H2 N3 O7 1-),C5 H11 N1 O2'
_chemical_name_systematic        
'bis(1H-imidazol-3-ium) bis(2,4,6-trinitrophenolate) (trimethylazaniumyl)acetate'
_symmetry_cell_setting           monoclinic
_symmetry_space_group_name_H-M   'C 2/c'
_symmetry_Int_Tables_number      15
_space_group_name_Hall           '-C 2yn'
loop_
_symmetry_equiv_pos_site_id
_symmetry_equiv_pos_as_xyz
1 x,y,z
2 -x,y,1/2-z
3 1/2+x,1/2+y,z
4 1/2-x,1/2+y,1/2-z
5 -x,-y,-z
6 x,-y,1/2+z
7 1/2-x,1/2-y,-z
8 1/2+x,1/2-y,1/2+z
_cell_length_a                   33.5939(5)
_cell_length_b                   7.66580(8)
_cell_length_c                   25.1324(3)
_cell_angle_alpha                90
_cell_angle_beta                 114.7162(17)
_cell_angle_gamma                90
_cell_volume                     5879.28
_exptl_crystal_colour            yellow
_exptl_crystal_description       block
_cell_formula_units_Z            8
loop_
_atom_site_label
_atom_site_type_symbol
_atom_site_fract_x
_atom_site_fract_y
_atom_site_fract_z
O1 O 0.39659(1) 0.11477(4) 0.21924(2)
O2 O 0.45291(1) -0.06039(5) 0.23144(2)
N1 N 0.40508(1) -0.36338(4) 0.23959(2)
C1 C 0.41518(1) -0.03161(5) 0.22700(2)
C2 C 0.38677(1) -0.18141(5) 0.23218(2)
C3 C 0.44714(2) -0.38073(6) 0.29348(2)
C4 C 0.37186(2) -0.48174(6) 0.24644(2)
C5 C 0.41145(3) -0.41835(8) 0.18685(2)
H1 H 0.3798(3) -0.155(1) 0.2704(4)
H2 H 0.3559(3) -0.182(1) 0.1920(4)
H3 H 0.4574(4) -0.518(2) 0.2969(5)
H4 H 0.4420(3) -0.341(1) 0.3307(4)
H5 H 0.4716(3) -0.302(1) 0.2890(4)
H6 H 0.3418(4) -0.474(1) 0.2070(5)
H7 H 0.3673(4) -0.437(1) 0.2855(5)
H8 H 0.3835(4) -0.610(1) 0.2526(6)
H9 H 0.4369(4) -0.336(2) 0.1846(6)
H10 H 0.3791(5) -0.403(2) 0.1489(5)
H11 H 0.4214(5) -0.553(2) 0.1922(6)
N2 N 0.24146(1) 0.20838(5) 0.15126(2)
N3 N 0.31006(1) 0.13683(5) 0.18950(2)
C6 C 0.27790(2) 0.20607(6) 0.14257(2)
C7 C 0.29351(2) 0.09261(7) 0.22951(2)
C8 C 0.25029(2) 0.13808(6) 0.20529(2)
H12 H 0.3443(4) 0.129(1) 0.1975(6)
H13 H 0.2813(3) 0.252(1) 0.1042(5)
H14 H 0.3136(4) 0.037(2) 0.2700(5)
H15 H 0.2263(4) 0.125(2) 0.2228(6)
H16 H 0.2117(3) 0.263(1) 0.1209(5)
O3 O 0.17912(1) 0.34340(4) 0.05781(1)
O4 O 0.15294(1) 0.31061(6) 0.14436(2)
O5 O 0.08587(1) 0.37271(5) 0.12517(2)
O6 O 0.00270(1) 0.75802(6) -0.02867(2)
O7 O 0.02410(1) 0.81800(5) -0.09680(2)
O8 O 0.15057(1) 0.53239(6) -0.09904(2)
O9 O 0.20496(1) 0.52910(5) -0.01329(2)
N4 N 0.11701(1) 0.37147(5) 0.11180(2)
N5 N 0.02857(1) 0.74385(5) -0.05122(2)
N6 N 0.16588(1) 0.52996(5) -0.04512(2)
C9 C 0.14535(1) 0.43395(5) 0.03548(2)
C10 C 0.11143(1) 0.45065(5) 0.05678(2)
C11 C 0.07336(1) 0.54622(5) 0.02828(2)
C12 C 0.06683(1) 0.63494(5) -0.02277(2)
C13 C 0.09751(1) 0.62712(5) -0.04670(2)
C14 C 0.13498(1) 0.53188(5) -0.01827(2)
H17 H 0.0496(3) 0.552(1) 0.0473(4)
H18 H 0.0929(3) 0.696(1) -0.0862(5)
N7 N 0.45078(1) 0.28494(5) 0.08823(2)
N8 N 0.48788(1) 0.12450(5) 0.16327(2)
C15 C 0.44839(2) 0.19174(5) 0.13140(2)
C16 C 0.49291(2) 0.27751(6) 0.09242(2)
C17 C 0.51645(2) 0.17618(6) 0.13973(2)
H19 H 0.4247(4) 0.346(1) 0.0542(6)
H20 H 0.4939(5) 0.043(2) 0.1984(6)
H21 H 0.4195(4) 0.176(1) 0.1391(5)
H22 H 0.5021(4) 0.346(1) 0.0639(5)
H23 H 0.5506(3) 0.142(2) 0.1589(5)
O10 O 0.39645(1) 0.45025(5) -0.00912(1)
O11 O 0.36242(1) 0.38153(6) 0.06815(2)
O12 O 0.29197(1) 0.37333(5) 0.03073(2)
O13 O 0.21301(1) 0.81437(6) -0.10838(2)
O14 O 0.23649(1) 0.89282(5) -0.17288(2)
O15 O 0.37847(1) 0.75363(5) -0.15044(2)
O16 O 0.41179(1) 0.52593(6) -0.10164(2)
N9 N 0.32633(1) 0.41977(5) 0.02963(1)
N10 N 0.24082(1) 0.81301(5) -0.12812(2)
N11 N 0.38263(1) 0.63445(5) -0.11523(2)
C18 C 0.36081(1) 0.52435(5) -0.03650(2)
C19 C 0.32410(1) 0.52499(5) -0.01976(2)
C20 C 0.28550(1) 0.61507(5) -0.04887(2)
C21 C 0.28040(1) 0.71391(5) -0.09783(2)
C22 C 0.31263(1) 0.71764(5) -0.11877(2)
C23 C 0.35083(1) 0.62401(5) -0.09009(2)
H24 H 0.2597(3) 0.611(1) -0.0330(5)
H25 H 0.3081(3) 0.794(1) -0.1581(4)
loop_
_geom_bond_atom_site_label_1
_geom_bond_atom_site_label_2
_geom_bond_site_symmetry_1
_geom_bond_site_symmetry_2
O1 C1 1_555 1_555
O2 C1 1_555 1_555
N1 C2 1_555 1_555
C1 C2 1_555 1_555
C2 H1 1_555 1_555
C3 N1 1_555 1_555
C4 N1 1_555 1_555
C5 N1 1_555 1_555
H2 C2 1_555 1_555
H3 C3 1_555 1_555
H4 C3 1_555 1_555
H5 C3 1_555 1_555
H6 C4 1_555 1_555
H7 C4 1_555 1_555
H8 C4 1_555 1_555
H9 C5 1_555 1_555
H10 C5 1_555 1_555
H11 C5 1_555 1_555
N2 C6 1_555 1_555
N3 C6 1_555 1_555
C6 H13 1_555 1_555
C7 N3 1_555 1_555
C8 N2 1_555 1_555
H12 N3 1_555 1_555
H14 C7 1_555 1_555
H15 C8 1_555 1_555
H16 N2 1_555 1_555
O3 C9 1_555 1_555
O4 N4 1_555 1_555
O5 N4 1_555 1_555
O6 N5 1_555 1_555
O7 N5 1_555 1_555
O8 N6 1_555 1_555
O9 N6 1_555 1_555
N4 C10 1_555 1_555
N5 C12 1_555 1_555
N6 C14 1_555 1_555
C9 C10 1_555 1_555
C10 C11 1_555 1_555
C11 C12 1_555 1_555
C12 C13 1_555 1_555
C13 C14 1_555 1_555
C14 C9 1_555 1_555
H17 C11 1_555 1_555
H18 C13 1_555 1_555
N7 C15 1_555 1_555
N8 C15 1_555 1_555
C15 H21 1_555 1_555
C16 N7 1_555 1_555
C17 N8 1_555 1_555
H19 N7 1_555 1_555
H20 N8 1_555 1_555
H22 C16 1_555 1_555
H23 C17 1_555 1_555
O10 C18 1_555 1_555
O11 N9 1_555 1_555
O12 N9 1_555 1_555
O13 N10 1_555 1_555
O14 N10 1_555 1_555
O15 N11 1_555 1_555
O16 N11 1_555 1_555
N9 C19 1_555 1_555
N10 C21 1_555 1_555
N11 C23 1_555 1_555
C18 C19 1_555 1_555
C19 C20 1_555 1_555
C20 C21 1_555 1_555
C21 C22 1_555 1_555
C22 C23 1_555 1_555
C23 C18 1_555 1_555
H24 C20 1_555 1_555
H25 C22 1_555 1_555
C7 C8 1_555 1_555
C16 C17 1_555 1_555

#END
