
#######################################################################
#
#                 Cambridge Crystallographic Data Centre
#                                CCDC 
#
#######################################################################
#
# If this CIF has been generated from an entry in the Cambridge 
# Structural Database, then it will include bibliographic, chemical, 
# crystal, experimental, refinement or atomic coordinate data resulting 
# from the CCDC's data processing and validation procedures.
#
#######################################################################

data_MANWUW
_chemical_name_common            hexaphenylcyclotrisiloxane
_chemical_formula_moiety         'C36 H30 O3 Si3'
_chemical_name_systematic        
2,2,4,4,6,6-hexaphenyl-1,3,5,2,4,6-trioxatrisilinane
_symmetry_cell_setting           orthorhombic
_symmetry_space_group_name_H-M   'P 21 21 21'
_symmetry_Int_Tables_number      19
_space_group_name_Hall           'P 2ac 2ab'
loop_
_symmetry_equiv_pos_site_id
_symmetry_equiv_pos_as_xyz
1 x,y,z
2 1/2-x,-y,1/2+z
3 -x,1/2+y,1/2-z
4 1/2+x,1/2-y,-z
_cell_length_a                   10.0751(9)
_cell_length_b                   15.7905(15)
_cell_length_c                   20.2225(19)
_cell_angle_alpha                90
_cell_angle_beta                 90
_cell_angle_gamma                90
_cell_volume                     3217.22
_exptl_crystal_colour            colorless
_exptl_crystal_description       prismatic
_cell_formula_units_Z            4
loop_
_atom_site_label
_atom_site_type_symbol
_atom_site_fract_x
_atom_site_fract_y
_atom_site_fract_z
Si1 Si 0.78956(10) 0.77885(6) 0.84283(4)
Si2 Si 0.67906(10) 0.60273(6) 0.83731(5)
Si3 Si 0.77073(10) 0.68928(6) 0.71296(4)
O1 O 0.7354(2) 0.68883(14) 0.87264(11)
O2 O 0.6975(3) 0.61662(14) 0.75743(10)
O3 O 0.8063(3) 0.76730(14) 0.76292(11)
C1 C 0.9521(4) 0.8050(2) 0.87989(18)
C2 C 0.9822(5) 0.7886(3) 0.9453(2)
H1 H 0.9214 0.7597 0.9716
C3 C 1.1021(5) 0.8148(4) 0.9725(2)
H2 H 1.1208 0.8035 1.0166
C4 C 1.1915(5) 0.8565(3) 0.9350(3)
H3 H 1.2716 0.8739 0.9533
C5 C 1.1648(5) 0.8731(3) 0.8707(3)
H4 H 1.2271 0.9013 0.8448
C6 C 1.0467(4) 0.8486(3) 0.8436(2)
H5 H 1.0293 0.8616 0.7996
C7 C 0.6668(4) 0.8633(2) 0.86037(18)
C8 C 0.6402(4) 0.8873(3) 0.9251(2)
H6 H 0.6830 0.8596 0.9597
C9 C 0.5520(5) 0.9513(3) 0.9393(3)
H7 H 0.5359 0.9664 0.9830
C10 C 0.4882(5) 0.9924(3) 0.8895(3)
H8 H 0.4291 1.0359 0.8992
C11 C 0.5107(5) 0.9701(3) 0.8257(3)
H9 H 0.4664 0.9980 0.7917
C12 C 0.6001(5) 0.9056(3) 0.8111(2)
H10 H 0.6150 0.8909 0.7672
C13 C 0.5010(4) 0.5892(2) 0.85625(18)
C14 C 0.4440(4) 0.5099(3) 0.8625(2)
H11 H 0.4971 0.4618 0.8597
C15 C 0.3093(5) 0.5012(4) 0.8729(3)
H12 H 0.2731 0.4473 0.8772
C16 C 0.2297(5) 0.5691(4) 0.8768(3)
H13 H 0.1391 0.5623 0.8837
C17 C 0.2828(5) 0.6487(3) 0.8707(3)
H14 H 0.2283 0.6961 0.8732
C18 C 0.4162(4) 0.6579(3) 0.8610(2)
H15 H 0.4512 0.7122 0.8574
C19 C 0.7788(4) 0.5103(2) 0.86412(17)
C20 C 0.8706(5) 0.4718(3) 0.8238(2)
H16 H 0.8815 0.4910 0.7807
C21 C 0.9471(6) 0.4050(3) 0.8464(3)
H17 H 1.0111 0.3815 0.8188
C22 C 0.9300(5) 0.3735(3) 0.9079(3)
H18 H 0.9790 0.3269 0.9219
C23 C 0.8411(5) 0.4102(3) 0.9488(2)
H19 H 0.8306 0.3896 0.9916
C24 C 0.7660(4) 0.4780(3) 0.92785(18)
H20 H 0.7056 0.5026 0.9568
C25 C 0.9256(4) 0.6461(2) 0.67800(17)
C26 C 1.0453(4) 0.6561(3) 0.7100(3)
H21 H 1.0487 0.6888 0.7483
C27 C 1.1596(6) 0.6192(4) 0.6872(3)
H22 H 1.2391 0.6268 0.7097
C28 C 1.1559(5) 0.5713(4) 0.6311(3)
H23 H 1.2335 0.5466 0.6154
C29 C 1.0403(6) 0.5593(3) 0.5981(3)
H24 H 1.0383 0.5265 0.5599
C30 C 0.9257(5) 0.5963(3) 0.6217(2)
H25 H 0.8463 0.5875 0.5992
C31 C 0.6548(4) 0.7262(2) 0.64808(17)
C32 C 0.7001(5) 0.7610(2) 0.58946(17)
H26 H 0.7910 0.7632 0.5816
C33 C 0.6147(6) 0.7925(3) 0.5425(2)
H27 H 0.6478 0.8145 0.5031
C34 C 0.4828(6) 0.7915(3) 0.5536(3)
H28 H 0.4249 0.8134 0.5221
C35 C 0.4344(5) 0.7582(4) 0.6109(3)
H29 H 0.3433 0.7576 0.6185
C36 C 0.5192(4) 0.7256(3) 0.6577(2)
H30 H 0.4847 0.7028 0.6964
loop_
_geom_bond_atom_site_label_1
_geom_bond_atom_site_label_2
_geom_bond_site_symmetry_1
_geom_bond_site_symmetry_2
Si1 O1 1_555 1_555
Si2 O1 1_555 1_555
Si3 O2 1_555 1_555
O2 Si2 1_555 1_555
O3 Si1 1_555 1_555
C1 Si1 1_555 1_555
C2 C1 1_555 1_555
H1 C2 1_555 1_555
C3 C2 1_555 1_555
H2 C3 1_555 1_555
C4 C3 1_555 1_555
H3 C4 1_555 1_555
C5 C4 1_555 1_555
H4 C5 1_555 1_555
C6 C1 1_555 1_555
H5 C6 1_555 1_555
C7 Si1 1_555 1_555
C8 C7 1_555 1_555
H6 C8 1_555 1_555
C9 C8 1_555 1_555
H7 C9 1_555 1_555
C10 C9 1_555 1_555
H8 C10 1_555 1_555
C11 C10 1_555 1_555
H9 C11 1_555 1_555
C12 C7 1_555 1_555
H10 C12 1_555 1_555
C13 Si2 1_555 1_555
C14 C13 1_555 1_555
H11 C14 1_555 1_555
C15 C14 1_555 1_555
H12 C15 1_555 1_555
C16 C15 1_555 1_555
H13 C16 1_555 1_555
C17 C16 1_555 1_555
H14 C17 1_555 1_555
C18 C13 1_555 1_555
H15 C18 1_555 1_555
C19 Si2 1_555 1_555
C20 C19 1_555 1_555
H16 C20 1_555 1_555
C21 C20 1_555 1_555
H17 C21 1_555 1_555
C22 C21 1_555 1_555
H18 C22 1_555 1_555
C23 C22 1_555 1_555
H19 C23 1_555 1_555
C24 C19 1_555 1_555
H20 C24 1_555 1_555
C25 Si3 1_555 1_555
C26 C25 1_555 1_555
H21 C26 1_555 1_555
C27 C26 1_555 1_555
H22 C27 1_555 1_555
C28 C27 1_555 1_555
H23 C28 1_555 1_555
C29 C28 1_555 1_555
H24 C29 1_555 1_555
C30 C25 1_555 1_555
H25 C30 1_555 1_555
C31 Si3 1_555 1_555
C32 C31 1_555 1_555
H26 C32 1_555 1_555
C33 C32 1_555 1_555
H27 C33 1_555 1_555
C34 C33 1_555 1_555
H28 C34 1_555 1_555
C35 C34 1_555 1_555
H29 C35 1_555 1_555
C36 C31 1_555 1_555
H30 C36 1_555 1_555
Si3 O3 1_555 1_555
C5 C6 1_555 1_555
C11 C12 1_555 1_555
C17 C18 1_555 1_555
C23 C24 1_555 1_555
C29 C30 1_555 1_555
C35 C36 1_555 1_555

#END
