
#######################################################################
#
#                 Cambridge Crystallographic Data Centre
#                                CCDC 
#
#######################################################################
#
# If this CIF has been generated from an entry in the Cambridge 
# Structural Database, then it will include bibliographic, chemical, 
# crystal, experimental, refinement or atomic coordinate data resulting 
# from the CCDC's data processing and validation procedures.
#
#######################################################################

data_MANXIK
_chemical_formula_moiety         'C22 H16 Br2 F2 N2 O2'
_chemical_name_systematic        
4-Bromo-N'-(1-(4-bromophenyl)-2,2-difluoro-3-oxo-3-phenylpropyl)benzohydrazide
_symmetry_cell_setting           monoclinic
_symmetry_space_group_name_H-M   'P 21'
_symmetry_Int_Tables_number      4
_space_group_name_Hall           'P 2yb'
loop_
_symmetry_equiv_pos_site_id
_symmetry_equiv_pos_as_xyz
1 x,y,z
2 -x,1/2+y,-z
_cell_length_a                   12.249(4)
_cell_length_b                   5.5446(19)
_cell_length_c                   16.208(6)
_cell_angle_alpha                90
_cell_angle_beta                 104.895(4)
_cell_angle_gamma                90
_cell_volume                     1063.79
_exptl_crystal_colour            colorless
_exptl_crystal_description       prismatic
_chemical_melting_point          '139-142 deg.C'
_cell_formula_units_Z            2
loop_
_atom_site_label
_atom_site_type_symbol
_atom_site_fract_x
_atom_site_fract_y
_atom_site_fract_z
Br1 Br 0.57616(7) 0.2238(2) 0.07891(4)
Br2 Br 1.15523(9) 0.2732(3) 1.01050(5)
F1 F 0.6376(3) 0.6419(7) 0.4742(2)
F2 F 0.5928(2) 0.2713(7) 0.49209(19)
O1 O 0.7870(3) 0.6504(7) 0.6256(3)
O2 O 1.0116(3) 0.3794(9) 0.5773(3)
N1 N 0.8214(4) 0.1192(7) 0.4998(3)
N2 N 0.8734(3) 0.1257(8) 0.5877(3)
C1 C 0.7255(7) 0.4220(14) 0.7564(4)
H1 H 0.7693 0.5610 0.7676
C2 C 0.6983(9) 0.301(2) 0.8223(5)
H2 H 0.7241 0.3595 0.8776
C3 C 0.6352(7) 0.0991(18) 0.8086(5)
H3 H 0.6166 0.0208 0.8539
C4 C 0.5979(6) 0.0086(15) 0.7258(6)
H4 H 0.5550 -0.1318 0.7152
C5 C 0.6258(5) 0.1304(12) 0.6604(4)
H5 H 0.6017 0.0699 0.6051
C6 C 0.6881(4) 0.3386(9) 0.6741(3)
C7 C 0.7237(4) 0.4754(9) 0.6075(3)
C8 C 0.6812(4) 0.4289(9) 0.5108(3)
C9 C 0.7710(4) 0.3507(9) 0.4657(3)
H6 H 0.8305 0.4735 0.4754
C10 C 0.7228(4) 0.3204(9) 0.3714(3)
C11 C 0.7417(5) 0.4947(10) 0.3156(4)
H7 H 0.7835 0.6315 0.3368
C12 C 0.6987(5) 0.4669(12) 0.2284(4)
H8 H 0.7115 0.5835 0.1907
C13 C 0.6359(5) 0.2609(12) 0.1981(3)
C14 C 0.6181(5) 0.0843(11) 0.2519(4)
H9 H 0.5777 -0.0541 0.2306
C15 C 0.6616(5) 0.1163(10) 0.3392(3)
H10 H 0.6494 -0.0016 0.3767
C16 C 0.9680(4) 0.2548(9) 0.6217(3)
C17 C 1.0102(4) 0.2469(10) 0.7163(3)
C18 C 1.0781(5) 0.4353(11) 0.7547(4)
H11 H 1.0958 0.5583 0.7213
C19 C 1.1198(6) 0.4424(14) 0.8422(4)
H12 H 1.1645 0.5708 0.8682
C20 C 1.0945(5) 0.2580(17) 0.8904(4)
C21 C 1.0288(6) 0.0688(16) 0.8544(4)
H13 H 1.0124 -0.0542 0.8884
C22 C 0.9867(6) 0.0615(12) 0.7667(4)
H14 H 0.9424 -0.0681 0.7413
H15 H 0.878(3) 0.098(10) 0.480(3)
H16 H 0.851(4) 0.007(6) 0.614(3)
loop_
_geom_bond_atom_site_label_1
_geom_bond_atom_site_label_2
_geom_bond_site_symmetry_1
_geom_bond_site_symmetry_2
Br1 C13 1_555 1_555
Br2 C20 1_555 1_555
F1 C8 1_555 1_555
F2 C8 1_555 1_555
O1 C7 1_555 1_555
O2 C16 1_555 1_555
N1 N2 1_555 1_555
N2 C16 1_555 1_555
C1 H1 1_555 1_555
C2 C1 1_555 1_555
H2 C2 1_555 1_555
C3 C2 1_555 1_555
H3 C3 1_555 1_555
C4 C3 1_555 1_555
H4 C4 1_555 1_555
C5 C4 1_555 1_555
H5 C5 1_555 1_555
C6 C1 1_555 1_555
C7 C6 1_555 1_555
C8 C7 1_555 1_555
C9 N1 1_555 1_555
H6 C9 1_555 1_555
C10 C9 1_555 1_555
C11 C10 1_555 1_555
H7 C11 1_555 1_555
C12 C11 1_555 1_555
H8 C12 1_555 1_555
C13 C12 1_555 1_555
C14 C13 1_555 1_555
H9 C14 1_555 1_555
C15 C10 1_555 1_555
H10 C15 1_555 1_555
C16 C17 1_555 1_555
C17 C18 1_555 1_555
C18 H11 1_555 1_555
C19 C18 1_555 1_555
H12 C19 1_555 1_555
C20 C19 1_555 1_555
C21 C20 1_555 1_555
H13 C21 1_555 1_555
C22 C17 1_555 1_555
H14 C22 1_555 1_555
H15 N1 1_555 1_555
H16 N2 1_555 1_555
C5 C6 1_555 1_555
C8 C9 1_555 1_555
C14 C15 1_555 1_555
C21 C22 1_555 1_555

#END
