
#######################################################################
#
#                 Cambridge Crystallographic Data Centre
#                                CCDC 
#
#######################################################################
#
# If this CIF has been generated from an entry in the Cambridge 
# Structural Database, then it will include bibliographic, chemical, 
# crystal, experimental, refinement or atomic coordinate data resulting 
# from the CCDC's data processing and validation procedures.
#
#######################################################################

data_MAPCUD
_chemical_formula_moiety         'C23 H20 B1 F2 N3 O1'
_chemical_name_systematic        
5,5-Difluoro-10-mesityl-3-(5-formyl-1H-pyrrol-2-yl)-5H-4\l^5^,5\l^5^-dipyrrolo[1,2-c:2',1'-f][1,3,2]diazaborinine
_symmetry_cell_setting           monoclinic
_symmetry_space_group_name_H-M   'P 21/c'
_symmetry_Int_Tables_number      14
_space_group_name_Hall           '-P 2ybc'
loop_
_symmetry_equiv_pos_site_id
_symmetry_equiv_pos_as_xyz
1 x,y,z
2 -x,1/2+y,1/2-z
3 -x,-y,-z
4 x,1/2-y,1/2+z
_cell_length_a                   36.086(17)
_cell_length_b                   13.768(7)
_cell_length_c                   7.995(4)
_cell_angle_alpha                90
_cell_angle_beta                 95.653(6)
_cell_angle_gamma                90
_cell_volume                     3952.85
_exptl_crystal_colour            colorless
_exptl_crystal_description       block
_cell_formula_units_Z            8
loop_
_atom_site_label
_atom_site_type_symbol
_atom_site_fract_x
_atom_site_fract_y
_atom_site_fract_z
B1 B 0.4192(3) -0.0503(9) 0.3854(14)
C1 C 0.3923(3) -0.2061(9) 0.5120(18)
H1 H 0.4096 -0.2498 0.4768
C2 C 0.3624(4) -0.2299(10) 0.598(2)
H2 H 0.3557 -0.2921 0.6286
C3 C 0.3443(3) -0.1460(9) 0.6299(17)
H3 H 0.3233 -0.1407 0.6878
C4 C 0.3626(3) -0.0716(8) 0.5619(16)
C5 C 0.3568(3) 0.0324(8) 0.5674(14)
C6 C 0.3810(3) 0.0923(8) 0.4931(15)
C7 C 0.3814(3) 0.1953(8) 0.4824(15)
H4 H 0.3643 0.2369 0.5248
C8 C 0.4105(3) 0.2230(9) 0.4011(17)
H5 H 0.4170 0.2860 0.3743
C9 C 0.4297(3) 0.1345(8) 0.3640(14)
C10 C 0.4628(3) 0.1381(9) 0.2793(17)
C11 C 0.4780(3) 0.2207(11) 0.2101(18)
H6 H 0.4683 0.2832 0.2085
C12 C 0.5107(3) 0.1910(10) 0.1436(19)
H7 H 0.5266 0.2305 0.0889
C13 C 0.5150(3) 0.0938(10) 0.1737(15)
C14 C 0.5455(3) 0.0328(13) 0.1400(19)
H8 H 0.5641 0.0576 0.0790
C15 C 0.3238(3) 0.0692(7) 0.6423(13)
C16 C 0.2935(3) 0.1006(8) 0.5371(16)
C17 C 0.2610(3) 0.1246(9) 0.6204(18)
H9 H 0.2393 0.1421 0.5547
C18 C 0.2605(4) 0.1230(9) 0.7905(19)
C19 C 0.2896(3) 0.0900(8) 0.8837(15)
H10 H 0.2870 0.0786 0.9966
C20 C 0.3250(3) 0.0702(8) 0.8263(14)
C21 C 0.2944(4) 0.1075(9) 0.3514(12)
H11 H 0.3067 0.1664 0.3244
H12 H 0.2694 0.1078 0.2978
H13 H 0.3076 0.0528 0.3124
C22 C 0.2251(5) 0.1492(12) 0.871(2)
H14 H 0.2071 0.0982 0.8504
H15 H 0.2151 0.2088 0.8238
H16 H 0.2310 0.1570 0.9902
C23 C 0.3575(3) 0.0359(10) 0.9411(13)
H17 H 0.3533 -0.0299 0.9745
H18 H 0.3605 0.0767 1.0388
H19 H 0.3796 0.0387 0.8836
F1 F 0.45558(17) -0.0761(5) 0.4456(9)
F2 F 0.4143(2) -0.0713(5) 0.2167(9)
N1 N 0.3926(3) -0.1075(7) 0.4866(12)
N2 N 0.4121(2) 0.0588(6) 0.4160(12)
N3 N 0.4865(3) 0.0636(8) 0.2537(13)
H39 H 0.4834 0.0046 0.2852
O2 O 0.5478(3) -0.0531(8) 0.1910(13)
B2 B 0.0807(3) 0.4497(10) 1.1109(17)
C24 C 0.1083(4) 0.2962(9) 0.9910(18)
H20 H 0.0914 0.2531 1.0313
C25 C 0.1374(4) 0.2697(9) 0.902(2)
H21 H 0.1433 0.2073 0.8687
C26 C 0.1563(3) 0.3551(8) 0.8709(17)
H22 H 0.1776 0.3605 0.8154
C27 C 0.1368(3) 0.4317(8) 0.9396(14)
C28 C 0.1433(3) 0.5290(8) 0.9431(12)
C29 C 0.1186(3) 0.5915(9) 1.0022(13)
C30 C 0.1180(3) 0.6941(9) 1.0191(16)
H23 H 0.1353 0.7363 0.9794
C31 C 0.0897(4) 0.7207(9) 1.0986(18)
H24 H 0.0837 0.7843 1.1237
C32 C 0.0698(3) 0.6373(7) 1.1403(12)
C33 C 0.0361(3) 0.6390(8) 1.2213(13)
C34 C 0.0214(3) 0.7190(9) 1.2933(17)
H25 H 0.0315 0.7812 1.2985
C35 C -0.0109(4) 0.6902(10) 1.3563(19)
H26 H -0.0269 0.7305 1.4087
C36 C -0.0157(4) 0.5941(10) 1.3301(16)
C37 C -0.0449(4) 0.5280(10) 1.3569(17)
H27 H -0.0636 0.5523 1.4174
C38 C 0.1753(3) 0.5676(7) 0.8553(14)
C39 C 0.2090(3) 0.5955(9) 0.9639(15)
C40 C 0.2382(3) 0.6233(9) 0.8837(15)
H28 H 0.2596 0.6431 0.9490
C41 C 0.2387(4) 0.6249(8) 0.7093(15)
C42 C 0.2029(3) 0.6048(7) 0.6028(12)
H29 H 0.1998 0.6155 0.4875
C43 C 0.1765(3) 0.5708(9) 0.6875(15)
C44 C 0.2125(3) 0.5909(9) 1.1469(17)
H30 H 0.2381 0.5987 1.1894
H31 H 0.2036 0.5291 1.1819
H32 H 0.1979 0.6418 1.1901
C45 C 0.2754(4) 0.6503(11) 0.636(2)
H33 H 0.2849 0.7103 0.6836
H34 H 0.2708 0.6570 0.5162
H35 H 0.2932 0.5995 0.6623
C46 C 0.1427(4) 0.5449(11) 0.5712(17)
H36 H 0.1456 0.5690 0.4606
H37 H 0.1210 0.5736 0.6114
H38 H 0.1399 0.4756 0.5673
F3 F 0.04461(18) 0.4238(5) 1.0580(9)
F4 F 0.0867(2) 0.4276(5) 1.2815(9)
N4 N 0.1076(3) 0.3922(7) 1.0117(12)
N5 N 0.0882(2) 0.5591(6) 1.0838(11)
N6 N 0.0138(3) 0.5624(6) 1.2462(11)
H40 H 0.0174 0.5037 1.2151
O1 O -0.0486(3) 0.4458(8) 1.3121(15)
loop_
_geom_bond_atom_site_label_1
_geom_bond_atom_site_label_2
_geom_bond_site_symmetry_1
_geom_bond_site_symmetry_2
B1 F1 1_555 1_555
B2 F3 1_555 1_555
C1 H1 1_555 1_555
C2 C1 1_555 1_555
H2 C2 1_555 1_555
C3 C2 1_555 1_555
H3 C3 1_555 1_555
C4 C3 1_555 1_555
C5 C4 1_555 1_555
C6 C5 1_555 1_555
C7 C6 1_555 1_555
H4 C7 1_555 1_555
C8 C7 1_555 1_555
H5 C8 1_555 1_555
C9 C8 1_555 1_555
C10 C9 1_555 1_555
C11 C10 1_555 1_555
H6 C11 1_555 1_555
C12 C11 1_555 1_555
H7 C12 1_555 1_555
C13 C12 1_555 1_555
C14 C13 1_555 1_555
H8 C14 1_555 1_555
C15 C5 1_555 1_555
C16 C15 1_555 1_555
C17 C16 1_555 1_555
H9 C17 1_555 1_555
C18 C17 1_555 1_555
C19 C18 1_555 1_555
H10 C19 1_555 1_555
C20 C15 1_555 1_555
C21 C16 1_555 1_555
H11 C21 1_555 1_555
H12 C21 1_555 1_555
H13 C21 1_555 1_555
C22 C18 1_555 1_555
H14 C22 1_555 1_555
H15 C22 1_555 1_555
H16 C22 1_555 1_555
C23 C20 1_555 1_555
H17 C23 1_555 1_555
H18 C23 1_555 1_555
H19 C23 1_555 1_555
C24 H20 1_555 1_555
C25 C24 1_555 1_555
H21 C25 1_555 1_555
C26 C25 1_555 1_555
H22 C26 1_555 1_555
C27 C26 1_555 1_555
C28 C27 1_555 1_555
C29 C28 1_555 1_555
C30 C29 1_555 1_555
H23 C30 1_555 1_555
C31 C30 1_555 1_555
H24 C31 1_555 1_555
C32 C31 1_555 1_555
C33 C32 1_555 1_555
C34 C33 1_555 1_555
H25 C34 1_555 1_555
C35 C34 1_555 1_555
H26 C35 1_555 1_555
C36 C35 1_555 1_555
C37 C36 1_555 1_555
H27 C37 1_555 1_555
C38 C28 1_555 1_555
C39 C38 1_555 1_555
C40 C39 1_555 1_555
H28 C40 1_555 1_555
C41 C40 1_555 1_555
C42 C41 1_555 1_555
H29 C42 1_555 1_555
C43 C38 1_555 1_555
C44 C39 1_555 1_555
H30 C44 1_555 1_555
H31 C44 1_555 1_555
H32 C44 1_555 1_555
C45 C41 1_555 1_555
H33 C45 1_555 1_555
H34 C45 1_555 1_555
H35 C45 1_555 1_555
C46 C43 1_555 1_555
H36 C46 1_555 1_555
H37 C46 1_555 1_555
H38 C46 1_555 1_555
F2 B1 1_555 1_555
F4 B2 1_555 1_555
N1 B1 1_555 1_555
N2 B1 1_555 1_555
N3 C10 1_555 1_555
H39 N3 1_555 1_555
N4 B2 1_555 1_555
N5 B2 1_555 1_555
N6 C33 1_555 1_555
H40 N6 1_555 1_555
O1 C37 1_555 1_555
O2 C14 1_555 1_555
C1 N1 1_555 1_555
C4 N1 1_555 1_555
C6 N2 1_555 1_555
C9 N2 1_555 1_555
C13 N3 1_555 1_555
C19 C20 1_555 1_555
C24 N4 1_555 1_555
C27 N4 1_555 1_555
C29 N5 1_555 1_555
C32 N5 1_555 1_555
C36 N6 1_555 1_555
C42 C43 1_555 1_555

#END
