
#######################################################################
#
#                 Cambridge Crystallographic Data Centre
#                                CCDC 
#
#######################################################################
#
# If this CIF has been generated from an entry in the Cambridge 
# Structural Database, then it will include bibliographic, chemical, 
# crystal, experimental, refinement or atomic coordinate data resulting 
# from the CCDC's data processing and validation procedures.
#
#######################################################################

data_MAPJIZ
_chemical_formula_moiety         'C53 H42 B2 F20 N1 P1 S1,2(C1 H2 Cl2)'
_chemical_name_systematic        
'2,2,8,8-tetrakis(pentafluorophenyl)-9-phenyl-5-(2,4,6-tri-t-butylphenyl)-[1,5,2]thiaphosphaborinino[5,6-e][1,5,2]azaphosphaborinine dichloromethane solvate'
_symmetry_cell_setting           monoclinic
_symmetry_space_group_name_H-M   'P 21/c'
_symmetry_Int_Tables_number      14
_space_group_name_Hall           '-P 2ybc'
loop_
_symmetry_equiv_pos_site_id
_symmetry_equiv_pos_as_xyz
1 x,y,z
2 -x,1/2+y,1/2-z
3 -x,-y,-z
4 x,1/2-y,1/2+z
_cell_length_a                   15.6705(6)
_cell_length_b                   20.6824(7)
_cell_length_c                   18.4644(7)
_cell_angle_alpha                90
_cell_angle_beta                 111.5510(10)
_cell_angle_gamma                90
_cell_volume                     5566.02
_exptl_crystal_colour            yellow
_exptl_crystal_description       prism
_cell_formula_units_Z            4
loop_
_atom_site_label
_atom_site_type_symbol
_atom_site_fract_x
_atom_site_fract_y
_atom_site_fract_z
S1 S 0.40917(3) 0.61384(2) 0.37940(3)
P1 P 0.37901(3) 0.75590(2) 0.39864(3)
N1 N 0.26494(10) 0.65734(7) 0.40994(9)
C1 C 0.34989(13) 0.76059(9) 0.29386(11)
H1 H 0.2848 0.7482 0.2673
H2 H 0.3566 0.8059 0.2796
C2 C 0.40975(13) 0.71687(9) 0.26402(11)
H3 H 0.4744 0.7301 0.2915
H4 H 0.3941 0.7271 0.2082
C3 C 0.30204(13) 0.80462(9) 0.43036(12)
H5 H 0.3372 0.8413 0.4616
H6 H 0.2534 0.8228 0.3838
C4 C 0.25621(13) 0.76787(9) 0.47881(11)
H7 H 0.2151 0.7979 0.4922
H8 H 0.3044 0.7537 0.5281
C5 C 0.34127(13) 0.67101(9) 0.39906(11)
C6 C 0.50381(13) 0.76837(9) 0.44169(11)
C7 C 0.54163(13) 0.81411(9) 0.40207(11)
C8 C 0.62755(13) 0.80034(9) 0.40051(11)
H9 H 0.6512 0.8285 0.3717
C9 C 0.68136(13) 0.74811(10) 0.43828(12)
C10 C 0.65029(13) 0.71249(10) 0.48699(11)
H10 H 0.689 0.6798 0.5182
C11 C 0.56454(13) 0.72230(9) 0.49250(11)
C12 C 0.50646(13) 0.88296(9) 0.36947(12)
C13 C 0.42199(14) 0.90739(10) 0.38422(13)
H11 H 0.4116 0.953 0.3694
H12 H 0.4321 0.9027 0.4396
H13 H 0.3682 0.882 0.3531
C14 C 0.49079(15) 0.88954(10) 0.28223(12)
H14 H 0.4403 0.8612 0.2517
H15 H 0.5468 0.8771 0.2739
H16 H 0.4753 0.9345 0.2658
C15 C 0.58375(14) 0.93122(10) 0.41486(13)
H17 H 0.5633 0.9755 0.3987
H18 H 0.6389 0.922 0.4036
H19 H 0.5977 0.9266 0.4709
C16 C 0.77531(14) 0.73811(10) 0.43165(12)
C17 C 0.83601(15) 0.79668(13) 0.46893(14)
H20 H 0.8404 0.8013 0.523
H21 H 0.8089 0.8359 0.4397
H22 H 0.8975 0.7902 0.4678
C18 C 0.82312(18) 0.67779(14) 0.47390(19)
H23 H 0.832 0.6811 0.5292
H24 H 0.8829 0.6735 0.4687
H25 H 0.7854 0.6398 0.4512
C19 C 0.76289(16) 0.73303(12) 0.34540(14)
H26 H 0.8224 0.7243 0.3412
H27 H 0.7381 0.7738 0.319
H28 H 0.7203 0.6977 0.321
C20 C 0.55465(13) 0.69014(10) 0.56509(11)
C21 C 0.62973(14) 0.72246(11) 0.63598(12)
H29 H 0.6222 0.7695 0.6322
H30 H 0.6905 0.711 0.6362
H31 H 0.6239 0.7073 0.6842
C22 C 0.57165(15) 0.61671(10) 0.57077(13)
H32 H 0.5687 0.6006 0.6197
H33 H 0.6324 0.6076 0.5694
H34 H 0.5247 0.5952 0.5268
C23 C 0.46431(13) 0.70428(10) 0.57477(12)
H35 H 0.415 0.6798 0.5359
H36 H 0.451 0.7506 0.5675
H37 H 0.4687 0.6915 0.6271
B1 B 0.40572(15) 0.63916(11) 0.27132(13)
C24 C 0.49607(14) 0.60795(9) 0.25927(12)
F1 F 0.57653(9) 0.56525(8) 0.38573(8)
C25 C 0.57119(14) 0.57651(11) 0.31230(13)
F2 F 0.71369(9) 0.52182(8) 0.34880(9)
C26 C 0.64416(15) 0.55276(11) 0.29464(14)
F3 F 0.71370(9) 0.53622(7) 0.20288(9)
C27 C 0.64423(15) 0.56034(11) 0.22071(15)
F4 F 0.56950(11) 0.59772(7) 0.09252(9)
C28 C 0.57161(16) 0.59097(11) 0.16550(13)
F5 F 0.42948(9) 0.64126(6) 0.12702(7)
C29 C 0.50009(15) 0.61335(10) 0.18542(12)
C30 C 0.31477(13) 0.59978(10) 0.21516(11)
F6 F 0.38289(8) 0.50038(6) 0.27265(7)
C31 C 0.31083(14) 0.53247(10) 0.22094(12)
F7 F 0.23921(9) 0.43032(6) 0.18667(8)
C32 C 0.23710(15) 0.49496(10) 0.17746(13)
F8 F 0.08895(9) 0.48899(7) 0.07947(8)
C33 C 0.16175(15) 0.52423(12) 0.12383(13)
F9 F 0.08945(9) 0.61903(7) 0.05968(7)
C34 C 0.16190(14) 0.59027(11) 0.11402(12)
F10 F 0.23262(8) 0.69029(6) 0.14376(7)
C35 C 0.23762(14) 0.62611(10) 0.15886(12)
B2 B 0.19747(15) 0.70542(10) 0.43554(13)
C36 C 0.15780(13) 0.66181(9) 0.49144(12)
F11 F 0.28959(8) 0.67816(6) 0.60727(7)
C37 C 0.20431(14) 0.65314(10) 0.57098(12)
F12 F 0.22191(10) 0.61226(7) 0.69552(7)
C38 C 0.17200(15) 0.61741(10) 0.61884(12)
F13 F 0.05602(10) 0.55204(7) 0.63337(8)
C39 C 0.08861(15) 0.58658(10) 0.58761(13)
F14 F -0.04153(8) 0.56164(6) 0.47708(8)
C40 C 0.03947(14) 0.59184(10) 0.50904(13)
F15 F 0.02041(8) 0.63102(6) 0.38717(7)
C41 C 0.07414(13) 0.62889(10) 0.46380(12)
C42 C 0.11244(13) 0.73348(9) 0.35847(12)
F16 F 0.15917(8) 0.69560(6) 0.25728(7)
C43 C 0.10056(13) 0.73061(10) 0.28057(12)
F17 F 0.02633(10) 0.75691(7) 0.14695(7)
C44 C 0.03083(15) 0.76166(11) 0.22067(13)
F18 F -0.10061(10) 0.82790(8) 0.18230(9)
C45 C -0.03233(15) 0.79753(11) 0.23860(14)
F19 F -0.08367(9) 0.84050(7) 0.33325(9)
C46 C -0.02451(15) 0.80298(11) 0.31505(14)
F20 F 0.04898(8) 0.77918(6) 0.44592(7)
C47 C 0.04594(14) 0.77147(10) 0.37210(13)
C48 C 0.23814(13) 0.58900(9) 0.40326(11)
C49 C 0.17060(14) 0.56637(10) 0.33603(12)
H38 H 0.145 0.5938 0.2921
C50 C 0.14072(15) 0.50284(11) 0.33387(13)
H39 H 0.0946 0.4866 0.288
C51 C 0.17783(16) 0.46329(10) 0.39818(14)
H40 H 0.1562 0.4202 0.3969
C52 C 0.24662(15) 0.48650(10) 0.46452(13)
H41 H 0.2728 0.4589 0.5083
C53 C 0.27730(14) 0.54936(10) 0.46740(12)
H42 H 0.3246 0.5652 0.5128
C54 C 0.12744(18) 0.55767(12) 0.91274(14)
H43 H 0.1191 0.5996 0.9352
H44 H 0.0798 0.5275 0.9157
Cl1 Cl 0.23631(5) 0.52648(4) 0.96718(4)
Cl2 Cl 0.11372(5) 0.56896(3) 0.81418(4)
C55 C 0.89143(19) 0.60609(15) 0.20604(17)
H45 H 0.8592 0.5643 0.202
H46 H 0.9292 0.6134 0.2616
Cl3 Cl 0.81005(5) 0.66815(3) 0.17333(5)
Cl4 Cl 0.96359(4) 0.60167(3) 0.15245(4)
loop_
_geom_bond_atom_site_label_1
_geom_bond_atom_site_label_2
_geom_bond_site_symmetry_1
_geom_bond_site_symmetry_2
S1 C5 1_555 1_555
P1 C1 1_555 1_555
N1 C5 1_555 1_555
C1 H1 1_555 1_555
H2 C1 1_555 1_555
C2 C1 1_555 1_555
H3 C2 1_555 1_555
H4 C2 1_555 1_555
C3 P1 1_555 1_555
H5 C3 1_555 1_555
H6 C3 1_555 1_555
C4 C3 1_555 1_555
H7 C4 1_555 1_555
H8 C4 1_555 1_555
C5 P1 1_555 1_555
C6 P1 1_555 1_555
C7 C6 1_555 1_555
C8 C7 1_555 1_555
H9 C8 1_555 1_555
C9 C8 1_555 1_555
C10 C9 1_555 1_555
H10 C10 1_555 1_555
C11 C6 1_555 1_555
C12 C7 1_555 1_555
C13 C12 1_555 1_555
H11 C13 1_555 1_555
H12 C13 1_555 1_555
H13 C13 1_555 1_555
C14 C12 1_555 1_555
H14 C14 1_555 1_555
H15 C14 1_555 1_555
H16 C14 1_555 1_555
C15 C12 1_555 1_555
H17 C15 1_555 1_555
H18 C15 1_555 1_555
H19 C15 1_555 1_555
C16 C9 1_555 1_555
C17 C16 1_555 1_555
H20 C17 1_555 1_555
H21 C17 1_555 1_555
H22 C17 1_555 1_555
C18 C16 1_555 1_555
H23 C18 1_555 1_555
H24 C18 1_555 1_555
H25 C18 1_555 1_555
C19 C16 1_555 1_555
H26 C19 1_555 1_555
H27 C19 1_555 1_555
H28 C19 1_555 1_555
C20 C11 1_555 1_555
C21 C20 1_555 1_555
H29 C21 1_555 1_555
H30 C21 1_555 1_555
H31 C21 1_555 1_555
C22 C20 1_555 1_555
H32 C22 1_555 1_555
H33 C22 1_555 1_555
H34 C22 1_555 1_555
C23 C20 1_555 1_555
H35 C23 1_555 1_555
H36 C23 1_555 1_555
H37 C23 1_555 1_555
B1 S1 1_555 1_555
C24 B1 1_555 1_555
F1 C25 1_555 1_555
C25 C24 1_555 1_555
F2 C26 1_555 1_555
C26 C25 1_555 1_555
F3 C27 1_555 1_555
C27 C26 1_555 1_555
F4 C28 1_555 1_555
C28 C27 1_555 1_555
F5 C29 1_555 1_555
C29 C24 1_555 1_555
C30 B1 1_555 1_555
F6 C31 1_555 1_555
C31 C30 1_555 1_555
F7 C32 1_555 1_555
C32 C31 1_555 1_555
F8 C33 1_555 1_555
C33 C32 1_555 1_555
F9 C34 1_555 1_555
C34 C33 1_555 1_555
F10 C35 1_555 1_555
C35 C30 1_555 1_555
B2 N1 1_555 1_555
C36 B2 1_555 1_555
F11 C37 1_555 1_555
C37 C36 1_555 1_555
F12 C38 1_555 1_555
C38 C37 1_555 1_555
F13 C39 1_555 1_555
C39 C38 1_555 1_555
F14 C40 1_555 1_555
C40 C39 1_555 1_555
F15 C41 1_555 1_555
C41 C36 1_555 1_555
C42 B2 1_555 1_555
F16 C43 1_555 1_555
C43 C42 1_555 1_555
F17 C44 1_555 1_555
C44 C43 1_555 1_555
F18 C45 1_555 1_555
C45 C44 1_555 1_555
F19 C46 1_555 1_555
C46 C45 1_555 1_555
F20 C47 1_555 1_555
C47 C42 1_555 1_555
C48 N1 1_555 1_555
C49 C48 1_555 1_555
H38 C49 1_555 1_555
C50 C49 1_555 1_555
H39 C50 1_555 1_555
C51 C50 1_555 1_555
H40 C51 1_555 1_555
C52 C51 1_555 1_555
H41 C52 1_555 1_555
C53 C48 1_555 1_555
H42 C53 1_555 1_555
C54 H43 1_555 1_555
H44 C54 1_555 1_555
Cl1 C54 1_555 1_555
Cl2 C54 1_555 1_555
C55 H45 1_555 1_555
H46 C55 1_555 1_555
Cl3 C55 1_555 1_555
Cl4 C55 1_555 1_555
C2 B1 1_555 1_555
C4 B2 1_555 1_555
C10 C11 1_555 1_555
C28 C29 1_555 1_555
C34 C35 1_555 1_555
C40 C41 1_555 1_555
C46 C47 1_555 1_555
C52 C53 1_555 1_555

#END
