
#######################################################################
#
#                 Cambridge Crystallographic Data Centre
#                                CCDC 
#
#######################################################################
#
# If this CIF has been generated from an entry in the Cambridge 
# Structural Database, then it will include bibliographic, chemical, 
# crystal, experimental, refinement or atomic coordinate data resulting 
# from the CCDC's data processing and validation procedures.
#
#######################################################################

data_MAPJAP
_chemical_formula_moiety         'C28 H32 N6 O6'
_chemical_name_systematic        
'Diethyl 2,6-dibenzyl-4,8-dioxo-tetrahydro-2,3a,4a,6,7a,8a-hexaazacyclopenta(def)fluorene-8b,8c-dicarboxylate'
_symmetry_cell_setting           triclinic
_symmetry_space_group_name_H-M   'P -1'
_symmetry_Int_Tables_number      2
_space_group_name_Hall           '-P 1'
loop_
_symmetry_equiv_pos_site_id
_symmetry_equiv_pos_as_xyz
1 x,y,z
2 -x,-y,-z
_cell_length_a                   7.6177(6)
_cell_length_b                   12.2882(9)
_cell_length_c                   14.9197(11)
_cell_angle_alpha                95.0080(10)
_cell_angle_beta                 101.4150(10)
_cell_angle_gamma                92.7550(10)
_cell_volume                     1360.69
_exptl_crystal_colour            colorless
_exptl_crystal_description       block
_cell_formula_units_Z            2
_exptl_crystal_recrystallization_method 'ethyl acetate'
loop_
_atom_site_label
_atom_site_type_symbol
_atom_site_fract_x
_atom_site_fract_y
_atom_site_fract_z
C1 C -0.0943(6) 0.6194(3) -0.1051(3)
H1 H 0.0222 0.6322 -0.1138
C2 C -0.2342(7) 0.5842(4) -0.1814(3)
H2 H -0.2112 0.5737 -0.2404
C3 C -0.4033(7) 0.5661(4) -0.1662(4)
H3 H -0.4975 0.5422 -0.2149
C4 C -0.4334(7) 0.5831(4) -0.0799(4)
H4 H -0.5495 0.5709 -0.0705
C5 C -0.3001(6) 0.6176(4) -0.0062(3)
H5 H -0.3260 0.6292 0.0521
C6 C -0.1303(5) 0.6347(3) -0.0181(2)
C7 C 0.0193(5) 0.6695(3) 0.0649(2)
H6 H -0.0333 0.6845 0.1184
H7 H 0.0959 0.6092 0.0761
C8 C 0.2878(4) 0.7873(3) 0.1252(2)
H8 H 0.3737 0.8322 0.1020
H9 H 0.3412 0.7190 0.1388
C9 C 0.0317(4) 0.8614(2) 0.03958(18)
H10 H -0.0809 0.8420 -0.0035
H11 H 0.1021 0.9119 0.0121
C10 C -0.1640(3) 0.8962(2) 0.15436(18)
C11 C 0.2147(3) 0.7853(2) 0.28057(19)
C12 C 0.1466(3) 0.9374(2) 0.20090(18)
C13 C 0.2473(4) 1.0457(2) 0.19003(19)
C14 C 0.5397(10) 1.1343(6) 0.2004(5)
H12 H 0.4803 1.1999 0.2144
H13 H 0.6419 1.1281 0.2496
C15 C 0.5946(11) 1.1350(6) 0.1105(5)
H14 H 0.6547 1.0699 0.0990
H15 H 0.6744 1.1982 0.1116
H16 H 0.4903 1.1374 0.0628
C16 C 0.0558(3) 0.9435(2) 0.28596(18)
C17 C 0.1019(4) 1.0491(2) 0.3524(2)
C18 C 0.3435(5) 1.1665(3) 0.4375(3)
H17 H 0.3270 1.2273 0.4001
H18 H 0.2774 1.1781 0.4864
C19 C 0.5332(6) 1.1602(4) 0.4762(3)
H19 H 0.5477 1.1035 0.5169
H20 H 0.5807 1.2291 0.5098
H21 H 0.5965 1.1440 0.4276
C20 C -0.2471(4) 0.8884(3) 0.3078(2)
H22 H -0.2509 0.9453 0.3566
H23 H -0.3685 0.8725 0.2727
C21 C 0.0062(4) 0.8060(3) 0.3914(2)
H24 H 0.0482 0.7362 0.4092
H25 H 0.0203 0.8558 0.4469
C22 C -0.2325(4) 0.6909(3) 0.2856(2)
H26 H -0.1584 0.6904 0.2397
H27 H -0.3566 0.6918 0.2539
C23 C -0.2101(5) 0.5876(3) 0.3323(2)
C24 C -0.1078(7) 0.5094(4) 0.3041(5)
H28 H -0.0443 0.5239 0.2587
C25 C -0.0935(10) 0.4105(5) 0.3390(5)
H29 H -0.0277 0.3573 0.3153
C26 C -0.1749(9) 0.3913(5) 0.4074(5)
H30 H -0.1584 0.3264 0.4349
C27 C -0.2819(10) 0.4653(5) 0.4375(5)
H31 H -0.3408 0.4501 0.4844
C28 C -0.3045(9) 0.5664(4) 0.3977(3)
H32 H -0.3817 0.6163 0.4160
N1 N 0.1270(3) 0.7640(2) 0.05421(18)
N2 N -0.0060(3) 0.91654(18) 0.12427(14)
N3 N 0.2545(3) 0.84417(18) 0.21138(15)
N4 N -0.1339(3) 0.92994(18) 0.24737(15)
N5 N 0.1182(3) 0.84929(18) 0.33161(15)
N6 N -0.1848(3) 0.7908(2) 0.34832(16)
O1 O -0.3045(3) 0.85985(19) 0.10672(14)
O2 O 0.2626(3) 0.69531(17) 0.29667(15)
O3 O 0.1732(4) 1.12802(19) 0.18676(19)
O4 O 0.4137(4) 1.0353(2) 0.1858(3)
O5 O -0.0072(3) 1.1066(2) 0.37490(18)
O6 O 0.2776(3) 1.06396(17) 0.38139(14)
C29? C 0.4697(18) 1.1383(12) 0.1335(11)
H33? H 0.4949 1.1156 0.0737
H34? H 0.3804 1.1924 0.1278
C30? C 0.6365(18) 1.1771(11) 0.2032(10)
H35? H 0.6039 1.2080 0.2585
H36? H 0.7033 1.2318 0.1791
H37? H 0.7088 1.1165 0.2166
loop_
_geom_bond_atom_site_label_1
_geom_bond_atom_site_label_2
_geom_bond_site_symmetry_1
_geom_bond_site_symmetry_2
C1 H1 1_555 1_555
C2 C1 1_555 1_555
H2 C2 1_555 1_555
C3 C2 1_555 1_555
H3 C3 1_555 1_555
C4 C3 1_555 1_555
H4 C4 1_555 1_555
C5 C4 1_555 1_555
H5 C5 1_555 1_555
C6 C1 1_555 1_555
C7 C6 1_555 1_555
H6 C7 1_555 1_555
H7 C7 1_555 1_555
C8 H8 1_555 1_555
H9 C8 1_555 1_555
C9 H10 1_555 1_555
H11 C9 1_555 1_555
C10 N2 1_555 1_555
C11 N3 1_555 1_555
C12 C13 1_555 1_555
C13 O3 1_555 1_555
C14 H12 1_555 1_555
H13 C14 1_555 1_555
C15 C14 1_555 1_555
H14 C15 1_555 1_555
H15 C15 1_555 1_555
H16 C15 1_555 1_555
C16 C12 1_555 1_555
C17 C16 1_555 1_555
C18 H17 1_555 1_555
H18 C18 1_555 1_555
C19 C18 1_555 1_555
H19 C19 1_555 1_555
H20 C19 1_555 1_555
H21 C19 1_555 1_555
C20 H22 1_555 1_555
H23 C20 1_555 1_555
C21 H24 1_555 1_555
H25 C21 1_555 1_555
C22 H26 1_555 1_555
H27 C22 1_555 1_555
C23 C22 1_555 1_555
C24 C23 1_555 1_555
H28 C24 1_555 1_555
C25 C24 1_555 1_555
H29 C25 1_555 1_555
C26 C25 1_555 1_555
H30 C26 1_555 1_555
C27 C26 1_555 1_555
H31 C27 1_555 1_555
C28 C23 1_555 1_555
H32 C28 1_555 1_555
N1 C7 1_555 1_555
N2 C9 1_555 1_555
N3 C8 1_555 1_555
N4 C10 1_555 1_555
N5 C11 1_555 1_555
N6 C20 1_555 1_555
O1 C10 1_555 1_555
O2 C11 1_555 1_555
O4 C13 1_555 1_555
O5 C17 1_555 1_555
O6 C17 1_555 1_555
C5 C6 1_555 1_555
C8 N1 1_555 1_555
C9 N1 1_555 1_555
C12 N2 1_555 1_555
C12 N3 1_555 1_555
C14 O4 1_555 1_555
C16 N4 1_555 1_555
C16 N5 1_555 1_555
C18 O6 1_555 1_555
C20 N4 1_555 1_555
C21 N5 1_555 1_555
C21 N6 1_555 1_555
C22 N6 1_555 1_555
C27 C28 1_555 1_555

#END
