
#######################################################################
#
#                 Cambridge Crystallographic Data Centre
#                                CCDC 
#
#######################################################################
#
# If this CIF has been generated from an entry in the Cambridge 
# Structural Database, then it will include bibliographic, chemical, 
# crystal, experimental, refinement or atomic coordinate data resulting 
# from the CCDC's data processing and validation procedures.
#
#######################################################################

data_MAPQIF
_chemical_formula_moiety         'C14 H14 O4'
_chemical_name_systematic        
'2-(4-Methoxyphenyl)-4-vinyl-2,5-dihydrofuran-3-carboxylic acid'
_symmetry_cell_setting           monoclinic
_symmetry_space_group_name_H-M   'P 21/c'
_symmetry_Int_Tables_number      14
_space_group_name_Hall           '-P 2ybc'
loop_
_symmetry_equiv_pos_site_id
_symmetry_equiv_pos_as_xyz
1 x,y,z
2 -x,1/2+y,1/2-z
3 -x,-y,-z
4 x,1/2-y,1/2+z
_cell_length_a                   9.049(12)
_cell_length_b                   18.06(2)
_cell_length_c                   7.994(11)
_cell_angle_alpha                90
_cell_angle_beta                 106.340(16)
_cell_angle_gamma                90
_cell_volume                     1253.65
_exptl_crystal_colour            colorless
_exptl_crystal_description       sheet
_cell_formula_units_Z            4
loop_
_atom_site_label
_atom_site_type_symbol
_atom_site_fract_x
_atom_site_fract_y
_atom_site_fract_z
O1 O -0.02998(13) 0.11682(8) 0.62099(18)
O2 O 0.37375(14) -0.00075(7) 0.61657(18)
O3 O 0.34341(17) 0.04658(9) 0.35304(19)
O4 O 0.59692(15) 0.23914(9) 1.14113(19)
C1 C -0.0738(2) 0.13512(11) 0.4410(3)
H1 H -0.0823 0.1884 0.4257
H2 H -0.1724 0.1130 0.3826
C2 C 0.04885(18) 0.10545(9) 0.3677(2)
C3 C 0.15650(18) 0.07321(9) 0.4983(2)
C4 C 0.11801(19) 0.08070(10) 0.6686(3)
H3 H 0.1081 0.0314 0.7154
C5 C 0.23622(18) 0.12506(10) 0.8024(2)
C6 C 0.3470(2) 0.08994(11) 0.9341(3)
H4 H 0.3416 0.0390 0.9479
C7 C 0.4644(2) 0.12915(11) 1.0444(2)
H5 H 0.5385 0.1045 1.1309
C8 C 0.47340(19) 0.20552(11) 1.0276(2)
C9 C 0.3615(2) 0.24179(11) 0.9012(3)
H6 H 0.3644 0.2930 0.8911
C10 C 0.24481(19) 0.20130(10) 0.7894(2)
H7 H 0.1703 0.2259 0.7034
C11 C 0.6083(3) 0.31773(14) 1.1295(3)
H8 H 0.6061 0.3312 1.0126
H9 H 0.7033 0.3342 1.2087
H10 H 0.5233 0.3406 1.1593
C12 C 0.0405(2) 0.11174(12) 0.1854(3)
H11 H 0.1218 0.0926 0.1490
C13 C -0.0734(3) 0.14246(15) 0.0678(3)
H12 H -0.1565 0.1621 0.0996
H13 H -0.0713 0.1446 -0.0478
C14 C 0.29929(19) 0.03669(10) 0.4915(2)
H14 H 0.452(4) 0.025(2) 0.369(4)
loop_
_geom_bond_atom_site_label_1
_geom_bond_atom_site_label_2
_geom_bond_site_symmetry_1
_geom_bond_site_symmetry_2
O1 C1 1_555 1_555
O2 C14 1_555 1_555
O3 C14 1_555 1_555
O4 C8 1_555 1_555
C1 H1 1_555 1_555
H2 C1 1_555 1_555
C2 C1 1_555 1_555
C3 C2 1_555 1_555
C4 O1 1_555 1_555
H3 C4 1_555 1_555
C5 C4 1_555 1_555
C6 C5 1_555 1_555
H4 C6 1_555 1_555
C7 C6 1_555 1_555
H5 C7 1_555 1_555
C8 C7 1_555 1_555
C9 C8 1_555 1_555
H6 C9 1_555 1_555
C10 C5 1_555 1_555
H7 C10 1_555 1_555
C11 O4 1_555 1_555
H8 C11 1_555 1_555
H9 C11 1_555 1_555
H10 C11 1_555 1_555
C12 C2 1_555 1_555
H11 C12 1_555 1_555
C13 C12 1_555 1_555
H12 C13 1_555 1_555
H13 C13 1_555 1_555
C14 C3 1_555 1_555
H14 O3 1_555 1_555
C3 C4 1_555 1_555
C9 C10 1_555 1_555

#END
