
#######################################################################
#
#                 Cambridge Crystallographic Data Centre
#                                CCDC 
#
#######################################################################
#
# If this CIF has been generated from an entry in the Cambridge 
# Structural Database, then it will include bibliographic, chemical, 
# crystal, experimental, refinement or atomic coordinate data resulting 
# from the CCDC's data processing and validation procedures.
#
#######################################################################

data_MAPWOS
_chemical_formula_moiety         'C16 H19 Cl1 O4'
_chemical_name_systematic        
3-(4-chlorophenyl)-1-(2-furyl)-4-(hydroxymethyl)pentane-1,5-diol
_symmetry_cell_setting           monoclinic
_symmetry_space_group_name_H-M   'P 21/c'
_symmetry_Int_Tables_number      14
_space_group_name_Hall           '-P 2ybc'
loop_
_symmetry_equiv_pos_site_id
_symmetry_equiv_pos_as_xyz
1 x,y,z
2 -x,1/2+y,1/2-z
3 -x,-y,-z
4 x,1/2-y,1/2+z
_cell_length_a                   14.243(3)
_cell_length_b                   8.5982(19)
_cell_length_c                   12.723(3)
_cell_angle_alpha                90
_cell_angle_beta                 105.996(3)
_cell_angle_gamma                90
_cell_volume                     1497.78
_exptl_crystal_colour            colorless
_exptl_crystal_description       Plate
_cell_formula_units_Z            4
loop_
_atom_site_label
_atom_site_type_symbol
_atom_site_fract_x
_atom_site_fract_y
_atom_site_fract_z
Cl1 Cl 0.55821(3) 0.45429(6) 0.33088(3)
O1 O 0.77371(8) 0.60698(12) 1.06487(9)
O2 O 0.82838(8) 0.69222(12) 0.86968(9)
H1 H 0.8687 0.6967 0.9318
O3 O 1.02790(8) 0.27759(13) 0.94086(9)
H2 H 1.0531 0.2965 0.8898
O4 O 1.02490(8) 0.26910(13) 0.72841(10)
H3 H 1.0668 0.2283 0.7017
C1 C 0.71718(12) 0.62768(18) 1.13565(13)
H4 H 0.7418 0.6373 1.2128
C2 C 0.62208(12) 0.6323(2) 1.08006(14)
H5 H 0.5684 0.6446 1.1101
C3 C 0.61730(12) 0.6151(2) 0.96640(14)
H6 H 0.5600 0.6139 0.9067
C4 C 0.71020(11) 0.60077(17) 0.96111(12)
C5 C 0.75591(11) 0.57507(17) 0.86991(12)
H7 H 0.7033 0.5838 0.7995
C6 C 0.79933(11) 0.41125(17) 0.87573(13)
H8 H 0.7477 0.3345 0.8763
H9 H 0.8512 0.4004 0.9454
C7 C 0.84253(11) 0.37267(16) 0.78065(12)
H10 H 0.8982 0.4458 0.7854
C8 C 0.88437(11) 0.20433(16) 0.79020(13)
H11 H 0.8276 0.1313 0.7755
C9 C 0.95041(11) 0.16609(18) 0.90442(13)
H12 H 0.9105 0.1637 0.9570
H13 H 0.9790 0.0614 0.9032
C10 C 0.93852(11) 0.17255(18) 0.70456(13)
H14 H 0.9571 0.0615 0.7063
H15 H 0.8959 0.1968 0.6307
C11 C 0.76951(11) 0.39587(17) 0.66900(13)
C12 C 0.79293(11) 0.48832(17) 0.59019(13)
H16 H 0.8541 0.5405 0.6079
C13 C 0.72925(12) 0.50670(18) 0.48599(13)
H17 H 0.7470 0.5688 0.4328
C14 C 0.63960(12) 0.43262(19) 0.46165(13)
C15 C 0.61303(13) 0.3423(2) 0.53827(15)
H18 H 0.5508 0.2936 0.5209
C16 C 0.67800(12) 0.3231(2) 0.64117(14)
H19 H 0.6601 0.2595 0.6936
loop_
_geom_bond_atom_site_label_1
_geom_bond_atom_site_label_2
_geom_bond_site_symmetry_1
_geom_bond_site_symmetry_2
Cl1 C14 1_555 1_555
O1 C1 1_555 1_555
O2 H1 1_555 1_555
O3 H2 1_555 1_555
O4 H3 1_555 1_555
C1 H4 1_555 1_555
C2 C1 1_555 1_555
H5 C2 1_555 1_555
C3 C2 1_555 1_555
H6 C3 1_555 1_555
C4 O1 1_555 1_555
C5 O2 1_555 1_555
H7 C5 1_555 1_555
C6 C5 1_555 1_555
H8 C6 1_555 1_555
H9 C6 1_555 1_555
C7 C6 1_555 1_555
H10 C7 1_555 1_555
C8 C7 1_555 1_555
H11 C8 1_555 1_555
C9 O3 1_555 1_555
H12 C9 1_555 1_555
H13 C9 1_555 1_555
C10 O4 1_555 1_555
H14 C10 1_555 1_555
H15 C10 1_555 1_555
C11 C7 1_555 1_555
C12 C11 1_555 1_555
H16 C12 1_555 1_555
C13 C12 1_555 1_555
H17 C13 1_555 1_555
C14 C13 1_555 1_555
C15 C14 1_555 1_555
H18 C15 1_555 1_555
C16 C11 1_555 1_555
H19 C16 1_555 1_555
C3 C4 1_555 1_555
C4 C5 1_555 1_555
C8 C9 1_555 1_555
C8 C10 1_555 1_555
C15 C16 1_555 1_555

#END
