
#######################################################################
#
#                 Cambridge Crystallographic Data Centre
#                                CCDC 
#
#######################################################################
#
# If this CIF has been generated from an entry in the Cambridge 
# Structural Database, then it will include bibliographic, chemical, 
# crystal, experimental, refinement or atomic coordinate data resulting 
# from the CCDC's data processing and validation procedures.
#
#######################################################################

data_MAPXUZ
_chemical_formula_moiety         'C17 H16 O1'
_chemical_name_systematic        
2,3-dihydro-2'H-spiro[cyclopenta[a]naphthalene-1,1'-cyclopentan]-2'-one
_symmetry_cell_setting           orthorhombic
_symmetry_space_group_name_H-M   'P 21 21 21'
_symmetry_Int_Tables_number      19
_space_group_name_Hall           'P 2ac 2ab'
loop_
_symmetry_equiv_pos_site_id
_symmetry_equiv_pos_as_xyz
1 x,y,z
2 1/2-x,-y,1/2+z
3 1/2+x,1/2-y,-z
4 -x,1/2+y,1/2-z
_cell_length_a                   7.7380(5)
_cell_length_b                   11.6560(8)
_cell_length_c                   14.0895(8)
_cell_angle_alpha                90
_cell_angle_beta                 90
_cell_angle_gamma                90
_cell_volume                     1270.79
_exptl_crystal_colour            'dark yellow'
_exptl_crystal_description       block
_chemical_melting_point          '360-362 K'
_cell_formula_units_Z            4
loop_
_atom_site_label
_atom_site_type_symbol
_atom_site_fract_x
_atom_site_fract_y
_atom_site_fract_z
C1 C -0.2175(4) -0.6839(2) -0.72027(17)
O1 O -0.3479(3) -0.40808(19) -0.65286(14)
C2 C -0.0798(4) -0.7472(2) -0.76226(18)
C3 C -0.3237(4) -0.6161(2) -0.78069(17)
C4 C -0.1532(5) -0.6735(3) -0.9169(2)
H1 H -0.1327 -0.6694 -0.9819
C5 C -0.2921(4) -0.6131(3) -0.87669(19)
C6 C 0.0223(4) -0.8188(3) -0.7043(2)
H2 H 0.1114 -0.8611 -0.7314
C7 C -0.1396(4) -0.7633(3) -0.56704(18)
H3 H -0.1577 -0.7683 -0.5019
C8 C -0.4713(4) -0.4674(2) -0.6708(2)
C9 C -0.2423(4) -0.6938(2) -0.62100(18)
H4 H -0.3302 -0.6522 -0.5920
C10 C -0.4847(4) -0.5494(2) -0.75513(19)
C11 C -0.0489(4) -0.7379(3) -0.86071(19)
H5 H 0.0443 -0.7764 -0.8875
C12 C -0.4294(5) -0.5442(3) -0.9267(2)
H6 H -0.5117 -0.5940 -0.9583
H7 H -0.3786 -0.4928 -0.9731
C13 C -0.0070(4) -0.8269(3) -0.6098(2)
H8 H 0.0613 -0.8751 -0.5729
C14 C -0.7610(4) -0.5456(3) -0.6713(2)
H9 H -0.8328 -0.4992 -0.7127
H10 H -0.8349 -0.5902 -0.6297
C15 C -0.6419(4) -0.6237(3) -0.7290(2)
H11 H -0.7001 -0.6508 -0.7857
H12 H -0.6065 -0.6896 -0.6916
C16 C -0.6380(4) -0.4711(3) -0.6144(2)
H13 H -0.6849 -0.3945 -0.6067
H14 H -0.6182 -0.5039 -0.5521
C17 C -0.5160(5) -0.4769(3) -0.8466(2)
H15 H -0.6387 -0.4682 -0.8587
H16 H -0.4647 -0.4013 -0.8404
loop_
_geom_bond_atom_site_label_1
_geom_bond_atom_site_label_2
_geom_bond_site_symmetry_1
_geom_bond_site_symmetry_2
C1 C2 1_555 1_555
O1 C8 1_555 1_555
C2 C6 1_555 1_555
C3 C1 1_555 1_555
C4 H1 1_555 1_555
C5 C3 1_555 1_555
C6 H2 1_555 1_555
C7 H3 1_555 1_555
C8 C10 1_555 1_555
C9 C1 1_555 1_555
H4 C9 1_555 1_555
C10 C3 1_555 1_555
C11 C2 1_555 1_555
H5 C11 1_555 1_555
C12 C5 1_555 1_555
H6 C12 1_555 1_555
H7 C12 1_555 1_555
C13 C6 1_555 1_555
H8 C13 1_555 1_555
C14 H9 1_555 1_555
H10 C14 1_555 1_555
C15 C10 1_555 1_555
H11 C15 1_555 1_555
H12 C15 1_555 1_555
C16 C8 1_555 1_555
H13 C16 1_555 1_555
H14 C16 1_555 1_555
C17 C10 1_555 1_555
H15 C17 1_555 1_555
H16 C17 1_555 1_555
C4 C5 1_555 1_555
C4 C11 1_555 1_555
C7 C9 1_555 1_555
C7 C13 1_555 1_555
C12 C17 1_555 1_555
C14 C15 1_555 1_555
C14 C16 1_555 1_555

#END
