
#######################################################################
#
#                 Cambridge Crystallographic Data Centre
#                                CCDC 
#
#######################################################################
#
# If this CIF has been generated from an entry in the Cambridge 
# Structural Database, then it will include bibliographic, chemical, 
# crystal, experimental, refinement or atomic coordinate data resulting 
# from the CCDC's data processing and validation procedures.
#
#######################################################################

data_MAQFOA
_chemical_formula_moiety         'C19 H25 Cl2 N1 O1'
_chemical_name_systematic        
2,6-Dichloro-N-(3,4,5-triethyl-5-propylfuran-2(5H)-ylidene)aniline
_symmetry_cell_setting           monoclinic
_symmetry_space_group_name_H-M   'P 21/n'
_symmetry_Int_Tables_number      14
_space_group_name_Hall           '-P 2yn'
loop_
_symmetry_equiv_pos_site_id
_symmetry_equiv_pos_as_xyz
1 x,y,z
2 1/2-x,1/2+y,1/2-z
3 -x,-y,-z
4 1/2+x,1/2-y,1/2+z
_cell_length_a                   9.2669(19)
_cell_length_b                   11.841(2)
_cell_length_c                   18.233(4)
_cell_angle_alpha                90
_cell_angle_beta                 97.79(3)
_cell_angle_gamma                90
_cell_volume                     1982.23
_exptl_crystal_colour            colorless
_exptl_crystal_description       flake
_chemical_melting_point          '95-96 deg.C'
_cell_formula_units_Z            4
loop_
_atom_site_label
_atom_site_type_symbol
_atom_site_fract_x
_atom_site_fract_y
_atom_site_fract_z
Cl1 Cl 0.38036(8) 0.77990(7) 0.10309(5)
Cl2 Cl -0.05032(10) 0.59797(7) 0.23282(4)
N1 N 0.0803(2) 0.76861(14) 0.14108(11)
O1 O -0.00573(15) 0.65761(11) 0.03991(8)
C1 C -0.0019(2) 0.75515(17) 0.08041(13)
C2 C -0.1030(2) 0.83677(18) 0.04259(12)
C3 C -0.1654(2) 0.79059(19) -0.02060(13)
C4 C -0.1118(3) 0.67170(19) -0.02799(12)
C5 C 0.1714(3) 0.6807(2) 0.17013(12)
C6 C 0.3174(3) 0.6780(2) 0.15851(14)
C7 C 0.4132(3) 0.5938(3) 0.19122(18)
H1 H 0.5102 0.5935 0.1831
C8 C 0.3637(5) 0.5141(3) 0.23414(19)
H2 H 0.4265 0.4581 0.2552
C9 C 0.2221(4) 0.5148(3) 0.24698(16)
H3 H 0.1888 0.4594 0.2767
C10 C 0.1273(3) 0.5983(2) 0.21560(13)
C11 C -0.2285(3) 0.58132(19) -0.02684(14)
H4 H -0.3003 0.5908 -0.0704
H5 H -0.1836 0.5079 -0.0304
C12 C -0.3068(3) 0.5820(2) 0.04108(14)
H6 H -0.3781 0.5227 0.0370
H7 H -0.3542 0.6535 0.0446
H8 H -0.2376 0.5702 0.0846
C13 C -0.1246(3) 0.94953(18) 0.07612(14)
H9 H -0.1701 1.0000 0.0379
H10 H -0.0303 0.9809 0.0953
C14 C -0.2181(3) 0.9441(2) 0.13819(16)
H11 H -0.2268 1.0182 0.1584
H12 H -0.1736 0.8944 0.1763
H13 H -0.3130 0.9161 0.1192
C15 C -0.2750(3) 0.8426(2) -0.08020(14)
H14 H -0.2391 0.9162 -0.0925
H15 H -0.2798 0.7959 -0.1242
C16 C -0.4231(3) 0.8563(4) -0.06162(17)
H16 H -0.4837 0.8903 -0.1026
H17 H -0.4207 0.9038 -0.0188
H18 H -0.4619 0.7837 -0.0513
C17 C -0.0281(3) 0.6540(2) -0.09417(13)
H19 H 0.0103 0.5777 -0.0917
H20 H -0.0967 0.6597 -0.1392
C18 C 0.0961(3) 0.7344(2) -0.10028(16)
H21 H 0.1653 0.7304 -0.0554
H22 H 0.0588 0.8110 -0.1051
C19 C 0.1738(4) 0.7062(3) -0.16698(17)
H23 H 0.2509 0.7595 -0.1698
H24 H 0.1055 0.7100 -0.2115
H25 H 0.2138 0.6314 -0.1614
loop_
_geom_bond_atom_site_label_1
_geom_bond_atom_site_label_2
_geom_bond_site_symmetry_1
_geom_bond_site_symmetry_2
Cl1 C6 1_555 1_555
Cl2 C10 1_555 1_555
N1 C1 1_555 1_555
O1 C1 1_555 1_555
C1 C2 1_555 1_555
C2 C3 1_555 1_555
C3 C4 1_555 1_555
C4 O1 1_555 1_555
C5 N1 1_555 1_555
C6 C5 1_555 1_555
C7 C6 1_555 1_555
H1 C7 1_555 1_555
C8 C7 1_555 1_555
H2 C8 1_555 1_555
C9 C8 1_555 1_555
H3 C9 1_555 1_555
C10 C5 1_555 1_555
C11 C4 1_555 1_555
H4 C11 1_555 1_555
H5 C11 1_555 1_555
C12 C11 1_555 1_555
H6 C12 1_555 1_555
H7 C12 1_555 1_555
H8 C12 1_555 1_555
C13 C2 1_555 1_555
H9 C13 1_555 1_555
H10 C13 1_555 1_555
C14 C13 1_555 1_555
H11 C14 1_555 1_555
H12 C14 1_555 1_555
H13 C14 1_555 1_555
C15 C3 1_555 1_555
H14 C15 1_555 1_555
H15 C15 1_555 1_555
C16 C15 1_555 1_555
H16 C16 1_555 1_555
H17 C16 1_555 1_555
H18 C16 1_555 1_555
C17 C4 1_555 1_555
H19 C17 1_555 1_555
H20 C17 1_555 1_555
C18 C17 1_555 1_555
H21 C18 1_555 1_555
H22 C18 1_555 1_555
C19 C18 1_555 1_555
H23 C19 1_555 1_555
H24 C19 1_555 1_555
H25 C19 1_555 1_555
C9 C10 1_555 1_555

#END
