
#######################################################################
#
#                 Cambridge Crystallographic Data Centre
#                                CCDC 
#
#######################################################################
#
# If this CIF has been generated from an entry in the Cambridge 
# Structural Database, then it will include bibliographic, chemical, 
# crystal, experimental, refinement or atomic coordinate data resulting 
# from the CCDC's data processing and validation procedures.
#
#######################################################################

data_MAQHIY
_chemical_name_common            VU0476406
_chemical_formula_moiety         'C21 H18 F1 N5 O1 S1'
_chemical_name_systematic        
5-amino-N-{[4-(2-fluoropyridin-3-yl)phenyl]methyl}-3,4-dimethylthieno[2,3-c]pyridazine-6-carboxamide
_chemical_properties_biological  
'a non-human primate in vivo tool compound for translational pharmacology'
_symmetry_cell_setting           orthorhombic
_symmetry_space_group_name_H-M   'P 21 21 21'
_symmetry_Int_Tables_number      19
_space_group_name_Hall           'P 2ac 2ab'
loop_
_symmetry_equiv_pos_site_id
_symmetry_equiv_pos_as_xyz
1 x,y,z
2 1/2-x,-y,1/2+z
3 -x,1/2+y,1/2-z
4 1/2+x,1/2-y,-z
_cell_length_a                   5.041(7)
_cell_length_b                   16.83(2)
_cell_length_c                   22.33(3)
_cell_angle_alpha                90
_cell_angle_beta                 90
_cell_angle_gamma                90
_cell_volume                     1894.48
_exptl_crystal_colour            yellow
_exptl_crystal_description       Needle
_cell_formula_units_Z            4
loop_
_atom_site_label
_atom_site_type_symbol
_atom_site_fract_x
_atom_site_fract_y
_atom_site_fract_z
S1 S 0.6756(6) 0.53313(12) 0.49579(12)
O1 O 1.1278(16) 0.3512(4) 0.4456(3)
N1 N 0.147(2) 0.5229(5) 0.6231(4)
N2 N 0.290(2) 0.5512(5) 0.5770(4)
N3 N 0.815(2) 0.3107(5) 0.5404(4)
H1 H 0.88(2) 0.299(5) 0.502(4)
H2 H 0.712(16) 0.275(4) 0.566(3)
N4 N 1.1018(17) 0.4749(4) 0.4090(3)
H3 H 1.0275 0.5208 0.4104
N5 N 0.929(2) 0.1525(5) 0.1024(4)
F1 F 1.1633(19) 0.1548(4) 0.1871(3)
C1 C 0.719(2) 0.3869(6) 0.5339(4)
C2 C 0.514(2) 0.4218(5) 0.5699(4)
C3 C 0.357(2) 0.3931(5) 0.6163(4)
C4 C 0.182(2) 0.4489(6) 0.6416(4)
C5 C 0.453(2) 0.5021(6) 0.5531(4)
C6 C 0.824(2) 0.4381(4) 0.4914(4)
C7 C 0.376(3) 0.3085(5) 0.6421(4)
H4 H 0.5053 0.2787 0.6201
H5 H 0.2059 0.2830 0.6388
H6 H 0.4268 0.3111 0.6835
C8 C 0.002(2) 0.4264(5) 0.6948(4)
H7 H -0.1044 0.4714 0.7059
H8 H 0.1093 0.4105 0.7282
H9 H -0.1120 0.3832 0.6834
C9 C 1.026(2) 0.4176(6) 0.4478(4)
C10 C 1.308(2) 0.4594(5) 0.3649(4)
H10 H 1.4529 0.4314 0.3841
H11 H 1.3761 0.5097 0.3503
C11 C 1.210(2) 0.4113(6) 0.3130(4)
C12 C 1.344(3) 0.3435(6) 0.2955(4)
H12 H 1.4901 0.3267 0.3176
C13 C 1.266(3) 0.3000(6) 0.2462(5)
H13 H 1.3651 0.2558 0.2351
C14 C 1.044(2) 0.3202(6) 0.2127(4)
C15 C 0.909(2) 0.3902(6) 0.2301(5)
H14 H 0.7588 0.4067 0.2094
C16 C 1.005(3) 0.4346(6) 0.2793(5)
H15 H 0.9212 0.4822 0.2886
C17 C 0.945(2) 0.2728(5) 0.1598(4)
C18 C 1.013(3) 0.1945(6) 0.1470(5)
C19 C 0.776(3) 0.1885(7) 0.0630(5)
H16 H 0.7304 0.1616 0.0281
C20 C 0.680(3) 0.2650(6) 0.0713(5)
H17 H 0.5506 0.2863 0.0462
C21 C 0.783(3) 0.3078(5) 0.1182(5)
H18 H 0.7423 0.3615 0.1217
loop_
_geom_bond_atom_site_label_1
_geom_bond_atom_site_label_2
_geom_bond_site_symmetry_1
_geom_bond_site_symmetry_2
S1 C5 1_555 1_555
O1 C9 1_555 1_555
N1 N2 1_555 1_555
N2 C5 1_555 1_555
N3 H1 1_555 1_555
H2 N3 1_555 1_555
N4 H3 1_555 1_555
N5 C18 1_555 1_555
F1 C18 1_555 1_555
C1 N3 1_555 1_555
C2 C1 1_555 1_555
C3 C2 1_555 1_555
C4 N1 1_555 1_555
C5 C2 1_555 1_555
C6 S1 1_555 1_555
C7 C3 1_555 1_555
H4 C7 1_555 1_555
H5 C7 1_555 1_555
H6 C7 1_555 1_555
C8 C4 1_555 1_555
H7 C8 1_555 1_555
H8 C8 1_555 1_555
H9 C8 1_555 1_555
C9 N4 1_555 1_555
C10 N4 1_555 1_555
H10 C10 1_555 1_555
H11 C10 1_555 1_555
C11 C10 1_555 1_555
C12 C11 1_555 1_555
H12 C12 1_555 1_555
C13 C12 1_555 1_555
H13 C13 1_555 1_555
C14 C13 1_555 1_555
C15 C14 1_555 1_555
H14 C15 1_555 1_555
C16 C11 1_555 1_555
H15 C16 1_555 1_555
C17 C14 1_555 1_555
C18 C17 1_555 1_555
C19 N5 1_555 1_555
H16 C19 1_555 1_555
C20 C19 1_555 1_555
H17 C20 1_555 1_555
C21 C17 1_555 1_555
H18 C21 1_555 1_555
C1 C6 1_555 1_555
C3 C4 1_555 1_555
C6 C9 1_555 1_555
C15 C16 1_555 1_555
C20 C21 1_555 1_555

#END
