
#######################################################################
#
#                 Cambridge Crystallographic Data Centre
#                                CCDC 
#
#######################################################################
#
# If this CIF has been generated from an entry in the Cambridge 
# Structural Database, then it will include bibliographic, chemical, 
# crystal, experimental, refinement or atomic coordinate data resulting 
# from the CCDC's data processing and validation procedures.
#
#######################################################################

data_MAQTAC
_chemical_formula_moiety         'C20 H29 N1 O9,0.5(C1 H2 Cl2)'
_chemical_name_systematic        
"2,2,13,13-tetramethyl-3a,4a,9,10,11b,14a,15a,16,17a,17b-decahydro-2H,8H,11aH,13H-5,8-methanobis[1,3]dioxolo[4,5]furo[2,3-d:2',3'-h][1,6,10,2]trioxazacyclotridecine dichloromethane solvate"
_symmetry_cell_setting           orthorhombic
_symmetry_space_group_name_H-M   'P 21 21 21'
_symmetry_Int_Tables_number      19
_space_group_name_Hall           'P 2ac 2ab'
loop_
_symmetry_equiv_pos_site_id
_symmetry_equiv_pos_as_xyz
1 x,y,z
2 1/2-x,-y,1/2+z
3 -x,1/2+y,1/2-z
4 1/2+x,1/2-y,-z
_cell_length_a                   7.5843(9)
_cell_length_b                   23.897(3)
_cell_length_c                   26.424(3)
_cell_angle_alpha                90
_cell_angle_beta                 90
_cell_angle_gamma                90
_cell_volume                     4789.14
_exptl_crystal_colour            colorless
_exptl_crystal_description       needle
_cell_formula_units_Z            8
loop_
_atom_site_label
_atom_site_type_symbol
_atom_site_fract_x
_atom_site_fract_y
_atom_site_fract_z
O1 O -1.0591(5) -0.3864(2) -0.26224(17)
O2 O -1.2013(5) -0.35095(17) -0.33041(15)
O3 O -0.8086(5) -0.38750(18) -0.31290(15)
O4 O -1.0241(5) -0.33047(17) -0.42223(14)
O5 O -0.5047(6) -0.46264(19) -0.43197(17)
O6 O -0.7353(5) -0.35222(16) -0.51111(15)
O7 O -0.9717(5) -0.26059(17) -0.54264(16)
O8 O -1.1115(6) -0.2783(2) -0.61933(18)
O9 O -1.0832(7) -0.3706(2) -0.60405(18)
N1 N -0.6700(7) -0.4570(2) -0.4079(2)
C1 C -1.3318(10) -0.3374(3) -0.2477(3)
H1 H -1.3458 -0.3545 -0.2151
H2 H -1.4457 -0.3296 -0.2619
H3 H -1.2671 -0.3031 -0.2442
C2 C -1.3231(11) -0.4334(3) -0.2914(3)
H4 H -1.3305 -0.4536 -0.2601
H5 H -1.2552 -0.4546 -0.3154
H6 H -1.4395 -0.4274 -0.3046
C3 C -1.2329(8) -0.3763(3) -0.2821(3)
C4 C -0.9348(8) -0.3534(3) -0.2874(2)
H7 H -0.8772 -0.3273 -0.2641
C5 C -1.0364(7) -0.3222(3) -0.3285(2)
H8 H -1.0500 -0.2823 -0.3209
C6 C -0.9274(7) -0.3325(2) -0.3756(2)
H9 H -0.8300 -0.3056 -0.3769
C7 C -0.8547(7) -0.3907(2) -0.3655(2)
H10 H -0.9475 -0.4187 -0.3704
C8 C -0.6955(8) -0.4066(3) -0.3944(2)
C9 C -0.5471(7) -0.3682(2) -0.4086(3)
H11 H -0.4809 -0.3563 -0.3790
H12 H -0.5893 -0.3355 -0.4267
C10 C -0.4380(8) -0.4061(3) -0.4425(3)
H13 H -0.3139 -0.4039 -0.4325
C11 C -0.4530(7) -0.3948(3) -0.4984(2)
H14 H -0.3734 -0.4199 -0.5160
H15 H -0.4127 -0.3569 -0.5047
C12 C -0.6352(8) -0.4011(3) -0.5214(2)
H16 H -0.6254 -0.4065 -0.5577
H17 H -0.6935 -0.4336 -0.5071
C13 C -0.9137(7) -0.3552(3) -0.5286(2)
H18 H -0.9695 -0.3906 -0.5189
C14 C -1.0159(7) -0.3057(2) -0.5092(2)
H19 H -1.1423 -0.3136 -0.5120
C15 C -0.9762(8) -0.2859(2) -0.4558(2)
H20 H -0.8518 -0.2772 -0.4524
H21 H -1.0438 -0.2525 -0.4481
C16 C -0.9534(9) -0.2835(3) -0.5913(2)
H22 H -0.8551 -0.2659 -0.6093
C17 C -0.9225(9) -0.3458(3) -0.5859(2)
H23 H -0.8173 -0.3590 -0.6038
C18 C -1.1509(11) -0.3314(4) -0.6402(3)
C19 C -1.3491(12) -0.3386(4) -0.6416(3)
H24 H -1.3981 -0.3276 -0.6096
H25 H -1.3771 -0.3771 -0.6480
H26 H -1.3977 -0.3157 -0.6679
C20 C -1.0687(16) -0.3392(5) -0.6911(3)
H27 H -1.0978 -0.3757 -0.7038
H28 H -0.9430 -0.3358 -0.6882
H29 H -1.1125 -0.3112 -0.7139
O10 O -0.3460(5) -0.38334(18) 0.02705(16)
O11 O -0.3818(6) -0.40751(18) -0.05510(17)
O12 O -0.4835(5) -0.29849(17) 0.01061(13)
O13 O -0.7174(4) -0.30240(15) -0.07865(13)
O14 O -0.4192(4) -0.20536(16) -0.09576(14)
O15 O -0.9400(5) -0.25983(17) -0.20217(15)
O16 O -0.6179(5) -0.11144(18) -0.18503(15)
O17 O -0.2278(4) -0.12564(16) -0.15093(14)
O18 O -0.3578(5) -0.06474(18) -0.20532(17)
N2 N -0.7736(6) -0.2338(2) -0.20776(19)
C21 C -0.1105(9) -0.4313(3) -0.0161(3)
H30 H -0.0564 -0.4457 0.0141
H31 H -0.0635 -0.3949 -0.0235
H32 H -0.0866 -0.4561 -0.0439
C22 C -0.3082(9) -0.4270(3) -0.0082(3)
C23 C -0.3926(10) -0.4822(3) 0.0085(4)
H33 H -0.5176 -0.4772 0.0121
H34 H -0.3432 -0.4936 0.0403
H35 H -0.3700 -0.5105 -0.0165
C24 C -0.5055(7) -0.3571(3) 0.0121(2)
H36 H -0.6032 -0.3678 0.0343
C25 C -0.5382(7) -0.3766(2) -0.0423(2)
H37 H -0.6461 -0.3988 -0.0458
C26 C -0.4362(7) -0.2828(2) -0.0403(2)
H38 H -0.3101 -0.2900 -0.0453
C27 C -0.5420(7) -0.3235(2) -0.0731(2)
H39 H -0.4857 -0.3290 -0.1061
C28 C -0.8178(7) -0.3312(3) -0.1171(2)
H40 H -0.8308 -0.3703 -0.1080
H41 H -0.7566 -0.3291 -0.1492
C29 C -0.9976(7) -0.3041(3) -0.1216(2)
H42 H -1.0425 -0.2973 -0.0878
H43 H -1.0767 -0.3305 -0.1378
C30 C -1.0039(7) -0.2497(2) -0.1508(2)
H44 H -1.1262 -0.2365 -0.1523
C31 C -0.8871(6) -0.2026(2) -0.1310(2)
H45 H -0.9498 -0.1672 -0.1301
H46 H -0.8421 -0.2110 -0.0975
C32 C -0.7442(7) -0.2020(3) -0.1692(2)
C33 C -0.5785(6) -0.1681(2) -0.1681(2)
H47 H -0.4890 -0.1851 -0.1900
C34 C -0.5013(7) -0.1570(2) -0.11514(19)
H48 H -0.5961 -0.1455 -0.0922
C35 C -0.4695(7) -0.2214(2) -0.0459(2)
H49 H -0.5934 -0.2134 -0.0405
H50 H -0.4013 -0.2007 -0.0212
C36 C -0.3827(6) -0.1074(2) -0.1259(2)
H51 H -0.3583 -0.0848 -0.0958
C37 C -0.4810(7) -0.0750(3) -0.1672(2)
H52 H -0.5300 -0.0400 -0.1540
C38 C -0.1901(7) -0.0882(3) -0.1915(2)
C39 C -0.1219(9) -0.1225(3) -0.2356(3)
H53 H -0.2074 -0.1505 -0.2444
H54 H -0.0134 -0.1404 -0.2261
H55 H -0.1015 -0.0985 -0.2641
C40 C -0.0656(8) -0.0426(3) -0.1759(3)
H56 H 0.0409 -0.0589 -0.1629
H57 H -0.1197 -0.0202 -0.1501
H58 H -0.0384 -0.0196 -0.2046
Cl1 Cl -0.5753(9) -0.4722(3) -0.15348(19)
Cl2 Cl -0.9374(10) -0.4993(2) -0.16170(19)
C41 C -0.755(3) -0.4767(6) -0.1937(5)
H59 H -0.7778 -0.4403 -0.2085
H60 H -0.7281 -0.5026 -0.2210
loop_
_geom_bond_atom_site_label_1
_geom_bond_atom_site_label_2
_geom_bond_site_symmetry_1
_geom_bond_site_symmetry_2
O1 C3 1_555 1_555
O2 C3 1_555 1_555
O3 C4 1_555 1_555
O4 C6 1_555 1_555
O5 N1 1_555 1_555
O6 C12 1_555 1_555
O7 C14 1_555 1_555
O8 C16 1_555 1_555
O9 C17 1_555 1_555
N1 C8 1_555 1_555
C1 H1 1_555 1_555
H2 C1 1_555 1_555
H3 C1 1_555 1_555
C2 H4 1_555 1_555
H5 C2 1_555 1_555
H6 C2 1_555 1_555
C3 C1 1_555 1_555
C4 O1 1_555 1_555
H7 C4 1_555 1_555
C5 O2 1_555 1_555
H8 C5 1_555 1_555
C6 C5 1_555 1_555
H9 C6 1_555 1_555
C7 O3 1_555 1_555
H10 C7 1_555 1_555
C8 C7 1_555 1_555
C9 C8 1_555 1_555
H11 C9 1_555 1_555
H12 C9 1_555 1_555
C10 O5 1_555 1_555
H13 C10 1_555 1_555
C11 C10 1_555 1_555
H14 C11 1_555 1_555
H15 C11 1_555 1_555
C12 C11 1_555 1_555
H16 C12 1_555 1_555
H17 C12 1_555 1_555
C13 O6 1_555 1_555
H18 C13 1_555 1_555
C14 C13 1_555 1_555
H19 C14 1_555 1_555
C15 O4 1_555 1_555
H20 C15 1_555 1_555
H21 C15 1_555 1_555
C16 O7 1_555 1_555
H22 C16 1_555 1_555
C17 C13 1_555 1_555
H23 C17 1_555 1_555
C18 O8 1_555 1_555
C19 C18 1_555 1_555
H24 C19 1_555 1_555
H25 C19 1_555 1_555
H26 C19 1_555 1_555
C20 C18 1_555 1_555
H27 C20 1_555 1_555
H28 C20 1_555 1_555
H29 C20 1_555 1_555
O10 C22 1_555 1_555
O11 C22 1_555 1_555
O12 C24 1_555 1_555
O13 C27 1_555 1_555
O14 C34 1_555 1_555
O15 N2 1_555 1_555
O16 C33 1_555 1_555
O17 C36 1_555 1_555
O18 C37 1_555 1_555
N2 C32 1_555 1_555
C21 H30 1_555 1_555
H31 C21 1_555 1_555
H32 C21 1_555 1_555
C22 C21 1_555 1_555
C23 C22 1_555 1_555
H33 C23 1_555 1_555
H34 C23 1_555 1_555
H35 C23 1_555 1_555
C24 O10 1_555 1_555
H36 C24 1_555 1_555
C25 O11 1_555 1_555
H37 C25 1_555 1_555
C26 O12 1_555 1_555
H38 C26 1_555 1_555
C27 C25 1_555 1_555
H39 C27 1_555 1_555
C28 O13 1_555 1_555
H40 C28 1_555 1_555
H41 C28 1_555 1_555
C29 C28 1_555 1_555
H42 C29 1_555 1_555
H43 C29 1_555 1_555
C30 O15 1_555 1_555
H44 C30 1_555 1_555
C31 C30 1_555 1_555
H45 C31 1_555 1_555
H46 C31 1_555 1_555
C32 C31 1_555 1_555
C33 C32 1_555 1_555
H47 C33 1_555 1_555
C34 C33 1_555 1_555
H48 C34 1_555 1_555
C35 O14 1_555 1_555
H49 C35 1_555 1_555
H50 C35 1_555 1_555
C36 C34 1_555 1_555
H51 C36 1_555 1_555
C37 O16 1_555 1_555
H52 C37 1_555 1_555
C38 O17 1_555 1_555
C39 C38 1_555 1_555
H53 C39 1_555 1_555
H54 C39 1_555 1_555
H55 C39 1_555 1_555
C40 C38 1_555 1_555
H56 C40 1_555 1_555
H57 C40 1_555 1_555
H58 C40 1_555 1_555
Cl1 C41 1_555 1_555
Cl2 C41 1_555 1_555
C41 H59 1_555 1_555
H60 C41 1_555 1_555
O9 C18 1_555 1_555
C2 C3 1_555 1_555
C4 C5 1_555 1_555
C6 C7 1_555 1_555
C9 C10 1_555 1_555
C14 C15 1_555 1_555
C16 C17 1_555 1_555
O18 C38 1_555 1_555
C24 C25 1_555 1_555
C26 C27 1_555 1_555
C26 C35 1_555 1_555
C29 C30 1_555 1_555
C36 C37 1_555 1_555

#END
