
#######################################################################
#
#                 Cambridge Crystallographic Data Centre
#                                CCDC 
#
#######################################################################
#
# If this CIF has been generated from an entry in the Cambridge 
# Structural Database, then it will include bibliographic, chemical, 
# crystal, experimental, refinement or atomic coordinate data resulting 
# from the CCDC's data processing and validation procedures.
#
#######################################################################

data_MAQWIM19
_chemical_formula_moiety         'C10 H12 N2 O2'
_chemical_name_systematic        4-hydroxy-N'-isopropylidenebenzohydrazide
_symmetry_cell_setting           orthorhombic
_symmetry_space_group_name_H-M   'P n a 21'
_symmetry_Int_Tables_number      33
_space_group_name_Hall           'P 2c -2n'
loop_
_symmetry_equiv_pos_site_id
_symmetry_equiv_pos_as_xyz
1 x,y,z
2 -x,-y,1/2+z
3 1/2+x,1/2-y,z
4 1/2-x,1/2+y,1/2+z
_cell_length_a                   9.242(3)
_cell_length_b                   7.277(3)
_cell_length_c                   15.494(6)
_cell_angle_alpha                90
_cell_angle_beta                 90
_cell_angle_gamma                90
_cell_volume                     1042.03
_exptl_crystal_colour            colorless
_exptl_crystal_description       Prismatic
_cell_formula_units_Z            4
loop_
_atom_site_label
_atom_site_type_symbol
_atom_site_fract_x
_atom_site_fract_y
_atom_site_fract_z
O1 O 0.3242(3) 0.0885(4) 0.55847(19)
O2 O 0.7469(3) -0.1492(5) 0.25466(18)
H1 H 0.6906 -0.1920 0.2191
N1 N 0.5071(3) 0.2895(4) 0.57753(19)
H2 H 0.5872 0.3350 0.5590
N2 N 0.4356(3) 0.3644(4) 0.6493(2)
C1 C 0.5281(3) 0.0595(5) 0.4662(2)
C2 C 0.4451(4) 0.1429(5) 0.5387(2)
C3 C 0.6720(4) -0.0880(5) 0.3237(2)
C4 C 0.4517(4) -0.0219(6) 0.3999(3)
H3 H 0.3513 -0.0280 0.4030
C5 C 0.6788(4) 0.0580(6) 0.4618(3)
H4 H 0.7325 0.1073 0.5070
C6 C 0.4595(5) 0.5329(6) 0.6657(3)
C7 C 0.5221(4) -0.0946(6) 0.3286(2)
H5 H 0.4690 -0.1478 0.2842
C8 C 0.7484(4) -0.0150(6) 0.3921(3)
H6 H 0.8490 -0.0157 0.3907
C9 C 0.3887(6) 0.6066(6) 0.7457(4)
H7 H 0.3356 0.5101 0.7737
H8 H 0.3237 0.7043 0.7304
H9 H 0.4614 0.6527 0.7843
C10 C 0.5480(6) 0.6617(6) 0.6137(3)
H10 H 0.6484 0.6301 0.6193
H11 H 0.5330 0.7849 0.6340
H12 H 0.5198 0.6534 0.5542
loop_
_geom_bond_atom_site_label_1
_geom_bond_atom_site_label_2
_geom_bond_site_symmetry_1
_geom_bond_site_symmetry_2
O1 C2 1_555 1_555
O2 H1 1_555 1_555
N1 H2 1_555 1_555
N2 N1 1_555 1_555
C1 C2 1_555 1_555
C2 N1 1_555 1_555
C3 O2 1_555 1_555
C4 C1 1_555 1_555
H3 C4 1_555 1_555
C5 C1 1_555 1_555
H4 C5 1_555 1_555
C6 N2 1_555 1_555
C7 C3 1_555 1_555
H5 C7 1_555 1_555
C8 C3 1_555 1_555
H6 C8 1_555 1_555
C9 C6 1_555 1_555
H7 C9 1_555 1_555
H8 C9 1_555 1_555
H9 C9 1_555 1_555
C10 C6 1_555 1_555
H10 C10 1_555 1_555
H11 C10 1_555 1_555
H12 C10 1_555 1_555
C4 C7 1_555 1_555
C5 C8 1_555 1_555

#END
