
#######################################################################
#
#                 Cambridge Crystallographic Data Centre
#                                CCDC 
#
#######################################################################
#
# If this CIF has been generated from an entry in the Cambridge 
# Structural Database, then it will include bibliographic, chemical, 
# crystal, experimental, refinement or atomic coordinate data resulting 
# from the CCDC's data processing and validation procedures.
#
#######################################################################

data_MARWUZ
_chemical_formula_moiety         'C15 H22 O3'
_chemical_name_systematic        
(3S,Z)-3-hydroxy-3,6-dimethyl-2-(3-methylbutylidene)-3,3a,7,7a-tetrahydrobenzofuran-4(2H)-one
_symmetry_cell_setting           orthorhombic
_symmetry_space_group_name_H-M   'P 21 21 21'
_symmetry_Int_Tables_number      19
_space_group_name_Hall           'P 2ac 2ab'
loop_
_symmetry_equiv_pos_site_id
_symmetry_equiv_pos_as_xyz
1 x,y,z
2 1/2-x,-y,1/2+z
3 1/2+x,1/2-y,-z
4 -x,1/2+y,1/2-z
_cell_length_a                   6.9826(17)
_cell_length_b                   9.271(3)
_cell_length_c                   24.155(8)
_cell_angle_alpha                90
_cell_angle_beta                 90
_cell_angle_gamma                90
_cell_volume                     1563.69
_exptl_crystal_colour            white
_exptl_crystal_description       block
_chemical_melting_point          '373 K'
_cell_formula_units_Z            4
loop_
_atom_site_label
_atom_site_type_symbol
_atom_site_fract_x
_atom_site_fract_y
_atom_site_fract_z
C1 C 0.3663(5) 0.2289(3) 0.31978(13)
C2 C 0.2676(7) 0.3073(5) 0.36327(16)
H1 H 0.3284 0.3170 0.3973
C3 C 0.0942(7) 0.3664(5) 0.35712(19)
C4 C -0.0073(6) 0.3630(5) 0.30366(17)
H2 H 0.0166 0.4529 0.2843
H3 H -0.1439 0.3570 0.3107
C5 C 0.0504(5) 0.2386(4) 0.26630(14)
H4 H -0.0171 0.1510 0.2779
C6 C 0.2651(4) 0.2094(3) 0.26521(12)
H5 H 0.2852 0.1099 0.2528
C7 C -0.0077(13) 0.4475(9) 0.4020(3)
H6 H 0.0676 0.4451 0.4352
H7 H -0.1299 0.4035 0.4088
H8 H -0.0260 0.5457 0.3907
C8 C 0.3389(4) 0.3121(4) 0.21971(12)
C9 C 0.1652(5) 0.3187(4) 0.18235(15)
C10 C 0.5185(5) 0.2617(6) 0.19093(18)
H9 H 0.5546 0.3308 0.1632
H10 H 0.4952 0.1700 0.1737
H11 H 0.6198 0.2522 0.2175
C11 C 0.1578(8) 0.3656(7) 0.1312(2)
H12 H 0.2717 0.4092 0.1166
C12 C -0.0162(14) 0.3489(10) 0.0908(4)
H13 H -0.1251 0.3092 0.1096
H14 H 0.0189 0.2848 0.0613
C13 C -0.0667(17) 0.4940(12) 0.0668(5)
H15 H -0.0487 0.5725 0.0935
C14 C 0.095(3) 0.4936(19) 0.0190(7)
H16 H 0.2199 0.4905 0.0358
H17 H 0.0838 0.5796 -0.0029
H18 H 0.0785 0.4105 -0.0042
C15 C -0.259(2) 0.503(2) 0.0373(7)
H19 H -0.3605 0.4942 0.0639
H20 H -0.2686 0.4258 0.0109
H21 H -0.2693 0.5937 0.0186
O1 O 0.5263(4) 0.1753(3) 0.32731(12)
O2 O 0.0042(3) 0.2695(4) 0.20927(11)
O3 O 0.3652(5) 0.4500(3) 0.24605(12)
H22 H 0.3960 0.5100 0.2228
C16? C -0.0379(17) 0.4259(14) 0.1078(4)
C17? C -0.019(2) 0.4083(13) 0.0456(5)
C18? C 0.050(4) 0.5715(19) 0.0401(10)
C19? C -0.211(3) 0.421(2) 0.0161(8)
H23? H -0.0549 0.5266 0.1176
H24? H -0.1455 0.3709 0.1218
H25? H 0.0687 0.3335 0.0323
H26? H 0.0758 0.5931 0.0019
H27? H 0.1652 0.5850 0.0614
H28? H -0.0477 0.6348 0.0537
H29? H -0.2884 0.3380 0.0245
H30? H -0.2759 0.5065 0.0283
H31? H -0.1907 0.4260 -0.0232
loop_
_geom_bond_atom_site_label_1
_geom_bond_atom_site_label_2
_geom_bond_site_symmetry_1
_geom_bond_site_symmetry_2
C1 C2 1_555 1_555
C2 H1 1_555 1_555
C3 C2 1_555 1_555
C4 C3 1_555 1_555
H2 C4 1_555 1_555
H3 C4 1_555 1_555
C5 C4 1_555 1_555
H4 C5 1_555 1_555
C6 C1 1_555 1_555
H5 C6 1_555 1_555
C7 C3 1_555 1_555
H6 C7 1_555 1_555
H7 C7 1_555 1_555
H8 C7 1_555 1_555
C8 C6 1_555 1_555
C9 C8 1_555 1_555
C10 C8 1_555 1_555
H9 C10 1_555 1_555
H10 C10 1_555 1_555
H11 C10 1_555 1_555
C11 C9 1_555 1_555
H12 C11 1_555 1_555
C12 C11 1_555 1_555
H13 C12 1_555 1_555
H14 C12 1_555 1_555
C13 C12 1_555 1_555
H15 C13 1_555 1_555
C14 C13 1_555 1_555
H16 C14 1_555 1_555
H17 C14 1_555 1_555
H18 C14 1_555 1_555
C15 C13 1_555 1_555
H19 C15 1_555 1_555
H20 C15 1_555 1_555
H21 C15 1_555 1_555
O1 C1 1_555 1_555
O2 C5 1_555 1_555
O3 C8 1_555 1_555
H22 O3 1_555 1_555
C5 C6 1_555 1_555
C9 O2 1_555 1_555

#END
