
#######################################################################
#
#                 Cambridge Crystallographic Data Centre
#                                CCDC 
#
#######################################################################
#
# If this CIF has been generated from an entry in the Cambridge 
# Structural Database, then it will include bibliographic, chemical, 
# crystal, experimental, refinement or atomic coordinate data resulting 
# from the CCDC's data processing and validation procedures.
#
#######################################################################

data_MARWIN
_chemical_formula_moiety         'C20 H26 O5,H2 O1'
_chemical_name_systematic        
"11'-Hydroxy-6-(hydroxymethyl)-5,5-dimethyl-10'-methylene-3'-oxaspiro[cyclohexane-1,5'-tricyclo[7.2.1.0^1,6^]dodecane]-3-ene-2,2'-dione monohydrate"
_symmetry_cell_setting           orthorhombic
_symmetry_space_group_name_H-M   'P 21 21 21'
_symmetry_Int_Tables_number      19
_space_group_name_Hall           'P 2ac 2ab'
loop_
_symmetry_equiv_pos_site_id
_symmetry_equiv_pos_as_xyz
1 x,y,z
2 1/2-x,-y,1/2+z
3 1/2+x,1/2-y,-z
4 -x,1/2+y,1/2-z
_cell_length_a                   7.4438(17)
_cell_length_b                   14.026(3)
_cell_length_c                   17.298(4)
_cell_angle_alpha                90
_cell_angle_beta                 90
_cell_angle_gamma                90
_cell_volume                     1806.03
_cell_formula_units_Z            4
loop_
_atom_site_label
_atom_site_type_symbol
_atom_site_fract_x
_atom_site_fract_y
_atom_site_fract_z
C1 C 0.6573(3) 0.54202(13) 0.29366(12)
C2 C 0.7803(3) 0.57148(16) 0.35433(13)
H1 H 0.8470 0.6269 0.3474
C3 C 0.8007(3) 0.52257(16) 0.41870(12)
H2 H 0.8717 0.5499 0.4570
C4 C 0.7204(2) 0.42731(14) 0.43592(10)
C5 C 0.6152(2) 0.38870(12) 0.36475(10)
H3 H 0.7094 0.3638 0.3307
C6 C 0.5185(2) 0.46588(12) 0.31427(10)
C7 C 0.4301(2) 0.42132(13) 0.24193(10)
H4 H 0.3515 0.3705 0.2611
C8 C 0.3045(2) 0.49299(14) 0.19832(11)
C9 C 0.2788(2) 0.58916(15) 0.23590(13)
O1 O 0.30572(19) 0.59997(10) 0.31144(9)
C10 C 0.3671(3) 0.51913(14) 0.35668(11)
H5 H 0.2675 0.4760 0.3657
H6 H 0.4105 0.5412 0.4064
C11 C 0.1135(2) 0.44781(14) 0.18598(11)
H7 H 0.0359 0.4982 0.1654
C12 C 0.1456(3) 0.37743(15) 0.12076(12)
C13 C 0.3600(3) 0.50258(16) 0.11316(12)
H8 H 0.2867 0.5492 0.0863
H9 H 0.4857 0.5198 0.1081
C14 C 0.3244(3) 0.40140(19) 0.08367(11)
H10 H 0.3160 0.4000 0.0271
C15 C 0.4749(3) 0.33453(18) 0.11298(12)
H11 H 0.4246 0.2720 0.1232
H12 H 0.5652 0.3276 0.0730
C16 C 0.5642(2) 0.37258(15) 0.18688(11)
H13 H 0.6569 0.4180 0.1727
H14 H 0.6215 0.3201 0.2138
C17 C 0.6095(3) 0.43381(18) 0.51106(11)
H15 H 0.5560 0.3730 0.5219
H16 H 0.5168 0.4808 0.5050
H17 H 0.6867 0.4517 0.5531
C18 C 0.8801(3) 0.36039(16) 0.45122(11)
H18 H 0.8363 0.2975 0.4624
H19 H 0.9479 0.3837 0.4945
H20 H 0.9557 0.3582 0.4063
C19 C 0.5004(2) 0.30129(13) 0.38323(11)
H21 H 0.4757 0.2669 0.3358
H22 H 0.5672 0.2592 0.4172
C20 C 0.0359(3) 0.30805(18) 0.10151(14)
H23 H 0.0654 0.2673 0.0611
H24 H -0.0712 0.2997 0.1283
O2 O 0.65678(18) 0.58140(11) 0.23057(9)
O3 O 0.2253(2) 0.65790(11) 0.20034(10)
O4 O 0.02830(17) 0.41167(10) 0.25215(8)
H25 H 0.0078 0.3547 0.2462
O5 O 0.33401(19) 0.32628(11) 0.41945(8)
H26 H 0.2504 0.3030 0.3950
O6 O 0.1168(2) 0.22984(10) 0.31048(9)
H27 H 0.1841(15) 0.1826(11) 0.2999(3)
H28 H 0.004(3) 0.2128(4) 0.31463(12)
loop_
_geom_bond_atom_site_label_1
_geom_bond_atom_site_label_2
_geom_bond_site_symmetry_1
_geom_bond_site_symmetry_2
C1 C2 1_555 1_555
C2 H1 1_555 1_555
C3 C2 1_555 1_555
H2 C3 1_555 1_555
C4 C3 1_555 1_555
C5 C4 1_555 1_555
H3 C5 1_555 1_555
C6 C1 1_555 1_555
C7 C6 1_555 1_555
H4 C7 1_555 1_555
C8 C7 1_555 1_555
C9 C8 1_555 1_555
O1 C9 1_555 1_555
C10 C6 1_555 1_555
H5 C10 1_555 1_555
H6 C10 1_555 1_555
C11 C8 1_555 1_555
H7 C11 1_555 1_555
C12 C11 1_555 1_555
C13 C8 1_555 1_555
H8 C13 1_555 1_555
H9 C13 1_555 1_555
C14 C12 1_555 1_555
H10 C14 1_555 1_555
C15 C14 1_555 1_555
H11 C15 1_555 1_555
H12 C15 1_555 1_555
C16 C7 1_555 1_555
H13 C16 1_555 1_555
H14 C16 1_555 1_555
C17 C4 1_555 1_555
H15 C17 1_555 1_555
H16 C17 1_555 1_555
H17 C17 1_555 1_555
C18 C4 1_555 1_555
H18 C18 1_555 1_555
H19 C18 1_555 1_555
H20 C18 1_555 1_555
C19 C5 1_555 1_555
H21 C19 1_555 1_555
H22 C19 1_555 1_555
C20 C12 1_555 1_555
H23 C20 1_555 1_555
H24 C20 1_555 1_555
O2 C1 1_555 1_555
O3 C9 1_555 1_555
O4 C11 1_555 1_555
H25 O4 1_555 1_555
O5 C19 1_555 1_555
H26 O5 1_555 1_555
O6 H27 1_555 1_555
H28 O6 1_555 1_555
C5 C6 1_555 1_555
O1 C10 1_555 1_555
C13 C14 1_555 1_555
C15 C16 1_555 1_555

#END
