
#######################################################################
#
#                 Cambridge Crystallographic Data Centre
#                                CCDC 
#
#######################################################################
#
# If this CIF has been generated from an entry in the Cambridge 
# Structural Database, then it will include bibliographic, chemical, 
# crystal, experimental, refinement or atomic coordinate data resulting 
# from the CCDC's data processing and validation procedures.
#
#######################################################################

data_MASNOM
_chemical_name_common            '(4R)-6-O-cinnamoyl-(+)-crassalactone D'
_chemical_formula_moiety         'C22 H18 O5'
_chemical_name_systematic        
'7-oxo-2-phenyl-1,6-dioxaspiro[4.4]non-8-en-3-yl 3-phenylprop-2-enoate'
_chemical_properties_biological  'cytotoxic activity'
_symmetry_cell_setting           orthorhombic
_symmetry_space_group_name_H-M   'P 21 21 21'
_symmetry_Int_Tables_number      19
_space_group_name_Hall           'P 2ac 2ab'
loop_
_symmetry_equiv_pos_site_id
_symmetry_equiv_pos_as_xyz
1 x,y,z
2 1/2-x,-y,1/2+z
3 1/2+x,1/2-y,-z
4 -x,1/2+y,1/2-z
_cell_length_a                   6.4236(4)
_cell_length_b                   16.5180(11)
_cell_length_c                   17.3044(12)
_cell_angle_alpha                90
_cell_angle_beta                 90
_cell_angle_gamma                90
_cell_volume                     1836.08
_exptl_crystal_colour            colorless
_exptl_crystal_description       prism
_chemical_melting_point          '112-115 deg.C'
_cell_formula_units_Z            4
loop_
_atom_site_label
_atom_site_type_symbol
_atom_site_fract_x
_atom_site_fract_y
_atom_site_fract_z
O1 O 0.5343(3) 0.15095(13) 0.24521(12)
O2 O 0.3978(4) 0.03380(13) 0.20304(13)
O3 O 0.2765(4) 0.23748(13) 0.40614(12)
O4 O 0.0296(3) 0.13615(15) 0.41912(13)
O5 O -0.2136(4) 0.08068(19) 0.49490(17)
C1 C 0.3620(5) 0.16032(17) 0.29664(17)
H1 H 0.2296 0.1532 0.2693
C2 C 0.8565(5) 0.13722(18) 0.14330(17)
H2 H 0.8429 0.1805 0.1773
C3 C 0.2487(5) 0.1556(2) 0.42608(18)
C4 C 1.0358(4) 0.14008(18) 0.09100(17)
C5 C 0.7127(5) 0.0810(2) 0.14806(18)
H3 H 0.7263 0.036 0.1161
C6 C 0.5329(5) 0.08355(18) 0.19973(18)
C7 C 0.3771(5) 0.24486(18) 0.33216(18)
H4 H 0.5245 0.2571 0.341
C8 C 1.1783(5) 0.20258(19) 0.09829(19)
H5 H 1.1577 0.2419 0.136
C9 C 0.3717(5) 0.10706(19) 0.36762(17)
H6 H 0.5142 0.099 0.3845
H7 H 0.3078 0.0548 0.3582
C10 C 1.0707(5) 0.0822(2) 0.0341(2)
H8 H 0.9781 0.0394 0.0279
C11 C 0.2842(5) 0.31293(18) 0.28567(18)
C12 C 1.3491(5) 0.2077(2) 0.0509(2)
H9 H 1.4429 0.2501 0.0568
C13 C 0.0839(6) 0.3393(2) 0.2966(2)
H10 H 0.0009 0.3151 0.3341
C14 C 0.2934(5) 0.1405(2) 0.50911(19)
H11 H 0.4203 0.1506 0.5332
C15 C -0.0404(6) 0.1061(2) 0.4879(2)
C16 C 0.4016(6) 0.3484(2) 0.2287(2)
H12 H 0.5377 0.3313 0.2205
C17 C 0.1289(5) 0.1111(2) 0.54342(19)
H13 H 0.1213 0.0959 0.5951
C18 C 1.2413(6) 0.0883(2) -0.0128(2)
H14 H 1.2628 0.0495 -0.0509
C19 C 1.3815(6) 0.1505(2) -0.0049(2)
H15 H 1.4971 0.1536 -0.0371
C20 C 0.0048(7) 0.4018(3) 0.2520(3)
H16 H -0.1303 0.4202 0.2602
C21 C 0.3194(9) 0.4095(2) 0.1836(3)
H17 H 0.3994 0.432 0.1443
C22 C 0.1257(9) 0.4366(3) 0.1958(3)
H18 H 0.0733 0.4789 0.1661
loop_
_geom_bond_atom_site_label_1
_geom_bond_atom_site_label_2
_geom_bond_site_symmetry_1
_geom_bond_site_symmetry_2
O1 C1 1_555 1_555
O2 C6 1_555 1_555
O3 C3 1_555 1_555
O4 C3 1_555 1_555
O5 C15 1_555 1_555
C1 H1 1_555 1_555
C2 H2 1_555 1_555
C3 C9 1_555 1_555
C4 C2 1_555 1_555
C5 C2 1_555 1_555
H3 C5 1_555 1_555
C6 O1 1_555 1_555
C7 O3 1_555 1_555
H4 C7 1_555 1_555
C8 C4 1_555 1_555
H5 C8 1_555 1_555
C9 C1 1_555 1_555
H6 C9 1_555 1_555
H7 C9 1_555 1_555
C10 C4 1_555 1_555
H8 C10 1_555 1_555
C11 C7 1_555 1_555
C12 C8 1_555 1_555
H9 C12 1_555 1_555
C13 C11 1_555 1_555
H10 C13 1_555 1_555
C14 C3 1_555 1_555
H11 C14 1_555 1_555
C15 O4 1_555 1_555
C16 C11 1_555 1_555
H12 C16 1_555 1_555
C17 C14 1_555 1_555
H13 C17 1_555 1_555
C18 C10 1_555 1_555
H14 C18 1_555 1_555
C19 C12 1_555 1_555
H15 C19 1_555 1_555
C20 C13 1_555 1_555
H16 C20 1_555 1_555
C21 C16 1_555 1_555
H17 C21 1_555 1_555
C22 C20 1_555 1_555
H18 C22 1_555 1_555
C1 C7 1_555 1_555
C5 C6 1_555 1_555
C15 C17 1_555 1_555
C18 C19 1_555 1_555
C21 C22 1_555 1_555

#END
