
#######################################################################
#
#                 Cambridge Crystallographic Data Centre
#                                CCDC 
#
#######################################################################
#
# If this CIF has been generated from an entry in the Cambridge 
# Structural Database, then it will include bibliographic, chemical, 
# crystal, experimental, refinement or atomic coordinate data resulting 
# from the CCDC's data processing and validation procedures.
#
#######################################################################

data_MASPEE
_chemical_name_common            '6-O-(4-fluorocinnamoyl)-(+)-crassalactone D'
_chemical_formula_moiety         'C22 H17 F1 O5'
_chemical_name_systematic        
'7-oxo-2-phenyl-1,6-dioxaspiro[4.4]non-8-en-3-yl 3-(4-fluorophenyl)prop-2-enoate'
_chemical_properties_biological  'cytotoxic activity'
_symmetry_cell_setting           triclinic
_symmetry_space_group_name_H-M   'P 1'
_symmetry_Int_Tables_number      1
_space_group_name_Hall           'P 1'
loop_
_symmetry_equiv_pos_site_id
_symmetry_equiv_pos_as_xyz
1 x,y,z
_cell_length_a                   4.837(5)
_cell_length_b                   8.900(5)
_cell_length_c                   11.157(5)
_cell_angle_alpha                76.007(5)
_cell_angle_beta                 85.977(5)
_cell_angle_gamma                85.185(5)
_cell_volume                     463.786
_exptl_crystal_colour            colorless
_exptl_crystal_description       needle
_chemical_melting_point          '152-155 deg.C'
_cell_formula_units_Z            1
loop_
_atom_site_label
_atom_site_type_symbol
_atom_site_fract_x
_atom_site_fract_y
_atom_site_fract_z
F1 F -0.5293(5) 1.2502(4) -0.2370(3)
O1 O 0.6555(5) 0.6266(3) 0.5045(2)
O2 O 0.7403(5) 0.3980(3) 0.4431(2)
O3 O 0.7173(5) 0.6534(3) 0.2098(2)
O4 O 0.7204(6) 0.5534(4) 0.0433(3)
O5 O 0.4998(8) 0.7135(5) 0.6696(3)
C1 C 0.9416(8) 0.5413(5) 0.2575(4)
H1 H 1.0868 0.5323 0.1933
C2 C 0.8738(8) 0.5156(5) 0.4756(4)
C3 C 1.0482(8) 0.2510(5) 0.3240(4)
C4 C 1.0539(8) 0.5897(5) 0.3643(4)
H2 H 1.2470 0.5524 0.3748
H3 H 1.0393 0.7018 0.3513
C5 C 0.4110(8) 0.7740(5) 0.0585(4)
H4 H 0.3586 0.8406 0.1100
C6 C 1.1952(9) 0.2321(5) 0.2182(4)
H5 H 1.1626 0.3025 0.1433
C7 C -0.2074(10) 1.1500(6) -0.0855(4)
H6 H -0.2601 1.2314 -0.0481
C8 C 0.0766(8) 0.9159(5) -0.0938(4)
C9 C -0.0066(8) 1.0379(6) -0.0369(4)
H7 H 0.0756 1.0429 0.0348
C10 C 1.3904(10) 0.1094(7) 0.2224(5)
H8 H 1.4921 0.0993 0.1505
C11 C 0.2893(8) 0.7959(5) -0.0451(4)
H9 H 0.3450 0.7265 -0.0939
C12 C 0.8328(8) 0.3848(5) 0.3210(3)
H10 H 0.6730 0.3682 0.2776
C13 C 0.6624(10) 0.6296(6) 0.6258(4)
C14 C 1.0121(9) 0.4595(6) 0.5942(4)
H11 H 1.1636 0.3869 0.6063
C15 C 0.6287(8) 0.6483(5) 0.0987(4)
C16 C -0.3284(9) 1.1395(7) -0.1900(5)
C17 C -0.2560(10) 1.0233(7) -0.2486(4)
H12 H -0.3419 1.0185 -0.3195
C18 C -0.0523(9) 0.9136(6) -0.1996(4)
H13 H 0.0011 0.8344 -0.2393
C19 C 0.8962(10) 0.5240(6) 0.6783(5)
H14 H 0.9514 0.5065 0.7590
C20 C 1.0983(11) 0.1423(5) 0.4325(4)
H15 H 1.0012 0.1527 0.5053
C21 C 1.2912(13) 0.0177(7) 0.4347(5)
H16 H 1.3200 -0.0555 0.5086
C22 C 1.4368(12) 0.0016(7) 0.3315(6)
H17 H 1.5678 -0.0816 0.3336
loop_
_geom_bond_atom_site_label_1
_geom_bond_atom_site_label_2
_geom_bond_site_symmetry_1
_geom_bond_site_symmetry_2
F1 C16 1_555 1_555
O1 C2 1_555 1_555
O2 C2 1_555 1_555
O3 C1 1_555 1_555
O4 C15 1_555 1_555
O5 C13 1_555 1_555
C1 H1 1_555 1_555
C2 C4 1_555 1_555
C3 C6 1_555 1_555
C4 C1 1_555 1_555
H2 C4 1_555 1_555
H3 C4 1_555 1_555
C5 H4 1_555 1_555
C6 H5 1_555 1_555
C7 H6 1_555 1_555
C8 C9 1_555 1_555
C9 C7 1_555 1_555
H7 C9 1_555 1_555
C10 C6 1_555 1_555
H8 C10 1_555 1_555
C11 C5 1_555 1_555
H9 C11 1_555 1_555
C12 O2 1_555 1_555
H10 C12 1_555 1_555
C13 O1 1_555 1_555
C14 C2 1_555 1_555
H11 C14 1_555 1_555
C15 O3 1_555 1_555
C16 C7 1_555 1_555
C17 C16 1_555 1_555
H12 C17 1_555 1_555
C18 C8 1_555 1_555
H13 C18 1_555 1_555
C19 C13 1_555 1_555
H14 C19 1_555 1_555
C20 C3 1_555 1_555
H15 C20 1_555 1_555
C21 C20 1_555 1_555
H16 C21 1_555 1_555
C22 C10 1_555 1_555
H17 C22 1_555 1_555
C1 C12 1_555 1_555
C3 C12 1_555 1_555
C5 C15 1_555 1_555
C8 C11 1_555 1_555
C14 C19 1_555 1_555
C17 C18 1_555 1_555
C21 C22 1_555 1_555

#END
