
#######################################################################
#
#                 Cambridge Crystallographic Data Centre
#                                CCDC 
#
#######################################################################
#
# If this CIF has been generated from an entry in the Cambridge 
# Structural Database, then it will include bibliographic, chemical, 
# crystal, experimental, refinement or atomic coordinate data resulting 
# from the CCDC's data processing and validation procedures.
#
#######################################################################

data_MASPUU
_chemical_formula_moiety         'C68 H84 Li4 N8 O4,0.5(C6 H14)'
_chemical_name_systematic        
'tetrakis(\m-2-benzoyl-5-(piperidin-1-ylmethyl)-2,5-dihydro-1H-pyrrolato)-tetra-lithium n-hexane solvate'
_symmetry_cell_setting           triclinic
_symmetry_space_group_name_H-M   'P -1'
_symmetry_Int_Tables_number      2
_space_group_name_Hall           '-P 1'
loop_
_symmetry_equiv_pos_site_id
_symmetry_equiv_pos_as_xyz
1 x,y,z
2 -x,-y,-z
_cell_length_a                   12.206(3)
_cell_length_b                   12.637(3)
_cell_length_c                   21.775(5)
_cell_angle_alpha                83.740(5)
_cell_angle_beta                 88.999(4)
_cell_angle_gamma                77.255(4)
_cell_volume                     3256.37
_exptl_crystal_colour            colorless
_exptl_crystal_description       block
_cell_formula_units_Z            2
loop_
_atom_site_label
_atom_site_type_symbol
_atom_site_fract_x
_atom_site_fract_y
_atom_site_fract_z
Li1 Li 0.2255(4) 0.9236(3) 0.77755(19)
Li2 Li 0.5010(4) 0.7029(4) 0.73992(19)
Li3 Li 0.2930(4) 0.6945(3) 0.80360(19)
Li4 Li 0.4514(4) 0.9354(3) 0.74223(19)
N1 N 0.35289(18) 0.99868(16) 0.82000(9)
N2 N 0.47401(18) 1.10998(17) 0.72102(9)
N3 N 0.48661(17) 0.62963(16) 0.82900(9)
N4 N 0.27357(18) 0.52703(17) 0.83711(10)
N5 N 0.15363(18) 0.78822(16) 0.74779(9)
N6 N 0.04604(17) 0.99072(16) 0.80521(9)
N7 N 0.49260(18) 0.84688(16) 0.66377(9)
N8 N 0.66667(17) 0.63300(16) 0.70080(9)
O1 O 0.27812(15) 0.81289(13) 0.85576(7)
O2 O 0.55922(15) 0.81940(14) 0.79613(7)
O3 O 0.35567(14) 0.66861(14) 0.71383(7)
O4 O 0.28589(15) 0.96170(14) 0.69629(8)
C1 C 0.3486(2) 0.9593(2) 0.88215(11)
C2 C 0.3660(2) 1.0382(2) 0.91955(12)
H1 H 0.3669 1.0320 0.9634
C3 C 0.3816(2) 1.1262(2) 0.87988(13)
H2 H 0.3955 1.1926 0.8911
C4 C 0.3729(2) 1.0986(2) 0.81985(12)
C5 C 0.3830(2) 1.1653(2) 0.75915(12)
H3 H 0.3111 1.1793 0.7362
H4 H 0.3975 1.2367 0.7672
C6 C 0.5834(3) 1.1120(3) 0.74614(14)
H5 H 0.5905 1.0761 0.7891
H6 H 0.5896 1.1886 0.7470
C7 C 0.6770(3) 1.0538(3) 0.70732(19)
H7 H 0.6717 0.9768 0.7070
H8 H 0.7506 1.0544 0.7256
C8 C 0.6694(4) 1.1092(3) 0.6416(2)
H9 H 0.6840 1.1833 0.6411
H10 H 0.7266 1.0668 0.6156
C9 C 0.5532(3) 1.1166(3) 0.61586(15)
H11 H 0.5451 1.1607 0.5751
H12 H 0.5442 1.0425 0.6098
C10 C 0.4628(3) 1.1674(2) 0.65805(12)
H13 H 0.4662 1.2445 0.6600
H14 H 0.3886 1.1664 0.6408
C11 C 0.3129(2) 0.8605(2) 0.89730(11)
C12 C 0.3048(2) 0.81477(19) 0.96292(11)
C13 C 0.2111(3) 0.7744(2) 0.98080(13)
H15 H 0.1551 0.7749 0.9509
C14 C 0.1975(3) 0.7335(3) 1.04112(15)
H16 H 0.1326 0.7064 1.0527
C15 C 0.2785(4) 0.7322(3) 1.08418(15)
H17 H 0.2693 0.7046 1.1259
C16 C 0.3723(3) 0.7702(3) 1.06766(14)
H18 H 0.4282 0.7682 1.0978
C17 C 0.3866(3) 0.8117(2) 1.00710(12)
H19 H 0.4521 0.8380 0.9959
C18 C 0.5549(2) 0.6680(2) 0.86750(11)
C19 C 0.5751(2) 0.5988(2) 0.92302(11)
H20 H 0.6186 0.6072 0.9572
C20 C 0.5196(2) 0.5166(2) 0.91833(12)
H21 H 0.5172 0.4571 0.9486
C21 C 0.4672(2) 0.5376(2) 0.86022(11)
C22 C 0.3939(2) 0.4751(2) 0.83252(12)
H22 H 0.4136 0.4699 0.7885
H23 H 0.4078 0.4001 0.8539
C23 C 0.2379(3) 0.5147(2) 0.90176(13)
H24 H 0.2813 0.5518 0.9271
H25 H 0.2540 0.4363 0.9175
C24 C 0.1136(3) 0.5629(3) 0.90815(17)
H26 H 0.0985 0.6425 0.8957
H27 H 0.0917 0.5513 0.9520
C25 C 0.0435(3) 0.5109(3) 0.86845(17)
H28 H 0.0509 0.4331 0.8841
H29 H -0.0366 0.5481 0.8704
C26 C 0.0836(3) 0.5204(3) 0.80253(16)
H30 H 0.0425 0.4810 0.7773
H31 H 0.0669 0.5982 0.7855
C27 C 0.2080(2) 0.4738(2) 0.79850(13)
H32 H 0.2237 0.3946 0.8121
H33 H 0.2319 0.4836 0.7550
C28 C 0.5938(2) 0.7634(2) 0.84646(11)
C29 C 0.6790(2) 0.7969(2) 0.88374(11)
C30 C 0.7705(2) 0.7219(2) 0.91105(13)
H34 H 0.7795 0.6466 0.9062
C31 C 0.8483(3) 0.7555(3) 0.94511(14)
H35 H 0.9100 0.7032 0.9639
C32 C 0.8374(3) 0.8632(3) 0.95199(13)
H36 H 0.8911 0.8857 0.9757
C33 C 0.7489(3) 0.9390(3) 0.92473(14)
H37 H 0.7417 1.0141 0.9291
C34 C 0.6703(2) 0.9062(2) 0.89088(12)
H38 H 0.6092 0.9593 0.8722
C35 C 0.1653(2) 0.7399(2) 0.69321(11)
C36 C 0.0588(2) 0.7482(2) 0.66684(13)
H39 H 0.0432 0.7204 0.6299
C37 C -0.0184(2) 0.8046(2) 0.70529(14)
H40 H -0.0976 0.8240 0.6997
C38 C 0.0425(2) 0.8277(2) 0.75398(13)
C39 C 0.0026(2) 0.8902(2) 0.80770(13)
H41 H -0.0805 0.9095 0.8076
H42 H 0.0279 0.8436 0.8466
C40 C 0.0293(2) 1.0364(2) 0.86518(13)
H43 H 0.0686 0.9818 0.8981
H44 H -0.0518 1.0530 0.8750
C41 C 0.0736(3) 1.1394(2) 0.86362(14)
H45 H 0.0568 1.1707 0.9034
H46 H 0.1562 1.1210 0.8588
C42 C 0.0224(3) 1.2236(2) 0.81145(16)
H47 H 0.0611 1.2851 0.8083
H48 H -0.0578 1.2526 0.8201
C43 C 0.0330(3) 1.1736(2) 0.75111(15)
H49 H -0.0079 1.2273 0.7182
H50 H 0.1130 1.1546 0.7393
C44 C -0.0144(2) 1.0728(2) 0.75704(13)
H51 H -0.0950 1.0923 0.7677
H52 H -0.0080 1.0416 0.7170
C45 C 0.2743(2) 0.6844(2) 0.67676(11)
C46 C 0.2936(2) 0.6405(2) 0.61578(12)
C47 C 0.3609(3) 0.5373(3) 0.61264(14)
H53 H 0.3936 0.4954 0.6493
C48 C 0.3805(3) 0.4952(4) 0.55686(19)
H54 H 0.4253 0.4238 0.5551
C49 C 0.3353(4) 0.5561(5) 0.50386(19)
H55 H 0.3493 0.5268 0.4654
C50 C 0.2700(4) 0.6592(4) 0.50553(16)
H56 H 0.2396 0.7015 0.4685
C51 C 0.2490(3) 0.7008(3) 0.56156(12)
H57 H 0.2033 0.7719 0.5630
C52 C 0.4091(2) 0.8937(2) 0.61988(11)
C53 C 0.4476(3) 0.8690(2) 0.56093(12)
H58 H 0.4072 0.8911 0.5231
C54 C 0.5551(3) 0.8066(2) 0.56831(12)
H59 H 0.6032 0.7767 0.5368
C55 C 0.5797(2) 0.7959(2) 0.63168(11)
C56 C 0.6839(2) 0.7342(2) 0.66511(12)
H60 H 0.7448 0.7156 0.6349
H61 H 0.7078 0.7810 0.6935
C57 C 0.6531(2) 0.5538(2) 0.65837(12)
H62 H 0.7200 0.5394 0.6316
H63 H 0.5867 0.5852 0.6315
C58 C 0.6383(3) 0.4478(2) 0.69299(13)
H64 H 0.6306 0.3961 0.6631
H65 H 0.5687 0.4613 0.7177
C59 C 0.7383(3) 0.3977(2) 0.73559(14)
H66 H 0.7245 0.3315 0.7604
H67 H 0.8067 0.3762 0.7107
C60 C 0.7552(2) 0.4804(2) 0.77799(12)
H68 H 0.6909 0.4941 0.8066
H69 H 0.8242 0.4505 0.8030
C61 C 0.7652(2) 0.5869(2) 0.74147(12)
H70 H 0.7726 0.6402 0.7704
H71 H 0.8339 0.5744 0.7160
C62 C 0.3062(2) 0.9552(2) 0.63989(11)
C63 C 0.2196(2) 1.0162(2) 0.59365(11)
C64 C 0.2465(3) 1.0758(3) 0.54075(13)
H72 H 0.3228 1.0770 0.5321
C65 C 0.1630(4) 1.1337(3) 0.50023(16)
H73 H 0.1821 1.1745 0.4639
C66 C 0.0530(4) 1.1326(4) 0.51224(18)
H74 H -0.0042 1.1733 0.4846
C67 C 0.0251(3) 1.0725(3) 0.56425(18)
H75 H -0.0512 1.0706 0.5722
C68 C 0.1084(3) 1.0146(2) 0.60503(13)
H76 H 0.0888 0.9736 0.6411
C69 C 0.8943(11) 0.6106(10) 0.3761(5)
H77 H 0.8288 0.5787 0.3850
H78 H 0.9164 0.6042 0.3330
H79 H 0.8755 0.6878 0.3832
C70 C 0.9910(15) 0.5504(14) 0.4184(10)
H80 H 1.0218 0.4769 0.4056
H81 H 1.0518 0.5912 0.4164
C71 C 0.9491(15) 0.5420(15) 0.478(2)
H82 H 0.8807 0.5119 0.4789
H83 H 0.9298 0.6147 0.4935
C69A C 1.1057(11) 0.3894(10) 0.6239(5)
H77A H 1.1712 0.4213 0.6150
H78A H 1.0836 0.3958 0.6670
H79A H 1.1245 0.3122 0.6168
C70A C 1.0090(15) 0.4496(14) 0.5816(10)
H80A H 0.9782 0.5231 0.5944
H81A H 0.9482 0.4088 0.5836
C71A C 1.0509(15) 0.4580(15) 0.522(2)
H82A H 1.1193 0.4881 0.5211
H83A H 1.0702 0.3853 0.5065
loop_
_geom_bond_atom_site_label_1
_geom_bond_atom_site_label_2
_geom_bond_site_symmetry_1
_geom_bond_site_symmetry_2
Li1 N1 1_555 1_555
Li2 N3 1_555 1_555
Li3 N3 1_555 1_555
Li4 N1 1_555 1_555
N1 C1 1_555 1_555
N2 Li4 1_555 1_555
N3 C18 1_555 1_555
N4 Li3 1_555 1_555
N5 Li1 1_555 1_555
N6 Li1 1_555 1_555
N7 Li2 1_555 1_555
N8 Li2 1_555 1_555
O1 Li1 1_555 1_555
O2 Li2 1_555 1_555
O3 Li2 1_555 1_555
O4 Li1 1_555 1_555
C1 C2 1_555 1_555
C2 H1 1_555 1_555
C3 C2 1_555 1_555
H2 C3 1_555 1_555
C4 N1 1_555 1_555
C5 N2 1_555 1_555
H3 C5 1_555 1_555
H4 C5 1_555 1_555
C6 N2 1_555 1_555
H5 C6 1_555 1_555
H6 C6 1_555 1_555
C7 C6 1_555 1_555
H7 C7 1_555 1_555
H8 C7 1_555 1_555
C8 C7 1_555 1_555
H9 C8 1_555 1_555
H10 C8 1_555 1_555
C9 C8 1_555 1_555
H11 C9 1_555 1_555
H12 C9 1_555 1_555
C10 N2 1_555 1_555
H13 C10 1_555 1_555
H14 C10 1_555 1_555
C11 O1 1_555 1_555
C12 C11 1_555 1_555
C13 C12 1_555 1_555
H15 C13 1_555 1_555
C14 C13 1_555 1_555
H16 C14 1_555 1_555
C15 C14 1_555 1_555
H17 C15 1_555 1_555
C16 C15 1_555 1_555
H18 C16 1_555 1_555
C17 C12 1_555 1_555
H19 C17 1_555 1_555
C18 C19 1_555 1_555
C19 H20 1_555 1_555
C20 C19 1_555 1_555
H21 C20 1_555 1_555
C21 N3 1_555 1_555
C22 N4 1_555 1_555
H22 C22 1_555 1_555
H23 C22 1_555 1_555
C23 N4 1_555 1_555
H24 C23 1_555 1_555
H25 C23 1_555 1_555
C24 C23 1_555 1_555
H26 C24 1_555 1_555
H27 C24 1_555 1_555
C25 C24 1_555 1_555
H28 C25 1_555 1_555
H29 C25 1_555 1_555
C26 C25 1_555 1_555
H30 C26 1_555 1_555
H31 C26 1_555 1_555
C27 N4 1_555 1_555
H32 C27 1_555 1_555
H33 C27 1_555 1_555
C28 O2 1_555 1_555
C29 C28 1_555 1_555
C30 C29 1_555 1_555
H34 C30 1_555 1_555
C31 C30 1_555 1_555
H35 C31 1_555 1_555
C32 C31 1_555 1_555
H36 C32 1_555 1_555
C33 C32 1_555 1_555
H37 C33 1_555 1_555
C34 C29 1_555 1_555
H38 C34 1_555 1_555
C35 N5 1_555 1_555
C36 C35 1_555 1_555
H39 C36 1_555 1_555
C37 C36 1_555 1_555
H40 C37 1_555 1_555
C38 N5 1_555 1_555
C39 N6 1_555 1_555
H41 C39 1_555 1_555
H42 C39 1_555 1_555
C40 N6 1_555 1_555
H43 C40 1_555 1_555
H44 C40 1_555 1_555
C41 C40 1_555 1_555
H45 C41 1_555 1_555
H46 C41 1_555 1_555
C42 C41 1_555 1_555
H47 C42 1_555 1_555
H48 C42 1_555 1_555
C43 C42 1_555 1_555
H49 C43 1_555 1_555
H50 C43 1_555 1_555
C44 N6 1_555 1_555
H51 C44 1_555 1_555
H52 C44 1_555 1_555
C45 O3 1_555 1_555
C46 C45 1_555 1_555
C47 C46 1_555 1_555
H53 C47 1_555 1_555
C48 C47 1_555 1_555
H54 C48 1_555 1_555
C49 C48 1_555 1_555
H55 C49 1_555 1_555
C50 C49 1_555 1_555
H56 C50 1_555 1_555
C51 C46 1_555 1_555
H57 C51 1_555 1_555
C52 N7 1_555 1_555
C53 C52 1_555 1_555
H58 C53 1_555 1_555
C54 C53 1_555 1_555
H59 C54 1_555 1_555
C55 N7 1_555 1_555
C56 N8 1_555 1_555
H60 C56 1_555 1_555
H61 C56 1_555 1_555
C57 N8 1_555 1_555
H62 C57 1_555 1_555
H63 C57 1_555 1_555
C58 C57 1_555 1_555
H64 C58 1_555 1_555
H65 C58 1_555 1_555
C59 C58 1_555 1_555
H66 C59 1_555 1_555
H67 C59 1_555 1_555
C60 C59 1_555 1_555
H68 C60 1_555 1_555
H69 C60 1_555 1_555
C61 N8 1_555 1_555
H70 C61 1_555 1_555
H71 C61 1_555 1_555
C62 O4 1_555 1_555
C63 C62 1_555 1_555
C64 C63 1_555 1_555
H72 C64 1_555 1_555
C65 C64 1_555 1_555
H73 C65 1_555 1_555
C66 C65 1_555 1_555
H74 C66 1_555 1_555
C67 C66 1_555 1_555
H75 C67 1_555 1_555
C68 C63 1_555 1_555
H76 C68 1_555 1_555
C69 H77 1_555 1_555
H78 C69 1_555 1_555
H79 C69 1_555 1_555
C70 C69 1_555 1_555
H80 C70 1_555 1_555
H81 C70 1_555 1_555
C71 C70 1_555 1_555
H82 C71 1_555 1_555
H83 C71 1_555 1_555
C69A H77A 1_555 1_555
H78A C69A 1_555 1_555
H79A C69A 1_555 1_555
C70A C69A 1_555 1_555
H80A C70A 1_555 1_555
H81A C70A 1_555 1_555
C71A C71 1_555 1_555
H82A C71A 1_555 1_555
H83A C71A 1_555 1_555
Li3 N5 1_555 1_555
Li3 O1 1_555 1_555
Li3 O3 1_555 1_555
Li4 N7 1_555 1_555
Li4 O2 1_555 1_555
Li4 O4 1_555 1_555
C1 C11 1_555 1_555
C3 C4 1_555 1_555
C4 C5 1_555 1_555
C9 C10 1_555 1_555
C16 C17 1_555 1_555
C18 C28 1_555 1_555
C20 C21 1_555 1_555
C21 C22 1_555 1_555
C26 C27 1_555 1_555
C33 C34 1_555 1_555
C35 C45 1_555 1_555
C37 C38 1_555 1_555
C38 C39 1_555 1_555
C43 C44 1_555 1_555
C50 C51 1_555 1_555
C52 C62 1_555 1_555
C54 C55 1_555 1_555
C55 C56 1_555 1_555
C60 C61 1_555 1_555
C67 C68 1_555 1_555
C70A C71A 1_555 1_555

#END
