
#######################################################################
#
#                 Cambridge Crystallographic Data Centre
#                                CCDC 
#
#######################################################################
#
# If this CIF has been generated from an entry in the Cambridge 
# Structural Database, then it will include bibliographic, chemical, 
# crystal, experimental, refinement or atomic coordinate data resulting 
# from the CCDC's data processing and validation procedures.
#
#######################################################################

data_MASPII
_chemical_name_common            '(4R,7S)-6-O-cinnamoyl-(+)-crassalactone D'
_chemical_formula_moiety         'C22 H18 O5'
_chemical_name_systematic        
'7-oxo-2-phenyl-1,6-dioxaspiro[4.4]non-8-en-3-yl 3-phenylprop-2-enoate'
_chemical_properties_biological  'cytotoxic activity'
_symmetry_cell_setting           monoclinic
_symmetry_space_group_name_H-M   'P 21'
_symmetry_Int_Tables_number      4
_space_group_name_Hall           'P 2yb'
loop_
_symmetry_equiv_pos_site_id
_symmetry_equiv_pos_as_xyz
1 x,y,z
2 -x,1/2+y,-z
_cell_length_a                   5.6330(8)
_cell_length_b                   9.3809(10)
_cell_length_c                   17.3408(19)
_cell_angle_alpha                90
_cell_angle_beta                 98.062(12)
_cell_angle_gamma                90
_cell_volume                     907.277
_exptl_crystal_colour            colorless
_exptl_crystal_description       needle
_chemical_melting_point          '163-166 deg.C'
_cell_formula_units_Z            2
loop_
_atom_site_label
_atom_site_type_symbol
_atom_site_fract_x
_atom_site_fract_y
_atom_site_fract_z
O1 O 0.8918(4) 0.4488(3) 0.55275(13)
O2 O 0.6155(4) 0.4049(3) 0.44314(14)
O3 O 0.8585(5) 0.2105(3) 0.67523(14)
O4 O 0.6277(6) 0.2513(4) 0.76729(15)
O5 O 0.5432(6) 0.4647(4) 0.31714(16)
C1 C 0.7353(6) 0.4380(4) 0.61191(18)
H1 H 0.5830 0.4837 0.5915
C2 C 0.8148(6) 0.3470(4) 0.49619(18)
C3 C 0.6883(6) 0.2787(4) 0.61855(19)
H2 H 0.5241 0.2608 0.6287
C4 C 1.1699(7) 0.0254(4) 0.9255(2)
C5 C 0.8411(7) 0.5189(4) 0.68303(19)
C6 C 0.6794(8) 0.4179(4) 0.3702(2)
C7 C 1.0084(8) 0.1279(5) 0.7985(2)
H3 H 1.1439 0.0998 0.7774
C8 C 0.9949(8) 0.1022(5) 0.8705(2)
H4 H 0.8594 0.1361 0.8897
C9 C 1.3741(7) -0.0401(5) 0.9045(2)
H5 H 1.4086 -0.0319 0.8538
C10 C 1.1265(8) 0.0124(5) 1.0023(2)
H6 H 0.9910 0.0549 1.0173
C11 C 1.4751(8) -0.1276(6) 1.0340(2)
H7 H 1.5759 -0.1803 1.0704
C12 C 1.2786(9) -0.0611(6) 1.0556(3)
H8 H 1.2491 -0.0663 1.1070
C13 C 0.7272(9) 0.2213(5) 0.5391(2)
H9 H 0.8457 0.1456 0.5447
H10 H 0.5786 0.1843 0.5113
C14 C 1.0721(7) 0.4920(5) 0.7189(2)
H11 H 1.1675 0.4246 0.6987
C15 C 1.0179(12) 0.6687(7) 0.8160(3)
H12 H 1.0763 0.7177 0.8613
C16 C 1.0006(7) 0.3252(5) 0.4443(2)
H13 H 1.1519 0.2871 0.4604
C17 C 1.5245(7) -0.1169(5) 0.9587(2)
H14 H 1.6592 -0.1614 0.9445
C18 C 0.9236(8) 0.3666(5) 0.3729(2)
H15 H 1.0106 0.3637 0.3312
C19 C 0.7916(11) 0.6966(6) 0.7792(3)
H16 H 0.6980 0.7661 0.7986
C20 C 0.8064(8) 0.2034(4) 0.7475(2)
C21 C 0.7037(8) 0.6211(4) 0.7132(2)
H17 H 0.5492 0.6392 0.6885
C22 C 1.1594(9) 0.5690(7) 0.7867(3)
H18 H 1.3139 0.5522 0.8118
loop_
_geom_bond_atom_site_label_1
_geom_bond_atom_site_label_2
_geom_bond_site_symmetry_1
_geom_bond_site_symmetry_2
O1 C1 1_555 1_555
O2 C2 1_555 1_555
O3 C3 1_555 1_555
O4 C20 1_555 1_555
O5 C6 1_555 1_555
C1 H1 1_555 1_555
C2 O1 1_555 1_555
C3 C1 1_555 1_555
H2 C3 1_555 1_555
C4 C8 1_555 1_555
C5 C1 1_555 1_555
C6 O2 1_555 1_555
C7 H3 1_555 1_555
C8 C7 1_555 1_555
H4 C8 1_555 1_555
C9 C4 1_555 1_555
H5 C9 1_555 1_555
C10 C4 1_555 1_555
H6 C10 1_555 1_555
C11 H7 1_555 1_555
C12 C10 1_555 1_555
H8 C12 1_555 1_555
C13 C2 1_555 1_555
H9 C13 1_555 1_555
H10 C13 1_555 1_555
C14 C5 1_555 1_555
H11 C14 1_555 1_555
C15 H12 1_555 1_555
C16 C2 1_555 1_555
H13 C16 1_555 1_555
C17 C9 1_555 1_555
H14 C17 1_555 1_555
C18 C6 1_555 1_555
H15 C18 1_555 1_555
C19 C15 1_555 1_555
H16 C19 1_555 1_555
C20 O3 1_555 1_555
C21 C5 1_555 1_555
H17 C21 1_555 1_555
C22 C14 1_555 1_555
H18 C22 1_555 1_555
C3 C13 1_555 1_555
C7 C20 1_555 1_555
C11 C12 1_555 1_555
C11 C17 1_555 1_555
C15 C22 1_555 1_555
C16 C18 1_555 1_555
C19 C21 1_555 1_555

#END
