
#######################################################################
#
#                 Cambridge Crystallographic Data Centre
#                                CCDC 
#
#######################################################################
#
# If this CIF has been generated from an entry in the Cambridge 
# Structural Database, then it will include bibliographic, chemical, 
# crystal, experimental, refinement or atomic coordinate data resulting 
# from the CCDC's data processing and validation procedures.
#
#######################################################################

data_MATHAQ
_chemical_name_common            cis-2,6-Diphenylthiacyclohexan-4-one
_chemical_formula_moiety         'C17 H16 O1 S1'
_chemical_name_systematic        cis-2,6-Diphenylthiapyran-4-one
_symmetry_cell_setting           orthorhombic
_symmetry_space_group_name_H-M   'P n m a'
_symmetry_Int_Tables_number      62
_space_group_name_Hall           '-P 2ac 2n'
loop_
_symmetry_equiv_pos_site_id
_symmetry_equiv_pos_as_xyz
1 x,y,z
2 1/2+x,y,1/2-z
3 1/2-x,1/2+y,1/2+z
4 x,1/2-y,z
5 -x,-y,-z
6 1/2-x,-y,1/2+z
7 1/2+x,1/2-y,1/2-z
8 -x,1/2+y,-z
_cell_length_a                   10.867(3)
_cell_length_b                   24.284(4)
_cell_length_c                   5.427(2)
_cell_angle_alpha                90
_cell_angle_beta                 90
_cell_angle_gamma                90
_cell_volume                     1432.15
_exptl_crystal_colour            colorless
_exptl_crystal_description       plates
_cell_formula_units_Z            4
_exptl_crystal_recrystallization_method ethanol
loop_
_atom_site_label
_atom_site_type_symbol
_atom_site_fract_x
_atom_site_fract_y
_atom_site_fract_z
S1 S 0.28672(5) 0.2500 0.77840(10)
O1 O 0.0090(2) 0.2500 0.2052(3)
C1 C 0.23937(14) 0.19352(7) 0.5821(3)
C2 C 0.10133(15) 0.19750(8) 0.5219(4)
C3 C 0.0661(2) 0.2500 0.3963(4)
C4 C 0.27358(16) 0.14107(8) 0.7105(3)
C5 C 0.2127(2) 0.12431(10) 0.9227(4)
C6 C 0.2452(3) 0.07676(11) 1.0424(6)
C7 C 0.3391(3) 0.04492(11) 0.9537(6)
C8 C 0.4009(3) 0.06105(12) 0.7482(7)
C9 C 0.3688(2) 0.10896(9) 0.6252(5)
H1 H 0.0779(18) 0.1652(8) 0.424(4)
H2 H 0.2857(18) 0.1970(8) 0.430(4)
H3 H 0.053(2) 0.1970(8) 0.684(4)
H4 H 0.201(3) 0.0632(12) 1.195(6)
H5 H 0.359(3) 0.0125(13) 1.032(5)
H6 H 0.467(3) 0.0420(11) 0.689(5)
H7 H 0.407(2) 0.1207(9) 0.476(4)
H8 H 0.145(3) 0.1461(10) 0.983(5)
C2C C 0.10133(15) 0.30250(8) 0.5219(4)
C1C C 0.23937(14) 0.30648(7) 0.5821(3)
C4C C 0.27358(16) 0.35893(8) 0.7105(3)
C5C C 0.2127(2) 0.37569(10) 0.9227(4)
C6C C 0.2452(3) 0.42324(11) 1.0424(6)
C7C C 0.3391(3) 0.45508(11) 0.9537(6)
C8C C 0.4009(3) 0.43895(12) 0.7482(7)
C9C C 0.3688(2) 0.39104(9) 0.6252(5)
H7C H 0.407(2) 0.3793(9) 0.476(4)
H6C H 0.467(3) 0.4580(11) 0.689(5)
H5C H 0.359(3) 0.4875(13) 1.032(5)
H4C H 0.201(3) 0.4368(12) 1.195(6)
H8C H 0.145(3) 0.3539(10) 0.983(5)
H2C H 0.2857(18) 0.3030(8) 0.430(4)
H1C H 0.0779(18) 0.3348(8) 0.424(4)
H3C H 0.053(2) 0.3030(8) 0.684(4)
loop_
_geom_bond_atom_site_label_1
_geom_bond_atom_site_label_2
_geom_bond_site_symmetry_1
_geom_bond_site_symmetry_2
S1 C1 1_555 1_555
O1 C3 1_555 1_555
C1 C2 1_555 1_555
C2 C3 1_555 1_555
C3 C2C 1_555 1_555
C4 C1 1_555 1_555
C5 C4 1_555 1_555
C6 C5 1_555 1_555
C7 C6 1_555 1_555
C8 C7 1_555 1_555
C9 C4 1_555 1_555
H1 C2 1_555 1_555
H2 C1 1_555 1_555
H3 C2 1_555 1_555
H4 C6 1_555 1_555
H5 C7 1_555 1_555
H6 C8 1_555 1_555
H7 C9 1_555 1_555
H8 C5 1_555 1_555
C2C C1C 1_555 1_555
C1C S1 1_555 1_555
C4C C1C 1_555 1_555
C5C C4C 1_555 1_555
C6C C5C 1_555 1_555
C7C C6C 1_555 1_555
C8C C7C 1_555 1_555
C9C C4C 1_555 1_555
H7C C9C 1_555 1_555
H6C C8C 1_555 1_555
H5C C7C 1_555 1_555
H4C C6C 1_555 1_555
H8C C5C 1_555 1_555
H2C C1C 1_555 1_555
H1C C2C 1_555 1_555
H3C C2C 1_555 1_555
C8 C9 1_555 1_555
C8C C9C 1_555 1_555

#END
