
#######################################################################
#
#                 Cambridge Crystallographic Data Centre
#                                CCDC 
#
#######################################################################
#
# If this CIF has been generated from an entry in the Cambridge 
# Structural Database, then it will include bibliographic, chemical, 
# crystal, experimental, refinement or atomic coordinate data resulting 
# from the CCDC's data processing and validation procedures.
#
#######################################################################

data_MATNAZ01
_chemical_formula_moiety         'C18 H12 B3 F3 O3'
_chemical_name_systematic        
2,4,6-tris(4-fluorophenyl)-1,3,5,2,4,6-trioxatriborinane
_symmetry_cell_setting           monoclinic
_symmetry_space_group_name_H-M   'P 21/m'
_symmetry_Int_Tables_number      11
_space_group_name_Hall           '-P 2yb'
loop_
_symmetry_equiv_pos_site_id
_symmetry_equiv_pos_as_xyz
1 x,y,z
2 -x,1/2+y,-z
3 -x,-y,-z
4 x,1/2-y,z
_cell_length_a                   3.8105(3)
_cell_length_b                   20.8028(16)
_cell_length_c                   10.3896(10)
_cell_angle_alpha                90
_cell_angle_beta                 96.843(8)
_cell_angle_gamma                90
_cell_volume                     817.707
_exptl_crystal_colour            colorless
_exptl_crystal_description       block
_cell_formula_units_Z            2
loop_
_atom_site_label
_atom_site_type_symbol
_atom_site_fract_x
_atom_site_fract_y
_atom_site_fract_z
B1 B 0.3120(4) 0.19214(8) 0.59900(18)
B2 B -0.0111(6) 0.2500 0.4224(3)
C1 C 0.6121(4) 0.01450(7) 0.79426(16)
C2 C 0.7168(4) 0.07139(7) 0.85498(15)
H1 H 0.8467 0.0717 0.9366
C3 C 0.6216(4) 0.12820(7) 0.79004(15)
H2 H 0.6920 0.1672 0.8286
C4 C 0.4223(4) 0.12827(7) 0.66797(15)
C5 C 0.3219(4) 0.06881(7) 0.61181(16)
H3 H 0.1888 0.0678 0.5308
C6 C 0.4167(4) 0.01158(7) 0.67441(16)
H4 H 0.3500 -0.0277 0.6364
C7 C -0.2455(5) 0.2500 0.2904(2)
C8 C -0.3509(4) 0.19224(7) 0.22695(15)
H5 H -0.2845 0.1534 0.2669
C9 C -0.5503(4) 0.19172(7) 0.10691(16)
H6 H -0.6198 0.1532 0.0660
C10 C -0.6431(5) 0.2500 0.0497(2)
F1 F 0.7079(3) -0.04176(4) 0.85581(10)
F2 F -0.8411(3) 0.2500 -0.06821(12)
O1 O 0.0908(3) 0.19261(5) 0.48319(10)
O2 O 0.4324(4) 0.2500 0.65249(14)
B1C B 0.3120(4) 0.30786(8) 0.59900(18)
C1C C 0.6121(4) 0.48550(7) 0.79426(16)
C2C C 0.7168(4) 0.42861(7) 0.85498(15)
H1C H 0.8467 0.4283 0.9366
C3C C 0.6216(4) 0.37180(7) 0.79004(15)
H2C H 0.6920 0.3328 0.8286
C4C C 0.4223(4) 0.37173(7) 0.66797(15)
C5C C 0.3219(4) 0.43119(7) 0.61181(16)
H3C H 0.1888 0.4322 0.5308
C6C C 0.4167(4) 0.48842(7) 0.67441(16)
H4C H 0.3500 0.5277 0.6364
C8C C -0.3509(4) 0.30776(7) 0.22695(15)
H5C H -0.2845 0.3466 0.2669
C9C C -0.5503(4) 0.30828(7) 0.10691(16)
H6C H -0.6198 0.3468 0.0660
F1C F 0.7079(3) 0.54176(4) 0.85581(10)
O1C O 0.0908(3) 0.30739(5) 0.48319(10)
loop_
_geom_bond_atom_site_label_1
_geom_bond_atom_site_label_2
_geom_bond_site_symmetry_1
_geom_bond_site_symmetry_2
B1 C4 1_555 1_555
B2 C7 1_555 1_555
C1 C2 1_555 1_555
C2 H1 1_555 1_555
C3 C2 1_555 1_555
H2 C3 1_555 1_555
C4 C3 1_555 1_555
C5 C4 1_555 1_555
H3 C5 1_555 1_555
C6 C1 1_555 1_555
H4 C6 1_555 1_555
C7 C8 1_555 1_555
C8 H5 1_555 1_555
C9 C8 1_555 1_555
H6 C9 1_555 1_555
C10 C9 1_555 1_555
F1 C1 1_555 1_555
F2 C10 1_555 1_555
O1 B1 1_555 1_555
O2 B1 1_555 1_555
B1C O2 1_555 1_555
C1C C2C 1_555 1_555
C2C H1C 1_555 1_555
C3C C2C 1_555 1_555
H2C C3C 1_555 1_555
C4C B1C 1_555 1_555
C5C C4C 1_555 1_555
H3C C5C 1_555 1_555
C6C C1C 1_555 1_555
H4C C6C 1_555 1_555
C8C C7 1_555 1_555
H5C C8C 1_555 1_555
C9C C10 1_555 1_555
H6C C9C 1_555 1_555
F1C C1C 1_555 1_555
O1C B2 1_555 1_555
B2 O1 1_555 1_555
C5 C6 1_555 1_555
B1C O1C 1_555 1_555
C3C C4C 1_555 1_555
C5C C6C 1_555 1_555
C8C C9C 1_555 1_555

#END
