
#######################################################################
#
#                 Cambridge Crystallographic Data Centre
#                                CCDC 
#
#######################################################################
#
# If this CIF has been generated from an entry in the Cambridge 
# Structural Database, then it will include bibliographic, chemical, 
# crystal, experimental, refinement or atomic coordinate data resulting 
# from the CCDC's data processing and validation procedures.
#
#######################################################################

data_MATSEG
_chemical_name_common            'PDB Chemical Component code: 2FT'
_chemical_formula_moiety         'C5 H6 F2 O4,H2 O1'
_chemical_name_systematic        
'2,2-Difluoropentane-1,5-dioic acid monohydrate'
_symmetry_cell_setting           triclinic
_symmetry_space_group_name_H-M   'P -1'
_symmetry_Int_Tables_number      2
_space_group_name_Hall           '-P 1'
loop_
_symmetry_equiv_pos_site_id
_symmetry_equiv_pos_as_xyz
1 x,y,z
2 -x,-y,-z
_cell_length_a                   4.7780(5)
_cell_length_b                   4.9810(4)
_cell_length_c                   16.3720(10)
_cell_angle_alpha                95.762(6)
_cell_angle_beta                 94.995(6)
_cell_angle_gamma                97.670(5)
_cell_volume                     382.204
_exptl_crystal_colour            colorless
_exptl_crystal_description       prism
_cell_formula_units_Z            2
_exptl_crystal_recrystallization_method ether/toluene
loop_
_atom_site_label
_atom_site_type_symbol
_atom_site_fract_x
_atom_site_fract_y
_atom_site_fract_z
F1 F 0.2774(2) 0.5420(2) 0.25994(7)
F2 F 0.3810(2) 0.9128(3) 0.20318(7)
O1 O -0.2067(3) 0.4157(3) 0.16462(9)
H1 H -0.3687 0.3411 0.1044
O2 O 0.2597(3) 1.2648(3) 0.50058(9)
H2 H 0.1989 1.4104 0.5360
O3 O -0.0659(4) 0.7625(3) 0.09385(9)
O4 O -0.0781(3) 1.3398(3) 0.40654(9)
C1 C -0.0493(4) 0.6390(4) 0.15325(11)
C2 C 0.1600(4) 0.7506(4) 0.22885(11)
C3 C 0.0252(4) 0.9076(4) 0.29416(11)
H3 H -0.1515 0.7750 0.3085
H4 H -0.0382 1.0763 0.2767
C4 C 0.2336(4) 1.0196(4) 0.36890(12)
H5 H 0.4217 1.1404 0.3544
H6 H 0.2968 0.8908 0.3939
C5 C 0.1210(4) 1.2212(4) 0.42654(11)
O5 O 0.3527(4) 0.2442(4) 0.06453(12)
H7 H 0.2518 0.0759 0.0811
H8 H 0.2843 0.2474 0.0056
loop_
_geom_bond_atom_site_label_1
_geom_bond_atom_site_label_2
_geom_bond_site_symmetry_1
_geom_bond_site_symmetry_2
F1 C2 1_555 1_555
F2 C2 1_555 1_555
O1 H1 1_555 1_555
O2 H2 1_555 1_555
O3 C1 1_555 1_555
O4 C5 1_555 1_555
C1 O1 1_555 1_555
C2 C1 1_555 1_555
C3 C2 1_555 1_555
H3 C3 1_555 1_555
H4 C3 1_555 1_555
C4 C3 1_555 1_555
H5 C4 1_555 1_555
H6 C4 1_555 1_555
C5 O2 1_555 1_555
O5 H7 1_555 1_555
H8 O5 1_555 1_555
C4 C5 1_555 1_555

#END
