
#######################################################################
#
#                 Cambridge Crystallographic Data Centre
#                                CCDC 
#
#######################################################################
#
# If this CIF has been generated from an entry in the Cambridge 
# Structural Database, then it will include bibliographic, chemical, 
# crystal, experimental, refinement or atomic coordinate data resulting 
# from the CCDC's data processing and validation procedures.
#
#######################################################################

data_MAVVAJ
_chemical_formula_moiety         'C25 H25 N1 O5 S2'
_chemical_name_systematic        
'3-methyl-4-(2-{[(4-methylphenyl)sulfonyl]amino}phenyl)buta-1,3-dien-2-yl 4-methylbenzene-1-sulfonate'
_symmetry_cell_setting           triclinic
_symmetry_space_group_name_H-M   'P -1'
_symmetry_Int_Tables_number      2
_space_group_name_Hall           '-P 1'
loop_
_symmetry_equiv_pos_site_id
_symmetry_equiv_pos_as_xyz
1 x,y,z
2 -x,-y,-z
_cell_length_a                   9.1949(13)
_cell_length_b                   10.8105(16)
_cell_length_c                   13.5437(19)
_cell_angle_alpha                100.222(3)
_cell_angle_beta                 97.215(3)
_cell_angle_gamma                111.349(3)
_cell_volume                     1207.12
_exptl_crystal_colour            yellow
_exptl_crystal_description       block
_cell_formula_units_Z            2
loop_
_atom_site_label
_atom_site_type_symbol
_atom_site_fract_x
_atom_site_fract_y
_atom_site_fract_z
S1 S 0.74426(7) 0.19683(7) 0.43122(4)
S2 S 0.54330(7) 0.30096(6) 0.10815(4)
O1 O 0.7653(2) 0.3261(2) 0.41165(16)
O2 O 0.7510(2) 0.0925(2) 0.35421(14)
O3 O 0.57130(19) 0.12821(17) 0.45395(12)
N1 N 0.5122(2) 0.3804(2) 0.21412(15)
H1 H 0.5914 0.4345 0.2628
O4 O 0.7116(2) 0.3346(2) 0.12788(14)
O5 O 0.4714(2) 0.3356(2) 0.02392(14)
C1 C 0.8925(4) 0.1031(3) 0.5671(2)
H2 H 0.8337 0.0166 0.5240
C2 C 0.9977(4) 0.1196(3) 0.6540(3)
H3 H 1.0118 0.0435 0.6689
C3 C 1.0848(3) 0.2481(3) 0.7211(2)
C4 C 1.2022(5) 0.2630(5) 0.8151(3)
H4 H 1.2834 0.3543 0.8345
H5 H 1.2505 0.1985 0.8005
H6 H 1.1476 0.2458 0.8703
C5 C 1.0627(3) 0.3586(3) 0.6971(2)
H7 H 1.1193 0.4446 0.7413
C6 C 0.9593(3) 0.3465(3) 0.6095(2)
H8 H 0.9462 0.4230 0.5945
C7 C 0.8751(3) 0.2178(3) 0.54422(18)
C8 C 0.5121(3) 0.2102(3) 0.51899(19)
C9 C 0.5433(4) 0.2177(4) 0.6177(2)
H9 H 0.6014 0.1710 0.6424
H10 H 0.5072 0.2697 0.6628
C10 C 0.4146(3) 0.2685(2) 0.46484(18)
C11 C 0.3561(4) 0.3586(3) 0.5328(2)
H11 H 0.3185 0.4107 0.4936
H12 H 0.4421 0.4197 0.5884
H13 H 0.2706 0.3027 0.5598
C12 C 0.3829(3) 0.2408(2) 0.36227(18)
H14 H 0.4250 0.1833 0.3285
C13 C 0.2881(3) 0.2922(2) 0.29744(18)
C14 C 0.1314(3) 0.2748(3) 0.3069(2)
H15 H 0.0873 0.2329 0.3566
C15 C 0.0432(3) 0.3194(3) 0.2432(3)
H16 H -0.0611 0.3052 0.2488
C16 C 0.1078(4) 0.3845(3) 0.1715(3)
H17 H 0.0472 0.4142 0.1288
C17 C 0.2632(3) 0.4062(3) 0.1623(2)
H18 H 0.3079 0.4529 0.1150
C18 C 0.3515(3) 0.3581(2) 0.22398(18)
C19 C 0.4410(3) 0.1260(2) 0.09862(17)
C20 C 0.2795(3) 0.0617(3) 0.0549(2)
H19 H 0.2264 0.1093 0.0259
C21 C 0.1988(4) -0.0731(3) 0.0548(3)
H20 H 0.0907 -0.1166 0.0248
C22 C 0.2753(4) -0.1457(3) 0.0986(2)
C23 C 0.1861(5) -0.2935(3) 0.0990(3)
H21 H 0.2384 -0.3478 0.0680
H22 H 0.0786 -0.3254 0.0609
H23 H 0.1844 -0.3014 0.1684
C24 C 0.4366(4) -0.0804(3) 0.1403(2)
H24 H 0.4900 -0.1284 0.1685
C25 C 0.5201(3) 0.0549(3) 0.14094(19)
H25 H 0.6288 0.0978 0.1696
loop_
_geom_bond_atom_site_label_1
_geom_bond_atom_site_label_2
_geom_bond_site_symmetry_1
_geom_bond_site_symmetry_2
S1 O1 1_555 1_555
S2 N1 1_555 1_555
O2 S1 1_555 1_555
O3 S1 1_555 1_555
N1 H1 1_555 1_555
O4 S2 1_555 1_555
O5 S2 1_555 1_555
C1 H2 1_555 1_555
C2 C1 1_555 1_555
H3 C2 1_555 1_555
C3 C2 1_555 1_555
C4 C3 1_555 1_555
H4 C4 1_555 1_555
H5 C4 1_555 1_555
H6 C4 1_555 1_555
C5 C3 1_555 1_555
H7 C5 1_555 1_555
C6 C5 1_555 1_555
H8 C6 1_555 1_555
C7 S1 1_555 1_555
C8 O3 1_555 1_555
C9 C8 1_555 1_555
H9 C9 1_555 1_555
H10 C9 1_555 1_555
C10 C8 1_555 1_555
C11 C10 1_555 1_555
H11 C11 1_555 1_555
H12 C11 1_555 1_555
H13 C11 1_555 1_555
C12 C10 1_555 1_555
H14 C12 1_555 1_555
C13 C12 1_555 1_555
C14 C13 1_555 1_555
H15 C14 1_555 1_555
C15 C14 1_555 1_555
H16 C15 1_555 1_555
C16 C15 1_555 1_555
H17 C16 1_555 1_555
C17 C16 1_555 1_555
H18 C17 1_555 1_555
C18 N1 1_555 1_555
C19 S2 1_555 1_555
C20 C19 1_555 1_555
H19 C20 1_555 1_555
C21 C20 1_555 1_555
H20 C21 1_555 1_555
C22 C21 1_555 1_555
C23 C22 1_555 1_555
H21 C23 1_555 1_555
H22 C23 1_555 1_555
H23 C23 1_555 1_555
C24 C22 1_555 1_555
H24 C24 1_555 1_555
C25 C19 1_555 1_555
H25 C25 1_555 1_555
C1 C7 1_555 1_555
C6 C7 1_555 1_555
C13 C18 1_555 1_555
C17 C18 1_555 1_555
C24 C25 1_555 1_555

#END
