
#######################################################################
#
#                 Cambridge Crystallographic Data Centre
#                                CCDC 
#
#######################################################################
#
# If this CIF has been generated from an entry in the Cambridge 
# Structural Database, then it will include bibliographic, chemical, 
# crystal, experimental, refinement or atomic coordinate data resulting 
# from the CCDC's data processing and validation procedures.
#
#######################################################################

data_MAVZOA
_chemical_formula_moiety         'C26 H17 N1 O2'
_chemical_name_systematic        
(4,5-Diphenyl-1,3-oxazol-2-yl)(2-naphthyl)methanone
_symmetry_cell_setting           monoclinic
_symmetry_space_group_name_H-M   'P 21/c'
_symmetry_Int_Tables_number      14
_space_group_name_Hall           '-P 2ybc'
loop_
_symmetry_equiv_pos_site_id
_symmetry_equiv_pos_as_xyz
1 x,y,z
2 -x,1/2+y,1/2-z
3 -x,-y,-z
4 x,1/2-y,1/2+z
_cell_length_a                   6.211(3)
_cell_length_b                   16.562(8)
_cell_length_c                   18.215(9)
_cell_angle_alpha                90
_cell_angle_beta                 94.318(9)
_cell_angle_gamma                90
_cell_volume                     1868.4
_exptl_crystal_colour            colorless
_exptl_crystal_description       needle
_cell_formula_units_Z            4
loop_
_atom_site_label
_atom_site_type_symbol
_atom_site_fract_x
_atom_site_fract_y
_atom_site_fract_z
C1 C 0.5978(5) 0.70877(18) 0.09565(16)
C2 C 0.7224(5) 0.66997(19) 0.04440(16)
H1 H 0.6832 0.6186 0.0278
C3 C 0.8979(5) 0.7060(2) 0.01887(17)
H2 H 0.9782 0.6787 -0.0143
C4 C 0.9603(5) 0.78422(19) 0.04181(16)
C5 C 0.8363(5) 0.82448(18) 0.09237(16)
C6 C 0.6564(5) 0.78463(18) 0.11868(16)
H3 H 0.5758 0.8107 0.1526
C7 C 0.8961(6) 0.9031(2) 0.1149(2)
H4 H 0.8166 0.9298 0.1488
C8 C 1.0686(6) 0.9407(2) 0.0880(2)
H5 H 1.1042 0.9932 0.1026
C9 C 1.1917(6) 0.9006(3) 0.0385(2)
H6 H 1.3104 0.9262 0.0207
C10 C 1.1399(5) 0.8246(2) 0.01597(19)
H7 H 1.2240 0.7986 -0.0170
C11 C 0.4097(5) 0.66400(19) 0.12072(17)
C12 C 0.2836(5) 0.69528(18) 0.18040(16)
C13 C 0.1414(5) 0.75950(17) 0.26490(16)
C14 C 0.0271(5) 0.69039(18) 0.25340(15)
C15 C 0.1092(5) 0.82912(17) 0.31351(16)
C16 C -0.0927(5) 0.86641(19) 0.31422(17)
H8 H -0.2098 0.8455 0.2855
C17 C -0.1197(6) 0.93332(19) 0.35668(18)
H9 H -0.2547 0.9576 0.3565
C18 C 0.0511(6) 0.96477(19) 0.39953(18)
H10 H 0.0321 1.0103 0.4282
C19 C 0.2507(6) 0.9286(2) 0.39991(19)
H11 H 0.3665 0.9495 0.4292
C20 C 0.2797(5) 0.86106(19) 0.35682(18)
H12 H 0.4152 0.8371 0.3571
C21 C -0.1547(5) 0.65213(18) 0.28663(16)
C22 C -0.2231(5) 0.6793(2) 0.35267(17)
H13 H -0.1494 0.7213 0.3773
C23 C -0.3975(5) 0.6453(2) 0.38258(19)
H14 H -0.4405 0.6645 0.4272
C24 C -0.5083(6) 0.5839(2) 0.3477(2)
H15 H -0.6290 0.5620 0.3676
C25 C -0.4404(6) 0.5542(2) 0.2825(2)
H16 H -0.5139 0.5114 0.2590
C26 C -0.2644(5) 0.5876(2) 0.25201(18)
H17 H -0.2189 0.5670 0.2083
N1 N 0.3064(4) 0.76080(14) 0.21858(13)
O1 O 0.3553(4) 0.59961(14) 0.09225(13)
O2 O 0.1164(3) 0.64853(12) 0.19836(11)
loop_
_geom_bond_atom_site_label_1
_geom_bond_atom_site_label_2
_geom_bond_site_symmetry_1
_geom_bond_site_symmetry_2
C1 C2 1_555 1_555
C2 H1 1_555 1_555
C3 C2 1_555 1_555
H2 C3 1_555 1_555
C4 C3 1_555 1_555
C5 C4 1_555 1_555
C6 C1 1_555 1_555
H3 C6 1_555 1_555
C7 C5 1_555 1_555
H4 C7 1_555 1_555
C8 C7 1_555 1_555
H5 C8 1_555 1_555
C9 C8 1_555 1_555
H6 C9 1_555 1_555
C10 C4 1_555 1_555
H7 C10 1_555 1_555
C11 C1 1_555 1_555
C12 C11 1_555 1_555
C13 C14 1_555 1_555
C14 C21 1_555 1_555
C15 C13 1_555 1_555
C16 C15 1_555 1_555
H8 C16 1_555 1_555
C17 C16 1_555 1_555
H9 C17 1_555 1_555
C18 C17 1_555 1_555
H10 C18 1_555 1_555
C19 C18 1_555 1_555
H11 C19 1_555 1_555
C20 C15 1_555 1_555
H12 C20 1_555 1_555
C21 C22 1_555 1_555
C22 H13 1_555 1_555
C23 C22 1_555 1_555
H14 C23 1_555 1_555
C24 C23 1_555 1_555
H15 C24 1_555 1_555
C25 C24 1_555 1_555
H16 C25 1_555 1_555
C26 C21 1_555 1_555
H17 C26 1_555 1_555
N1 C12 1_555 1_555
O1 C11 1_555 1_555
O2 C12 1_555 1_555
C5 C6 1_555 1_555
C9 C10 1_555 1_555
C13 N1 1_555 1_555
C14 O2 1_555 1_555
C19 C20 1_555 1_555
C25 C26 1_555 1_555

#END
