
#######################################################################
#
#                 Cambridge Crystallographic Data Centre
#                                CCDC 
#
#######################################################################
#
# If this CIF has been generated from an entry in the Cambridge 
# Structural Database, then it will include bibliographic, chemical, 
# crystal, experimental, refinement or atomic coordinate data resulting 
# from the CCDC's data processing and validation procedures.
#
#######################################################################

data_MAWBOB
_chemical_formula_moiety         'C12 H10 N2 O2,C18 H15 O1 P1'
_chemical_name_systematic        
"Triphenylphosphine oxide p-amino-p'-nitrobiphenyl"
_symmetry_cell_setting           triclinic
_symmetry_space_group_name_H-M   'P -1'
_symmetry_Int_Tables_number      2
_space_group_name_Hall           '-P 1'
loop_
_symmetry_equiv_pos_site_id
_symmetry_equiv_pos_as_xyz
1 x,y,z
2 -x,-y,-z
_cell_length_a                   9.2719(8)
_cell_length_b                   10.4330(10)
_cell_length_c                   14.4569(11)
_cell_angle_alpha                106.122(4)
_cell_angle_beta                 107.714(5)
_cell_angle_gamma                94.691(4)
_cell_volume                     1258.47
_exptl_crystal_colour            'orange red'
_exptl_crystal_description       plate
_cell_formula_units_Z            2
loop_
_atom_site_label
_atom_site_type_symbol
_atom_site_fract_x
_atom_site_fract_y
_atom_site_fract_z
C1 C 1.18021(8) 0.06195(8) 0.89328(6)
C2 C 1.13859(8) 0.03375(8) 0.78685(6)
C3 C 0.99789(8) 0.05473(8) 0.72942(6)
C4 C 0.89286(8) 0.10690(8) 0.77588(6)
C5 C 0.93678(9) 0.13807(9) 0.88270(6)
C6 C 1.07682(9) 0.11690(9) 0.94060(6)
C7 C 0.74191(8) 0.12679(8) 0.71453(6)
C8 C 0.72306(10) 0.15718(9) 0.62330(7)
C9 C 0.58136(10) 0.17412(9) 0.56397(7)
C10 C 0.45675(9) 0.16085(9) 0.59701(7)
C11 C 0.47045(9) 0.13212(10) 0.68699(8)
C12 C 0.61273(9) 0.11443(9) 0.74522(7)
N1 N 1.31794(8) 0.03711(9) 0.94817(7)
N2 N 0.30543(10) 0.17452(9) 0.53390(7)
O1 O 0.29409(10) 0.20090(8) 0.45465(6)
O2 O 0.19539(9) 0.15763(11) 0.56309(8)
H1 H 1.3429(15) 0.0513(14) 1.0146(11)
H2 H 1.3677(16) -0.0180(14) 0.9139(11)
H3 H 1.2078(13) -0.0044(12) 0.7537(9)
H4 H 0.9748(12) 0.0318(11) 0.6576(9)
H5 H 0.8694(13) 0.1764(12) 0.9178(9)
H6 H 1.1019(14) 0.1398(12) 1.0112(10)
H7 H 0.8119(14) 0.1679(12) 0.6038(9)
H8 H 0.5679(13) 0.1933(12) 0.5012(9)
H9 H 0.3801(15) 0.1184(14) 0.7050(10)
H10 H 0.6190(14) 0.0919(13) 0.8081(10)
C13 C 0.66768(7) 0.34462(7) 0.35491(5)
C14 C 0.79953(8) 0.28622(8) 0.37885(6)
C15 C 0.90252(8) 0.32558(9) 0.47871(6)
C16 C 0.87539(8) 0.42465(9) 0.55518(6)
C17 C 0.74599(9) 0.48482(9) 0.53233(6)
C18 C 0.64159(8) 0.44469(8) 0.43233(6)
C19 C 0.62685(7) 0.39140(7) 0.16284(6)
C20 C 0.70430(8) 0.52525(8) 0.21606(6)
C21 C 0.76362(10) 0.60116(9) 0.16586(8)
C22 C 0.74741(10) 0.54373(10) 0.06343(7)
C23 C 0.67184(10) 0.41075(9) 0.01044(7)
C24 C 0.61064(8) 0.33441(8) 0.05951(6)
C25 C 0.35852(7) 0.33406(7) 0.21734(5)
C26 C 0.25162(8) 0.24038(8) 0.22729(6)
C27 C 0.10145(8) 0.26243(9) 0.21400(7)
C28 C 0.05704(8) 0.37711(9) 0.19048(6)
C29 C 0.16380(8) 0.47289(9) 0.18369(7)
C30 C 0.31460(8) 0.45176(8) 0.19742(6)
P1 P 0.544193(19) 0.289329(19) 0.222868(14)
O3 O 0.52924(6) 0.14016(6) 0.17206(4)
H11 H 0.8189(13) 0.2199(12) 0.3241(9)
H12 H 0.9895(14) 0.2824(13) 0.4941(9)
H13 H 0.9447(13) 0.4535(12) 0.6236(9)
H14 H 0.7287(14) 0.5561(13) 0.5853(10)
H15 H 0.5516(13) 0.4858(12) 0.4175(9)
H16 H 0.7192(13) 0.5653(12) 0.2858(9)
H17 H 0.8157(14) 0.6900(13) 0.2019(10)
H18 H 0.7889(15) 0.5978(13) 0.0303(10)
H19 H 0.6598(13) 0.3724(12) -0.0615(9)
H20 H 0.5571(13) 0.2424(13) 0.0219(9)
H21 H 0.2838(13) 0.1590(12) 0.2446(9)
H22 H 0.0278(14) 0.1964(13) 0.2196(10)
H23 H -0.0428(14) 0.3897(13) 0.1816(9)
H24 H 0.1328(14) 0.5560(13) 0.1686(10)
H25 H 0.3905(13) 0.5202(12) 0.1941(9)
loop_
_geom_bond_atom_site_label_1
_geom_bond_atom_site_label_2
_geom_bond_site_symmetry_1
_geom_bond_site_symmetry_2
C1 C2 1_555 1_555
C2 C3 1_555 1_555
C3 C4 1_555 1_555
C4 C5 1_555 1_555
C5 C6 1_555 1_555
C6 C1 1_555 1_555
C7 C4 1_555 1_555
C8 C7 1_555 1_555
C9 C8 1_555 1_555
C10 C9 1_555 1_555
C11 C10 1_555 1_555
C12 C7 1_555 1_555
N1 C1 1_555 1_555
N2 C10 1_555 1_555
O1 N2 1_555 1_555
O2 N2 1_555 1_555
C13 C14 1_555 1_555
C14 C15 1_555 1_555
C15 C16 1_555 1_555
C16 C17 1_555 1_555
C17 C18 1_555 1_555
C18 C13 1_555 1_555
C19 C20 1_555 1_555
C20 C21 1_555 1_555
C21 C22 1_555 1_555
C22 C23 1_555 1_555
C23 C24 1_555 1_555
C24 C19 1_555 1_555
C25 C26 1_555 1_555
C26 C27 1_555 1_555
C27 C28 1_555 1_555
C28 C29 1_555 1_555
C29 C30 1_555 1_555
C30 C25 1_555 1_555
P1 C13 1_555 1_555
O3 P1 1_555 1_555
H1 N1 1_555 1_555
H2 N1 1_555 1_555
H3 C2 1_555 1_555
H4 C3 1_555 1_555
H5 C5 1_555 1_555
H6 C6 1_555 1_555
H7 C8 1_555 1_555
H8 C9 1_555 1_555
H9 C11 1_555 1_555
H10 C12 1_555 1_555
H11 C14 1_555 1_555
H12 C15 1_555 1_555
H13 C16 1_555 1_555
H14 C17 1_555 1_555
H15 C18 1_555 1_555
H16 C20 1_555 1_555
H17 C21 1_555 1_555
H18 C22 1_555 1_555
H19 C23 1_555 1_555
H20 C24 1_555 1_555
H21 C26 1_555 1_555
H22 C27 1_555 1_555
H23 C28 1_555 1_555
H24 C29 1_555 1_555
H25 C30 1_555 1_555
C11 C12 1_555 1_555
C19 P1 1_555 1_555
C25 P1 1_555 1_555

#END
