
#######################################################################
#
#                 Cambridge Crystallographic Data Centre
#                                CCDC 
#
#######################################################################
#
# If this CIF has been generated from an entry in the Cambridge 
# Structural Database, then it will include bibliographic, chemical, 
# crystal, experimental, refinement or atomic coordinate data resulting 
# from the CCDC's data processing and validation procedures.
#
#######################################################################

data_MAWGIC
_chemical_formula_moiety         'C17 H15 Br1 N2 O7'
_chemical_name_systematic        
'4-Bromo-2-(4-hydroxy-1-nitrobutan-2-yl)phenyl 4-nitrobenzoate'
_symmetry_cell_setting           triclinic
_symmetry_space_group_name_H-M   'P 1'
_symmetry_Int_Tables_number      1
_space_group_name_Hall           'P 1'
loop_
_symmetry_equiv_pos_site_id
_symmetry_equiv_pos_as_xyz
1 x,y,z
_cell_length_a                   9.9020(1)
_cell_length_b                   9.9040(1)
_cell_length_c                   10.3002(1)
_cell_angle_alpha                108.713(1)
_cell_angle_beta                 92.604(1)
_cell_angle_gamma                113.503(1)
_cell_volume                     859.707
_exptl_crystal_colour            silver
_exptl_crystal_description       block
_cell_formula_units_Z            2
loop_
_atom_site_label
_atom_site_type_symbol
_atom_site_fract_x
_atom_site_fract_y
_atom_site_fract_z
Br1 Br 0.34184(2) 0.12016(2) 0.13647(2)
O1 O 1.0360(2) 0.2469(3) 0.2928(2)
H1 H 1.0821 0.2148 0.3339
O2 O 0.7314(2) 0.2312(2) 0.7187(2)
O3 O 0.8744(2) 0.3708(2) 0.5991(2)
O4 O 0.7651(3) -0.2671(2) 0.4540(2)
O5 O 0.8974(2) -0.0282(3) 0.6021(2)
O6 O 1.4984(2) 0.6703(2) 1.1055(2)
O7 O 1.3764(2) 0.5092(3) 1.2058(2)
N1 N 0.7912(3) -0.1290(3) 0.5043(3)
N2 N 1.3855(3) 0.5641(3) 1.1128(3)
C1 C 0.6905(3) -0.0740(3) 0.4467(3)
H2 H 0.6412 -0.0345 0.5187
H3 H 0.6136 -0.1622 0.3699
C2 C 0.7821(3) 0.0579(3) 0.3950(3)
H4 H 0.8767 0.1266 0.4633
C3 C 0.8226(3) -0.0091(3) 0.2542(3)
H5 H 0.8821 -0.0637 0.2653
H6 H 0.7308 -0.0864 0.1867
C4 C 0.9098(3) 0.1169(3) 0.1968(3)
H7 H 0.9430 0.0683 0.1149
H8 H 0.8427 0.1555 0.1670
C5 C 0.7016(3) 0.1584(3) 0.3926(3)
C6 C 0.7474(3) 0.3089(3) 0.4922(3)
C7 C 0.6826(4) 0.4064(4) 0.4870(3)
H9 H 0.7178 0.5073 0.5555
C8 C 0.5638(3) 0.3532(3) 0.3783(3)
H10 H 0.5208 0.4190 0.3704
C9 C 0.5106(3) 0.1997(4) 0.2815(3)
C10 C 0.5784(3) 0.1029(4) 0.2866(3)
H11 H 0.5419 0.0011 0.2195
C11 C 0.8524(3) 0.3177(3) 0.7084(3)
C12 C 0.9948(3) 0.3805(3) 0.8077(3)
C13 C 1.1283(3) 0.5035(3) 0.8043(3)
H12 H 1.1300 0.5459 0.7355
C14 C 1.2557(4) 0.5608(4) 0.9023(3)
H13 H 1.3448 0.6413 0.9003
C15 C 1.2492(3) 0.4964(3) 1.0048(3)
C16 C 1.1214(3) 0.3750(3) 1.0109(3)
H14 H 1.1211 0.3334 1.0801
C17 C 0.9925(3) 0.3162(3) 0.9105(3)
H15 H 0.9046 0.2339 0.9119
Br2 Br 0.67186(2) -0.11771(2) -0.13787(2)
O8 O 0.1631(3) 0.0915(3) -0.5898(3)
H16 H 0.1296 0.1418 -0.6195
O9 O 0.2686(2) -0.2007(2) -0.7005(2)
O10 O 0.1307(2) -0.3515(2) -0.5874(2)
O11 O 0.0190(2) -0.2375(2) -0.2855(2)
O12 O 0.04614(19) -0.0567(2) -0.08711(17)
O13 O -0.3864(2) -0.5003(3) -1.1872(2)
O14 O -0.5067(2) -0.6458(2) -1.0750(2)
N3 N 0.0774(3) -0.1009(3) -0.2025(3)
N4 N -0.3904(3) -0.5457(3) -1.0901(3)
C18 C 0.1928(3) 0.0275(3) -0.2392(3)
H17 H 0.2826 0.0836 -0.1664
H18 H 0.1542 0.1027 -0.2419
C19 C 0.2348(3) -0.0346(3) -0.3794(3)
H19 H 0.1435 -0.0942 -0.4525
C20 C 0.3430(3) 0.1096(3) -0.4112(3)
H20 H 0.4192 0.1841 -0.3279
H21 H 0.3934 0.0737 -0.4839
C21 C 0.2633(3) 0.1933(4) -0.4576(3)
H22 H 0.2071 0.2234 -0.3883
H23 H 0.3367 0.2890 -0.4658
C22 C 0.3092(3) -0.1415(3) -0.3795(3)
C23 C 0.2580(3) -0.2923(3) -0.4826(3)
C24 C 0.3236(4) -0.3934(4) -0.4831(3)
H24 H 0.2848 -0.4945 -0.5518
C25 C 0.4472(4) -0.3417(4) -0.3802(3)
H25 H 0.4934 -0.4069 -0.3795
C26 C 0.5008(3) -0.1914(4) -0.2785(3)
C27 C 0.4342(3) -0.0921(3) -0.2769(3)
H26 H 0.4728 0.0082 -0.2071
C28 C 0.1488(3) -0.2945(3) -0.6911(3)
C29 C 0.0052(3) -0.3616(3) -0.7929(3)
C30 C -0.1246(4) -0.4831(4) -0.7863(3)
H27 H -0.1240 -0.5230 -0.7161
C31 C -0.2546(4) -0.5445(4) -0.8845(3)
H28 H -0.3418 -0.6267 -0.8818
C32 C -0.2525(3) -0.4820(3) -0.9858(3)
C33 C -0.1246(3) -0.3588(3) -0.9941(3)
H29 H -0.1263 -0.3177 -1.0634
C34 C 0.0041(3) -0.3002(3) -0.8967(3)
H30 H 0.0914 -0.2187 -0.9002
loop_
_geom_bond_atom_site_label_1
_geom_bond_atom_site_label_2
_geom_bond_site_symmetry_1
_geom_bond_site_symmetry_2
Br1 C9 1_555 1_555
O1 H1 1_555 1_555
O2 C11 1_555 1_555
O3 C6 1_555 1_555
O4 N1 1_555 1_555
O5 N1 1_555 1_555
O6 N2 1_555 1_555
O7 N2 1_555 1_555
N1 C1 1_555 1_555
N2 C15 1_555 1_555
C1 H2 1_555 1_555
H3 C1 1_555 1_555
C2 C1 1_555 1_555
H4 C2 1_555 1_555
C3 C2 1_555 1_555
H5 C3 1_555 1_555
H6 C3 1_555 1_555
C4 O1 1_555 1_555
H7 C4 1_555 1_555
H8 C4 1_555 1_555
C5 C2 1_555 1_555
C6 C5 1_555 1_555
C7 C6 1_555 1_555
H9 C7 1_555 1_555
C8 C7 1_555 1_555
H10 C8 1_555 1_555
C9 C8 1_555 1_555
C10 C5 1_555 1_555
H11 C10 1_555 1_555
C11 O3 1_555 1_555
C12 C11 1_555 1_555
C13 C12 1_555 1_555
H12 C13 1_555 1_555
C14 C13 1_555 1_555
H13 C14 1_555 1_555
C15 C14 1_555 1_555
C16 C15 1_555 1_555
H14 C16 1_555 1_555
C17 C12 1_555 1_555
H15 C17 1_555 1_555
Br2 C26 1_555 1_555
O8 H16 1_555 1_555
O9 C28 1_555 1_555
O10 C23 1_555 1_555
O11 N3 1_555 1_555
O12 N3 1_555 1_555
O13 N4 1_555 1_555
O14 N4 1_555 1_555
N3 C18 1_555 1_555
N4 C32 1_555 1_555
C18 H17 1_555 1_555
H18 C18 1_555 1_555
C19 C18 1_555 1_555
H19 C19 1_555 1_555
C20 C19 1_555 1_555
H20 C20 1_555 1_555
H21 C20 1_555 1_555
C21 O8 1_555 1_555
H22 C21 1_555 1_555
H23 C21 1_555 1_555
C22 C19 1_555 1_555
C23 C22 1_555 1_555
C24 C23 1_555 1_555
H24 C24 1_555 1_555
C25 C24 1_555 1_555
H25 C25 1_555 1_555
C26 C25 1_555 1_555
C27 C22 1_555 1_555
H26 C27 1_555 1_555
C28 O10 1_555 1_555
C29 C28 1_555 1_555
C30 C29 1_555 1_555
H27 C30 1_555 1_555
C31 C30 1_555 1_555
H28 C31 1_555 1_555
C32 C31 1_555 1_555
C33 C32 1_555 1_555
H29 C33 1_555 1_555
C34 C29 1_555 1_555
H30 C34 1_555 1_555
C3 C4 1_555 1_555
C9 C10 1_555 1_555
C16 C17 1_555 1_555
C20 C21 1_555 1_555
C26 C27 1_555 1_555
C33 C34 1_555 1_555

#END
