
#######################################################################
#
#                 Cambridge Crystallographic Data Centre
#                                CCDC 
#
#######################################################################
#
# If this CIF has been generated from an entry in the Cambridge 
# Structural Database, then it will include bibliographic, chemical, 
# crystal, experimental, refinement or atomic coordinate data resulting 
# from the CCDC's data processing and validation procedures.
#
#######################################################################

data_MAWKED
_chemical_formula_moiety         'C6 H14 N1 1+,C2 Cl1 F2 O2 1-'
_chemical_name_systematic        'cyclohexanaminium chloro(difluoro)acetate'
_symmetry_cell_setting           orthorhombic
_symmetry_space_group_name_H-M   'P c a 21'
_symmetry_Int_Tables_number      29
_space_group_name_Hall           'P 2c -2ac'
loop_
_symmetry_equiv_pos_site_id
_symmetry_equiv_pos_as_xyz
1 x,y,z
2 -x,-y,1/2+z
3 1/2-x,y,1/2+z
4 1/2+x,-y,z
_cell_length_a                   21.5734(5)
_cell_length_b                   17.1630(3)
_cell_length_c                   17.7854(4)
_cell_angle_alpha                90
_cell_angle_beta                 90
_cell_angle_gamma                90
_cell_volume                     6585.3
_exptl_crystal_colour            colorless
_exptl_crystal_description       block
_cell_formula_units_Z            24
loop_
_atom_site_label
_atom_site_type_symbol
_atom_site_fract_x
_atom_site_fract_y
_atom_site_fract_z
Cl1 Cl 0.45709(17) 0.1206(2) 0.4638(2)
F1 F 0.4574(3) 0.1010(5) 0.6042(4)
F2 F 0.4376(4) 0.2191(4) 0.5672(5)
O1 O 0.5735(4) 0.1436(6) 0.6075(5)
O2 O 0.5615(4) 0.2329(5) 0.5169(5)
C1 C 0.4744(6) 0.1569(7) 0.5543(6)
C2 C 0.5431(7) 0.1805(9) 0.5604(7)
Cl2 Cl 0.8838(2) 0.0110(3) 0.9594(2)
F3 F 0.8324(4) 0.0713(7) 0.8494(6)
F4 F 0.8351(4) -0.0540(6) 0.8477(6)
O3 O 0.9507(4) -0.0519(6) 0.7982(5)
O4 O 0.9496(5) 0.0792(6) 0.8005(6)
C3 C 0.8687(6) 0.0095(9) 0.8667(10)
C4 C 0.9294(6) 0.0150(9) 0.8159(8)
O5 O 1.0686(4) 0.1974(5) 0.5186(6)
O6 O 1.0657(5) 0.1191(6) 0.6185(5)
C5 C 0.9747(6) 0.1350(7) 0.5437(8)
C6 C 1.0431(6) 0.1484(7) 0.5640(8)
Cl3 Cl 0.9297(3) 0.2153(4) 0.5302(6)
F5 F 0.9498(8) 0.0860(9) 0.6014(12)
F6 F 0.9585(6) 0.0902(8) 0.4776(6)
Cl5 Cl 0.63299(19) 0.49972(18) 0.4300(2)
F9 F 0.5774(4) 0.4561(6) 0.5479(7)
F10 F 0.5839(4) 0.5800(5) 0.5321(5)
O7 O 0.6952(4) 0.5768(5) 0.5917(5)
O8 O 0.6973(4) 0.4473(5) 0.5882(6)
C7 C 0.6148(6) 0.5123(7) 0.5288(8)
C8 C 0.6746(6) 0.5080(6) 0.5739(8)
O9 O 0.8208(4) 0.6459(5) 0.7770(5)
O10 O 0.8180(4) 0.7247(7) 0.8765(5)
C9 C 0.7972(5) 0.6750(7) 0.8320(7)
Cl6 Cl 0.6786(4) 0.7218(5) 0.8656(7)
F11 F 0.7326(11) 0.6130(14) 0.9293(12)
F12 F 0.7076(6) 0.5864(9) 0.8186(10)
C10 C 0.7329(7) 0.6411(9) 0.8605(9)
Cl8 Cl 0.7092(2) 0.3978(3) 0.9192(3)
F15 F 0.6895(3) 0.2941(5) 0.8297(7)
F16 F 0.7045(4) 0.4131(7) 0.7814(7)
O11 O 0.8166(5) 0.2952(7) 0.8678(5)
O12 O 0.8228(4) 0.3788(6) 0.7734(5)
C12 C 0.7253(7) 0.3628(9) 0.8342(9)
C13 C 0.7973(5) 0.3417(8) 0.8240(7)
N1 N 0.5502(5) 0.0160(6) 0.7016(6)
H1 H 0.5484 0.0629 0.6778
H2 H 0.5169 0.0109 0.7326
H3 H 0.5497 -0.0229 0.6668
C14 C 0.6085(6) 0.0112(7) 0.7467(7)
H4 H 0.6438 0.0077 0.7103
C15 C 0.6159(7) 0.0876(9) 0.7893(8)
H5 H 0.5790 0.0963 0.8214
H6 H 0.6187 0.1312 0.7531
C16 C 0.6750(8) 0.0861(11) 0.8391(9)
H7 H 0.6758 0.1330 0.8715
H8 H 0.7122 0.0872 0.8066
C17 C 0.6767(8) 0.0114(10) 0.8897(9)
H9 H 0.7165 0.0093 0.9174
H10 H 0.6427 0.0136 0.9270
C18 C 0.6698(7) -0.0613(9) 0.8416(9)
H11 H 0.6684 -0.1077 0.8747
H12 H 0.7064 -0.0664 0.8084
C19 C 0.6100(6) -0.0592(7) 0.7925(8)
H13 H 0.6089 -0.1056 0.7594
H14 H 0.5730 -0.0608 0.8254
N2 N 0.6778(4) 0.2991(6) 0.5265(6)
H15 H 0.6872 0.3078 0.4773
H16 H 0.6736 0.3456 0.5507
H17 H 0.6417 0.2720 0.5297
C20 C 0.7294(6) 0.2527(6) 0.5628(8)
H18 H 0.7697 0.2769 0.5480
C21 C 0.7252(7) 0.2546(7) 0.6428(7)
H19 H 0.6840 0.2351 0.6588
H20 H 0.7296 0.3089 0.6607
C22 C 0.7761(7) 0.2040(7) 0.6775(10)
H21 H 0.7694 0.2007 0.7325
H22 H 0.8167 0.2291 0.6689
C23 C 0.7773(8) 0.1206(7) 0.6440(12)
H23 H 0.8152 0.0936 0.6615
H24 H 0.7411 0.0912 0.6630
C24 C 0.7762(8) 0.1205(9) 0.5605(11)
H25 H 0.7689 0.0666 0.5426
H26 H 0.8171 0.1374 0.5415
C25 C 0.7263(7) 0.1735(8) 0.5284(10)
H27 H 0.7318 0.1779 0.4733
H28 H 0.6850 0.1505 0.5381
N3 N 0.8032(5) 0.5137(8) 0.6902(6)
H29 H 0.7970 0.4651 0.7092
H30 H 0.7711 0.5267 0.6596
H31 H 0.8056 0.5486 0.7287
C26 C 0.8623(6) 0.5150(8) 0.6464(7)
H32 H 0.8980 0.5147 0.6824
C27 C 0.8668(6) 0.5867(8) 0.5975(7)
H33 H 0.8654 0.6338 0.6295
H34 H 0.8309 0.5884 0.5629
C28 C 0.9263(7) 0.5869(8) 0.5519(8)
H35 H 0.9279 0.6340 0.5198
H36 H 0.9625 0.5879 0.5862
C29 C 0.9288(6) 0.5145(8) 0.5032(8)
H37 H 0.8947 0.5163 0.4660
H38 H 0.9685 0.5137 0.4753
C30 C 0.9233(6) 0.4419(8) 0.5485(7)
H39 H 0.9600 0.4370 0.5815
H40 H 0.9229 0.3964 0.5142
C31 C 0.8661(6) 0.4406(7) 0.5956(7)
H41 H 0.8662 0.3935 0.6277
H42 H 0.8292 0.4382 0.5627
N4 N 0.6799(5) 0.7261(6) 0.5337(6)
H43 H 0.6867 0.7205 0.4835
H44 H 0.6448 0.7545 0.5411
H45 H 0.6755 0.6783 0.5551
C32 C 0.7339(6) 0.7675(7) 0.5688(7)
H46 H 0.7723 0.7372 0.5573
C33 C 0.7408(7) 0.8490(9) 0.5345(10)
H47 H 0.7460 0.8441 0.4794
H48 H 0.7024 0.8791 0.5439
C34 C 0.7942(8) 0.8920(9) 0.5659(10)
H49 H 0.7952 0.9454 0.5448
H50 H 0.8332 0.8654 0.5517
C35 C 0.7892(8) 0.8961(8) 0.6507(10)
H51 H 0.8269 0.9217 0.6707
H52 H 0.7533 0.9293 0.6640
C36 C 0.7819(7) 0.8188(7) 0.6881(9)
H53 H 0.7741 0.8263 0.7424
H54 H 0.8205 0.7882 0.6824
C37 C 0.7286(6) 0.7751(6) 0.6533(7)
H55 H 0.6895 0.8025 0.6655
H56 H 0.7264 0.7224 0.6757
N5 N 0.9353(5) 0.2262(7) 0.8555(6)
H57 H 0.9431 0.2233 0.9057
H58 H 0.9339 0.1773 0.8358
H59 H 0.8984 0.2505 0.8478
C38 C 0.9863(6) 0.2720(7) 0.8175(8)
H60 H 1.0267 0.2465 0.8301
C39 C 0.9769(7) 0.2659(8) 0.7343(8)
H61 H 0.9372 0.2904 0.7197
H62 H 0.9762 0.2106 0.7187
C40 C 1.0320(7) 0.3090(7) 0.6963(8)
H63 H 1.0711 0.2813 0.7079
H64 H 1.0263 0.3085 0.6411
C41 C 1.0364(8) 0.3926(8) 0.7237(8)
H65 H 1.0721 0.4184 0.6992
H66 H 0.9984 0.4211 0.7090
C42 C 1.0440(8) 0.3970(9) 0.8072(8)
H67 H 1.0449 0.4522 0.8232
H68 H 1.0838 0.3727 0.8218
C43 C 0.9878(7) 0.3527(6) 0.8479(7)
H69 H 0.9944 0.3517 0.9030
H70 H 0.9482 0.3796 0.8373
N6 N 0.9337(5) 0.8011(7) 0.8608(7)
H71 H 0.9343 0.8037 0.9119
H72 H 0.8967 0.7813 0.8453
H73 H 0.9388 0.8498 0.8414
C44 C 0.9845(6) 0.7503(9) 0.8345(7)
H74 H 1.0250 0.7752 0.8475
C45 C 0.9822(7) 0.6693(8) 0.8696(7)
H75 H 0.9426 0.6435 0.8565
H76 H 0.9847 0.6734 0.9250
C46 C 1.0366(9) 0.6214(11) 0.8398(9)
H77 H 1.0367 0.5695 0.8641
H78 H 1.0760 0.6478 0.8525
C47 C 1.0315(8) 0.6119(8) 0.7543(8)
H79 H 0.9924 0.5846 0.7415
H80 H 1.0666 0.5803 0.7354
C48 C 1.0324(6) 0.6932(6) 0.7169(7)
H81 H 1.0725 0.7191 0.7275
H82 H 1.0283 0.6875 0.6617
C49 C 0.9791(5) 0.7436(7) 0.7470(7)
H83 H 0.9389 0.7198 0.7334
H84 H 0.9811 0.7962 0.7241
Cl4? Cl 0.9838(9) 0.0971(12) 0.4598(11)
F7? F 0.9478(18) 0.0656(15) 0.5726(14)
F8? F 0.9428(12) 0.2003(14) 0.5760(16)
Cl7? Cl 0.7096(6) 0.6274(10) 0.9267(7)
F13? F 0.6930(12) 0.7285(13) 0.8251(18)
F14? F 0.7075(8) 0.6147(10) 0.7825(12)
C11? C 0.7256(9) 0.6642(11) 0.8338(11)
loop_
_geom_bond_atom_site_label_1
_geom_bond_atom_site_label_2
_geom_bond_site_symmetry_1
_geom_bond_site_symmetry_2
Cl1 C1 1_555 1_555
F1 C1 1_555 1_555
F2 C1 1_555 1_555
O1 C2 1_555 1_555
O2 C2 1_555 1_555
C1 C2 1_555 1_555
Cl2 C3 1_555 1_555
F3 C3 1_555 1_555
F4 C3 1_555 1_555
O3 C4 1_555 1_555
O4 C4 1_555 1_555
C3 C4 1_555 1_555
O5 C6 1_555 1_555
O6 C6 1_555 1_555
C5 C6 1_555 1_555
Cl3 C5 1_555 1_555
F5 C5 1_555 1_555
F6 C5 1_555 1_555
Cl5 C7 1_555 1_555
F9 C7 1_555 1_555
F10 C7 1_555 1_555
O7 C8 1_555 1_555
O8 C8 1_555 1_555
C7 C8 1_555 1_555
O9 C9 1_555 1_555
O10 C9 1_555 1_555
C9 C10 1_555 1_555
Cl6 C10 1_555 1_555
F11 C10 1_555 1_555
F12 C10 1_555 1_555
Cl8 C12 1_555 1_555
F15 C12 1_555 1_555
F16 C12 1_555 1_555
O11 C13 1_555 1_555
O12 C13 1_555 1_555
C12 C13 1_555 1_555
N1 H1 1_555 1_555
H2 N1 1_555 1_555
H3 N1 1_555 1_555
C14 N1 1_555 1_555
H4 C14 1_555 1_555
C15 C14 1_555 1_555
H5 C15 1_555 1_555
H6 C15 1_555 1_555
C16 C15 1_555 1_555
H7 C16 1_555 1_555
H8 C16 1_555 1_555
C17 C16 1_555 1_555
H9 C17 1_555 1_555
H10 C17 1_555 1_555
C18 C17 1_555 1_555
H11 C18 1_555 1_555
H12 C18 1_555 1_555
C19 C14 1_555 1_555
H13 C19 1_555 1_555
H14 C19 1_555 1_555
N2 H15 1_555 1_555
H16 N2 1_555 1_555
H17 N2 1_555 1_555
C20 N2 1_555 1_555
H18 C20 1_555 1_555
C21 C20 1_555 1_555
H19 C21 1_555 1_555
H20 C21 1_555 1_555
C22 C21 1_555 1_555
H21 C22 1_555 1_555
H22 C22 1_555 1_555
C23 C22 1_555 1_555
H23 C23 1_555 1_555
H24 C23 1_555 1_555
C24 C23 1_555 1_555
H25 C24 1_555 1_555
H26 C24 1_555 1_555
C25 C20 1_555 1_555
H27 C25 1_555 1_555
H28 C25 1_555 1_555
N3 H29 1_555 1_555
H30 N3 1_555 1_555
H31 N3 1_555 1_555
C26 N3 1_555 1_555
H32 C26 1_555 1_555
C27 C26 1_555 1_555
H33 C27 1_555 1_555
H34 C27 1_555 1_555
C28 C27 1_555 1_555
H35 C28 1_555 1_555
H36 C28 1_555 1_555
C29 C28 1_555 1_555
H37 C29 1_555 1_555
H38 C29 1_555 1_555
C30 C29 1_555 1_555
H39 C30 1_555 1_555
H40 C30 1_555 1_555
C31 C26 1_555 1_555
H41 C31 1_555 1_555
H42 C31 1_555 1_555
N4 H43 1_555 1_555
H44 N4 1_555 1_555
H45 N4 1_555 1_555
C32 N4 1_555 1_555
H46 C32 1_555 1_555
C33 C32 1_555 1_555
H47 C33 1_555 1_555
H48 C33 1_555 1_555
C34 C33 1_555 1_555
H49 C34 1_555 1_555
H50 C34 1_555 1_555
C35 C34 1_555 1_555
H51 C35 1_555 1_555
H52 C35 1_555 1_555
C36 C35 1_555 1_555
H53 C36 1_555 1_555
H54 C36 1_555 1_555
C37 C32 1_555 1_555
H55 C37 1_555 1_555
H56 C37 1_555 1_555
N5 H57 1_555 1_555
H58 N5 1_555 1_555
H59 N5 1_555 1_555
C38 N5 1_555 1_555
H60 C38 1_555 1_555
C39 C38 1_555 1_555
H61 C39 1_555 1_555
H62 C39 1_555 1_555
C40 C39 1_555 1_555
H63 C40 1_555 1_555
H64 C40 1_555 1_555
C41 C40 1_555 1_555
H65 C41 1_555 1_555
H66 C41 1_555 1_555
C42 C41 1_555 1_555
H67 C42 1_555 1_555
H68 C42 1_555 1_555
C43 C38 1_555 1_555
H69 C43 1_555 1_555
H70 C43 1_555 1_555
N6 H71 1_555 1_555
H72 N6 1_555 1_555
H73 N6 1_555 1_555
C44 N6 1_555 1_555
H74 C44 1_555 1_555
C45 C44 1_555 1_555
H75 C45 1_555 1_555
H76 C45 1_555 1_555
C46 C45 1_555 1_555
H77 C46 1_555 1_555
H78 C46 1_555 1_555
C47 C46 1_555 1_555
H79 C47 1_555 1_555
H80 C47 1_555 1_555
C48 C47 1_555 1_555
H81 C48 1_555 1_555
H82 C48 1_555 1_555
C49 C44 1_555 1_555
H83 C49 1_555 1_555
H84 C49 1_555 1_555
C18 C19 1_555 1_555
C24 C25 1_555 1_555
C30 C31 1_555 1_555
C36 C37 1_555 1_555
C42 C43 1_555 1_555
C48 C49 1_555 1_555

#END
