
#######################################################################
#
#                 Cambridge Crystallographic Data Centre
#                                CCDC 
#
#######################################################################
#
# If this CIF has been generated from an entry in the Cambridge 
# Structural Database, then it will include bibliographic, chemical, 
# crystal, experimental, refinement or atomic coordinate data resulting 
# from the CCDC's data processing and validation procedures.
#
#######################################################################

data_MAXJON
_chemical_formula_moiety         'C20 H20 N2 O6'
_chemical_name_systematic        
3,3'-dihydroxy-1,1'-bis(methoxymethyl)-1,1',3,3'-tetrahydro-2H,2'H-3,3'-biindole-2,2'-dione
_symmetry_cell_setting           monoclinic
_symmetry_space_group_name_H-M   'P 21/c'
_symmetry_Int_Tables_number      14
_space_group_name_Hall           '-P 2ybc'
loop_
_symmetry_equiv_pos_site_id
_symmetry_equiv_pos_as_xyz
1 x,y,z
2 -x,1/2+y,1/2-z
3 -x,-y,-z
4 x,1/2-y,1/2+z
_cell_length_a                   10.3016(3)
_cell_length_b                   22.8678(7)
_cell_length_c                   16.1280(5)
_cell_angle_alpha                90
_cell_angle_beta                 102.2950(10)
_cell_angle_gamma                90
_cell_volume                     3712.21
_exptl_crystal_colour            colorless
_exptl_crystal_description       cube
_cell_formula_units_Z            8
loop_
_atom_site_label
_atom_site_type_symbol
_atom_site_fract_x
_atom_site_fract_y
_atom_site_fract_z
O1 O 0.45628(10) 0.53971(5) 0.18760(7)
H1 H 0.4494 0.5170 0.2258
O2 O 0.20134(10) 0.49209(5) 0.17072(6)
H2 H 0.2215 0.4994 0.2216
O3 O 0.29964(13) 0.57490(5) 0.31460(7)
O4 O 0.04903(11) 0.60524(5) 0.16167(7)
N1 N 0.05027(12) 0.58571(6) 0.02200(8)
N2 N 0.34320(14) 0.66150(6) 0.25454(8)
O5 O -0.03805(14) 0.66921(6) -0.05820(8)
C1 C 0.09637(14) 0.58189(7) 0.10744(9)
C2 C 0.12879(14) 0.55201(7) -0.02202(9)
C3 C 0.37266(14) 0.63138(7) 0.12405(10)
C4 C 0.22082(14) 0.54231(6) 0.12399(9)
C5 C 0.32365(15) 0.60282(7) 0.25555(9)
O6 O 0.24522(15) 0.73925(6) 0.31694(9)
C6 C 0.40031(16) 0.63939(8) 0.04457(10)
H3 H 0.4072 0.6075 0.0100
C7 C 0.34455(15) 0.57710(7) 0.17049(9)
C8 C 0.22947(14) 0.52461(7) 0.03533(9)
C9 C 0.36771(16) 0.67966(7) 0.17519(10)
C10 C 0.31687(16) 0.48836(7) 0.00651(10)
H4 H 0.3844 0.4694 0.0445
C11 C -0.06646(16) 0.61837(8) -0.01769(11)
H5 H -0.1231 0.5935 -0.0589
H6 H -0.1156 0.6288 0.0252
C12 C 0.11342(17) 0.54531(8) -0.10856(10)
H7 H 0.0462 0.5644 -0.1465
C13 C 0.30220(18) 0.48065(9) -0.08045(11)
H8 H 0.3602 0.4562 -0.1011
C14 C 0.38360(18) 0.73586(8) 0.14886(12)
H9 H 0.3783 0.7677 0.1838
C15 C 0.41760(18) 0.69576(9) 0.01746(12)
H10 H 0.4361 0.7017 -0.0359
C16 C 0.20226(19) 0.50896(9) -0.13614(11)
H11 H 0.1944 0.5034 -0.1941
C17 C 0.40783(19) 0.74316(9) 0.06830(12)
H12 H 0.4177 0.7807 0.0482
C18 C 0.3507(2) 0.69993(9) 0.32721(12)
H13 H 0.3515 0.6764 0.3773
H14 H 0.4334 0.7216 0.3364
C19 C 0.0450(2) 0.70881(10) -0.00215(16)
H15 H 0.0306 0.7479 -0.0239
H16 H 0.1364 0.6983 0.0022
H17 H 0.0239 0.7069 0.0530
C20 C 0.1215(3) 0.71229(12) 0.3174(2)
H18 H 0.0976 0.6870 0.2690
H19 H 0.0546 0.7418 0.3151
H20 H 0.1287 0.6898 0.3684
O7 O 0.44686(11) 0.45888(5) 0.31801(7)
O8 O 0.32823(11) 0.50401(5) 0.45686(7)
H21 H 0.3104 0.5186 0.4093
O9 O 0.49527(10) 0.40290(5) 0.48648(7)
H22 H 0.5245 0.4364 0.4906
O10 O 0.11783(11) 0.45559(6) 0.31624(7)
N3 N 0.04350(13) 0.43185(6) 0.43637(8)
O11 O 0.46665(13) 0.33542(6) 0.18182(8)
C21 C 0.31972(15) 0.34024(7) 0.41793(10)
N4 N 0.35206(13) 0.36814(6) 0.28708(8)
C22 C 0.39449(15) 0.41490(7) 0.33785(10)
C23 C 0.10222(16) 0.42380(7) 0.52356(10)
C24 C 0.27444(15) 0.44675(7) 0.45373(9)
C25 C 0.23853(15) 0.43247(7) 0.53728(10)
C26 C 0.13748(15) 0.44522(7) 0.39149(10)
C27 C 0.37207(14) 0.40179(7) 0.42789(9)
C28 C 0.30870(15) 0.32277(7) 0.33446(11)
O12 O -0.13768(13) 0.36701(7) 0.39462(10)
C29 C 0.29209(17) 0.30128(8) 0.47714(12)
H23 H 0.3005 0.3123 0.5335
C30 C 0.35502(18) 0.36500(9) 0.19755(10)
H24 H 0.2754 0.3453 0.1675
H25 H 0.3540 0.4044 0.1751
C31 C 0.31543(18) 0.42856(8) 0.61822(10)
H26 H 0.4066 0.4349 0.6283
C32 C 0.03940(19) 0.41119(9) 0.58849(12)
H27 H -0.0521 0.4058 0.5785
C33 C 0.2514(2) 0.24514(9) 0.45046(15)
H28 H 0.2335 0.2181 0.4896
C34 C 0.26627(18) 0.26733(8) 0.30709(13)
H29 H 0.2576 0.2561 0.2507
C35 C 0.2536(2) 0.41494(9) 0.68429(11)
H30 H 0.3042 0.4113 0.7391
C36 C 0.1182(2) 0.40683(10) 0.66952(12)
H31 H 0.0787 0.3982 0.7148
C37 C -0.09705(16) 0.42528(9) 0.39940(13)
H32 H -0.1479 0.4469 0.4333
H33 H -0.1158 0.4420 0.3428
C38 C 0.2374(2) 0.22939(9) 0.36715(16)
H34 H 0.2075 0.1919 0.3505
C39 C 0.5835(2) 0.36961(10) 0.19933(15)
H35 H 0.5689 0.4053 0.1673
H36 H 0.6549 0.3482 0.1838
H37 H 0.6062 0.3786 0.2588
C40 C -0.0803(2) 0.33358(11) 0.33822(18)
H38 H -0.0943 0.3529 0.2842
H39 H -0.1208 0.2956 0.3313
H40 H 0.0133 0.3295 0.3608
loop_
_geom_bond_atom_site_label_1
_geom_bond_atom_site_label_2
_geom_bond_site_symmetry_1
_geom_bond_site_symmetry_2
O1 H1 1_555 1_555
O2 H2 1_555 1_555
O3 C5 1_555 1_555
O4 C1 1_555 1_555
N1 C1 1_555 1_555
N2 C5 1_555 1_555
O5 C11 1_555 1_555
C1 C4 1_555 1_555
C2 N1 1_555 1_555
C3 C6 1_555 1_555
C4 O2 1_555 1_555
C5 C7 1_555 1_555
O6 C18 1_555 1_555
C6 H3 1_555 1_555
C7 O1 1_555 1_555
C8 C2 1_555 1_555
C9 N2 1_555 1_555
C10 C8 1_555 1_555
H4 C10 1_555 1_555
C11 N1 1_555 1_555
H5 C11 1_555 1_555
H6 C11 1_555 1_555
C12 C2 1_555 1_555
H7 C12 1_555 1_555
C13 C10 1_555 1_555
H8 C13 1_555 1_555
C14 C9 1_555 1_555
H9 C14 1_555 1_555
C15 C6 1_555 1_555
H10 C15 1_555 1_555
C16 C12 1_555 1_555
H11 C16 1_555 1_555
C17 C14 1_555 1_555
H12 C17 1_555 1_555
C18 N2 1_555 1_555
H13 C18 1_555 1_555
H14 C18 1_555 1_555
C19 O5 1_555 1_555
H15 C19 1_555 1_555
H16 C19 1_555 1_555
H17 C19 1_555 1_555
C20 O6 1_555 1_555
H18 C20 1_555 1_555
H19 C20 1_555 1_555
H20 C20 1_555 1_555
O7 C22 1_555 1_555
O8 H21 1_555 1_555
O9 H22 1_555 1_555
O10 C26 1_555 1_555
N3 C23 1_555 1_555
O11 C30 1_555 1_555
C21 C27 1_555 1_555
N4 C22 1_555 1_555
C22 C27 1_555 1_555
C23 C25 1_555 1_555
C24 O8 1_555 1_555
C25 C24 1_555 1_555
C26 N3 1_555 1_555
C27 O9 1_555 1_555
C28 C21 1_555 1_555
O12 C37 1_555 1_555
C29 C21 1_555 1_555
H23 C29 1_555 1_555
C30 N4 1_555 1_555
H24 C30 1_555 1_555
H25 C30 1_555 1_555
C31 C25 1_555 1_555
H26 C31 1_555 1_555
C32 C23 1_555 1_555
H27 C32 1_555 1_555
C33 C29 1_555 1_555
H28 C33 1_555 1_555
C34 C28 1_555 1_555
H29 C34 1_555 1_555
C35 C31 1_555 1_555
H30 C35 1_555 1_555
C36 C32 1_555 1_555
H31 C36 1_555 1_555
C37 N3 1_555 1_555
H32 C37 1_555 1_555
H33 C37 1_555 1_555
C38 C33 1_555 1_555
H34 C38 1_555 1_555
C39 O11 1_555 1_555
H35 C39 1_555 1_555
H36 C39 1_555 1_555
H37 C39 1_555 1_555
C40 O12 1_555 1_555
H38 C40 1_555 1_555
H39 C40 1_555 1_555
H40 C40 1_555 1_555
C3 C7 1_555 1_555
C3 C9 1_555 1_555
C4 C7 1_555 1_555
C4 C8 1_555 1_555
C13 C16 1_555 1_555
C15 C17 1_555 1_555
N4 C28 1_555 1_555
C24 C26 1_555 1_555
C24 C27 1_555 1_555
C34 C38 1_555 1_555
C35 C36 1_555 1_555

#END
