
#######################################################################
#
#                 Cambridge Crystallographic Data Centre
#                                CCDC 
#
#######################################################################
#
# If this CIF has been generated from an entry in the Cambridge 
# Structural Database, then it will include bibliographic, chemical, 
# crystal, experimental, refinement or atomic coordinate data resulting 
# from the CCDC's data processing and validation procedures.
#
#######################################################################

data_MAXRUA
_chemical_formula_moiety         'C26 H23 N5 S2'
_chemical_name_systematic        
"2,2'-((1-(2-Ethylhexyl)-1H-pyrrole-2,5-diylidene)dithiene-5,2-diylidene)dimalononitrile unknown solvate"
_symmetry_cell_setting           triclinic
_symmetry_space_group_name_H-M   'P -1'
_symmetry_Int_Tables_number      2
_space_group_name_Hall           '-P 1'
loop_
_symmetry_equiv_pos_site_id
_symmetry_equiv_pos_as_xyz
1 x,y,z
2 -x,-y,-z
_cell_length_a                   10.463(2)
_cell_length_b                   11.737(2)
_cell_length_c                   12.856(3)
_cell_angle_alpha                91.16(3)
_cell_angle_beta                 105.66(3)
_cell_angle_gamma                114.76(3)
_cell_volume                     1364.28
_exptl_crystal_colour            black
_exptl_crystal_description       block
_cell_formula_units_Z            2
loop_
_atom_site_label
_atom_site_type_symbol
_atom_site_fract_x
_atom_site_fract_y
_atom_site_fract_z
S1 S 1.20050(7) 0.67318(5) 0.14070(5)
S2 S 0.62569(7) 0.52815(6) 0.28068(5)
N1 N 1.6582(3) 0.7228(3) 0.0315(2)
N2 N 1.4810(4) 0.9815(3) 0.1288(4)
N3 N 0.8812(2) 0.49212(18) 0.19099(15)
N4 N 0.1670(3) 0.3519(3) 0.4155(3)
N5 N 0.5116(4) 0.7327(3) 0.4112(4)
C1 C 1.4736(3) 0.8836(3) 0.1101(3)
C2 C 1.4581(3) 0.7588(3) 0.0880(2)
C3 C 1.5694(3) 0.7409(3) 0.0564(2)
C4 C 1.3357(3) 0.6545(2) 0.09820(19)
C5 C 1.3007(3) 0.5241(2) 0.07678(19)
H1 H 1.3604 0.4944 0.0516
C6 C 1.1729(3) 0.4460(2) 0.09598(19)
H2 H 1.1360 0.3563 0.0859
C7 C 1.0984(3) 0.5086(2) 0.13233(18)
C8 C 0.9666(2) 0.4445(2) 0.15666(17)
C9 C 0.8907(3) 0.3089(2) 0.1459(2)
H3 H 0.9239 0.2510 0.1241
C10 C 0.7638(3) 0.2767(2) 0.17199(19)
H4 H 0.6929 0.1928 0.1710
C11 C 0.7551(2) 0.3914(2) 0.20130(17)
C12 C 0.6412(3) 0.3943(2) 0.23465(18)
C13 C 0.5201(3) 0.2826(3) 0.2448(2)
H5 H 0.5059 0.1994 0.2226
C14 C 0.4268(3) 0.3055(3) 0.2888(2)
H6 H 0.3418 0.2400 0.3000
C15 C 0.4689(3) 0.4361(3) 0.3162(2)
C16 C 0.4011(3) 0.4908(3) 0.3654(2)
C17 C 0.2705(3) 0.4129(3) 0.3931(2)
C18 C 0.4600(3) 0.6243(3) 0.3908(3)
C19 C 0.9203(3) 0.6268(2) 0.21892(18)
H7 H 0.8291 0.6388 0.1953
H8 H 0.9864 0.6769 0.1774
C20 C 0.9974(4) 0.6794(3) 0.3418(2)
H9 H 0.9207 0.6377 0.3790
C21 C 1.1219(4) 0.6467(3) 0.3938(3)
H10 H 1.2066 0.6966 0.3673
H11 H 1.0900 0.5558 0.3695
C22 C 1.1733(4) 0.6715(3) 0.5168(2)
H12 H 1.2548 0.6484 0.5446
H13 H 1.0912 0.6203 0.5441
H14 H 1.2073 0.7617 0.5419
C23 C 1.0375(4) 0.8201(3) 0.3588(3)
H15 H 1.0911 0.8529 0.4373
H16 H 1.1081 0.8626 0.3181
C24 C 0.9196(4) 0.8612(3) 0.3275(3)
H17 H 0.8506 0.8235 0.3705
H18 H 0.8634 0.8280 0.2493
C25 C 0.9763(5) 1.0061(3) 0.3453(3)
H19 H 1.0352 1.0405 0.4228
H20 H 1.0415 1.0444 0.2996
C26 C 0.8520(6) 1.0402(4) 0.3163(4)
H21 H 0.8905 1.1328 0.3267
H22 H 0.7896 1.0048 0.3633
H23 H 0.7933 1.0055 0.2397
loop_
_geom_bond_atom_site_label_1
_geom_bond_atom_site_label_2
_geom_bond_site_symmetry_1
_geom_bond_site_symmetry_2
S1 C4 1_555 1_555
S2 C12 1_555 1_555
N1 C3 1_555 1_555
N2 C1 1_555 1_555
N3 C8 1_555 1_555
N4 C17 1_555 1_555
N5 C18 1_555 1_555
C1 C2 1_555 1_555
C2 C3 1_555 1_555
C4 C2 1_555 1_555
C5 C4 1_555 1_555
H1 C5 1_555 1_555
C6 C5 1_555 1_555
H2 C6 1_555 1_555
C7 S1 1_555 1_555
C8 C7 1_555 1_555
C9 C8 1_555 1_555
H3 C9 1_555 1_555
C10 C9 1_555 1_555
H4 C10 1_555 1_555
C11 N3 1_555 1_555
C12 C11 1_555 1_555
C13 C12 1_555 1_555
H5 C13 1_555 1_555
C14 C13 1_555 1_555
H6 C14 1_555 1_555
C15 S2 1_555 1_555
C16 C15 1_555 1_555
C17 C16 1_555 1_555
C18 C16 1_555 1_555
C19 N3 1_555 1_555
H7 C19 1_555 1_555
H8 C19 1_555 1_555
C20 C19 1_555 1_555
H9 C20 1_555 1_555
C21 C20 1_555 1_555
H10 C21 1_555 1_555
H11 C21 1_555 1_555
C22 C21 1_555 1_555
H12 C22 1_555 1_555
H13 C22 1_555 1_555
H14 C22 1_555 1_555
C23 C20 1_555 1_555
H15 C23 1_555 1_555
H16 C23 1_555 1_555
C24 C23 1_555 1_555
H17 C24 1_555 1_555
H18 C24 1_555 1_555
C25 C24 1_555 1_555
H19 C25 1_555 1_555
H20 C25 1_555 1_555
C26 C25 1_555 1_555
H21 C26 1_555 1_555
H22 C26 1_555 1_555
H23 C26 1_555 1_555
C6 C7 1_555 1_555
C10 C11 1_555 1_555
C14 C15 1_555 1_555

#END
