
#######################################################################
#
#                 Cambridge Crystallographic Data Centre
#                                CCDC 
#
#######################################################################
#
# If this CIF has been generated from an entry in the Cambridge 
# Structural Database, then it will include bibliographic, chemical, 
# crystal, experimental, refinement or atomic coordinate data resulting 
# from the CCDC's data processing and validation procedures.
#
#######################################################################

data_MAYSAI
_chemical_formula_moiety         'C26 H25 N3 O2'
_chemical_name_systematic        
4-(4-Methoxyphenyl)-3,7,7-trimethyl-1-phenyl-1,6,7,8-tetrahydro-5H-pyrazolo[3,4-b]quinolin-5-one
_symmetry_cell_setting           monoclinic
_symmetry_space_group_name_H-M   'P 2/c'
_symmetry_Int_Tables_number      13
_space_group_name_Hall           '-P 2yc'
loop_
_symmetry_equiv_pos_site_id
_symmetry_equiv_pos_as_xyz
1 x,y,z
2 -x,y,1/2-z
3 -x,-y,-z
4 x,-y,1/2+z
_cell_length_a                   14.101(9)
_cell_length_b                   7.584(5)
_cell_length_c                   23.376(11)
_cell_angle_alpha                90
_cell_angle_beta                 122.73(3)
_cell_angle_gamma                90
_cell_volume                     2102.97
_cell_formula_units_Z            4
loop_
_atom_site_label
_atom_site_type_symbol
_atom_site_fract_x
_atom_site_fract_y
_atom_site_fract_z
N1 N 0.14012(18) 0.4340(3) 0.51724(12)
N2 N 0.1560(2) 0.4852(3) 0.62284(12)
N3 N 0.2083(2) 0.6074(3) 0.67514(12)
O1 O 0.2602(2) 0.8871(3) 0.43043(11)
O2 O 0.56457(18) 1.3274(3) 0.64867(12)
C1 C 0.1704(2) 0.5319(4) 0.57204(15)
C2 C 0.2543(2) 0.7271(4) 0.65736(15)
C3 C 0.2329(2) 0.6892(4) 0.59123(15)
C4 C 0.2633(2) 0.7580(4) 0.54789(15)
C5 C 0.2275(2) 0.6628(4) 0.48807(15)
C6 C 0.2386(3) 0.7325(5) 0.43280(16)
C7 C 0.2138(3) 0.6115(4) 0.37599(16)
H1 H 0.2666 0.6365 0.3626
H2 H 0.1388 0.6380 0.3373
C8 C 0.2196(3) 0.4160(4) 0.39138(15)
C9 C 0.1433(3) 0.3861(4) 0.41777(15)
H3 H 0.0659 0.4080 0.3812
H4 H 0.1488 0.2635 0.4310
C10 C 0.1707(2) 0.4997(4) 0.47682(15)
C11 C 0.1139(2) 0.3284(4) 0.63405(16)
C12 C 0.0480(2) 0.2134(4) 0.58186(16)
H5 H 0.0284 0.2392 0.5379
C13 C 0.0113(3) 0.0600(4) 0.59508(17)
H6 H -0.0329 -0.0184 0.5598
C14 C 0.0391(3) 0.0213(5) 0.65966(19)
H7 H 0.0143 -0.0830 0.6683
C15 C 0.1038(3) 0.1374(5) 0.71138(18)
H8 H 0.1222 0.1123 0.7552
C16 C 0.1417(3) 0.2901(5) 0.69904(17)
H9 H 0.1860 0.3680 0.7345
C17 C 0.3203(3) 0.8715(4) 0.70650(16)
H10 H 0.3176 0.8580 0.7464
H11 H 0.2886 0.9835 0.6857
H12 H 0.3973 0.8661 0.7189
C18 C 0.3369(2) 0.9146(4) 0.56908(15)
C19 C 0.4417(2) 0.9064(4) 0.57716(16)
H13 H 0.4622 0.8043 0.5644
C20 C 0.5161(3) 1.0452(4) 0.60354(17)
H14 H 0.5862 1.0369 0.6088
C21 C 0.4854(3) 1.1974(4) 0.62215(16)
C22 C 0.3812(3) 1.2111(4) 0.61245(15)
H15 H 0.3597 1.3147 0.6237
C23 C 0.3079(2) 1.0696(4) 0.58575(15)
H16 H 0.2367 1.0802 0.5789
C24 C 0.5426(3) 1.4755(5) 0.6748(2)
H17 H 0.6042 1.5570 0.6916
H18 H 0.5340 1.4409 0.7112
H19 H 0.4746 1.5309 0.6395
C25 C 0.3404(3) 0.3615(4) 0.44444(17)
H20 H 0.3425 0.2380 0.4540
H21 H 0.3673 0.4279 0.4854
H22 H 0.3876 0.3844 0.4273
C26 C 0.1776(3) 0.3076(4) 0.32700(16)
H23 H 0.1820 0.1844 0.3376
H24 H 0.2235 0.3318 0.3091
H25 H 0.1008 0.3384 0.2938
loop_
_geom_bond_atom_site_label_1
_geom_bond_atom_site_label_2
_geom_bond_site_symmetry_1
_geom_bond_site_symmetry_2
N1 C1 1_555 1_555
N2 N3 1_555 1_555
N3 C2 1_555 1_555
O1 C6 1_555 1_555
O2 C21 1_555 1_555
C1 N2 1_555 1_555
C2 C3 1_555 1_555
C3 C1 1_555 1_555
C4 C3 1_555 1_555
C5 C4 1_555 1_555
C6 C5 1_555 1_555
C7 C6 1_555 1_555
H1 C7 1_555 1_555
H2 C7 1_555 1_555
C8 C7 1_555 1_555
C9 C8 1_555 1_555
H3 C9 1_555 1_555
H4 C9 1_555 1_555
C10 N1 1_555 1_555
C11 N2 1_555 1_555
C12 C11 1_555 1_555
H5 C12 1_555 1_555
C13 C12 1_555 1_555
H6 C13 1_555 1_555
C14 C13 1_555 1_555
H7 C14 1_555 1_555
C15 C14 1_555 1_555
H8 C15 1_555 1_555
C16 C11 1_555 1_555
H9 C16 1_555 1_555
C17 C2 1_555 1_555
H10 C17 1_555 1_555
H11 C17 1_555 1_555
H12 C17 1_555 1_555
C18 C4 1_555 1_555
C19 C18 1_555 1_555
H13 C19 1_555 1_555
C20 C19 1_555 1_555
H14 C20 1_555 1_555
C21 C20 1_555 1_555
C22 C21 1_555 1_555
H15 C22 1_555 1_555
C23 C18 1_555 1_555
H16 C23 1_555 1_555
C24 O2 1_555 1_555
H17 C24 1_555 1_555
H18 C24 1_555 1_555
H19 C24 1_555 1_555
C25 C8 1_555 1_555
H20 C25 1_555 1_555
H21 C25 1_555 1_555
H22 C25 1_555 1_555
C26 C8 1_555 1_555
H23 C26 1_555 1_555
H24 C26 1_555 1_555
H25 C26 1_555 1_555
C5 C10 1_555 1_555
C9 C10 1_555 1_555
C15 C16 1_555 1_555
C22 C23 1_555 1_555

#END
