
#######################################################################
#
#                 Cambridge Crystallographic Data Centre
#                                CCDC 
#
#######################################################################
#
# If this CIF has been generated from an entry in the Cambridge 
# Structural Database, then it will include bibliographic, chemical, 
# crystal, experimental, refinement or atomic coordinate data resulting 
# from the CCDC's data processing and validation procedures.
#
#######################################################################

data_MAYWIT
_chemical_formula_moiety         'C15 H15 F2 N3 O2 S1'
_chemical_name_systematic        
6,7-Difluoro-8-phenylsulfonyl-1,4-dimethyl-1,2,3,4-tetrahydropyrido(2,3-b)pyrazine
_symmetry_cell_setting           orthorhombic
_symmetry_space_group_name_H-M   'P b c n'
_symmetry_Int_Tables_number      60
_space_group_name_Hall           '-P 2n 2ab'
loop_
_symmetry_equiv_pos_site_id
_symmetry_equiv_pos_as_xyz
1 x,y,z
2 1/2-x,1/2-y,1/2+z
3 -x,y,1/2-z
4 1/2+x,1/2-y,-z
5 -x,-y,-z
6 1/2+x,1/2+y,1/2-z
7 x,-y,1/2+z
8 1/2-x,1/2+y,z
_cell_length_a                   21.3729(5)
_cell_length_b                   9.7107(2)
_cell_length_c                   14.4801(3)
_cell_angle_alpha                90
_cell_angle_beta                 90
_cell_angle_gamma                90
_cell_volume                     3005.28
_exptl_crystal_colour            'light green-yellow'
_exptl_crystal_description       prism
_chemical_melting_point          'about 160 deg.C(dec.)'
_cell_formula_units_Z            8
_chemical_properties_physical    light-sensitive
loop_
_atom_site_label
_atom_site_type_symbol
_atom_site_fract_x
_atom_site_fract_y
_atom_site_fract_z
S1 S 0.646550(15) 0.37672(3) 0.11671(2)
O1 O 0.62644(5) 0.51778(10) 0.11989(7)
O2 O 0.69493(5) 0.33358(10) 0.17917(7)
F1 F 0.41018(4) 0.29299(9) 0.14227(7)
F2 F 0.50693(4) 0.46464(8) 0.13978(7)
N1 N 0.64328(5) 0.06268(11) 0.12668(8)
N2 N 0.53123(6) -0.09202(12) 0.11626(9)
N3 N 0.47111(5) 0.10535(12) 0.12928(8)
C1 C 0.64007(7) -0.06235(14) 0.07003(11)
C2 C 0.59070(7) -0.16268(14) 0.10436(11)
C3 C 0.46811(6) 0.23925(15) 0.13524(9)
C4 C 0.51822(6) 0.32858(13) 0.13525(9)
C5 C 0.57827(6) 0.27117(12) 0.13066(8)
C6 C 0.58391(6) 0.12807(12) 0.12842(8)
C7 C 0.52821(6) 0.04729(13) 0.12457(9)
C8 C 0.66929(6) 0.33994(13) 0.00248(9)
C9 C 0.63866(6) 0.41108(14) -0.06751(9)
C10 C 0.65541(8) 0.38616(16) -0.15869(10)
C11 C 0.70224(8) 0.29264(17) -0.17817(11)
C12 C 0.73280(8) 0.22280(17) -0.10800(12)
C13 C 0.71642(7) 0.24518(15) -0.01627(11)
C14 C 0.66842(7) 0.03631(14) 0.22000(10)
C15 C 0.47513(7) -0.17604(15) 0.12139(11)
H1 H 0.4385 -0.1164 0.1294
H2 H 0.4784 -0.2392 0.1740
H3 H 0.4706 -0.2292 0.0642
H4 H 0.6816(8) -0.1088(18) 0.0710(12)
H5 H 0.6309(7) -0.0347(16) 0.0075(12)
H6 H 0.6041(8) -0.2001(17) 0.1627(12)
H7 H 0.5840(9) -0.229(2) 0.0581(14)
H8 H 0.6065(8) 0.4767(18) -0.0522(11)
H9 H 0.6341(9) 0.436(2) -0.2077(15)
H10 H 0.7150(9) 0.2744(19) -0.2403(14)
H11 H 0.7660(10) 0.162(2) -0.1218(13)
H12 H 0.7362(8) 0.1984(18) 0.0342(13)
H13 H 0.6675(8) 0.1206(18) 0.2551(12)
H14 H 0.6423(8) -0.0307(17) 0.2533(12)
H15 H 0.7109(8) 0.0054(19) 0.2118(12)
loop_
_geom_bond_atom_site_label_1
_geom_bond_atom_site_label_2
_geom_bond_site_symmetry_1
_geom_bond_site_symmetry_2
S1 O1 1_555 1_555
O2 S1 1_555 1_555
F1 C3 1_555 1_555
F2 C4 1_555 1_555
N1 C1 1_555 1_555
N2 C2 1_555 1_555
N3 C3 1_555 1_555
C1 C2 1_555 1_555
C2 H6 1_555 1_555
C3 C4 1_555 1_555
C4 C5 1_555 1_555
C5 S1 1_555 1_555
C6 N1 1_555 1_555
C7 N2 1_555 1_555
C8 S1 1_555 1_555
C9 C8 1_555 1_555
C10 C9 1_555 1_555
C11 C10 1_555 1_555
C12 C11 1_555 1_555
C13 C8 1_555 1_555
C14 N1 1_555 1_555
C15 N2 1_555 1_555
H1 C15 1_555 1_555
H2 C15 1_555 1_555
H3 C15 1_555 1_555
H4 C1 1_555 1_555
H5 C1 1_555 1_555
H7 C2 1_555 1_555
H8 C9 1_555 1_555
H9 C10 1_555 1_555
H10 C11 1_555 1_555
H11 C12 1_555 1_555
H12 C13 1_555 1_555
H13 C14 1_555 1_555
H14 C14 1_555 1_555
H15 C14 1_555 1_555
N3 C7 1_555 1_555
C5 C6 1_555 1_555
C6 C7 1_555 1_555
C12 C13 1_555 1_555

#END
