
#######################################################################
#
#                 Cambridge Crystallographic Data Centre
#                                CCDC 
#
#######################################################################
#
# If this CIF has been generated from an entry in the Cambridge 
# Structural Database, then it will include bibliographic, chemical, 
# crystal, experimental, refinement or atomic coordinate data resulting 
# from the CCDC's data processing and validation procedures.
#
#######################################################################

data_MAYYUI
_chemical_formula_moiety         'C20 H26 N2 O3 S1'
_chemical_name_systematic        
3-Amino-1-(4-methyl-1,1-dioxido-4,5-dihydro-1,2-benzothiazepin-2(3H)-yl)-4-phenylbutan-2-ol
_symmetry_cell_setting           orthorhombic
_symmetry_space_group_name_H-M   'P 21 21 21'
_symmetry_Int_Tables_number      19
_space_group_name_Hall           'P 2ac 2ab'
loop_
_symmetry_equiv_pos_site_id
_symmetry_equiv_pos_as_xyz
1 x,y,z
2 1/2-x,-y,1/2+z
3 -x,1/2+y,1/2-z
4 1/2+x,1/2-y,-z
_cell_length_a                   8.78170(10)
_cell_length_b                   9.5441(2)
_cell_length_c                   23.4720(4)
_cell_angle_alpha                90
_cell_angle_beta                 90
_cell_angle_gamma                90
_cell_volume                     1967.27
_exptl_crystal_colour            colorless
_exptl_crystal_description       plate
_chemical_melting_point          '426-428 K'
_cell_formula_units_Z            4
loop_
_atom_site_label
_atom_site_type_symbol
_atom_site_fract_x
_atom_site_fract_y
_atom_site_fract_z
N1 N 0.4209(2) 0.6098(2) 0.09853(8)
C1 C 0.3712(3) 0.4704(3) 0.11795(11)
H1 H 0.3374 0.4175 0.0850
H2 H 0.2840 0.4823 0.1428
C2 C 0.4898(4) 0.3842(3) 0.14926(11)
H3 H 0.5808 0.3778 0.1253
C3 C 0.5361(4) 0.4470(3) 0.20704(11)
H4 H 0.4452 0.4822 0.2257
H5 H 0.5767 0.3724 0.2306
C4 C 0.6521(3) 0.5640(3) 0.20475(10)
C5 C 0.7939(4) 0.5447(4) 0.22869(13)
H6 H 0.8143 0.4606 0.2472
C6 C 0.9061(4) 0.6446(5) 0.22628(15)
H7 H 1.0009 0.6268 0.2424
C7 C 0.8787(4) 0.7701(5) 0.20027(14)
H8 H 0.9544 0.8381 0.1986
C8 C 0.7367(3) 0.7952(4) 0.17637(12)
H9 H 0.7165 0.8803 0.1586
C9 C 0.6259(3) 0.6930(3) 0.17913(10)
S1 S 0.44789(8) 0.72943(7) 0.14653(3)
O1 O 0.4606(3) 0.8617(2) 0.11845(10)
O2 O 0.3308(2) 0.7119(3) 0.18808(8)
C10 C 0.5196(3) 0.6134(3) 0.04783(10)
H10 H 0.5957 0.5401 0.0506
H11 H 0.5720 0.7028 0.0461
C11 C 0.4263(3) 0.5928(2) -0.00608(9)
H12 H 0.3675 0.5060 -0.0023
H13 H 0.273(3) 0.714(3) 0.0146(12)
O3 O 0.3238(2) 0.7053(2) -0.01457(8)
C12 C 0.5211(3) 0.5843(3) -0.05993(10)
H14 H 0.4514 0.5709 -0.0921
C13 C 0.6384(3) 0.4667(3) -0.06153(12)
H15 H 0.6949 0.4734 -0.0969
H16 H 0.7100 0.4807 -0.0306
C14 C 0.5739(3) 0.3217(3) -0.05682(13)
C15 C 0.4899(4) 0.2649(4) -0.10041(19)
H17 H 0.4727 0.3166 -0.1334
C16 C 0.4301(6) 0.1294(7) -0.0955(4)
H18 H 0.3733 0.0905 -0.1249
C17 C 0.4567(8) 0.0557(6) -0.0468(5)
H19 H 0.4158 -0.0338 -0.0434
C18 C 0.5399(6) 0.1074(4) -0.0034(3)
H20 H 0.5570 0.0546 0.0293
C19 C 0.5993(4) 0.2412(4) -0.00868(18)
H21 H 0.6576 0.2778 0.0208
H22 H 0.643(4) 0.710(3) -0.1022(14)
H23 H 0.538(4) 0.783(3) -0.0709(13)
N2 N 0.6004(3) 0.7178(3) -0.06839(10)
C20 C 0.4262(5) 0.2364(3) 0.15780(16)
H24 H 0.3340 0.2412 0.1797
H25 H 0.4997 0.1802 0.1777
H26 H 0.4051 0.1950 0.1214
loop_
_geom_bond_atom_site_label_1
_geom_bond_atom_site_label_2
_geom_bond_site_symmetry_1
_geom_bond_site_symmetry_2
N1 C1 1_555 1_555
C1 H1 1_555 1_555
H2 C1 1_555 1_555
C2 C1 1_555 1_555
H3 C2 1_555 1_555
C3 C2 1_555 1_555
H4 C3 1_555 1_555
H5 C3 1_555 1_555
C4 C3 1_555 1_555
C5 C4 1_555 1_555
H6 C5 1_555 1_555
C6 C5 1_555 1_555
H7 C6 1_555 1_555
C7 C6 1_555 1_555
H8 C7 1_555 1_555
C8 C7 1_555 1_555
H9 C8 1_555 1_555
C9 C4 1_555 1_555
S1 N1 1_555 1_555
O1 S1 1_555 1_555
O2 S1 1_555 1_555
C10 N1 1_555 1_555
H10 C10 1_555 1_555
H11 C10 1_555 1_555
C11 C10 1_555 1_555
H12 C11 1_555 1_555
H13 O3 1_555 1_555
O3 C11 1_555 1_555
C12 C11 1_555 1_555
H14 C12 1_555 1_555
C13 C12 1_555 1_555
H15 C13 1_555 1_555
H16 C13 1_555 1_555
C14 C13 1_555 1_555
C15 C14 1_555 1_555
H17 C15 1_555 1_555
C16 C15 1_555 1_555
H18 C16 1_555 1_555
C17 C16 1_555 1_555
H19 C17 1_555 1_555
C18 C17 1_555 1_555
H20 C18 1_555 1_555
C19 C14 1_555 1_555
H21 C19 1_555 1_555
H22 N2 1_555 1_555
H23 N2 1_555 1_555
N2 C12 1_555 1_555
C20 C2 1_555 1_555
H24 C20 1_555 1_555
H25 C20 1_555 1_555
H26 C20 1_555 1_555
C8 C9 1_555 1_555
C9 S1 1_555 1_555
C18 C19 1_555 1_555

#END
