
#######################################################################
#
#                 Cambridge Crystallographic Data Centre
#                                CCDC 
#
#######################################################################
#
# If this CIF has been generated from an entry in the Cambridge 
# Structural Database, then it will include bibliographic, chemical, 
# crystal, experimental, refinement or atomic coordinate data resulting 
# from the CCDC's data processing and validation procedures.
#
#######################################################################

data_MAZCOH
_chemical_compound_source        'Abies recurvata'
_chemical_name_common            'neoabiestrine A'
_chemical_formula_moiety         'C30 H46 O4,0.25(C1 H4 O1)'
_chemical_name_systematic        
'3-Hydroxy-4,4,17-trimethyl-23-oxocholesta-7,14-dien-26-oic acid methanol solvate'
_chemical_properties_biological  'antitumour activity'
_symmetry_cell_setting           monoclinic
_symmetry_space_group_name_H-M   'C 2'
_symmetry_Int_Tables_number      5
_space_group_name_Hall           'C 2y'
loop_
_symmetry_equiv_pos_site_id
_symmetry_equiv_pos_as_xyz
1 x,y,z
2 -x,y,-z
3 1/2+x,1/2+y,z
4 1/2-x,1/2+y,-z
_cell_length_a                   25.3688(4)
_cell_length_b                   7.32870(10)
_cell_length_c                   15.0899(2)
_cell_angle_alpha                90
_cell_angle_beta                 99.8060(10)
_cell_angle_gamma                90
_cell_volume                     2764.53
_exptl_crystal_colour            colorless
_exptl_crystal_description       block
_cell_formula_units_Z            4
_exptl_crystal_recrystallization_method methanol
loop_
_atom_site_label
_atom_site_type_symbol
_atom_site_fract_x
_atom_site_fract_y
_atom_site_fract_z
O2 O 0.09637(5) 0.00719(19) 0.03911(7)
H1 H 0.0731 -0.0033 -0.0074
O3 O 0.02540(5) 0.1178(2) 0.68857(11)
O4 O 0.02599(5) -0.0619(2) 0.88293(8)
O5 O -0.05870(4) -0.09858(16) 0.81769(7)
H2 H -0.0650 -0.0551 0.8663
C2 C 0.19354(6) 0.0521(2) 0.17125(10)
H3 H 0.1632 -0.0175 0.1878
H4 H 0.2271 -0.0060 0.2015
C3 C 0.19108(6) 0.0412(2) 0.06908(10)
H5 H 0.2217 0.1084 0.0521
H6 H 0.1937 -0.0878 0.0509
C4 C 0.13916(6) 0.1224(2) 0.02010(10)
H7 H 0.1397 0.1168 -0.0460
C5 C 0.13174(6) 0.3227(2) 0.04561(9)
C6 C 0.14209(5) 0.3479(2) 0.15019(9)
H8 H 0.1103 0.2925 0.1709
C7 C 0.14189(6) 0.5481(2) 0.17850(10)
H9 H 0.1726 0.6119 0.1598
H10 H 0.1086 0.6073 0.1479
C8 C 0.14541(6) 0.5644(2) 0.27826(10)
H11 H 0.1334 0.6743 0.3016
C9 C 0.16443(5) 0.4334(2) 0.33597(9)
C10 C 0.18543(6) 0.2519(2) 0.30723(9)
H12 H 0.2225 0.2398 0.3419
C11 C 0.19138(5) 0.2486(2) 0.20527(9)
C12 C 0.15285(7) 0.0983(2) 0.34121(10)
H13 H 0.1662 -0.0212 0.3238
H14 H 0.1149 0.1096 0.3126
C13 C 0.15704(7) 0.1058(2) 0.44430(10)
H15 H 0.1353 0.0059 0.4635
H16 H 0.1947 0.0845 0.4725
C14 C 0.13830(6) 0.2880(2) 0.47874(9)
C15 C 0.16170(5) 0.4471(2) 0.43277(10)
C16 C 0.17331(6) 0.5867(2) 0.48799(10)
H17 H 0.1873 0.6995 0.4714
C17 C 0.16178(7) 0.5450(3) 0.58019(11)
H18 H 0.1277 0.6014 0.5893
H19 H 0.1909 0.5899 0.6272
C18 C 0.15811(6) 0.3343(2) 0.58218(9)
C19 C 0.21488(6) 0.2611(3) 0.61378(10)
H20 H 0.2283 0.3052 0.6748
H21 H 0.2384 0.3039 0.5730
H22 H 0.2142 0.1274 0.6138
C20 C 0.24471(6) 0.3454(2) 0.19970(10)
H23 H 0.2484 0.3601 0.1365
H24 H 0.2745 0.2721 0.2309
H25 H 0.2451 0.4657 0.2282
C21 C 0.12025(6) 0.2727(2) 0.64695(10)
H26 H 0.0844 0.3277 0.6241
C22 C 0.13779(7) 0.3433(3) 0.74320(10)
H27 H 0.1710 0.2826 0.7704
H28 H 0.1098 0.3171 0.7789
H29 H 0.1437 0.4753 0.7418
C23 C 0.11209(6) 0.0666(3) 0.65052(11)
H30 H 0.1095 0.0162 0.5891
H31 H 0.1438 0.0113 0.6883
C24 C 0.06256(6) 0.0127(3) 0.68780(11)
C25 C 0.06087(7) -0.1777(3) 0.72357(12)
H32 H 0.0881 -0.1892 0.7787
H33 H 0.0705 -0.2642 0.6785
C26 C 0.00653(6) -0.2313(2) 0.74556(10)
H34 H -0.0213 -0.2086 0.6913
C27 C -0.00686(6) -0.1184(2) 0.82228(10)
C28 C 0.00489(7) -0.4327(3) 0.77048(13)
H35 H -0.0309 -0.4637 0.7819
H36 H 0.0313 -0.4563 0.8247
H37 H 0.0133 -0.5074 0.7208
C29 C 0.07381(7) 0.3782(3) 0.00923(11)
H38 H 0.0644 0.3411 -0.0539
H39 H 0.0702 0.5109 0.0138
H40 H 0.0498 0.3181 0.0445
C30 C 0.16824(8) 0.4400(3) -0.00321(10)
H41 H 0.1575 0.4257 -0.0684
H42 H 0.2054 0.4004 0.0146
H43 H 0.1650 0.5684 0.0131
C31 C 0.07684(6) 0.3030(3) 0.45264(10)
H44 H 0.0600 0.2024 0.4801
H45 H 0.0667 0.2966 0.3871
H46 H 0.0649 0.4195 0.4742
O1 O 0.5000 0.2274(19) 0.5000
C1 C 0.4593(6) 0.357(2) 0.5105(10)
C1A C 0.5407(6) 0.357(2) 0.4895(10)
loop_
_geom_bond_atom_site_label_1
_geom_bond_atom_site_label_2
_geom_bond_site_symmetry_1
_geom_bond_site_symmetry_2
O1 C1 1_555 1_555
O2 H1 1_555 1_555
O3 C24 1_555 1_555
O4 C27 1_555 1_555
O5 H2 1_555 1_555
C2 H3 1_555 1_555
H4 C2 1_555 1_555
C3 C2 1_555 1_555
H5 C3 1_555 1_555
H6 C3 1_555 1_555
C4 O2 1_555 1_555
H7 C4 1_555 1_555
C5 C4 1_555 1_555
C6 C5 1_555 1_555
H8 C6 1_555 1_555
C7 C6 1_555 1_555
H9 C7 1_555 1_555
H10 C7 1_555 1_555
C8 C7 1_555 1_555
H11 C8 1_555 1_555
C9 C8 1_555 1_555
C10 C9 1_555 1_555
H12 C10 1_555 1_555
C11 C2 1_555 1_555
C12 C10 1_555 1_555
H13 C12 1_555 1_555
H14 C12 1_555 1_555
C13 C12 1_555 1_555
H15 C13 1_555 1_555
H16 C13 1_555 1_555
C14 C13 1_555 1_555
C15 C9 1_555 1_555
C16 C15 1_555 1_555
H17 C16 1_555 1_555
C17 C16 1_555 1_555
H18 C17 1_555 1_555
H19 C17 1_555 1_555
C18 C14 1_555 1_555
C19 C18 1_555 1_555
H20 C19 1_555 1_555
H21 C19 1_555 1_555
H22 C19 1_555 1_555
C20 C11 1_555 1_555
H23 C20 1_555 1_555
H24 C20 1_555 1_555
H25 C20 1_555 1_555
C21 C18 1_555 1_555
H26 C21 1_555 1_555
C22 C21 1_555 1_555
H27 C22 1_555 1_555
H28 C22 1_555 1_555
H29 C22 1_555 1_555
C23 C21 1_555 1_555
H30 C23 1_555 1_555
H31 C23 1_555 1_555
C24 C23 1_555 1_555
C25 C24 1_555 1_555
H32 C25 1_555 1_555
H33 C25 1_555 1_555
C26 C25 1_555 1_555
H34 C26 1_555 1_555
C27 O5 1_555 1_555
C28 C26 1_555 1_555
H35 C28 1_555 1_555
H36 C28 1_555 1_555
H37 C28 1_555 1_555
C29 C5 1_555 1_555
H38 C29 1_555 1_555
H39 C29 1_555 1_555
H40 C29 1_555 1_555
C30 C5 1_555 1_555
H41 C30 1_555 1_555
H42 C30 1_555 1_555
H43 C30 1_555 1_555
C31 C14 1_555 1_555
H44 C31 1_555 1_555
H45 C31 1_555 1_555
H46 C31 1_555 1_555
C1A O1 1_555 1_555
C3 C4 1_555 1_555
C6 C11 1_555 1_555
C10 C11 1_555 1_555
C14 C15 1_555 1_555
C17 C18 1_555 1_555
C26 C27 1_555 1_555

#END
