
#######################################################################
#
#                 Cambridge Crystallographic Data Centre
#                                CCDC 
#
#######################################################################
#
# If this CIF has been generated from an entry in the Cambridge 
# Structural Database, then it will include bibliographic, chemical, 
# crystal, experimental, refinement or atomic coordinate data resulting 
# from the CCDC's data processing and validation procedures.
#
#######################################################################

data_MAZGIE
_chemical_formula_moiety         'C23 H21 N3 O3 S1'
_chemical_name_systematic        
'ethyl 7-(4-methoxyphenyl)-2-benzylthiopyrazolo[1,5-a]pyrimidine-3-carboxylate'
_symmetry_cell_setting           monoclinic
_symmetry_space_group_name_H-M   'P 21/n'
_symmetry_Int_Tables_number      14
_space_group_name_Hall           '-P 2yn'
loop_
_symmetry_equiv_pos_site_id
_symmetry_equiv_pos_as_xyz
1 x,y,z
2 1/2-x,1/2+y,1/2-z
3 -x,-y,-z
4 1/2+x,1/2-y,1/2+z
_cell_length_a                   14.78(3)
_cell_length_b                   6.995(14)
_cell_length_c                   21.21(4)
_cell_angle_alpha                90
_cell_angle_beta                 92.16(4)
_cell_angle_gamma                90
_cell_volume                     2191.26
_exptl_crystal_colour            yellow
_exptl_crystal_description       needle
_chemical_melting_point          147-149deg.C
_cell_formula_units_Z            4
loop_
_atom_site_label
_atom_site_type_symbol
_atom_site_fract_x
_atom_site_fract_y
_atom_site_fract_z
S1 S 0.85773(8) 0.70979(19) 0.01158(6)
O1 O 1.0859(2) 0.8159(6) -0.12734(16)
O2 O 0.9375(3) 0.7807(6) -0.11290(18)
O3 O 1.0972(2) 0.6924(6) 0.37715(17)
N1 N 1.0107(2) 0.7356(5) 0.08074(19)
N2 N 1.1019(2) 0.7644(6) 0.07156(19)
N3 N 1.2055(3) 0.8096(6) -0.0124(2)
C1 C 0.6730(4) 0.5276(9) 0.0949(3)
H1 H 0.7022 0.4099 0.0935
C2 C 0.5791(5) 0.5326(12) 0.0960(4)
H2 H 0.5455 0.4201 0.0945
C3 C 0.5367(4) 0.7071(14) 0.0993(4)
H3 H 0.4740 0.7119 0.1015
C4 C 0.5844(5) 0.8713(12) 0.0994(3)
H4 H 0.5543 0.9880 0.1001
C5 C 0.6797(4) 0.8672(9) 0.0986(2)
H5 H 0.7127 0.9804 0.0997
C6 C 0.7238(3) 0.6915(8) 0.0959(2)
C7 C 0.8259(3) 0.6874(9) 0.0941(2)
H6 H 0.8489 0.5683 0.1118
H7 H 0.8515 0.7921 0.1189
C8 C 0.9746(3) 0.7393(6) 0.0233(2)
C9 C 1.0373(3) 0.7688(7) -0.0251(2)
C10 C 1.0140(4) 0.7853(7) -0.0918(2)
C11 C 1.0687(4) 0.8464(11) -0.1944(3)
H8 H 1.0353 0.9632 -0.2006
H9 H 1.0339 0.7428 -0.2124
C12 C 1.1595(7) 0.868(5) -0.2249(6)
H10 H 1.1892 0.9816 -0.2090
H11 H 1.1501 0.8787 -0.2698
H12 H 1.1966 0.7589 -0.2151
C13 C 1.1198(3) 0.7819(7) 0.0068(2)
C14 C 1.2683(4) 0.8231(8) 0.0331(3)
H13 H 1.3277 0.8395 0.0213
C15 C 1.2533(3) 0.8148(8) 0.0980(3)
H14 H 1.3012 0.8322 0.1272
C16 C 1.1667(3) 0.7806(7) 0.1187(2)
C17 C 1.1446(3) 0.7654(7) 0.1862(2)
C18 C 1.0852(4) 0.6249(8) 0.2079(2)
H15 H 1.0552 0.5433 0.1795
C19 C 1.0717(4) 0.6093(9) 0.2720(3)
H16 H 1.0324 0.5161 0.2860
C20 C 1.1144(3) 0.7267(8) 0.3152(2)
C21 C 1.1727(4) 0.8647(9) 0.2940(3)
H17 H 1.2020 0.9466 0.3227
C22 C 1.1877(4) 0.8816(9) 0.2303(3)
H18 H 1.2280 0.9739 0.2169
C23 C 1.1478(4) 0.7917(10) 0.4236(3)
H19 H 1.2110 0.7668 0.4189
H20 H 1.1305 0.7500 0.4646
H21 H 1.1365 0.9263 0.4193
H22? H 1.0681 0.9806 -0.2039
H23? H 1.0113 0.7919 -0.2073
C24? C 1.150(2) 0.756(8) -0.2267(14)
H24? H 1.2050 0.8045 -0.2076
H25? H 1.1469 0.7880 -0.2707
H26? H 1.1477 0.6198 -0.2218
loop_
_geom_bond_atom_site_label_1
_geom_bond_atom_site_label_2
_geom_bond_site_symmetry_1
_geom_bond_site_symmetry_2
S1 C7 1_555 1_555
O1 C10 1_555 1_555
O2 C10 1_555 1_555
O3 C20 1_555 1_555
N1 N2 1_555 1_555
N2 C13 1_555 1_555
N3 C13 1_555 1_555
C1 H1 1_555 1_555
C2 C1 1_555 1_555
H2 C2 1_555 1_555
C3 C2 1_555 1_555
H3 C3 1_555 1_555
C4 C3 1_555 1_555
H4 C4 1_555 1_555
C5 C4 1_555 1_555
H5 C5 1_555 1_555
C6 C1 1_555 1_555
C7 C6 1_555 1_555
H6 C7 1_555 1_555
H7 C7 1_555 1_555
C8 S1 1_555 1_555
C9 C8 1_555 1_555
C10 C9 1_555 1_555
C11 O1 1_555 1_555
H8 C11 1_555 1_555
H9 C11 1_555 1_555
C12 C11 1_555 1_555
H10 C12 1_555 1_555
H11 C12 1_555 1_555
H12 C12 1_555 1_555
C13 C9 1_555 1_555
C14 N3 1_555 1_555
H13 C14 1_555 1_555
C15 C14 1_555 1_555
H14 C15 1_555 1_555
C16 N2 1_555 1_555
C17 C16 1_555 1_555
C18 C17 1_555 1_555
H15 C18 1_555 1_555
C19 C18 1_555 1_555
H16 C19 1_555 1_555
C20 C19 1_555 1_555
C21 C20 1_555 1_555
H17 C21 1_555 1_555
C22 C17 1_555 1_555
H18 C22 1_555 1_555
C23 O3 1_555 1_555
H19 C23 1_555 1_555
H20 C23 1_555 1_555
H21 C23 1_555 1_555
N1 C8 1_555 1_555
C5 C6 1_555 1_555
C15 C16 1_555 1_555
C21 C22 1_555 1_555

#END
