
#######################################################################
#
#                 Cambridge Crystallographic Data Centre
#                                CCDC 
#
#######################################################################
#
# If this CIF has been generated from an entry in the Cambridge 
# Structural Database, then it will include bibliographic, chemical, 
# crystal, experimental, refinement or atomic coordinate data resulting 
# from the CCDC's data processing and validation procedures.
#
#######################################################################

data_MAZMUW
_chemical_formula_moiety         'C14 H24 N2 O2'
_chemical_name_systematic        
(2-Pyridylmethyl)-bis(2-hydroxy-2-methylpropyl)amine
_symmetry_cell_setting           monoclinic
_symmetry_space_group_name_H-M   'P 21/n'
_symmetry_Int_Tables_number      14
_space_group_name_Hall           '-P 2yn'
loop_
_symmetry_equiv_pos_site_id
_symmetry_equiv_pos_as_xyz
1 x,y,z
2 1/2-x,1/2+y,1/2-z
3 -x,-y,-z
4 1/2+x,1/2-y,1/2+z
_cell_length_a                   14.8201(5)
_cell_length_b                   6.2365(2)
_cell_length_c                   16.7248(7)
_cell_angle_alpha                90
_cell_angle_beta                 107.934(2)
_cell_angle_gamma                90
_cell_volume                     1470.69
_exptl_crystal_colour            colorless
_exptl_crystal_description       block
_cell_formula_units_Z            4
loop_
_atom_site_label
_atom_site_type_symbol
_atom_site_fract_x
_atom_site_fract_y
_atom_site_fract_z
N1 N 0.58396(7) 0.47139(18) 0.84990(6)
N2 N 0.36144(8) 0.4401(2) 0.86952(8)
O1 O 0.62843(7) 0.47123(17) 0.68609(6)
O2 O 0.76338(8) 0.32356(19) 0.82262(6)
C1 C 0.53356(9) 0.4668(2) 0.69177(8)
C2 C 0.52903(9) 0.5787(2) 0.77191(8)
C3 C 0.75916(9) 0.3867(2) 0.90420(8)
C4 C 0.68069(9) 0.5560(2) 0.88668(8)
C5 C 0.4738(1) 0.5933(3) 0.61599(9)
C6 C 0.50015(12) 0.2356(3) 0.6889(1)
C7 C 0.73950(11) 0.1911(3) 0.9504(1)
C8 C 0.8524(1) 0.4927(3) 0.9532(1)
C9 C 0.53326(9) 0.4698(2) 0.91284(8)
C10 C 0.44411(9) 0.3354(2) 0.88737(8)
C11 C 0.4489(1) 0.1133(2) 0.8853(1)
C12 C 0.36621(11) -0.0062(3) 0.8637(1)
C13 C 0.28067(11) 0.1014(3) 0.8450(1)
C14 C 0.2816(1) 0.3214(3) 0.8489(1)
H1 H 0.6667(14) 0.406(3) 0.7303(12)
H2 H 0.7992(13) 0.209(3) 0.8267(12)
H3 H 0.55471 0.7272 0.77245
H4 H 0.46122 0.5864 0.77071
H5 H 0.68415 0.6279 0.94099
H6 H 0.69262 0.6639 0.84685
H7 H 0.4063 0.5967 0.61604
H8 H 0.4986 0.7431 0.61897
H9 H 0.4773 0.5233 0.56323
H10 H 0.43402 0.2316 0.6924
H11 H 0.54332 0.1552 0.7374
H12 H 0.50147 0.1677 0.6351
H13 H 0.73611 0.2359 1.0068
H14 H 0.79154 0.0838 0.9577
H15 H 0.67773 0.1254 0.9173
H16 H 0.8496 0.5378 1.0098
H17 H 0.9055 0.3882 0.9602
H18 H 0.8635 0.6213 0.9218
H19 H 0.57666 0.4104 0.96646
H20 H 0.51577 0.6205 0.92226
H21 H 0.5121 0.0408 0.8994
H22 H 0.36826 -0.1664 0.8621
H23 H 0.21931 0.0210 0.8286
H24 H 0.2196 0.3985 0.8359
loop_
_geom_bond_atom_site_label_1
_geom_bond_atom_site_label_2
_geom_bond_site_symmetry_1
_geom_bond_site_symmetry_2
N1 C2 1_555 1_555
N2 C10 1_555 1_555
O1 C1 1_555 1_555
O2 C3 1_555 1_555
C1 C2 1_555 1_555
C2 H3 1_555 1_555
C3 C4 1_555 1_555
C4 N1 1_555 1_555
C5 C1 1_555 1_555
C6 C1 1_555 1_555
C7 C3 1_555 1_555
C8 C3 1_555 1_555
C9 N1 1_555 1_555
C10 C9 1_555 1_555
C11 C10 1_555 1_555
C12 C11 1_555 1_555
C13 C12 1_555 1_555
C14 N2 1_555 1_555
H1 O1 1_555 1_555
H2 O2 1_555 1_555
H4 C2 1_555 1_555
H5 C4 1_555 1_555
H6 C4 1_555 1_555
H7 C5 1_555 1_555
H8 C5 1_555 1_555
H9 C5 1_555 1_555
H10 C6 1_555 1_555
H11 C6 1_555 1_555
H12 C6 1_555 1_555
H13 C7 1_555 1_555
H14 C7 1_555 1_555
H15 C7 1_555 1_555
H16 C8 1_555 1_555
H17 C8 1_555 1_555
H18 C8 1_555 1_555
H19 C9 1_555 1_555
H20 C9 1_555 1_555
H21 C11 1_555 1_555
H22 C12 1_555 1_555
H23 C13 1_555 1_555
H24 C14 1_555 1_555
C13 C14 1_555 1_555

#END
