
#######################################################################
#
#                 Cambridge Crystallographic Data Centre
#                                CCDC 
#
#######################################################################
#
# If this CIF has been generated from an entry in the Cambridge 
# Structural Database, then it will include bibliographic, chemical, 
# crystal, experimental, refinement or atomic coordinate data resulting 
# from the CCDC's data processing and validation procedures.
#
#######################################################################

data_MAZRUC
_chemical_name_common            'Difluto compound'
_chemical_formula_moiety         'C13 H17 F2 N1 O3'
_chemical_name_systematic        
't-Butyl (2-(2,6-difluorophenyl)-2-hydroxyethyl)carbamate'
_symmetry_cell_setting           orthorhombic
_symmetry_space_group_name_H-M   'P 21 21 21'
_symmetry_Int_Tables_number      19
_space_group_name_Hall           'P 2ac 2ab'
loop_
_symmetry_equiv_pos_site_id
_symmetry_equiv_pos_as_xyz
1 x,y,z
2 1/2-x,-y,1/2+z
3 -x,1/2+y,1/2-z
4 1/2+x,1/2-y,-z
_cell_length_a                   5.2939(4)
_cell_length_b                   12.8567(10)
_cell_length_c                   19.3345(18)
_cell_angle_alpha                90
_cell_angle_beta                 90
_cell_angle_gamma                90
_cell_volume                     1315.95
_cell_formula_units_Z            4
loop_
_atom_site_label
_atom_site_type_symbol
_atom_site_fract_x
_atom_site_fract_y
_atom_site_fract_z
O1 O 0.1471(3) 0.64942(11) 0.91664(8)
F1 F 0.3253(3) 0.92256(11) 0.75951(7)
F2 F 1.0558(3) 0.91592(11) 0.89544(7)
O2 O 0.8548(3) 0.74128(11) 0.81045(7)
H1 H 0.9379 0.7151 0.8417
N1 N 0.5743(4) 0.65823(13) 0.92415(10)
H2 H 0.7090 0.6228 0.9320
O3 O 0.3925(3) 0.50485(11) 0.92730(10)
C1 C 0.8872(4) 0.96848(16) 0.85603(11)
C2 C 0.3540(4) 0.60776(15) 0.92166(11)
C3 C 0.6490(4) 0.79739(14) 0.83909(11)
H3 H 0.4982 0.7774 0.8128
C4 C 0.5494(5) 1.07689(19) 0.77659(12)
H4 H 0.4323 1.1131 0.7500
C5 C 0.6839(4) 0.91362(14) 0.82898(10)
C6 C 0.5211(4) 0.97211(17) 0.78915(10)
C7 C 0.7556(5) 1.12620(17) 0.80446(14)
H5 H 0.7800 1.1967 0.7962
C8 C 0.9269(5) 1.07259(17) 0.84456(12)
H6 H 1.0663 1.1062 0.8634
C9 C 0.5984(4) 0.76965(14) 0.91430(11)
H7 H 0.7357 0.7955 0.9427
H8 H 0.4441 0.8035 0.9293
C10 C 0.1814(4) 0.43011(16) 0.92744(13)
C11 C 0.0212(5) 0.44635(19) 0.99120(12)
H9 H -0.0652 0.5118 0.9878
H10 H 0.1272 0.4464 1.0315
H11 H -0.1003 0.3912 0.9948
C12 C 0.0343(5) 0.4372(2) 0.86121(12)
H12 H -0.0538 0.5024 0.8596
H13 H -0.0854 0.3812 0.8591
H14 H 0.1479 0.4325 0.8226
C13 C 0.3182(6) 0.32682(18) 0.9315(2)
H15 H 0.4187 0.3174 0.8907
H16 H 0.1970 0.2715 0.9349
H17 H 0.4256 0.3261 0.9715
loop_
_geom_bond_atom_site_label_1
_geom_bond_atom_site_label_2
_geom_bond_site_symmetry_1
_geom_bond_site_symmetry_2
O1 C2 1_555 1_555
F1 C6 1_555 1_555
F2 C1 1_555 1_555
O2 H1 1_555 1_555
N1 H2 1_555 1_555
O3 C2 1_555 1_555
C1 C5 1_555 1_555
C2 N1 1_555 1_555
C3 O2 1_555 1_555
H3 C3 1_555 1_555
C4 H4 1_555 1_555
C5 C3 1_555 1_555
C6 C4 1_555 1_555
C7 C4 1_555 1_555
H5 C7 1_555 1_555
C8 C1 1_555 1_555
H6 C8 1_555 1_555
C9 N1 1_555 1_555
H7 C9 1_555 1_555
H8 C9 1_555 1_555
C10 O3 1_555 1_555
C11 C10 1_555 1_555
H9 C11 1_555 1_555
H10 C11 1_555 1_555
H11 C11 1_555 1_555
C12 C10 1_555 1_555
H12 C12 1_555 1_555
H13 C12 1_555 1_555
H14 C12 1_555 1_555
C13 C10 1_555 1_555
H15 C13 1_555 1_555
H16 C13 1_555 1_555
H17 C13 1_555 1_555
C3 C9 1_555 1_555
C5 C6 1_555 1_555
C7 C8 1_555 1_555

#END
