
#######################################################################
#
#                 Cambridge Crystallographic Data Centre
#                                CCDC 
#
#######################################################################
#
# If this CIF has been generated from an entry in the Cambridge 
# Structural Database, then it will include bibliographic, chemical, 
# crystal, experimental, refinement or atomic coordinate data resulting 
# from the CCDC's data processing and validation procedures.
#
#######################################################################

data_MAZTAI
_chemical_formula_moiety         'C48 H60 O8 S24 1+,I3 1-,C2 H4 Cl2'
_chemical_name_systematic        
'cis-5,8,22,25,32,35,42,45-Octaoxa-2,11,13,17,19,28,29,38,39,48,49,53-dodecathia-1(2,7,6,3),12(2,3,7,6),18(2,3,6,7)-tritetrathiafulvalenatetracyclo(16.10.10.10^1,12^.5^12,18^)tripentacontaphane tri-iodide 1,2-dichloroethane solvate'
_symmetry_cell_setting           triclinic
_symmetry_space_group_name_H-M   'P -1'
_symmetry_Int_Tables_number      2
_space_group_name_Hall           '-P 1'
loop_
_symmetry_equiv_pos_site_id
_symmetry_equiv_pos_as_xyz
1 x,y,z
2 -x,-y,-z
_cell_length_a                   17.3594(10)
_cell_length_b                   19.6212(10)
_cell_length_c                   12.5898(10)
_cell_angle_alpha                110.878(10)
_cell_angle_beta                 105.512(10)
_cell_angle_gamma                95.114(10)
_cell_volume                     3778.84
_exptl_crystal_colour            black
_exptl_crystal_description       plate
_cell_formula_units_Z            2
loop_
_atom_site_label
_atom_site_type_symbol
_atom_site_fract_x
_atom_site_fract_y
_atom_site_fract_z
S1 S 0.88871(11) 0.20387(10) -0.01127(16)
S2 S 0.81169(10) 0.23258(9) 0.18246(14)
S3 S 0.72922(11) 0.25010(12) 0.39413(16)
S4 S 0.65359(12) 0.25729(12) 0.58763(16)
S5 S 0.53230(12) 0.35758(13) 0.48076(17)
S6 S 0.62938(13) 0.34438(12) 0.31314(17)
S7 S 0.70064(12) 0.31792(10) 0.09487(15)
S8 S 0.74838(11) 0.29338(9) -0.12495(14)
S9 S 0.7831(2) 0.5104(2) 0.7498(4)
S11 S 0.85450(17) 0.51903(16) 0.5431(2)
S12 S 0.93009(15) 0.52626(12) 0.33530(18)
S13 S 1.0018(2) 0.5437(2) 0.1334(3)
S15 S 1.1231(2) 0.7001(2) 0.3391(3)
S17 S 1.05360(12) 0.65947(14) 0.51458(16)
S18 S 0.98084(11) 0.64985(10) 0.72284(16)
S19 S 0.93224(13) 0.64557(12) 0.9311(2)
S20 S 0.43108(10) 0.31906(9) -0.21841(14)
S21 S 0.57077(10) 0.43516(9) -0.01836(15)
S22 S 0.72165(12) 0.56980(11) 0.1880(2)
S23 S 0.8431(2) 0.7090(2) 0.3823(4)
S25 S 0.7836(2) 0.69974(17) 0.5590(3)
S27 S 0.65264(16) 0.56090(11) 0.37375(19)
S28 S 0.49892(12) 0.43547(10) 0.17030(15)
S29 S 0.34966(11) 0.32005(10) -0.00188(16)
O1 O 0.7138(4) 0.1044(4) -0.1395(6)
O3 O 0.5702(3) 0.1658(2) -0.2274(4)
O4 O 0.4483(3) 0.1930(3) 0.1647(4)
O5 O 0.5561(3) 0.1421(3) 0.3330(4)
O6 O 1.0743(6) 0.8803(6) 0.2789(9)
O8 O 0.9212(3) 0.8488(4) 0.3488(6)
O9 O 0.7692(6) 0.8394(7) 0.7734(7)
O11 O 0.8222(4) 0.8191(4) 1.0147(6)
C1 C 0.7347(4) 0.2813(4) 0.2005(6)
C2 C 0.7011(4) 0.2899(4) 0.2924(6)
C3 C 0.6581(4) 0.2806(4) 0.4664(5)
C4 C 0.6118(4) 0.3236(4) 0.4294(6)
C5 C 0.7638(4) 0.2808(4) 0.0103(5)
C6 C 0.8147(4) 0.2421(3) 0.0510(5)
C7 C 0.9685(4) 0.5921(4) 0.4852(6)
C8 C 1.0501(4) 0.6329(5) 0.3654(7)
C9 C 0.9956(5) 0.5707(5) 0.2833(5)
C10 C 0.9377(5) 0.5877(4) 0.5710(6)
C11 C 0.9134(4) 0.6079(4) 0.7746(6)
C12 C 0.8561(4) 0.5505(6) 0.6954(9)
C13 C 0.6440(5) 0.5253(4) 0.2201(7)
C14 C 0.5811(4) 0.4713(4) 0.1358(6)
C15 C 0.4776(4) 0.3726(3) -0.0632(5)
C16 C 0.4452(4) 0.3724(3) 0.0224(6)
C17 C 0.7328(6) 0.6352(4) 0.4201(6)
C18 C 0.7663(4) 0.6387(4) 0.3298(9)
C19 C 0.8030(8) 0.7842(7) 0.3528(14)
H1 H 0.7477 0.7606 0.2940
H2 H 0.7943 0.8153 0.4284
C21 C 0.8352(4) 0.8369(5) 0.3122(10)
H5 H 0.8132 0.8177 0.2236
H6 H 0.8181 0.8846 0.3458
C22 C 0.9607(5) 0.9104(5) 0.3364(11)
H7 H 0.9428 0.9542 0.3845
H8 H 0.9356 0.9027 0.2514
C23 C 1.0469(6) 0.9340(8) 0.3632(12)
H9 H 1.0582 0.9831 0.3587
H10 H 1.0763 0.9391 0.4455
C25 C 1.1187(9) 0.8326(8) 0.3240(13)
H13 H 1.1529 0.8618 0.4085
H14 H 1.1555 0.8144 0.2769
C27 C 1.0614(10) 0.7651(9) 0.317(2)
H17 H 1.0182 0.7422 0.2381
H18 H 1.0352 0.7811 0.3804
C29 C 0.8832(4) 0.5116(4) 0.0531(7)
H21 H 0.8521 0.5334 0.1078
H22 H 0.8653 0.5227 -0.0194
C30 C 0.8779(8) 0.4306(5) 0.0228(12)
H23 H 0.9307 0.4195 0.0126
H24 H 0.8746 0.4220 0.0945
C32 C 0.8179(7) 0.3781(6) -0.0734(10)
H27 H 0.8462 0.3659 -0.1345
H28 H 0.7806 0.4097 -0.0956
C34 C 0.8490(4) 0.1050(3) -0.0683(6)
H31 H 0.8936 0.0784 -0.0820
H32 H 0.8321 0.0940 -0.0060
C35 C 0.7794(4) 0.0749(5) -0.1801(8)
H33 H 0.7898 0.0928 -0.2402
H34 H 0.7672 0.0197 -0.2150
C36 C 0.6380(4) 0.0668(3) -0.2218(6)
H35 H 0.6262 0.0157 -0.2247
H36 H 0.6369 0.0630 -0.3027
C37 C 0.5761(5) 0.1079(4) -0.1854(8)
H37 H 0.5225 0.0733 -0.2186
H38 H 0.5912 0.1292 -0.0968
C38 C 0.5124(4) 0.2090(3) -0.1931(6)
H39 H 0.5304 0.2359 -0.1048
H40 H 0.4585 0.1760 -0.2187
C39 C 0.5058(4) 0.2628(3) -0.2511(6)
H41 H 0.4906 0.2352 -0.3391
H42 H 0.5599 0.2960 -0.2234
C40 C 0.3773(5) 0.2781(4) 0.1067(6)
H43 H 0.4071 0.3178 0.1868
H44 H 0.3270 0.2532 0.1115
C41 C 0.4292(4) 0.2229(4) 0.0749(6)
H45 H 0.3997 0.1824 -0.0045
H46 H 0.4801 0.2472 0.0705
C42 C 0.4919(4) 0.1338(4) 0.1361(7)
H47 H 0.5477 0.1542 0.1414
H48 H 0.4636 0.0972 0.0529
C43 C 0.4965(4) 0.0966(4) 0.2204(6)
H49 H 0.4426 0.0881 0.2313
H50 H 0.5114 0.0476 0.1874
C44 C 0.5595(5) 0.1177(4) 0.4285(6)
H51 H 0.5561 0.0632 0.3992
H52 H 0.5132 0.1294 0.4589
C45 C 0.6377(5) 0.1570(4) 0.5252(7)
H53 H 0.6828 0.1425 0.4934
H54 H 0.6411 0.1397 0.5908
C46 C 0.5886(4) 0.4260(3) 0.6297(6)
H55 H 0.5538 0.4230 0.6794
H56 H 0.6367 0.4057 0.6575
C47 C 0.6197(8) 0.5044(6) 0.6687(15)
H57 H 0.5973 0.5141 0.5955
H58 H 0.5888 0.5282 0.7226
C49 C 0.6956(6) 0.5499(6) 0.7222(12)
H61 H 0.6962 0.5871 0.8002
H62 H 0.7021 0.5775 0.6719
C51 C 0.8635(8) 0.7043(7) 0.9704(14)
H65 H 0.8304 0.7047 0.8934
H66 H 0.8261 0.6757 0.9939
C53 C 0.8772(12) 0.7757(8) 1.0508(16)
H69 H 0.9335 0.8006 1.0658
H70 H 0.8738 0.7749 1.1276
C55 C 0.8351(6) 0.8837(6) 0.9901(8)
H73 H 0.8874 0.8881 0.9730
H74 H 0.8390 0.9286 1.0616
C56 C 0.7684(6) 0.8802(5) 0.8874(6)
H75 H 0.7167 0.8600 0.8948
H76 H 0.7668 0.9319 0.8947
C57 C 0.6993(6) 0.8098(5) 0.6790(6)
H77 H 0.6914 0.8448 0.6385
H78 H 0.6532 0.8065 0.7105
C58 C 0.6942(7) 0.7345(7) 0.5866(13)
H79 H 0.6589 0.7325 0.5090
H80 H 0.6643 0.6978 0.6063
I1 I 0.31505(3) 0.01376(3) -0.27364(4)
I2 I 0.31473(3) -0.04257(3) -0.08974(5)
I3 I 0.32279(4) 0.06513(3) -0.46561(5)
C60 C 0.9885(6) -0.1532(6) -0.3577(8)
H83 H 0.9545 -0.1344 -0.4135
H84 H 0.9814 -0.2077 -0.4012
C61 C 0.9587(7) -0.1403(5) -0.2587(9)
H85 H 0.9822 -0.1711 -0.2160
H86 H 0.8988 -0.1592 -0.2915
Cl1 Cl 1.09175(15) -0.11167(15) -0.3203(3)
Cl2 Cl 0.9774(2) -0.0480(2) -0.1510(4)
S10? S 0.7844(2) 0.4841(2) 0.6982(4)
S14? S 0.9736(2) 0.5113(2) 0.1307(3)
S16? S 1.1249(2) 0.6572(2) 0.3234(4)
S24? S 0.85241(19) 0.70554(17) 0.3263(3)
S26? S 0.7495(3) 0.6937(2) 0.5843(3)
O2? O 0.7148(5) 0.1157(6) -0.1945(13)
O7? O 1.0671(7) 0.8409(7) 0.2787(10)
O10? O 0.7621(6) 0.8087(5) 0.7856(7)
C20? C 0.7900(8) 0.7664(7) 0.298(2)
H3? H 0.7516 0.7418 0.2151
H4? H 0.7573 0.7766 0.3534
C24? C 1.0456(9) 0.8971(10) 0.3703(14)
H11? H 1.0842 0.9447 0.3969
H12? H 1.0539 0.8831 0.4401
C26? C 1.0575(15) 0.7660(10) 0.275(3)
H15? H 1.0052 0.7538 0.2879
H16? H 1.0532 0.7312 0.1928
C28? C 1.1196(18) 0.7529(8) 0.357(3)
H19? H 1.1123 0.7744 0.4369
H20? H 1.1725 0.7798 0.3627
C31? C 0.8111(7) 0.4537(6) 0.0289(10)
H25? H 0.8240 0.4372 0.0962
H26? H 0.7650 0.4796 0.0349
C33? C 0.7819(9) 0.3903(5) -0.0750(10)
H29? H 0.8247 0.3927 -0.1129
H30? H 0.7352 0.4039 -0.1226
C48? C 0.6200(7) 0.4887(7) 0.6025(13)
H59? H 0.5957 0.4730 0.5146
H60? H 0.5949 0.5304 0.6399
C50? C 0.7019(6) 0.5200(8) 0.6305(14)
H63? H 0.7103 0.5730 0.6842
H64? H 0.7093 0.5194 0.5549
C52? C 0.8633(9) 0.7053(7) 0.9043(17)
H67? H 0.8476 0.6936 0.8171
H68? H 0.8134 0.6879 0.9191
C54? C 0.8809(8) 0.7840(6) 0.9622(13)
H71? H 0.8876 0.8045 0.9031
H72? H 0.9342 0.7993 1.0267
C59? C 0.7002(9) 0.7656(7) 0.5610(10)
H81? H 0.7316 0.7951 0.5312
H82? H 0.6441 0.7449 0.5036
Cl3? Cl 0.9322(8) -0.0466(7) -0.2433(12)
loop_
_geom_bond_atom_site_label_1
_geom_bond_atom_site_label_2
_geom_bond_site_symmetry_1
_geom_bond_site_symmetry_2
S1 C6 1_555 1_555
S2 C1 1_555 1_555
S3 C2 1_555 1_555
S4 C3 1_555 1_555
S5 C4 1_555 1_555
S6 C2 1_555 1_555
S7 C1 1_555 1_555
S8 C5 1_555 1_555
S9 C12 1_555 1_555
S11 C10 1_555 1_555
S12 C7 1_555 1_555
S13 C9 1_555 1_555
S15 C8 1_555 1_555
S17 C7 1_555 1_555
S18 C10 1_555 1_555
S19 C11 1_555 1_555
S20 C15 1_555 1_555
S21 C14 1_555 1_555
S22 C13 1_555 1_555
S23 C18 1_555 1_555
S25 C17 1_555 1_555
S27 C13 1_555 1_555
S28 C14 1_555 1_555
S29 C16 1_555 1_555
O1 C35 1_555 1_555
O3 C37 1_555 1_555
O4 C41 1_555 1_555
O5 C43 1_555 1_555
O6 C23 1_555 1_555
O8 C21 1_555 1_555
O9 C56 1_555 1_555
O11 C53 1_555 1_555
C1 C2 1_555 1_555
C3 S3 1_555 1_555
C4 S6 1_555 1_555
C5 S7 1_555 1_555
C6 S2 1_555 1_555
C7 C10 1_555 1_555
C8 S17 1_555 1_555
C9 S12 1_555 1_555
C11 S18 1_555 1_555
C12 S11 1_555 1_555
C13 C14 1_555 1_555
C15 S21 1_555 1_555
C16 S28 1_555 1_555
C17 S27 1_555 1_555
C18 S22 1_555 1_555
C19 S23 1_555 1_555
H1 C19 1_555 1_555
H2 C19 1_555 1_555
C21 C19 1_555 1_555
H5 C21 1_555 1_555
H6 C21 1_555 1_555
C22 O8 1_555 1_555
H7 C22 1_555 1_555
H8 C22 1_555 1_555
C23 C22 1_555 1_555
H9 C23 1_555 1_555
H10 C23 1_555 1_555
C25 O6 1_555 1_555
H13 C25 1_555 1_555
H14 C25 1_555 1_555
C27 S15 1_555 1_555
H17 C27 1_555 1_555
H18 C27 1_555 1_555
C29 S13 1_555 1_555
H21 C29 1_555 1_555
H22 C29 1_555 1_555
C30 C29 1_555 1_555
H23 C30 1_555 1_555
H24 C30 1_555 1_555
C32 S8 1_555 1_555
H27 C32 1_555 1_555
H28 C32 1_555 1_555
C34 S1 1_555 1_555
H31 C34 1_555 1_555
H32 C34 1_555 1_555
C35 C34 1_555 1_555
H33 C35 1_555 1_555
H34 C35 1_555 1_555
C36 O1 1_555 1_555
H35 C36 1_555 1_555
H36 C36 1_555 1_555
C37 C36 1_555 1_555
H37 C37 1_555 1_555
H38 C37 1_555 1_555
C38 O3 1_555 1_555
H39 C38 1_555 1_555
H40 C38 1_555 1_555
C39 S20 1_555 1_555
H41 C39 1_555 1_555
H42 C39 1_555 1_555
C40 S29 1_555 1_555
H43 C40 1_555 1_555
H44 C40 1_555 1_555
C41 C40 1_555 1_555
H45 C41 1_555 1_555
H46 C41 1_555 1_555
C42 O4 1_555 1_555
H47 C42 1_555 1_555
H48 C42 1_555 1_555
C43 C42 1_555 1_555
H49 C43 1_555 1_555
H50 C43 1_555 1_555
C44 O5 1_555 1_555
H51 C44 1_555 1_555
H52 C44 1_555 1_555
C45 S4 1_555 1_555
H53 C45 1_555 1_555
H54 C45 1_555 1_555
C46 S5 1_555 1_555
H55 C46 1_555 1_555
H56 C46 1_555 1_555
C47 C46 1_555 1_555
H57 C47 1_555 1_555
H58 C47 1_555 1_555
C49 S9 1_555 1_555
H61 C49 1_555 1_555
H62 C49 1_555 1_555
C51 S19 1_555 1_555
H65 C51 1_555 1_555
H66 C51 1_555 1_555
C53 C51 1_555 1_555
H69 C53 1_555 1_555
H70 C53 1_555 1_555
C55 O11 1_555 1_555
H73 C55 1_555 1_555
H74 C55 1_555 1_555
C56 C55 1_555 1_555
H75 C56 1_555 1_555
H76 C56 1_555 1_555
C57 O9 1_555 1_555
H77 C57 1_555 1_555
H78 C57 1_555 1_555
C58 S25 1_555 1_555
H79 C58 1_555 1_555
H80 C58 1_555 1_555
I1 I2 1_555 1_555
I3 I1 1_555 1_555
C60 H83 1_555 1_555
H84 C60 1_555 1_555
C61 C60 1_555 1_555
H85 C61 1_555 1_555
H86 C61 1_555 1_555
Cl1 C60 1_555 1_555
Cl2 C61 1_555 1_555
C3 C4 1_555 1_555
C5 C6 1_555 1_555
C8 C9 1_555 1_555
C11 C12 1_555 1_555
C15 C16 1_555 1_555
C17 C18 1_555 1_555
C25 C27 1_555 1_555
C30 C32 1_555 1_555
C38 C39 1_555 1_555
C44 C45 1_555 1_555
C47 C49 1_555 1_555
C57 C58 1_555 1_555

#END
