
#######################################################################
#
#                 Cambridge Crystallographic Data Centre
#                                CCDC 
#
#######################################################################
#
# If this CIF has been generated from an entry in the Cambridge 
# Structural Database, then it will include bibliographic, chemical, 
# crystal, experimental, refinement or atomic coordinate data resulting 
# from the CCDC's data processing and validation procedures.
#
#######################################################################

data_MBCTPT03
_chemical_formula_moiety         'C17 H12 S3'
_chemical_name_systematic        2,4-Diphenyl-6a-thiathiophthene
_symmetry_cell_setting           triclinic
_symmetry_space_group_name_H-M   'P -1'
_symmetry_Int_Tables_number      2
_space_group_name_Hall           '-P 1'
loop_
_symmetry_equiv_pos_site_id
_symmetry_equiv_pos_as_xyz
1 x,y,z
2 -x,-y,-z
_cell_length_a                   10.192(2)
_cell_length_b                   8.466(1)
_cell_length_c                   9.720(1)
_cell_angle_alpha                111.91(1)
_cell_angle_beta                 74.63(1)
_cell_angle_gamma                101.56(1)
_cell_volume                     745.443
_exptl_crystal_colour            deep-red
_cell_formula_units_Z            2
loop_
_atom_site_label
_atom_site_type_symbol
_atom_site_fract_x
_atom_site_fract_y
_atom_site_fract_z
S1 S 0.3246(1) 0.4066(1) 0.2440(1)
S2 S 0.1284(1) 0.3179(1) 0.4228(1)
S3 S -0.0453 0.2428(1) 0.5870(1)
C1 C 0.3772(2) 0.5761(3) 0.3859(2)
C2 C 0.3025(2) 0.5978(3) 0.5303(2)
C3 C 0.1874(2) 0.4898(3) 0.5670(3)
C4 C 0.1129(2) 0.5145(3) 0.7178(3)
C5 C -0.0007(3) 0.4035(3) 0.7370(3)
C6 C 0.4981(2) 0.6969(3) 0.3563(3)
C7 C 0.5713(2) 0.7921(3) 0.4673(3)
C8 C 0.6824(3) 0.9078(4) 0.4400(3)
C9 C 0.7227(3) 0.9281(4) 0.3012(3)
C10 C 0.6527(3) 0.8335(4) 0.1900(3)
C11 C 0.5419(3) 0.7166(4) 0.2164(3)
C12 C 0.1565(2) 0.6544(3) 0.8491(2)
C13 C 0.0679(2) 0.7696(4) 0.9508(3)
C14 C 0.1078(3) 0.8990(4) 1.0740(3)
C15 C 0.2366(3) 0.9168(4) 1.0979(3)
C16 C 0.3263(3) 0.8041(4) 0.9992(3)
C17 C 0.2859(3) 0.6731(3) 0.8762(3)
H1 H 0.325(2) 0.693(2) 0.605(2)
H2 H -0.057(2) 0.412(3) 0.834(2)
H3 H 0.548(2) 0.782(3) 0.568(2)
H4 H 0.732(2) 0.971(3) 0.518(2)
H5 H 0.799(2) 1.008(3) 0.285(2)
H6 H 0.680(2) 0.843(3) 0.094(2)
H7 H 0.489(2) 0.655(3) 0.141(2)
H8 H -0.018(2) 0.755(3) 0.932(2)
H9 H 0.047(2) 0.969(3) 1.141(2)
H10 H 0.263(2) 1.005(3) 1.186(2)
H11 H 0.415(2) 0.815(3) 1.015(2)
H12 H 0.348(2) 0.600(3) 0.811(2)
loop_
_geom_bond_atom_site_label_1
_geom_bond_atom_site_label_2
_geom_bond_site_symmetry_1
_geom_bond_site_symmetry_2
S1 S2 1_555 1_555
S2 S3 1_555 1_555
S3 C5 1_555 1_555
C1 S1 1_555 1_555
C2 C1 1_555 1_555
C3 S2 1_555 1_555
C4 C3 1_555 1_555
C5 C4 1_555 1_555
C6 C1 1_555 1_555
C7 C6 1_555 1_555
C8 C7 1_555 1_555
C9 C8 1_555 1_555
C10 C9 1_555 1_555
C11 C6 1_555 1_555
C12 C4 1_555 1_555
C13 C12 1_555 1_555
C14 C13 1_555 1_555
C15 C14 1_555 1_555
C16 C15 1_555 1_555
C17 C12 1_555 1_555
H1 C2 1_555 1_555
H2 C5 1_555 1_555
H3 C7 1_555 1_555
H4 C8 1_555 1_555
H5 C9 1_555 1_555
H6 C10 1_555 1_555
H7 C11 1_555 1_555
H8 C13 1_555 1_555
H9 C14 1_555 1_555
H10 C15 1_555 1_555
H11 C16 1_555 1_555
H12 C17 1_555 1_555
C2 C3 1_555 1_555
C10 C11 1_555 1_555
C16 C17 1_555 1_555

#END
