
#######################################################################
#
#                 Cambridge Crystallographic Data Centre
#                                CCDC 
#
#######################################################################
#
# If this CIF has been generated from an entry in the Cambridge 
# Structural Database, then it will include bibliographic, chemical, 
# crystal, experimental, refinement or atomic coordinate data resulting 
# from the CCDC's data processing and validation procedures.
#
#######################################################################

data_MBDGPH11
_chemical_formula_moiety         'C7 H14 O6,0.5(H2 O1)'
_chemical_name_systematic        'methyl \b-D-glucopyranoside hemihydrate'
_symmetry_cell_setting           tetragonal
_symmetry_space_group_name_H-M   'P 41 21 2'
_symmetry_Int_Tables_number      92
_space_group_name_Hall           'P 4abw 2nw'
loop_
_symmetry_equiv_pos_site_id
_symmetry_equiv_pos_as_xyz
1 x,y,z
2 -x,-y,1/2+z
3 1/2-y,1/2+x,1/4+z
4 1/2+y,1/2-x,3/4+z
5 1/2-x,1/2+y,1/4-z
6 1/2+x,1/2-y,3/4-z
7 y,x,-z
8 -y,-x,1/2-z
_cell_length_a                   7.3482(3)
_cell_length_b                   7.3482(3)
_cell_length_c                   34.1260(17)
_cell_angle_alpha                90
_cell_angle_beta                 90
_cell_angle_gamma                90
_cell_volume                     1842.67
_exptl_crystal_colour            colorless
_exptl_crystal_description       block
_cell_formula_units_Z            8
loop_
_atom_site_label
_atom_site_type_symbol
_atom_site_fract_x
_atom_site_fract_y
_atom_site_fract_z
O1 O 0.71499(14) 0.64312(13) 0.41589(3)
O2 O 0.79300(14) 0.97599(14) 0.37803(3)
H1 H 0.830(3) 0.903(3) 0.3610(6)
O3 O 0.49078(14) 1.20829(14) 0.36875(3)
H2 H 0.426(3) 1.301(3) 0.3727(6)
O4 O 0.24036(13) 1.20553(14) 0.43537(3)
H3 H 0.161(3) 1.242(3) 0.4196(5)
O5 O 0.43923(13) 0.75034(12) 0.43612(3)
O6 O 0.16468(14) 0.71645(16) 0.49750(3)
H4 H 0.234(3) 0.625(4) 0.4923(6)
C1 C 0.62279(18) 0.79966(18) 0.42600(4)
H5 H 0.6839 0.8614 0.4486
C2 C 0.61456(19) 0.92624(19) 0.39063(4)
H6 H 0.5490 0.8643 0.3687
C3 C 0.51080(19) 1.09652(18) 0.40257(4)
H7 H 0.5821 1.1639 0.4229
C4 C 0.32364(18) 1.04683(18) 0.41924(4)
H8 H 0.2453 0.9983 0.3977
C5 C 0.33969(19) 0.90353(18) 0.45146(4)
H9 H 0.4057 0.9557 0.4745
C6 C 0.15507(19) 0.8322(2) 0.46429(4)
H10 H 0.0749 0.9366 0.4704
H11 H 0.0993 0.7644 0.4423
C7 C 0.7541(2) 0.52994(19) 0.44928(4)
H12 H 0.8212 0.4217 0.4407
H13 H 0.6398 0.4927 0.4617
H14 H 0.8279 0.5984 0.4681
O7 O 0.37693(15) 1.37693(15) 0.5000
H15 H 0.322(3) 1.327(3) 0.5188(5)
H15F H 0.327(3) 1.322(3) 0.4812(5)
loop_
_geom_bond_atom_site_label_1
_geom_bond_atom_site_label_2
_geom_bond_site_symmetry_1
_geom_bond_site_symmetry_2
O1 C1 1_555 1_555
O2 H1 1_555 1_555
O3 H2 1_555 1_555
O4 H3 1_555 1_555
O5 C1 1_555 1_555
O6 H4 1_555 1_555
C1 H5 1_555 1_555
C2 O2 1_555 1_555
H6 C2 1_555 1_555
C3 O3 1_555 1_555
H7 C3 1_555 1_555
C4 O4 1_555 1_555
H8 C4 1_555 1_555
C5 O5 1_555 1_555
H9 C5 1_555 1_555
C6 O6 1_555 1_555
H10 C6 1_555 1_555
H11 C6 1_555 1_555
C7 O1 1_555 1_555
H12 C7 1_555 1_555
H13 C7 1_555 1_555
H14 C7 1_555 1_555
O7 H15 1_555 1_555
H15F O7 1_555 1_555
C1 C2 1_555 1_555
C2 C3 1_555 1_555
C3 C4 1_555 1_555
C4 C5 1_555 1_555
C5 C6 1_555 1_555

#END
