
#######################################################################
#
#                 Cambridge Crystallographic Data Centre
#                                CCDC 
#
#######################################################################
#
# If this CIF has been generated from an entry in the Cambridge 
# Structural Database, then it will include bibliographic, chemical, 
# crystal, experimental, refinement or atomic coordinate data resulting 
# from the CCDC's data processing and validation procedures.
#
#######################################################################

data_MBNERG10
_chemical_name_common            Desmethoxy-nicergoline
_chemical_formula_moiety         'C23 H24 Br1 N3 O2'
_chemical_name_systematic        
8\b-(5-Bromo-nicotinoyloxymethyl)-1,6-dimethyl-10\a-ergoline
_symmetry_cell_setting           orthorhombic
_symmetry_space_group_name_H-M   'P 21 21 21'
_symmetry_Int_Tables_number      19
_space_group_name_Hall           'P 2ac 2ab'
loop_
_symmetry_equiv_pos_site_id
_symmetry_equiv_pos_as_xyz
1 x,y,z
2 1/2+x,1/2-y,-z
3 -x,1/2+y,1/2-z
4 1/2-x,-y,1/2+z
_cell_length_a                   39.215(10)
_cell_length_b                   8.590(2)
_cell_length_c                   6.262(1)
_cell_angle_alpha                90
_cell_angle_beta                 90
_cell_angle_gamma                90
_cell_volume                     2109.4
_cell_formula_units_Z            4
loop_
_atom_site_label
_atom_site_type_symbol
_atom_site_fract_x
_atom_site_fract_y
_atom_site_fract_z
N1 N -0.20620 0.99610 0.06150
C1 C -0.18090 1.05590 0.19850
C2 C -0.16670 0.94120 0.31470
C3 C -0.13830 0.92990 0.47260
C4 C -0.14300 0.78590 0.61570
N2 N -0.11080 0.76380 0.73860
C5 C -0.11410 0.63250 0.88690
C6 C -0.11950 0.47950 0.76550
C7 C -0.15260 0.49550 0.63260
C8 C -0.14940 0.63550 0.48680
C9 C -0.17920 0.65280 0.33330
C10 C -0.20070 0.53700 0.25360
C11 C -0.22510 0.57210 0.09770
C12 C -0.22980 0.72240 0.01390
C13 C -0.20900 0.83770 0.09900
C14 C -0.18500 0.80250 0.25550
C15 C -0.22400 1.08260 -0.09840
C16 C -0.10140 0.90470 0.86520
C17 C -0.12170 0.34490 0.91190
O1 O -0.08880 0.31430 1.00080
C18 C -0.08630 0.27330 1.20650
O2 O -0.11130 0.26260 1.31710
C19 C -0.05140 0.24050 1.27710
C20 C -0.04590 0.21600 1.49670
N3 N -0.01680 0.18370 1.58230
C21 C 0.01040 0.17800 1.45310
C22 C 0.00770 0.21140 1.23130
C23 C -0.02320 0.24120 1.14450
Br1 Br 0.04790 0.21350 1.06680
loop_
_geom_bond_atom_site_label_1
_geom_bond_atom_site_label_2
_geom_bond_site_symmetry_1
_geom_bond_site_symmetry_2
N1 C1 1_555 1_555
C1 C2 1_555 1_555
C2 C3 1_555 1_555
C3 C4 1_555 1_555
C4 N2 1_555 1_555
N2 C5 1_555 1_555
C5 C6 1_555 1_555
C6 C7 1_555 1_555
C7 C8 1_555 1_555
C8 C4 1_555 1_555
C9 C8 1_555 1_555
C10 C9 1_555 1_555
C11 C10 1_555 1_555
C12 C11 1_555 1_555
C13 N1 1_555 1_555
C14 C2 1_555 1_555
C15 N1 1_555 1_555
C16 N2 1_555 1_555
C17 C6 1_555 1_555
O1 C17 1_555 1_555
C18 O1 1_555 1_555
O2 C18 1_555 1_555
C19 C18 1_555 1_555
C20 C19 1_555 1_555
N3 C20 1_555 1_555
C21 N3 1_555 1_555
C22 C21 1_555 1_555
C23 C19 1_555 1_555
Br1 C22 1_555 1_555
C9 C14 1_555 1_555
C12 C13 1_555 1_555
C13 C14 1_555 1_555
C22 C23 1_555 1_555

#END
