
#######################################################################
#
#                 Cambridge Crystallographic Data Centre
#                                CCDC 
#
#######################################################################
#
# If this CIF has been generated from an entry in the Cambridge 
# Structural Database, then it will include bibliographic, chemical, 
# crystal, experimental, refinement or atomic coordinate data resulting 
# from the CCDC's data processing and validation procedures.
#
#######################################################################

data_MBNZAM11
_chemical_formula_moiety         'C8 H9 N1 O1'
_chemical_name_systematic        N-Methylbenzamide
_symmetry_cell_setting           orthorhombic
_symmetry_space_group_name_H-M   'P b c a'
_symmetry_Int_Tables_number      61
_space_group_name_Hall           '-P 2ac 2ab'
loop_
_symmetry_equiv_pos_site_id
_symmetry_equiv_pos_as_xyz
1 x,y,z
2 1/2+x,1/2-y,-z
3 -x,1/2+y,1/2-z
4 1/2-x,-y,1/2+z
5 -x,-y,-z
6 1/2-x,1/2+y,z
7 x,1/2-y,1/2+z
8 1/2+x,y,1/2-z
_cell_length_a                   9.509(5)
_cell_length_b                   9.299(5)
_cell_length_c                   16.435(9)
_cell_angle_alpha                90
_cell_angle_beta                 90
_cell_angle_gamma                90
_cell_volume                     1453.25
_exptl_crystal_colour            colorless
_exptl_crystal_description       plate
_cell_formula_units_Z            8
loop_
_atom_site_label
_atom_site_type_symbol
_atom_site_fract_x
_atom_site_fract_y
_atom_site_fract_z
O1 O 0.21162(13) 0.16610(17) 0.52314(8)
N1 N 0.42983(17) 0.2555(2) 0.53098(9)
H1 H 0.5153 0.2575 0.5104
C1 C 0.37389(18) 0.0896(2) 0.42147(11)
C2 C 0.2825(2) -0.0179(2) 0.39441(12)
H2 H 0.1988 -0.0371 0.4240
C3 C 0.3120(2) -0.0967(3) 0.32533(13)
H3 H 0.2493 -0.1700 0.3079
C4 C 0.4331(2) -0.0686(3) 0.28165(13)
H4 H 0.4533 -0.1214 0.2336
C5 C 0.5248(2) 0.0369(3) 0.30836(12)
H5 H 0.6084 0.0556 0.2785
C6 C 0.4965(2) 0.1152(2) 0.37774(12)
H6 H 0.5608 0.1867 0.3956
C7 C 0.3331(2) 0.1736(2) 0.49569(13)
C8 C 0.3989(2) 0.3423(3) 0.60274(12)
H7 H 0.3393 0.4238 0.5872
H8 H 0.4870 0.3782 0.6261
H9 H 0.3497 0.2833 0.6431
loop_
_geom_bond_atom_site_label_1
_geom_bond_atom_site_label_2
_geom_bond_site_symmetry_1
_geom_bond_site_symmetry_2
O1 C7 1_555 1_555
N1 H1 1_555 1_555
C1 C2 1_555 1_555
C2 H2 1_555 1_555
C3 C2 1_555 1_555
H3 C3 1_555 1_555
C4 C3 1_555 1_555
H4 C4 1_555 1_555
C5 C4 1_555 1_555
H5 C5 1_555 1_555
C6 C1 1_555 1_555
H6 C6 1_555 1_555
C7 N1 1_555 1_555
C8 N1 1_555 1_555
H7 C8 1_555 1_555
H8 C8 1_555 1_555
H9 C8 1_555 1_555
C1 C7 1_555 1_555
C5 C6 1_555 1_555

#END
