
#######################################################################
#
#                 Cambridge Crystallographic Data Centre
#                                CCDC 
#
#######################################################################
#
# If this CIF has been generated from an entry in the Cambridge 
# Structural Database, then it will include bibliographic, chemical, 
# crystal, experimental, refinement or atomic coordinate data resulting 
# from the CCDC's data processing and validation procedures.
#
#######################################################################

data_MCBZIM03
_chemical_name_common            1,3-Dihydro-2H-benzimidazole-2-thione
_chemical_formula_moiety         'C7 H6 N2 S1'
_chemical_name_systematic        1H-Benzimidazole-2(3H)-thione
_chemical_properties_biological  'antileprosy drug'
_symmetry_cell_setting           monoclinic
_symmetry_space_group_name_H-M   'P 21/m'
_symmetry_Int_Tables_number      11
_space_group_name_Hall           '-P 2yb'
loop_
_symmetry_equiv_pos_site_id
_symmetry_equiv_pos_as_xyz
1 x,y,z
2 -x,1/2+y,-z
3 -x,-y,-z
4 x,1/2-y,z
_cell_length_a                   4.9150(10)
_cell_length_b                   8.5590(17)
_cell_length_c                   8.2920(17)
_cell_angle_alpha                90
_cell_angle_beta                 91.76(3)
_cell_angle_gamma                90
_cell_volume                     348.659
_exptl_crystal_colour            colorless
_exptl_crystal_description       block
_cell_formula_units_Z            2
_exptl_crystal_recrystallization_method ethanol
loop_
_atom_site_label
_atom_site_type_symbol
_atom_site_fract_x
_atom_site_fract_y
_atom_site_fract_z
S1 S 0.06322(19) 0.2500 0.88609(10)
N1 N -0.2841(4) 0.1239(2) 1.1022(2)
H1 H -0.2505 0.0281 1.0783
C1 C -0.7826(5) 0.1687(4) 1.4250(3)
H2 H -0.8914 0.1154 1.4964
C2 C -0.6229(5) 0.0844(3) 1.3201(3)
H3 H -0.6243 -0.0242 1.3195
C3 C -0.4611(4) 0.1684(3) 1.2162(3)
C4 C -0.1646(7) 0.2500 1.0292(4)
N1C N -0.2841(4) 0.3761(2) 1.1022(2)
H1C H -0.2505 0.4719 1.0783
C1C C -0.7826(5) 0.3313(4) 1.4250(3)
H2C H -0.8914 0.3846 1.4964
C2C C -0.6229(5) 0.4156(3) 1.3201(3)
H3C H -0.6243 0.5242 1.3195
C3C C -0.4611(4) 0.3316(3) 1.2162(3)
loop_
_geom_bond_atom_site_label_1
_geom_bond_atom_site_label_2
_geom_bond_site_symmetry_1
_geom_bond_site_symmetry_2
S1 C4 1_555 1_555
N1 H1 1_555 1_555
C1 H2 1_555 1_555
C2 C1 1_555 1_555
H3 C2 1_555 1_555
C3 N1 1_555 1_555
C4 N1 1_555 1_555
N1C C4 1_555 1_555
H1C N1C 1_555 1_555
C1C C1 1_555 1_555
H2C C1C 1_555 1_555
C2C C1C 1_555 1_555
H3C C2C 1_555 1_555
C3C C3 1_555 1_555
C2 C3 1_555 1_555
N1C C3C 1_555 1_555
C2C C3C 1_555 1_555

#END
