
#######################################################################
#
#                 Cambridge Crystallographic Data Centre
#                                CCDC 
#
#######################################################################
#
# If this CIF has been generated from an entry in the Cambridge 
# Structural Database, then it will include bibliographic, chemical, 
# crystal, experimental, refinement or atomic coordinate data resulting 
# from the CCDC's data processing and validation procedures.
#
#######################################################################

data_MEACAN10
_chemical_formula_moiety         'C9 H11 N1 O1'
_chemical_name_systematic        N-Methylacetanilide
_symmetry_cell_setting           orthorhombic
_symmetry_space_group_name_H-M   'P n m a'
_symmetry_Int_Tables_number      62
_space_group_name_Hall           '-P 2ac 2n'
loop_
_symmetry_equiv_pos_site_id
_symmetry_equiv_pos_as_xyz
1 x,y,z
2 1/2-x,-y,1/2+z
3 1/2+x,1/2-y,1/2-z
4 -x,1/2+y,-z
5 -x,-y,-z
6 1/2+x,y,1/2-z
7 1/2-x,1/2+y,1/2+z
8 x,1/2-y,z
_cell_length_a                   17.151
_cell_length_b                   7.328
_cell_length_c                   6.779
_cell_angle_alpha                90
_cell_angle_beta                 90
_cell_angle_gamma                90
_cell_volume                     852.002
_cell_formula_units_Z            4
loop_
_atom_site_label
_atom_site_type_symbol
_atom_site_fract_x
_atom_site_fract_y
_atom_site_fract_z
C1 C 0.01910 0.25000 -0.00870
C2 C -0.03790 0.25000 0.31430
C3 C 0.08980 0.25000 -0.13060
C4 C 0.21070 0.08300 0.42090
C5 C 0.14060 0.08300 0.32020
C6 C 0.24400 0.25000 0.46800
C7 C 0.10700 0.25000 0.27270
H1 H 0.29220 0.25000 0.52250
H2 H 0.08180 0.25000 -0.25450
H3 H -0.03080 0.25000 0.45230
H4 H 0.23210 -0.05690 0.45640
H5 H 0.11020 -0.05690 0.28420
H6 H -0.08100 0.17290 0.30290
H7 H 0.13800 0.17290 -0.11320
N1 N 0.02830 0.25000 0.18540
O1 O -0.04910 0.25000 -0.07590
H7G H 0.13800 0.32710 -0.11320
H6G H -0.08100 0.32710 0.30290
C5G C 0.14060 0.41700 0.32020
C4G C 0.21070 0.41700 0.42090
H5G H 0.11020 0.55690 0.28420
H4G H 0.23210 0.55690 0.45640
loop_
_geom_bond_atom_site_label_1
_geom_bond_atom_site_label_2
_geom_bond_site_symmetry_1
_geom_bond_site_symmetry_2
C1 C3 1_555 1_555
C2 H3 1_555 1_555
C3 H2 1_555 1_555
C4 C5 1_555 1_555
C5 C7 1_555 1_555
C6 C4 1_555 1_555
C7 N1 1_555 1_555
H1 C6 1_555 1_555
H4 C4 1_555 1_555
H5 C5 1_555 1_555
H6 C2 1_555 1_555
H7 C3 1_555 1_555
N1 C1 1_555 1_555
O1 C1 1_555 1_555
H7G C3 1_555 1_555
H6G C2 1_555 1_555
C5G C7 1_555 1_555
C4G C6 1_555 1_555
H5G C5G 1_555 1_555
H4G C4G 1_555 1_555
C2 N1 1_555 1_555
C5G C4G 1_555 1_555

#END
