
#######################################################################
#
#                 Cambridge Crystallographic Data Centre
#                                CCDC 
#
#######################################################################
#
# If this CIF has been generated from an entry in the Cambridge 
# Structural Database, then it will include bibliographic, chemical, 
# crystal, experimental, refinement or atomic coordinate data resulting 
# from the CCDC's data processing and validation procedures.
#
#######################################################################

data_MEBCIG
_chemical_formula_moiety         'C18 H12 Br2 N2'
_chemical_name_systematic        3,6-dibromo-9-(3-pyridylmethyl)-9H-carbazole
_symmetry_cell_setting           monoclinic
_symmetry_space_group_name_H-M   'P 21/c'
_symmetry_Int_Tables_number      14
_space_group_name_Hall           '-P 2ybc'
loop_
_symmetry_equiv_pos_site_id
_symmetry_equiv_pos_as_xyz
1 x,y,z
2 -x,1/2+y,1/2-z
3 -x,-y,-z
4 x,1/2-y,1/2+z
_cell_length_a                   10.469(3)
_cell_length_b                   16.405(5)
_cell_length_c                   9.866(3)
_cell_angle_alpha                90
_cell_angle_beta                 112.761(4)
_cell_angle_gamma                90
_cell_volume                     1562.48
_exptl_crystal_colour            colorless
_exptl_crystal_description       block
_chemical_melting_point          '488 K'
_cell_formula_units_Z            4
_exptl_crystal_recrystallization_method chloroform/ethanol
loop_
_atom_site_label
_atom_site_type_symbol
_atom_site_fract_x
_atom_site_fract_y
_atom_site_fract_z
Br1 Br -0.00354(4) 0.11991(3) 0.40210(4)
Br2 Br 0.80862(4) -0.09086(2) 0.85957(5)
N1 N 0.4620(2) 0.16487(15) 0.9894(3)
N2 N 0.6579(3) 0.39737(19) 1.0202(4)
C1 C 0.3459(3) 0.16398(18) 0.8594(3)
C2 C 0.2245(3) 0.20913(19) 0.8188(4)
H1 H 0.2124 0.2477 0.8819
C3 C 0.1226(3) 0.1950(2) 0.6824(4)
H2 H 0.0401 0.2241 0.6525
C4 C 0.1423(3) 0.1373(2) 0.5888(3)
C5 C 0.2617(3) 0.09198(19) 0.6256(3)
H3 H 0.2729 0.0539 0.5613
C6 C 0.3652(3) 0.10598(17) 0.7640(3)
C7 C 0.5001(3) 0.07045(17) 0.8407(3)
C8 C 0.5739(3) 0.01016(18) 0.8028(3)
H4 H 0.5382 -0.0156 0.7117
C9 C 0.7025(3) -0.00941(19) 0.9068(4)
C10 C 0.7577(3) 0.0265(2) 1.0449(4)
H5 H 0.8439 0.0101 1.1123
C11 C 0.6855(3) 0.0861(2) 1.0820(4)
H6 H 0.7221 0.1112 1.1736
C12 C 0.5557(3) 0.10815(18) 0.9788(3)
C13 C 0.4866(3) 0.2169(2) 1.1169(3)
H7 H 0.5190 0.1837 1.2051
H8 H 0.4001 0.2422 1.1085
C14 C 0.5693(4) 0.3393(2) 1.0215(4)
H9 H 0.4848 0.3370 0.9416
C15 C 0.5922(3) 0.28248(19) 1.1308(3)
C16 C 0.7160(3) 0.2878(2) 1.2504(4)
H10 H 0.7358 0.2516 1.3284
C17 C 0.8103(4) 0.3470(2) 1.2535(4)
H11 H 0.8943 0.3516 1.3335
C18 C 0.7776(4) 0.3992(2) 1.1358(5)
H12 H 0.8429 0.4379 1.1371
loop_
_geom_bond_atom_site_label_1
_geom_bond_atom_site_label_2
_geom_bond_site_symmetry_1
_geom_bond_site_symmetry_2
Br1 C4 1_555 1_555
Br2 C9 1_555 1_555
N1 C1 1_555 1_555
N2 C14 1_555 1_555
C1 C2 1_555 1_555
C2 H1 1_555 1_555
C3 C2 1_555 1_555
H2 C3 1_555 1_555
C4 C3 1_555 1_555
C5 C4 1_555 1_555
H3 C5 1_555 1_555
C6 C1 1_555 1_555
C7 C6 1_555 1_555
C8 C7 1_555 1_555
H4 C8 1_555 1_555
C9 C8 1_555 1_555
C10 C9 1_555 1_555
H5 C10 1_555 1_555
C11 C10 1_555 1_555
H6 C11 1_555 1_555
C12 N1 1_555 1_555
C13 N1 1_555 1_555
H7 C13 1_555 1_555
H8 C13 1_555 1_555
C14 H9 1_555 1_555
C15 C13 1_555 1_555
C16 C15 1_555 1_555
H10 C16 1_555 1_555
C17 C16 1_555 1_555
H11 C17 1_555 1_555
C18 N2 1_555 1_555
H12 C18 1_555 1_555
C5 C6 1_555 1_555
C7 C12 1_555 1_555
C11 C12 1_555 1_555
C14 C15 1_555 1_555
C17 C18 1_555 1_555

#END
