
#######################################################################
#
#                 Cambridge Crystallographic Data Centre
#                                CCDC 
#
#######################################################################
#
# If this CIF has been generated from an entry in the Cambridge 
# Structural Database, then it will include bibliographic, chemical, 
# crystal, experimental, refinement or atomic coordinate data resulting 
# from the CCDC's data processing and validation procedures.
#
#######################################################################

data_MEBGEG
_chemical_compound_source        'Roots of Sinomenium acutum'
_chemical_name_common            Cheilanthifoline
_chemical_formula_moiety         'C19 H19 N1 O4'
_chemical_name_systematic        
6,6a,11,14-tetrahydro-8-hydroxy-9-methoxy-12H-benzo(a)-1,3-benzodioxolo(4,5-g)quinolizine
_symmetry_cell_setting           monoclinic
_symmetry_space_group_name_H-M   'C 2'
_symmetry_Int_Tables_number      5
_space_group_name_Hall           'C 2y'
loop_
_symmetry_equiv_pos_site_id
_symmetry_equiv_pos_as_xyz
1 x,y,z
2 -x,y,-z
3 1/2+x,1/2+y,z
4 1/2-x,1/2+y,-z
_cell_length_a                   13.314(2)
_cell_length_b                   5.1510(10)
_cell_length_c                   23.585(3)
_cell_angle_alpha                90
_cell_angle_beta                 100.390(10)
_cell_angle_gamma                90
_cell_volume                     1590.95
_exptl_crystal_colour            yellow
_exptl_crystal_description       Rhombohedron
_cell_formula_units_Z            4
_exptl_crystal_recrystallization_method acetone
loop_
_atom_site_label
_atom_site_type_symbol
_atom_site_fract_x
_atom_site_fract_y
_atom_site_fract_z
O1 O 0.82863(15) 1.3199(5) 0.40355(8)
O2 O 0.70057(17) 1.4199(5) 0.45455(8)
O3 O 0.45140(13) 0.3567(5) 0.07211(8)
O4 O 0.60253(14) 0.0927(4) 0.03625(7)
N1 N 0.79074(14) 0.7517(5) 0.26188(8)
C1 C 0.56992(19) 0.5446(6) 0.14804(10)
H1 H 0.5160 0.6316 0.1598
C2 C 0.54997(18) 0.3825(6) 0.10126(10)
C3 C 0.63021(19) 0.2486(6) 0.08397(9)
C4 C 0.72871(18) 0.2873(6) 0.11289(10)
H2 H 0.7823 0.1991 0.1011
C5 C 0.85767(18) 0.5095(6) 0.18788(11)
H3 H 0.8997 0.5252 0.1585
H4 H 0.8831 0.3646 0.2126
C6 C 0.86563(18) 0.7558(6) 0.22322(11)
H5 H 0.9339 0.7713 0.2457
H6 H 0.8532 0.9049 0.1978
C7 C 0.8125(2) 0.9656(7) 0.30289(11)
H7 H 0.8225 1.1232 0.2821
H8 H 0.8755 0.9292 0.3294
C8 C 0.7416(2) 1.1829(7) 0.38215(10)
C9 C 0.6660(2) 1.2426(7) 0.41200(10)
C10 C 0.5717(2) 1.1338(8) 0.39869(11)
H9 H 0.5200 1.1757 0.4188
C11 C 0.5563(2) 0.9556(8) 0.35317(11)
H10 H 0.4928 0.8765 0.3431
C12 C 0.61563(17) 0.7075(6) 0.27260(10)
H11 H 0.5451 0.7188 0.2532
H12 H 0.6279 0.5315 0.2868
C13 C 0.74894(17) 0.4575(5) 0.15967(9)
C14 C 0.66902(18) 0.5829(6) 0.17850(9)
C15 C 0.68580(16) 0.7671(6) 0.22975(9)
H13 H 0.6727 0.9449 0.2156
C16 C 0.72891(19) 1.0100(6) 0.33682(10)
C17 C 0.63294(18) 0.8930(6) 0.32253(9)
C18 C 0.8035(3) 1.4720(9) 0.44975(13)
H14 H 0.8486 1.4280 0.4855
H15 H 0.8118 1.6551 0.4421
C19 C 0.6676(2) -0.1137(6) 0.02803(11)
H16 H 0.7265 -0.0468 0.0147
H17 H 0.6319 -0.2319 0.0000
H18 H 0.6889 -0.2034 0.0639
H19 H 0.443(2) 0.248(8) 0.0411(14)
loop_
_geom_bond_atom_site_label_1
_geom_bond_atom_site_label_2
_geom_bond_site_symmetry_1
_geom_bond_site_symmetry_2
O1 C8 1_555 1_555
O2 C9 1_555 1_555
O3 C2 1_555 1_555
O4 C3 1_555 1_555
N1 C6 1_555 1_555
C1 H1 1_555 1_555
C2 C1 1_555 1_555
C3 C2 1_555 1_555
C4 C3 1_555 1_555
H2 C4 1_555 1_555
C5 H3 1_555 1_555
H4 C5 1_555 1_555
C6 C5 1_555 1_555
H5 C6 1_555 1_555
H6 C6 1_555 1_555
C7 N1 1_555 1_555
H7 C7 1_555 1_555
H8 C7 1_555 1_555
C8 C9 1_555 1_555
C9 C10 1_555 1_555
C10 H9 1_555 1_555
C11 C10 1_555 1_555
H10 C11 1_555 1_555
C12 H11 1_555 1_555
H12 C12 1_555 1_555
C13 C4 1_555 1_555
C14 C1 1_555 1_555
C15 N1 1_555 1_555
H13 C15 1_555 1_555
C16 C7 1_555 1_555
C17 C11 1_555 1_555
C18 O1 1_555 1_555
H14 C18 1_555 1_555
H15 C18 1_555 1_555
C19 O4 1_555 1_555
H16 C19 1_555 1_555
H17 C19 1_555 1_555
H18 C19 1_555 1_555
H19 O3 1_555 1_555
O2 C18 1_555 1_555
C5 C13 1_555 1_555
C8 C16 1_555 1_555
C12 C15 1_555 1_555
C12 C17 1_555 1_555
C13 C14 1_555 1_555
C14 C15 1_555 1_555
C16 C17 1_555 1_555

#END
