
#######################################################################
#
#                 Cambridge Crystallographic Data Centre
#                                CCDC 
#
#######################################################################
#
# If this CIF has been generated from an entry in the Cambridge 
# Structural Database, then it will include bibliographic, chemical, 
# crystal, experimental, refinement or atomic coordinate data resulting 
# from the CCDC's data processing and validation procedures.
#
#######################################################################

data_MEBHOT
_chemical_formula_moiety         'C54 H42 P4 S4,C1 H2 Cl2'
_chemical_name_systematic        
'(benzene-1,2,3,5-tetrayl)tetrakis[diphenylphosphane sulfide] dichloromethane solvate'
_symmetry_cell_setting           monoclinic
_symmetry_space_group_name_H-M   'P 21/n'
_symmetry_Int_Tables_number      14
_space_group_name_Hall           '-P 2yn'
loop_
_symmetry_equiv_pos_site_id
_symmetry_equiv_pos_as_xyz
1 x,y,z
2 1/2-x,1/2+y,1/2-z
3 -x,-y,-z
4 1/2+x,1/2-y,1/2+z
_cell_length_a                   12.356(3)
_cell_length_b                   18.851(4)
_cell_length_c                   23.153(6)
_cell_angle_alpha                90
_cell_angle_beta                 103.57(4)
_cell_angle_gamma                90
_cell_volume                     5242.32
_exptl_crystal_colour            yellow
_exptl_crystal_description       block
_cell_formula_units_Z            4
_exptl_crystal_recrystallization_method dichloromethane
loop_
_atom_site_label
_atom_site_type_symbol
_atom_site_fract_x
_atom_site_fract_y
_atom_site_fract_z
P1 P 0.74613(6) 0.57538(4) 0.32611(3)
P2 P 0.50620(6) 0.57301(4) 0.19358(3)
P3 P 0.35998(6) 0.73543(4) 0.19409(3)
P4 P 0.49698(6) 0.73748(4) 0.43553(3)
S1 S 0.81540(6) 0.57464(4) 0.25937(3)
S2 S 0.34614(6) 0.56273(4) 0.16159(3)
S3 S 0.40322(6) 0.74033(4) 0.11900(3)
S4 S 0.53435(7) 0.67090(5) 0.50129(3)
C1 C 0.6083(2) 0.61953(14) 0.31361(12)
C2 C 0.5305(2) 0.63394(14) 0.25847(11)
C3 C 0.4508(2) 0.68823(14) 0.25831(12)
C4 C 0.4406(2) 0.71754(15) 0.31195(12)
H1 H 0.386161 0.753301 0.311432
C5 C 0.5065(2) 0.69650(14) 0.36573(11)
C6 C 0.5919(2) 0.64986(15) 0.36553(12)
H2 H 0.641398 0.637940 0.402220
C7 C 0.7369(2) 0.49062(15) 0.36183(12)
C8 C 0.8126(3) 0.43794(16) 0.35675(14)
H3 H 0.860296 0.444301 0.330391
C9 C 0.8193(3) 0.37607(17) 0.38984(15)
H4 H 0.870763 0.339963 0.386012
C10 C 0.7506(3) 0.36753(18) 0.42821(15)
H5 H 0.756195 0.325805 0.451735
C11 C 0.6738(3) 0.41891(18) 0.43288(15)
H6 H 0.625595 0.411908 0.458854
C12 C 0.6667(3) 0.48055(17) 0.39994(14)
H7 H 0.613818 0.515953 0.403345
C13 C 0.8278(2) 0.62982(15) 0.38589(12)
C14 C 0.8392(3) 0.70165(18) 0.37499(15)
H8 H 0.808650 0.720498 0.336565
C15 C 0.8948(3) 0.7456(2) 0.41989(16)
H9 H 0.900232 0.794906 0.412701
C16 C 0.9423(3) 0.7182(2) 0.47485(16)
H10 H 0.981321 0.748490 0.505542
C17 C 0.9334(3) 0.6475(2) 0.48547(16)
H11 H 0.967447 0.628628 0.523433
C18 C 0.8754(3) 0.60321(19) 0.44146(14)
H12 H 0.868390 0.554237 0.449517
C19 C 0.5606(2) 0.48629(15) 0.21964(12)
C20 C 0.6361(2) 0.45007(16) 0.19466(13)
H13 H 0.670370 0.473486 0.167258
C21 C 0.6616(3) 0.38014(17) 0.20948(14)
H14 H 0.713175 0.355606 0.192071
C22 C 0.6128(3) 0.34563(17) 0.24936(15)
H15 H 0.630586 0.297448 0.259332
C23 C 0.5385(3) 0.38115(16) 0.27465(14)
H16 H 0.505236 0.357518 0.302365
C24 C 0.5119(2) 0.45093(16) 0.25999(13)
H17 H 0.460042 0.475051 0.277483
C25 C 0.5785(2) 0.60395(15) 0.13881(12)
C26 C 0.5494(3) 0.57394(17) 0.08244(13)
H18 H 0.496121 0.536735 0.074334
C27 C 0.5980(3) 0.59828(19) 0.03823(14)
H19 H 0.578122 0.577824 -0.000310
C28 C 0.6751(3) 0.65215(19) 0.05003(16)
H20 H 0.709269 0.668257 0.019690
C29 C 0.7032(3) 0.68284(18) 0.10538(15)
H21 H 0.755890 0.720389 0.112984
C30 C 0.6551(2) 0.65936(15) 0.14987(13)
H22 H 0.674143 0.680924 0.188001
C31 C 0.2183(2) 0.70831(15) 0.19164(12)
C32 C 0.1887(2) 0.66978(15) 0.23663(13)
H23 H 0.244554 0.652947 0.269215
C33 C 0.0775(2) 0.65587(16) 0.23401(14)
H24 H 0.057101 0.630280 0.265191
C34 C -0.0036(2) 0.67913(17) 0.18619(14)
H25 H -0.079582 0.668693 0.184133
C35 C 0.0252(2) 0.71740(18) 0.14144(14)
H26 H -0.030981 0.733549 0.108673
C36 C 0.1356(2) 0.73233(17) 0.14416(13)
H27 H 0.155167 0.759166 0.113396
C37 C 0.3667(2) 0.82564(14) 0.22383(12)
C38 C 0.2816(3) 0.85523(17) 0.24597(13)
H28 H 0.216623 0.828386 0.246131
C39 C 0.2918(3) 0.92425(18) 0.26787(15)
H29 H 0.233196 0.944283 0.282752
C40 C 0.3843(3) 0.96344(17) 0.26831(15)
H30 H 0.390574 1.010447 0.283521
C41 C 0.4696(3) 0.93416(18) 0.24633(15)
H31 H 0.534319 0.961375 0.246436
C42 C 0.4611(3) 0.86589(17) 0.22433(14)
H32 H 0.520090 0.846321 0.209470
C43 C 0.3569(2) 0.77270(19) 0.41903(13)
C44 C 0.2701(3) 0.7245(3) 0.4056(2)
H33 H 0.285161 0.675078 0.408585
C45 C 0.1615(4) 0.7482(4) 0.3878(2)
H34 H 0.102180 0.715088 0.377658
C46 C 0.1395(4) 0.8196(5) 0.38477(19)
H35 H 0.064865 0.835731 0.371926
C47 C 0.2240(4) 0.8677(3) 0.4001(2)
H36 H 0.208232 0.917037 0.399103
C48 C 0.3338(3) 0.8436(2) 0.41722(18)
H37 H 0.392958 0.876853 0.427697
C49 C 0.5921(2) 0.81172(15) 0.44066(13)
C50 C 0.5840(3) 0.85852(16) 0.39339(13)
H38 H 0.527178 0.852451 0.358151
C51 C 0.6586(3) 0.91375(18) 0.39789(16)
H39 H 0.652684 0.946038 0.365789
C52 C 0.7427(3) 0.9225(2) 0.44917(17)
H40 H 0.793702 0.960763 0.452128
C53 C 0.7517(3) 0.8759(2) 0.49529(16)
H41 H 0.809505 0.881631 0.530134
C54 C 0.6767(3) 0.82003(18) 0.49149(14)
H42 H 0.683450 0.787688 0.523607
loop_
_geom_bond_atom_site_label_1
_geom_bond_atom_site_label_2
_geom_bond_site_symmetry_1
_geom_bond_site_symmetry_2
P1 S1 1_555 1_555
P2 S2 1_555 1_555
P3 S3 1_555 1_555
P4 S4 1_555 1_555
C1 P1 1_555 1_555
C2 P2 1_555 1_555
C3 P3 1_555 1_555
C4 C3 1_555 1_555
H1 C4 1_555 1_555
C5 P4 1_555 1_555
C6 C1 1_555 1_555
H2 C6 1_555 1_555
C7 P1 1_555 1_555
C8 C7 1_555 1_555
H3 C8 1_555 1_555
C9 C8 1_555 1_555
H4 C9 1_555 1_555
C10 C9 1_555 1_555
H5 C10 1_555 1_555
C11 C10 1_555 1_555
H6 C11 1_555 1_555
C12 C7 1_555 1_555
H7 C12 1_555 1_555
C13 P1 1_555 1_555
C14 C13 1_555 1_555
H8 C14 1_555 1_555
C15 C14 1_555 1_555
H9 C15 1_555 1_555
C16 C15 1_555 1_555
H10 C16 1_555 1_555
C17 C16 1_555 1_555
H11 C17 1_555 1_555
C18 C13 1_555 1_555
H12 C18 1_555 1_555
C19 P2 1_555 1_555
C20 C19 1_555 1_555
H13 C20 1_555 1_555
C21 C20 1_555 1_555
H14 C21 1_555 1_555
C22 C21 1_555 1_555
H15 C22 1_555 1_555
C23 C22 1_555 1_555
H16 C23 1_555 1_555
C24 C19 1_555 1_555
H17 C24 1_555 1_555
C25 P2 1_555 1_555
C26 C25 1_555 1_555
H18 C26 1_555 1_555
C27 C26 1_555 1_555
H19 C27 1_555 1_555
C28 C27 1_555 1_555
H20 C28 1_555 1_555
C29 C28 1_555 1_555
H21 C29 1_555 1_555
C30 C25 1_555 1_555
H22 C30 1_555 1_555
C31 P3 1_555 1_555
C32 C31 1_555 1_555
H23 C32 1_555 1_555
C33 C32 1_555 1_555
H24 C33 1_555 1_555
C34 C33 1_555 1_555
H25 C34 1_555 1_555
C35 C34 1_555 1_555
H26 C35 1_555 1_555
C36 C31 1_555 1_555
H27 C36 1_555 1_555
C37 P3 1_555 1_555
C38 C37 1_555 1_555
H28 C38 1_555 1_555
C39 C38 1_555 1_555
H29 C39 1_555 1_555
C40 C39 1_555 1_555
H30 C40 1_555 1_555
C41 C40 1_555 1_555
H31 C41 1_555 1_555
C42 C37 1_555 1_555
H32 C42 1_555 1_555
C43 P4 1_555 1_555
C44 C43 1_555 1_555
H33 C44 1_555 1_555
C45 C44 1_555 1_555
H34 C45 1_555 1_555
C46 C45 1_555 1_555
H35 C46 1_555 1_555
C47 C46 1_555 1_555
H36 C47 1_555 1_555
C48 C43 1_555 1_555
H37 C48 1_555 1_555
C49 P4 1_555 1_555
C50 C49 1_555 1_555
H38 C50 1_555 1_555
C51 C50 1_555 1_555
H39 C51 1_555 1_555
C52 C51 1_555 1_555
H40 C52 1_555 1_555
C53 C52 1_555 1_555
H41 C53 1_555 1_555
C54 C49 1_555 1_555
H42 C54 1_555 1_555
C1 C2 1_555 1_555
C2 C3 1_555 1_555
C4 C5 1_555 1_555
C5 C6 1_555 1_555
C11 C12 1_555 1_555
C17 C18 1_555 1_555
C23 C24 1_555 1_555
C29 C30 1_555 1_555
C35 C36 1_555 1_555
C41 C42 1_555 1_555
C47 C48 1_555 1_555
C53 C54 1_555 1_555

#END
