
#######################################################################
#
#                 Cambridge Crystallographic Data Centre
#                                CCDC 
#
#######################################################################
#
# If this CIF has been generated from an entry in the Cambridge 
# Structural Database, then it will include bibliographic, chemical, 
# crystal, experimental, refinement or atomic coordinate data resulting 
# from the CCDC's data processing and validation procedures.
#
#######################################################################

data_MEBJUY
_chemical_formula_moiety         'C23 H21 F2 N1 O3'
_chemical_name_systematic        
N-((2S)-2-(6-Methoxynaphth-2-yl)propionyl)-(3S)-7,8-difluoro-2,3-dihydro-3-methyl-4H-1,4-benzoxazine
_symmetry_cell_setting           orthorhombic
_symmetry_space_group_name_H-M   'P 21 21 21'
_symmetry_Int_Tables_number      19
_space_group_name_Hall           'P 2ac 2ab'
loop_
_symmetry_equiv_pos_site_id
_symmetry_equiv_pos_as_xyz
1 x,y,z
2 1/2-x,-y,1/2+z
3 -x,1/2+y,1/2-z
4 1/2+x,1/2-y,-z
_cell_length_a                   8.046(6)
_cell_length_b                   12.643(6)
_cell_length_c                   19.246(9)
_cell_angle_alpha                90
_cell_angle_beta                 90
_cell_angle_gamma                90
_cell_volume                     1957.81
_exptl_crystal_colour            colorless
_chemical_melting_point          113-114deg.C
_cell_formula_units_Z            4
loop_
_atom_site_label
_atom_site_type_symbol
_atom_site_fract_x
_atom_site_fract_y
_atom_site_fract_z
F1 F -0.9587(5) 0.4506(3) 0.2799(2)
F2 F -0.6801(5) 0.5401(3) 0.3273(2)
O1 O -0.5049(6) 0.6759(3) 0.2526(2)
O2 O -0.4554(6) 0.7809(3) 0.0250(2)
O3 O 0.1834(6) 0.2336(3) 0.0845(2)
N1 N -0.6078(6) 0.7324(3) 0.1178(2)
C1 C -0.4140(7) 0.7517(5) 0.2108(3)
H1 H -0.3330(7) 0.7142(5) 0.1836(3)
H2 H -0.3563(7) 0.8000(5) 0.2407(3)
C2 C -0.5250(8) 0.8116(5) 0.1618(3)
H3 H -0.4593(8) 0.8563(5) 0.1322(3)
C3 C -0.7018(8) 0.6595(4) 0.1579(3)
C4 C -0.8541(8) 0.6210(5) 0.1357(3)
H4 H -0.9005(8) 0.6459(5) 0.0928(3)
C5 C -0.9415(8) 0.5491(5) 0.1756(3)
H5 H -1.0431(8) 0.5180(5) 0.1593(3)
C6 C -0.8794(9) 0.5213(5) 0.2386(3)
C7 C -0.7347(9) 0.5652(5) 0.2633(3)
C8 C -0.6440(7) 0.6348(4) 0.2228(3)
C9 C -0.6500(8) 0.8820(4) 0.1984(3)
H6 H -0.5957(8) 0.9339(4) 0.2268(3)
H7 H -0.7179(8) 0.9168(4) 0.1643(3)
H8 H -0.7185(8) 0.8377(4) 0.2270(3)
C10 C -0.5440(8) 0.7151(5) 0.0522(3)
C11 C -0.5825(7) 0.6118(4) 0.0161(2)
H9 H -0.6906(7) 0.5890(4) 0.0309(2)
C12 C -0.5863(8) 0.6273(5) -0.0625(2)
H10 H -0.6685(8) 0.6788(5) -0.0752(2)
H11 H -0.4785(8) 0.6514(5) -0.0769(2)
H12 H -0.6110(8) 0.5613(5) -0.0849(2)
C13 C -0.4546(8) 0.5297(4) 0.0379(2)
C14 C -0.4968(8) 0.4467(4) 0.0839(3)
H13 H -0.6079(8) 0.4438(4) 0.1020(3)
C15 C -0.3851(9) 0.3702(5) 0.1024(3)
H14 H -0.4175(9) 0.3148(5) 0.1337(3)
C16 C -0.2221(8) 0.3722(5) 0.0761(3)
C17 C -0.1011(9) 0.2948(5) 0.0955(3)
H15 H -0.1298(9) 0.2410(5) 0.1285(3)
C18 C 0.0553(9) 0.2994(5) 0.0677(3)
C19 C 0.0968(8) 0.3766(5) 0.0180(3)
H16 H 0.2060(8) 0.3772(5) -0.0021(3)
C20 C -0.0148(8) 0.4516(5) 0.0000(3)
H17 H 0.0132(8) 0.5036(5) -0.0344(3)
C21 C -0.1778(8) 0.4539(5) 0.0299(3)
C22 C -0.2939(7) 0.5327(5) 0.0125(3)
H18 H -0.2604(7) 0.5910(5) -0.0162(3)
C23 C 0.1552(10) 0.1544(5) 0.1334(3)
H19 H 0.2550(10) 0.1142(5) 0.1402(3)
H20 H 0.1225(10) 0.1863(5) 0.1766(3)
H21 H 0.0683(10) 0.1085(5) 0.1173(3)
loop_
_geom_bond_atom_site_label_1
_geom_bond_atom_site_label_2
_geom_bond_site_symmetry_1
_geom_bond_site_symmetry_2
F1 C6 1_555 1_555
F2 C7 1_555 1_555
O1 C1 1_555 1_555
O2 C10 1_555 1_555
O3 C18 1_555 1_555
N1 C2 1_555 1_555
C1 H1 1_555 1_555
H2 C1 1_555 1_555
C2 C1 1_555 1_555
H3 C2 1_555 1_555
C3 N1 1_555 1_555
C4 C3 1_555 1_555
H4 C4 1_555 1_555
C5 C4 1_555 1_555
H5 C5 1_555 1_555
C6 C5 1_555 1_555
C7 C6 1_555 1_555
C8 O1 1_555 1_555
C9 C2 1_555 1_555
H6 C9 1_555 1_555
H7 C9 1_555 1_555
H8 C9 1_555 1_555
C10 N1 1_555 1_555
C11 C10 1_555 1_555
H9 C11 1_555 1_555
C12 C11 1_555 1_555
H10 C12 1_555 1_555
H11 C12 1_555 1_555
H12 C12 1_555 1_555
C13 C11 1_555 1_555
C14 C13 1_555 1_555
H13 C14 1_555 1_555
C15 C14 1_555 1_555
H14 C15 1_555 1_555
C16 C15 1_555 1_555
C17 C16 1_555 1_555
H15 C17 1_555 1_555
C18 C17 1_555 1_555
C19 C18 1_555 1_555
H16 C19 1_555 1_555
C20 C19 1_555 1_555
H17 C20 1_555 1_555
C21 C16 1_555 1_555
C22 C13 1_555 1_555
H18 C22 1_555 1_555
C23 O3 1_555 1_555
H19 C23 1_555 1_555
H20 C23 1_555 1_555
H21 C23 1_555 1_555
C3 C8 1_555 1_555
C7 C8 1_555 1_555
C20 C21 1_555 1_555
C21 C22 1_555 1_555

#END
