
#######################################################################
#
#                 Cambridge Crystallographic Data Centre
#                                CCDC 
#
#######################################################################
#
# If this CIF has been generated from an entry in the Cambridge 
# Structural Database, then it will include bibliographic, chemical, 
# crystal, experimental, refinement or atomic coordinate data resulting 
# from the CCDC's data processing and validation procedures.
#
#######################################################################

data_MEBMIR
_chemical_formula_moiety         'C21 H20 N2 O5'
_chemical_name_systematic        
'Methyl 2-(3-(((benzyloxy)carbonyl)amino)-1-methyl-2-oxo-2,3-dihydro-1H-indol-3-yl)acrylate'
_symmetry_cell_setting           orthorhombic
_symmetry_space_group_name_H-M   'P 21 21 21'
_symmetry_Int_Tables_number      19
_space_group_name_Hall           'P 2ac 2ab'
loop_
_symmetry_equiv_pos_site_id
_symmetry_equiv_pos_as_xyz
1 x,y,z
2 1/2-x,-y,1/2+z
3 1/2+x,1/2-y,-z
4 -x,1/2+y,1/2-z
_cell_length_a                   8.6032(2)
_cell_length_b                   9.40760(10)
_cell_length_c                   23.8035(4)
_cell_angle_alpha                90
_cell_angle_beta                 90
_cell_angle_gamma                90
_cell_volume                     1926.55
_exptl_crystal_colour            colorless
_exptl_crystal_description       block
_cell_formula_units_Z            4
loop_
_atom_site_label
_atom_site_type_symbol
_atom_site_fract_x
_atom_site_fract_y
_atom_site_fract_z
O1 O 0.83227(11) 0.14478(10) 0.35553(4)
O2 O 0.96515(11) 0.37373(10) 0.20306(4)
N1 N 0.82399(12) 0.12706(11) 0.26298(4)
H1 H 0.8879 0.0578 0.2677
N2 N 0.70828(13) 0.40347(11) 0.18028(4)
O3 O 0.97616(15) 0.03057(13) 0.07716(5)
O4 O 0.83841(17) 0.22841(12) 0.08946(4)
O5 O 0.66422(15) 0.28191(12) 0.30745(4)
C1 C 0.78298(13) 0.17011(12) 0.20617(5)
C2 C 0.86011(14) 0.06596(13) 0.16511(5)
C3 C 0.85460(16) 0.14006(15) 0.45571(5)
C4 C 0.60921(13) 0.18052(12) 0.19480(5)
C5 C 0.83420(14) 0.32765(12) 0.19583(5)
C6 C 0.49482(14) 0.07948(14) 0.19798(5)
H2 H 0.5177 -0.0129 0.2091
C7 C 0.57500(15) 0.31851(13) 0.17783(5)
C8 C 0.88919(16) 0.11917(15) 0.10738(6)
C9 C 0.42610(17) 0.35757(17) 0.16281(6)
H3 H 0.4040 0.4493 0.1506
C10 C 0.77459(19) 0.20712(16) 0.40635(6)
H4 H 0.6633 0.1922 0.4091
H5 H 0.7940 0.3087 0.4061
C11 C 0.8212(2) 0.19130(17) 0.50931(6)
H6 H 0.7514 0.2660 0.5137
C12 C 0.7144(2) 0.55179(14) 0.16374(8)
H7 H 0.6914 0.5599 0.1244
H8 H 0.8165 0.5888 0.1709
H9 H 0.6393 0.6049 0.1850
C13 C 0.76445(15) 0.19299(12) 0.30820(5)
C14 C 0.95896(18) 0.02922(16) 0.45033(6)
H10 H 0.9823 -0.0064 0.4149
C15 C 1.0291(2) -0.0292(2) 0.49736(7)
H11 H 1.0998 -0.1034 0.4933
C16 C 0.34296(16) 0.11881(18) 0.18406(6)
H12 H 0.2632 0.0524 0.1866
C17 C 0.8860(2) -0.06915(15) 0.17791(6)
H13 H 0.9227 -0.1314 0.1506
H14 H 0.8675 -0.1017 0.2142
C18 C 0.8911(2) 0.1318(2) 0.55591(6)
H15 H 0.8678 0.1665 0.5915
C19 C 0.31051(17) 0.2553(2) 0.16661(8)
H16 H 0.2089 0.2793 0.1572
C20 C 0.9994(3) 0.0710(3) 0.01879(9)
H17 H 1.0497 -0.0052 -0.0009
H18 H 1.0633 0.1546 0.0171
H19 H 0.9007 0.0904 0.0017
C21 C 0.9946(2) 0.0221(2) 0.55008(7)
H20 H 1.0413 -0.0176 0.5816
loop_
_geom_bond_atom_site_label_1
_geom_bond_atom_site_label_2
_geom_bond_site_symmetry_1
_geom_bond_site_symmetry_2
O1 C10 1_555 1_555
O2 C5 1_555 1_555
N1 H1 1_555 1_555
N2 C5 1_555 1_555
O3 C8 1_555 1_555
O4 C8 1_555 1_555
O5 C13 1_555 1_555
C1 N1 1_555 1_555
C2 C1 1_555 1_555
C3 C10 1_555 1_555
C4 C1 1_555 1_555
C5 C1 1_555 1_555
C6 C4 1_555 1_555
H2 C6 1_555 1_555
C7 N2 1_555 1_555
C8 C2 1_555 1_555
C9 C7 1_555 1_555
H3 C9 1_555 1_555
C10 H4 1_555 1_555
H5 C10 1_555 1_555
C11 C3 1_555 1_555
H6 C11 1_555 1_555
C12 N2 1_555 1_555
H7 C12 1_555 1_555
H8 C12 1_555 1_555
H9 C12 1_555 1_555
C13 O1 1_555 1_555
C14 C3 1_555 1_555
H10 C14 1_555 1_555
C15 C14 1_555 1_555
H11 C15 1_555 1_555
C16 C6 1_555 1_555
H12 C16 1_555 1_555
C17 C2 1_555 1_555
H13 C17 1_555 1_555
H14 C17 1_555 1_555
C18 C11 1_555 1_555
H15 C18 1_555 1_555
C19 C9 1_555 1_555
H16 C19 1_555 1_555
C20 O3 1_555 1_555
H17 C20 1_555 1_555
H18 C20 1_555 1_555
H19 C20 1_555 1_555
C21 C15 1_555 1_555
H20 C21 1_555 1_555
N1 C13 1_555 1_555
C4 C7 1_555 1_555
C16 C19 1_555 1_555
C18 C21 1_555 1_555

#END
