
#######################################################################
#
#                 Cambridge Crystallographic Data Centre
#                                CCDC 
#
#######################################################################
#
# If this CIF has been generated from an entry in the Cambridge 
# Structural Database, then it will include bibliographic, chemical, 
# crystal, experimental, refinement or atomic coordinate data resulting 
# from the CCDC's data processing and validation procedures.
#
#######################################################################

data_MEBNUF
_chemical_compound_source        'aerial parts of Baeckea frutescens'
_chemical_name_common            'Frutescone P'
_chemical_formula_moiety         'C24 H36 O3'
_chemical_name_systematic        
4'-isopropyl-7'-methoxy-6,6,6',8',8'-pentamethyl-4',8'-dihydrospiro[bicyclo[3.1.1]heptane-2,2'-chromen]-5'(3'H)-one
_chemical_properties_biological  
'inhibitory activity on LPS-Activated NO production in RAW 264.7 cells'
_symmetry_cell_setting           hexagonal
_symmetry_space_group_name_H-M   'P 65'
_symmetry_Int_Tables_number      170
_space_group_name_Hall           'P 65'
loop_
_symmetry_equiv_pos_site_id
_symmetry_equiv_pos_as_xyz
1 x,y,z
2 -x,-y,1/2+z
3 -y,x-y,2/3+z
4 -x+y,-x,1/3+z
5 x-y,x,5/6+z
6 y,-x+y,1/6+z
_cell_length_a                   10.12080(10)
_cell_length_b                   10.12080(10)
_cell_length_c                   37.1340(8)
_cell_angle_alpha                90
_cell_angle_beta                 90
_cell_angle_gamma                120
_cell_volume                     3294.06
_exptl_crystal_colour            colorless
_exptl_crystal_description       block
_chemical_melting_point          '105-107 deg.C'
_cell_formula_units_Z            6
loop_
_atom_site_label
_atom_site_type_symbol
_atom_site_fract_x
_atom_site_fract_y
_atom_site_fract_z
O1 O 0.04349(17) 1.01512(17) 0.79262(4)
O2 O 0.04337(19) 1.3279(2) 0.69942(5)
O3 O -0.34276(16) 1.15165(18) 0.78800(5)
C1 C 0.2880(2) 1.1615(2) 0.76459(6)
H1 H 0.3719 1.1574 0.7530
H2 H 0.3269 1.2202 0.7866
C2 C -0.0054(2) 1.1016(2) 0.77586(5)
C3 C 0.0920(2) 0.8926(2) 0.74238(5)
H3 H 0.0578 0.9333 0.7228
C4 C 0.07057(19) 1.20067(19) 0.74938(5)
C5 C -0.0086(2) 1.2613(2) 0.72804(6)
C6 C 0.2322(2) 1.2440(2) 0.73961(5)
H4 H 0.2318 1.2096 0.7149
C7 C 0.1236(3) 0.7355(3) 0.69324(7)
H5 H 0.1665 0.8111 0.6746
H6 H 0.0144 0.6877 0.6926
H7 H 0.1530 0.6598 0.6895
C8 C 0.1654(2) 1.0008(2) 0.77417(5)
C9 C -0.1553(2) 1.2408(2) 0.74179(6)
C10 C -0.2119(2) 1.1661(2) 0.77254(6)
C11 C -0.1534(2) 1.0746(2) 0.79205(6)
C12 C -0.0315(3) 0.7356(2) 0.75707(7)
H8 H -0.0765 0.7406 0.7797
H9 H -0.1092 0.6728 0.7396
C13 C -0.2327(3) 1.3053(3) 0.71918(8)
H10 H -0.2307 1.2797 0.6944
H11 H -0.1801 1.4143 0.7218
H12 H -0.3365 1.2633 0.7269
C14 C 0.3388(2) 1.4198(2) 0.74071(7)
H13 H 0.2968 1.4636 0.7238
C15 C 0.3553(3) 0.8928(3) 0.72890(7)
H14 H 0.3952 0.9376 0.7520
H15 H 0.3925 0.9713 0.7109
H16 H 0.3876 0.8207 0.7232
C16 C 0.1822(2) 0.8116(2) 0.72987(6)
C17 C -0.3242(3) 1.2861(4) 0.80502(9)
H17 H -0.2514 1.3149 0.8242
H18 H -0.4204 1.2667 0.8146
H19 H -0.2884 1.3673 0.7877
C18 C 0.1767(3) 0.7612(3) 0.79680(7)
H20 H 0.2684 0.7536 0.7979
H21 H 0.1098 0.6993 0.8161
C19 C 0.4986(3) 1.4651(4) 0.72740(11)
H22 H 0.4918 1.4210 0.7041
H23 H 0.5458 1.4285 0.7440
H24 H 0.5588 1.5742 0.7257
C20 C -0.1229(4) 1.1217(5) 0.83196(8)
H25 H -0.0465 1.2276 0.8336
H26 H -0.0876 1.0612 0.8440
H27 H -0.2154 1.1056 0.8431
C21 C 0.2199(3) 0.9284(3) 0.80285(6)
H28 H 0.3302 0.9892 0.8044
H29 H 0.1791 0.9352 0.8260
C22 C 0.3446(3) 1.4891(3) 0.77737(10)
H30 H 0.3976 1.4596 0.7941
H31 H 0.2426 1.4531 0.7859
H32 H 0.3971 1.5982 0.7754
C23 C 0.0977(3) 0.6981(2) 0.76092(7)
H33 H 0.0687 0.5918 0.7561
C24 C -0.2768(3) 0.9052(3) 0.78799(12)
H34 H -0.2462 0.8429 0.8010
H35 H -0.2891 0.8775 0.7630
H36 H -0.3718 0.8897 0.7975
loop_
_geom_bond_atom_site_label_1
_geom_bond_atom_site_label_2
_geom_bond_site_symmetry_1
_geom_bond_site_symmetry_2
O1 C2 1_555 1_555
O2 C5 1_555 1_555
O3 C10 1_555 1_555
C1 H1 1_555 1_555
H2 C1 1_555 1_555
C2 C4 1_555 1_555
C3 H3 1_555 1_555
C4 C5 1_555 1_555
C5 C9 1_555 1_555
C6 C1 1_555 1_555
H4 C6 1_555 1_555
C7 H5 1_555 1_555
H6 C7 1_555 1_555
H7 C7 1_555 1_555
C8 O1 1_555 1_555
C9 C10 1_555 1_555
C10 C11 1_555 1_555
C11 C2 1_555 1_555
C12 C3 1_555 1_555
H8 C12 1_555 1_555
H9 C12 1_555 1_555
C13 C9 1_555 1_555
H10 C13 1_555 1_555
H11 C13 1_555 1_555
H12 C13 1_555 1_555
C14 C6 1_555 1_555
H13 C14 1_555 1_555
C15 H14 1_555 1_555
H15 C15 1_555 1_555
H16 C15 1_555 1_555
C16 C3 1_555 1_555
C17 O3 1_555 1_555
H17 C17 1_555 1_555
H18 C17 1_555 1_555
H19 C17 1_555 1_555
C18 H20 1_555 1_555
H21 C18 1_555 1_555
C19 C14 1_555 1_555
H22 C19 1_555 1_555
H23 C19 1_555 1_555
H24 C19 1_555 1_555
C20 C11 1_555 1_555
H25 C20 1_555 1_555
H26 C20 1_555 1_555
H27 C20 1_555 1_555
C21 C8 1_555 1_555
H28 C21 1_555 1_555
H29 C21 1_555 1_555
C22 C14 1_555 1_555
H30 C22 1_555 1_555
H31 C22 1_555 1_555
H32 C22 1_555 1_555
C23 C12 1_555 1_555
H33 C23 1_555 1_555
C24 C11 1_555 1_555
H34 C24 1_555 1_555
H35 C24 1_555 1_555
H36 C24 1_555 1_555
C1 C8 1_555 1_555
C3 C8 1_555 1_555
C4 C6 1_555 1_555
C7 C16 1_555 1_555
C15 C16 1_555 1_555
C16 C23 1_555 1_555
C18 C21 1_555 1_555
C18 C23 1_555 1_555

#END
