
#######################################################################
#
#                 Cambridge Crystallographic Data Centre
#                                CCDC 
#
#######################################################################
#
# If this CIF has been generated from an entry in the Cambridge 
# Structural Database, then it will include bibliographic, chemical, 
# crystal, experimental, refinement or atomic coordinate data resulting 
# from the CCDC's data processing and validation procedures.
#
#######################################################################

data_MEBQUF
_chemical_formula_moiety         'C12 H21 N1 O2'
_chemical_name_systematic        
7-exo-Methoxy-7-endo-morpholinobicyclo(4.1.0)heptane
_symmetry_cell_setting           monoclinic
_symmetry_space_group_name_H-M   'P 21/c'
_symmetry_Int_Tables_number      14
_space_group_name_Hall           '-P 2ybc'
loop_
_symmetry_equiv_pos_site_id
_symmetry_equiv_pos_as_xyz
1 x,y,z
2 -x,1/2+y,1/2-z
3 -x,-y,-z
4 x,1/2-y,1/2+z
_cell_length_a                   6.631(4)
_cell_length_b                   9.629(3)
_cell_length_c                   17.948(3)
_cell_angle_alpha                90
_cell_angle_beta                 92.99(3)
_cell_angle_gamma                90
_cell_volume                     1144.42
_exptl_crystal_colour            colorless
_exptl_crystal_description       prismatic
_chemical_melting_point          '54.0-55.5 deg.C'
_cell_formula_units_Z            4
loop_
_atom_site_label
_atom_site_type_symbol
_atom_site_fract_x
_atom_site_fract_y
_atom_site_fract_z
O1 O 0.4616(2) 0.2078(1) 0.54505(7)
O2 O 0.9710(2) 0.0966(1) 0.36911(7)
N1 N 0.7066(2) 0.2362(1) 0.42127(7)
C1 C 0.8466(2) 0.2162(2) 0.36477(9)
C2 C 0.8005(2) 0.2733(2) 0.28745(9)
C3 C 0.9629(2) 0.3403(2) 0.33932(9)
C4 C 0.9280(3) 0.4853(2) 0.3691(1)
C5 C 0.7703(3) 0.5685(2) 0.3225(1)
C6 C 0.5772(3) 0.4848(2) 0.3094(1)
C7 C 0.6145(3) 0.3561(2) 0.2623(1)
C8 C 0.5167(2) 0.1581(2) 0.4150(1)
C9 C 0.3747(3) 0.2168(2) 0.4705(1)
C10 C 0.6475(3) 0.2817(2) 0.5511(1)
C11 C 0.7966(3) 0.2257(2) 0.49742(9)
C12 C 0.8778(3) -0.0299(2) 0.3464(1)
H1 H 0.858(3) 0.211(2) 0.249(1)
H2 H 1.101(3) 0.315(2) 0.327(1)
H3 H 0.885(3) 0.479(2) 0.419(1)
H4 H 1.058(3) 0.537(2) 0.372(1)
H5 H 0.740(3) 0.658(2) 0.346(1)
H6 H 0.822(3) 0.592(2) 0.272(1)
H7 H 0.470(3) 0.547(2) 0.282(1)
H8 H 0.526(3) 0.460(2) 0.358(1)
H9 H 0.639(3) 0.386(2) 0.211(1)
H10 H 0.497(3) 0.296(2) 0.255(1)
H11 H 0.458(3) 0.173(2) 0.366(1)
H12 H 0.538(3) 0.058(2) 0.427(1)
H13 H 0.341(3) 0.318(3) 0.459(1)
H14 H 0.251(3) 0.159(2) 0.470(1)
H15 H 0.704(3) 0.269(2) 0.602(1)
H16 H 0.625(3) 0.381(2) 0.539(1)
H17 H 0.830(3) 0.130(2) 0.510(1)
H18 H 0.921(3) 0.288(2) 0.5014(9)
H19 H 0.785(4) -0.061(3) 0.381(2)
H20 H 0.985(3) -0.105(3) 0.339(1)
H21 H 0.804(4) -0.011(3) 0.302(2)
loop_
_geom_bond_atom_site_label_1
_geom_bond_atom_site_label_2
_geom_bond_site_symmetry_1
_geom_bond_site_symmetry_2
O1 C9 1_555 1_555
O2 C1 1_555 1_555
N1 C1 1_555 1_555
C1 C2 1_555 1_555
C2 C3 1_555 1_555
C3 C1 1_555 1_555
C4 C3 1_555 1_555
C5 C4 1_555 1_555
C6 C5 1_555 1_555
C7 C2 1_555 1_555
C8 N1 1_555 1_555
C9 C8 1_555 1_555
C10 O1 1_555 1_555
C11 N1 1_555 1_555
C12 O2 1_555 1_555
H1 C2 1_555 1_555
H2 C3 1_555 1_555
H3 C4 1_555 1_555
H4 C4 1_555 1_555
H5 C5 1_555 1_555
H6 C5 1_555 1_555
H7 C6 1_555 1_555
H8 C6 1_555 1_555
H9 C7 1_555 1_555
H10 C7 1_555 1_555
H11 C8 1_555 1_555
H12 C8 1_555 1_555
H13 C9 1_555 1_555
H14 C9 1_555 1_555
H15 C10 1_555 1_555
H16 C10 1_555 1_555
H17 C11 1_555 1_555
H18 C11 1_555 1_555
H19 C12 1_555 1_555
H20 C12 1_555 1_555
H21 C12 1_555 1_555
C6 C7 1_555 1_555
C10 C11 1_555 1_555

#END
