
#######################################################################
#
#                 Cambridge Crystallographic Data Centre
#                                CCDC 
#
#######################################################################
#
# If this CIF has been generated from an entry in the Cambridge 
# Structural Database, then it will include bibliographic, chemical, 
# crystal, experimental, refinement or atomic coordinate data resulting 
# from the CCDC's data processing and validation procedures.
#
#######################################################################

data_MEDBAY
_chemical_formula_moiety         'C20 H29 N1 O4 S1 Si1'
_chemical_name_systematic        
7,7-Dimethyl-2-(trimethylsilylmethyl)-5-(p-tosyl)-8-oxa-1-azabicyclo(4.3.0)non-5-en-9-one
_symmetry_cell_setting           triclinic
_symmetry_space_group_name_H-M   'P -1'
_symmetry_Int_Tables_number      2
_space_group_name_Hall           '-P 1'
loop_
_symmetry_equiv_pos_site_id
_symmetry_equiv_pos_as_xyz
1 x,y,z
2 -x,-y,-z
_cell_length_a                   11.829(2)
_cell_length_b                   12.310(2)
_cell_length_c                   8.058(2)
_cell_angle_alpha                92.56(1)
_cell_angle_beta                 109.50(2)
_cell_angle_gamma                103.20(1)
_cell_volume                     1067.46
_exptl_crystal_colour            colorless
_exptl_crystal_description       prismatic
_chemical_melting_point          '173.0-173.5 deg.C'
_cell_formula_units_Z            2
_exptl_crystal_recrystallization_method dichloromethane/hexane
loop_
_atom_site_label
_atom_site_type_symbol
_atom_site_fract_x
_atom_site_fract_y
_atom_site_fract_z
S1 S 0.98107(5) 0.65785(5) 0.65690(7)
Si1 Si 0.59425(6) 0.16005(5) 0.28691(8)
O1 O 0.5589(1) 0.5361(1) 0.2522(2)
O2 O 0.4352(1) 0.3806(1) 0.2949(2)
O3 O 0.9697(1) 0.7224(1) 0.5107(2)
O4 O 1.0884(1) 0.6138(1) 0.7175(2)
N1 N 0.6450(1) 0.4379(1) 0.4582(2)
C1 C 0.6521(2) 0.3484(2) 0.5723(3)
C2 C 0.7401(2) 0.4045(2) 0.7578(3)
C3 C 0.8649(2) 0.4667(2) 0.7532(3)
C4 C 0.8497(2) 0.5465(2) 0.6148(2)
C5 C 0.7418(2) 0.5315(1) 0.4796(2)
C6 C 0.6915(2) 0.5964(2) 0.3252(2)
C7 C 0.5366(2) 0.4449(2) 0.3316(3)
C8 C 0.7433(3) 0.5813(2) 0.1789(3)
C9 C 0.6948(3) 0.7171(2) 0.3766(4)
C10 C 0.6935(2) 0.2535(2) 0.4999(3)
C11 C 0.5820(3) 0.2353(3) 0.0888(4)
C12 C 0.6751(3) 0.0473(3) 0.2769(5)
C13 C 0.4368(3) 0.0953(3) 0.2898(5)
C14 C 0.9833(2) 0.7433(2) 0.8417(2)
C15 C 1.0983(2) 0.8035(2) 0.9621(3)
C16 C 1.1025(2) 0.8742(2) 1.1038(3)
C17 C 0.9969(2) 0.8852(2) 1.1312(3)
C18 C 0.8838(2) 0.8244(2) 1.0098(3)
C19 C 0.8765(2) 0.7538(2) 0.8658(3)
C20 C 1.0039(4) 0.9597(3) 1.2895(4)
H1 H 0.571(2) 0.321(1) 0.574(2)
H2 H 0.749(2) 0.349(2) 0.837(3)
H3 H 0.703(2) 0.457(2) 0.801(2)
H4 H 0.914(2) 0.512(2) 0.867(3)
H5 H 0.910(2) 0.416(2) 0.728(3)
H6 H 0.734(2) 0.505(2) 0.151(3)
H7 H 0.695(2) 0.608(2) 0.077(3)
H8 H 0.823(2) 0.625(2) 0.211(3)
H9 H 0.647(2) 0.742(2) 0.278(3)
H10 H 0.781(2) 0.764(2) 0.413(3)
H11 H 0.662(2) 0.725(2) 0.465(3)
H12 H 0.708(2) 0.205(2) 0.586(3)
H13 H 0.769(2) 0.285(2) 0.493(3)
H14 H 0.660(3) 0.281(3) 0.094(4)
H15 H 0.522(3) 0.278(2) 0.066(3)
H16 H 0.558(3) 0.186(2) -0.005(4)
H17 H 0.758(3) 0.077(2) 0.288(4)
H18 H 0.673(3) 0.004(3) 0.365(4)
H19 H 0.641(3) 0.000(3) 0.175(4)
H20 H 0.391(3) 0.147(3) 0.296(4)
H21 H 0.437(3) 0.060(3) 0.389(5)
H22 H 0.392(3) 0.047(3) 0.193(5)
H23 H 1.169(2) 0.795(2) 0.945(3)
H24 H 1.179(2) 0.912(2) 1.183(3)
H25 H 0.807(2) 0.836(2) 1.027(3)
H26 H 0.800(2) 0.716(2) 0.787(3)
H27 H 0.934(4) 0.989(3) 1.270(5)
H28 H 1.008(3) 0.922(3) 1.380(5)
H29 H 1.079(3) 1.017(3) 1.337(5)
loop_
_geom_bond_atom_site_label_1
_geom_bond_atom_site_label_2
_geom_bond_site_symmetry_1
_geom_bond_site_symmetry_2
S1 O3 1_555 1_555
Si1 C10 1_555 1_555
O1 C6 1_555 1_555
O2 C7 1_555 1_555
O4 S1 1_555 1_555
N1 C1 1_555 1_555
C1 C2 1_555 1_555
C2 C3 1_555 1_555
C3 C4 1_555 1_555
C4 S1 1_555 1_555
C5 N1 1_555 1_555
C6 C5 1_555 1_555
C7 O1 1_555 1_555
C8 C6 1_555 1_555
C9 C6 1_555 1_555
C10 C1 1_555 1_555
C11 Si1 1_555 1_555
C12 Si1 1_555 1_555
C13 Si1 1_555 1_555
C14 S1 1_555 1_555
C15 C14 1_555 1_555
C16 C15 1_555 1_555
C17 C16 1_555 1_555
C18 C17 1_555 1_555
C19 C14 1_555 1_555
C20 C17 1_555 1_555
H1 C1 1_555 1_555
H2 C2 1_555 1_555
H3 C2 1_555 1_555
H4 C3 1_555 1_555
H5 C3 1_555 1_555
H6 C8 1_555 1_555
H7 C8 1_555 1_555
H8 C8 1_555 1_555
H9 C9 1_555 1_555
H10 C9 1_555 1_555
H11 C9 1_555 1_555
H12 C10 1_555 1_555
H13 C10 1_555 1_555
H14 C11 1_555 1_555
H15 C11 1_555 1_555
H16 C11 1_555 1_555
H17 C12 1_555 1_555
H18 C12 1_555 1_555
H19 C12 1_555 1_555
H20 C13 1_555 1_555
H21 C13 1_555 1_555
H22 C13 1_555 1_555
H23 C15 1_555 1_555
H24 C16 1_555 1_555
H25 C18 1_555 1_555
H26 C19 1_555 1_555
H27 C20 1_555 1_555
H28 C20 1_555 1_555
H29 C20 1_555 1_555
N1 C7 1_555 1_555
C4 C5 1_555 1_555
C18 C19 1_555 1_555

#END
