
#######################################################################
#
#                 Cambridge Crystallographic Data Centre
#                                CCDC 
#
#######################################################################
#
# If this CIF has been generated from an entry in the Cambridge 
# Structural Database, then it will include bibliographic, chemical, 
# crystal, experimental, refinement or atomic coordinate data resulting 
# from the CCDC's data processing and validation procedures.
#
#######################################################################

data_MEDJOX
_chemical_formula_moiety         'C42 H48 N2 O3 P2 S2 Sr1,0.5(C4 H8 O1)'
_chemical_name_systematic        
"(N,N'-1,2-phenylenebis(P,P-diphenyl(phosphinothioic amide)))-tris(tetrahydrofuran)-strontium tetrahydrofuran solvate"
_symmetry_cell_setting           triclinic
_symmetry_space_group_name_H-M   'P -1'
_symmetry_Int_Tables_number      2
_space_group_name_Hall           '-P 1'
loop_
_symmetry_equiv_pos_site_id
_symmetry_equiv_pos_as_xyz
1 x,y,z
2 -x,-y,-z
_cell_length_a                   9.4402(3)
_cell_length_b                   13.6014(6)
_cell_length_c                   17.3336(8)
_cell_angle_alpha                77.402(4)
_cell_angle_beta                 81.983(3)
_cell_angle_gamma                82.466(3)
_cell_volume                     2139.11
_exptl_crystal_colour            colorless
_exptl_crystal_description       block
_cell_formula_units_Z            2
loop_
_atom_site_label
_atom_site_type_symbol
_atom_site_fract_x
_atom_site_fract_y
_atom_site_fract_z
Sr1 Sr 0.18682(3) 0.20887(2) 0.15655(2)
S1 S 0.16184(9) 0.44299(6) 0.11534(5)
S2 S 0.19160(9) -0.02238(6) 0.18032(5)
P1 P 0.26015(8) 0.41941(6) 0.21362(5)
P2 P 0.28339(8) -0.01626(6) 0.27609(5)
O1 O -0.0707(2) 0.2056(2) 0.22053(14)
O2 O 0.0698(3) 0.21759(18) 0.02888(13)
N1 N 0.3020(3) 0.09967(19) 0.27516(14)
O3 O 0.4092(3) 0.1909(2) 0.05563(15)
N2 N 0.2603(3) 0.30171(19) 0.25479(14)
C1 C 0.3305(3) 0.1413(2) 0.33758(17)
C2 C 0.3752(3) 0.0858(2) 0.40938(18)
H1 H 0.386249 0.015464 0.417730
C3 C 0.3133(3) 0.2494(2) 0.32583(17)
C4 C 0.1680(3) 0.5036(2) 0.27732(18)
C5 C 0.4039(3) 0.1318(3) 0.46860(18)
H2 H 0.433418 0.092582 0.515752
C6 C 0.3439(3) 0.2941(2) 0.38619(19)
H3 H 0.334414 0.364323 0.378798
C7 C 0.4526(4) -0.0984(2) 0.27632(19)
C8 C 0.2228(4) -0.1545(3) 0.42352(19)
H4 H 0.318870 -0.180950 0.418971
C9 C 0.0292(4) -0.0358(3) 0.3740(2)
H5 H -0.005434 0.017264 0.335344
C10 C 0.0693(4) 0.4648(3) 0.3404(2)
H6 H 0.054322 0.396714 0.350144
C11 C 0.4426(3) 0.4553(2) 0.18787(19)
C12 C 0.1881(4) 0.6056(3) 0.2637(2)
H7 H 0.254316 0.632279 0.221932
C13 C 0.6676(4) 0.4880(3) 0.2257(3)
H8 H 0.718781 0.501340 0.263738
C14 C 0.1725(3) -0.0750(2) 0.36517(18)
C15 C 0.5763(4) -0.0681(3) 0.2931(2)
H9 H 0.574739 -0.003865 0.303905
C16 C -0.0066(4) 0.5271(3) 0.3889(2)
H10 H -0.071301 0.500511 0.431447
C17 C -0.1221(4) 0.2367(3) 0.2949(2)
H11 H -0.128911 0.309829 0.287999
H12 H -0.058183 0.206460 0.334869
C18 C 0.1101(4) 0.6685(3) 0.3118(3)
H13 H 0.123306 0.736842 0.301852
C19 C 0.1290(4) -0.1940(3) 0.4884(2)
H14 H 0.162599 -0.247624 0.526948
C20 C 0.5207(4) 0.4759(2) 0.2436(2)
H15 H 0.474801 0.481671 0.293764
C21 C -0.0622(4) -0.0748(3) 0.4396(2)
H16 H -0.157432 -0.046822 0.445430
C22 C 0.0190(4) 0.3078(3) -0.0255(2)
H17 H 0.063707 0.365700 -0.019767
H18 H -0.084546 0.321994 -0.015114
C23 C -0.0136(4) -0.1551(3) 0.4966(2)
H19 H -0.076064 -0.182552 0.540052
C24 C 0.5142(4) 0.4491(3) 0.1126(2)
H20 H 0.463408 0.436624 0.074099
C25 C 0.3883(4) 0.2360(3) 0.45731(19)
H21 H 0.407214 0.267458 0.496785
C26 C 0.7362(4) 0.4799(3) 0.1507(3)
H22 H 0.833894 0.487043 0.138506
C27 C 0.4580(4) -0.1939(3) 0.2593(3)
H23 H 0.375570 -0.215099 0.247021
C28 C -0.3230(4) 0.2067(3) 0.2397(2)
H24 H -0.396479 0.161498 0.244072
H25 H -0.361099 0.275397 0.217889
C29 C 0.6590(4) 0.4613(3) 0.0943(2)
H26 H 0.704479 0.456838 0.043827
C30 C 0.7033(4) -0.1321(3) 0.2941(2)
H27 H 0.786306 -0.110685 0.305469
C31 C -0.2687(4) 0.1994(4) 0.3187(2)
H28 H -0.261754 0.130112 0.348504
H29 H -0.330824 0.242028 0.350315
C32 C 0.0848(5) 0.1325(3) -0.0103(2)
H30 H 0.019990 0.083124 0.017259
H31 H 0.182601 0.099860 -0.011377
C33 C 0.7065(5) -0.2271(3) 0.2784(2)
H32 H 0.791054 -0.270750 0.279859
C34 C 0.0133(4) 0.6285(3) 0.3742(3)
H33 H -0.038841 0.670092 0.406548
C35 C 0.0478(5) 0.1753(3) -0.0937(2)
H34 H 0.114564 0.145084 -0.131982
H35 H -0.048993 0.162880 -0.098784
C36 C -0.1883(4) 0.1741(3) 0.1905(3)
H36 H -0.177146 0.101178 0.195402
H37 H -0.191855 0.205802 0.134869
C37 C 0.5253(5) 0.1120(4) 0.0696(3)
H38 H 0.494549 0.047252 0.067879
H39 H 0.555594 0.107535 0.121599
C38 C 0.4424(5) 0.2518(4) -0.0218(3)
H40 H 0.404263 0.321806 -0.023080
H41 H 0.401728 0.227239 -0.061556
C39 C 0.0595(5) 0.2868(3) -0.1067(2)
H42 H 0.156718 0.302474 -0.127065
H43 H -0.006248 0.325343 -0.143257
C40 C 0.5832(5) -0.2574(3) 0.2603(3)
H44 H 0.585177 -0.321279 0.248789
C41 C 0.6454(5) 0.1371(4) 0.0067(3)
H45 H 0.659931 0.089895 -0.029018
H46 H 0.733937 0.135258 0.029696
C42 C 0.6002(6) 0.2426(5) -0.0368(4)
H47 H 0.639141 0.292793 -0.016011
H48 H 0.631935 0.250837 -0.093287
C43? C 0.559(6) 0.453(2) 0.546(3)
C44? C 0.477(2) 0.511(2) 0.4170(10)
C45? C 0.592(4) 0.467(3) 0.455(2)
O4? O 0.602(2) 0.4485(16) 0.5359(14)
C46? C 0.590(5) 0.513(3) 0.441(2)
loop_
_geom_bond_atom_site_label_1
_geom_bond_atom_site_label_2
_geom_bond_site_symmetry_1
_geom_bond_site_symmetry_2
Sr1 S1 1_555 1_555
S1 P1 1_555 1_555
S2 Sr1 1_555 1_555
P1 N2 1_555 1_555
P2 S2 1_555 1_555
O1 Sr1 1_555 1_555
O2 Sr1 1_555 1_555
N1 Sr1 1_555 1_555
O3 Sr1 1_555 1_555
N2 Sr1 1_555 1_555
C1 N1 1_555 1_555
C2 C1 1_555 1_555
H1 C2 1_555 1_555
C3 N2 1_555 1_555
C4 P1 1_555 1_555
C5 C2 1_555 1_555
H2 C5 1_555 1_555
C6 C3 1_555 1_555
H3 C6 1_555 1_555
C7 P2 1_555 1_555
C8 H4 1_555 1_555
C9 H5 1_555 1_555
C10 C4 1_555 1_555
H6 C10 1_555 1_555
C11 P1 1_555 1_555
C12 C4 1_555 1_555
H7 C12 1_555 1_555
C13 H8 1_555 1_555
C14 P2 1_555 1_555
C15 C7 1_555 1_555
H9 C15 1_555 1_555
C16 C10 1_555 1_555
H10 C16 1_555 1_555
C17 O1 1_555 1_555
H11 C17 1_555 1_555
H12 C17 1_555 1_555
C18 C12 1_555 1_555
H13 C18 1_555 1_555
C19 C8 1_555 1_555
H14 C19 1_555 1_555
C20 C11 1_555 1_555
H15 C20 1_555 1_555
C21 C9 1_555 1_555
H16 C21 1_555 1_555
C22 O2 1_555 1_555
H17 C22 1_555 1_555
H18 C22 1_555 1_555
C23 C19 1_555 1_555
H19 C23 1_555 1_555
C24 C11 1_555 1_555
H20 C24 1_555 1_555
C25 C5 1_555 1_555
H21 C25 1_555 1_555
C26 C13 1_555 1_555
H22 C26 1_555 1_555
C27 C7 1_555 1_555
H23 C27 1_555 1_555
C28 H24 1_555 1_555
H25 C28 1_555 1_555
C29 C24 1_555 1_555
H26 C29 1_555 1_555
C30 C15 1_555 1_555
H27 C30 1_555 1_555
C31 C17 1_555 1_555
H28 C31 1_555 1_555
H29 C31 1_555 1_555
C32 O2 1_555 1_555
H30 C32 1_555 1_555
H31 C32 1_555 1_555
C33 C30 1_555 1_555
H32 C33 1_555 1_555
C34 C16 1_555 1_555
H33 C34 1_555 1_555
C35 C32 1_555 1_555
H34 C35 1_555 1_555
H35 C35 1_555 1_555
C36 O1 1_555 1_555
H36 C36 1_555 1_555
H37 C36 1_555 1_555
C37 O3 1_555 1_555
H38 C37 1_555 1_555
H39 C37 1_555 1_555
C38 O3 1_555 1_555
H40 C38 1_555 1_555
H41 C38 1_555 1_555
C39 C22 1_555 1_555
H42 C39 1_555 1_555
H43 C39 1_555 1_555
C40 C27 1_555 1_555
H44 C40 1_555 1_555
C41 C37 1_555 1_555
H45 C41 1_555 1_555
H46 C41 1_555 1_555
C42 C38 1_555 1_555
H47 C42 1_555 1_555
H48 C42 1_555 1_555
P2 N1 1_555 1_555
C1 C3 1_555 1_555
C6 C25 1_555 1_555
C8 C14 1_555 1_555
C9 C14 1_555 1_555
C13 C20 1_555 1_555
C18 C34 1_555 1_555
C21 C23 1_555 1_555
C26 C29 1_555 1_555
C28 C31 1_555 1_555
C28 C36 1_555 1_555
C33 C40 1_555 1_555
C35 C39 1_555 1_555
C41 C42 1_555 1_555

#END
