
#######################################################################
#
#                 Cambridge Crystallographic Data Centre
#                                CCDC 
#
#######################################################################
#
# If this CIF has been generated from an entry in the Cambridge 
# Structural Database, then it will include bibliographic, chemical, 
# crystal, experimental, refinement or atomic coordinate data resulting 
# from the CCDC's data processing and validation procedures.
#
#######################################################################

data_MEDKEO
_chemical_formula_moiety         'C42 H48 Ba1 N2 O3 P2 Se2,0.5(C4 H8 O1)'
_chemical_name_systematic        
"(N,N'-1,2-phenylenebis(P,P-diphenyl(phosphinoselenoic amide)))-tris(tetrahydrofuran)-barium tetrahydrofuran solvate"
_symmetry_cell_setting           triclinic
_symmetry_space_group_name_H-M   'P -1'
_symmetry_Int_Tables_number      2
_space_group_name_Hall           '-P 1'
loop_
_symmetry_equiv_pos_site_id
_symmetry_equiv_pos_as_xyz
1 x,y,z
2 -x,-y,-z
_cell_length_a                   9.6677(5)
_cell_length_b                   13.6066(7)
_cell_length_c                   17.3560(12)
_cell_angle_alpha                78.179(5)
_cell_angle_beta                 81.280(5)
_cell_angle_gamma                82.210(4)
_cell_volume                     2195.92
_exptl_crystal_colour            colorless
_exptl_crystal_description       block
_cell_formula_units_Z            2
loop_
_atom_site_label
_atom_site_type_symbol
_atom_site_fract_x
_atom_site_fract_y
_atom_site_fract_z
Ba1 Ba 0.69021(3) 0.18911(2) 0.14592(2)
Se1 Se 0.71204(7) -0.05960(4) 0.17725(3)
Se2 Se 0.65214(6) 0.43876(4) 0.11197(3)
P1 P 0.76150(13) 0.40506(9) 0.21500(7)
P2 P 0.79364(14) -0.03672(9) 0.28049(7)
O1 O 0.4266(4) 0.1784(3) 0.2232(2)
O2 O 0.9084(5) 0.1828(4) 0.0245(3)
O3 O 0.5540(5) 0.2080(3) 0.0132(2)
N1 N 0.8076(4) 0.0810(3) 0.2737(2)
N2 N 0.7645(4) 0.2866(3) 0.2519(2)
C1 C 0.2235(7) 0.1954(6) 0.3147(4)
H1 H 0.221566 0.130105 0.349896
H2 H 0.163231 0.245702 0.340080
C2 C 1.0864(7) 0.2700(6) -0.0606(4)
H3 H 1.129782 0.253139 -0.111104
H4 H 1.100227 0.339097 -0.060020
C3 C 0.6016(10) 0.1725(7) -0.1144(5)
H5 H 0.702090 0.172110 -0.130960
H6 H 0.562554 0.135905 -0.146965
C4 C 1.0417(9) 0.1259(6) 0.0359(6)
H7 H 1.058742 0.071564 0.006007
H8 H 1.045621 0.097265 0.091598
C5 C 1.1458(8) 0.1989(6) 0.0067(5)
H9 H 1.236364 0.165151 -0.011203
H10 H 1.157413 0.234422 0.047992
C6 C 0.9330(8) 0.2560(8) -0.0468(4)
H11 H 0.877016 0.319569 -0.041387
H12 H 0.906802 0.232801 -0.091250
C7 C 0.8146(5) 0.2348(4) 0.3224(3)
C8 C 0.8314(5) 0.1270(4) 0.3354(3)
C9 C 0.8720(5) 0.0738(4) 0.4081(3)
H13 H 0.880864 0.003631 0.417563
C10 C 0.5378(6) -0.0431(5) 0.3750(3)
H14 H 0.508812 0.009642 0.335602
C11 C 0.6765(6) -0.0869(4) 0.3688(3)
C12 C 0.8996(5) 0.1221(4) 0.4668(3)
H15 H 0.926697 0.084738 0.514270
C13 C 0.7180(7) -0.1648(4) 0.4294(3)
H16 H 0.811010 -0.193738 0.427003
C14 C 0.5727(8) 0.1265(5) -0.0288(4)
H17 H 0.488361 0.092142 -0.019015
H18 H 0.650942 0.078186 -0.012386
C15 C 0.6722(5) 0.4860(4) 0.2826(3)
C16 C 0.6916(6) 0.5879(4) 0.2717(3)
H19 H 0.756665 0.615526 0.230569
C17 C 0.8444(5) 0.2813(4) 0.3825(3)
H20 H 0.835892 0.351427 0.374446
C18 C 0.9595(5) -0.1176(4) 0.2882(3)
C19 C 1.0160(6) 0.4639(4) 0.2418(3)
H21 H 0.972453 0.470475 0.292360
C20 C 0.5724(6) 0.4467(4) 0.3442(3)
H22 H 0.556590 0.379322 0.351426
C21 C 1.0066(6) 0.4346(4) 0.1107(3)
H23 H 0.955789 0.420011 0.073779
C22 C 0.8860(5) 0.2261(4) 0.4532(3)
H24 H 0.904859 0.259429 0.491618
C23 C 1.1476(6) 0.4492(5) 0.0890(4)
H25 H 1.190599 0.445268 0.037827
C24 C 0.9395(5) 0.4414(4) 0.1868(3)
C25 C 1.0784(6) -0.0805(5) 0.2999(4)
H26 H 1.075400 -0.012675 0.302575
C26 C 0.4831(6) -0.1559(5) 0.4989(3)
H27 H 0.418124 -0.178847 0.541922
C27 C 0.5176(6) 0.6081(5) 0.3834(4)
H28 H 0.466400 0.648727 0.417220
C28 C 0.9657(7) -0.2183(5) 0.2827(4)
H29 H 0.886069 -0.243434 0.273706
C29 C 0.5136(8) 0.3010(5) -0.0396(4)
H30 H 0.572527 0.352577 -0.037881
H31 H 0.416176 0.325410 -0.024777
C30 C 1.2235(6) 0.4697(4) 0.1444(4)
H32 H 1.318321 0.478841 0.130595
C31 C 0.4430(7) -0.0776(5) 0.4395(4)
H33 H 0.350558 -0.047542 0.443099
C32 C 0.6196(7) -0.1994(4) 0.4936(3)
H34 H 0.647159 -0.252469 0.533180
C33 C 0.6140(6) 0.6486(4) 0.3222(4)
H35 H 0.627239 0.716506 0.314599
C34 C 0.1802(7) 0.1920(5) 0.2363(4)
H36 H 0.101811 0.152201 0.242468
H37 H 0.154977 0.259251 0.207093
C35 C 1.2033(7) -0.1435(6) 0.3078(4)
H38 H 1.283441 -0.118322 0.316073
C36 C 0.3730(7) 0.2241(6) 0.2917(4)
H39 H 0.373225 0.296844 0.278403
H40 H 0.429200 0.197654 0.334720
C37 C 0.3112(7) 0.1423(6) 0.1965(4)
H41 H 0.314759 0.069365 0.211673
H42 H 0.315097 0.160793 0.139253
C38 C 1.2068(7) -0.2444(5) 0.3032(4)
H43 H 1.289756 -0.287130 0.308823
C39 C 1.1587(6) 0.4766(4) 0.2202(4)
H44 H 1.210689 0.489734 0.257181
C40 C 1.0889(8) -0.2816(5) 0.2906(4)
H45 H 1.092012 -0.349224 0.287234
C41 C 0.4968(6) 0.5075(5) 0.3946(4)
H46 H 0.431981 0.480412 0.436158
C42 C 0.5333(13) 0.2756(8) -0.1209(5)
H47 H 0.443048 0.280772 -0.140128
H48 H 0.591502 0.321849 -0.157586
C43? C 0.914(4) 0.517(4) 0.462(2)
C44? C 1.0912(12) 0.4646(10) 0.4542(6)
C45? C 0.879(4) 0.536(4) 0.474(2)
O4? O 0.9870(15) 0.4916(11) 0.4218(7)
loop_
_geom_bond_atom_site_label_1
_geom_bond_atom_site_label_2
_geom_bond_site_symmetry_1
_geom_bond_site_symmetry_2
Ba1 Se1 1_555 1_555
Se1 P2 1_555 1_555
Se2 Ba1 1_555 1_555
P1 Se2 1_555 1_555
P2 N1 1_555 1_555
O1 Ba1 1_555 1_555
O2 Ba1 1_555 1_555
O3 Ba1 1_555 1_555
N1 Ba1 1_555 1_555
N2 Ba1 1_555 1_555
C1 H1 1_555 1_555
H2 C1 1_555 1_555
C2 H3 1_555 1_555
H4 C2 1_555 1_555
C3 H5 1_555 1_555
H6 C3 1_555 1_555
C4 O2 1_555 1_555
H7 C4 1_555 1_555
H8 C4 1_555 1_555
C5 C2 1_555 1_555
H9 C5 1_555 1_555
H10 C5 1_555 1_555
C6 O2 1_555 1_555
H11 C6 1_555 1_555
H12 C6 1_555 1_555
C7 N2 1_555 1_555
C8 N1 1_555 1_555
C9 C8 1_555 1_555
H13 C9 1_555 1_555
C10 H14 1_555 1_555
C11 P2 1_555 1_555
C12 C9 1_555 1_555
H15 C12 1_555 1_555
C13 C11 1_555 1_555
H16 C13 1_555 1_555
C14 O3 1_555 1_555
H17 C14 1_555 1_555
H18 C14 1_555 1_555
C15 P1 1_555 1_555
C16 C15 1_555 1_555
H19 C16 1_555 1_555
C17 C7 1_555 1_555
H20 C17 1_555 1_555
C18 P2 1_555 1_555
C19 H21 1_555 1_555
C20 C15 1_555 1_555
H22 C20 1_555 1_555
C21 H23 1_555 1_555
C22 C12 1_555 1_555
H24 C22 1_555 1_555
C23 C21 1_555 1_555
H25 C23 1_555 1_555
C24 P1 1_555 1_555
C25 C18 1_555 1_555
H26 C25 1_555 1_555
C26 H27 1_555 1_555
C27 H28 1_555 1_555
C28 C18 1_555 1_555
H29 C28 1_555 1_555
C29 O3 1_555 1_555
H30 C29 1_555 1_555
H31 C29 1_555 1_555
C30 C23 1_555 1_555
H32 C30 1_555 1_555
C31 C10 1_555 1_555
H33 C31 1_555 1_555
C32 C13 1_555 1_555
H34 C32 1_555 1_555
C33 C16 1_555 1_555
H35 C33 1_555 1_555
C34 C1 1_555 1_555
H36 C34 1_555 1_555
H37 C34 1_555 1_555
C35 C25 1_555 1_555
H38 C35 1_555 1_555
C36 O1 1_555 1_555
H39 C36 1_555 1_555
H40 C36 1_555 1_555
C37 O1 1_555 1_555
H41 C37 1_555 1_555
H42 C37 1_555 1_555
C38 C35 1_555 1_555
H43 C38 1_555 1_555
C39 C19 1_555 1_555
H44 C39 1_555 1_555
C40 C28 1_555 1_555
H45 C40 1_555 1_555
C41 C20 1_555 1_555
H46 C41 1_555 1_555
C42 C3 1_555 1_555
H47 C42 1_555 1_555
H48 C42 1_555 1_555
P1 N2 1_555 1_555
C1 C36 1_555 1_555
C2 C6 1_555 1_555
C3 C14 1_555 1_555
C4 C5 1_555 1_555
C7 C8 1_555 1_555
C10 C11 1_555 1_555
C17 C22 1_555 1_555
C19 C24 1_555 1_555
C21 C24 1_555 1_555
C26 C31 1_555 1_555
C26 C32 1_555 1_555
C27 C33 1_555 1_555
C27 C41 1_555 1_555
C29 C42 1_555 1_555
C30 C39 1_555 1_555
C34 C37 1_555 1_555
C38 C40 1_555 1_555

#END
