
#######################################################################
#
#                 Cambridge Crystallographic Data Centre
#                                CCDC 
#
#######################################################################
#
# If this CIF has been generated from an entry in the Cambridge 
# Structural Database, then it will include bibliographic, chemical, 
# crystal, experimental, refinement or atomic coordinate data resulting 
# from the CCDC's data processing and validation procedures.
#
#######################################################################

data_MEDPUJ
_chemical_formula_moiety         'C11 H8 N2 O1'
_chemical_name_systematic        2-(2-methylphenyl)-1,3-oxazole-5-carbonitrile
_symmetry_cell_setting           monoclinic
_symmetry_space_group_name_H-M   'P 21/c'
_symmetry_Int_Tables_number      14
_space_group_name_Hall           '-P 2ybc'
loop_
_symmetry_equiv_pos_site_id
_symmetry_equiv_pos_as_xyz
1 x,y,z
2 -x,1/2+y,1/2-z
3 -x,-y,-z
4 x,1/2-y,1/2+z
_cell_length_a                   7.8533(8)
_cell_length_b                   17.4662(14)
_cell_length_c                   13.5621(15)
_cell_angle_alpha                90
_cell_angle_beta                 97.846(8)
_cell_angle_gamma                90
_cell_volume                     1842.86
_cell_formula_units_Z            8
loop_
_atom_site_label
_atom_site_type_symbol
_atom_site_fract_x
_atom_site_fract_y
_atom_site_fract_z
O1 O 0.30878(13) 0.35703(6) 0.35550(8)
N1 N 0.09703(17) 0.43580(8) 0.37686(11)
C1 C 0.38963(19) 0.48908(9) 0.37163(11)
C2 C 0.25813(19) 0.43028(9) 0.36858(11)
C3 C 0.4899(2) 0.61708(10) 0.39208(13)
H1 H 0.4698 0.6685 0.4042
C4 C 0.3548(2) 0.56620(9) 0.38860(12)
C5 C 0.1627(2) 0.31481(10) 0.35559(12)
C6 C 0.5543(2) 0.46697(10) 0.35797(12)
H2 H 0.5769 0.4157 0.3466
C7 C 0.0362(2) 0.36242(10) 0.36825(13)
H3 H -0.0772 0.3481 0.3709
C8 C 0.6846(2) 0.51979(10) 0.36094(13)
H4 H 0.7944 0.5045 0.3511
C9 C 0.6514(2) 0.59513(11) 0.37847(13)
H5 H 0.7390 0.6312 0.3811
C10 C 0.1806(2) 0.59527(10) 0.40266(16)
H6 H 0.1050 0.5914 0.3410
H7 H 0.1892 0.6478 0.4235
H8 H 0.1359 0.5652 0.4526
C11 C 0.1712(2) 0.23522(11) 0.34037(14)
N2 N 0.1748(2) 0.17064(10) 0.32866(15)
O2 O -0.18455(14) 0.06806(6) 0.36516(8)
N3 N -0.39138(17) -0.01137(8) 0.39318(11)
C12 C -0.1350(2) -0.14094(9) 0.39653(11)
C13 C -0.09935(18) -0.06328(8) 0.38521(10)
C14 C -0.23179(19) -0.00486(8) 0.38216(11)
C15 C -0.3319(2) 0.10949(10) 0.36570(13)
C16 C 0.0667(2) -0.04006(10) 0.37583(12)
H9 H 0.0897 0.0117 0.3680
C17 C 0.1633(2) -0.16847(11) 0.39072(14)
H10 H 0.2515 -0.2043 0.3932
C18 C -0.4561(2) 0.06144(9) 0.38216(12)
H11 H -0.5695 0.0751 0.3857
C19 C 0.0005(2) -0.19176(10) 0.39965(13)
H12 H -0.0201 -0.2436 0.4081
C20 C 0.1975(2) -0.09244(11) 0.37802(13)
H13 H 0.3082 -0.0765 0.3710
N4 N -0.3249(2) 0.25341(10) 0.33884(17)
C21 C -0.3254(2) 0.18889(11) 0.35073(16)
C22 C -0.3114(2) -0.17199(10) 0.40272(15)
H14 H -0.3556 -0.1496 0.4587
H15 H -0.3054 -0.2266 0.4107
H16 H -0.3861 -0.1596 0.3428
loop_
_geom_bond_atom_site_label_1
_geom_bond_atom_site_label_2
_geom_bond_site_symmetry_1
_geom_bond_site_symmetry_2
O1 C2 1_555 1_555
N1 C2 1_555 1_555
C1 C2 1_555 1_555
C3 H1 1_555 1_555
C4 C1 1_555 1_555
C5 O1 1_555 1_555
C6 C1 1_555 1_555
H2 C6 1_555 1_555
C7 N1 1_555 1_555
H3 C7 1_555 1_555
C8 C6 1_555 1_555
H4 C8 1_555 1_555
C9 C3 1_555 1_555
H5 C9 1_555 1_555
C10 C4 1_555 1_555
H6 C10 1_555 1_555
H7 C10 1_555 1_555
H8 C10 1_555 1_555
C11 C5 1_555 1_555
N2 C11 1_555 1_555
O2 C14 1_555 1_555
N3 C14 1_555 1_555
C12 C13 1_555 1_555
C13 C14 1_555 1_555
C15 O2 1_555 1_555
C16 C13 1_555 1_555
H9 C16 1_555 1_555
C17 H10 1_555 1_555
C18 N3 1_555 1_555
H11 C18 1_555 1_555
C19 C12 1_555 1_555
H12 C19 1_555 1_555
C20 C16 1_555 1_555
H13 C20 1_555 1_555
N4 C21 1_555 1_555
C21 C15 1_555 1_555
C22 C12 1_555 1_555
H14 C22 1_555 1_555
H15 C22 1_555 1_555
H16 C22 1_555 1_555
C3 C4 1_555 1_555
C5 C7 1_555 1_555
C8 C9 1_555 1_555
C15 C18 1_555 1_555
C17 C19 1_555 1_555
C17 C20 1_555 1_555

#END
