
#######################################################################
#
#                 Cambridge Crystallographic Data Centre
#                                CCDC 
#
#######################################################################
#
# If this CIF has been generated from an entry in the Cambridge 
# Structural Database, then it will include bibliographic, chemical, 
# crystal, experimental, refinement or atomic coordinate data resulting 
# from the CCDC's data processing and validation procedures.
#
#######################################################################

data_MEDQAQ
_chemical_formula_moiety         'C21 H20 Br1 O3 P1'
_chemical_name_systematic        
'5-bromo-2-methoxy-6-(1-naphthyl)-3-phenyl-1,2-oxaphosphinane 2-oxide'
_symmetry_cell_setting           monoclinic
_symmetry_space_group_name_H-M   'P 21/c'
_symmetry_Int_Tables_number      14
_space_group_name_Hall           '-P 2ybc'
loop_
_symmetry_equiv_pos_site_id
_symmetry_equiv_pos_as_xyz
1 x,y,z
2 -x,1/2+y,1/2-z
3 -x,-y,-z
4 x,1/2-y,1/2+z
_cell_length_a                   5.4900(2)
_cell_length_b                   19.9165(6)
_cell_length_c                   18.1684(8)
_cell_angle_alpha                90
_cell_angle_beta                 94.993(4)
_cell_angle_gamma                90
_cell_volume                     1979.02
_exptl_crystal_colour            colorless
_exptl_crystal_description       block
_cell_formula_units_Z            4
loop_
_atom_site_label
_atom_site_type_symbol
_atom_site_fract_x
_atom_site_fract_y
_atom_site_fract_z
Br1 Br 0.55072(19) 0.45649(4) 0.63258(4)
P1 P 0.1691(2) 0.67622(7) 0.65857(8)
O1 O 0.2284(7) 0.74898(18) 0.6863(2)
O2 O -0.0935(7) 0.6650(2) 0.6465(3)
O3 O 0.3055(7) 0.63294(17) 0.72274(19)
C1 C 0.4674(13) 0.7693(4) 0.7180(4)
H1 H 0.5878 0.7576 0.6850
H2 H 0.5040 0.7469 0.7644
H3 H 0.4692 0.8170 0.7258
C2 C 0.3385(9) 0.6575(3) 0.5803(3)
H4 H 0.5037 0.6755 0.5915
C3 C 0.3630(12) 0.5807(3) 0.5749(3)
H5 H 0.2023 0.5608 0.5649
H6 H 0.4594 0.5694 0.5344
C4 C 0.4848(11) 0.5522(3) 0.6464(3)
H7 H 0.6418 0.5752 0.6571
C5 C 0.3365(10) 0.5612(3) 0.7123(3)
H8 H 0.1762 0.5398 0.7023
C6 C 0.4615(10) 0.5348(3) 0.7855(3)
C7 C 0.6639(11) 0.5683(3) 0.8155(3)
H9 H 0.7254 0.6044 0.7904
C8 C 0.7797(15) 0.5483(4) 0.8842(4)
H10 H 0.9152 0.5718 0.9047
C9 C 0.6954(17) 0.4954(4) 0.9202(4)
H11 H 0.7741 0.4823 0.9654
C10 C 0.4874(14) 0.4593(3) 0.8900(4)
C11 C 0.3694(11) 0.4795(3) 0.8211(3)
C12 C 0.1604(12) 0.4422(3) 0.7913(5)
H12 H 0.0791 0.4535 0.7459
C13 C 0.0842(18) 0.3893(4) 0.8317(7)
H13 H -0.0494 0.3644 0.8120
C14 C 0.192(2) 0.3709(4) 0.8989(7)
H14 H 0.1295 0.3354 0.9247
C15 C 0.392(2) 0.4051(4) 0.9279(5)
H15 H 0.4679 0.3924 0.9736
C16 C 0.2346(10) 0.6906(3) 0.5096(3)
C17 C 0.3512(14) 0.7441(4) 0.4819(4)
H16 H 0.4941 0.7600 0.5072
C18 C 0.2616(19) 0.7757(5) 0.4165(5)
H17 H 0.3438 0.8125 0.3991
C19 C 0.0563(18) 0.7530(5) 0.3785(4)
H18 H -0.0062 0.7747 0.3356
C20 C -0.0592(16) 0.6980(5) 0.4035(5)
H19 H -0.1970 0.6810 0.3764
C21 C 0.0275(13) 0.6672(4) 0.4691(4)
H20 H -0.0551 0.6302 0.4860
loop_
_geom_bond_atom_site_label_1
_geom_bond_atom_site_label_2
_geom_bond_site_symmetry_1
_geom_bond_site_symmetry_2
Br1 C4 1_555 1_555
P1 O1 1_555 1_555
O1 C1 1_555 1_555
O2 P1 1_555 1_555
O3 P1 1_555 1_555
C1 H1 1_555 1_555
H2 C1 1_555 1_555
H3 C1 1_555 1_555
C2 P1 1_555 1_555
H4 C2 1_555 1_555
C3 C2 1_555 1_555
H5 C3 1_555 1_555
H6 C3 1_555 1_555
C4 C3 1_555 1_555
H7 C4 1_555 1_555
C5 O3 1_555 1_555
H8 C5 1_555 1_555
C6 C5 1_555 1_555
C7 C6 1_555 1_555
H9 C7 1_555 1_555
C8 C7 1_555 1_555
H10 C8 1_555 1_555
C9 C8 1_555 1_555
H11 C9 1_555 1_555
C10 C9 1_555 1_555
C11 C6 1_555 1_555
C12 C11 1_555 1_555
H12 C12 1_555 1_555
C13 C12 1_555 1_555
H13 C13 1_555 1_555
C14 C13 1_555 1_555
H14 C14 1_555 1_555
C15 C10 1_555 1_555
H15 C15 1_555 1_555
C16 C2 1_555 1_555
C17 C16 1_555 1_555
H16 C17 1_555 1_555
C18 C17 1_555 1_555
H17 C18 1_555 1_555
C19 C18 1_555 1_555
H18 C19 1_555 1_555
C20 C19 1_555 1_555
H19 C20 1_555 1_555
C21 C16 1_555 1_555
H20 C21 1_555 1_555
C4 C5 1_555 1_555
C10 C11 1_555 1_555
C14 C15 1_555 1_555
C20 C21 1_555 1_555

#END
