
#######################################################################
#
#                 Cambridge Crystallographic Data Centre
#                                CCDC 
#
#######################################################################
#
# If this CIF has been generated from an entry in the Cambridge 
# Structural Database, then it will include bibliographic, chemical, 
# crystal, experimental, refinement or atomic coordinate data resulting 
# from the CCDC's data processing and validation procedures.
#
#######################################################################

data_MEDRIY
_chemical_name_common            '5-oxo-epiguanacastepene O'
_chemical_formula_moiety         'C22 H26 O6'
_chemical_name_systematic        
'8-Isopropyl-5a,7a-dimethyl-2,3,10-trioxo-3,4,5,5a,6,7,7a,8,9,10-decahydro-2H-1-oxabenzo[cd]cyclopenta[h]azulen-9-yl acetate'
_symmetry_cell_setting           monoclinic
_symmetry_space_group_name_H-M   'C c'
_symmetry_Int_Tables_number      9
_space_group_name_Hall           'C -2yc'
loop_
_symmetry_equiv_pos_site_id
_symmetry_equiv_pos_as_xyz
1 x,y,z
2 1/2+x,1/2+y,z
3 x,-y,1/2+z
4 1/2+x,1/2-y,1/2+z
_cell_length_a                   18.868(3)
_cell_length_b                   12.728(2)
_cell_length_c                   16.215(3)
_cell_angle_alpha                90
_cell_angle_beta                 92.649(4)
_cell_angle_gamma                90
_cell_volume                     3889.9
_cell_formula_units_Z            8
loop_
_atom_site_label
_atom_site_type_symbol
_atom_site_fract_x
_atom_site_fract_y
_atom_site_fract_z
C1 C 0.3014(7) -0.3427(8) 0.5136(7)
C2 C 0.3173(5) -0.3288(8) 0.4216(6)
C3 C 0.3486(4) -0.2272(6) 0.4035(5)
C4 C 0.3534(4) -0.1459(5) 0.4515(5)
C5 C 0.4075(5) -0.1811(10) 0.5883(5)
C6 C 0.3398(4) -0.1496(5) 0.5425(4)
C7 C 0.2829(6) -0.2382(7) 0.5506(6)
C8 C 0.3800(4) -0.1982(7) 0.3232(4)
C9 C 0.3851(4) -0.0602(6) 0.4051(4)
C10 C 0.3930(4) 0.0440(7) 0.4213(4)
C11 C 0.3101(6) -0.0468(6) 0.5833(6)
C12 C 0.3005(4) 0.0509(6) 0.5284(5)
C13 C 0.3684(4) 0.1008(5) 0.5013(4)
C14 C 0.4298(6) 0.1064(8) 0.5643(6)
C15 C 0.4163(4) 0.1230(7) 0.3642(5)
C16 C 0.4067(5) 0.2307(7) 0.3996(4)
C17 C 0.3495(5) 0.2154(6) 0.4617(5)
C18 C 0.3353(5) 0.3022(7) 0.5255(5)
C19 C 0.4009(7) 0.3740(9) 0.5442(6)
C20 C 0.2780(10) 0.3684(11) 0.4998(10)
C21 C 0.4395(5) 0.3690(7) 0.3102(5)
C22 C 0.4099(6) 0.4452(8) 0.2485(8)
O1 O 0.5009(4) 0.3593(6) 0.3344(5)
O2 O 0.3865(3) 0.3064(5) 0.3412(3)
O3 O 0.4377(4) 0.1087(5) 0.2938(4)
O4 O 0.3998(3) -0.0973(4) 0.3291(3)
O5 O 0.3877(4) -0.2503(5) 0.2610(3)
O6 O 0.3069(4) -0.4001(5) 0.3716(5)
H1 H 0.4430(30) 0.4780(40) 0.2240(30)
H2 H 0.3680(40) 0.4190(50) 0.2250(40)
H3 H 0.4540(60) 0.2600(70) 0.4340(60)
H4 H 0.4220(30) -0.2580(30) 0.5680(30)
H5 H 0.4080(20) -0.1850(30) 0.6450(20)
H6 H 0.2680(30) -0.3900(40) 0.5210(30)
H7 H 0.2590(50) -0.2540(60) 0.6150(50)
H8 H 0.2270(30) -0.2040(50) 0.5290(30)
H9 H 0.2550(20) -0.0650(30) 0.5920(20)
H10 H 0.2657(17) 0.0460(20) 0.4784(18)
H11 H 0.3910(90) 0.083(11) 0.6150(90)
H12 H 0.4640(30) 0.1540(50) 0.5510(30)
H13 H 0.4480(30) 0.3210(40) 0.5520(30)
H14 H 0.3840(30) 0.4210(40) 0.5900(30)
H15 H 0.3450(30) 0.2710(40) 0.5760(30)
H16 H 0.2930(40) 0.4040(50) 0.4560(40)
H17 H 0.3430(19) -0.0300(20) 0.6390(20)
C23 C 0.1854(6) 0.8422(6) 0.2617(6)
C24 C 0.2037(5) 0.7367(7) 0.2177(6)
C25 C 0.1492(4) 0.6504(6) 0.2289(4)
C26 C 0.0769(5) 0.6818(9) 0.1844(6)
C27 C 0.1661(4) 0.8317(5) 0.3478(5)
C28 C 0.1367(4) 0.7281(6) 0.3722(5)
C29 C 0.1328(3) 0.6425(5) 0.3192(3)
C30 C 0.1088(5) 0.7037(6) 0.4495(5)
C31 C 0.1040(4) 0.5559(6) 0.3660(4)
C32 C 0.0958(3) 0.4550(5) 0.3486(4)
C33 C 0.0692(4) 0.3754(5) 0.4101(4)
C34 C 0.0794(4) 0.2701(5) 0.3683(5)
C35 C 0.1359(4) 0.2903(5) 0.3081(4)
C36 C 0.1186(3) 0.3997(5) 0.2756(4)
C37 C 0.1874(4) 0.4474(6) 0.2393(5)
C38 C 0.1793(5) 0.5503(7) 0.1901(5)
C39 C 0.1471(5) 0.2011(7) 0.2447(5)
C40 C 0.0851(9) 0.1294(11) 0.2279(11)
C41 C 0.2161(6) 0.1363(8) 0.2741(6)
C42 C 0.0590(5) 0.3940(7) 0.2052(4)
C43 C 0.0487(5) 0.1326(6) 0.4593(6)
C44 C 0.0779(7) 0.0570(10) 0.5209(6)
O7 O -0.0123(4) 0.1403(6) 0.4395(5)
O8 O 0.1000(3) 0.1906(4) 0.4300(3)
O9 O 0.0494(4) 0.3897(5) 0.4769(4)
O10 O 0.0863(3) 0.5949(4) 0.4441(3)
O11 O 0.0984(4) 0.7487(4) 0.5103(3)
O12 O 0.1757(4) 0.8987(5) 0.3979(5)
H18 H 0.0930(30) 0.0010(40) 0.4990(30)
H19 H 0.0560(30) 0.0620(40) 0.5640(30)
H20 H 0.0720(30) 0.0800(40) 0.2840(30)
H21 H 0.0910(40) 0.0830(60) 0.2160(50)
H22 H 0.0460(40) 0.1450(50) 0.2000(40)
H23 H 0.2240(30) 0.0790(40) 0.2400(30)
H24 H 0.2620(20) 0.1900(30) 0.2860(20)
H25 H 0.2210(30) 0.1110(40) 0.3360(30)
H26 H 0.1690(20) 0.2360(30) 0.1900(30)
H27 H 0.1859(18) 0.2990(20) 0.3445(18)
H28 H 0.0430(30) 0.2480(40) 0.3420(30)
H29 H 0.0170(80) 0.362(11) 0.2260(80)
H30 H 0.0680(20) 0.3510(30) 0.1510(20)
H31 H 0.0460(20) 0.4700(30) 0.1960(20)
H32 H 0.2094(19) 0.3940(20) 0.2030(20)
H33 H 0.2400(40) 0.7240(50) 0.2450(40)
H34 H 0.1960(30) 0.7470(30) 0.1570(30)
H35 H 0.1360(20) 0.8700(30) 0.2290(20)
H36 H 0.0430(30) 0.6250(40) 0.1930(30)
H37 H 0.0480(40) 0.7290(50) 0.1970(40)
loop_
_geom_bond_atom_site_label_1
_geom_bond_atom_site_label_2
_geom_bond_site_symmetry_1
_geom_bond_site_symmetry_2
C1 C2 1_555 1_555
C2 C3 1_555 1_555
C3 C4 1_555 1_555
C4 C6 1_555 1_555
C5 C6 1_555 1_555
C6 C7 1_555 1_555
C7 C1 1_555 1_555
C8 C3 1_555 1_555
C9 C4 1_555 1_555
C10 C9 1_555 1_555
C11 C6 1_555 1_555
C12 C11 1_555 1_555
C13 C10 1_555 1_555
C14 C13 1_555 1_555
C15 C10 1_555 1_555
C16 C15 1_555 1_555
C17 C13 1_555 1_555
C18 C17 1_555 1_555
C19 C18 1_555 1_555
C20 C18 1_555 1_555
C21 C22 1_555 1_555
C22 H1 1_555 1_555
O1 C21 1_555 1_555
O2 C16 1_555 1_555
O3 C15 1_555 1_555
O4 C8 1_555 1_555
O5 C8 1_555 1_555
O6 C2 1_555 1_555
H2 C22 1_555 1_555
H3 C16 1_555 1_555
H4 C5 1_555 1_555
H5 C5 1_555 1_555
H6 C1 1_555 1_555
H7 C7 1_555 1_555
H8 C7 1_555 1_555
H9 C11 1_555 1_555
H10 C12 1_555 1_555
H11 C14 1_555 1_555
H12 C14 1_555 1_555
H13 C19 1_555 1_555
H14 C19 1_555 1_555
H15 C18 1_555 1_555
H16 C20 1_555 1_555
H17 C11 1_555 1_555
C23 C24 1_555 1_555
C24 C25 1_555 1_555
C25 C26 1_555 1_555
C26 H36 1_555 1_555
C27 C23 1_555 1_555
C28 C27 1_555 1_555
C29 C25 1_555 1_555
C30 C28 1_555 1_555
C31 C29 1_555 1_555
C32 C31 1_555 1_555
C33 C32 1_555 1_555
C34 C33 1_555 1_555
C35 C34 1_555 1_555
C36 C32 1_555 1_555
C37 C36 1_555 1_555
C38 C25 1_555 1_555
C39 C35 1_555 1_555
C40 C39 1_555 1_555
C41 C39 1_555 1_555
C42 C36 1_555 1_555
C43 C44 1_555 1_555
C44 H18 1_555 1_555
O7 C43 1_555 1_555
O8 C34 1_555 1_555
O9 C33 1_555 1_555
O10 C30 1_555 1_555
O11 C30 1_555 1_555
O12 C27 1_555 1_555
H19 C44 1_555 1_555
H20 C40 1_555 1_555
H21 C40 1_555 1_555
H22 C40 1_555 1_555
H23 C41 1_555 1_555
H24 C41 1_555 1_555
H25 C41 1_555 1_555
H26 C39 1_555 1_555
H27 C35 1_555 1_555
H28 C34 1_555 1_555
H29 C42 1_555 1_555
H30 C42 1_555 1_555
H31 C42 1_555 1_555
H32 C37 1_555 1_555
H33 C24 1_555 1_555
H34 C24 1_555 1_555
H35 C23 1_555 1_555
H37 C26 1_555 1_555
C9 O4 1_555 1_555
C12 C13 1_555 1_555
C16 C17 1_555 1_555
C21 O2 1_555 1_555
C28 C29 1_555 1_555
C31 O10 1_555 1_555
C35 C36 1_555 1_555
C37 C38 1_555 1_555
C43 O8 1_555 1_555

#END
