
#######################################################################
#
#                 Cambridge Crystallographic Data Centre
#                                CCDC 
#
#######################################################################
#
# If this CIF has been generated from an entry in the Cambridge 
# Structural Database, then it will include bibliographic, chemical, 
# crystal, experimental, refinement or atomic coordinate data resulting 
# from the CCDC's data processing and validation procedures.
#
#######################################################################

data_MEDYEB
_chemical_formula_moiety         'C27 H22 N2 O2'
_chemical_name_systematic        
7-(2-Methoxyphenyl)-6-(4-methoxyphenyl)-2-phenylpyrazolo[1,5-a]pyridine
_symmetry_cell_setting           monoclinic
_symmetry_space_group_name_H-M   'P 21'
_symmetry_Int_Tables_number      4
_space_group_name_Hall           'P 2yb'
loop_
_symmetry_equiv_pos_site_id
_symmetry_equiv_pos_as_xyz
1 x,y,z
2 -x,1/2+y,-z
_cell_length_a                   11.123(5)
_cell_length_b                   7.632(4)
_cell_length_c                   12.700(5)
_cell_angle_alpha                90
_cell_angle_beta                 90.390(10)
_cell_angle_gamma                90
_cell_volume                     1078.09
_exptl_crystal_colour            colorless
_exptl_crystal_description       prism
_cell_formula_units_Z            2
loop_
_atom_site_label
_atom_site_type_symbol
_atom_site_fract_x
_atom_site_fract_y
_atom_site_fract_z
C1 C 0.5228(5) -0.2762(11) -0.0698(4)
H1 H 0.5157 -0.2860 -0.1449
H2 H 0.5643 -0.3768 -0.0424
H3 H 0.5672 -0.1721 -0.0523
C2 C 0.3965(4) -0.2531(7) 0.0836(3)
C3 C 0.2813(4) -0.2265(6) 0.1232(3)
H4 H 0.2155 -0.2227 0.0777
C4 C 0.2653(4) -0.2060(6) 0.2297(3)
H5 H 0.1881 -0.1888 0.2554
C5 C 0.3623(4) -0.2105(6) 0.3006(3)
C6 C 0.4751(4) -0.2416(7) 0.2601(4)
H6 H 0.5403 -0.2497 0.3061
C7 C 0.4941(4) -0.2612(8) 0.1531(4)
H7 H 0.5713 -0.2796 0.1277
C8 C 0.3451(4) -0.1947(6) 0.4163(3)
C9 C 0.3928(4) -0.3300(6) 0.4838(4)
H8 H 0.4363 -0.4216 0.4543
C10 C 0.3755(4) -0.3268(6) 0.5895(4)
H9 H 0.4056 -0.4167 0.6314
C11 C 0.3123(4) -0.1879(6) 0.6351(3)
C12 C 0.2787(4) -0.1357(7) 0.7360(3)
H10 H 0.2931 -0.1955 0.7987
C13 C 0.2194(4) 0.0238(7) 0.7242(3)
C14 C 0.1685(4) 0.1372(7) 0.8081(3)
C15 C 0.1921(5) 0.1008(8) 0.9142(3)
H11 H 0.2365 0.0017 0.9320
C16 C 0.1508(5) 0.2090(9) 0.9926(4)
H12 H 0.1689 0.1840 1.0626
C17 C 0.0833(5) 0.3532(11) 0.9681(4)
H13 H 0.0562 0.4268 1.0212
C18 C 0.0555(6) 0.3889(11) 0.8649(4)
H14 H 0.0088 0.4861 0.8480
C19 C 0.0974(6) 0.2789(9) 0.7852(4)
H15 H 0.0767 0.3023 0.7155
C20 C 0.2816(4) -0.0575(6) 0.4596(3)
C21 C 0.2288(4) 0.0889(6) 0.3979(3)
C22 C 0.3031(4) 0.2068(6) 0.3438(3)
H16 H 0.3861 0.1945 0.3487
C23 C 0.2556(5) 0.3401(6) 0.2838(3)
H17 H 0.3061 0.4173 0.2487
C24 C 0.1326(5) 0.3585(7) 0.2759(3)
H18 H 0.1004 0.4482 0.2349
C25 C 0.0562(4) 0.2449(6) 0.3283(3)
H19 H -0.0266 0.2590 0.3223
C26 C 0.1028(4) 0.1105(6) 0.3894(3)
C27 C -0.0889(4) 0.0302(8) 0.4599(4)
H20 H -0.1270 -0.0650 0.4961
H21 H -0.1291 0.0499 0.3938
H22 H -0.0934 0.1343 0.5022
N1 N 0.2688(3) -0.0553(5) 0.5689(3)
N2 N 0.2116(3) 0.0748(5) 0.6222(3)
O1 O 0.4043(3) -0.2665(7) -0.0242(2)
O2 O 0.0349(3) -0.0125(4) 0.4413(2)
loop_
_geom_bond_atom_site_label_1
_geom_bond_atom_site_label_2
_geom_bond_site_symmetry_1
_geom_bond_site_symmetry_2
C1 H1 1_555 1_555
H2 C1 1_555 1_555
H3 C1 1_555 1_555
C2 C3 1_555 1_555
C3 H4 1_555 1_555
C4 C3 1_555 1_555
H5 C4 1_555 1_555
C5 C4 1_555 1_555
C6 C5 1_555 1_555
H6 C6 1_555 1_555
C7 C2 1_555 1_555
H7 C7 1_555 1_555
C8 C5 1_555 1_555
C9 C8 1_555 1_555
H8 C9 1_555 1_555
C10 C9 1_555 1_555
H9 C10 1_555 1_555
C11 C10 1_555 1_555
C12 C11 1_555 1_555
H10 C12 1_555 1_555
C13 C12 1_555 1_555
C14 C13 1_555 1_555
C15 C14 1_555 1_555
H11 C15 1_555 1_555
C16 C15 1_555 1_555
H12 C16 1_555 1_555
C17 C16 1_555 1_555
H13 C17 1_555 1_555
C18 C17 1_555 1_555
H14 C18 1_555 1_555
C19 C14 1_555 1_555
H15 C19 1_555 1_555
C20 C8 1_555 1_555
C21 C20 1_555 1_555
C22 C21 1_555 1_555
H16 C22 1_555 1_555
C23 C22 1_555 1_555
H17 C23 1_555 1_555
C24 C23 1_555 1_555
H18 C24 1_555 1_555
C25 C24 1_555 1_555
H19 C25 1_555 1_555
C26 C21 1_555 1_555
C27 H20 1_555 1_555
H21 C27 1_555 1_555
H22 C27 1_555 1_555
N1 C11 1_555 1_555
N2 C13 1_555 1_555
O1 C1 1_555 1_555
O2 C26 1_555 1_555
C2 O1 1_555 1_555
C6 C7 1_555 1_555
C18 C19 1_555 1_555
C20 N1 1_555 1_555
C25 C26 1_555 1_555
C27 O2 1_555 1_555
N1 N2 1_555 1_555

#END
