
#######################################################################
#
#                 Cambridge Crystallographic Data Centre
#                                CCDC 
#
#######################################################################
#
# If this CIF has been generated from an entry in the Cambridge 
# Structural Database, then it will include bibliographic, chemical, 
# crystal, experimental, refinement or atomic coordinate data resulting 
# from the CCDC's data processing and validation procedures.
#
#######################################################################

data_MEFFOU
_chemical_formula_moiety         'C32 H22 N2 O2'
_chemical_name_systematic        4,8-bis(4-phenoxyphenyl)-1,5-naphthyridine
_symmetry_cell_setting           monoclinic
_symmetry_space_group_name_H-M   'P 21/c'
_symmetry_Int_Tables_number      14
_space_group_name_Hall           '-P 2ybc'
loop_
_symmetry_equiv_pos_site_id
_symmetry_equiv_pos_as_xyz
1 x,y,z
2 -x,1/2+y,1/2-z
3 -x,-y,-z
4 x,1/2-y,1/2+z
_cell_length_a                   9.869(2)
_cell_length_b                   14.785(3)
_cell_length_c                   16.173(3)
_cell_angle_alpha                90
_cell_angle_beta                 95.51(3)
_cell_angle_gamma                90
_cell_volume                     2348.95
_exptl_crystal_colour            yellow
_exptl_crystal_description       block
_cell_formula_units_Z            4
loop_
_atom_site_label
_atom_site_type_symbol
_atom_site_fract_x
_atom_site_fract_y
_atom_site_fract_z
O1 O 0.8341(3) 0.91590(16) 0.71164(16)
N1 N 0.9503(3) 0.3844(2) 0.5293(2)
C1 C 0.8623(4) 0.9939(2) 0.5814(2)
H1 H 0.8446 0.9413 0.5507
C2 C 0.8886(4) 1.0740(2) 0.5429(2)
H2 H 0.8919 1.0750 0.4856
C3 C 0.9100(4) 1.1519(3) 0.5871(3)
H3 H 0.9250 1.2060 0.5600
C4 C 0.9091(4) 1.1502(3) 0.6728(3)
H4 H 0.9253 1.2029 0.7036
C5 C 0.8842(4) 1.0698(2) 0.7122(2)
H5 H 0.8819 1.0682 0.7695
C6 C 0.8630(4) 0.9936(2) 0.6669(2)
C7 C 0.8558(4) 0.8329(2) 0.6754(2)
C8 C 0.9838(3) 0.8082(2) 0.6523(2)
H6 H 1.0566 0.8482 0.6603
C9 C 1.0015(4) 0.7249(2) 0.6179(2)
H7 H 1.0855 0.7096 0.6003
C10 C 0.8952(4) 0.6628(2) 0.6090(2)
C11 C 0.7702(4) 0.6865(2) 0.6354(2)
H8 H 0.6990 0.6450 0.6314
C12 C 0.7513(4) 0.7722(2) 0.6678(3)
H9 H 0.6669 0.7882 0.6844
C13 C 0.9143(4) 0.5695(2) 0.5785(2)
C14 C 0.8556(4) 0.4970(2) 0.6153(3)
H10 H 0.8020 0.5078 0.6585
C15 C 0.8743(4) 0.4084(3) 0.5897(2)
H11 H 0.8308 0.3627 0.6166
C16 C 0.9937(4) 0.5467(2) 0.5114(2)
O1B O 1.1659(3) 0.08410(16) 0.28836(16)
N1B N 1.0497(3) 0.6156(2) 0.4707(2)
C1B C 1.1377(4) 0.0061(2) 0.4186(2)
H1B H 1.1554 0.0587 0.4493
C2B C 1.1114(4) -0.0740(2) 0.4571(2)
H2B H 1.1081 -0.0750 0.5144
C3B C 1.0900(4) -0.1519(3) 0.4129(3)
H3B H 1.0750 -0.2060 0.4400
C4B C 1.0909(4) -0.1502(3) 0.3272(3)
H4B H 1.0747 -0.2029 0.2964
C5B C 1.1158(4) -0.0698(2) 0.2878(2)
H5B H 1.1181 -0.0682 0.2305
C6B C 1.1370(4) 0.0064(2) 0.3331(2)
C7B C 1.1442(4) 0.1671(2) 0.3246(2)
C8B C 1.0162(3) 0.1918(2) 0.3477(2)
H6B H 0.9434 0.1518 0.3397
C9B C 0.9985(4) 0.2751(2) 0.3821(2)
H7B H 0.9145 0.2904 0.3997
C10B C 1.1048(4) 0.3372(2) 0.3910(2)
C11B C 1.2298(4) 0.3135(2) 0.3646(2)
H8B H 1.3010 0.3550 0.3686
C12B C 1.2487(4) 0.2278(2) 0.3322(3)
H9B H 1.3331 0.2118 0.3156
C13B C 1.0857(4) 0.4305(2) 0.4215(2)
C14B C 1.1444(4) 0.5030(2) 0.3847(3)
H10B H 1.1980 0.4922 0.3415
C15B C 1.1257(4) 0.5916(3) 0.4103(2)
H11B H 1.1692 0.6373 0.3834
C16B C 1.0063(4) 0.4533(2) 0.4886(2)
O2 O 0.3377(3) 0.91306(15) 0.71376(16)
N2 N 0.4533(3) 0.3832(2) 0.5284(2)
C17 C 0.2598(4) 1.0557(3) 0.6574(3)
H12 H 0.1774 1.0470 0.6798
C18 C 0.2811(4) 1.1329(3) 0.6147(3)
H13 H 0.2128 1.1763 0.6071
C19 C 0.4046(4) 1.1468(3) 0.5825(3)
H14 H 0.4194 1.1994 0.5532
C20 C 0.5037(4) 1.0833(2) 0.5938(3)
H15 H 0.5863 1.0933 0.5721
C21 C 0.4857(4) 1.0056(3) 0.6359(3)
H16 H 0.5552 0.9631 0.6436
C22 C 0.3598(4) 0.9904(2) 0.6676(2)
C23 C 0.3608(3) 0.8303(2) 0.6795(2)
C24 C 0.3883(4) 0.7592(2) 0.7313(2)
H17 H 0.3945 0.7680 0.7885
C25 C 0.4070(4) 0.6740(2) 0.6997(2)
H18 H 0.4250 0.6262 0.7365
C26 C 0.3998(3) 0.6565(2) 0.6131(2)
C27 C 0.3690(4) 0.7305(2) 0.5618(2)
H19 H 0.3605 0.7226 0.5044
C28 C 0.3508(3) 0.8152(2) 0.5938(2)
H20 H 0.3315 0.8635 0.5578
C29 C 0.4162(4) 0.5644(2) 0.5821(2)
C30 C 0.3660(4) 0.4921(2) 0.6211(3)
H21 H 0.3186 0.5007 0.6675
C31 C 0.3856(4) 0.4052(2) 0.5917(3)
H22 H 0.3470 0.3580 0.6194
C32 C 0.5083(4) 0.4548(2) 0.4881(2)
O2B O 0.6623(3) 0.08694(15) 0.28624(16)
N2B N 0.5467(3) 0.6168(2) 0.4716(2)
C17B C 0.7402(4) -0.0557(3) 0.3426(3)
H12B H 0.8226 -0.0470 0.3202
C18B C 0.7189(4) -0.1329(3) 0.3853(3)
H13B H 0.7872 -0.1763 0.3929
C19B C 0.5954(4) -0.1468(3) 0.4175(3)
H14B H 0.5806 -0.1994 0.4468
C20B C 0.4963(4) -0.0833(2) 0.4062(3)
H15B H 0.4137 -0.0933 0.4279
C21B C 0.5143(4) -0.0056(3) 0.3641(3)
H16B H 0.4448 0.0369 0.3564
C22B C 0.6402(4) 0.0096(2) 0.3324(2)
C23B C 0.6392(3) 0.1697(2) 0.3205(2)
C24B C 0.6117(4) 0.2408(2) 0.2687(2)
H17B H 0.6055 0.2320 0.2115
C25B C 0.5930(4) 0.3260(2) 0.3003(2)
H18B H 0.5750 0.3738 0.2635
C26B C 0.6002(3) 0.3435(2) 0.3869(2)
C27B C 0.6310(4) 0.2695(2) 0.4382(2)
H19B H 0.6395 0.2774 0.4956
C28B C 0.6492(3) 0.1848(2) 0.4062(2)
H20B H 0.6685 0.1365 0.4422
C29B C 0.5838(4) 0.4356(2) 0.4179(2)
C30B C 0.6340(4) 0.5079(2) 0.3789(3)
H21B H 0.6814 0.4993 0.3325
C31B C 0.6144(4) 0.5948(2) 0.4083(3)
H22B H 0.6530 0.6420 0.3806
C32B C 0.4917(4) 0.5452(2) 0.5119(2)
loop_
_geom_bond_atom_site_label_1
_geom_bond_atom_site_label_2
_geom_bond_site_symmetry_1
_geom_bond_site_symmetry_2
O1 C6 1_555 1_555
N1 C15 1_555 1_555
C1 H1 1_555 1_555
C2 C1 1_555 1_555
H2 C2 1_555 1_555
C3 C2 1_555 1_555
H3 C3 1_555 1_555
C4 C3 1_555 1_555
H4 C4 1_555 1_555
C5 C4 1_555 1_555
H5 C5 1_555 1_555
C6 C1 1_555 1_555
C7 O1 1_555 1_555
C8 C7 1_555 1_555
H6 C8 1_555 1_555
C9 C8 1_555 1_555
H7 C9 1_555 1_555
C10 C9 1_555 1_555
C11 C10 1_555 1_555
H8 C11 1_555 1_555
C12 C7 1_555 1_555
H9 C12 1_555 1_555
C13 C10 1_555 1_555
C14 C13 1_555 1_555
H10 C14 1_555 1_555
C15 C14 1_555 1_555
H11 C15 1_555 1_555
C16 C13 1_555 1_555
O2 C22 1_555 1_555
N2 C31 1_555 1_555
C17 H12 1_555 1_555
C18 C17 1_555 1_555
H13 C18 1_555 1_555
C19 C18 1_555 1_555
H14 C19 1_555 1_555
C20 C19 1_555 1_555
H15 C20 1_555 1_555
C21 C20 1_555 1_555
H16 C21 1_555 1_555
C22 C17 1_555 1_555
C23 O2 1_555 1_555
C24 C23 1_555 1_555
H17 C24 1_555 1_555
C25 C24 1_555 1_555
H18 C25 1_555 1_555
C26 C25 1_555 1_555
C27 C26 1_555 1_555
H19 C27 1_555 1_555
C28 C23 1_555 1_555
H20 C28 1_555 1_555
C29 C26 1_555 1_555
C30 C29 1_555 1_555
H21 C30 1_555 1_555
C31 C30 1_555 1_555
H22 C31 1_555 1_555
C32 N2 1_555 1_555
O1B C6B 1_555 1_555
N1B C16 1_555 1_555
C1B H1B 1_555 1_555
C2B C1B 1_555 1_555
H2B C2B 1_555 1_555
C3B C2B 1_555 1_555
H3B C3B 1_555 1_555
C4B C3B 1_555 1_555
H4B C4B 1_555 1_555
C5B C4B 1_555 1_555
H5B C5B 1_555 1_555
C6B C1B 1_555 1_555
C7B O1B 1_555 1_555
C8B C7B 1_555 1_555
H6B C8B 1_555 1_555
C9B C8B 1_555 1_555
H7B C9B 1_555 1_555
C10B C9B 1_555 1_555
C11B C10B 1_555 1_555
H8B C11B 1_555 1_555
C12B C7B 1_555 1_555
H9B C12B 1_555 1_555
C13B C10B 1_555 1_555
C14B C13B 1_555 1_555
H10B C14B 1_555 1_555
C15B N1B 1_555 1_555
H11B C15B 1_555 1_555
C16B N1 1_555 1_555
O2B C22B 1_555 1_555
N2B C31B 1_555 1_555
C17B H12B 1_555 1_555
C18B C17B 1_555 1_555
H13B C18B 1_555 1_555
C19B C18B 1_555 1_555
H14B C19B 1_555 1_555
C20B C19B 1_555 1_555
H15B C20B 1_555 1_555
C21B C20B 1_555 1_555
H16B C21B 1_555 1_555
C22B C17B 1_555 1_555
C23B O2B 1_555 1_555
C24B C23B 1_555 1_555
H17B C24B 1_555 1_555
C25B C24B 1_555 1_555
H18B C25B 1_555 1_555
C26B C25B 1_555 1_555
C27B C26B 1_555 1_555
H19B C27B 1_555 1_555
C28B C23B 1_555 1_555
H20B C28B 1_555 1_555
C29B C32 1_555 1_555
C30B C29B 1_555 1_555
H21B C30B 1_555 1_555
C31B C30B 1_555 1_555
H22B C31B 1_555 1_555
C32B C29 1_555 1_555
C5 C6 1_555 1_555
C11 C12 1_555 1_555
C16 C16B 1_555 1_555
C21 C22 1_555 1_555
C27 C28 1_555 1_555
C32 C32B 1_555 1_555
C5B C6B 1_555 1_555
C11B C12B 1_555 1_555
C13B C16B 1_555 1_555
C14B C15B 1_555 1_555
N2B C32B 1_555 1_555
C21B C22B 1_555 1_555
C26B C29B 1_555 1_555
C27B C28B 1_555 1_555

#END
