
#######################################################################
#
#                 Cambridge Crystallographic Data Centre
#                                CCDC 
#
#######################################################################
#
# If this CIF has been generated from an entry in the Cambridge 
# Structural Database, then it will include bibliographic, chemical, 
# crystal, experimental, refinement or atomic coordinate data resulting 
# from the CCDC's data processing and validation procedures.
#
#######################################################################

data_MEFJIS
_chemical_formula_moiety         'C30 H37 N7 Si1,0.5(C4 H8 O2)'
_chemical_name_systematic        
'2,5,8,14,20-pentamethyl-28-((trimethylsilyl)methyl)-2,8,14,20,25,26,27-heptaazapentacyclo[19.3.1.1^3,7^.1^9,13^.1^15,19^]octacosa-1(25),3(28),4,6,9(27),10,12,15(26),16,18,21,23-dodecaene ethyl acetate solvate'
_symmetry_cell_setting           triclinic
_symmetry_space_group_name_H-M   'P 1'
_symmetry_Int_Tables_number      1
_space_group_name_Hall           'P 1'
loop_
_symmetry_equiv_pos_site_id
_symmetry_equiv_pos_as_xyz
1 x,y,z
_cell_length_a                   11.104(2)
_cell_length_b                   11.394(2)
_cell_length_c                   13.717(3)
_cell_angle_alpha                102.68(3)
_cell_angle_beta                 113.15(3)
_cell_angle_gamma                90.01(3)
_cell_volume                     1549.55
_exptl_crystal_colour            colorless
_exptl_crystal_description       block
_cell_formula_units_Z            2
loop_
_atom_site_label
_atom_site_type_symbol
_atom_site_fract_x
_atom_site_fract_y
_atom_site_fract_z
Si1 Si 0.36579(7) 0.65863(6) 0.72816(6)
N1 N 0.2245(2) 0.4749(2) 0.87338(19)
N2 N 0.0972(2) 0.5847(2) 0.95034(17)
N3 N -0.0477(2) 0.6835(2) 1.01416(17)
N4 N -0.1527(2) 0.75156(19) 0.85410(17)
N5 N -0.2376(2) 0.8256(2) 0.69553(19)
N6 N -0.1080(2) 0.72930(18) 0.61295(16)
N7 N 0.0170(2) 0.6160(2) 0.53592(18)
C1 C 0.5108(3) 0.7058(3) 0.8608(3)
H1 H 0.5102 0.6532 0.9084
H2 H 0.5070 0.7897 0.8959
H3 H 0.5918 0.6994 0.8481
C2 C 0.3745(3) 0.5036(3) 0.6514(3)
H4 H 0.2966 0.4815 0.5823
H5 H 0.3775 0.4454 0.6952
H6 H 0.4539 0.5026 0.6365
C3 C 0.3645(4) 0.7668(3) 0.6438(3)
H7 H 0.4469 0.7669 0.6333
H8 H 0.3560 0.8482 0.6811
H9 H 0.2901 0.7423 0.5726
C4 C 0.2130(2) 0.6646(2) 0.7584(2)
H10 H 0.2413 0.6827 0.8386
H11 H 0.1658 0.7330 0.7329
C5 C 0.1173(2) 0.5531(2) 0.7089(2)
C6 C 0.0193(2) 0.5330(2) 0.6025(2)
C7 C -0.0718(3) 0.4327(2) 0.5583(2)
H12 H -0.1380 0.4224 0.4866
C8 C -0.0682(3) 0.3468(2) 0.6169(2)
C9 C 0.0311(3) 0.3633(2) 0.7202(2)
H13 H 0.0374 0.3038 0.7604
C10 C 0.1217(2) 0.4647(2) 0.7665(2)
C11 C -0.1681(3) 0.2376(3) 0.5682(3)
H14 H -0.2189 0.2384 0.6127
H15 H -0.1228 0.1639 0.5664
H16 H -0.2277 0.2396 0.4937
C12 C 0.3393(3) 0.4091(3) 0.8818(3)
H17 H 0.3187 0.3465 0.8143
H18 H 0.3635 0.3713 0.9437
H19 H 0.4130 0.4653 0.8930
C13 C 0.2149(3) 0.5443(2) 0.9644(2)
C14 C 0.3222(3) 0.5735(3) 1.0667(2)
H20 H 0.4056 0.5452 1.0761
C15 C 0.3016(3) 0.6443(3) 1.1523(2)
H21 H 0.3723 0.6651 1.2223
C16 C 0.1810(3) 0.6862(3) 1.1397(2)
H22 H 0.1674 0.7362 1.1991
C17 C 0.0797(3) 0.6516(2) 1.0354(2)
C18 C -0.0707(3) 0.7852(3) 1.0880(2)
H23 H -0.0135 0.8567 1.0988
H24 H -0.0510 0.7655 1.1584
H25 H -0.1629 0.8019 1.0564
C19 C -0.1350(2) 0.6585(2) 0.9013(2)
C20 C -0.1907(2) 0.5426(2) 0.8473(2)
H26 H -0.1781 0.4801 0.8852
C21 C -0.2655(2) 0.5195(2) 0.7365(2)
H27 H -0.3051 0.4403 0.6963
C22 C -0.2819(2) 0.6128(2) 0.6848(2)
H28 H -0.3316 0.5989 0.6083
C23 C -0.2244(2) 0.7277(2) 0.7470(2)
C24 C -0.2720(3) 0.9396(3) 0.7456(3)
H29 H -0.1998 1.0027 0.7683
H30 H -0.2870 0.9308 0.8095
H31 H -0.3522 0.9622 0.6926
C25 C -0.1804(2) 0.8216(2) 0.6215(2)
C26 C -0.1981(3) 0.9074(2) 0.5594(2)
H32 H -0.2502 0.9723 0.5661
C27 C -0.1370(3) 0.8942(2) 0.4879(2)
H33 H -0.1459 0.9520 0.4456
C28 C -0.0638(3) 0.7995(2) 0.4766(2)
H34 H -0.0216 0.7907 0.4275
C29 C -0.0532(2) 0.7159(2) 0.5405(2)
C30 C 0.0432(3) 0.5695(3) 0.4390(2)
H35 H 0.0938 0.4993 0.4484
H36 H 0.0937 0.6325 0.4285
H37 H -0.0404 0.5453 0.3750
Si2 Si 0.11583(7) 0.25622(6) 0.10465(6)
N8 N 0.4577(2) 0.2742(2) 0.30441(18)
N9 N 0.5885(2) 0.36318(19) 0.24068(17)
N10 N 0.7226(2) 0.43408(19) 0.16951(19)
N11 N 0.6406(2) 0.28896(19) 0.00278(17)
N12 N 0.5390(2) 0.1490(2) -0.16672(17)
N13 N 0.3794(2) 0.07775(19) -0.12009(16)
N14 N 0.2361(2) 0.00214(19) -0.06043(16)
C31 C -0.0250(3) 0.2595(3) -0.0271(3)
H38 H -0.0344 0.1843 -0.0815
H39 H -0.0079 0.3283 -0.0535
H40 H -0.1063 0.2676 -0.0151
C32 C 0.0882(3) 0.1244(3) 0.1559(2)
H41 H 0.0195 0.1392 0.1839
H42 H 0.1701 0.1134 0.2147
H43 H 0.0606 0.0515 0.0961
C33 C 0.1238(4) 0.3976(3) 0.2059(3)
H44 H 0.0434 0.3984 0.2194
H45 H 0.1318 0.4675 0.1774
H46 H 0.2003 0.4014 0.2744
C34 C 0.2711(3) 0.2446(2) 0.0792(2)
H47 H 0.2465 0.2320 -0.0002
H48 H 0.3260 0.3228 0.1155
C35 C 0.3536(2) 0.1457(2) 0.11767(19)
C36 C 0.3377(2) 0.0311(2) 0.04897(19)
C37 C 0.4134(2) -0.0599(2) 0.0848(2)
H49 H 0.3995 -0.1371 0.0363
C38 C 0.5094(3) -0.0399(2) 0.1907(2)
C39 C 0.5232(2) 0.0725(2) 0.2604(2)
H50 H 0.5867 0.0874 0.3336
C40 C 0.4475(2) 0.1627(2) 0.2262(2)
C41 C 0.5953(3) -0.1384(3) 0.2269(3)
H51 H 0.5540 -0.2165 0.1767
H52 H 0.6058 -0.1407 0.3008
H53 H 0.6818 -0.1217 0.2268
C42 C 0.4245(3) 0.2681(3) 0.3959(2)
H54 H 0.3861 0.1863 0.3849
H55 H 0.3606 0.3261 0.4006
H56 H 0.5042 0.2878 0.4637
C43 C 0.5279(3) 0.3770(2) 0.30911(19)
C44 C 0.5339(3) 0.4881(2) 0.3791(2)
H57 H 0.4906 0.4963 0.4274
C45 C 0.6045(3) 0.5855(2) 0.3760(2)
H58 H 0.6104 0.6620 0.4231
C46 C 0.6673(3) 0.5735(2) 0.3051(2)
H59 H 0.7143 0.6408 0.3012
C47 C 0.6583(2) 0.4582(2) 0.2398(2)
C48 C 0.7496(3) 0.5295(3) 0.1233(3)
H60 H 0.6666 0.5580 0.0803
H61 H 0.7951 0.4977 0.0760
H62 H 0.8053 0.5968 0.1824
C49 C 0.7094(2) 0.3124(2) 0.1105(2)
C50 C 0.7629(2) 0.2242(3) 0.1662(2)
H63 H 0.8134 0.2450 0.2429
C51 C 0.7409(3) 0.1055(3) 0.1074(2)
H64 H 0.7755 0.0428 0.1430
C52 C 0.6680(3) 0.0792(2) -0.0038(2)
H65 H 0.6509 -0.0017 -0.0462
C53 C 0.6205(2) 0.1729(2) -0.0520(2)
C54 C 0.5729(3) 0.2228(3) -0.2283(2)
H66 H 0.5475 0.1764 -0.3037
H67 H 0.6680 0.2459 -0.1947
H68 H 0.5261 0.2957 -0.2278
C55 C 0.4078(3) 0.1084(2) -0.1980(2)
C56 C 0.3137(3) 0.0998(2) -0.3038(2)
H69 H 0.3348 0.1244 -0.3575
C57 C 0.1874(3) 0.0534(3) -0.3260(2)
H70 H 0.1208 0.0452 -0.3973
C58 C 0.1557(3) 0.0190(2) -0.2488(2)
H71 H 0.0690 -0.0126 -0.2650
C59 C 0.2573(2) 0.0326(2) -0.14447(19)
C60 C 0.1163(3) -0.0691(2) -0.0814(2)
H72 H 0.1295 -0.1043 -0.0193
H73 H 0.0945 -0.1340 -0.1475
H74 H 0.0442 -0.0172 -0.0916
O1 O 0.0075(3) 0.0102(3) 0.3524(2)
O2 O 0.2250(2) 0.05709(18) 0.42680(16)
C61 C 0.0936(4) 0.2153(4) 0.4377(3)
H75 H 0.0016 0.2325 0.4173
H76 H 0.1346 0.2600 0.4036
H77 H 0.1409 0.2401 0.5173
C62 C 0.0993(3) 0.0842(3) 0.4002(2)
C63 C 0.2435(5) -0.0682(3) 0.3975(3)
H78 H 0.1960 -0.1003 0.3177
H79 H 0.2081 -0.1149 0.4349
C64 C 0.3846(5) -0.0802(4) 0.4300(5)
H80 H 0.4193 -0.0327 0.3935
H81 H 0.3982 -0.1654 0.4088
H82 H 0.4306 -0.0505 0.5093
loop_
_geom_bond_atom_site_label_1
_geom_bond_atom_site_label_2
_geom_bond_site_symmetry_1
_geom_bond_site_symmetry_2
Si1 C1 1_555 1_555
Si2 C31 1_555 1_555
O1 C62 1_555 1_555
O2 C62 1_555 1_555
N1 C10 1_555 1_555
N2 C13 1_555 1_555
N3 C17 1_555 1_555
N4 C19 1_555 1_555
N5 C23 1_555 1_555
N6 C25 1_555 1_555
N7 C6 1_555 1_555
N8 C40 1_555 1_555
N9 C43 1_555 1_555
N10 C47 1_555 1_555
N11 C49 1_555 1_555
N12 C53 1_555 1_555
N13 C55 1_555 1_555
N14 C36 1_555 1_555
C1 H1 1_555 1_555
H2 C1 1_555 1_555
H3 C1 1_555 1_555
C2 Si1 1_555 1_555
H4 C2 1_555 1_555
H5 C2 1_555 1_555
H6 C2 1_555 1_555
C3 Si1 1_555 1_555
H7 C3 1_555 1_555
H8 C3 1_555 1_555
H9 C3 1_555 1_555
C4 Si1 1_555 1_555
H10 C4 1_555 1_555
H11 C4 1_555 1_555
C5 C4 1_555 1_555
C6 C5 1_555 1_555
C7 C6 1_555 1_555
H12 C7 1_555 1_555
C8 C7 1_555 1_555
C9 C8 1_555 1_555
H13 C9 1_555 1_555
C10 C5 1_555 1_555
C11 C8 1_555 1_555
H14 C11 1_555 1_555
H15 C11 1_555 1_555
H16 C11 1_555 1_555
C12 N1 1_555 1_555
H17 C12 1_555 1_555
H18 C12 1_555 1_555
H19 C12 1_555 1_555
C13 N1 1_555 1_555
C14 C13 1_555 1_555
H20 C14 1_555 1_555
C15 C14 1_555 1_555
H21 C15 1_555 1_555
C16 C15 1_555 1_555
H22 C16 1_555 1_555
C17 N2 1_555 1_555
C18 N3 1_555 1_555
H23 C18 1_555 1_555
H24 C18 1_555 1_555
H25 C18 1_555 1_555
C19 N3 1_555 1_555
C20 C19 1_555 1_555
H26 C20 1_555 1_555
C21 C20 1_555 1_555
H27 C21 1_555 1_555
C22 C21 1_555 1_555
H28 C22 1_555 1_555
C23 N4 1_555 1_555
C24 N5 1_555 1_555
H29 C24 1_555 1_555
H30 C24 1_555 1_555
H31 C24 1_555 1_555
C25 N5 1_555 1_555
C26 C25 1_555 1_555
H32 C26 1_555 1_555
C27 C26 1_555 1_555
H33 C27 1_555 1_555
C28 C27 1_555 1_555
H34 C28 1_555 1_555
C29 N6 1_555 1_555
C30 N7 1_555 1_555
H35 C30 1_555 1_555
H36 C30 1_555 1_555
H37 C30 1_555 1_555
C31 H38 1_555 1_555
H39 C31 1_555 1_555
H40 C31 1_555 1_555
C32 Si2 1_555 1_555
H41 C32 1_555 1_555
H42 C32 1_555 1_555
H43 C32 1_555 1_555
C33 Si2 1_555 1_555
H44 C33 1_555 1_555
H45 C33 1_555 1_555
H46 C33 1_555 1_555
C34 Si2 1_555 1_555
H47 C34 1_555 1_555
H48 C34 1_555 1_555
C35 C34 1_555 1_555
C36 C35 1_555 1_555
C37 C36 1_555 1_555
H49 C37 1_555 1_555
C38 C37 1_555 1_555
C39 C38 1_555 1_555
H50 C39 1_555 1_555
C40 C35 1_555 1_555
C41 C38 1_555 1_555
H51 C41 1_555 1_555
H52 C41 1_555 1_555
H53 C41 1_555 1_555
C42 N8 1_555 1_555
H54 C42 1_555 1_555
H55 C42 1_555 1_555
H56 C42 1_555 1_555
C43 N8 1_555 1_555
C44 C43 1_555 1_555
H57 C44 1_555 1_555
C45 C44 1_555 1_555
H58 C45 1_555 1_555
C46 C45 1_555 1_555
H59 C46 1_555 1_555
C47 N9 1_555 1_555
C48 N10 1_555 1_555
H60 C48 1_555 1_555
H61 C48 1_555 1_555
H62 C48 1_555 1_555
C49 N10 1_555 1_555
C50 C49 1_555 1_555
H63 C50 1_555 1_555
C51 C50 1_555 1_555
H64 C51 1_555 1_555
C52 C51 1_555 1_555
H65 C52 1_555 1_555
C53 N11 1_555 1_555
C54 N12 1_555 1_555
H66 C54 1_555 1_555
H67 C54 1_555 1_555
H68 C54 1_555 1_555
C55 N12 1_555 1_555
C56 C55 1_555 1_555
H69 C56 1_555 1_555
C57 C56 1_555 1_555
H70 C57 1_555 1_555
C58 C57 1_555 1_555
H71 C58 1_555 1_555
C59 N13 1_555 1_555
C60 N14 1_555 1_555
H72 C60 1_555 1_555
H73 C60 1_555 1_555
H74 C60 1_555 1_555
C61 H75 1_555 1_555
H76 C61 1_555 1_555
H77 C61 1_555 1_555
C62 C61 1_555 1_555
C63 O2 1_555 1_555
H78 C63 1_555 1_555
H79 C63 1_555 1_555
C64 C63 1_555 1_555
H80 C64 1_555 1_555
H81 C64 1_555 1_555
H82 C64 1_555 1_555
N7 C29 1_555 1_555
N14 C59 1_555 1_555
C9 C10 1_555 1_555
C16 C17 1_555 1_555
C22 C23 1_555 1_555
C28 C29 1_555 1_555
C39 C40 1_555 1_555
C46 C47 1_555 1_555
C52 C53 1_555 1_555
C58 C59 1_555 1_555

#END
