
#######################################################################
#
#                 Cambridge Crystallographic Data Centre
#                                CCDC 
#
#######################################################################
#
# If this CIF has been generated from an entry in the Cambridge 
# Structural Database, then it will include bibliographic, chemical, 
# crystal, experimental, refinement or atomic coordinate data resulting 
# from the CCDC's data processing and validation procedures.
#
#######################################################################

data_MEFTEZ
_chemical_formula_moiety         'C23 H27 F1 N4 2+,H2 O1,2(I1 1-)'
_chemical_name_systematic        
'9-fluoro-11-methyl-6-[2-(1-methylpiperidin-1-ium-1-yl)ethyl]-6H-indolo[2,3-b]quinoxalin-11-ium diiodide monohydrate'
_symmetry_cell_setting           triclinic
_symmetry_space_group_name_H-M   'P -1'
_symmetry_Int_Tables_number      2
_space_group_name_Hall           '-P 1'
loop_
_symmetry_equiv_pos_site_id
_symmetry_equiv_pos_as_xyz
1 x,y,z
2 -x,-y,-z
_cell_length_a                   7.840(3)
_cell_length_b                   12.067(5)
_cell_length_c                   14.220(6)
_cell_angle_alpha                87.101(6)
_cell_angle_beta                 77.634(6)
_cell_angle_gamma                89.744(7)
_cell_volume                     1312.37
_exptl_crystal_colour            red
_exptl_crystal_description       Block
_cell_formula_units_Z            2
loop_
_atom_site_label
_atom_site_type_symbol
_atom_site_fract_x
_atom_site_fract_y
_atom_site_fract_z
F1 F 0.4296(4) 0.7804(2) -0.0101(2)
N1 N 0.1392(4) 0.3988(2) 0.1791(2)
N2 N 0.1005(4) 0.3432(3) 0.3449(2)
N3 N 0.2829(4) 0.5446(3) 0.3567(2)
N4 N 0.0870(4) 0.0930(2) 0.1552(2)
C1 C 0.2163(5) 0.4882(3) 0.1206(3)
C2 C 0.2316(5) 0.5061(3) 0.0212(3)
H1 H 0.1923 0.4534 -0.0150
C3 C 0.3071(5) 0.6046(4) -0.0215(3)
H2 H 0.3198 0.6195 -0.0875
C4 C 0.3638(5) 0.6813(3) 0.0350(3)
C5 C 0.3600(5) 0.6646(3) 0.1311(3)
H3 H 0.4052 0.7169 0.1651
C6 C 0.2848(5) 0.5649(3) 0.1762(3)
C7 C 0.2503(5) 0.5156(3) 0.2722(3)
C8 C 0.1576(5) 0.4125(3) 0.2710(3)
C9 C 0.1355(5) 0.3743(3) 0.4294(3)
C10 C 0.0798(6) 0.3027(4) 0.5124(3)
H4 H 0.0230 0.2365 0.5073
C11 C 0.1088(6) 0.3300(5) 0.6000(3)
H5 H 0.0723 0.2821 0.6539
C12 C 0.1932(6) 0.4296(5) 0.6087(3)
H6 H 0.2100 0.4475 0.6690
C13 C 0.2522(6) 0.5020(4) 0.5304(3)
H7 H 0.3086 0.5677 0.5376
C14 C 0.2256(5) 0.4749(3) 0.4389(3)
C15 C 0.0513(5) 0.3023(3) 0.1523(3)
H8 H 0.0115 0.3201 0.0933
H9 H -0.0497 0.2822 0.2027
C16 C 0.1774(5) 0.2057(3) 0.1377(3)
H10 H 0.2568 0.2108 0.1811
H11 H 0.2464 0.2115 0.0723
C17 C 0.0188(6) 0.0628(4) 0.2617(3)
H12 H -0.0525 -0.0039 0.2683
H13 H -0.0550 0.1222 0.2906
C18 C 0.1652(8) 0.0433(4) 0.3157(4)
H14 H 0.1154 0.0177 0.3816
H15 H 0.2256 0.1129 0.3175
C19 C 0.2960(8) -0.0421(5) 0.2686(5)
H16 H 0.3919 -0.0476 0.3018
H17 H 0.2396 -0.1142 0.2742
C20 C 0.3664(7) -0.0089(4) 0.1626(4)
H18 H 0.4320 0.0599 0.1571
H19 H 0.4447 -0.0658 0.1329
C21 C 0.2170(6) 0.0060(3) 0.1101(3)
H20 H 0.1567 -0.0644 0.1119
H21 H 0.2641 0.0283 0.0431
C22 C -0.0659(6) 0.0932(4) 0.1062(3)
H22 H -0.1561 0.1400 0.1392
H23 H -0.1103 0.0189 0.1077
H24 H -0.0285 0.1206 0.0404
C23 C 0.3816(6) 0.6475(4) 0.3599(3)
H25 H 0.3044 0.7098 0.3631
H26 H 0.4727 0.6561 0.3030
H27 H 0.4320 0.6435 0.4158
I1 I 0.17685(4) 0.23885(3) 0.85354(2)
I2 I 0.57545(4) 0.28239(3) 0.30489(2)
O1 O 0.655(2) 0.067(3) 0.4813(15)
H28 H 0.743(3) 0.1100(17) 0.4806(19)
H29 H 0.679(8) 0.000(5) 0.469(17)
loop_
_geom_bond_atom_site_label_1
_geom_bond_atom_site_label_2
_geom_bond_site_symmetry_1
_geom_bond_site_symmetry_2
F1 C4 1_555 1_555
N1 C1 1_555 1_555
N2 C8 1_555 1_555
N3 C7 1_555 1_555
N4 C16 1_555 1_555
C1 C2 1_555 1_555
C2 H1 1_555 1_555
C3 C2 1_555 1_555
H2 C3 1_555 1_555
C4 C3 1_555 1_555
C5 C4 1_555 1_555
H3 C5 1_555 1_555
C6 C1 1_555 1_555
C7 C6 1_555 1_555
C8 N1 1_555 1_555
C9 N2 1_555 1_555
C10 C9 1_555 1_555
H4 C10 1_555 1_555
C11 C10 1_555 1_555
H5 C11 1_555 1_555
C12 C11 1_555 1_555
H6 C12 1_555 1_555
C13 C12 1_555 1_555
H7 C13 1_555 1_555
C14 N3 1_555 1_555
C15 N1 1_555 1_555
H8 C15 1_555 1_555
H9 C15 1_555 1_555
C16 C15 1_555 1_555
H10 C16 1_555 1_555
H11 C16 1_555 1_555
C17 N4 1_555 1_555
H12 C17 1_555 1_555
H13 C17 1_555 1_555
C18 C17 1_555 1_555
H14 C18 1_555 1_555
H15 C18 1_555 1_555
C19 C18 1_555 1_555
H16 C19 1_555 1_555
H17 C19 1_555 1_555
C20 C19 1_555 1_555
H18 C20 1_555 1_555
H19 C20 1_555 1_555
C21 N4 1_555 1_555
H20 C21 1_555 1_555
H21 C21 1_555 1_555
C22 N4 1_555 1_555
H22 C22 1_555 1_555
H23 C22 1_555 1_555
H24 C22 1_555 1_555
C23 N3 1_555 1_555
H25 C23 1_555 1_555
H26 C23 1_555 1_555
H27 C23 1_555 1_555
O1 H28 1_555 1_555
H29 O1 1_555 1_555
C5 C6 1_555 1_555
C7 C8 1_555 1_555
C9 C14 1_555 1_555
C13 C14 1_555 1_555
C20 C21 1_555 1_555

#END
