
#######################################################################
#
#                 Cambridge Crystallographic Data Centre
#                                CCDC 
#
#######################################################################
#
# If this CIF has been generated from an entry in the Cambridge 
# Structural Database, then it will include bibliographic, chemical, 
# crystal, experimental, refinement or atomic coordinate data resulting 
# from the CCDC's data processing and validation procedures.
#
#######################################################################

data_MEFZEC
_chemical_formula_moiety         'C28 H14 N4 O10 S2,C6 H4 S4,0.5(C6 H5 Cl1)'
_chemical_name_systematic        
'Diphenyl-2,7-disulfonate-4,5-dinitro-9-dicyanomethylenefluorene tetrathiafulvalene chlorobenzene solvate'
_symmetry_cell_setting           monoclinic
_symmetry_space_group_name_H-M   'P 21/c'
_symmetry_Int_Tables_number      14
_space_group_name_Hall           '-P 2ybc'
loop_
_symmetry_equiv_pos_site_id
_symmetry_equiv_pos_as_xyz
1 x,y,z
2 x,1/2-y,1/2+z
3 -x,-y,-z
4 -x,1/2+y,1/2-z
_cell_length_a                   14.370(3)
_cell_length_b                   10.772(2)
_cell_length_c                   24.156(5)
_cell_angle_alpha                90
_cell_angle_beta                 98.38(1)
_cell_angle_gamma                90
_cell_volume                     3699.27
_exptl_crystal_colour            black
_exptl_crystal_description       plate
_cell_formula_units_Z            4
loop_
_atom_site_label
_atom_site_type_symbol
_atom_site_fract_x
_atom_site_fract_y
_atom_site_fract_z
S3 S 0.28894(6) -0.47055(8) 0.14787(3)
S4 S 0.25929(6) -0.46164(7) 0.26528(3)
S5 S 0.43137(6) -0.70145(8) 0.17550(4)
S6 S 0.39057(6) -0.70479(8) 0.29099(3)
C29 C 0.3109(2) -0.5375(3) 0.21408(12)
C30 C 0.2186(3) -0.3518(3) 0.16739(14)
H15 H 0.1851(28) -0.3026(32) 0.1355(16)
C31 C 0.2051(3) -0.3495(3) 0.22064(15)
H16 H 0.1666(28) -0.2954(33) 0.2357(16)
C32 C 0.3680(2) -0.6379(3) 0.22514(12)
C33 C 0.4875(3) -0.8116(3) 0.2206(2)
H17 H 0.5295(28) -0.8635(33) 0.2076(15)
C34 C 0.4704(2) -0.8125(3) 0.2727(2)
H18 H 0.4977(28) -0.8679(35) 0.2978(16)
S1 S 0.39310(6) -0.08602(7) 0.09369(3)
S2 S 0.00137(6) 0.44160(7) 0.32967(3)
O1 O 0.3182(2) -0.0912(2) 0.03936(8)
O2 O 0.4575(2) 0.0056(2) 0.08144(10)
O3 O 0.4237(2) -0.2067(2) 0.11056(9)
O4 O 0.3392(2) 0.0096(2) 0.33162(8)
O5 O 0.3427(2) -0.1783(2) 0.30066(9)
O6 O 0.1815(2) 0.0226(2) 0.39183(9)
O7 O 0.1488(2) -0.0790(2) 0.31375(9)
O8 O 0.0569(2) 0.4616(2) 0.39025(8)
O9 O -0.0857(2) 0.3921(2) 0.33918(9)
O10 O 0.0045(2) 0.5513(2) 0.29740(9)
N1 N 0.3271(2) -0.0675(2) 0.29422(10)
N2 N 0.1615(2) 0.0169(2) 0.34118(11)
N3 N 0.1688(2) 0.2632(3) 0.02429(12)
N4 N 0.0279(2) 0.4996(3) 0.12574(11)
C1 C 0.2744(2) 0.0806(3) 0.13102(12)
H1 H 0.2760(22) 0.1144(27) 0.0938(13)
C2 C 0.3285(2) -0.0252(3) 0.14369(12)
C3 C 0.3404(2) -0.0772(3) 0.19635(12)
H2 H 0.3834(21) -0.1475(26) 0.2048(12)
C4 C 0.2966(2) -0.0220(3) 0.23730(12)
C5 C 0.1472(2) 0.1337(3) 0.31019(12)
C6 C 0.0928(2) 0.2210(3) 0.33234(13)
H3 H 0.0755(23) 0.2138(28) 0.3665(14)
C7 C 0.0672(2) 0.3272(3) 0.30112(12)
C8 C 0.0895(2) 0.3434(3) 0.24807(13)
H4 H 0.0693(23) 0.4059(30) 0.2263(14)
C9 C 0.1685(2) 0.2410(3) 0.17056(11)
C10 C 0.2282(2) 0.1303(3) 0.17200(12)
C11 C 0.2370(2) 0.0779(2) 0.22642(11)
C12 C 0.1780(2) 0.1503(2) 0.25895(11)
C13 C 0.1431(2) 0.2531(3) 0.22619(12)
C14 C 0.1382(2) 0.3127(3) 0.12414(12)
C15 C 0.1571(2) 0.2842(3) 0.06900(13)
C16 C 0.0768(2) 0.4158(3) 0.12542(12)
C17 C 0.2459(3) -0.1819(3) 0.03403(12)
C18 C 0.2679(4) -0.3035(3) 0.02308(14)
H5 H 0.3311(27) -0.3221(30) 0.0239(14)
C19 C 0.1921(5) -0.3853(4) 0.0132(2)
H6 H 0.2055(30) -0.4572(38) 0.0050(17)
C20 C 0.1023(4) -0.3459(5) 0.0143(2)
H7 H 0.0550(38) -0.4025(45) 0.0084(21)
C21 C 0.0840(4) -0.2244(5) 0.0255(2)
H8 H 0.0164(39) -0.2004(40) 0.0248(20)
C22 C 0.1556(3) -0.1405(4) 0.03513(14)
H9 H 0.1402(31) -0.0527(38) 0.0408(18)
C23 C 0.1498(2) 0.5117(3) 0.39540(12)
C24 C 0.2234(2) 0.4329(3) 0.41139(13)
H10 H 0.2139(24) 0.3457(31) 0.4203(14)
C25 C 0.3131(3) 0.4807(3) 0.41806(13)
H11 H 0.3672(25) 0.4289(29) 0.4313(13)
C26 C 0.3276(3) 0.6061(3) 0.40943(13)
H12 H 0.3889(25) 0.6367(29) 0.4137(13)
C27 C 0.2520(3) 0.6832(3) 0.39436(13)
H13 H 0.2646(23) 0.7744(30) 0.3888(13)
C28 C 0.1613(3) 0.6370(3) 0.38693(12)
H14 H 0.1063(25) 0.6886(29) 0.3768(13)
Cl1? Cl 0.4382(2) 0.2705(2) 0.02141(10)
C35? C 0.4760(5) 0.4175(7) 0.0075(3)
C36? C 0.4379(6) 0.4771(8) -0.0404(3)
H19? H 0.3891(6) 0.4387(8) -0.0657(3)
C37? C 0.4711(6) 0.5955(7) -0.0517(3)
H20? H 0.4452(6) 0.6382(7) -0.0851(3)
C38? C 0.5406(7) 0.6483(9) -0.0153(4)
H21? H 0.5638(7) 0.7285(9) -0.0233(4)
C39? C 0.5776(7) 0.5879(9) 0.0336(4)
H22? H 0.6260(7) 0.6261(9) 0.0593(4)
C40? C 0.5448(6) 0.4710(8) 0.0450(3)
H23? H 0.5695(6) 0.4284(8) 0.0787(3)
loop_
_geom_bond_atom_site_label_1
_geom_bond_atom_site_label_2
_geom_bond_site_symmetry_1
_geom_bond_site_symmetry_2
S1 O1 1_555 1_555
S2 O8 1_555 1_555
O1 C17 1_555 1_555
O2 S1 1_555 1_555
O3 S1 1_555 1_555
O4 N1 1_555 1_555
O5 N1 1_555 1_555
O6 N2 1_555 1_555
O7 N2 1_555 1_555
O8 C23 1_555 1_555
O9 S2 1_555 1_555
O10 S2 1_555 1_555
N1 C4 1_555 1_555
N2 C5 1_555 1_555
N3 C15 1_555 1_555
N4 C16 1_555 1_555
C1 H1 1_555 1_555
C2 S1 1_555 1_555
C3 C2 1_555 1_555
H2 C3 1_555 1_555
C4 C3 1_555 1_555
C5 C6 1_555 1_555
C6 H3 1_555 1_555
C7 S2 1_555 1_555
C8 C7 1_555 1_555
H4 C8 1_555 1_555
C9 C10 1_555 1_555
C10 C1 1_555 1_555
C11 C4 1_555 1_555
C12 C5 1_555 1_555
C13 C8 1_555 1_555
C14 C9 1_555 1_555
C15 C14 1_555 1_555
C16 C14 1_555 1_555
C17 C18 1_555 1_555
C18 H5 1_555 1_555
C19 C18 1_555 1_555
H6 C19 1_555 1_555
C20 C19 1_555 1_555
H7 C20 1_555 1_555
C21 C20 1_555 1_555
H8 C21 1_555 1_555
C22 C17 1_555 1_555
H9 C22 1_555 1_555
C23 C24 1_555 1_555
C24 H10 1_555 1_555
C25 C24 1_555 1_555
H11 C25 1_555 1_555
C26 C25 1_555 1_555
H12 C26 1_555 1_555
C27 C26 1_555 1_555
H13 C27 1_555 1_555
C28 C23 1_555 1_555
H14 C28 1_555 1_555
S3 C29 1_555 1_555
S4 C29 1_555 1_555
S5 C32 1_555 1_555
S6 C32 1_555 1_555
C29 C32 1_555 1_555
C30 S3 1_555 1_555
H15 C30 1_555 1_555
C31 S4 1_555 1_555
H16 C31 1_555 1_555
C33 S5 1_555 1_555
H17 C33 1_555 1_555
C34 S6 1_555 1_555
H18 C34 1_555 1_555
C1 C2 1_555 1_555
C6 C7 1_555 1_555
C9 C13 1_555 1_555
C10 C11 1_555 1_555
C11 C12 1_555 1_555
C12 C13 1_555 1_555
C21 C22 1_555 1_555
C27 C28 1_555 1_555
C30 C31 1_555 1_555
C33 C34 1_555 1_555

#END
