
#######################################################################
#
#                 Cambridge Crystallographic Data Centre
#                                CCDC 
#
#######################################################################
#
# If this CIF has been generated from an entry in the Cambridge 
# Structural Database, then it will include bibliographic, chemical, 
# crystal, experimental, refinement or atomic coordinate data resulting 
# from the CCDC's data processing and validation procedures.
#
#######################################################################

data_MEGGEK
_chemical_formula_moiety         'C30 H24 N6 2+,2(Cl1 O4 1-)'
_chemical_name_systematic        
"[2,4':2',4-bis(o-Phenyleneiminomethyl)-bis(1-methylbenzimidazol-3-ium)] diperchlorate"
_symmetry_cell_setting           monoclinic
_symmetry_space_group_name_H-M   'P 21/n'
_symmetry_Int_Tables_number      14
_space_group_name_Hall           '-P 2yn'
loop_
_symmetry_equiv_pos_site_id
_symmetry_equiv_pos_as_xyz
1 x,y,z
2 1/2+x,1/2-y,1/2+z
3 -x,-y,-z
4 1/2-x,1/2+y,1/2-z
_cell_length_a                   8.7086(2)
_cell_length_b                   28.8382(7)
_cell_length_c                   11.9403(3)
_cell_angle_alpha                90
_cell_angle_beta                 100.147(1)
_cell_angle_gamma                90
_cell_volume                     2951.79
_exptl_crystal_colour            yellow
_exptl_crystal_description       plate
_cell_formula_units_Z            4
_exptl_crystal_recrystallization_method acetonitrile
loop_
_atom_site_label
_atom_site_type_symbol
_atom_site_fract_x
_atom_site_fract_y
_atom_site_fract_z
Cl1 Cl 0.8859(2) 0.77404(5) 0.15014(12)
O1 O 0.8164(8) 0.7778(3) 0.2466(6)
O2 O 1.0468(5) 0.7624(2) 0.1804(4)
O3 O 0.8769(6) 0.8177(2) 0.0918(5)
O4 O 0.8087(6) 0.7399(2) 0.0744(5)
Cl2 Cl 0.2337(2) 0.01791(7) 0.2787(2)
O5 O 0.2952(6) 0.0537(2) 0.2207(5)
O6 O 0.0764(15) 0.0228(4) 0.2630(11)
O7 O 0.3055(11) 0.0211(3) 0.3938(8)
O8 O 0.3016(9) -0.0268(3) 0.2451(7)
N1 N 1.0691(4) 0.41031(13) -0.3702(3)
H1 H 1.0003(4) 0.41593(13) -0.3284(3)
N2 N 1.1723(5) 0.46305(14) -0.1634(4)
N3 N 0.9985(4) 0.39070(14) -0.0728(3)
H2 H 0.9696(4) 0.40997(14) -0.1275(3)
N4 N 0.8548(4) 0.34707(14) -0.2866(3)
N5 N 1.2648(5) 0.41963(15) -0.4589(4)
N6 N 0.9943(5) 0.33300(14) 0.0426(3)
C1 C 1.0856(5) 0.3689(2) -0.4234(4)
C2 C 1.2097(5) 0.3744(2) -0.4810(4)
C3 C 1.2572(6) 0.3392(2) -0.5465(4)
H3 H 1.3408(6) 0.3430(2) -0.5845(4)
C4 C 1.1740(7) 0.2981(2) -0.5525(5)
H4 H 1.2019(7) 0.2738(2) -0.5960(5)
C5 C 1.0505(6) 0.2923(2) -0.4953(4)
H5 H 0.9967(6) 0.2643(2) -0.5028(4)
C6 C 1.0033(6) 0.3265(2) -0.4273(4)
C7 C 0.8797(6) 0.3184(2) -0.3612(4)
H6 H 0.8187(6) 0.2918(2) -0.3742(4)
C8 C 0.7307(5) 0.3384(2) -0.2262(4)
C9 C 0.5818(6) 0.3268(2) -0.2831(5)
H7 H 0.5634(6) 0.3234(2) -0.3618(5)
C10 C 0.4607(6) 0.3204(2) -0.2228(5)
H8 H 0.3621(6) 0.3123(2) -0.2613(5)
C11 C 0.4860(6) 0.3259(2) -0.1064(5)
H9 H 0.4041(6) 0.3223(2) -0.0666(5)
C12 C 0.6335(6) 0.3368(2) -0.0490(5)
H10 H 0.6509(6) 0.3397(2) 0.0298(5)
C13 C 0.7562(5) 0.3433(2) -0.1077(4)
C14 C 0.9126(6) 0.3554(2) -0.0463(4)
C15 C 0.9519(7) 0.2901(2) 0.0961(5)
H11 H 0.9238(44) 0.2972(2) 0.1684(15)
H12 H 1.0392(16) 0.2692(6) 0.1070(30)
H13 H 0.8651(29) 0.2757(7) 0.0478(16)
C16 C 1.1390(6) 0.3549(2) 0.0739(4)
C17 C 1.2665(6) 0.3451(2) 0.1572(4)
H14 H 1.2669(6) 0.3196(2) 0.2051(4)
C18 C 1.3914(7) 0.3741(2) 0.1662(5)
H15 H 1.4773(7) 0.3689(2) 0.2232(5)
C19 C 1.3940(6) 0.4113(2) 0.0925(4)
H16 H 1.4816(6) 0.4303(2) 0.1016(4)
C20 C 1.2689(5) 0.4211(2) 0.0052(4)
C21 C 1.1405(5) 0.3919(2) -0.0002(4)
C22 C 1.2772(6) 0.4585(2) -0.0756(4)
H17 H 1.3601(6) 0.4793(2) -0.0627(4)
C23 C 1.1852(5) 0.4996(2) -0.2399(5)
C24 C 1.1927(7) 0.5462(2) -0.2047(5)
H18 H 1.1904(7) 0.5536(2) -0.1292(5)
C25 C 1.2035(7) 0.5809(2) -0.2826(7)
H19 H 1.2066(7) 0.6117(2) -0.2594(7)
C26 C 1.2098(7) 0.5705(2) -0.3946(6)
H20 H 1.2194(7) 0.5942(2) -0.4455(6)
C27 C 1.2020(7) 0.5250(2) -0.4314(5)
H21 H 1.2054(7) 0.5181(2) -0.5070(5)
C28 C 1.1887(6) 0.4889(2) -0.3534(5)
C29 C 1.1761(6) 0.4408(2) -0.3929(4)
C30 C 1.4082(7) 0.4372(2) -0.4942(6)
H22 H 1.3923(18) 0.4394(14) -0.5756(6)
H23 H 1.4929(13) 0.4164(8) -0.4683(32)
H24 H 1.4327(29) 0.4673(7) -0.4615(30)
O9? O 0.0858(13) 0.0007(4) 0.2382(10)
O10? O 0.2199(18) 0.0351(5) 0.3958(12)
loop_
_geom_bond_atom_site_label_1
_geom_bond_atom_site_label_2
_geom_bond_site_symmetry_1
_geom_bond_site_symmetry_2
Cl1 O1 1_555 1_555
O2 Cl1 1_555 1_555
O3 Cl1 1_555 1_555
O4 Cl1 1_555 1_555
Cl2 O5 1_555 1_555
O6 Cl2 1_555 1_555
O7 Cl2 1_555 1_555
O8 Cl2 1_555 1_555
N1 H1 1_555 1_555
N2 C22 1_555 1_555
N3 H2 1_555 1_555
N4 C7 1_555 1_555
N5 C2 1_555 1_555
N6 C14 1_555 1_555
C1 N1 1_555 1_555
C2 C1 1_555 1_555
C3 C2 1_555 1_555
H3 C3 1_555 1_555
C4 C3 1_555 1_555
H4 C4 1_555 1_555
C5 C4 1_555 1_555
H5 C5 1_555 1_555
C6 C1 1_555 1_555
C7 C6 1_555 1_555
H6 C7 1_555 1_555
C8 N4 1_555 1_555
C9 C8 1_555 1_555
H7 C9 1_555 1_555
C10 C9 1_555 1_555
H8 C10 1_555 1_555
C11 C10 1_555 1_555
H9 C11 1_555 1_555
C12 C11 1_555 1_555
H10 C12 1_555 1_555
C13 C8 1_555 1_555
C14 N3 1_555 1_555
C15 N6 1_555 1_555
H11 C15 1_555 1_555
H12 C15 1_555 1_555
H13 C15 1_555 1_555
C16 N6 1_555 1_555
C17 C16 1_555 1_555
H14 C17 1_555 1_555
C18 C17 1_555 1_555
H15 C18 1_555 1_555
C19 C18 1_555 1_555
H16 C19 1_555 1_555
C20 C19 1_555 1_555
C21 N3 1_555 1_555
C22 C20 1_555 1_555
H17 C22 1_555 1_555
C23 N2 1_555 1_555
C24 C23 1_555 1_555
H18 C24 1_555 1_555
C25 C24 1_555 1_555
H19 C25 1_555 1_555
C26 C25 1_555 1_555
H20 C26 1_555 1_555
C27 C26 1_555 1_555
H21 C27 1_555 1_555
C28 C23 1_555 1_555
C29 N1 1_555 1_555
C30 N5 1_555 1_555
H22 C30 1_555 1_555
H23 C30 1_555 1_555
H24 C30 1_555 1_555
N5 C29 1_555 1_555
C5 C6 1_555 1_555
C12 C13 1_555 1_555
C13 C14 1_555 1_555
C16 C21 1_555 1_555
C20 C21 1_555 1_555
C27 C28 1_555 1_555
C28 C29 1_555 1_555

#END
