
#######################################################################
#
#                 Cambridge Crystallographic Data Centre
#                                CCDC 
#
#######################################################################
#
# If this CIF has been generated from an entry in the Cambridge 
# Structural Database, then it will include bibliographic, chemical, 
# crystal, experimental, refinement or atomic coordinate data resulting 
# from the CCDC's data processing and validation procedures.
#
#######################################################################

data_MEGLOB
_chemical_formula_moiety         'C9 H15 Br1 O2'
_chemical_name_systematic        
5-(1-Bromo-2,2-dimethylpropyl)dihydrofuran-2(3H)-one
_symmetry_cell_setting           orthorhombic
_symmetry_space_group_name_H-M   'P 21 21 21'
_symmetry_Int_Tables_number      19
_space_group_name_Hall           'P 2ac 2ab'
loop_
_symmetry_equiv_pos_site_id
_symmetry_equiv_pos_as_xyz
1 x,y,z
2 1/2-x,-y,1/2+z
3 1/2+x,1/2-y,-z
4 -x,1/2+y,1/2-z
_cell_length_a                   6.3044(12)
_cell_length_b                   9.775(2)
_cell_length_c                   16.431(3)
_cell_angle_alpha                90
_cell_angle_beta                 90
_cell_angle_gamma                90
_cell_volume                     1012.57
_exptl_crystal_description       needle
_cell_formula_units_Z            4
loop_
_atom_site_label
_atom_site_type_symbol
_atom_site_fract_x
_atom_site_fract_y
_atom_site_fract_z
C1 C 1.2644(4) 0.4130(4) 0.99900(18)
C2 C 1.1245(5) 0.4175(3) 1.07248(19)
H1 H 1.1965 0.4645 1.1182
H2 H 1.0850 0.3240 1.0900
C3 C 0.9298(5) 0.4973(4) 1.04508(18)
H3 H 0.9422 0.5953 1.0594
H4 H 0.7987 0.4597 1.0696
C4 C 0.9326(4) 0.4764(3) 0.95262(18)
H5 H 0.8515 0.3910 0.9403
C5 C 0.8383(4) 0.5912(3) 0.90213(17)
H6 H 0.6936 0.6076 0.9251
C6 C 0.8057(5) 0.5693(3) 0.81034(17)
C7 C 0.6815(6) 0.4350(3) 0.7978(2)
H7 H 0.5552 0.4351 0.8326
H8 H 0.7719 0.3571 0.8122
H9 H 0.6383 0.4274 0.7407
C8 C 0.6709(6) 0.6864(4) 0.7771(2)
H10 H 0.7444 0.7734 0.7862
H11 H 0.5337 0.6878 0.8051
H12 H 0.6482 0.6732 0.7186
C9 C 1.0133(6) 0.5618(4) 0.76248(18)
H13 H 0.9820 0.5494 0.7045
H14 H 1.0978 0.4843 0.7821
H15 H 1.0932 0.6468 0.7701
O1 O 1.1547(3) 0.4520(2) 0.93196(13)
O2 O 1.4478(3) 0.3804(2) 0.99477(15)
Br1 Br 0.99994(5) 0.76133(3) 0.922874(18)
loop_
_geom_bond_atom_site_label_1
_geom_bond_atom_site_label_2
_geom_bond_site_symmetry_1
_geom_bond_site_symmetry_2
C1 C2 1_555 1_555
C2 H1 1_555 1_555
H2 C2 1_555 1_555
C3 C2 1_555 1_555
H3 C3 1_555 1_555
H4 C3 1_555 1_555
C4 C3 1_555 1_555
H5 C4 1_555 1_555
C5 C4 1_555 1_555
H6 C5 1_555 1_555
C6 C5 1_555 1_555
C7 C6 1_555 1_555
H7 C7 1_555 1_555
H8 C7 1_555 1_555
H9 C7 1_555 1_555
C8 C6 1_555 1_555
H10 C8 1_555 1_555
H11 C8 1_555 1_555
H12 C8 1_555 1_555
C9 C6 1_555 1_555
H13 C9 1_555 1_555
H14 C9 1_555 1_555
H15 C9 1_555 1_555
O1 C1 1_555 1_555
O2 C1 1_555 1_555
Br1 C5 1_555 1_555
C4 O1 1_555 1_555

#END
