
#######################################################################
#
#                 Cambridge Crystallographic Data Centre
#                                CCDC 
#
#######################################################################
#
# If this CIF has been generated from an entry in the Cambridge 
# Structural Database, then it will include bibliographic, chemical, 
# crystal, experimental, refinement or atomic coordinate data resulting 
# from the CCDC's data processing and validation procedures.
#
#######################################################################

data_MEGMAN
_chemical_formula_moiety         'C18 H15 F4 N1 O4'
_chemical_name_systematic        
'2-(4-(Diethylamino)-2-hydroxybenzoyl)-3,4,5,6-tetrafluorobenzoic acid'
_symmetry_cell_setting           monoclinic
_symmetry_space_group_name_H-M   'P 21/c'
_symmetry_Int_Tables_number      14
_space_group_name_Hall           '-P 2ybc'
loop_
_symmetry_equiv_pos_site_id
_symmetry_equiv_pos_as_xyz
1 x,y,z
2 -x,1/2+y,1/2-z
3 -x,-y,-z
4 x,1/2-y,1/2+z
_cell_length_a                   12.954(2)
_cell_length_b                   15.480(3)
_cell_length_c                   9.0431(16)
_cell_angle_alpha                90
_cell_angle_beta                 100.321(3)
_cell_angle_gamma                90
_cell_volume                     1784.05
_exptl_crystal_colour            colorless
_exptl_crystal_description       prism
_chemical_melting_point          '441-442 K'
_cell_formula_units_Z            4
_exptl_crystal_recrystallization_method 'ethyl acetate/acetone'
loop_
_atom_site_label
_atom_site_type_symbol
_atom_site_fract_x
_atom_site_fract_y
_atom_site_fract_z
F1 F 0.81168(11) 0.34917(9) 0.14436(16)
F2 F 0.94965(13) 0.46654(9) 0.27923(19)
F3 F 1.11406(12) 0.41644(10) 0.4913(2)
F4 F 1.13683(12) 0.25224(10) 0.57361(19)
O1 O 1.09085(13) 0.09214(13) 0.4983(2)
H1 H 1.091(3) 0.037(2) 0.526(4)
O2 O 0.91989(12) 0.07090(10) 0.4215(2)
O3 O 0.85684(13) 0.12813(11) 0.10201(19)
O4 O 0.67601(17) 0.05035(13) 0.0569(2)
H2 H 0.745(2) 0.065(2) 0.050(3)
N1 N 0.41855(16) 0.14633(18) 0.3338(3)
C1 C 0.89252(17) 0.32244(14) 0.2483(3)
C2 C 0.96326(19) 0.38315(14) 0.3165(3)
C3 C 1.04577(19) 0.35814(16) 0.4221(3)
C4 C 1.05742(17) 0.27233(16) 0.4620(3)
C5 C 0.98776(16) 0.20995(14) 0.3944(3)
C6 C 0.99664(17) 0.11774(15) 0.4396(3)
C7 C 0.90234(16) 0.23621(13) 0.2851(2)
C8 C 0.82490(17) 0.17243(14) 0.1992(2)
C9 C 0.72110(16) 0.16813(13) 0.2306(2)
C10 C 0.64869(19) 0.10566(15) 0.1595(3)
C11 C 0.54954(19) 0.09860(16) 0.1932(3)
H3 H 0.5041 0.0567 0.1450
C12 C 0.51572(18) 0.15308(17) 0.2985(3)
C13 C 0.58695(18) 0.21684(17) 0.3677(3)
H4 H 0.5664 0.2552 0.4360
C14 C 0.68499(16) 0.22229(15) 0.3348(2)
H5 H 0.7304 0.2640 0.3838
C15 C 0.3453(2) 0.0786(3) 0.2698(4)
H6 H 0.3509 0.0700 0.1653
H7 H 0.2742 0.0972 0.2730
C16 C 0.3661(4) -0.0059(3) 0.3530(5)
H8 H 0.3108 -0.0459 0.3168
H9 H 0.3691 0.0037 0.4586
H10 H 0.4318 -0.0292 0.3366
C17 C 0.3837(3) 0.2025(3) 0.4460(4)
H11 H 0.4419 0.2121 0.5280
H12 H 0.3285 0.1735 0.4866
C18 C 0.3431(3) 0.2892(3) 0.3818(5)
H13 H 0.3218 0.3235 0.4595
H14 H 0.2841 0.2803 0.3023
H15 H 0.3976 0.3187 0.3428
loop_
_geom_bond_atom_site_label_1
_geom_bond_atom_site_label_2
_geom_bond_site_symmetry_1
_geom_bond_site_symmetry_2
F1 C1 1_555 1_555
F2 C2 1_555 1_555
F3 C3 1_555 1_555
F4 C4 1_555 1_555
O1 H1 1_555 1_555
O2 C6 1_555 1_555
O3 C8 1_555 1_555
O4 H2 1_555 1_555
N1 C12 1_555 1_555
C1 C2 1_555 1_555
C2 C3 1_555 1_555
C3 C4 1_555 1_555
C4 C5 1_555 1_555
C5 C6 1_555 1_555
C6 O1 1_555 1_555
C7 C1 1_555 1_555
C8 C7 1_555 1_555
C9 C8 1_555 1_555
C10 O4 1_555 1_555
C11 C10 1_555 1_555
H3 C11 1_555 1_555
C12 C11 1_555 1_555
C13 C12 1_555 1_555
H4 C13 1_555 1_555
C14 C9 1_555 1_555
H5 C14 1_555 1_555
C15 N1 1_555 1_555
H6 C15 1_555 1_555
H7 C15 1_555 1_555
C16 C15 1_555 1_555
H8 C16 1_555 1_555
H9 C16 1_555 1_555
H10 C16 1_555 1_555
C17 N1 1_555 1_555
H11 C17 1_555 1_555
H12 C17 1_555 1_555
C18 C17 1_555 1_555
H13 C18 1_555 1_555
H14 C18 1_555 1_555
H15 C18 1_555 1_555
C5 C7 1_555 1_555
C9 C10 1_555 1_555
C13 C14 1_555 1_555

#END
