
#######################################################################
#
#                 Cambridge Crystallographic Data Centre
#                                CCDC 
#
#######################################################################
#
# If this CIF has been generated from an entry in the Cambridge 
# Structural Database, then it will include bibliographic, chemical, 
# crystal, experimental, refinement or atomic coordinate data resulting 
# from the CCDC's data processing and validation procedures.
#
#######################################################################

data_MEGPOG
_chemical_formula_moiety         'C19 H18 F1 N5 O1'
_chemical_name_systematic        
10-fluoro-5-(2-dimethylamino-ethylamino)phthalazino[1,2-b]-quinazolin-8-one
_chemical_properties_biological  'anticancer activity'
_symmetry_cell_setting           monoclinic
_symmetry_space_group_name_H-M   'P 21/c'
_symmetry_Int_Tables_number      14
_space_group_name_Hall           '-P 2ybc'
loop_
_symmetry_equiv_pos_site_id
_symmetry_equiv_pos_as_xyz
1 x,y,z
2 -x,1/2+y,1/2-z
3 -x,-y,-z
4 x,1/2-y,1/2+z
_cell_length_a                   8.462(3)
_cell_length_b                   18.707(6)
_cell_length_c                   10.900(4)
_cell_angle_alpha                90
_cell_angle_beta                 92.354(5)
_cell_angle_gamma                90
_cell_volume                     1724
_exptl_crystal_colour            brown
_exptl_crystal_description       block
_cell_formula_units_Z            4
loop_
_atom_site_label
_atom_site_type_symbol
_atom_site_fract_x
_atom_site_fract_y
_atom_site_fract_z
N1 N 0.4679(2) 0.61612(10) 0.53069(18)
N2 N 0.2684(3) 0.53050(12) 0.4789(2)
N3 N 0.5736(3) 0.66999(11) 0.5004(2)
C1 C 0.3653(3) 0.60611(13) 0.3207(2)
C2 C 0.3641(3) 0.58162(12) 0.4481(2)
C3 C 0.2711(3) 0.50896(13) 0.5996(2)
C4 C 0.3728(3) 0.54051(13) 0.6896(2)
C5 C 0.4753(3) 0.59902(14) 0.6573(2)
C6 C 0.4676(3) 0.66091(13) 0.2882(2)
C7 C 0.3737(3) 0.51727(15) 0.8123(2)
H1 H 0.4405 0.5381 0.8721
O1 O 0.5605(3) 0.63207(12) 0.72974(18)
F1 F 0.2733(3) 0.44000(11) 0.95974(18)
C8 C 0.5742(3) 0.68974(13) 0.3852(2)
C9 C 0.4678(4) 0.68372(16) 0.1658(3)
H2 H 0.5346 0.7206 0.1438
C10 C 0.1715(4) 0.43086(16) 0.7550(3)
H3 H 0.1050 0.3942 0.7787
N4 N 0.6839(3) 0.73835(13) 0.3546(2)
H4 H 0.6837 0.7531 0.2799
C11 C 0.1694(4) 0.45336(15) 0.6346(3)
H5 H 0.1013 0.4320 0.5764
C12 C 0.2737(4) 0.46347(16) 0.8407(3)
C13 C 0.2650(3) 0.57371(16) 0.2306(3)
H6 H 0.1973 0.5370 0.2519
C14 C 0.3692(4) 0.65165(18) 0.0774(3)
H7 H 0.3706 0.6667 -0.0039
C15 C 0.2679(4) 0.59677(18) 0.1105(3)
H8 H 0.2015 0.5755 0.0510
C16 C 0.8028(4) 0.76697(18) 0.4421(3)
H9 H 0.7898 0.7655 0.5310
N5 N 0.9641(3) 0.80352(14) 0.2680(2)
C17 C 0.9517(9) 0.8797(3) 0.2639(10)
H10 H 0.8689 0.9009 0.2117
H11 H 1.0475 0.9078 0.2755
C18 C 1.1096(7) 0.7863(5) 0.2184(9)
H12 H 1.1941 0.8053 0.2699
H13 H 1.1143 0.8064 0.1376
H14 H 1.1200 0.7352 0.2136
C19 C 0.8970(10) 0.8230(5) 0.3832(7)
C20? C 0.9691(6) 0.7691(3) 0.3852(5)
loop_
_geom_bond_atom_site_label_1
_geom_bond_atom_site_label_2
_geom_bond_site_symmetry_1
_geom_bond_site_symmetry_2
N1 N3 1_555 1_555
N2 C2 1_555 1_555
N3 C8 1_555 1_555
C1 C2 1_555 1_555
C2 N1 1_555 1_555
C3 N2 1_555 1_555
C4 C3 1_555 1_555
C5 N1 1_555 1_555
C6 C1 1_555 1_555
C7 C4 1_555 1_555
H1 C7 1_555 1_555
O1 C5 1_555 1_555
F1 C12 1_555 1_555
C8 C6 1_555 1_555
C9 C6 1_555 1_555
H2 C9 1_555 1_555
C10 H3 1_555 1_555
N4 C8 1_555 1_555
H4 N4 1_555 1_555
C11 C3 1_555 1_555
H5 C11 1_555 1_555
C12 C7 1_555 1_555
C13 C1 1_555 1_555
H6 C13 1_555 1_555
C14 C9 1_555 1_555
H7 C14 1_555 1_555
C15 C13 1_555 1_555
H8 C15 1_555 1_555
C16 N4 1_555 1_555
H9 C16 1_555 1_555
N5 C17 1_555 1_555
C17 H10 1_555 1_555
H11 C17 1_555 1_555
C18 N5 1_555 1_555
H12 C18 1_555 1_555
H13 C18 1_555 1_555
H14 C18 1_555 1_555
C19 C16 1_555 1_555
C4 C5 1_555 1_555
C10 C11 1_555 1_555
C10 C12 1_555 1_555
C14 C15 1_555 1_555
N5 C19 1_555 1_555

#END
