
#######################################################################
#
#                 Cambridge Crystallographic Data Centre
#                                CCDC 
#
#######################################################################
#
# If this CIF has been generated from an entry in the Cambridge 
# Structural Database, then it will include bibliographic, chemical, 
# crystal, experimental, refinement or atomic coordinate data resulting 
# from the CCDC's data processing and validation procedures.
#
#######################################################################

data_MEGWED
_chemical_formula_moiety         'C28 H18 N4 O1,2.5(C4 H8 O2)'
_chemical_name_systematic        
'{2,6-bis[2-(1H-indol-3-yl)ethenyl]-4H-pyran-4-ylidene}propanedinitrile 1,4-dioxane solvate'
_symmetry_cell_setting           triclinic
_symmetry_space_group_name_H-M   'P -1'
_symmetry_Int_Tables_number      2
_space_group_name_Hall           '-P 1'
loop_
_symmetry_equiv_pos_site_id
_symmetry_equiv_pos_as_xyz
1 x,y,z
2 -x,-y,-z
_cell_length_a                   10.4610(14)
_cell_length_b                   12.7008(17)
_cell_length_c                   14.931(3)
_cell_angle_alpha                101.290(3)
_cell_angle_beta                 103.112(3)
_cell_angle_gamma                109.122(2)
_cell_volume                     1745.05
_exptl_crystal_colour            red
_exptl_crystal_description       Prism
_cell_formula_units_Z            2
loop_
_atom_site_label
_atom_site_type_symbol
_atom_site_fract_x
_atom_site_fract_y
_atom_site_fract_z
O1 O -0.03583(17) 0.06295(15) 0.41016(12)
N1 N 0.3418(3) 0.4866(2) 0.77421(18)
H1 H 0.4277 0.5369 0.8026
N2 N 0.5018(3) 0.0916(2) 0.28189(19)
H2 H 0.5932 0.1256 0.3003
N3 N -0.6224(3) -0.1710(3) 0.4156(3)
N4 N -0.5601(3) -0.3320(3) 0.1477(2)
C1 C 0.2979(3) 0.4024(3) 0.6896(2)
H3 H 0.3566 0.3897 0.6540
C2 C 0.2286(3) 0.4794(2) 0.80752(19)
C3 C 0.2215(4) 0.5453(3) 0.8907(2)
H4 H 0.3027 0.6058 0.9347
C4 C 0.0925(4) 0.5194(3) 0.9064(2)
H5 H 0.0861 0.5635 0.9616
C5 C -0.0288(4) 0.4288(3) 0.8421(2)
H6 H -0.1150 0.4125 0.8549
C6 C -0.0234(3) 0.3623(3) 0.7591(2)
H7 H -0.1057 0.3022 0.7158
C7 C 0.1075(3) 0.3861(2) 0.74072(18)
C8 C 0.1541(3) 0.3383(2) 0.66403(19)
C9 C 0.0785(3) 0.2417(2) 0.57824(18)
H8 H 0.1320 0.2270 0.5391
C10 C -0.0592(3) 0.1702(2) 0.54747(18)
H9 H -0.1160 0.1836 0.5845
C11 C -0.1248(3) 0.0742(2) 0.46096(17)
C12 C -0.2639(3) -0.0019(2) 0.42967(18)
H10 H -0.3228 0.0060 0.4665
C13 C -0.3199(3) -0.0926(2) 0.34203(19)
C14 C -0.2242(3) -0.0955(2) 0.28837(18)
H11 H -0.2575 -0.1495 0.2279
C15 C -0.0854(3) -0.0212(2) 0.32353(17)
C16 C 0.0216(3) -0.0228(2) 0.27906(19)
H12 H -0.0076 -0.0724 0.2170
C17 C 0.1618(3) 0.0424(2) 0.32070(19)
H13 H 0.1874 0.0943 0.3813
C18 C 0.2765(3) 0.0420(2) 0.28364(19)
C19 C 0.4175(3) 0.1113(3) 0.3337(2)
H14 H 0.4499 0.1642 0.3946
C20 C 0.4199(3) 0.0093(3) 0.1954(2)
C21 C 0.2762(3) -0.0248(2) 0.19351(19)
C22 C 0.1719(3) -0.1090(3) 0.1113(2)
H15 H 0.0761 -0.1336 0.1071
C23 C 0.2128(4) -0.1550(3) 0.0366(2)
H16 H 0.1434 -0.2113 -0.0179
C24 C 0.3535(4) -0.1201(3) 0.0402(3)
H17 H 0.3771 -0.1529 -0.0118
C25 C 0.4594(4) -0.0377(3) 0.1194(3)
H18 H 0.5546 -0.0140 0.1220
C26 C -0.5513(3) -0.1720(3) 0.3677(2)
C27 C -0.4603(3) -0.1736(2) 0.3104(2)
C28 C -0.5167(3) -0.2623(3) 0.2199(2)
O2 O 0.7997(3) 0.2235(3) 0.3124(2)
O3 O 1.0519(4) 0.3924(4) 0.3134(4)
C29 C 0.8533(5) 0.2151(5) 0.2349(3)
H19 H 0.8069 0.2453 0.1883
H20 H 0.8300 0.1336 0.2040
C30 C 1.0055(5) 0.2779(6) 0.2628(5)
H21 H 1.0520 0.2399 0.3017
H22 H 1.0344 0.2734 0.2054
C31 C 1.0004(5) 0.4053(5) 0.3891(4)
H23 H 1.0231 0.4875 0.4164
H24 H 1.0492 0.3793 0.4381
C32 C 0.8458(5) 0.3413(4) 0.3652(4)
H25 H 0.8211 0.3452 0.4242
H26 H 0.7960 0.3788 0.3280
O4 O 0.7942(3) 0.8137(2) 1.04794(17)
O5 O 0.6330(3) 0.6500(2) 0.86946(19)
C33 C 0.7545(5) 0.6952(4) 1.0347(3)
H27 H 0.6669 0.6657 1.0502
H28 H 0.8275 0.6828 1.0794
C34 C 0.7338(6) 0.6306(4) 0.9410(3)
H29 H 0.6997 0.5483 0.9364
H30 H 0.8243 0.6520 0.9282
C35 C 0.6745(6) 0.7700(4) 0.8814(3)
H31 H 0.7619 0.7986 0.8654
H32 H 0.6015 0.7828 0.8371
C36 C 0.6961(6) 0.8331(4) 0.9747(4)
H33 H 0.6051 0.8128 0.9869
H34 H 0.7315 0.9155 0.9797
O6 O 0.5960(6) 0.4621(6) 0.5476(5)
C37 C 0.4612(4) 0.3860(3) 0.5064(3)
H35 H 0.4077 0.3901 0.5513
H36 H 0.4582 0.3075 0.4881
C38 C 0.4035(6) 0.4120(5) 0.4284(6)
H37 H 0.3060 0.3560 0.3975
H38 H 0.4560 0.4050 0.3833
O6A O 0.4040(6) 0.5379(6) 0.4524(5)
C37A C 0.5388(4) 0.6140(3) 0.4936(3)
H35A H 0.5923 0.6099 0.4487
H36A H 0.5418 0.6925 0.5119
C38A C 0.5965(6) 0.5880(5) 0.5716(6)
H37A H 0.6940 0.6440 0.6025
H38A H 0.5440 0.5950 0.6167
loop_
_geom_bond_atom_site_label_1
_geom_bond_atom_site_label_2
_geom_bond_site_symmetry_1
_geom_bond_site_symmetry_2
O1 C11 1_555 1_555
N1 H1 1_555 1_555
N2 H2 1_555 1_555
N3 C26 1_555 1_555
N4 C28 1_555 1_555
C1 N1 1_555 1_555
H3 C1 1_555 1_555
C2 N1 1_555 1_555
C3 C2 1_555 1_555
H4 C3 1_555 1_555
C4 C3 1_555 1_555
H5 C4 1_555 1_555
C5 C4 1_555 1_555
H6 C5 1_555 1_555
C6 C5 1_555 1_555
H7 C6 1_555 1_555
C7 C2 1_555 1_555
C8 C1 1_555 1_555
C9 C8 1_555 1_555
H8 C9 1_555 1_555
C10 C9 1_555 1_555
H9 C10 1_555 1_555
C11 C10 1_555 1_555
C12 C11 1_555 1_555
H10 C12 1_555 1_555
C13 C12 1_555 1_555
C14 C13 1_555 1_555
H11 C14 1_555 1_555
C15 O1 1_555 1_555
C16 C15 1_555 1_555
H12 C16 1_555 1_555
C17 C16 1_555 1_555
H13 C17 1_555 1_555
C18 C17 1_555 1_555
C19 N2 1_555 1_555
H14 C19 1_555 1_555
C20 N2 1_555 1_555
C21 C18 1_555 1_555
C22 C21 1_555 1_555
H15 C22 1_555 1_555
C23 C22 1_555 1_555
H16 C23 1_555 1_555
C24 C23 1_555 1_555
H17 C24 1_555 1_555
C25 C20 1_555 1_555
H18 C25 1_555 1_555
C26 C27 1_555 1_555
C27 C13 1_555 1_555
C28 C27 1_555 1_555
O2 C29 1_555 1_555
O3 C30 1_555 1_555
C29 H19 1_555 1_555
H20 C29 1_555 1_555
C30 C29 1_555 1_555
H21 C30 1_555 1_555
H22 C30 1_555 1_555
C31 O3 1_555 1_555
H23 C31 1_555 1_555
H24 C31 1_555 1_555
C32 O2 1_555 1_555
H25 C32 1_555 1_555
H26 C32 1_555 1_555
O4 C33 1_555 1_555
O5 C34 1_555 1_555
C33 H27 1_555 1_555
H28 C33 1_555 1_555
C34 C33 1_555 1_555
H29 C34 1_555 1_555
H30 C34 1_555 1_555
C35 O5 1_555 1_555
H31 C35 1_555 1_555
H32 C35 1_555 1_555
C36 O4 1_555 1_555
H33 C36 1_555 1_555
H34 C36 1_555 1_555
O6 C37 1_555 1_555
C37 H35 1_555 1_555
H36 C37 1_555 1_555
C38 C37 1_555 1_555
H37 C38 1_555 1_555
H38 C38 1_555 1_555
O6A C38 1_555 1_555
C37A O6A 1_555 1_555
H35A C37A 1_555 1_555
H36A C37A 1_555 1_555
C38A O6 1_555 1_555
H37A C38A 1_555 1_555
H38A C38A 1_555 1_555
C6 C7 1_555 1_555
C7 C8 1_555 1_555
C14 C15 1_555 1_555
C18 C19 1_555 1_555
C20 C21 1_555 1_555
C24 C25 1_555 1_555
C31 C32 1_555 1_555
C35 C36 1_555 1_555
C37A C38A 1_555 1_555

#END
