
#######################################################################
#
#                 Cambridge Crystallographic Data Centre
#                                CCDC 
#
#######################################################################
#
# If this CIF has been generated from an entry in the Cambridge 
# Structural Database, then it will include bibliographic, chemical, 
# crystal, experimental, refinement or atomic coordinate data resulting 
# from the CCDC's data processing and validation procedures.
#
#######################################################################

data_MEGWON
_chemical_formula_moiety         'C36 H34 N4 O1'
_chemical_name_systematic        
'(2,6-bis{2-[1-(2-methylpropyl)-1H-indol-3-yl]ethenyl}-4H-pyran-4-ylidene)propanedinitrile unknown solvate'
_symmetry_cell_setting           monoclinic
_symmetry_space_group_name_H-M   'P 21/c'
_symmetry_Int_Tables_number      14
_space_group_name_Hall           '-P 2ybc'
loop_
_symmetry_equiv_pos_site_id
_symmetry_equiv_pos_as_xyz
1 x,y,z
2 -x,1/2+y,1/2-z
3 -x,-y,-z
4 x,1/2-y,1/2+z
_cell_length_a                   19.030(3)
_cell_length_b                   21.991(3)
_cell_length_c                   9.8034(12)
_cell_angle_alpha                90
_cell_angle_beta                 102.551(7)
_cell_angle_gamma                90
_cell_volume                     4004.57
_exptl_crystal_colour            red
_exptl_crystal_description       plate
_cell_formula_units_Z            4
loop_
_atom_site_label
_atom_site_type_symbol
_atom_site_fract_x
_atom_site_fract_y
_atom_site_fract_z
O1 O 0.50815(15) 0.53487(11) 0.6696(3)
N1 N 0.6945(2) 0.32364(17) 0.9916(4)
N2 N 0.77351(19) 0.63182(16) 0.4491(4)
N3 N 0.2023(3) 0.5061(3) 0.6959(7)
N4 N 0.2315(3) 0.6328(2) 0.3639(6)
C1 C 0.6414(3) 0.31165(18) 1.0678(4)
C2 C 0.6390(3) 0.2644(2) 1.1642(5)
H1 H 0.675680 0.235818 1.187118
C3 C 0.5808(3) 0.2632(2) 1.2210(5)
H2 H 0.577821 0.233009 1.285950
C4 C 0.5251(3) 0.3046(2) 1.1874(4)
H3 H 0.486382 0.301749 1.230866
C5 C 0.5257(2) 0.35015(18) 1.0910(4)
H4 H 0.488051 0.377848 1.068190
C6 C 0.5855(2) 0.35307(16) 1.0283(4)
C7 C 0.6059(2) 0.39290(17) 0.9251(4)
C8 C 0.6736(3) 0.3722(2) 0.9104(4)
H5 H 0.700438 0.389883 0.852149
C9 C 0.5674(3) 0.44183(17) 0.8429(4)
H6 H 0.592856 0.463414 0.787889
C10 C 0.5006(2) 0.45969(16) 0.8362(4)
H7 H 0.475593 0.441965 0.897573
C11 C 0.4638(2) 0.50454(15) 0.7407(4)
C12 C 0.3931(3) 0.51594(17) 0.7136(4)
H8 H 0.364741 0.496299 0.766243
C13 C 0.3600(2) 0.55661(16) 0.6082(4)
C14 C 0.4083(2) 0.58740(17) 0.5346(4)
H9 H 0.390070 0.614571 0.462931
C15 C 0.4795(2) 0.57641(15) 0.5706(4)
C16 C 0.5339(2) 0.60441(16) 0.5065(4)
H10 H 0.518152 0.633092 0.436827
C17 C 0.6028(2) 0.59266(16) 0.5385(4)
H11 H 0.617211 0.565289 0.611516
C18 C 0.6600(2) 0.61598(16) 0.4770(4)
C19 C 0.7309(3) 0.60285(19) 0.5254(4)
H12 H 0.748409 0.577379 0.600832
C20 C 0.6566(2) 0.65661(15) 0.3589(4)
C21 C 0.6025(3) 0.68515(18) 0.2625(4)
H13 H 0.554598 0.679658 0.266775
C22 C 0.6198(3) 0.7217(2) 0.1603(5)
H14 H 0.583702 0.741183 0.095967
C23 C 0.6927(3) 0.7291(2) 0.1542(5)
H15 H 0.703785 0.753828 0.084897
C24 C 0.7462(3) 0.7021(2) 0.2439(5)
H16 H 0.793864 0.707909 0.238372
C25 C 0.7283(2) 0.66456(19) 0.3471(4)
C26 C 0.2862(3) 0.56434(19) 0.5696(5)
C27 C 0.2383(3) 0.5327(2) 0.6395(6)
C28 C 0.2552(3) 0.6025(2) 0.4596(6)
C29 C 0.7613(3) 0.2908(3) 0.9975(6)
H17 H 0.750138 0.247681 0.991223
H18 H 0.778993 0.301438 0.914979
C30 C 0.8192(9) 0.2998(7) 1.117(2)
H19 H 0.800810 0.289182 1.200316
C31 C 0.8393(8) 0.3691(8) 1.129(2)
H20 H 0.865774 0.379339 1.059531
H21 H 0.868350 0.377289 1.220389
H22 H 0.796111 0.392967 1.115085
C32 C 0.8832(7) 0.2594(7) 1.1168(18)
H23 H 0.924722 0.275292 1.180452
H24 H 0.892283 0.258012 1.024322
H25 H 0.873303 0.219080 1.145356
C33 C 0.8509(3) 0.6274(3) 0.4706(7)
H26 H 0.864742 0.636900 0.383420
H27 H 0.865120 0.585746 0.494652
C34 C 0.8891(10) 0.6825(9) 0.5193(17)
H28 H 0.866962 0.718932 0.470581
C35 C 0.9697(7) 0.6797(7) 0.5323(17)
H29 H 0.987916 0.642063 0.575496
H30 H 0.992117 0.713080 0.588658
H31 H 0.980345 0.682341 0.441146
C36 C 0.8873(7) 0.6816(7) 0.6960(15)
H32 H 0.838657 0.686899 0.706473
H33 H 0.916666 0.714061 0.742895
H34 H 0.905521 0.643404 0.736059
H35? H 0.766600 0.282763 0.902934
H36? H 0.758592 0.251876 1.042763
H37? H 0.867508 0.595388 0.537909
H38? H 0.862987 0.615590 0.383154
C37? C 0.8295(8) 0.3258(9) 1.0780(17)
H39? H 0.828794 0.367215 1.040988
C38? C 0.8938(8) 0.2948(8) 1.0565(18)
H40? H 0.909634 0.313290 0.979664
H41? H 0.883022 0.252732 1.036082
H42? H 0.931126 0.298073 1.139555
C39? C 0.8244(7) 0.3286(8) 1.2326(16)
H43? H 0.845794 0.292755 1.280114
H44? H 0.774805 0.330949 1.238382
H45? H 0.849572 0.363919 1.275627
C40? C 0.8921(10) 0.6693(9) 0.585(2)
H46? H 0.858653 0.667155 0.647625
C41? C 0.9568(9) 0.6357(9) 0.681(2)
H47? H 0.995546 0.663896 0.711553
H48? H 0.972938 0.603319 0.629409
H49? H 0.941744 0.619211 0.760499
C42? C 0.8858(8) 0.7238(8) 0.5586(19)
H50? H 0.920775 0.735901 0.506577
H51? H 0.893367 0.746350 0.644433
H52? H 0.838298 0.731856 0.504467
loop_
_geom_bond_atom_site_label_1
_geom_bond_atom_site_label_2
_geom_bond_site_symmetry_1
_geom_bond_site_symmetry_2
O1 C11 1_555 1_555
N1 C1 1_555 1_555
N2 C19 1_555 1_555
N3 C27 1_555 1_555
N4 C28 1_555 1_555
C1 C2 1_555 1_555
C2 H1 1_555 1_555
C3 C2 1_555 1_555
H2 C3 1_555 1_555
C4 C3 1_555 1_555
H3 C4 1_555 1_555
C5 C4 1_555 1_555
H4 C5 1_555 1_555
C6 C1 1_555 1_555
C7 C6 1_555 1_555
C8 N1 1_555 1_555
H5 C8 1_555 1_555
C9 C7 1_555 1_555
H6 C9 1_555 1_555
C10 C9 1_555 1_555
H7 C10 1_555 1_555
C11 C10 1_555 1_555
C12 C11 1_555 1_555
H8 C12 1_555 1_555
C13 C12 1_555 1_555
C14 C13 1_555 1_555
H9 C14 1_555 1_555
C15 O1 1_555 1_555
C16 C15 1_555 1_555
H10 C16 1_555 1_555
C17 C16 1_555 1_555
H11 C17 1_555 1_555
C18 C17 1_555 1_555
C19 C18 1_555 1_555
H12 C19 1_555 1_555
C20 C18 1_555 1_555
C21 C20 1_555 1_555
H13 C21 1_555 1_555
C22 C21 1_555 1_555
H14 C22 1_555 1_555
C23 C22 1_555 1_555
H15 C23 1_555 1_555
C24 C23 1_555 1_555
H16 C24 1_555 1_555
C25 N2 1_555 1_555
C26 C13 1_555 1_555
C27 C26 1_555 1_555
C28 C26 1_555 1_555
C29 N1 1_555 1_555
H17 C29 1_555 1_555
H18 C29 1_555 1_555
C30 C29 1_555 1_555
H19 C30 1_555 1_555
C31 C30 1_555 1_555
H20 C31 1_555 1_555
H21 C31 1_555 1_555
H22 C31 1_555 1_555
C32 C30 1_555 1_555
H23 C32 1_555 1_555
H24 C32 1_555 1_555
H25 C32 1_555 1_555
C33 N2 1_555 1_555
H26 C33 1_555 1_555
H27 C33 1_555 1_555
C34 C33 1_555 1_555
H28 C34 1_555 1_555
C35 C34 1_555 1_555
H29 C35 1_555 1_555
H30 C35 1_555 1_555
H31 C35 1_555 1_555
C36 C34 1_555 1_555
H32 C36 1_555 1_555
H33 C36 1_555 1_555
H34 C36 1_555 1_555
C5 C6 1_555 1_555
C7 C8 1_555 1_555
C14 C15 1_555 1_555
C20 C25 1_555 1_555
C24 C25 1_555 1_555

#END
