
#######################################################################
#
#                 Cambridge Crystallographic Data Centre
#                                CCDC 
#
#######################################################################
#
# If this CIF has been generated from an entry in the Cambridge 
# Structural Database, then it will include bibliographic, chemical, 
# crystal, experimental, refinement or atomic coordinate data resulting 
# from the CCDC's data processing and validation procedures.
#
#######################################################################

data_MEGXAY
_chemical_formula_moiety         'C21 H18 N4 O1'
_chemical_name_systematic        
4-(4-Methoxyphenyl)-5-(4-methylphenyl)-3-(2-pyridyl)-4H-1,2,4-triazole
_symmetry_cell_setting           monoclinic
_symmetry_space_group_name_H-M   'P 21/c'
_symmetry_Int_Tables_number      14
_space_group_name_Hall           '-P 2ybc'
loop_
_symmetry_equiv_pos_site_id
_symmetry_equiv_pos_as_xyz
1 x,y,z
2 -x,1/2+y,1/2-z
3 -x,-y,-z
4 x,1/2-y,1/2+z
_cell_length_a                   11.561(4)
_cell_length_b                   19.044(7)
_cell_length_c                   8.540(3)
_cell_angle_alpha                90
_cell_angle_beta                 110.104(6)
_cell_angle_gamma                90
_cell_volume                     1765.67
_exptl_crystal_colour            colorless
_exptl_crystal_description       rod
_cell_formula_units_Z            4
_exptl_crystal_recrystallization_method ethanol
loop_
_atom_site_label
_atom_site_type_symbol
_atom_site_fract_x
_atom_site_fract_y
_atom_site_fract_z
C1 C 0.15087(17) 0.20469(10) 0.1987(2)
C2 C 0.17964(16) 0.09156(10) 0.2021(2)
C3 C 0.23577(16) 0.02124(10) 0.2115(2)
C4 C 0.17674(17) -0.03041(10) 0.1002(2)
H1 H 0.1021 -0.0211 0.0163
C5 C 0.2292(2) -0.09590(11) 0.1143(3)
H2 H 0.1913 -0.1314 0.0394
C6 C 0.33818(19) -0.10783(11) 0.2406(3)
H3 H 0.3752 -0.1518 0.2546
C7 C 0.39222(18) -0.05329(11) 0.3470(3)
H4 H 0.4670 -0.0618 0.4314
C8 C 0.36541(16) 0.16294(9) 0.2224(2)
C9 C 0.40031(17) 0.13653(10) 0.0946(2)
H5 H 0.3426 0.1150 0.0031
C10 C 0.52113(18) 0.14236(10) 0.1036(3)
H6 H 0.5454 0.1237 0.0191
C11 C 0.60635(16) 0.17561(10) 0.2368(3)
C12 C 0.57167(16) 0.20300(9) 0.3629(2)
H7 H 0.6290 0.2258 0.4527
C13 C 0.45017(16) 0.19631(9) 0.3549(2)
H8 H 0.4261 0.2146 0.4399
C14 C 0.82182(17) 0.19637(11) 0.3806(3)
H9 H 0.8153 0.2447 0.4084
H10 H 0.8991 0.1889 0.3644
H11 H 0.8174 0.1669 0.4696
C15 C 0.16373(16) 0.28110(10) 0.1971(2)
C16 C 0.24370(17) 0.31427(11) 0.1319(2)
H12 H 0.2958 0.2873 0.0940
C17 C 0.24756(18) 0.38675(11) 0.1219(2)
H13 H 0.3028 0.4077 0.0789
C18 C 0.17045(19) 0.42831(11) 0.1751(2)
C19 C 0.09061(18) 0.39530(11) 0.2402(2)
H14 H 0.0378 0.4224 0.2763
C20 C 0.08702(16) 0.32276(10) 0.2531(2)
H15 H 0.0333 0.3020 0.2992
C21 C 0.1731(2) 0.50733(10) 0.1591(3)
H16 H 0.2494 0.5252 0.2351
H17 H 0.1057 0.5275 0.1848
H18 H 0.1660 0.5195 0.0470
N1 N 0.04477(14) 0.17358(8) 0.18085(19)
N2 N 0.06394(14) 0.10147(9) 0.1831(2)
N3 N 0.23972(13) 0.15442(8) 0.21387(17)
N4 N 0.34356(14) 0.01118(8) 0.33622(19)
O1 O 0.72343(11) 0.17939(7) 0.23113(18)
loop_
_geom_bond_atom_site_label_1
_geom_bond_atom_site_label_2
_geom_bond_site_symmetry_1
_geom_bond_site_symmetry_2
C1 C15 1_555 1_555
C2 C3 1_555 1_555
C3 C4 1_555 1_555
C4 H1 1_555 1_555
C5 C4 1_555 1_555
H2 C5 1_555 1_555
C6 C5 1_555 1_555
H3 C6 1_555 1_555
C7 C6 1_555 1_555
H4 C7 1_555 1_555
C8 C9 1_555 1_555
C9 H5 1_555 1_555
C10 C9 1_555 1_555
H6 C10 1_555 1_555
C11 C10 1_555 1_555
C12 C11 1_555 1_555
H7 C12 1_555 1_555
C13 C8 1_555 1_555
H8 C13 1_555 1_555
C14 H9 1_555 1_555
H10 C14 1_555 1_555
H11 C14 1_555 1_555
C15 C16 1_555 1_555
C16 H12 1_555 1_555
C17 C16 1_555 1_555
H13 C17 1_555 1_555
C18 C17 1_555 1_555
C19 C18 1_555 1_555
H14 C19 1_555 1_555
C20 C15 1_555 1_555
H15 C20 1_555 1_555
C21 C18 1_555 1_555
H16 C21 1_555 1_555
H17 C21 1_555 1_555
H18 C21 1_555 1_555
N1 C1 1_555 1_555
N2 C2 1_555 1_555
N3 C1 1_555 1_555
N4 C3 1_555 1_555
O1 C11 1_555 1_555
C2 N3 1_555 1_555
C7 N4 1_555 1_555
C8 N3 1_555 1_555
C12 C13 1_555 1_555
C14 O1 1_555 1_555
C19 C20 1_555 1_555
N1 N2 1_555 1_555

#END
