
#######################################################################
#
#                 Cambridge Crystallographic Data Centre
#                                CCDC 
#
#######################################################################
#
# If this CIF has been generated from an entry in the Cambridge 
# Structural Database, then it will include bibliographic, chemical, 
# crystal, experimental, refinement or atomic coordinate data resulting 
# from the CCDC's data processing and validation procedures.
#
#######################################################################

data_MEHNOD
_chemical_formula_moiety         'C21 H14 F1 N1 O2'
_chemical_name_systematic        
11-(4-Fluorophenyl)-7,11-dihydrobenzo(f)furo(3,4-b)quinolin-10(8H)-one
_symmetry_cell_setting           monoclinic
_symmetry_space_group_name_H-M   'C 2/c'
_symmetry_Int_Tables_number      15
_space_group_name_Hall           '-C 2yn'
loop_
_symmetry_equiv_pos_site_id
_symmetry_equiv_pos_as_xyz
1 x,y,z
2 1/2+x,1/2+y,z
3 -x,y,1/2-z
4 1/2-x,1/2+y,1/2-z
5 -x,-y,-z
6 1/2-x,1/2-y,-z
7 x,-y,1/2+z
8 1/2+x,1/2-y,1/2+z
_cell_length_a                   21.010(7)
_cell_length_b                   11.388(4)
_cell_length_c                   15.123(5)
_cell_angle_alpha                90
_cell_angle_beta                 121.380(5)
_cell_angle_gamma                90
_cell_volume                     3089.11
_exptl_crystal_colour            yellow
_exptl_crystal_description       block
_chemical_melting_point          'above 573 K'
_cell_formula_units_Z            8
loop_
_atom_site_label
_atom_site_type_symbol
_atom_site_fract_x
_atom_site_fract_y
_atom_site_fract_z
F1 F -0.00889(14) 0.8006(2) 0.3468(2)
N1 N 0.16493(16) 0.2275(2) 0.6213(2)
H1 H 0.1528 0.1771 0.6524
O1 O 0.27182(14) 0.4630(2) 0.79474(19)
O2 O 0.29226(15) 0.5868(2) 0.6974(2)
C1 C 0.2625(2) 0.4966(3) 0.7014(3)
C2 C 0.21680(18) 0.4122(3) 0.6237(3)
C3 C 0.2027(2) 0.3246(3) 0.6702(3)
C4 C 0.2352(2) 0.3523(3) 0.7815(3)
H2 H 0.1965 0.3588 0.7982
H3 H 0.2705 0.2924 0.8250
C5 C 0.18814(18) 0.4160(3) 0.5102(3)
H4 H 0.2304 0.4308 0.5012
C6 C 0.15517(18) 0.2955(3) 0.4629(3)
C7 C 0.14555(18) 0.2090(3) 0.5188(3)
C8 C 0.13375(18) 0.2710(3) 0.3587(3)
C9 C 0.1404(2) 0.3538(3) 0.2942(3)
H5 H 0.1615 0.4268 0.3211
C10 C 0.1165(2) 0.3290(3) 0.1939(3)
H6 H 0.1208 0.3858 0.1531
C11 C 0.0856(2) 0.2200(4) 0.1507(3)
H7 H 0.0689 0.2041 0.0816
C12 C 0.08041(19) 0.1375(3) 0.2114(3)
H8 H 0.0609 0.0642 0.1832
C13 C 0.10341(18) 0.1593(3) 0.3149(3)
C14 C 0.0968(2) 0.0736(3) 0.3770(3)
H9 H 0.0784 -0.0005 0.3497
C15 C 0.11696(19) 0.0978(3) 0.4755(3)
H10 H 0.1119 0.0404 0.5153
C16 C 0.1330(2) 0.5175(3) 0.4604(3)
C17 C 0.1590(2) 0.6283(3) 0.4568(3)
H11 H 0.2094 0.6385 0.4810
C18 C 0.1117(3) 0.7238(3) 0.4179(3)
H12 H 0.1295 0.7977 0.4151
C19 C 0.0387(3) 0.7066(3) 0.3838(3)
C20 C 0.0096(2) 0.5996(3) 0.3844(3)
H13 H -0.0410 0.5906 0.3596
C21 C 0.0582(2) 0.5049(3) 0.4235(3)
H14 H 0.0397 0.4311 0.4247
loop_
_geom_bond_atom_site_label_1
_geom_bond_atom_site_label_2
_geom_bond_site_symmetry_1
_geom_bond_site_symmetry_2
F1 C19 1_555 1_555
N1 H1 1_555 1_555
O1 C1 1_555 1_555
O2 C1 1_555 1_555
C1 C2 1_555 1_555
C2 C3 1_555 1_555
C3 N1 1_555 1_555
C4 O1 1_555 1_555
H2 C4 1_555 1_555
H3 C4 1_555 1_555
C5 C2 1_555 1_555
H4 C5 1_555 1_555
C6 C5 1_555 1_555
C7 N1 1_555 1_555
C8 C6 1_555 1_555
C9 C8 1_555 1_555
H5 C9 1_555 1_555
C10 C9 1_555 1_555
H6 C10 1_555 1_555
C11 C10 1_555 1_555
H7 C11 1_555 1_555
C12 C11 1_555 1_555
H8 C12 1_555 1_555
C13 C8 1_555 1_555
C14 C13 1_555 1_555
H9 C14 1_555 1_555
C15 C7 1_555 1_555
H10 C15 1_555 1_555
C16 C5 1_555 1_555
C17 C16 1_555 1_555
H11 C17 1_555 1_555
C18 C17 1_555 1_555
H12 C18 1_555 1_555
C19 C18 1_555 1_555
C20 C19 1_555 1_555
H13 C20 1_555 1_555
C21 C16 1_555 1_555
H14 C21 1_555 1_555
C3 C4 1_555 1_555
C6 C7 1_555 1_555
C12 C13 1_555 1_555
C14 C15 1_555 1_555
C20 C21 1_555 1_555

#END
