
#######################################################################
#
#                 Cambridge Crystallographic Data Centre
#                                CCDC 
#
#######################################################################
#
# If this CIF has been generated from an entry in the Cambridge 
# Structural Database, then it will include bibliographic, chemical, 
# crystal, experimental, refinement or atomic coordinate data resulting 
# from the CCDC's data processing and validation procedures.
#
#######################################################################

data_MEJCEK
_chemical_formula_moiety         'C7 H9 Cl1 N2,C16 H12 N4'
_chemical_name_systematic        
'2-Chloro-5-methylbenzene-1,4-diamine 2,5-diethyl-7,7,8,8-tetracyano-p-quinodimethane'
_symmetry_cell_setting           triclinic
_symmetry_space_group_name_H-M   'P -1'
_symmetry_Int_Tables_number      2
_space_group_name_Hall           '-P 1'
loop_
_symmetry_equiv_pos_site_id
_symmetry_equiv_pos_as_xyz
1 x,y,z
2 -x,-y,-z
_cell_length_a                   6.8141(5)
_cell_length_b                   9.1531(5)
_cell_length_c                   10.2500(4)
_cell_angle_alpha                62.022(9)
_cell_angle_beta                 69.183(10)
_cell_angle_gamma                78.570(11)
_cell_volume                     527.34
_exptl_crystal_colour            black
_exptl_crystal_description       block
_cell_formula_units_Z            1
_exptl_crystal_recrystallization_method cosublimation
loop_
_atom_site_label
_atom_site_type_symbol
_atom_site_fract_x
_atom_site_fract_y
_atom_site_fract_z
N2 N 0.1999(4) 0.5037(3) 0.0755(3)
N3 N 0.2410(5) 0.1246(3) -0.0545(3)
C4 C 0.0269(3) -0.0821(2) 0.4037(2)
C5 C 0.0422(4) 0.1636(3) 0.4403(2)
C6 C 0.0730(3) 0.0920(2) 0.3355(2)
C7 C 0.1429(4) 0.1950(3) 0.1777(2)
C8 C 0.1752(4) 0.3663(3) 0.1228(3)
C9 C 0.1936(4) 0.1502(3) 0.0523(3)
C10 C 0.0547(5) -0.1729(3) 0.3063(3)
C11 C 0.0316(12) -0.3551(7) 0.3890(7)
H2 H 0.079(3) 0.280(3) 0.392(2)
H3 H -0.018(4) -0.117(3) 0.228(3)
N2A N -0.1999(4) -0.5037(3) 0.9245(3)
N3A N -0.2410(5) -0.1246(3) 1.0545(3)
C4A C -0.0269(3) 0.0821(2) 0.5963(2)
C5A C -0.0422(4) -0.1636(3) 0.5597(2)
C6A C -0.0730(3) -0.0920(2) 0.6645(2)
C7A C -0.1429(4) -0.1950(3) 0.8223(2)
C8A C -0.1752(4) -0.3663(3) 0.8772(3)
C9A C -0.1936(4) -0.1502(3) 0.9477(3)
C10A C -0.0547(5) 0.1729(3) 0.6937(3)
C11A C -0.0316(12) 0.3551(7) 0.6110(7)
H2A H -0.079(3) -0.280(3) 0.608(2)
H3A H 0.018(4) 0.117(3) 0.772(3)
Cl1 Cl 0.5888(2) 0.37019(13) 0.32936(14)
N1 N 0.6263(4) 0.1519(3) 0.1770(2)
C1 C 0.5413(3) 0.1675(3) 0.4215(3)
C2 C 0.4777(4) 0.0896(3) 0.5811(3)
C3 C 0.5655(3) 0.0788(3) 0.3361(2)
H1 H 0.460(3) 0.145(2) 0.643(2)
H4 H 0.654(4) 0.080(3) 0.138(3)
H5 H 0.674(4) 0.253(4) 0.125(3)
Cl1A Cl 0.4112(2) -0.37019(13) 0.67064(14)
N1A N 0.3737(4) -0.1519(3) 0.8230(2)
C1A C 0.4587(3) -0.1675(3) 0.5785(3)
C2A C 0.5223(4) -0.0896(3) 0.4189(3)
C3A C 0.4345(3) -0.0788(3) 0.6639(2)
H1A H 0.540(3) -0.145(2) 0.357(2)
H4A H 0.346(4) -0.080(3) 0.862(3)
H5A H 0.326(4) -0.253(4) 0.875(3)
C12? C -0.2490(9) 0.2452(7) 0.7400(7)
loop_
_geom_bond_atom_site_label_1
_geom_bond_atom_site_label_2
_geom_bond_site_symmetry_1
_geom_bond_site_symmetry_2
Cl1 C1 1_555 1_555
N1 C3 1_555 1_555
N2 C8 1_555 1_555
N3 C9 1_555 1_555
C1 C2 1_555 1_555
C2 H1 1_555 1_555
C3 C1 1_555 1_555
C4 C6 1_555 1_555
C5 C6 1_555 1_555
C6 C7 1_555 1_555
C7 C8 1_555 1_555
C9 C7 1_555 1_555
C10 C4 1_555 1_555
C11 C10 1_555 1_555
H2 C5 1_555 1_555
H3 C10 1_555 1_555
H4 N1 1_555 1_555
H5 N1 1_555 1_555
Cl1A C1A 1_555 1_555
N1A C3A 1_555 1_555
N2A C8A 1_555 1_555
N3A C9A 1_555 1_555
C1A C2A 1_555 1_555
C2A C3 1_555 1_555
C3A C2 1_555 1_555
C4A C5 1_555 1_555
C5A C4 1_555 1_555
C6A C4A 1_555 1_555
C7A C6A 1_555 1_555
C8A C7A 1_555 1_555
C9A C7A 1_555 1_555
C10A C4A 1_555 1_555
C11A C10A 1_555 1_555
H1A C2A 1_555 1_555
H2A C5A 1_555 1_555
H3A C10A 1_555 1_555
H4A N1A 1_555 1_555
H5A N1A 1_555 1_555
C1A C3A 1_555 1_555
C5A C6A 1_555 1_555

#END
