
#######################################################################
#
#                 Cambridge Crystallographic Data Centre
#                                CCDC 
#
#######################################################################
#
# If this CIF has been generated from an entry in the Cambridge 
# Structural Database, then it will include bibliographic, chemical, 
# crystal, experimental, refinement or atomic coordinate data resulting 
# from the CCDC's data processing and validation procedures.
#
#######################################################################

data_MEJDAJ
_chemical_formula_moiety         'C37 H30 N2 O5'
_chemical_name_systematic        
'2-aminoquinolin-8-yl 3,4,5-tris(benzyloxy)benzoate'
_symmetry_cell_setting           monoclinic
_symmetry_space_group_name_H-M   'P 21/c'
_symmetry_Int_Tables_number      14
_space_group_name_Hall           '-P 2ybc'
loop_
_symmetry_equiv_pos_site_id
_symmetry_equiv_pos_as_xyz
1 x,y,z
2 -x,1/2+y,1/2-z
3 -x,-y,-z
4 x,1/2-y,1/2+z
_cell_length_a                   17.841(4)
_cell_length_b                   8.9458(16)
_cell_length_c                   18.773(3)
_cell_angle_alpha                90
_cell_angle_beta                 94.309(15)
_cell_angle_gamma                90
_cell_volume                     2987.74
_exptl_crystal_colour            colorless
_exptl_crystal_description       plate
_cell_formula_units_Z            4
loop_
_atom_site_label
_atom_site_type_symbol
_atom_site_fract_x
_atom_site_fract_y
_atom_site_fract_z
O1 O 0.3201(2) 0.1980(4) 0.5661(2)
O2 O 0.39587(19) 0.3320(4) 0.64320(15)
O3 O 0.1190(2) 0.6014(4) 0.49432(16)
O4 O 0.1341(2) 0.8016(4) 0.59929(19)
O5 O 0.2438(2) 0.7821(4) 0.70300(17)
N1 N 0.4963(2) 0.2950(4) 0.53779(19)
N2 N 0.5434(3) 0.3742(5) 0.4330(2)
H1 H 0.4991 0.3806 0.4107
H2 H 0.5752 0.3486 0.4024
C1 C 0.1761(3) 0.5771(6) 0.5453(2)
C2 C 0.1840(3) 0.6845(6) 0.5985(2)
C3 C 0.2426(3) 0.6708(6) 0.6525(2)
C4 C 0.2909(3) 0.5494(5) 0.6538(2)
H3 H 0.3292 0.5398 0.6899
C5 C 0.2813(3) 0.4424(5) 0.6005(2)
C6 C 0.2237(3) 0.4530(6) 0.5475(2)
H4 H 0.2166 0.3779 0.5134
C7 C 0.3315(3) 0.3098(6) 0.6001(2)
C8 C 0.4978(3) 0.1953(5) 0.5924(2)
C9 C 0.5460(3) 0.0678(5) 0.5988(3)
C10 C 0.5418(3) 0.2699(6) 0.4866(2)
C11 C 0.5889(3) 0.1409(6) 0.4846(3)
H5 H 0.6169 0.1234 0.4456
C12 C 0.5921(3) 0.0441(6) 0.5407(3)
H6 H 0.6243 -0.0377 0.5412
C13 C 0.5472(4) -0.0230(6) 0.6593(3)
H7 H 0.5801 -0.1036 0.6634
C14 C 0.5007(4) 0.0043(7) 0.7129(3)
H8 H 0.5029 -0.0564 0.7532
C15 C 0.4500(3) 0.1238(6) 0.7066(3)
H9 H 0.4182 0.1424 0.7427
C16 C 0.4474(3) 0.2131(5) 0.6473(2)
C17 C 0.0627(4) 0.5873(6) 0.3770(3)
C18 C -0.0122(5) 0.5992(9) 0.3879(3)
H10 H -0.0297 0.5569 0.4287
C19 C -0.0613(5) 0.6702(11) 0.3413(4)
H11 H -0.1117 0.6746 0.3505
C20 C -0.0389(6) 0.7344(9) 0.2821(4)
H12 H -0.0731 0.7859 0.2513
C21 C 0.0340(6) 0.7234(9) 0.2676(3)
H13 H 0.0498 0.7652 0.2259
C22 C 0.0858(5) 0.6498(9) 0.3149(3)
H14 H 0.1358 0.6427 0.3046
C23 C 0.1169(4) 0.5124(7) 0.4304(3)
H15 H 0.1002 0.4117 0.4400
H16 H 0.1664 0.5072 0.4125
C24 C 0.1497(4) 0.9817(7) 0.5057(4)
C25 C 0.2014(6) 0.9250(9) 0.4597(5)
H17 H 0.2444 0.8767 0.4790
C26 C 0.1897(8) 0.9397(12) 0.3845(6)
H18 H 0.2217 0.8983 0.3530
C27 C 0.1243(9) 1.0239(15) 0.3617(7)
H19 H 0.1145 1.0384 0.3128
C28 C 0.0768(8) 1.0827(13) 0.4040(6)
H20 H 0.0356 1.1378 0.3855
C29 C 0.0897(5) 1.0605(9) 0.4763(5)
H21 H 0.0561 1.1011 0.5065
C30 C 0.1623(4) 0.9471(7) 0.5821(3)
H22 H 0.2157 0.9513 0.5959
H23 H 0.1376 1.0222 0.6094
C31 C 0.3040(3) 0.9394(6) 0.7915(2)
C32 C 0.3411(3) 0.9480(7) 0.8572(3)
H24 H 0.3695 0.8669 0.8745
C33 C 0.3375(4) 1.0751(7) 0.8991(3)
H25 H 0.3643 1.0794 0.9435
C34 C 0.2950(4) 1.1926(7) 0.8755(3)
H26 H 0.2908 1.2762 0.9043
C35 C 0.2577(4) 1.1881(6) 0.8080(3)
H27 H 0.2300 1.2703 0.7908
C36 C 0.2617(4) 1.0619(7) 0.7666(3)
H28 H 0.2359 1.0584 0.7216
C37 C 0.3110(3) 0.8008(6) 0.7469(3)
H29 H 0.3532 0.8106 0.7176
H30 H 0.3195 0.7144 0.7776
loop_
_geom_bond_atom_site_label_1
_geom_bond_atom_site_label_2
_geom_bond_site_symmetry_1
_geom_bond_site_symmetry_2
O1 C7 1_555 1_555
O2 C7 1_555 1_555
O3 C1 1_555 1_555
O4 C2 1_555 1_555
O5 C3 1_555 1_555
N1 C8 1_555 1_555
N2 H1 1_555 1_555
H2 N2 1_555 1_555
C1 C2 1_555 1_555
C2 C3 1_555 1_555
C3 C4 1_555 1_555
C4 H3 1_555 1_555
C5 C4 1_555 1_555
C6 C1 1_555 1_555
H4 C6 1_555 1_555
C7 C5 1_555 1_555
C8 C9 1_555 1_555
C9 C12 1_555 1_555
C10 N1 1_555 1_555
C11 C10 1_555 1_555
H5 C11 1_555 1_555
C12 C11 1_555 1_555
H6 C12 1_555 1_555
C13 C9 1_555 1_555
H7 C13 1_555 1_555
C14 C13 1_555 1_555
H8 C14 1_555 1_555
C15 C14 1_555 1_555
H9 C15 1_555 1_555
C16 O2 1_555 1_555
C17 C18 1_555 1_555
C18 H10 1_555 1_555
C19 C18 1_555 1_555
H11 C19 1_555 1_555
C20 C19 1_555 1_555
H12 C20 1_555 1_555
C21 C20 1_555 1_555
H13 C21 1_555 1_555
C22 C17 1_555 1_555
H14 C22 1_555 1_555
C23 O3 1_555 1_555
H15 C23 1_555 1_555
H16 C23 1_555 1_555
C24 C25 1_555 1_555
C25 H17 1_555 1_555
C26 C25 1_555 1_555
H18 C26 1_555 1_555
C27 C26 1_555 1_555
H19 C27 1_555 1_555
C28 C27 1_555 1_555
H20 C28 1_555 1_555
C29 C24 1_555 1_555
H21 C29 1_555 1_555
C30 O4 1_555 1_555
H22 C30 1_555 1_555
H23 C30 1_555 1_555
C31 C32 1_555 1_555
C32 H24 1_555 1_555
C33 C32 1_555 1_555
H25 C33 1_555 1_555
C34 C33 1_555 1_555
H26 C34 1_555 1_555
C35 C34 1_555 1_555
H27 C35 1_555 1_555
C36 C31 1_555 1_555
H28 C36 1_555 1_555
C37 O5 1_555 1_555
H29 C37 1_555 1_555
H30 C37 1_555 1_555
N2 C10 1_555 1_555
C5 C6 1_555 1_555
C8 C16 1_555 1_555
C15 C16 1_555 1_555
C17 C23 1_555 1_555
C21 C22 1_555 1_555
C24 C30 1_555 1_555
C28 C29 1_555 1_555
C31 C37 1_555 1_555
C35 C36 1_555 1_555

#END
