
#######################################################################
#
#                 Cambridge Crystallographic Data Centre
#                                CCDC 
#
#######################################################################
#
# If this CIF has been generated from an entry in the Cambridge 
# Structural Database, then it will include bibliographic, chemical, 
# crystal, experimental, refinement or atomic coordinate data resulting 
# from the CCDC's data processing and validation procedures.
#
#######################################################################

data_MEKWIJ
_chemical_name_common            
'(P)-(+)-(5)triangulane-1,7-dimethanol dichloromethane solvate'
_chemical_formula_moiety         'C13 H18 O2,0.25(C1 H2 Cl2)'
_chemical_name_systematic        
'(1S,3R,4R,5R,6R,7S)-(7-Hydroxymethyltetraspiro(2.0.0.0.2^6^.1^5^.1^4^.1^3^)undec-1-yl)methanol dichloromethane solvate'
_symmetry_cell_setting           trigonal
_symmetry_space_group_name_H-M   'P 32'
_symmetry_Int_Tables_number      145
_space_group_name_Hall           'P 32'
loop_
_symmetry_equiv_pos_site_id
_symmetry_equiv_pos_as_xyz
1 x,y,z
2 -y,x-y,2/3+z
3 -x+y,-x,1/3+z
_cell_length_a                   14.263(1)
_cell_length_b                   14.263(1)
_cell_length_c                   5.6131(5)
_cell_angle_alpha                90
_cell_angle_beta                 90
_cell_angle_gamma                120
_cell_volume                     988.906
_exptl_crystal_colour            colorless
_exptl_crystal_description       needle
_chemical_melting_point          '400-401 K'
_cell_formula_units_Z            3
loop_
_atom_site_label
_atom_site_type_symbol
_atom_site_fract_x
_atom_site_fract_y
_atom_site_fract_z
O1 O 0.0578(3) -0.0327(2) 0.0557(5)
O2 O 0.4237(2) 0.6991(2) 0.5295(4)
C1 C 0.2084(4) 0.0665(3) 0.3310(6)
H1 H 0.1623 0.0673 0.4642
C2 C 0.2914(3) 0.1735(3) 0.2442(6)
C3 C 0.3072(3) 0.2829(3) 0.2298(6)
C4 C 0.3574(3) 0.3838(3) 0.3571(6)
C5 C 0.4508(3) 0.4931(3) 0.3412(6)
C6 C 0.4750(3) 0.5996(3) 0.2553(6)
H2 H 0.4284 0.5991 0.1216
C7 C 0.5490(3) 0.5562(4) 0.1953(7)
H3 H 0.5485 0.5320 0.0297
H4 H 0.6201 0.5888 0.2764
C8 C 0.4256(3) 0.4349(3) 0.5782(7)
H5 H 0.3947 0.4593 0.7058
H6 H 0.4735 0.4077 0.6336
C9 C 0.2396(3) 0.3334(3) 0.2931(9)
H7 H 0.2194 0.3670 0.1636
H8 H 0.1856 0.2997 0.4221
C10 C 0.3243(3) 0.2321(3) 0.0086(7)
H9 H 0.2692 0.2080 -0.1191
H10 H 0.3995 0.2595 -0.0467
C11 C 0.3264(4) 0.1107(4) 0.3916(7)
H11 H 0.3499 0.1352 0.5571
H12 H 0.3651 0.0780 0.3115
C12 C 0.1527(4) -0.0260(3) 0.1585(7)
H13 H 0.2039 -0.0172 0.0297
H14 H 0.1324 -0.0946 0.2425
C13 C 0.5118(3) 0.6923(3) 0.4280(7)
H15 H 0.5539 0.6833 0.5574
H16 H 0.5604 0.7609 0.3443
H17 H 0.006(3) -0.055(4) 0.168(7)
H18 H 0.393(4) 0.721(4) 0.419(7)
Cl1? Cl 0.6012(9) 0.2150(9) 0.830(2)
Cl2? Cl 0.5537(12) 0.2635(12) 0.524(3)
C14? C 0.672(3) 0.340(2) 0.695(7)
H19? H 0.7267 0.3441 0.5585
H20? H 0.6695 0.3944 0.7125
Cl3? Cl 0.7770(16) 0.3652(17) 0.358(4)
Cl4? Cl 0.5481(11) 0.2688(11) 0.387(3)
C15? C 0.6707(17) 0.366(3) 0.508(6)
H21? H 0.6774 0.4247 0.5747
H22? H 0.6733 0.3246 0.6993
Cl5? Cl 0.646(3) 0.306(3) 0.580(6)
loop_
_geom_bond_atom_site_label_1
_geom_bond_atom_site_label_2
_geom_bond_site_symmetry_1
_geom_bond_site_symmetry_2
O1 C12 1_555 1_555
O2 C13 1_555 1_555
C1 H1 1_555 1_555
C2 C1 1_555 1_555
C3 C2 1_555 1_555
C4 C3 1_555 1_555
C5 C4 1_555 1_555
C6 C5 1_555 1_555
H2 C6 1_555 1_555
C7 C5 1_555 1_555
H3 C7 1_555 1_555
H4 C7 1_555 1_555
C8 C4 1_555 1_555
H5 C8 1_555 1_555
H6 C8 1_555 1_555
C9 C3 1_555 1_555
H7 C9 1_555 1_555
H8 C9 1_555 1_555
C10 C2 1_555 1_555
H9 C10 1_555 1_555
H10 C10 1_555 1_555
C11 C1 1_555 1_555
H11 C11 1_555 1_555
H12 C11 1_555 1_555
C12 C1 1_555 1_555
H13 C12 1_555 1_555
H14 C12 1_555 1_555
C13 C6 1_555 1_555
H15 C13 1_555 1_555
H16 C13 1_555 1_555
H17 O1 1_555 1_555
H18 O2 1_555 1_555
C2 C11 1_555 1_555
C3 C10 1_555 1_555
C4 C9 1_555 1_555
C5 C8 1_555 1_555
C6 C7 1_555 1_555

#END
