
#######################################################################
#
#                 Cambridge Crystallographic Data Centre
#                                CCDC 
#
#######################################################################
#
# If this CIF has been generated from an entry in the Cambridge 
# Structural Database, then it will include bibliographic, chemical, 
# crystal, experimental, refinement or atomic coordinate data resulting 
# from the CCDC's data processing and validation procedures.
#
#######################################################################

data_MEKWEF
_chemical_name_common            1,7-bis(bromomethyl)-(P)-(+)-(5)triangulane
_chemical_formula_moiety         'C13 H16 Br2'
_chemical_name_systematic        
(1S,3R,4R,5R,6R,7S)-1,7-bis(bromomethyl)tetraspiro(2.0.0.0.2^6^.1^5^.1^4^.1^3^)undecane
_symmetry_cell_setting           orthorhombic
_symmetry_space_group_name_H-M   'P 21 21 21'
_symmetry_Int_Tables_number      19
_space_group_name_Hall           'P 2ac 2ab'
loop_
_symmetry_equiv_pos_site_id
_symmetry_equiv_pos_as_xyz
1 x,y,z
2 1/2-x,-y,1/2+z
3 -x,1/2+y,1/2-z
4 1/2+x,1/2-y,-z
_cell_length_a                   5.3216(1)
_cell_length_b                   15.2548(3)
_cell_length_c                   16.0135(3)
_cell_angle_alpha                90
_cell_angle_beta                 90
_cell_angle_gamma                90
_cell_volume                     1299.98
_exptl_crystal_colour            colorless
_exptl_crystal_description       prism
_chemical_melting_point          '361 K'
_cell_formula_units_Z            4
_exptl_crystal_recrystallization_method methanol
loop_
_atom_site_label
_atom_site_type_symbol
_atom_site_fract_x
_atom_site_fract_y
_atom_site_fract_z
Br1 Br 0.41332(3) 0.618005(10) 0.085884(9)
Br2 Br 0.06024(3) 0.986466(10) 0.679131(9)
C1 C 0.1465(3) 0.77587(10) 0.12605(9)
C2 C 0.0679(3) 0.77219(9) 0.21465(8)
C3 C 0.1765(3) 0.78772(10) 0.29667(9)
C4 C 0.1800(3) 0.86007(10) 0.35617(8)
C5 C 0.0567(3) 0.88981(9) 0.43271(8)
C6 C 0.1203(3) 0.89689(10) 0.52280(8)
C7 C -0.1343(3) 0.86196(11) 0.49416(9)
C8 C 0.0725(4) 0.95096(10) 0.35909(9)
C9 C 0.4246(3) 0.81816(10) 0.33088(9)
C10 C 0.0403(3) 0.70312(10) 0.28084(9)
C11 C -0.0995(3) 0.81910(11) 0.15579(9)
C12 C 0.1213(3) 0.69642(11) 0.07272(9)
C13 C 0.1338(3) 0.98705(11) 0.55919(9)
H1 H 0.275(4) 0.8117(13) 0.1148(13)
H2 H 0.230(4) 0.8559(13) 0.5451(12)
H3 H -0.270(4) 0.8993(13) 0.5013(11)
H4 H -0.159(4) 0.7994(15) 0.4990(14)
H5 H -0.084(5) 0.9634(13) 0.3311(13)
H6 H 0.191(4) 0.9996(13) 0.3618(12)
H7 H 0.534(4) 0.8490(13) 0.2990(13)
H8 H 0.500(4) 0.7820(15) 0.3682(13)
H9 H -0.120(4) 0.6972(12) 0.3020(12)
H10 H 0.131(4) 0.6530(14) 0.2769(12)
H11 H -0.106(4) 0.8796(13) 0.1583(12)
H12 H -0.258(4) 0.7899(13) 0.1411(12)
H13 H 0.126(4) 0.7100(12) 0.0141(13)
H14 H -0.013(4) 0.6601(13) 0.0923(13)
H15 H 0.289(4) 1.0086(14) 0.5556(12)
H16 H 0.005(4) 1.0270(14) 0.5303(13)
loop_
_geom_bond_atom_site_label_1
_geom_bond_atom_site_label_2
_geom_bond_site_symmetry_1
_geom_bond_site_symmetry_2
Br1 C12 1_555 1_555
Br2 C13 1_555 1_555
C1 C2 1_555 1_555
C2 C3 1_555 1_555
C3 C4 1_555 1_555
C4 C5 1_555 1_555
C5 C6 1_555 1_555
C6 C7 1_555 1_555
C7 C5 1_555 1_555
C8 C4 1_555 1_555
C9 C3 1_555 1_555
C10 C2 1_555 1_555
C11 C1 1_555 1_555
C12 C1 1_555 1_555
C13 C6 1_555 1_555
H1 C1 1_555 1_555
H2 C6 1_555 1_555
H3 C7 1_555 1_555
H4 C7 1_555 1_555
H5 C8 1_555 1_555
H6 C8 1_555 1_555
H7 C9 1_555 1_555
H8 C9 1_555 1_555
H9 C10 1_555 1_555
H10 C10 1_555 1_555
H11 C11 1_555 1_555
H12 C11 1_555 1_555
H13 C12 1_555 1_555
H14 C12 1_555 1_555
H15 C13 1_555 1_555
H16 C13 1_555 1_555
C2 C11 1_555 1_555
C3 C10 1_555 1_555
C4 C9 1_555 1_555
C5 C8 1_555 1_555

#END
