
#######################################################################
#
#                 Cambridge Crystallographic Data Centre
#                                CCDC 
#
#######################################################################
#
# If this CIF has been generated from an entry in the Cambridge 
# Structural Database, then it will include bibliographic, chemical, 
# crystal, experimental, refinement or atomic coordinate data resulting 
# from the CCDC's data processing and validation procedures.
#
#######################################################################

data_MELFIT15
_chemical_name_common            Aripiprazole
_chemical_formula_moiety         'C23 H27 Cl2 N3 O2'
_chemical_name_systematic        
7-(4-(4-(2,3-dichlorophenyl)piperazin-1-yl)butoxy)-3,4-dihydroquinolin-2(1H)-one
_symmetry_cell_setting           orthorhombic
_symmetry_space_group_name_H-M   'P n a 21'
_symmetry_Int_Tables_number      33
_space_group_name_Hall           'P 2c -2n'
loop_
_symmetry_equiv_pos_site_id
_symmetry_equiv_pos_as_xyz
1 x,y,z
2 -x,-y,1/2+z
3 1/2-x,1/2+y,1/2+z
4 1/2+x,1/2-y,z
_cell_length_a                   23.608(3)
_cell_length_b                   12.4712(14)
_cell_length_c                   7.7060(9)
_cell_angle_alpha                90
_cell_angle_beta                 90
_cell_angle_gamma                90
_cell_volume                     2268.8
_exptl_crystal_colour            colorless
_exptl_crystal_description       rod
_cell_formula_units_Z            4
loop_
_atom_site_label
_atom_site_type_symbol
_atom_site_fract_x
_atom_site_fract_y
_atom_site_fract_z
Cl1 Cl 0.65468(3) 0.80777(6) 1.54104(9)
Cl2 Cl 0.53231(3) 0.72513(5) 1.46790(7)
C1 C 0.48101(10) 0.71348(18) 0.9209(3)
H1 H 0.5027 0.6727 0.8329
H2 H 0.4840 0.7907 0.8929
O1 O -0.00408(7) 0.50046(14) -0.0781(2)
N1 N 0.41400(8) 0.56577(13) 0.9594(3)
O2 O 0.20911(7) 0.41589(15) 0.5302(2)
N2 N 0.06127(7) 0.44693(14) 0.1147(2)
H3 H 0.0381 0.4637 0.1999
C2 C 0.66683(11) 0.8221(2) 1.1951(4)
H4 H 0.7037 0.8489 1.2189
C3 C 0.63091(11) 0.79166(18) 1.3287(3)
C4 C 0.57747(10) 0.75173(16) 1.2958(3)
C5 C 0.55896(10) 0.73668(17) 1.1243(3)
N3 N 0.50429(8) 0.69315(14) 1.0936(2)
C6 C 0.41968(10) 0.67932(17) 0.9177(3)
H5 H 0.3980 0.7223 1.0028
H6 H 0.4036 0.6930 0.8011
C7 C 0.35574(10) 0.52936(18) 0.9450(3)
H7 H 0.3304 0.5818 1.0024
H8 H 0.3516 0.4598 1.0057
C8 C 0.33783(10) 0.5163(2) 0.7550(3)
H9 H 0.3417 0.5863 0.6957
H10 H 0.3640 0.4653 0.6978
C9 C 0.27819(11) 0.4768(2) 0.7319(3)
H11 H 0.2723 0.4124 0.8050
H12 H 0.2515 0.5328 0.7715
C10 C 0.26576(10) 0.4495(2) 0.5477(4)
H13 H 0.2725 0.5130 0.4736
H14 H 0.2914 0.3915 0.5087
C11 C 0.19084(10) 0.39460(19) 0.3632(3)
C12 C 0.13681(9) 0.42867(17) 0.3225(3)
H15 H 0.1145 0.4653 0.4063
C13 C 0.11553(8) 0.40882(16) 0.1582(3)
C14 C 0.04250(9) 0.45939(16) -0.0495(3)
C15 C 0.08193(10) 0.4247(2) -0.1921(3)
H16 H 0.1062 0.4860 -0.2258
H17 H 0.0594 0.4037 -0.2949
C16 C 0.11944(10) 0.3310(2) -0.1384(3)
H18 H 0.0964 0.2649 -0.1309
H19 H 0.1492 0.3196 -0.2271
C17 C 0.14664(9) 0.35299(16) 0.0344(3)
C18 C 0.20038(10) 0.3189(2) 0.0809(3)
H20 H 0.2224 0.2805 -0.0015
C19 C 0.22303(10) 0.3388(2) 0.2428(3)
H21 H 0.2601 0.3148 0.2713
C20 C 0.43708(10) 0.54737(18) 1.1331(3)
H22 H 0.4332 0.4707 1.1640
H23 H 0.4156 0.5902 1.2191
C21 C 0.49885(9) 0.57914(17) 1.1373(3)
H24 H 0.5146 0.5659 1.2545
H25 H 0.5205 0.5354 1.0531
C22 C 0.59476(11) 0.76910(18) 0.9923(3)
H26 H 0.5828 0.7617 0.8752
C23 C 0.64772(10) 0.8123(2) 1.0273(4)
H27 H 0.6711 0.8353 0.9341
loop_
_geom_bond_atom_site_label_1
_geom_bond_atom_site_label_2
_geom_bond_site_symmetry_1
_geom_bond_site_symmetry_2
Cl1 C3 1_555 1_555
Cl2 C4 1_555 1_555
C1 H1 1_555 1_555
H2 C1 1_555 1_555
O1 C14 1_555 1_555
N1 C6 1_555 1_555
O2 C10 1_555 1_555
N2 H3 1_555 1_555
C2 H4 1_555 1_555
C3 C2 1_555 1_555
C4 C3 1_555 1_555
C5 C4 1_555 1_555
N3 C1 1_555 1_555
C6 C1 1_555 1_555
H5 C6 1_555 1_555
H6 C6 1_555 1_555
C7 N1 1_555 1_555
H7 C7 1_555 1_555
H8 C7 1_555 1_555
C8 C7 1_555 1_555
H9 C8 1_555 1_555
H10 C8 1_555 1_555
C9 C8 1_555 1_555
H11 C9 1_555 1_555
H12 C9 1_555 1_555
C10 C9 1_555 1_555
H13 C10 1_555 1_555
H14 C10 1_555 1_555
C11 O2 1_555 1_555
C12 C11 1_555 1_555
H15 C12 1_555 1_555
C13 N2 1_555 1_555
C14 N2 1_555 1_555
C15 C14 1_555 1_555
H16 C15 1_555 1_555
H17 C15 1_555 1_555
C16 C15 1_555 1_555
H18 C16 1_555 1_555
H19 C16 1_555 1_555
C17 C13 1_555 1_555
C18 C17 1_555 1_555
H20 C18 1_555 1_555
C19 C11 1_555 1_555
H21 C19 1_555 1_555
C20 N1 1_555 1_555
H22 C20 1_555 1_555
H23 C20 1_555 1_555
C21 N3 1_555 1_555
H24 C21 1_555 1_555
H25 C21 1_555 1_555
C22 C5 1_555 1_555
H26 C22 1_555 1_555
C23 C2 1_555 1_555
H27 C23 1_555 1_555
C5 N3 1_555 1_555
C12 C13 1_555 1_555
C16 C17 1_555 1_555
C18 C19 1_555 1_555
C20 C21 1_555 1_555
C22 C23 1_555 1_555

#END
