
#######################################################################
#
#                 Cambridge Crystallographic Data Centre
#                                CCDC 
#
#######################################################################
#
# If this CIF has been generated from an entry in the Cambridge 
# Structural Database, then it will include bibliographic, chemical, 
# crystal, experimental, refinement or atomic coordinate data resulting 
# from the CCDC's data processing and validation procedures.
#
#######################################################################

data_MELFIT13
_chemical_name_common            Aripiprazole
_chemical_formula_moiety         'C23 H27 Cl2 N3 O2'
_chemical_name_systematic        
7-(4-(4-(2,3-dichlorophenyl)piperazin-1-yl)butoxy)-3,4-dihydroquinolin-2(1H)-one
_symmetry_cell_setting           orthorhombic
_symmetry_space_group_name_H-M   'P n a 21'
_symmetry_Int_Tables_number      33
_space_group_name_Hall           'P 2c -2n'
loop_
_symmetry_equiv_pos_site_id
_symmetry_equiv_pos_as_xyz
1 x,y,z
2 -x,-y,1/2+z
3 1/2-x,1/2+y,1/2+z
4 1/2+x,1/2-y,z
_cell_length_a                   21.675(2)
_cell_length_b                   13.1578(10)
_cell_length_c                   7.6432(10)
_cell_angle_alpha                90
_cell_angle_beta                 90
_cell_angle_gamma                90
_cell_volume                     2179.8
_exptl_crystal_colour            colorless
_exptl_crystal_description       rod
_cell_formula_units_Z            4
loop_
_atom_site_label
_atom_site_type_symbol
_atom_site_fract_x
_atom_site_fract_y
_atom_site_fract_z
Cl1 Cl 0.47787(3) 0.71801(5) 0.92964(8)
Cl2 Cl 0.35383(3) 0.82969(6) 0.99954(10)
O1 O 0.76372(7) 0.40840(14) -0.0222(2)
O2 O 1.00789(8) 0.49709(16) -0.6018(2)
N1 N 0.93435(10) 0.44396(17) -0.4165(3)
C1 C 0.67309(12) 0.5290(3) 0.4493(4)
H1 H 0.6737 0.4593 0.4980
H2 H 0.6951 0.5738 0.5325
N2 N 0.50897(9) 0.68712(17) 0.5539(3)
H3 H 0.9557(13) 0.465(2) -0.337(4)
C2 C 0.91568(12) 0.4276(2) -0.7283(3)
H4 H 0.9416 0.4093 -0.8300
H5 H 0.8900 0.4867 -0.7622
C3 C 0.95666(11) 0.4577(2) -0.5791(4)
C4 C 0.87496(10) 0.40565(18) -0.3806(3)
C5 C 0.84871(11) 0.42286(19) -0.2175(3)
H6 H 0.8711 0.4583 -0.1297
C6 C 0.78980(11) 0.38802(19) -0.1842(3)
C7 C 0.70639(13) 0.4617(3) -0.0335(4)
H7 H 0.6791 0.4272 -0.1186
H8 H 0.7138 0.5317 -0.0757
C8 C 0.67569(13) 0.4653(3) 0.1407(4)
H9 H 0.6722 0.3950 0.1857
H10 H 0.6333 0.4917 0.1247
C9 C 0.70753(12) 0.5290(2) 0.2769(4)
H11 H 0.7111 0.5997 0.2337
H12 H 0.7498 0.5025 0.2958
N3 N 0.60866(9) 0.56293(16) 0.4362(3)
C10 C 0.60514(12) 0.6709(2) 0.3939(4)
H13 H 0.6254 0.6833 0.2797
H14 H 0.6274 0.7106 0.4840
C11 C 0.53858(12) 0.7058(2) 0.3855(3)
H15 H 0.5370 0.7793 0.3576
H16 H 0.5165 0.6684 0.2921
C12 C 0.45140(12) 0.73565(19) 0.5832(3)
C13 C 0.43194(11) 0.75446(19) 0.7545(3)
C14 C 0.37707(12) 0.80376(19) 0.7868(3)
C15 C 0.33968(13) 0.8362(2) 0.6508(4)
H17 H 0.3015 0.8691 0.6737
C16 C 0.57655(13) 0.5437(2) 0.6004(4)
H18 H 0.5979 0.5802 0.6962
H19 H 0.5780 0.4701 0.6269
C17 C 0.51026(12) 0.5779(2) 0.5923(4)
H20 H 0.4881 0.5400 0.4998
H21 H 0.4896 0.5644 0.7055
C18 C 0.35899(12) 0.8197(2) 0.4819(4)
H22 H 0.3342 0.8424 0.3871
C19 C 0.41416(12) 0.7703(2) 0.4485(4)
H23 H 0.4267 0.7600 0.3308
C20 C 0.75839(12) 0.3336(2) -0.3100(4)
H24 H 0.7184 0.3079 -0.2856
C21 C 0.78495(11) 0.3167(2) -0.4706(4)
H25 H 0.7628 0.2792 -0.5563
C22 C 0.84332(10) 0.35300(18) -0.5107(4)
C23 C 0.87361(12) 0.3386(2) -0.6846(4)
H26 H 0.8416 0.3320 -0.7763
H27 H 0.8980 0.2750 -0.6832
loop_
_geom_bond_atom_site_label_1
_geom_bond_atom_site_label_2
_geom_bond_site_symmetry_1
_geom_bond_site_symmetry_2
Cl1 C13 1_555 1_555
Cl2 C14 1_555 1_555
O1 C6 1_555 1_555
O2 C3 1_555 1_555
N1 H3 1_555 1_555
C1 H1 1_555 1_555
H2 C1 1_555 1_555
N2 C11 1_555 1_555
C2 H4 1_555 1_555
H5 C2 1_555 1_555
C3 N1 1_555 1_555
C4 N1 1_555 1_555
C5 C4 1_555 1_555
H6 C5 1_555 1_555
C6 C5 1_555 1_555
C7 O1 1_555 1_555
H7 C7 1_555 1_555
H8 C7 1_555 1_555
C8 C7 1_555 1_555
H9 C8 1_555 1_555
H10 C8 1_555 1_555
C9 C1 1_555 1_555
H11 C9 1_555 1_555
H12 C9 1_555 1_555
N3 C1 1_555 1_555
C10 N3 1_555 1_555
H13 C10 1_555 1_555
H14 C10 1_555 1_555
C11 C10 1_555 1_555
H15 C11 1_555 1_555
H16 C11 1_555 1_555
C12 N2 1_555 1_555
C13 C12 1_555 1_555
C14 C13 1_555 1_555
C15 C14 1_555 1_555
H17 C15 1_555 1_555
C16 N3 1_555 1_555
H18 C16 1_555 1_555
H19 C16 1_555 1_555
C17 N2 1_555 1_555
H20 C17 1_555 1_555
H21 C17 1_555 1_555
C18 C15 1_555 1_555
H22 C18 1_555 1_555
C19 C12 1_555 1_555
H23 C19 1_555 1_555
C20 C6 1_555 1_555
H24 C20 1_555 1_555
C21 C20 1_555 1_555
H25 C21 1_555 1_555
C22 C4 1_555 1_555
C23 C2 1_555 1_555
H26 C23 1_555 1_555
H27 C23 1_555 1_555
C2 C3 1_555 1_555
C8 C9 1_555 1_555
C16 C17 1_555 1_555
C18 C19 1_555 1_555
C21 C22 1_555 1_555
C22 C23 1_555 1_555

#END
