
#######################################################################
#
#                 Cambridge Crystallographic Data Centre
#                                CCDC 
#
#######################################################################
#
# If this CIF has been generated from an entry in the Cambridge 
# Structural Database, then it will include bibliographic, chemical, 
# crystal, experimental, refinement or atomic coordinate data resulting 
# from the CCDC's data processing and validation procedures.
#
#######################################################################

data_MELFIT11
_chemical_name_common            Aripiprazole
_chemical_formula_moiety         'C23 H27 Cl2 N3 O2'
_chemical_name_systematic        
7-(4-(4-(2,3-dichlorophenyl)piperazin-1-yl)butoxy)-3,4-dihydroquinolin-2(1H)-one
_symmetry_cell_setting           orthorhombic
_symmetry_space_group_name_H-M   'P n a 21'
_symmetry_Int_Tables_number      33
_space_group_name_Hall           'P 2c -2n'
loop_
_symmetry_equiv_pos_site_id
_symmetry_equiv_pos_as_xyz
1 x,y,z
2 -x,-y,1/2+z
3 1/2-x,1/2+y,1/2+z
4 1/2+x,1/2-y,z
_cell_length_a                   21.6714(13)
_cell_length_b                   13.1250(8)
_cell_length_c                   7.6462(5)
_cell_angle_alpha                90
_cell_angle_beta                 90
_cell_angle_gamma                90
_cell_volume                     2174.86
_exptl_crystal_colour            colorless
_exptl_crystal_description       rod
_cell_formula_units_Z            4
loop_
_atom_site_label
_atom_site_type_symbol
_atom_site_fract_x
_atom_site_fract_y
_atom_site_fract_z
Cl1 Cl -0.14612(2) 0.66935(4) 1.04154(8)
Cl2 Cl -0.02207(2) 0.78157(4) 0.97160(7)
O1 O 0.26368(6) 1.09271(11) 0.0191(2)
O2 O 0.50791(6) 1.00265(13) -0.5606(2)
N1 N 0.00882(7) 0.81309(12) 0.5960(2)
N2 N 0.10853(7) 0.93839(12) 0.4792(2)
N3 N 0.43444(7) 1.05618(12) -0.3749(2)
H1 H 0.4584 1.0404 -0.2860
C1 C -0.12327(9) 0.69563(14) 0.8289(3)
C2 C -0.16045(10) 0.66330(15) 0.6930(3)
H2 H -0.1985 0.6300 0.7160
C3 C -0.14138(10) 0.68023(17) 0.5235(3)
H3 H -0.1663 0.6579 0.4288
C4 C -0.06797(8) 0.74567(14) 0.7967(3)
C5 C -0.08596(9) 0.72969(16) 0.4902(3)
H4 H -0.0733 0.7400 0.3726
C6 C -0.04883(9) 0.76422(14) 0.6252(3)
C7 C 0.03826(10) 0.79464(16) 0.4273(3)
H5 H 0.0161 0.8322 0.3342
H6 H 0.0368 0.7211 0.3991
C8 C 0.01000(9) 0.92281(15) 0.6354(3)
H7 H -0.0107 0.9359 0.7486
H8 H -0.0122 0.9610 0.5432
C9 C 0.10491(9) 0.83030(15) 0.4364(3)
H9 H 0.1272 0.7904 0.5264
H10 H 0.1252 0.8180 0.3224
C10 C 0.07662(10) 0.95760(16) 0.6443(3)
H11 H 0.0780 1.0314 0.6709
H12 H 0.0980 0.9209 0.7398
C11 C 0.17289(10) 0.9729(2) 0.4928(3)
H13 H 0.1949 0.9284 0.5768
H14 H 0.1734 1.0429 0.5406
C12 C 0.20759(9) 0.97210(17) 0.3198(3)
H15 H 0.2496 0.9995 0.3383
H16 H 0.2116 0.9010 0.2783
C13 C 0.17535(10) 1.0346(2) 0.1810(4)
H17 H 0.1332 1.0072 0.1649
H18 H 0.1713 1.1054 0.2243
C14 C 0.20665(10) 1.0372(2) 0.0072(3)
H19 H 0.2150 0.9668 -0.0327
H20 H 0.1793 1.0702 -0.0797
C15 C 0.28966(8) 1.11275(14) -0.1418(3)
C16 C 0.25819(9) 1.16813(16) -0.2682(3)
H21 H 0.2184 1.1947 -0.2438
C17 C 0.28494(9) 1.18438(15) -0.4295(3)
H22 H 0.2629 1.2216 -0.5158
C18 C 0.34896(8) 1.07778(14) -0.1753(3)
H23 H 0.3715 1.0427 -0.0874
C19 C 0.37495(8) 1.09466(13) -0.3388(3)
C20 C 0.34340(8) 1.14750(13) -0.4686(3)
C21 C 0.37368(9) 1.16227(17) -0.6445(3)
H24 H 0.3982 1.2259 -0.6435
H25 H 0.3416 1.1688 -0.7359
C22 C 0.41566(9) 1.07226(18) -0.6873(3)
H26 H 0.3898 1.0132 -0.7207
H27 H 0.4417 1.0901 -0.7891
C23 C 0.45668(8) 1.04215(15) -0.5375(3)
loop_
_geom_bond_atom_site_label_1
_geom_bond_atom_site_label_2
_geom_bond_site_symmetry_1
_geom_bond_site_symmetry_2
Cl1 C1 1_555 1_555
Cl2 C4 1_555 1_555
O1 C14 1_555 1_555
O2 C23 1_555 1_555
N1 C6 1_555 1_555
N2 C9 1_555 1_555
N3 H1 1_555 1_555
C1 C2 1_555 1_555
C2 H2 1_555 1_555
C3 C2 1_555 1_555
H3 C3 1_555 1_555
C4 C1 1_555 1_555
C5 C3 1_555 1_555
H4 C5 1_555 1_555
C6 C4 1_555 1_555
C7 N1 1_555 1_555
H5 C7 1_555 1_555
H6 C7 1_555 1_555
C8 N1 1_555 1_555
H7 C8 1_555 1_555
H8 C8 1_555 1_555
C9 C7 1_555 1_555
H9 C9 1_555 1_555
H10 C9 1_555 1_555
C10 N2 1_555 1_555
H11 C10 1_555 1_555
H12 C10 1_555 1_555
C11 N2 1_555 1_555
H13 C11 1_555 1_555
H14 C11 1_555 1_555
C12 C11 1_555 1_555
H15 C12 1_555 1_555
H16 C12 1_555 1_555
C13 C12 1_555 1_555
H17 C13 1_555 1_555
H18 C13 1_555 1_555
C14 C13 1_555 1_555
H19 C14 1_555 1_555
H20 C14 1_555 1_555
C15 O1 1_555 1_555
C16 C15 1_555 1_555
H21 C16 1_555 1_555
C17 C16 1_555 1_555
H22 C17 1_555 1_555
C18 C15 1_555 1_555
H23 C18 1_555 1_555
C19 N3 1_555 1_555
C20 C17 1_555 1_555
C21 C20 1_555 1_555
H24 C21 1_555 1_555
H25 C21 1_555 1_555
C22 C21 1_555 1_555
H26 C22 1_555 1_555
H27 C22 1_555 1_555
C23 N3 1_555 1_555
C5 C6 1_555 1_555
C8 C10 1_555 1_555
C18 C19 1_555 1_555
C19 C20 1_555 1_555
C22 C23 1_555 1_555

#END
