
#######################################################################
#
#                 Cambridge Crystallographic Data Centre
#                                CCDC 
#
#######################################################################
#
# If this CIF has been generated from an entry in the Cambridge 
# Structural Database, then it will include bibliographic, chemical, 
# crystal, experimental, refinement or atomic coordinate data resulting 
# from the CCDC's data processing and validation procedures.
#
#######################################################################

data_MELFIT09
_chemical_name_common            Aripiprazole
_chemical_formula_moiety         'C23 H27 Cl2 N3 O2'
_chemical_name_systematic        
7-(4-(4-(2,3-dichlorophenyl)piperazin-1-yl)butoxy)-3,4-dihydroquinolin-2(1H)-one
_symmetry_cell_setting           orthorhombic
_symmetry_space_group_name_H-M   'P n a 21'
_symmetry_Int_Tables_number      33
_space_group_name_Hall           'P 2c -2n'
loop_
_symmetry_equiv_pos_site_id
_symmetry_equiv_pos_as_xyz
1 x,y,z
2 -x,-y,1/2+z
3 1/2-x,1/2+y,1/2+z
4 1/2+x,1/2-y,z
_cell_length_a                   21.710(4)
_cell_length_b                   13.107(2)
_cell_length_c                   7.6560(15)
_cell_angle_alpha                90
_cell_angle_beta                 90
_cell_angle_gamma                90
_cell_volume                     2178.54
_exptl_crystal_colour            colorless
_exptl_crystal_description       rod
_cell_formula_units_Z            4
loop_
_atom_site_label
_atom_site_type_symbol
_atom_site_fract_x
_atom_site_fract_y
_atom_site_fract_z
Cl1 Cl 1.022082(18) 0.71863(3) -0.53948(6)
Cl2 Cl 1.146160(19) 0.83146(3) -0.60932(6)
O1 O 0.73635(5) 0.40661(9) 0.41329(16)
O2 O 0.49217(5) 0.49752(10) 0.99302(17)
N1 N 0.56553(6) 0.44351(10) 0.80772(19)
H1 H 0.5416 0.4592 0.7189
N2 N 0.89157(6) 0.56068(10) -0.0472(2)
N3 N 0.99126(6) 0.68668(10) -0.1634(2)
C1 C 0.58440(8) 0.42736(14) 1.1198(2)
H2 H 0.5585 0.4093 1.2215
H3 H 0.6102 0.4865 1.1533
C2 C 0.54335(7) 0.45787(12) 0.9707(2)
C3 C 0.62500(7) 0.40473(11) 0.7716(2)
C4 C 0.65110(7) 0.42174(11) 0.6081(2)
H4 H 0.6288 0.4572 0.5203
C5 C 0.71027(7) 0.38613(11) 0.5751(2)
C6 C 0.79325(8) 0.46323(16) 0.4258(3)
H5 H 0.8205 0.4309 0.5134
H6 H 0.7845 0.5339 0.4645
C7 C 0.82474(8) 0.46521(15) 0.2517(3)
H7 H 0.8290 0.3942 0.2095
H8 H 0.8668 0.4930 0.2678
C8 C 0.79251(8) 0.52708(14) 0.1121(3)
H9 H 0.7883 0.5985 0.1525
H10 H 0.7506 0.4993 0.0937
C9 C 0.82728(8) 0.52569(15) -0.0605(3)
H11 H 0.8270 0.4553 -0.1072
H12 H 0.8053 0.5697 -0.1451
C10 C 0.89514(8) 0.66934(12) -0.0037(2)
H13 H 0.8749 0.6814 0.1104
H14 H 0.8729 0.7095 -0.0932
C11 C 0.96187(8) 0.70482(13) 0.0053(2)
H15 H 0.9634 0.7784 0.0339
H16 H 0.9840 0.6669 0.0979
C12 C 1.04868(7) 0.73557(11) -0.1929(2)
C13 C 1.06803(7) 0.75475(12) -0.3647(2)
C14 C 1.12342(7) 0.80480(11) -0.3963(2)
C15 C 1.16069(8) 0.83706(12) -0.2610(3)
H17 H 1.1988 0.8701 -0.2840
C16 C 1.14136(8) 0.82015(13) -0.0913(3)
H18 H 1.1662 0.8429 0.0032
C17 C 1.08609(8) 0.77035(12) -0.0572(2)
H19 H 1.0736 0.7598 0.0603
C18 C 0.99014(8) 0.57651(12) -0.2029(3)
H20 H 1.0122 0.5383 -0.1106
H21 H 1.0109 0.5634 -0.3158
C19 C 0.92355(8) 0.54167(12) -0.2120(2)
H22 H 0.9023 0.5785 -0.3074
H23 H 0.9222 0.4678 -0.2389
C20 C 0.74187(7) 0.33126(13) 0.7011(3)
H24 H 0.7818 0.3051 0.6768
C21 C 0.71496(7) 0.31484(12) 0.8624(2)
H25 H 0.7369 0.2773 0.9485
C22 C 0.65662(7) 0.35193(11) 0.9017(3)
C23 C 0.62639(7) 0.33730(13) 1.0769(2)
H26 H 0.6584 0.3308 1.1683
H27 H 0.6019 0.2735 1.0759
loop_
_geom_bond_atom_site_label_1
_geom_bond_atom_site_label_2
_geom_bond_site_symmetry_1
_geom_bond_site_symmetry_2
Cl1 C13 1_555 1_555
Cl2 C14 1_555 1_555
O1 C5 1_555 1_555
O2 C2 1_555 1_555
N1 H1 1_555 1_555
N2 C9 1_555 1_555
N3 C11 1_555 1_555
C1 H2 1_555 1_555
H3 C1 1_555 1_555
C2 N1 1_555 1_555
C3 N1 1_555 1_555
C4 C3 1_555 1_555
H4 C4 1_555 1_555
C5 C4 1_555 1_555
C6 O1 1_555 1_555
H5 C6 1_555 1_555
H6 C6 1_555 1_555
C7 C6 1_555 1_555
H7 C7 1_555 1_555
H8 C7 1_555 1_555
C8 C7 1_555 1_555
H9 C8 1_555 1_555
H10 C8 1_555 1_555
C9 C8 1_555 1_555
H11 C9 1_555 1_555
H12 C9 1_555 1_555
C10 N2 1_555 1_555
H13 C10 1_555 1_555
H14 C10 1_555 1_555
C11 C10 1_555 1_555
H15 C11 1_555 1_555
H16 C11 1_555 1_555
C12 N3 1_555 1_555
C13 C12 1_555 1_555
C14 C13 1_555 1_555
C15 C14 1_555 1_555
H17 C15 1_555 1_555
C16 C15 1_555 1_555
H18 C16 1_555 1_555
C17 C12 1_555 1_555
H19 C17 1_555 1_555
C18 N3 1_555 1_555
H20 C18 1_555 1_555
H21 C18 1_555 1_555
C19 N2 1_555 1_555
H22 C19 1_555 1_555
H23 C19 1_555 1_555
C20 C5 1_555 1_555
H24 C20 1_555 1_555
C21 C20 1_555 1_555
H25 C21 1_555 1_555
C22 C3 1_555 1_555
C23 C1 1_555 1_555
H26 C23 1_555 1_555
H27 C23 1_555 1_555
C1 C2 1_555 1_555
C16 C17 1_555 1_555
C18 C19 1_555 1_555
C21 C22 1_555 1_555
C22 C23 1_555 1_555

#END
