
#######################################################################
#
#                 Cambridge Crystallographic Data Centre
#                                CCDC 
#
#######################################################################
#
# If this CIF has been generated from an entry in the Cambridge 
# Structural Database, then it will include bibliographic, chemical, 
# crystal, experimental, refinement or atomic coordinate data resulting 
# from the CCDC's data processing and validation procedures.
#
#######################################################################

data_MELMUO
_chemical_formula_moiety         'C56 H46'
_chemical_name_systematic        
2,7-di-t-butyl-9,11,12,14-tetraphenyldibenzo[de,qr]tetracene
_symmetry_cell_setting           monoclinic
_symmetry_space_group_name_H-M   'P 21/c'
_symmetry_Int_Tables_number      14
_space_group_name_Hall           '-P 2ybc'
loop_
_symmetry_equiv_pos_site_id
_symmetry_equiv_pos_as_xyz
1 x,y,z
2 -x,1/2+y,1/2-z
3 -x,-y,-z
4 x,1/2-y,1/2+z
_cell_length_a                   10.9430(6)
_cell_length_b                   32.2120(16)
_cell_length_c                   11.7460(6)
_cell_angle_alpha                90
_cell_angle_beta                 94.8770(10)
_cell_angle_gamma                90
_cell_volume                     4125.43
_exptl_crystal_colour            yellow
_exptl_crystal_description       Prism
_cell_formula_units_Z            4
loop_
_atom_site_label
_atom_site_type_symbol
_atom_site_fract_x
_atom_site_fract_y
_atom_site_fract_z
C1 C 0.84674(13) 0.74286(4) 0.21448(13)
C2 C 0.77208(13) 0.71440(4) 0.27152(13)
C3 C 0.70972(14) 0.72802(5) 0.36567(14)
C4 C 0.71266(16) 0.77128(5) 0.39409(16)
H1 H 0.671105 0.780583 0.455063
C5 C 0.77427(15) 0.79868(5) 0.33437(15)
H2 H 0.770798 0.826756 0.352239
C6 C 0.84523(14) 0.78557(4) 0.24370(14)
C7 C 0.91430(15) 0.81361(5) 0.18535(14)
H3 H 0.914071 0.841503 0.205717
C8 C 0.98298(14) 0.80112(4) 0.09825(14)
C9 C 0.98598(14) 0.75872(4) 0.07269(14)
H4 H 1.031723 0.750014 0.013900
C10 C 0.92331(13) 0.72888(4) 0.13156(13)
C11 C 0.92358(13) 0.68405(4) 0.10085(12)
C12 C 1.01026(13) 0.66596(4) 0.03539(13)
C13 C 0.98507(13) 0.62659(4) -0.01707(12)
C14 C 1.06668(14) 0.60679(4) -0.08762(13)
H5 H 1.142981 0.618890 -0.093855
C15 C 1.03941(14) 0.57073(4) -0.14730(13)
C16 C 0.92209(14) 0.55187(4) -0.13708(13)
C17 C 0.84198(14) 0.57045(4) -0.06957(13)
H6 H 0.765121 0.558477 -0.065664
C18 C 0.87004(13) 0.60706(4) -0.00518(12)
C19 C 0.79078(13) 0.62298(4) 0.07403(13)
C20 C 0.82309(13) 0.65913(4) 0.13468(12)
C21 C 0.76055(13) 0.67269(4) 0.23536(13)
C22 C 0.69915(14) 0.64525(5) 0.30246(13)
H7 H 0.695120 0.617406 0.281503
C23 C 0.64344(14) 0.65756(5) 0.39961(14)
C24 C 0.64751(15) 0.69907(5) 0.42815(15)
H8 H 0.607840 0.708072 0.490605
C25 C 0.57494(17) 0.62630(6) 0.46967(16)
C26 C 0.4433(2) 0.62568(11) 0.4212(3)
H9 H 0.438962 0.616448 0.343292
H10 H 0.409526 0.653118 0.424345
H11 H 0.397409 0.607079 0.465160
C27 C 0.6213(4) 0.58214(9) 0.4568(4)
H12 H 0.708399 0.581388 0.475568
H13 H 0.603024 0.573096 0.379314
H14 H 0.581782 0.564070 0.507289
C28 C 1.05721(16) 0.83283(5) 0.03500(14)
C29 C 0.9791(2) 0.87157(6) 0.0054(2)
H15 H 0.955664 0.884080 0.074490
H16 H 0.906871 0.863770 -0.041886
H17 H 1.025857 0.891076 -0.034837
C30 C 1.16858(18) 0.84569(7) 0.11365(18)
H18 H 1.142076 0.856257 0.183912
H19 H 1.213119 0.866870 0.077215
H20 H 1.220737 0.822061 0.129419
C31 C 1.0991(2) 0.81573(6) -0.07583(19)
H21 H 1.139366 0.837251 -0.115048
H22 H 1.029282 0.805946 -0.123299
H23 H 1.155140 0.793175 -0.059136
C32 C 0.66843(13) 0.60275(4) 0.08025(13)
C33 C 0.65431(16) 0.56188(5) 0.11663(15)
H24 H 0.723045 0.546224 0.140897
C34 C 0.53831(18) 0.54451(6) 0.11677(17)
H25 H 0.529979 0.517189 0.140516
C35 C 0.43638(17) 0.56710(6) 0.08242(17)
H26 H 0.358914 0.555290 0.083257
C36 C 0.44859(16) 0.60748(6) 0.04648(18)
H27 H 0.379298 0.623023 0.023279
C37 C 0.56414(15) 0.62490(5) 0.04491(15)
H28 H 0.571576 0.652062 0.019539
C38 C 1.13322(14) 0.68537(5) 0.02440(14)
C39 C 1.17207(18) 0.69749(5) -0.08002(18)
H29 H 1.120607 0.693829 -0.146431
C40 C 1.2869(2) 0.71498(6) -0.0860(3)
H30 H 1.312282 0.722875 -0.156417
C41 C 1.3633(2) 0.72072(7) 0.0112(3)
H31 H 1.440198 0.732633 0.006705
C42 C 1.32641(19) 0.70884(7) 0.1156(3)
H32 H 1.378172 0.712785 0.181683
C43 C 1.21188(16) 0.69101(6) 0.12189(18)
H33 H 1.187600 0.682733 0.192393
C44 C 0.88499(14) 0.51125(4) -0.19071(13)
C45 C 0.77376(16) 0.50752(5) -0.25522(15)
H34 H 0.723565 0.530653 -0.267673
C46 C 0.73659(18) 0.46941(6) -0.30152(17)
H35 H 0.661199 0.467017 -0.343945
C47 C 0.8110(2) 0.43534(6) -0.28468(18)
H36 H 0.786548 0.409963 -0.316802
C48 C 0.9210(2) 0.43851(5) -0.22091(17)
H37 H 0.971055 0.415296 -0.209515
C49 C 0.95796(17) 0.47626(5) -0.17320(15)
H38 H 1.032414 0.478160 -0.129016
C50 C 1.12905(15) 0.55461(4) -0.22544(14)
C51 C 1.09197(19) 0.53862(5) -0.33264(15)
H39 H 1.008718 0.536211 -0.355124
C52 C 1.1771(3) 0.52619(6) -0.4066(2)
H40 H 1.150499 0.515363 -0.477885
C53 C 1.3004(2) 0.52978(7) -0.3753(2)
H41 H 1.357411 0.521351 -0.424978
C54 C 1.3386(2) 0.54581(6) -0.2708(2)
H42 H 1.421992 0.548807 -0.249710
C55 C 1.25383(17) 0.55766(5) -0.19572(17)
H43 H 1.281354 0.567868 -0.124016
C56 C 0.6117(14) 0.6309(4) 0.5971(9)
H44 H 0.698551 0.626791 0.611457
H45 H 0.569137 0.610556 0.638614
H46 H 0.590587 0.658196 0.621660
C57? C 0.5473(14) 0.6446(4) 0.5870(10)
H47? H 0.622756 0.652813 0.628671
H48? H 0.507410 0.624000 0.629789
H49? H 0.494778 0.668358 0.575148
loop_
_geom_bond_atom_site_label_1
_geom_bond_atom_site_label_2
_geom_bond_site_symmetry_1
_geom_bond_site_symmetry_2
C1 C2 1_555 1_555
C2 C3 1_555 1_555
C3 C4 1_555 1_555
C4 H1 1_555 1_555
C5 C4 1_555 1_555
H2 C5 1_555 1_555
C6 C1 1_555 1_555
C7 C6 1_555 1_555
H3 C7 1_555 1_555
C8 C7 1_555 1_555
C9 C8 1_555 1_555
H4 C9 1_555 1_555
C10 C1 1_555 1_555
C11 C10 1_555 1_555
C12 C11 1_555 1_555
C13 C12 1_555 1_555
C14 C13 1_555 1_555
H5 C14 1_555 1_555
C15 C14 1_555 1_555
C16 C15 1_555 1_555
C17 C16 1_555 1_555
H6 C17 1_555 1_555
C18 C13 1_555 1_555
C19 C18 1_555 1_555
C20 C11 1_555 1_555
C21 C2 1_555 1_555
C22 C21 1_555 1_555
H7 C22 1_555 1_555
C23 C22 1_555 1_555
C24 C3 1_555 1_555
H8 C24 1_555 1_555
C25 C23 1_555 1_555
C26 C25 1_555 1_555
H9 C26 1_555 1_555
H10 C26 1_555 1_555
H11 C26 1_555 1_555
C27 C25 1_555 1_555
H12 C27 1_555 1_555
H13 C27 1_555 1_555
H14 C27 1_555 1_555
C28 C8 1_555 1_555
C29 C28 1_555 1_555
H15 C29 1_555 1_555
H16 C29 1_555 1_555
H17 C29 1_555 1_555
C30 C28 1_555 1_555
H18 C30 1_555 1_555
H19 C30 1_555 1_555
H20 C30 1_555 1_555
C31 C28 1_555 1_555
H21 C31 1_555 1_555
H22 C31 1_555 1_555
H23 C31 1_555 1_555
C32 C19 1_555 1_555
C33 C32 1_555 1_555
H24 C33 1_555 1_555
C34 C33 1_555 1_555
H25 C34 1_555 1_555
C35 C34 1_555 1_555
H26 C35 1_555 1_555
C36 C35 1_555 1_555
H27 C36 1_555 1_555
C37 C32 1_555 1_555
H28 C37 1_555 1_555
C38 C12 1_555 1_555
C39 C38 1_555 1_555
H29 C39 1_555 1_555
C40 C39 1_555 1_555
H30 C40 1_555 1_555
C41 C40 1_555 1_555
H31 C41 1_555 1_555
C42 C41 1_555 1_555
H32 C42 1_555 1_555
C43 C38 1_555 1_555
H33 C43 1_555 1_555
C44 C16 1_555 1_555
C45 C44 1_555 1_555
H34 C45 1_555 1_555
C46 C45 1_555 1_555
H35 C46 1_555 1_555
C47 C46 1_555 1_555
H36 C47 1_555 1_555
C48 C47 1_555 1_555
H37 C48 1_555 1_555
C49 C44 1_555 1_555
H38 C49 1_555 1_555
C50 C15 1_555 1_555
C51 C50 1_555 1_555
H39 C51 1_555 1_555
C52 C51 1_555 1_555
H40 C52 1_555 1_555
C53 C52 1_555 1_555
H41 C53 1_555 1_555
C54 C53 1_555 1_555
H42 C54 1_555 1_555
C55 C50 1_555 1_555
H43 C55 1_555 1_555
C56 C25 1_555 1_555
H44 C56 1_555 1_555
H45 C56 1_555 1_555
H46 C56 1_555 1_555
C5 C6 1_555 1_555
C9 C10 1_555 1_555
C17 C18 1_555 1_555
C19 C20 1_555 1_555
C20 C21 1_555 1_555
C23 C24 1_555 1_555
C36 C37 1_555 1_555
C42 C43 1_555 1_555
C48 C49 1_555 1_555
C54 C55 1_555 1_555

#END
