
#######################################################################
#
#                 Cambridge Crystallographic Data Centre
#                                CCDC 
#
#######################################################################
#
# If this CIF has been generated from an entry in the Cambridge 
# Structural Database, then it will include bibliographic, chemical, 
# crystal, experimental, refinement or atomic coordinate data resulting 
# from the CCDC's data processing and validation procedures.
#
#######################################################################

data_MELTIH
_chemical_formula_moiety         'C18 H24 O2'
_chemical_name_systematic        'Methyl cis-deisopropyldehydroabietate'
_symmetry_cell_setting           monoclinic
_symmetry_space_group_name_H-M   'P 21'
_symmetry_Int_Tables_number      4
_space_group_name_Hall           'P 2yb'
loop_
_symmetry_equiv_pos_site_id
_symmetry_equiv_pos_as_xyz
1 x,y,z
2 -x,1/2+y,-z
_cell_length_a                   8.459(2)
_cell_length_b                   7.4681(19)
_cell_length_c                   11.701(3)
_cell_angle_alpha                90
_cell_angle_beta                 95.173(5)
_cell_angle_gamma                90
_cell_volume                     736.173
_exptl_crystal_colour            colorless
_exptl_crystal_description       block
_chemical_melting_point          '363.4-364.3 K'
_cell_formula_units_Z            2
_exptl_crystal_recrystallization_method methanol
loop_
_atom_site_label
_atom_site_type_symbol
_atom_site_fract_x
_atom_site_fract_y
_atom_site_fract_z
O1 O 0.74489(16) 0.6125(2) 0.50251(11)
O2 O 0.93868(14) 0.46742(19) 0.60790(10)
C1 C 0.6788(2) 0.4397(2) 0.66822(14)
C2 C 0.5115(2) 0.5190(3) 0.64571(15)
H1 H 0.4771 0.5094 0.5628
H2 H 0.4370 0.4475 0.6878
C3 C 0.5022(2) 0.7139(3) 0.68206(15)
H3 H 0.3910 0.7560 0.6696
H4 H 0.5677 0.7884 0.6346
C4 C 0.5615(2) 0.7344(3) 0.80868(14)
H5 H 0.4883 0.6697 0.8556
H6 H 0.5583 0.8628 0.8295
C5 C 0.73203(19) 0.6633(2) 0.83896(14)
C6 C 0.74541(19) 0.4659(2) 0.79664(14)
H7 H 0.8612 0.4366 0.8011
C7 C 0.6701(2) 0.3358(3) 0.87732(15)
H8 H 0.5588 0.3712 0.8853
H9 H 0.6699 0.2131 0.8453
C8 C 0.7651(2) 0.3396(2) 0.99400(14)
H10 H 0.7136 0.2607 1.0477
H11 H 0.8732 0.2928 0.9865
C9 C 0.77667(19) 0.5263(2) 1.04225(15)
C10 C 0.7979(2) 0.5498(3) 1.16174(15)
H12 H 0.8040 0.4474 1.2101
C11 C 0.8100(2) 0.7176(3) 1.21071(15)
H13 H 0.8248 0.7306 1.2917
C12 C 0.8002(2) 0.8670(3) 1.14038(16)
H14 H 0.8094 0.9835 1.1729
C13 C 0.7770(2) 0.8460(3) 1.02216(16)
H15 H 0.7688 0.9494 0.9747
C14 C 0.76522(18) 0.6758(2) 0.97074(14)
C15 C 0.7872(2) 0.5212(3) 0.58444(14)
C16 C 1.0505(2) 0.5344(3) 0.53237(17)
H16 H 1.0076 0.5173 0.4525
H17 H 1.1509 0.4693 0.5462
H18 H 1.0688 0.6623 0.5470
C17 C 0.6726(2) 0.2390(3) 0.63520(15)
H19 H 0.6545 0.2274 0.5516
H20 H 0.5858 0.1807 0.6711
H21 H 0.7734 0.1817 0.6620
C18 C 0.8531(2) 0.7812(3) 0.78337(15)
H22 H 0.8490 0.9033 0.8137
H23 H 0.8273 0.7834 0.7000
H24 H 0.9600 0.7322 0.8010
loop_
_geom_bond_atom_site_label_1
_geom_bond_atom_site_label_2
_geom_bond_site_symmetry_1
_geom_bond_site_symmetry_2
O1 C15 1_555 1_555
O2 C15 1_555 1_555
C1 C2 1_555 1_555
C2 H1 1_555 1_555
H2 C2 1_555 1_555
C3 C2 1_555 1_555
H3 C3 1_555 1_555
H4 C3 1_555 1_555
C4 C3 1_555 1_555
H5 C4 1_555 1_555
H6 C4 1_555 1_555
C5 C4 1_555 1_555
C6 C1 1_555 1_555
H7 C6 1_555 1_555
C7 C6 1_555 1_555
H8 C7 1_555 1_555
H9 C7 1_555 1_555
C8 C7 1_555 1_555
H10 C8 1_555 1_555
H11 C8 1_555 1_555
C9 C8 1_555 1_555
C10 C9 1_555 1_555
H12 C10 1_555 1_555
C11 C10 1_555 1_555
H13 C11 1_555 1_555
C12 C11 1_555 1_555
H14 C12 1_555 1_555
C13 C12 1_555 1_555
H15 C13 1_555 1_555
C14 C5 1_555 1_555
C15 C1 1_555 1_555
C16 O2 1_555 1_555
H16 C16 1_555 1_555
H17 C16 1_555 1_555
H18 C16 1_555 1_555
C17 C1 1_555 1_555
H19 C17 1_555 1_555
H20 C17 1_555 1_555
H21 C17 1_555 1_555
C18 C5 1_555 1_555
H22 C18 1_555 1_555
H23 C18 1_555 1_555
H24 C18 1_555 1_555
C5 C6 1_555 1_555
C9 C14 1_555 1_555
C13 C14 1_555 1_555

#END
