
#######################################################################
#
#                 Cambridge Crystallographic Data Centre
#                                CCDC 
#
#######################################################################
#
# If this CIF has been generated from an entry in the Cambridge 
# Structural Database, then it will include bibliographic, chemical, 
# crystal, experimental, refinement or atomic coordinate data resulting 
# from the CCDC's data processing and validation procedures.
#
#######################################################################

data_MEMZOU
_chemical_formula_moiety         'C17 H13 Cl1 N6 O1'
_chemical_name_systematic        
3-(Benzotriazol-1-yl)-1-(4-chlorophenyl)-2-(1,2,4-triazol-1-yl)propan-1-one
_symmetry_cell_setting           monoclinic
_symmetry_space_group_name_H-M   'C 2/c'
_symmetry_Int_Tables_number      15
_space_group_name_Hall           '-C 2yn'
loop_
_symmetry_equiv_pos_site_id
_symmetry_equiv_pos_as_xyz
1 x,y,z
2 1/2+x,1/2+y,z
3 -x,y,1/2-z
4 1/2-x,1/2+y,1/2-z
5 -x,-y,-z
6 1/2-x,1/2-y,-z
7 x,-y,1/2+z
8 1/2+x,1/2-y,1/2+z
_cell_length_a                   29.914(7)
_cell_length_b                   8.1198(18)
_cell_length_c                   14.818(3)
_cell_angle_alpha                90
_cell_angle_beta                 114.462(3)
_cell_angle_gamma                90
_cell_volume                     3276.15
_exptl_crystal_colour            colorless
_exptl_crystal_description       block
_cell_formula_units_Z            8
_exptl_crystal_recrystallization_method 'alcohol/ethyl acetate'
loop_
_atom_site_label
_atom_site_type_symbol
_atom_site_fract_x
_atom_site_fract_y
_atom_site_fract_z
Cl1 Cl 0.01958(2) 0.71656(7) 0.39583(5)
O1 O -0.08426(5) 1.45486(17) 0.29459(9)
N1 N -0.20601(5) 1.53651(17) 0.03970(10)
N2 N -0.25021(5) 1.46678(19) 0.01523(11)
N3 N -0.27892(5) 1.50839(19) -0.07542(12)
N4 N -0.12956(5) 1.30862(16) 0.06412(9)
N5 N -0.09285(5) 1.39659(18) 0.05559(11)
N6 N -0.12947(6) 1.2325(2) -0.07676(12)
C1 C -0.08977(6) 1.0213(2) 0.24358(13)
H1 H -0.1217 1.0133 0.1951
C2 C -0.06277(7) 0.8802(2) 0.28091(14)
H2 H -0.0766 0.7772 0.2589
C3 C -0.01521(7) 0.8933(2) 0.35101(14)
C4 C 0.00573(7) 1.0441(2) 0.38537(14)
H3 H 0.0380 1.0512 0.4327
C5 C -0.02152(6) 1.1842(2) 0.34904(13)
H4 H -0.0076 1.2867 0.3723
C6 C -0.06973(6) 1.1747(2) 0.27769(11)
C7 C -0.09716(6) 1.3309(2) 0.24506(12)
C8 C -0.14310(6) 1.3397(2) 0.14584(11)
H5 H -0.1665 1.2553 0.1457
C9 C -0.16679(6) 1.5089(2) 0.13680(13)
H6 H -0.1798 1.5189 0.1866
H7 H -0.1419 1.5932 0.1498
C10 C -0.25287(7) 1.6073(2) -0.11116(12)
C11 C -0.20566(6) 1.6258(2) -0.03794(13)
C12 C -0.17004(8) 1.7194(2) -0.05204(17)
H8 H -0.1384 1.7321 -0.0028
C13 C -0.18487(11) 1.7918(3) -0.1437(2)
H9 H -0.1626 1.8562 -0.1569
C14 C -0.23251(12) 1.7718(3) -0.21820(19)
H10 H -0.2406 1.8224 -0.2793
C15 C -0.26696(9) 1.6817(3) -0.20411(15)
H11 H -0.2985 1.6697 -0.2537
C16 C -0.15057(7) 1.2146(3) -0.01578(14)
H12 H -0.1770 1.1447 -0.0269
C17 C -0.09469(7) 1.3454(3) -0.02991(13)
H13 H -0.0734 1.3846 -0.0563
loop_
_geom_bond_atom_site_label_1
_geom_bond_atom_site_label_2
_geom_bond_site_symmetry_1
_geom_bond_site_symmetry_2
Cl1 C3 1_555 1_555
O1 C7 1_555 1_555
N1 N2 1_555 1_555
N2 N3 1_555 1_555
N3 C10 1_555 1_555
N4 N5 1_555 1_555
N5 C17 1_555 1_555
N6 C16 1_555 1_555
C1 H1 1_555 1_555
C2 C1 1_555 1_555
H2 C2 1_555 1_555
C3 C2 1_555 1_555
C4 C3 1_555 1_555
H3 C4 1_555 1_555
C5 C4 1_555 1_555
H4 C5 1_555 1_555
C6 C1 1_555 1_555
C7 C6 1_555 1_555
C8 N4 1_555 1_555
H5 C8 1_555 1_555
C9 N1 1_555 1_555
H6 C9 1_555 1_555
H7 C9 1_555 1_555
C10 C11 1_555 1_555
C11 N1 1_555 1_555
C12 C11 1_555 1_555
H8 C12 1_555 1_555
C13 C12 1_555 1_555
H9 C13 1_555 1_555
C14 C13 1_555 1_555
H10 C14 1_555 1_555
C15 C10 1_555 1_555
H11 C15 1_555 1_555
C16 N4 1_555 1_555
H12 C16 1_555 1_555
C17 N6 1_555 1_555
H13 C17 1_555 1_555
C5 C6 1_555 1_555
C7 C8 1_555 1_555
C8 C9 1_555 1_555
C14 C15 1_555 1_555

#END
