
#######################################################################
#
#                 Cambridge Crystallographic Data Centre
#                                CCDC 
#
#######################################################################
#
# If this CIF has been generated from an entry in the Cambridge 
# Structural Database, then it will include bibliographic, chemical, 
# crystal, experimental, refinement or atomic coordinate data resulting 
# from the CCDC's data processing and validation procedures.
#
#######################################################################

data_MENDOZ
_chemical_formula_moiety         'C16 H17 O5 P1'
_chemical_name_systematic        '(Dimethoxyphosphoryl)(phenyl)methyl benzoate'
_chemical_properties_biological  
'antimicrobial activity against Bacillus subtilis'
_symmetry_cell_setting           orthorhombic
_symmetry_space_group_name_H-M   'P b c a'
_symmetry_Int_Tables_number      61
_space_group_name_Hall           '-P 2ac 2ab'
loop_
_symmetry_equiv_pos_site_id
_symmetry_equiv_pos_as_xyz
1 x,y,z
2 1/2-x,-y,1/2+z
3 -x,1/2+y,1/2-z
4 1/2+x,1/2-y,-z
5 -x,-y,-z
6 1/2+x,y,1/2-z
7 x,1/2-y,1/2+z
8 1/2-x,1/2+y,z
_cell_length_a                   9.400(2)
_cell_length_b                   10.739(2)
_cell_length_c                   31.821(7)
_cell_angle_alpha                90
_cell_angle_beta                 90
_cell_angle_gamma                90
_cell_volume                     3212.22
_exptl_crystal_colour            colorless
_exptl_crystal_description       chunk
_cell_formula_units_Z            8
_exptl_crystal_recrystallization_method 'petroleum ether/ethyl acetate'
loop_
_atom_site_label
_atom_site_type_symbol
_atom_site_fract_x
_atom_site_fract_y
_atom_site_fract_z
P1 P 0.22706(6) 0.97319(4) 0.450230(15)
O1 O 0.2525(2) 1.10568(14) 0.44659(5)
C1 C 0.2702(2) 0.88137(18) 0.40425(6)
H1 H 0.2438 0.7941 0.4088
O2 O 0.31436(16) 0.90415(14) 0.48475(4)
C2 C 0.4227(2) 0.8904(2) 0.39177(6)
O3 O 0.06725(16) 0.94906(14) 0.45960(5)
C3 C 0.4733(3) 0.9918(3) 0.37020(9)
H2 H 0.4123 1.0564 0.3629
O4 O 0.17757(16) 0.93697(14) 0.37348(4)
C4 C 0.6148(5) 0.9972(4) 0.35951(11)
H3 H 0.6495 1.0657 0.3448
O5 O 0.1851(2) 0.76346(17) 0.33548(5)
C5 C 0.7036(4) 0.9038(5) 0.37020(13)
H4 H 0.7992 0.9081 0.3627
C6 C 0.6544(3) 0.8027(4) 0.39194(10)
H5 H 0.7164 0.7390 0.3994
C7 C 0.5140(3) 0.7954(2) 0.40270(7)
H6 H 0.4801 0.7266 0.4174
C8 C 0.0443(2) 0.9343(2) 0.31230(6)
C9 C -0.0225(3) 0.8668(3) 0.28112(7)
H7 H -0.0043 0.7822 0.2781
C10 C -0.1160(4) 0.9256(5) 0.25473(10)
H8 H -0.1619 0.8803 0.2338
C11 C -0.1425(4) 1.0493(5) 0.25871(10)
H9 H -0.2056 1.0884 0.2405
C12 C -0.0764(3) 1.1164(3) 0.28955(9)
H10 H -0.0951 1.2010 0.2924
C13 C 0.0177(3) 1.0589(2) 0.31633(7)
H11 H 0.0632 1.1047 0.3372
C14 C 0.1415(2) 0.8667(2) 0.34059(6)
C15 C 0.3264(4) 0.9603(3) 0.52534(8)
H12 H 0.3829 0.9080 0.5432
H13 H 0.2333 0.9701 0.5373
H14 H 0.3710 1.0403 0.5227
C16 C 0.0129(3) 0.8280(2) 0.46894(10)
H15 H -0.0878 0.8331 0.4737
H16 H 0.0588 0.7962 0.4937
H17 H 0.0311 0.7732 0.4457
loop_
_geom_bond_atom_site_label_1
_geom_bond_atom_site_label_2
_geom_bond_site_symmetry_1
_geom_bond_site_symmetry_2
P1 O1 1_555 1_555
C1 P1 1_555 1_555
H1 C1 1_555 1_555
O2 P1 1_555 1_555
C2 C1 1_555 1_555
O3 P1 1_555 1_555
C3 C2 1_555 1_555
H2 C3 1_555 1_555
O4 C1 1_555 1_555
C4 C3 1_555 1_555
H3 C4 1_555 1_555
O5 C14 1_555 1_555
C5 C4 1_555 1_555
H4 C5 1_555 1_555
C6 C5 1_555 1_555
H5 C6 1_555 1_555
C7 C2 1_555 1_555
H6 C7 1_555 1_555
C8 C9 1_555 1_555
C9 H7 1_555 1_555
C10 C9 1_555 1_555
H8 C10 1_555 1_555
C11 C10 1_555 1_555
H9 C11 1_555 1_555
C12 C11 1_555 1_555
H10 C12 1_555 1_555
C13 C8 1_555 1_555
H11 C13 1_555 1_555
C14 O4 1_555 1_555
C15 O2 1_555 1_555
H12 C15 1_555 1_555
H13 C15 1_555 1_555
H14 C15 1_555 1_555
C16 O3 1_555 1_555
H15 C16 1_555 1_555
H16 C16 1_555 1_555
H17 C16 1_555 1_555
C6 C7 1_555 1_555
C8 C14 1_555 1_555
C12 C13 1_555 1_555

#END
