
#######################################################################
#
#                 Cambridge Crystallographic Data Centre
#                                CCDC 
#
#######################################################################
#
# If this CIF has been generated from an entry in the Cambridge 
# Structural Database, then it will include bibliographic, chemical, 
# crystal, experimental, refinement or atomic coordinate data resulting 
# from the CCDC's data processing and validation procedures.
#
#######################################################################

data_MENGOC
_chemical_formula_moiety         'C15 H12 F1 N3 O1'
_chemical_name_systematic        
3-(1H-Benzotriazol-1-yl)-1-(4-fluorophenyl)propan-1-one
_symmetry_cell_setting           monoclinic
_symmetry_space_group_name_H-M   'P 21/c'
_symmetry_Int_Tables_number      14
_space_group_name_Hall           '-P 2ybc'
loop_
_symmetry_equiv_pos_site_id
_symmetry_equiv_pos_as_xyz
1 x,y,z
2 -x,1/2+y,1/2-z
3 -x,-y,-z
4 x,1/2-y,1/2+z
_cell_length_a                   5.9177(14)
_cell_length_b                   7.2815(17)
_cell_length_c                   29.518(7)
_cell_angle_alpha                90
_cell_angle_beta                 96.776(5)
_cell_angle_gamma                90
_cell_volume                     1263.04
_exptl_crystal_colour            colorless
_exptl_crystal_description       needle
_cell_formula_units_Z            4
_exptl_crystal_recrystallization_method dichloromethane/cyclohexane
loop_
_atom_site_label
_atom_site_type_symbol
_atom_site_fract_x
_atom_site_fract_y
_atom_site_fract_z
F1 F 0.5403(3) 0.7124(2) 0.51298(4)
O1 O 0.3640(3) 0.4447(2) 0.70774(5)
N1 N 0.8956(3) 0.5531(2) 0.81037(6)
N2 N 1.0954(3) 0.6124(3) 0.79733(6)
N3 N 1.2258(3) 0.6715(3) 0.83311(6)
C1 C 0.3533(4) 0.5324(3) 0.61573(7)
H1 H 0.2278 0.4730 0.6251
C2 C 0.3534(4) 0.5785(3) 0.57036(7)
H2 H 0.2294 0.5508 0.5491
C3 C 0.5395(5) 0.6654(3) 0.55753(7)
C4 C 0.7258(4) 0.7086(3) 0.58722(8)
H3 H 0.8500 0.7677 0.5772
C5 C 0.7253(4) 0.6621(3) 0.63277(7)
H4 H 0.8509 0.6903 0.6536
C6 C 0.5390(4) 0.5740(3) 0.64757(7)
C7 C 0.5317(4) 0.5192(3) 0.69622(7)
C8 C 0.7347(4) 0.5642(3) 0.72999(6)
H5 H 0.7515 0.6965 0.7322
H6 H 0.8707 0.5150 0.7191
C9 C 0.7130(4) 0.4865(3) 0.77680(7)
H7 H 0.5672 0.5218 0.7861
H8 H 0.7183 0.3534 0.7756
C10 C 0.8976(4) 0.5755(3) 0.85624(7)
C11 C 1.1091(4) 0.6520(3) 0.87053(7)
C12 C 1.1720(4) 0.6971(3) 0.91632(7)
H9 H 1.3117 0.7511 0.9261
C13 C 1.0180(4) 0.6581(3) 0.94609(7)
H10 H 1.0546 0.6856 0.9768
C14 C 0.8060(4) 0.5775(3) 0.93150(7)
H11 H 0.7069 0.5516 0.9529
C15 C 0.7418(4) 0.5359(3) 0.88637(7)
H12 H 0.6009 0.4839 0.8766
loop_
_geom_bond_atom_site_label_1
_geom_bond_atom_site_label_2
_geom_bond_site_symmetry_1
_geom_bond_site_symmetry_2
F1 C3 1_555 1_555
O1 C7 1_555 1_555
N1 N2 1_555 1_555
N2 N3 1_555 1_555
N3 C11 1_555 1_555
C1 H1 1_555 1_555
C2 C1 1_555 1_555
H2 C2 1_555 1_555
C3 C2 1_555 1_555
C4 C3 1_555 1_555
H3 C4 1_555 1_555
C5 C4 1_555 1_555
H4 C5 1_555 1_555
C6 C1 1_555 1_555
C7 C6 1_555 1_555
C8 C7 1_555 1_555
H5 C8 1_555 1_555
H6 C8 1_555 1_555
C9 N1 1_555 1_555
H7 C9 1_555 1_555
H8 C9 1_555 1_555
C10 N1 1_555 1_555
C11 C10 1_555 1_555
C12 C11 1_555 1_555
H9 C12 1_555 1_555
C13 C12 1_555 1_555
H10 C13 1_555 1_555
C14 C13 1_555 1_555
H11 C14 1_555 1_555
C15 C10 1_555 1_555
H12 C15 1_555 1_555
C5 C6 1_555 1_555
C8 C9 1_555 1_555
C14 C15 1_555 1_555

#END
