
#######################################################################
#
#                 Cambridge Crystallographic Data Centre
#                                CCDC 
#
#######################################################################
#
# If this CIF has been generated from an entry in the Cambridge 
# Structural Database, then it will include bibliographic, chemical, 
# crystal, experimental, refinement or atomic coordinate data resulting 
# from the CCDC's data processing and validation procedures.
#
#######################################################################

data_MENXEL
_chemical_formula_moiety         'C20 H17 Cl1 N4 O4'
_chemical_name_systematic        
'dimethyl 1-(6-chloro-9H-purin-9-yl)-2-phenylcyclopent-3-ene-1,3-dicarboxylate'
_symmetry_cell_setting           monoclinic
_symmetry_space_group_name_H-M   'P 21'
_symmetry_Int_Tables_number      4
_space_group_name_Hall           'P 2yb'
loop_
_symmetry_equiv_pos_site_id
_symmetry_equiv_pos_as_xyz
1 x,y,z
2 -x,1/2+y,-z
_cell_length_a                   7.1487(4)
_cell_length_b                   13.5650(5)
_cell_length_c                   10.6321(6)
_cell_angle_alpha                90
_cell_angle_beta                 109.401(6)
_cell_angle_gamma                90
_cell_volume                     972.473
_exptl_crystal_colour            colorless
_exptl_crystal_description       block
_cell_formula_units_Z            2
loop_
_atom_site_label
_atom_site_type_symbol
_atom_site_fract_x
_atom_site_fract_y
_atom_site_fract_z
Cl1 Cl 0.21382(9) 0.52781(5) -0.22412(5)
O1 O 0.2089(2) 0.70875(13) 0.33453(18)
O2 O 0.6057(3) 0.37957(14) 0.79893(17)
O3 O 0.3629(3) 0.29771(13) 0.64319(18)
O4 O 0.1001(3) 0.60641(16) 0.46214(19)
N1 N 0.0434(3) 0.53809(16) 0.14708(19)
N2 N 0.5073(3) 0.55270(16) 0.0892(2)
N3 N -0.0300(3) 0.52027(17) -0.08946(19)
N4 N 0.3937(3) 0.56009(14) 0.2637(2)
C1 C 0.4761(4) 0.36668(18) 0.6755(2)
C2 C -0.0789(3) 0.5246(2) 0.0222(2)
H1 H -0.2128 0.5175 0.0113
C3 C 0.4866(3) 0.44743(19) 0.5855(2)
C4 C 0.3029(3) 0.54192(17) 0.0448(2)
C5 C 0.3811(4) 0.36994(18) 0.3557(2)
C6 C 0.2308(3) 0.54568(16) 0.1520(2)
C7 C 0.6087(3) 0.52458(19) 0.6185(2)
H2 H 0.7032 0.5331 0.7024
C8 C 0.2119(4) 0.62544(18) 0.4020(2)
C9 C 0.5540(3) 0.56234(18) 0.2188(2)
H3 H 0.6839 0.5700 0.2755
C10 C 0.5774(4) 0.59588(18) 0.5062(2)
H4 H 0.6878 0.5946 0.4725
H5 H 0.5608 0.6625 0.5341
C11 C 0.1577(3) 0.52937(19) -0.0783(2)
C12 C 0.2187(4) 0.3234(2) 0.2629(3)
H6 H 0.0909 0.3399 0.2595
C13 C 0.3837(3) 0.55822(17) 0.3993(2)
C14 C 0.5709(4) 0.3428(2) 0.3590(3)
H7 H 0.6809 0.3732 0.4194
C15 C 0.3464(3) 0.45082(18) 0.4427(2)
H8 H 0.2097 0.4463 0.4429
C16 C 0.2457(5) 0.2534(2) 0.1762(3)
H9 H 0.1361 0.2238 0.1145
C17 C 0.5972(5) 0.3080(2) 0.8967(3)
H10 H 0.6402 0.2451 0.8751
H11 H 0.4635 0.3028 0.8970
H12 H 0.6825 0.3284 0.9833
C18 C 0.0411(4) 0.7733(2) 0.3209(3)
H13 H -0.0779 0.7431 0.2632
H14 H 0.0617 0.8351 0.2836
H15 H 0.0288 0.7843 0.4070
C19 C 0.5976(5) 0.2712(2) 0.2733(3)
H16 H 0.7251 0.2528 0.2781
C20 C 0.4348(5) 0.2269(2) 0.1806(3)
H17 H 0.4526 0.1799 0.1219
loop_
_geom_bond_atom_site_label_1
_geom_bond_atom_site_label_2
_geom_bond_site_symmetry_1
_geom_bond_site_symmetry_2
Cl1 C11 1_555 1_555
O1 C8 1_555 1_555
O2 C1 1_555 1_555
O3 C1 1_555 1_555
O4 C8 1_555 1_555
N1 C2 1_555 1_555
N2 C4 1_555 1_555
N3 C2 1_555 1_555
N4 C6 1_555 1_555
C1 C3 1_555 1_555
C2 H1 1_555 1_555
C3 C7 1_555 1_555
C4 C6 1_555 1_555
C5 C12 1_555 1_555
C6 N1 1_555 1_555
C7 H2 1_555 1_555
C8 C13 1_555 1_555
C9 N2 1_555 1_555
H3 C9 1_555 1_555
C10 C7 1_555 1_555
H4 C10 1_555 1_555
H5 C10 1_555 1_555
C11 N3 1_555 1_555
C12 H6 1_555 1_555
C13 N4 1_555 1_555
C14 C5 1_555 1_555
H7 C14 1_555 1_555
C15 C3 1_555 1_555
H8 C15 1_555 1_555
C16 C12 1_555 1_555
H9 C16 1_555 1_555
C17 O2 1_555 1_555
H10 C17 1_555 1_555
H11 C17 1_555 1_555
H12 C17 1_555 1_555
C18 O1 1_555 1_555
H13 C18 1_555 1_555
H14 C18 1_555 1_555
H15 C18 1_555 1_555
C19 C14 1_555 1_555
H16 C19 1_555 1_555
C20 C16 1_555 1_555
H17 C20 1_555 1_555
N4 C9 1_555 1_555
C4 C11 1_555 1_555
C5 C15 1_555 1_555
C10 C13 1_555 1_555
C13 C15 1_555 1_555
C19 C20 1_555 1_555

#END
