
#######################################################################
#
#                 Cambridge Crystallographic Data Centre
#                                CCDC 
#
#######################################################################
#
# If this CIF has been generated from an entry in the Cambridge 
# Structural Database, then it will include bibliographic, chemical, 
# crystal, experimental, refinement or atomic coordinate data resulting 
# from the CCDC's data processing and validation procedures.
#
#######################################################################

data_MEPQAC
_chemical_formula_moiety         'C20 H17 Cl2 N3 O3'
_chemical_name_systematic        
'methyl 2-(2-{[4-chloro-5-(4-chlorophenyl)-2H-1,2,3-triazol-2-yl]methyl}phenyl)-3-methoxyprop-2-enoate'
_symmetry_cell_setting           monoclinic
_symmetry_space_group_name_H-M   'C 2/c'
_symmetry_Int_Tables_number      15
_space_group_name_Hall           '-C 2yn'
loop_
_symmetry_equiv_pos_site_id
_symmetry_equiv_pos_as_xyz
1 x,y,z
2 -x,y,1/2-z
3 1/2+x,1/2+y,z
4 1/2-x,1/2+y,1/2-z
5 -x,-y,-z
6 x,-y,1/2+z
7 1/2-x,1/2-y,-z
8 1/2+x,1/2-y,1/2+z
_cell_length_a                   26.354(2)
_cell_length_b                   7.7808(8)
_cell_length_c                   20.393(2)
_cell_angle_alpha                90
_cell_angle_beta                 105.509(10)
_cell_angle_gamma                90
_cell_volume                     4029.43
_exptl_crystal_colour            colorless
_exptl_crystal_description       strip
_cell_formula_units_Z            8
loop_
_atom_site_label
_atom_site_type_symbol
_atom_site_fract_x
_atom_site_fract_y
_atom_site_fract_z
Cl1 Cl 0.18889(4) 0.34165(15) 0.02846(8)
Cl2 Cl 0.44548(4) 0.7399(2) 0.17815(7)
O1 O 0.19901(7) 0.9433(3) 0.23881(11)
O2 O 0.15433(10) 0.7006(3) 0.22027(16)
O3 O 0.07422(8) 1.2217(3) 0.13808(13)
N1 N 0.13310(9) 0.7768(4) 0.03710(12)
N2 N 0.12814(10) 0.6120(4) 0.02074(14)
N3 N 0.18189(10) 0.8297(3) 0.06498(12)
C1 C 0.26938(12) 0.6976(5) 0.09471(15)
C2 C 0.00288(13) 0.7548(5) 0.0337(2)
H1 H -0.0026(11) 0.750(4) -0.0113(16)
C3 C -0.03180(13) 0.7029(5) 0.0686(3)
H2 H -0.0663(14) 0.640(5) 0.0473(17)
C4 C 0.15543(11) 0.8525(4) 0.21260(15)
C5 C 0.0804(2) 1.4042(5) 0.1469(3)
H3 H 0.122(2) 1.431(8) 0.159(3)
H4 H 0.0462(15) 1.447(5) 0.128(2)
H5 H 0.077(2) 1.428(8) 0.186(3)
C6 C 0.17717(12) 0.5555(5) 0.03954(17)
C7 C 0.08738(13) 0.8906(5) 0.02618(18)
H6 H 0.0697(13) 0.890(4) -0.0190(19)
H7 H 0.1013(10) 0.997(4) 0.0376(14)
C8 C 0.35611(14) 0.5747(7) 0.1180(2)
H8 H 0.3734(15) 0.473(6) 0.114(2)
C9 C 0.06147(9) 0.8654(3) 0.13582(14)
C10 C 0.37770(14) 0.7247(6) 0.14701(19)
C11 C 0.02587(12) 0.8136(5) 0.1707(2)
H9 H 0.0309(15) 0.836(5) 0.221(2)
C12 C 0.04998(10) 0.8373(4) 0.06578(15)
C13 C -0.02056(15) 0.7336(5) 0.1371(3)
H10 H -0.044(2) 0.720(6) 0.159(2)
C14 C 0.11085(9) 0.9559(4) 0.17355(13)
C15 C 0.30247(14) 0.5601(6) 0.09221(19)
H11 H 0.2884(11) 0.454(4) 0.0735(15)
C16 C 0.24449(14) 0.8504(6) 0.2779(2)
H12 H 0.2546(18) 0.744(7) 0.238(3)
H13 H 0.2772(16) 0.946(6) 0.296(2)
H14 H 0.2288(17) 0.768(6) 0.313(2)
C17 C 0.34630(16) 0.8617(7) 0.1509(2)
H15 H 0.3602(13) 0.956(5) 0.1714(19)
C18 C 0.21174(11) 0.6882(4) 0.06682(14)
C19 C 0.11436(10) 1.1256(4) 0.17396(15)
H16 H 0.1481(10) 1.209(3) 0.2004(13)
C20 C 0.29198(15) 0.8479(6) 0.1247(2)
H17 H 0.2692(12) 0.938(5) 0.1206(16)
loop_
_geom_bond_atom_site_label_1
_geom_bond_atom_site_label_2
_geom_bond_site_symmetry_1
_geom_bond_site_symmetry_2
Cl1 C6 1_555 1_555
Cl2 C10 1_555 1_555
O1 C4 1_555 1_555
O2 C4 1_555 1_555
O3 C5 1_555 1_555
N1 N2 1_555 1_555
N2 C6 1_555 1_555
N3 N1 1_555 1_555
C1 C15 1_555 1_555
C2 H1 1_555 1_555
C3 C2 1_555 1_555
H2 C3 1_555 1_555
C4 C14 1_555 1_555
C5 H3 1_555 1_555
H4 C5 1_555 1_555
H5 C5 1_555 1_555
C6 C18 1_555 1_555
C7 N1 1_555 1_555
H6 C7 1_555 1_555
H7 C7 1_555 1_555
C8 H8 1_555 1_555
C9 C11 1_555 1_555
C10 C8 1_555 1_555
C11 H9 1_555 1_555
C12 C2 1_555 1_555
C13 C3 1_555 1_555
H10 C13 1_555 1_555
C14 C9 1_555 1_555
C15 C8 1_555 1_555
H11 C15 1_555 1_555
C16 O1 1_555 1_555
H12 C16 1_555 1_555
H13 C16 1_555 1_555
H14 C16 1_555 1_555
C17 C10 1_555 1_555
H15 C17 1_555 1_555
C18 N3 1_555 1_555
C19 O3 1_555 1_555
H16 C19 1_555 1_555
C20 C1 1_555 1_555
H17 C20 1_555 1_555
C1 C18 1_555 1_555
C7 C12 1_555 1_555
C9 C12 1_555 1_555
C11 C13 1_555 1_555
C14 C19 1_555 1_555
C17 C20 1_555 1_555

#END
