
#######################################################################
#
#                 Cambridge Crystallographic Data Centre
#                                CCDC 
#
#######################################################################
#
# If this CIF has been generated from an entry in the Cambridge 
# Structural Database, then it will include bibliographic, chemical, 
# crystal, experimental, refinement or atomic coordinate data resulting 
# from the CCDC's data processing and validation procedures.
#
#######################################################################

data_MEPVAF
_chemical_formula_moiety         'C120 H128 K8 N8 O8 S8,3(C5 H5 N1)'
_chemical_name_systematic        
'bis(\m~7~-5,11,17,23-Tetra-t-butyl-25,26,27,28-tetraoxy-2,8,14,20-tetrathiacalix(4)arene)-octakis(pyridine)-octa-potassium pyridine solvate'
_symmetry_cell_setting           triclinic
_symmetry_space_group_name_H-M   'P -1'
_symmetry_Int_Tables_number      2
_space_group_name_Hall           '-P 1'
loop_
_symmetry_equiv_pos_site_id
_symmetry_equiv_pos_as_xyz
1 x,y,z
2 -x,-y,-z
_cell_length_a                   13.2614(12)
_cell_length_b                   15.2201(11)
_cell_length_c                   18.8693(17)
_cell_angle_alpha                81.046(10)
_cell_angle_beta                 77.249(11)
_cell_angle_gamma                69.810(9)
_cell_volume                     3473.24
_exptl_crystal_colour            colorless
_exptl_crystal_description       block
_cell_formula_units_Z            1
loop_
_atom_site_label
_atom_site_type_symbol
_atom_site_fract_x
_atom_site_fract_y
_atom_site_fract_z
K1 K 0.63117(7) 0.79770(6) 0.03920(4)
K2 K 0.41300(7) 1.03890(6) 0.20428(4)
K3 K 0.37226(8) 0.95352(6) 0.00905(5)
K4 K 0.38920(8) 0.69568(7) 0.05685(5)
S1 S 0.70015(7) 1.09206(7) 0.12564(5)
S2 S 0.59704(8) 0.76177(7) 0.21229(5)
S3 S 0.18269(8) 0.96256(7) 0.15003(5)
S4 S 0.73276(7) 0.69707(7) -0.11011(5)
O1 O 0.4179(2) 0.82539(18) 0.12011(12)
O2 O 0.59557(19) 0.94481(17) 0.11850(12)
O3 O 0.49029(19) 0.78872(18) -0.04835(13)
O4 O 0.68810(19) 0.90170(18) -0.08813(13)
N1 N 0.3034(6) 0.6191(6) 0.1992(4)
N2 N 0.1655(3) 0.7510(3) 0.0479(2)
N3 N 0.4028(4) 0.5759(4) -0.0521(4)
N4 N 0.8443(3) 0.6676(3) 0.0745(3)
C1 C 0.3851(3) 0.8505(2) 0.18577(18)
C2 C 0.2761(3) 0.9085(3) 0.21226(19)
C3 C 0.4553(3) 0.8240(3) 0.23944(19)
C4 C 0.2394(3) 0.9251(3) 0.28544(19)
H2 H 0.1657 0.9599 0.3004
C5 C 0.4153(3) 0.8439(3) 0.31237(19)
H3 H 0.4640 0.8233 0.3455
C6 C 0.3066(3) 0.8928(3) 0.33760(19)
C7 C 0.2584(4) 0.9052(4) 0.4189(2)
C8 C 0.3457(5) 0.8835(5) 0.4656(3)
H4 H 0.3950 0.8199 0.4599
H5 H 0.3113 0.8895 0.5164
H6 H 0.3865 0.9274 0.4502
C9 C 0.1925(6) 0.8376(6) 0.4465(3)
H7 H 0.2400 0.7736 0.4401
H8 H 0.1340 0.8525 0.4191
H9 H 0.1618 0.8440 0.4978
C10 C 0.1817(6) 1.0050(5) 0.4293(3)
H10 H 0.1519 1.0112 0.4807
H11 H 0.1227 1.0184 0.4025
H12 H 0.2218 1.0490 0.4112
C11 C 0.6534(3) 0.9251(3) 0.16969(18)
C12 C 0.6630(3) 0.8433(3) 0.22023(19)
C13 C 0.7103(3) 0.9848(3) 0.18176(19)
C14 C 0.7275(3) 0.8229(3) 0.27337(19)
H13 H 0.7324 0.7678 0.3047
C15 C 0.7741(3) 0.9613(3) 0.2355(2)
H14 H 0.8113 1.0021 0.2403
C16 C 0.7852(3) 0.8800(3) 0.2824(2)
C17 C 0.8567(4) 0.8530(4) 0.3414(2)
C18 C 0.7991(10) 0.8269(10) 0.4128(7)
H15 H 0.7310 0.8769 0.4257
H16 H 0.8443 0.8169 0.4492
H17 H 0.7838 0.7695 0.4108
C20 C 0.8898(9) 0.9435(8) 0.3534(6)
H21 H 0.9302 0.9635 0.3080
H22 H 0.9348 0.9258 0.3908
H23 H 0.8240 0.9948 0.3685
C22 C 0.9619(12) 0.7828(11) 0.3190(8)
H27 H 0.9515 0.7230 0.3180
H28 H 1.0093 0.7762 0.3534
H29 H 0.9950 0.8025 0.2708
C24 C 0.5141(3) 0.7907(2) -0.11853(19)
C25 C 0.6210(3) 0.7486(3) -0.15809(18)
C26 C 0.5653(3) 1.1622(3) 0.16468(19)
C27 C 0.5414(3) 1.1662(3) 0.23983(19)
H33 H 0.5978 1.1371 0.2668
C28 C 0.6434(3) 0.7471(3) -0.2337(2)
H34 H 0.7154 0.7171 -0.2565
C29 C 0.4366(3) 1.2118(3) 0.2770(2)
C30 C 0.4157(4) 1.2159(4) 0.3599(2)
C31 C 0.3016(8) 1.2679(8) 0.3914(5)
H35 H 0.2526 1.2400 0.3793
H36 H 0.2836 1.3331 0.3715
H37 H 0.2937 1.2649 0.4440
C33 C 0.4460(9) 1.1073(8) 0.3961(6)
H41 H 0.5207 1.0726 0.3759
H42 H 0.3969 1.0784 0.3854
H43 H 0.4383 1.1064 0.4485
C35 C 0.4863(10) 1.2595(9) 0.3816(6)
H47 H 0.5620 1.2276 0.3614
H48 H 0.4766 1.2545 0.4343
H49 H 0.4666 1.3253 0.3632
C37 C 0.1467(3) 1.0836(3) 0.16501(19)
C38 C 0.7806(3) 0.8641(3) -0.13013(18)
C39 C 0.8165(3) 0.7694(3) -0.14792(18)
C40 C 0.9173(3) 0.7296(3) -0.1919(2)
H53 H 0.9379 0.6662 -0.2009
C41 C 0.0468(3) 1.1263(3) 0.2084(2)
H54 H 0.0011 1.0900 0.2289
C42 C 0.9886(3) 0.7801(3) -0.2230(2)
C43 C 1.0991(4) 0.7350(4) -0.2719(3)
C44 C 1.0678(15) 0.6988(15) -0.3392(10)
H55 H 1.0229 0.7523 -0.3659
H56 H 1.0278 0.6551 -0.3198
H57 H 1.1342 0.6678 -0.3718
C47 C 1.1547(14) 0.8043(11) -0.3130(10)
H64 H 1.1042 0.8534 -0.3394
H65 H 1.2183 0.7720 -0.3471
H66 H 1.1771 0.8320 -0.2787
C50 C 1.1675(14) 0.6585(13) -0.2313(10)
H73 H 1.1265 0.6174 -0.2061
H74 H 1.1917 0.6831 -0.1960
H75 H 1.2306 0.6233 -0.2645
C53 C 0.2975(6) 0.6494(5) 0.2628(6)
H82 H 0.3250 0.6985 0.2632
C54 C 0.2544(9) 0.6131(7) 0.3255(5)
H83 H 0.2544 0.6341 0.3698
C55 C 0.2116(9) 0.5471(8) 0.3250(5)
H84 H 0.1785 0.5223 0.3692
C56 C 0.2146(7) 0.5152(6) 0.2628(6)
H85 H 0.1833 0.4687 0.2618
C57 C 0.2629(7) 0.5509(7) 0.2028(4)
H86 H 0.2690 0.5258 0.1590
C58 C 0.0838(5) 0.7784(5) 0.1027(3)
H87 H 0.0970 0.7566 0.1502
C59 C -0.0181(5) 0.8360(5) 0.0948(5)
H88 H -0.0737 0.8530 0.1356
C60 C -0.0368(6) 0.8682(6) 0.0261(6)
H89 H -0.1059 0.9089 0.0184
C61 C 0.0454(7) 0.8408(6) -0.0314(5)
H90 H 0.0346 0.8625 -0.0794
C62 C 0.1431(5) 0.7818(5) -0.0178(3)
H91 H 0.1987 0.7613 -0.0579
C63 C 0.4430(6) 0.5852(4) -0.1224(5)
H92 H 0.4823 0.6276 -0.1389
C64 C 0.4301(8) 0.5365(6) -0.1710(4)
H93 H 0.4588 0.5455 -0.2207
C65 C 0.3758(7) 0.4750(5) -0.1478(5)
H94 H 0.3652 0.4409 -0.1814
C66 C 0.3370(5) 0.4621(4) -0.0778(5)
H95 H 0.2993 0.4185 -0.0607
C67 C 0.3526(5) 0.5121(6) -0.0320(4)
H96 H 0.3263 0.5015 0.0180
C68 C 0.8686(4) 0.6236(4) 0.1376(3)
H97 H 0.8127 0.6326 0.1788
C69 C 0.9716(5) 0.5653(4) 0.1461(4)
H98 H 0.9855 0.5365 0.1924
C70 C 1.0527(4) 0.5501(4) 0.0867(4)
H99 H 1.1230 0.5087 0.0908
C71 C 1.0308(4) 0.5955(4) 0.0210(4)
H100 H 1.0858 0.5876 -0.0208
C72 C 0.9259(4) 0.6534(4) 0.0177(3)
H101 H 0.9109 0.6849 -0.0277
K1A K 0.36883(7) 1.20230(6) -0.03920(4)
K2A K 0.58700(7) 0.96110(6) -0.20428(4)
K3A K 0.62774(8) 1.04648(6) -0.00905(5)
K4A K 0.61080(8) 1.30432(7) -0.05685(5)
S1A S 0.29985(7) 0.90794(7) -0.12564(5)
S2A S 0.40296(8) 1.23823(7) -0.21229(5)
S3A S 0.81731(8) 1.03744(7) -0.15003(5)
S4A S 0.26724(7) 1.30293(7) 0.11011(5)
O1A O 0.5821(2) 1.17461(18) -0.12011(12)
O2A O 0.40443(19) 1.05519(17) -0.11850(12)
O3A O 0.50971(19) 1.21128(18) 0.04835(13)
O4A O 0.31190(19) 1.09830(18) 0.08813(13)
N1A N 0.6966(6) 1.3809(6) -0.1992(4)
N2A N 0.8345(3) 1.2490(3) -0.0479(2)
N3A N 0.5972(4) 1.4241(4) 0.0521(4)
N4A N 0.1557(3) 1.3324(3) -0.0745(3)
C1A C 0.6149(3) 1.1495(2) -0.18577(18)
C2A C 0.7239(3) 1.0915(3) -0.21226(19)
C3A C 0.5447(3) 1.1760(3) -0.23944(19)
C4A C 0.7606(3) 1.0749(3) -0.28544(19)
H2A H 0.8343 1.0401 -0.3004
C5A C 0.5847(3) 1.1561(3) -0.31237(19)
H3A H 0.5360 1.1767 -0.3455
C6A C 0.6934(3) 1.1072(3) -0.33760(19)
C7A C 0.7416(4) 1.0948(4) -0.4189(2)
C8A C 0.6543(5) 1.1165(5) -0.4656(3)
H4A H 0.6050 1.1801 -0.4599
H5A H 0.6887 1.1105 -0.5164
H6A H 0.6135 1.0726 -0.4502
C9A C 0.8075(6) 1.1624(6) -0.4465(3)
H7A H 0.7600 1.2264 -0.4401
H8A H 0.8660 1.1475 -0.4191
H9A H 0.8382 1.1560 -0.4978
C10A C 0.8183(6) 0.9950(5) -0.4293(3)
H10A H 0.8481 0.9888 -0.4807
H11A H 0.8773 0.9816 -0.4025
H12A H 0.7782 0.9510 -0.4112
C11A C 0.3466(3) 1.0749(3) -0.16969(18)
C12A C 0.3370(3) 1.1567(3) -0.22023(19)
C13A C 0.2897(3) 1.0152(3) -0.18176(19)
C14A C 0.2725(3) 1.1771(3) -0.27337(19)
H13A H 0.2676 1.2322 -0.3047
C15A C 0.2259(3) 1.0387(3) -0.2355(2)
H14A H 0.1887 0.9979 -0.2403
C16A C 0.2148(3) 1.1200(3) -0.2824(2)
C17A C 0.1433(4) 1.1470(4) -0.3414(2)
C18A C 0.2009(10) 1.1731(10) -0.4128(7)
H15A H 0.2690 1.1231 -0.4257
H16A H 0.1557 1.1831 -0.4492
H17A H 0.2162 1.2305 -0.4108
C20A C 0.1102(9) 1.0565(8) -0.3534(6)
H21A H 0.0698 1.0365 -0.3080
H22A H 0.0652 1.0742 -0.3908
H23A H 0.1760 1.0052 -0.3685
C22A C 0.0381(12) 1.2172(11) -0.3190(8)
H27A H 0.0485 1.2770 -0.3180
H28A H -0.0093 1.2238 -0.3534
H29A H 0.0050 1.1975 -0.2708
C24A C 0.4859(3) 1.2093(2) 0.11853(19)
C25A C 0.3790(3) 1.2514(3) 0.15809(18)
C26A C 0.4347(3) 0.8378(3) -0.16468(19)
C27A C 0.4586(3) 0.8338(3) -0.23983(19)
H33A H 0.4022 0.8629 -0.2668
C28A C 0.3566(3) 1.2529(3) 0.2337(2)
H34A H 0.2846 1.2829 0.2565
C29A C 0.5634(3) 0.7882(3) -0.2770(2)
C30A C 0.5843(4) 0.7841(4) -0.3599(2)
C31A C 0.6984(8) 0.7321(8) -0.3914(5)
H35A H 0.7474 0.7600 -0.3793
H36A H 0.7164 0.6669 -0.3715
H37A H 0.7063 0.7351 -0.4440
C33A C 0.5540(9) 0.8927(8) -0.3961(6)
H41A H 0.4793 0.9274 -0.3759
H42A H 0.6031 0.9216 -0.3854
H43A H 0.5617 0.8936 -0.4485
C35A C 0.5137(10) 0.7405(9) -0.3816(6)
H47A H 0.4380 0.7724 -0.3614
H48A H 0.5234 0.7455 -0.4343
H49A H 0.5334 0.6747 -0.3632
C37A C 0.8533(3) 0.9164(3) -0.16501(19)
C38A C 0.2194(3) 1.1359(3) 0.13013(18)
C39A C 0.1835(3) 1.2306(3) 0.14792(18)
C40A C 0.0827(3) 1.2704(3) 0.1919(2)
H53A H 0.0621 1.3338 0.2009
C41A C 0.9532(3) 0.8737(3) -0.2084(2)
H54A H 0.9989 0.9100 -0.2289
C42A C 0.0114(3) 1.2199(3) 0.2230(2)
C43A C -0.0991(4) 1.2650(4) 0.2719(3)
C44A C -0.0678(15) 1.3012(15) 0.3392(10)
H55A H -0.0229 1.2477 0.3659
H56A H -0.0278 1.3449 0.3198
H57A H -0.1342 1.3322 0.3718
C47A C -0.1547(14) 1.1957(11) 0.3130(10)
H64A H -0.1042 1.1466 0.3394
H65A H -0.2183 1.2280 0.3471
H66A H -0.1771 1.1680 0.2787
C50A C -0.1675(14) 1.3415(13) 0.2313(10)
H73A H -0.1265 1.3826 0.2061
H74A H -0.1917 1.3169 0.1960
H75A H -0.2306 1.3767 0.2645
C53A C 0.7025(6) 1.3506(5) -0.2628(6)
H82A H 0.6750 1.3015 -0.2632
C54A C 0.7456(9) 1.3869(7) -0.3255(5)
H83A H 0.7456 1.3659 -0.3698
C55A C 0.7884(9) 1.4529(8) -0.3250(5)
H84A H 0.8215 1.4777 -0.3692
C56A C 0.7854(7) 1.4848(6) -0.2628(6)
H85A H 0.8167 1.5313 -0.2618
C57A C 0.7371(7) 1.4491(7) -0.2028(4)
H86A H 0.7310 1.4742 -0.1590
C58A C 0.9162(5) 1.2216(5) -0.1027(3)
H87A H 0.9030 1.2434 -0.1502
C59A C 1.0181(5) 1.1640(5) -0.0948(5)
H88A H 1.0737 1.1470 -0.1356
C60A C 1.0368(6) 1.1318(6) -0.0261(6)
H89A H 1.1059 1.0911 -0.0184
C61A C 0.9546(7) 1.1592(6) 0.0314(5)
H90A H 0.9654 1.1375 0.0794
C62A C 0.8569(5) 1.2182(5) 0.0178(3)
H91A H 0.8013 1.2387 0.0579
C63A C 0.5570(6) 1.4148(4) 0.1224(5)
H92A H 0.5177 1.3724 0.1389
C64A C 0.5699(8) 1.4635(6) 0.1710(4)
H93A H 0.5412 1.4545 0.2207
C65A C 0.6242(7) 1.5250(5) 0.1478(5)
H94A H 0.6348 1.5591 0.1814
C66A C 0.6630(5) 1.5379(4) 0.0778(5)
H95A H 0.7007 1.5815 0.0607
C67A C 0.6474(5) 1.4879(6) 0.0320(4)
H96A H 0.6737 1.4985 -0.0180
C68A C 0.1314(4) 1.3764(4) -0.1376(3)
H97A H 0.1873 1.3674 -0.1788
C69A C 0.0284(5) 1.4347(4) -0.1461(4)
H98A H 0.0145 1.4635 -0.1924
C70A C -0.0527(4) 1.4499(4) -0.0867(4)
H99A H -0.1230 1.4913 -0.0908
C71A C -0.0308(4) 1.4045(4) -0.0210(4)
H100A H -0.0858 1.4124 0.0208
C72A C 0.0741(4) 1.3466(4) -0.0177(3)
H101A H 0.0891 1.3151 0.0277
N5 N 0.5645(9) 0.5776(8) 0.3711(5)
C73 C 0.6161(8) 0.4315(6) 0.4374(5)
H102 H 0.6129 0.3700 0.4473
C74 C 0.5641(8) 0.4881(7) 0.3865(5)
H103 H 0.5264 0.4655 0.3607
C75 C 0.6719(8) 0.4586(8) 0.4743(5)
H104 H 0.7089 0.4182 0.5101
C76 C 0.6204(10) 0.6074(8) 0.4082(8)
H105 H 0.6219 0.6695 0.3990
C77 C 0.6729(9) 0.5500(10) 0.4574(7)
H106 H 0.7128 0.5718 0.4820
N6? N 0.0959(11) 0.4366(10) 0.5169(8)
H1? H 0.1591 0.3984 0.5251
C19? C 0.7755(12) 0.8620(12) 0.4180(8)
H18? H 0.7313 0.8217 0.4221
H19? H 0.7284 0.9267 0.4215
H20? H 0.8174 0.8432 0.4571
C21? C 0.9317(11) 0.9078(10) 0.3330(7)
H24? H 0.9746 0.8867 0.3716
H25? H 0.8898 0.9739 0.3358
H26? H 0.9801 0.8990 0.2860
C23? C 0.9342(10) 0.7490(9) 0.3342(7)
H30? H 0.8909 0.7082 0.3370
H31? H 0.9758 0.7294 0.3735
H32? H 0.9839 0.7451 0.2877
C32? C 0.2868(10) 1.2431(10) 0.3925(7)
H38? H 0.2480 1.3018 0.3677
H39? H 0.2744 1.2500 0.4443
H40? H 0.2603 1.1938 0.3853
C34? C 0.4746(11) 1.1280(9) 0.3985(7)
H44? H 0.4582 1.1349 0.4505
H45? H 0.5525 1.1138 0.3812
H46? H 0.4518 1.0772 0.3895
C36? C 0.4646(13) 1.2977(11) 0.3699(8)
H50? H 0.4275 1.3563 0.3443
H51? H 0.5422 1.2790 0.3501
H52? H 0.4530 1.3060 0.4214
C45? C 1.0764(19) 0.7611(19) -0.3531(12)
H58? H 1.0227 0.7342 -0.3592
H59? H 1.1437 0.7362 -0.3870
H60? H 1.0489 0.8289 -0.3626
C46? C 1.1144(15) 0.7881(13) -0.3397(10)
H61? H 1.1849 0.7568 -0.3682
H62? H 1.1116 0.8502 -0.3313
H63? H 1.0571 0.7937 -0.3661
C48? C 1.1826(17) 0.7760(16) -0.2699(13)
H67? H 1.1551 0.8435 -0.2812
H68? H 1.2472 0.7492 -0.3055
H69? H 1.2013 0.7627 -0.2216
C49? C 1.1940(13) 0.7420(12) -0.2283(9)
H70? H 1.1889 0.7071 -0.1808
H71? H 1.1815 0.8073 -0.2223
H72? H 1.2662 0.7156 -0.2567
C51? C 1.1444(12) 0.6288(10) -0.2556(8)
H76? H 1.0894 0.6009 -0.2573
H77? H 1.1637 0.6146 -0.2075
H78? H 1.2088 0.6034 -0.2918
C52? C 1.1181(13) 0.6309(11) -0.2826(9)
H79? H 1.1094 0.5959 -0.2353
H80? H 1.1915 0.6035 -0.3092
H81? H 1.0655 0.6281 -0.3099
C78? C 0.0330(11) 0.4155(8) 0.4815(8)
H107? H 0.0508 0.3534 0.4702
C79? C -0.0529(11) 0.4793(12) 0.4620(7)
H108? H -0.0870 0.4630 0.4297
loop_
_geom_bond_atom_site_label_1
_geom_bond_atom_site_label_2
_geom_bond_site_symmetry_1
_geom_bond_site_symmetry_2
K1 O1 1_555 1_555
K2 O2 1_555 1_555
K3 O1 1_555 1_555
K4 O1 1_555 1_555
S1 C13 1_555 1_555
S2 C3 1_555 1_555
S3 C2 1_555 1_555
S4 C25 1_555 1_555
O1 C1 1_555 1_555
O2 K1 1_555 1_555
O3 K1 1_555 1_555
O4 K1 1_555 1_555
N1 K4 1_555 1_555
N2 K4 1_555 1_555
N3 K4 1_555 1_555
N4 K1 1_555 1_555
N5 C74 1_555 1_555
C1 C2 1_555 1_555
C2 C4 1_555 1_555
C3 C1 1_555 1_555
C4 H2 1_555 1_555
C5 C3 1_555 1_555
H3 C5 1_555 1_555
C6 C4 1_555 1_555
C7 C6 1_555 1_555
C8 C7 1_555 1_555
H4 C8 1_555 1_555
H5 C8 1_555 1_555
H6 C8 1_555 1_555
C9 C7 1_555 1_555
H7 C9 1_555 1_555
H8 C9 1_555 1_555
H9 C9 1_555 1_555
C10 C7 1_555 1_555
H10 C10 1_555 1_555
H11 C10 1_555 1_555
H12 C10 1_555 1_555
C11 O2 1_555 1_555
C12 S2 1_555 1_555
C13 C11 1_555 1_555
C14 C12 1_555 1_555
H13 C14 1_555 1_555
C15 C13 1_555 1_555
H14 C15 1_555 1_555
C16 C14 1_555 1_555
C17 C16 1_555 1_555
C18 C17 1_555 1_555
H15 C18 1_555 1_555
H16 C18 1_555 1_555
H17 C18 1_555 1_555
C20 C17 1_555 1_555
H21 C20 1_555 1_555
H22 C20 1_555 1_555
H23 C20 1_555 1_555
C22 C17 1_555 1_555
H27 C22 1_555 1_555
H28 C22 1_555 1_555
H29 C22 1_555 1_555
C24 O3 1_555 1_555
C25 C24 1_555 1_555
C26 S1 1_555 1_555
C27 C26 1_555 1_555
H33 C27 1_555 1_555
C28 C25 1_555 1_555
H34 C28 1_555 1_555
C29 C27 1_555 1_555
C30 C29 1_555 1_555
C31 C30 1_555 1_555
H35 C31 1_555 1_555
H36 C31 1_555 1_555
H37 C31 1_555 1_555
C33 C30 1_555 1_555
H41 C33 1_555 1_555
H42 C33 1_555 1_555
H43 C33 1_555 1_555
C35 C30 1_555 1_555
H47 C35 1_555 1_555
H48 C35 1_555 1_555
H49 C35 1_555 1_555
C37 S3 1_555 1_555
C38 O4 1_555 1_555
C39 S4 1_555 1_555
C40 C39 1_555 1_555
H53 C40 1_555 1_555
C41 C37 1_555 1_555
H54 C41 1_555 1_555
C42 C40 1_555 1_555
C43 C42 1_555 1_555
C44 C43 1_555 1_555
H55 C44 1_555 1_555
H56 C44 1_555 1_555
H57 C44 1_555 1_555
C47 C43 1_555 1_555
H64 C47 1_555 1_555
H65 C47 1_555 1_555
H66 C47 1_555 1_555
C50 C43 1_555 1_555
H73 C50 1_555 1_555
H74 C50 1_555 1_555
H75 C50 1_555 1_555
C53 N1 1_555 1_555
H82 C53 1_555 1_555
C54 C53 1_555 1_555
H83 C54 1_555 1_555
C55 C54 1_555 1_555
H84 C55 1_555 1_555
C56 C55 1_555 1_555
H85 C56 1_555 1_555
C57 N1 1_555 1_555
H86 C57 1_555 1_555
C58 N2 1_555 1_555
H87 C58 1_555 1_555
C59 C58 1_555 1_555
H88 C59 1_555 1_555
C60 C59 1_555 1_555
H89 C60 1_555 1_555
C61 C60 1_555 1_555
H90 C61 1_555 1_555
C62 N2 1_555 1_555
H91 C62 1_555 1_555
C63 N3 1_555 1_555
H92 C63 1_555 1_555
C64 C63 1_555 1_555
H93 C64 1_555 1_555
C65 C64 1_555 1_555
H94 C65 1_555 1_555
C66 C65 1_555 1_555
H95 C66 1_555 1_555
C67 N3 1_555 1_555
H96 C67 1_555 1_555
C68 N4 1_555 1_555
H97 C68 1_555 1_555
C69 C68 1_555 1_555
H98 C69 1_555 1_555
C70 C69 1_555 1_555
H99 C70 1_555 1_555
C71 C70 1_555 1_555
H100 C71 1_555 1_555
C72 N4 1_555 1_555
H101 C72 1_555 1_555
C73 H102 1_555 1_555
C74 C73 1_555 1_555
H103 C74 1_555 1_555
C75 C73 1_555 1_555
H104 C75 1_555 1_555
C76 N5 1_555 1_555
H105 C76 1_555 1_555
C77 C75 1_555 1_555
H106 C77 1_555 1_555
K1A O1A 1_555 1_555
K2A O4 1_555 1_555
K3A O2 1_555 1_555
K4A O1A 1_555 1_555
S1A C13A 1_555 1_555
S2A C3A 1_555 1_555
S3A C2A 1_555 1_555
S4A C25A 1_555 1_555
O1A K3A 1_555 1_555
O2A K3 1_555 1_555
O3A K1A 1_555 1_555
O4A K2 1_555 1_555
N1A K4A 1_555 1_555
N2A K4A 1_555 1_555
N3A K4A 1_555 1_555
N4A K1A 1_555 1_555
C1A O1A 1_555 1_555
C2A C1A 1_555 1_555
C3A C1A 1_555 1_555
C4A C2A 1_555 1_555
H2A C4A 1_555 1_555
C5A C3A 1_555 1_555
H3A C5A 1_555 1_555
C6A C4A 1_555 1_555
C7A C6A 1_555 1_555
C8A C7A 1_555 1_555
H4A C8A 1_555 1_555
H5A C8A 1_555 1_555
H6A C8A 1_555 1_555
C9A C7A 1_555 1_555
H7A C9A 1_555 1_555
H8A C9A 1_555 1_555
H9A C9A 1_555 1_555
C10A C7A 1_555 1_555
H10A C10A 1_555 1_555
H11A C10A 1_555 1_555
H12A C10A 1_555 1_555
C11A O2A 1_555 1_555
C12A S2A 1_555 1_555
C13A C11A 1_555 1_555
C14A C12A 1_555 1_555
H13A C14A 1_555 1_555
C15A C13A 1_555 1_555
H14A C15A 1_555 1_555
C16A C14A 1_555 1_555
C17A C16A 1_555 1_555
C18A C17A 1_555 1_555
H15A C18A 1_555 1_555
H16A C18A 1_555 1_555
H17A C18A 1_555 1_555
C20A C17A 1_555 1_555
H21A C20A 1_555 1_555
H22A C20A 1_555 1_555
H23A C20A 1_555 1_555
C22A C17A 1_555 1_555
H27A C22A 1_555 1_555
H28A C22A 1_555 1_555
H29A C22A 1_555 1_555
C24A C26 1_555 1_555
C25A C24A 1_555 1_555
C26A C24 1_555 1_555
C27A C26A 1_555 1_555
H33A C27A 1_555 1_555
C28A C29 1_555 1_555
H34A C28A 1_555 1_555
C29A C28 1_555 1_555
C30A C29A 1_555 1_555
C31A C30A 1_555 1_555
H35A C31A 1_555 1_555
H36A C31A 1_555 1_555
H37A C31A 1_555 1_555
C33A C30A 1_555 1_555
H41A C33A 1_555 1_555
H42A C33A 1_555 1_555
H43A C33A 1_555 1_555
C35A C30A 1_555 1_555
H47A C35A 1_555 1_555
H48A C35A 1_555 1_555
H49A C35A 1_555 1_555
C37A C38 1_555 1_555
C38A C37 1_555 1_555
C39A S4A 1_555 1_555
C40A C39A 1_555 1_555
H53A C40A 1_555 1_555
C41A C42 1_555 1_555
H54A C41A 1_555 1_555
C42A C41 1_555 1_555
C43A C42A 1_555 1_555
C44A C43A 1_555 1_555
H55A C44A 1_555 1_555
H56A C44A 1_555 1_555
H57A C44A 1_555 1_555
C47A C43A 1_555 1_555
H64A C47A 1_555 1_555
H65A C47A 1_555 1_555
H66A C47A 1_555 1_555
C50A C43A 1_555 1_555
H73A C50A 1_555 1_555
H74A C50A 1_555 1_555
H75A C50A 1_555 1_555
C53A N1A 1_555 1_555
H82A C53A 1_555 1_555
C54A C53A 1_555 1_555
H83A C54A 1_555 1_555
C55A C54A 1_555 1_555
H84A C55A 1_555 1_555
C56A C55A 1_555 1_555
H85A C56A 1_555 1_555
C57A N1A 1_555 1_555
H86A C57A 1_555 1_555
C58A N2A 1_555 1_555
H87A C58A 1_555 1_555
C59A C58A 1_555 1_555
H88A C59A 1_555 1_555
C60A C59A 1_555 1_555
H89A C60A 1_555 1_555
C61A C60A 1_555 1_555
H90A C61A 1_555 1_555
C62A N2A 1_555 1_555
H91A C62A 1_555 1_555
C63A N3A 1_555 1_555
H92A C63A 1_555 1_555
C64A C63A 1_555 1_555
H93A C64A 1_555 1_555
C65A C64A 1_555 1_555
H94A C65A 1_555 1_555
C66A C65A 1_555 1_555
H95A C66A 1_555 1_555
C67A N3A 1_555 1_555
H96A C67A 1_555 1_555
C68A N4A 1_555 1_555
H97A C68A 1_555 1_555
C69A C68A 1_555 1_555
H98A C69A 1_555 1_555
C70A C69A 1_555 1_555
H99A C70A 1_555 1_555
C71A C70A 1_555 1_555
H100A C71A 1_555 1_555
C72A N4A 1_555 1_555
H101A C72A 1_555 1_555
K3 O3 1_555 1_555
K3 O4A 1_555 1_555
K4 O3 1_555 1_555
O4 K3A 1_555 1_555
C5 C6 1_555 1_555
C11 C12 1_555 1_555
C15 C16 1_555 1_555
C38 C39 1_555 1_555
C56 C57 1_555 1_555
C61 C62 1_555 1_555
C66 C67 1_555 1_555
C71 C72 1_555 1_555
C76 C77 1_555 1_555
K1A O2A 1_555 1_555
K1A O4A 1_555 1_555
K2A O2A 1_555 1_555
K3A O3A 1_555 1_555
K4A O3A 1_555 1_555
S1A C26A 1_555 1_555
S3A C37A 1_555 1_555
O3A C24A 1_555 1_555
O4A C38A 1_555 1_555
C5A C6A 1_555 1_555
C11A C12A 1_555 1_555
C15A C16A 1_555 1_555
C25A C28A 1_555 1_555
C27A C29A 1_555 1_555
C37A C41A 1_555 1_555
C38A C39A 1_555 1_555
C40A C42A 1_555 1_555
C56A C57A 1_555 1_555
C61A C62A 1_555 1_555
C66A C67A 1_555 1_555
C71A C72A 1_555 1_555

#END
