
#######################################################################
#
#                 Cambridge Crystallographic Data Centre
#                                CCDC 
#
#######################################################################
#
# If this CIF has been generated from an entry in the Cambridge 
# Structural Database, then it will include bibliographic, chemical, 
# crystal, experimental, refinement or atomic coordinate data resulting 
# from the CCDC's data processing and validation procedures.
#
#######################################################################

data_MEPWUA01
_chemical_formula_moiety         'C22 H20 N2 O4'
_chemical_name_systematic        
(E,E)-6,6'-Dimethoxy-2,2'-(o-phenylenebis(nitrilomethylidyne))diphenol
_symmetry_cell_setting           monoclinic
_symmetry_space_group_name_H-M   'P 21/c'
_symmetry_Int_Tables_number      14
_space_group_name_Hall           '-P 2ybc'
loop_
_symmetry_equiv_pos_site_id
_symmetry_equiv_pos_as_xyz
1 x,y,z
2 -x,1/2+y,1/2-z
3 -x,-y,-z
4 x,1/2-y,1/2+z
_cell_length_a                   6.638(2)
_cell_length_b                   16.838(3)
_cell_length_c                   17.137(3)
_cell_angle_alpha                90
_cell_angle_beta                 97.861(3)
_cell_angle_gamma                90
_cell_volume                     1897.41
_exptl_crystal_colour            red
_exptl_crystal_description       block
_cell_formula_units_Z            4
_exptl_crystal_recrystallization_method benzene
loop_
_atom_site_label
_atom_site_type_symbol
_atom_site_fract_x
_atom_site_fract_y
_atom_site_fract_z
N1 N 0.4698(5) 0.23511(18) 0.4737(2)
N2 N 0.6943(5) 0.2879(2) 0.60674(18)
O1 O 0.2192(4) 0.34248(16) 0.50485(15)
H1 H 0.3243 0.3162 0.5110
O2 O -0.1181(5) 0.41871(18) 0.46705(16)
O3 O 0.4395(5) 0.34123(17) 0.69958(17)
H2 H 0.4850 0.3097 0.6700
O4 O 0.3416(5) 0.45259(19) 0.79339(19)
C1 C 0.3575(7) 0.2217(2) 0.4083(2)
H3 H 0.4000 0.1854 0.3731
C2 C 0.1668(6) 0.2617(2) 0.3885(2)
C3 C 0.1054(6) 0.3210(2) 0.4371(2)
C4 C -0.0792(6) 0.3598(2) 0.4167(2)
C5 C -0.2052(7) 0.3379(3) 0.3496(2)
H4 H -0.3306 0.3627 0.3366
C6 C -0.1448(8) 0.2787(3) 0.3011(3)
H5 H -0.2296 0.2646 0.2555
C7 C 0.0371(8) 0.2413(3) 0.3198(2)
H6 H 0.0757 0.2018 0.2869
C8 C -0.3024(7) 0.4619(3) 0.4494(3)
H7 H -0.3098 0.5017 0.4890
H8 H -0.4156 0.4262 0.4485
H9 H -0.3065 0.4869 0.3989
C9 C 0.8024(7) 0.3500(3) 0.6252(2)
H10 H 0.9279 0.3546 0.6072
C10 C 0.7357(6) 0.4132(2) 0.6729(2)
C11 C 0.5622(6) 0.4056(2) 0.7099(2)
C12 C 0.5108(7) 0.4665(3) 0.7586(2)
C13 C 0.6252(8) 0.5343(3) 0.7676(3)
H11 H 0.5888 0.5748 0.7998
C14 C 0.7933(9) 0.5432(3) 0.7297(3)
H12 H 0.8679 0.5901 0.7350
C15 C 0.8504(8) 0.4827(3) 0.6840(3)
H13 H 0.9673 0.4880 0.6601
C16 C 0.2831(10) 0.5119(3) 0.8450(3)
H14 H 0.1625 0.4951 0.8656
H15 H 0.2565 0.5608 0.8167
H16 H 0.3909 0.5198 0.8877
C17 C 0.6584(7) 0.1979(2) 0.4961(2)
C18 C 0.7774(7) 0.2271(2) 0.5633(2)
C19 C 0.9654(7) 0.1943(3) 0.5877(3)
H17 H 1.0447 0.2139 0.6325
C20 C 1.0365(9) 0.1333(3) 0.5466(3)
H18 H 1.1637 0.1115 0.5635
C21 C 0.9214(9) 0.1042(3) 0.4806(3)
H19 H 0.9707 0.0628 0.4528
C22 C 0.7348(8) 0.1357(3) 0.4553(3)
H20 H 0.6577 0.1154 0.4103
loop_
_geom_bond_atom_site_label_1
_geom_bond_atom_site_label_2
_geom_bond_site_symmetry_1
_geom_bond_site_symmetry_2
N1 C1 1_555 1_555
N2 C9 1_555 1_555
O1 H1 1_555 1_555
O2 C4 1_555 1_555
O3 H2 1_555 1_555
O4 C12 1_555 1_555
C1 H3 1_555 1_555
C2 C1 1_555 1_555
C3 O1 1_555 1_555
C4 C3 1_555 1_555
C5 C4 1_555 1_555
H4 C5 1_555 1_555
C6 C5 1_555 1_555
H5 C6 1_555 1_555
C7 C2 1_555 1_555
H6 C7 1_555 1_555
C8 O2 1_555 1_555
H7 C8 1_555 1_555
H8 C8 1_555 1_555
H9 C8 1_555 1_555
C9 H10 1_555 1_555
C10 C9 1_555 1_555
C11 O3 1_555 1_555
C12 C11 1_555 1_555
C13 C12 1_555 1_555
H11 C13 1_555 1_555
C14 C13 1_555 1_555
H12 C14 1_555 1_555
C15 C10 1_555 1_555
H13 C15 1_555 1_555
C16 O4 1_555 1_555
H14 C16 1_555 1_555
H15 C16 1_555 1_555
H16 C16 1_555 1_555
C17 N1 1_555 1_555
C18 N2 1_555 1_555
C19 C18 1_555 1_555
H17 C19 1_555 1_555
C20 C19 1_555 1_555
H18 C20 1_555 1_555
C21 C20 1_555 1_555
H19 C21 1_555 1_555
C22 C17 1_555 1_555
H20 C22 1_555 1_555
C2 C3 1_555 1_555
C6 C7 1_555 1_555
C10 C11 1_555 1_555
C14 C15 1_555 1_555
C17 C18 1_555 1_555
C21 C22 1_555 1_555

#END
