
#######################################################################
#
#                 Cambridge Crystallographic Data Centre
#                                CCDC 
#
#######################################################################
#
# If this CIF has been generated from an entry in the Cambridge 
# Structural Database, then it will include bibliographic, chemical, 
# crystal, experimental, refinement or atomic coordinate data resulting 
# from the CCDC's data processing and validation procedures.
#
#######################################################################

data_MEQGAQ
_chemical_name_common            
'tetrabenzoylcalix[5]arene dichloromethane solvate'
_chemical_formula_moiety         'C63 H46 O9,C1 H2 Cl2'
_chemical_name_systematic        
'31-hydroxy-32,33,34,35-tetrakis(benzoyloxy)calix[5]arene dichloromethane solvate'
_symmetry_cell_setting           monoclinic
_symmetry_space_group_name_H-M   'P 21/c'
_symmetry_Int_Tables_number      14
_space_group_name_Hall           '-P 2ybc'
loop_
_symmetry_equiv_pos_site_id
_symmetry_equiv_pos_as_xyz
1 x,y,z
2 -x,1/2+y,1/2-z
3 -x,-y,-z
4 x,1/2-y,1/2+z
_cell_length_a                   21.114(8)
_cell_length_b                   12.295(5)
_cell_length_c                   21.316(8)
_cell_angle_alpha                90
_cell_angle_beta                 103.781(8)
_cell_angle_gamma                90
_cell_volume                     5374.27
_chemical_melting_point          'above 196 deg.C(dec.)'
_cell_formula_units_Z            4
_exptl_crystal_recrystallization_method MeOH/chloroform
loop_
_atom_site_label
_atom_site_type_symbol
_atom_site_fract_x
_atom_site_fract_y
_atom_site_fract_z
Cl1 Cl 0.4134(3) 0.8008(5) 0.4803(3)
Cl2 Cl 0.5082(3) 0.8754(5) 0.4172(2)
C64 C 0.4840(9) 0.7850(12) 0.4647(7)
H47 H 0.4846 0.7139 0.4452
H48 H 0.5163 0.7839 0.5056
O1 O 0.3153(3) 0.4511(5) 0.2746(3)
O2 O 0.1970(3) 0.3973(5) 0.0954(3)
O3 O 0.1959(3) 0.4769(5) 0.1900(3)
O4 O 0.1751(4) 0.0696(6) 0.2265(3)
O5 O 0.1103(5) -0.0752(7) 0.1995(5)
O6 O 0.1811(4) 0.2346(6) 0.3785(3)
O7 O 0.1117(4) 0.2479(6) 0.4420(4)
O8 O 0.3238(3) 0.4052(5) 0.4590(3)
O9 O 0.4154(4) 0.4335(6) 0.5353(3)
C1 C 0.3727(5) 0.4908(7) 0.2651(4)
C2 C 0.4199(6) 0.5122(8) 0.3191(4)
C3 C 0.4763(5) 0.5602(8) 0.3122(5)
C4 C 0.4836(5) 0.5880(9) 0.2507(5)
C5 C 0.4374(6) 0.5596(8) 0.1978(5)
C6 C 0.3809(5) 0.5118(8) 0.2030(4)
C7 C 0.3306(5) 0.4766(8) 0.1440(4)
C8 C 0.3075(6) 0.3606(9) 0.1429(4)
C9 C 0.3552(6) 0.2796(10) 0.1633(4)
C10 C 0.3398(7) 0.1701(10) 0.1631(5)
C11 C 0.2756(7) 0.1393(9) 0.1452(5)
C12 C 0.2259(6) 0.2150(9) 0.1264(4)
C13 C 0.2463(6) 0.3213(9) 0.1246(4)
C14 C 0.1559(5) 0.1794(8) 0.1074(5)
C15 C 0.1167(6) 0.2031(8) 0.1554(5)
C16 C 0.0705(5) 0.2881(9) 0.1475(6)
C17 C 0.0332(6) 0.3100(9) 0.1905(7)
C18 C 0.0405(6) 0.2490(11) 0.2434(6)
C19 C 0.0856(6) 0.1596(11) 0.2565(5)
C20 C 0.1245(6) 0.1447(9) 0.2124(5)
C21 C 0.0843(5) 0.0835(9) 0.3115(5)
C22 C 0.1470(7) 0.0532(13) 0.3588(5)
C23 C 0.1616(8) -0.0594(11) 0.3724(6)
C24 C 0.2125(9) -0.0911(10) 0.4168(7)
C25 C 0.2575(6) -0.0169(12) 0.4502(5)
C26 C 0.2463(7) 0.0981(10) 0.4398(6)
C27 C 0.1918(7) 0.1243(9) 0.3914(6)
C28 C 0.2944(5) 0.1813(8) 0.4722(4)
C29 C 0.3416(5) 0.2210(10) 0.4344(4)
C30 C 0.3725(6) 0.1445(8) 0.4035(5)
C31 C 0.4161(6) 0.1775(10) 0.3700(5)
C32 C 0.4302(5) 0.2851(11) 0.3641(4)
C33 C 0.3999(5) 0.3625(9) 0.3929(4)
C34 C 0.3585(5) 0.3296(9) 0.4289(4)
C35 C 0.4111(5) 0.4842(8) 0.3850(4)
C36 C 0.1746(5) 0.4703(9) 0.1323(5)
C37 C 0.1260(5) 0.5430(8) 0.0937(5)
C38 C 0.0940(6) 0.6178(9) 0.1238(5)
C39 C 0.0501(7) 0.6920(10) 0.0894(8)
C40 C 0.0361(7) 0.6897(12) 0.0250(8)
C41 C 0.0632(7) 0.6140(13) -0.0061(6)
C42 C 0.1088(6) 0.5413(10) 0.0275(5)
C43 C 0.1628(9) -0.0416(12) 0.2214(6)
C44 C 0.2264(8) -0.0993(12) 0.2460(6)
C45 C 0.2225(9) -0.2130(12) 0.2418(7)
C46 C 0.2805(10) -0.2718(13) 0.2661(9)
C47 C 0.3384(9) -0.2220(14) 0.2870(6)
C48 C 0.3394(8) -0.1082(13) 0.2907(6)
C49 C 0.2842(8) -0.0501(10) 0.2715(6)
C50 C 0.1379(7) 0.2879(11) 0.4055(6)
C51 C 0.1282(7) 0.4035(10) 0.3817(6)
C52 C 0.1668(7) 0.4478(12) 0.3416(6)
C53 C 0.1551(9) 0.5554(13) 0.3270(6)
C54 C 0.1085(11) 0.6142(13) 0.3443(8)
C55 C 0.0697(9) 0.5691(15) 0.3809(10)
C56 C 0.0811(8) 0.4617(14) 0.4019(7)
C57 C 0.3612(6) 0.4551(9) 0.5120(5)
C58 C 0.3218(8) 0.5453(9) 0.5344(5)
C59 C 0.2583(8) 0.5645(11) 0.5069(6)
C60 C 0.2246(8) 0.6455(13) 0.5311(7)
C61 C 0.2572(11) 0.7068(13) 0.5808(9)
C62 C 0.3205(11) 0.6892(13) 0.6087(8)
C63 C 0.3542(7) 0.6073(11) 0.5856(6)
H1 H 0.3229 0.4016 0.3011
H2 H 0.5098 0.5744 0.3483
H3 H 0.5204 0.6260 0.2462
H4 H 0.4444 0.5730 0.1571
H5 H 0.2929 0.5239 0.1394
H6 H 0.3483 0.4881 0.1065
H7 H 0.3986 0.3005 0.1775
H8 H 0.3725 0.1182 0.1750
H9 H 0.2651 0.0659 0.1456
H10 H 0.1351 0.2146 0.0670
H11 H 0.1547 0.1016 0.0996
H12 H 0.0651 0.3317 0.1109
H13 H 0.0032 0.3667 0.1829
H14 H 0.0156 0.2648 0.2729
H15 H 0.0638 0.0165 0.2928
H16 H 0.0557 0.1153 0.3360
H17 H 0.1340 -0.1117 0.3490
H18 H 0.2185 -0.1648 0.4261
H19 H 0.2949 -0.0412 0.4793
H20 H 0.3192 0.1512 0.5127
H21 H 0.2705 0.2435 0.4825
H22 H 0.3632 0.0709 0.4060
H23 H 0.4371 0.1256 0.3504
H24 H 0.4602 0.3056 0.3407
H25 H 0.3742 0.5244 0.3927
H26 H 0.4496 0.5067 0.4171
H27 H 0.1024 0.6179 0.1687
H28 H 0.0305 0.7430 0.1109
H29 H 0.0076 0.7407 0.0015
H30 H 0.0509 0.6105 -0.0510
H31 H 0.1278 0.4910 0.0050
H32 H 0.1833 -0.2482 0.2238
H33 H 0.2787 -0.3472 0.2678
H34 H 0.3768 -0.2621 0.2986
H35 H 0.3788 -0.0724 0.3066
H36 H 0.2857 0.0251 0.2758
H37 H 0.1973 0.4071 0.3266
H38 H 0.1812 0.5900 0.3036
H39 H 0.1023 0.6864 0.3313
H40 H 0.0365 0.6094 0.3915
H41 H 0.0575 0.4304 0.4289
H42 H 0.2370 0.5234 0.4715
H43 H 0.1805 0.6571 0.5132
H44 H 0.2353 0.7627 0.5963
H45 H 0.3417 0.7319 0.6434
H46 H 0.3980 0.5947 0.6046
loop_
_geom_bond_atom_site_label_1
_geom_bond_atom_site_label_2
_geom_bond_site_symmetry_1
_geom_bond_site_symmetry_2
Cl1 C64 1_555 1_555
Cl2 C64 1_555 1_555
O1 C1 1_555 1_555
O2 C13 1_555 1_555
O3 C36 1_555 1_555
O4 C20 1_555 1_555
O5 C43 1_555 1_555
O6 C27 1_555 1_555
O7 C50 1_555 1_555
O8 C34 1_555 1_555
O9 C57 1_555 1_555
C1 C2 1_555 1_555
C2 C3 1_555 1_555
C3 C4 1_555 1_555
C4 C5 1_555 1_555
C5 C6 1_555 1_555
C6 C1 1_555 1_555
C7 C6 1_555 1_555
C8 C7 1_555 1_555
C9 C8 1_555 1_555
C10 C9 1_555 1_555
C11 C10 1_555 1_555
C12 C11 1_555 1_555
C13 C8 1_555 1_555
C14 C12 1_555 1_555
C15 C14 1_555 1_555
C16 C15 1_555 1_555
C17 C16 1_555 1_555
C18 C17 1_555 1_555
C19 C18 1_555 1_555
C20 C15 1_555 1_555
C21 C19 1_555 1_555
C22 C21 1_555 1_555
C23 C22 1_555 1_555
C24 C23 1_555 1_555
C25 C24 1_555 1_555
C26 C25 1_555 1_555
C27 C22 1_555 1_555
C28 C26 1_555 1_555
C29 C28 1_555 1_555
C30 C29 1_555 1_555
C31 C30 1_555 1_555
C32 C31 1_555 1_555
C33 C32 1_555 1_555
C34 C29 1_555 1_555
C35 C2 1_555 1_555
C36 O2 1_555 1_555
C37 C36 1_555 1_555
C38 C37 1_555 1_555
C39 C38 1_555 1_555
C40 C39 1_555 1_555
C41 C40 1_555 1_555
C42 C37 1_555 1_555
C43 O4 1_555 1_555
C44 C43 1_555 1_555
C45 C44 1_555 1_555
C46 C45 1_555 1_555
C47 C46 1_555 1_555
C48 C47 1_555 1_555
C49 C44 1_555 1_555
C50 O6 1_555 1_555
C51 C50 1_555 1_555
C52 C51 1_555 1_555
C53 C52 1_555 1_555
C54 C53 1_555 1_555
C55 C54 1_555 1_555
C56 C51 1_555 1_555
C57 O8 1_555 1_555
C58 C57 1_555 1_555
C59 C58 1_555 1_555
C60 C59 1_555 1_555
C61 C60 1_555 1_555
C62 C61 1_555 1_555
C63 C58 1_555 1_555
C64 H47 1_555 1_555
H1 O1 1_555 1_555
H2 C3 1_555 1_555
H3 C4 1_555 1_555
H4 C5 1_555 1_555
H5 C7 1_555 1_555
H6 C7 1_555 1_555
H7 C9 1_555 1_555
H8 C10 1_555 1_555
H9 C11 1_555 1_555
H10 C14 1_555 1_555
H11 C14 1_555 1_555
H12 C16 1_555 1_555
H13 C17 1_555 1_555
H14 C18 1_555 1_555
H15 C21 1_555 1_555
H16 C21 1_555 1_555
H17 C23 1_555 1_555
H18 C24 1_555 1_555
H19 C25 1_555 1_555
H20 C28 1_555 1_555
H21 C28 1_555 1_555
H22 C30 1_555 1_555
H23 C31 1_555 1_555
H24 C32 1_555 1_555
H25 C35 1_555 1_555
H26 C35 1_555 1_555
H27 C38 1_555 1_555
H28 C39 1_555 1_555
H29 C40 1_555 1_555
H30 C41 1_555 1_555
H31 C42 1_555 1_555
H32 C45 1_555 1_555
H33 C46 1_555 1_555
H34 C47 1_555 1_555
H35 C48 1_555 1_555
H36 C49 1_555 1_555
H37 C52 1_555 1_555
H38 C53 1_555 1_555
H39 C54 1_555 1_555
H40 C55 1_555 1_555
H41 C56 1_555 1_555
H42 C59 1_555 1_555
H43 C60 1_555 1_555
H44 C61 1_555 1_555
H45 C62 1_555 1_555
H46 C63 1_555 1_555
H48 C64 1_555 1_555
C12 C13 1_555 1_555
C19 C20 1_555 1_555
C26 C27 1_555 1_555
C33 C34 1_555 1_555
C33 C35 1_555 1_555
C41 C42 1_555 1_555
C48 C49 1_555 1_555
C55 C56 1_555 1_555
C62 C63 1_555 1_555

#END
