
#######################################################################
#
#                 Cambridge Crystallographic Data Centre
#                                CCDC 
#
#######################################################################
#
# If this CIF has been generated from an entry in the Cambridge 
# Structural Database, then it will include bibliographic, chemical, 
# crystal, experimental, refinement or atomic coordinate data resulting 
# from the CCDC's data processing and validation procedures.
#
#######################################################################

data_MEQLOM
_chemical_formula_moiety         
'C11 H14 N4 O4,C12 H14 N2 2+,1.5(H2 O1),2(Cl1 1-)'
_chemical_name_systematic        
'7-deaza-2-deoxyguanosine methyl viologen dichloride sesquihydrate'
_symmetry_cell_setting           monoclinic
_symmetry_space_group_name_H-M   'P 21'
_symmetry_Int_Tables_number      4
_space_group_name_Hall           'P 2yb'
loop_
_symmetry_equiv_pos_site_id
_symmetry_equiv_pos_as_xyz
1 x,y,z
2 -x,1/2+y,-z
_cell_length_a                   6.74980(10)
_cell_length_b                   22.7723(3)
_cell_length_c                   16.6038(2)
_cell_angle_alpha                90
_cell_angle_beta                 90.2810(10)
_cell_angle_gamma                90
_cell_volume                     2552.11
_exptl_crystal_colour            violet
_exptl_crystal_description       block
_cell_formula_units_Z            4
loop_
_atom_site_label
_atom_site_type_symbol
_atom_site_fract_x
_atom_site_fract_y
_atom_site_fract_z
Cl1 Cl -0.70362(8) -0.27555(2) -0.45592(3)
Cl2 Cl -0.74495(8) 0.17506(2) -0.73188(3)
Cl3 Cl -0.56955(8) -0.31012(2) -0.96954(3)
Cl4 Cl -0.98908(9) -0.38400(2) -0.68482(3)
O1 O -0.7527(2) -0.03538(7) -0.98278(9)
O2 O -0.5078(2) -0.02934(6) -0.83426(8)
O3 O -0.2463(2) 0.06894(7) -0.83962(10)
O4 O -0.6630(3) -0.09097(7) -0.45323(8)
N1 N -0.6900(3) -0.15814(8) -0.55421(11)
N2 N -0.7115(3) -0.03320(8) -0.71989(10)
C1 C -0.6986(3) 0.01842(10) -0.67409(13)
H1 H -0.6981 0.0572 -0.6950
N3 N -0.7024(3) -0.23227(8) -0.64942(13)
N4 N -0.7100(3) -0.13664(8) -0.69370(10)
C2 C -0.6811(3) -0.10046(9) -0.52619(12)
C3 C -0.6914(3) -0.05862(9) -0.59008(12)
C4 C -0.7015(3) -0.17480(9) -0.63357(12)
C5 C -0.5106(3) 0.01221(9) -0.90022(12)
H2 H -0.4220 -0.0018 -0.9443
C6 C -0.7047(3) -0.08002(9) -0.66843(12)
C7 C -0.7046(3) -0.03883(9) -0.80659(12)
H3 H -0.7457 -0.0796 -0.8215
C8 C -0.6868(3) 0.00377(9) -0.59462(13)
H4 H -0.6772 0.0302 -0.5505
C9 C -0.7242(3) 0.01329(9) -0.92967(12)
H5 H -0.7586 0.0514 -0.9561
C10 C -0.8370(3) 0.00443(10) -0.85145(13)
H6 H -0.8505 0.0417 -0.8214
H7 H -0.9702 -0.0123 -0.8615
C11 C -0.4419(3) 0.07168(9) -0.87064(13)
H8 H -0.4469 0.1001 -0.9157
H9 H -0.5324 0.0857 -0.8280
H10 H -0.692(4) -0.1844(14) -0.5245(19)
H11 H -0.709(5) -0.2566(14) -0.609(2)
H12 H -0.166(6) 0.0798(17) -0.877(2)
H13 H -0.712(4) -0.2431(12) -0.6968(18)
H14 H -0.859(5) -0.0343(16) -1.004(2)
O5 O -1.0045(2) -0.17469(6) -0.94797(8)
N5 N -1.0888(2) -0.03211(7) -1.08830(10)
O6 O -0.7521(2) -0.24099(7) -0.82941(10)
O7 O -1.1378(2) -0.07529(7) -1.32878(8)
C12 C -1.0696(3) 0.00583(9) -1.14780(12)
N6 N -1.0888(3) -0.00977(8) -1.22765(10)
O8 O -1.3504(3) -0.17212(8) -0.79015(9)
C13 C -1.1406(3) -0.10853(9) -1.19233(12)
N7 N -1.1497(3) -0.13500(7) -1.06303(10)
N8 N -1.0292(3) 0.06209(8) -1.13349(13)
C14 C -1.1249(3) -0.08808(9) -1.11332(12)
C15 C -1.1719(3) -0.17043(9) -1.18917(12)
H15 H -1.1859 -0.1963 -1.2338
C16 C -1.1237(3) -0.06673(9) -1.25604(12)
C17 C -1.1777(3) -0.18527(9) -1.10999(13)
H16 H -1.1977 -0.2238 -1.0897
C18 C -1.3477(3) -0.15529(10) -0.93863(13)
H17 H -1.4248 -0.1791 -0.9776
H18 H -1.4293 -0.1215 -0.9212
C19 C -1.2837(3) -0.19247(9) -0.86633(12)
H19 H -1.3272 -0.2340 -0.8745
C20 C -0.9612(3) -0.24643(10) -0.84249(13)
H20 H -1.0237 -0.2609 -0.7924
H21 H -0.9852 -0.2760 -0.8851
C21 C -1.0581(3) -0.18939(9) -0.86684(12)
H22 H -1.0130 -0.1574 -0.8297
C22 C -1.1533(3) -0.13435(9) -0.97585(12)
H23 H -1.1218 -0.0939 -0.9560
H24 H -1.032(3) 0.0736(10) -1.0894(16)
H25 H -1.018(4) 0.0838(12) -1.1666(17)
H26 H -1.072(4) 0.0192(12) -1.2615(16)
H27 H -0.688(5) -0.2554(16) -0.870(2)
H28 H -1.471(5) -0.1772(14) -0.7863(19)
O9 O -1.0756(3) 0.11241(8) -0.97855(10)
H29 H -0.970(5) 0.1382(13) -0.9622(18)
H30 H -1.160(5) 0.1366(13) -0.9897(18)
N9 N -0.1984(3) -0.27315(8) -0.50377(10)
N10 N -0.2008(3) 0.02338(8) -0.61948(11)
C23 C -0.1956(3) -0.15637(9) -0.54825(12)
C24 C -0.1892(3) -0.25863(10) -0.58177(13)
H31 H -0.1833 -0.2887 -0.6213
C25 C -0.1955(3) -0.09349(9) -0.57271(12)
C26 C -0.1884(3) -0.20095(10) -0.60540(12)
H32 H -0.1829 -0.1914 -0.6610
C27 C -0.2200(3) -0.01899(9) -0.67522(12)
H33 H -0.2351 -0.0086 -0.7303
C28 C -0.1970(4) -0.33564(10) -0.48028(14)
H34 H -0.2818 -0.3580 -0.5172
H35 H -0.2471 -0.3396 -0.4252
H36 H -0.0613 -0.3508 -0.4828
C29 C -0.2180(3) -0.07717(10) -0.65365(12)
H37 H -0.2321 -0.1066 -0.6938
C30 C -0.1747(3) -0.04829(10) -0.51641(13)
H38 H -0.1575 -0.0574 -0.4610
C31 C -0.2044(4) 0.08541(10) -0.64459(14)
H39 H -0.0721 0.0971 -0.6626
H40 H -0.2439 0.1100 -0.5990
H41 H -0.2994 0.0904 -0.6889
C32 C -0.1791(4) 0.00914(10) -0.54114(13)
H42 H -0.1666 0.0395 -0.5023
C33 C -0.2035(3) -0.17305(10) -0.46721(12)
H43 H -0.2069 -0.1439 -0.4263
C34 C -0.2064(3) -0.23118(10) -0.44671(13)
H44 H -0.2140 -0.2421 -0.3916
O10 O -0.7917(3) 0.17585(8) -0.91590(11)
H45 H -0.690(5) 0.1800(14) -0.9442(19)
H46 H -0.760(5) 0.1721(16) -0.861(2)
C35 C -0.6298(3) -0.10798(9) -1.20820(12)
N11 N -0.6992(2) -0.22738(7) -1.19337(10)
N12 N -0.5410(3) 0.07611(8) -1.23147(11)
C36 C -0.6645(3) -0.13393(9) -1.13270(12)
H47 H -0.6642 -0.1105 -1.0854
C37 C -0.6650(3) -0.20408(9) -1.26679(12)
H48 H -0.6646 -0.2289 -1.3128
C38 C -0.6309(3) -0.14505(9) -1.27577(12)
H49 H -0.6080 -0.1292 -1.3278
C39 C -0.5319(3) 0.05081(9) -1.15781(12)
H50 H -0.5081 0.0745 -1.1116
C40 C -0.7421(3) -0.29093(9) -1.18761(13)
H51 H -0.8728 -0.2990 -1.2110
H52 H -0.7407 -0.3029 -1.1309
H53 H -0.6411 -0.3130 -1.2171
C41 C -0.5754(3) 0.04291(9) -1.29748(13)
H54 H -0.5810 0.0612 -1.3489
C42 C -0.6023(3) -0.01644(9) -1.29171(12)
H55 H -0.6258 -0.0390 -1.3389
C43 C -0.5566(3) -0.00858(9) -1.14918(12)
H56 H -0.5474 -0.0259 -1.0972
C44 C -0.6988(3) -0.19316(9) -1.12771(12)
H57 H -0.7228 -0.2103 -1.0765
C45 C -0.5163(4) 0.14037(9) -1.23922(14)
H58 H -0.5402 0.1590 -1.1870
H59 H -0.6112 0.1555 -1.2790
H60 H -0.3812 0.1491 -1.2569
C46 C -0.5955(3) -0.04392(9) -1.21662(12)
O11 O -0.6266(3) -0.38410(9) -0.56448(11)
H61 H -0.730(5) -0.3876(17) -0.593(2)
H62 H -0.647(5) -0.3532(15) -0.534(2)
loop_
_geom_bond_atom_site_label_1
_geom_bond_atom_site_label_2
_geom_bond_site_symmetry_1
_geom_bond_site_symmetry_2
O1 C9 1_555 1_555
O2 C5 1_555 1_555
O3 C11 1_555 1_555
O4 C2 1_555 1_555
N1 C2 1_555 1_555
N2 C1 1_555 1_555
C1 H1 1_555 1_555
N3 C4 1_555 1_555
N4 C4 1_555 1_555
C2 C3 1_555 1_555
C3 C6 1_555 1_555
C4 N1 1_555 1_555
C5 H2 1_555 1_555
C6 N2 1_555 1_555
C7 O2 1_555 1_555
H3 C7 1_555 1_555
C8 C1 1_555 1_555
H4 C8 1_555 1_555
C9 C5 1_555 1_555
H5 C9 1_555 1_555
C10 C7 1_555 1_555
H6 C10 1_555 1_555
H7 C10 1_555 1_555
C11 C5 1_555 1_555
H8 C11 1_555 1_555
H9 C11 1_555 1_555
H10 N1 1_555 1_555
H11 N3 1_555 1_555
H12 O3 1_555 1_555
H13 N3 1_555 1_555
H14 O1 1_555 1_555
O5 C21 1_555 1_555
N5 C12 1_555 1_555
O6 C20 1_555 1_555
O7 C16 1_555 1_555
C12 N6 1_555 1_555
N6 C16 1_555 1_555
O8 C19 1_555 1_555
C13 C14 1_555 1_555
N7 C14 1_555 1_555
N8 C12 1_555 1_555
C14 N5 1_555 1_555
C15 C13 1_555 1_555
H15 C15 1_555 1_555
C16 C13 1_555 1_555
C17 N7 1_555 1_555
H16 C17 1_555 1_555
C18 H17 1_555 1_555
H18 C18 1_555 1_555
C19 C18 1_555 1_555
H19 C19 1_555 1_555
C20 H20 1_555 1_555
H21 C20 1_555 1_555
C21 C19 1_555 1_555
H22 C21 1_555 1_555
C22 O5 1_555 1_555
H23 C22 1_555 1_555
H24 N8 1_555 1_555
H25 N8 1_555 1_555
H26 N6 1_555 1_555
H27 O6 1_555 1_555
H28 O8 1_555 1_555
O9 H29 1_555 1_555
H30 O9 1_555 1_555
N9 C24 1_555 1_555
N10 C27 1_555 1_555
C23 C25 1_555 1_555
C24 H31 1_555 1_555
C25 C29 1_555 1_555
C26 C23 1_555 1_555
H32 C26 1_555 1_555
C27 H33 1_555 1_555
C28 N9 1_555 1_555
H34 C28 1_555 1_555
H35 C28 1_555 1_555
H36 C28 1_555 1_555
C29 C27 1_555 1_555
H37 C29 1_555 1_555
C30 C25 1_555 1_555
H38 C30 1_555 1_555
C31 N10 1_555 1_555
H39 C31 1_555 1_555
H40 C31 1_555 1_555
H41 C31 1_555 1_555
C32 N10 1_555 1_555
H42 C32 1_555 1_555
C33 C23 1_555 1_555
H43 C33 1_555 1_555
C34 N9 1_555 1_555
H44 C34 1_555 1_555
O10 H45 1_555 1_555
H46 O10 1_555 1_555
C35 C36 1_555 1_555
N11 C37 1_555 1_555
N12 C39 1_555 1_555
C36 H47 1_555 1_555
C37 H48 1_555 1_555
C38 C35 1_555 1_555
H49 C38 1_555 1_555
C39 H50 1_555 1_555
C40 N11 1_555 1_555
H51 C40 1_555 1_555
H52 C40 1_555 1_555
H53 C40 1_555 1_555
C41 N12 1_555 1_555
H54 C41 1_555 1_555
C42 C41 1_555 1_555
H55 C42 1_555 1_555
C43 C39 1_555 1_555
H56 C43 1_555 1_555
C44 N11 1_555 1_555
H57 C44 1_555 1_555
C45 N12 1_555 1_555
H58 C45 1_555 1_555
H59 C45 1_555 1_555
H60 C45 1_555 1_555
C46 C35 1_555 1_555
O11 H61 1_555 1_555
H62 O11 1_555 1_555
N2 C7 1_555 1_555
N4 C6 1_555 1_555
C3 C8 1_555 1_555
C9 C10 1_555 1_555
N7 C22 1_555 1_555
C15 C17 1_555 1_555
C18 C22 1_555 1_555
C20 C21 1_555 1_555
C24 C26 1_555 1_555
C30 C32 1_555 1_555
C33 C34 1_555 1_555
C36 C44 1_555 1_555
C37 C38 1_555 1_555
C42 C46 1_555 1_555
C43 C46 1_555 1_555

#END
