
#######################################################################
#
#                 Cambridge Crystallographic Data Centre
#                                CCDC 
#
#######################################################################
#
# If this CIF has been generated from an entry in the Cambridge 
# Structural Database, then it will include bibliographic, chemical, 
# crystal, experimental, refinement or atomic coordinate data resulting 
# from the CCDC's data processing and validation procedures.
#
#######################################################################

data_MEQZEQ
_chemical_formula_moiety         
'12(C4 H12 N1 1+),6(C34 H28 N10 O8),4(O4 P1 3-),3.6(C4 H10 O1),H2 O1'
_chemical_name_systematic        
"dodecakis(tetramethylammonium) hexakis(N',N''-[1,4-phenylenebis(carbamoylazanediyl-2,1-phenylene)]bis[N'-(4-nitrophenyl)urea]) tetrakis(phosphate) diethyl ether solvate monohydrate"
_symmetry_cell_setting           cubic
_symmetry_space_group_name_H-M   'P 21 3'
_symmetry_Int_Tables_number      198
_space_group_name_Hall           'P 2ac 2ab 3'
loop_
_symmetry_equiv_pos_site_id
_symmetry_equiv_pos_as_xyz
1 x,y,z
2 1/2-x,-y,1/2+z
3 -x,1/2+y,1/2-z
4 1/2+x,1/2-y,-z
5 z,x,y
6 1/2+z,1/2-x,-y
7 1/2-z,-x,1/2+y
8 -z,1/2+x,1/2-y
9 y,z,x
10 -y,1/2+z,1/2-x
11 1/2+y,1/2-z,-x
12 1/2-y,-z,1/2+x
_cell_length_a                   32.0113(6)
_cell_length_b                   32.0113(6)
_cell_length_c                   32.0113(6)
_cell_angle_alpha                90
_cell_angle_beta                 90
_cell_angle_gamma                90
_cell_volume                     32802.7
_exptl_crystal_colour            yellow
_exptl_crystal_description       block
_cell_formula_units_Z            4
loop_
_atom_site_label
_atom_site_type_symbol
_atom_site_fract_x
_atom_site_fract_y
_atom_site_fract_z
C1 C 0.6459(3) 0.6847(2) 0.8312(2)
C2 C 0.6265(3) 0.7204(2) 0.8193(2)
H1 H 0.6229 0.7420 0.8394
C3 C 0.6114(3) 0.7271(3) 0.7791(2)
H2 H 0.5988 0.7529 0.7717
C4 C 0.6153(2) 0.6950(2) 0.7499(2)
C5 C 0.6342(3) 0.6582(3) 0.7616(3)
H3 H 0.6362 0.6362 0.7417
C6 C 0.6502(3) 0.6522(3) 0.8012(3)
H4 H 0.6639 0.6269 0.8082
C7 C 0.5684(3) 0.7221(3) 0.6944(3)
C8 C 0.5280(3) 0.7354(4) 0.6284(4)
C9 C 0.4968(4) 0.7586(5) 0.6462(4)
H5 H 0.4940 0.7596 0.6757
C10 C 0.4681(4) 0.7818(6) 0.6196(5)
H6 H 0.4481 0.8003 0.6315
C11 C 0.4705(4) 0.7764(6) 0.5772(5)
H7 H 0.4519 0.7911 0.5593
C12 C 0.5002(4) 0.7494(4) 0.5604(4)
H8 H 0.4998 0.7445 0.5311
C13 C 0.5300(3) 0.7296(4) 0.5841(4)
C14 C 0.5741(4) 0.7059(3) 0.5294(3)
C15 C 0.6121(4) 0.6652(3) 0.4763(3)
C16 C 0.5964(5) 0.6842(4) 0.4414(3)
H9 H 0.5749 0.7046 0.4434
C17 C 0.6134(6) 0.6724(5) 0.4018(4)
H10 H 0.6021 0.6842 0.3771
C18 C 0.6463(5) 0.6435(3) 0.3988(3)
C19 C 0.6605(5) 0.6248(3) 0.4332(3)
H11 H 0.6821 0.6046 0.4309
C20 C 0.6444(4) 0.6343(3) 0.4724(3)
H12 H 0.6547 0.6204 0.4965
C21 C 0.6711(3) 0.6450(3) 0.8929(3)
C22 C 0.6887(3) 0.6193(3) 0.9641(3)
C23 C 0.6804(3) 0.5776(3) 0.9560(3)
H13 H 0.6688 0.5695 0.9299
C24 C 0.6893(3) 0.5475(3) 0.9861(4)
H14 H 0.6830 0.5190 0.9806
C25 C 0.7067(3) 0.5583(3) 1.0235(4)
H15 H 0.7128 0.5375 1.0437
C26 C 0.7160(3) 0.6022(3) 1.0322(3)
H16 H 0.7282 0.6103 1.0581
C27 C 0.7067(3) 0.6315(3) 1.0020(3)
C28 C 0.7460(4) 0.6896(3) 1.0321(3)
C29 C 0.7729(4) 0.7562(3) 1.0604(3)
C30 C 0.7995(4) 0.7396(4) 1.0904(3)
H17 H 0.7992 0.7103 1.0950
C31 C 0.8259(4) 0.7635(5) 1.1136(4)
H18 H 0.8441 0.7515 1.1338
C32 C 0.8250(5) 0.8063(5) 1.1062(4)
C33 C 0.7998(5) 0.8245(4) 1.0778(4)
H19 H 0.7998 0.8539 1.0737
C34 C 0.7730(5) 0.7978(4) 1.0539(4)
H20 H 0.7551 0.8095 1.0332
N1 N 0.6005(2) 0.6973(2) 0.7086(2)
H21 H 0.6130 0.6814 0.6900
N2 N 0.5588(2) 0.7136(3) 0.6536(2)
H22 H 0.5725 0.6930 0.6416
N3 N 0.5594(3) 0.7023(2) 0.5679(2)
H23 H 0.5685 0.6817 0.5837
N4 N 0.5983(3) 0.6728(2) 0.5175(2)
H24 H 0.6058 0.6549 0.5370
N5 N 0.6614(6) 0.6344(4) 0.3578(4)
N6 N 0.6610(2) 0.6809(2) 0.8729(2)
H25 H 0.6641 0.7042 0.8870
N7 N 0.6801(2) 0.6511(2) 0.9347(2)
H26 H 0.6805 0.6771 0.9437
N8 N 0.7139(2) 0.6744(2) 1.0107(2)
H27 H 0.6955 0.6925 1.0012
N9 N 0.7458(3) 0.7321(3) 1.0362(3)
H28 H 0.7265 0.7457 1.0220
N10 N 0.8544(6) 0.8313(6) 1.1296(5)
O1 O 0.5515(2) 0.7482(2) 0.7158(2)
O2 O 0.5685(3) 0.7369(2) 0.5061(2)
O3 O 0.6462(6) 0.6491(4) 0.3278(3)
O4 O 0.6925(5) 0.6106(4) 0.3577(3)
O5 O 0.6724(3) 0.61125(19) 0.8755(2)
O6 O 0.7762(3) 0.6682(3) 1.0436(3)
O7 O 0.8771(6) 0.8156(5) 1.1572(5)
O8 O 0.8516(6) 0.8701(5) 1.1263(5)
C35 C 0.8299(2) 0.6791(2) 0.8447(2)
C36 C 0.7929(2) 0.6713(3) 0.8660(3)
H29 H 0.7809 0.6441 0.8654
C37 C 0.7735(2) 0.7026(2) 0.8878(3)
H30 H 0.7488 0.6966 0.9032
C38 C 0.7895(2) 0.7438(2) 0.8877(2)
C39 C 0.8245(3) 0.7506(3) 0.8650(2)
H31 H 0.8352 0.7782 0.8631
C40 C 0.8450(3) 0.7186(3) 0.8446(3)
H32 H 0.8703 0.7244 0.8301
C41 C 0.8486(2) 0.6057(3) 0.8256(3)
C42 C 0.9387(3) 0.5446(3) 0.7022(3)
C43 C 0.9846(5) 0.5608(4) 0.5736(4)
H33 H 0.9738 0.5463 0.5502
C44 C 0.9659(4) 0.5573(4) 0.6116(4)
H34 H 0.9409 0.5415 0.6142
C45 C 0.9826(3) 0.5764(3) 0.6465(3)
C46 C 1.0186(3) 0.5996(3) 0.6418(3)
H35 H 1.0311 0.6121 0.6656
C47 C 1.0366(3) 0.6050(3) 0.6034(3)
H36 H 1.0607 0.6221 0.6002
C48 C 1.0193(5) 0.5856(4) 0.5697(4)
C49 C 0.7847(3) 0.8090(3) 0.9276(2)
C50 C 0.7277(3) 0.8906(3) 0.9891(3)
C51 C 0.7332(4) 0.9272(3) 1.0113(3)
H37 H 0.7096 0.9420 1.0216
C52 C 0.7631(3) 0.8693(3) 0.9723(3)
C53 C 0.8035(3) 0.8849(3) 0.9801(3)
H38 H 0.8273 0.8705 0.9698
C54 C 0.8084(4) 0.9217(4) 1.0029(3)
H39 H 0.8356 0.9324 1.0079
C55 C 0.7741(4) 0.9427(4) 1.0185(4)
H40 H 0.7779 0.9676 1.0342
C56 C 0.6526(3) 0.8968(3) 0.9762(3)
C57 C 0.5454(3) 0.8551(3) 0.9694(4)
H41 H 0.5535 0.8266 0.9700
C58 C 0.5039(3) 0.8654(3) 0.9666(5)
H42 H 0.4832 0.8442 0.9667
C59 C 0.5759(3) 0.8864(3) 0.9713(3)
C60 C 0.5638(3) 0.9279(3) 0.9686(3)
H43 H 0.5841 0.9496 0.9681
C61 C 0.5220(3) 0.9370(3) 0.9668(3)
H44 H 0.5136 0.9655 0.9677
C62 C 0.4923(3) 0.9073(3) 0.9638(3)
N11 N 0.8798(2) 0.5842(2) 0.8066(3)
H45 H 0.8999 0.5993 0.7954
C63 C 0.8841(3) 0.54065(16) 0.8025(3)
C64 C 0.8643(4) 0.5138(2) 0.8303(4)
H46 H 0.8491 0.5248 0.8533
C65 C 0.8667(4) 0.4709(2) 0.8245(4)
H47 H 0.8531 0.4525 0.8435
C66 C 0.8888(3) 0.45474(15) 0.7908(4)
H48 H 0.8904 0.4254 0.7868
C67 C 0.9086(2) 0.48157(19) 0.7630(2)
H49 H 0.9238 0.4706 0.7399
C68 C 0.9062(2) 0.52453(17) 0.7688(2)
N12 N 0.8540(2) 0.6477(2) 0.8237(2)
H50 H 0.8746 0.6567 0.8078
N13 N 0.9280(2) 0.5524(2) 0.7430(2)
H51 H 0.9354 0.5766 0.7537
N14 N 0.9657(2) 0.5750(2) 0.6867(2)
H52 H 0.9728 0.5953 0.7038
N15 N 1.0368(5) 0.5918(4) 0.5281(4)
N16 N 0.7676(2) 0.77357(19) 0.91212(18)
H53 H 0.7411 0.7687 0.9176
N17 N 0.7558(2) 0.8318(2) 0.95110(19)
H54 H 0.7304 0.8214 0.9527
N18 N 0.6876(2) 0.8733(2) 0.9833(2)
H55 H 0.6850 0.8460 0.9842
N19 N 0.6168(2) 0.8728(2) 0.9751(2)
H56 H 0.6203 0.8456 0.9770
N20 N 0.4485(3) 0.9165(3) 0.9614(3)
O9 O 0.81944(17) 0.58888(18) 0.8429(2)
O10 O 0.9256(2) 0.5155(2) 0.6809(3)
O11 O 1.0178(5) 0.5790(4) 0.4973(3)
O12 O 1.0699(4) 0.6114(4) 0.5260(3)
O13 O 0.8196(2) 0.8212(2) 0.9209(3)
O14 O 0.6528(2) 0.93506(19) 0.9719(2)
O15 O 0.4236(3) 0.8893(3) 0.9593(4)
O16 O 0.4388(2) 0.9534(2) 0.9619(3)
C69 C 0.7365(6) 0.7340(7) 0.7895(4)
H57 H 0.7097 0.7462 0.7979
H58 H 0.7587 0.7446 0.8076
H59 H 0.7350 0.7035 0.7919
C70 C 0.7204(5) 0.7204(5) 0.7204(5)
N21 N 0.7456(2) 0.7456(2) 0.7456(2)
C69D C 0.7895(4) 0.7365(6) 0.7340(7)
H57D H 0.7979 0.7097 0.7462
H58D H 0.8076 0.7587 0.7446
H59D H 0.7919 0.7350 0.7035
C69H C 0.7340(7) 0.7895(4) 0.7365(6)
H57H H 0.7462 0.7979 0.7097
H58H H 0.7446 0.8076 0.7587
H59H H 0.7035 0.7919 0.7350
C71 C 0.6956(8) 0.9451(7) 0.8800(8)
C72 C 0.7417(10) 0.9867(6) 0.8466(6)
H60 H 0.7183 0.9953 0.8287
H61 H 0.7530 0.9601 0.8364
H62 H 0.7635 1.0081 0.8458
C73 C 0.7609(10) 0.9466(9) 0.9043(10)
C74 C 0.7107(9) 1.0021(6) 0.9186(7)
N22 N 0.7285(5) 0.9820(3) 0.8848(4)
C75 C 0.0403(4) 0.6532(5) 0.2740(4)
H63 H 0.0455 0.6834 0.2749
H64 H 0.0625 0.6396 0.2579
H65 H 0.0400 0.6420 0.3025
C76 C -0.0334(6) 0.6426(7) 0.2871(7)
H66 H -0.0279 0.6192 0.3061
H67 H -0.0601 0.6380 0.2728
H68 H -0.0348 0.6687 0.3031
C77 C -0.0008(9) 0.6856(6) 0.2243(7)
C78 C -0.0047(6) 0.6079(5) 0.2259(6)
H69 H 0.0212 0.6023 0.2105
H70 H -0.0272 0.6140 0.2060
H71 H -0.0121 0.5834 0.2425
N23 N 0.0017(4) 0.6456(3) 0.2548(4)
C79 C 0.6409(9) 0.8282(13) 0.4617(7)
C80 C 0.6693(11) 0.7594(7) 0.4847(12)
C81 C 0.6432(5) 0.8138(6) 0.5282(5)
H72 H 0.6260 0.7898 0.5361
H73 H 0.6251 0.8379 0.5227
H74 H 0.6625 0.8205 0.5510
C82 C 0.7099(6) 0.8195(8) 0.4914(9)
H75 H 0.7188 0.8249 0.4626
H76 H 0.7282 0.7985 0.5040
H77 H 0.7115 0.8454 0.5076
N24 N 0.6664(3) 0.8041(3) 0.4915(3)
C83 C -0.0279(6) 0.5118(11) 0.1318(10)
C84 C 0.0194(8) 0.5190(10) 0.1471(9)
C85 C 0.0875(13) 0.540(2) 0.1807(19)
C86 C 0.1234(11) 0.5170(18) 0.167(3)
O17 O 0.0521(9) 0.5500(4) 0.1597(6)
O18 O 0.65174(17) 0.72105(16) 0.97524(16)
O19 O 0.67945(16) 0.76087(16) 0.91411(15)
O20 O 0.62023(17) 0.78978(16) 0.95712(17)
O21 O 0.69290(17) 0.78591(16) 0.98682(16)
P1 P 0.66143(7) 0.76448(6) 0.95811(6)
O22 O 0.57544(16) 0.63671(17) 0.62254(17)
O23 O 0.64849(15) 0.64849(15) 0.64849(15)
P2 P 0.62115(6) 0.62115(6) 0.62115(6)
O22D O 0.62254(17) 0.57544(16) 0.63671(17)
O22H O 0.63671(17) 0.62254(17) 0.57544(16)
O24 O 0.9451(4) 0.4451(4) 0.0549(4)
C87? C 0.6243(14) 0.8263(15) 0.089(2)
C88? C 0.6117(17) 0.786(2) 0.0694(9)
C89? C 0.6641(11) 0.7952(11) 0.0914(16)
C90? C 0.6402(10) 0.7537(9) 0.0865(10)
N25? N 0.6255(9) 0.7879(7) 0.1137(9)
C91? C 0.8679(11) 0.9238(14) 0.9119(16)
N26? N 0.8869(4) 0.8869(4) 0.8869(4)
loop_
_geom_bond_atom_site_label_1
_geom_bond_atom_site_label_2
_geom_bond_site_symmetry_1
_geom_bond_site_symmetry_2
C1 C2 1_555 1_555
C2 H1 1_555 1_555
C3 C2 1_555 1_555
H2 C3 1_555 1_555
C4 C3 1_555 1_555
C5 C4 1_555 1_555
H3 C5 1_555 1_555
C6 C1 1_555 1_555
H4 C6 1_555 1_555
C7 N1 1_555 1_555
C8 C9 1_555 1_555
C9 H5 1_555 1_555
C10 C9 1_555 1_555
H6 C10 1_555 1_555
C11 C10 1_555 1_555
H7 C11 1_555 1_555
C12 C11 1_555 1_555
H8 C12 1_555 1_555
C13 C8 1_555 1_555
C14 N3 1_555 1_555
C15 C16 1_555 1_555
C16 H9 1_555 1_555
C17 C16 1_555 1_555
H10 C17 1_555 1_555
C18 C17 1_555 1_555
C19 C18 1_555 1_555
H11 C19 1_555 1_555
C20 C15 1_555 1_555
H12 C20 1_555 1_555
C21 N6 1_555 1_555
C22 C23 1_555 1_555
C23 H13 1_555 1_555
C24 C23 1_555 1_555
H14 C24 1_555 1_555
C25 C24 1_555 1_555
H15 C25 1_555 1_555
C26 C25 1_555 1_555
H16 C26 1_555 1_555
C27 C22 1_555 1_555
C28 N8 1_555 1_555
C29 C30 1_555 1_555
C30 H17 1_555 1_555
C31 C30 1_555 1_555
H18 C31 1_555 1_555
C32 C31 1_555 1_555
C33 C32 1_555 1_555
H19 C33 1_555 1_555
C34 C29 1_555 1_555
H20 C34 1_555 1_555
N1 C4 1_555 1_555
H21 N1 1_555 1_555
N2 C7 1_555 1_555
H22 N2 1_555 1_555
N3 C13 1_555 1_555
H23 N3 1_555 1_555
N4 C14 1_555 1_555
H24 N4 1_555 1_555
N5 C18 1_555 1_555
N6 C1 1_555 1_555
H25 N6 1_555 1_555
N7 C21 1_555 1_555
H26 N7 1_555 1_555
N8 C27 1_555 1_555
H27 N8 1_555 1_555
N9 C28 1_555 1_555
H28 N9 1_555 1_555
N10 C32 1_555 1_555
O1 C7 1_555 1_555
O2 C14 1_555 1_555
O3 N5 1_555 1_555
O4 N5 1_555 1_555
O5 C21 1_555 1_555
O6 C28 1_555 1_555
O7 N10 1_555 1_555
O8 N10 1_555 1_555
C35 C36 1_555 1_555
C36 H29 1_555 1_555
C37 C36 1_555 1_555
H30 C37 1_555 1_555
C38 C37 1_555 1_555
C39 C38 1_555 1_555
H31 C39 1_555 1_555
C40 C35 1_555 1_555
H32 C40 1_555 1_555
C41 N11 1_555 1_555
C42 N13 1_555 1_555
C43 H33 1_555 1_555
C44 C43 1_555 1_555
H34 C44 1_555 1_555
C45 C44 1_555 1_555
C46 C45 1_555 1_555
H35 C46 1_555 1_555
C47 C46 1_555 1_555
H36 C47 1_555 1_555
C48 C43 1_555 1_555
C49 N16 1_555 1_555
C50 C51 1_555 1_555
C51 H37 1_555 1_555
C52 C50 1_555 1_555
C53 C52 1_555 1_555
H38 C53 1_555 1_555
C54 C53 1_555 1_555
H39 C54 1_555 1_555
C55 C51 1_555 1_555
H40 C55 1_555 1_555
C56 N18 1_555 1_555
C57 H41 1_555 1_555
C58 C57 1_555 1_555
H42 C58 1_555 1_555
C59 C57 1_555 1_555
C60 C59 1_555 1_555
H43 C60 1_555 1_555
C61 C60 1_555 1_555
H44 C61 1_555 1_555
C62 C58 1_555 1_555
N11 H45 1_555 1_555
C63 N11 1_555 1_555
C64 C63 1_555 1_555
H46 C64 1_555 1_555
C65 C64 1_555 1_555
H47 C65 1_555 1_555
C66 C65 1_555 1_555
H48 C66 1_555 1_555
C67 C66 1_555 1_555
H49 C67 1_555 1_555
C68 C63 1_555 1_555
N12 C35 1_555 1_555
H50 N12 1_555 1_555
N13 C68 1_555 1_555
H51 N13 1_555 1_555
N14 C42 1_555 1_555
H52 N14 1_555 1_555
N15 C48 1_555 1_555
N16 C38 1_555 1_555
H53 N16 1_555 1_555
N17 C49 1_555 1_555
H54 N17 1_555 1_555
N18 C50 1_555 1_555
H55 N18 1_555 1_555
N19 C56 1_555 1_555
H56 N19 1_555 1_555
N20 C62 1_555 1_555
O9 C41 1_555 1_555
O10 C42 1_555 1_555
O11 N15 1_555 1_555
O12 N15 1_555 1_555
O13 C49 1_555 1_555
O14 C56 1_555 1_555
O15 N20 1_555 1_555
O16 N20 1_555 1_555
C69 H57 1_555 1_555
H58 C69 1_555 1_555
H59 C69 1_555 1_555
C70 N21 1_555 1_555
N21 C69 1_555 1_555
C71 N22 1_555 1_555
C72 H60 1_555 1_555
H61 C72 1_555 1_555
H62 C72 1_555 1_555
C73 N22 1_555 1_555
C74 N22 1_555 1_555
N22 C72 1_555 1_555
C75 H63 1_555 1_555
H64 C75 1_555 1_555
H65 C75 1_555 1_555
C76 H66 1_555 1_555
H67 C76 1_555 1_555
H68 C76 1_555 1_555
C77 N23 1_555 1_555
C78 H69 1_555 1_555
H70 C78 1_555 1_555
H71 C78 1_555 1_555
N23 C75 1_555 1_555
C79 N24 1_555 1_555
C80 N24 1_555 1_555
C81 H72 1_555 1_555
H73 C81 1_555 1_555
H74 C81 1_555 1_555
C82 H75 1_555 1_555
H76 C82 1_555 1_555
H77 C82 1_555 1_555
N24 C81 1_555 1_555
C83 C84 1_555 1_555
C84 O17 1_555 1_555
C85 C86 1_555 1_555
O17 C85 1_555 1_555
O18 P1 1_555 1_555
O19 P1 1_555 1_555
O20 P1 1_555 1_555
O21 P1 1_555 1_555
O22 P2 1_555 1_555
O23 P2 1_555 1_555
P2 O22D 1_555 1_555
C69D N21 1_555 1_555
H57D C69D 1_555 1_555
H58D C69D 1_555 1_555
H59D C69D 1_555 1_555
C69H N21 1_555 1_555
H57H C69H 1_555 1_555
H58H C69H 1_555 1_555
H59H C69H 1_555 1_555
O22H P2 1_555 1_555
C5 C6 1_555 1_555
C8 N2 1_555 1_555
C12 C13 1_555 1_555
C15 N4 1_555 1_555
C19 C20 1_555 1_555
C22 N7 1_555 1_555
C26 C27 1_555 1_555
C29 N9 1_555 1_555
C33 C34 1_555 1_555
C39 C40 1_555 1_555
C41 N12 1_555 1_555
C45 N14 1_555 1_555
C47 C48 1_555 1_555
C52 N17 1_555 1_555
C54 C55 1_555 1_555
C59 N19 1_555 1_555
C61 C62 1_555 1_555
C67 C68 1_555 1_555
C76 N23 1_555 1_555
C78 N23 1_555 1_555
C82 N24 1_555 1_555

#END
