
#######################################################################
#
#                 Cambridge Crystallographic Data Centre
#                                CCDC 
#
#######################################################################
#
# If this CIF has been generated from an entry in the Cambridge 
# Structural Database, then it will include bibliographic, chemical, 
# crystal, experimental, refinement or atomic coordinate data resulting 
# from the CCDC's data processing and validation procedures.
#
#######################################################################

data_MERFIY
_chemical_formula_moiety         'C37 H27 N3'
_chemical_name_systematic        
trans-N,N'-bis(1-Naphthyl)-N,N'-diphenyl-2,6-diaminopyridine
_symmetry_cell_setting           triclinic
_symmetry_space_group_name_H-M   'P -1'
_symmetry_Int_Tables_number      2
_space_group_name_Hall           '-P 1'
loop_
_symmetry_equiv_pos_site_id
_symmetry_equiv_pos_as_xyz
1 x,y,z
2 -x,-y,-z
_cell_length_a                   10.8979(6)
_cell_length_b                   12.4563(7)
_cell_length_c                   20.3146(11)
_cell_angle_alpha                99.7820(10)
_cell_angle_beta                 96.4630(10)
_cell_angle_gamma                90.7750(10)
_cell_volume                     2698.79
_exptl_crystal_colour            yellow
_exptl_crystal_description       ball
_chemical_melting_point          '220 deg.C'
_cell_formula_units_Z            4
_exptl_crystal_preparation       'UV luminescent'
loop_
_atom_site_label
_atom_site_type_symbol
_atom_site_fract_x
_atom_site_fract_y
_atom_site_fract_z
N1 N 0.0239(2) 0.1515(2) 0.13178(11)
N2 N 0.1575(2) 0.1113(2) 0.22041(10)
N3 N 0.2795(2) 0.0671(2) 0.31407(11)
C1 C -0.0784(2) 0.1471(2) 0.17038(12)
C2 C -0.1274(2) 0.0443(2) 0.17867(12)
C3 C -0.0775(3) -0.0574(2) 0.15260(15)
C4 C -0.1260(3) -0.1527(3) 0.1647(2)
C5 C -0.2267(3) -0.1529(3) 0.2021(2)
C6 C -0.2787(3) -0.0581(3) 0.22604(15)
C7 C -0.2316(2) 0.0431(2) 0.21498(12)
C8 C -0.2858(3) 0.1428(2) 0.23931(14)
C9 C -0.2374(3) 0.2388(2) 0.22906(14)
C10 C -0.1328(3) 0.2410(2) 0.19487(14)
C11 C 0.0014(2) 0.2018(2) 0.07343(13)
C12 C -0.0997(3) 0.1657(3) 0.0269(2)
C13 C -0.1299(4) 0.2179(4) -0.0269(2)
C14 C -0.0598(3) 0.3062(3) -0.0350(2)
C15 C 0.0412(3) 0.3411(3) 0.0102(2)
C16 C 0.0726(3) 0.2895(3) 0.0648(2)
C17 C 0.1415(2) 0.1204(2) 0.15527(13)
C18 C 0.2335(3) 0.0978(2) 0.11284(14)
C19 C 0.3443(3) 0.0643(2) 0.14012(14)
C20 C 0.3624(3) 0.0520(2) 0.20679(14)
C21 C 0.2655(2) 0.0768(2) 0.24577(12)
C22 C 0.4032(2) 0.0567(2) 0.34714(13)
C23 C 0.4835(2) 0.1499(2) 0.36543(12)
C24 C 0.4497(3) 0.2542(2) 0.34989(15)
C25 C 0.5313(3) 0.3409(3) 0.3673(2)
C26 C 0.6491(3) 0.3293(3) 0.4007(2)
C27 C 0.6839(3) 0.2316(3) 0.4166(2)
C28 C 0.6019(2) 0.1403(2) 0.40021(13)
C29 C 0.6347(3) 0.0374(3) 0.4174(2)
C30 C 0.5554(3) -0.0500(3) 0.3998(2)
C31 C 0.4380(3) -0.0410(2) 0.3638(2)
C32 C 0.1823(2) 0.0774(2) 0.35603(12)
C33 C 0.2117(3) 0.1164(2) 0.42484(14)
C34 C 0.1213(3) 0.1243(3) 0.46751(15)
C35 C 0.0002(3) 0.0947(2) 0.44309(15)
C36 C -0.0292(3) 0.0564(2) 0.37549(14)
C37 C 0.0606(2) 0.0465(2) 0.33240(14)
H1 H -0.0069(26) -0.0597(22) 0.1255(14)
H2 H -0.0889(30) -0.2212(28) 0.1467(16)
H3 H -0.2629(35) -0.2255(32) 0.2071(19)
H4 H -0.3455(29) -0.0589(24) 0.2532(16)
H5 H -0.3596(26) 0.1408(22) 0.2623(14)
H6 H -0.2759(27) 0.3045(25) 0.2424(15)
H7 H -0.0979(28) 0.3132(26) 0.1885(15)
H8 H -0.1497(30) 0.1042(27) 0.0346(16)
H9 H -0.2066(38) 0.1930(33) -0.0589(21)
H10 H -0.0885(32) 0.3403(28) -0.0733(19)
H11 H 0.0933(31) 0.4030(28) 0.0068(17)
H12 H 0.1454(31) 0.3151(26) 0.0967(17)
H13 H 0.2174(24) 0.1047(21) 0.0654(14)
H14 H 0.4121(25) 0.0504(21) 0.1146(14)
H15 H 0.4361(28) 0.0276(24) 0.2255(15)
H16 H 0.3721(27) 0.2651(23) 0.3305(14)
H17 H 0.5065(30) 0.4117(28) 0.3573(17)
H18 H 0.7072(30) 0.3983(27) 0.4152(16)
H19 H 0.7672(33) 0.2194(28) 0.4449(18)
H20 H 0.7127(29) 0.0296(24) 0.4433(15)
H21 H 0.5786(27) -0.1202(26) 0.4135(15)
H22 H 0.3731(28) -0.1069(25) 0.3476(15)
H23 H 0.2984(26) 0.1363(22) 0.4415(14)
H24 H 0.1465(27) 0.1529(24) 0.5147(16)
H25 H -0.0650(27) 0.1004(23) 0.4756(15)
H26 H -0.1158(29) 0.0325(24) 0.3583(15)
H27 H 0.0433(25) 0.0204(22) 0.2870(14)
N4 N 0.5190(2) 0.4207(2) 0.12906(11)
N5 N 0.6542(2) 0.5154(2) 0.21608(10)
N6 N 0.7778(2) 0.6173(2) 0.30784(10)
C38 C 0.4170(2) 0.4480(2) 0.16793(12)
C39 C 0.3700(2) 0.5544(2) 0.17449(12)
C40 C 0.4220(3) 0.6406(2) 0.14665(14)
C41 C 0.3766(3) 0.7430(3) 0.1582(2)
C42 C 0.2769(3) 0.7654(3) 0.1962(2)
C43 C 0.2237(3) 0.6852(3) 0.2216(2)
C44 C 0.2677(2) 0.5778(2) 0.21138(12)
C45 C 0.2125(3) 0.4927(3) 0.23817(14)
C46 C 0.2591(3) 0.3910(3) 0.22981(15)
C47 C 0.3627(3) 0.3696(2) 0.19516(14)
C48 C 0.4956(2) 0.3356(2) 0.07224(13)
C49 C 0.3943(3) 0.3422(3) 0.0254(2)
C50 C 0.3641(4) 0.2575(4) -0.0277(2)
C51 C 0.4340(3) 0.1663(3) -0.0347(2)
C52 C 0.5348(3) 0.1595(3) 0.0107(2)
C53 C 0.5663(3) 0.2437(2) 0.06462(15)
C54 C 0.6376(2) 0.4658(2) 0.15176(12)
C55 C 0.7295(3) 0.4613(2) 0.10922(14)
C56 C 0.8421(3) 0.5105(2) 0.13583(14)
C57 C 0.8616(2) 0.5635(2) 0.20185(13)
C58 C 0.7637(2) 0.5645(2) 0.24034(12)
C59 C 0.9019(2) 0.6452(2) 0.34073(12)
C60 C 0.9761(2) 0.5618(2) 0.36208(12)
C61 C 0.9362(3) 0.4507(2) 0.35019(15)
C62 C 1.0110(3) 0.3741(3) 0.3718(2)
C63 C 1.1288(3) 0.4032(3) 0.4059(2)
C64 C 1.1696(3) 0.5086(3) 0.4183(2)
C65 C 1.0958(2) 0.5915(2) 0.39677(13)
C66 C 1.1367(3) 0.7019(2) 0.40774(13)
C67 C 1.0642(3) 0.7799(2) 0.38573(14)
C68 C 0.9446(3) 0.7507(2) 0.35247(13)
C69 C 0.6800(2) 0.6309(2) 0.34953(12)
C70 C 0.7058(3) 0.6276(2) 0.41801(13)
C71 C 0.6134(3) 0.6425(3) 0.45993(15)
C72 C 0.4945(3) 0.6602(3) 0.43455(15)
C73 C 0.4686(3) 0.6643(3) 0.36690(15)
C74 C 0.5599(2) 0.6511(2) 0.32486(14)
H28 H 0.4934(25) 0.6268(20) 0.1207(13)
H29 H 0.4166(30) 0.8011(28) 0.1372(17)
H30 H 0.2452(31) 0.8417(30) 0.2022(17)
H31 H 0.1496(26) 0.6990(22) 0.2481(14)
H32 H 0.1441(25) 0.5086(21) 0.2616(14)
H33 H 0.2209(29) 0.3312(26) 0.2514(16)
H34 H 0.3991(26) 0.2981(25) 0.1930(14)
H35 H 0.3462(32) 0.4067(29) 0.0316(18)
H36 H 0.2898(33) 0.2638(29) -0.0590(19)
H37 H 0.4085(31) 0.1061(29) -0.0715(18)
H38 H 0.5876(31) 0.0933(28) 0.0043(17)
H39 H 0.6392(25) 0.2403(22) 0.0974(14)
H40 H 0.7131(24) 0.4284(22) 0.0639(14)
H41 H 0.9081(26) 0.5091(22) 0.1106(14)
H42 H 0.9416(26) 0.5981(22) 0.2208(14)
H43 H 0.8541(27) 0.4301(23) 0.3264(14)
H44 H 0.9794(33) 0.2966(31) 0.3587(18)
H45 H 1.1840(32) 0.3477(29) 0.4227(18)
H46 H 1.2530(32) 0.5328(27) 0.4424(17)
H47 H 1.2181(27) 0.7218(23) 0.4314(14)
H48 H 1.0919(24) 0.8562(23) 0.3935(13)
H49 H 0.8920(25) 0.8092(22) 0.3395(13)
H50 H 0.7894(26) 0.6170(22) 0.4361(14)
H51 H 0.6353(32) 0.6367(28) 0.5084(19)
H52 H 0.4266(28) 0.6686(24) 0.4648(15)
H53 H 0.3869(28) 0.6756(24) 0.3468(15)
H54 H 0.5424(26) 0.6530(23) 0.2790(15)
loop_
_geom_bond_atom_site_label_1
_geom_bond_atom_site_label_2
_geom_bond_site_symmetry_1
_geom_bond_site_symmetry_2
N1 C1 1_555 1_555
N2 C17 1_555 1_555
N3 C21 1_555 1_555
C1 C2 1_555 1_555
C2 C3 1_555 1_555
C3 C4 1_555 1_555
C4 C5 1_555 1_555
C5 C6 1_555 1_555
C6 C7 1_555 1_555
C7 C2 1_555 1_555
C8 C7 1_555 1_555
C9 C8 1_555 1_555
C10 C1 1_555 1_555
C11 N1 1_555 1_555
C12 C11 1_555 1_555
C13 C12 1_555 1_555
C14 C13 1_555 1_555
C15 C14 1_555 1_555
C16 C11 1_555 1_555
C17 N1 1_555 1_555
C18 C17 1_555 1_555
C19 C18 1_555 1_555
C20 C19 1_555 1_555
C21 N2 1_555 1_555
C22 N3 1_555 1_555
C23 C22 1_555 1_555
C24 C23 1_555 1_555
C25 C24 1_555 1_555
C26 C25 1_555 1_555
C27 C26 1_555 1_555
C28 C23 1_555 1_555
C29 C28 1_555 1_555
C30 C29 1_555 1_555
C31 C22 1_555 1_555
C32 N3 1_555 1_555
C33 C32 1_555 1_555
C34 C33 1_555 1_555
C35 C34 1_555 1_555
C36 C35 1_555 1_555
C37 C32 1_555 1_555
N4 C38 1_555 1_555
N5 C54 1_555 1_555
N6 C58 1_555 1_555
C38 C39 1_555 1_555
C39 C40 1_555 1_555
C40 C41 1_555 1_555
C41 C42 1_555 1_555
C42 C43 1_555 1_555
C43 C44 1_555 1_555
C44 C39 1_555 1_555
C45 C44 1_555 1_555
C46 C45 1_555 1_555
C47 C38 1_555 1_555
C48 N4 1_555 1_555
C49 C48 1_555 1_555
C50 C49 1_555 1_555
C51 C50 1_555 1_555
C52 C51 1_555 1_555
C53 C48 1_555 1_555
C54 N4 1_555 1_555
C55 C54 1_555 1_555
C56 C55 1_555 1_555
C57 C56 1_555 1_555
C58 N5 1_555 1_555
C59 N6 1_555 1_555
C60 C59 1_555 1_555
C61 C60 1_555 1_555
C62 C61 1_555 1_555
C63 C62 1_555 1_555
C64 C63 1_555 1_555
C65 C60 1_555 1_555
C66 C65 1_555 1_555
C67 C66 1_555 1_555
C68 C59 1_555 1_555
C69 N6 1_555 1_555
C70 C69 1_555 1_555
C71 C70 1_555 1_555
C72 C71 1_555 1_555
C73 C72 1_555 1_555
C74 C69 1_555 1_555
H1 C3 1_555 1_555
H2 C4 1_555 1_555
H3 C5 1_555 1_555
H4 C6 1_555 1_555
H5 C8 1_555 1_555
H6 C9 1_555 1_555
H7 C10 1_555 1_555
H8 C12 1_555 1_555
H9 C13 1_555 1_555
H10 C14 1_555 1_555
H11 C15 1_555 1_555
H12 C16 1_555 1_555
H13 C18 1_555 1_555
H14 C19 1_555 1_555
H15 C20 1_555 1_555
H16 C24 1_555 1_555
H17 C25 1_555 1_555
H18 C26 1_555 1_555
H19 C27 1_555 1_555
H20 C29 1_555 1_555
H21 C30 1_555 1_555
H22 C31 1_555 1_555
H23 C33 1_555 1_555
H24 C34 1_555 1_555
H25 C35 1_555 1_555
H26 C36 1_555 1_555
H27 C37 1_555 1_555
H28 C40 1_555 1_555
H29 C41 1_555 1_555
H30 C42 1_555 1_555
H31 C43 1_555 1_555
H32 C45 1_555 1_555
H33 C46 1_555 1_555
H34 C47 1_555 1_555
H35 C49 1_555 1_555
H36 C50 1_555 1_555
H37 C51 1_555 1_555
H38 C52 1_555 1_555
H39 C53 1_555 1_555
H40 C55 1_555 1_555
H41 C56 1_555 1_555
H42 C57 1_555 1_555
H43 C61 1_555 1_555
H44 C62 1_555 1_555
H45 C63 1_555 1_555
H46 C64 1_555 1_555
H47 C66 1_555 1_555
H48 C67 1_555 1_555
H49 C68 1_555 1_555
H50 C70 1_555 1_555
H51 C71 1_555 1_555
H52 C72 1_555 1_555
H53 C73 1_555 1_555
H54 C74 1_555 1_555
C9 C10 1_555 1_555
C15 C16 1_555 1_555
C20 C21 1_555 1_555
C27 C28 1_555 1_555
C30 C31 1_555 1_555
C36 C37 1_555 1_555
C46 C47 1_555 1_555
C52 C53 1_555 1_555
C57 C58 1_555 1_555
C64 C65 1_555 1_555
C67 C68 1_555 1_555
C73 C74 1_555 1_555

#END
