
#######################################################################
#
#                 Cambridge Crystallographic Data Centre
#                                CCDC 
#
#######################################################################
#
# If this CIF has been generated from an entry in the Cambridge 
# Structural Database, then it will include bibliographic, chemical, 
# crystal, experimental, refinement or atomic coordinate data resulting 
# from the CCDC's data processing and validation procedures.
#
#######################################################################

data_MERLIE
_chemical_formula_moiety         'C1 H6 N3 1+,C6 H4 Br1 O3 S1 1-,C8 H10'
_chemical_name_systematic        
'Guanidinium (4-bromobenzenesulfonate) (o-xylene) clathrate'
_symmetry_cell_setting           monoclinic
_symmetry_space_group_name_H-M   'C c'
_symmetry_Int_Tables_number      9
_space_group_name_Hall           'C -2yc'
loop_
_symmetry_equiv_pos_site_id
_symmetry_equiv_pos_as_xyz
1 x,y,z
2 x,-y,1/2+z
3 1/2+x,1/2+y,z
4 1/2+x,1/2-y,1/2+z
_cell_length_a                   7.5312(5)
_cell_length_b                   20.4772(15)
_cell_length_c                   11.9493(9)
_cell_angle_alpha                90
_cell_angle_beta                 93.4560(10)
_cell_angle_gamma                90
_cell_volume                     1839.44
_exptl_crystal_colour            colorless
_exptl_crystal_description       'flat block'
_cell_formula_units_Z            4
loop_
_atom_site_label
_atom_site_type_symbol
_atom_site_fract_x
_atom_site_fract_y
_atom_site_fract_z
Br1 Br 0.14305(7) 0.38222(2) 0.62380(6)
S1 S 0.03140(9) 0.69027(4) 0.69108(6)
O1 O -0.1370(3) 0.70765(12) 0.63204(18)
C1 C 0.0567(4) 0.60489(16) 0.6746(3)
O2 O 0.1822(3) 0.72031(12) 0.63959(18)
C2 C -0.0081(4) 0.57521(18) 0.5759(3)
H5 H -0.0697 0.6003 0.5190
O3 O 0.0343(3) 0.70280(12) 0.81095(18)
C3 C 0.0178(5) 0.5087(2) 0.5608(3)
H8 H -0.0266 0.4879 0.4938
C4 C 0.1088(5) 0.47297(18) 0.6443(3)
C5 C 0.1743(5) 0.5023(2) 0.7429(3)
H9 H 0.2362 0.4773 0.7996
C6 C 0.1484(4) 0.56878(18) 0.7576(3)
H10 H 0.1934 0.5896 0.8245
N1 N 0.3928(3) 0.73904(14) 0.9069(2)
H1 H 0.3978 0.7478 0.9791
H2 H 0.2890 0.7343 0.8699
N2 N 0.5337(4) 0.71895(14) 0.7454(2)
H3 H 0.6323 0.7143 0.7101
H4 H 0.4297 0.7142 0.7086
N3 N 0.6982(4) 0.74013(15) 0.9090(2)
H6 H 0.7967 0.7355 0.8737
H7 H 0.7037 0.7495 0.9810
C7 C 0.5419(4) 0.73302(14) 0.8538(3)
C8 C 0.5431(5) 0.4453(2) 0.9413(3)
C9 C 0.6295(5) 0.44455(19) 0.8396(3)
C10 C 0.6882(5) 0.50347(19) 0.7978(3)
H11 H 0.7455 0.5035 0.7291
C11 C 0.6665(6) 0.5619(2) 0.8523(4)
H12 H 0.7100 0.6013 0.8220
C12 C 0.5827(6) 0.5630(2) 0.9495(4)
H13 H 0.5646 0.6031 0.9871
C13 C 0.5240(5) 0.5050(3) 0.9933(4)
H14 H 0.4678 0.5062 1.0624
C14 C 0.4797(7) 0.3829(3) 0.9921(6)
H15 H 0.4334 0.3923 1.0653
H16 H 0.5792 0.3522 1.0016
H17 H 0.3853 0.3637 0.9425
C15 C 0.6563(8) 0.3820(2) 0.7758(5)
H18 H 0.7051 0.3922 0.7036
H19 H 0.5418 0.3596 0.7628
H20 H 0.7392 0.3537 0.8195
loop_
_geom_bond_atom_site_label_1
_geom_bond_atom_site_label_2
_geom_bond_site_symmetry_1
_geom_bond_site_symmetry_2
Br1 C4 1_555 1_555
S1 O1 1_555 1_555
N1 H1 1_555 1_555
H2 N1 1_555 1_555
C1 S1 1_555 1_555
O2 S1 1_555 1_555
N2 H3 1_555 1_555
H4 N2 1_555 1_555
C2 C1 1_555 1_555
H5 C2 1_555 1_555
O3 S1 1_555 1_555
N3 H6 1_555 1_555
H7 N3 1_555 1_555
C3 C2 1_555 1_555
H8 C3 1_555 1_555
C4 C3 1_555 1_555
C5 C4 1_555 1_555
H9 C5 1_555 1_555
C6 C1 1_555 1_555
H10 C6 1_555 1_555
C7 N1 1_555 1_555
C8 C9 1_555 1_555
C9 C10 1_555 1_555
C10 H11 1_555 1_555
C11 C10 1_555 1_555
H12 C11 1_555 1_555
C12 C11 1_555 1_555
H13 C12 1_555 1_555
C13 C8 1_555 1_555
H14 C13 1_555 1_555
C14 C8 1_555 1_555
H15 C14 1_555 1_555
H16 C14 1_555 1_555
H17 C14 1_555 1_555
C15 C9 1_555 1_555
H18 C15 1_555 1_555
H19 C15 1_555 1_555
H20 C15 1_555 1_555
N2 C7 1_555 1_555
N3 C7 1_555 1_555
C5 C6 1_555 1_555
C12 C13 1_555 1_555

#END
