
#######################################################################
#
#                 Cambridge Crystallographic Data Centre
#                                CCDC 
#
#######################################################################
#
# If this CIF has been generated from an entry in the Cambridge 
# Structural Database, then it will include bibliographic, chemical, 
# crystal, experimental, refinement or atomic coordinate data resulting 
# from the CCDC's data processing and validation procedures.
#
#######################################################################

data_MERNUS
_chemical_formula_moiety         'C1 H6 N3 1+,C7 H7 O3 S1 1-,C8 H11 N1'
_chemical_name_systematic        
'Guanidinium (p-tolunesulfonate) (N,N-dimethylaniline) clathrate'
_symmetry_cell_setting           orthorhombic
_symmetry_space_group_name_H-M   'P 21 21 21'
_symmetry_Int_Tables_number      19
_space_group_name_Hall           'P 2ac 2ab'
loop_
_symmetry_equiv_pos_site_id
_symmetry_equiv_pos_as_xyz
1 x,y,z
2 1/2-x,-y,1/2+z
3 1/2+x,1/2-y,-z
4 -x,1/2+y,1/2-z
_cell_length_a                   7.5203(15)
_cell_length_b                   11.978(3)
_cell_length_c                   20.922(4)
_cell_angle_alpha                90
_cell_angle_beta                 90
_cell_angle_gamma                90
_cell_volume                     1884.62
_exptl_crystal_colour            colorless
_exptl_crystal_description       'flat block'
_cell_formula_units_Z            4
loop_
_atom_site_label
_atom_site_type_symbol
_atom_site_fract_x
_atom_site_fract_y
_atom_site_fract_z
S1 S 0.75993(8) 0.11420(4) 0.30489(2)
O1 O 0.7582(2) 0.22963(11) 0.28380(7)
C1 C 0.7695(3) 0.11661(16) 0.38878(10)
O2 O 0.9184(2) 0.05565(14) 0.28311(8)
C2 C 0.6891(3) 0.0329(2) 0.42408(12)
H5 H 0.6267 -0.0256 0.4032
O3 O 0.5984(2) 0.05433(15) 0.28780(9)
C3 C 0.7002(3) 0.0350(2) 0.48957(13)
H8 H 0.6438 -0.0222 0.5136
C4 C 0.7908(3) 0.1180(2) 0.52142(12)
C5 C 0.8713(4) 0.2000(2) 0.48516(14)
H9 H 0.9354 0.2578 0.5061
C6 C 0.8612(3) 0.2000(2) 0.41977(13)
H10 H 0.9173 0.2575 0.3959
C7 C 0.7982(4) 0.1193(3) 0.59327(13)
H11 H 0.6790 0.1059 0.6106
H12 H 0.8412 0.1922 0.6079
H13 H 0.8793 0.0608 0.6082
N1 N 0.1056(2) 0.32243(19) 0.25032(10)
H1 H 0.1044 0.3929 0.2385
H2 H 0.0049 0.2867 0.2566
N2 N 0.4092(2) 0.3238(2) 0.24915(10)
H3 H 0.4085 0.3943 0.2373
H4 H 0.5109 0.2888 0.2547
N3 N 0.2595(3) 0.16456(13) 0.27673(8)
H6 H 0.1588 0.1289 0.2833
H7 H 0.3615 0.1298 0.2822
C8 C 0.2577(3) 0.27056(16) 0.25855(9)
N4 N 0.3032(3) -0.1675(2) 0.42219(11)
C9 C 0.3077(3) -0.1322(2) 0.48494(13)
C10 C 0.2330(4) -0.0309(2) 0.50309(13)
H14 H 0.1752 0.0142 0.4720
C11 C 0.2416(5) 0.0046(2) 0.56492(15)
H15 H 0.1889 0.0740 0.5762
C12 C 0.3249(4) -0.0577(3) 0.61140(16)
H16 H 0.3318 -0.0314 0.6542
C13 C 0.3974(4) -0.1582(3) 0.59464(15)
H17 H 0.4541 -0.2026 0.6263
C14 C 0.3893(3) -0.1960(2) 0.53251(13)
H18 H 0.4398 -0.2663 0.5219
C15 C 0.3828(4) -0.2711(3) 0.40389(15)
H19 H 0.5108 -0.2685 0.4126
H20 H 0.3633 -0.2838 0.3582
H21 H 0.3288 -0.3321 0.4284
C16 C 0.2202(4) -0.0993(3) 0.37402(13)
H22 H 0.0923 -0.0942 0.3825
H23 H 0.2393 -0.1329 0.3319
H24 H 0.2725 -0.0243 0.3748
loop_
_geom_bond_atom_site_label_1
_geom_bond_atom_site_label_2
_geom_bond_site_symmetry_1
_geom_bond_site_symmetry_2
S1 O1 1_555 1_555
N1 H1 1_555 1_555
H2 N1 1_555 1_555
C1 S1 1_555 1_555
O2 S1 1_555 1_555
N2 H3 1_555 1_555
H4 N2 1_555 1_555
C2 C1 1_555 1_555
H5 C2 1_555 1_555
O3 S1 1_555 1_555
N3 H6 1_555 1_555
H7 N3 1_555 1_555
C3 C2 1_555 1_555
H8 C3 1_555 1_555
N4 C9 1_555 1_555
C4 C3 1_555 1_555
C5 C4 1_555 1_555
H9 C5 1_555 1_555
C6 C1 1_555 1_555
H10 C6 1_555 1_555
C7 C4 1_555 1_555
H11 C7 1_555 1_555
H12 C7 1_555 1_555
H13 C7 1_555 1_555
C8 N1 1_555 1_555
C9 C10 1_555 1_555
C10 H14 1_555 1_555
C11 C10 1_555 1_555
H15 C11 1_555 1_555
C12 C11 1_555 1_555
H16 C12 1_555 1_555
C13 C12 1_555 1_555
H17 C13 1_555 1_555
C14 C9 1_555 1_555
H18 C14 1_555 1_555
C15 N4 1_555 1_555
H19 C15 1_555 1_555
H20 C15 1_555 1_555
H21 C15 1_555 1_555
C16 N4 1_555 1_555
H22 C16 1_555 1_555
H23 C16 1_555 1_555
H24 C16 1_555 1_555
N2 C8 1_555 1_555
N3 C8 1_555 1_555
C5 C6 1_555 1_555
C13 C14 1_555 1_555

#END
