
#######################################################################
#
#                 Cambridge Crystallographic Data Centre
#                                CCDC 
#
#######################################################################
#
# If this CIF has been generated from an entry in the Cambridge 
# Structural Database, then it will include bibliographic, chemical, 
# crystal, experimental, refinement or atomic coordinate data resulting 
# from the CCDC's data processing and validation procedures.
#
#######################################################################

data_MERNAY
_chemical_formula_moiety         'C1 H6 N3 1+,C6 H4 Br1 O3 S1 1-,C8 H10'
_chemical_name_systematic        
'Guanidinium (4-bromobenzenesulfonate) (p-xylene) clathrate'
_symmetry_cell_setting           monoclinic
_symmetry_space_group_name_H-M   'P 21/n'
_symmetry_Int_Tables_number      14
_space_group_name_Hall           '-P 2yn'
loop_
_symmetry_equiv_pos_site_id
_symmetry_equiv_pos_as_xyz
1 x,y,z
2 1/2+x,1/2-y,1/2+z
3 -x,-y,-z
4 1/2-x,1/2+y,1/2-z
_cell_length_a                   7.5357(5)
_cell_length_b                   20.8086(14)
_cell_length_c                   11.6326(8)
_cell_angle_alpha                90
_cell_angle_beta                 91.4630(10)
_cell_angle_gamma                90
_cell_volume                     1823.48
_exptl_crystal_colour            colorless
_exptl_crystal_description       'flat block'
_cell_formula_units_Z            4
loop_
_atom_site_label
_atom_site_type_symbol
_atom_site_fract_x
_atom_site_fract_y
_atom_site_fract_z
Br1 Br 0.07844(4) 0.122068(15) 0.78547(4)
S1 S -0.06589(8) -0.17934(3) 0.71874(6)
C1 C 0.0331(3) 0.03303(13) 0.7660(3)
C2 C -0.0347(3) -0.09595(13) 0.7391(2)
O1 O -0.0710(2) -0.20785(8) 0.83264(15)
C4 C -0.0931(3) -0.05258(14) 0.6550(2)
H5 H -0.1566 -0.0674 0.5886
O2 O 0.0882(2) -0.20109(9) 0.65570(15)
O3 O -0.2303(2) -0.18744(9) 0.65224(15)
C5 C -0.0580(3) 0.01198(14) 0.6691(3)
H8 H -0.0966 0.0419 0.6121
C6 C 0.0565(3) -0.07402(13) 0.8367(2)
H9 H 0.0950 -0.1037 0.8942
C7 C 0.0913(3) -0.00936(13) 0.8505(2)
H10 H 0.1543 0.0058 0.9169
C3 C -0.0644(3) -0.26497(12) 0.3725(2)
N1 N -0.2159(3) -0.25082(10) 0.42288(18)
H1 H -0.2142 -0.2346 0.4928
H2 H -0.3179 -0.2577 0.3864
N2 N 0.0884(3) -0.25466(10) 0.42750(18)
H3 H 0.1888 -0.2641 0.3943
H4 H 0.0898 -0.2384 0.4974
N3 N -0.0671(3) -0.28940(10) 0.26749(18)
H6 H 0.0331 -0.2988 0.2341
H7 H -0.1691 -0.2962 0.2310
C8 C 0.4156(3) 0.00370(14) 0.1023(2)
H11 H 0.3568 0.0069 0.1734
C12 C 0.4561(3) -0.05654(13) 0.0599(2)
C13 C 0.4585(4) 0.05938(14) 0.0440(2)
H14 H 0.4290 0.1000 0.0756
C15 C 0.4077(4) -0.11717(14) 0.1230(3)
H18 H 0.3539 -0.1059 0.1961
H19 H 0.5148 -0.1428 0.1379
H20 H 0.3228 -0.1421 0.0759
C13B C 0.5415(4) -0.05938(14) -0.0440(2)
C8B C 0.5844(3) -0.00370(14) -0.1023(2)
H11B H 0.6432 -0.0069 -0.1734
C12B C 0.5439(3) 0.05654(13) -0.0599(2)
C15B C 0.5923(4) 0.11717(14) -0.1230(3)
H18B H 0.6461 0.1059 -0.1961
H19B H 0.4852 0.1428 -0.1379
H20B H 0.6772 0.1421 -0.0759
H14B H 0.5710 -0.1000 -0.0756
C9 C 0.4630(3) -0.06604(13) 0.4827(2)
C10 C 0.5607(3) -0.03120(14) 0.4051(2)
H12 H 0.6036 -0.0521 0.3387
C11 C 0.4025(3) -0.03329(14) 0.5782(2)
H13 H 0.3345 -0.0556 0.6331
C14 C 0.4214(4) -0.13578(14) 0.4644(3)
H15 H 0.4714 -0.1501 0.3918
H16 H 0.2924 -0.1418 0.4615
H17 H 0.4733 -0.1610 0.5280
C11B C 0.5975(3) 0.03329(14) 0.4218(2)
C9B C 0.5370(3) 0.06604(13) 0.5173(2)
C10B C 0.4393(3) 0.03120(14) 0.5949(2)
H12B H 0.3964 0.0521 0.6613
C14B C 0.5786(4) 0.13578(14) 0.5356(3)
H15B H 0.5286 0.1501 0.6082
H16B H 0.7076 0.1418 0.5385
H17B H 0.5267 0.1610 0.4720
H13B H 0.6655 0.0556 0.3669
loop_
_geom_bond_atom_site_label_1
_geom_bond_atom_site_label_2
_geom_bond_site_symmetry_1
_geom_bond_site_symmetry_2
Br1 C1 1_555 1_555
S1 C2 1_555 1_555
C1 C5 1_555 1_555
C2 C4 1_555 1_555
C3 N1 1_555 1_555
N1 H1 1_555 1_555
H2 N1 1_555 1_555
O1 S1 1_555 1_555
N2 C3 1_555 1_555
H3 N2 1_555 1_555
H4 N2 1_555 1_555
C4 H5 1_555 1_555
N3 C3 1_555 1_555
H6 N3 1_555 1_555
H7 N3 1_555 1_555
O2 S1 1_555 1_555
O3 S1 1_555 1_555
C5 C4 1_555 1_555
H8 C5 1_555 1_555
C6 C2 1_555 1_555
H9 C6 1_555 1_555
C7 C1 1_555 1_555
H10 C7 1_555 1_555
C8 H11 1_555 1_555
C9 C10 1_555 1_555
C10 H12 1_555 1_555
C11 C9 1_555 1_555
H13 C11 1_555 1_555
C12 C8 1_555 1_555
C13 C8 1_555 1_555
H14 C13 1_555 1_555
C14 C9 1_555 1_555
H15 C14 1_555 1_555
H16 C14 1_555 1_555
H17 C14 1_555 1_555
C15 C12 1_555 1_555
H18 C15 1_555 1_555
H19 C15 1_555 1_555
H20 C15 1_555 1_555
C13B C12 1_555 1_555
C8B C13B 1_555 1_555
H11B C8B 1_555 1_555
C12B C13 1_555 1_555
C15B C12B 1_555 1_555
H18B C15B 1_555 1_555
H19B C15B 1_555 1_555
H20B C15B 1_555 1_555
H14B C13B 1_555 1_555
C11B C10 1_555 1_555
C9B C11B 1_555 1_555
C10B C11 1_555 1_555
H12B C10B 1_555 1_555
C14B C9B 1_555 1_555
H15B C14B 1_555 1_555
H16B C14B 1_555 1_555
H17B C14B 1_555 1_555
H13B C11B 1_555 1_555
C6 C7 1_555 1_555
C8B C12B 1_555 1_555
C9B C10B 1_555 1_555

#END
