
#######################################################################
#
#                 Cambridge Crystallographic Data Centre
#                                CCDC 
#
#######################################################################
#
# If this CIF has been generated from an entry in the Cambridge 
# Structural Database, then it will include bibliographic, chemical, 
# crystal, experimental, refinement or atomic coordinate data resulting 
# from the CCDC's data processing and validation procedures.
#
#######################################################################

data_MERQIM
_chemical_formula_moiety         'C16 H14 S4'
_chemical_name_systematic        
3,4,9,10-tetrahydro-2H,8H-thiopyrano[2,3-b]thiopyrano[3',2':4,5]thieno[2,3-f][1]benzothiophene
_symmetry_cell_setting           monoclinic
_symmetry_space_group_name_H-M   'P 21/a'
_symmetry_Int_Tables_number      14
_space_group_name_Hall           '-P 2yab'
loop_
_symmetry_equiv_pos_site_id
_symmetry_equiv_pos_as_xyz
1 x,y,z
2 1/2-x,1/2+y,-z
3 -x,-y,-z
4 1/2+x,1/2-y,z
_cell_length_a                   8.7379(2)
_cell_length_b                   6.35286(10)
_cell_length_c                   13.4028(3)
_cell_angle_alpha                90
_cell_angle_beta                 90.3908(10)
_cell_angle_gamma                90
_cell_volume                     743.981
_exptl_crystal_colour            yellow
_exptl_crystal_description       platelet
_cell_formula_units_Z            2
loop_
_atom_site_label
_atom_site_type_symbol
_atom_site_fract_x
_atom_site_fract_y
_atom_site_fract_z
S1 S 0.56438(7) 0.23926(8) 0.19148(4)
S2 S 0.42140(7) 0.38006(10) 0.38241(4)
C1 C 0.3929(2) 0.5751(3) 0.19621(15)
C2 C 0.4395(2) 0.5513(3) 0.09422(15)
C3 C 0.5360(2) 0.3740(3) 0.07935(15)
C4 C 0.5963(2) 0.3203(3) -0.01193(15)
H1 H 0.6601 0.2002 -0.0190
C5 C 0.4496(2) 0.4183(3) 0.25505(15)
C6 C 0.2935(3) 0.7496(3) 0.23379(17)
H2 H 0.1865 0.7224 0.2128
H3 H 0.3262 0.8834 0.2026
C7 C 0.2991(4) 0.7742(4) 0.3462(2)
H4 H 0.4001 0.8326 0.3655
H5 H 0.2201 0.8772 0.3663
C8 C 0.2740(4) 0.5744(5) 0.4020(2)
H6 H 0.1742 0.5140 0.3815
H7 H 0.2686 0.6066 0.4742
S1B S 0.43562(7) 0.76074(8) -0.19148(4)
S2B S 0.57860(7) 0.61994(10) -0.38241(4)
C1B C 0.6071(2) 0.4249(3) -0.19621(15)
C2B C 0.5605(2) 0.4487(3) -0.09422(15)
C3B C 0.4640(2) 0.6260(3) -0.07935(15)
C4B C 0.4037(2) 0.6797(3) 0.01193(15)
H1B H 0.3399 0.7998 0.0190
C5B C 0.5504(2) 0.5817(3) -0.25505(15)
C6B C 0.7065(3) 0.2504(3) -0.23379(17)
H2B H 0.8135 0.2776 -0.2128
H3B H 0.6738 0.1166 -0.2026
C7B C 0.7009(4) 0.2258(4) -0.3462(2)
H4B H 0.5999 0.1674 -0.3655
H5B H 0.7799 0.1228 -0.3663
C8B C 0.7260(4) 0.4256(5) -0.4020(2)
H6B H 0.8258 0.4860 -0.3815
H7B H 0.7314 0.3934 -0.4742
loop_
_geom_bond_atom_site_label_1
_geom_bond_atom_site_label_2
_geom_bond_site_symmetry_1
_geom_bond_site_symmetry_2
S1 C3 1_555 1_555
S2 C5 1_555 1_555
C1 C2 1_555 1_555
C2 C3 1_555 1_555
C3 C4 1_555 1_555
C4 H1 1_555 1_555
C5 S1 1_555 1_555
C6 C1 1_555 1_555
H2 C6 1_555 1_555
H3 C6 1_555 1_555
C7 C6 1_555 1_555
H4 C7 1_555 1_555
H5 C7 1_555 1_555
C8 S2 1_555 1_555
H6 C8 1_555 1_555
H7 C8 1_555 1_555
S1B C3B 1_555 1_555
S2B C5B 1_555 1_555
C1B C2B 1_555 1_555
C2B C4 1_555 1_555
C3B C2B 1_555 1_555
C4B C2 1_555 1_555
H1B C4B 1_555 1_555
C5B S1B 1_555 1_555
C6B C1B 1_555 1_555
H2B C6B 1_555 1_555
H3B C6B 1_555 1_555
C7B C6B 1_555 1_555
H4B C7B 1_555 1_555
H5B C7B 1_555 1_555
C8B S2B 1_555 1_555
H6B C8B 1_555 1_555
H7B C8B 1_555 1_555
C1 C5 1_555 1_555
C7 C8 1_555 1_555
C1B C5B 1_555 1_555
C3B C4B 1_555 1_555
C7B C8B 1_555 1_555

#END
