
#######################################################################
#
#                 Cambridge Crystallographic Data Centre
#                                CCDC 
#
#######################################################################
#
# If this CIF has been generated from an entry in the Cambridge 
# Structural Database, then it will include bibliographic, chemical, 
# crystal, experimental, refinement or atomic coordinate data resulting 
# from the CCDC's data processing and validation procedures.
#
#######################################################################

data_MERRAF
_chemical_formula_moiety         'C12 H6 S6'
_chemical_name_systematic        
'[1,3]dithiolo[4,5-b][1,3]dithiolo[4,5]thieno[2,3-f][1]benzothiophene'
_symmetry_cell_setting           monoclinic
_symmetry_space_group_name_H-M   'P 21/n'
_symmetry_Int_Tables_number      14
_space_group_name_Hall           '-P 2yn'
loop_
_symmetry_equiv_pos_site_id
_symmetry_equiv_pos_as_xyz
1 x,y,z
2 1/2-x,1/2+y,1/2-z
3 -x,-y,-z
4 1/2+x,1/2-y,1/2+z
_cell_length_a                   4.03205(8)
_cell_length_b                   21.1574(4)
_cell_length_c                   7.31181(13)
_cell_angle_alpha                90
_cell_angle_beta                 95.8008(12)
_cell_angle_gamma                90
_cell_volume                     620.56
_exptl_crystal_colour            brown
_exptl_crystal_description       block
_cell_formula_units_Z            2
loop_
_atom_site_label
_atom_site_type_symbol
_atom_site_fract_x
_atom_site_fract_y
_atom_site_fract_z
S1 S 0.0505(3) -0.21575(7) 1.21049(19)
S2 S 0.2994(3) -0.13843(6) 0.88916(18)
S3 S 0.1072(3) -0.09671(7) 1.43674(18)
C1 C 0.4283(12) 0.0203(2) 1.1799(7)
H1 H 0.3831 0.0336 1.2990
C2 C -0.0876(13) -0.1740(3) 1.4082(7)
H2 H -0.3328 -0.1689 1.3909
H3 H -0.0308 -0.1994 1.5207
C3 C 0.4221(12) -0.0602(2) 0.9376(7)
C4 C 0.3464(12) -0.0410(3) 1.1143(7)
C5 C 0.1997(12) -0.0922(3) 1.2066(7)
C6 C 0.1656(12) -0.1458(2) 1.1072(7)
S1B S 0.9495(3) 0.21575(7) 0.78951(19)
S2B S 0.7006(3) 0.13843(6) 1.11084(18)
S3B S 0.8928(3) 0.09671(7) 0.56326(18)
C1B C 0.5717(12) -0.0203(2) 0.8201(7)
H1B H 0.6169 -0.0336 0.7010
C2B C 1.0876(13) 0.1740(3) 0.5918(7)
H2B H 1.3328 0.1689 0.6091
H3B H 1.0308 0.1994 0.4793
C3B C 0.5779(12) 0.0602(2) 1.0624(7)
C4B C 0.6536(12) 0.0410(3) 0.8857(7)
C5B C 0.8003(12) 0.0922(3) 0.7934(7)
C6B C 0.8344(12) 0.1458(2) 0.8928(7)
loop_
_geom_bond_atom_site_label_1
_geom_bond_atom_site_label_2
_geom_bond_site_symmetry_1
_geom_bond_site_symmetry_2
S1 C2 1_555 1_555
S2 C3 1_555 1_555
S3 C2 1_555 1_555
C1 H1 1_555 1_555
C2 H2 1_555 1_555
H3 C2 1_555 1_555
C3 C4 1_555 1_555
C4 C1 1_555 1_555
C5 S3 1_555 1_555
C6 S1 1_555 1_555
S1B C2B 1_555 1_555
S2B C3B 1_555 1_555
S3B C2B 1_555 1_555
C1B C3 1_555 1_555
H1B C1B 1_555 1_555
C2B H2B 1_555 1_555
H3B C2B 1_555 1_555
C3B C1 1_555 1_555
C4B C1B 1_555 1_555
C5B S3B 1_555 1_555
C6B S1B 1_555 1_555
S2 C6 1_555 1_555
C4 C5 1_555 1_555
C5 C6 1_555 1_555
S2B C6B 1_555 1_555
C3B C4B 1_555 1_555
C4B C5B 1_555 1_555
C5B C6B 1_555 1_555

#END
