
#######################################################################
#
#                 Cambridge Crystallographic Data Centre
#                                CCDC 
#
#######################################################################
#
# If this CIF has been generated from an entry in the Cambridge 
# Structural Database, then it will include bibliographic, chemical, 
# crystal, experimental, refinement or atomic coordinate data resulting 
# from the CCDC's data processing and validation procedures.
#
#######################################################################

data_MERVAG
_chemical_formula_moiety         '2(C1 H6 N3 1+),C12 H8 O6 S2 2-,3(C12 H12)'
_chemical_name_systematic        
"bis(Guanidinium) (4,4'-biphenyldisulfonate) tris(2,7-dimethylnaphthalene) clathrate"
_symmetry_cell_setting           monoclinic
_symmetry_space_group_name_H-M   'C m'
_symmetry_Int_Tables_number      8
_space_group_name_Hall           'C -2y'
loop_
_symmetry_equiv_pos_site_id
_symmetry_equiv_pos_as_xyz
1 x,y,z
2 x,-y,z
3 1/2+x,1/2+y,z
4 1/2+x,1/2-y,z
_cell_length_a                   13.8540(9)
_cell_length_b                   77.733(5)
_cell_length_c                   7.5814(5)
_cell_angle_alpha                90
_cell_angle_beta                 121.0550(10)
_cell_angle_gamma                90
_cell_volume                     6994.31
_exptl_crystal_colour            colorless
_exptl_crystal_description       prism
_cell_formula_units_Z            6
loop_
_atom_site_label
_atom_site_type_symbol
_atom_site_fract_x
_atom_site_fract_y
_atom_site_fract_z
S1 S 0.89202(8) 0.733923(13) 0.37037(15)
O1 O 0.84635(19) 0.59051(3) 0.3755(3)
C1 C 0.9383(3) 0.62048(4) 0.4306(5)
S2 S 0.95782(7) 0.598241(11) 0.47622(12)
O2 O 1.01830(18) 0.59583(3) 0.6983(3)
C2 C 0.8415(3) 0.62847(5) 0.3970(6)
H5 H 0.7832 0.6218 0.3944
O3 O 1.02439(18) 0.59269(3) 0.3870(3)
C3 C 0.8281(3) 0.64601(5) 0.3670(6)
H8 H 0.7600 0.6512 0.3422
O4 O 0.9522(2) 0.73781(3) 0.5903(4)
C4 C 0.9112(3) 0.65631(5) 0.3721(5)
O5 O 0.7756(2) 0.73949(3) 0.2649(4)
C5 C 1.0071(3) 0.64798(5) 0.4008(7)
H13 H 1.0643 0.6545 0.3985
O6 O 0.9553(2) 0.74026(3) 0.2773(4)
C6 C 1.0217(3) 0.63043(5) 0.4328(7)
H16 H 1.0893 0.6252 0.4564
C7 C 0.9007(3) 0.67521(5) 0.3534(5)
C8 C 0.8068(3) 0.68391(5) 0.3294(6)
H21 H 0.7445 0.6775 0.3130
C9 C 0.8018(3) 0.70171(5) 0.3287(6)
H24 H 0.7368 0.7073 0.3131
C10 C 0.8906(3) 0.71122(5) 0.3506(5)
C11 C 0.9849(3) 0.70296(5) 0.3694(6)
H25 H 1.0467 0.7095 0.3841
C12 C 0.9870(3) 0.68525(5) 0.3665(6)
H26 H 1.0500 0.6797 0.3738
N1 N 0.7610(2) 0.58058(4) 0.6425(4)
H1 H 0.7980 0.5819 0.5776
H2 H 0.6910 0.5768 0.5755
N2 N 0.9157(2) 0.58986(4) 0.9422(4)
H3 H 0.9493 0.5920 1.0749
H4 H 0.9520 0.5914 0.8765
N3 N 0.7555(2) 0.58185(4) 0.9394(4)
H6 H 0.7888 0.5840 1.0721
H7 H 0.6856 0.5781 0.8715
C13 C 0.8109(3) 0.58426(4) 0.8418(5)
S3 S 0.95949(7) 0.931708(10) 0.50470(11)
O7 O 1.01554(18) 0.92531(3) 0.7155(3)
O8 O 0.84222(18) 0.92646(3) 0.3858(3)
O9 O 1.02291(17) 0.92735(3) 0.4054(3)
C15 C 0.9616(3) 0.95439(4) 0.5220(5)
C16 C 0.8739(3) 0.96338(4) 0.5116(6)
H27 H 0.8100 0.9573 0.4941
C17 C 0.8767(3) 0.98096(4) 0.5261(6)
H28 H 0.8151 0.9868 0.5211
C18 C 0.9675(3) 0.99054(4) 0.5480(4)
C19 C 1.0585(3) 0.98098(4) 0.5651(6)
H29 H 1.1239 0.9869 0.5874
C20 C 1.0546(3) 0.96341(4) 0.5504(6)
H30 H 1.1167 0.9573 0.5599
C18A C 0.9675(3) 1.00946(4) 0.5480(4)
C17A C 0.8767(3) 1.01904(4) 0.5261(6)
C16A C 0.8739(3) 1.03662(4) 0.5116(6)
C15A C 0.9616(3) 1.04561(4) 0.5220(5)
S3A S 0.95949(7) 1.068292(10) 0.50470(11)
O7A O 1.01554(18) 1.07469(3) 0.7155(3)
O8A O 0.84222(18) 1.07354(3) 0.3858(3)
O9A O 1.02291(17) 1.07265(3) 0.4054(3)
C20A C 1.0546(3) 1.03659(4) 0.5504(6)
C19A C 1.0585(3) 1.01902(4) 0.5651(6)
H29A H 1.1239 1.0131 0.5874
H30A H 1.1167 1.0427 0.5599
H27A H 0.8100 1.0427 0.4941
H28A H 0.8151 1.0132 0.5211
N4 N 0.6912(3) 0.75088(4) 0.5325(5)
H9 H 0.7272 0.7491 0.4665
H10 H 0.6216 0.7548 0.4656
N5 N 0.8455(3) 0.74190(4) 0.8354(5)
H11 H 0.8827 0.7401 0.7719
H12 H 0.8779 0.7398 0.9682
N6 N 0.6858(3) 0.75055(4) 0.8301(5)
H14 H 0.7186 0.7485 0.9630
H15 H 0.6162 0.7544 0.7615
C14 C 0.7418(3) 0.74770(4) 0.7321(6)
N7 N 0.7627(2) 0.91313(3) 0.6619(4)
H17 H 0.8011 0.9145 0.5999
H18 H 0.6925 0.9095 0.5916
N8 N 0.9159(2) 0.92187(4) 0.9678(4)
H19 H 0.9482 0.9239 1.1007
H20 H 0.9539 0.9235 0.9054
N9 N 0.7524(2) 0.91398(3) 0.9552(4)
H22 H 0.7840 0.9159 1.0880
H23 H 0.6823 0.9104 0.8836
C21 C 0.8109(3) 0.91647(4) 0.8625(5)
C22 C 0.5409(3) 0.68085(5) 0.4063(5)
H31 H 0.4709 0.6795 0.2812
C23 C 0.5803(3) 0.69716(5) 0.4787(6)
C24 C 0.6822(3) 0.69890(5) 0.6656(6)
H32 H 0.7090 0.7101 0.7174
C25 C 0.7444(3) 0.68500(6) 0.7761(6)
H33 H 0.8135 0.6866 0.9022
C26 C 0.7666(3) 0.65329(5) 0.8102(6)
H34 H 0.8358 0.6545 0.9371
C27 C 0.7282(3) 0.63727(6) 0.7363(6)
H35 H 0.7710 0.6275 0.8108
C28 C 0.6238(3) 0.63502(5) 0.5468(6)
C29 C 0.5644(3) 0.64923(5) 0.4421(6)
H36 H 0.4948 0.6478 0.3164
C30 C 0.6025(3) 0.66614(4) 0.5137(5)
C31 C 0.7057(3) 0.66824(5) 0.7021(5)
C32 C 0.5137(4) 0.71285(5) 0.3620(7)
H37 H 0.5004 0.7201 0.4530
H38 H 0.4413 0.7093 0.2437
H39 H 0.5562 0.7194 0.3136
C33 C 0.5815(4) 0.61717(5) 0.4685(7)
H40 H 0.5095 0.6179 0.3377
H41 H 0.5708 0.6109 0.5695
H42 H 0.6366 0.6111 0.4474
C34 C 0.7271(3) 0.81564(5) 0.2613(6)
H43 H 0.7965 0.8139 0.3862
C35 C 0.6646(4) 0.80168(5) 0.1495(7)
C36 C 0.5615(4) 0.80470(5) -0.0378(6)
H44 H 0.5179 0.7952 -0.1179
C37 C 0.5242(3) 0.82090(5) -0.1046(6)
H45 H 0.4543 0.8225 -0.2293
C38 C 0.5512(3) 0.85240(5) -0.0605(6)
H46 H 0.4818 0.8543 -0.1850
C39 C 0.6152(4) 0.86609(5) 0.0504(6)
H47 H 0.5901 0.8774 0.0004
C40 C 0.7180(3) 0.86380(5) 0.2382(6)
C41 C 0.7540(3) 0.84735(5) 0.3070(6)
H48 H 0.8231 0.8457 0.4329
C42 C 0.6897(3) 0.83262(4) 0.1935(5)
C43 C 0.5867(3) 0.83539(5) 0.0068(5)
C44 C 0.7028(4) 0.78349(6) 0.2134(8)
H49 H 0.7308 0.7788 0.1281
H50 H 0.6394 0.7765 0.1953
H51 H 0.7633 0.7833 0.3584
C45 C 0.7846(4) 0.87929(5) 0.3539(7)
H52 H 0.7936 0.8869 0.2604
H53 H 0.8589 0.8757 0.4664
H54 H 0.7448 0.8854 0.4106
C46 C 0.9914(3) 0.81560(5) 0.8600(5)
H55 H 1.0629 0.8148 0.8713
C47 C 0.9336(3) 0.80076(5) 0.8386(6)
C48 C 0.8262(4) 0.80228(6) 0.8208(6)
H56 H 0.7838 0.7922 0.8048
C49 C 0.7834(3) 0.81785(6) 0.8263(6)
H57 H 0.7117 0.8184 0.8140
C50 C 0.8017(3) 0.84958(6) 0.8584(6)
H58 H 0.7301 0.8506 0.8461
C51 C 0.8635(4) 0.86397(6) 0.8841(6)
H59 H 0.8344 0.8749 0.8912
C52 C 0.9711(3) 0.86316(5) 0.9006(6)
C53 C 1.0100(3) 0.84743(5) 0.8904(5)
H60 H 1.0810 0.8467 0.8998
C54 C 0.9501(3) 0.83193(5) 0.8662(5)
C55 C 0.8432(3) 0.83316(5) 0.8498(5)
C56 C 0.9802(4) 0.78341(6) 0.8346(7)
H61 H 0.9275 0.7775 0.7062
H62 H 0.9909 0.7766 0.9520
H63 H 1.0528 0.7848 0.8432
C57 C 1.0369(4) 0.87949(5) 0.9286(7)
H64 H 1.1099 0.8766 0.9449
H65 H 1.0488 0.8856 1.0515
H66 H 0.9945 0.8869 0.8075
C58 C 0.6293(3) 0.51614(6) 0.1432(6)
H67 H 0.5600 0.5163 0.0153
C59 C 0.6796(4) 0.53137(5) 0.2335(6)
C60 C 0.7823(3) 0.53105(5) 0.4260(6)
H68 H 0.8179 0.5416 0.4900
C61 C 0.8304(3) 0.51595(4) 0.5202(6)
H69 H 0.8984 0.5161 0.6504
C62 C 0.7809(4) 0.5000 0.4273(7)
C63 C 0.6773(4) 0.5000 0.2343(7)
C64 C 0.6291(5) 0.54821(6) 0.1336(8)
H70 H 0.5510 0.5464 0.0225
H71 H 0.6725 0.5531 0.0767
H72 H 0.6309 0.5561 0.2360
C61A C 0.8304(3) 0.48405(4) 0.5202(6)
C60A C 0.7823(3) 0.46895(5) 0.4260(6)
C59A C 0.6796(4) 0.46863(5) 0.2335(6)
C58A C 0.6293(3) 0.48386(6) 0.1432(6)
H67A H 0.5600 0.4837 0.0153
C64A C 0.6291(5) 0.45179(6) 0.1336(8)
H70A H 0.5510 0.4536 0.0225
H71A H 0.6725 0.4469 0.0767
H72A H 0.6309 0.4439 0.2360
H68A H 0.8179 0.4584 0.4900
H69A H 0.8984 0.4839 0.6504
C65 C 0.5737(3) 0.98395(5) 0.0725(5)
H73 H 0.6457 0.9838 0.0854
C66 C 0.5222(3) 0.96865(5) 0.0611(6)
C67 C 0.4169(4) 0.96877(6) 0.0446(6)
H74 H 0.3808 0.9582 0.0380
C68 C 0.3652(3) 0.98397(6) 0.0380(6)
H75 H 0.2936 0.9838 0.0264
C69 C 0.4164(4) 1.0000 0.0480(8)
C70 C 0.5236(4) 1.0000 0.0659(8)
C71 C 0.5732(4) 0.95162(6) 0.0586(8)
H76 H 0.6496 0.9535 0.0851
H77 H 0.5269 0.9462 -0.0765
H78 H 0.5764 0.9441 0.1654
C68A C 0.3652(3) 1.01603(6) 0.0380(6)
C67A C 0.4169(4) 1.03123(6) 0.0446(6)
C66A C 0.5222(3) 1.03135(5) 0.0611(6)
C65A C 0.5737(3) 1.01605(5) 0.0725(5)
H73A H 0.6457 1.0162 0.0854
C71A C 0.5732(4) 1.04838(6) 0.0586(8)
H76A H 0.6496 1.0465 0.0851
H77A H 0.5269 1.0538 -0.0765
H78A H 0.5764 1.0559 0.1654
H74A H 0.3808 1.0418 0.0380
H75A H 0.2936 1.0162 0.0264
C72 C 0.6176(3) 0.98405(5) 0.6078(6)
H79 H 0.5467 0.9841 0.4828
C73 C 0.6658(4) 0.96871(5) 0.6953(6)
C74 C 0.7728(4) 0.96907(7) 0.8812(7)
H80 H 0.8086 0.9585 0.9432
C75 C 0.8246(3) 0.98385(6) 0.9715(7)
H81 H 0.8956 0.9835 1.0961
C76 C 0.7761(4) 1.0000 0.8855(8)
C77 C 0.6696(4) 1.0000 0.6971(7)
C78 C 0.6073(4) 0.95192(5) 0.5960(7)
H82 H 0.5293 0.9542 0.4875
H83 H 0.6078 0.9444 0.7003
H84 H 0.6470 0.9463 0.5361
C75A C 0.8246(3) 1.01615(6) 0.9715(7)
C74A C 0.7728(4) 1.03093(7) 0.8812(7)
C73A C 0.6658(4) 1.03129(5) 0.6953(6)
C72A C 0.6176(3) 1.01595(5) 0.6078(6)
H79A H 0.5467 1.0159 0.4828
C78A C 0.6073(4) 1.04808(5) 0.5960(7)
H82A H 0.5293 1.0458 0.4875
H83A H 0.6078 1.0556 0.7003
H84A H 0.6470 1.0537 0.5361
H80A H 0.8086 1.0415 0.9432
H81A H 0.8956 1.0165 1.0961
loop_
_geom_bond_atom_site_label_1
_geom_bond_atom_site_label_2
_geom_bond_site_symmetry_1
_geom_bond_site_symmetry_2
S1 O4 1_555 1_555
O1 S2 1_555 1_555
N1 H1 1_555 1_555
H2 N1 1_555 1_555
C1 S2 1_555 1_555
S2 O2 1_555 1_555
N2 H3 1_555 1_555
H4 N2 1_555 1_555
C2 C1 1_555 1_555
H5 C2 1_555 1_555
S3 O7 1_555 1_555
O3 S2 1_555 1_555
N3 H6 1_555 1_555
H7 N3 1_555 1_555
C3 C2 1_555 1_555
H8 C3 1_555 1_555
N4 H9 1_555 1_555
H10 N4 1_555 1_555
C4 C3 1_555 1_555
O5 S1 1_555 1_555
N5 H11 1_555 1_555
H12 N5 1_555 1_555
C5 C4 1_555 1_555
H13 C5 1_555 1_555
O6 S1 1_555 1_555
N6 H14 1_555 1_555
H15 N6 1_555 1_555
C6 C1 1_555 1_555
H16 C6 1_555 1_555
N7 H17 1_555 1_555
H18 N7 1_555 1_555
C7 C4 1_555 1_555
O8 S3 1_555 1_555
N8 H19 1_555 1_555
H20 N8 1_555 1_555
C8 C7 1_555 1_555
H21 C8 1_555 1_555
O9 S3 1_555 1_555
N9 H22 1_555 1_555
H23 N9 1_555 1_555
C9 C8 1_555 1_555
H24 C9 1_555 1_555
C10 S1 1_555 1_555
C11 C10 1_555 1_555
H25 C11 1_555 1_555
C12 C7 1_555 1_555
H26 C12 1_555 1_555
C13 N1 1_555 1_555
C14 N4 1_555 1_555
C15 S3 1_555 1_555
C16 C15 1_555 1_555
H27 C16 1_555 1_555
C17 C16 1_555 1_555
H28 C17 1_555 1_555
C18 C17 1_555 1_555
C19 C18 1_555 1_555
H29 C19 1_555 1_555
C20 C15 1_555 1_555
H30 C20 1_555 1_555
C21 N7 1_555 1_555
C22 H31 1_555 1_555
C23 C22 1_555 1_555
C24 C23 1_555 1_555
H32 C24 1_555 1_555
C25 C24 1_555 1_555
H33 C25 1_555 1_555
C26 H34 1_555 1_555
C27 C26 1_555 1_555
H35 C27 1_555 1_555
C28 C27 1_555 1_555
C29 C28 1_555 1_555
H36 C29 1_555 1_555
C30 C22 1_555 1_555
C31 C25 1_555 1_555
C32 C23 1_555 1_555
H37 C32 1_555 1_555
H38 C32 1_555 1_555
H39 C32 1_555 1_555
C33 C28 1_555 1_555
H40 C33 1_555 1_555
H41 C33 1_555 1_555
H42 C33 1_555 1_555
C34 H43 1_555 1_555
C35 C34 1_555 1_555
C36 C35 1_555 1_555
H44 C36 1_555 1_555
C37 C36 1_555 1_555
H45 C37 1_555 1_555
C38 H46 1_555 1_555
C39 C38 1_555 1_555
H47 C39 1_555 1_555
C40 C39 1_555 1_555
C41 C40 1_555 1_555
H48 C41 1_555 1_555
C42 C34 1_555 1_555
C43 C37 1_555 1_555
C44 C35 1_555 1_555
H49 C44 1_555 1_555
H50 C44 1_555 1_555
H51 C44 1_555 1_555
C45 C40 1_555 1_555
H52 C45 1_555 1_555
H53 C45 1_555 1_555
H54 C45 1_555 1_555
C46 H55 1_555 1_555
C47 C46 1_555 1_555
C48 C47 1_555 1_555
H56 C48 1_555 1_555
C49 C48 1_555 1_555
H57 C49 1_555 1_555
C50 H58 1_555 1_555
C51 C50 1_555 1_555
H59 C51 1_555 1_555
C52 C51 1_555 1_555
C53 C52 1_555 1_555
H60 C53 1_555 1_555
C54 C46 1_555 1_555
C55 C49 1_555 1_555
C56 C47 1_555 1_555
H61 C56 1_555 1_555
H62 C56 1_555 1_555
H63 C56 1_555 1_555
C57 C52 1_555 1_555
H64 C57 1_555 1_555
H65 C57 1_555 1_555
H66 C57 1_555 1_555
C58 H67 1_555 1_555
C59 C58 1_555 1_555
C60 C59 1_555 1_555
H68 C60 1_555 1_555
C61 C60 1_555 1_555
H69 C61 1_555 1_555
C62 C61 1_555 1_555
C63 C58 1_555 1_555
C64 C59 1_555 1_555
H70 C64 1_555 1_555
H71 C64 1_555 1_555
H72 C64 1_555 1_555
C65 H73 1_555 1_555
C66 C65 1_555 1_555
C67 C66 1_555 1_555
H74 C67 1_555 1_555
C68 C67 1_555 1_555
H75 C68 1_555 1_555
C69 C68 1_555 1_555
C70 C65 1_555 1_555
C71 C66 1_555 1_555
H76 C71 1_555 1_555
H77 C71 1_555 1_555
H78 C71 1_555 1_555
C72 H79 1_555 1_555
C73 C72 1_555 1_555
C74 C73 1_555 1_555
H80 C74 1_555 1_555
C75 C74 1_555 1_555
H81 C75 1_555 1_555
C76 C75 1_555 1_555
C77 C72 1_555 1_555
C78 C73 1_555 1_555
H82 C78 1_555 1_555
H83 C78 1_555 1_555
H84 C78 1_555 1_555
C18A C18 1_555 1_555
C17A C18A 1_555 1_555
C16A C17A 1_555 1_555
C15A C16A 1_555 1_555
S3A C15A 1_555 1_555
O7A S3A 1_555 1_555
O8A S3A 1_555 1_555
O9A S3A 1_555 1_555
C20A C15A 1_555 1_555
C19A C18A 1_555 1_555
H29A C19A 1_555 1_555
H30A C20A 1_555 1_555
H27A C16A 1_555 1_555
H28A C17A 1_555 1_555
C61A C62 1_555 1_555
C60A C61A 1_555 1_555
C59A C60A 1_555 1_555
C58A C63 1_555 1_555
H67A C58A 1_555 1_555
C64A C59A 1_555 1_555
H70A C64A 1_555 1_555
H71A C64A 1_555 1_555
H72A C64A 1_555 1_555
H68A C60A 1_555 1_555
H69A C61A 1_555 1_555
C68A C69 1_555 1_555
C67A C68A 1_555 1_555
C66A C67A 1_555 1_555
C65A C70 1_555 1_555
H73A C65A 1_555 1_555
C71A C66A 1_555 1_555
H76A C71A 1_555 1_555
H77A C71A 1_555 1_555
H78A C71A 1_555 1_555
H74A C67A 1_555 1_555
H75A C68A 1_555 1_555
C75A C76 1_555 1_555
C74A C75A 1_555 1_555
C73A C74A 1_555 1_555
C72A C77 1_555 1_555
H79A C72A 1_555 1_555
C78A C73A 1_555 1_555
H82A C78A 1_555 1_555
H83A C78A 1_555 1_555
H84A C78A 1_555 1_555
H80A C74A 1_555 1_555
H81A C75A 1_555 1_555
N2 C13 1_555 1_555
N3 C13 1_555 1_555
N5 C14 1_555 1_555
C5 C6 1_555 1_555
N6 C14 1_555 1_555
N8 C21 1_555 1_555
N9 C21 1_555 1_555
C9 C10 1_555 1_555
C11 C12 1_555 1_555
C19 C20 1_555 1_555
C26 C31 1_555 1_555
C29 C30 1_555 1_555
C30 C31 1_555 1_555
C38 C43 1_555 1_555
C41 C42 1_555 1_555
C42 C43 1_555 1_555
C50 C55 1_555 1_555
C53 C54 1_555 1_555
C54 C55 1_555 1_555
C62 C63 1_555 1_555
C69 C70 1_555 1_555
C76 C77 1_555 1_555
C20A C19A 1_555 1_555
C59A C58A 1_555 1_555
C66A C65A 1_555 1_555
C73A C72A 1_555 1_555

#END
