
#######################################################################
#
#                 Cambridge Crystallographic Data Centre
#                                CCDC 
#
#######################################################################
#
# If this CIF has been generated from an entry in the Cambridge 
# Structural Database, then it will include bibliographic, chemical, 
# crystal, experimental, refinement or atomic coordinate data resulting 
# from the CCDC's data processing and validation procedures.
#
#######################################################################

data_MERZUH
_chemical_name_common            
2,4-diphenyl[1,3,5]triazino[1,2-a]benzimidazole
_chemical_formula_moiety         'C21 H14 N4'
_chemical_name_systematic        
2,4-diphenylbenzo[4,5]imidazo[1,2-a][1,3,5]triazine
_symmetry_cell_setting           monoclinic
_symmetry_space_group_name_H-M   'P 21/c'
_symmetry_Int_Tables_number      14
_space_group_name_Hall           '-P 2ybc'
loop_
_symmetry_equiv_pos_site_id
_symmetry_equiv_pos_as_xyz
1 x,y,z
2 -x,1/2+y,1/2-z
3 -x,-y,-z
4 x,1/2-y,1/2+z
_cell_length_a                   9.2524(4)
_cell_length_b                   10.4299(4)
_cell_length_c                   16.4691(7)
_cell_angle_alpha                90
_cell_angle_beta                 97.527(2)
_cell_angle_gamma                90
_cell_volume                     1575.6
_exptl_crystal_colour            yellow
_exptl_crystal_description       block
_chemical_melting_point          '523-524 K'
_cell_formula_units_Z            4
loop_
_atom_site_label
_atom_site_type_symbol
_atom_site_fract_x
_atom_site_fract_y
_atom_site_fract_z
N1 N 0.85721(16) 0.33603(13) 0.52722(9)
N2 N 0.66680(15) 0.40738(12) 0.42609(9)
N3 N 0.78856(14) 0.54505(12) 0.53060(8)
N4 N 0.59944(15) 0.62730(12) 0.43886(8)
C1 C 1.1122(2) 0.4280(2) 0.70974(12)
H1 H 1.1859 0.3962 0.7483
C2 C 1.0474(2) 0.34855(17) 0.64988(12)
H2 H 1.0753 0.2631 0.6477
C3 C 0.93821(19) 0.39887(16) 0.59204(10)
C4 C 0.76898(19) 0.42324(14) 0.49188(10)
C5 C 0.58697(17) 0.50783(15) 0.40258(10)
C6 C 0.47601(18) 0.49701(15) 0.32986(10)
C7 C 0.4650(2) 0.38521(17) 0.28301(11)
H3 H 0.5252 0.3158 0.2990
C8 C 0.3658(2) 0.37671(19) 0.21327(12)
H4 H 0.3596 0.3017 0.1825
C9 C 0.2765(2) 0.4774(2) 0.18901(13)
H5 H 0.2104 0.4712 0.1415
C10 C 0.89907(18) 0.52852(15) 0.59651(10)
C11 C 0.9631(2) 0.60861(17) 0.65836(11)
H6 H 0.9350 0.6938 0.6618
C12 C 1.0701(2) 0.55578(19) 0.71424(12)
H7 H 1.1157 0.6069 0.7563
C13 C 0.70099(18) 0.64453(14) 0.50080(10)
C14 C 0.71888(17) 0.77538(14) 0.53552(9)
C15 C 0.5979(2) 0.83597(15) 0.55835(11)
H8 H 0.5101 0.7919 0.5566
C16 C 0.6075(2) 0.96239(17) 0.58388(13)
H9 H 0.5269 1.0025 0.6009
C17 C 0.7350(2) 1.02871(17) 0.58422(11)
H10 H 0.7399 1.1146 0.5995
C18 C 0.8558(2) 0.96867(16) 0.56213(11)
H11 H 0.9425 1.0140 0.5628
C19 C 0.84970(19) 0.84163(16) 0.53885(10)
H12 H 0.9326 0.8006 0.5255
C20 C 0.3831(2) 0.59853(17) 0.30495(12)
H13 H 0.3879 0.6736 0.3357
C21 C 0.2840(2) 0.5886(2) 0.23491(13)
H14 H 0.2222 0.6568 0.2186
loop_
_geom_bond_atom_site_label_1
_geom_bond_atom_site_label_2
_geom_bond_site_symmetry_1
_geom_bond_site_symmetry_2
N1 C3 1_555 1_555
N2 C4 1_555 1_555
N3 C4 1_555 1_555
N4 C5 1_555 1_555
C1 H1 1_555 1_555
C2 C1 1_555 1_555
H2 C2 1_555 1_555
C3 C2 1_555 1_555
C4 N1 1_555 1_555
C5 N2 1_555 1_555
C6 C5 1_555 1_555
C7 C6 1_555 1_555
H3 C7 1_555 1_555
C8 C7 1_555 1_555
H4 C8 1_555 1_555
C9 C8 1_555 1_555
H5 C9 1_555 1_555
C10 N3 1_555 1_555
C11 C10 1_555 1_555
H6 C11 1_555 1_555
C12 C1 1_555 1_555
H7 C12 1_555 1_555
C13 N3 1_555 1_555
C14 C13 1_555 1_555
C15 C14 1_555 1_555
H8 C15 1_555 1_555
C16 C15 1_555 1_555
H9 C16 1_555 1_555
C17 C16 1_555 1_555
H10 C17 1_555 1_555
C18 C17 1_555 1_555
H11 C18 1_555 1_555
C19 C14 1_555 1_555
H12 C19 1_555 1_555
C20 C6 1_555 1_555
H13 C20 1_555 1_555
C21 C9 1_555 1_555
H14 C21 1_555 1_555
N4 C13 1_555 1_555
C3 C10 1_555 1_555
C11 C12 1_555 1_555
C18 C19 1_555 1_555
C20 C21 1_555 1_555

#END
