
#######################################################################
#
#                 Cambridge Crystallographic Data Centre
#                                CCDC 
#
#######################################################################
#
# If this CIF has been generated from an entry in the Cambridge 
# Structural Database, then it will include bibliographic, chemical, 
# crystal, experimental, refinement or atomic coordinate data resulting 
# from the CCDC's data processing and validation procedures.
#
#######################################################################

data_MESRAE
_chemical_formula_moiety         'C34 H50 O8,0.5(H2 O1)'
_chemical_name_systematic        
'3,12-diacetoxy-8,9-epoxy-13-hydroxy-8,14-seco-olean-11-en-14,28-carbolactone hemihydrate'
_symmetry_cell_setting           monoclinic
_symmetry_space_group_name_H-M   'C 2'
_symmetry_Int_Tables_number      5
_space_group_name_Hall           'C 2y'
loop_
_symmetry_equiv_pos_site_id
_symmetry_equiv_pos_as_xyz
1 x,y,z
2 -x,y,-z
3 1/2+x,1/2+y,z
4 1/2-x,1/2+y,-z
_cell_length_a                   23.953(7)
_cell_length_b                   9.065(2)
_cell_length_c                   17.382(5)
_cell_angle_alpha                90
_cell_angle_beta                 117.70(2)
_cell_angle_gamma                90
_cell_volume                     3341.67
_cell_formula_units_Z            4
loop_
_atom_site_label
_atom_site_type_symbol
_atom_site_fract_x
_atom_site_fract_y
_atom_site_fract_z
O1 O 0.75921(10) 0.5745(3) 0.33932(15)
O2 O 0.6306(2) 0.2277(4) 0.4461(2)
O3 O 0.62458(17) 0.9604(5) 0.0213(2)
O4 O 0.5836(3) 1.1001(7) 0.0861(3)
O5 O 0.62098(11) 0.2044(3) 0.28417(15)
O6 O 0.70741(17) 0.0592(4) 0.3253(2)
O7 O 0.66100(10) 0.5772(2) 0.36672(15)
H1 H 0.6978 0.5729 0.3758
O8 O 0.5370(2) 0.1292(5) 0.4068(3)
C1 C 0.63623(15) 0.6225(4) 0.1510(2)
H2 H 0.6091 0.5365 0.1368
H3 H 0.6361 0.6702 0.2009
C2 C 0.5647(3) 1.1642(7) -0.0576(4)
H4 H 0.5783 1.1228 -0.0970
H5 H 0.5790 1.2645 -0.0448
H6 H 0.5195 1.1616 -0.0837
C3 C 0.60961(18) 0.7284(5) 0.0746(2)
H7 H 0.6071 0.6800 0.0233
H8 H 0.5674 0.7585 0.0624
C4 C 0.5921(4) 1.0756(9) 0.0254(5)
C5 C 0.6519(2) 0.8617(5) 0.0962(3)
H9 H 0.6528 0.9119 0.1468
C6 C 0.6526(3) 0.0698(5) 0.3027(3)
C7 C 0.6067(2) -0.0483(5) 0.2894(3)
H10 H 0.6271 -0.1424 0.2977
H11 H 0.5726 -0.0423 0.2314
H12 H 0.5907 -0.0371 0.3304
C8 C 0.7190(2) 0.8270(6) 0.1142(3)
C9 C 0.74478(17) 0.7095(5) 0.1874(3)
H13 H 0.7468 0.7599 0.2385
C10 C 0.8130(2) 0.6615(7) 0.2144(4)
H14 H 0.8136 0.6068 0.1668
H15 H 0.8386 0.7491 0.2237
C11 C 0.84270(18) 0.5678(6) 0.2951(3)
H16 H 0.8674 0.6318 0.3440
H17 H 0.8717 0.4998 0.2892
C12 C 0.79838(19) 0.4792(5) 0.3171(3)
C13 C 0.72930(17) 0.4871(4) 0.2603(3)
C14 C 0.70289(16) 0.5730(5) 0.1750(2)
C15 C 0.69029(16) 0.3629(4) 0.2625(2)
H18 H 0.6912 0.2829 0.2296
C16 C 0.65428(17) 0.3386(4) 0.3003(2)
C17 C 0.63654(16) 0.4327(4) 0.3586(2)
C18 C 0.6629(2) 0.3668(5) 0.4521(2)
C19 C 0.6468(2) 0.4710(6) 0.5078(2)
H19 H 0.6630 0.4312 0.5660
H20 H 0.6666 0.5660 0.5118
C20 C 0.5762(2) 0.4903(7) 0.4683(3)
H21 H 0.5653 0.5929 0.4527
H22 H 0.5621 0.4631 0.5105
C21 C 0.5431(2) 0.3927(7) 0.3869(3)
C22 C 0.56335(15) 0.4435(4) 0.3180(2)
H23 H 0.5454 0.3735 0.2696
C23 C 0.53756(14) 0.5939(5) 0.2823(2)
H24 H 0.5495 0.6190 0.2377
H25 H 0.5566 0.6661 0.3286
C24 C 0.46504(18) 0.6038(6) 0.2433(3)
C25 C 0.4466(2) 0.5416(9) 0.3138(4)
H26 H 0.4617 0.6096 0.3624
H27 H 0.4011 0.5375 0.2885
C26 C 0.4728(3) 0.3915(9) 0.3470(4)
H28 H 0.4601 0.3606 0.3899
H29 H 0.4560 0.3213 0.2994
C27 C 0.7570(2) 0.9702(6) 0.1498(3)
H30 H 0.7393 1.0469 0.1070
H31 H 0.8001 0.9538 0.1627
H32 H 0.7554 0.9993 0.2018
C28 C 0.7230(2) 0.7829(7) 0.0315(3)
H33 H 0.6955 0.7006 0.0045
H34 H 0.7655 0.7557 0.0465
H35 H 0.7103 0.8647 -0.0081
C29 C 0.7020(2) 0.4624(6) 0.1073(3)
H36 H 0.6756 0.3802 0.1035
H37 H 0.7441 0.4282 0.1245
H38 H 0.6858 0.5099 0.0517
C30 C 0.8284(2) 0.3518(6) 0.3772(4)
H39 H 0.8611 0.3875 0.4314
H40 H 0.8461 0.2851 0.3515
H41 H 0.7971 0.3012 0.3872
C31 C 0.7318(2) 0.3286(6) 0.4937(3)
H42 H 0.7450 0.2941 0.5518
H43 H 0.7557 0.4147 0.4953
H44 H 0.7387 0.2527 0.4606
C32 C 0.5681(4) 0.2391(8) 0.4149(4)
C33 C 0.43326(17) 0.5106(6) 0.1601(3)
H45 H 0.3883 0.5174 0.1364
H46 H 0.4460 0.4095 0.1735
H47 H 0.4456 0.5466 0.1183
C34 C 0.4458(2) 0.7639(7) 0.2197(5)
H48 H 0.4564 0.7947 0.1753
H49 H 0.4676 0.8247 0.2702
H50 H 0.4011 0.7735 0.1987
O9 O 0.5000 -0.0897(7) 0.5000
H51? H 0.5396 1.2431 -0.0534
H52? H 0.5389 1.1014 -0.1056
H53? H 0.5983 1.2043 -0.0667
loop_
_geom_bond_atom_site_label_1
_geom_bond_atom_site_label_2
_geom_bond_site_symmetry_1
_geom_bond_site_symmetry_2
O1 C12 1_555 1_555
O2 C18 1_555 1_555
O3 C4 1_555 1_555
O4 C4 1_555 1_555
O5 C6 1_555 1_555
O6 C6 1_555 1_555
O7 H1 1_555 1_555
O8 C32 1_555 1_555
C1 H2 1_555 1_555
H3 C1 1_555 1_555
C2 H4 1_555 1_555
H5 C2 1_555 1_555
H6 C2 1_555 1_555
C3 C1 1_555 1_555
H7 C3 1_555 1_555
H8 C3 1_555 1_555
C4 C2 1_555 1_555
C5 O3 1_555 1_555
H9 C5 1_555 1_555
C6 C7 1_555 1_555
C7 H10 1_555 1_555
H11 C7 1_555 1_555
H12 C7 1_555 1_555
C8 C5 1_555 1_555
C9 C8 1_555 1_555
H13 C9 1_555 1_555
C10 C9 1_555 1_555
H14 C10 1_555 1_555
H15 C10 1_555 1_555
C11 C10 1_555 1_555
H16 C11 1_555 1_555
H17 C11 1_555 1_555
C12 C11 1_555 1_555
C13 O1 1_555 1_555
C14 C1 1_555 1_555
C15 C13 1_555 1_555
H18 C15 1_555 1_555
C16 O5 1_555 1_555
C17 O7 1_555 1_555
C18 C17 1_555 1_555
C19 C18 1_555 1_555
H19 C19 1_555 1_555
H20 C19 1_555 1_555
C20 C19 1_555 1_555
H21 C20 1_555 1_555
H22 C20 1_555 1_555
C21 C20 1_555 1_555
C22 C17 1_555 1_555
H23 C22 1_555 1_555
C23 C22 1_555 1_555
H24 C23 1_555 1_555
H25 C23 1_555 1_555
C24 C23 1_555 1_555
C25 C24 1_555 1_555
H26 C25 1_555 1_555
H27 C25 1_555 1_555
C26 C21 1_555 1_555
H28 C26 1_555 1_555
H29 C26 1_555 1_555
C27 C8 1_555 1_555
H30 C27 1_555 1_555
H31 C27 1_555 1_555
H32 C27 1_555 1_555
C28 C8 1_555 1_555
H33 C28 1_555 1_555
H34 C28 1_555 1_555
H35 C28 1_555 1_555
C29 C14 1_555 1_555
H36 C29 1_555 1_555
H37 C29 1_555 1_555
H38 C29 1_555 1_555
C30 C12 1_555 1_555
H39 C30 1_555 1_555
H40 C30 1_555 1_555
H41 C30 1_555 1_555
C31 C18 1_555 1_555
H42 C31 1_555 1_555
H43 C31 1_555 1_555
H44 C31 1_555 1_555
C32 O2 1_555 1_555
C33 C24 1_555 1_555
H45 C33 1_555 1_555
H46 C33 1_555 1_555
H47 C33 1_555 1_555
C34 C24 1_555 1_555
H48 C34 1_555 1_555
H49 C34 1_555 1_555
H50 C34 1_555 1_555
C3 C5 1_555 1_555
C9 C14 1_555 1_555
C12 C13 1_555 1_555
C13 C14 1_555 1_555
C15 C16 1_555 1_555
C16 C17 1_555 1_555
C21 C22 1_555 1_555
C21 C32 1_555 1_555
C25 C26 1_555 1_555

#END
