
#######################################################################
#
#                 Cambridge Crystallographic Data Centre
#                                CCDC 
#
#######################################################################
#
# If this CIF has been generated from an entry in the Cambridge 
# Structural Database, then it will include bibliographic, chemical, 
# crystal, experimental, refinement or atomic coordinate data resulting 
# from the CCDC's data processing and validation procedures.
#
#######################################################################

data_MESRUY
_chemical_formula_moiety         'C35 H52 O7'
_chemical_name_systematic        
'Methyl 3,12-diacetoxy-8,14-seco-olean-8,9-epoxy-11,13-dien-28-oate'
_symmetry_cell_setting           orthorhombic
_symmetry_space_group_name_H-M   'P 21 21 2'
_symmetry_Int_Tables_number      18
_space_group_name_Hall           'P 2 2ab'
loop_
_symmetry_equiv_pos_site_id
_symmetry_equiv_pos_as_xyz
1 x,y,z
2 -x,-y,z
3 1/2-x,1/2+y,-z
4 1/2+x,1/2-y,-z
_cell_length_a                   16.439(2)
_cell_length_b                   22.614(4)
_cell_length_c                   9.124(1)
_cell_angle_alpha                90
_cell_angle_beta                 90
_cell_angle_gamma                90
_cell_volume                     3391.86
_cell_formula_units_Z            4
loop_
_atom_site_label
_atom_site_type_symbol
_atom_site_fract_x
_atom_site_fract_y
_atom_site_fract_z
O1 O 0.6500(2) 0.51252(15) -0.1527(5)
O2 O 0.5865(3) 0.4567(2) -0.3199(6)
O3 O 0.70373(14) 0.29723(10) 0.2239(3)
O4 O 0.53886(16) 0.31387(10) 0.5956(3)
O5 O 0.6467(3) 0.30634(16) 0.7445(4)
O6 O 0.6818(3) 0.17938(14) 0.1187(4)
O7 O 0.5687(3) 0.1924(2) -0.0052(4)
C1 C 0.6142(3) 0.42006(18) 0.1829(6)
H1 H 0.5809 0.4276 0.2686
H2 H 0.5928 0.3851 0.1346
C2 C 0.6075(3) 0.4733(2) 0.0773(7)
H3 H 0.5514 0.4784 0.0469
H4 H 0.6249 0.5091 0.1268
C3 C 0.6597(3) 0.46265(17) -0.0534(5)
H5 H 0.6402 0.4269 -0.1030
C4 C 0.7488(3) 0.45486(18) -0.0202(5)
C5 C 0.7541(2) 0.40371(19) 0.0929(4)
H6 H 0.7335 0.3690 0.0403
C6 C 0.8414(3) 0.3874(3) 0.1344(6)
H7 H 0.8740 0.3852 0.0459
H8 H 0.8638 0.4185 0.1954
C7 C 0.8473(3) 0.3302(3) 0.2141(6)
H9 H 0.8951 0.3318 0.2765
H10 H 0.8566 0.2992 0.1424
C8 C 0.7759(3) 0.3120(2) 0.3077(5)
C9 C 0.7019(2) 0.34856(19) 0.3132(4)
C10 C 0.7002(3) 0.40802(18) 0.2313(5)
C11 C 0.6471(3) 0.34472(17) 0.4426(4)
H11 H 0.6581 0.3711 0.5182
C12 C 0.5852(2) 0.30896(15) 0.4643(4)
C13 C 0.5476(2) 0.26282(13) 0.3677(3)
C14 C 0.4795(2) 0.27432(17) 0.2957(4)
C15 C 0.4377(3) 0.2279(2) 0.2055(4)
H12 H 0.4433 0.2383 0.1028
H13 H 0.3802 0.2285 0.2288
C16 C 0.4689(4) 0.1660(2) 0.2265(5)
H14 H 0.4546 0.1426 0.1412
H15 H 0.4420 0.1486 0.3108
C17 C 0.5601(3) 0.16272(16) 0.2492(4)
C18 C 0.5848(2) 0.20206(14) 0.3776(4)
H16 H 0.6441 0.2068 0.3737
C19 C 0.5639(2) 0.17382(14) 0.5255(4)
H17 H 0.5854 0.1988 0.6027
H18 H 0.5051 0.1733 0.5358
C20 C 0.5957(3) 0.11102(19) 0.5488(6)
C21 C 0.5630(4) 0.07312(18) 0.4233(6)
H19 H 0.5833 0.0331 0.4337
H20 H 0.5041 0.0717 0.4291
C22 C 0.5877(4) 0.09707(16) 0.2746(5)
H21 H 0.5642 0.0723 0.1989
H22 H 0.6464 0.0948 0.2655
C23 C 0.7881(4) 0.5142(2) 0.0276(5)
H23 H 0.7934 0.5397 -0.0560
H24 H 0.8410 0.5067 0.0685
H25 H 0.7544 0.5329 0.0999
C24 C 0.7898(3) 0.4360(2) -0.1634(5)
H26 H 0.7684 0.3985 -0.1940
H27 H 0.8474 0.4327 -0.1483
H28 H 0.7792 0.4651 -0.2378
C25 C 0.7294(5) 0.4547(2) 0.3421(5)
H29 H 0.6832 0.4745 0.3838
H30 H 0.7633 0.4831 0.2931
H31 H 0.7600 0.4358 0.4185
C26 C 0.7962(3) 0.2695(3) 0.4293(6)
H32 H 0.7484 0.2620 0.4868
H33 H 0.8377 0.2863 0.4906
H34 H 0.8155 0.2331 0.3882
C27 C 0.4384(2) 0.33411(18) 0.2967(5)
H35 H 0.4699 0.3612 0.3547
H36 H 0.3849 0.3304 0.3378
H37 H 0.4344 0.3487 0.1982
C28 C 0.6004(5) 0.1814(2) 0.1067(6)
C29 C 0.5605(3) 0.08675(18) 0.6946(5)
H38 H 0.5021 0.0869 0.6900
H39 H 0.5782 0.1113 0.7744
H40 H 0.5794 0.0470 0.7097
C30 C 0.6895(3) 0.1113(2) 0.5594(7)
H41 H 0.7087 0.0715 0.5723
H42 H 0.7060 0.1350 0.6416
H43 H 0.7120 0.1275 0.4711
C31 C 0.6109(4) 0.5047(4) -0.2776(10)
C32 C 0.6108(3) 0.5599(2) -0.3706(7)
H44 H 0.6327 0.5923 -0.3151
H45 H 0.5560 0.5690 -0.3995
H46 H 0.6435 0.5535 -0.4563
C33 C 0.5752(4) 0.3129(2) 0.7282(5)
C34 C 0.5141(3) 0.3203(2) 0.8467(5)
H47 H 0.5334 0.3013 0.9343
H48 H 0.4636 0.3027 0.8171
H49 H 0.5060 0.3617 0.8654
C35 C 0.7287(4) 0.1957(2) -0.0079(5)
H50 H 0.7122 0.1720 -0.0900
H51 H 0.7854 0.1892 0.0115
H52 H 0.7197 0.2367 -0.0298
H53? H 0.5888 0.5510 -0.4655
H54? H 0.6654 0.5742 -0.3811
H55? H 0.5780 0.5897 -0.3243
loop_
_geom_bond_atom_site_label_1
_geom_bond_atom_site_label_2
_geom_bond_site_symmetry_1
_geom_bond_site_symmetry_2
O1 C3 1_555 1_555
O2 C31 1_555 1_555
O3 C8 1_555 1_555
O4 C12 1_555 1_555
O5 C33 1_555 1_555
O6 C28 1_555 1_555
O7 C28 1_555 1_555
C1 H1 1_555 1_555
H2 C1 1_555 1_555
C2 C1 1_555 1_555
H3 C2 1_555 1_555
H4 C2 1_555 1_555
C3 C2 1_555 1_555
H5 C3 1_555 1_555
C4 C3 1_555 1_555
C5 C4 1_555 1_555
H6 C5 1_555 1_555
C6 C5 1_555 1_555
H7 C6 1_555 1_555
H8 C6 1_555 1_555
C7 C6 1_555 1_555
H9 C7 1_555 1_555
H10 C7 1_555 1_555
C8 C7 1_555 1_555
C9 O3 1_555 1_555
C10 C1 1_555 1_555
C11 C9 1_555 1_555
H11 C11 1_555 1_555
C12 C11 1_555 1_555
C13 C12 1_555 1_555
C14 C13 1_555 1_555
C15 C14 1_555 1_555
H12 C15 1_555 1_555
H13 C15 1_555 1_555
C16 C15 1_555 1_555
H14 C16 1_555 1_555
H15 C16 1_555 1_555
C17 C16 1_555 1_555
C18 C13 1_555 1_555
H16 C18 1_555 1_555
C19 C18 1_555 1_555
H17 C19 1_555 1_555
H18 C19 1_555 1_555
C20 C19 1_555 1_555
C21 C20 1_555 1_555
H19 C21 1_555 1_555
H20 C21 1_555 1_555
C22 C17 1_555 1_555
H21 C22 1_555 1_555
H22 C22 1_555 1_555
C23 C4 1_555 1_555
H23 C23 1_555 1_555
H24 C23 1_555 1_555
H25 C23 1_555 1_555
C24 C4 1_555 1_555
H26 C24 1_555 1_555
H27 C24 1_555 1_555
H28 C24 1_555 1_555
C25 C10 1_555 1_555
H29 C25 1_555 1_555
H30 C25 1_555 1_555
H31 C25 1_555 1_555
C26 C8 1_555 1_555
H32 C26 1_555 1_555
H33 C26 1_555 1_555
H34 C26 1_555 1_555
C27 C14 1_555 1_555
H35 C27 1_555 1_555
H36 C27 1_555 1_555
H37 C27 1_555 1_555
C28 C17 1_555 1_555
C29 C20 1_555 1_555
H38 C29 1_555 1_555
H39 C29 1_555 1_555
H40 C29 1_555 1_555
C30 C20 1_555 1_555
H41 C30 1_555 1_555
H42 C30 1_555 1_555
H43 C30 1_555 1_555
C31 O1 1_555 1_555
C32 C31 1_555 1_555
H44 C32 1_555 1_555
H45 C32 1_555 1_555
H46 C32 1_555 1_555
C33 O4 1_555 1_555
C34 C33 1_555 1_555
H47 C34 1_555 1_555
H48 C34 1_555 1_555
H49 C34 1_555 1_555
C35 O6 1_555 1_555
H50 C35 1_555 1_555
H51 C35 1_555 1_555
H52 C35 1_555 1_555
C5 C10 1_555 1_555
C8 C9 1_555 1_555
C9 C10 1_555 1_555
C17 C18 1_555 1_555
C21 C22 1_555 1_555

#END
