
#######################################################################
#
#                 Cambridge Crystallographic Data Centre
#                                CCDC 
#
#######################################################################
#
# If this CIF has been generated from an entry in the Cambridge 
# Structural Database, then it will include bibliographic, chemical, 
# crystal, experimental, refinement or atomic coordinate data resulting 
# from the CCDC's data processing and validation procedures.
#
#######################################################################

data_METKIF
_chemical_formula_moiety         'C76 H82 N8 O2'
_chemical_name_systematic        10,10'-Bi(15-phenyl-10H-5-oxophlorin)
_symmetry_cell_setting           monoclinic
_symmetry_space_group_name_H-M   'C 2/c'
_symmetry_Int_Tables_number      15
_space_group_name_Hall           '-C 2yn'
loop_
_symmetry_equiv_pos_site_id
_symmetry_equiv_pos_as_xyz
1 x,y,z
2 1/2+x,1/2+y,z
3 x,-y,1/2+z
4 1/2+x,1/2-y,1/2+z
5 -x,-y,-z
6 1/2-x,1/2-y,-z
7 -x,y,1/2-z
8 1/2-x,1/2+y,1/2-z
_cell_length_a                   22.751(2)
_cell_length_b                   19.130(2)
_cell_length_c                   14.904(2)
_cell_angle_alpha                90
_cell_angle_beta                 90.233(10)
_cell_angle_gamma                90
_cell_volume                     6486.56
_exptl_crystal_colour            'dark purple'
_exptl_crystal_description       parallelepiped
_cell_formula_units_Z            4
loop_
_atom_site_label
_atom_site_type_symbol
_atom_site_fract_x
_atom_site_fract_y
_atom_site_fract_z
O1 O 0.23418(8) -0.00424(11) 0.60886(14)
N1 N 0.31194(9) 0.12877(11) 0.49788(14)
N2 N 0.38699(8) 0.02108(11) 0.55598(13)
N3 N 0.48486(8) 0.12940(10) 0.55161(13)
N4 N 0.40784(9) 0.23242(12) 0.48996(15)
H1 H 0.3888(9) 0.0650(13) 0.5282(15)
H2 H 0.4009(13) 0.1892(17) 0.5180(21)
C1 C 0.28727(11) 0.17675(14) 0.4371(2)
C2 C 0.22749(11) 0.15542(15) 0.4140(2)
C3 C 0.18853(12) 0.1938(2) 0.3500(2)
H3 H 0.2044(5) 0.1900(9) 0.2892(3)
H4 H 0.1866(7) 0.2432(3) 0.3673(8)
H5 H 0.1490(3) 0.1735(7) 0.3514(10)
C4 C 0.21651(11) 0.09629(15) 0.4613(2)
C5 C 0.16135(12) 0.0527(2) 0.4574(2)
H6 H 0.12847(12) 0.0818(2) 0.4349(2)
H7 H 0.15131(12) 0.0368(2) 0.5187(2)
C6 C 0.1684(2) -0.0103(2) 0.3971(3)
H8 H 0.1313(4) -0.0362(8) 0.3946(14)
H9 H 0.1994(8) -0.0406(7) 0.4210(10)
H10 H 0.1790(11) 0.0052(2) 0.3366(5)
C7 C 0.27042(10) 0.08200(13) 0.5116(2)
C8 C 0.27856(11) 0.02084(14) 0.5727(2)
C9 C 0.33567(10) -0.01033(13) 0.5850(2)
C10 C 0.35151(10) -0.07400(13) 0.6246(2)
C11 C 0.31113(11) -0.12852(14) 0.6626(2)
H11 H 0.27467(11) -0.10576(14) 0.6838(2)
H12 H 0.33035(11) -0.15108(14) 0.7148(2)
C12 C 0.29544(14) -0.1841(2) 0.5933(2)
H13 H 0.2680(8) -0.2177(7) 0.6197(5)
H14 H 0.3312(2) -0.2085(8) 0.5745(11)
H15 H 0.2770(9) -0.1619(2) 0.5410(6)
C13 C 0.41302(10) -0.08073(12) 0.6169(2)
C14 C 0.44894(11) -0.14121(13) 0.6485(2)
H16 H 0.4401(6) -0.1823(3) 0.6115(7)
H17 H 0.4395(6) -0.1514(6) 0.7112(4)
H18 H 0.49078(11) -0.1297(4) 0.6435(11)
C15 C 0.43361(10) -0.02011(12) 0.5753(2)
C16 C 0.49492(10) 0.00154(12) 0.5520(2)
H19 H 0.52256(10) -0.03242(12) 0.5808(2)
C17 C 0.51034(10) 0.07380(13) 0.5859(2)
C18 C 0.55455(10) 0.09070(13) 0.6542(2)
C19 C 0.59162(11) 0.03996(14) 0.7044(2)
H20 H 0.57373(11) -0.00706(14) 0.6996(2)
H21 H 0.59203(11) 0.05315(14) 0.7687(2)
C20 C 0.65461(13) 0.0365(2) 0.6708(2)
H22 H 0.6763(3) 0.0008(8) 0.7047(10)
H23 H 0.6735(3) 0.0821(4) 0.6793(13)
H24 H 0.65460(14) 0.0244(11) 0.6070(4)
C21 C 0.55550(10) 0.16147(13) 0.6590(2)
C22 C 0.59027(12) 0.20245(15) 0.7272(2)
H25 H 0.5683(4) 0.2444(5) 0.7443(9)
H26 H 0.6281(4) 0.2161(8) 0.7014(5)
H27 H 0.5971(7) 0.1734(4) 0.7805(5)
C23 C 0.51346(10) 0.18737(13) 0.5921(2)
C24 C 0.50357(11) 0.25432(13) 0.5625(2)
C25 C 0.54166(11) 0.31315(13) 0.5918(2)
C26 C 0.60135(11) 0.31385(15) 0.5732(2)
H28 H 0.61852(11) 0.27552(15) 0.5424(2)
C27 C 0.63597(12) 0.36934(15) 0.5988(2)
H29 H 0.67667(12) 0.36941(15) 0.5848(2)
C28 C 0.61200(13) 0.42466(15) 0.6446(2)
H30 H 0.63621(13) 0.46244(15) 0.6633(2)
C29 C 0.55358(13) 0.42523(15) 0.6630(2)
H31 H 0.53706(13) 0.46369(15) 0.6944(2)
C30 C 0.51777(12) 0.37014(14) 0.6365(2)
H32 H 0.47686(12) 0.37143(14) 0.6489(2)
C31 C 0.45769(11) 0.27252(13) 0.4998(2)
C32 C 0.45223(12) 0.32906(13) 0.4394(2)
C33 C 0.49497(14) 0.3877(2) 0.4217(2)
H33 H 0.5350(2) 0.3717(4) 0.4345(14)
H34 H 0.4856(6) 0.4276(4) 0.4604(10)
H35 H 0.4921(7) 0.4020(8) 0.3587(4)
C34 C 0.39851(12) 0.32144(14) 0.3940(2)
C35 C 0.37482(15) 0.36499(15) 0.3180(2)
H36 H 0.39653(15) 0.40979(15) 0.3156(2)
H37 H 0.33292(15) 0.37573(15) 0.3293(2)
C36 C 0.3803(2) 0.3280(2) 0.2281(2)
H38 H 0.3650(11) 0.3582(6) 0.1804(3)
H39 H 0.3578(10) 0.2843(7) 0.2295(7)
H40 H 0.4218(2) 0.3174(12) 0.2166(9)
C37 C 0.37075(11) 0.26107(13) 0.4269(2)
C38 C 0.31466(11) 0.23495(14) 0.4060(2)
H41 H 0.29272(11) 0.26184(14) 0.3640(2)
C16D C 0.50508(10) -0.00154(12) 0.4480(2)
C15D C 0.56639(10) 0.02011(12) 0.4247(2)
N2D N 0.61301(8) -0.02108(11) 0.44402(13)
H1D H 0.6112(9) -0.0650(13) 0.4718(15)
C9D C 0.66433(10) 0.01033(13) 0.4150(2)
C8D C 0.72144(11) -0.02084(14) 0.4273(2)
O1D O 0.76582(8) 0.00424(11) 0.39114(14)
C7D C 0.72958(10) -0.08200(13) 0.4884(2)
N1D N 0.68806(9) -0.12877(11) 0.50212(14)
C1D C 0.71273(11) -0.17675(14) 0.5629(2)
C2D C 0.77251(11) -0.15542(15) 0.5860(2)
C3D C 0.81147(12) -0.1938(2) 0.6500(2)
H3D H 0.7956(5) -0.1900(9) 0.7108(3)
H4D H 0.8134(7) -0.2432(3) 0.6327(8)
H5D H 0.8510(3) -0.1735(7) 0.6486(10)
C4D C 0.78349(11) -0.09629(15) 0.5387(2)
C5D C 0.83865(12) -0.0527(2) 0.5426(2)
H6D H 0.87153(12) -0.0818(2) 0.5651(2)
H7D H 0.84869(12) -0.0368(2) 0.4813(2)
C6D C 0.8316(2) 0.0103(2) 0.6029(3)
H8D H 0.8687(4) 0.0362(8) 0.6054(14)
H9D H 0.8006(8) 0.0406(7) 0.5790(10)
H10D H 0.8210(11) -0.0052(2) 0.6634(5)
C38D C 0.68534(11) -0.23495(14) 0.5940(2)
C37D C 0.62925(11) -0.26107(13) 0.5731(2)
N4D N 0.59216(9) -0.23242(12) 0.51004(15)
H2D H 0.5991(13) -0.1892(17) 0.4820(21)
C31D C 0.54231(11) -0.27252(13) 0.5002(2)
C24D C 0.49643(11) -0.25432(13) 0.4375(2)
C23D C 0.48654(10) -0.18737(13) 0.4079(2)
N3D N 0.51514(8) -0.12940(10) 0.44839(13)
C17D C 0.48966(10) -0.07380(13) 0.4141(2)
H19D H 0.47744(10) 0.03242(12) 0.4192(2)
C18D C 0.44545(10) -0.09070(13) 0.3458(2)
C19D C 0.40838(11) -0.03996(14) 0.2956(2)
H20D H 0.42627(11) 0.00706(14) 0.3004(2)
H21D H 0.40797(11) -0.05315(14) 0.2313(2)
C20D C 0.34539(13) -0.0365(2) 0.3292(2)
H22D H 0.3237(3) -0.0008(8) 0.2953(10)
H23D H 0.3265(3) -0.0821(4) 0.3207(13)
H24D H 0.34540(14) -0.0244(11) 0.3930(4)
C21D C 0.44450(10) -0.16147(13) 0.3410(2)
C22D C 0.40973(12) -0.20245(15) 0.2728(2)
H25D H 0.4317(4) -0.2444(5) 0.2557(9)
H26D H 0.3719(4) -0.2161(8) 0.2986(5)
H27D H 0.4029(7) -0.1734(4) 0.2195(5)
C25D C 0.45834(11) -0.31315(13) 0.4082(2)
C26D C 0.39865(11) -0.31385(15) 0.4268(2)
H28D H 0.38148(11) -0.27552(15) 0.4576(2)
C27D C 0.36403(12) -0.36934(15) 0.4012(2)
H29D H 0.32333(12) -0.36941(15) 0.4152(2)
C28D C 0.38800(13) -0.42466(15) 0.3554(2)
H30D H 0.36379(13) -0.46244(15) 0.3367(2)
C29D C 0.44642(13) -0.42523(15) 0.3370(2)
H31D H 0.46294(13) -0.46369(15) 0.3056(2)
C30D C 0.48223(12) -0.37014(14) 0.3635(2)
H32D H 0.52314(12) -0.37143(14) 0.3511(2)
C32D C 0.54777(12) -0.32906(13) 0.5606(2)
C33D C 0.50503(14) -0.3877(2) 0.5783(2)
H33D H 0.4650(2) -0.3717(4) 0.5655(14)
H34D H 0.5144(6) -0.4276(4) 0.5396(10)
H35D H 0.5079(7) -0.4020(8) 0.6413(4)
C34D C 0.60149(12) -0.32144(14) 0.6060(2)
C35D C 0.62518(15) -0.36499(15) 0.6820(2)
H36D H 0.60347(15) -0.40979(15) 0.6844(2)
H37D H 0.66708(15) -0.37573(15) 0.6707(2)
C36D C 0.6197(2) -0.3280(2) 0.7719(2)
H38D H 0.6350(11) -0.3582(6) 0.8196(3)
H39D H 0.6422(10) -0.2843(7) 0.7705(7)
H40D H 0.5782(2) -0.3174(12) 0.7834(9)
H41D H 0.70728(11) -0.26184(14) 0.6360(2)
C10D C 0.64849(10) 0.07400(13) 0.3754(2)
C11D C 0.68887(11) 0.12852(14) 0.3374(2)
H11D H 0.72533(11) 0.10576(14) 0.3162(2)
H12D H 0.66965(11) 0.15108(14) 0.2852(2)
C12D C 0.70456(14) 0.1841(2) 0.4067(2)
H13D H 0.7320(8) 0.2177(7) 0.3803(5)
H14D H 0.6688(2) 0.2085(8) 0.4255(11)
H15D H 0.7230(9) 0.1619(2) 0.4590(6)
C13D C 0.58698(10) 0.08073(12) 0.3831(2)
C14D C 0.55106(11) 0.14121(13) 0.3515(2)
H16D H 0.5599(6) 0.1823(3) 0.3885(7)
H17D H 0.5605(6) 0.1514(6) 0.2888(4)
H18D H 0.50922(11) 0.1297(4) 0.3565(11)
loop_
_geom_bond_atom_site_label_1
_geom_bond_atom_site_label_2
_geom_bond_site_symmetry_1
_geom_bond_site_symmetry_2
O1 C8 1_555 1_555
N1 C1 1_555 1_555
N2 H1 1_555 1_555
N3 C17 1_555 1_555
N4 H2 1_555 1_555
C1 C2 1_555 1_555
C2 C3 1_555 1_555
C3 H3 1_555 1_555
H4 C3 1_555 1_555
H5 C3 1_555 1_555
C4 C2 1_555 1_555
C5 C4 1_555 1_555
H6 C5 1_555 1_555
H7 C5 1_555 1_555
C6 C5 1_555 1_555
H8 C6 1_555 1_555
H9 C6 1_555 1_555
H10 C6 1_555 1_555
C7 N1 1_555 1_555
C8 C7 1_555 1_555
C9 N2 1_555 1_555
C10 C9 1_555 1_555
C11 C10 1_555 1_555
H11 C11 1_555 1_555
H12 C11 1_555 1_555
C12 C11 1_555 1_555
H13 C12 1_555 1_555
H14 C12 1_555 1_555
H15 C12 1_555 1_555
C13 C10 1_555 1_555
C14 C13 1_555 1_555
H16 C14 1_555 1_555
H17 C14 1_555 1_555
H18 C14 1_555 1_555
C15 N2 1_555 1_555
C16 C15 1_555 1_555
H19 C16 1_555 1_555
C17 C16 1_555 1_555
C18 C17 1_555 1_555
C19 C18 1_555 1_555
H20 C19 1_555 1_555
H21 C19 1_555 1_555
C20 C19 1_555 1_555
H22 C20 1_555 1_555
H23 C20 1_555 1_555
H24 C20 1_555 1_555
C21 C18 1_555 1_555
C22 C21 1_555 1_555
H25 C22 1_555 1_555
H26 C22 1_555 1_555
H27 C22 1_555 1_555
C23 N3 1_555 1_555
C24 C23 1_555 1_555
C25 C24 1_555 1_555
C26 C25 1_555 1_555
H28 C26 1_555 1_555
C27 C26 1_555 1_555
H29 C27 1_555 1_555
C28 C27 1_555 1_555
H30 C28 1_555 1_555
C29 C28 1_555 1_555
H31 C29 1_555 1_555
C30 C25 1_555 1_555
H32 C30 1_555 1_555
C31 N4 1_555 1_555
C32 C31 1_555 1_555
C33 C32 1_555 1_555
H33 C33 1_555 1_555
H34 C33 1_555 1_555
H35 C33 1_555 1_555
C34 C32 1_555 1_555
C35 C34 1_555 1_555
H36 C35 1_555 1_555
H37 C35 1_555 1_555
C36 C35 1_555 1_555
H38 C36 1_555 1_555
H39 C36 1_555 1_555
H40 C36 1_555 1_555
C37 N4 1_555 1_555
C38 C1 1_555 1_555
H41 C38 1_555 1_555
C16D C16 1_555 1_555
C15D C16D 1_555 1_555
N2D C15D 1_555 1_555
H1D N2D 1_555 1_555
C9D N2D 1_555 1_555
C8D C9D 1_555 1_555
O1D C8D 1_555 1_555
C7D C8D 1_555 1_555
N1D C7D 1_555 1_555
C1D N1D 1_555 1_555
C2D C1D 1_555 1_555
C3D C2D 1_555 1_555
H3D C3D 1_555 1_555
H4D C3D 1_555 1_555
H5D C3D 1_555 1_555
C4D C7D 1_555 1_555
C5D C4D 1_555 1_555
H6D C5D 1_555 1_555
H7D C5D 1_555 1_555
C6D C5D 1_555 1_555
H8D C6D 1_555 1_555
H9D C6D 1_555 1_555
H10D C6D 1_555 1_555
C38D C1D 1_555 1_555
C37D C38D 1_555 1_555
N4D C37D 1_555 1_555
H2D N4D 1_555 1_555
C31D N4D 1_555 1_555
C24D C31D 1_555 1_555
C23D C24D 1_555 1_555
N3D C23D 1_555 1_555
C17D C16D 1_555 1_555
H19D C16D 1_555 1_555
C18D C17D 1_555 1_555
C19D C18D 1_555 1_555
H20D C19D 1_555 1_555
H21D C19D 1_555 1_555
C20D C19D 1_555 1_555
H22D C20D 1_555 1_555
H23D C20D 1_555 1_555
H24D C20D 1_555 1_555
C21D C23D 1_555 1_555
C22D C21D 1_555 1_555
H25D C22D 1_555 1_555
H26D C22D 1_555 1_555
H27D C22D 1_555 1_555
C25D C24D 1_555 1_555
C26D C25D 1_555 1_555
H28D C26D 1_555 1_555
C27D C26D 1_555 1_555
H29D C27D 1_555 1_555
C28D C27D 1_555 1_555
H30D C28D 1_555 1_555
C29D C28D 1_555 1_555
H31D C29D 1_555 1_555
C30D C25D 1_555 1_555
H32D C30D 1_555 1_555
C32D C31D 1_555 1_555
C33D C32D 1_555 1_555
H33D C33D 1_555 1_555
H34D C33D 1_555 1_555
H35D C33D 1_555 1_555
C34D C37D 1_555 1_555
C35D C34D 1_555 1_555
H36D C35D 1_555 1_555
H37D C35D 1_555 1_555
C36D C35D 1_555 1_555
H38D C36D 1_555 1_555
H39D C36D 1_555 1_555
H40D C36D 1_555 1_555
H41D C38D 1_555 1_555
C10D C9D 1_555 1_555
C11D C10D 1_555 1_555
H11D C11D 1_555 1_555
H12D C11D 1_555 1_555
C12D C11D 1_555 1_555
H13D C12D 1_555 1_555
H14D C12D 1_555 1_555
H15D C12D 1_555 1_555
C13D C15D 1_555 1_555
C14D C13D 1_555 1_555
H16D C14D 1_555 1_555
H17D C14D 1_555 1_555
H18D C14D 1_555 1_555
C4 C7 1_555 1_555
C8 C9 1_555 1_555
C13 C15 1_555 1_555
C21 C23 1_555 1_555
C24 C31 1_555 1_555
C29 C30 1_555 1_555
C34 C37 1_555 1_555
C37 C38 1_555 1_555
C2D C4D 1_555 1_555
N3D C17D 1_555 1_555
C18D C21D 1_555 1_555
C29D C30D 1_555 1_555
C32D C34D 1_555 1_555
C10D C13D 1_555 1_555

#END
