
#######################################################################
#
#                 Cambridge Crystallographic Data Centre
#                                CCDC 
#
#######################################################################
#
# If this CIF has been generated from an entry in the Cambridge 
# Structural Database, then it will include bibliographic, chemical, 
# crystal, experimental, refinement or atomic coordinate data resulting 
# from the CCDC's data processing and validation procedures.
#
#######################################################################

data_METSOU
_chemical_formula_moiety         'C24 H28 N2 O3'
_chemical_name_systematic        
4-Methyl-7-(3-(4-o-tolylpiperazin-1-yl)propoxy)-2H-chromen-2-one
_chemical_properties_biological  'alpha!1$-adrenoceptor antagonist'
_symmetry_cell_setting           triclinic
_symmetry_space_group_name_H-M   'P -1'
_symmetry_Int_Tables_number      2
_space_group_name_Hall           '-P 1'
loop_
_symmetry_equiv_pos_site_id
_symmetry_equiv_pos_as_xyz
1 x,y,z
2 -x,-y,-z
_cell_length_a                   7.099(3)
_cell_length_b                   9.659(4)
_cell_length_c                   16.195(7)
_cell_angle_alpha                76.822(5)
_cell_angle_beta                 77.420(6)
_cell_angle_gamma                83.658(5)
_cell_volume                     1053.12
_exptl_crystal_colour            colorless
_exptl_crystal_description       prism
_chemical_melting_point          '511 K'
_cell_formula_units_Z            2
_exptl_crystal_recrystallization_method 'ethanol/ethyl acetate'
loop_
_atom_site_label
_atom_site_type_symbol
_atom_site_fract_x
_atom_site_fract_y
_atom_site_fract_z
N1 N 0.3867(3) 0.71646(19) 0.43652(12)
N2 N 0.0991(3) 0.80166(18) 0.57328(11)
O1 O 0.7416(2) 0.19424(16) 0.07987(10)
O2 O 0.7541(4) -0.0014(2) 0.03092(14)
O3 O 0.6880(2) 0.58601(17) 0.20680(10)
C1 C 0.7621(4) 0.1264(3) 0.0115(2)
C2 C 0.7906(4) 0.2146(3) -0.07340(18)
H1 H 0.8112 0.1711 -0.1205
C3 C 0.7891(3) 0.3566(3) -0.08854(16)
C4 C 0.7628(3) 0.4254(2) -0.01638(15)
C5 C 0.7422(3) 0.3402(2) 0.06643(16)
C6 C 0.7205(3) 0.3955(2) 0.13932(15)
H2 H 0.7108 0.3355 0.1936
C7 C 0.7132(3) 0.5417(3) 0.13055(15)
C8 C 0.7318(3) 0.6308(2) 0.04940(15)
H3 H 0.7274 0.7292 0.0435
C9 C 0.7569(3) 0.5719(2) -0.02226(15)
H4 H 0.7705 0.6321 -0.0767
C10 C 0.8148(4) 0.4441(3) -0.17908(15)
H5 H 0.9206 0.5039 -0.1894
H6 H 0.6986 0.5024 -0.1863
H7 H 0.8418 0.3821 -0.2194
C11 C 0.6639(4) 0.7365(3) 0.20421(16)
H8 H 0.5571 0.7787 0.1763
H9 H 0.7803 0.7823 0.1718
C12 C 0.6233(4) 0.7559(3) 0.29609(16)
H10 H 0.6082 0.8570 0.2960
H11 H 0.7331 0.7159 0.3223
C13 C 0.4435(3) 0.6860(3) 0.35004(15)
H12 H 0.3375 0.7174 0.3198
H13 H 0.4652 0.5837 0.3554
C14 C 0.3084(3) 0.8637(2) 0.43244(14)
H14 H 0.1986 0.8798 0.4040
H15 H 0.4061 0.9276 0.3982
C15 C 0.2460(3) 0.8965(2) 0.52114(15)
H16 H 0.3566 0.8847 0.5488
H17 H 0.1944 0.9946 0.5164
C16 C 0.1772(4) 0.6535(2) 0.57946(15)
H18 H 0.0788 0.5899 0.6134
H19 H 0.2860 0.6379 0.6085
C17 C 0.2419(4) 0.6213(3) 0.49043(15)
H20 H 0.2953 0.5235 0.4954
H21 H 0.1310 0.6309 0.4631
C18 C -0.0006(3) 0.8358(2) 0.65330(14)
C19 C -0.1912(4) 0.7985(2) 0.68506(15)
C20 C -0.2903(4) 0.8390(3) 0.76063(16)
H22 H -0.4182 0.8160 0.7819
C21 C -0.2054(5) 0.9120(3) 0.80511(17)
H23 H -0.2743 0.9362 0.8562
C22 C -0.0190(4) 0.9485(3) 0.77349(17)
H24 H 0.0396 0.9984 0.8028
C23 C 0.0821(4) 0.9112(2) 0.69800(15)
H25 H 0.2086 0.9372 0.6766
C24 C -0.2932(4) 0.7229(3) 0.63739(17)
H26 H -0.4303 0.7323 0.6585
H27 H -0.2502 0.6238 0.6467
H28 H -0.2641 0.7644 0.5766
loop_
_geom_bond_atom_site_label_1
_geom_bond_atom_site_label_2
_geom_bond_site_symmetry_1
_geom_bond_site_symmetry_2
N1 C13 1_555 1_555
N2 C15 1_555 1_555
O1 C1 1_555 1_555
O2 C1 1_555 1_555
O3 C7 1_555 1_555
C1 C2 1_555 1_555
C2 H1 1_555 1_555
C3 C2 1_555 1_555
C4 C3 1_555 1_555
C5 O1 1_555 1_555
C6 C5 1_555 1_555
H2 C6 1_555 1_555
C7 C6 1_555 1_555
C8 C7 1_555 1_555
H3 C8 1_555 1_555
C9 C4 1_555 1_555
H4 C9 1_555 1_555
C10 C3 1_555 1_555
H5 C10 1_555 1_555
H6 C10 1_555 1_555
H7 C10 1_555 1_555
C11 O3 1_555 1_555
H8 C11 1_555 1_555
H9 C11 1_555 1_555
C12 C11 1_555 1_555
H10 C12 1_555 1_555
H11 C12 1_555 1_555
C13 C12 1_555 1_555
H12 C13 1_555 1_555
H13 C13 1_555 1_555
C14 N1 1_555 1_555
H14 C14 1_555 1_555
H15 C14 1_555 1_555
C15 C14 1_555 1_555
H16 C15 1_555 1_555
H17 C15 1_555 1_555
C16 N2 1_555 1_555
H18 C16 1_555 1_555
H19 C16 1_555 1_555
C17 N1 1_555 1_555
H20 C17 1_555 1_555
H21 C17 1_555 1_555
C18 N2 1_555 1_555
C19 C18 1_555 1_555
C20 C19 1_555 1_555
H22 C20 1_555 1_555
C21 C20 1_555 1_555
H23 C21 1_555 1_555
C22 C21 1_555 1_555
H24 C22 1_555 1_555
C23 C18 1_555 1_555
H25 C23 1_555 1_555
C24 C19 1_555 1_555
H26 C24 1_555 1_555
H27 C24 1_555 1_555
H28 C24 1_555 1_555
C4 C5 1_555 1_555
C8 C9 1_555 1_555
C16 C17 1_555 1_555
C22 C23 1_555 1_555

#END
