
#######################################################################
#
#                 Cambridge Crystallographic Data Centre
#                                CCDC 
#
#######################################################################
#
# If this CIF has been generated from an entry in the Cambridge 
# Structural Database, then it will include bibliographic, chemical, 
# crystal, experimental, refinement or atomic coordinate data resulting 
# from the CCDC's data processing and validation procedures.
#
#######################################################################

data_MEWSIT
_chemical_formula_moiety         'C20 H25 N1 O2'
_chemical_name_systematic        
"methyl 4'-amino-3',5'-di-isopropyl-[1,1'-biphenyl]-4-carboxylate"
_symmetry_cell_setting           monoclinic
_symmetry_space_group_name_H-M   'P 21/n'
_symmetry_Int_Tables_number      14
_space_group_name_Hall           '-P 2yn'
loop_
_symmetry_equiv_pos_site_id
_symmetry_equiv_pos_as_xyz
1 x,y,z
2 1/2-x,1/2+y,1/2-z
3 -x,-y,-z
4 1/2+x,1/2-y,1/2+z
_cell_length_a                   16.873(4)
_cell_length_b                   6.2095(16)
_cell_length_c                   16.992(4)
_cell_angle_alpha                90
_cell_angle_beta                 100.775(4)
_cell_angle_gamma                90
_cell_volume                     1748.91
_exptl_crystal_colour            white
_exptl_crystal_description       block
_cell_formula_units_Z            4
loop_
_atom_site_label
_atom_site_type_symbol
_atom_site_fract_x
_atom_site_fract_y
_atom_site_fract_z
C1 C 0.95344(9) 0.0717(3) 0.73074(9)
C2 C 1.02243(9) -0.0070(3) 0.78004(9)
H1 H 1.0555 -0.1015 0.7585
O1 O 0.88168(9) -0.3656(2) 0.38274(7)
O2 O 0.84255(9) -0.0313(2) 0.34469(7)
C3 C 1.04383(9) 0.0498(3) 0.85984(9)
N1 N 1.01666(11) 0.2618(3) 0.97156(9)
C4 C 0.93304(9) 0.0114(3) 0.64506(9)
C5 C 0.89356(9) -0.1026(3) 0.48273(9)
C6 C 0.90406(10) 0.2071(3) 0.76505(10)
H2 H 0.8571 0.2593 0.7332
C7 C 0.89960(10) 0.1606(3) 0.58721(10)
H3 H 0.8899 0.3003 0.6027
C8 C 0.99342(9) 0.1921(3) 0.89239(9)
C9 C 0.92201(9) 0.2680(3) 0.84515(9)
C10 C 0.88065(10) 0.1053(3) 0.50738(10)
H4 H 0.8590 0.2083 0.4697
C11 C 0.94677(11) -0.1957(3) 0.61944(10)
H5 H 0.9696 -0.2981 0.6569
C12 C 0.87000(10) -0.1570(3) 0.39652(10)
C13 C 1.12105(10) -0.0351(3) 0.91120(10)
H6 H 1.1099 -0.0534 0.9654
C14 C 0.92722(10) -0.2524(3) 0.53955(10)
H7 H 0.9367 -0.3921 0.5238
C15 C 0.86296(10) 0.4105(3) 0.87851(10)
H8 H 0.8851 0.4304 0.9356
C16 C 0.85974(15) -0.4383(4) 0.30118(11)
H9 H 0.8069 -0.3860 0.2785
H10 H 0.8597 -0.5929 0.3000
H11 H 0.8980 -0.3846 0.2707
C17 C 0.78179(13) 0.3036(5) 0.87322(16)
H12 H 0.7558 0.2927 0.8181
H13 H 0.7489 0.3879 0.9020
H14 H 0.7890 0.1621 0.8962
C18 C 0.85654(19) 0.6319(4) 0.84090(16)
H15 H 0.9093 0.6947 0.8469
H16 H 0.8228 0.7214 0.8669
H17 H 0.8334 0.6202 0.7850
C19 C 1.18931(12) 0.1259(4) 0.91768(16)
H18 H 1.2031 0.1466 0.8659
H19 H 1.2355 0.0725 0.9543
H20 H 1.1727 0.2607 0.9370
C20 C 1.14694(13) -0.2540(3) 0.88521(13)
H21 H 1.1021 -0.3517 0.8791
H22 H 1.1902 -0.3085 0.9250
H23 H 1.1648 -0.2401 0.8350
H24 H 1.0528(15) 0.184(4) 1.0031(14)
H25 H 0.9869(9) 0.314(4) 0.9972(13)
loop_
_geom_bond_atom_site_label_1
_geom_bond_atom_site_label_2
_geom_bond_site_symmetry_1
_geom_bond_site_symmetry_2
C1 C2 1_555 1_555
C2 H1 1_555 1_555
O1 C12 1_555 1_555
O2 C12 1_555 1_555
C3 C2 1_555 1_555
N1 C8 1_555 1_555
C4 C1 1_555 1_555
C5 C10 1_555 1_555
C6 C1 1_555 1_555
H2 C6 1_555 1_555
C7 C4 1_555 1_555
H3 C7 1_555 1_555
C8 C3 1_555 1_555
C9 C6 1_555 1_555
C10 C7 1_555 1_555
H4 C10 1_555 1_555
C11 C4 1_555 1_555
H5 C11 1_555 1_555
C12 C5 1_555 1_555
C13 C3 1_555 1_555
H6 C13 1_555 1_555
C14 C5 1_555 1_555
H7 C14 1_555 1_555
C15 C9 1_555 1_555
H8 C15 1_555 1_555
C16 O1 1_555 1_555
H9 C16 1_555 1_555
H10 C16 1_555 1_555
H11 C16 1_555 1_555
C17 C15 1_555 1_555
H12 C17 1_555 1_555
H13 C17 1_555 1_555
H14 C17 1_555 1_555
C18 C15 1_555 1_555
H15 C18 1_555 1_555
H16 C18 1_555 1_555
H17 C18 1_555 1_555
C19 C13 1_555 1_555
H18 C19 1_555 1_555
H19 C19 1_555 1_555
H20 C19 1_555 1_555
C20 C13 1_555 1_555
H21 C20 1_555 1_555
H22 C20 1_555 1_555
H23 C20 1_555 1_555
H24 N1 1_555 1_555
H25 N1 1_555 1_555
C8 C9 1_555 1_555
C11 C14 1_555 1_555

#END
