
#######################################################################
#
#                 Cambridge Crystallographic Data Centre
#                                CCDC 
#
#######################################################################
#
# If this CIF has been generated from an entry in the Cambridge 
# Structural Database, then it will include bibliographic, chemical, 
# crystal, experimental, refinement or atomic coordinate data resulting 
# from the CCDC's data processing and validation procedures.
#
#######################################################################

data_MEWYUL
_chemical_name_common            
'25-hydroxy-20,24-epoxydammarane-3,12-diyl diacetate  methanol unknown solvate'
_chemical_formula_moiety         'C34 H56 O6,x(C1 H4 O1)'
_chemical_name_systematic        
'(3S,12R,20R,24S)-3,12-diacetyl-20,24-epoxy-dammarane-3,12,25-triol methanol unknown solvate'
_chemical_properties_biological  
'possible anti-amnesic, anti-inflammatory, neuroprotective and cardio-protective properties'
_symmetry_cell_setting           orthorhombic
_symmetry_space_group_name_H-M   'P 21 21 21'
_symmetry_Int_Tables_number      19
_space_group_name_Hall           'P 2ac 2ab'
loop_
_symmetry_equiv_pos_site_id
_symmetry_equiv_pos_as_xyz
1 x,y,z
2 1/2-x,-y,1/2+z
3 -x,1/2+y,1/2-z
4 1/2+x,1/2-y,-z
_cell_length_a                   8.0343(8)
_cell_length_b                   17.7992(16)
_cell_length_c                   24.153(3)
_cell_angle_alpha                90
_cell_angle_beta                 90
_cell_angle_gamma                90
_cell_volume                     3453.98
_exptl_crystal_colour            colorless
_exptl_crystal_description       block
_cell_formula_units_Z            4
loop_
_atom_site_label
_atom_site_type_symbol
_atom_site_fract_x
_atom_site_fract_y
_atom_site_fract_z
O1 O 0.6916(6) -0.0449(3) 0.6120(2)
O2 O 0.3436(6) 0.4316(2) 0.56616(19)
O3 O 0.2330(6) 0.5557(2) 0.63569(19)
O4 O 0.5210(7) 0.6442(4) 0.6407(3)
H1 H 0.551731 0.601779 0.649178
O5 O 0.8501(8) -0.0303(3) 0.6872(3)
O6 O 0.5743(8) 0.4793(4) 0.6042(3)
C1 C 0.5770(7) 0.1582(4) 0.5867(3)
H2 H 0.607393 0.191276 0.556450
H3 H 0.620755 0.179599 0.620663
C2 C 0.6556(9) 0.0812(4) 0.5773(3)
H4 H 0.618327 0.061242 0.542066
H5 H 0.775741 0.086413 0.575787
C3 C 0.6097(9) 0.0273(4) 0.6229(3)
H6 H 0.650071 0.047166 0.658299
C4 C 0.4180(9) 0.0136(4) 0.6272(3)
C5 C 0.3378(8) 0.0928(3) 0.6331(3)
H7 H 0.382101 0.111836 0.668226
C6 C 0.1508(8) 0.0897(4) 0.6424(3)
H8 H 0.124632 0.049316 0.667983
H9 H 0.095044 0.079388 0.607639
C7 C 0.0885(8) 0.1644(4) 0.6660(3)
H10 H -0.031768 0.162007 0.668972
H11 H 0.132546 0.170031 0.703194
C8 C 0.1344(8) 0.2337(4) 0.6328(3)
C9 C 0.3212(7) 0.2306(3) 0.6158(3)
H12 H 0.382553 0.236145 0.650600
C10 C 0.3846(8) 0.1537(4) 0.5907(2)
C11 C 0.3705(8) 0.2999(3) 0.5813(2)
H13 H 0.489077 0.298008 0.573874
H14 H 0.312948 0.298020 0.546021
C12 C 0.3297(8) 0.3745(3) 0.6099(3)
H15 H 0.407408 0.384750 0.640223
C13 C 0.1485(8) 0.3787(3) 0.6297(2)
H16 H 0.076389 0.376172 0.597074
C14 C 0.1121(8) 0.3079(4) 0.6663(3)
C15 C -0.0695(8) 0.3257(4) 0.6854(3)
H17 H -0.149699 0.308256 0.658273
H18 H -0.093374 0.302144 0.720720
C16 C -0.0745(9) 0.4122(4) 0.6905(3)
H19 H -0.084606 0.426640 0.729080
H20 H -0.169754 0.431988 0.670562
C17 C 0.0885(8) 0.4445(4) 0.6658(3)
H21 H 0.167850 0.449670 0.696436
C18 C 0.0176(8) 0.2344(4) 0.5807(3)
H22 H 0.062234 0.268019 0.553346
H23 H -0.091485 0.251013 0.591308
H24 H 0.010741 0.184679 0.565486
C19 C 0.3148(8) 0.1387(4) 0.5313(2)
H25 H 0.324631 0.183503 0.509453
H26 H 0.199819 0.124412 0.533801
H27 H 0.377089 0.098919 0.514238
C20 C 0.0650(9) 0.5221(4) 0.6410(3)
C21 C -0.0150(9) 0.5230(4) 0.5829(3)
H28 H -0.124482 0.501539 0.584814
H29 H -0.022655 0.573909 0.569943
H30 H 0.052213 0.494259 0.557807
C22 C -0.0192(9) 0.5755(4) 0.6817(3)
H31 H -0.139193 0.573569 0.677628
H32 H 0.009517 0.562593 0.719498
C23 C 0.0457(10) 0.6522(4) 0.6671(4)
H33 H 0.054057 0.683504 0.699868
H34 H -0.026789 0.676691 0.640534
C24 C 0.2213(9) 0.6376(4) 0.6415(3)
H35 H 0.224627 0.660137 0.604527
C25 C 0.3706(12) 0.6642(5) 0.6734(4)
C26 C 0.3683(14) 0.6323(5) 0.7319(4)
H36 H 0.267842 0.647602 0.750283
H37 H 0.372797 0.578484 0.730295
H38 H 0.462758 0.650831 0.752085
C27 C 0.3733(12) 0.7514(4) 0.6736(4)
H39 H 0.279417 0.769843 0.694083
H40 H 0.474258 0.768598 0.690718
H41 H 0.368087 0.769561 0.636266
C28 C 0.3867(10) -0.0336(4) 0.6804(3)
H42 H 0.426264 -0.006441 0.712110
H43 H 0.269657 -0.042979 0.684289
H44 H 0.444990 -0.080541 0.677582
C29 C 0.3517(9) -0.0332(4) 0.5780(3)
H45 H 0.407114 -0.081021 0.577209
H46 H 0.234116 -0.040857 0.582220
H47 H 0.372785 -0.006949 0.544001
C30 C 0.2219(9) 0.3091(4) 0.7192(2)
H48 H 0.204800 0.355548 0.738638
H49 H 0.191760 0.267844 0.742714
H50 H 0.336893 0.304781 0.708933
C31 C 0.8121(11) -0.0648(5) 0.6469(4)
C32 C 0.8895(11) -0.1388(4) 0.6290(4)
H51 H 0.838239 -0.155480 0.595282
H52 H 1.006664 -0.131950 0.623090
H53 H 0.872491 -0.175782 0.657404
C33 C 0.4712(13) 0.4794(5) 0.5681(4)
C34 C 0.4670(11) 0.5362(4) 0.5218(3)
H54 H 0.374551 0.525652 0.497877
H55 H 0.455073 0.585714 0.537072
H56 H 0.568688 0.533356 0.501076
loop_
_geom_bond_atom_site_label_1
_geom_bond_atom_site_label_2
_geom_bond_site_symmetry_1
_geom_bond_site_symmetry_2
O1 C3 1_555 1_555
O2 C12 1_555 1_555
O3 C20 1_555 1_555
O4 H1 1_555 1_555
O5 C31 1_555 1_555
O6 C33 1_555 1_555
C1 H2 1_555 1_555
H3 C1 1_555 1_555
C2 C1 1_555 1_555
H4 C2 1_555 1_555
H5 C2 1_555 1_555
C3 C2 1_555 1_555
H6 C3 1_555 1_555
C4 C3 1_555 1_555
C5 C4 1_555 1_555
H7 C5 1_555 1_555
C6 C5 1_555 1_555
H8 C6 1_555 1_555
H9 C6 1_555 1_555
C7 C6 1_555 1_555
H10 C7 1_555 1_555
H11 C7 1_555 1_555
C8 C7 1_555 1_555
C9 C8 1_555 1_555
H12 C9 1_555 1_555
C10 C1 1_555 1_555
C11 C9 1_555 1_555
H13 C11 1_555 1_555
H14 C11 1_555 1_555
C12 C11 1_555 1_555
H15 C12 1_555 1_555
C13 C12 1_555 1_555
H16 C13 1_555 1_555
C14 C8 1_555 1_555
C15 C14 1_555 1_555
H17 C15 1_555 1_555
H18 C15 1_555 1_555
C16 C15 1_555 1_555
H19 C16 1_555 1_555
H20 C16 1_555 1_555
C17 C13 1_555 1_555
H21 C17 1_555 1_555
C18 C8 1_555 1_555
H22 C18 1_555 1_555
H23 C18 1_555 1_555
H24 C18 1_555 1_555
C19 C10 1_555 1_555
H25 C19 1_555 1_555
H26 C19 1_555 1_555
H27 C19 1_555 1_555
C20 C17 1_555 1_555
C21 C20 1_555 1_555
H28 C21 1_555 1_555
H29 C21 1_555 1_555
H30 C21 1_555 1_555
C22 C20 1_555 1_555
H31 C22 1_555 1_555
H32 C22 1_555 1_555
C23 C22 1_555 1_555
H33 C23 1_555 1_555
H34 C23 1_555 1_555
C24 O3 1_555 1_555
H35 C24 1_555 1_555
C25 O4 1_555 1_555
C26 C25 1_555 1_555
H36 C26 1_555 1_555
H37 C26 1_555 1_555
H38 C26 1_555 1_555
C27 C25 1_555 1_555
H39 C27 1_555 1_555
H40 C27 1_555 1_555
H41 C27 1_555 1_555
C28 C4 1_555 1_555
H42 C28 1_555 1_555
H43 C28 1_555 1_555
H44 C28 1_555 1_555
C29 C4 1_555 1_555
H45 C29 1_555 1_555
H46 C29 1_555 1_555
H47 C29 1_555 1_555
C30 C14 1_555 1_555
H48 C30 1_555 1_555
H49 C30 1_555 1_555
H50 C30 1_555 1_555
C31 O1 1_555 1_555
C32 C31 1_555 1_555
H51 C32 1_555 1_555
H52 C32 1_555 1_555
H53 C32 1_555 1_555
C33 O2 1_555 1_555
C34 C33 1_555 1_555
H54 C34 1_555 1_555
H55 C34 1_555 1_555
H56 C34 1_555 1_555
C5 C10 1_555 1_555
C9 C10 1_555 1_555
C13 C14 1_555 1_555
C16 C17 1_555 1_555
C23 C24 1_555 1_555
C24 C25 1_555 1_555

#END
