
#######################################################################
#
#                 Cambridge Crystallographic Data Centre
#                                CCDC 
#
#######################################################################
#
# If this CIF has been generated from an entry in the Cambridge 
# Structural Database, then it will include bibliographic, chemical, 
# crystal, experimental, refinement or atomic coordinate data resulting 
# from the CCDC's data processing and validation procedures.
#
#######################################################################

data_MEXJUU
_chemical_name_common            
"tetrakis(2,8,14,20-tetramethylcalix[4]resorcinarene) tris(4,4'-bipyridine) decahydrate"
_chemical_formula_moiety         '4(C32 H32 O8),3(C10 H8 N2),10(H2 O1)'
_chemical_name_systematic        
"4,6,10,12,16,18,22,24-octahydroxy-2,8,14,20-tetramethylcalix(4)arene tris(4,4'-bipyridine) decahydrate"
_symmetry_cell_setting           monoclinic
_symmetry_space_group_name_H-M   'P 21/n'
_symmetry_Int_Tables_number      14
_space_group_name_Hall           '-P 2yn'
loop_
_symmetry_equiv_pos_site_id
_symmetry_equiv_pos_as_xyz
1 x,y,z
2 1/2+x,1/2-y,1/2+z
3 -x,-y,-z
4 1/2-x,1/2+y,1/2-z
_cell_length_a                   13.735(2)
_cell_length_b                   27.419(6)
_cell_length_c                   18.398(4)
_cell_angle_alpha                90
_cell_angle_beta                 109.087(7)
_cell_angle_gamma                90
_cell_volume                     6547.77
_exptl_crystal_description       needle
_cell_formula_units_Z            2
loop_
_atom_site_label
_atom_site_type_symbol
_atom_site_fract_x
_atom_site_fract_y
_atom_site_fract_z
O1 O 0.81444(9) -0.31157(4) 0.08909(7)
O2 O 0.80170(9) -0.18174(5) -0.07894(6)
H1 H 0.7880 -0.2057 -0.1072
O3 O 1.06194(8) -0.11462(4) 0.10330(6)
H2 H 1.1245 -0.1136 0.1244
O4 O 1.08818(8) 0.00507(4) 0.29840(6)
H3 H 1.1416(12) -0.0005(6) 0.3021(9)
O5 O 0.87529(8) 0.07742(4) 0.38519(6)
H4 H 0.8983(16) 0.0922(8) 0.4309(12)
O6 O 0.88034(8) -0.05798(4) 0.55332(6)
H5 H 0.9005(13) -0.0369(7) 0.5982(10)
O7 O 1.09723(8) -0.12482(4) 0.47071(6)
H6 H 1.1826(15) -0.1225(7) 0.4728(11)
O8 O 1.08220(8) -0.23661(4) 0.26694(6)
H7 H 1.1536(7) -0.2344(10) 0.2904(13)
C1 C 0.84855(11) -0.23009(6) 0.14644(9)
C2 C 0.82153(12) -0.26220(6) 0.08243(9)
C3 C 0.80539(12) -0.24482(7) 0.00888(9)
H16 H 0.7823(13) -0.2646(6) -0.0335(10)
C4 C 0.81496(12) -0.19600(7) -0.00386(9)
C5 C 0.83885(11) -0.16257(6) 0.05696(9)
C6 C 0.85464(11) -0.18087(6) 0.13012(9)
H17 H 0.8743(10) -0.1559(5) 0.1752(8)
C7 C 0.84438(12) -0.10754(6) 0.04287(9)
H18 H 0.8785(13) -0.1044(6) 0.0045(10)
C8 C 0.73513(13) -0.08736(7) 0.00620(10)
H19 H 0.7001(12) -0.0994(6) -0.0432(9)
H20 H 0.6893(12) -0.0899(6) 0.0383(9)
H21 H 0.7335(13) -0.0530(6) 0.0017(10)
C9 C 0.90734(11) -0.07984(6) 0.11405(9)
C10 C 1.01522(11) -0.08367(6) 0.14031(8)
C11 C 1.07470(12) -0.05646(6) 0.20236(9)
H22 H 1.1579(10) -0.0568(5) 0.2190(8)
C12 C 1.02842(11) -0.02439(6) 0.23925(8)
C13 C 0.92134(11) -0.02013(6) 0.21737(8)
C14 C 0.86459(12) -0.04846(6) 0.15493(9)
H23 H 0.7913(11) -0.0461(6) 0.1406(9)
C15 C 0.87165(12) 0.01458(6) 0.26008(9)
H24 H 0.9077(11) 0.0492(5) 0.2712(8)
C16 C 0.75711(13) 0.02509(7) 0.21381(10)
H25 H 0.7498(12) 0.0355(6) 0.1589(9)
H26 H 0.7376(15) 0.0507(7) 0.2363(11)
H27 H 0.7101(15) -0.0016(7) 0.2109(11)
C17 C 0.87918(11) -0.00396(6) 0.33985(8)
C18 C 0.87831(11) 0.02741(6) 0.39909(8)
C19 C 0.87843(11) 0.01006(6) 0.46994(8)
H28 H 0.8813(9) 0.0327(5) 0.5054(7)
C20 C 0.88002(11) -0.03967(6) 0.48342(8)
C21 C 0.88162(11) -0.07288(6) 0.42595(8)
C22 C 0.88093(11) -0.05368(6) 0.35577(8)
H29 H 0.8753(10) -0.0738(5) 0.3188(8)
C23 C 0.87935(12) -0.12731(6) 0.44016(8)
H30 H 0.9189(10) -0.1344(5) 0.4952(8)
C24 C 0.76824(12) -0.14331(6) 0.42616(9)
H31 H 0.7560(10) -0.1784(5) 0.4327(8)
H32 H 0.7212(9) -0.1379(5) 0.3735(7)
H33 H 0.7328(15) -0.1252(8) 0.4540(12)
C25 C 0.93299(11) -0.15644(6) 0.39435(8)
C26 C 1.03959(11) -0.15374(5) 0.41011(8)
C27 C 1.08933(11) -0.17946(6) 0.36678(8)
H34 H 1.1699(9) -0.1758(5) 0.3776(7)
C28 C 1.03257(11) -0.20946(6) 0.30780(8)
C29 C 0.92643(11) -0.21464(6) 0.29044(8)
C30 C 0.88018(11) -0.18768(6) 0.33347(9)
H35 H 0.8062(9) -0.1887(4) 0.3231(7)
C31 C 0.86685(12) -0.24992(6) 0.22705(9)
H36 H 0.9107(10) -0.2773(5) 0.2319(7)
C32 C 0.76310(12) -0.26443(6) 0.23606(9)
H37 H 0.7296(13) -0.2878(7) 0.2069(10)
H38 H 0.7729(12) -0.2751(6) 0.2794(9)
H39 H 0.7124(14) -0.2351(7) 0.2284(11)
H72 H 0.8237(14) -0.3208(7) 0.1421(11)
O9 O 0.49716(10) -0.07899(4) -1.22757(7)
H8 H 0.5127(18) -0.0901(9) -1.1853(14)
O10 O 0.52444(9) 0.04560(5) -1.03954(6)
H9 H 0.5117 0.0219 -1.0171
O11 O 0.72805(9) 0.11677(4) -1.13618(7)
H10 H 0.7872 0.1178 -1.1374
O12 O 0.71366(8) 0.23805(4) -1.32070(6)
H11 H 0.686(2) 0.2584(11) -1.3302(16)
O13 O 0.45362(9) 0.32210(4) -1.48055(7)
H12 H 0.4778(18) 0.3357(9) -1.5034(14)
O14 O 0.43655(9) 0.19292(4) -1.66075(6)
H13 H 0.4345(13) 0.2179(6) -1.6913(10)
O15 O 0.69743(8) 0.12420(4) -1.48014(6)
H14 H 0.6692(11) 0.1358(6) -1.5094(9)
O16 O 0.70980(8) 0.00255(4) -1.29850(6)
H15 H 0.7704 0.0098 -1.2901
C33 C 0.50226(12) 0.00461(6) -1.26350(9)
C34 C 0.50349(12) -0.03059(6) -1.20711(9)
C35 C 0.51160(13) -0.01605(6) -1.13287(9)
H40 H 0.5105(12) -0.0390(6) -1.0926(9)
C36 C 0.51611(12) 0.03276(6) -1.11373(9)
C37 C 0.51400(11) 0.06905(6) -1.16823(9)
C38 C 0.50707(11) 0.05336(6) -1.24170(9)
H41 H 0.5058(11) 0.0763(6) -1.2856(9)
C39 C 0.51363(12) 0.12381(6) -1.15043(9)
H42 H 0.5504(10) 0.1288(5) -1.0988(8)
C40 C 0.40336(13) 0.13959(7) -1.15769(10)
H43 H 0.3984(12) 0.1790(6) -1.1390(9)
H44 H 0.3574(14) 0.1387(7) -1.2105(11)
H45 H 0.3797(18) 0.1157(9) -1.1274(14)
C41 C 0.56323(12) 0.15483(6) -1.19794(9)
C42 C 0.66838(12) 0.14911(6) -1.18817(9)
C43 C 0.71607(12) 0.17687(6) -1.22998(9)
H46 H 0.7914(10) 0.1714(5) -1.2251(8)
C44 C 0.66066(11) 0.21176(6) -1.28194(8)
C45 C 0.55594(11) 0.21923(6) -1.29394(8)
C46 C 0.51056(12) 0.18987(6) -1.25109(8)
H47 H 0.4325(11) 0.1956(6) -1.2579(9)
C47 C 0.49710(12) 0.25674(6) -1.35325(9)
H48 H 0.5405(12) 0.2895(6) -1.3394(9)
C48 C 0.39391(12) 0.27135(6) -1.34380(9)
H49 H 0.3463(12) 0.2453(6) -1.3515(9)
H50 H 0.4087(11) 0.2827(6) -1.2876(9)
H51 H 0.3669(12) 0.2935(6) -1.3794(10)
C49 C 0.47998(11) 0.23985(6) -1.43576(8)
C50 C 0.45779(11) 0.27328(6) -1.49663(9)
C51 C 0.44216(12) 0.25811(6) -1.57101(9)
H52 H 0.4266(11) 0.2814(6) -1.6118(8)
C52 C 0.44871(12) 0.20913(6) -1.58735(9)
C53 C 0.47041(11) 0.17423(6) -1.52851(8)
C54 C 0.48439(11) 0.19074(6) -1.45473(8)
H53 H 0.4965(10) 0.1676(5) -1.4153(8)
C55 C 0.47077(12) 0.12052(6) -1.54861(8)
H54 H 0.4967(11) 0.1170(5) -1.5872(8)
C56 C 0.35976(13) 0.10285(6) -1.58587(9)
H55 H 0.3119(13) 0.1076(7) -1.5563(10)
H56 H 0.3648(12) 0.0648(6) -1.5996(9)
H57 H 0.3287(11) 0.1192(6) -1.6321(9)
C57 C 0.53256(11) 0.08928(6) -1.48048(9)
C58 C 0.64064(11) 0.09329(6) -1.45091(9)
C59 C 0.69809(12) 0.06427(6) -1.39034(9)
H58 H 0.7770(11) 0.0685(5) -1.3737(8)
C60 C 0.64836(11) 0.03088(6) -1.35773(8)
C61 C 0.54083(11) 0.02599(6) -1.38393(9)
C62 C 0.48759(11) 0.05597(6) -1.44463(9)
H59 H 0.4239(13) 0.0572(6) -1.4559(10)
C63 C 0.48778(11) -0.00978(6) -1.34595(9)
H60 H 0.5211(10) -0.0436(5) -1.3458(7)
C64 C 0.37254(12) -0.01537(6) -1.38920(9)
H61 H 0.3286(14) -0.0420(7) -1.3697(11)
H62 H 0.3547(11) -0.0233(5) -1.4423(8)
H63 H 0.3347(11) 0.0155(6) -1.3872(9)
O17 O 0.8038(2) -0.57986(12) -0.27761(16)
O18 O 0.62168(19) -0.60949(11) -0.23998(17)
O20 O 0.81109(11) -0.37087(5) 0.19596(8)
O22 O 0.5929(7) -0.61414(18) -0.3759(3)
C65 C 0.53728(14) -0.17813(7) -1.09505(11)
H64 H 0.5946 -0.1804 -1.1112
C66 C 0.52592(13) -0.21284(6) -1.04339(10)
H65 H 0.5734(14) -0.2359(7) -1.0239(11)
C67 C 0.44363(13) -0.21052(6) -1.01630(9)
C68 C 0.37330(14) -0.17283(7) -1.04532(11)
H66 H 0.3074(17) -0.1663(8) -1.0217(13)
C69 C 0.39055(15) -0.14028(7) -1.09661(12)
H67 H 0.322(2) -0.1086(10) -1.1321(15)
C70 C 0.42979(12) -0.24647(6) -0.95930(9)
C71 C 0.50759(13) -0.27905(6) -0.92208(10)
H68 H 0.5747(13) -0.2757(6) -0.9255(10)
C72 C 0.49301(14) -0.31240(7) -0.86981(10)
H69 H 0.5511(12) -0.3348(6) -0.8427(9)
C73 C 0.33188(14) -0.28217(8) -0.88625(11)
H70 H 0.251(2) -0.2857(10) -0.8846(15)
C74 C 0.33964(13) -0.24859(7) -0.93930(11)
H71 H 0.29159(17) -0.22154(8) -0.97051(13)
N2 N 0.47197(12) -0.14234(5) -1.12255(9)
N3 N 0.40702(12) -0.31481(6) -0.85065(9)
N1 N 0.25975(17) -0.54954(8) -0.52207(13)
C75 C 0.26986(17) -0.51643(8) -0.57637(13)
C76 C 0.36536(17) -0.49589(8) -0.56825(13)
C77 C 0.45075(17) -0.50844(8) -0.50583(13)
C78 C 0.44065(17) -0.54156(8) -0.45154(13)
C79 C 0.34515(17) -0.56210(8) -0.45965(13)
C77B C 0.54925(17) -0.49156(8) -0.49417(13)
C76B C 0.63464(17) -0.50411(8) -0.43175(13)
C75B C 0.73014(17) -0.48357(8) -0.42363(13)
N1B N 0.74025(17) -0.45046(8) -0.47793(13)
C79B C 0.65485(17) -0.43790(8) -0.54035(13)
C78B C 0.55935(17) -0.45844(8) -0.54846(13)
O23 O 0.4135(5) -0.6144(2) -0.3808(4)
O19? O 0.5594(3) -0.60925(12) -0.2572(2)
O21? O 0.6916(6) -0.5923(2) -0.3409(3)
N4? N 0.2343(6) -0.5659(3) -0.5002(5)
loop_
_geom_bond_atom_site_label_1
_geom_bond_atom_site_label_2
_geom_bond_site_symmetry_1
_geom_bond_site_symmetry_2
O1 C2 1_555 1_555
O2 H1 1_555 1_555
O3 H2 1_555 1_555
O4 H3 1_555 1_555
O5 H4 1_555 1_555
O6 H5 1_555 1_555
O7 H6 1_555 1_555
O8 H7 1_555 1_555
O9 H8 1_555 1_555
O10 H9 1_555 1_555
O11 H10 1_555 1_555
O12 H11 1_555 1_555
O13 H12 1_555 1_555
O14 H13 1_555 1_555
O15 H14 1_555 1_555
O16 H15 1_555 1_555
C1 C2 1_555 1_555
C2 C3 1_555 1_555
C3 H16 1_555 1_555
C4 O2 1_555 1_555
C5 C4 1_555 1_555
C6 C1 1_555 1_555
H17 C6 1_555 1_555
C7 C5 1_555 1_555
H18 C7 1_555 1_555
C8 C7 1_555 1_555
H19 C8 1_555 1_555
H20 C8 1_555 1_555
H21 C8 1_555 1_555
C9 C7 1_555 1_555
C10 O3 1_555 1_555
C11 C10 1_555 1_555
H22 C11 1_555 1_555
C12 O4 1_555 1_555
C13 C12 1_555 1_555
C14 C9 1_555 1_555
H23 C14 1_555 1_555
C15 C13 1_555 1_555
H24 C15 1_555 1_555
C16 C15 1_555 1_555
H25 C16 1_555 1_555
H26 C16 1_555 1_555
H27 C16 1_555 1_555
C17 C15 1_555 1_555
C18 O5 1_555 1_555
C19 C18 1_555 1_555
H28 C19 1_555 1_555
C20 O6 1_555 1_555
C21 C20 1_555 1_555
C22 C17 1_555 1_555
H29 C22 1_555 1_555
C23 C21 1_555 1_555
H30 C23 1_555 1_555
C24 C23 1_555 1_555
H31 C24 1_555 1_555
H32 C24 1_555 1_555
H33 C24 1_555 1_555
C25 C23 1_555 1_555
C26 O7 1_555 1_555
C27 C26 1_555 1_555
H34 C27 1_555 1_555
C28 O8 1_555 1_555
C29 C28 1_555 1_555
C30 C25 1_555 1_555
H35 C30 1_555 1_555
C31 C1 1_555 1_555
H36 C31 1_555 1_555
C32 C31 1_555 1_555
H37 C32 1_555 1_555
H38 C32 1_555 1_555
H39 C32 1_555 1_555
C33 C34 1_555 1_555
C34 O9 1_555 1_555
C35 C34 1_555 1_555
H40 C35 1_555 1_555
C36 O10 1_555 1_555
C37 C36 1_555 1_555
C38 C33 1_555 1_555
H41 C38 1_555 1_555
C39 C37 1_555 1_555
H42 C39 1_555 1_555
C40 C39 1_555 1_555
H43 C40 1_555 1_555
H44 C40 1_555 1_555
H45 C40 1_555 1_555
C41 C39 1_555 1_555
C42 O11 1_555 1_555
C43 C42 1_555 1_555
H46 C43 1_555 1_555
C44 O12 1_555 1_555
C45 C44 1_555 1_555
C46 C41 1_555 1_555
H47 C46 1_555 1_555
C47 C45 1_555 1_555
H48 C47 1_555 1_555
C48 C47 1_555 1_555
H49 C48 1_555 1_555
H50 C48 1_555 1_555
H51 C48 1_555 1_555
C49 C47 1_555 1_555
C50 O13 1_555 1_555
C51 C50 1_555 1_555
H52 C51 1_555 1_555
C52 O14 1_555 1_555
C53 C52 1_555 1_555
C54 C49 1_555 1_555
H53 C54 1_555 1_555
C55 C53 1_555 1_555
H54 C55 1_555 1_555
C56 C55 1_555 1_555
H55 C56 1_555 1_555
H56 C56 1_555 1_555
H57 C56 1_555 1_555
C57 C55 1_555 1_555
C58 O15 1_555 1_555
C59 C58 1_555 1_555
H58 C59 1_555 1_555
C60 O16 1_555 1_555
C61 C60 1_555 1_555
C62 C57 1_555 1_555
H59 C62 1_555 1_555
C63 C33 1_555 1_555
H60 C63 1_555 1_555
C64 C63 1_555 1_555
H61 C64 1_555 1_555
H62 C64 1_555 1_555
H63 C64 1_555 1_555
C65 H64 1_555 1_555
C66 C65 1_555 1_555
H65 C66 1_555 1_555
C67 C66 1_555 1_555
C68 C67 1_555 1_555
H66 C68 1_555 1_555
C69 C68 1_555 1_555
H67 C69 1_555 1_555
C70 C67 1_555 1_555
C71 C70 1_555 1_555
H68 C71 1_555 1_555
C72 C71 1_555 1_555
H69 C72 1_555 1_555
C73 H70 1_555 1_555
C74 C70 1_555 1_555
H71 C74 1_555 1_555
N1 C75 1_555 1_555
C75 C76 1_555 1_555
C76 C77 1_555 1_555
C77 C78 1_555 1_555
C78 C79 1_555 1_555
C79 N1 1_555 1_555
N2 C65 1_555 1_555
N3 C72 1_555 1_555
H72 O1 1_555 1_555
C77B C77 1_555 1_555
C76B C77B 1_555 1_555
C75B C76B 1_555 1_555
N1B C75B 1_555 1_555
C79B N1B 1_555 1_555
C78B C77B 1_555 1_555
C3 C4 1_555 1_555
C5 C6 1_555 1_555
C9 C10 1_555 1_555
C11 C12 1_555 1_555
C13 C14 1_555 1_555
C17 C18 1_555 1_555
C19 C20 1_555 1_555
C21 C22 1_555 1_555
C25 C26 1_555 1_555
C27 C28 1_555 1_555
C29 C30 1_555 1_555
C29 C31 1_555 1_555
C35 C36 1_555 1_555
C37 C38 1_555 1_555
C41 C42 1_555 1_555
C43 C44 1_555 1_555
C45 C46 1_555 1_555
C49 C50 1_555 1_555
C51 C52 1_555 1_555
C53 C54 1_555 1_555
C57 C58 1_555 1_555
C59 C60 1_555 1_555
C61 C62 1_555 1_555
C61 C63 1_555 1_555
C69 N2 1_555 1_555
C73 N3 1_555 1_555
C73 C74 1_555 1_555
C79B C78B 1_555 1_555

#END
