
#######################################################################
#
#                 Cambridge Crystallographic Data Centre
#                                CCDC 
#
#######################################################################
#
# If this CIF has been generated from an entry in the Cambridge 
# Structural Database, then it will include bibliographic, chemical, 
# crystal, experimental, refinement or atomic coordinate data resulting 
# from the CCDC's data processing and validation procedures.
#
#######################################################################

data_MEXNOU
_chemical_formula_moiety         'C8 H15 O2 1-,C5 H13 N2 O1 1+'
_chemical_name_systematic        
'3-Amino-2,2-dimethyl-3-oxopropan-1-aminium 2-ethylhexanoate'
_symmetry_cell_setting           monoclinic
_symmetry_space_group_name_H-M   'P 21/c'
_symmetry_Int_Tables_number      14
_space_group_name_Hall           '-P 2ybc'
loop_
_symmetry_equiv_pos_site_id
_symmetry_equiv_pos_as_xyz
1 x,y,z
2 -x,1/2+y,1/2-z
3 -x,-y,-z
4 x,1/2-y,1/2+z
_cell_length_a                   12.2603(10)
_cell_length_b                   12.7294(11)
_cell_length_c                   10.9082(9)
_cell_angle_alpha                90
_cell_angle_beta                 110.413(6)
_cell_angle_gamma                90
_cell_volume                     1595.5
_exptl_crystal_colour            colorless
_exptl_crystal_description       plate
_cell_formula_units_Z            4
loop_
_atom_site_label
_atom_site_type_symbol
_atom_site_fract_x
_atom_site_fract_y
_atom_site_fract_z
O1 O 0.36444(17) 0.52380(14) 0.93964(17)
N1 N 0.3776(2) 0.58845(18) 1.1364(2)
H1 H 0.404(3) 0.653(3) 1.117(3)
H2 H 0.367(3) 0.581(2) 1.216(3)
N2 N 0.5042(2) 0.32161(17) 1.1314(2)
H3 H 0.545(3) 0.377(2) 1.108(3)
H4 H 0.539(2) 0.256(2) 1.117(3)
H5 H 0.516(3) 0.325(2) 1.221(3)
C1 C 0.3531(2) 0.51274(19) 1.0476(2)
C2 C 0.3066(2) 0.40766(19) 1.0784(2)
C3 C 0.3793(2) 0.31923(19) 1.0499(2)
H6 H 0.3464 0.2510 1.0632
H7 H 0.3720 0.3233 0.9567
C4 C 0.1822(3) 0.3954(2) 0.9813(3)
H8 H 0.1825 0.4001 0.8918
H9 H 0.1331 0.4513 0.9959
H10 H 0.1512 0.3269 0.9942
C5 C 0.3064(3) 0.4004(2) 1.2188(3)
H11 H 0.3853 0.4124 1.2807
H12 H 0.2799 0.3304 1.2334
H13 H 0.2538 0.4537 1.2318
O2 O 0.60942(19) 0.13956(15) 1.10526(18)
O3 O 0.56286(18) 0.19678(13) 0.90330(17)
C6 C 0.6260(3) 0.1437(2) 0.9987(3)
C7 C 0.7290(3) 0.0844(3) 0.9866(4)
H14 H 0.7579 0.0493 1.0740
C8 C 0.8223(5) 0.1512(5) 0.9943(9)
H15 H 0.8001 0.1871 0.9086
H16 H 0.8883 0.1045 0.9993
C9 C 0.8711(6) 0.2337(7) 1.0936(13)
H17 H 0.8078 0.2864 1.0697
H18 H 0.8676 0.2000 1.1739
C10 C 0.9605(6) 0.2905(6) 1.1381(10)
H19 H 0.9624 0.3327 1.0627
H20 H 1.0270 0.2412 1.1584
C11 C 0.9912(7) 0.3625(8) 1.2464(10)
H21 H 1.0516 0.4106 1.2406
H22 H 1.0207 0.3231 1.3286
H23 H 0.9223 0.4027 1.2437
C12 C 0.6960(3) -0.0078(2) 0.9025(4)
H24 H 0.6446 0.0162 0.8151
H25 H 0.6484 -0.0534 0.9377
C13 C 0.7885(3) -0.0745(2) 0.8833(3)
H26 H 0.7531 -0.1246 0.8123
H27 H 0.8294 -0.1129 0.9642
H28 H 0.8439 -0.0299 0.8607
H29? H 0.7274 0.1290 0.9105
C14? C 0.8397(8) 0.1258(6) 1.0630(10)
H30? H 0.8917 0.1155 1.0120
H31? H 0.8704 0.0809 1.1418
C15? C 0.8539(7) 0.2357(7) 1.1085(8)
H32? H 0.8430 0.2826 1.0327
H33? H 0.7927 0.2527 1.1452
C16? C 0.9669(9) 0.2561(9) 1.2067(9)
H34? H 1.0281 0.2265 1.1770
H35? H 0.9719 0.2201 1.2890
C17? C 0.9898(8) 0.3775(7) 1.2343(8)
H36? H 1.0618 0.3874 1.3093
H37? H 0.9245 0.4087 1.2535
H38? H 0.9973 0.4116 1.1571
loop_
_geom_bond_atom_site_label_1
_geom_bond_atom_site_label_2
_geom_bond_site_symmetry_1
_geom_bond_site_symmetry_2
O1 C1 1_555 1_555
N1 H1 1_555 1_555
H2 N1 1_555 1_555
N2 H3 1_555 1_555
H4 N2 1_555 1_555
H5 N2 1_555 1_555
C1 N1 1_555 1_555
C2 C1 1_555 1_555
C3 N2 1_555 1_555
H6 C3 1_555 1_555
H7 C3 1_555 1_555
C4 C2 1_555 1_555
H8 C4 1_555 1_555
H9 C4 1_555 1_555
H10 C4 1_555 1_555
C5 C2 1_555 1_555
H11 C5 1_555 1_555
H12 C5 1_555 1_555
H13 C5 1_555 1_555
O2 C6 1_555 1_555
O3 C6 1_555 1_555
C6 C7 1_555 1_555
C7 H14 1_555 1_555
C8 C7 1_555 1_555
H15 C8 1_555 1_555
H16 C8 1_555 1_555
C9 C8 1_555 1_555
H17 C9 1_555 1_555
H18 C9 1_555 1_555
C10 C9 1_555 1_555
H19 C10 1_555 1_555
H20 C10 1_555 1_555
C11 C10 1_555 1_555
H21 C11 1_555 1_555
H22 C11 1_555 1_555
H23 C11 1_555 1_555
C12 C7 1_555 1_555
H24 C12 1_555 1_555
H25 C12 1_555 1_555
C13 C12 1_555 1_555
H26 C13 1_555 1_555
H27 C13 1_555 1_555
H28 C13 1_555 1_555
C2 C3 1_555 1_555

#END
