
#######################################################################
#
#                 Cambridge Crystallographic Data Centre
#                                CCDC 
#
#######################################################################
#
# If this CIF has been generated from an entry in the Cambridge 
# Structural Database, then it will include bibliographic, chemical, 
# crystal, experimental, refinement or atomic coordinate data resulting 
# from the CCDC's data processing and validation procedures.
#
#######################################################################

data_MEXXUI
_chemical_formula_moiety         'C20 H24 N2'
_chemical_name_systematic        
2,2'-Dimethyl-1,1',2,2',3,3',4,4'-octahydro-1,1'-bi-isoquinoline
_symmetry_cell_setting           monoclinic
_symmetry_space_group_name_H-M   'P 21/c'
_symmetry_Int_Tables_number      14
_space_group_name_Hall           '-P 2ybc'
loop_
_symmetry_equiv_pos_site_id
_symmetry_equiv_pos_as_xyz
1 x,y,z
2 x,1/2-y,1/2+z
3 -x,-y,-z
4 -x,1/2+y,1/2-z
_cell_length_a                   11.039(2)
_cell_length_b                   7.791(2)
_cell_length_c                   19.001(4)
_cell_angle_alpha                90.00
_cell_angle_beta                 104.31(3)
_cell_angle_gamma                90.00
_cell_volume                     1583.47
_exptl_crystal_colour            colorless
_exptl_crystal_description       block
_cell_formula_units_Z            4
_exptl_crystal_recrystallization_method 'ethanol/diethyl ether'
loop_
_atom_site_label
_atom_site_type_symbol
_atom_site_fract_x
_atom_site_fract_y
_atom_site_fract_z
N1 N 0.7036(2) 0.7824(3) 0.00238(11)
N2 N 0.7871(2) 1.2393(3) 0.00774(12)
C1 C 0.6975(2) 0.9591(3) 0.03047(14)
H1 H 0.623(2) 1.022(3) -0.0038(13)
C2 C 0.6708(2) 0.9634(3) 0.10556(13)
C3 C 0.6721(2) 1.1223(4) 0.14050(15)
H2 H 0.690(2) 1.229(4) 0.1159(14)
C4 C 0.6448(3) 1.1336(4) 0.20752(15)
H3 H 0.650(2) 1.245(4) 0.2321(15)
C5 C 0.6160(3) 0.9863(4) 0.24114(16)
H4 H 0.597(3) 0.993(4) 0.2903(15)
C6 C 0.6135(3) 0.8293(4) 0.20687(15)
H5 H 0.594(3) 0.723(4) 0.2296(15)
C7 C 0.6407(2) 0.8167(4) 0.13948(14)
C8 C 0.6360(3) 0.6452(4) 0.10174(16)
H6 H 0.714(3) 0.587(4) 0.1189(14)
H7 H 0.573(3) 0.567(4) 0.1152(14)
C9 C 0.6093(3) 0.6695(4) 0.02077(16)
H8 H 0.615(3) 0.560(4) -0.0043(14)
H9 H 0.521(3) 0.720(4) 0.0009(15)
C10 C 0.6839(3) 0.7853(4) -0.07692(16)
H10 H 0.692(3) 0.665(4) -0.0961(17)
H11 H 0.751(3) 0.860(4) -0.0909(16)
H12 H 0.597(3) 0.829(4) -0.1007(16)
C11 C 0.8194(2) 1.0581(3) 0.02760(14)
H13 H 0.853(2) 1.006(3) -0.0127(14)
C12 C 0.9232(2) 1.0390(4) 0.09627(14)
C13 C 0.9553(2) 0.8736(4) 0.12412(15)
H14 H 0.910(2) 0.774(4) 0.0979(14)
C14 C 1.0516(3) 0.8486(4) 0.18534(15)
H15 H 1.070(3) 0.731(4) 0.2062(15)
C15 C 1.1173(3) 0.9885(5) 0.21992(16)
H16 H 1.193(3) 0.969(4) 0.2631(15)
C16 C 1.0869(3) 1.1523(4) 0.19293(15)
H17 H 1.135(3) 1.251(4) 0.2177(15)
C17 C 0.9904(2) 1.1789(4) 0.13179(14)
C18 C 0.9586(3) 1.3568(4) 0.10188(16)
H18 H 1.041(3) 1.427(4) 0.1130(15)
H19 H 0.904(3) 1.410(4) 0.1298(16)
C19 C 0.8973(3) 1.3507(4) 0.02209(16)
H20 H 0.869(3) 1.468(4) 0.0045(15)
H21 H 0.962(3) 1.310(4) -0.0044(15)
C20 C 0.7237(3) 1.2506(4) -0.07015(16)
H22 H 0.700(3) 1.371(4) -0.0837(17)
H23 H 0.641(3) 1.182(4) -0.0819(16)
H24 H 0.787(3) 1.216(4) -0.0994(16)
loop_
_geom_bond_atom_site_label_1
_geom_bond_atom_site_label_2
_geom_bond_site_symmetry_1
_geom_bond_site_symmetry_2
N1 C1 1_555 1_555
N2 C11 1_555 1_555
C1 H1 1_555 1_555
C2 C1 1_555 1_555
C3 C2 1_555 1_555
H2 C3 1_555 1_555
C4 C3 1_555 1_555
H3 C4 1_555 1_555
C5 C4 1_555 1_555
H4 C5 1_555 1_555
C6 C5 1_555 1_555
H5 C6 1_555 1_555
C7 C2 1_555 1_555
C8 C7 1_555 1_555
H6 C8 1_555 1_555
H7 C8 1_555 1_555
C9 N1 1_555 1_555
H8 C9 1_555 1_555
H9 C9 1_555 1_555
C10 N1 1_555 1_555
H10 C10 1_555 1_555
H11 C10 1_555 1_555
H12 C10 1_555 1_555
C11 C1 1_555 1_555
H13 C11 1_555 1_555
C12 C11 1_555 1_555
C13 C12 1_555 1_555
H14 C13 1_555 1_555
C14 C13 1_555 1_555
H15 C14 1_555 1_555
C15 C14 1_555 1_555
H16 C15 1_555 1_555
C16 C15 1_555 1_555
H17 C16 1_555 1_555
C17 C12 1_555 1_555
C18 C17 1_555 1_555
H18 C18 1_555 1_555
H19 C18 1_555 1_555
C19 N2 1_555 1_555
H20 C19 1_555 1_555
H21 C19 1_555 1_555
C20 N2 1_555 1_555
H22 C20 1_555 1_555
H23 C20 1_555 1_555
H24 C20 1_555 1_555
C6 C7 1_555 1_555
C8 C9 1_555 1_555
C16 C17 1_555 1_555
C18 C19 1_555 1_555

#END
