
#######################################################################
#
#                 Cambridge Crystallographic Data Centre
#                                CCDC 
#
#######################################################################
#
# If this CIF has been generated from an entry in the Cambridge 
# Structural Database, then it will include bibliographic, chemical, 
# crystal, experimental, refinement or atomic coordinate data resulting 
# from the CCDC's data processing and validation procedures.
#
#######################################################################

data_MEYDAX
_chemical_formula_moiety         'C13 H18 N2 O1 S1'
_chemical_name_systematic        N-Cyclohexyl-2-(methylsulfanyl)nicotinamide
_symmetry_cell_setting           orthorhombic
_symmetry_space_group_name_H-M   'P c a 21'
_symmetry_Int_Tables_number      29
_space_group_name_Hall           'P 2c -2ac'
loop_
_symmetry_equiv_pos_site_id
_symmetry_equiv_pos_as_xyz
1 x,y,z
2 -x,-y,1/2+z
3 1/2-x,y,1/2+z
4 1/2+x,-y,z
_cell_length_a                   11.5273(9)
_cell_length_b                   13.4634(10)
_cell_length_c                   8.3956(6)
_cell_angle_alpha                90
_cell_angle_beta                 90
_cell_angle_gamma                90
_cell_volume                     1302.97
_exptl_crystal_colour            colorless
_exptl_crystal_description       plate
_cell_formula_units_Z            4
loop_
_atom_site_label
_atom_site_type_symbol
_atom_site_fract_x
_atom_site_fract_y
_atom_site_fract_z
S1 S 0.57915(2) 0.73272(2) 0.50452(5)
O1 O 0.35932(8) 0.73433(7) 0.35091(12)
N1 N 0.21218(8) 0.75002(7) 0.52819(14)
H1 H 0.1828 0.7291 0.6189
N2 N 0.55072(9) 0.58148(10) 0.70269(16)
C1 C 0.31404(10) 0.71397(9) 0.47992(16)
C2 C 0.49487(10) 0.64461(9) 0.60905(16)
C3 C 0.37295(10) 0.64360(9) 0.59140(15)
C4 C 0.31125(11) 0.57267(9) 0.67571(17)
H2 H 0.2292 0.5698 0.6669
C5 C 0.36892(13) 0.50619(11) 0.7725(2)
H3 H 0.3280 0.4570 0.8310
C6 C 0.48803(14) 0.51356(12) 0.7814(2)
H4 H 0.5281 0.4677 0.8474
C7 C 0.71530(12) 0.72066(11) 0.6085(2)
H5 H 0.7017 0.7247 0.7235
H6 H 0.7676 0.7743 0.5757
H7 H 0.7505 0.6564 0.5827
C8 C 0.14793(10) 0.82314(9) 0.43501(16)
H8 H 0.1579 0.8071 0.3195
C9 C 0.19572(10) 0.92726(9) 0.46497(18)
H9 H 0.1877 0.9440 0.5793
H10 H 0.2792 0.9290 0.4376
C10 C 0.13070(11) 1.00374(10) 0.36499(19)
H11 H 0.1615 1.0709 0.3876
H12 H 0.1429 0.9896 0.2505
C11 C 0.00155(11) 1.00077(10) 0.40255(17)
H13 H -0.0400 1.0478 0.3321
H14 H -0.0112 1.0219 0.5141
C12 C -0.04705(10) 0.89657(10) 0.37903(18)
H15 H -0.0435 0.8793 0.2645
H16 H -0.1296 0.8958 0.4117
C13 C 0.01919(10) 0.81846(9) 0.47470(17)
H17 H 0.0078 0.8304 0.5900
H18 H -0.0112 0.7515 0.4493
loop_
_geom_bond_atom_site_label_1
_geom_bond_atom_site_label_2
_geom_bond_site_symmetry_1
_geom_bond_site_symmetry_2
S1 C2 1_555 1_555
O1 C1 1_555 1_555
N1 H1 1_555 1_555
N2 C2 1_555 1_555
C1 N1 1_555 1_555
C2 C3 1_555 1_555
C3 C1 1_555 1_555
C4 C3 1_555 1_555
H2 C4 1_555 1_555
C5 C4 1_555 1_555
H3 C5 1_555 1_555
C6 N2 1_555 1_555
H4 C6 1_555 1_555
C7 S1 1_555 1_555
H5 C7 1_555 1_555
H6 C7 1_555 1_555
H7 C7 1_555 1_555
C8 N1 1_555 1_555
H8 C8 1_555 1_555
C9 C8 1_555 1_555
H9 C9 1_555 1_555
H10 C9 1_555 1_555
C10 C9 1_555 1_555
H11 C10 1_555 1_555
H12 C10 1_555 1_555
C11 C10 1_555 1_555
H13 C11 1_555 1_555
H14 C11 1_555 1_555
C12 C11 1_555 1_555
H15 C12 1_555 1_555
H16 C12 1_555 1_555
C13 C8 1_555 1_555
H17 C13 1_555 1_555
H18 C13 1_555 1_555
C5 C6 1_555 1_555
C12 C13 1_555 1_555

#END
