
#######################################################################
#
#                 Cambridge Crystallographic Data Centre
#                                CCDC 
#
#######################################################################
#
# If this CIF has been generated from an entry in the Cambridge 
# Structural Database, then it will include bibliographic, chemical, 
# crystal, experimental, refinement or atomic coordinate data resulting 
# from the CCDC's data processing and validation procedures.
#
#######################################################################

data_MEYDEB
_chemical_formula_moiety         'C15 H12 Cl1 N1 O1'
_chemical_name_systematic        10-(2-Chloroethyl)acridin-9(10H)-one
_symmetry_cell_setting           monoclinic
_symmetry_space_group_name_H-M   'P 21/c'
_symmetry_Int_Tables_number      14
_space_group_name_Hall           '-P 2ybc'
loop_
_symmetry_equiv_pos_site_id
_symmetry_equiv_pos_as_xyz
1 x,y,z
2 -x,1/2+y,1/2-z
3 -x,-y,-z
4 x,1/2-y,1/2+z
_cell_length_a                   9.3632(16)
_cell_length_b                   16.449(3)
_cell_length_c                   8.0359(14)
_cell_angle_alpha                90
_cell_angle_beta                 92.151(2)
_cell_angle_gamma                90
_cell_volume                     1236.78
_exptl_crystal_colour            yellow
_exptl_crystal_description       block
_chemical_melting_point          '446-447 K'
_cell_formula_units_Z            4
_exptl_crystal_recrystallization_method 'ethyl acetate'
loop_
_atom_site_label
_atom_site_type_symbol
_atom_site_fract_x
_atom_site_fract_y
_atom_site_fract_z
C1 C 0.0205(2) 0.08043(13) 0.7814(3)
H1 H -0.0168 0.0530 0.8712
C2 C -0.0171(3) 0.15959(14) 0.7534(3)
H2 H -0.0790 0.1859 0.8236
C3 C 0.0379(3) 0.20009(14) 0.6197(3)
H3 H 0.0123 0.2540 0.6003
C4 C 0.1298(3) 0.16249(14) 0.5145(3)
H4 H 0.1644 0.1910 0.4246
C5 C 0.1719(2) 0.08091(12) 0.5421(2)
C6 C 0.1141(2) 0.03964(12) 0.6778(2)
C7 C 0.2452(2) -0.08379(12) 0.5968(2)
C8 C 0.3009(2) -0.04030(13) 0.4635(2)
C9 C 0.3915(3) -0.08196(15) 0.3559(3)
H5 H 0.4311 -0.0544 0.2678
C10 C 0.4217(3) -0.16267(16) 0.3804(3)
H6 H 0.4816 -0.1890 0.3081
C11 C 0.3649(3) -0.20603(15) 0.5104(3)
H7 H 0.3850 -0.2610 0.5244
C12 C 0.2787(2) -0.16614(13) 0.6179(3)
H8 H 0.2417 -0.1944 0.7067
C13 C 0.1518(2) -0.04469(12) 0.7143(2)
C14 C 0.3403(3) 0.08770(15) 0.3099(3)
H9 H 0.4369 0.0673 0.3009
H10 H 0.3460 0.1446 0.3415
C15 C 0.2605(3) 0.07982(16) 0.1430(3)
H11 H 0.1650 0.1021 0.1495
H12 H 0.2527 0.0230 0.1113
N1 N 0.26716(19) 0.04160(11) 0.4393(2)
O1 O 0.1067(2) -0.08161(10) 0.8371(2)
Cl1 Cl 0.35873(8) 0.13471(5) -0.00726(8)
loop_
_geom_bond_atom_site_label_1
_geom_bond_atom_site_label_2
_geom_bond_site_symmetry_1
_geom_bond_site_symmetry_2
C1 H1 1_555 1_555
C2 C1 1_555 1_555
H2 C2 1_555 1_555
C3 C2 1_555 1_555
H3 C3 1_555 1_555
C4 C3 1_555 1_555
H4 C4 1_555 1_555
C5 C4 1_555 1_555
C6 C1 1_555 1_555
C7 C8 1_555 1_555
C8 C9 1_555 1_555
C9 H5 1_555 1_555
C10 C9 1_555 1_555
H6 C10 1_555 1_555
C11 C10 1_555 1_555
H7 C11 1_555 1_555
C12 C7 1_555 1_555
H8 C12 1_555 1_555
C13 C6 1_555 1_555
C14 H9 1_555 1_555
H10 C14 1_555 1_555
C15 C14 1_555 1_555
H11 C15 1_555 1_555
H12 C15 1_555 1_555
N1 C5 1_555 1_555
O1 C13 1_555 1_555
Cl1 C15 1_555 1_555
C5 C6 1_555 1_555
C7 C13 1_555 1_555
C8 N1 1_555 1_555
C11 C12 1_555 1_555
C14 N1 1_555 1_555

#END
