
#######################################################################
#
#                 Cambridge Crystallographic Data Centre
#                                CCDC 
#
#######################################################################
#
# If this CIF has been generated from an entry in the Cambridge 
# Structural Database, then it will include bibliographic, chemical, 
# crystal, experimental, refinement or atomic coordinate data resulting 
# from the CCDC's data processing and validation procedures.
#
#######################################################################

data_MEYNUB
_chemical_formula_moiety         'C19 H17 N5 O2'
_chemical_name_systematic        
1,3,7-Trimethyl-8-(5H-pyrrolo[2,1-a]isoindol-1-yl)-3,7-dihydro-1H-purine-2,6-dione
_symmetry_cell_setting           monoclinic
_symmetry_space_group_name_H-M   'P 21/n'
_symmetry_Int_Tables_number      14
_space_group_name_Hall           '-P 2yn'
loop_
_symmetry_equiv_pos_site_id
_symmetry_equiv_pos_as_xyz
1 x,y,z
2 1/2-x,1/2+y,1/2-z
3 -x,-y,-z
4 1/2+x,1/2-y,1/2+z
_cell_length_a                   10.7269(6)
_cell_length_b                   9.3476(4)
_cell_length_c                   17.1646(11)
_cell_angle_alpha                90
_cell_angle_beta                 107.392(7)
_cell_angle_gamma                90
_cell_volume                     1642.42
_exptl_crystal_colour            yellow
_exptl_crystal_description       block
_cell_formula_units_Z            4
loop_
_atom_site_label
_atom_site_type_symbol
_atom_site_fract_x
_atom_site_fract_y
_atom_site_fract_z
O1 O 1.1965(3) 0.9635(3) -0.1043(2)
O2 O 1.2668(3) 0.9902(3) 0.1709(2)
N1 N 1.2275(3) 0.9770(3) 0.0334(3)
N2 N 1.0639(3) 0.8300(4) -0.0529(2)
N3 N 0.9396(3) 0.6926(3) 0.01668(19)
N4 N 1.0429(3) 0.7697(3) 0.14305(19)
N5 N 0.7052(3) 0.4401(4) 0.12870(19)
C1 C 1.1653(4) 0.9261(4) -0.0444(3)
C2 C 1.2024(4) 0.9390(4) 0.1056(3)
C3 C 1.0989(4) 0.8387(4) 0.0909(2)
C4 C 1.0333(4) 0.7888(4) 0.0154(2)
C5 C 0.9473(4) 0.6844(4) 0.0953(2)
C6 C 1.3329(5) 1.0803(5) 0.0391(4)
H1 H 1.2994 1.1757 0.0380
H2 H 1.3670 1.0671 -0.0061
H3 H 1.4014 1.0656 0.0893
C7 C 0.9936(5) 0.7700(5) -0.1348(2)
H4 H 1.0560 0.7368 -0.1607
H5 H 0.9401 0.8430 -0.1678
H6 H 0.9395 0.6917 -0.1285
C8 C 1.0878(5) 0.7862(5) 0.2307(3)
H7 H 1.1703 0.8351 0.2463
H8 H 1.0979 0.6937 0.2561
H9 H 1.0252 0.8410 0.2481
C9 C 0.8611(4) 0.5943(4) 0.1262(2)
C10 C 0.8509(5) 0.5811(5) 0.2068(3)
H10 H 0.9026 0.6299 0.2522
C11 C 0.7562(5) 0.4885(5) 0.2076(2)
H11 H 0.7300 0.4621 0.2526
C12 C 0.7653(4) 0.5025(4) 0.0787(2)
C13 C 0.7071(4) 0.4494(4) -0.0041(2)
C14 C 0.6050(4) 0.3535(4) 0.0002(2)
C15 C 0.6014(4) 0.3442(4) 0.0867(2)
H12 H 0.5179 0.3758 0.0914
H13 H 0.6184 0.2474 0.1076
C16 C 0.5287(4) 0.2893(4) -0.0680(3)
H14 H 0.4599 0.2306 -0.0655
C17 C 0.5541(5) 0.3119(5) -0.1421(3)
H15 H 0.5033 0.2672 -0.1893
C18 C 0.6552(4) 0.4010(4) -0.1447(2)
H16 H 0.6727 0.4136 -0.1941
C19 C 0.7306(4) 0.4714(4) -0.0772(2)
H17 H 0.7966 0.5331 -0.0809
loop_
_geom_bond_atom_site_label_1
_geom_bond_atom_site_label_2
_geom_bond_site_symmetry_1
_geom_bond_site_symmetry_2
O1 C1 1_555 1_555
O2 C2 1_555 1_555
N1 C1 1_555 1_555
N2 C1 1_555 1_555
N3 C4 1_555 1_555
N4 C3 1_555 1_555
N5 C11 1_555 1_555
C2 N1 1_555 1_555
C3 C2 1_555 1_555
C4 N2 1_555 1_555
C5 N3 1_555 1_555
C6 N1 1_555 1_555
H1 C6 1_555 1_555
H2 C6 1_555 1_555
H3 C6 1_555 1_555
C7 N2 1_555 1_555
H4 C7 1_555 1_555
H5 C7 1_555 1_555
H6 C7 1_555 1_555
C8 N4 1_555 1_555
H7 C8 1_555 1_555
H8 C8 1_555 1_555
H9 C8 1_555 1_555
C9 C5 1_555 1_555
C10 C9 1_555 1_555
H10 C10 1_555 1_555
C11 C10 1_555 1_555
H11 C11 1_555 1_555
C12 N5 1_555 1_555
C13 C12 1_555 1_555
C14 C13 1_555 1_555
C15 N5 1_555 1_555
H12 C15 1_555 1_555
H13 C15 1_555 1_555
C16 C14 1_555 1_555
H14 C16 1_555 1_555
C17 C16 1_555 1_555
H15 C17 1_555 1_555
C18 C17 1_555 1_555
H16 C18 1_555 1_555
C19 C13 1_555 1_555
H17 C19 1_555 1_555
N4 C5 1_555 1_555
C3 C4 1_555 1_555
C9 C12 1_555 1_555
C14 C15 1_555 1_555
C18 C19 1_555 1_555

#END
