
#######################################################################
#
#                 Cambridge Crystallographic Data Centre
#                                CCDC 
#
#######################################################################
#
# If this CIF has been generated from an entry in the Cambridge 
# Structural Database, then it will include bibliographic, chemical, 
# crystal, experimental, refinement or atomic coordinate data resulting 
# from the CCDC's data processing and validation procedures.
#
#######################################################################

data_MEYROX
_chemical_compound_source        'seeds of Caesalpinia minax Hance'
_chemical_name_common            'Caesalmin E methanol solvate'
_chemical_formula_moiety         'C26 H36 O9,C1 H4 O1'
_chemical_name_systematic        
'5\a,14\b-Dihydroxy-1\a,6\a,7\b-triacetoxyvouacapane methanol solvate'
_chemical_properties_biological  'significant activity against the Para3 virus'
_symmetry_cell_setting           orthorhombic
_symmetry_space_group_name_H-M   'P 21 21 21'
_symmetry_Int_Tables_number      19
_space_group_name_Hall           'P 2ac 2ab'
loop_
_symmetry_equiv_pos_site_id
_symmetry_equiv_pos_as_xyz
1 x,y,z
2 1/2-x,-y,1/2+z
3 -x,1/2+y,1/2-z
4 1/2+x,1/2-y,-z
_cell_length_a                   10.7110(17)
_cell_length_b                   11.668(5)
_cell_length_c                   20.971(4)
_cell_angle_alpha                90
_cell_angle_beta                 90
_cell_angle_gamma                90
_cell_volume                     2620.87
_exptl_crystal_colour            colorless
_exptl_crystal_description       block
_chemical_melting_point          '135-136 deg.C'
_cell_formula_units_Z            4
loop_
_atom_site_label
_atom_site_type_symbol
_atom_site_fract_x
_atom_site_fract_y
_atom_site_fract_z
O1 O 0.8457(3) 0.5367(3) -0.02097(15)
O2 O 1.0073(4) 0.4522(4) -0.07180(18)
O3 O 0.6670(3) 0.6404(3) 0.06784(15)
H1 H 0.7292 0.6556 0.0467
O4 O 0.5327(3) 0.6016(3) 0.17708(14)
O5 O 0.4735(5) 0.4810(4) 0.25509(16)
O6 O 0.3611(3) 0.4242(3) 0.12298(14)
O7 O 0.2398(3) 0.5710(4) 0.15392(19)
O8 O 0.2500(4) 0.4455(4) -0.00147(16)
H2 H 0.1935 0.4660 -0.0253
O9 O 0.5083(4) 0.3531(3) -0.16507(14)
C1 C 0.8342(4) 0.4354(4) 0.0205(2)
H4 H 0.8455 0.3664 -0.0055
C2 C 0.9360(5) 0.4395(5) 0.0703(2)
H5 H 1.0169 0.4413 0.0495
H6 H 0.9320 0.3713 0.0966
C3 C 0.9209(5) 0.5451(5) 0.1118(2)
H7 H 0.9260 0.6126 0.0850
H8 H 0.9897 0.5481 0.1418
C4 C 0.7979(5) 0.5486(5) 0.1490(2)
C5 C 0.6852(4) 0.5330(4) 0.1001(2)
C6 C 0.5605(4) 0.5081(4) 0.1338(2)
H9 H 0.5683 0.4370 0.1583
C7 C 0.4488(4) 0.4984(4) 0.0891(2)
H10 H 0.4111 0.5744 0.0840
C8 C 0.4681(4) 0.4457(4) 0.0232(2)
H11 H 0.4502 0.3638 0.0282
C9 C 0.6031(4) 0.4525(4) -0.00334(19)
H12 H 0.6148 0.5301 -0.0201
C10 C 0.7019(4) 0.4341(4) 0.0489(2)
C11 C 0.6146(5) 0.3690(5) -0.0601(2)
H13 H 0.6916 0.3830 -0.0831
H14 H 0.6151 0.2904 -0.0450
C12 C 0.5064(5) 0.3883(4) -0.1022(2)
C13 C 0.3990(5) 0.4415(4) -0.0893(2)
C14 C 0.3697(4) 0.4913(5) -0.0248(2)
C15 C 0.3281(5) 0.4425(5) -0.1470(2)
H15 H 0.2495 0.4745 -0.1531
C16 C 0.3974(6) 0.3886(5) -0.1900(2)
H16 H 0.3732 0.3764 -0.2321
C17 C 0.3646(7) 0.6226(5) -0.0286(3)
H17 H 0.3023 0.6452 -0.0589
H18 H 0.4445 0.6514 -0.0417
H19 H 0.3439 0.6532 0.0126
C18 C 0.7935(5) 0.6673(5) 0.1816(3)
H20 H 0.8622 0.6741 0.2108
H21 H 0.7163 0.6751 0.2045
H22 H 0.7992 0.7263 0.1498
C19 C 0.8028(6) 0.4584(6) 0.2022(2)
H23 H 0.8059 0.3832 0.1837
H24 H 0.7296 0.4651 0.2284
H25 H 0.8759 0.4707 0.2279
C20 C 0.6851(5) 0.3126(4) 0.0769(2)
H26 H 0.6969 0.2567 0.0438
H27 H 0.6025 0.3052 0.0942
H28 H 0.7455 0.3004 0.1101
C21 C 0.9402(5) 0.5356(5) -0.0642(2)
C22 C 0.9522(7) 0.6446(6) -0.0988(3)
H29 H 1.0199 0.6394 -0.1287
H30 H 0.9687 0.7053 -0.0690
H31 H 0.8761 0.6604 -0.1212
C23 C 0.4901(5) 0.5773(5) 0.2365(2)
C24 C 0.4628(7) 0.6824(5) 0.2729(3)
H32 H 0.4317 0.6622 0.3143
H33 H 0.4012 0.7267 0.2506
H34 H 0.5378 0.7267 0.2774
C25 C 0.2639(4) 0.4699(5) 0.1534(2)
C26 C 0.1936(5) 0.3793(6) 0.1879(3)
H35 H 0.1241 0.4132 0.2099
H36 H 0.2477 0.3427 0.2182
H37 H 0.1636 0.3235 0.1580
O10 O 0.1429(7) 0.7713(6) 0.0913(3)
H3 H 0.1614 0.7044 0.0987
C27 C 0.1283(12) 0.8319(9) 0.1501(4)
H38 H 0.1362 0.7794 0.1851
H39 H 0.0473 0.8671 0.1513
H40 H 0.1915 0.8900 0.1533
loop_
_geom_bond_atom_site_label_1
_geom_bond_atom_site_label_2
_geom_bond_site_symmetry_1
_geom_bond_site_symmetry_2
O1 C1 1_555 1_555
O2 C21 1_555 1_555
O3 H1 1_555 1_555
O4 C6 1_555 1_555
O5 C23 1_555 1_555
O6 C7 1_555 1_555
O7 C25 1_555 1_555
O8 H2 1_555 1_555
O9 C12 1_555 1_555
O10 H3 1_555 1_555
C1 H4 1_555 1_555
C2 C1 1_555 1_555
H5 C2 1_555 1_555
H6 C2 1_555 1_555
C3 C2 1_555 1_555
H7 C3 1_555 1_555
H8 C3 1_555 1_555
C4 C3 1_555 1_555
C5 O3 1_555 1_555
C6 C5 1_555 1_555
H9 C6 1_555 1_555
C7 C6 1_555 1_555
H10 C7 1_555 1_555
C8 C7 1_555 1_555
H11 C8 1_555 1_555
C9 C8 1_555 1_555
H12 C9 1_555 1_555
C10 C1 1_555 1_555
C11 C9 1_555 1_555
H13 C11 1_555 1_555
H14 C11 1_555 1_555
C12 C11 1_555 1_555
C13 C12 1_555 1_555
C14 O8 1_555 1_555
C15 C13 1_555 1_555
H15 C15 1_555 1_555
C16 O9 1_555 1_555
H16 C16 1_555 1_555
C17 C14 1_555 1_555
H17 C17 1_555 1_555
H18 C17 1_555 1_555
H19 C17 1_555 1_555
C18 C4 1_555 1_555
H20 C18 1_555 1_555
H21 C18 1_555 1_555
H22 C18 1_555 1_555
C19 C4 1_555 1_555
H23 C19 1_555 1_555
H24 C19 1_555 1_555
H25 C19 1_555 1_555
C20 C10 1_555 1_555
H26 C20 1_555 1_555
H27 C20 1_555 1_555
H28 C20 1_555 1_555
C21 O1 1_555 1_555
C22 C21 1_555 1_555
H29 C22 1_555 1_555
H30 C22 1_555 1_555
H31 C22 1_555 1_555
C23 O4 1_555 1_555
C24 C23 1_555 1_555
H32 C24 1_555 1_555
H33 C24 1_555 1_555
H34 C24 1_555 1_555
C25 O6 1_555 1_555
C26 C25 1_555 1_555
H35 C26 1_555 1_555
H36 C26 1_555 1_555
H37 C26 1_555 1_555
C27 O10 1_555 1_555
H38 C27 1_555 1_555
H39 C27 1_555 1_555
H40 C27 1_555 1_555
C4 C5 1_555 1_555
C5 C10 1_555 1_555
C8 C14 1_555 1_555
C9 C10 1_555 1_555
C13 C14 1_555 1_555
C15 C16 1_555 1_555

#END
