
#######################################################################
#
#                 Cambridge Crystallographic Data Centre
#                                CCDC 
#
#######################################################################
#
# If this CIF has been generated from an entry in the Cambridge 
# Structural Database, then it will include bibliographic, chemical, 
# crystal, experimental, refinement or atomic coordinate data resulting 
# from the CCDC's data processing and validation procedures.
#
#######################################################################

data_MEZCOL
_chemical_formula_moiety         'C18 H15 N1 O2'
_chemical_name_systematic        
4-(4-Methoxyphenyl)-2,3-dihydrofuro[3,2-c]quinoline
_symmetry_cell_setting           monoclinic
_symmetry_space_group_name_H-M   'P 21/n'
_symmetry_Int_Tables_number      14
_space_group_name_Hall           '-P 2yn'
loop_
_symmetry_equiv_pos_site_id
_symmetry_equiv_pos_as_xyz
1 x,y,z
2 1/2-x,1/2+y,1/2-z
3 -x,-y,-z
4 1/2+x,1/2-y,1/2+z
_cell_length_a                   12.8977(8)
_cell_length_b                   7.2069(5)
_cell_length_c                   15.0389(9)
_cell_angle_alpha                90
_cell_angle_beta                 100.506(6)
_cell_angle_gamma                90
_cell_volume                     1374.47
_exptl_crystal_colour            yellow
_exptl_crystal_description       block
_cell_formula_units_Z            4
loop_
_atom_site_label
_atom_site_type_symbol
_atom_site_fract_x
_atom_site_fract_y
_atom_site_fract_z
O1 O 0.39013(8) 0.98166(16) 0.31498(8)
O2 O -0.27014(8) 1.06200(18) 0.37762(7)
N1 N 0.09671(10) 1.01126(17) 0.15352(8)
C1 C 0.37414(13) 0.9746(2) 0.11726(12)
H1 H 0.4427 0.9674 0.1497
C2 C 0.35644(14) 0.9743(3) 0.02571(12)
H2 H 0.4131 0.9673 -0.0045
C3 C 0.25372(14) 0.9846(2) -0.02393(12)
H3 H 0.2430 0.9841 -0.0868
C4 C 0.16940(13) 0.9954(2) 0.01848(11)
H4 H 0.1017 1.0014 -0.0157
C5 C 0.18352(12) 0.9974(2) 0.11371(10)
C6 C 0.28814(12) 0.9857(2) 0.16344(11)
C7 C 0.29594(12) 0.9864(2) 0.25752(11)
C8 C 0.21040(12) 0.9947(2) 0.29825(10)
C9 C 0.10974(12) 1.0106(2) 0.24326(10)
C10 C 0.24854(12) 0.9927(2) 0.39901(11)
H5 H 0.2257 0.8815 0.4263
H6 H 0.2241 1.1010 0.4275
C11 C 0.36816(13) 0.9958(3) 0.40568(11)
H7 H 0.3971 1.1103 0.4337
H8 H 0.4000 0.8926 0.4422
C12 C 0.01223(11) 1.0327(2) 0.28108(10)
C13 C -0.07020(11) 1.1397(2) 0.23615(10)
H9 H -0.0618 1.2021 0.1838
C14 C -0.16471(11) 1.1567(2) 0.26684(10)
H10 H -0.2184 1.2308 0.2357
C15 C -0.17885(11) 1.0634(2) 0.34358(10)
C16 C -0.09658(13) 0.9587(2) 0.39084(11)
H11 H -0.1050 0.8977 0.4436
C17 C -0.00305(12) 0.9444(2) 0.36028(10)
H12 H 0.0514 0.8743 0.3930
C18 C -0.36114(12) 1.1450(3) 0.32502(13)
H13 H -0.3764 1.0864 0.2668
H14 H -0.3484 1.2748 0.3176
H15 H -0.4201 1.1297 0.3552
loop_
_geom_bond_atom_site_label_1
_geom_bond_atom_site_label_2
_geom_bond_site_symmetry_1
_geom_bond_site_symmetry_2
O1 C7 1_555 1_555
O2 C15 1_555 1_555
N1 C5 1_555 1_555
C1 H1 1_555 1_555
C2 C1 1_555 1_555
H2 C2 1_555 1_555
C3 C2 1_555 1_555
H3 C3 1_555 1_555
C4 C3 1_555 1_555
H4 C4 1_555 1_555
C5 C4 1_555 1_555
C6 C1 1_555 1_555
C7 C6 1_555 1_555
C8 C7 1_555 1_555
C9 N1 1_555 1_555
C10 C8 1_555 1_555
H5 C10 1_555 1_555
H6 C10 1_555 1_555
C11 O1 1_555 1_555
H7 C11 1_555 1_555
H8 C11 1_555 1_555
C12 C9 1_555 1_555
C13 C12 1_555 1_555
H9 C13 1_555 1_555
C14 C13 1_555 1_555
H10 C14 1_555 1_555
C15 C14 1_555 1_555
C16 C15 1_555 1_555
H11 C16 1_555 1_555
C17 C12 1_555 1_555
H12 C17 1_555 1_555
C18 O2 1_555 1_555
H13 C18 1_555 1_555
H14 C18 1_555 1_555
H15 C18 1_555 1_555
C5 C6 1_555 1_555
C8 C9 1_555 1_555
C10 C11 1_555 1_555
C16 C17 1_555 1_555

#END
