
#######################################################################
#
#                 Cambridge Crystallographic Data Centre
#                                CCDC 
#
#######################################################################
#
# If this CIF has been generated from an entry in the Cambridge 
# Structural Database, then it will include bibliographic, chemical, 
# crystal, experimental, refinement or atomic coordinate data resulting 
# from the CCDC's data processing and validation procedures.
#
#######################################################################

data_MEZGAB
_chemical_formula_moiety         'C24 H14 B1 F2 N3'
_chemical_name_systematic        
17,17-Difluoro-17H-16\l^5^,17\l^5^-phenanthro[9'',10'':4',5']imidazo[1',2':3,4][1,3,2]diazaborolo[1,5-a]quinoline
_symmetry_cell_setting           monoclinic
_symmetry_space_group_name_H-M   'P 21/c'
_symmetry_Int_Tables_number      14
_space_group_name_Hall           '-P 2ybc'
loop_
_symmetry_equiv_pos_site_id
_symmetry_equiv_pos_as_xyz
1 x,y,z
2 -x,1/2+y,1/2-z
3 -x,-y,-z
4 x,1/2-y,1/2+z
_cell_length_a                   12.5133(11)
_cell_length_b                   8.5931(8)
_cell_length_c                   17.3356(15)
_cell_angle_alpha                90
_cell_angle_beta                 107.854(2)
_cell_angle_gamma                90
_cell_volume                     1774.29
_exptl_crystal_colour            red
_exptl_crystal_description       prismatic
_cell_formula_units_Z            4
loop_
_atom_site_label
_atom_site_type_symbol
_atom_site_fract_x
_atom_site_fract_y
_atom_site_fract_z
F1 F 0.18524(8) 0.38356(11) 0.17836(6)
F2 F 0.25569(8) 0.17234(10) 0.13278(6)
N1 N 0.06108(11) 0.24300(14) 0.06155(8)
N2 N 0.20753(10) 0.39809(13) 0.04365(8)
N3 N 0.12968(11) 0.47812(15) -0.08644(8)
B1 B 0.18641(15) 0.2991(2) 0.11165(12)
C1 C -0.00766(13) 0.14627(17) 0.08830(10)
C2 C 0.02416(15) 0.09217(18) 0.16845(11)
H1 H 0.0917 0.1241 0.2052
C3 C -0.04461(16) -0.0078(2) 0.19229(13)
H2 H -0.0239 -0.0430 0.2456
C4 C -0.14624(16) -0.0577(2) 0.13705(13)
H3 H -0.1912 -0.1282 0.1536
C5 C -0.17937(15) -0.00430(19) 0.05989(13)
H4 H -0.2474 -0.0375 0.0242
C6 C -0.11199(14) 0.10133(17) 0.03273(11)
C7 C -0.14335(14) 0.16283(19) -0.04646(11)
H5 H -0.2123 0.1356 -0.0830
C8 C -0.07416(14) 0.26155(18) -0.07027(11)
H6 H -0.0955 0.3033 -0.1223
C9 C 0.02945(13) 0.29822(17) -0.01460(10)
C10 C 0.11855(13) 0.39451(17) -0.02570(10)
C11 C 0.23501(13) 0.54297(17) -0.05372(10)
C12 C 0.28418(13) 0.49574(16) 0.02601(10)
C13 C 0.39126(13) 0.54878(18) 0.07561(10)
C14 C 0.44316(14) 0.4965(2) 0.15470(10)
H7 H 0.4076 0.4218 0.1770
C15 C 0.54512(14) 0.5533(2) 0.19973(11)
H8 H 0.5792 0.5164 0.2519
C16 C 0.59762(16) 0.6666(2) 0.16706(12)
H9 H 0.6660 0.7079 0.1981
C17 C 0.54920(15) 0.7176(2) 0.08946(12)
H10 H 0.5864 0.7923 0.0685
C18 C 0.44544(14) 0.66138(18) 0.04039(11)
C19 C 0.39450(14) 0.71264(18) -0.04358(10)
C20 C 0.44578(16) 0.8249(2) -0.07970(12)
H11 H 0.5132 0.8697 -0.0493
C21 C 0.39853(17) 0.8696(2) -0.15865(13)
H12 H 0.4338 0.9449 -0.1808
C22 C 0.29903(17) 0.8043(2) -0.20592(12)
H13 H 0.2687 0.8333 -0.2599
C23 C 0.24536(15) 0.69649(19) -0.17271(11)
H14 H 0.1781 0.6530 -0.2043
C24 C 0.29062(14) 0.65128(17) -0.09185(10)
loop_
_geom_bond_atom_site_label_1
_geom_bond_atom_site_label_2
_geom_bond_site_symmetry_1
_geom_bond_site_symmetry_2
F1 B1 1_555 1_555
F2 B1 1_555 1_555
N1 B1 1_555 1_555
N2 B1 1_555 1_555
N3 C10 1_555 1_555
C1 N1 1_555 1_555
C2 C1 1_555 1_555
H1 C2 1_555 1_555
C3 C2 1_555 1_555
H2 C3 1_555 1_555
C4 C3 1_555 1_555
H3 C4 1_555 1_555
C5 C4 1_555 1_555
H4 C5 1_555 1_555
C6 C1 1_555 1_555
C7 C6 1_555 1_555
H5 C7 1_555 1_555
C8 C7 1_555 1_555
H6 C8 1_555 1_555
C9 N1 1_555 1_555
C10 N2 1_555 1_555
C11 N3 1_555 1_555
C12 N2 1_555 1_555
C13 C12 1_555 1_555
C14 C13 1_555 1_555
H7 C14 1_555 1_555
C15 C14 1_555 1_555
H8 C15 1_555 1_555
C16 C15 1_555 1_555
H9 C16 1_555 1_555
C17 C16 1_555 1_555
H10 C17 1_555 1_555
C18 C13 1_555 1_555
C19 C18 1_555 1_555
C20 C19 1_555 1_555
H11 C20 1_555 1_555
C21 C20 1_555 1_555
H12 C21 1_555 1_555
C22 C21 1_555 1_555
H13 C22 1_555 1_555
C23 C22 1_555 1_555
H14 C23 1_555 1_555
C24 C11 1_555 1_555
C5 C6 1_555 1_555
C8 C9 1_555 1_555
C9 C10 1_555 1_555
C11 C12 1_555 1_555
C17 C18 1_555 1_555
C19 C24 1_555 1_555
C23 C24 1_555 1_555

#END
