
#######################################################################
#
#                 Cambridge Crystallographic Data Centre
#                                CCDC 
#
#######################################################################
#
# If this CIF has been generated from an entry in the Cambridge 
# Structural Database, then it will include bibliographic, chemical, 
# crystal, experimental, refinement or atomic coordinate data resulting 
# from the CCDC's data processing and validation procedures.
#
#######################################################################

data_MEZGIH
_chemical_formula_moiety         'C12 H9 I1 N2 O4 S1'
_chemical_name_systematic        N-(4'-Iodophenylsulfonyl)-4-nitroaniline
_symmetry_cell_setting           monoclinic
_symmetry_space_group_name_H-M   'P 21/n'
_symmetry_Int_Tables_number      14
_space_group_name_Hall           '-P 2yn'
loop_
_symmetry_equiv_pos_site_id
_symmetry_equiv_pos_as_xyz
1 x,y,z
2 1/2+x,1/2-y,1/2+z
3 -x,-y,-z
4 1/2-x,1/2+y,1/2-z
_cell_length_a                   5.08250(10)
_cell_length_b                   13.0448(3)
_cell_length_c                   20.5648(6)
_cell_angle_alpha                90
_cell_angle_beta                 92.7786(9)
_cell_angle_gamma                90
_cell_volume                     1361.85
_exptl_crystal_colour            colorless
_exptl_crystal_description       plate
_cell_formula_units_Z            4
_exptl_crystal_recrystallization_method ethanol
loop_
_atom_site_label
_atom_site_type_symbol
_atom_site_fract_x
_atom_site_fract_y
_atom_site_fract_z
S1 S 0.33544(12) 0.25798(5) 0.23238(4)
O1 O 0.4056(4) 0.16297(16) 0.20329(12)
O2 O 0.0713(4) 0.27424(16) 0.25234(11)
N1 N 0.5314(4) 0.27071(18) 0.29794(12)
C1 C 0.4989(6) 0.35990(19) 0.33739(16)
C2 C 0.6624(5) 0.4451(2) 0.33071(15)
C3 C 0.6240(6) 0.5318(2) 0.36729(16)
C4 C 0.4212(6) 0.5326(2) 0.40963(15)
N2 N 0.3676(6) 0.6263(2) 0.44585(15)
O3 O 0.1784(6) 0.62793(19) 0.48041(16)
O4 O 0.5151(5) 0.69990(19) 0.44074(14)
C5 C 0.2609(6) 0.4483(2) 0.41836(15)
C6 C 0.3024(6) 0.3611(2) 0.38185(17)
C7 C 0.4173(6) 0.3591(2) 0.18035(16)
C8 C 0.6164(6) 0.3432(2) 0.13800(16)
C9 C 0.7014(6) 0.4246(2) 0.10049(16)
C10 C 0.5853(6) 0.5199(2) 0.10668(14)
I1 I 0.71053(4) 0.641812(15) 0.049127(10)
C11 C 0.3862(6) 0.5355(2) 0.14893(17)
C12 C 0.3009(6) 0.4553(2) 0.18641(16)
H1 H 0.6520 0.2244 0.3084
H2 H 0.7996 0.4432 0.3010
H3 H 0.7348 0.5899 0.3635
H4 H 0.1257 0.4503 0.4487
H5 H 0.1963 0.3020 0.3873
H6 H 0.6946 0.2774 0.1345
H7 H 0.8374 0.4148 0.0710
H8 H 0.3079 0.6013 0.1522
H9 H 0.1650 0.4655 0.2159
loop_
_geom_bond_atom_site_label_1
_geom_bond_atom_site_label_2
_geom_bond_site_symmetry_1
_geom_bond_site_symmetry_2
S1 O1 1_555 1_555
O2 S1 1_555 1_555
N1 S1 1_555 1_555
C1 N1 1_555 1_555
C2 C1 1_555 1_555
C3 C2 1_555 1_555
C4 C3 1_555 1_555
N2 C4 1_555 1_555
O3 N2 1_555 1_555
O4 N2 1_555 1_555
C5 C4 1_555 1_555
C6 C1 1_555 1_555
C7 S1 1_555 1_555
C8 C7 1_555 1_555
C9 C8 1_555 1_555
C10 C9 1_555 1_555
I1 C10 1_555 1_555
C11 C10 1_555 1_555
C12 C7 1_555 1_555
H1 N1 1_555 1_555
H2 C2 1_555 1_555
H3 C3 1_555 1_555
H4 C5 1_555 1_555
H5 C6 1_555 1_555
H6 C8 1_555 1_555
H7 C9 1_555 1_555
H8 C11 1_555 1_555
H9 C12 1_555 1_555
C5 C6 1_555 1_555
C11 C12 1_555 1_555

#END
