
#######################################################################
#
#                 Cambridge Crystallographic Data Centre
#                                CCDC 
#
#######################################################################
#
# If this CIF has been generated from an entry in the Cambridge 
# Structural Database, then it will include bibliographic, chemical, 
# crystal, experimental, refinement or atomic coordinate data resulting 
# from the CCDC's data processing and validation procedures.
#
#######################################################################

data_MEZKIO
_chemical_formula_moiety         'C23 H20 F2 N1 O1 P1'
_chemical_name_systematic        
4-((2,6-difluorophenyl)amino)-3-(diphenylphosphino)pent-3-en-2-one
_symmetry_cell_setting           triclinic
_symmetry_space_group_name_H-M   'P -1'
_symmetry_Int_Tables_number      2
_space_group_name_Hall           '-P 1'
loop_
_symmetry_equiv_pos_site_id
_symmetry_equiv_pos_as_xyz
1 x,y,z
2 -x,-y,-z
_cell_length_a                   9.0623(4)
_cell_length_b                   10.8470(4)
_cell_length_c                   12.3574(7)
_cell_angle_alpha                106.525(4)
_cell_angle_beta                 106.010(4)
_cell_angle_gamma                106.652(4)
_cell_volume                     1027.82
_cell_formula_units_Z            2
loop_
_atom_site_label
_atom_site_type_symbol
_atom_site_fract_x
_atom_site_fract_y
_atom_site_fract_z
P1 P 0.24718(5) 0.09494(4) 0.30602(4)
O1 O -0.11631(14) 0.10665(12) 0.04887(11)
N1 N 0.12082(18) 0.34459(14) 0.13644(13)
C1 C 0.13688(19) 0.17072(15) 0.21519(14)
C2 C 0.20543(19) 0.30589(15) 0.21897(14)
C3 C -0.03233(19) 0.07690(15) 0.12837(14)
C4 C 0.3722(2) 0.41490(16) 0.31158(17)
H1 H 0.4520 0.4242 0.2738
H2 H 0.4088 0.3874 0.3782
H3 H 0.3628 0.5030 0.3421
C5 C 0.1726(2) 0.47858(16) 0.13219(15)
C6 C -0.1179(2) -0.06100(18) 0.13392(18)
H4 H -0.2362 -0.0957 0.0885
H5 H -0.0967 -0.0481 0.2177
H6 H -0.0755 -0.1271 0.0990
F1 F 0.3100(3) 0.41380(15) 0.00681(17)
C7 C 0.4608(2) 0.16207(17) 0.31210(16)
C8 C 0.4794(2) 0.13504(19) 0.20054(17)
H7 H 0.3850 0.0887 0.1278
C9 C 0.2666(2) 0.17756(19) 0.46331(16)
C10 C 0.6041(2) 0.2279(2) 0.41953(18)
H8 H 0.5947 0.2452 0.4949
C11 C 0.2576(4) 0.7381(2) 0.1169(3)
H9 H 0.2860 0.8251 0.1117
C12 C 0.2178(2) 0.2862(2) 0.50443(17)
H10 H 0.1802 0.3272 0.4519
F2 F 0.0398(2) 0.55044(17) 0.25944(18)
C13 C 0.6364(3) 0.1763(2) 0.1967(2)
H11 H 0.6468 0.1587 0.1216
C14 C 0.3207(3) 0.1168(3) 0.5440(2)
H12 H 0.3513 0.0423 0.5174
C15 C 0.1277(3) 0.5812(2) 0.1924(2)
C16 C 0.2248(3) 0.3343(3) 0.6235(2)
H13 H 0.1911 0.4067 0.6502
C17 C 0.2624(3) 0.5117(2) 0.06410(19)
C18 C 0.7612(3) 0.2679(3) 0.4145(2)
H14 H 0.8563 0.3114 0.4867
C19 C 0.7773(3) 0.2435(3) 0.3035(2)
H15 H 0.8828 0.2722 0.3008
C20 C 0.3294(3) 0.1660(4) 0.6624(2)
H16 H 0.3674 0.1257 0.7155
C21 C 0.1704(4) 0.7098(2) 0.1856(3)
H17 H 0.1395 0.7770 0.2280
C22 C 0.2818(3) 0.2744(3) 0.7020(2)
H18 H 0.2881 0.3075 0.7820
C23 C 0.3053(4) 0.6399(3) 0.0543(2)
H19 H 0.3649 0.6594 0.0066
H20 H 0.028(3) 0.284(2) 0.085(2)
loop_
_geom_bond_atom_site_label_1
_geom_bond_atom_site_label_2
_geom_bond_site_symmetry_1
_geom_bond_site_symmetry_2
P1 C1 1_555 1_555
O1 C3 1_555 1_555
N1 C2 1_555 1_555
C1 C2 1_555 1_555
C2 C4 1_555 1_555
C3 C1 1_555 1_555
C4 H1 1_555 1_555
H2 C4 1_555 1_555
H3 C4 1_555 1_555
C5 N1 1_555 1_555
C6 C3 1_555 1_555
H4 C6 1_555 1_555
H5 C6 1_555 1_555
H6 C6 1_555 1_555
F1 C17 1_555 1_555
C7 P1 1_555 1_555
C8 C7 1_555 1_555
H7 C8 1_555 1_555
C9 P1 1_555 1_555
C10 C7 1_555 1_555
H8 C10 1_555 1_555
C11 H9 1_555 1_555
C12 C9 1_555 1_555
H10 C12 1_555 1_555
F2 C15 1_555 1_555
C13 C8 1_555 1_555
H11 C13 1_555 1_555
C14 C9 1_555 1_555
H12 C14 1_555 1_555
C15 C5 1_555 1_555
C16 C12 1_555 1_555
H13 C16 1_555 1_555
C17 C5 1_555 1_555
C18 C10 1_555 1_555
H14 C18 1_555 1_555
C19 C13 1_555 1_555
H15 C19 1_555 1_555
C20 C14 1_555 1_555
H16 C20 1_555 1_555
C21 C11 1_555 1_555
H17 C21 1_555 1_555
C22 C16 1_555 1_555
H18 C22 1_555 1_555
C23 C11 1_555 1_555
H19 C23 1_555 1_555
H20 N1 1_555 1_555
C15 C21 1_555 1_555
C17 C23 1_555 1_555
C18 C19 1_555 1_555
C20 C22 1_555 1_555

#END
