
#######################################################################
#
#                 Cambridge Crystallographic Data Centre
#                                CCDC 
#
#######################################################################
#
# If this CIF has been generated from an entry in the Cambridge 
# Structural Database, then it will include bibliographic, chemical, 
# crystal, experimental, refinement or atomic coordinate data resulting 
# from the CCDC's data processing and validation procedures.
#
#######################################################################

data_MEZVUL
_chemical_formula_moiety         'C12 H13 B10 F5 O1'
_chemical_name_systematic        
1,2-(2-(pentafluorophenyl)-2,5-dihydrofuran-2,5-diyl)-1,2-dicarba-closo-dodecaborane(10)
_symmetry_cell_setting           monoclinic
_symmetry_space_group_name_H-M   'C c'
_symmetry_Int_Tables_number      9
_space_group_name_Hall           'C -2yc'
loop_
_symmetry_equiv_pos_site_id
_symmetry_equiv_pos_as_xyz
1 x,y,z
2 x,-y,1/2+z
3 1/2+x,1/2+y,z
4 1/2+x,1/2-y,1/2+z
_cell_length_a                   10.043(2)
_cell_length_b                   21.915(5)
_cell_length_c                   7.6833(15)
_cell_angle_alpha                90
_cell_angle_beta                 100.998(3)
_cell_angle_gamma                90
_cell_volume                     1659.98
_exptl_crystal_colour            colorless
_exptl_crystal_description       block
_cell_formula_units_Z            4
loop_
_atom_site_label
_atom_site_type_symbol
_atom_site_fract_x
_atom_site_fract_y
_atom_site_fract_z
F1 F 0.31115(16) 0.47761(7) 1.02061(19)
F2 F 0.10369(18) 0.43989(8) 0.7787(2)
F3 F -0.06138(17) 0.52095(8) 0.5748(2)
F4 F -0.01378(19) 0.64229(9) 0.6178(2)
F5 F 0.19396(19) 0.68219(8) 0.8653(2)
O1 O 0.4341(2) 0.56299(9) 1.2175(2)
C1 C 0.6135(3) 0.62711(13) 1.1938(3)
C2 C 0.5000(3) 0.63138(12) 1.0183(3)
C3 C 0.3709(3) 0.60790(12) 1.0937(3)
C4 C 0.3331(3) 0.65541(13) 1.2216(4)
H1 H 0.2567 0.6818 1.2019
C5 C 0.4296(3) 0.65203(13) 1.3664(3)
H2 H 0.4363 0.6757 1.4712
C6 C 0.5265(3) 0.60288(13) 1.3302(3)
H3 H 0.5801 0.5831 1.4385
C7 C 0.2591(3) 0.58177(13) 0.9544(3)
C8 C 0.2340(3) 0.52037(13) 0.9263(3)
C9 C 0.1260(3) 0.49965(14) 0.8003(4)
C10 C 0.0422(3) 0.54069(14) 0.6971(3)
C11 C 0.0662(3) 0.60223(14) 0.7187(3)
C12 C 0.1734(3) 0.62192(13) 0.8455(4)
B1 B 0.5684(3) 0.70020(13) 1.1098(4)
H4 H 0.5138 0.7361 1.1728
B2 B 0.7379(3) 0.68037(16) 1.1989(4)
H5 H 0.7945 0.7021 1.3233
B3 B 0.7661(3) 0.60274(16) 1.1505(4)
H6 H 0.8409 0.5745 1.2438
B4 B 0.6164(3) 0.57027(14) 1.0317(4)
H7 H 0.5935 0.5206 1.0437
B5 B 0.5319(3) 0.68821(15) 0.8790(4)
H8 H 0.4515 0.7151 0.7903
B6 B 0.6911(3) 0.72019(16) 0.9911(4)
H9 H 0.7190 0.7691 0.9751
B7 B 0.8152(4) 0.66140(17) 1.0146(5)
H10 H 0.9245 0.6718 1.0150
B8 B 0.7370(3) 0.59428(16) 0.9137(4)
H11 H 0.7949 0.5609 0.8465
B9 B 0.5611(3) 0.61061(15) 0.8327(4)
H12 H 0.4991 0.5876 0.7142
B10 B 0.6873(4) 0.66629(17) 0.8172(4)
H13 H 0.7115 0.6800 0.6863
loop_
_geom_bond_atom_site_label_1
_geom_bond_atom_site_label_2
_geom_bond_site_symmetry_1
_geom_bond_site_symmetry_2
F1 C8 1_555 1_555
F2 C9 1_555 1_555
F3 C10 1_555 1_555
F4 C11 1_555 1_555
F5 C12 1_555 1_555
O1 C3 1_555 1_555
C1 C2 1_555 1_555
C2 C3 1_555 1_555
C3 C4 1_555 1_555
C4 H1 1_555 1_555
C5 C4 1_555 1_555
H2 C5 1_555 1_555
C6 O1 1_555 1_555
H3 C6 1_555 1_555
C7 C3 1_555 1_555
C8 C7 1_555 1_555
C9 C8 1_555 1_555
C10 C9 1_555 1_555
C11 C10 1_555 1_555
C12 C7 1_555 1_555
B1 C1 1_555 1_555
H4 B1 1_555 1_555
B2 C1 1_555 1_555
H5 B2 1_555 1_555
B3 C1 1_555 1_555
H6 B3 1_555 1_555
B4 C1 1_555 1_555
H7 B4 1_555 1_555
B5 C2 1_555 1_555
H8 B5 1_555 1_555
B6 B1 1_555 1_555
H9 B6 1_555 1_555
B7 B2 1_555 1_555
H10 B7 1_555 1_555
B8 B3 1_555 1_555
H11 B8 1_555 1_555
B9 C2 1_555 1_555
H12 B9 1_555 1_555
B10 B5 1_555 1_555
H13 B10 1_555 1_555
C1 C6 1_555 1_555
C2 B1 1_555 1_555
C2 B4 1_555 1_555
C5 C6 1_555 1_555
C11 C12 1_555 1_555
B1 B2 1_555 1_555
B1 B5 1_555 1_555
B2 B3 1_555 1_555
B2 B6 1_555 1_555
B3 B4 1_555 1_555
B3 B7 1_555 1_555
B4 B8 1_555 1_555
B4 B9 1_555 1_555
B5 B6 1_555 1_555
B5 B9 1_555 1_555
B6 B7 1_555 1_555
B6 B10 1_555 1_555
B7 B8 1_555 1_555
B7 B10 1_555 1_555
B8 B9 1_555 1_555
B8 B10 1_555 1_555
B9 B10 1_555 1_555

#END
