
#######################################################################
#
#                 Cambridge Crystallographic Data Centre
#                                CCDC 
#
#######################################################################
#
# If this CIF has been generated from an entry in the Cambridge 
# Structural Database, then it will include bibliographic, chemical, 
# crystal, experimental, refinement or atomic coordinate data resulting 
# from the CCDC's data processing and validation procedures.
#
#######################################################################

data_MEZWIA
_chemical_formula_moiety         'C12 H18 B10 O1'
_chemical_name_systematic        
1-(5-phenylfuran-2-yl)-1,2-dicarba-closo-dodecaborane(11)
_symmetry_cell_setting           monoclinic
_symmetry_space_group_name_H-M   'C 2/c'
_symmetry_Int_Tables_number      15
_space_group_name_Hall           '-C 2yn'
loop_
_symmetry_equiv_pos_site_id
_symmetry_equiv_pos_as_xyz
1 x,y,z
2 -x,y,1/2-z
3 1/2+x,1/2+y,z
4 1/2-x,1/2+y,1/2-z
5 -x,-y,-z
6 x,-y,1/2+z
7 1/2-x,1/2-y,-z
8 1/2+x,1/2-y,1/2+z
_cell_length_a                   22.246(2)
_cell_length_b                   10.8385(11)
_cell_length_c                   13.4778(13)
_cell_angle_alpha                90
_cell_angle_beta                 108.868(2)
_cell_angle_gamma                90
_cell_volume                     3075.06
_exptl_crystal_colour            colorless
_exptl_crystal_description       block
_cell_formula_units_Z            8
loop_
_atom_site_label
_atom_site_type_symbol
_atom_site_fract_x
_atom_site_fract_y
_atom_site_fract_z
O1 O -0.46899(4) -0.21500(8) -0.10420(7)
C1 C -0.38527(6) -0.36752(11) -0.06027(9)
C2 C -0.38871(6) -0.45092(12) -0.16720(10)
H1 H -0.40489(6) -0.40952(12) -0.24766(10)
C3 C -0.40508(6) -0.23748(11) -0.07529(9)
C4 C -0.37222(6) -0.13100(12) -0.06412(10)
H2 H -0.32742(6) -0.12215(12) -0.04479(10)
C5 C -0.41800(7) -0.03461(12) -0.08704(10)
H3 H -0.40959(7) 0.05142(12) -0.08566(10)
C6 C -0.47600(6) -0.08871(11) -0.11127(9)
C7 C -0.54097(6) -0.04273(11) -0.14238(9)
C8 C -0.55285(7) 0.08388(12) -0.15736(10)
H4 H -0.51849(7) 0.13996(12) -0.14639(10)
C9 C -0.61468(7) 0.12740(13) -0.18815(11)
H5 H -0.62248(7) 0.21339(13) -0.19852(11)
C10 C -0.66515(7) 0.04709(14) -0.20397(11)
H6 H -0.70742(7) 0.07776(14) -0.22550(11)
C11 C -0.65396(7) -0.07833(14) -0.18835(11)
H7 H -0.68850(7) -0.13376(14) -0.19838(11)
C12 C -0.59217(6) -0.12269(12) -0.15801(10)
H8 H -0.58470(6) -0.20878(12) -0.14778(10)
B1 B -0.44257(7) -0.47623(13) -0.10343(11)
H9 H -0.49418(7) -0.45282(13) -0.13822(11)
B2 B -0.40274(7) -0.45693(13) 0.03174(11)
H10 H -0.42689(7) -0.42241(13) 0.08749(11)
B3 B -0.32323(7) -0.41523(13) 0.04517(11)
H11 H -0.29497(7) -0.35319(13) 0.10993(11)
B4 B -0.31581(7) -0.40777(14) -0.08237(12)
H12 H -0.28342(7) -0.34034(14) -0.10256(12)
B5 B -0.40923(7) -0.59945(14) -0.15219(12)
H13 H -0.43802(7) -0.65924(14) -0.21827(12)
B6 B -0.41732(7) -0.60643(13) -0.02548(12)
H14 H -0.45142(7) -0.67168(13) -0.00739(12)
B7 B -0.34210(7) -0.57030(14) 0.06786(12)
H15 H -0.32609(7) -0.61236(14) 0.14808(12)
B8 B -0.28781(7) -0.53898(13) -0.00190(12)
H16 H -0.23583(7) -0.55954(13) 0.03232(12)
B9 B -0.32982(7) -0.55872(14) -0.13813(12)
H17 H -0.30594(7) -0.59211(14) -0.19461(12)
B10 B -0.34588(7) -0.65832(14) -0.04528(12)
H18 H -0.33225(7) -0.75819(14) -0.03954(12)
loop_
_geom_bond_atom_site_label_1
_geom_bond_atom_site_label_2
_geom_bond_site_symmetry_1
_geom_bond_site_symmetry_2
O1 C3 1_555 1_555
C1 C2 1_555 1_555
C2 H1 1_555 1_555
C3 C1 1_555 1_555
C4 C3 1_555 1_555
H2 C4 1_555 1_555
C5 C4 1_555 1_555
H3 C5 1_555 1_555
C6 O1 1_555 1_555
C7 C6 1_555 1_555
C8 C7 1_555 1_555
H4 C8 1_555 1_555
C9 C8 1_555 1_555
H5 C9 1_555 1_555
C10 C9 1_555 1_555
H6 C10 1_555 1_555
C11 C10 1_555 1_555
H7 C11 1_555 1_555
C12 C7 1_555 1_555
H8 C12 1_555 1_555
B1 C1 1_555 1_555
H9 B1 1_555 1_555
B2 C1 1_555 1_555
H10 B2 1_555 1_555
B3 C1 1_555 1_555
H11 B3 1_555 1_555
B4 C1 1_555 1_555
H12 B4 1_555 1_555
B5 C2 1_555 1_555
H13 B5 1_555 1_555
B6 B1 1_555 1_555
H14 B6 1_555 1_555
B7 B2 1_555 1_555
H15 B7 1_555 1_555
B8 B3 1_555 1_555
H16 B8 1_555 1_555
B9 C2 1_555 1_555
H17 B9 1_555 1_555
B10 B5 1_555 1_555
H18 B10 1_555 1_555
C2 B1 1_555 1_555
C2 B4 1_555 1_555
C5 C6 1_555 1_555
C11 C12 1_555 1_555
B1 B2 1_555 1_555
B1 B5 1_555 1_555
B2 B3 1_555 1_555
B2 B6 1_555 1_555
B3 B4 1_555 1_555
B3 B7 1_555 1_555
B4 B8 1_555 1_555
B4 B9 1_555 1_555
B5 B6 1_555 1_555
B5 B9 1_555 1_555
B6 B7 1_555 1_555
B6 B10 1_555 1_555
B7 B8 1_555 1_555
B7 B10 1_555 1_555
B8 B9 1_555 1_555
B8 B10 1_555 1_555
B9 B10 1_555 1_555

#END
