
#######################################################################
#
#                 Cambridge Crystallographic Data Centre
#                                CCDC 
#
#######################################################################
#
# If this CIF has been generated from an entry in the Cambridge 
# Structural Database, then it will include bibliographic, chemical, 
# crystal, experimental, refinement or atomic coordinate data resulting 
# from the CCDC's data processing and validation procedures.
#
#######################################################################

data_MGLUCP
_chemical_formula_moiety         'C7 H14 O6'
_chemical_name_systematic        'Methyl \a-D-glucopyranoside'
_symmetry_cell_setting           orthorhombic
_symmetry_space_group_name_H-M   'P 21 21 21'
_symmetry_Int_Tables_number      19
_space_group_name_Hall           'P 2ac 2ab'
loop_
_symmetry_equiv_pos_site_id
_symmetry_equiv_pos_as_xyz
1 x,y,z
2 1/2+x,1/2-y,-z
3 -x,1/2+y,1/2-z
4 1/2-x,-y,1/2+z
_cell_length_a                   11.304(10)
_cell_length_b                   14.785(15)
_cell_length_c                   5.282(5)
_cell_angle_alpha                90
_cell_angle_beta                 90
_cell_angle_gamma                90
_cell_volume                     882.779
_chemical_melting_point          165deg.C
_cell_formula_units_Z            4
loop_
_atom_site_label
_atom_site_type_symbol
_atom_site_fract_x
_atom_site_fract_y
_atom_site_fract_z
C1 C -0.44910 0.37490 0.44210
C2 C -0.56900 0.41070 0.35530
C3 C -0.65970 0.39640 0.56110
C4 C -0.66260 0.29620 0.63280
C5 C -0.53940 0.26260 0.70340
C6 C -0.53730 0.16200 0.74890
C7 C -0.29760 0.40690 0.73910
H1 H -0.39000 0.38000 0.28000
H2 H -0.59000 0.37000 0.19000
H3 H -0.56000 0.54000 0.40000
H4 H -0.63000 0.43000 0.73000
H5 H -0.83000 0.44000 0.60000
H6 H -0.70000 0.25000 0.49000
H7 H -0.82000 0.31000 0.82000
H8 H -0.50000 0.30000 0.87000
H9 H -0.54000 0.12000 0.57500
H10 H -0.36000 0.11000 0.75000
H11 H -0.61000 0.14000 0.83000
H12 H -0.29000 0.45000 0.87000
H13 H -0.22000 0.42000 0.65000
O1 O -0.41350 0.42860 0.64950
O2 O -0.56100 0.50210 0.27490
O3 O -0.77230 0.42470 0.47010
O4 O -0.73560 0.28050 0.84720
O5 O -0.45730 0.28210 0.50390
O6 O -0.43100 0.13520 0.87610
loop_
_geom_bond_atom_site_label_1
_geom_bond_atom_site_label_2
_geom_bond_site_symmetry_1
_geom_bond_site_symmetry_2
C1 C2 1_555 1_555
C2 C3 1_555 1_555
C3 C4 1_555 1_555
C4 C5 1_555 1_555
C5 C6 1_555 1_555
C6 H9 1_555 1_555
C7 H12 1_555 1_555
H1 C1 1_555 1_555
H2 C2 1_555 1_555
H3 O2 1_555 1_555
H4 C3 1_555 1_555
H5 O3 1_555 1_555
H6 C4 1_555 1_555
H7 O4 1_555 1_555
H8 C5 1_555 1_555
H10 O6 1_555 1_555
H11 C6 1_555 1_555
H13 C7 1_555 1_555
O1 C1 1_555 1_555
O2 C2 1_555 1_555
O3 C3 1_555 1_555
O4 C4 1_555 1_555
O5 C1 1_555 1_555
O6 C6 1_555 1_555
C5 O5 1_555 1_555
C7 O1 1_555 1_555

#END
