
#######################################################################
#
#                 Cambridge Crystallographic Data Centre
#                                CCDC 
#
#######################################################################
#
# If this CIF has been generated from an entry in the Cambridge 
# Structural Database, then it will include bibliographic, chemical, 
# crystal, experimental, refinement or atomic coordinate data resulting 
# from the CCDC's data processing and validation procedures.
#
#######################################################################

data_MHMXAC
_chemical_formula_moiety         'C15 H17 N1 O2'
_chemical_name_systematic        
4-Methyl-4-hydroxy-1,2,3,4-tetrahydro-6-methoxyacridine
_symmetry_cell_setting           monoclinic
_symmetry_space_group_name_H-M   'P 21/c'
_symmetry_Int_Tables_number      14
_space_group_name_Hall           '-P 2ybc'
loop_
_symmetry_equiv_pos_site_id
_symmetry_equiv_pos_as_xyz
1 x,y,z
2 -x,1/2+y,1/2-z
3 -x,-y,-z
4 x,1/2-y,1/2+z
_cell_length_a                   9.28(3)
_cell_length_b                   15.36(1)
_cell_length_c                   9.23(2)
_cell_angle_alpha                90
_cell_angle_beta                 105.0(5)
_cell_angle_gamma                90
_cell_volume                     1270.82
_cell_formula_units_Z            4
loop_
_atom_site_label
_atom_site_type_symbol
_atom_site_fract_x
_atom_site_fract_y
_atom_site_fract_z
C1 C -0.11940 0.24840 -0.19220
C2 C -0.20150 0.19110 -0.32090
C3 C -0.13260 0.11610 -0.36560
C4 C -0.34660 0.08280 -0.55330
C5 C -0.42270 0.15570 -0.51680
C6 C -0.57920 -0.08310 -0.90030
C7 C 0.03140 -0.00150 -0.22340
C8 C 0.0130(10) 0.1973(5) -0.0834(9)
C10 C 0.1122(29) 0.1682(9) -0.1743(28)
C12 C 0.02880 0.09080 -0.28700
C13 C -0.41960 0.02630 -0.67020
C14 C -0.56330 0.04300 -0.74850
C15 C -0.64050 0.11600 -0.71340
C16 C -0.57210 0.17040 -0.59980
C17 C -0.34540 0.20840 -0.39680
H1 H 0.13500 0.03700 -0.42700
H2 H -0.51300 -0.06300 -0.95300
H3 H -0.65100 -0.10700 -0.98700
H4 H -0.54500 -0.13100 -0.80900
H5 H 0.14300 -0.01900 -0.16700
H6 H -0.02100 -0.05000 -0.30400
H7 H -0.05200 -0.00100 -0.15600
H8 H -0.37000 -0.02600 -0.69400
H9 H -0.73700 0.12500 -0.75100
H10 H -0.63400 0.21900 -0.58600
H11 H -0.40600 0.25800 -0.38100
N1 N -0.20090 0.06500 -0.47690
O1 O -0.64540 -0.00670 -0.86300
O2 O 0.11560 0.09370 -0.39390
C9? C 1.0488(14) 0.2353(8) 0.8397(17)
C11? C 1.0913(33) 0.1425(10) 0.8437(36)
loop_
_geom_bond_atom_site_label_1
_geom_bond_atom_site_label_2
_geom_bond_site_symmetry_1
_geom_bond_site_symmetry_2
C1 C2 1_555 1_555
C2 C3 1_555 1_555
C3 C12 1_555 1_555
C4 C5 1_555 1_555
C5 C16 1_555 1_555
C6 H2 1_555 1_555
C7 C12 1_555 1_555
C8 C1 1_555 1_555
C10 C8 1_555 1_555
C12 C10 1_555 1_555
C13 C4 1_555 1_555
C14 C13 1_555 1_555
C15 C14 1_555 1_555
C16 C15 1_555 1_555
C17 C2 1_555 1_555
H1 O2 1_555 1_555
H3 C6 1_555 1_555
H4 C6 1_555 1_555
H5 C7 1_555 1_555
H6 C7 1_555 1_555
H7 C7 1_555 1_555
H8 C13 1_555 1_555
H9 C15 1_555 1_555
H10 C16 1_555 1_555
H11 C17 1_555 1_555
N1 C3 1_555 1_555
O1 C6 1_555 1_555
O2 C12 1_555 1_555
C4 N1 1_555 1_555
C5 C17 1_555 1_555
C14 O1 1_555 1_555

#END
