
#######################################################################
#
#                 Cambridge Crystallographic Data Centre
#                                CCDC 
#
#######################################################################
#
# If this CIF has been generated from an entry in the Cambridge 
# Structural Database, then it will include bibliographic, chemical, 
# crystal, experimental, refinement or atomic coordinate data resulting 
# from the CCDC's data processing and validation procedures.
#
#######################################################################

data_MIBFEK
_chemical_formula_moiety         'C12 H13 N1 O4'
_chemical_name_systematic        
1-(6-Methyl-3-(nitromethyl)-2,3-dihydro-1-benzofuran-2-yl)ethanone
_symmetry_cell_setting           orthorhombic
_symmetry_space_group_name_H-M   'P 21 21 21'
_symmetry_Int_Tables_number      19
_space_group_name_Hall           'P 2ac 2ab'
loop_
_symmetry_equiv_pos_site_id
_symmetry_equiv_pos_as_xyz
1 x,y,z
2 1/2+x,1/2-y,-z
3 -x,1/2+y,1/2-z
4 1/2-x,-y,1/2+z
_cell_length_a                   6.3400(10)
_cell_length_b                   8.6490(12)
_cell_length_c                   21.069(2)
_cell_angle_alpha                90
_cell_angle_beta                 90
_cell_angle_gamma                90
_cell_volume                     1155.31
_exptl_crystal_colour            colorless
_exptl_crystal_description       prism
_cell_formula_units_Z            4
loop_
_atom_site_label
_atom_site_type_symbol
_atom_site_fract_x
_atom_site_fract_y
_atom_site_fract_z
O1 O 0.7541(2) 0.03905(17) 0.77560(7)
O2 O 0.8855(3) 0.3051(2) 0.82394(9)
O3 O 0.2764(3) 0.0722(3) 0.92471(9)
O4 O 0.0198(2) -0.0723(2) 0.89461(8)
N1 N 0.1769(3) 0.0049(3) 0.88373(9)
C1 C 0.6379(3) 0.0978(3) 0.82894(9)
H1 H 0.6272 0.0162 0.8624
C2 C 0.4119(3) 0.1399(3) 0.80418(10)
H2 H 0.3634 0.2415 0.8214
C3 C 0.4541(3) 0.1494(2) 0.73354(9)
C4 C 0.6521(3) 0.0873(2) 0.72160(9)
C5 C 0.7354(3) 0.0752(3) 0.66108(10)
H3 H 0.8716 0.0326 0.6543
C6 C 0.6133(4) 0.1275(3) 0.61047(10)
C7 C 0.4116(4) 0.1883(3) 0.62207(11)
H4 H 0.3287 0.2236 0.5874
C8 C 0.3309(4) 0.1979(3) 0.68324(10)
H5 H 0.1930 0.2372 0.6904
C9 C 0.7537(3) 0.2390(3) 0.85563(10)
C10 C 0.7017(4) 0.2841(3) 0.92243(11)
H6 H 0.7666 0.3843 0.9321
H7 H 0.7562 0.2057 0.9517
H8 H 0.5484 0.2920 0.9272
C11 C 0.2505(3) 0.0140(3) 0.81599(9)
H9 H 0.1269 0.0324 0.7883
H10 H 0.3124 -0.0868 0.8038
C12 C 0.6994(4) 0.1214(4) 0.54348(11)
H11 H 0.8232 0.0536 0.5423
H12 H 0.7399 0.2256 0.5299
H13 H 0.5908 0.0809 0.5148
loop_
_geom_bond_atom_site_label_1
_geom_bond_atom_site_label_2
_geom_bond_site_symmetry_1
_geom_bond_site_symmetry_2
O1 C1 1_555 1_555
O2 C9 1_555 1_555
O3 N1 1_555 1_555
O4 N1 1_555 1_555
N1 C11 1_555 1_555
C1 H1 1_555 1_555
C2 C1 1_555 1_555
H2 C2 1_555 1_555
C3 C2 1_555 1_555
C4 O1 1_555 1_555
C5 C4 1_555 1_555
H3 C5 1_555 1_555
C6 C5 1_555 1_555
C7 C6 1_555 1_555
H4 C7 1_555 1_555
C8 C3 1_555 1_555
H5 C8 1_555 1_555
C9 C1 1_555 1_555
C10 C9 1_555 1_555
H6 C10 1_555 1_555
H7 C10 1_555 1_555
H8 C10 1_555 1_555
C11 C2 1_555 1_555
H9 C11 1_555 1_555
H10 C11 1_555 1_555
C12 C6 1_555 1_555
H11 C12 1_555 1_555
H12 C12 1_555 1_555
H13 C12 1_555 1_555
C3 C4 1_555 1_555
C7 C8 1_555 1_555

#END
