
#######################################################################
#
#                 Cambridge Crystallographic Data Centre
#                                CCDC 
#
#######################################################################
#
# If this CIF has been generated from an entry in the Cambridge 
# Structural Database, then it will include bibliographic, chemical, 
# crystal, experimental, refinement or atomic coordinate data resulting 
# from the CCDC's data processing and validation procedures.
#
#######################################################################

data_MIBJUF
_chemical_formula_moiety         'C15 H15 F2 N3 O3'
_chemical_name_systematic        
4,4-difluoro-1-(1-methyl-1H-imidazol-2-yl)-3-(nitromethyl)-3-phenylbutan-1-one
_symmetry_cell_setting           orthorhombic
_symmetry_space_group_name_H-M   'P 21 21 21'
_symmetry_Int_Tables_number      19
_space_group_name_Hall           'P 2ac 2ab'
loop_
_symmetry_equiv_pos_site_id
_symmetry_equiv_pos_as_xyz
1 x,y,z
2 1/2-x,-y,1/2+z
3 1/2+x,1/2-y,-z
4 -x,1/2+y,1/2-z
_cell_length_a                   9.3745(2)
_cell_length_b                   11.4530(3)
_cell_length_c                   13.8901(3)
_cell_angle_alpha                90
_cell_angle_beta                 90
_cell_angle_gamma                90
_cell_volume                     1491.33
_cell_formula_units_Z            4
loop_
_atom_site_label
_atom_site_type_symbol
_atom_site_fract_x
_atom_site_fract_y
_atom_site_fract_z
F1 F 0.25884(16) 0.96909(13) 0.97695(9)
F2 F 0.19663(15) 1.10688(11) 0.87672(10)
N1 N -0.0554(2) 0.85784(16) 0.49424(12)
O1 O 0.14529(18) 0.78895(14) 0.64319(11)
O2 O -0.0379(2) 0.79752(16) 0.96826(13)
C1 C -0.0262(2) 0.91689(18) 0.57748(15)
N2 N -0.0033(2) 0.77080(16) 0.88617(14)
O3 O -0.08641(18) 0.73562(15) 0.82464(14)
C2 C 0.1507(2) 0.78542(18) 0.85864(15)
H1 H 0.1750 0.7291 0.8091
H2 H 0.2105 0.7702 0.9142
C3 C 0.4389(2) 0.8414(2) 0.81724(16)
H3 H 0.4149 0.7856 0.8631
C4 C 0.0700(2) 0.94822(18) 0.74460(15)
H4 H -0.0244 0.9441 0.7730
H5 H 0.0877 1.0291 0.7275
C5 C 0.3345(2) 0.91669(19) 0.78290(15)
N3 N -0.09795(19) 1.01683(16) 0.58240(13)
C6 C 0.0710(2) 0.87526(18) 0.65315(14)
C7 C 0.1645(2) 0.9962(2) 0.90588(15)
H6 H 0.0668 0.9934 0.9310
C8 C 0.5146(3) 1.0077(2) 0.68329(18)
H7 H 0.5397 1.0644 0.6384
C9 C -0.1747(3) 1.0215(2) 0.49924(16)
H8 H -0.2352 1.0824 0.4819
C10 C 0.1803(2) 0.91084(18) 0.82082(14)
C11 C 0.0036(3) 0.7475(2) 0.45937(16)
H9 H 0.0971 0.7608 0.4334
H10 H -0.0572 0.7163 0.4101
H11 H 0.0096 0.6930 0.5117
C12 C 0.3737(3) 1.0008(2) 0.71563(17)
H12 H 0.3058 1.0527 0.6921
C13 C -0.1503(3) 0.9242(2) 0.44483(16)
H13 H -0.1908 0.9068 0.3854
C14 C 0.6165(3) 0.9318(2) 0.71708(19)
H14 H 0.7099 0.9367 0.6950
C15 C 0.5790(3) 0.8480(2) 0.78411(17)
H15 H 0.6473 0.7962 0.8071
loop_
_geom_bond_atom_site_label_1
_geom_bond_atom_site_label_2
_geom_bond_site_symmetry_1
_geom_bond_site_symmetry_2
F1 C7 1_555 1_555
F2 C7 1_555 1_555
N1 C1 1_555 1_555
O1 C6 1_555 1_555
O2 N2 1_555 1_555
C1 N3 1_555 1_555
N2 O3 1_555 1_555
C2 N2 1_555 1_555
H1 C2 1_555 1_555
H2 C2 1_555 1_555
C3 H3 1_555 1_555
C4 H4 1_555 1_555
H5 C4 1_555 1_555
C5 C3 1_555 1_555
N3 C9 1_555 1_555
C6 C1 1_555 1_555
C7 H6 1_555 1_555
C8 H7 1_555 1_555
C9 H8 1_555 1_555
C10 C2 1_555 1_555
C11 N1 1_555 1_555
H9 C11 1_555 1_555
H10 C11 1_555 1_555
H11 C11 1_555 1_555
C12 C5 1_555 1_555
H12 C12 1_555 1_555
C13 N1 1_555 1_555
H13 C13 1_555 1_555
C14 C8 1_555 1_555
H14 C14 1_555 1_555
C15 C3 1_555 1_555
H15 C15 1_555 1_555
C4 C6 1_555 1_555
C4 C10 1_555 1_555
C5 C10 1_555 1_555
C7 C10 1_555 1_555
C8 C12 1_555 1_555
C9 C13 1_555 1_555
C14 C15 1_555 1_555

#END
