
#######################################################################
#
#                 Cambridge Crystallographic Data Centre
#                                CCDC 
#
#######################################################################
#
# If this CIF has been generated from an entry in the Cambridge 
# Structural Database, then it will include bibliographic, chemical, 
# crystal, experimental, refinement or atomic coordinate data resulting 
# from the CCDC's data processing and validation procedures.
#
#######################################################################

data_MIBNIX
_chemical_formula_moiety         'C27 H22 O4'
_chemical_name_systematic        
2-(Benzyloxy)-4-hydroxy-5-methoxy-1,1':2',1''-terphenyl-3-carbaldehyde
_symmetry_cell_setting           triclinic
_symmetry_space_group_name_H-M   'P -1'
_symmetry_Int_Tables_number      2
_space_group_name_Hall           '-P 1'
loop_
_symmetry_equiv_pos_site_id
_symmetry_equiv_pos_as_xyz
1 x,y,z
2 -x,-y,-z
_cell_length_a                   10.2932(4)
_cell_length_b                   10.3017(4)
_cell_length_c                   11.1867(5)
_cell_angle_alpha                67.116(2)
_cell_angle_beta                 79.012(2)
_cell_angle_gamma                70.384(2)
_cell_volume                     1026.95
_exptl_crystal_colour            colorless
_cell_formula_units_Z            2
loop_
_atom_site_label
_atom_site_type_symbol
_atom_site_fract_x
_atom_site_fract_y
_atom_site_fract_z
O1 O 0.46478(10) 0.48558(11) 0.17606(10)
O2 O 0.84310(11) 0.53132(13) 0.02349(10)
O3 O 0.94943(10) 0.34362(12) 0.24268(10)
H1 H 0.9511 0.3994 0.1668
O4 O 0.90960(10) 0.18162(12) 0.48484(10)
C1 C 0.02763(17) 0.8238(2) -0.02065(18)
H2 H -0.0519 0.8670 -0.0661
C2 C 0.02480(17) 0.7250(2) 0.10625(18)
H3 H -0.0567 0.7021 0.1456
C3 C 0.14303(16) 0.66082(19) 0.17421(16)
H4 H 0.1408 0.5946 0.2590
C4 C 0.26540(15) 0.69517(17) 0.11579(15)
C5 C 0.39349(16) 0.62764(17) 0.18837(16)
H5 H 0.4533 0.6913 0.1533
H6 H 0.3694 0.6159 0.2794
C6 C 0.57327(14) 0.40789(16) 0.25647(14)
C7 C 0.54925(14) 0.32412(16) 0.38477(14)
C8 C 0.40558(14) 0.32056(16) 0.43872(14)
C9 C 0.33249(14) 0.25126(15) 0.40046(13)
C10 C 0.39414(14) 0.16395(16) 0.31383(13)
C11 C 0.52424(14) 0.05905(16) 0.33287(13)
H7 H 0.5785 0.0514 0.3943
C12 C 0.57302(15) -0.03347(17) 0.26126(14)
H8 H 0.6593 -0.1030 0.2753
C13 C 0.49355(17) -0.02267(18) 0.16859(15)
H9 H 0.5254 -0.0861 0.1219
C14 C 0.70754(15) 0.41790(17) 0.20483(14)
C15 C 0.73121(15) 0.50979(17) 0.06959(14)
H10 H 0.6578 0.5538 0.0162
C16 C 0.81859(15) 0.33933(17) 0.28472(14)
C17 C 0.79459(15) 0.25256(16) 0.41536(14)
C18 C 0.89160(16) 0.09266(18) 0.61769(14)
H11 H 0.8301 0.1529 0.6644
H12 H 0.9795 0.0477 0.6553
H13 H 0.8532 0.0175 0.6228
C19 C 0.66181(15) 0.24685(16) 0.46349(14)
H14 H 0.6466 0.1905 0.5500
C20 C 0.31675(15) 0.17599(18) 0.21790(14)
H15 H 0.2313 0.2467 0.2020
C21 C 0.36670(16) 0.08312(19) 0.14626(15)
H16 H 0.3143 0.0922 0.0827
C22 C 0.19568(14) 0.25990(16) 0.45010(14)
H17 H 0.1463 0.2146 0.4254
C23 C 0.13197(15) 0.33436(17) 0.53528(15)
H18 H 0.0408 0.3388 0.5670
C24 C 0.20415(15) 0.40226(17) 0.57320(15)
H19 H 0.1619 0.4525 0.6303
C25 C 0.34017(15) 0.39450(16) 0.52513(14)
H20 H 0.3887 0.4395 0.5511
C26 C 0.26687(16) 0.79339(18) -0.01158(16)
H21 H 0.3483 0.8161 -0.0517
C27 C 0.14871(18) 0.85758(19) -0.07925(17)
H22 H 0.1508 0.9235 -0.1642
loop_
_geom_bond_atom_site_label_1
_geom_bond_atom_site_label_2
_geom_bond_site_symmetry_1
_geom_bond_site_symmetry_2
O1 C5 1_555 1_555
O2 C15 1_555 1_555
O3 H1 1_555 1_555
O4 C17 1_555 1_555
C1 H2 1_555 1_555
C2 C1 1_555 1_555
H3 C2 1_555 1_555
C3 C2 1_555 1_555
H4 C3 1_555 1_555
C4 C3 1_555 1_555
C5 C4 1_555 1_555
H5 C5 1_555 1_555
H6 C5 1_555 1_555
C6 O1 1_555 1_555
C7 C6 1_555 1_555
C8 C7 1_555 1_555
C9 C8 1_555 1_555
C10 C9 1_555 1_555
C11 C10 1_555 1_555
H7 C11 1_555 1_555
C12 C11 1_555 1_555
H8 C12 1_555 1_555
C13 C12 1_555 1_555
H9 C13 1_555 1_555
C14 C6 1_555 1_555
C15 C14 1_555 1_555
H10 C15 1_555 1_555
C16 O3 1_555 1_555
C17 C16 1_555 1_555
C18 O4 1_555 1_555
H11 C18 1_555 1_555
H12 C18 1_555 1_555
H13 C18 1_555 1_555
C19 C7 1_555 1_555
H14 C19 1_555 1_555
C20 C10 1_555 1_555
H15 C20 1_555 1_555
C21 C13 1_555 1_555
H16 C21 1_555 1_555
C22 C9 1_555 1_555
H17 C22 1_555 1_555
C23 C22 1_555 1_555
H18 C23 1_555 1_555
C24 C23 1_555 1_555
H19 C24 1_555 1_555
C25 C8 1_555 1_555
H20 C25 1_555 1_555
C26 C4 1_555 1_555
H21 C26 1_555 1_555
C27 C1 1_555 1_555
H22 C27 1_555 1_555
C14 C16 1_555 1_555
C17 C19 1_555 1_555
C20 C21 1_555 1_555
C24 C25 1_555 1_555
C26 C27 1_555 1_555

#END
