
#######################################################################
#
#                 Cambridge Crystallographic Data Centre
#                                CCDC 
#
#######################################################################
#
# If this CIF has been generated from an entry in the Cambridge 
# Structural Database, then it will include bibliographic, chemical, 
# crystal, experimental, refinement or atomic coordinate data resulting 
# from the CCDC's data processing and validation procedures.
#
#######################################################################

data_MIBTID
_chemical_formula_moiety         'C16 H18 N4 O6'
_chemical_name_systematic        
'ethyl azido(3-{[(benzyloxy)carbonyl]amino}-5-oxooxolan-2-yl)acetate'
_symmetry_cell_setting           monoclinic
_symmetry_space_group_name_H-M   'P 21'
_symmetry_Int_Tables_number      4
_space_group_name_Hall           'P 2yb'
loop_
_symmetry_equiv_pos_site_id
_symmetry_equiv_pos_as_xyz
1 x,y,z
2 -x,1/2+y,-z
_cell_length_a                   9.1385(4)
_cell_length_b                   5.0373(3)
_cell_length_c                   19.3484(10)
_cell_angle_alpha                90
_cell_angle_beta                 101.295(5)
_cell_angle_gamma                90
_cell_volume                     873.421
_exptl_crystal_colour            colorless
_exptl_crystal_description       Prism
_cell_formula_units_Z            2
loop_
_atom_site_label
_atom_site_type_symbol
_atom_site_fract_x
_atom_site_fract_y
_atom_site_fract_z
O1 O -0.58341(17) -0.9515(3) -0.28920(8)
O2 O -0.48338(15) -1.2644(3) -0.35025(7)
O3 O -0.82545(15) -1.7527(3) -0.18460(7)
O4 O -1.04997(16) -1.7955(3) -0.25369(8)
O5 O -0.44739(16) -1.3280(3) -0.11441(8)
O6 O -0.56197(16) -1.0487(3) -0.05099(8)
N1 N -0.8470(2) -1.2209(4) -0.04135(10)
C1 C -0.5593(2) -1.2493(4) -0.08445(10)
N2 N -0.63657(19) -1.3912(3) -0.28197(8)
H1 H -0.6209 -1.5479 -0.2966
C2 C -0.2430(2) -1.2612(6) -0.53797(10)
H2 H -0.2505 -1.2072 -0.5845
C3 C -0.2195(2) -1.4203(4) -0.39960(11)
H3 H -0.2113 -1.4743 -0.3530
C4 C -0.3217(2) -1.1261(5) -0.49429(11)
H4 H -0.3822 -0.9832 -0.5117
N3 N -0.83213(18) -1.3218(4) -0.09745(8)
C5 C -0.5696(2) -1.1825(4) -0.30551(10)
C6 C -0.3099(2) -1.2049(4) -0.42461(11)
C7 C -0.3933(2) -1.0619(5) -0.37624(11)
H5 H -0.3244 -0.9807 -0.3375
H6 H -0.4565 -0.9245 -0.4015
C8 C -0.1416(2) -1.5552(5) -0.44334(12)
H7 H -0.0815 -1.6990 -0.4261
C9 C -0.6878(2) -1.4499(4) -0.09898(10)
H8 H -0.6698 -1.5920 -0.0637
C10 C -0.9385(2) -1.6663(4) -0.23612(10)
C11 C -0.7018(2) -1.5687(4) -0.17267(9)
H9 H -0.6096 -1.6633 -0.1758
C12 C -0.8998(2) -1.4018(4) -0.26403(10)
H10 H -0.9605 -1.2619 -0.2498
H11 H -0.9156 -1.4048 -0.3151
C13 C -0.7351(2) -1.3575(4) -0.23214(9)
H12 H -0.7216 -1.1795 -0.2114
C14 C -0.3188(2) -1.1485(5) -0.10752(14)
H13 H -0.2612 -1.1525 -0.0598
H14 H -0.3519 -0.9678 -0.1187
C15 C -0.1534(2) -1.4754(5) -0.51274(12)
H15 H -0.1013 -1.5654 -0.5423
N4 N -0.8795(3) -1.1225(6) 0.00595(12)
C16 C -0.2258(3) -1.2455(8) -0.15869(13)
H16 H -0.1916 -1.4225 -0.1462
H17 H -0.1415 -1.1302 -0.1570
H18 H -0.2851 -1.2456 -0.2055
loop_
_geom_bond_atom_site_label_1
_geom_bond_atom_site_label_2
_geom_bond_site_symmetry_1
_geom_bond_site_symmetry_2
O1 C5 1_555 1_555
O2 C5 1_555 1_555
O3 C10 1_555 1_555
O4 C10 1_555 1_555
O5 C1 1_555 1_555
O6 C1 1_555 1_555
N1 N3 1_555 1_555
C1 C9 1_555 1_555
N2 H1 1_555 1_555
C2 H2 1_555 1_555
C3 H3 1_555 1_555
C4 C2 1_555 1_555
H4 C4 1_555 1_555
N3 C9 1_555 1_555
C5 N2 1_555 1_555
C6 C3 1_555 1_555
C7 O2 1_555 1_555
H5 C7 1_555 1_555
H6 C7 1_555 1_555
C8 C3 1_555 1_555
H7 C8 1_555 1_555
C9 H8 1_555 1_555
C10 C12 1_555 1_555
C11 O3 1_555 1_555
H9 C11 1_555 1_555
C12 H10 1_555 1_555
H11 C12 1_555 1_555
C13 N2 1_555 1_555
H12 C13 1_555 1_555
C14 O5 1_555 1_555
H13 C14 1_555 1_555
H14 C14 1_555 1_555
C15 C2 1_555 1_555
H15 C15 1_555 1_555
N4 N1 1_555 1_555
C16 C14 1_555 1_555
H16 C16 1_555 1_555
H17 C16 1_555 1_555
H18 C16 1_555 1_555
C4 C6 1_555 1_555
C6 C7 1_555 1_555
C8 C15 1_555 1_555
C9 C11 1_555 1_555
C11 C13 1_555 1_555
C12 C13 1_555 1_555

#END
