
#######################################################################
#
#                 Cambridge Crystallographic Data Centre
#                                CCDC 
#
#######################################################################
#
# If this CIF has been generated from an entry in the Cambridge 
# Structural Database, then it will include bibliographic, chemical, 
# crystal, experimental, refinement or atomic coordinate data resulting 
# from the CCDC's data processing and validation procedures.
#
#######################################################################

data_MICGIR
_chemical_formula_moiety         'C4 H8 N5 1+,C7 H4 Cl1 O3 1-,H2 O1'
_chemical_name_systematic        
'2,4-diamino-6-methyl-1,3,5-triazin-1-ium 5-chloro-2-hydroxybenzoate monohydrate'
_symmetry_cell_setting           monoclinic
_symmetry_space_group_name_H-M   'C 2/c'
_symmetry_Int_Tables_number      15
_space_group_name_Hall           '-C 2yn'
loop_
_symmetry_equiv_pos_site_id
_symmetry_equiv_pos_as_xyz
1 x,y,z
2 -x,y,1/2-z
3 1/2+x,1/2+y,z
4 1/2-x,1/2+y,1/2-z
5 -x,-y,-z
6 x,-y,1/2+z
7 1/2-x,1/2-y,-z
8 1/2+x,1/2-y,1/2+z
_cell_length_a                   13.2637(7)
_cell_length_b                   12.7606(7)
_cell_length_c                   17.0272(8)
_cell_angle_alpha                90
_cell_angle_beta                 105.192(5)
_cell_angle_gamma                90
_cell_volume                     2781.19
_exptl_crystal_colour            colorless
_exptl_crystal_description       block
_cell_formula_units_Z            8
loop_
_atom_site_label
_atom_site_type_symbol
_atom_site_fract_x
_atom_site_fract_y
_atom_site_fract_z
Cl1 Cl 0.07899(5) -0.13507(6) 0.07713(4)
O1 O 0.42502(13) -0.13414(13) 0.32380(10)
O2 O 0.35884(16) 0.17788(13) 0.27050(11)
H1 H 0.4012 0.1511 0.3092
O3 O 0.45555(14) 0.03261(14) 0.35663(11)
C1 C 0.2133(2) 0.1348(2) 0.16444(14)
H2 H 0.2020 0.2059 0.1535
C2 C 0.31518(17) -0.00404(17) 0.24393(13)
C3 C 0.24709(17) -0.07694(18) 0.19680(12)
H3 H 0.2579 -0.1482 0.2071
C4 C 0.29707(19) 0.10249(18) 0.22689(13)
C5 C 0.16402(17) -0.0437(2) 0.13520(13)
C6 C 0.1464(2) 0.0620(2) 0.11844(14)
H4 H 0.0900 0.0835 0.0765
C7 C 0.40430(18) -0.03992(19) 0.31176(14)
N1 N 0.12864(14) 0.50377(14) -0.03059(11)
H5 H 0.0707 0.4978 -0.0676
N2 N 0.26104(15) 0.42340(15) 0.06781(11)
N3 N 0.38532(15) 0.52855(16) 0.14667(11)
H6 H 0.4143 0.5883 0.1609
H7 H 0.4119 0.4727 0.1721
N4 N 0.12830(15) 0.67930(15) -0.05673(12)
H8 H 0.1548 0.7410 -0.0471
H9 H 0.0722 0.6699 -0.0951
N5 N 0.26032(14) 0.61092(15) 0.04710(11)
C8 C 0.17472(18) 0.41809(18) 0.00951(13)
C9 C 0.17353(17) 0.59934(18) -0.01273(13)
C10 C 0.30041(17) 0.52251(18) 0.08599(13)
C11 C 0.1218(2) 0.31666(19) -0.01553(16)
H10 H 0.0556 0.3161 -0.0025
H11 H 0.1645 0.2606 0.0128
H12 H 0.1109 0.3075 -0.0731
O4 O 0.0000 0.20119(19) 0.2500
H13 H -0.0367 0.2445 0.2686
H13A H 0.0367 0.2445 0.2314
O5 O 0.5000 0.3527(2) 0.2500
H14 H 0.4517 0.3095 0.2514
H14A H 0.5483 0.3095 0.2486
loop_
_geom_bond_atom_site_label_1
_geom_bond_atom_site_label_2
_geom_bond_site_symmetry_1
_geom_bond_site_symmetry_2
Cl1 C5 1_555 1_555
O1 C7 1_555 1_555
O2 H1 1_555 1_555
O3 C7 1_555 1_555
C1 H2 1_555 1_555
C2 C3 1_555 1_555
C3 H3 1_555 1_555
C4 O2 1_555 1_555
C5 C3 1_555 1_555
C6 C1 1_555 1_555
H4 C6 1_555 1_555
C7 C2 1_555 1_555
N1 H5 1_555 1_555
N2 C8 1_555 1_555
N3 H6 1_555 1_555
H7 N3 1_555 1_555
N4 H8 1_555 1_555
H9 N4 1_555 1_555
N5 C9 1_555 1_555
C8 N1 1_555 1_555
C9 N1 1_555 1_555
C10 N2 1_555 1_555
C11 C8 1_555 1_555
H10 C11 1_555 1_555
H11 C11 1_555 1_555
H12 C11 1_555 1_555
O4 H13 1_555 1_555
O5 H14 1_555 1_555
H13A O4 1_555 1_555
H14A O5 1_555 1_555
C1 C4 1_555 1_555
C2 C4 1_555 1_555
C5 C6 1_555 1_555
N3 C10 1_555 1_555
N4 C9 1_555 1_555
N5 C10 1_555 1_555

#END
