
#######################################################################
#
#                 Cambridge Crystallographic Data Centre
#                                CCDC 
#
#######################################################################
#
# If this CIF has been generated from an entry in the Cambridge 
# Structural Database, then it will include bibliographic, chemical, 
# crystal, experimental, refinement or atomic coordinate data resulting 
# from the CCDC's data processing and validation procedures.
#
#######################################################################

data_MICXIG
_chemical_formula_moiety         'C32 H24 Br1 N1 O7'
_chemical_name_systematic        
(2S,3S)-2-(4-bromophenylcarbonyloxymethyl)-2-((Z)-1-(4-nitrophenylcarbonyloxymethyl)-2-phenyleth-1-enyl)-3-phenyloxirane
_symmetry_cell_setting           orthorhombic
_symmetry_space_group_name_H-M   'P 21 21 21'
_symmetry_Int_Tables_number      19
_space_group_name_Hall           'P 2ac 2ab'
loop_
_symmetry_equiv_pos_site_id
_symmetry_equiv_pos_as_xyz
1 x,y,z
2 1/2-x,-y,1/2+z
3 -x,1/2+y,1/2-z
4 1/2+x,1/2-y,-z
_cell_length_a                   6.8896(4)
_cell_length_b                   19.0849(15)
_cell_length_c                   21.3444(16)
_cell_angle_alpha                90
_cell_angle_beta                 90
_cell_angle_gamma                90
_cell_volume                     2806.52
_exptl_crystal_colour            colorless
_exptl_crystal_description       prism
_chemical_melting_point          '159-160 deg.C'
_cell_formula_units_Z            4
loop_
_atom_site_label
_atom_site_type_symbol
_atom_site_fract_x
_atom_site_fract_y
_atom_site_fract_z
Br1 Br 1.24016(11) 1.14812(3) 0.85602(4)
C1 C 0.3998(7) 0.8681(2) 0.7199(2)
H1 H 0.4802 0.9104 0.7198
C2 C 0.2434(9) 0.8687(2) 0.76694(19)
C3 C 0.0605(8) 0.8283(2) 0.7584(2)
C4 C -0.0664(8) 0.8406(2) 0.7130(2)
H2 H -0.1781 0.8133 0.7134
C5 C -0.0519(7) 0.8922(2) 0.6622(2)
C6 C -0.0733(11) 0.8723(3) 0.6019(3)
H3 H -0.0978 0.8254 0.5932
C7 C -0.0602(14) 0.9187(5) 0.5530(3)
H4 H -0.0761 0.9027 0.5121
C8 C -0.0250(12) 0.9865(4) 0.5633(4)
H5 H -0.0159 1.0179 0.5301
C9 C -0.0027(14) 1.0085(4) 0.6229(4)
H6 H 0.0236 1.0555 0.6310
C10 C -0.0189(12) 0.9615(3) 0.6720(3)
H7 H -0.0067 0.9778 0.7129
C11 C 0.3932(6) 0.8310(2) 0.6588(2)
C12 C 0.3471(7) 0.7610(3) 0.6547(2)
H8 H 0.3215 0.7358 0.6910
C13 C 0.3384(8) 0.7280(3) 0.5978(3)
H9 H 0.3077 0.6806 0.5958
C14 C 0.3748(10) 0.7644(4) 0.5436(3)
H10 H 0.3638 0.7428 0.5047
C15 C 0.4273(13) 0.8326(4) 0.5484(3)
H11 H 0.4607 0.8570 0.5122
C16 C 0.4329(9) 0.8672(3) 0.6051(3)
H12 H 0.4634 0.9146 0.6067
C17 C 0.2272(10) 0.9268(3) 0.8145(2)
H13 H 0.1170 0.9563 0.8043
H14 H 0.2049 0.9068 0.8557
C18 C 0.5113(8) 0.9647(2) 0.8674(2)
C19 C 0.6897(7) 1.0090(2) 0.8610(2)
C20 C 0.8205(8) 1.0090(3) 0.9103(2)
H15 H 0.7955 0.9818 0.9456
C21 C 0.9867(9) 1.0488(3) 0.9077(3)
H16 H 1.0760 1.0472 0.9403
C22 C 1.0200(8) 1.0902(2) 0.8572(3)
C23 C 0.8897(10) 1.0916(3) 0.8079(3)
H17 H 0.9128 1.1205 0.7736
C24 C 0.7264(10) 1.0503(2) 0.8094(2)
H18 H 0.6409 1.0502 0.7757
C25 C 0.0295(9) 0.7677(2) 0.8021(2)
H19 H -0.0920 0.7444 0.7925
H20 H 0.1340 0.7340 0.7976
C26 C 0.0234(8) 0.7474(3) 0.9122(3)
C27 C 0.0226(8) 0.7796(3) 0.9753(2)
C28 C 0.0288(9) 0.8513(3) 0.9831(2)
H21 H 0.0333 0.8800 0.9479
C29 C 0.0287(11) 0.8816(3) 1.0414(2)
H22 H 0.0329 0.9300 1.0459
C30 C 0.0222(8) 0.8387(3) 1.0931(2)
C31 C 0.0154(9) 0.7667(3) 1.0866(3)
H23 H 0.0098 0.7382 1.1219
C32 C 0.0169(8) 0.7374(3) 1.0279(3)
H24 H 0.0141 0.6890 1.0235
N1 N 0.0181(9) 0.8718(2) 1.1569(2)
O1 O 0.4173(5) 0.82684(17) 0.77570(15)
O2 O 0.4733(7) 0.9297(2) 0.91153(18)
O3 O 0.4012(6) 0.96888(18) 0.81593(16)
O4 O 0.0195(6) 0.68543(19) 0.90261(18)
O5 O 0.0252(5) 0.79494(14) 0.86637(15)
O6 O 0.058(2) 0.8303(4) 1.1972(4)
O7 O -0.014(2) 0.9339(3) 1.1579(4)
O8? O -0.051(2) 0.8371(5) 1.1982(4)
O9? O 0.079(3) 0.9307(4) 1.1626(6)
loop_
_geom_bond_atom_site_label_1
_geom_bond_atom_site_label_2
_geom_bond_site_symmetry_1
_geom_bond_site_symmetry_2
Br1 C22 1_555 1_555
C1 H1 1_555 1_555
C2 C1 1_555 1_555
C3 C2 1_555 1_555
C4 C3 1_555 1_555
H2 C4 1_555 1_555
C5 C4 1_555 1_555
C6 C5 1_555 1_555
H3 C6 1_555 1_555
C7 C6 1_555 1_555
H4 C7 1_555 1_555
C8 C7 1_555 1_555
H5 C8 1_555 1_555
C9 C8 1_555 1_555
H6 C9 1_555 1_555
C10 C5 1_555 1_555
H7 C10 1_555 1_555
C11 C1 1_555 1_555
C12 C11 1_555 1_555
H8 C12 1_555 1_555
C13 C12 1_555 1_555
H9 C13 1_555 1_555
C14 C13 1_555 1_555
H10 C14 1_555 1_555
C15 C14 1_555 1_555
H11 C15 1_555 1_555
C16 C11 1_555 1_555
H12 C16 1_555 1_555
C17 C2 1_555 1_555
H13 C17 1_555 1_555
H14 C17 1_555 1_555
C18 C19 1_555 1_555
C19 C20 1_555 1_555
C20 H15 1_555 1_555
C21 C20 1_555 1_555
H16 C21 1_555 1_555
C22 C21 1_555 1_555
C23 C22 1_555 1_555
H17 C23 1_555 1_555
C24 C19 1_555 1_555
H18 C24 1_555 1_555
C25 C3 1_555 1_555
H19 C25 1_555 1_555
H20 C25 1_555 1_555
C26 C27 1_555 1_555
C27 C28 1_555 1_555
C28 H21 1_555 1_555
C29 C28 1_555 1_555
H22 C29 1_555 1_555
C30 C29 1_555 1_555
C31 C30 1_555 1_555
H23 C31 1_555 1_555
C32 C27 1_555 1_555
H24 C32 1_555 1_555
N1 C30 1_555 1_555
O1 C1 1_555 1_555
O2 C18 1_555 1_555
O3 C17 1_555 1_555
O4 C26 1_555 1_555
O5 C25 1_555 1_555
O6 N1 1_555 1_555
O7 N1 1_555 1_555
C2 O1 1_555 1_555
C9 C10 1_555 1_555
C15 C16 1_555 1_555
C18 O3 1_555 1_555
C23 C24 1_555 1_555
C26 O5 1_555 1_555
C31 C32 1_555 1_555

#END
