
#######################################################################
#
#                 Cambridge Crystallographic Data Centre
#                                CCDC 
#
#######################################################################
#
# If this CIF has been generated from an entry in the Cambridge 
# Structural Database, then it will include bibliographic, chemical, 
# crystal, experimental, refinement or atomic coordinate data resulting 
# from the CCDC's data processing and validation procedures.
#
#######################################################################

data_MICZEE
_chemical_formula_moiety         'C34 H52 N2 O2'
_chemical_name_systematic        
3,3'-Ethane-1,2-diylbis(6,8-dimethyl-3,4-dihydro-2H-1,3-benzoxazine)
_symmetry_cell_setting           triclinic
_symmetry_space_group_name_H-M   'P -1'
_symmetry_Int_Tables_number      2
_space_group_name_Hall           '-P 1'
loop_
_symmetry_equiv_pos_site_id
_symmetry_equiv_pos_as_xyz
1 x,y,z
2 -x,-y,-z
_cell_length_a                   5.727(2)
_cell_length_b                   9.268(3)
_cell_length_c                   14.666(4)
_cell_angle_alpha                88.116(11)
_cell_angle_beta                 88.537(11)
_cell_angle_gamma                80.821(10)
_cell_volume                     767.894
_exptl_crystal_colour            colorless
_exptl_crystal_description       block
_chemical_melting_point          '155-156 deg.C'
_cell_formula_units_Z            1
loop_
_atom_site_label
_atom_site_type_symbol
_atom_site_fract_x
_atom_site_fract_y
_atom_site_fract_z
O1 O 0.2947(2) 0.6316(1) 0.30161(9)
N1 N 0.2182(3) 0.6239(2) 0.46371(11)
C1 C 0.1163(3) 0.7496(2) 0.29022(12)
C2 C 0.0430(3) 0.7910(2) 0.20058(11)
C3 C -0.1329(3) 0.9123(2) 0.19178(12)
C4 C -0.2445(3) 0.9911(2) 0.26494(12)
C5 C -0.1723(3) 0.9410(2) 0.35157(12)
C6 C 0.0072(3) 0.8227(2) 0.36521(12)
C7 C 0.0833(4) 0.7725(2) 0.46046(13)
C8 C 0.3943(4) 0.6156(2) 0.3917(1)
C9 C 0.1486(3) 0.7033(2) 0.11808(12)
C10 C 0.0952(4) 0.5454(2) 0.1285(1)
C11 C 0.4160(3) 0.7004(2) 0.1094(2)
C12 C 0.0406(4) 0.7681(2) 0.02814(13)
C13 C -0.4276(3) 1.1295(2) 0.25092(13)
C14 C -0.5608(4) 1.1284(3) 0.1620(2)
C15 C -0.2983(4) 1.2619(2) 0.2484(2)
C16 C -0.6120(4) 1.1472(3) 0.3283(2)
C17 C 0.0701(4) 0.5102(2) 0.45619(13)
H1 H -0.1800(3) 0.9446(2) 0.13190(12)
H2 H -0.2478(3) 0.9891(2) 0.40314(12)
H3 H -0.0535(4) 0.7748(2) 0.49874(13)
H4 H 0.1797(4) 0.8378(2) 0.48236(13)
H5 H 0.4938(4) 0.5235(2) 0.3967(1)
H6 H 0.4856(4) 0.6914(2) 0.3989(1)
H7 H -0.0711(4) 0.5467(2) 0.1293(1)
H8 H 0.1652(4) 0.4901(2) 0.0786(1)
H9 H 0.1591(4) 0.5022(2) 0.1839(1)
H10 H 0.4890(3) 0.6600(2) 0.1639(2)
H11 H 0.4775(3) 0.6424(2) 0.0594(2)
H12 H 0.4476(3) 0.7973(2) 0.0994(2)
H13 H 0.0756(4) 0.8643(2) 0.01864(13)
H14 H 0.1053(4) 0.7091(2) -0.02097(13)
H15 H -0.1261(4) 0.7713(2) 0.03115(13)
H16 H -0.6666(4) 1.2177(3) 0.1543(2)
H17 H -0.4505(4) 1.1175(3) 0.1122(2)
H18 H -0.6475(4) 1.0490(3) 0.1640(2)
H19 H -0.2226(4) 1.2667(2) 0.3049(2)
H20 H -0.1830(4) 1.2524(2) 0.2003(2)
H21 H -0.4086(4) 1.3487(2) 0.2385(2)
H22 H -0.5344(4) 1.1479(3) 0.3848(2)
H23 H -0.7165(4) 1.2368(3) 0.3195(2)
H24 H -0.6994(4) 1.0682(3) 0.3291(2)
H25 H -0.0380(4) 0.5376(2) 0.40825(13)
H26 H 0.1678(4) 0.4204(2) 0.44247(13)
O1A O -0.2947(2) 0.3684(1) 0.69839(9)
N1A N -0.2182(3) 0.3761(2) 0.53629(11)
C1A C -0.1163(3) 0.2504(2) 0.70978(12)
C2A C -0.0430(3) 0.2090(2) 0.79942(11)
C3A C 0.1329(3) 0.0877(2) 0.80822(12)
C4A C 0.2445(3) 0.0089(2) 0.73506(12)
C5A C 0.1723(3) 0.0590(2) 0.64843(12)
C6A C -0.0072(3) 0.1773(2) 0.63479(12)
C7A C -0.0833(4) 0.2275(2) 0.53954(13)
C8A C -0.3943(4) 0.3844(2) 0.6083(1)
C9A C -0.1486(3) 0.2967(2) 0.88192(12)
C10A C -0.0952(4) 0.4546(2) 0.8715(1)
C11A C -0.4160(3) 0.2996(2) 0.8906(2)
C12A C -0.0406(4) 0.2319(2) 0.97186(13)
C13A C 0.4276(3) -0.1295(2) 0.74908(13)
C14A C 0.5608(4) -0.1284(3) 0.8380(2)
C15A C 0.2983(4) -0.2619(2) 0.7516(2)
C16A C 0.6120(4) -0.1472(3) 0.6717(2)
C17A C -0.0701(4) 0.4898(2) 0.54381(13)
H1A H 0.1800(3) 0.0554(2) 0.86810(12)
H2A H 0.2478(3) 0.0109(2) 0.59686(12)
H3A H 0.0535(4) 0.2252(2) 0.50126(13)
H4A H -0.1797(4) 0.1622(2) 0.51764(13)
H5A H -0.4938(4) 0.4765(2) 0.6033(1)
H6A H -0.4856(4) 0.3086(2) 0.6011(1)
H7A H 0.0711(4) 0.4533(2) 0.8707(1)
H8A H -0.1652(4) 0.5099(2) 0.9214(1)
H9A H -0.1591(4) 0.4978(2) 0.8161(1)
H10A H -0.4890(3) 0.3400(2) 0.8361(2)
H11A H -0.4775(3) 0.3576(2) 0.9406(2)
H12A H -0.4476(3) 0.2027(2) 0.9006(2)
H13A H -0.0756(4) 0.1357(2) 0.98136(13)
H14A H -0.1053(4) 0.2909(2) 1.02097(13)
H15A H 0.1261(4) 0.2287(2) 0.96885(13)
H16A H 0.6666(4) -0.2177(3) 0.8457(2)
H17A H 0.4505(4) -0.1175(3) 0.8878(2)
H18A H 0.6475(4) -0.0490(3) 0.8360(2)
H19A H 0.2226(4) -0.2667(2) 0.6951(2)
H20A H 0.1830(4) -0.2524(2) 0.7997(2)
H21A H 0.4086(4) -0.3487(2) 0.7615(2)
H22A H 0.5344(4) -0.1479(3) 0.6152(2)
H23A H 0.7165(4) -0.2368(3) 0.6805(2)
H24A H 0.6994(4) -0.0682(3) 0.6709(2)
H25A H 0.0380(4) 0.4624(2) 0.59175(13)
H26A H -0.1678(4) 0.5796(2) 0.55753(13)
loop_
_geom_bond_atom_site_label_1
_geom_bond_atom_site_label_2
_geom_bond_site_symmetry_1
_geom_bond_site_symmetry_2
O1 C1 1_555 1_555
N1 C7 1_555 1_555
C1 C2 1_555 1_555
C2 C3 1_555 1_555
C3 C4 1_555 1_555
C4 C5 1_555 1_555
C5 C6 1_555 1_555
C6 C1 1_555 1_555
C7 C6 1_555 1_555
C8 O1 1_555 1_555
C9 C2 1_555 1_555
C10 C9 1_555 1_555
C11 C9 1_555 1_555
C12 C9 1_555 1_555
C13 C4 1_555 1_555
C14 C13 1_555 1_555
C15 C13 1_555 1_555
C16 C13 1_555 1_555
C17 N1 1_555 1_555
H1 C3 1_555 1_555
H2 C5 1_555 1_555
H3 C7 1_555 1_555
H4 C7 1_555 1_555
H5 C8 1_555 1_555
H6 C8 1_555 1_555
H7 C10 1_555 1_555
H8 C10 1_555 1_555
H9 C10 1_555 1_555
H10 C11 1_555 1_555
H11 C11 1_555 1_555
H12 C11 1_555 1_555
H13 C12 1_555 1_555
H14 C12 1_555 1_555
H15 C12 1_555 1_555
H16 C14 1_555 1_555
H17 C14 1_555 1_555
H18 C14 1_555 1_555
H19 C15 1_555 1_555
H20 C15 1_555 1_555
H21 C15 1_555 1_555
H22 C16 1_555 1_555
H23 C16 1_555 1_555
H24 C16 1_555 1_555
H25 C17 1_555 1_555
H26 C17 1_555 1_555
O1A C1A 1_555 1_555
N1A C7A 1_555 1_555
C1A C2A 1_555 1_555
C2A C3A 1_555 1_555
C3A C4A 1_555 1_555
C4A C5A 1_555 1_555
C5A C6A 1_555 1_555
C6A C1A 1_555 1_555
C7A C6A 1_555 1_555
C8A O1A 1_555 1_555
C9A C2A 1_555 1_555
C10A C9A 1_555 1_555
C11A C9A 1_555 1_555
C12A C9A 1_555 1_555
C13A C4A 1_555 1_555
C14A C13A 1_555 1_555
C15A C13A 1_555 1_555
C16A C13A 1_555 1_555
C17A C17 1_555 1_555
H1A C3A 1_555 1_555
H2A C5A 1_555 1_555
H3A C7A 1_555 1_555
H4A C7A 1_555 1_555
H5A C8A 1_555 1_555
H6A C8A 1_555 1_555
H7A C10A 1_555 1_555
H8A C10A 1_555 1_555
H9A C10A 1_555 1_555
H10A C11A 1_555 1_555
H11A C11A 1_555 1_555
H12A C11A 1_555 1_555
H13A C12A 1_555 1_555
H14A C12A 1_555 1_555
H15A C12A 1_555 1_555
H16A C14A 1_555 1_555
H17A C14A 1_555 1_555
H18A C14A 1_555 1_555
H19A C15A 1_555 1_555
H20A C15A 1_555 1_555
H21A C15A 1_555 1_555
H22A C16A 1_555 1_555
H23A C16A 1_555 1_555
H24A C16A 1_555 1_555
H25A C17A 1_555 1_555
H26A C17A 1_555 1_555
N1 C8 1_555 1_555
N1A C8A 1_555 1_555
N1A C17A 1_555 1_555

#END
