
#######################################################################
#
#                 Cambridge Crystallographic Data Centre
#                                CCDC 
#
#######################################################################
#
# If this CIF has been generated from an entry in the Cambridge 
# Structural Database, then it will include bibliographic, chemical, 
# crystal, experimental, refinement or atomic coordinate data resulting 
# from the CCDC's data processing and validation procedures.
#
#######################################################################

data_MIDZEH
_chemical_formula_moiety         'C8 N12 O8'
_chemical_name_systematic        
5,5'-(diazene-1,2-diyl)bis[3-(4-nitro-1,2,5-oxadiazol-3-yl)-1,2,4-oxadiazole]
_symmetry_cell_setting           orthorhombic
_symmetry_space_group_name_H-M   'P b c a'
_symmetry_Int_Tables_number      61
_space_group_name_Hall           '-P 2ac 2ab'
loop_
_symmetry_equiv_pos_site_id
_symmetry_equiv_pos_as_xyz
1 x,y,z
2 1/2+x,1/2-y,-z
3 -x,1/2+y,1/2-z
4 1/2-x,-y,1/2+z
5 -x,-y,-z
6 1/2-x,1/2+y,z
7 x,1/2-y,1/2+z
8 1/2+x,y,1/2-z
_cell_length_a                   8.3583(4)
_cell_length_b                   7.8755(3)
_cell_length_c                   20.6557(8)
_cell_angle_alpha                90
_cell_angle_beta                 90
_cell_angle_gamma                90
_cell_volume                     1359.68
_exptl_crystal_colour            yellow
_exptl_crystal_description       Plate
_cell_formula_units_Z            4
loop_
_atom_site_label
_atom_site_type_symbol
_atom_site_fract_x
_atom_site_fract_y
_atom_site_fract_z
C1 C 0.46341(16) 0.33967(17) 0.68343(6)
C2 C 0.50514(16) 0.42872(17) 0.62610(6)
C3 C 0.48917(17) 0.81085(17) 0.54356(7)
C4 C 0.46668(16) 0.59666(16) 0.59963(6)
N1 N 0.53442(15) 0.19425(15) 0.68586(6)
N2 N 0.60466(15) 0.33230(15) 0.59409(6)
N3 N 0.34776(17) 0.68966(16) 0.61918(7)
N4 N 0.55872(14) 0.66653(14) 0.55173(6)
N5 N 0.35590(14) 0.38434(15) 0.73602(5)
N6 N 0.54085(15) 0.93373(14) 0.49881(6)
O1 O 0.62181(12) 0.18670(13) 0.63022(5)
O2 O 0.36185(13) 0.83687(13) 0.58124(5)
O3 O 0.24843(13) 0.48241(14) 0.72317(5)
O4 O 0.38013(14) 0.31945(15) 0.78830(5)
C1D C 0.53659(16) 1.66033(17) 0.31657(6)
C2D C 0.49486(16) 1.57128(17) 0.37390(6)
C3D C 0.51083(17) 1.18915(17) 0.45644(7)
C4D C 0.53332(16) 1.40334(16) 0.40037(6)
N1D N 0.46558(15) 1.80575(15) 0.31414(6)
N2D N 0.39534(15) 1.66770(15) 0.40591(6)
N3D N 0.65224(17) 1.31034(16) 0.38082(7)
N4D N 0.44128(14) 1.33347(14) 0.44827(6)
N5D N 0.64410(14) 1.61566(15) 0.26398(5)
N6D N 0.45915(15) 1.06627(14) 0.50119(6)
O1D O 0.37819(12) 1.81330(13) 0.36978(5)
O2D O 0.63815(13) 1.16313(13) 0.41876(5)
O3D O 0.75157(13) 1.51759(14) 0.27683(5)
O4D O 0.61987(14) 1.68055(15) 0.21170(5)
loop_
_geom_bond_atom_site_label_1
_geom_bond_atom_site_label_2
_geom_bond_site_symmetry_1
_geom_bond_site_symmetry_2
C1 C2 1_555 1_555
C2 C4 1_555 1_555
C3 N4 1_555 1_555
C4 N3 1_555 1_555
N1 C1 1_555 1_555
N2 C2 1_555 1_555
N3 O2 1_555 1_555
N4 C4 1_555 1_555
N5 C1 1_555 1_555
N6 C3 1_555 1_555
O1 N1 1_555 1_555
O2 C3 1_555 1_555
O3 N5 1_555 1_555
O4 N5 1_555 1_555
C1D C2D 1_555 1_555
C2D C4D 1_555 1_555
C3D N4D 1_555 1_555
C4D N3D 1_555 1_555
N1D C1D 1_555 1_555
N2D C2D 1_555 1_555
N3D O2D 1_555 1_555
N4D C4D 1_555 1_555
N5D C1D 1_555 1_555
N6D N6 1_555 1_555
O1D N1D 1_555 1_555
O2D C3D 1_555 1_555
O3D N5D 1_555 1_555
O4D N5D 1_555 1_555
N2 O1 1_555 1_555
C3D N6D 1_555 1_555
N2D O1D 1_555 1_555

#END
