
#######################################################################
#
#                 Cambridge Crystallographic Data Centre
#                                CCDC 
#
#######################################################################
#
# If this CIF has been generated from an entry in the Cambridge 
# Structural Database, then it will include bibliographic, chemical, 
# crystal, experimental, refinement or atomic coordinate data resulting 
# from the CCDC's data processing and validation procedures.
#
#######################################################################

data_MIDZEE
_chemical_compound_source        'whole herb of Mosla soochouensis'
_chemical_name_common            Mosloflavanone
_chemical_formula_moiety         'C17 H16 O6'
_chemical_name_systematic        2,5-Dihydroxy-6,7-dimethoxyflavanone
_chemical_properties_biological  'antifungal and antioxidant'
_symmetry_cell_setting           monoclinic
_symmetry_space_group_name_H-M   'P 21/a'
_symmetry_Int_Tables_number      14
_space_group_name_Hall           '-P 2yab'
loop_
_symmetry_equiv_pos_site_id
_symmetry_equiv_pos_as_xyz
1 x,y,z
2 1/2+x,1/2-y,z
3 -x,-y,-z
4 1/2-x,1/2+y,-z
_cell_length_a                   9.8454(9)
_cell_length_b                   15.599(2)
_cell_length_c                   10.2790(11)
_cell_angle_alpha                90
_cell_angle_beta                 96.961(9)
_cell_angle_gamma                90
_cell_volume                     1567
_exptl_crystal_colour            yellow
_exptl_crystal_description       block
_chemical_melting_point          89.5-93.5deg.C
_cell_formula_units_Z            4
_exptl_crystal_recrystallization_method 'n-hexane/ethyl acetate'
loop_
_atom_site_label
_atom_site_type_symbol
_atom_site_fract_x
_atom_site_fract_y
_atom_site_fract_z
O1 O -0.00128(12) 0.32030(8) 0.86655(12)
O2 O 0.13448(15) 0.20068(10) 0.91164(14)
H1 H 0.059(3) 0.1713(15) 0.916(2)
O3 O 0.39814(14) 0.38400(10) 0.98344(15)
O4 O 0.32102(16) 0.46059(10) 1.18859(15)
H2 H 0.376(3) 0.4401(18) 1.131(3)
O5 O 0.10920(16) 0.50520(10) 1.32509(14)
O6 O -0.14572(15) 0.45580(10) 1.23869(14)
C1 C 0.10468(19) 0.26770(13) 0.82233(19)
C2 C 0.23432(19) 0.31999(14) 0.8219(2)
H3 H 0.3079 0.2825 0.8027
H4 H 0.2204 0.3625 0.7526
C3 C 0.2759(2) 0.36450(13) 0.9496(2)
C4 C 0.16799(19) 0.38678(12) 1.02561(18)
C5 C 0.1926(2) 0.43428(13) 1.14353(19)
C6 C 0.0867(2) 0.45591(13) 1.21346(18)
C7 C -0.0465(2) 0.43128(13) 1.16520(19)
C8 C -0.0738(2) 0.38502(13) 1.04976(18)
H5 H -0.1629 0.3688 1.0192
C9 C 0.03243(19) 0.36359(12) 0.98146(17)
C10 C -0.28267(18) 0.42850(15) 1.19739(18)
H6 H -0.3427 0.4514 1.2557
H7 H -0.2868 0.3670 1.1987
H8 H -0.3106 0.4487 1.1100
C11 C 0.1571(2) 0.45989(15) 1.43979(18)
H9 H 0.1553 0.4967 1.5145
H10 H 0.2492 0.4411 1.4350
H11 H 0.0995 0.4110 1.4483
C12 C 0.04985(19) 0.23721(13) 0.68635(19)
C13 C -0.0340(2) 0.28875(15) 0.6032(2)
H12 H -0.0610 0.3419 0.6321
C14 C -0.0785(3) 0.26224(19) 0.4771(2)
H13 H -0.1357 0.2975 0.4217
C15 C -0.0390(3) 0.1847(2) 0.4332(3)
H14 H -0.0675 0.1674 0.3477
C16 C 0.0425(3) 0.13282(19) 0.5157(3)
H15 H 0.0677 0.0793 0.4866
C17 C 0.0883(2) 0.15857(16) 0.6422(2)
H16 H 0.1449 0.1229 0.6973
loop_
_geom_bond_atom_site_label_1
_geom_bond_atom_site_label_2
_geom_bond_site_symmetry_1
_geom_bond_site_symmetry_2
O1 C1 1_555 1_555
O2 H1 1_555 1_555
O3 C3 1_555 1_555
O4 H2 1_555 1_555
O5 C6 1_555 1_555
O6 C7 1_555 1_555
C1 O2 1_555 1_555
C2 C1 1_555 1_555
H3 C2 1_555 1_555
H4 C2 1_555 1_555
C3 C2 1_555 1_555
C4 C3 1_555 1_555
C5 O4 1_555 1_555
C6 C5 1_555 1_555
C7 C6 1_555 1_555
C8 C7 1_555 1_555
H5 C8 1_555 1_555
C9 O1 1_555 1_555
C10 O6 1_555 1_555
H6 C10 1_555 1_555
H7 C10 1_555 1_555
H8 C10 1_555 1_555
C11 O5 1_555 1_555
H9 C11 1_555 1_555
H10 C11 1_555 1_555
H11 C11 1_555 1_555
C12 C1 1_555 1_555
C13 C12 1_555 1_555
H12 C13 1_555 1_555
C14 C13 1_555 1_555
H13 C14 1_555 1_555
C15 C14 1_555 1_555
H14 C15 1_555 1_555
C16 C15 1_555 1_555
H15 C16 1_555 1_555
C17 C12 1_555 1_555
H16 C17 1_555 1_555
C4 C5 1_555 1_555
C4 C9 1_555 1_555
C8 C9 1_555 1_555
C16 C17 1_555 1_555

#END
