
#######################################################################
#
#                 Cambridge Crystallographic Data Centre
#                                CCDC 
#
#######################################################################
#
# If this CIF has been generated from an entry in the Cambridge 
# Structural Database, then it will include bibliographic, chemical, 
# crystal, experimental, refinement or atomic coordinate data resulting 
# from the CCDC's data processing and validation procedures.
#
#######################################################################

data_MIFCOW
_chemical_formula_moiety         'C18 H20 F2 N5 O3 S2 1+,Cl1 1-'
_chemical_name_systematic        
'8a-(4-{[5-(difluoromethoxy)pyridine-2-carbonyl]amino}-1,3-thiazol-2-yl)-6-methylhexahydropyrano[3,4-d][1,3]thiazin-2(1H)-iminium chloride'
_symmetry_cell_setting           orthorhombic
_symmetry_space_group_name_H-M   'P 21 21 21'
_symmetry_Int_Tables_number      19
_space_group_name_Hall           'P 2ac 2ab'
loop_
_symmetry_equiv_pos_site_id
_symmetry_equiv_pos_as_xyz
1 x,y,z
2 1/2-x,-y,1/2+z
3 -x,1/2+y,1/2-z
4 1/2+x,1/2-y,-z
_cell_length_a                   9.892(2)
_cell_length_b                   12.732(3)
_cell_length_c                   17.334(4)
_cell_angle_alpha                90
_cell_angle_beta                 90
_cell_angle_gamma                90
_cell_volume                     2183.13
_exptl_crystal_colour            colorless
_exptl_crystal_description       prism
_cell_formula_units_Z            4
loop_
_atom_site_label
_atom_site_type_symbol
_atom_site_fract_x
_atom_site_fract_y
_atom_site_fract_z
C1 C 0.3315(4) -0.1088(4) 0.2294(2)
H1 H 0.2747 -0.0669 0.2630
H2 H 0.2774 -0.1665 0.2098
C2 C 0.5226(4) -0.0682(4) 0.3065(2)
H3 H 0.4649 -0.0238 0.3389
C3 C 0.5836(4) -0.0017(3) 0.2431(2)
H4 H 0.6453 -0.0445 0.2130
H5 H 0.6354 0.0549 0.2662
C4 C 0.4761(4) 0.0451(3) 0.1894(2)
H6 H 0.4225 0.0942 0.2204
C5 C 0.3793(4) -0.0405(3) 0.16109(19)
C6 C 0.5461(4) -0.0900(3) 0.05904(19)
C7 C 0.5337(4) 0.1072(3) 0.1228(2)
H7 H 0.5910 0.1626 0.1431
H8 H 0.4600 0.1403 0.0950
C8 C 0.2521(4) 0.0082(3) 0.1266(2)
C9 C 0.0914(4) 0.1232(3) 0.1073(2)
C10 C 0.0360(4) 0.0432(3) 0.0685(2)
H9 H -0.0464 0.0460 0.0427
C11 C -0.0676(4) 0.2700(3) 0.0905(2)
C12 C -0.0809(4) 0.3844(3) 0.1114(2)
N1 N 0.0157(4) 0.4224(3) 0.1589(3)
C13 C 0.0094(6) 0.5231(5) 0.1783(4)
H10 H 0.0760 0.5503 0.2105
C14 C -0.0906(5) 0.5884(4) 0.1531(3)
C15 C -0.1897(5) 0.5492(4) 0.1053(2)
H11 H -0.2592 0.5921 0.0874
C16 C -0.1642(6) 0.7638(4) 0.1494(3)
H12 H -0.1591 0.7624 0.0929
C17 C 0.6262(5) -0.1209(4) 0.3563(2)
H13 H 0.5822 -0.1545 0.3990
H14 H 0.6889 -0.0695 0.3752
H15 H 0.6740 -0.1725 0.3265
N2 N 0.4434(3) -0.1105(2) 0.10497(17)
H16 H 0.395(4) -0.186(3) 0.101(2)
N3 N 0.2159(4) 0.1035(3) 0.1401(2)
N4 N 0.0450(5) 0.2263(3) 0.1176(3)
C18 C -0.1831(4) 0.4446(4) 0.0845(2)
H17 H -0.2486 0.4157 0.0524
N5 N 0.5890(4) -0.1650(4) 0.0129(2)
H18 H 0.550(5) -0.235(4) 0.018(3)
H19 H 0.647(5) -0.155(4) -0.011(3)
O1 O 0.4414(3) -0.1499(2) 0.27267(15)
O2 O -0.1508(4) 0.2234(3) 0.0524(2)
O3 O -0.0830(4) 0.6905(3) 0.1805(2)
S1 S 0.63203(11) 0.02816(9) 0.05538(6)
S2 S 0.13768(11) -0.06414(8) 0.07327(6)
F1 F -0.1262(4) 0.8554(2) 0.1764(2)
F2 F -0.2933(4) 0.7481(3) 0.1739(2)
H20 H 0.097(8) 0.265(6) 0.149(4)
Cl1 Cl 0.38051(12) 0.65536(8) 0.06199(6)
loop_
_geom_bond_atom_site_label_1
_geom_bond_atom_site_label_2
_geom_bond_site_symmetry_1
_geom_bond_site_symmetry_2
C1 H1 1_555 1_555
H2 C1 1_555 1_555
C2 H3 1_555 1_555
C3 C2 1_555 1_555
H4 C3 1_555 1_555
H5 C3 1_555 1_555
C4 C3 1_555 1_555
H6 C4 1_555 1_555
C5 C1 1_555 1_555
C6 N2 1_555 1_555
C7 C4 1_555 1_555
H7 C7 1_555 1_555
H8 C7 1_555 1_555
C8 C5 1_555 1_555
C9 C10 1_555 1_555
C10 H9 1_555 1_555
C11 C12 1_555 1_555
C12 N1 1_555 1_555
N1 C13 1_555 1_555
C13 H10 1_555 1_555
C14 C13 1_555 1_555
C15 C14 1_555 1_555
H11 C15 1_555 1_555
C16 H12 1_555 1_555
C17 C2 1_555 1_555
H13 C17 1_555 1_555
H14 C17 1_555 1_555
H15 C17 1_555 1_555
N2 C5 1_555 1_555
H16 N2 1_555 1_555
N3 C8 1_555 1_555
N4 C9 1_555 1_555
C18 C12 1_555 1_555
H17 C18 1_555 1_555
N5 C6 1_555 1_555
H18 N5 1_555 1_555
H19 N5 1_555 1_555
O1 C1 1_555 1_555
O2 C11 1_555 1_555
O3 C14 1_555 1_555
S1 C6 1_555 1_555
S2 C8 1_555 1_555
F1 C16 1_555 1_555
F2 C16 1_555 1_555
H20 N4 1_555 1_555
C2 O1 1_555 1_555
C4 C5 1_555 1_555
C7 S1 1_555 1_555
C9 N3 1_555 1_555
C10 S2 1_555 1_555
C11 N4 1_555 1_555
C15 C18 1_555 1_555
C16 O3 1_555 1_555

#END
