
#######################################################################
#
#                 Cambridge Crystallographic Data Centre
#                                CCDC 
#
#######################################################################
#
# If this CIF has been generated from an entry in the Cambridge 
# Structural Database, then it will include bibliographic, chemical, 
# crystal, experimental, refinement or atomic coordinate data resulting 
# from the CCDC's data processing and validation procedures.
#
#######################################################################

data_MIFWUT
_chemical_name_common            
'2,4-Diamino-5-(3,4,5-trimethoxybenzyl)pyrimidine salicylate methanol solvate'
_chemical_formula_moiety         'C14 H19 N4 O3 1+,C7 H5 O3 1-,C1 H4 O1'
_chemical_name_systematic        'Trimethoprim salicylate methanol solvate'
_chemical_properties_biological  'trimethoprim is an antifolate drug'
_symmetry_cell_setting           triclinic
_symmetry_space_group_name_H-M   'P -1'
_symmetry_Int_Tables_number      2
_space_group_name_Hall           '-P 1'
loop_
_symmetry_equiv_pos_site_id
_symmetry_equiv_pos_as_xyz
1 x,y,z
2 -x,-y,-z
_cell_length_a                   10.0139(19)
_cell_length_b                   10.2600(19)
_cell_length_c                   11.984(9)
_cell_angle_alpha                105.93(3)
_cell_angle_beta                 109.17(5)
_cell_angle_gamma                92.50(2)
_cell_volume                     1106.14
_exptl_crystal_colour            colorless
_exptl_crystal_description       needle
_cell_formula_units_Z            2
loop_
_atom_site_label
_atom_site_type_symbol
_atom_site_fract_x
_atom_site_fract_y
_atom_site_fract_z
O1 O 0.4218(2) 0.6256(3) 0.5894(2)
O2 O 0.4464(2) 0.4437(3) 0.7128(2)
O3 O 0.2303(3) 0.2147(3) 0.6258(2)
N1 N -0.3240(2) 0.0649(2) 0.15946(19)
N2 N -0.3404(3) -0.1479(3) 0.0256(2)
N3 N -0.1505(2) 0.0151(2) 0.06668(18)
N4 N 0.0411(2) 0.1747(2) 0.1141(2)
C1 C -0.2701(3) -0.0213(3) 0.0832(2)
C2 C -0.0788(2) 0.1423(2) 0.1319(2)
C3 C -0.1277(2) 0.2390(2) 0.2156(2)
C4 C -0.2533(3) 0.1938(3) 0.2231(2)
C5 C -0.0483(3) 0.3805(3) 0.2867(2)
C6 C 0.0865(2) 0.3906(2) 0.3947(2)
C7 C 0.1938(3) 0.5017(3) 0.4352(3)
C8 C 0.3136(3) 0.5178(3) 0.5397(3)
C9 C 0.3263(3) 0.4244(3) 0.6069(3)
C10 C 0.2229(3) 0.3113(3) 0.5624(2)
C11 C 0.1023(3) 0.2964(3) 0.4589(2)
C12 C 0.4159(6) 0.7222(5) 0.5235(5)
C13 C 0.4187(4) 0.4731(4) 0.8263(3)
C14 C 0.3194(7) 0.1231(5) 0.6157(5)
H1 H -0.423(6) 0.052(5) 0.168(5)
H2 H -0.319(4) -0.208(4) -0.022(4)
H3 H -0.439(4) -0.180(3) 0.037(3)
H4 H 0.06893 0.11571 0.06313
H5 H 0.09080 0.25451 0.15345
H6 H -0.303(3) 0.242(3) 0.268(2)
H7 H -0.031(3) 0.416(3) 0.231(3)
H8 H -0.102(4) 0.437(3) 0.318(3)
H9 H 0.189(4) 0.555(3) 0.388(3)
H10 H 0.035(3) 0.220(3) 0.437(2)
H11 H 0.418(5) 0.689(4) 0.441(5)
H12 H 0.339(4) 0.779(4) 0.514(3)
H13 H 0.488(6) 0.806(5) 0.559(5)
H14 H 0.36391 0.39416 0.82663
H15 H 0.50759 0.49596 0.89510
H16 H 0.36586 0.54900 0.83323
H17 H 0.41624 0.16863 0.65622
H18 H 0.30362 0.05605 0.65405
H19 H 0.30240 0.07871 0.52958
O4 O 0.4364(2) 1.0021(2) 0.2017(2)
O5 O 0.4079(2) 0.7936(2) 0.07043(18)
O6 O 0.2159(3) 0.6108(2) 0.0426(2)
C15 C 0.2460(3) 0.8390(3) 0.1789(2)
C16 C 0.1747(3) 0.7053(3) 0.1228(3)
C17 C 0.0546(3) 0.6663(4) 0.1490(3)
C18 C 0.0094(4) 0.7599(4) 0.2305(4)
C19 C 0.0815(5) 0.8911(5) 0.2853(5)
C20 C 0.1987(3) 0.9316(3) 0.2603(3)
C21 C 0.3731(3) 0.8833(3) 0.1496(2)
H20 H 0.022(4) 0.565(4) 0.108(3)
H21 H -0.084(4) 0.750(3) 0.250(3)
H22 H 0.058(5) 0.940(5) 0.330(5)
H23 H 0.249(4) 1.021(3) 0.295(3)
H24 H 0.300(5) 0.666(4) 0.032(4)
O7 O 0.2737(3) 0.3882(3) 0.1610(3)
C22 C 0.3360(10) 0.2692(11) 0.2206(9)
loop_
_geom_bond_atom_site_label_1
_geom_bond_atom_site_label_2
_geom_bond_site_symmetry_1
_geom_bond_site_symmetry_2
O1 C8 1_555 1_555
O2 C9 1_555 1_555
O3 C10 1_555 1_555
N1 C1 1_555 1_555
N2 C1 1_555 1_555
N3 C1 1_555 1_555
N4 C2 1_555 1_555
C2 N3 1_555 1_555
C3 C2 1_555 1_555
C4 N1 1_555 1_555
C5 C3 1_555 1_555
C6 C5 1_555 1_555
C7 C6 1_555 1_555
C8 C7 1_555 1_555
C9 C8 1_555 1_555
C10 C9 1_555 1_555
C11 C6 1_555 1_555
C12 O1 1_555 1_555
C13 O2 1_555 1_555
C14 O3 1_555 1_555
H1 N1 1_555 1_555
H2 N2 1_555 1_555
H3 N2 1_555 1_555
H4 N4 1_555 1_555
H5 N4 1_555 1_555
H6 C4 1_555 1_555
H7 C5 1_555 1_555
H8 C5 1_555 1_555
H9 C7 1_555 1_555
H10 C11 1_555 1_555
H11 C12 1_555 1_555
H12 C12 1_555 1_555
H13 C12 1_555 1_555
H14 C13 1_555 1_555
H15 C13 1_555 1_555
H16 C13 1_555 1_555
H17 C14 1_555 1_555
H18 C14 1_555 1_555
H19 C14 1_555 1_555
O4 C21 1_555 1_555
O5 C21 1_555 1_555
O6 C16 1_555 1_555
C15 C16 1_555 1_555
C16 C17 1_555 1_555
C17 C18 1_555 1_555
C18 C19 1_555 1_555
C19 C20 1_555 1_555
C20 C15 1_555 1_555
C21 C15 1_555 1_555
H20 C17 1_555 1_555
H21 C18 1_555 1_555
H22 C19 1_555 1_555
H23 C20 1_555 1_555
H24 O6 1_555 1_555
O7 C22 1_555 1_555
C3 C4 1_555 1_555
C10 C11 1_555 1_555

#END
