
#######################################################################
#
#                 Cambridge Crystallographic Data Centre
#                                CCDC 
#
#######################################################################
#
# If this CIF has been generated from an entry in the Cambridge 
# Structural Database, then it will include bibliographic, chemical, 
# crystal, experimental, refinement or atomic coordinate data resulting 
# from the CCDC's data processing and validation procedures.
#
#######################################################################

data_MIGBIQ
_chemical_formula_moiety         'C24 H10 F8 N4,0.5(C3 H7 N1 O1)'
_chemical_name_systematic        
"4,4'-(1^2^,1^3^,1^5^,1^6^,3^2^,3^3^,3^5^,3^6^-octafluoro[1^1^,2^1^:2^3^,3^1^-terphenyl]-1^4^,3^4^-diyl)bis(1H-pyrazole) N,N-dimethylformamide solvate"
_symmetry_cell_setting           orthorhombic
_symmetry_space_group_name_H-M   'I b a m'
_symmetry_Int_Tables_number      72
_space_group_name_Hall           '-I 2 2c'
loop_
_symmetry_equiv_pos_site_id
_symmetry_equiv_pos_as_xyz
1 x,y,z
2 -x,-y,z
3 1/2-x,1/2+y,-z
4 1/2+x,1/2-y,-z
5 1/2+x,1/2+y,1/2+z
6 1/2-x,1/2-y,1/2+z
7 -x,y,1/2-z
8 x,-y,1/2-z
9 -x,-y,-z
10 x,y,-z
11 1/2+x,1/2-y,z
12 1/2-x,1/2+y,z
13 1/2-x,1/2-y,1/2-z
14 1/2+x,1/2+y,1/2-z
15 x,-y,1/2+z
16 -x,y,1/2+z
_cell_length_a                   7.58440(10)
_cell_length_b                   15.3613(3)
_cell_length_c                   37.0130(6)
_cell_angle_alpha                90
_cell_angle_beta                 90
_cell_angle_gamma                90
_cell_volume                     4312.25
_exptl_crystal_colour            colorless
_exptl_crystal_description       'flat column'
_cell_formula_units_Z            8
loop_
_atom_site_label
_atom_site_type_symbol
_atom_site_fract_x
_atom_site_fract_y
_atom_site_fract_z
F1 F 0.3702(2) 0.93045(10) 0.59183(4)
F2 F 0.2416(2) 0.86001(10) 0.65075(4)
F3 F 0.4031(2) 0.58080(10) 0.60775(4)
F4 F 0.5334(2) 0.65182(10) 0.54890(4)
N1 N 0.0892(4) 0.65702(17) 0.71581(7)
N2 N 0.0889(4) 0.58026(18) 0.69830(7)
C1 C 0.6881(5) 0.9398(3) 0.5000
H1 H 0.7658 0.9884 0.5000
C2 C 0.6319(4) 0.90480(17) 0.53250(7)
H2 H 0.6708 0.9293 0.5547
C3 C 0.5184(4) 0.83347(17) 0.53262(7)
C4 C 0.4618(5) 0.7981(2) 0.5000
H3 H 0.3842 0.7495 0.5000
C5 C 0.4545(4) 0.79463(18) 0.56712(7)
C6 C 0.3822(4) 0.84326(17) 0.59504(7)
C7 C 0.3144(4) 0.80626(18) 0.62601(7)
C8 C 0.3130(4) 0.71636(17) 0.63187(7)
C9 C 0.3914(4) 0.66797(17) 0.60446(7)
C10 C 0.4593(4) 0.70509(17) 0.57342(7)
C11 C 0.2278(4) 0.67649(19) 0.66328(7)
C12 C 0.1703(4) 0.7157(2) 0.69533(8)
H4 H 0.1867 0.7752 0.7015
C13 C 0.1718(5) 0.5900(2) 0.66683(8)
H5 H 0.1901 0.5453 0.6495
F1I F 0.3702(2) 0.93045(10) 0.40817(4)
F2I F 0.2416(2) 0.86001(10) 0.34925(4)
F3I F 0.4031(2) 0.58080(10) 0.39225(4)
F4I F 0.5334(2) 0.65182(10) 0.45110(4)
N1I N 0.0892(4) 0.65702(17) 0.28419(7)
N2I N 0.0889(4) 0.58026(18) 0.30170(7)
C2I C 0.6319(4) 0.90480(17) 0.46750(7)
H2I H 0.6708 0.9293 0.4453
C3I C 0.5184(4) 0.83347(17) 0.46738(7)
C5I C 0.4545(4) 0.79463(18) 0.43288(7)
C6I C 0.3822(4) 0.84326(17) 0.40496(7)
C7I C 0.3144(4) 0.80626(18) 0.37399(7)
C8I C 0.3130(4) 0.71636(17) 0.36813(7)
C9I C 0.3914(4) 0.66797(17) 0.39554(7)
C10I C 0.4593(4) 0.70509(17) 0.42658(7)
C11I C 0.2278(4) 0.67649(19) 0.33672(7)
C12I C 0.1703(4) 0.7157(2) 0.30467(8)
H4I H 0.1867 0.7752 0.2985
C13I C 0.1718(5) 0.5900(2) 0.33317(8)
H5I H 0.1901 0.5453 0.3505
H6? H 0.0418 0.5316 0.7063
O1? O 0.477(9) 0.6506(7) 0.7459(11)
N3? N 0.51(3) 0.506(2) 0.7519(18)
C14? C 0.496(2) 0.5851(11) 0.7652(5)
H7? H 0.5028 0.5925 0.7906
C15? C 0.455(3) 0.4842(14) 0.7154(4)
H8? H 0.4402 0.5375 0.7012
H9? H 0.3425 0.4525 0.7162
H10? H 0.5451 0.4474 0.7043
C16? C 0.564(3) 0.4335(14) 0.7759(6)
H11? H 0.6760 0.4097 0.7673
H12? H 0.4737 0.3877 0.7755
H13? H 0.5780 0.4551 0.8006
H14? H 0.0433 0.6667 0.7373
loop_
_geom_bond_atom_site_label_1
_geom_bond_atom_site_label_2
_geom_bond_site_symmetry_1
_geom_bond_site_symmetry_2
F1 C6 1_555 1_555
F2 C7 1_555 1_555
F3 C9 1_555 1_555
F4 C10 1_555 1_555
N1 N2 1_555 1_555
N2 C13 1_555 1_555
C1 H1 1_555 1_555
C2 C1 1_555 1_555
H2 C2 1_555 1_555
C3 C2 1_555 1_555
C4 C3 1_555 1_555
H3 C4 1_555 1_555
C5 C3 1_555 1_555
C6 C5 1_555 1_555
C7 C6 1_555 1_555
C8 C7 1_555 1_555
C9 C8 1_555 1_555
C10 C5 1_555 1_555
C11 C8 1_555 1_555
C12 N1 1_555 1_555
H4 C12 1_555 1_555
C13 C11 1_555 1_555
H5 C13 1_555 1_555
F1I C6I 1_555 1_555
F2I C7I 1_555 1_555
F3I C9I 1_555 1_555
F4I C10I 1_555 1_555
N1I N2I 1_555 1_555
N2I C13I 1_555 1_555
C2I C1 1_555 1_555
H2I C2I 1_555 1_555
C3I C4 1_555 1_555
C5I C3I 1_555 1_555
C6I C5I 1_555 1_555
C7I C6I 1_555 1_555
C8I C7I 1_555 1_555
C9I C8I 1_555 1_555
C10I C5I 1_555 1_555
C11I C8I 1_555 1_555
C12I N1I 1_555 1_555
H4I C12I 1_555 1_555
C13I C11I 1_555 1_555
H5I C13I 1_555 1_555
C9 C10 1_555 1_555
C11 C12 1_555 1_555
C2I C3I 1_555 1_555
C9I C10I 1_555 1_555
C11I C12I 1_555 1_555

#END
