
#######################################################################
#
#                 Cambridge Crystallographic Data Centre
#                                CCDC 
#
#######################################################################
#
# If this CIF has been generated from an entry in the Cambridge 
# Structural Database, then it will include bibliographic, chemical, 
# crystal, experimental, refinement or atomic coordinate data resulting 
# from the CCDC's data processing and validation procedures.
#
#######################################################################

data_MIGCAJ
_chemical_formula_moiety         'C18 H6 F8 N4'
_chemical_name_systematic        
4,4'-(2,2',3,3',5,5',6,6'-octafluoro[1,1'-biphenyl]-4,4'-diyl)bis(1H-pyrazole)
_symmetry_cell_setting           monoclinic
_symmetry_space_group_name_H-M   'P 21/c'
_symmetry_Int_Tables_number      14
_space_group_name_Hall           '-P 2ybc'
loop_
_symmetry_equiv_pos_site_id
_symmetry_equiv_pos_as_xyz
1 x,y,z
2 -x,1/2+y,1/2-z
3 -x,-y,-z
4 x,1/2-y,1/2+z
_cell_length_a                   16.3930(5)
_cell_length_b                   14.5350(5)
_cell_length_c                   6.4865(2)
_cell_angle_alpha                90
_cell_angle_beta                 94.108(2)
_cell_angle_gamma                90
_cell_volume                     1541.58
_exptl_crystal_colour            colorless
_exptl_crystal_description       column
_cell_formula_units_Z            4
loop_
_atom_site_label
_atom_site_type_symbol
_atom_site_fract_x
_atom_site_fract_y
_atom_site_fract_z
F1 F 0.42094(5) 0.45729(7) 0.83164(15)
F2 F 0.26421(5) 0.46006(6) 0.71100(15)
F3 F 0.32220(5) 0.32456(7) 0.07641(14)
F4 F 0.47818(5) 0.32080(7) 0.19441(15)
F5 F 0.16831(5) 0.53959(6) 0.37607(16)
F6 F 0.01088(5) 0.51711(6) 0.27401(16)
F7 F 0.05587(5) 0.19726(6) 0.19270(14)
F8 F 0.21211(5) 0.22216(6) 0.27826(14)
N1 N 0.66057(8) 0.37963(10) 0.7857(2)
H1 H 0.7013(12) 0.3884(13) 0.893(3)
N2 N 0.67820(8) 0.33842(10) 0.6080(2)
N3 N -0.18143(8) 0.27452(10) 0.1055(2)
H2 H -0.2242(12) 0.2337(14) 0.095(3)
N4 N -0.19671(8) 0.36528(10) 0.0772(2)
C1 C 0.45749(9) 0.38551(10) 0.5229(2)
C2 C 0.39823(9) 0.42259(11) 0.6430(2)
C3 C 0.31606(9) 0.42549(10) 0.5800(3)
C4 C 0.28597(9) 0.39097(10) 0.3898(2)
C5 C 0.34492(9) 0.35709(11) 0.2652(2)
C6 C 0.42678(9) 0.35489(11) 0.3293(3)
C7 C 0.54411(9) 0.37755(10) 0.5955(3)
C8 C 0.58159(9) 0.40355(11) 0.7849(3)
H3 H 0.5560 0.4329 0.8941
C9 C 0.60821(9) 0.33709(11) 0.4917(3)
H4 H 0.6019 0.3122 0.3562
C10 C 0.19746(9) 0.38217(11) 0.3294(2)
C11 C 0.14185(9) 0.45448(11) 0.3278(3)
C12 C 0.05933(9) 0.44195(11) 0.2747(2)
C13 C 0.02503(9) 0.35633(11) 0.2246(2)
C14 C 0.08152(9) 0.28436(10) 0.2302(2)
C15 C 0.16375(9) 0.29689(11) 0.2772(2)
C16 C -0.06238(9) 0.34127(11) 0.1723(2)
C17 C -0.10307(9) 0.25715(12) 0.1616(2)
H5 H -0.0794 0.1983 0.1891
C18 C -0.12470(9) 0.40603(12) 0.1184(3)
H6 H -0.1162 0.4706 0.1124
loop_
_geom_bond_atom_site_label_1
_geom_bond_atom_site_label_2
_geom_bond_site_symmetry_1
_geom_bond_site_symmetry_2
F1 C2 1_555 1_555
F2 C3 1_555 1_555
F3 C5 1_555 1_555
F4 C6 1_555 1_555
F5 C11 1_555 1_555
F6 C12 1_555 1_555
F7 C14 1_555 1_555
F8 C15 1_555 1_555
N1 H1 1_555 1_555
N2 N1 1_555 1_555
N3 H2 1_555 1_555
N4 N3 1_555 1_555
C1 C2 1_555 1_555
C2 C3 1_555 1_555
C3 C4 1_555 1_555
C4 C5 1_555 1_555
C5 C6 1_555 1_555
C6 C1 1_555 1_555
C7 C1 1_555 1_555
C8 N1 1_555 1_555
H3 C8 1_555 1_555
C9 N2 1_555 1_555
H4 C9 1_555 1_555
C10 C4 1_555 1_555
C11 C10 1_555 1_555
C12 C11 1_555 1_555
C13 C12 1_555 1_555
C14 C13 1_555 1_555
C15 C10 1_555 1_555
C16 C13 1_555 1_555
C17 N3 1_555 1_555
H5 C17 1_555 1_555
C18 N4 1_555 1_555
H6 C18 1_555 1_555
C7 C8 1_555 1_555
C7 C9 1_555 1_555
C14 C15 1_555 1_555
C16 C17 1_555 1_555
C16 C18 1_555 1_555

#END
