
#######################################################################
#
#                 Cambridge Crystallographic Data Centre
#                                CCDC 
#
#######################################################################
#
# If this CIF has been generated from an entry in the Cambridge 
# Structural Database, then it will include bibliographic, chemical, 
# crystal, experimental, refinement or atomic coordinate data resulting 
# from the CCDC's data processing and validation procedures.
#
#######################################################################

data_MIGJOE
_chemical_formula_moiety         'C42 H18 F12'
_chemical_name_systematic        
1,3,5-tris(2,3,5,6-tetrafluoro[1,1'-biphenyl]-4-yl)benzene
_symmetry_cell_setting           orthorhombic
_symmetry_space_group_name_H-M   'P b c n'
_symmetry_Int_Tables_number      60
_space_group_name_Hall           '-P 2n 2ab'
loop_
_symmetry_equiv_pos_site_id
_symmetry_equiv_pos_as_xyz
1 x,y,z
2 1/2-x,1/2-y,1/2+z
3 1/2+x,1/2-y,-z
4 -x,y,1/2-z
5 -x,-y,-z
6 1/2+x,1/2+y,1/2-z
7 1/2-x,1/2+y,z
8 x,-y,1/2+z
_cell_length_a                   13.1526(2)
_cell_length_b                   19.5199(3)
_cell_length_c                   12.3721(2)
_cell_angle_alpha                90
_cell_angle_beta                 90
_cell_angle_gamma                90
_cell_volume                     3176.38
_exptl_crystal_colour            colorless
_exptl_crystal_description       'prismatic block'
_cell_formula_units_Z            4
loop_
_atom_site_label
_atom_site_type_symbol
_atom_site_fract_x
_atom_site_fract_y
_atom_site_fract_z
F1 F 0.41930(7) 0.41662(4) 0.42102(6)
F2 F 0.41936(7) 0.55159(4) 0.42054(7)
F3 F 0.43501(7) 0.11240(5) 0.43463(7)
F4 F 0.50644(7) 0.04124(4) 0.59925(7)
F5 F 0.78711(7) 0.19240(5) 0.62208(7)
F6 F 0.71925(7) 0.26021(5) 0.45422(8)
C1 C 0.5000 0.19145(10) 0.2500
H1 H 0.5000 0.1428 0.2500
C2 C 0.53595(11) 0.22692(7) 0.34006(11)
C3 C 0.53507(10) 0.29831(7) 0.33993(11)
H2 H 0.5585 0.3226 0.4016
C4 C 0.5000 0.33437(10) 0.2500
C5 C 0.5000 0.41037(10) 0.2500
C6 C 0.46129(11) 0.44862(8) 0.33535(11)
C7 C 0.46143(11) 0.51903(7) 0.33534(11)
C8 C 0.5000 0.55714(10) 0.2500
C9 C 0.5000 0.63327(10) 0.2500
C10 C 0.54563(12) 0.66920(8) 0.33450(13)
H3 H 0.5765 0.6450 0.3925
C11 C 0.54594(13) 0.74016(8) 0.33381(14)
H4 H 0.5777 0.7646 0.3910
C12 C 0.5000 0.77555(11) 0.2500
H5 H 0.5000 0.8242 0.2500
C13 C 0.57537(11) 0.18819(7) 0.43479(11)
C14 C 0.52523(11) 0.13115(7) 0.47644(12)
C15 C 0.56225(11) 0.09410(7) 0.56286(12)
C16 C 0.65213(11) 0.11180(7) 0.61586(11)
C17 C 0.70094(11) 0.16995(7) 0.57561(12)
C18 C 0.66445(11) 0.20597(7) 0.48841(12)
C19 C 0.69056(11) 0.07190(7) 0.70993(12)
C20 C 0.69430(12) 0.00072(8) 0.70515(13)
H6 H 0.6733 -0.0224 0.6413
C21 C 0.72854(13) -0.03651(8) 0.79321(14)
H7 H 0.7311 -0.0851 0.7897
C22 C 0.75908(13) -0.00290(9) 0.88659(13)
H8 H 0.7823 -0.0284 0.9471
C23 C 0.75560(13) 0.06785(9) 0.89136(13)
H9 H 0.7765 0.0908 0.9553
C24 C 0.72183(12) 0.10521(8) 0.80365(12)
H10 H 0.7199 0.1538 0.8073
F1C F 0.58070(7) 0.41662(4) 0.07898(6)
F2C F 0.58064(7) 0.55159(4) 0.07946(7)
F3C F 0.56499(7) 0.11240(5) 0.06537(7)
F4C F 0.49356(7) 0.04124(4) -0.09925(7)
F5C F 0.21289(7) 0.19240(5) -0.12208(7)
F6C F 0.28075(7) 0.26021(5) 0.04578(8)
C2C C 0.46405(11) 0.22692(7) 0.15994(11)
C3C C 0.46493(10) 0.29831(7) 0.16007(11)
H2C H 0.4415 0.3226 0.0984
C6C C 0.53871(11) 0.44862(8) 0.16465(11)
C7C C 0.53857(11) 0.51903(7) 0.16466(11)
C10C C 0.45437(12) 0.66920(8) 0.16550(13)
H3C H 0.4235 0.6450 0.1075
C11C C 0.45406(13) 0.74016(8) 0.16619(14)
H4C H 0.4223 0.7646 0.1090
C13C C 0.42463(11) 0.18819(7) 0.06521(11)
C14C C 0.47477(11) 0.13115(7) 0.02356(12)
C15C C 0.43775(11) 0.09410(7) -0.06286(12)
C16C C 0.34787(11) 0.11180(7) -0.11586(11)
C17C C 0.29906(11) 0.16995(7) -0.07561(12)
C18C C 0.33555(11) 0.20597(7) 0.01159(12)
C19C C 0.30944(11) 0.07190(7) -0.20993(12)
C20C C 0.30570(12) 0.00072(8) -0.20515(13)
H6C H 0.3267 -0.0224 -0.1413
C21C C 0.27146(13) -0.03651(8) -0.29321(14)
H7C H 0.2689 -0.0851 -0.2897
C22C C 0.24092(13) -0.00290(9) -0.38659(13)
H8C H 0.2177 -0.0284 -0.4471
C23C C 0.24440(13) 0.06785(9) -0.39136(13)
H9C H 0.2235 0.0908 -0.4553
C24C C 0.27817(12) 0.10521(8) -0.30365(12)
H10C H 0.2801 0.1538 -0.3073
loop_
_geom_bond_atom_site_label_1
_geom_bond_atom_site_label_2
_geom_bond_site_symmetry_1
_geom_bond_site_symmetry_2
F1 C6 1_555 1_555
F2 C7 1_555 1_555
F3 C14 1_555 1_555
F4 C15 1_555 1_555
F5 C17 1_555 1_555
F6 C18 1_555 1_555
C1 H1 1_555 1_555
C2 C1 1_555 1_555
C3 C2 1_555 1_555
H2 C3 1_555 1_555
C4 C3 1_555 1_555
C5 C4 1_555 1_555
C6 C5 1_555 1_555
C7 C6 1_555 1_555
C8 C7 1_555 1_555
C9 C8 1_555 1_555
C10 C9 1_555 1_555
H3 C10 1_555 1_555
C11 C10 1_555 1_555
H4 C11 1_555 1_555
C12 C11 1_555 1_555
H5 C12 1_555 1_555
C13 C2 1_555 1_555
C14 C13 1_555 1_555
C15 C14 1_555 1_555
C16 C15 1_555 1_555
C17 C16 1_555 1_555
C18 C13 1_555 1_555
C19 C16 1_555 1_555
C20 C19 1_555 1_555
H6 C20 1_555 1_555
C21 C20 1_555 1_555
H7 C21 1_555 1_555
C22 C21 1_555 1_555
H8 C22 1_555 1_555
C23 C22 1_555 1_555
H9 C23 1_555 1_555
C24 C19 1_555 1_555
H10 C24 1_555 1_555
F1C C6C 1_555 1_555
F2C C7C 1_555 1_555
F3C C14C 1_555 1_555
F4C C15C 1_555 1_555
F5C C17C 1_555 1_555
F6C C18C 1_555 1_555
C2C C1 1_555 1_555
C3C C4 1_555 1_555
H2C C3C 1_555 1_555
C6C C5 1_555 1_555
C7C C8 1_555 1_555
C10C C9 1_555 1_555
H3C C10C 1_555 1_555
C11C C12 1_555 1_555
H4C C11C 1_555 1_555
C13C C2C 1_555 1_555
C14C C13C 1_555 1_555
C15C C14C 1_555 1_555
C16C C15C 1_555 1_555
C17C C16C 1_555 1_555
C18C C13C 1_555 1_555
C19C C16C 1_555 1_555
C20C C19C 1_555 1_555
H6C C20C 1_555 1_555
C21C C20C 1_555 1_555
H7C C21C 1_555 1_555
C22C C21C 1_555 1_555
H8C C22C 1_555 1_555
C23C C22C 1_555 1_555
H9C C23C 1_555 1_555
C24C C19C 1_555 1_555
H10C C24C 1_555 1_555
C17 C18 1_555 1_555
C23 C24 1_555 1_555
C2C C3C 1_555 1_555
C6C C7C 1_555 1_555
C10C C11C 1_555 1_555
C17C C18C 1_555 1_555
C23C C24C 1_555 1_555

#END
