
#######################################################################
#
#                 Cambridge Crystallographic Data Centre
#                                CCDC 
#
#######################################################################
#
# If this CIF has been generated from an entry in the Cambridge 
# Structural Database, then it will include bibliographic, chemical, 
# crystal, experimental, refinement or atomic coordinate data resulting 
# from the CCDC's data processing and validation procedures.
#
#######################################################################

data_MIGUCD
_chemical_formula_moiety         'C6 H8 N5 O1 1+,Cl1 1-,2(H2 O1)'
_chemical_name_systematic        '9-Methylisoguanine hydrochloride dihydrate'
_symmetry_cell_setting           monoclinic
_symmetry_space_group_name_H-M   'P 21/c'
_symmetry_Int_Tables_number      14
_space_group_name_Hall           '-P 2ybc'
loop_
_symmetry_equiv_pos_site_id
_symmetry_equiv_pos_as_xyz
1 x,y,z
2 -x,1/2+y,1/2-z
3 -x,-y,-z
4 x,1/2-y,1/2+z
_cell_length_a                   5.189(3)
_cell_length_b                   24.869(8)
_cell_length_c                   8.218(4)
_cell_angle_alpha                90
_cell_angle_beta                 101.70(6)
_cell_angle_gamma                90
_cell_volume                     1038.46
_cell_formula_units_Z            4
loop_
_atom_site_label
_atom_site_type_symbol
_atom_site_fract_x
_atom_site_fract_y
_atom_site_fract_z
Cl1 Cl 0.19320 -0.19430 0.29480
N1 N 0.30650 0.01870 -0.33520
C1 C 0.13610 0.06180 -0.34990
O1 O -0.06900 0.06260 -0.45420
N2 N 0.20340 0.10320 -0.24070
C2 C 0.43200 0.09900 -0.12470
C3 C 0.60180 0.05630 -0.11300
C4 C 0.53970 0.01270 -0.22290
N3 N 0.68310 -0.03000 -0.22410
N4 N 0.81400 0.06420 0.02100
C5 C 0.76030 0.11050 0.08180
N5 N 0.52950 0.13380 -0.00040
C6 C 0.42600 0.18640 0.02940
H1 H 0.42960 0.20990 -0.08250
H2 H 0.52560 0.20310 0.11460
H3 H 0.22720 0.18260 0.01690
H4 H 0.24890 -0.00800 -0.40100
H5 H 0.85210 -0.03240 -0.13500
H6 H 0.63730 -0.05600 -0.27360
H7 H 0.88660 0.13330 0.19420
H8 H 0.06460 0.13330 -0.24520
O2 O 0.43930 0.12160 0.41310
O3 O 0.03360 0.19640 0.37460
loop_
_geom_bond_atom_site_label_1
_geom_bond_atom_site_label_2
_geom_bond_site_symmetry_1
_geom_bond_site_symmetry_2
N1 C1 1_555 1_555
C1 O1 1_555 1_555
N2 C1 1_555 1_555
C2 N2 1_555 1_555
C3 C2 1_555 1_555
C4 N1 1_555 1_555
N3 C4 1_555 1_555
N4 C3 1_555 1_555
C5 N4 1_555 1_555
N5 C2 1_555 1_555
C6 N5 1_555 1_555
H1 C6 1_555 1_555
H2 C6 1_555 1_555
H3 C6 1_555 1_555
H4 N1 1_555 1_555
H5 N3 1_555 1_555
H6 N3 1_555 1_555
H7 C5 1_555 1_555
H8 N2 1_555 1_555
C3 C4 1_555 1_555
C5 N5 1_555 1_555

#END
