
#######################################################################
#
#                 Cambridge Crystallographic Data Centre
#                                CCDC 
#
#######################################################################
#
# If this CIF has been generated from an entry in the Cambridge 
# Structural Database, then it will include bibliographic, chemical, 
# crystal, experimental, refinement or atomic coordinate data resulting 
# from the CCDC's data processing and validation procedures.
#
#######################################################################

data_MIGWIL
_chemical_formula_moiety         'C12 H22 N1 1+,I3 1-'
_chemical_name_systematic        'N,N-dimethyladamantan-1-aminium triiodide'
_symmetry_cell_setting           monoclinic
_symmetry_space_group_name_H-M   'P 21/n'
_symmetry_Int_Tables_number      14
_space_group_name_Hall           '-P 2yn'
loop_
_symmetry_equiv_pos_site_id
_symmetry_equiv_pos_as_xyz
1 x,y,z
2 1/2-x,1/2+y,1/2-z
3 -x,-y,-z
4 1/2+x,1/2-y,1/2+z
_cell_length_a                   16.3846(17)
_cell_length_b                   13.0755(16)
_cell_length_c                   16.860(2)
_cell_angle_alpha                90
_cell_angle_beta                 114.608(5)
_cell_angle_gamma                90
_cell_volume                     3283.98
_exptl_crystal_colour            colorless
_exptl_crystal_description       lamellar
_cell_formula_units_Z            8
loop_
_atom_site_label
_atom_site_type_symbol
_atom_site_fract_x
_atom_site_fract_y
_atom_site_fract_z
C1 C 0.1198(4) 0.7268(4) 0.1034(4)
C2 C 0.0846(4) 0.8232(4) 0.1309(4)
H1 H 0.1238 0.8807 0.1357
H2 H 0.0830 0.8126 0.1872
C3 C -0.0108(4) 0.8454(4) 0.0610(4)
H3 H -0.0344 0.9069 0.0773
C4 C -0.0722(4) 0.7545(4) 0.0542(4)
H4 H -0.0748 0.7435 0.1100
H5 H -0.1325 0.7692 0.0112
C5 C -0.0369(4) 0.6581(4) 0.0277(4)
H6 H -0.0763 0.6002 0.0242
C6 C -0.0347(4) 0.6748(4) -0.0614(4)
H7 H -0.0126 0.6138 -0.0788
H8 H -0.0947 0.6889 -0.1052
C7 C 0.0272(4) 0.7654(4) -0.0542(4)
H9 H 0.0293 0.7767 -0.1108
C8 C 0.1223(4) 0.7433(4) 0.0148(3)
H10 H 0.1460 0.6827 -0.0015
H11 H 0.1615 0.8004 0.0182
C9 C 0.0576(3) 0.6362(4) 0.0963(4)
H12 H 0.0807 0.5749 0.0804
H13 H 0.0558 0.6243 0.1524
C10 C -0.0077(4) 0.8623(4) -0.0274(4)
H14 H 0.0315 0.9194 -0.0237
H15 H -0.0673 0.8784 -0.0709
C11 C 0.2846(4) 0.7806(4) 0.1843(4)
H16 H 0.3416 0.7570 0.2267
H17 H 0.2678 0.8418 0.2053
H18 H 0.2889 0.7947 0.1304
C12 C 0.2233(4) 0.6645(4) 0.2572(3)
H19 H 0.1783 0.6139 0.2498
H20 H 0.2154 0.7217 0.2890
H21 H 0.2818 0.6354 0.2890
N1 N 0.2149(3) 0.6997(3) 0.1698(3)
H22 H 0.2321 0.6455 0.1465
C13 C 0.5389(4) 0.7613(4) 0.9985(3)
C14 C 0.5074(4) 0.6791(4) 1.0430(4)
H23 H 0.5124 0.7036 1.0992
H24 H 0.5446 0.6186 1.0526
C15 C 0.4089(4) 0.6528(4) 0.9842(4)
H25 H 0.3881 0.5995 1.0122
C16 C 0.3505(4) 0.7472(4) 0.9701(4)
H26 H 0.3548 0.7725 1.0258
H27 H 0.2883 0.7300 0.9344
C17 C 0.3819(4) 0.8295(4) 0.9250(4)
H28 H 0.3441 0.8903 0.9158
C18 C 0.3744(4) 0.7903(4) 0.8369(3)
H29 H 0.3931 0.8432 0.8076
H30 H 0.3126 0.7725 0.8002
C19 C 0.4344(4) 0.6963(4) 0.8520(3)
H31 H 0.4301 0.6708 0.7957
C20 C 0.5320(4) 0.7232(4) 0.9098(3)
H32 H 0.5527 0.7760 0.8821
H33 H 0.5696 0.6634 0.9180
C21 C 0.4799(3) 0.8575(4) 0.9841(3)
H34 H 0.4840 0.8829 1.0397
H35 H 0.5006 0.9108 0.9569
C22 C 0.4031(4) 0.6130(4) 0.8966(4)
H36 H 0.4406 0.5529 0.9059
H37 H 0.3417 0.5939 0.8596
C23 C 0.7027(4) 0.7043(4) 1.0797(4)
H38 H 0.7621 0.7293 1.1142
H39 H 0.7013 0.6726 1.0278
H40 H 0.6863 0.6551 1.1128
C24 C 0.6537(4) 0.8521(4) 1.1367(3)
H41 H 0.7162 0.8692 1.1659
H42 H 0.6365 0.8118 1.1748
H43 H 0.6187 0.9137 1.1212
N2 N 0.6376(3) 0.7917(3) 1.0551(3)
H44 H 0.6539 0.8336 1.0211
I1 I 0.28109(2) 1.02600(3) 0.05161(2)
I2 I 0.46101(2) 0.98662(3) 0.20108(2)
I3 I 0.63563(3) 0.96418(3) 0.33947(2)
I4 I 0.27112(2) 0.45230(3) 0.12224(2)
I5 I 0.45949(2) 0.53120(2) 0.22078(2)
I6 I 0.64097(3) 0.59361(3) 0.30231(3)
loop_
_geom_bond_atom_site_label_1
_geom_bond_atom_site_label_2
_geom_bond_site_symmetry_1
_geom_bond_site_symmetry_2
C1 C2 1_555 1_555
C2 H1 1_555 1_555
H2 C2 1_555 1_555
C3 C2 1_555 1_555
H3 C3 1_555 1_555
C4 C3 1_555 1_555
H4 C4 1_555 1_555
H5 C4 1_555 1_555
C5 C4 1_555 1_555
H6 C5 1_555 1_555
C6 C5 1_555 1_555
H7 C6 1_555 1_555
H8 C6 1_555 1_555
C7 C6 1_555 1_555
H9 C7 1_555 1_555
C8 C1 1_555 1_555
H10 C8 1_555 1_555
H11 C8 1_555 1_555
C9 C1 1_555 1_555
H12 C9 1_555 1_555
H13 C9 1_555 1_555
C10 C3 1_555 1_555
H14 C10 1_555 1_555
H15 C10 1_555 1_555
C11 H16 1_555 1_555
H17 C11 1_555 1_555
H18 C11 1_555 1_555
C12 H19 1_555 1_555
H20 C12 1_555 1_555
H21 C12 1_555 1_555
N1 C1 1_555 1_555
H22 N1 1_555 1_555
C13 C14 1_555 1_555
C14 H23 1_555 1_555
H24 C14 1_555 1_555
C15 C14 1_555 1_555
H25 C15 1_555 1_555
C16 C15 1_555 1_555
H26 C16 1_555 1_555
H27 C16 1_555 1_555
C17 C16 1_555 1_555
H28 C17 1_555 1_555
C18 C17 1_555 1_555
H29 C18 1_555 1_555
H30 C18 1_555 1_555
C19 C18 1_555 1_555
H31 C19 1_555 1_555
C20 C13 1_555 1_555
H32 C20 1_555 1_555
H33 C20 1_555 1_555
C21 C13 1_555 1_555
H34 C21 1_555 1_555
H35 C21 1_555 1_555
C22 C15 1_555 1_555
H36 C22 1_555 1_555
H37 C22 1_555 1_555
C23 H38 1_555 1_555
H39 C23 1_555 1_555
H40 C23 1_555 1_555
C24 H41 1_555 1_555
H42 C24 1_555 1_555
H43 C24 1_555 1_555
N2 C13 1_555 1_555
H44 N2 1_555 1_555
I1 I2 1_555 1_555
I2 I3 1_555 1_555
I4 I5 1_555 1_555
I5 I6 1_555 1_555
C5 C9 1_555 1_555
C7 C8 1_555 1_555
C7 C10 1_555 1_555
C11 N1 1_555 1_555
C12 N1 1_555 1_555
C17 C21 1_555 1_555
C19 C20 1_555 1_555
C19 C22 1_555 1_555
C23 N2 1_555 1_555
C24 N2 1_555 1_555

#END
