
#######################################################################
#
#                 Cambridge Crystallographic Data Centre
#                                CCDC 
#
#######################################################################
#
# If this CIF has been generated from an entry in the Cambridge 
# Structural Database, then it will include bibliographic, chemical, 
# crystal, experimental, refinement or atomic coordinate data resulting 
# from the CCDC's data processing and validation procedures.
#
#######################################################################

data_MIHROK
_chemical_formula_moiety         'C10 H8 N2 S2'
_chemical_name_systematic        
2-(4-(2-Thienyl)-2,3-diazabuta-1,3-dienyl)thiophene
_symmetry_cell_setting           monoclinic
_symmetry_space_group_name_H-M   'P 21/n'
_symmetry_Int_Tables_number      14
_space_group_name_Hall           '-P 2yn'
loop_
_symmetry_equiv_pos_site_id
_symmetry_equiv_pos_as_xyz
1 x,y,z
2 1/2-x,1/2+y,1/2-z
3 -x,-y,-z
4 1/2+x,1/2-y,1/2+z
_cell_length_a                   9.762(2)
_cell_length_b                   11.376(1)
_cell_length_c                   9.830(1)
_cell_angle_alpha                90
_cell_angle_beta                 100.82(1)
_cell_angle_gamma                90
_cell_volume                     1072.24
_exptl_crystal_colour            yellow
_exptl_crystal_description       prism
_chemical_melting_point          421-422K
_cell_formula_units_Z            4
loop_
_atom_site_label
_atom_site_type_symbol
_atom_site_fract_x
_atom_site_fract_y
_atom_site_fract_z
S1 S 0.1486(2) 0.2568(3) 0.2438(2)
N1 N 0.0307(7) 0.4566(6) 0.0497(7)
C1 C 0.0416(9) 0.3574(9) -0.0103(9)
C2 C 0.0968(7) 0.2548(9) 0.0662(8)
C3 C 0.107(1) 0.147(1) 0.0125(9)
C4 C 0.163(1) 0.0648(9) 0.112(1)
C5 C 0.1874(9) 0.114(1) 0.245(1)
H1 H 0.0125 0.3519 -0.1079
H2 H 0.0796 0.1284 -0.0830
H3 H 0.1826 -0.0147 0.0930
H4 H 0.2220 0.0706 0.3270
N1B N -0.0307(7) 0.5434(6) -0.0497(7)
C1B C -0.0416(9) 0.6426(9) 0.0103(9)
C2B C -0.0968(7) 0.7452(9) -0.0662(8)
S1B S -0.1486(2) 0.7432(3) -0.2438(2)
C5B C -0.1874(9) 0.886(1) -0.245(1)
C4B C -0.163(1) 0.9352(9) -0.112(1)
C3B C -0.107(1) 0.853(1) -0.0125(9)
H2B H -0.0796 0.8716 0.0830
H3B H -0.1826 1.0147 -0.0930
H4B H -0.2220 0.9294 -0.3270
H1B H -0.0125 0.6481 0.1079
S2 S 0.2513(2) 0.2333(2) -0.3534(2)
N2 N 0.0501(7) 0.0421(6) -0.4727(7)
C6 C -0.0071(9) 0.1407(9) -0.4591(9)
C7 C 0.0712(8) 0.2437(9) -0.4055(7)
C8 C 0.027(1) 0.358(1) -0.392(1)
C9 C 0.134(1) 0.4344(9) -0.337(1)
C10 C 0.263(1) 0.3834(9) -0.312(1)
H5 H -0.1055 0.1469 -0.4854
H6 H -0.0679 0.3816 -0.4184
H7 H 0.1186 0.5148 -0.3184
H8 H 0.3474 0.4238 -0.2767
N2B N -0.0501(7) -0.0421(6) -0.5273(7)
C6B C 0.0071(9) -0.1407(9) -0.5409(9)
C7B C -0.0712(8) -0.2437(9) -0.5945(7)
S2B S -0.2513(2) -0.2333(2) -0.6466(2)
C10B C -0.263(1) -0.3834(9) -0.688(1)
C9B C -0.134(1) -0.4344(9) -0.663(1)
C8B C -0.027(1) -0.358(1) -0.608(1)
H6B H 0.0679 -0.3816 -0.5816
H7B H -0.1186 -0.5148 -0.6816
H8B H -0.3474 -0.4238 -0.7233
H5B H 0.1055 -0.1469 -0.5146
loop_
_geom_bond_atom_site_label_1
_geom_bond_atom_site_label_2
_geom_bond_site_symmetry_1
_geom_bond_site_symmetry_2
S1 C2 1_555 1_555
N1 C1 1_555 1_555
C1 C2 1_555 1_555
C2 C3 1_555 1_555
C3 C4 1_555 1_555
C4 C5 1_555 1_555
C5 S1 1_555 1_555
H1 C1 1_555 1_555
H2 C3 1_555 1_555
H3 C4 1_555 1_555
H4 C5 1_555 1_555
S2 C7 1_555 1_555
N2 C6 1_555 1_555
C6 C7 1_555 1_555
C7 C8 1_555 1_555
C8 C9 1_555 1_555
C9 C10 1_555 1_555
C10 S2 1_555 1_555
H5 C6 1_555 1_555
H6 C8 1_555 1_555
H7 C9 1_555 1_555
H8 C10 1_555 1_555
N1B N1 1_555 1_555
C1B N1B 1_555 1_555
C2B C1B 1_555 1_555
S1B C2B 1_555 1_555
C5B S1B 1_555 1_555
C4B C5B 1_555 1_555
C3B C2B 1_555 1_555
H2B C3B 1_555 1_555
H3B C4B 1_555 1_555
H4B C5B 1_555 1_555
H1B C1B 1_555 1_555
N2B N2 1_555 1_555
C6B N2B 1_555 1_555
C7B C6B 1_555 1_555
S2B C7B 1_555 1_555
C10B S2B 1_555 1_555
C9B C10B 1_555 1_555
C8B C7B 1_555 1_555
H6B C8B 1_555 1_555
H7B C9B 1_555 1_555
H8B C10B 1_555 1_555
H5B C6B 1_555 1_555
C4B C3B 1_555 1_555
C9B C8B 1_555 1_555

#END
