
#######################################################################
#
#                 Cambridge Crystallographic Data Centre
#                                CCDC 
#
#######################################################################
#
# If this CIF has been generated from an entry in the Cambridge 
# Structural Database, then it will include bibliographic, chemical, 
# crystal, experimental, refinement or atomic coordinate data resulting 
# from the CCDC's data processing and validation procedures.
#
#######################################################################

data_MIJBEN
_chemical_formula_moiety         'C26 H38 N2 O4'
_chemical_name_systematic        
1-isopropyl-2-(3-menthoxycarbonyl)-1-cyano-6,7-dimethoxy-1,2,3,4-tetrahydroisoquinoline
_symmetry_cell_setting           triclinic
_symmetry_space_group_name_H-M   'P 1'
_symmetry_Int_Tables_number      1
_space_group_name_Hall           'P 1'
loop_
_symmetry_equiv_pos_site_id
_symmetry_equiv_pos_as_xyz
1 x,y,z
_cell_length_a                   9.395(3)
_cell_length_b                   11.052(4)
_cell_length_c                   13.035(4)
_cell_angle_alpha                106.77(3)
_cell_angle_beta                 91.97(3)
_cell_angle_gamma                93.72(3)
_cell_volume                     1291.18
_exptl_crystal_colour            white
_exptl_crystal_description       prism
_chemical_melting_point          '132-134 deg.C'
_cell_formula_units_Z            2
loop_
_atom_site_label
_atom_site_type_symbol
_atom_site_fract_x
_atom_site_fract_y
_atom_site_fract_z
C1 C 1.3841(2) 0.3439(2) 0.43135(16)
C2 C 1.5022(2) 0.4231(2) 0.40257(18)
C3 C 1.3197(3) 0.1311(2) 0.29129(19)
H1 H 1.4143 0.1143 0.2657
H2 H 1.2504 0.0929 0.232
C4 C 1.2938(3) 0.0727(2) 0.3813(2)
H3 H 1.1975 0.0852 0.4044
H4 H 1.3042 -0.0177 0.3563
C5 C 0.7104(4) 0.3113(6) 0.0766(4)
H5 H 0.6872 0.2219 0.0622
H6 H 0.6487 0.344 0.0325
H7 H 0.6979 0.3532 0.1508
C6 C 1.4547(3) 0.0651(2) 0.53853(19)
H8 H 1.4189 -0.0182 0.5284
C7 C 1.5605(3) 0.1180(2) 0.61727(18)
C8 C 1.6196(3) 0.2409(3) 0.62907(19)
C9 C 1.5647(2) 0.3110(2) 0.56719(18)
H9 H 1.6023 0.3937 0.5766
C10 C 1.4519(2) 0.2584(2) 0.48972(17)
C11 C 1.3993(2) 0.1338(2) 0.47303(17)
C12 C 1.2791(2) 0.4308(2) 0.50467(19)
H10 H 1.2359 0.4798 0.4617
C13 C 1.1574(4) 0.3531(4) 0.5360(4)
H11 H 1.1959 0.2979 0.5729
H12 H 1.1026 0.3036 0.4726
H13 H 1.097 0.4091 0.5822
C14 C 1.3515(4) 0.5259(4) 0.6041(3)
H14 H 1.2839 0.5834 0.6392
H15 H 1.4298 0.5726 0.5837
H16 H 1.3865 0.4818 0.6522
C15 C 1.2634(2) 0.3349(2) 0.26114(17)
C16 C 1.7958(5) 0.4068(4) 0.7148(4)
H17 H 1.8185 0.4141 0.6454
H18 H 1.8818 0.4208 0.76
H19 H 1.7308 0.4688 0.7465
C17 C 1.5529(4) -0.0631(3) 0.6808(3)
H20 H 1.4536 -0.056 0.6948
H21 H 1.5993 -0.0939 0.734
H22 H 1.5615 -0.1211 0.6109
C18 C 1.1237(3) 0.3153(2) 0.10006(17)
H23 H 1.1486 0.407 0.1216
C19 C 1.1575(3) 0.2582(2) -0.01651(18)
H24 H 1.1429 0.166 -0.0322
C20 C 1.0477(3) 0.2979(3) -0.0881(2)
H25 H 1.0637 0.3884 -0.0778
H26 H 1.0625 0.2548 -0.1626
C21 C 0.8948(3) 0.2684(4) -0.0651(2)
H27 H 0.8762 0.1775 -0.0793
H28 H 0.8307 0.2959 -0.1124
C22 C 0.8661(3) 0.3348(4) 0.0513(3)
H29 H 0.887 0.4262 0.0645
C23 C 0.9693(3) 0.2897(3) 0.12260(19)
H30 H 0.9546 0.3325 0.1972
H31 H 0.949 0.1994 0.111
C24 C 1.3131(3) 0.2887(3) -0.0384(2)
H32 H 1.3725 0.2641 0.0144
C25 C 1.3529(5) 0.2101(5) -0.1477(3)
H33 H 1.3062 0.2385 -0.2023
H34 H 1.3231 0.1226 -0.1575
H35 H 1.4545 0.2194 -0.1527
C26 C 1.3521(4) 0.4290(4) -0.0217(4)
H36 H 1.4485 0.4407 -0.0414
H37 H 1.3444 0.4747 0.0524
H38 H 1.2883 0.4601 -0.0656
N1 N 1.3077(2) 0.26883(17) 0.32891(14)
N2 N 1.5953(3) 0.4778(3) 0.3779(2)
O1 O 1.2689(2) 0.44926(16) 0.28352(13)
O2 O 1.2113(2) 0.25662(16) 0.16549(13)
O3 O 1.7312(2) 0.2833(2) 0.70350(18)
O4 O 1.6179(2) 0.05728(19) 0.68463(16)
C27 C 0.9255(2) 0.7666(2) 0.56375(16)
C28 C 0.8058(3) 0.6907(2) 0.59402(18)
C29 C 0.9967(3) 0.9792(2) 0.7029(2)
H39 H 1.0672 1.0164 0.7616
H40 H 0.9029 0.9978 0.7292
C30 C 1.0233(3) 1.0368(2) 0.6118(2)
H41 H 1.0153 1.1276 0.6365
H42 H 1.1189 1.0221 0.5875
C31 C 0.8604(3) 1.0471(2) 0.4569(2)
H43 H 0.8989 1.1295 0.4665
C32 C 0.7511(3) 0.9964(3) 0.3798(2)
C33 C 0.6894(2) 0.8734(2) 0.36819(19)
C34 C 0.7443(2) 0.8023(2) 0.42949(17)
H44 H 0.7051 0.7202 0.4206
C35 C 0.8588(2) 0.8529(2) 0.50510(17)
C36 C 0.9142(3) 0.9762(2) 0.52065(18)
C37 C 1.0285(2) 0.6768(2) 0.49020(18)
H45 H 1.0705 0.6274 0.5333
C38 C 1.1505(4) 0.7519(3) 0.4587(3)
H46 H 1.2164 0.695 0.42
H47 H 1.1988 0.809 0.522
H48 H 1.114 0.7995 0.4139
C39 C 0.9531(3) 0.5827(3) 0.3918(3)
H49 H 0.9153 0.6274 0.3452
H50 H 0.8765 0.5354 0.4135
H51 H 1.0198 0.5256 0.3545
C40 C 0.7613(4) 1.1785(4) 0.3180(3)
H52 H 0.7565 1.2352 0.3889
H53 H 0.7136 1.2121 0.2671
H54 H 0.8595 1.1697 0.3012
C41 C 0.5104(4) 0.7105(3) 0.2809(3)
H55 H 0.578 0.6489 0.2545
H56 H 0.4297 0.6953 0.2304
H57 H 0.4791 0.7038 0.3486
C42 C 1.0432(3) 0.7754(2) 0.73499(18)
C43 C 1.1162(3) 0.7924(2) 0.91521(18)
H58 H 1.1402 0.7048 0.8842
C44 C 1.2384(3) 0.8667(2) 0.99280(18)
H59 H 1.2125 0.9542 1.0206
C45 C 1.2456(4) 0.8110(3) 1.0879(2)
H60 H 1.2748 0.7252 1.063
H61 H 1.3176 0.8608 1.141
C46 C 1.1037(4) 0.8086(3) 1.1405(2)
H62 H 1.1138 0.7696 1.1979
H63 H 1.0792 0.8949 1.1721
C47 C 0.9841(4) 0.7367(3) 1.0621(2)
H64 H 1.0088 0.6489 1.0342
C48 C 0.9759(3) 0.7925(3) 0.9678(2)
H65 H 0.9028 0.7435 0.9152
H66 H 0.9485 0.8788 0.9931
C49 C 1.3811(3) 0.8710(3) 0.9393(2)
H67 H 1.3627 0.902 0.8772
C50 C 1.4414(5) 0.7421(4) 0.8966(3)
H68 H 1.4606 0.7079 0.9551
H69 H 1.5284 0.7518 0.8622
H70 H 1.3732 0.6855 0.8457
C51 C 1.4924(4) 0.9664(4) 1.0137(3)
H71 H 1.4511 1.0455 1.0427
H72 H 1.5732 0.9792 0.9739
H73 H 1.5227 0.9342 1.0713
C52 C 0.8414(5) 0.7344(6) 1.1128(4)
H74 H 0.8506 0.7002 1.1723
H75 H 0.7712 0.6826 1.0606
H76 H 0.8121 0.8192 1.1376
N3 N 1.0055(2) 0.84136(18) 0.66551(15)
N4 N 0.7107(3) 0.6401(2) 0.6197(2)
O5 O 1.0293(2) 0.66092(16) 0.71417(13)
O6 O 1.0994(2) 0.85267(17) 0.82959(13)
O7 O 0.6936(2) 1.0577(2) 0.31308(17)
O8 O 0.5762(2) 0.83436(19) 0.29487(16)
loop_
_geom_bond_atom_site_label_1
_geom_bond_atom_site_label_2
_geom_bond_site_symmetry_1
_geom_bond_site_symmetry_2
C1 C2 1_555 1_555
C2 N2 1_555 1_555
C3 H1 1_555 1_555
H2 C3 1_555 1_555
C4 C3 1_555 1_555
H3 C4 1_555 1_555
H4 C4 1_555 1_555
C5 H5 1_555 1_555
H6 C5 1_555 1_555
H7 C5 1_555 1_555
C6 H8 1_555 1_555
C7 C6 1_555 1_555
C8 C7 1_555 1_555
C9 C8 1_555 1_555
H9 C9 1_555 1_555
C10 C1 1_555 1_555
C11 C4 1_555 1_555
C12 C1 1_555 1_555
H10 C12 1_555 1_555
C13 C12 1_555 1_555
H11 C13 1_555 1_555
H12 C13 1_555 1_555
H13 C13 1_555 1_555
C14 C12 1_555 1_555
H14 C14 1_555 1_555
H15 C14 1_555 1_555
H16 C14 1_555 1_555
C15 N1 1_555 1_555
C16 H17 1_555 1_555
H18 C16 1_555 1_555
H19 C16 1_555 1_555
C17 H20 1_555 1_555
H21 C17 1_555 1_555
H22 C17 1_555 1_555
C18 H23 1_555 1_555
C19 C18 1_555 1_555
H24 C19 1_555 1_555
C20 C19 1_555 1_555
H25 C20 1_555 1_555
H26 C20 1_555 1_555
C21 C20 1_555 1_555
H27 C21 1_555 1_555
H28 C21 1_555 1_555
C22 C5 1_555 1_555
H29 C22 1_555 1_555
C23 C18 1_555 1_555
H30 C23 1_555 1_555
H31 C23 1_555 1_555
C24 C19 1_555 1_555
H32 C24 1_555 1_555
C25 C24 1_555 1_555
H33 C25 1_555 1_555
H34 C25 1_555 1_555
H35 C25 1_555 1_555
C26 C24 1_555 1_555
H36 C26 1_555 1_555
H37 C26 1_555 1_555
H38 C26 1_555 1_555
C27 C28 1_555 1_555
C28 N4 1_555 1_555
C29 H39 1_555 1_555
H40 C29 1_555 1_555
C30 C29 1_555 1_555
H41 C30 1_555 1_555
H42 C30 1_555 1_555
C31 H43 1_555 1_555
C32 C31 1_555 1_555
C33 C32 1_555 1_555
C34 C33 1_555 1_555
H44 C34 1_555 1_555
C35 C27 1_555 1_555
C36 C30 1_555 1_555
C37 C27 1_555 1_555
H45 C37 1_555 1_555
C38 C37 1_555 1_555
H46 C38 1_555 1_555
H47 C38 1_555 1_555
H48 C38 1_555 1_555
C39 C37 1_555 1_555
H49 C39 1_555 1_555
H50 C39 1_555 1_555
H51 C39 1_555 1_555
C40 H52 1_555 1_555
H53 C40 1_555 1_555
H54 C40 1_555 1_555
C41 H55 1_555 1_555
H56 C41 1_555 1_555
H57 C41 1_555 1_555
C42 N3 1_555 1_555
C43 H58 1_555 1_555
C44 C43 1_555 1_555
H59 C44 1_555 1_555
C45 C44 1_555 1_555
H60 C45 1_555 1_555
H61 C45 1_555 1_555
C46 C45 1_555 1_555
H62 C46 1_555 1_555
H63 C46 1_555 1_555
C47 C46 1_555 1_555
H64 C47 1_555 1_555
C48 C43 1_555 1_555
H65 C48 1_555 1_555
H66 C48 1_555 1_555
C49 C44 1_555 1_555
H67 C49 1_555 1_555
C50 C49 1_555 1_555
H68 C50 1_555 1_555
H69 C50 1_555 1_555
H70 C50 1_555 1_555
C51 C49 1_555 1_555
H71 C51 1_555 1_555
H72 C51 1_555 1_555
H73 C51 1_555 1_555
C52 C47 1_555 1_555
H74 C52 1_555 1_555
H75 C52 1_555 1_555
H76 C52 1_555 1_555
N1 C1 1_555 1_555
N3 C27 1_555 1_555
O1 C15 1_555 1_555
O2 C15 1_555 1_555
O3 C8 1_555 1_555
O4 C7 1_555 1_555
O5 C42 1_555 1_555
O6 C42 1_555 1_555
O7 C32 1_555 1_555
O8 C33 1_555 1_555
C3 N1 1_555 1_555
C6 C11 1_555 1_555
C9 C10 1_555 1_555
C10 C11 1_555 1_555
C16 O3 1_555 1_555
C17 O4 1_555 1_555
C18 O2 1_555 1_555
C21 C22 1_555 1_555
C22 C23 1_555 1_555
C29 N3 1_555 1_555
C31 C36 1_555 1_555
C34 C35 1_555 1_555
C35 C36 1_555 1_555
C40 O7 1_555 1_555
C41 O8 1_555 1_555
C43 O6 1_555 1_555
C47 C48 1_555 1_555

#END
