
#######################################################################
#
#                 Cambridge Crystallographic Data Centre
#                                CCDC 
#
#######################################################################
#
# If this CIF has been generated from an entry in the Cambridge 
# Structural Database, then it will include bibliographic, chemical, 
# crystal, experimental, refinement or atomic coordinate data resulting 
# from the CCDC's data processing and validation procedures.
#
#######################################################################

data_MIJWIO
_chemical_formula_moiety         'C24 H22 N4 O6'
_chemical_name_systematic        
bis(2,4,6-trimethoxyphenyl)ethane-1,1,2,2-tetracarbonitrile
_symmetry_cell_setting           monoclinic
_symmetry_space_group_name_H-M   'P 21/c'
_symmetry_Int_Tables_number      14
_space_group_name_Hall           '-P 2ybc'
loop_
_symmetry_equiv_pos_site_id
_symmetry_equiv_pos_as_xyz
1 x,y,z
2 -x,1/2+y,1/2-z
3 -x,-y,-z
4 x,1/2-y,1/2+z
_cell_length_a                   9.0474(2)
_cell_length_b                   17.4635(4)
_cell_length_c                   7.6236(2)
_cell_angle_alpha                90
_cell_angle_beta                 111.4070(10)
_cell_angle_gamma                90
_cell_volume                     1121.42
_exptl_crystal_colour            colorless
_exptl_crystal_description       block
_cell_formula_units_Z            2
loop_
_atom_site_label
_atom_site_type_symbol
_atom_site_fract_x
_atom_site_fract_y
_atom_site_fract_z
C1 C 0.39584(12) 0.41719(6) 0.59389(15)
C2 C 0.42580(12) 0.33972(6) 0.57075(16)
C3 C 0.62752(16) 0.24972(7) 0.57453(19)
H1 H 0.627363 0.231278 0.695871
H2 H 0.736722 0.250886 0.577564
H3 H 0.563573 0.215298 0.473925
C4 C 0.32083(13) 0.28229(6) 0.57724(16)
H4 H 0.343717 0.229972 0.564169
C5 C 0.18186(13) 0.30323(6) 0.60328(16)
C6 C 0.09411(18) 0.17343(7) 0.5812(2)
H5 H 0.113632 0.166816 0.463868
H6 H -0.000279 0.144165 0.574317
H7 H 0.186111 0.154937 0.687388
C7 C 0.14766(13) 0.37960(7) 0.62492(16)
H8 H 0.052297 0.393085 0.64253
C8 C 0.25409(12) 0.43541(6) 0.62044(15)
C9 C 0.15301(16) 0.53281(8) 0.7656(2)
H9 H 0.038496 0.523489 0.708312
H10 H 0.172125 0.587291 0.796291
H11 H 0.197779 0.502365 0.880997
C10 C 0.51517(12) 0.48022(6) 0.60089(15)
C11 C 0.68247(12) 0.45302(6) 0.68352(16)
C12 C 0.51754(13) 0.54171(6) 0.73906(17)
N1 N 0.81268(12) 0.43877(7) 0.76415(16)
N2 N 0.54048(14) 0.58582(6) 0.85741(17)
O1 O 0.56185(10) 0.32500(4) 0.53992(14)
O2 O 0.06907(10) 0.25287(5) 0.60769(13)
O3 O 0.22695(10) 0.51131(4) 0.63600(13)
C1B C 0.60416(12) 0.58281(6) 0.40611(15)
C2B C 0.57420(12) 0.66028(6) 0.42925(16)
C3B C 0.37248(16) 0.75028(7) 0.42547(19)
H1B H 0.372637 0.768722 0.304129
H2B H 0.263278 0.749114 0.422436
H3B H 0.436427 0.784702 0.526075
C4B C 0.67917(13) 0.71771(6) 0.42276(16)
H4B H 0.656283 0.770028 0.435831
C5B C 0.81814(13) 0.69677(6) 0.39672(16)
C6B C 0.90589(18) 0.82657(7) 0.4188(2)
H5B H 0.886368 0.833184 0.536132
H6B H 1.000279 0.855835 0.425683
H7B H 0.813889 0.845063 0.312612
C7B C 0.85234(13) 0.62040(7) 0.37508(16)
H8B H 0.947703 0.606915 0.35747
C8B C 0.74591(12) 0.56459(6) 0.37956(15)
C9B C 0.84699(16) 0.46719(8) 0.2344(2)
H9B H 0.961504 0.476511 0.291688
H10B H 0.827875 0.412709 0.203709
H11B H 0.802221 0.497635 0.119003
C10B C 0.48483(12) 0.51978(6) 0.39911(15)
C11B C 0.31753(12) 0.54698(6) 0.31648(16)
C12B C 0.48246(13) 0.45829(6) 0.26094(17)
N1B N 0.18732(12) 0.56123(7) 0.23585(16)
N2B N 0.45952(14) 0.41418(6) 0.14259(17)
O1B O 0.43815(10) 0.67500(4) 0.46008(14)
O2B O 0.93093(10) 0.74713(5) 0.39231(13)
O3B O 0.77305(10) 0.48869(4) 0.36400(13)
loop_
_geom_bond_atom_site_label_1
_geom_bond_atom_site_label_2
_geom_bond_site_symmetry_1
_geom_bond_site_symmetry_2
C1 C2 1_555 1_555
C2 C4 1_555 1_555
C3 H1 1_555 1_555
H2 C3 1_555 1_555
H3 C3 1_555 1_555
C4 H4 1_555 1_555
C5 C4 1_555 1_555
C6 H5 1_555 1_555
H6 C6 1_555 1_555
H7 C6 1_555 1_555
C7 C5 1_555 1_555
H8 C7 1_555 1_555
C8 C1 1_555 1_555
C9 H9 1_555 1_555
H10 C9 1_555 1_555
H11 C9 1_555 1_555
C10 C1 1_555 1_555
C11 C10 1_555 1_555
C12 C10 1_555 1_555
N1 C11 1_555 1_555
N2 C12 1_555 1_555
O1 C2 1_555 1_555
O2 C5 1_555 1_555
O3 C8 1_555 1_555
C1B C2B 1_555 1_555
C2B C4B 1_555 1_555
C3B H1B 1_555 1_555
H2B C3B 1_555 1_555
H3B C3B 1_555 1_555
C4B H4B 1_555 1_555
C5B C4B 1_555 1_555
C6B H5B 1_555 1_555
H6B C6B 1_555 1_555
H7B C6B 1_555 1_555
C7B C5B 1_555 1_555
H8B C7B 1_555 1_555
C8B C1B 1_555 1_555
C9B H9B 1_555 1_555
H10B C9B 1_555 1_555
H11B C9B 1_555 1_555
C10B C10 1_555 1_555
C11B C10B 1_555 1_555
C12B C10B 1_555 1_555
N1B C11B 1_555 1_555
N2B C12B 1_555 1_555
O1B C2B 1_555 1_555
O2B C5B 1_555 1_555
O3B C8B 1_555 1_555
C3 O1 1_555 1_555
C6 O2 1_555 1_555
C7 C8 1_555 1_555
C9 O3 1_555 1_555
C1B C10B 1_555 1_555
C3B O1B 1_555 1_555
C6B O2B 1_555 1_555
C7B C8B 1_555 1_555
C9B O3B 1_555 1_555

#END
