
#######################################################################
#
#                 Cambridge Crystallographic Data Centre
#                                CCDC 
#
#######################################################################
#
# If this CIF has been generated from an entry in the Cambridge 
# Structural Database, then it will include bibliographic, chemical, 
# crystal, experimental, refinement or atomic coordinate data resulting 
# from the CCDC's data processing and validation procedures.
#
#######################################################################

data_MIKXEK
_chemical_formula_moiety         'C23 H32 N1 O5 1+,C2 H1 O4 1-,H2 O1'
_chemical_name_systematic        
'7-(1-Hydroxyethyl)-3,6-dimethoxy-17-methyl-18,19-dihydro-4,5-epoxy-6,14-ethenomorphinan-19-ol oxalic acid monohydrate'
_symmetry_cell_setting           orthorhombic
_symmetry_space_group_name_H-M   'P 21 21 21'
_symmetry_Int_Tables_number      19
_space_group_name_Hall           'P 2ac 2ab'
loop_
_symmetry_equiv_pos_site_id
_symmetry_equiv_pos_as_xyz
1 x,y,z
2 1/2-x,-y,1/2+z
3 -x,1/2+y,1/2-z
4 1/2+x,1/2-y,-z
_cell_length_a                   9.972(2)
_cell_length_b                   10.119(2)
_cell_length_c                   23.901(5)
_cell_angle_alpha                90
_cell_angle_beta                 90
_cell_angle_gamma                90
_cell_volume                     2411.77
_exptl_crystal_colour            colorless
_exptl_crystal_description       prism
_cell_formula_units_Z            4
loop_
_atom_site_label
_atom_site_type_symbol
_atom_site_fract_x
_atom_site_fract_y
_atom_site_fract_z
C1 C 0.7644(2) 0.4593(2) 0.75765(10)
H1 H 0.8003 0.3749 0.7487
C2 C 0.7616(3) 0.5013(3) 0.81360(10)
H2 H 0.7914 0.4428 0.8421
C3 C 0.7160(3) 0.6275(3) 0.82842(9)
O1 O 0.7141(2) 0.6800(2) 0.88136(7)
C4 C 0.7299(5) 0.5884(4) 0.92671(11)
H3 H 0.7268 0.6362 0.9623
H4 H 0.8164 0.5432 0.9232
H5 H 0.6573 0.5232 0.9256
C5 C 0.6727(2) 0.7095(3) 0.78511(9)
O2 O 0.64450(19) 0.84236(17) 0.78885(6)
C6 C 0.6271(2) 0.8913(2) 0.73088(9)
H6 H 0.5420 0.9432 0.7284
C7 C 0.7437(2) 0.9760(2) 0.70903(9)
O3 O 0.75505(19) 1.09561(17) 0.74138(7)
C8 C 0.8448(3) 1.0934(3) 0.78780(11)
H7 H 0.8432 1.1794 0.8066
H8 H 0.9359 1.0749 0.7745
H9 H 0.8170 1.0243 0.8141
C9 C 0.8725(2) 0.8941(2) 0.70753(9)
H10 H 0.8889 0.8551 0.7449
H11 H 0.9493 0.9521 0.6983
C10 C 0.8621(2) 0.7825(2) 0.66353(9)
H12 H 0.8873 0.6976 0.6822
O4 O 0.95136(18) 0.80197(17) 0.61745(7)
H13 H 0.9515 0.8822 0.6084
C11 C 0.6967(2) 0.6337(2) 0.61385(9)
H14 H 0.7589 0.6313 0.5810
C12 C 0.7319(2) 0.5144(2) 0.65259(9)
H15 H 0.6745 0.4387 0.6420
H16 H 0.8262 0.4886 0.6455
C13 C 0.7150(2) 0.5399(2) 0.71507(9)
C14 C 0.6636(2) 0.6608(2) 0.73171(9)
C15 C 0.6157(2) 0.7671(2) 0.69344(8)
C16 C 0.7141(2) 0.7698(2) 0.64313(8)
C17 C 0.4701(2) 0.7453(2) 0.67393(9)
H17 H 0.4113 0.7384 0.7072
H18 H 0.4407 0.8230 0.6520
C18 C 0.4533(2) 0.6214(2) 0.63832(9)
H19 H 0.4653 0.5419 0.6620
H20 H 0.3617 0.6190 0.6224
N1 N 0.5545(2) 0.62052(19) 0.59187(7)
H21 H 0.538(3) 0.691(3) 0.5721(11)
C19 C 0.5339(3) 0.5021(2) 0.55493(10)
H22 H 0.4405 0.4994 0.5423
H23 H 0.5545 0.4215 0.5760
H24 H 0.5934 0.5082 0.5224
C20 C 0.6848(2) 0.8956(2) 0.60920(9)
H25 H 0.5935 0.8912 0.5931
H26 H 0.7499 0.9039 0.5781
C21 C 0.6966(2) 1.0177(2) 0.64915(9)
H27 H 0.6036 1.0532 0.6536
C22 C 0.7797(3) 1.1296(2) 0.62299(10)
H28 H 0.7886 1.2027 0.6509
O5 O 0.9107(2) 1.0819(2) 0.60921(9)
H29 H 0.950(4) 1.147(4) 0.6005(14)
C23 C 0.7122(4) 1.1838(3) 0.57038(11)
H30 H 0.7672 1.2549 0.5546
H31 H 0.6234 1.2184 0.5800
H32 H 0.7027 1.1128 0.5428
C24 C 0.6281(2) 0.8493(2) 0.46929(9)
O6 O 0.6934(2) 0.93025(19) 0.44467(9)
O7 O 0.67129(19) 0.73231(18) 0.48585(7)
H33 H 0.746(4) 0.726(3) 0.4821(13)
C25 C 0.4795(2) 0.8761(2) 0.48623(9)
O8 O 0.42614(17) 0.97430(17) 0.46567(7)
O9 O 0.42876(17) 0.79596(17) 0.52126(7)
O10 O 0.5347(3) 1.1757(3) 0.39887(15)
H34 H 0.619(6) 1.167(5) 0.393(2)
H35 H 0.528(6) 1.122(6) 0.429(2)
loop_
_geom_bond_atom_site_label_1
_geom_bond_atom_site_label_2
_geom_bond_site_symmetry_1
_geom_bond_site_symmetry_2
C1 H1 1_555 1_555
C2 C1 1_555 1_555
H2 C2 1_555 1_555
C3 C2 1_555 1_555
O1 C3 1_555 1_555
C4 O1 1_555 1_555
H3 C4 1_555 1_555
H4 C4 1_555 1_555
H5 C4 1_555 1_555
C5 C3 1_555 1_555
O2 C5 1_555 1_555
C6 O2 1_555 1_555
H6 C6 1_555 1_555
C7 C6 1_555 1_555
O3 C7 1_555 1_555
C8 O3 1_555 1_555
H7 C8 1_555 1_555
H8 C8 1_555 1_555
H9 C8 1_555 1_555
C9 C7 1_555 1_555
H10 C9 1_555 1_555
H11 C9 1_555 1_555
C10 C9 1_555 1_555
H12 C10 1_555 1_555
O4 C10 1_555 1_555
H13 O4 1_555 1_555
C11 H14 1_555 1_555
C12 C11 1_555 1_555
H15 C12 1_555 1_555
H16 C12 1_555 1_555
C13 C1 1_555 1_555
C14 C5 1_555 1_555
C15 C6 1_555 1_555
C16 C10 1_555 1_555
C17 C15 1_555 1_555
H17 C17 1_555 1_555
H18 C17 1_555 1_555
C18 C17 1_555 1_555
H19 C18 1_555 1_555
H20 C18 1_555 1_555
N1 C11 1_555 1_555
H21 N1 1_555 1_555
C19 N1 1_555 1_555
H22 C19 1_555 1_555
H23 C19 1_555 1_555
H24 C19 1_555 1_555
C20 C16 1_555 1_555
H25 C20 1_555 1_555
H26 C20 1_555 1_555
C21 C7 1_555 1_555
H27 C21 1_555 1_555
C22 C21 1_555 1_555
H28 C22 1_555 1_555
O5 C22 1_555 1_555
H29 O5 1_555 1_555
C23 C22 1_555 1_555
H30 C23 1_555 1_555
H31 C23 1_555 1_555
H32 C23 1_555 1_555
C24 O6 1_555 1_555
O7 C24 1_555 1_555
H33 O7 1_555 1_555
C25 C24 1_555 1_555
O8 C25 1_555 1_555
O9 C25 1_555 1_555
O10 H34 1_555 1_555
H35 O10 1_555 1_555
C11 C16 1_555 1_555
C12 C13 1_555 1_555
C13 C14 1_555 1_555
C14 C15 1_555 1_555
C15 C16 1_555 1_555
C18 N1 1_555 1_555
C20 C21 1_555 1_555

#END
