
#######################################################################
#
#                 Cambridge Crystallographic Data Centre
#                                CCDC 
#
#######################################################################
#
# If this CIF has been generated from an entry in the Cambridge 
# Structural Database, then it will include bibliographic, chemical, 
# crystal, experimental, refinement or atomic coordinate data resulting 
# from the CCDC's data processing and validation procedures.
#
#######################################################################

data_MILHEX
_chemical_formula_moiety         'C17 H24 O3'
_chemical_name_systematic        
2,2,6-trimethyloctahydro-2H-4,8b-ethanocyclopropa[7,8]naphtho[1,2-d][1,3]dioxol-7(7aH)-one
_symmetry_cell_setting           orthorhombic
_symmetry_space_group_name_H-M   'P 21 21 21'
_symmetry_Int_Tables_number      19
_space_group_name_Hall           'P 2ac 2ab'
loop_
_symmetry_equiv_pos_site_id
_symmetry_equiv_pos_as_xyz
1 x,y,z
2 1/2+x,1/2-y,-z
3 -x,1/2+y,1/2-z
4 1/2-x,-y,1/2+z
_cell_length_a                   6.4901(1)
_cell_length_b                   11.7812(1)
_cell_length_c                   18.7583(2)
_cell_angle_alpha                90
_cell_angle_beta                 90
_cell_angle_gamma                90
_cell_volume                     1434.28
_exptl_crystal_colour            colorless
_exptl_crystal_description       needle
_cell_formula_units_Z            4
loop_
_atom_site_label
_atom_site_type_symbol
_atom_site_fract_x
_atom_site_fract_y
_atom_site_fract_z
O1 O 0.53381(14) 0.48512(7) 0.37684(4)
O2 O 0.48295(16) 0.56784(8) 0.48447(4)
O3 O -0.02831(15) 0.73172(10) 0.15188(5)
C1 C 0.65146(19) 0.74381(12) 0.39009(7)
C2 C 0.62828(17) 0.69729(10) 0.31340(6)
C3 C 0.41426(15) 0.64304(9) 0.30283(5)
C4 C 0.36910(17) 0.56310(9) 0.36540(5)
C5 C 0.35675(19) 0.63023(10) 0.43629(6)
C6 C 0.4388(2) 0.74995(10) 0.42485(6)
C7 C 0.24462(16) 0.73549(9) 0.30871(6)
C8 C 0.29228(19) 0.81195(10) 0.37393(6)
C9 C 0.5366(3) 0.46227(12) 0.45176(6)
C10 C 0.7560(3) 0.43352(17) 0.47227(9)
C11 C 0.3806(4) 0.37155(13) 0.47084(7)
C12 C 0.40467(18) 0.57732(10) 0.23278(6)
C13 C 0.4872(2) 0.62485(11) 0.16499(6)
C14 C 0.2548(2) 0.61281(11) 0.17391(6)
C15 C 0.13291(19) 0.71703(11) 0.18397(6)
C16 C 0.21345(17) 0.80172(10) 0.23857(6)
C17 C 0.07085(19) 0.90350(11) 0.24577(8)
H1 H 0.7129 0.8184 0.3894
H2 H 0.7411 0.6938 0.4177
H3 H 0.6461 0.7605 0.2773
H4 H 0.7361 0.6410 0.3041
H5 H 0.2406 0.5222 0.3562
H6 H 0.2153 0.6316 0.4551
H7 H 0.4435 0.7900 0.4703
H8 H 0.1171 0.6967 0.3180
H9 H 0.3613 0.8819 0.3572
H10 H 0.1632 0.8331 0.3986
H11 H 0.7625 0.4192 0.5222
H12 H 0.8439 0.4971 0.4601
H13 H 0.7987 0.3650 0.4474
H14 H 0.3799 0.3613 0.5224
H15 H 0.2434 0.3934 0.4547
H16 H 0.4249 0.3028 0.4470
H17 H 0.4179 0.4943 0.2385
H18 H 0.5447 0.6983 0.1644
H19 H 0.5546 0.5754 0.1326
H20 H 0.1889 0.5544 0.1471
H21 H 0.3487 0.8265 0.2223
H22 H 0.0543 0.9385 0.1999
H23 H 0.1265 0.9591 0.2792
H24 H -0.0637 0.8780 0.2638
loop_
_geom_bond_atom_site_label_1
_geom_bond_atom_site_label_2
_geom_bond_site_symmetry_1
_geom_bond_site_symmetry_2
O1 C4 1_555 1_555
O2 C5 1_555 1_555
O3 C15 1_555 1_555
C1 C2 1_555 1_555
C2 C3 1_555 1_555
C3 C4 1_555 1_555
C4 C5 1_555 1_555
C5 C6 1_555 1_555
C6 C1 1_555 1_555
C7 C3 1_555 1_555
C8 C6 1_555 1_555
C9 O1 1_555 1_555
C10 C9 1_555 1_555
C11 C9 1_555 1_555
C12 C3 1_555 1_555
C13 C12 1_555 1_555
C14 C12 1_555 1_555
C15 C14 1_555 1_555
C16 C7 1_555 1_555
C17 C16 1_555 1_555
H1 C1 1_555 1_555
H2 C1 1_555 1_555
H3 C2 1_555 1_555
H4 C2 1_555 1_555
H5 C4 1_555 1_555
H6 C5 1_555 1_555
H7 C6 1_555 1_555
H8 C7 1_555 1_555
H9 C8 1_555 1_555
H10 C8 1_555 1_555
H11 C10 1_555 1_555
H12 C10 1_555 1_555
H13 C10 1_555 1_555
H14 C11 1_555 1_555
H15 C11 1_555 1_555
H16 C11 1_555 1_555
H17 C12 1_555 1_555
H18 C13 1_555 1_555
H19 C13 1_555 1_555
H20 C14 1_555 1_555
H21 C16 1_555 1_555
H22 C17 1_555 1_555
H23 C17 1_555 1_555
H24 C17 1_555 1_555
O2 C9 1_555 1_555
C7 C8 1_555 1_555
C13 C14 1_555 1_555
C15 C16 1_555 1_555

#END
