
#######################################################################
#
#                 Cambridge Crystallographic Data Centre
#                                CCDC 
#
#######################################################################
#
# If this CIF has been generated from an entry in the Cambridge 
# Structural Database, then it will include bibliographic, chemical, 
# crystal, experimental, refinement or atomic coordinate data resulting 
# from the CCDC's data processing and validation procedures.
#
#######################################################################

data_MILJAV
_chemical_formula_moiety         '0.4(C16 H22 O3),0.6(C16 H22 O3)'
_chemical_name_systematic        
'2,2,9-trimethyl-3a,4,5,5a,6,9b-hexahydro-2H,7H-4,9a-ethanonaphtho[1,2-d][1,3]dioxol-7-one 2,2,9-trimethyl-3a,4,5,8,9,9b-hexahydro-2H,7H-4,9a-ethanonaphtho[1,2-d][1,3]dioxol-7-one'
_symmetry_cell_setting           monoclinic
_symmetry_space_group_name_H-M   'P 21'
_symmetry_Int_Tables_number      4
_space_group_name_Hall           'P 2yb'
loop_
_symmetry_equiv_pos_site_id
_symmetry_equiv_pos_as_xyz
1 x,y,z
2 -x,1/2+y,-z
_cell_length_a                   6.34903(17)
_cell_length_b                   9.1348(2)
_cell_length_c                   23.8101(7)
_cell_angle_alpha                90
_cell_angle_beta                 95.882(3)
_cell_angle_gamma                90
_cell_volume                     1373.65
_exptl_crystal_colour            colorless
_exptl_crystal_description       needles
_cell_formula_units_Z            4
loop_
_atom_site_label
_atom_site_type_symbol
_atom_site_fract_x
_atom_site_fract_y
_atom_site_fract_z
O1 O 0.8015(2) 0.59445(13) 0.69471(5)
O2 O 0.8082(3) 0.5102(2) 0.42443(6)
O3 O 0.7959(2) 0.37678(15) 0.73937(6)
C1 C 0.7276(3) 0.4987(2) 0.59750(8)
C2 C 0.8658(3) 0.49245(19) 0.65435(7)
H1 H 1.0174 0.5098 0.6483
C3 C 0.7793(3) 0.5050(3) 0.47457(8)
C4 C 0.7926(3) 0.6368(2) 0.50991(9)
H2 H 0.8237 0.7269 0.4927
C5 C 0.7640(3) 0.6387(2) 0.56499(8)
C6 C 0.7211(4) 0.3661(2) 0.50279(8)
H3 H 0.7834 0.2821 0.4841
H4 H 0.5652 0.3547 0.4978
C7 C 0.7960(3) 0.3625(2) 0.56511(8)
H5 H 0.9543 0.3623 0.5685
C8 C 0.7263(4) 0.2202(2) 0.59347(9)
H6 H 0.6052 0.1758 0.5700
H7 H 0.8444 0.1490 0.5968
C9 C 0.6619(3) 0.2560(2) 0.65223(9)
H8 H 0.6367 0.1636 0.6731
C10 C 0.8429(3) 0.34170(19) 0.68334(8)
H9 H 0.9780 0.2851 0.6845
C11 C 0.8488(3) 0.52710(19) 0.74877(8)
C12 C 1.0807(3) 0.5432(2) 0.76984(9)
H10 H 1.1671 0.4955 0.7433
H11 H 1.1079 0.4971 0.8070
H12 H 1.1173 0.6473 0.7728
C13 C 0.7054(4) 0.5913(2) 0.78935(8)
H13 H 0.7361 0.6958 0.7945
H14 H 0.7298 0.5410 0.8258
H15 H 0.5573 0.5786 0.7740
C14 C 0.4604(3) 0.3496(2) 0.64598(9)
H16 H 0.4271 0.3827 0.6837
H17 H 0.3400 0.2902 0.6289
C15 C 0.4920(3) 0.4840(2) 0.60822(8)
H18 H 0.4463 0.5737 0.6269
H19 H 0.4036 0.4731 0.5717
C16 C 0.7712(4) 0.7815(2) 0.59611(9)
H20 H 0.7767 0.8622 0.5692
H21 H 0.8974 0.7843 0.6235
H22 H 0.6442 0.7913 0.6160
O4 O 0.7080(2) 0.40949(14) 0.19845(5)
O5 O 0.6633(2) 0.62235(14) 0.24499(5)
O6 O 0.0521(3) 0.3861(2) -0.01433(6)
C17 C 0.5314(3) 0.47738(19) 0.16683(7)
H23 H 0.3985 0.4213 0.1709
C18 C 0.5690(3) 0.4917(2) 0.10389(7)
C19 C 0.5578(3) 0.3463(2) 0.07025(8)
H24 H 0.6213 0.3662 0.0343
C20 C 0.3288(4) 0.2991(2) 0.05366(9)
H25 H 0.3285 0.2105 0.0297
H26 H 0.2630 0.2729 0.0882
C21 C 0.1974(3) 0.4156(2) 0.02227(8)
C22 C 0.2441(3) 0.5667(2) 0.04000(8)
H27 H 0.1577 0.6433 0.0234
C23 C 0.4051(3) 0.6008(2) 0.07897(8)
C24 C 0.4337(3) 0.7537(2) 0.10267(9)
H28 H 0.2966 0.7918 0.1128
H29 H 0.4853 0.8196 0.0741
C25 C 0.5945(3) 0.7486(2) 0.15523(8)
H30 H 0.6026 0.8459 0.1746
C26 C 0.5215(3) 0.63133(19) 0.19448(8)
H31 H 0.3745 0.6526 0.2037
C27 C 0.7304(3) 0.4741(2) 0.25330(7)
C28 C 0.9622(3) 0.4716(2) 0.27530(9)
H32 H 1.0121 0.3701 0.2778
H33 H 0.9810 0.5166 0.3128
H34 H 1.0437 0.5264 0.2495
C29 C 0.5915(4) 0.3957(2) 0.29243(8)
H35 H 0.4429 0.4025 0.2769
H36 H 0.6093 0.4416 0.3298
H37 H 0.6332 0.2925 0.2958
C30 C 0.8101(3) 0.7068(2) 0.13705(9)
H38 H 0.9120 0.6905 0.1708
H39 H 0.8644 0.7874 0.1147
C31 C 0.7882(3) 0.5654(2) 0.10099(8)
H40 H 0.9015 0.4958 0.1147
H41 H 0.8062 0.5896 0.0612
C32 C 0.6827(4) 0.2196(2) 0.09910(9)
H42 H 0.6792 0.1358 0.0733
H43 H 0.6193 0.1917 0.1334
H44 H 0.8298 0.2500 0.1091
loop_
_geom_bond_atom_site_label_1
_geom_bond_atom_site_label_2
_geom_bond_site_symmetry_1
_geom_bond_site_symmetry_2
O1 C2 1_555 1_555
O2 C3 1_555 1_555
O3 C10 1_555 1_555
C1 C2 1_555 1_555
C2 H1 1_555 1_555
C3 C4 1_555 1_555
C4 H2 1_555 1_555
C5 C1 1_555 1_555
C6 C3 1_555 1_555
H3 C6 1_555 1_555
H4 C6 1_555 1_555
C7 C1 1_555 1_555
H5 C7 1_555 1_555
C8 C7 1_555 1_555
H6 C8 1_555 1_555
H7 C8 1_555 1_555
C9 C8 1_555 1_555
H8 C9 1_555 1_555
C10 C2 1_555 1_555
H9 C10 1_555 1_555
C11 O1 1_555 1_555
C12 C11 1_555 1_555
H10 C12 1_555 1_555
H11 C12 1_555 1_555
H12 C12 1_555 1_555
C13 C11 1_555 1_555
H13 C13 1_555 1_555
H14 C13 1_555 1_555
H15 C13 1_555 1_555
C14 C9 1_555 1_555
H16 C14 1_555 1_555
H17 C14 1_555 1_555
C15 C1 1_555 1_555
H18 C15 1_555 1_555
H19 C15 1_555 1_555
C16 C5 1_555 1_555
H20 C16 1_555 1_555
H21 C16 1_555 1_555
H22 C16 1_555 1_555
O4 C17 1_555 1_555
O5 C26 1_555 1_555
O6 C21 1_555 1_555
C17 H23 1_555 1_555
C18 C17 1_555 1_555
C19 C18 1_555 1_555
H24 C19 1_555 1_555
C20 C19 1_555 1_555
H25 C20 1_555 1_555
H26 C20 1_555 1_555
C21 C20 1_555 1_555
C22 C21 1_555 1_555
H27 C22 1_555 1_555
C23 C18 1_555 1_555
C24 C23 1_555 1_555
H28 C24 1_555 1_555
H29 C24 1_555 1_555
C25 C24 1_555 1_555
H30 C25 1_555 1_555
C26 C17 1_555 1_555
H31 C26 1_555 1_555
C27 O4 1_555 1_555
C28 C27 1_555 1_555
H32 C28 1_555 1_555
H33 C28 1_555 1_555
H34 C28 1_555 1_555
C29 C27 1_555 1_555
H35 C29 1_555 1_555
H36 C29 1_555 1_555
H37 C29 1_555 1_555
C30 C25 1_555 1_555
H38 C30 1_555 1_555
H39 C30 1_555 1_555
C31 C18 1_555 1_555
H40 C31 1_555 1_555
H41 C31 1_555 1_555
C32 C19 1_555 1_555
H42 C32 1_555 1_555
H43 C32 1_555 1_555
H44 C32 1_555 1_555
O3 C11 1_555 1_555
C4 C5 1_555 1_555
C6 C7 1_555 1_555
C9 C10 1_555 1_555
C14 C15 1_555 1_555
O5 C27 1_555 1_555
C22 C23 1_555 1_555
C25 C26 1_555 1_555
C30 C31 1_555 1_555

#END
