
#######################################################################
#
#                 Cambridge Crystallographic Data Centre
#                                CCDC 
#
#######################################################################
#
# If this CIF has been generated from an entry in the Cambridge 
# Structural Database, then it will include bibliographic, chemical, 
# crystal, experimental, refinement or atomic coordinate data resulting 
# from the CCDC's data processing and validation procedures.
#
#######################################################################

data_MIMDER
_chemical_formula_moiety         'C53 H73 Br1 O4'
_chemical_name_systematic        
25-Hydroxy-26,28-di-n-propoxy-27-(3-bromopropoxy)-5,11,17,23-tetra-t-butylcalix(4)arene
_symmetry_cell_setting           orthorhombic
_symmetry_space_group_name_H-M   'P n a 21'
_symmetry_Int_Tables_number      33
_space_group_name_Hall           'P 2c -2n'
loop_
_symmetry_equiv_pos_site_id
_symmetry_equiv_pos_as_xyz
1 x,y,z
2 -x,-y,1/2+z
3 1/2+x,1/2-y,z
4 1/2-x,1/2+y,1/2+z
_cell_length_a                   26.9126(11)
_cell_length_b                   22.4394(9)
_cell_length_c                   8.7117(3)
_cell_angle_alpha                90
_cell_angle_beta                 90
_cell_angle_gamma                90
_cell_volume                     5261.02
_exptl_crystal_colour            white
_chemical_melting_point          194-195deg.C
_cell_formula_units_Z            4
_exptl_crystal_recrystallization_method dichloromethane/methanol
loop_
_atom_site_label
_atom_site_type_symbol
_atom_site_fract_x
_atom_site_fract_y
_atom_site_fract_z
Br1 Br 0.32079(3) 0.14721(5) 0.26757(13)
O1 O 0.16970(10) 0.24274(13) 0.3073(3)
C1 C 0.26801(17) 0.31727(17) -0.0013(5)
C2 C 0.26483(19) 0.2950(2) -0.1625(5)
H1 H 0.2952 0.3054 -0.2163
H2 H 0.2375 0.3147 -0.2140
O2 O 0.08671(13) 0.19472(14) 0.0090(4)
O3 O 0.18033(11) 0.33724(14) 0.0059(4)
C3 C 0.25724(16) 0.22787(18) -0.1722(5)
O4 O 0.16826(11) 0.23745(13) -0.1708(4)
H3 H 0.1729 0.2669 -0.1170
C4 C 0.29813(18) 0.1895(2) -0.1810(6)
H4 H 0.3298 0.2060 -0.1813
C5 C 0.29349(17) 0.1279(2) -0.1893(5)
C6 C 0.24637(17) 0.10569(19) -0.1858(5)
H5 H 0.2422 0.0646 -0.1904
C7 C 0.20410(17) 0.14135(18) -0.1757(5)
C8 C 0.15121(18) 0.1150(2) -0.1619(6)
H6 H 0.1275 0.1414 -0.2108
H7 H 0.1499 0.0767 -0.2137
C9 C 0.13782(17) 0.10718(18) 0.0043(5)
C10 C 0.15815(19) 0.0595(2) 0.0851(6)
H8 H 0.1775 0.0322 0.0315
C11 C 0.15105(19) 0.0503(2) 0.2431(6)
C12 C 0.12204(18) 0.0939(2) 0.3165(6)
H9 H 0.1164 0.0895 0.4211
C13 C 0.10162(17) 0.14211(19) 0.2453(6)
C14 C 0.0708(2) 0.1870(2) 0.3318(7)
H10 H 0.0734 0.1773 0.4400
H11 H 0.0364 0.1805 0.3028
C15 C 0.08094(16) 0.25287(18) 0.3160(6)
C16 C 0.04079(16) 0.2916(2) 0.3094(6)
H12 H 0.0091 0.2750 0.3061
C17 C 0.04443(16) 0.35362(18) 0.3073(6)
C18 C 0.09271(16) 0.37616(19) 0.3103(6)
H13 H 0.0969 0.4173 0.3093
C19 C 0.13497(16) 0.34032(19) 0.3147(5)
C20 C 0.18432(17) 0.3710(2) 0.3295(7)
H14 H 0.1938 0.3686 0.4368
H15 H 0.1787 0.4128 0.3074
C21 C 0.22926(16) 0.35193(18) 0.2364(6)
C22 C 0.27538(17) 0.3517(2) 0.3032(6)
H16 H 0.2779 0.3628 0.4059
C23 C 0.31851(17) 0.3360(2) 0.2259(6)
C24 C 0.31250(17) 0.31763(19) 0.0748(6)
H17 H 0.3405 0.3048 0.0219
C25 C 0.22603(16) 0.33654(18) 0.0817(6)
C26 C 0.12874(14) 0.27928(18) 0.3162(5)
C27 C 0.10877(16) 0.14715(18) 0.0840(6)
C28 C 0.21044(16) 0.2026(2) -0.1708(5)
C29 C 0.36986(19) 0.3391(3) 0.3070(8)
C30 C 0.3672(3) 0.3086(4) 0.4598(11)
H18 H 0.3609 0.2669 0.4448
H19 H 0.3408 0.3257 0.5195
H20 H 0.3982 0.3137 0.5130
C31 C 0.3802(3) 0.4069(4) 0.3358(11)
H21 H 0.4118 0.4114 0.3860
H22 H 0.3545 0.4232 0.3996
H23 H 0.3808 0.4276 0.2394
C32 C 0.4098(2) 0.3139(6) 0.2095(10)
H24 H 0.4038 0.2721 0.1935
H25 H 0.4413 0.3190 0.2595
H26 H 0.4102 0.3340 0.1123
C33 C 0.3386(2) 0.0873(2) -0.2016(7)
C34 C 0.3396(4) 0.0430(3) -0.0669(9)
H27 H 0.3682 0.0177 -0.0761
H28 H 0.3100 0.0192 -0.0687
H29 H 0.3413 0.0646 0.0281
C35 C 0.3346(3) 0.0492(4) -0.3482(10)
H30 H 0.3631 0.0236 -0.3559
H31 H 0.3332 0.0748 -0.4363
H32 H 0.3050 0.0254 -0.3436
C36 C 0.3875(2) 0.1197(3) -0.2004(14)
H33 H 0.4141 0.0914 -0.2086
H34 H 0.3907 0.1416 -0.1063
H35 H 0.3888 0.1468 -0.2856
C37 C 0.1707(2) -0.0050(2) 0.3252(7)
C38 C 0.1876(5) 0.0082(4) 0.4812(10)
H36 H 0.1612 0.0269 0.5376
H37 H 0.2157 0.0345 0.4770
H38 H 0.1970 -0.0282 0.5315
C39 C 0.1281(4) -0.0505(3) 0.3332(14)
H39 H 0.1006 -0.0335 0.3883
H40 H 0.1393 -0.0857 0.3852
H41 H 0.1177 -0.0607 0.2311
C40 C 0.2115(4) -0.0354(4) 0.2312(11)
H42 H 0.2395 -0.0092 0.2225
H43 H 0.1990 -0.0445 0.1306
H44 H 0.2215 -0.0715 0.2814
C41 C -0.00091(17) 0.3941(2) 0.3032(7)
C42 C -0.0336(6) 0.3753(8) 0.184(3)
H45 H -0.0621 0.4009 0.1812
H46 H -0.0441 0.3350 0.2029
H47 H -0.0166 0.3772 0.0871
C43 C -0.0236(9) 0.3951(12) 0.447(2)
H48 H -0.0521 0.4208 0.4431
H49 H -0.0005 0.4097 0.5216
H50 H -0.0339 0.3556 0.4738
C44 C 0.0119(4) 0.4565(5) 0.320(3)
H51 H -0.0178 0.4801 0.3172
H52 H 0.0336 0.4682 0.2382
H53 H 0.0284 0.4624 0.4168
C45 C 0.0384(3) 0.1837(4) -0.0496(14)
C46 C 0.0252(12) 0.2452(16) -0.188(7)
C48 C -0.0153(8) 0.2243(13) -0.252(3)
C49 C 0.1900(2) 0.2228(3) 0.4485(6)
H54 H 0.1671 0.1952 0.4968
H55 H 0.1944 0.2565 0.5168
C50 C 0.2378(3) 0.1933(4) 0.4253(8)
H56 H 0.2630 0.2187 0.4713
H57 H 0.2371 0.1568 0.4847
C51 C 0.2549(3) 0.1782(4) 0.2764(9)
H58 H 0.2533 0.2135 0.2123
H59 H 0.2324 0.1489 0.2331
C52 C 0.1650(2) 0.3940(3) -0.0479(9)
H60 H 0.1928 0.4141 -0.0964
H61 H 0.1538 0.4182 0.0377
C53 C 0.1237(5) 0.3862(5) -0.1609(19)
H62 H 0.1336 0.3556 -0.2331
H63 H 0.0950 0.3712 -0.1055
C54 C 0.1093(6) 0.4328(10) -0.240(2)
H64 H 0.0831 0.4215 -0.3089
H65 H 0.1369 0.4480 -0.2984
H66 H 0.0975 0.4632 -0.1716
C47? C 0.0233(15) 0.2314(17) -0.135(4)
loop_
_geom_bond_atom_site_label_1
_geom_bond_atom_site_label_2
_geom_bond_site_symmetry_1
_geom_bond_site_symmetry_2
Br1 C51 1_555 1_555
O1 C26 1_555 1_555
C1 C2 1_555 1_555
C2 H1 1_555 1_555
H2 C2 1_555 1_555
O2 C27 1_555 1_555
O3 C25 1_555 1_555
C3 C2 1_555 1_555
O4 H3 1_555 1_555
C4 C3 1_555 1_555
H4 C4 1_555 1_555
C5 C4 1_555 1_555
C6 C5 1_555 1_555
H5 C6 1_555 1_555
C7 C6 1_555 1_555
C8 C7 1_555 1_555
H6 C8 1_555 1_555
H7 C8 1_555 1_555
C9 C8 1_555 1_555
C10 C9 1_555 1_555
H8 C10 1_555 1_555
C11 C10 1_555 1_555
C12 C11 1_555 1_555
H9 C12 1_555 1_555
C13 C12 1_555 1_555
C14 C13 1_555 1_555
H10 C14 1_555 1_555
H11 C14 1_555 1_555
C15 C14 1_555 1_555
C16 C15 1_555 1_555
H12 C16 1_555 1_555
C17 C16 1_555 1_555
C18 C17 1_555 1_555
H13 C18 1_555 1_555
C19 C18 1_555 1_555
C20 C19 1_555 1_555
H14 C20 1_555 1_555
H15 C20 1_555 1_555
C21 C20 1_555 1_555
C22 C21 1_555 1_555
H16 C22 1_555 1_555
C23 C22 1_555 1_555
C24 C1 1_555 1_555
H17 C24 1_555 1_555
C25 C1 1_555 1_555
C26 C15 1_555 1_555
C27 C9 1_555 1_555
C28 C3 1_555 1_555
C29 C23 1_555 1_555
C30 C29 1_555 1_555
H18 C30 1_555 1_555
H19 C30 1_555 1_555
H20 C30 1_555 1_555
C31 C29 1_555 1_555
H21 C31 1_555 1_555
H22 C31 1_555 1_555
H23 C31 1_555 1_555
C32 C29 1_555 1_555
H24 C32 1_555 1_555
H25 C32 1_555 1_555
H26 C32 1_555 1_555
C33 C5 1_555 1_555
C34 C33 1_555 1_555
H27 C34 1_555 1_555
H28 C34 1_555 1_555
H29 C34 1_555 1_555
C35 C33 1_555 1_555
H30 C35 1_555 1_555
H31 C35 1_555 1_555
H32 C35 1_555 1_555
C36 C33 1_555 1_555
H33 C36 1_555 1_555
H34 C36 1_555 1_555
H35 C36 1_555 1_555
C37 C11 1_555 1_555
C38 C37 1_555 1_555
H36 C38 1_555 1_555
H37 C38 1_555 1_555
H38 C38 1_555 1_555
C39 C37 1_555 1_555
H39 C39 1_555 1_555
H40 C39 1_555 1_555
H41 C39 1_555 1_555
C40 C37 1_555 1_555
H42 C40 1_555 1_555
H43 C40 1_555 1_555
H44 C40 1_555 1_555
C41 C17 1_555 1_555
C42 C41 1_555 1_555
H45 C42 1_555 1_555
H46 C42 1_555 1_555
H47 C42 1_555 1_555
C43 C41 1_555 1_555
H48 C43 1_555 1_555
H49 C43 1_555 1_555
H50 C43 1_555 1_555
C44 C41 1_555 1_555
H51 C44 1_555 1_555
H52 C44 1_555 1_555
H53 C44 1_555 1_555
C45 O2 1_555 1_555
C46 C45 1_555 1_555
C48 C46 1_555 1_555
C49 O1 1_555 1_555
H54 C49 1_555 1_555
H55 C49 1_555 1_555
C50 C49 1_555 1_555
H56 C50 1_555 1_555
H57 C50 1_555 1_555
C51 C50 1_555 1_555
H58 C51 1_555 1_555
H59 C51 1_555 1_555
C52 O3 1_555 1_555
H60 C52 1_555 1_555
H61 C52 1_555 1_555
C53 C52 1_555 1_555
H62 C53 1_555 1_555
H63 C53 1_555 1_555
C54 C53 1_555 1_555
H64 C54 1_555 1_555
H65 C54 1_555 1_555
H66 C54 1_555 1_555
O4 C28 1_555 1_555
C7 C28 1_555 1_555
C13 C27 1_555 1_555
C19 C26 1_555 1_555
C21 C25 1_555 1_555
C23 C24 1_555 1_555

#END
