
#######################################################################
#
#                 Cambridge Crystallographic Data Centre
#                                CCDC 
#
#######################################################################
#
# If this CIF has been generated from an entry in the Cambridge 
# Structural Database, then it will include bibliographic, chemical, 
# crystal, experimental, refinement or atomic coordinate data resulting 
# from the CCDC's data processing and validation procedures.
#
#######################################################################

data_MIMHAR
_chemical_formula_moiety         'C19 H18 P1 1+,C1 H1 O3 1-,H2 O1'
_chemical_name_systematic        
'Triphenyl(methyl)phosphonium bicarbonate monohydrate'
_symmetry_cell_setting           triclinic
_symmetry_space_group_name_H-M   'P 1'
_symmetry_Int_Tables_number      1
_space_group_name_Hall           'P 1'
loop_
_symmetry_equiv_pos_site_id
_symmetry_equiv_pos_as_xyz
1 x,y,z
_cell_length_a                   10.399(3)
_cell_length_b                   10.364(3)
_cell_length_c                   9.497(2)
_cell_angle_alpha                105.16(2)
_cell_angle_beta                 101.90(2)
_cell_angle_gamma                104.09(2)
_cell_volume                     917.522
_exptl_crystal_colour            colorless
_exptl_crystal_description       prism
_chemical_melting_point          108-110deg.C.(dec.)
_cell_formula_units_Z            2
loop_
_atom_site_label
_atom_site_type_symbol
_atom_site_fract_x
_atom_site_fract_y
_atom_site_fract_z
P1 P 0.39275(9) -0.00451(10) 0.87311(11)
C3 C 0.4893(4) 0.1434(4) 0.8333(5)
C4 C 0.6331(5) 0.1973(5) 0.8930(6)
H3 H 0.6802 0.1585 0.9564
C5 C 0.7039(6) 0.3083(6) 0.8570(7)
H4 H 0.7997 0.3450 0.8966
C6 C 0.6351(6) 0.3659(6) 0.7631(7)
H5 H 0.6841 0.4426 0.7414
C7 C 0.4941(6) 0.3102(6) 0.7014(7)
H6 H 0.4478 0.3473 0.6353
C8 C 0.4207(5) 0.1988(5) 0.7373(5)
H7 H 0.3250 0.1617 0.6964
C9 C 0.4574(4) 0.0085(5) 1.0688(5)
C10 C 0.5751(5) -0.0278(5) 1.1142(6)
H8 H 0.6185 -0.0630 1.0434
C11 C 0.6277(5) -0.0109(6) 1.2676(7)
H9 H 0.7073 -0.0338 1.2998
C12 C 0.5623(6) 0.0395(6) 1.3715(6)
H10 H 0.5979 0.0504 1.4736
C13 C 0.4447(6) 0.0740(6) 1.3256(6)
H11 H 0.4011 0.1082 1.3966
C14 C 0.3909(5) 0.0579(5) 1.1736(5)
H12 H 0.3107 0.0801 1.1421
C15 C 0.4062(4) -0.1627(4) 0.7538(5)
C16 C 0.4841(5) -0.1613(5) 0.6523(6)
H13 H 0.5389 -0.0760 0.6516
C17 C 0.4808(7) -0.2873(6) 0.5511(7)
H14 H 0.5313 -0.2861 0.4810
C18 C 0.4029(7) -0.4133(6) 0.5550(7)
H15 H 0.4014 -0.4973 0.4877
C19 C 0.3277(7) -0.4163(6) 0.6565(8)
H16 H 0.2747 -0.5022 0.6577
C20 C 0.3303(5) -0.2916(5) 0.7579(7)
H17 H 0.2810 -0.2940 0.8290
C21 C 0.2152(4) -0.0117(6) 0.8355(6)
H18 H 0.1638 -0.0894 0.8594
H19 H 0.1782 -0.0242 0.7297
H20 H 0.2082 0.0745 0.8970
P2 P -0.12515(12) 0.51451(12) 0.42173(14)
C22 C 0.0182(4) 0.5904(5) 0.3608(5)
C23 C 0.0640(5) 0.5040(6) 0.2596(6)
H21 H 0.0244 0.4068 0.2287
C24 C 0.1690(6) 0.5619(7) 0.2037(7)
H22 H 0.2001 0.5039 0.1354
C25 C 0.2268(6) 0.7059(7) 0.2499(7)
H23 H 0.2970 0.7451 0.2122
C26 C 0.1818(6) 0.7920(6) 0.3509(7)
H24 H 0.2220 0.8892 0.3819
C27 C 0.0776(5) 0.7355(5) 0.4068(6)
H25 H 0.0470 0.7942 0.4751
C28 C -0.1064(5) 0.6099(5) 0.6160(5)
C29 C -0.0385(5) 0.5729(6) 0.7332(7)
H26 H -0.0006 0.4999 0.7125
C30 C -0.0279(7) 0.6471(8) 0.8828(8)
H27 H 0.0156 0.6217 0.9622
C31 C -0.0805(7) 0.7568(7) 0.9148(7)
H28 H -0.0721 0.8059 1.0151
C32 C -0.1451(6) 0.7933(7) 0.7984(7)
H29 H -0.1811 0.8676 0.8200
C33 C -0.1583(6) 0.7219(5) 0.6488(6)
H30 H -0.2016 0.7488 0.5706
C34 C -0.2798(5) 0.5168(5) 0.2967(6)
C35 C -0.4066(5) 0.4221(6) 0.2809(7)
H31 H -0.4126 0.3624 0.3389
C36 C -0.5244(6) 0.4184(7) 0.1766(8)
H32 H -0.6097 0.3556 0.1653
C37 C -0.5167(6) 0.5046(7) 0.0918(7)
H33 H -0.5961 0.4995 0.0214
C38 C -0.3923(7) 0.5996(9) 0.1092(9)
H34 H -0.3881 0.6598 0.0516
C39 C -0.2731(6) 0.6067(7) 0.2118(8)
H35 H -0.1888 0.6715 0.2235
C40 C -0.1351(7) 0.3357(5) 0.4075(8)
H36 H -0.2081 0.2968 0.4466
H37 H -0.0487 0.3339 0.4655
H38 H -0.1540 0.2809 0.3026
C1 C 0.0612(6) 0.0813(7) 0.4157(7)
O1 O 0.1603(5) 0.1825(6) 0.4010(5)
H1 H 0.1423 0.1812 0.3123
O2 O 0.0740(5) 0.0704(6) 0.5451(5)
O3 O -0.0388(4) 0.0071(5) 0.2995(5)
C2 C 0.0081(6) 0.1671(6) 0.0388(6)
O4 O -0.0997(4) 0.1016(4) 0.0765(4)
H2 H -0.0721 0.0808 0.1523
O5 O 0.1286(4) 0.1916(5) 0.1232(5)
O6 O -0.0172(5) 0.2050(6) -0.0745(5)
O7 O 0.1423(7) 0.3431(7) 0.7791(10)
H39 H 0.122(8) 0.315(8) 0.828(8)
H40 H 0.131(10) 0.259(11) 0.690(11)
O8 O -0.1823(6) 0.0361(8) 0.6256(8)
H41 H -0.141(10) 0.083(10) 0.721(12)
H42 H -0.127(6) 0.007(6) 0.588(6)
loop_
_geom_bond_atom_site_label_1
_geom_bond_atom_site_label_2
_geom_bond_site_symmetry_1
_geom_bond_site_symmetry_2
P1 C3 1_555 1_555
P2 C22 1_555 1_555
C1 O1 1_555 1_555
C2 O4 1_555 1_555
O1 H1 1_555 1_555
O2 C1 1_555 1_555
O3 C1 1_555 1_555
O4 H2 1_555 1_555
O5 C2 1_555 1_555
O6 C2 1_555 1_555
C3 C4 1_555 1_555
C4 H3 1_555 1_555
C5 C4 1_555 1_555
H4 C5 1_555 1_555
C6 C5 1_555 1_555
H5 C6 1_555 1_555
C7 C6 1_555 1_555
H6 C7 1_555 1_555
C8 C3 1_555 1_555
H7 C8 1_555 1_555
C9 P1 1_555 1_555
C10 C9 1_555 1_555
H8 C10 1_555 1_555
C11 C10 1_555 1_555
H9 C11 1_555 1_555
C12 C11 1_555 1_555
H10 C12 1_555 1_555
C13 C12 1_555 1_555
H11 C13 1_555 1_555
C14 C9 1_555 1_555
H12 C14 1_555 1_555
C15 P1 1_555 1_555
C16 C15 1_555 1_555
H13 C16 1_555 1_555
C17 C16 1_555 1_555
H14 C17 1_555 1_555
C18 C17 1_555 1_555
H15 C18 1_555 1_555
C19 C18 1_555 1_555
H16 C19 1_555 1_555
C20 C15 1_555 1_555
H17 C20 1_555 1_555
C21 P1 1_555 1_555
H18 C21 1_555 1_555
H19 C21 1_555 1_555
H20 C21 1_555 1_555
C22 C23 1_555 1_555
C23 H21 1_555 1_555
C24 C23 1_555 1_555
H22 C24 1_555 1_555
C25 C24 1_555 1_555
H23 C25 1_555 1_555
C26 C25 1_555 1_555
H24 C26 1_555 1_555
C27 C22 1_555 1_555
H25 C27 1_555 1_555
C28 P2 1_555 1_555
C29 C28 1_555 1_555
H26 C29 1_555 1_555
C30 C29 1_555 1_555
H27 C30 1_555 1_555
C31 C30 1_555 1_555
H28 C31 1_555 1_555
C32 C31 1_555 1_555
H29 C32 1_555 1_555
C33 C28 1_555 1_555
H30 C33 1_555 1_555
C34 P2 1_555 1_555
C35 C34 1_555 1_555
H31 C35 1_555 1_555
C36 C35 1_555 1_555
H32 C36 1_555 1_555
C37 C36 1_555 1_555
H33 C37 1_555 1_555
C38 C37 1_555 1_555
H34 C38 1_555 1_555
C39 C34 1_555 1_555
H35 C39 1_555 1_555
C40 P2 1_555 1_555
H36 C40 1_555 1_555
H37 C40 1_555 1_555
H38 C40 1_555 1_555
O7 H39 1_555 1_555
H40 O7 1_555 1_555
O8 H41 1_555 1_555
H42 O8 1_555 1_555
C7 C8 1_555 1_555
C13 C14 1_555 1_555
C19 C20 1_555 1_555
C26 C27 1_555 1_555
C32 C33 1_555 1_555
C38 C39 1_555 1_555

#END
