
#######################################################################
#
#                 Cambridge Crystallographic Data Centre
#                                CCDC 
#
#######################################################################
#
# If this CIF has been generated from an entry in the Cambridge 
# Structural Database, then it will include bibliographic, chemical, 
# crystal, experimental, refinement or atomic coordinate data resulting 
# from the CCDC's data processing and validation procedures.
#
#######################################################################

data_MIMMUR
_chemical_formula_moiety         'C25 H23 N1 O5 S1'
_chemical_name_systematic        
4-Allyl-1-methyl-8,9-methylenedioxy-3-(4-toluenesulfonyl)-3,4-dihydro-1H-benzo(h)quinoline-2-one
_symmetry_cell_setting           monoclinic
_symmetry_space_group_name_H-M   'P 21/n'
_symmetry_Int_Tables_number      14
_space_group_name_Hall           '-P 2yn'
loop_
_symmetry_equiv_pos_site_id
_symmetry_equiv_pos_as_xyz
1 x,y,z
2 1/2-x,1/2+y,1/2-z
3 -x,-y,-z
4 1/2+x,1/2-y,1/2+z
_cell_length_a                   12.468(2)
_cell_length_b                   9.4395(14)
_cell_length_c                   19.221(3)
_cell_angle_alpha                90
_cell_angle_beta                 106.811(3)
_cell_angle_gamma                90
_cell_volume                     2165.48
_exptl_crystal_colour            colorless
_chemical_melting_point          '227.1-228.7 deg.C'
_cell_formula_units_Z            4
_exptl_crystal_recrystallization_method 'n-hexane/ethyl acetate'
loop_
_atom_site_label
_atom_site_type_symbol
_atom_site_fract_x
_atom_site_fract_y
_atom_site_fract_z
S1 S 0.67566(6) 0.05088(8) 0.00758(4)
N1 N 0.70689(18) 0.4092(2) 0.06531(12)
O1 O 0.63329(19) 0.0442(3) -0.07013(12)
O2 O 0.66608(17) -0.0721(2) 0.04968(13)
O3 O 0.58224(17) 0.3897(2) -0.04606(11)
O4 O 1.13207(19) 0.5574(3) 0.14659(17)
O5 O 1.2160(2) 0.4613(3) 0.25890(18)
C1 C 0.5980(2) 0.1920(3) 0.03464(14)
H1 H 0.5195 0.1774 0.0066
C2 C 0.6295(2) 0.3377(3) 0.01262(14)
C3 C 0.7658(2) 0.3437(3) 0.13285(13)
C4 C 0.8800(2) 0.3785(3) 0.16723(14)
C5 C 0.9447(3) 0.4623(3) 0.13342(18)
H2 H 0.9132 0.5015 0.0877
C6 C 1.0540(3) 0.4835(3) 0.1697(2)
C7 C 1.2328(3) 0.5526(5) 0.2058(3)
H3 H 1.2944 0.5188 0.1889
H4 H 1.2513 0.6467 0.2259
C8 C 1.1048(3) 0.4237(3) 0.2374(2)
C9 C 1.0482(3) 0.3411(4) 0.27189(18)
H5 H 1.0830 0.3031 0.3175
C10 C 0.9325(2) 0.3140(3) 0.23561(15)
C11 C 0.8719(3) 0.2187(4) 0.26553(16)
H6 H 0.9040 0.1824 0.3119
C12 C 0.7666(3) 0.1786(4) 0.22744(15)
H7 H 0.7299 0.1095 0.2465
C13 C 0.7122(2) 0.2397(3) 0.15994(14)
C14 C 0.5996(2) 0.1890(3) 0.11420(14)
H8 H 0.5894 0.0908 0.1277
C15 C 0.5019(2) 0.2787(3) 0.12457(17)
H9 H 0.5189 0.3784 0.1217
H10 H 0.4344 0.2578 0.0858
C16 C 0.4824(3) 0.2495(5) 0.1948(2)
H11 H 0.4594 0.1578 0.2010
C17 C 0.4924(4) 0.3290(5) 0.2462(2)
H12 H 0.5152 0.4222 0.2436
H13 H 0.4772 0.2965 0.2881
C18 C 0.7086(3) 0.5641(3) 0.0554(2)
H14 H 0.6649 0.5880 0.0070
H15 H 0.7845 0.5951 0.0630
H16 H 0.6776 0.6098 0.0898
C19 C 0.8180(2) 0.0991(3) 0.03001(14)
C20 C 0.8922(2) 0.0466(3) 0.09251(16)
H17 H 0.8677 -0.0119 0.1238
C21 C 1.0051(2) 0.0836(3) 0.10759(17)
H18 H 1.0558 0.0490 0.1497
C22 C 1.0430(2) 0.1683(3) 0.06279(17)
C23 C 0.9664(3) 0.2182(4) 0.00003(18)
H19 H 0.9912 0.2762 -0.0312
C24 C 0.8539(3) 0.1838(4) -0.01716(16)
H20 H 0.8035 0.2172 -0.0597
C25 C 1.1650(3) 0.2075(4) 0.0810(2)
H21 H 1.2051 0.1643 0.1263
H22 H 1.1726 0.3086 0.0852
H23 H 1.1950 0.1747 0.0432
loop_
_geom_bond_atom_site_label_1
_geom_bond_atom_site_label_2
_geom_bond_site_symmetry_1
_geom_bond_site_symmetry_2
S1 O1 1_555 1_555
N1 C2 1_555 1_555
O2 S1 1_555 1_555
O3 C2 1_555 1_555
O4 C6 1_555 1_555
O5 C7 1_555 1_555
C1 S1 1_555 1_555
H1 C1 1_555 1_555
C2 C1 1_555 1_555
C3 N1 1_555 1_555
C4 C3 1_555 1_555
C5 C4 1_555 1_555
H2 C5 1_555 1_555
C6 C5 1_555 1_555
C7 O4 1_555 1_555
H3 C7 1_555 1_555
H4 C7 1_555 1_555
C8 O5 1_555 1_555
C9 C8 1_555 1_555
H5 C9 1_555 1_555
C10 C4 1_555 1_555
C11 C10 1_555 1_555
H6 C11 1_555 1_555
C12 C11 1_555 1_555
H7 C12 1_555 1_555
C13 C3 1_555 1_555
C14 C1 1_555 1_555
H8 C14 1_555 1_555
C15 C14 1_555 1_555
H9 C15 1_555 1_555
H10 C15 1_555 1_555
C16 C15 1_555 1_555
H11 C16 1_555 1_555
C17 C16 1_555 1_555
H12 C17 1_555 1_555
H13 C17 1_555 1_555
C18 N1 1_555 1_555
H14 C18 1_555 1_555
H15 C18 1_555 1_555
H16 C18 1_555 1_555
C19 S1 1_555 1_555
C20 C19 1_555 1_555
H17 C20 1_555 1_555
C21 C20 1_555 1_555
H18 C21 1_555 1_555
C22 C21 1_555 1_555
C23 C22 1_555 1_555
H19 C23 1_555 1_555
C24 C19 1_555 1_555
H20 C24 1_555 1_555
C25 C22 1_555 1_555
H21 C25 1_555 1_555
H22 C25 1_555 1_555
H23 C25 1_555 1_555
C6 C8 1_555 1_555
C9 C10 1_555 1_555
C12 C13 1_555 1_555
C13 C14 1_555 1_555
C23 C24 1_555 1_555

#END
