
#######################################################################
#
#                 Cambridge Crystallographic Data Centre
#                                CCDC 
#
#######################################################################
#
# If this CIF has been generated from an entry in the Cambridge 
# Structural Database, then it will include bibliographic, chemical, 
# crystal, experimental, refinement or atomic coordinate data resulting 
# from the CCDC's data processing and validation procedures.
#
#######################################################################

data_MINFAS
_chemical_formula_moiety         'C27 H23 N3 O2'
_chemical_name_systematic        
3-(1,3-Diphenylpropan-2-yl)-4-methyl-6-phenyl[1,2]oxazolo[3,4-d]pyridazin-7(6H)-one
_symmetry_cell_setting           triclinic
_symmetry_space_group_name_H-M   'P -1'
_symmetry_Int_Tables_number      2
_space_group_name_Hall           '-P 1'
loop_
_symmetry_equiv_pos_site_id
_symmetry_equiv_pos_as_xyz
1 x,y,z
2 -x,-y,-z
_cell_length_a                   7.5163(4)
_cell_length_b                   9.6774(5)
_cell_length_c                   15.9053(8)
_cell_angle_alpha                86.7980(10)
_cell_angle_beta                 83.5120(10)
_cell_angle_gamma                69.3850(10)
_cell_volume                     1075.75
_exptl_crystal_colour            'light yellow'
_exptl_crystal_description       prism
_cell_formula_units_Z            2
loop_
_atom_site_label
_atom_site_type_symbol
_atom_site_fract_x
_atom_site_fract_y
_atom_site_fract_z
O1 O 0.00502(11) 0.47448(8) 0.64153(5)
N1 N 0.15001(13) 0.33590(10) 0.65000(6)
C1 C 0.25346(14) 0.36020(11) 0.70485(6)
C2 C 0.42780(15) 0.24940(11) 0.73381(6)
O2 O 0.49243(11) 0.11970(8) 0.71482(5)
N2 N 0.51293(12) 0.31237(9) 0.78613(5)
N3 N 0.44085(12) 0.45480(9) 0.81882(5)
C3 C 0.28457(14) 0.54911(11) 0.79389(6)
C4 C 0.18507(14) 0.50724(11) 0.73305(6)
C5 C 0.02762(15) 0.57547(12) 0.69057(6)
C6 C 0.69832(14) 0.22965(11) 0.81342(7)
C7 C 0.85159(15) 0.16976(11) 0.75336(7)
H1 H 0.8334 0.1771 0.6949
C8 C 1.03243(15) 0.09880(12) 0.77969(7)
H2 H 1.1385 0.0572 0.739
C9 C 1.05866(16) 0.08840(12) 0.86484(7)
H3 H 1.1823 0.0391 0.8826
C10 C 0.90441(16) 0.15001(12) 0.92425(7)
H4 H 0.9229 0.1434 0.9827
C11 C 0.72289(15) 0.22140(11) 0.89891(7)
H5 H 0.6171 0.264 0.9396
C12 C 0.21729(16) 0.69938(12) 0.83066(8)
H6 H 0.3036 0.7028 0.8717
H7 H 0.0879 0.7216 0.8591
H8 H 0.2161 0.7725 0.7854
C13 C -0.11611(15) 0.72853(12) 0.68583(7)
H9 H -0.0688 0.7945 0.7162
C14 C -0.31156(15) 0.73629(12) 0.73267(7)
H10 H -0.4109 0.831 0.7186
H11 H -0.3481 0.6549 0.7141
C15 C -0.29925(14) 0.72404(12) 0.82684(7)
C16 C -0.24282(15) 0.58718(12) 0.86891(7)
H12 H -0.222 0.500 0.8387
C17 C -0.21682(16) 0.57717(13) 0.95421(7)
H13 H -0.1802 0.4835 0.9822
C18 C -0.24399(15) 0.70303(13) 0.99886(7)
H14 H -0.2237 0.6958 1.0571
C19 C -0.30114(15) 0.83994(13) 0.95784(7)
H15 H -0.3209 0.9268 0.9882
C20 C -0.32932(15) 0.85002(12) 0.87290(7)
H16 H -0.3697 0.9442 0.8456
C21 C -0.12730(16) 0.78383(13) 0.59301(7)
H17 H -0.1683 0.7183 0.5602
H18 H -0.2235 0.8846 0.5907
C22 C 0.13242(17) 0.89367(13) 0.57720(7)
H19 H 0.0532 0.9691 0.6146
C23 C 0.31273(18) 0.89326(13) 0.54685(7)
H20 H 0.357 0.9668 0.5641
C24 C 0.42832(17) 0.78538(14) 0.49126(7)
H21 H 0.5519 0.7848 0.47
C25 C 0.36233(18) 0.67858(14) 0.46702(7)
H22 H 0.4407 0.6048 0.4285
C26 C 0.18236(18) 0.67824(13) 0.49847(7)
H23 H 0.1394 0.6036 0.4817
C27 C 0.06465(16) 0.78583(12) 0.55409(7)
loop_
_geom_bond_atom_site_label_1
_geom_bond_atom_site_label_2
_geom_bond_site_symmetry_1
_geom_bond_site_symmetry_2
O1 N1 1_555 1_555
N1 C1 1_555 1_555
C1 C2 1_555 1_555
C2 O2 1_555 1_555
N2 C2 1_555 1_555
N3 N2 1_555 1_555
C3 N3 1_555 1_555
C4 C1 1_555 1_555
C5 O1 1_555 1_555
C6 N2 1_555 1_555
C7 C6 1_555 1_555
H1 C7 1_555 1_555
C8 C7 1_555 1_555
H2 C8 1_555 1_555
C9 C8 1_555 1_555
H3 C9 1_555 1_555
C10 C9 1_555 1_555
H4 C10 1_555 1_555
C11 C6 1_555 1_555
H5 C11 1_555 1_555
C12 C3 1_555 1_555
H6 C12 1_555 1_555
H7 C12 1_555 1_555
H8 C12 1_555 1_555
C13 C5 1_555 1_555
H9 C13 1_555 1_555
C14 C13 1_555 1_555
H10 C14 1_555 1_555
H11 C14 1_555 1_555
C15 C14 1_555 1_555
C16 C15 1_555 1_555
H12 C16 1_555 1_555
C17 C16 1_555 1_555
H13 C17 1_555 1_555
C18 C17 1_555 1_555
H14 C18 1_555 1_555
C19 C18 1_555 1_555
H15 C19 1_555 1_555
C20 C15 1_555 1_555
H16 C20 1_555 1_555
C21 C13 1_555 1_555
H17 C21 1_555 1_555
H18 C21 1_555 1_555
C22 H19 1_555 1_555
C23 C22 1_555 1_555
H20 C23 1_555 1_555
C24 C23 1_555 1_555
H21 C24 1_555 1_555
C25 C24 1_555 1_555
H22 C25 1_555 1_555
C26 C25 1_555 1_555
H23 C26 1_555 1_555
C27 C21 1_555 1_555
C3 C4 1_555 1_555
C4 C5 1_555 1_555
C10 C11 1_555 1_555
C19 C20 1_555 1_555
C22 C27 1_555 1_555
C26 C27 1_555 1_555

#END
