
#######################################################################
#
#                 Cambridge Crystallographic Data Centre
#                                CCDC 
#
#######################################################################
#
# If this CIF has been generated from an entry in the Cambridge 
# Structural Database, then it will include bibliographic, chemical, 
# crystal, experimental, refinement or atomic coordinate data resulting 
# from the CCDC's data processing and validation procedures.
#
#######################################################################

data_MINVAH
_chemical_formula_moiety         'C31 H18 F10 I2 O2'
_chemical_name_systematic        
2,7-Di-iodo-9,9-bis(3-(pentafluorophenoxy)propyl)fluorene
_symmetry_cell_setting           triclinic
_symmetry_space_group_name_H-M   'P -1'
_symmetry_Int_Tables_number      2
_space_group_name_Hall           '-P 1'
loop_
_symmetry_equiv_pos_site_id
_symmetry_equiv_pos_as_xyz
1 x,y,z
2 -x,-y,-z
_cell_length_a                   8.0245(5)
_cell_length_b                   17.6262(10)
_cell_length_c                   21.6275(14)
_cell_angle_alpha                101.75(1)
_cell_angle_beta                 94.54(1)
_cell_angle_gamma                90.25(1)
_cell_volume                     2984.87
_exptl_crystal_colour            colorless
_exptl_crystal_description       plate
_chemical_melting_point          112.3-112.9deg.C
_cell_formula_units_Z            4
_exptl_crystal_recrystallization_method methanol
loop_
_atom_site_label
_atom_site_type_symbol
_atom_site_fract_x
_atom_site_fract_y
_atom_site_fract_z
I1 I 0.31078(2) -0.197105(11) 0.117080(11)
I2 I 1.24897(2) 0.252513(11) 0.098788(11)
O1 O 1.1024(3) -0.04549(16) 0.32346(12)
O2 O 0.6168(3) 0.24002(14) 0.29118(12)
F1 F 1.3094(3) -0.00232(14) 0.43348(11)
F2 F 1.4437(3) -0.1092(2) 0.49470(13)
F3 F 1.3837(4) -0.26304(18) 0.44594(14)
F4 F 1.1813(4) -0.30760(14) 0.33745(15)
F5 F 1.0491(3) -0.20055(15) 0.27645(11)
F6 F 0.6081(3) 0.39337(14) 0.28790(12)
F7 F 0.4814(4) 0.49816(17) 0.37979(15)
F8 F 0.3447(4) 0.4515(2) 0.47740(14)
F9 F 0.3390(4) 0.2992(3) 0.48163(14)
F10 F 0.4754(4) 0.19417(18) 0.39163(14)
C1 C 0.5827(4) -0.07049(17) 0.14549(16)
H1 H 0.5696 -0.0719 0.1890
C2 C 0.4874(4) -0.11893(17) 0.09604(16)
C3 C 0.5046(4) -0.11887(17) 0.03259(15)
H2 H 0.4404 -0.1549 0.0000
C4 C 0.6178(4) -0.06669(17) 0.01696(15)
H3 H 0.6299 -0.0649 -0.0265
C5 C 0.8829(4) 0.07247(17) 0.01222(16)
H4 H 0.8373 0.0502 -0.0300
C6 C 1.0020(4) 0.13290(17) 0.02304(16)
H5 H 1.0388 0.1531 -0.0117
C7 C 1.0655(4) 0.16379(16) 0.08427(16)
C8 C 1.0138(4) 0.13737(17) 0.13683(15)
H6 H 1.0586 0.1598 0.1791
C9 C 0.8203(4) 0.03596(17) 0.17329(15)
C10 C 1.1764(4) -0.0991(2) 0.35343(17)
C11 C 1.2770(5) -0.0774(2) 0.40938(18)
C12 C 1.3453(5) -0.1323(3) 0.44085(19)
C13 C 1.3146(5) -0.2096(3) 0.4167(2)
C14 C 1.2139(5) -0.2316(2) 0.3615(2)
C15 C 1.1465(5) -0.1770(2) 0.33010(18)
C16 C 1.2038(4) -0.0206(2) 0.27831(17)
H7 H 1.3015 0.0073 0.3000
H8 H 1.2387 -0.0648 0.2487
C17 C 1.0979(4) 0.03078(19) 0.24404(18)
H9 H 1.1657 0.0536 0.2177
H10 H 1.0558 0.0720 0.2747
C18 C 0.9512(4) -0.01322(18) 0.20344(16)
H11 H 0.8943 -0.0421 0.2289
H12 H 0.9949 -0.0500 0.1698
C19 C 0.5444(4) 0.2911(2) 0.33777(16)
C20 C 0.5445(5) 0.3688(2) 0.33596(18)
C21 C 0.4791(6) 0.4231(3) 0.3834(2)
C22 C 0.4128(6) 0.4004(4) 0.4309(2)
C23 C 0.4085(6) 0.3233(4) 0.4347(2)
C24 C 0.4769(5) 0.2683(3) 0.3877(2)
C25 C 0.4983(4) 0.1857(2) 0.25012(18)
H13 H 0.4471 0.1527 0.2738
H14 H 0.4123 0.2138 0.2316
C26 C 0.5935(4) 0.13804(19) 0.19867(16)
H15 H 0.6399 0.1720 0.1746
H16 H 0.5179 0.1022 0.1703
C27 C 0.7338(4) 0.09251(17) 0.22430(15)
H17 H 0.6894 0.0638 0.2527
H18 H 0.8162 0.1287 0.2484
C28 C 0.6957(4) -0.01957(16) 0.12930(15)
C29 C 0.7105(4) -0.01682(16) 0.06566(15)
C30 C 0.8328(3) 0.04494(16) 0.06358(15)
C31 C 0.8965(4) 0.07687(17) 0.12565(15)
I3 I -0.18873(2) 0.754297(12) 0.118164(11)
I4 I 0.75189(2) 0.300056(11) 0.100669(11)
O3 O 0.1154(3) 0.40401(15) 0.29271(12)
O4 O 0.6054(3) 0.71398(15) 0.32100(12)
F11 F 0.1144(3) 0.24835(13) 0.28298(10)
F12 F -0.0039(4) 0.18152(15) 0.37266(13)
F13 F -0.1396(3) 0.2681(2) 0.47336(13)
F14 F -0.1537(4) 0.4242(2) 0.48450(12)
F15 F -0.0297(4) 0.49278(15) 0.39619(13)
F16 F 0.8382(3) 0.72733(13) 0.42490(11)
F17 F 0.9524(3) 0.86791(14) 0.48904(11)
F18 F 0.8603(3) 0.99774(13) 0.44623(11)
F19 F 0.6484(3) 0.98520(14) 0.33973(12)
F20 F 0.5293(3) 0.84512(15) 0.27709(10)
C32 C 0.0828(4) 0.64313(17) 0.14744(16)
H19 H 0.0703 0.6667 0.1909
C33 C -0.0120(3) 0.66663(16) 0.09817(16)
C34 C 0.0068(4) 0.63429(18) 0.03475(16)
H20 H -0.0570 0.6533 0.0019
C35 C 0.1188(4) 0.57500(17) 0.01965(15)
H21 H 0.1327 0.5519 -0.0238
C36 C 0.3845(4) 0.43426(17) 0.01442(15)
H22 H 0.3393 0.4353 -0.0279
C37 C 0.5036(4) 0.38056(17) 0.02526(16)
H23 H 0.5406 0.3431 -0.0094
C38 C 0.5668(4) 0.38049(17) 0.08669(16)
C39 C 0.5135(4) 0.43217(17) 0.13901(16)
H24 H 0.5570 0.4303 0.1813
C40 C 0.3210(4) 0.55116(17) 0.17557(15)
C41 C 0.0447(4) 0.3723(2) 0.33730(17)
C42 C 0.0485(4) 0.2938(2) 0.33321(17)
C43 C -0.0111(5) 0.2583(2) 0.37860(18)
C44 C -0.0782(5) 0.3019(3) 0.42940(19)
C45 C -0.0851(6) 0.3807(3) 0.43457(19)
C46 C -0.0239(6) 0.4158(2) 0.3895(2)
C47 C -0.0017(4) 0.4413(2) 0.25433(18)
H25 H -0.0439 0.4870 0.2800
H26 H -0.0941 0.4067 0.2369
C48 C 0.0909(4) 0.4633(2) 0.20227(16)
H27 H 0.1333 0.4171 0.1775
H28 H 0.0149 0.4860 0.1749
C49 C 0.2353(4) 0.52048(18) 0.22714(15)
H29 H 0.1946 0.5636 0.2563
H30 H 0.3174 0.4953 0.2502
C50 C 0.6786(4) 0.7834(2) 0.35021(16)
C51 C 0.7869(4) 0.7907(2) 0.40384(17)
C52 C 0.8473(4) 0.8622(2) 0.43692(17)
C53 C 0.8005(5) 0.9282(2) 0.41538(18)
C54 C 0.6949(5) 0.9216(2) 0.36086(18)
C55 C 0.6353(4) 0.8499(2) 0.32916(17)
C56 C 0.7076(4) 0.6633(2) 0.27807(18)
H31 H 0.8035 0.6474 0.3013
H32 H 0.7453 0.6898 0.2469
C57 C 0.5995(4) 0.5939(2) 0.24614(19)
H33 H 0.6656 0.5564 0.2207
H34 H 0.5568 0.5702 0.2781
C58 C 0.4529(4) 0.61593(18) 0.20470(16)
H35 H 0.3966 0.6580 0.2295
H36 H 0.4975 0.6349 0.1707
C59 C 0.1968(4) 0.58454(17) 0.13157(16)
C60 C 0.2101(3) 0.54989(16) 0.06790(15)
C61 C 0.3333(3) 0.48718(16) 0.06601(15)
C62 C 0.3964(4) 0.48640(17) 0.12779(15)
loop_
_geom_bond_atom_site_label_1
_geom_bond_atom_site_label_2
_geom_bond_site_symmetry_1
_geom_bond_site_symmetry_2
I1 C2 1_555 1_555
I2 C7 1_555 1_555
O1 C10 1_555 1_555
O2 C19 1_555 1_555
F1 C11 1_555 1_555
F2 C12 1_555 1_555
F3 C13 1_555 1_555
F4 C14 1_555 1_555
F5 C15 1_555 1_555
F6 C20 1_555 1_555
F7 C21 1_555 1_555
F8 C22 1_555 1_555
F9 C23 1_555 1_555
F10 C24 1_555 1_555
C1 H1 1_555 1_555
C2 C1 1_555 1_555
C3 C2 1_555 1_555
H2 C3 1_555 1_555
C4 C3 1_555 1_555
H3 C4 1_555 1_555
C5 H4 1_555 1_555
C6 C5 1_555 1_555
H5 C6 1_555 1_555
C7 C6 1_555 1_555
C8 C7 1_555 1_555
H6 C8 1_555 1_555
C9 C18 1_555 1_555
C10 C11 1_555 1_555
C11 C12 1_555 1_555
C12 C13 1_555 1_555
C13 C14 1_555 1_555
C14 C15 1_555 1_555
C15 C10 1_555 1_555
C16 O1 1_555 1_555
H7 C16 1_555 1_555
H8 C16 1_555 1_555
C17 C16 1_555 1_555
H9 C17 1_555 1_555
H10 C17 1_555 1_555
C18 C17 1_555 1_555
H11 C18 1_555 1_555
H12 C18 1_555 1_555
C19 C20 1_555 1_555
C20 C21 1_555 1_555
C21 C22 1_555 1_555
C22 C23 1_555 1_555
C23 C24 1_555 1_555
C24 C19 1_555 1_555
C25 O2 1_555 1_555
H13 C25 1_555 1_555
H14 C25 1_555 1_555
C26 C25 1_555 1_555
H15 C26 1_555 1_555
H16 C26 1_555 1_555
C27 C9 1_555 1_555
H17 C27 1_555 1_555
H18 C27 1_555 1_555
C28 C1 1_555 1_555
C29 C4 1_555 1_555
C30 C5 1_555 1_555
C31 C8 1_555 1_555
I3 C33 1_555 1_555
I4 C38 1_555 1_555
O3 C41 1_555 1_555
O4 C50 1_555 1_555
F11 C42 1_555 1_555
F12 C43 1_555 1_555
F13 C44 1_555 1_555
F14 C45 1_555 1_555
F15 C46 1_555 1_555
F16 C51 1_555 1_555
F17 C52 1_555 1_555
F18 C53 1_555 1_555
F19 C54 1_555 1_555
F20 C55 1_555 1_555
C32 H19 1_555 1_555
C33 C32 1_555 1_555
C34 C33 1_555 1_555
H20 C34 1_555 1_555
C35 C34 1_555 1_555
H21 C35 1_555 1_555
C36 H22 1_555 1_555
C37 C36 1_555 1_555
H23 C37 1_555 1_555
C38 C37 1_555 1_555
C39 C38 1_555 1_555
H24 C39 1_555 1_555
C40 C49 1_555 1_555
C41 C42 1_555 1_555
C42 C43 1_555 1_555
C43 C44 1_555 1_555
C44 C45 1_555 1_555
C45 C46 1_555 1_555
C46 C41 1_555 1_555
C47 O3 1_555 1_555
H25 C47 1_555 1_555
H26 C47 1_555 1_555
C48 C47 1_555 1_555
H27 C48 1_555 1_555
H28 C48 1_555 1_555
C49 C48 1_555 1_555
H29 C49 1_555 1_555
H30 C49 1_555 1_555
C50 C51 1_555 1_555
C51 C52 1_555 1_555
C52 C53 1_555 1_555
C53 C54 1_555 1_555
C54 C55 1_555 1_555
C55 C50 1_555 1_555
C56 O4 1_555 1_555
H31 C56 1_555 1_555
H32 C56 1_555 1_555
C57 C56 1_555 1_555
H33 C57 1_555 1_555
H34 C57 1_555 1_555
C58 C40 1_555 1_555
H35 C58 1_555 1_555
H36 C58 1_555 1_555
C59 C32 1_555 1_555
C60 C35 1_555 1_555
C61 C36 1_555 1_555
C62 C39 1_555 1_555
C9 C28 1_555 1_555
C9 C31 1_555 1_555
C26 C27 1_555 1_555
C28 C29 1_555 1_555
C29 C30 1_555 1_555
C30 C31 1_555 1_555
C40 C59 1_555 1_555
C40 C62 1_555 1_555
C57 C58 1_555 1_555
C59 C60 1_555 1_555
C60 C61 1_555 1_555
C61 C62 1_555 1_555

#END
