
#######################################################################
#
#                 Cambridge Crystallographic Data Centre
#                                CCDC 
#
#######################################################################
#
# If this CIF has been generated from an entry in the Cambridge 
# Structural Database, then it will include bibliographic, chemical, 
# crystal, experimental, refinement or atomic coordinate data resulting 
# from the CCDC's data processing and validation procedures.
#
#######################################################################

data_MINXAL
_chemical_formula_moiety         'C34 H48 Si1'
_chemical_name_systematic        methyl[tris(pentamethylphenyl)]silane
_symmetry_cell_setting           monoclinic
_symmetry_space_group_name_H-M   'P 21/c'
_symmetry_Int_Tables_number      14
_space_group_name_Hall           '-P 2ybc'
loop_
_symmetry_equiv_pos_site_id
_symmetry_equiv_pos_as_xyz
1 x,y,z
2 -x,1/2+y,1/2-z
3 -x,-y,-z
4 x,1/2-y,1/2+z
_cell_length_a                   9.2339(4)
_cell_length_b                   19.4522(9)
_cell_length_c                   16.5267(8)
_cell_angle_alpha                90
_cell_angle_beta                 98.7615(14)
_cell_angle_gamma                90
_cell_volume                     2933.88
_exptl_crystal_colour            colorless
_exptl_crystal_description       block
_cell_formula_units_Z            4
loop_
_atom_site_label
_atom_site_type_symbol
_atom_site_fract_x
_atom_site_fract_y
_atom_site_fract_z
Si1 Si 0.20144(3) 0.12743(2) 0.25885(2)
C1 C 0.33356(16) 0.19829(8) 0.23735(11)
C2 C 0.34517(13) 0.26289(6) 0.27684(7)
C3 C 0.45038(12) 0.31129(6) 0.26079(7)
C4 C 0.54574(12) 0.29550(6) 0.20495(8)
C5 C 0.53301(13) 0.23272(8) 0.16280(8)
C6 C 0.42659(12) 0.18512(7) 0.17809(7)
C7 C 0.23829(17) 0.28503(7) 0.33264(10)
H1 H 0.159549 0.250979 0.330360
H2 H 0.196487 0.329816 0.314790
H3 H 0.289577 0.288636 0.388930
C8 C 0.45245(16) 0.38113(7) 0.30180(9)
H4 H 0.364009 0.406748 0.279373
H5 H 0.539299 0.406728 0.291618
H6 H 0.455392 0.375036 0.360887
C9 C 0.6594(2) 0.34751(9) 0.18806(14)
H7 H 0.629853 0.393471 0.203531
H8 H 0.667475 0.346945 0.129622
H9 H 0.754387 0.335773 0.220087
C10 C 0.63104(15) 0.21671(9) 0.10008(9)
H10 H 0.660618 0.168311 0.104761
H11 H 0.718316 0.246001 0.109683
H12 H 0.577851 0.225408 0.045072
C11 C 0.40962(15) 0.12141(7) 0.12472(8)
H13 H 0.317730 0.098137 0.130716
H14 H 0.492132 0.090266 0.141554
H15 H 0.408024 0.134633 0.067370
C12 C 0.05476(14) 0.11368(7) 0.16513(7)
C13 C 0.02606(16) 0.16257(6) 0.10102(10)
C14 C -0.0599(2) 0.14493(8) 0.02617(9)
C15 C -0.1290(2) 0.08084(9) 0.01680(9)
C16 C -0.11035(19) 0.03334(7) 0.08179(13)
C17 C -0.01901(17) 0.04993(8) 0.15519(8)
C18 C 0.07435(14) 0.23677(6) 0.11243(9)
H16 H 0.092921 0.247686 0.170984
H17 H -0.002885 0.266937 0.084956
H18 H 0.164283 0.243732 0.088728
C19 C -0.0782(2) 0.19544(8) -0.04450(9)
H19 H -0.173051 0.218678 -0.047613
H20 H -0.074034 0.170716 -0.095756
H21 H 0.000671 0.229597 -0.035808
C20 C -0.2298(2) 0.06281(10) -0.06079(9)
H22 H -0.181077 0.029864 -0.092537
H23 H -0.254012 0.104536 -0.093284
H24 H -0.319896 0.042314 -0.047031
C21 C -0.18582(17) -0.03531(7) 0.07102(11)
H25 H -0.288310 -0.030192 0.078936
H26 H -0.136445 -0.067832 0.111389
H27 H -0.181871 -0.052645 0.015720
C22 C -0.00997(17) -0.00096(7) 0.22523(7)
H28 H 0.046824 -0.041195 0.213028
H29 H -0.108990 -0.015412 0.232211
H30 H 0.038096 0.020812 0.275744
C23 C 0.1183(2) 0.13375(10) 0.35789(9)
C24 C -0.03415(18) 0.13880(10) 0.35846(12)
C25 C -0.09491(14) 0.11878(6) 0.42844(9)
C26 C -0.00289(17) 0.09865(5) 0.49983(7)
C27 C 0.14956(16) 0.10126(6) 0.50295(7)
C28 C 0.20973(12) 0.11918(7) 0.43257(10)
C29 C -0.13582(14) 0.16887(7) 0.28724(8)
H31 H -0.078403 0.193542 0.251292
H32 H -0.203965 0.200804 0.307659
H33 H -0.191186 0.131810 0.256476
C30 C -0.25921(14) 0.11877(8) 0.42541(10)
H34 H -0.289961 0.162392 0.447123
H35 H -0.287492 0.080682 0.458531
H36 H -0.306793 0.113237 0.368600
C31 C -0.06445(19) 0.07585(7) 0.57516(8)
H37 H -0.044889 0.026753 0.584576
H38 H -0.170445 0.083889 0.567038
H39 H -0.017921 0.102128 0.622704
C32 C 0.24888(18) 0.08390(8) 0.58210(8)
H40 H 0.259795 0.124386 0.617794
H41 H 0.345227 0.069915 0.569923
H42 H 0.205803 0.046169 0.609710
C33 C 0.37439(12) 0.12557(7) 0.43961(9)
H43 H 0.399639 0.145008 0.388858
H44 H 0.419206 0.080028 0.448921
H45 H 0.411030 0.155821 0.485614
C34 C 0.31603(13) 0.04577(6) 0.27395(8)
H46 H 0.420292 0.057789 0.281649
H47 H 0.292882 0.016298 0.225620
H48 H 0.293903 0.021187 0.322368
Si2? Si 0.1308(3) 0.17957(12) 0.24919(14)
C35? C 0.3308(18) 0.2005(9) 0.2383(15)
C36? C 0.3915(12) 0.2658(5) 0.2645(7)
C37? C 0.5074(13) 0.2941(6) 0.2290(7)
C38? C 0.5540(14) 0.2563(6) 0.1703(8)
C39? C 0.5109(13) 0.1895(6) 0.1460(7)
C40? C 0.4020(12) 0.1599(6) 0.1827(7)
C41? C 0.331(2) 0.2960(10) 0.3365(11)
H49? H 0.279645 0.260296 0.362512
H50? H 0.263412 0.333377 0.317572
H51? H 0.412284 0.314075 0.376093
C42? C 0.575(3) 0.3618(10) 0.2534(17)
H52? H 0.562291 0.392801 0.206105
H53? H 0.679649 0.355637 0.273220
H54? H 0.527315 0.381713 0.297114
C43? C 0.682(3) 0.2843(14) 0.1265(17)
H55? H 0.640568 0.304704 0.073794
H56? H 0.747223 0.246393 0.117473
H57? H 0.736978 0.319334 0.161030
C44? C 0.581(2) 0.1481(11) 0.0836(12)
H58? H 0.608244 0.179128 0.041647
H59? H 0.511189 0.113819 0.057784
H60? H 0.668996 0.124851 0.111392
C45? C 0.3580(18) 0.0857(7) 0.1623(10)
H61? H 0.349029 0.060794 0.212892
H62? H 0.432858 0.063598 0.135039
H63? H 0.263711 0.084833 0.125904
C46? C 0.0414(11) 0.1304(4) 0.1541(5)
C47? C 0.0043(11) 0.1623(5) 0.0776(6)
C48? C -0.0876(15) 0.1317(6) 0.0163(7)
C49? C -0.1449(15) 0.0685(6) 0.0273(7)
C50? C -0.100(2) 0.0331(8) 0.0996(8)
C51? C -0.0069(17) 0.0641(6) 0.1636(8)
C52? C 0.0822(10) 0.2319(4) 0.0662(6)
H64? H 0.143130 0.244934 0.117781
H65? H 0.008418 0.267635 0.050378
H66? H 0.144010 0.227048 0.023340
C53? C -0.1268(14) 0.1753(7) -0.0646(7)
H67? H -0.228717 0.190892 -0.069732
H68? H -0.114470 0.146766 -0.111962
H69? H -0.061648 0.215205 -0.062333
C54? C -0.2501(14) 0.0376(7) -0.0455(8)
H70? H -0.350851 0.051702 -0.041909
H71? H -0.243363 -0.012635 -0.043680
H72? H -0.222772 0.054295 -0.097078
C55? C -0.1847(15) -0.0356(7) 0.1045(9)
H73? H -0.273471 -0.035265 0.063648
H74? H -0.211706 -0.040504 0.159322
H75? H -0.122163 -0.074193 0.093735
C56? C 0.0249(15) 0.0165(7) 0.2391(7)
H76? H 0.125735 0.023722 0.266233
H77? H 0.012367 -0.031570 0.221623
H78? H -0.043252 0.027117 0.277403
C57? C 0.0979(14) 0.1398(11) 0.3515(9)
C58? C -0.0470(13) 0.1354(9) 0.3702(7)
C59? C -0.0649(11) 0.1135(6) 0.4491(6)
C60? C 0.0498(10) 0.0996(5) 0.5070(5)
C61? C 0.1878(11) 0.1023(7) 0.4897(7)
C62? C 0.2126(15) 0.1197(10) 0.4118(8)
C63? C -0.1761(14) 0.1541(8) 0.3038(8)
H79? H -0.227895 0.193968 0.321688
H80? H -0.243589 0.115018 0.294536
H81? H -0.139312 0.165270 0.252788
C64? C -0.2240(15) 0.1128(9) 0.4636(11)
H82? H -0.236105 0.144918 0.507771
H83? H -0.250339 0.066322 0.479042
H84? H -0.287748 0.126666 0.413365
C65? C 0.0091(17) 0.0782(8) 0.5916(8)
H85? H -0.093414 0.090045 0.593601
H86? H 0.072581 0.102501 0.635287
H87? H 0.022613 0.028474 0.599045
C66? C 0.3080(16) 0.0905(8) 0.5641(9)
H88? H 0.307174 0.128502 0.602920
H89? H 0.403885 0.088316 0.545672
H90? H 0.289305 0.047146 0.590922
C67? C 0.3730(16) 0.1133(10) 0.3967(12)
H91? H 0.375624 0.111082 0.337713
H92? H 0.416350 0.071309 0.422907
H93? H 0.428874 0.153298 0.419982
C68? C 0.0306(11) 0.2650(5) 0.2433(6)
H94? H 0.039308 0.285177 0.298160
H95? H -0.073063 0.257667 0.221681
H96? H 0.073869 0.296206 0.207060
loop_
_geom_bond_atom_site_label_1
_geom_bond_atom_site_label_2
_geom_bond_site_symmetry_1
_geom_bond_site_symmetry_2
Si1 C1 1_555 1_555
C1 C2 1_555 1_555
C2 C3 1_555 1_555
C3 C4 1_555 1_555
C4 C5 1_555 1_555
C5 C6 1_555 1_555
C6 C1 1_555 1_555
C7 C2 1_555 1_555
H1 C7 1_555 1_555
H2 C7 1_555 1_555
H3 C7 1_555 1_555
C8 C3 1_555 1_555
H4 C8 1_555 1_555
H5 C8 1_555 1_555
H6 C8 1_555 1_555
C9 C4 1_555 1_555
H7 C9 1_555 1_555
H8 C9 1_555 1_555
H9 C9 1_555 1_555
C10 C5 1_555 1_555
H10 C10 1_555 1_555
H11 C10 1_555 1_555
H12 C10 1_555 1_555
C11 C6 1_555 1_555
H13 C11 1_555 1_555
H14 C11 1_555 1_555
H15 C11 1_555 1_555
C12 Si1 1_555 1_555
C13 C12 1_555 1_555
C14 C13 1_555 1_555
C15 C14 1_555 1_555
C16 C15 1_555 1_555
C17 C12 1_555 1_555
C18 C13 1_555 1_555
H16 C18 1_555 1_555
H17 C18 1_555 1_555
H18 C18 1_555 1_555
C19 C14 1_555 1_555
H19 C19 1_555 1_555
H20 C19 1_555 1_555
H21 C19 1_555 1_555
C20 C15 1_555 1_555
H22 C20 1_555 1_555
H23 C20 1_555 1_555
H24 C20 1_555 1_555
C21 C16 1_555 1_555
H25 C21 1_555 1_555
H26 C21 1_555 1_555
H27 C21 1_555 1_555
C22 C17 1_555 1_555
H28 C22 1_555 1_555
H29 C22 1_555 1_555
H30 C22 1_555 1_555
C23 Si1 1_555 1_555
C24 C23 1_555 1_555
C25 C24 1_555 1_555
C26 C25 1_555 1_555
C27 C26 1_555 1_555
C28 C23 1_555 1_555
C29 C24 1_555 1_555
H31 C29 1_555 1_555
H32 C29 1_555 1_555
H33 C29 1_555 1_555
C30 C25 1_555 1_555
H34 C30 1_555 1_555
H35 C30 1_555 1_555
H36 C30 1_555 1_555
C31 C26 1_555 1_555
H37 C31 1_555 1_555
H38 C31 1_555 1_555
H39 C31 1_555 1_555
C32 C27 1_555 1_555
H40 C32 1_555 1_555
H41 C32 1_555 1_555
H42 C32 1_555 1_555
C33 C28 1_555 1_555
H43 C33 1_555 1_555
H44 C33 1_555 1_555
H45 C33 1_555 1_555
C34 Si1 1_555 1_555
H46 C34 1_555 1_555
H47 C34 1_555 1_555
H48 C34 1_555 1_555
C16 C17 1_555 1_555
C27 C28 1_555 1_555

#END
