
#######################################################################
#
#                 Cambridge Crystallographic Data Centre
#                                CCDC 
#
#######################################################################
#
# If this CIF has been generated from an entry in the Cambridge 
# Structural Database, then it will include bibliographic, chemical, 
# crystal, experimental, refinement or atomic coordinate data resulting 
# from the CCDC's data processing and validation procedures.
#
#######################################################################

data_MINYUG
_chemical_formula_moiety         'C9 H8 Br1 N1 O1'
_chemical_name_systematic        8-bromo-3,4-dihydroquinolin-2(1H)-one
_symmetry_cell_setting           monoclinic
_symmetry_space_group_name_H-M   'P 21/n'
_symmetry_Int_Tables_number      14
_space_group_name_Hall           '-P 2yn'
loop_
_symmetry_equiv_pos_site_id
_symmetry_equiv_pos_as_xyz
1 x,y,z
2 1/2-x,1/2+y,1/2-z
3 -x,-y,-z
4 1/2+x,1/2-y,1/2+z
_cell_length_a                   4.8721(10)
_cell_length_b                   10.746(2)
_cell_length_c                   15.872(3)
_cell_angle_alpha                90
_cell_angle_beta                 90.100(5)
_cell_angle_gamma                90
_cell_volume                     830.987
_exptl_crystal_colour            colorless
_exptl_crystal_description       rod
_cell_formula_units_Z            4
loop_
_atom_site_label
_atom_site_type_symbol
_atom_site_fract_x
_atom_site_fract_y
_atom_site_fract_z
Br1 Br 0.82091(18) 0.60135(9) 0.26901(6)
C1 C 0.5917(17) 0.7211(9) 0.3225(6)
C2 C 0.4390(16) 0.7992(8) 0.2716(6)
H1 H 0.456723 0.796285 0.212059
C3 C 0.2567(16) 0.8832(8) 0.3101(6)
H2 H 0.148964 0.938598 0.277145
C4 C 0.2381(18) 0.8830(9) 0.3969(6)
H3 H 0.109356 0.937177 0.422859
C5 C 0.3974(18) 0.8081(9) 0.4477(6)
C6 C 0.3905(18) 0.8096(9) 0.5422(6)
H4 H 0.212504 0.843759 0.561318
H5 H 0.538024 0.864550 0.563586
C7 C 0.4283(15) 0.6800(8) 0.5779(6)
H6 H 0.449524 0.685764 0.639848
H7 H 0.261623 0.630219 0.566124
C8 C 0.6728(16) 0.6144(10) 0.5420(5)
N1 N 0.7343(13) 0.6431(6) 0.4600(5)
H8 H 0.882438 0.609663 0.437882
C9 C 0.5761(17) 0.7224(8) 0.4090(6)
O1 O 0.8068(11) 0.5377(6) 0.5823(4)
loop_
_geom_bond_atom_site_label_1
_geom_bond_atom_site_label_2
_geom_bond_site_symmetry_1
_geom_bond_site_symmetry_2
Br1 C1 1_555 1_555
C1 C2 1_555 1_555
C2 H1 1_555 1_555
C3 C2 1_555 1_555
H2 C3 1_555 1_555
C4 C3 1_555 1_555
H3 C4 1_555 1_555
C5 C4 1_555 1_555
C6 C5 1_555 1_555
H4 C6 1_555 1_555
H5 C6 1_555 1_555
C7 C6 1_555 1_555
H6 C7 1_555 1_555
H7 C7 1_555 1_555
C8 C7 1_555 1_555
N1 C8 1_555 1_555
H8 N1 1_555 1_555
C9 C1 1_555 1_555
O1 C8 1_555 1_555
C5 C9 1_555 1_555
N1 C9 1_555 1_555

#END
