
#######################################################################
#
#                 Cambridge Crystallographic Data Centre
#                                CCDC 
#
#######################################################################
#
# If this CIF has been generated from an entry in the Cambridge 
# Structural Database, then it will include bibliographic, chemical, 
# crystal, experimental, refinement or atomic coordinate data resulting 
# from the CCDC's data processing and validation procedures.
#
#######################################################################

data_MINYAM
_chemical_formula_moiety         'C28 H28 N2 O3 S1'
_chemical_name_systematic        
N-[3-(4-methoxy-1H-indol-3-yl)-2-phenylcyclopent-1-en-1-yl]-N,4-dimethylbenzene-1-sulfonamide
_symmetry_cell_setting           orthorhombic
_symmetry_space_group_name_H-M   'P 21 21 21'
_symmetry_Int_Tables_number      19
_space_group_name_Hall           'P 2ac 2ab'
loop_
_symmetry_equiv_pos_site_id
_symmetry_equiv_pos_as_xyz
1 x,y,z
2 1/2-x,-y,1/2+z
3 -x,1/2+y,1/2-z
4 1/2+x,1/2-y,-z
_cell_length_a                   7.19180(10)
_cell_length_b                   12.7993(3)
_cell_length_c                   26.4546(5)
_cell_angle_alpha                90
_cell_angle_beta                 90
_cell_angle_gamma                90
_cell_volume                     2435.15
_exptl_crystal_description       plank
_cell_formula_units_Z            4
loop_
_atom_site_label
_atom_site_type_symbol
_atom_site_fract_x
_atom_site_fract_y
_atom_site_fract_z
S1 S 0.81526(8) 0.51467(5) 0.76706(2)
O1 O 0.9212(2) 0.48981(15) 0.72298(6)
O2 O 0.2713(3) 0.23044(14) 0.56295(7)
O3 O 0.8650(3) 0.60387(15) 0.79726(8)
N1 N 0.8495(3) 0.19381(16) 0.63271(8)
H1 H 0.9601 0.1716 0.6420
N2 N 0.5996(3) 0.53528(16) 0.74856(7)
C1 C 0.5670(3) 0.20283(17) 0.59722(8)
C2 C 0.7267(3) 0.14016(18) 0.60264(9)
C3 C 0.5475(3) 0.47715(18) 0.66068(9)
C4 C 0.7711(3) 0.28808(19) 0.64585(9)
H2 H 0.8296 0.3395 0.6663
C5 C 0.6331(3) 0.56230(19) 0.63087(9)
C6 C 0.5231(3) 0.46774(18) 0.71085(9)
C7 C 0.5975(3) 0.29734(18) 0.62547(9)
C8 C 0.4576(3) 0.38376(18) 0.63472(9)
H3 H 0.3963 0.4053 0.6024
C9 C 0.4208(4) 0.16613(19) 0.56686(9)
C10 C 0.6565(4) 0.6635(2) 0.65006(10)
H4 H 0.6339 0.6765 0.6849
C11 C 0.8170(4) 0.4046(2) 0.80685(10)
C12 C 0.3117(4) 0.34913(18) 0.67409(10)
H5 H 0.1936 0.3877 0.6695
H6 H 0.2868 0.2733 0.6715
C13 C 0.4013(3) 0.3759(2) 0.72500(10)
H7 H 0.3067 0.3959 0.7504
H8 H 0.4759 0.3169 0.7381
C14 C 0.7446(4) 0.04213(19) 0.57931(10)
H9 H 0.8521 0.0001 0.5840
C15 C 0.8662(4) 0.3072(2) 0.78828(10)
H10 H 0.9024 0.2995 0.7540
C16 C 0.5993(4) 0.0099(2) 0.54934(10)
H11 H 0.6083 -0.0555 0.5325
C17 C 0.7639(4) 0.4157(2) 0.85715(11)
H12 H 0.7305 0.4823 0.8701
C18 C 0.6713(4) 0.5465(2) 0.57961(10)
H13 H 0.6602 0.4783 0.5657
C19 C 0.4380(4) 0.0704(2) 0.54277(10)
H14 H 0.3404 0.0456 0.5217
C20 C 0.1294(4) 0.2022(3) 0.52842(11)
H15 H 0.1807 0.2000 0.4941
H16 H 0.0289 0.2538 0.5299
H17 H 0.0804 0.1332 0.5374
C21 C 0.8096(4) 0.2301(2) 0.87022(11)
C22 C 0.8622(4) 0.2209(2) 0.81994(12)
H18 H 0.8962 0.1544 0.8070
C23 C 0.7121(4) 0.7446(2) 0.61904(12)
H19 H 0.7264 0.8127 0.6328
C24 C 0.7468(4) 0.7279(2) 0.56851(12)
H20 H 0.7853 0.7840 0.5475
C25 C 0.7605(5) 0.3281(3) 0.88809(11)
H21 H 0.7236 0.3355 0.9224
C26 C 0.4678(4) 0.5702(2) 0.78787(10)
H22 H 0.4384 0.5116 0.8103
H23 H 0.3534 0.5954 0.7718
H24 H 0.5240 0.6269 0.8076
C27 C 0.7252(5) 0.6285(2) 0.54864(12)
H25 H 0.7473 0.6164 0.5137
C28 C 0.8079(6) 0.1362(3) 0.90475(15)
H26 H 0.8705 0.0776 0.8881
H27 H 0.6791 0.1168 0.9124
H28 H 0.8730 0.1532 0.9362
loop_
_geom_bond_atom_site_label_1
_geom_bond_atom_site_label_2
_geom_bond_site_symmetry_1
_geom_bond_site_symmetry_2
S1 O1 1_555 1_555
O2 C9 1_555 1_555
O3 S1 1_555 1_555
N1 H1 1_555 1_555
N2 S1 1_555 1_555
C1 C2 1_555 1_555
C2 N1 1_555 1_555
C3 C5 1_555 1_555
C4 N1 1_555 1_555
H2 C4 1_555 1_555
C5 C10 1_555 1_555
C6 N2 1_555 1_555
C7 C1 1_555 1_555
C8 C3 1_555 1_555
H3 C8 1_555 1_555
C9 C1 1_555 1_555
C10 H4 1_555 1_555
C11 S1 1_555 1_555
C12 C8 1_555 1_555
H5 C12 1_555 1_555
H6 C12 1_555 1_555
C13 C6 1_555 1_555
H7 C13 1_555 1_555
H8 C13 1_555 1_555
C14 C2 1_555 1_555
H9 C14 1_555 1_555
C15 C11 1_555 1_555
H10 C15 1_555 1_555
C16 C14 1_555 1_555
H11 C16 1_555 1_555
C17 C11 1_555 1_555
H12 C17 1_555 1_555
C18 C5 1_555 1_555
H13 C18 1_555 1_555
C19 C9 1_555 1_555
H14 C19 1_555 1_555
C20 O2 1_555 1_555
H15 C20 1_555 1_555
H16 C20 1_555 1_555
H17 C20 1_555 1_555
C21 C22 1_555 1_555
C22 C15 1_555 1_555
H18 C22 1_555 1_555
C23 C10 1_555 1_555
H19 C23 1_555 1_555
C24 C23 1_555 1_555
H20 C24 1_555 1_555
C25 C17 1_555 1_555
H21 C25 1_555 1_555
C26 N2 1_555 1_555
H22 C26 1_555 1_555
H23 C26 1_555 1_555
H24 C26 1_555 1_555
C27 C18 1_555 1_555
H25 C27 1_555 1_555
C28 C21 1_555 1_555
H26 C28 1_555 1_555
H27 C28 1_555 1_555
H28 C28 1_555 1_555
C3 C6 1_555 1_555
C4 C7 1_555 1_555
C7 C8 1_555 1_555
C12 C13 1_555 1_555
C16 C19 1_555 1_555
C21 C25 1_555 1_555
C24 C27 1_555 1_555

#END
