
#######################################################################
#
#                 Cambridge Crystallographic Data Centre
#                                CCDC 
#
#######################################################################
#
# If this CIF has been generated from an entry in the Cambridge 
# Structural Database, then it will include bibliographic, chemical, 
# crystal, experimental, refinement or atomic coordinate data resulting 
# from the CCDC's data processing and validation procedures.
#
#######################################################################

data_MIPJUT
_chemical_formula_moiety         'C24 H30 N4'
_chemical_name_systematic        
N,N'-(1,3-phenylene)bis[2,2-dimethyl-1-(1H-pyrrol-1-yl)propan-1-imine]
_symmetry_cell_setting           monoclinic
_symmetry_space_group_name_H-M   'P 21/n'
_symmetry_Int_Tables_number      14
_space_group_name_Hall           '-P 2yn'
loop_
_symmetry_equiv_pos_site_id
_symmetry_equiv_pos_as_xyz
1 x,y,z
2 1/2-x,1/2+y,1/2-z
3 -x,-y,-z
4 1/2+x,1/2-y,1/2+z
_cell_length_a                   11.8992(14)
_cell_length_b                   8.1080(10)
_cell_length_c                   23.811(3)
_cell_angle_alpha                90
_cell_angle_beta                 97.822(2)
_cell_angle_gamma                90
_cell_volume                     2275.88
_exptl_crystal_colour            colorless
_exptl_crystal_description       block
_cell_formula_units_Z            4
loop_
_atom_site_label
_atom_site_type_symbol
_atom_site_fract_x
_atom_site_fract_y
_atom_site_fract_z
N1 N 0.61741(15) 0.4624(2) 0.37755(7)
N2 N 0.53285(17) 0.4218(2) 0.28317(8)
N3 N 0.20162(15) 0.6449(2) 0.35338(8)
N4 N 0.23909(17) 0.8958(2) 0.40207(8)
C1 C 0.60091(19) 0.3732(3) 0.32517(10)
C2 C 0.29171(18) 0.6681(3) 0.32059(9)
C3 C 0.45617(18) 0.5543(3) 0.28665(9)
C4 C 0.37153(19) 0.5441(3) 0.32116(9)
H1 H 0.3685 0.4534 0.3448
C5 C 0.17348(18) 0.7510(3) 0.38753(9)
C6 C 0.0696(2) 0.7268(3) 0.41721(11)
C7 C 0.6739(2) 0.2209(3) 0.32109(11)
C8 C 0.2949(2) 0.8016(3) 0.28472(10)
H2 H 0.2418 0.8859 0.2844
C9 C 0.6537(2) 0.6210(3) 0.38218(11)
H3 H 0.6700 0.6868 0.3523
C10 C 0.4574(2) 0.6859(4) 0.25032(10)
H4 H 0.5126 0.6921 0.2262
C11 C 0.6623(2) 0.6682(4) 0.43692(12)
H5 H 0.6865 0.7704 0.4516
C12 C 0.3477(2) 0.8934(4) 0.42929(12)
H6 H 0.3907 0.7994 0.4391
C13 C 0.3772(2) 0.8088(4) 0.24948(11)
H7 H 0.3788 0.8975 0.2248
C14 C 0.6016(3) 0.4112(4) 0.43016(12)
H8 H 0.5764 0.3073 0.4394
C15 C 0.6286(3) 0.5368(4) 0.46688(12)
H9 H 0.6250 0.5346 0.5056
C16 C 0.2070(3) 1.0573(4) 0.39433(15)
H10 H 0.1370 1.0948 0.3769
C17 C 0.7971(3) 0.2583(5) 0.34768(15)
H11 H 0.8261 0.3487 0.3279
H12 H 0.8435 0.1626 0.3447
H13 H 0.7983 0.2869 0.3869
C18 C 0.0989(3) 0.7659(5) 0.48032(13)
H14 H 0.1541 0.6884 0.4975
H15 H 0.0316 0.7584 0.4983
H16 H 0.1293 0.8756 0.4848
C19 C 0.3818(4) 1.0492(6) 0.43943(17)
H17 H 0.4515 1.0822 0.4586
C20 C 0.2953(5) 1.1522(5) 0.41646(17)
H18 H 0.2974 1.2668 0.4163
C21 C 0.6766(4) 0.1792(5) 0.25925(15)
H19 H 0.6012 0.1545 0.2414
H20 H 0.7246 0.0852 0.2566
H21 H 0.7058 0.2716 0.2406
C22 C 0.0283(3) 0.5510(5) 0.40926(19)
H22 H 0.0115 0.5273 0.3695
H23 H -0.0390 0.5371 0.4269
H24 H 0.0861 0.4771 0.4263
C23 C -0.0250(3) 0.8438(6) 0.39179(17)
H25 H -0.0053 0.9550 0.4030
H26 H -0.0947 0.8140 0.4053
H27 H -0.0343 0.8358 0.3512
C24 C 0.6299(5) 0.0791(4) 0.3523(3)
H28 H 0.6389 0.1033 0.3922
H29 H 0.6716 -0.0190 0.3460
H30 H 0.5510 0.0623 0.3388
loop_
_geom_bond_atom_site_label_1
_geom_bond_atom_site_label_2
_geom_bond_site_symmetry_1
_geom_bond_site_symmetry_2
N1 C1 1_555 1_555
N2 C1 1_555 1_555
N3 C2 1_555 1_555
N4 C5 1_555 1_555
C1 C7 1_555 1_555
C2 C4 1_555 1_555
C3 N2 1_555 1_555
C4 C3 1_555 1_555
H1 C4 1_555 1_555
C5 N3 1_555 1_555
C6 C5 1_555 1_555
C7 C17 1_555 1_555
C8 C2 1_555 1_555
H2 C8 1_555 1_555
C9 N1 1_555 1_555
H3 C9 1_555 1_555
C10 C3 1_555 1_555
H4 C10 1_555 1_555
C11 C9 1_555 1_555
H5 C11 1_555 1_555
C12 N4 1_555 1_555
H6 C12 1_555 1_555
C13 C8 1_555 1_555
H7 C13 1_555 1_555
C14 N1 1_555 1_555
H8 C14 1_555 1_555
C15 C11 1_555 1_555
H9 C15 1_555 1_555
C16 N4 1_555 1_555
H10 C16 1_555 1_555
C17 H11 1_555 1_555
H12 C17 1_555 1_555
H13 C17 1_555 1_555
C18 C6 1_555 1_555
H14 C18 1_555 1_555
H15 C18 1_555 1_555
H16 C18 1_555 1_555
C19 C12 1_555 1_555
H17 C19 1_555 1_555
C20 C16 1_555 1_555
H18 C20 1_555 1_555
C21 C7 1_555 1_555
H19 C21 1_555 1_555
H20 C21 1_555 1_555
H21 C21 1_555 1_555
C22 C6 1_555 1_555
H22 C22 1_555 1_555
H23 C22 1_555 1_555
H24 C22 1_555 1_555
C23 C6 1_555 1_555
H25 C23 1_555 1_555
H26 C23 1_555 1_555
H27 C23 1_555 1_555
C24 C7 1_555 1_555
H28 C24 1_555 1_555
H29 C24 1_555 1_555
H30 C24 1_555 1_555
C10 C13 1_555 1_555
C14 C15 1_555 1_555
C19 C20 1_555 1_555

#END
