
#######################################################################
#
#                 Cambridge Crystallographic Data Centre
#                                CCDC 
#
#######################################################################
#
# If this CIF has been generated from an entry in the Cambridge 
# Structural Database, then it will include bibliographic, chemical, 
# crystal, experimental, refinement or atomic coordinate data resulting 
# from the CCDC's data processing and validation procedures.
#
#######################################################################

data_MIPVEM
_chemical_formula_moiety         'C6 H12 N4,C6 H10 O4'
_chemical_name_systematic        'Hexamethylenetetraamine adipic acid'
_symmetry_cell_setting           orthorhombic
_symmetry_space_group_name_H-M   'C m c m'
_symmetry_Int_Tables_number      63
_space_group_name_Hall           '-C 2n 2'
loop_
_symmetry_equiv_pos_site_id
_symmetry_equiv_pos_as_xyz
1 x,y,z
2 1/2+x,1/2+y,z
3 x,y,1/2-z
4 x,-y,1/2+z
5 -x,y,z
6 1/2+x,1/2+y,1/2-z
7 1/2+x,1/2-y,1/2+z
8 1/2-x,1/2+y,z
9 -x,-y,-z
10 1/2-x,1/2-y,-z
11 -x,-y,1/2+z
12 -x,y,1/2-z
13 x,-y,-z
14 1/2-x,1/2-y,1/2+z
15 1/2-x,1/2+y,1/2-z
16 1/2+x,1/2-y,-z
_cell_length_a                   9.267(3)
_cell_length_b                   7.417(2)
_cell_length_c                   22.222(7)
_cell_angle_alpha                90
_cell_angle_beta                 90
_cell_angle_gamma                90
_cell_volume                     1527.39
_exptl_crystal_colour            colorless
_exptl_crystal_description       block
_cell_formula_units_Z            4
loop_
_atom_site_label
_atom_site_type_symbol
_atom_site_fract_x
_atom_site_fract_y
_atom_site_fract_z
O1 O -0.0909(8) -0.0458(11) 0.5949(4)
H5 H -0.0514 0.0445 0.6468
O2 O 0.0359(6) -0.2462(7) 0.6362(3)
C4 C 0.0000 -0.1716(7) 0.5923(2)
C5 C 0.0655(9) -0.2816(8) 0.5423(4)
H6 H 0.1169 -0.2439 0.5214
C8 C 0.0000 -0.4474(4) 0.52747(15)
H7 H -0.0831 -0.4881 0.5494
O1D O 0.0909(8) -0.0458(11) 0.5949(4)
H5D H 0.0514 0.0445 0.6468
O2D O -0.0359(6) -0.2462(7) 0.6362(3)
C5D C -0.0655(9) -0.2816(8) 0.5423(4)
H6D H -0.1169 -0.2439 0.5214
C8H C 0.0000 -0.5526(4) 0.47253(15)
C5H C -0.0655(9) -0.7184(8) 0.4577(4)
C4H C 0.0000 -0.8284(7) 0.4077(2)
O1H O 0.0909(8) -0.9542(11) 0.4051(4)
O1L O -0.0909(8) -0.9542(11) 0.4051(4)
H5L H -0.0514 -1.0445 0.3532
H5H H 0.0514 -1.0445 0.3532
O2H O -0.0359(6) -0.7538(7) 0.3638(3)
O2L O 0.0359(6) -0.7538(7) 0.3638(3)
C5L C 0.0655(9) -0.7184(8) 0.4577(4)
H6L H 0.1169 -0.7561 0.4786
H7H H 0.0831 -0.5119 0.4506
H7L H -0.0831 -0.5119 0.4506
H6H H -0.1169 -0.7561 0.4786
H7D H 0.0831 -0.4881 0.5494
C1 C 0.0000 0.0527(4) 0.7500
H1 H 0.0841 -0.0229 0.7500
N1 N 0.0000 0.1659(2) 0.69558(9)
C2 C 0.12866(19) 0.2830(2) 0.69741(9)
H2 H 0.1304 0.3569 0.6620
H3 H 0.2130 0.2079 0.6968
N2 N 0.13123(19) 0.3979(2) 0.7500
C3 C 0.0000 0.5075(4) 0.7500
H4 H 0.0000 0.5838 0.7151
H1D H -0.0841 -0.0229 0.7500
C2B C 0.12866(19) 0.2830(2) 0.80259(9)
N1B N 0.0000 0.1659(2) 0.80442(9)
C2K C -0.12866(19) 0.2830(2) 0.80259(9)
H2K H -0.1304 0.3569 0.8380
H3K H -0.2130 0.2079 0.8032
N2K N -0.13123(19) 0.3979(2) 0.7500
C2D C -0.12866(19) 0.2830(2) 0.69741(9)
H2D H -0.1304 0.3569 0.6620
H3D H -0.2130 0.2079 0.6968
H4B H 0.0000 0.5838 0.7849
H2B H 0.1304 0.3569 0.8380
H3B H 0.2130 0.2079 0.8032
O3? O 0.0628(7) -0.0054(6) 0.5950(2)
O4? O -0.0775(11) -0.2080(13) 0.6210(4)
C6? C 0.0000 -0.1508(13) 0.5825(4)
C7? C -0.0384(11) -0.2648(8) 0.5295(3)
loop_
_geom_bond_atom_site_label_1
_geom_bond_atom_site_label_2
_geom_bond_site_symmetry_1
_geom_bond_site_symmetry_2
C1 H1 1_555 1_555
N1 C1 1_555 1_555
C2 N1 1_555 1_555
H2 C2 1_555 1_555
H3 C2 1_555 1_555
N2 C2 1_555 1_555
C3 N2 1_555 1_555
H4 C3 1_555 1_555
O1 H5 1_555 1_555
H5 H5D 1_555 1_555
O2 C4 1_555 1_555
C4 O1 1_555 1_555
C5 C4 1_555 1_555
H6 C5 1_555 1_555
C8 C5 1_555 1_555
H7 C8 1_555 1_555
H1D C1 1_555 1_555
C2B N2 1_555 1_555
N1B C1 1_555 1_555
C2K N1B 1_555 1_555
H2K C2K 1_555 1_555
H3K C2K 1_555 1_555
N2K C3 1_555 1_555
C2D N1 1_555 1_555
H2D C2D 1_555 1_555
H3D C2D 1_555 1_555
H4B C3 1_555 1_555
H2B C2B 1_555 1_555
H3B C2B 1_555 1_555
O1D O1 1_555 1_555
H5D O1D 1_555 1_555
O2D O2 1_555 1_555
C5D C4 1_555 1_555
H6D C5D 1_555 1_555
C8H C8 1_555 1_555
C5H C8H 1_555 1_555
C4H C5H 1_555 1_555
O1H C4H 1_555 1_555
O1L C4H 1_555 1_555
H5L O1L 1_555 1_555
H5H O1H 1_555 1_555
O2H C4H 1_555 1_555
O2L C4H 1_555 1_555
C5L C8H 1_555 1_555
H6L C5L 1_555 1_555
H7H C8H 1_555 1_555
H7L C8H 1_555 1_555
H6H C5H 1_555 1_555
H7D C8 1_555 1_555
C4 O1D 1_555 1_555
C4 O2D 1_555 1_555
C5 C5D 1_555 1_555
C8 C5D 1_555 1_555
C2B N1B 1_555 1_555
C2K N2K 1_555 1_555
N2K C2D 1_555 1_555
C5H C5L 1_555 1_555
C4H C5L 1_555 1_555
O1H O1L 1_555 1_555
H5L H5H 1_555 1_555
O2H O2L 1_555 1_555

#END
