
#######################################################################
#
#                 Cambridge Crystallographic Data Centre
#                                CCDC 
#
#######################################################################
#
# If this CIF has been generated from an entry in the Cambridge 
# Structural Database, then it will include bibliographic, chemical, 
# crystal, experimental, refinement or atomic coordinate data resulting 
# from the CCDC's data processing and validation procedures.
#
#######################################################################

data_MIPVIQ
_chemical_formula_moiety         'C6 H12 N4,2(C8 H6 O4),H2 O1'
_chemical_name_systematic        
'Hexamethylenetetraamine bis(m-benzenedicarboxylic acid) monohydrate'
_symmetry_cell_setting           monoclinic
_symmetry_space_group_name_H-M   'P 21/m'
_symmetry_Int_Tables_number      11
_space_group_name_Hall           '-P 2yb'
loop_
_symmetry_equiv_pos_site_id
_symmetry_equiv_pos_as_xyz
1 x,y,z
2 x,1/2-y,z
3 -x,-y,-z
4 -x,1/2+y,-z
_cell_length_a                   6.935(2)
_cell_length_b                   23.859(12)
_cell_length_c                   6.954(4)
_cell_angle_alpha                90
_cell_angle_beta                 97.88
_cell_angle_gamma                90
_cell_volume                     1139.76
_exptl_crystal_colour            colorless
_exptl_crystal_description       plate
_cell_formula_units_Z            2
loop_
_atom_site_label
_atom_site_type_symbol
_atom_site_fract_x
_atom_site_fract_y
_atom_site_fract_z
N1 N 0.1951(3) 0.69858(7) 0.6653(2)
N2 N -0.0433(3) 0.7500 0.4403(3)
N3 N 0.3006(3) 0.7500 0.3963(3)
C9 C -0.0065(3) 0.69976(8) 0.5633(3)
H9 H -0.0947 0.6997 0.6583
H10 H -0.0307 0.6666 0.4853
C10 C 0.0977(4) 0.7500 0.2993(4)
H11 H 0.0762 0.7825 0.2179
H12 H 0.0762 0.7175 0.2179
C11 C 0.3294(3) 0.69978(8) 0.5201(3)
H13 H 0.3142 0.6664 0.4425
H14 H 0.4601 0.7005 0.5868
C12 C 0.2252(6) 0.7500 0.7860(4)
H15 H 0.3556 0.7500 0.8533
H16 H 0.1370 0.7500 0.8811
C9A C -0.0065(3) 0.80024(8) 0.5633(3)
N1A N 0.1951(3) 0.80142(7) 0.6653(2)
C11A C 0.3294(3) 0.80022(8) 0.5201(3)
H13A H 0.3142 0.8336 0.4425
H14A H 0.4601 0.7995 0.5868
H9A H -0.0947 0.8003 0.6583
H10A H -0.0307 0.8334 0.4853
O1 O 0.2371(3) 0.59398(6) -0.1700(2)
H1 H 0.2528 0.6288 -0.2242
O2 O 0.1751(4) 0.63318(7) 0.1025(3)
O3 O 0.3002(4) 0.38827(7) -0.2241(2)
O5 O 0.3311(3) 0.33734(6) 0.0467(2)
H4 H 0.3553 0.3076 -0.0308
C1 C 0.2129(3) 0.59217(8) 0.0140(3)
C2 C 0.2342(3) 0.53479(8) 0.1007(3)
C3 C 0.2596(3) 0.48778(7) -0.0104(3)
H5 H 0.2637 0.4915 -0.1472
C4 C 0.2792(3) 0.43481(8) 0.0759(3)
C5 C 0.3034(3) 0.38565(8) -0.0507(3)
C6 C 0.2758(4) 0.42983(9) 0.2735(3)
H6 H 0.2920 0.3937 0.3344
C7 C 0.2482(5) 0.47656(11) 0.3839(3)
H7 H 0.2465 0.4728 0.5212
C8 C 0.2265(4) 0.52896(10) 0.2975(3)
H8 H 0.2053 0.5612 0.3744
O4 O 0.3858(3) 0.2500 -0.1814(3)
H2 H 0.2981 0.2500 -0.2796
H3 H 0.4982 0.2500 -0.2170
loop_
_geom_bond_atom_site_label_1
_geom_bond_atom_site_label_2
_geom_bond_site_symmetry_1
_geom_bond_site_symmetry_2
N1 C9 1_555 1_555
N2 C9 1_555 1_555
N3 C10 1_555 1_555
O1 H1 1_555 1_555
O2 C1 1_555 1_555
O3 C5 1_555 1_555
O4 H2 1_555 1_555
H3 O4 1_555 1_555
O5 H4 1_555 1_555
C1 O1 1_555 1_555
C2 C1 1_555 1_555
C3 C2 1_555 1_555
H5 C3 1_555 1_555
C4 C3 1_555 1_555
C5 O5 1_555 1_555
C6 C4 1_555 1_555
H6 C6 1_555 1_555
C7 C6 1_555 1_555
H7 C7 1_555 1_555
C8 C2 1_555 1_555
H8 C8 1_555 1_555
C9 H9 1_555 1_555
H10 C9 1_555 1_555
C10 N2 1_555 1_555
H11 C10 1_555 1_555
H12 C10 1_555 1_555
C11 N1 1_555 1_555
H13 C11 1_555 1_555
H14 C11 1_555 1_555
C12 N1 1_555 1_555
H15 C12 1_555 1_555
H16 C12 1_555 1_555
C9A N2 1_555 1_555
N1A C12 1_555 1_555
C11A N3 1_555 1_555
H13A C11A 1_555 1_555
H14A C11A 1_555 1_555
H9A C9A 1_555 1_555
H10A C9A 1_555 1_555
N3 C11 1_555 1_555
C4 C5 1_555 1_555
C7 C8 1_555 1_555
C9A N1A 1_555 1_555
N1A C11A 1_555 1_555

#END
