
#######################################################################
#
#                 Cambridge Crystallographic Data Centre
#                                CCDC 
#
#######################################################################
#
# If this CIF has been generated from an entry in the Cambridge 
# Structural Database, then it will include bibliographic, chemical, 
# crystal, experimental, refinement or atomic coordinate data resulting 
# from the CCDC's data processing and validation procedures.
#
#######################################################################

data_MIPVAI
_chemical_formula_moiety         'C6 H13 N4 1+,C14 H9 O4 S2 1-,0.5(H2 O1)'
_chemical_name_systematic        
"Hexamethylenetetraamine 2,2'-dithiosalicylic acid hemihydrate"
_symmetry_cell_setting           monoclinic
_symmetry_space_group_name_H-M   'C 2/c'
_symmetry_Int_Tables_number      15
_space_group_name_Hall           '-C 2yn'
loop_
_symmetry_equiv_pos_site_id
_symmetry_equiv_pos_as_xyz
1 x,y,z
2 1/2+x,1/2+y,z
3 x,-y,1/2+z
4 1/2+x,1/2-y,1/2+z
5 -x,-y,-z
6 1/2-x,1/2-y,-z
7 -x,y,1/2-z
8 1/2-x,1/2+y,1/2-z
_cell_length_a                   14.181(7)
_cell_length_b                   12.190(5)
_cell_length_c                   24.942(13)
_cell_angle_alpha                90
_cell_angle_beta                 101.29(2)
_cell_angle_gamma                90
_cell_volume                     4228.2
_exptl_crystal_colour            colorless
_exptl_crystal_description       needle
_cell_formula_units_Z            8
loop_
_atom_site_label
_atom_site_type_symbol
_atom_site_fract_x
_atom_site_fract_y
_atom_site_fract_z
S1 S 0.57047(7) 0.20318(7) 0.37527(4)
S2 S 0.52769(7) 0.36215(7) 0.38568(4)
O1 O 0.5656(2) -0.15549(19) 0.36227(11)
O2 O 0.6054(2) 0.0085(2) 0.33643(12)
O3 O 0.5207(2) 0.5848(2) 0.38032(12)
O4 O 0.6005(2) 0.7023(2) 0.44141(12)
H1 H 0.5789 0.7444 0.4109
C1 C 0.5601(3) -0.0507(3) 0.36228(13)
C2 C 0.4924(2) 0.0011(3) 0.39508(13)
C3 C 0.4279(3) -0.0644(3) 0.41647(15)
H4 H 0.4288 -0.1420 0.4100
C4 C 0.3649(3) -0.0205(3) 0.44666(17)
H5 H 0.3198 -0.0670 0.4599
C5 C 0.3668(3) 0.0912(3) 0.45676(16)
H6 H 0.3254 0.1238 0.4785
C6 C 0.4294(3) 0.1588(3) 0.43592(15)
H7 H 0.4310 0.2362 0.4430
C7 C 0.4917(2) 0.1158(3) 0.40460(13)
C8 C 0.5910(2) 0.4024(3) 0.45248(13)
C9 C 0.6266(3) 0.3231(3) 0.49173(15)
H8 H 0.6182 0.2467 0.4828
C10 C 0.6757(3) 0.3542(3) 0.54357(16)
H9 H 0.7020 0.2990 0.5697
C11 C 0.6911(3) 0.4643(3) 0.55687(15)
H10 H 0.7223 0.4853 0.5931
C12 C 0.6557(3) 0.5433(3) 0.51797(15)
H11 H 0.6670 0.6195 0.5268
C13 C 0.6057(2) 0.5150(3) 0.46590(14)
C14 C 0.5700(3) 0.6030(3) 0.42471(16)
O5 O 0.5000 -0.5016(5) 0.2500
H2 H 0.4875 -0.5417 0.2756
H2F H 0.5125 -0.5417 0.2244
N1 N 0.7501(3) -0.3731(3) 0.25524(14)
N2 N 0.6921(3) -0.2173(3) 0.19814(15)
N3 N 0.6770(2) -0.2179(3) 0.29274(13)
H3 H 0.6425 -0.1963 0.3234
N4 N 0.8339(3) -0.1975(4) 0.2683(2)
C15 C 0.7058(3) -0.3364(4) 0.20042(16)
H12 H 0.6434 -0.3697 0.1913
H13 H 0.7425 -0.3596 0.1739
C16 C 0.6913(4) -0.3402(4) 0.29391(19)
H14 H 0.7192 -0.3639 0.3303
H15 H 0.6300 -0.3755 0.2832
C17 C 0.8428(3) -0.3179(5) 0.2698(2)
H16 H 0.8834 -0.3427 0.2456
H17 H 0.8730 -0.3365 0.3065
C18 C 0.7752(3) -0.1649(5) 0.3076(2)
H18 H 0.8084 -0.1901 0.3428
H19 H 0.7691 -0.0866 0.3094
C19 C 0.6332(4) -0.1823(4) 0.23561(17)
H20 H 0.5725 -0.2188 0.2248
H21 H 0.6225 -0.1045 0.2339
C20 C 0.7832(5) -0.1662(4) 0.2136(3)
H22 H 0.7748 -0.0881 0.2115
H23 H 0.8209 -0.1870 0.1872
loop_
_geom_bond_atom_site_label_1
_geom_bond_atom_site_label_2
_geom_bond_site_symmetry_1
_geom_bond_site_symmetry_2
S1 S2 1_555 1_555
S2 C8 1_555 1_555
O1 C1 1_555 1_555
O2 C1 1_555 1_555
O3 C14 1_555 1_555
O4 H1 1_555 1_555
O5 H2 1_555 1_555
N1 C15 1_555 1_555
N2 C15 1_555 1_555
N3 H3 1_555 1_555
N4 C17 1_555 1_555
C1 C2 1_555 1_555
C2 C3 1_555 1_555
C3 H4 1_555 1_555
C4 C3 1_555 1_555
H5 C4 1_555 1_555
C5 C4 1_555 1_555
H6 C5 1_555 1_555
C6 C5 1_555 1_555
H7 C6 1_555 1_555
C7 S1 1_555 1_555
C8 C9 1_555 1_555
C9 H8 1_555 1_555
C10 C9 1_555 1_555
H9 C10 1_555 1_555
C11 C10 1_555 1_555
H10 C11 1_555 1_555
C12 C11 1_555 1_555
H11 C12 1_555 1_555
C13 C8 1_555 1_555
C14 O4 1_555 1_555
C15 H12 1_555 1_555
H13 C15 1_555 1_555
C16 N1 1_555 1_555
H14 C16 1_555 1_555
H15 C16 1_555 1_555
C17 N1 1_555 1_555
H16 C17 1_555 1_555
H17 C17 1_555 1_555
C18 N3 1_555 1_555
H18 C18 1_555 1_555
H19 C18 1_555 1_555
C19 N2 1_555 1_555
H20 C19 1_555 1_555
H21 C19 1_555 1_555
C20 N2 1_555 1_555
H22 C20 1_555 1_555
H23 C20 1_555 1_555
H2F O5 1_555 1_555
N3 C19 1_555 1_555
N3 C16 1_555 1_555
N4 C18 1_555 1_555
N4 C20 1_555 1_555
C2 C7 1_555 1_555
C6 C7 1_555 1_555
C12 C13 1_555 1_555
C13 C14 1_555 1_555

#END
