
#######################################################################
#
#                 Cambridge Crystallographic Data Centre
#                                CCDC 
#
#######################################################################
#
# If this CIF has been generated from an entry in the Cambridge 
# Structural Database, then it will include bibliographic, chemical, 
# crystal, experimental, refinement or atomic coordinate data resulting 
# from the CCDC's data processing and validation procedures.
#
#######################################################################

data_MIRQOV01
_chemical_formula_moiety         'C6 H4 Br1 Cl1 O1'
_chemical_name_systematic        4-Bromo-3-chlorophenol
_symmetry_cell_setting           tetragonal
_symmetry_space_group_name_H-M   'I 41/a'
_symmetry_Int_Tables_number      88
_space_group_name_Hall           '-I 4ad'
loop_
_symmetry_equiv_pos_site_id
_symmetry_equiv_pos_as_xyz
1 x,y,z
2 1/2-x,-y,1/2+z
3 3/4-y,1/4+x,1/4+z
4 3/4+y,3/4-x,3/4+z
5 1/2+x,1/2+y,1/2+z
6 -x,1/2-y,z
7 1/4-y,3/4+x,3/4+z
8 1/4+y,1/4-x,1/4+z
9 -x,-y,-z
10 1/2+x,y,1/2-z
11 1/4+y,3/4-x,3/4-z
12 1/4-y,1/4+x,1/4-z
13 1/2-x,1/2-y,1/2-z
14 x,1/2+y,-z
15 3/4+y,1/4-x,1/4-z
16 3/4-y,3/4+x,3/4-z
_cell_length_a                   26.465(5)
_cell_length_b                   26.465(5)
_cell_length_c                   3.9017(6)
_cell_angle_alpha                90
_cell_angle_beta                 90
_cell_angle_gamma                90
_cell_volume                     2732.74
_exptl_crystal_colour            colorless
_exptl_crystal_description       needle
_cell_formula_units_Z            16
loop_
_atom_site_label
_atom_site_type_symbol
_atom_site_fract_x
_atom_site_fract_y
_atom_site_fract_z
O1 O 0.78828(9) 0.94326(10) 0.6493(7)
H1 H 0.7952(17) 0.9694(16) 0.706(12)
Br1 Br 0.966182(13) 0.831850(14) 0.04076(9)
Cl1 Cl 0.96360(4) 0.95429(4) 0.1272(3)
C1 C 0.91127(12) 0.91966(12) 0.2559(8)
C2 C 0.87050(12) 0.94553(12) 0.3935(8)
H2 H 0.8712 0.9806 0.4113
C3 C 0.82888(12) 0.91866(12) 0.5036(8)
C4 C 0.82739(12) 0.86649(12) 0.4727(9)
H3 H 0.7992 0.8487 0.5487
C5 C 0.91041(12) 0.86734(12) 0.2212(8)
C6 C 0.86767(12) 0.84084(12) 0.3289(9)
H4 H 0.8663 0.8059 0.3040
loop_
_geom_bond_atom_site_label_1
_geom_bond_atom_site_label_2
_geom_bond_site_symmetry_1
_geom_bond_site_symmetry_2
O1 H1 1_555 1_555
Br1 C5 1_555 1_555
Cl1 C1 1_555 1_555
C1 C2 1_555 1_555
C2 H2 1_555 1_555
C3 O1 1_555 1_555
C4 C3 1_555 1_555
H3 C4 1_555 1_555
C5 C1 1_555 1_555
C6 C4 1_555 1_555
H4 C6 1_555 1_555
C2 C3 1_555 1_555
C5 C6 1_555 1_555

#END
