
#######################################################################
#
#                 Cambridge Crystallographic Data Centre
#                                CCDC 
#
#######################################################################
#
# If this CIF has been generated from an entry in the Cambridge 
# Structural Database, then it will include bibliographic, chemical, 
# crystal, experimental, refinement or atomic coordinate data resulting 
# from the CCDC's data processing and validation procedures.
#
#######################################################################

data_MIRTUE
_chemical_formula_moiety         'C21 H18 N4 O1,C4 H8 O1'
_chemical_name_systematic        
"N'-(2-(4-Oxo-1,2,3,4-tetrahydroquinazolin-2-yl)phenyl)benzenecarboximidamide tetrahydrofuran solvate"
_symmetry_cell_setting           monoclinic
_symmetry_space_group_name_H-M   'P 21/n'
_symmetry_Int_Tables_number      14
_space_group_name_Hall           '-P 2yn'
loop_
_symmetry_equiv_pos_site_id
_symmetry_equiv_pos_as_xyz
1 x,y,z
2 1/2-x,1/2+y,1/2-z
3 -x,-y,-z
4 1/2+x,1/2-y,1/2+z
_cell_length_a                   11.692(4)
_cell_length_b                   11.309(4)
_cell_length_c                   17.125(6)
_cell_angle_alpha                90
_cell_angle_beta                 91.039(8)
_cell_angle_gamma                90
_cell_volume                     2263.98
_cell_formula_units_Z            4
loop_
_atom_site_label
_atom_site_type_symbol
_atom_site_fract_x
_atom_site_fract_y
_atom_site_fract_z
N1 N 0.1307(2) 0.5957(2) 1.07331(16)
C1 C 0.1231(3) 0.6580(3) 1.00232(19)
C2 C 0.1399(3) 0.6035(3) 0.92979(19)
O1 O 0.44539(19) 0.3676(2) 0.85047(16)
N2 N 0.2960(2) 0.4723(3) 0.89540(17)
H1 H 0.3365 0.5357 0.8971
N3 N 0.1077(2) 0.4112(2) 0.86829(17)
H2 H 0.0452 0.4400 0.8491
C3 C 0.2287(3) 0.5833(3) 1.10811(19)
C4 C 0.2630(3) 0.2753(3) 0.85378(19)
N4 N 0.3278(2) 0.6253(3) 1.08180(17)
H3 H 0.3405 0.5948 1.0348
H4 H 0.3841 0.6043 1.1146
C5 C 0.3430(3) 0.3739(3) 0.8675(2)
C6 C 0.2318(3) 0.5205(3) 1.1845(2)
C7 C 0.1458(3) 0.3000(3) 0.8487(2)
C8 C 0.1789(3) 0.4771(3) 0.9231(2)
H5 H 0.1756 0.4394 0.9745
C9 C 0.1212(3) 0.6690(3) 0.8618(2)
H6 H 0.1317 0.6331 0.8136
C10 C 0.0719(3) 0.8383(3) 0.9341(2)
H7 H 0.0498 0.9172 0.9358
C11 C 0.0717(3) 0.2123(3) 0.8209(2)
H8 H -0.0060 0.2284 0.8151
C12 C 0.1128(3) 0.1026(3) 0.8021(2)
H9 H 0.0628 0.0453 0.7826
C13 C 0.0883(3) 0.7758(3) 1.0028(2)
H10 H 0.0758 0.8132 1.0503
C14 C 0.3017(3) 0.1622(3) 0.8357(2)
H11 H 0.3793 0.1451 0.8401
C15 C 0.3095(3) 0.5485(3) 1.2432(2)
H12 H 0.3646 0.6061 1.2347
C16 C 0.0878(3) 0.7852(3) 0.8644(2)
H13 H 0.0761 0.8273 0.8183
C17 C 0.1481(4) 0.3784(3) 1.2698(3)
H14 H 0.0930 0.3209 1.2786
C18 C 0.1514(3) 0.4341(3) 1.1993(2)
H15 H 0.0985 0.4135 1.1604
C19 C 0.3064(4) 0.4921(4) 1.3142(2)
H16 H 0.3593 0.5118 1.3533
C20 C 0.2254(4) 0.4065(4) 1.3277(3)
H17 H 0.2233 0.3681 1.3758
C21 C 0.2273(4) 0.0761(3) 0.8116(2)
H18 H 0.2537 0.0001 0.8016
O2 O 0.5744(2) 0.3006(3) 0.07263(19)
C22 C 0.4549(5) 0.3170(5) 0.0724(4)
H19 H 0.4353 0.3778 0.1098
H20 H 0.4287 0.3426 0.0211
C23 C 0.4903(7) 0.1294(7) 0.1125(6)
H21 H 0.4866 0.0609 0.0785
H22 H 0.4817 0.1031 0.1660
C24 C 0.5982(5) 0.1898(5) 0.1040(4)
H23 H 0.6368 0.1978 0.1543
H24 H 0.6474 0.1457 0.0695
C25 C 0.4018(6) 0.2120(8) 0.0918(7)
H25 H 0.3569 0.1825 0.0477
H26 H 0.3513 0.2239 0.1354
loop_
_geom_bond_atom_site_label_1
_geom_bond_atom_site_label_2
_geom_bond_site_symmetry_1
_geom_bond_site_symmetry_2
N1 C1 1_555 1_555
C1 C2 1_555 1_555
C2 C8 1_555 1_555
O1 C5 1_555 1_555
N2 H1 1_555 1_555
N3 H2 1_555 1_555
C3 N1 1_555 1_555
C4 C5 1_555 1_555
N4 C3 1_555 1_555
H3 N4 1_555 1_555
H4 N4 1_555 1_555
C5 N2 1_555 1_555
C6 C3 1_555 1_555
C7 N3 1_555 1_555
C8 N2 1_555 1_555
H5 C8 1_555 1_555
C9 C2 1_555 1_555
H6 C9 1_555 1_555
C10 H7 1_555 1_555
C11 C7 1_555 1_555
H8 C11 1_555 1_555
C12 C11 1_555 1_555
H9 C12 1_555 1_555
C13 C1 1_555 1_555
H10 C13 1_555 1_555
C14 C4 1_555 1_555
H11 C14 1_555 1_555
C15 C6 1_555 1_555
H12 C15 1_555 1_555
C16 C9 1_555 1_555
H13 C16 1_555 1_555
C17 H14 1_555 1_555
C18 C6 1_555 1_555
H15 C18 1_555 1_555
C19 C15 1_555 1_555
H16 C19 1_555 1_555
C20 C17 1_555 1_555
H17 C20 1_555 1_555
C21 C12 1_555 1_555
H18 C21 1_555 1_555
O2 C22 1_555 1_555
C22 H19 1_555 1_555
H20 C22 1_555 1_555
C23 H21 1_555 1_555
H22 C23 1_555 1_555
C24 O2 1_555 1_555
H23 C24 1_555 1_555
H24 C24 1_555 1_555
C25 C22 1_555 1_555
H25 C25 1_555 1_555
H26 C25 1_555 1_555
N3 C8 1_555 1_555
C4 C7 1_555 1_555
C10 C13 1_555 1_555
C10 C16 1_555 1_555
C14 C21 1_555 1_555
C17 C18 1_555 1_555
C19 C20 1_555 1_555
C23 C24 1_555 1_555
C23 C25 1_555 1_555

#END
