
#######################################################################
#
#                 Cambridge Crystallographic Data Centre
#                                CCDC 
#
#######################################################################
#
# If this CIF has been generated from an entry in the Cambridge 
# Structural Database, then it will include bibliographic, chemical, 
# crystal, experimental, refinement or atomic coordinate data resulting 
# from the CCDC's data processing and validation procedures.
#
#######################################################################

data_MIRVEQ
_chemical_formula_moiety         'C19 H22 N4 O1'
_chemical_name_systematic        
2,2-Dimethyl-N'-(2-(4-oxo-1,2,3,4-tetrahydroquinazolin-2-yl)phenyl)propanimidamide
_symmetry_cell_setting           monoclinic
_symmetry_space_group_name_H-M   'P 21/c'
_symmetry_Int_Tables_number      14
_space_group_name_Hall           '-P 2ybc'
loop_
_symmetry_equiv_pos_site_id
_symmetry_equiv_pos_as_xyz
1 x,y,z
2 -x,1/2+y,1/2-z
3 -x,-y,-z
4 x,1/2-y,1/2+z
_cell_length_a                   9.666(10)
_cell_length_b                   10.849(11)
_cell_length_c                   15.997(16)
_cell_angle_alpha                90
_cell_angle_beta                 100.738(19)
_cell_angle_gamma                90
_cell_volume                     1648.17
_exptl_crystal_colour            colorless
_exptl_crystal_description       Block
_cell_formula_units_Z            4
loop_
_atom_site_label
_atom_site_type_symbol
_atom_site_fract_x
_atom_site_fract_y
_atom_site_fract_z
O1 O 0.9337(2) 0.7033(2) 0.14947(13)
N1 N 0.5408(2) 0.7653(2) 0.03592(13)
H1 H 0.4512 0.7593 0.0326
N2 N 0.7398(2) 0.8156(2) 0.13321(13)
H2 H 0.7629 0.8451 0.1838
N3 N 0.66628(19) 1.11446(19) 0.10606(12)
N4 N 0.8213(2) 1.1003(3) 0.23208(14)
H3 H 0.7432 1.0892 0.2531
H4 H 0.8723 1.1603 0.2607
C1 C 0.6134(2) 0.6797(2) 0.00117(15)
C2 C 0.5510(3) 0.6068(3) -0.06532(17)
H5 H 0.4560 0.6170 -0.0883
C3 C 0.6260(3) 0.5211(3) -0.0973(2)
H6 H 0.5823 0.4731 -0.1429
C4 C 0.7635(3) 0.5029(3) -0.06494(19)
H7 H 0.8152 0.4442 -0.0884
C5 C 0.8245(3) 0.5712(3) 0.00210(17)
H8 H 0.9184 0.5570 0.0262
C6 C 0.7531(2) 0.6596(2) 0.03509(15)
C7 C 0.8180(2) 0.7273(2) 0.10962(15)
C8 C 0.6170(2) 0.8647(2) 0.07774(16)
H9 H 0.6472 0.9187 0.0354
C9 C 0.5323(2) 0.9372(2) 0.12841(14)
C10 C 0.4252(3) 0.8856(3) 0.16083(17)
H10 H 0.4052 0.8023 0.1519
C11 C 0.3479(3) 0.9534(3) 0.20567(18)
H11 H 0.2749 0.9169 0.2273
C12 C 0.3761(3) 1.0739(3) 0.21921(18)
H12 H 0.3227 1.1207 0.2502
C13 C 0.4820(3) 1.1271(3) 0.18782(17)
H13 H 0.5006 1.2105 0.1972
C14 C 0.5619(2) 1.0600(2) 0.14257(14)
C15 C 0.7862(3) 1.1329(2) 0.15033(15)
C16 C 0.8985(3) 1.1872(3) 0.11177(17)
C17 C 0.8533(3) 1.1981(4) 0.01713(18)
H14 H 0.8286 1.1182 -0.0067
H15 H 0.9292 1.2315 -0.0069
H16 H 0.7732 1.2518 0.0044
C18 C 0.9328(4) 1.3139(4) 0.1489(2)
H17 H 0.8491 1.3636 0.1395
H18 H 1.0028 1.3516 0.1219
H19 H 0.9682 1.3069 0.2089
C19 C 1.0250(3) 1.1052(4) 0.1299(3)
H20 H 1.0608 1.1038 0.1901
H21 H 1.0963 1.1361 0.1009
H22 H 0.9992 1.0233 0.1105
loop_
_geom_bond_atom_site_label_1
_geom_bond_atom_site_label_2
_geom_bond_site_symmetry_1
_geom_bond_site_symmetry_2
O1 C7 1_555 1_555
N1 H1 1_555 1_555
N2 H2 1_555 1_555
N3 C14 1_555 1_555
N4 H3 1_555 1_555
H4 N4 1_555 1_555
C1 N1 1_555 1_555
C2 C1 1_555 1_555
H5 C2 1_555 1_555
C3 C2 1_555 1_555
H6 C3 1_555 1_555
C4 C3 1_555 1_555
H7 C4 1_555 1_555
C5 C4 1_555 1_555
H8 C5 1_555 1_555
C6 C1 1_555 1_555
C7 N2 1_555 1_555
C8 N1 1_555 1_555
H9 C8 1_555 1_555
C9 C8 1_555 1_555
C10 C9 1_555 1_555
H10 C10 1_555 1_555
C11 C10 1_555 1_555
H11 C11 1_555 1_555
C12 C11 1_555 1_555
H12 C12 1_555 1_555
C13 C12 1_555 1_555
H13 C13 1_555 1_555
C14 C9 1_555 1_555
C15 N3 1_555 1_555
C16 C15 1_555 1_555
C17 C16 1_555 1_555
H14 C17 1_555 1_555
H15 C17 1_555 1_555
H16 C17 1_555 1_555
C18 C16 1_555 1_555
H17 C18 1_555 1_555
H18 C18 1_555 1_555
H19 C18 1_555 1_555
C19 C16 1_555 1_555
H20 C19 1_555 1_555
H21 C19 1_555 1_555
H22 C19 1_555 1_555
N2 C8 1_555 1_555
N4 C15 1_555 1_555
C5 C6 1_555 1_555
C6 C7 1_555 1_555
C13 C14 1_555 1_555

#END
