
#######################################################################
#
#                 Cambridge Crystallographic Data Centre
#                                CCDC 
#
#######################################################################
#
# If this CIF has been generated from an entry in the Cambridge 
# Structural Database, then it will include bibliographic, chemical, 
# crystal, experimental, refinement or atomic coordinate data resulting 
# from the CCDC's data processing and validation procedures.
#
#######################################################################

data_MIRYIV
_chemical_formula_moiety         'C23 H21 N5'
_chemical_name_systematic        
3-Ethyl-2-(4'-dimethylaminophenyl)imidazo(4,5-f)-1,10-phenanthroline
_symmetry_cell_setting           monoclinic
_symmetry_space_group_name_H-M   'P 21/c'
_symmetry_Int_Tables_number      14
_space_group_name_Hall           '-P 2ybc'
loop_
_symmetry_equiv_pos_site_id
_symmetry_equiv_pos_as_xyz
1 x,y,z
2 x,1/2-y,1/2+z
3 -x,-y,-z
4 -x,1/2+y,1/2-z
_cell_length_a                   9.6970(15)
_cell_length_b                   9.7602(15)
_cell_length_c                   19.724(3)
_cell_angle_alpha                90.00
_cell_angle_beta                 92.971(4)
_cell_angle_gamma                90.00
_cell_volume                     1864.26
_exptl_crystal_colour            yellow
_chemical_melting_point          'above 250deg.C'
_cell_formula_units_Z            4
_exptl_crystal_recrystallization_method ethanol
loop_
_atom_site_label
_atom_site_type_symbol
_atom_site_fract_x
_atom_site_fract_y
_atom_site_fract_z
C1 C 0.4274(4) 1.0221(4) 0.83442(17)
C2 C 0.5009(4) 0.9731(4) 0.89292(18)
H1 H 0.5874 1.0093 0.9050
C3 C 0.4465(4) 0.8723(4) 0.93243(18)
H2 H 0.4982 0.8414 0.9704
C4 C 0.3178(3) 0.8154(3) 0.91762(15)
C5 C 0.2592(3) 0.7128(3) 0.96239(15)
C6 C 0.1666(3) 0.6160(3) 1.04619(15)
C7 C 0.1009(3) 0.5904(3) 1.10763(15)
C8 C 0.0603(3) 0.6936(3) 1.15189(16)
H3 H 0.0751 0.7850 1.1413
C9 C -0.0007(4) 0.6605(4) 1.21028(16)
H4 H -0.0274 0.7278 1.2403
C10 C -0.0215(4) 0.5230(4) 1.22333(17)
H5 H -0.0631 0.5006 1.2633
C11 C 0.0755(3) 0.4538(3) 1.12544(15)
C12 C 0.1134(3) 0.3410(3) 1.08121(16)
C13 C 0.1183(4) 0.1102(4) 1.0621(2)
H6 H 0.0995 0.0218 1.0766
C14 C 0.1760(4) 0.1255(4) 1.0005(2)
H7 H 0.1953 0.0494 0.9742
C15 C 0.2048(4) 0.2555(3) 0.97840(18)
H8 H 0.2441 0.2682 0.9368
C16 C 0.1748(3) 0.3687(3) 1.01859(16)
C17 C 0.1993(3) 0.5105(3) 1.00283(15)
C18 C 0.2447(4) 0.8640(4) 0.86004(17)
H9 H 0.1583 0.8272 0.8484
C19 C 0.2967(4) 0.9651(4) 0.81980(18)
H10 H 0.2439 0.9961 0.7822
C20 C 0.6234(4) 1.1631(4) 0.8043(2)
H11 H 0.6659 1.1126 0.8416
H12 H 0.6271 1.2593 0.8144
H13 H 0.6718 1.1453 0.7640
C21 C 0.3953(5) 1.1877(6) 0.7394(2)
H14 H 0.3039 1.1498 0.7385
H15 H 0.4349 1.1722 0.6965
H16 H 0.3909 1.2844 0.7479
C22 C 0.3201(3) 0.5126(3) 0.89014(16)
H17 H 0.3224 0.5801 0.8541
H18 H 0.2626 0.4371 0.8737
C23 C 0.4655(4) 0.4605(4) 0.9066(2)
H19 H 0.5016 0.4209 0.8666
H20 H 0.4635 0.3922 0.9416
H21 H 0.5233 0.5353 0.9220
N1 N 0.4818(4) 1.1212(4) 0.79381(18)
N2 N 0.2047(3) 0.7413(3) 1.02104(12)
N3 N 0.2589(3) 0.5743(3) 0.94902(12)
N4 N 0.0130(3) 0.4209(3) 1.18353(14)
N5 N 0.0880(3) 0.2122(3) 1.10188(15)
loop_
_geom_bond_atom_site_label_1
_geom_bond_atom_site_label_2
_geom_bond_site_symmetry_1
_geom_bond_site_symmetry_2
C1 C2 1_555 1_555
C2 H1 1_555 1_555
C3 C2 1_555 1_555
H2 C3 1_555 1_555
C4 C3 1_555 1_555
C5 C4 1_555 1_555
C6 C7 1_555 1_555
C7 C8 1_555 1_555
C8 H3 1_555 1_555
C9 C8 1_555 1_555
H4 C9 1_555 1_555
C10 C9 1_555 1_555
H5 C10 1_555 1_555
C11 C7 1_555 1_555
C12 C11 1_555 1_555
C13 H6 1_555 1_555
C14 C13 1_555 1_555
H7 C14 1_555 1_555
C15 C14 1_555 1_555
H8 C15 1_555 1_555
C16 C12 1_555 1_555
C17 C6 1_555 1_555
C18 C4 1_555 1_555
H9 C18 1_555 1_555
C19 C1 1_555 1_555
H10 C19 1_555 1_555
C20 H11 1_555 1_555
H12 C20 1_555 1_555
H13 C20 1_555 1_555
C21 H14 1_555 1_555
H15 C21 1_555 1_555
H16 C21 1_555 1_555
C22 H17 1_555 1_555
H18 C22 1_555 1_555
C23 C22 1_555 1_555
H19 C23 1_555 1_555
H20 C23 1_555 1_555
H21 C23 1_555 1_555
N1 C1 1_555 1_555
N2 C5 1_555 1_555
N3 C5 1_555 1_555
N4 C10 1_555 1_555
N5 C12 1_555 1_555
C6 N2 1_555 1_555
C11 N4 1_555 1_555
C13 N5 1_555 1_555
C15 C16 1_555 1_555
C16 C17 1_555 1_555
C17 N3 1_555 1_555
C18 C19 1_555 1_555
C20 N1 1_555 1_555
C21 N1 1_555 1_555
C22 N3 1_555 1_555

#END
