
#######################################################################
#
#                 Cambridge Crystallographic Data Centre
#                                CCDC 
#
#######################################################################
#
# If this CIF has been generated from an entry in the Cambridge 
# Structural Database, then it will include bibliographic, chemical, 
# crystal, experimental, refinement or atomic coordinate data resulting 
# from the CCDC's data processing and validation procedures.
#
#######################################################################

data_MIRYIW
_chemical_formula_moiety         'C26 H18 O2'
_chemical_name_systematic        2,2'-bis(prop-2-ynyloxy)-1,1'-binaphthyl
_symmetry_cell_setting           monoclinic
_symmetry_space_group_name_H-M   'C 2/c'
_symmetry_Int_Tables_number      15
_space_group_name_Hall           '-C 2yn'
loop_
_symmetry_equiv_pos_site_id
_symmetry_equiv_pos_as_xyz
1 x,y,z
2 1/2+x,1/2+y,z
3 -x,y,1/2-z
4 1/2-x,1/2+y,1/2-z
5 -x,-y,-z
6 1/2-x,1/2-y,-z
7 x,-y,1/2+z
8 1/2+x,1/2-y,1/2+z
_cell_length_a                   13.866(2)
_cell_length_b                   8.8591(14)
_cell_length_c                   15.255(2)
_cell_angle_alpha                90
_cell_angle_beta                 96.317(3)
_cell_angle_gamma                90
_cell_volume                     1862.55
_exptl_crystal_colour            colorless
_exptl_crystal_description       block
_cell_formula_units_Z            4
loop_
_atom_site_label
_atom_site_type_symbol
_atom_site_fract_x
_atom_site_fract_y
_atom_site_fract_z
C1 C 0.53783(11) 0.02688(17) 0.28936(9)
C2 C 0.53225(11) -0.07606(18) 0.36043(9)
C3 C 0.45901(12) -0.18646(19) 0.36016(11)
H1 H 0.4137 -0.1965 0.3108
C4 C 0.45339(14) -0.2796(2) 0.43149(12)
H2 H 0.4044 -0.3516 0.4299
C5 C 0.52108(14) -0.2670(2) 0.50676(12)
H3 H 0.5161 -0.3290 0.5552
C6 C 0.59366(13) -0.1641(2) 0.50849(10)
H4 H 0.6385 -0.1570 0.5584
C7 C 0.60280(12) -0.06741(18) 0.43620(10)
C8 C 0.67634(12) 0.04140(19) 0.43727(10)
H5 H 0.7230 0.0469 0.4859
C9 C 0.68140(12) 0.13914(19) 0.36920(10)
H6 H 0.7308 0.2105 0.3716
C10 C 0.61115(12) 0.13157(18) 0.29481(9)
O1 O 0.61167(9) 0.22689(14) 0.22387(7)
C11 C 0.68206(13) 0.3446(2) 0.22703(11)
H7 H 0.6807 0.3895 0.1689
H8 H 0.7460 0.3014 0.2421
C12 C 0.66649(14) 0.4617(2) 0.29005(12)
C13 C 0.65408(17) 0.5555(3) 0.34144(16)
H9 H 0.6442 0.6302 0.3823
C1B C 0.46217(11) 0.02688(17) 0.21064(9)
C2B C 0.46775(11) -0.07606(18) 0.13957(9)
C3B C 0.54099(12) -0.18646(19) 0.13984(11)
H1B H 0.5863 -0.1965 0.1892
C4B C 0.54661(14) -0.2796(2) 0.06851(12)
H2B H 0.5956 -0.3516 0.0701
C5B C 0.47892(14) -0.2670(2) -0.00676(12)
H3B H 0.4839 -0.3290 -0.0552
C6B C 0.40634(13) -0.1641(2) -0.00849(10)
H4B H 0.3615 -0.1570 -0.0584
C7B C 0.39720(12) -0.06741(18) 0.06380(10)
C8B C 0.32366(12) 0.04140(19) 0.06273(10)
H5B H 0.2770 0.0469 0.0141
C9B C 0.31860(12) 0.13914(19) 0.13080(10)
H6B H 0.2692 0.2105 0.1284
C10B C 0.38885(12) 0.13157(18) 0.20519(9)
O1B O 0.38833(9) 0.22689(14) 0.27613(7)
C11B C 0.31794(13) 0.3446(2) 0.27297(11)
H7B H 0.3193 0.3895 0.3311
H8B H 0.2540 0.3014 0.2579
C12B C 0.33351(14) 0.4617(2) 0.20995(12)
C13B C 0.34592(17) 0.5555(3) 0.15856(16)
H9B H 0.3558 0.6302 0.1177
loop_
_geom_bond_atom_site_label_1
_geom_bond_atom_site_label_2
_geom_bond_site_symmetry_1
_geom_bond_site_symmetry_2
C1 C2 1_555 1_555
C2 C3 1_555 1_555
C3 H1 1_555 1_555
C4 C3 1_555 1_555
H2 C4 1_555 1_555
C5 C4 1_555 1_555
H3 C5 1_555 1_555
C6 C5 1_555 1_555
H4 C6 1_555 1_555
C7 C2 1_555 1_555
C8 C7 1_555 1_555
H5 C8 1_555 1_555
C9 C8 1_555 1_555
H6 C9 1_555 1_555
C10 C1 1_555 1_555
O1 C10 1_555 1_555
C11 O1 1_555 1_555
H7 C11 1_555 1_555
H8 C11 1_555 1_555
C12 C11 1_555 1_555
C13 C12 1_555 1_555
H9 C13 1_555 1_555
C1B C1 1_555 1_555
C2B C1B 1_555 1_555
C3B C2B 1_555 1_555
H1B C3B 1_555 1_555
C4B C3B 1_555 1_555
H2B C4B 1_555 1_555
C5B C4B 1_555 1_555
H3B C5B 1_555 1_555
C6B C5B 1_555 1_555
H4B C6B 1_555 1_555
C7B C2B 1_555 1_555
C8B C7B 1_555 1_555
H5B C8B 1_555 1_555
C9B C8B 1_555 1_555
H6B C9B 1_555 1_555
C10B C1B 1_555 1_555
O1B C10B 1_555 1_555
C11B O1B 1_555 1_555
H7B C11B 1_555 1_555
H8B C11B 1_555 1_555
C12B C11B 1_555 1_555
C13B C12B 1_555 1_555
H9B C13B 1_555 1_555
C6 C7 1_555 1_555
C9 C10 1_555 1_555
C6B C7B 1_555 1_555
C9B C10B 1_555 1_555

#END
