
#######################################################################
#
#                 Cambridge Crystallographic Data Centre
#                                CCDC 
#
#######################################################################
#
# If this CIF has been generated from an entry in the Cambridge 
# Structural Database, then it will include bibliographic, chemical, 
# crystal, experimental, refinement or atomic coordinate data resulting 
# from the CCDC's data processing and validation procedures.
#
#######################################################################

data_MISJAC
_chemical_formula_moiety         'C14 H10 N2 O2'
_chemical_name_systematic        
3-(3-nitrophenyl)bicyclo[2.2.1]hepta-2,5-diene-2-carbonitrile
_symmetry_cell_setting           orthorhombic
_symmetry_space_group_name_H-M   'P n m a'
_symmetry_Int_Tables_number      62
_space_group_name_Hall           '-P 2ac 2n'
loop_
_symmetry_equiv_pos_site_id
_symmetry_equiv_pos_as_xyz
1 x,y,z
2 1/2-x,-y,1/2+z
3 1/2+x,1/2-y,1/2-z
4 -x,1/2+y,-z
5 -x,-y,-z
6 1/2+x,y,1/2-z
7 1/2-x,1/2+y,1/2+z
8 x,1/2-y,z
_cell_length_a                   20.966(2)
_cell_length_b                   6.716(3)
_cell_length_c                   7.9340(5)
_cell_angle_alpha                90
_cell_angle_beta                 90
_cell_angle_gamma                90
_cell_volume                     1117.17
_exptl_crystal_colour            colorless
_exptl_crystal_description       plate
_cell_formula_units_Z            4
loop_
_atom_site_label
_atom_site_type_symbol
_atom_site_fract_x
_atom_site_fract_y
_atom_site_fract_z
C1 C 0.1126(2) -0.2500 0.9174(5)
C2 C 0.14956(19) -0.2500 1.0557(5)
C3 C 0.2195(2) -0.2500 0.9976(5)
H1 H 0.2528 -0.2335 1.0868
C4 C 0.2254(12) -0.433(3) 0.883(3)
H2 H 0.2488 -0.5516 0.9037
C5 C 0.1907(3) -0.3904(13) 0.7478(9)
H3 H 0.1857 -0.4742 0.6522
C6 C 0.1601(3) -0.1854(10) 0.7697(7)
H4 H 0.1420 -0.1178 0.6681
C7 C 0.2154(11) -0.086(3) 0.862(2)
H5 H 0.2041 0.0460 0.9089
H6 H 0.2545 -0.0761 0.7924
C8 C 0.13151(19) -0.2500 1.2252(5)
N1 N 0.1193(2) -0.2500 1.3649(5)
C9 C 0.0431(2) -0.2500 0.8963(5)
C10 C 0.0017(2) -0.2500 1.0341(5)
H7 H 0.0188 -0.2500 1.1450
C11 C -0.0635(2) -0.2500 1.0125(6)
H8 H -0.0907 -0.2500 1.1083
C12 C -0.0899(2) -0.2500 0.8523(5)
H9 H -0.1348 -0.2500 0.8358
C13 C -0.0481(2) -0.2500 0.7176(5)
C14 C 0.0172(2) -0.2500 0.7349(5)
H10 H 0.0440 -0.2500 0.6385
N2 N -0.07496(18) -0.2500 0.5468(5)
O1 O -0.03928(17) -0.2500 0.4271(4)
O2 O -0.13250(15) -0.2500 0.5299(4)
H1G H 0.2528 -0.2665 1.0868
C4G C 0.2254(12) -0.067(3) 0.883(3)
H2G H 0.2488 0.0516 0.9037
C5G C 0.1907(3) -0.1096(13) 0.7478(9)
H3G H 0.1857 -0.0258 0.6522
C6G C 0.1601(3) -0.3146(10) 0.7697(7)
H4G H 0.1420 -0.3822 0.6681
C7G C 0.2154(11) -0.414(3) 0.862(2)
H5G H 0.2041 -0.5460 0.9089
H6G H 0.2545 -0.4239 0.7924
loop_
_geom_bond_atom_site_label_1
_geom_bond_atom_site_label_2
_geom_bond_site_symmetry_1
_geom_bond_site_symmetry_2
C1 C2 1_555 1_555
C2 C3 1_555 1_555
C3 H1 1_555 1_555
C4 C3 1_555 1_555
H2 C4 1_555 1_555
C5 C4 1_555 1_555
H3 C5 1_555 1_555
C6 C1 1_555 1_555
H4 C6 1_555 1_555
C7 C3 1_555 1_555
H5 C7 1_555 1_555
H6 C7 1_555 1_555
C8 C2 1_555 1_555
N1 C8 1_555 1_555
C9 C1 1_555 1_555
C10 C9 1_555 1_555
H7 C10 1_555 1_555
C11 C10 1_555 1_555
H8 C11 1_555 1_555
C12 C11 1_555 1_555
H9 C12 1_555 1_555
C13 C12 1_555 1_555
C14 C9 1_555 1_555
H10 C14 1_555 1_555
N2 C13 1_555 1_555
O1 N2 1_555 1_555
O2 N2 1_555 1_555
H1G C3 1_555 1_555
C4G C3 1_555 1_555
H2G C7 1_555 1_555
C5G C6 1_555 1_555
H3G C5G 1_555 1_555
C6G C1 1_555 1_555
H4G C5 1_555 1_555
C7G C3 1_555 1_555
H5G C4 1_555 1_555
H6G C4 1_555 1_555
H2 C7G 1_555 1_555
C5 C6 1_555 1_555
C5 C6G 1_555 1_555
C5 C7G 1_555 1_555
C6 C7 1_555 1_555
C6 C6G 1_555 1_555
H4 C5G 1_555 1_555
C7 C5G 1_555 1_555
H5 C4G 1_555 1_555
H6 C4G 1_555 1_555
C13 C14 1_555 1_555
C4G H2G 1_555 1_555
C4G C5G 1_555 1_555
C5G C6G 1_555 1_555
C6G H4G 1_555 1_555
C6G C7G 1_555 1_555
C7G H5G 1_555 1_555
C7G H6G 1_555 1_555

#END
