
#######################################################################
#
#                 Cambridge Crystallographic Data Centre
#                                CCDC 
#
#######################################################################
#
# If this CIF has been generated from an entry in the Cambridge 
# Structural Database, then it will include bibliographic, chemical, 
# crystal, experimental, refinement or atomic coordinate data resulting 
# from the CCDC's data processing and validation procedures.
#
#######################################################################

data_MISTUD
_chemical_compound_source        'whole plant of Huperzia serrata'
_chemical_name_common            'Huperzine Q'
_chemical_formula_moiety         'C16 H25 N1 O2'
_chemical_name_systematic        13-epi-13\b,16-epoxydihydrofawcettimine
_chemical_properties_biological  
'Plant source is a Chinese medicinal herb used in treatment of contusion, strain, swelling and schirophrema'
_symmetry_cell_setting           monoclinic
_symmetry_space_group_name_H-M   'P 21'
_symmetry_Int_Tables_number      4
_space_group_name_Hall           'P 2yb'
loop_
_symmetry_equiv_pos_site_id
_symmetry_equiv_pos_as_xyz
1 x,y,z
2 -x,1/2+y,-z
_cell_length_a                   7.322(2)
_cell_length_b                   12.040(2)
_cell_length_c                   16.067(3)
_cell_angle_alpha                90
_cell_angle_beta                 91.01(2)
_cell_angle_gamma                90
_cell_volume                     1416.2
_exptl_crystal_colour            colorless
_exptl_crystal_description       prismatic
_chemical_melting_point          192-194deg.C
_cell_formula_units_Z            4
loop_
_atom_site_label
_atom_site_type_symbol
_atom_site_fract_x
_atom_site_fract_y
_atom_site_fract_z
O1 O 0.3651(4) 0.6291 0.2881(2)
O2 O 0.3389(6) 0.4072(4) 0.6223(2)
N1 N 0.2637(6) 0.4490(5) 0.2755(2)
C1 C 0.1285(9) 0.3645(6) 0.2937(3)
C2 C 0.1581(9) 0.2927(6) 0.3723(3)
C3 C 0.1538(8) 0.3574(5) 0.4535(3)
C4 C 0.3212(6) 0.4274(5) 0.4741(2)
C5 C 0.3023(7) 0.4848(5) 0.5582(3)
C6 C 0.4347(8) 0.5816(5) 0.5551(3)
C7 C 0.4056(7) 0.6281(5) 0.4665(3)
C8 C 0.2404(9) 0.7049(5) 0.4619(3)
C9 C 0.4457(8) 0.4079(6) 0.2538(3)
C10 C 0.5746(7) 0.3867(6) 0.3265(3)
C11 C 0.5811(7) 0.4885(5) 0.3840(3)
C12 C 0.3900(6) 0.5201(5) 0.4128(2)
C13 C 0.2735(6) 0.5424(5) 0.3337(2)
C14 C 0.0912(7) 0.5933(6) 0.3510(3)
C15 C 0.1497(8) 0.7099(5) 0.3764(3)
C16 C 0.2860(8) 0.7347(5) 0.3080(3)
H1 H 0.1201 0.3186 0.2497
H2 H 0.0085 0.4036 0.2961
H3 H 0.2873 0.2627 0.3587
H4 H 0.0559 0.2632 0.3789
H5 H 0.1370 0.3058 0.4975
H6 H 0.0501 0.4061 0.4508
H7 H 0.4341 0.3771 0.4877
H8 H 0.1728 0.5195 0.5692
H9 H 0.5566 0.5569 0.5636
H10 H 0.4059 0.6358 0.5957
H11 H 0.5136 0.6724 0.4491
H12 H 0.1518 0.6788 0.5009
H13 H 0.2778 0.7774 0.4780
H14 H 0.4991 0.4621 0.2190
H15 H 0.4288 0.3408 0.2240
H16 H 0.6930 0.3716 0.3058
H17 H 0.5331 0.3238 0.3568
H18 H 0.6314 0.5491 0.3534
H19 H 0.6570 0.4724 0.4303
H20 H 0.0128 0.5928 0.3041
H21 H 0.0327 0.5559 0.3963
H22 H 0.0382 0.7588 0.3767
H23 H 0.3777 0.7851 0.3289
H24 H 0.2269 0.7669 0.2613
H25 H 0.2967 0.4301 0.6684
O3 O 0.1303(4) 0.3167(4) 0.7932(2)
O4 O 0.1529(6) 0.5645(4) 1.1181(2)
N2 N 0.1812(5) 0.5017(4) 0.7715(2)
C17 C 0.2906(7) 0.6024(5) 0.7837(3)
C18 C 0.2592(8) 0.6757(5) 0.8603(3)
C19 C 0.2946(7) 0.6186(5) 0.9435(3)
C20 C 0.1520(6) 0.5352(5) 0.9702(3)
C21 C 0.1990(7) 0.4861(5) 1.0554(3)
C22 C 0.0956(8) 0.3781(6) 1.0590(3)
C23 C 0.1171(7) 0.3282(5) 0.9719(3)
C24 C 0.3011(8) 0.2670(5) 0.9666(3)
C25 C -0.0123(8) 0.5218(5) 0.7516(3)
C26 C -0.1357(7) 0.5369(6) 0.8267(3)
C27 C -0.1054(6) 0.4431(5) 0.8887(3)
C28 C 0.0973(6) 0.4316(5) 0.9136(2)
C29 C 0.2059(6) 0.4133(5) 0.8336(2)
C30 C 0.4026(6) 0.3813(5) 0.8493(3)
C31 C 0.3781(7) 0.2617(6) 0.8783(3)
C32 C 0.2407(8) 0.2213(5) 0.8147(3)
H26 H 0.4153 0.5795 0.7870
H27 H 0.2724 0.6471 0.7357
H28 H 0.3327 0.7396 0.8566
H29 H 0.1319 0.6986 0.8582
H30 H 0.3049 0.6736 0.9848
H31 H 0.4074 0.5797 0.9389
H32 H 0.0337 0.5692 0.9816
H33 H 0.3345 0.4663 1.0759
H34 H -0.0315 0.3905 1.0701
H35 H 0.1442 0.3302 1.1009
H36 H 0.0197 0.2772 0.9535
H37 H 0.3865 0.3033 1.0013
H38 H 0.2832 0.1927 0.9852
H39 H -0.0578 0.4602 0.7204
H40 H -0.0216 0.5872 0.7189
H41 H -0.2600 0.5354 0.8079
H42 H -0.1095 0.6056 0.8522
H43 H -0.1721 0.4584 0.9372
H44 H -0.1451 0.3753 0.8646
H45 H 0.4581 0.4266 0.8913
H46 H 0.4724 0.3855 0.8002
H47 H 0.5000 0.2257 0.8728
H48 H 0.1659 0.1632 0.8372
H49 H 0.2999 0.1923 0.7668
H50 H 0.2044 0.5357 1.1767
loop_
_geom_bond_atom_site_label_1
_geom_bond_atom_site_label_2
_geom_bond_site_symmetry_1
_geom_bond_site_symmetry_2
O1 C13 1_555 1_555
O2 C5 1_555 1_555
N1 C1 1_555 1_555
C1 C2 1_555 1_555
C2 C3 1_555 1_555
C3 C4 1_555 1_555
C4 C5 1_555 1_555
C5 C6 1_555 1_555
C6 C7 1_555 1_555
C7 C8 1_555 1_555
C8 C15 1_555 1_555
C9 N1 1_555 1_555
C10 C9 1_555 1_555
C11 C10 1_555 1_555
C12 C4 1_555 1_555
C13 N1 1_555 1_555
C14 C13 1_555 1_555
C15 C14 1_555 1_555
C16 O1 1_555 1_555
H1 C1 1_555 1_555
H2 C1 1_555 1_555
H3 C2 1_555 1_555
H4 C2 1_555 1_555
H5 C3 1_555 1_555
H6 C3 1_555 1_555
H7 C4 1_555 1_555
H8 C5 1_555 1_555
H9 C6 1_555 1_555
H10 C6 1_555 1_555
H11 C7 1_555 1_555
H12 C8 1_555 1_555
H13 C8 1_555 1_555
H14 C9 1_555 1_555
H15 C9 1_555 1_555
H16 C10 1_555 1_555
H17 C10 1_555 1_555
H18 C11 1_555 1_555
H19 C11 1_555 1_555
H20 C14 1_555 1_555
H21 C14 1_555 1_555
H22 C15 1_555 1_555
H23 C16 1_555 1_555
H24 C16 1_555 1_555
H25 O2 1_555 1_555
O3 C29 1_555 1_555
O4 C21 1_555 1_555
N2 C17 1_555 1_555
C17 C18 1_555 1_555
C18 C19 1_555 1_555
C19 C20 1_555 1_555
C20 C21 1_555 1_555
C21 C22 1_555 1_555
C22 C23 1_555 1_555
C23 C24 1_555 1_555
C24 C31 1_555 1_555
C25 N2 1_555 1_555
C26 C25 1_555 1_555
C27 C26 1_555 1_555
C28 C20 1_555 1_555
C29 N2 1_555 1_555
C30 C29 1_555 1_555
C31 C30 1_555 1_555
C32 O3 1_555 1_555
H26 C17 1_555 1_555
H27 C17 1_555 1_555
H28 C18 1_555 1_555
H29 C18 1_555 1_555
H30 C19 1_555 1_555
H31 C19 1_555 1_555
H32 C20 1_555 1_555
H33 C21 1_555 1_555
H34 C22 1_555 1_555
H35 C22 1_555 1_555
H36 C23 1_555 1_555
H37 C24 1_555 1_555
H38 C24 1_555 1_555
H39 C25 1_555 1_555
H40 C25 1_555 1_555
H41 C26 1_555 1_555
H42 C26 1_555 1_555
H43 C27 1_555 1_555
H44 C27 1_555 1_555
H45 C30 1_555 1_555
H46 C30 1_555 1_555
H47 C31 1_555 1_555
H48 C32 1_555 1_555
H49 C32 1_555 1_555
H50 O4 1_555 1_555
C7 C12 1_555 1_555
C11 C12 1_555 1_555
C12 C13 1_555 1_555
C15 C16 1_555 1_555
C23 C28 1_555 1_555
C27 C28 1_555 1_555
C28 C29 1_555 1_555
C31 C32 1_555 1_555

#END
