
#######################################################################
#
#                 Cambridge Crystallographic Data Centre
#                                CCDC 
#
#######################################################################
#
# If this CIF has been generated from an entry in the Cambridge 
# Structural Database, then it will include bibliographic, chemical, 
# crystal, experimental, refinement or atomic coordinate data resulting 
# from the CCDC's data processing and validation procedures.
#
#######################################################################

data_MITDOI
_chemical_formula_moiety         'C22 H24 N2 O2'
_chemical_name_systematic        
4-Benzyl-3-(2-methylpent-4-enoyl)-2-(phenylimino)oxazolidine
_symmetry_cell_setting           monoclinic
_symmetry_space_group_name_H-M   'P 21'
_symmetry_Int_Tables_number      4
_space_group_name_Hall           'P 2yb'
loop_
_symmetry_equiv_pos_site_id
_symmetry_equiv_pos_as_xyz
1 x,y,z
2 -x,1/2+y,-z
_cell_length_a                   13.137(5)
_cell_length_b                   7.546(3)
_cell_length_c                   9.835(4)
_cell_angle_alpha                90
_cell_angle_beta                 100.40(4)
_cell_angle_gamma                90
_cell_volume                     958.944
_exptl_crystal_colour            colorless
_exptl_crystal_description       'tetragonal prism'
_chemical_melting_point          92-93deg.C
_cell_formula_units_Z            2
loop_
_atom_site_label
_atom_site_type_symbol
_atom_site_fract_x
_atom_site_fract_y
_atom_site_fract_z
O1 O 0.8193(2) 0.8810(5) 0.1826(4)
O2 O 0.5128(3) 0.9536(6) 0.3050(5)
N1 N 0.6595(3) 0.8851(6) 0.2327(4)
N2 N 0.7252(3) 0.6205(5) 0.1499(4)
C1 C 0.7046(4) 1.0589(7) 0.2785(5)
H1 H 0.6547 1.1541 0.2490
C2 C 0.7397(4) 1.0617(7) 0.4363(5)
H2 H 0.6821 1.0276 0.4801
H3 H 0.7944 0.9754 0.4622
C3 C 0.7782(4) 1.2418(7) 0.4888(5)
C4 C 0.7111(5) 1.3786(9) 0.4899(6)
H4 H 0.6407 1.3610 0.4581
C5 C 0.7466(7) 1.5446(10) 0.5381(7)
H5 H 0.7004 1.6382 0.5372
C6 C 0.8496(8) 1.5693(11) 0.5867(7)
H6 H 0.8736 1.6807 0.6179
C7 C 0.9169(4) 1.4347(8) 0.5901(5)
H7 H 0.9867 1.4518 0.6263
C8 C 0.8816(4) 1.2695(8) 0.5392(5)
H8 H 0.9284 1.1770 0.5391
C9 C 0.7919(4) 1.0662(7) 0.1990(6)
H9 H 0.7699 1.1221 0.1098
H10 H 0.8502 1.1315 0.2499
C10 C 0.7345(4) 0.7800(7) 0.1852(5)
C11 C 0.8112(4) 0.5335(6) 0.1089(5)
C12 C 0.9040(4) 0.5138(7) 0.1988(6)
H11 H 0.9121 0.5615 0.2873
C13 C 0.9844(5) 0.4245(8) 0.1586(7)
H12 H 1.0469 0.4139 0.2197
C14 C 0.9739(6) 0.3507(9) 0.0301(10)
H13 H 1.0287 0.2897 0.0037
C15 C 0.8823(6) 0.3677(9) -0.0587(7)
H14 H 0.8745 0.3179 -0.1465
C16 C 0.7999(5) 0.4592(8) -0.0196(6)
H15 H 0.7374 0.4697 -0.0810
C17 C 0.5596(4) 0.8417(8) 0.2521(6)
C18 C 0.5138(4) 0.6666(7) 0.2014(5)
H16 H 0.5682 0.5760 0.2176
C19 C 0.4734(4) 0.6809(9) 0.0463(6)
H17 H 0.5294 0.7106 -0.0001
H18 H 0.4214 0.7716 0.0293
H19 H 0.4439 0.5696 0.0121
C20 C 0.4285(4) 0.6167(8) 0.2828(6)
H20 H 0.4568 0.6191 0.3810
H21 H 0.3735 0.7040 0.2649
C21 C 0.3847(5) 0.4375(9) 0.2446(7)
H22 H 0.4290 0.3407 0.2615
C22 C 0.2891(5) 0.4079(11) 0.1895(7)
H23 H 0.2429 0.5019 0.1713
H24 H 0.2667 0.2927 0.1680
loop_
_geom_bond_atom_site_label_1
_geom_bond_atom_site_label_2
_geom_bond_site_symmetry_1
_geom_bond_site_symmetry_2
O1 C9 1_555 1_555
O2 C17 1_555 1_555
N1 C1 1_555 1_555
N2 C10 1_555 1_555
C1 H1 1_555 1_555
C2 C1 1_555 1_555
H2 C2 1_555 1_555
H3 C2 1_555 1_555
C3 C2 1_555 1_555
C4 C3 1_555 1_555
H4 C4 1_555 1_555
C5 C4 1_555 1_555
H5 C5 1_555 1_555
C6 C5 1_555 1_555
H6 C6 1_555 1_555
C7 C6 1_555 1_555
H7 C7 1_555 1_555
C8 C3 1_555 1_555
H8 C8 1_555 1_555
C9 C1 1_555 1_555
H9 C9 1_555 1_555
H10 C9 1_555 1_555
C10 O1 1_555 1_555
C11 N2 1_555 1_555
C12 C11 1_555 1_555
H11 C12 1_555 1_555
C13 C12 1_555 1_555
H12 C13 1_555 1_555
C14 C13 1_555 1_555
H13 C14 1_555 1_555
C15 C14 1_555 1_555
H14 C15 1_555 1_555
C16 C11 1_555 1_555
H15 C16 1_555 1_555
C17 N1 1_555 1_555
C18 C17 1_555 1_555
H16 C18 1_555 1_555
C19 C18 1_555 1_555
H17 C19 1_555 1_555
H18 C19 1_555 1_555
H19 C19 1_555 1_555
C20 C18 1_555 1_555
H20 C20 1_555 1_555
H21 C20 1_555 1_555
C21 C20 1_555 1_555
H22 C21 1_555 1_555
C22 C21 1_555 1_555
H23 C22 1_555 1_555
H24 C22 1_555 1_555
N1 C10 1_555 1_555
C7 C8 1_555 1_555
C15 C16 1_555 1_555

#END
