
#######################################################################
#
#                 Cambridge Crystallographic Data Centre
#                                CCDC 
#
#######################################################################
#
# If this CIF has been generated from an entry in the Cambridge 
# Structural Database, then it will include bibliographic, chemical, 
# crystal, experimental, refinement or atomic coordinate data resulting 
# from the CCDC's data processing and validation procedures.
#
#######################################################################

data_MIWFIJ
_chemical_formula_moiety         'C27 H23 F1 N2'
_chemical_name_systematic        
1-((4-Fluorophenyl)ethynyl)-2-((1-methyl-1H-indol-2-yl)methyl)-1,2,3,4-tetrahydroisoquinoline
_symmetry_cell_setting           monoclinic
_symmetry_space_group_name_H-M   'P 21/c'
_symmetry_Int_Tables_number      14
_space_group_name_Hall           '-P 2ybc'
loop_
_symmetry_equiv_pos_site_id
_symmetry_equiv_pos_as_xyz
1 x,y,z
2 -x,1/2+y,1/2-z
3 -x,-y,-z
4 x,1/2-y,1/2+z
_cell_length_a                   10.764(3)
_cell_length_b                   12.052(4)
_cell_length_c                   17.532(5)
_cell_angle_alpha                90
_cell_angle_beta                 107.151(7)
_cell_angle_gamma                90
_cell_volume                     2173.25
_cell_formula_units_Z            4
loop_
_atom_site_label
_atom_site_type_symbol
_atom_site_fract_x
_atom_site_fract_y
_atom_site_fract_z
F1 F 1.5169(3) 0.0413(3) 0.0852(2)
N1 N 0.6127(3) 0.4248(3) 0.1093(2)
N2 N 0.8015(3) 0.2371(3) 0.1921(2)
C1 C 0.7075(4) 0.5919(4) 0.1045(2)
C2 C 0.7111(5) 0.7064(4) 0.1026(3)
H1 H 0.7864 0.7434 0.1014
C3 C 0.6010(6) 0.7648(5) 0.1024(4)
H2 H 0.6033 0.8419 0.1041
C4 C 0.4863(5) 0.7093(5) 0.0997(4)
H3 H 0.4116 0.7506 0.0956
C5 C 0.4798(5) 0.5985(4) 0.1027(3)
H4 H 0.4034 0.5633 0.1037
C6 C 0.5914(4) 0.5367(4) 0.1045(2)
C7 C 0.7404(4) 0.4060(3) 0.1120(2)
C8 C 0.7996(4) 0.5045(4) 0.1088(3)
H5 H 0.8856 0.5138 0.1093
C9 C 0.5161(5) 0.3439(4) 0.1123(3)
H6 H 0.5185 0.3317 0.1668
H7 H 0.5336 0.2755 0.0894
H8 H 0.4316 0.3706 0.0827
C10 C 0.7958(5) 0.2921(4) 0.1168(3)
H9 H 0.7429 0.2480 0.0729
H10 H 0.8828 0.2962 0.1114
C11 C 0.8966(4) 0.2868(3) 0.2609(3)
H11 H 0.8906 0.3671 0.2573
H12 H 0.9837 0.2654 0.2613
C12 C 0.8717(5) 0.2491(4) 0.3360(3)
H13 H 0.7938 0.2849 0.3409
H14 H 0.9438 0.2714 0.3812
C13 C 0.8549(4) 0.1238(4) 0.3378(3)
C14 C 0.8611(5) 0.0686(4) 0.4082(3)
H15 H 0.8767 0.1089 0.4554
C15 C 0.8445(5) -0.0449(5) 0.4099(3)
H16 H 0.8489 -0.0804 0.4577
C16 C 0.8216(5) -0.1049(4) 0.3411(4)
H17 H 0.8097 -0.1813 0.3419
C17 C 0.8161(4) -0.0520(4) 0.2703(3)
H18 H 0.8016 -0.0934 0.2237
C18 C 0.8322(4) 0.0635(3) 0.2678(3)
C19 C 0.8273(4) 0.1190(3) 0.1894(3)
H19 H 0.7535 0.0866 0.1486
C20 C 0.9466(4) 0.0930(4) 0.1658(3)
C21 C 1.0439(4) 0.0797(3) 0.1478(3)
C22 C 1.1653(4) 0.0672(3) 0.1300(3)
C23 C 1.1716(6) 0.0550(6) 0.0548(4)
H20 H 1.0953 0.0540 0.0126
C24 C 1.2907(6) 0.0437(6) 0.0393(4)
H21 H 1.2942 0.0335 -0.0126
C25 C 1.4002(5) 0.0480(4) 0.1006(3)
C26 C 1.3982(5) 0.0597(6) 0.1766(4)
H22 H 1.4751 0.0608 0.2185
C27 C 1.2795(5) 0.0701(6) 0.1908(3)
H23 H 1.2769 0.0794 0.2430
loop_
_geom_bond_atom_site_label_1
_geom_bond_atom_site_label_2
_geom_bond_site_symmetry_1
_geom_bond_site_symmetry_2
F1 C25 1_555 1_555
N1 C6 1_555 1_555
N2 C10 1_555 1_555
C1 C2 1_555 1_555
C2 H1 1_555 1_555
C3 C2 1_555 1_555
H2 C3 1_555 1_555
C4 C3 1_555 1_555
H3 C4 1_555 1_555
C5 C4 1_555 1_555
H4 C5 1_555 1_555
C6 C1 1_555 1_555
C7 N1 1_555 1_555
C8 C1 1_555 1_555
H5 C8 1_555 1_555
C9 N1 1_555 1_555
H6 C9 1_555 1_555
H7 C9 1_555 1_555
H8 C9 1_555 1_555
C10 C7 1_555 1_555
H9 C10 1_555 1_555
H10 C10 1_555 1_555
C11 N2 1_555 1_555
H11 C11 1_555 1_555
H12 C11 1_555 1_555
C12 C11 1_555 1_555
H13 C12 1_555 1_555
H14 C12 1_555 1_555
C13 C12 1_555 1_555
C14 C13 1_555 1_555
H15 C14 1_555 1_555
C15 C14 1_555 1_555
H16 C15 1_555 1_555
C16 C15 1_555 1_555
H17 C16 1_555 1_555
C17 C16 1_555 1_555
H18 C17 1_555 1_555
C18 C13 1_555 1_555
C19 N2 1_555 1_555
H19 C19 1_555 1_555
C20 C19 1_555 1_555
C21 C20 1_555 1_555
C22 C21 1_555 1_555
C23 C22 1_555 1_555
H20 C23 1_555 1_555
C24 C23 1_555 1_555
H21 C24 1_555 1_555
C25 C24 1_555 1_555
C26 C25 1_555 1_555
H22 C26 1_555 1_555
C27 C22 1_555 1_555
H23 C27 1_555 1_555
C5 C6 1_555 1_555
C7 C8 1_555 1_555
C17 C18 1_555 1_555
C18 C19 1_555 1_555
C26 C27 1_555 1_555

#END
