
#######################################################################
#
#                 Cambridge Crystallographic Data Centre
#                                CCDC 
#
#######################################################################
#
# If this CIF has been generated from an entry in the Cambridge 
# Structural Database, then it will include bibliographic, chemical, 
# crystal, experimental, refinement or atomic coordinate data resulting 
# from the CCDC's data processing and validation procedures.
#
#######################################################################

data_MIWNUB
_chemical_formula_moiety         'C28 H22 N1 O3 P1'
_chemical_name_systematic        
(R)-(-)-1,1'-Binaphthyl-2,2'-dihydroxy-N-(\a-(S)-methylbenzyl)phosphoramidate
_symmetry_cell_setting           orthorhombic
_symmetry_space_group_name_H-M   'P 21 21 21'
_symmetry_Int_Tables_number      19
_space_group_name_Hall           'P 2ac 2ab'
loop_
_symmetry_equiv_pos_site_id
_symmetry_equiv_pos_as_xyz
1 x,y,z
2 1/2-x,-y,1/2+z
3 1/2+x,1/2-y,-z
4 -x,1/2+y,1/2-z
_cell_length_a                   19.973(4)
_cell_length_b                   20.084(4)
_cell_length_c                   11.436(2)
_cell_angle_alpha                90
_cell_angle_beta                 90
_cell_angle_gamma                90
_cell_volume                     4587.41
_exptl_crystal_colour            colorless
_exptl_crystal_description       prisms
_cell_formula_units_Z            8
_exptl_crystal_recrystallization_method ethanol
loop_
_atom_site_label
_atom_site_type_symbol
_atom_site_fract_x
_atom_site_fract_y
_atom_site_fract_z
P1 P 0.1293(1) 0.1112(1) 0.1978(1)
O1 O 0.1774(2) 0.1736(2) 0.1795(3)
O2 O 0.1801(2) 0.0502(2) 0.2089(3)
O3 O 0.0835(2) 0.0947(2) 0.1030(3)
N1 N 0.0942(2) 0.1279(2) 0.3207(4)
C1 C 0.2322(3) 0.1677(3) 0.1034(5)
C2 C 0.2299(3) 0.2074(3) 0.0005(5)
C3 C 0.2808(3) 0.2020(3) -0.0770(5)
C4 C 0.3341(3) 0.1573(3) -0.0611(5)
C5 C 0.3823(3) 0.1458(4) -0.1476(6)
C6 C 0.4312(3) 0.0994(4) -0.1329(6)
C7 C 0.4342(3) 0.0624(3) -0.0306(6)
C8 C 0.3883(3) 0.0724(3) 0.0570(5)
C9 C 0.3371(2) 0.1199(3) 0.0452(4)
C10 C 0.2864(3) 0.1296(3) 0.1314(4)
C11 C 0.2886(2) 0.0959(3) 0.2473(5)
C12 C 0.3428(2) 0.1055(3) 0.3276(4)
C13 C 0.3959(2) 0.1504(3) 0.3062(5)
C14 C 0.4442(3) 0.1601(3) 0.3888(6)
C15 C 0.4426(3) 0.1250(4) 0.4965(6)
C16 C 0.3932(3) 0.0819(4) 0.5180(5)
C17 C 0.3417(3) 0.0707(3) 0.4347(5)
C18 C 0.2875(3) 0.0273(3) 0.4604(5)
C19 C 0.2344(3) 0.0214(3) 0.3866(5)
C20 C 0.2363(2) 0.0571(3) 0.2820(5)
C21 C 0.1099(3) 0.1827(3) 0.4029(5)
C22 C 0.1246(4) 0.1558(3) 0.5235(6)
C23 C 0.1884(5) 0.1548(4) 0.5650(7)
C24 C 0.2039(8) 0.1303(6) 0.6759(10)
C25 C 0.1526(12) 0.1088(8) 0.7456(12)
C26 C 0.0901(9) 0.1090(7) 0.7050(10)
C27 C 0.0746(5) 0.1329(4) 0.5955(8)
C28 C 0.0529(3) 0.2319(3) 0.4040(7)
P2 P 0.4074(1) 0.4006(1) 0.7418(2)
O4 O 0.3443(2) 0.4496(2) 0.7476(4)
O5 O 0.3722(2) 0.3298(2) 0.7163(4)
O6 O 0.4545(2) 0.4234(2) 0.6534(4)
N2 N 0.4405(2) 0.3919(3) 0.8686(5)
C29 C 0.2853(3) 0.4289(3) 0.8031(5)
C30 C 0.2697(3) 0.4594(3) 0.9099(6)
C31 C 0.2126(3) 0.4414(3) 0.9667(5)
C32 C 0.1695(3) 0.3921(3) 0.9226(5)
C33 C 0.1109(3) 0.3730(3) 0.9798(5)
C34 C 0.0704(3) 0.3250(4) 0.9366(7)
C35 C 0.0885(3) 0.2924(3) 0.8328(6)
C36 C 0.1438(3) 0.3100(3) 0.7731(5)
C37 C 0.1855(3) 0.3616(3) 0.8138(5)
C38 C 0.2451(2) 0.3825(3) 0.7511(5)
C39 C 0.2644(3) 0.3548(3) 0.6356(5)
C40 C 0.2220(3) 0.3579(3) 0.5351(5)
C41 C 0.1612(3) 0.3934(3) 0.5342(5)
C42 C 0.1243(3) 0.3995(4) 0.4340(6)
C43 C 0.1463(4) 0.3707(4) 0.3309(7)
C44 C 0.2042(4) 0.3354(4) 0.3271(6)
C45 C 0.2442(3) 0.3285(3) 0.4283(5)
C46 C 0.3060(3) 0.2964(4) 0.4262(6)
C47 C 0.3480(3) 0.2959(3) 0.5199(6)
C48 C 0.3261(3) 0.3274(3) 0.6232(6)
C49 C 0.4107(3) 0.3633(3) 0.9742(6)
C50 C 0.4136(3) 0.4109(3) 1.0769(6)
C51 C 0.4618(3) 0.4596(3) 1.0868(6)
C52 C 0.4656(4) 0.4994(4) 1.1864(7)
C53 C 0.4215(4) 0.4890(4) 1.2753(7)
C54 C 0.3718(5) 0.4426(5) 1.2653(8)
C55 C 0.3683(4) 0.4035(4) 1.1671(7)
C56 C 0.4468(4) 0.2994(3) 1.0053(7)
loop_
_geom_bond_atom_site_label_1
_geom_bond_atom_site_label_2
_geom_bond_site_symmetry_1
_geom_bond_site_symmetry_2
P1 O1 1_555 1_555
O1 C1 1_555 1_555
O2 P1 1_555 1_555
O3 P1 1_555 1_555
N1 P1 1_555 1_555
C1 C2 1_555 1_555
C2 C3 1_555 1_555
C3 C4 1_555 1_555
C4 C5 1_555 1_555
C5 C6 1_555 1_555
C6 C7 1_555 1_555
C7 C8 1_555 1_555
C8 C9 1_555 1_555
C9 C4 1_555 1_555
C10 C1 1_555 1_555
C11 C10 1_555 1_555
C12 C11 1_555 1_555
C13 C12 1_555 1_555
C14 C13 1_555 1_555
C15 C14 1_555 1_555
C16 C15 1_555 1_555
C17 C12 1_555 1_555
C18 C17 1_555 1_555
C19 C18 1_555 1_555
C20 O2 1_555 1_555
C21 N1 1_555 1_555
C22 C21 1_555 1_555
C23 C22 1_555 1_555
C24 C23 1_555 1_555
C25 C24 1_555 1_555
C26 C25 1_555 1_555
C27 C22 1_555 1_555
C28 C21 1_555 1_555
P2 O4 1_555 1_555
O4 C29 1_555 1_555
O5 P2 1_555 1_555
O6 P2 1_555 1_555
N2 P2 1_555 1_555
C29 C30 1_555 1_555
C30 C31 1_555 1_555
C31 C32 1_555 1_555
C32 C33 1_555 1_555
C33 C34 1_555 1_555
C34 C35 1_555 1_555
C35 C36 1_555 1_555
C36 C37 1_555 1_555
C37 C32 1_555 1_555
C38 C29 1_555 1_555
C39 C38 1_555 1_555
C40 C39 1_555 1_555
C41 C40 1_555 1_555
C42 C41 1_555 1_555
C43 C42 1_555 1_555
C44 C43 1_555 1_555
C45 C40 1_555 1_555
C46 C45 1_555 1_555
C47 C46 1_555 1_555
C48 O5 1_555 1_555
C49 N2 1_555 1_555
C50 C49 1_555 1_555
C51 C50 1_555 1_555
C52 C51 1_555 1_555
C53 C52 1_555 1_555
C54 C53 1_555 1_555
C55 C50 1_555 1_555
C56 C49 1_555 1_555
C9 C10 1_555 1_555
C11 C20 1_555 1_555
C16 C17 1_555 1_555
C19 C20 1_555 1_555
C26 C27 1_555 1_555
C37 C38 1_555 1_555
C39 C48 1_555 1_555
C44 C45 1_555 1_555
C47 C48 1_555 1_555
C54 C55 1_555 1_555

#END
