
#######################################################################
#
#                 Cambridge Crystallographic Data Centre
#                                CCDC 
#
#######################################################################
#
# If this CIF has been generated from an entry in the Cambridge 
# Structural Database, then it will include bibliographic, chemical, 
# crystal, experimental, refinement or atomic coordinate data resulting 
# from the CCDC's data processing and validation procedures.
#
#######################################################################

data_MIWQUF
_chemical_name_common            
"12-(3-Nitrophenyl)-8,12-dihydrospiro(benzo(5,6)chromeno(2,3-d)pyrimidine-9,1'-cyclohexane)-11(10H)-one tetrahydrofuran solvate"
_chemical_formula_moiety         'C26 H23 N3 O4,C4 H8 O1'
_chemical_name_systematic        
"8,9,12-Trihydro-9,9-pentamethylene-12-(3-nitrophenyl)-11H-naphtho(1',2':5,6)pyrano(2,3-d)pyrimidin-11(10H)-one tetrahydrofuran solvate"
_symmetry_cell_setting           triclinic
_symmetry_space_group_name_H-M   'P -1'
_symmetry_Int_Tables_number      2
_space_group_name_Hall           '-P 1'
loop_
_symmetry_equiv_pos_site_id
_symmetry_equiv_pos_as_xyz
1 x,y,z
2 -x,-y,-z
_cell_length_a                   11.4633(11)
_cell_length_b                   12.6247(12)
_cell_length_c                   19.658(2)
_cell_angle_alpha                72.642(8)
_cell_angle_beta                 89.045(9)
_cell_angle_gamma                68.340(5)
_cell_volume                     2509.59
_exptl_crystal_colour            yellow
_exptl_crystal_description       block
_chemical_melting_point          '275-278 deg.C'
_cell_formula_units_Z            4
loop_
_atom_site_label
_atom_site_type_symbol
_atom_site_fract_x
_atom_site_fract_y
_atom_site_fract_z
N1 N 0.2876(3) 0.0903(2) 0.47255(15)
H1 H 0.2936 0.0349 0.5136
O1 O 0.2767(2) 0.3495(2) 0.28985(13)
N2 N 0.4979(3) 0.6294(3) 0.27140(16)
O3 O 0.2465(2) 0.2131(2) 0.53876(11)
N5 N 0.3025(3) 0.1567(3) 0.34614(17)
O4 O 0.4181(3) 0.6676(3) 0.22082(14)
O5 O 0.5886(2) 0.6592(2) 0.26954(15)
C1 C 0.2652(3) 0.2021(3) 0.47255(18)
C2 C 0.2621(3) 0.2930(3) 0.41455(17)
C3 C 0.2401(3) 0.4175(3) 0.41705(18)
H3 H 0.1736 0.4775 0.3776
C4 C 0.1921(3) 0.4278(3) 0.48831(17)
C5 C 0.2003(3) 0.3286(3) 0.54411(18)
C6 C 0.1611(3) 0.3333(3) 0.61218(19)
H4 H 0.1682 0.2621 0.6493
C7 C 0.1124(3) 0.4436(3) 0.62341(18)
H5 H 0.0861 0.4479 0.6689
C8 C 0.1009(3) 0.5499(3) 0.56882(18)
C9 C 0.1400(3) 0.5427(3) 0.50036(17)
C10 C 0.1275(3) 0.6504(3) 0.44644(18)
H6 H 0.1510 0.6478 0.4002
C11 C 0.0823(3) 0.7588(3) 0.45937(19)
H7 H 0.0739 0.8302 0.4222
C12 C 0.0480(3) 0.7641(3) 0.5284(2)
H8 H 0.0197 0.8386 0.5379
C13 C 0.0555(3) 0.6630(3) 0.58052(19)
H9 H 0.0297 0.6679 0.6260
C14 C 0.2800(3) 0.2694(3) 0.34645(17)
C15 C 0.3024(3) 0.0563(3) 0.40635(18)
C16 C 0.4254(3) -0.0523(3) 0.4174(2)
H10 H 0.4279 -0.1144 0.4629
H11 H 0.4972 -0.0281 0.4218
C17 C 0.4416(4) -0.1073(4) 0.3554(2)
H12 H 0.4503 -0.0493 0.3109
H13 H 0.5195 -0.1808 0.3670
C18 C 0.3289(4) -0.1380(4) 0.3434(2)
H14 H 0.3383 -0.1674 0.3014
H15 H 0.3263 -0.2031 0.3858
C19 C 0.2069(4) -0.0297(3) 0.33078(19)
H16 H 0.1350 -0.0530 0.3250
H17 H 0.2064 0.0327 0.2859
C20 C 0.1909(4) 0.0219(4) 0.3931(2)
H18 H 0.1842 -0.0382 0.4371
H19 H 0.1116 0.0939 0.3826
C21 C 0.3612(3) 0.4440(3) 0.40650(16)
C22 C 0.3733(3) 0.5234(3) 0.34388(17)
H20 H 0.3070 0.5632 0.3058
C23 C 0.4851(3) 0.5437(3) 0.33773(17)
C24 C 0.5850(3) 0.4863(3) 0.3919(2)
H21 H 0.6603 0.5018 0.3863
C25 C 0.5719(3) 0.4081(3) 0.45279(19)
H22 H 0.6392 0.3679 0.4903
C26 C 0.4607(3) 0.3851(3) 0.46172(19)
H23 H 0.4530 0.3300 0.5049
H62 H 0.307(4) 0.146(3) 0.296(2)
N3 N 0.2310(3) 0.4069(2) 0.02066(14)
H2 H 0.2392 0.4595 -0.0182
O2 O 0.3172(2) 0.1333(2) 0.20414(12)
N4 N 0.0312(3) -0.1454(3) 0.22591(16)
O6 O 0.2499(2) 0.2882(2) -0.04717(11)
N6 N 0.2714(3) 0.3308(2) 0.14700(16)
O7 O 0.1305(3) -0.2141(2) 0.26281(13)
O8 O -0.0717(2) -0.1516(2) 0.23963(15)
C27 C 0.2441(3) 0.2974(3) 0.02004(17)
C28 C 0.2567(3) 0.2055(3) 0.07912(17)
C29 C 0.2721(3) 0.0820(3) 0.07643(18)
H24 H 0.3414 0.0206 0.1140
C30 C 0.3120(3) 0.0717(3) 0.00374(17)
C31 C 0.2982(3) 0.1724(3) -0.05287(18)
C32 C 0.3304(3) 0.1690(3) -0.12197(18)
H25 H 0.3203 0.2407 -0.1595
C33 C 0.3767(3) 0.0599(3) -0.13366(19)
H26 H 0.3988 0.0565 -0.1800
C34 C 0.3924(3) -0.0477(3) -0.07881(19)
C35 C 0.3618(3) -0.0423(3) -0.00902(17)
C36 C 0.3811(3) -0.1519(3) 0.04581(19)
H27 H 0.3647 -0.1508 0.0932
C37 C 0.4226(3) -0.2589(3) 0.03194(19)
H28 H 0.4346 -0.3311 0.0695
C38 C 0.4480(3) -0.2625(3) -0.03875(19)
H29 H 0.4736 -0.3364 -0.0488
C39 C 0.4356(3) -0.1603(3) -0.0914(2)
H30 H 0.4563 -0.1640 -0.1378
C40 C 0.2803(3) 0.2198(3) 0.14804(17)
C41 C 0.2029(3) 0.4382(3) 0.08701(17)
C42 C 0.2468(3) 0.5409(3) 0.08381(19)
H31 H 0.2074 0.6079 0.0391
H32 H 0.3395 0.5122 0.0828
C43 C 0.2112(4) 0.5867(3) 0.1489(2)
H33 H 0.2602 0.5229 0.1929
H34 H 0.2345 0.6568 0.1429
C44 C 0.0706(4) 0.6229(3) 0.1576(2)
H35 H 0.0543 0.6419 0.2031
H36 H 0.0221 0.6961 0.1178
C45 C 0.0257(3) 0.5234(3) 0.1582(2)
H37 H 0.0649 0.4543 0.2020
H38 H -0.0670 0.5526 0.1594
C46 C 0.0590(3) 0.4823(3) 0.09278(18)
H39 H 0.0143 0.5497 0.0491
H40 H 0.0301 0.4163 0.0957
C47 C 0.1521(3) 0.0547(3) 0.09073(17)
C48 C 0.1466(3) -0.0313(3) 0.15131(17)
H41 H 0.2176 -0.0757 0.1863
C49 C 0.0354(3) -0.0528(3) 0.16092(18)
C50 C -0.0709(3) 0.0097(3) 0.1112(2)
H42 H -0.1456 -0.0064 0.1188
C51 C -0.0642(3) 0.0942(3) 0.05165(19)
H43 H -0.1355 0.1376 0.0167
C52 C 0.0455(3) 0.1198(3) 0.03988(19)
H44 H 0.0474 0.1805 -0.0020
H61 H 0.272(3) 0.338(3) 0.1999(19)
O9 O 0.7357(3) 0.0801(3) 0.39831(15)
C53 C 0.7992(4) 0.0215(4) 0.3483(2)
H45 H 0.8432 -0.0659 0.3722
H46 H 0.8616 0.0549 0.3264
C54 C 0.6965(4) 0.0460(4) 0.2929(2)
H47 H 0.7295 0.0440 0.2462
H48 H 0.6559 -0.0131 0.3081
C55 C 0.6060(4) 0.1694(4) 0.2884(2)
H49 H 0.6277 0.2311 0.2523
H50 H 0.5185 0.1800 0.2752
C56 C 0.6196(4) 0.1783(4) 0.3618(2)
H51 H 0.6242 0.2564 0.3589
H52 H 0.5468 0.1713 0.3878
O10 O 0.7633(3) 0.4195(3) 0.11424(15)
C57 C 0.6903(4) 0.4634(4) 0.1660(2)
H53 H 0.6147 0.4424 0.1704
H54 H 0.6624 0.5518 0.1520
C58 C 0.7736(4) 0.4051(4) 0.2356(2)
H55 H 0.7275 0.3767 0.2755
H56 H 0.8053 0.4618 0.2467
C59 C 0.8812(5) 0.3004(5) 0.2233(3)
H57 H 0.9615 0.3129 0.2231
H58 H 0.8915 0.2242 0.2608
C60 C 0.8417(5) 0.2993(4) 0.1508(3)
H59 H 0.9162 0.2717 0.1250
H60 H 0.7950 0.2458 0.1557
loop_
_geom_bond_atom_site_label_1
_geom_bond_atom_site_label_2
_geom_bond_site_symmetry_1
_geom_bond_site_symmetry_2
N1 H1 1_555 1_555
O1 C14 1_555 1_555
N2 O4 1_555 1_555
N3 H2 1_555 1_555
O2 C40 1_555 1_555
N4 O7 1_555 1_555
O3 C1 1_555 1_555
N5 C14 1_555 1_555
O5 N2 1_555 1_555
O6 C27 1_555 1_555
N6 C40 1_555 1_555
O8 N4 1_555 1_555
O9 C53 1_555 1_555
O10 C57 1_555 1_555
C1 N1 1_555 1_555
C2 C1 1_555 1_555
C3 C2 1_555 1_555
H3 C3 1_555 1_555
C4 C3 1_555 1_555
C5 O3 1_555 1_555
C6 C5 1_555 1_555
H4 C6 1_555 1_555
C7 C6 1_555 1_555
H5 C7 1_555 1_555
C8 C7 1_555 1_555
C9 C4 1_555 1_555
C10 C9 1_555 1_555
H6 C10 1_555 1_555
C11 C10 1_555 1_555
H7 C11 1_555 1_555
C12 C11 1_555 1_555
H8 C12 1_555 1_555
C13 C8 1_555 1_555
H9 C13 1_555 1_555
C14 C2 1_555 1_555
C15 N1 1_555 1_555
C16 C15 1_555 1_555
H10 C16 1_555 1_555
H11 C16 1_555 1_555
C17 C16 1_555 1_555
H12 C17 1_555 1_555
H13 C17 1_555 1_555
C18 C17 1_555 1_555
H14 C18 1_555 1_555
H15 C18 1_555 1_555
C19 C18 1_555 1_555
H16 C19 1_555 1_555
H17 C19 1_555 1_555
C20 C15 1_555 1_555
H18 C20 1_555 1_555
H19 C20 1_555 1_555
C21 C3 1_555 1_555
C22 C21 1_555 1_555
H20 C22 1_555 1_555
C23 N2 1_555 1_555
C24 C23 1_555 1_555
H21 C24 1_555 1_555
C25 C24 1_555 1_555
H22 C25 1_555 1_555
C26 C21 1_555 1_555
H23 C26 1_555 1_555
C27 N3 1_555 1_555
C28 C27 1_555 1_555
C29 C28 1_555 1_555
H24 C29 1_555 1_555
C30 C29 1_555 1_555
C31 O6 1_555 1_555
C32 C31 1_555 1_555
H25 C32 1_555 1_555
C33 C32 1_555 1_555
H26 C33 1_555 1_555
C34 C33 1_555 1_555
C35 C30 1_555 1_555
C36 C35 1_555 1_555
H27 C36 1_555 1_555
C37 C36 1_555 1_555
H28 C37 1_555 1_555
C38 C37 1_555 1_555
H29 C38 1_555 1_555
C39 C34 1_555 1_555
H30 C39 1_555 1_555
C40 C28 1_555 1_555
C41 N3 1_555 1_555
C42 C41 1_555 1_555
H31 C42 1_555 1_555
H32 C42 1_555 1_555
C43 C42 1_555 1_555
H33 C43 1_555 1_555
H34 C43 1_555 1_555
C44 C43 1_555 1_555
H35 C44 1_555 1_555
H36 C44 1_555 1_555
C45 C44 1_555 1_555
H37 C45 1_555 1_555
H38 C45 1_555 1_555
C46 C41 1_555 1_555
H39 C46 1_555 1_555
H40 C46 1_555 1_555
C47 C29 1_555 1_555
C48 C47 1_555 1_555
H41 C48 1_555 1_555
C49 N4 1_555 1_555
C50 C49 1_555 1_555
H42 C50 1_555 1_555
C51 C50 1_555 1_555
H43 C51 1_555 1_555
C52 C47 1_555 1_555
H44 C52 1_555 1_555
C53 H45 1_555 1_555
H46 C53 1_555 1_555
C54 C53 1_555 1_555
H47 C54 1_555 1_555
H48 C54 1_555 1_555
C55 C54 1_555 1_555
H49 C55 1_555 1_555
H50 C55 1_555 1_555
C56 O9 1_555 1_555
H51 C56 1_555 1_555
H52 C56 1_555 1_555
C57 H53 1_555 1_555
H54 C57 1_555 1_555
C58 C57 1_555 1_555
H55 C58 1_555 1_555
H56 C58 1_555 1_555
C59 C58 1_555 1_555
H57 C59 1_555 1_555
H58 C59 1_555 1_555
C60 O10 1_555 1_555
H59 C60 1_555 1_555
H60 C60 1_555 1_555
H61 N6 1_555 1_555
H62 N5 1_555 1_555
N5 C15 1_555 1_555
N6 C41 1_555 1_555
C4 C5 1_555 1_555
C8 C9 1_555 1_555
C12 C13 1_555 1_555
C19 C20 1_555 1_555
C22 C23 1_555 1_555
C25 C26 1_555 1_555
C30 C31 1_555 1_555
C34 C35 1_555 1_555
C38 C39 1_555 1_555
C45 C46 1_555 1_555
C48 C49 1_555 1_555
C51 C52 1_555 1_555
C55 C56 1_555 1_555
C59 C60 1_555 1_555

#END
