
#######################################################################
#
#                 Cambridge Crystallographic Data Centre
#                                CCDC 
#
#######################################################################
#
# If this CIF has been generated from an entry in the Cambridge 
# Structural Database, then it will include bibliographic, chemical, 
# crystal, experimental, refinement or atomic coordinate data resulting 
# from the CCDC's data processing and validation procedures.
#
#######################################################################

data_MIWYAU
_chemical_formula_moiety         'C17 H18 O6'
_chemical_name_systematic        
'Methyl 4-(1-methoxy-1,3-dioxobutan-2-yl)-2-methyl-4H-chromene-3-carboxylate'
_symmetry_cell_setting           triclinic
_symmetry_space_group_name_H-M   'P -1'
_symmetry_Int_Tables_number      2
_space_group_name_Hall           '-P 1'
loop_
_symmetry_equiv_pos_site_id
_symmetry_equiv_pos_as_xyz
1 x,y,z
2 -x,-y,-z
_cell_length_a                   8.2815(2)
_cell_length_b                   8.4808(2)
_cell_length_c                   13.3432(3)
_cell_angle_alpha                104.8350(10)
_cell_angle_beta                 95.4060(10)
_cell_angle_gamma                114.0380(10)
_cell_volume                     806.155
_cell_formula_units_Z            2
loop_
_atom_site_label
_atom_site_type_symbol
_atom_site_fract_x
_atom_site_fract_y
_atom_site_fract_z
C1 C 0.4797(2) 0.70152(19) 0.60215(11)
C2 C 0.33984(18) 0.54597(16) 0.59878(9)
C3 C 0.32304(16) 0.47712(15) 0.69302(9)
H1 H 0.2926 0.3472 0.6667
C4 C 0.50279(16) 0.57275(15) 0.77304(9)
C5 C 0.53684(18) 0.50874(18) 0.85503(10)
H2 H 0.4477 0.4021 0.8601
C6 C 0.7006(2) 0.6006(2) 0.92899(11)
H3 H 0.7200 0.5565 0.9836
C7 C 0.8354(2) 0.7580(2) 0.92176(12)
H4 H 0.9456 0.8195 0.9715
C8 C 0.8067(2) 0.8241(2) 0.84079(13)
H5 H 0.8969 0.9297 0.8353
C9 C 0.64130(18) 0.73028(17) 0.76785(11)
C10 C 0.1933(2) 0.43683(19) 0.50140(10)
C11 C -0.0566(3) 0.1484(3) 0.41434(14)
H6 H -0.0088 0.1392 0.3514
H7 H -0.1440 0.1947 0.4083
H8 H -0.1139 0.0299 0.4223
C12 C 0.5093(3) 0.7933(3) 0.51882(15)
H9 H 0.4533 0.8738 0.5280
H10 H 0.4564 0.7028 0.4496
H11 H 0.6371 0.8622 0.5254
C13 C 0.23004(17) 0.67134(16) 0.83216(10)
C14 C 0.16354(16) 0.49335(15) 0.74140(9)
H12 H 0.0799 0.4952 0.6852
C15 C 0.05528(19) 0.33225(17) 0.77809(11)
C16 C -0.1211(3) 0.3158(3) 0.8012(2)
H13 H -0.1069 0.3650 0.8765
H14 H -0.2084 0.1896 0.7764
H15 H -0.1623 0.3822 0.7656
C17 C 0.3590(3) 0.9903(2) 0.86986(17)
H16 H 0.4843 1.0282 0.8994
H17 H 0.2939 0.9896 0.9257
H18 H 0.3499 1.0736 0.8352
O1 O 0.62302(15) 0.80309(13) 0.68791(9)
O2 O 0.16429(19) 0.48417(19) 0.42669(9)
O3 O 0.08910(15) 0.27062(14) 0.50593(8)
O4 O 0.28253(16) 0.81027(13) 0.79388(9)
O5 O 0.23806(18) 0.68523(15) 0.92416(8)
O6 O 0.10803(15) 0.22158(14) 0.78506(10)
loop_
_geom_bond_atom_site_label_1
_geom_bond_atom_site_label_2
_geom_bond_site_symmetry_1
_geom_bond_site_symmetry_2
C1 C2 1_555 1_555
C2 C3 1_555 1_555
C3 H1 1_555 1_555
C4 C3 1_555 1_555
C5 C4 1_555 1_555
H2 C5 1_555 1_555
C6 C5 1_555 1_555
H3 C6 1_555 1_555
C7 C6 1_555 1_555
H4 C7 1_555 1_555
C8 C7 1_555 1_555
H5 C8 1_555 1_555
C9 C4 1_555 1_555
C10 C2 1_555 1_555
C11 H6 1_555 1_555
H7 C11 1_555 1_555
H8 C11 1_555 1_555
C12 C1 1_555 1_555
H9 C12 1_555 1_555
H10 C12 1_555 1_555
H11 C12 1_555 1_555
C13 C14 1_555 1_555
C14 C3 1_555 1_555
H12 C14 1_555 1_555
C15 C14 1_555 1_555
C16 C15 1_555 1_555
H13 C16 1_555 1_555
H14 C16 1_555 1_555
H15 C16 1_555 1_555
C17 H16 1_555 1_555
H17 C17 1_555 1_555
H18 C17 1_555 1_555
O1 C1 1_555 1_555
O2 C10 1_555 1_555
O3 C10 1_555 1_555
O4 C13 1_555 1_555
O5 C13 1_555 1_555
O6 C15 1_555 1_555
C8 C9 1_555 1_555
C9 O1 1_555 1_555
C11 O3 1_555 1_555
C17 O4 1_555 1_555

#END
