
#######################################################################
#
#                 Cambridge Crystallographic Data Centre
#                                CCDC 
#
#######################################################################
#
# If this CIF has been generated from an entry in the Cambridge 
# Structural Database, then it will include bibliographic, chemical, 
# crystal, experimental, refinement or atomic coordinate data resulting 
# from the CCDC's data processing and validation procedures.
#
#######################################################################

data_MIYGOS
_chemical_formula_moiety         'C18 H13 N3 O3 S1'
_chemical_name_systematic        
'2-Amino-4-(4-methoxyphenyl)-5-(4-nitrophenyl)thiophene-3-carbonitrile unknown solvate'
_symmetry_cell_setting           monoclinic
_symmetry_space_group_name_H-M   'C 2/c'
_symmetry_Int_Tables_number      15
_space_group_name_Hall           '-C 2yn'
loop_
_symmetry_equiv_pos_site_id
_symmetry_equiv_pos_as_xyz
1 x,y,z
2 -x,y,1/2-z
3 1/2+x,1/2+y,z
4 1/2-x,1/2+y,1/2-z
5 -x,-y,-z
6 x,-y,1/2+z
7 1/2-x,1/2-y,-z
8 1/2+x,1/2-y,1/2+z
_cell_length_a                   30.827(16)
_cell_length_b                   6.421(3)
_cell_length_c                   19.953(13)
_cell_angle_alpha                90
_cell_angle_beta                 113.714(9)
_cell_angle_gamma                90
_cell_volume                     3616.02
_cell_formula_units_Z            8
loop_
_atom_site_label
_atom_site_type_symbol
_atom_site_fract_x
_atom_site_fract_y
_atom_site_fract_z
C1 C 0.11122(19) 0.1833(8) 0.1994(3)
H1 H 0.0954 0.3032 0.1760
C2 C 0.1295(2) 0.1738(8) 0.2735(3)
H2 H 0.1261 0.2859 0.3005
C3 C 0.15287(19) -0.0011(9) 0.3081(3)
C4 C 0.1927(3) -0.1733(10) 0.4209(3)
H3 H 0.1712 -0.2886 0.4039
H4 H 0.2009 -0.1528 0.4723
H5 H 0.2208 -0.2020 0.4130
C5 C 0.15662(19) -0.1679(8) 0.2696(3)
H6 H 0.1714 -0.2892 0.2934
C6 C 0.13832(18) -0.1552(7) 0.1951(3)
H7 H 0.1414 -0.2692 0.1685
C7 C 0.11558(17) 0.0193(8) 0.1579(3)
C8 C 0.09730(19) 0.0257(8) 0.0776(3)
C9 C 0.06313(19) -0.1183(7) 0.0326(3)
C10 C 0.0453(2) -0.2827(9) 0.0592(3)
C11 C 0.0498(2) -0.0860(8) -0.0406(3)
C12 C 0.10909(18) 0.1715(7) 0.0371(3)
C13 C 0.14304(19) 0.3398(7) 0.0596(3)
C14 C 0.1391(2) 0.5058(8) 0.0136(3)
H8 H 0.1136 0.5114 -0.0317
C15 C 0.1716(2) 0.6602(8) 0.0329(4)
H9 H 0.1686 0.7698 0.0008
C16 C 0.2080(2) 0.6549(8) 0.0979(3)
C17 C 0.21459(19) 0.4915(8) 0.1463(3)
H10 H 0.2405 0.4901 0.1912
C18 C 0.1829(2) 0.3348(8) 0.1275(3)
H11 H 0.1872 0.2229 0.1591
N1 N 0.0308(2) -0.4198(8) 0.0815(3)
N2 N 0.01965(18) -0.1972(7) -0.0954(3)
H12 H 0.0062 -0.3044 -0.0863
H13 H 0.0136 -0.1628 -0.1399
N3 N 0.2428(2) 0.8246(8) 0.1213(4)
O1 O 0.17078(15) 0.0082(6) 0.3823(2)
O2 O 0.26684(18) 0.8455(7) 0.1853(3)
O3 O 0.2447(2) 0.9346(8) 0.0756(4)
S1 S 0.07847(6) 0.1259(2) -0.05511(8)
loop_
_geom_bond_atom_site_label_1
_geom_bond_atom_site_label_2
_geom_bond_site_symmetry_1
_geom_bond_site_symmetry_2
C1 H1 1_555 1_555
C2 C1 1_555 1_555
H2 C2 1_555 1_555
C3 C2 1_555 1_555
C4 H3 1_555 1_555
H4 C4 1_555 1_555
H5 C4 1_555 1_555
C5 C3 1_555 1_555
H6 C5 1_555 1_555
C6 C5 1_555 1_555
H7 C6 1_555 1_555
C7 C1 1_555 1_555
C8 C7 1_555 1_555
C9 C8 1_555 1_555
C10 C9 1_555 1_555
C11 C9 1_555 1_555
C12 C8 1_555 1_555
C13 C12 1_555 1_555
C14 C13 1_555 1_555
H8 C14 1_555 1_555
C15 C14 1_555 1_555
H9 C15 1_555 1_555
C16 C15 1_555 1_555
C17 C16 1_555 1_555
H10 C17 1_555 1_555
C18 C13 1_555 1_555
H11 C18 1_555 1_555
N1 C10 1_555 1_555
N2 C11 1_555 1_555
H12 N2 1_555 1_555
H13 N2 1_555 1_555
N3 C16 1_555 1_555
O1 C3 1_555 1_555
O2 N3 1_555 1_555
O3 N3 1_555 1_555
S1 C11 1_555 1_555
C4 O1 1_555 1_555
C6 C7 1_555 1_555
C12 S1 1_555 1_555
C17 C18 1_555 1_555

#END
