
#######################################################################
#
#                 Cambridge Crystallographic Data Centre
#                                CCDC 
#
#######################################################################
#
# If this CIF has been generated from an entry in the Cambridge 
# Structural Database, then it will include bibliographic, chemical, 
# crystal, experimental, refinement or atomic coordinate data resulting 
# from the CCDC's data processing and validation procedures.
#
#######################################################################

data_MIYWOI
_chemical_name_common            'asunaprevir monohydrate'
_chemical_formula_moiety         'C35 H46 Cl1 N5 O9 S1,H2 O1'
_chemical_name_systematic        
'N-(t-Butoxycarbonyl)-3-methylvalyl-4-((7-chloro-4-methoxyisoquinolin-1-yl)oxy)-N-(1-((cyclopropylsulfonyl)carbamoyl)-2-vinylcyclopropyl)prolinamide monohydrate'
_chemical_properties_biological  
'Protease inhibitor used in the treatment of Hepatitis C.'
_symmetry_cell_setting           orthorhombic
_symmetry_space_group_name_H-M   'P 21 21 21'
_symmetry_Int_Tables_number      19
_space_group_name_Hall           'P 2ac 2ab'
loop_
_symmetry_equiv_pos_site_id
_symmetry_equiv_pos_as_xyz
1 x,y,z
2 1/2-x,-y,1/2+z
3 -x,1/2+y,1/2-z
4 1/2+x,1/2-y,-z
_cell_length_a                   10.08020(10)
_cell_length_b                   16.6055(2)
_cell_length_c                   24.9294(3)
_cell_angle_alpha                90
_cell_angle_beta                 90
_cell_angle_gamma                90
_cell_volume                     4172.85
_exptl_crystal_colour            colorless
_cell_formula_units_Z            4
_chemical_properties_physical    Moisture-sensitive
_exptl_crystal_recrystallization_method 
'desolvation of a methanol solvate followed by hydration'
loop_
_atom_site_label
_atom_site_type_symbol
_atom_site_fract_x
_atom_site_fract_y
_atom_site_fract_z
S1 S 0.46328(19) 0.16490(8) 0.60933(5)
N1 N 0.4351(5) 0.2223(2) 0.55695(15)
H1 H 0.3787 0.2610 0.5594
N2 N 0.3770(4) 0.3280(2) 0.47283(14)
H2 H 0.2949 0.3323 0.4639
N3 N 0.3590(4) 0.4937(2) 0.56068(16)
N4 N 0.2677(6) 0.4277(4) 0.69158(18)
H3 H 0.2707 0.3761 0.6889
O1 O 0.3677(8) 0.1898(3) 0.64649(18)
O2 O 0.5997(7) 0.1682(4) 0.6230(3)
O3 O 0.5891(4) 0.1613(2) 0.50529(17)
O4 O 0.5570(3) 0.3910(2) 0.50928(15)
O5 O 0.3215(3) 0.3701(2) 0.59414(12)
O6 O 0.1838(7) 0.5342(6) 0.7297(3)
O7 O 0.0965(8) 0.4111(6) 0.7476(3)
O8 O 0.2101(3) 0.62206(19) 0.49616(15)
C1 C 0.2870(11) 0.0464(5) 0.5759(4)
H4 H 0.2214 0.0885 0.5807
H5 H 0.2686 0.0092 0.5468
C2 C 0.4303(8) 0.0668(3) 0.5873(3)
H6 H 0.4977 0.0409 0.5649
C3 C 0.3535(11) 0.0137(4) 0.6251(3)
H7 H 0.3751 -0.0432 0.6256
H8 H 0.3279 0.0361 0.6595
C4 C 0.5005(5) 0.2093(3) 0.50893(17)
C5 C 0.4463(4) 0.2547(3) 0.46202(19)
C6 C 0.5213(6) 0.2451(3) 0.40999(19)
H9 H 0.5262 0.2913 0.3863
H10 H 0.6001 0.2115 0.4103
C7 C 0.3892(6) 0.2041(3) 0.41592(19)
H11 H 0.3171 0.2305 0.3963
C8 C 0.3733(7) 0.1146(4) 0.4208(2)
H12 H 0.2957 0.0954 0.4364
C9 C 0.4597(9) 0.0621(4) 0.4048(5)
H13 H 0.5385 0.0791 0.3890
H14 H 0.4430 0.0075 0.4092
C10 C 0.4385(4) 0.3907(2) 0.49682(17)
C11 C 0.3500(4) 0.4639(2) 0.50607(17)
H15 H 0.2577 0.4509 0.4972
C12 C 0.3970(6) 0.5355(3) 0.4730(2)
H16 H 0.4929 0.5356 0.4696
H17 H 0.3581 0.5346 0.4374
C13 C 0.3495(5) 0.6077(3) 0.5045(2)
H18 H 0.4025 0.6557 0.4965
C14 C 0.3637(6) 0.5819(3) 0.5640(2)
H19 H 0.4472 0.6003 0.5790
H20 H 0.2912 0.6027 0.5856
C15 C 0.3451(5) 0.4424(3) 0.60208(16)
C16 C 0.3606(6) 0.4702(3) 0.66028(19)
H21 H 0.3370 0.5274 0.6618
C17 C 0.5104(7) 0.4618(4) 0.6797(3)
C18 C 0.5991(7) 0.5136(5) 0.6512(3)
H22 H 0.6877 0.5061 0.6644
H23 H 0.5728 0.5686 0.6563
H24 H 0.5962 0.5007 0.6136
C19 C 0.5075(13) 0.4835(6) 0.7407(3)
H25 H 0.5949 0.4780 0.7555
H26 H 0.4478 0.4478 0.7591
H27 H 0.4777 0.5381 0.7450
C20 C 0.5573(8) 0.3749(5) 0.6748(4)
H28 H 0.6470 0.3707 0.6874
H29 H 0.5534 0.3585 0.6379
H30 H 0.5011 0.3406 0.6959
C21 C 0.1764(11) 0.4565(8) 0.7247(3)
C22 C 0.1723(7) 0.6568(3) 0.4504(2)
N5 N 0.2626(8) 0.6756(3) 0.4152(2)
C23 C 0.2129(14) 0.7105(5) 0.3682(3)
H31 H 0.2732 0.7231 0.3413
C24 C 0.0820(19) 0.7272(4) 0.3590(3)
C25 C -0.0131(13) 0.7075(3) 0.3984(3)
C26 C 0.0304(8) 0.6707(3) 0.4469(3)
C27 C -0.0584(7) 0.6494(3) 0.4875(3)
H32 H -0.0274 0.6264 0.5191
C28 C -0.1848(7) 0.6620(4) 0.4807(5)
C29 C -0.2325(15) 0.6965(6) 0.4310(7)
H33 H -0.3237 0.7024 0.4269
C30 C -0.1576(17) 0.7197(5) 0.3918(5)
H34 H -0.1928 0.7430 0.3609
Cl1 Cl -0.2988(2) 0.63350(15) 0.53194(18)
C31 C -0.0530(14) 0.5479(13) 0.7544(9)
H35 H -0.0659 0.5695 0.7191
H36 H -0.1148 0.5724 0.7787
H37 H -0.0672 0.4907 0.7537
C32 C 0.125(3) 0.6541(9) 0.7751(10)
H38 H 0.2146 0.6611 0.7871
H39 H 0.0655 0.6810 0.7993
H40 H 0.1153 0.6766 0.7398
C33 C 0.1088(19) 0.5236(10) 0.8267(5)
H41 H 0.1951 0.5353 0.8410
H42 H 0.1000 0.4665 0.8216
H43 H 0.0420 0.5420 0.8512
C34 C 0.0921(17) 0.5659(9) 0.7735(6)
O9 O 0.0253(10) 0.7631(5) 0.3159(3)
C35 C 0.1165(18) 0.7762(10) 0.2753(6)
H44 H 0.0730 0.8010 0.2453
H45 H 0.1542 0.7257 0.2643
H46 H 0.1856 0.8110 0.2881
O10 O 0.176(7) 0.669(3) 0.615(3)
loop_
_geom_bond_atom_site_label_1
_geom_bond_atom_site_label_2
_geom_bond_site_symmetry_1
_geom_bond_site_symmetry_2
S1 N1 1_555 1_555
N1 H1 1_555 1_555
N2 H2 1_555 1_555
N3 C11 1_555 1_555
N4 H3 1_555 1_555
O1 S1 1_555 1_555
O2 S1 1_555 1_555
O3 C4 1_555 1_555
O4 C10 1_555 1_555
O5 C15 1_555 1_555
O6 C21 1_555 1_555
O7 C21 1_555 1_555
O8 C13 1_555 1_555
C1 H4 1_555 1_555
H5 C1 1_555 1_555
C2 S1 1_555 1_555
H6 C2 1_555 1_555
C3 C1 1_555 1_555
H7 C3 1_555 1_555
H8 C3 1_555 1_555
C4 N1 1_555 1_555
C5 N2 1_555 1_555
C6 C5 1_555 1_555
H9 C6 1_555 1_555
H10 C6 1_555 1_555
C7 C5 1_555 1_555
H11 C7 1_555 1_555
C8 C7 1_555 1_555
H12 C8 1_555 1_555
C9 C8 1_555 1_555
H13 C9 1_555 1_555
H14 C9 1_555 1_555
C10 N2 1_555 1_555
C11 C10 1_555 1_555
H15 C11 1_555 1_555
C12 C11 1_555 1_555
H16 C12 1_555 1_555
H17 C12 1_555 1_555
C13 C12 1_555 1_555
H18 C13 1_555 1_555
C14 N3 1_555 1_555
H19 C14 1_555 1_555
H20 C14 1_555 1_555
C15 N3 1_555 1_555
C16 N4 1_555 1_555
H21 C16 1_555 1_555
C17 C16 1_555 1_555
C18 C17 1_555 1_555
H22 C18 1_555 1_555
H23 C18 1_555 1_555
H24 C18 1_555 1_555
C19 C17 1_555 1_555
H25 C19 1_555 1_555
H26 C19 1_555 1_555
H27 C19 1_555 1_555
C20 C17 1_555 1_555
H28 C20 1_555 1_555
H29 C20 1_555 1_555
H30 C20 1_555 1_555
C21 N4 1_555 1_555
C22 O8 1_555 1_555
N5 C22 1_555 1_555
C23 N5 1_555 1_555
H31 C23 1_555 1_555
C24 C23 1_555 1_555
C25 C24 1_555 1_555
C26 C22 1_555 1_555
C27 C26 1_555 1_555
H32 C27 1_555 1_555
C28 C27 1_555 1_555
C29 C28 1_555 1_555
H33 C29 1_555 1_555
C30 C25 1_555 1_555
H34 C30 1_555 1_555
Cl1 C28 1_555 1_555
C31 H35 1_555 1_555
H36 C31 1_555 1_555
H37 C31 1_555 1_555
C32 H38 1_555 1_555
H39 C32 1_555 1_555
H40 C32 1_555 1_555
C33 H41 1_555 1_555
H42 C33 1_555 1_555
H43 C33 1_555 1_555
C34 O6 1_555 1_555
O9 C24 1_555 1_555
C35 O9 1_555 1_555
H44 C35 1_555 1_555
H45 C35 1_555 1_555
H46 C35 1_555 1_555
C1 C2 1_555 1_555
C2 C3 1_555 1_555
C4 C5 1_555 1_555
C6 C7 1_555 1_555
C13 C14 1_555 1_555
C15 C16 1_555 1_555
C25 C26 1_555 1_555
C29 C30 1_555 1_555
C31 C34 1_555 1_555
C32 C34 1_555 1_555
C33 C34 1_555 1_555

#END
