
#######################################################################
#
#                 Cambridge Crystallographic Data Centre
#                                CCDC 
#
#######################################################################
#
# If this CIF has been generated from an entry in the Cambridge 
# Structural Database, then it will include bibliographic, chemical, 
# crystal, experimental, refinement or atomic coordinate data resulting 
# from the CCDC's data processing and validation procedures.
#
#######################################################################

data_MIYXAV
_chemical_name_common            
'(Sp)-Isopropyl 2-((S)-(((2R,3R,4R,5R)-3-isobutyroxy-5-(4-aminopyrrolo[1,2-f][1,2,4]triazin-7-yl)-5-cyano-4-hydroxy-4-methyltetrahydrofuran-2-yl)methoxy)(phenoxy)-phosphorylamino)propanoate'
_chemical_formula_moiety         'C29 H37 N6 O9 P1'
_chemical_name_systematic        
'Isopropyl N-(((5-(4-aminopyrrolo[2,1-f][1,2,4]triazin-7-yl)-5-cyano-4-hydroxy-3-(isobutyryloxy)-4-methyltetrahydrofuran-2-yl)methoxy)(phenoxy)phosphoryl)alaninate'
_symmetry_cell_setting           orthorhombic
_symmetry_space_group_name_H-M   'P 21 21 21'
_symmetry_Int_Tables_number      19
_space_group_name_Hall           'P 2ac 2ab'
loop_
_symmetry_equiv_pos_site_id
_symmetry_equiv_pos_as_xyz
1 x,y,z
2 1/2+x,1/2-y,-z
3 -x,1/2+y,1/2-z
4 1/2-x,-y,1/2+z
_cell_length_a                   13.0184(5)
_cell_length_b                   13.5645(6)
_cell_length_c                   37.4038(14)
_cell_angle_alpha                90
_cell_angle_beta                 90
_cell_angle_gamma                90
_cell_volume                     6605.07
_exptl_crystal_colour            colorless
_exptl_crystal_description       Rod
_cell_formula_units_Z            8
loop_
_atom_site_label
_atom_site_type_symbol
_atom_site_fract_x
_atom_site_fract_y
_atom_site_fract_z
P1 P 0.15264(3) 0.86316(3) 0.219749(11)
O1 O 0.24397(9) 0.90457(9) 0.19663(3)
O2 O 0.10853(9) 0.93549(9) 0.24480(3)
O3 O 0.21418(10) 0.77538(10) 0.23762(3)
O4 O 0.40120(9) 1.03900(9) 0.18343(3)
O5 O 0.35169(9) 0.98007(9) 0.09680(3)
O6 O 0.53252(9) 0.91539(10) 0.11270(3)
H1 H 0.5946 0.9116 0.1186
O7 O 0.32052(11) 0.82625(10) 0.07704(3)
O8 O 0.04457(12) 0.86599(10) 0.12315(3)
O9 O 0.10250(10) 0.71736(10) 0.10530(3)
N1 N 0.06570(11) 0.81701(11) 0.19412(4)
H2 H 0.0024 0.8389 0.1966
N2 N 0.67090(11) 0.97584(11) 0.19086(3)
N3 N 0.71151(12) 0.94594(12) 0.15856(4)
N4 N 0.88768(12) 0.95306(12) 0.25030(4)
H3 H 0.9528 0.9361 0.2491
H4 H 0.8612 0.9721 0.2708
N5 N 0.87029(11) 0.92080(12) 0.19026(4)
N6 N 0.54780(14) 1.16235(13) 0.12384(5)
C1 C 0.22505(14) 0.99731(13) 0.17827(4)
H5 H 0.2091 1.0499 0.1958
H6 H 0.1661 0.9905 0.1617
C2 C 0.32060(13) 1.02259(13) 0.15785(4)
H7 H 0.3087 1.0846 0.1440
C3 C 0.35873(13) 0.94239(13) 0.13246(4)
H8 H 0.3163 0.8814 0.1350
C4 C 0.47150(13) 0.92198(13) 0.14345(4)
C5 C 0.49574(13) 1.01593(13) 0.16664(4)
C6 C 0.57284(13) 1.00619(13) 0.19623(4)
C7 C 0.56262(13) 1.02832(13) 0.23221(4)
H9 H 0.5018 1.0512 0.2436
C8 C 0.65709(14) 1.01129(13) 0.24900(4)
H10 H 0.6721 1.0203 0.2736
C9 C 0.72440(13) 0.97889(13) 0.22295(4)
C10 C 0.82949(13) 0.94985(13) 0.22129(4)
C11 C 0.80821(14) 0.92117(15) 0.16125(5)
H11 H 0.8396 0.9003 0.1396
C12 C 0.47707(15) 0.82957(14) 0.16636(5)
H12 H 0.4554 0.7725 0.1522
H13 H 0.4316 0.8369 0.1871
H14 H 0.5478 0.8198 0.1746
C13 C 0.52576(13) 1.09815(14) 0.14217(5)
C14 C 0.33794(14) 0.91122(15) 0.07075(4)
C15 C 0.35153(16) 0.95571(15) 0.03420(4)
H15 H 0.3348 1.0276 0.0354
C16 C 0.46516(16) 0.94372(18) 0.02467(5)
H16 H 0.5075 0.9758 0.0430
H17 H 0.4785 0.9742 0.0014
H18 H 0.4823 0.8734 0.0236
C17 C 0.28100(18) 0.9065(2) 0.00708(5)
H19 H 0.2918 0.8351 0.0076
H20 H 0.2965 0.9317 -0.0169
H21 H 0.2093 0.9212 0.0130
C18 C 0.18153(14) 0.73810(14) 0.27112(5)
C19 C 0.25031(15) 0.74405(15) 0.29911(5)
H22 H 0.3163 0.7726 0.2958
C20 C 0.22115(18) 0.70746(16) 0.33237(5)
H23 H 0.2673 0.7117 0.3520
C21 C 0.12557(18) 0.66505(17) 0.33702(5)
H24 H 0.1058 0.6404 0.3598
C22 C 0.05885(17) 0.65879(16) 0.30831(6)
H25 H -0.0067 0.6292 0.3114
C23 C 0.08651(15) 0.69525(15) 0.27508(5)
H26 H 0.0407 0.6907 0.2554
C24 C 0.08431(15) 0.74165(14) 0.16715(5)
H27 H 0.1551 0.7145 0.1705
C25 C 0.07591(14) 0.78453(15) 0.12967(5)
C26 C 0.0071(2) 0.65822(16) 0.17087(6)
H28 H 0.0154 0.6268 0.1943
H29 H 0.0188 0.6095 0.1520
H30 H -0.0627 0.6847 0.1688
C27 C 0.07340(16) 0.73749(15) 0.06786(5)
H31 H 0.0835 0.8090 0.0624
C28 C 0.14293(17) 0.67580(16) 0.04469(5)
H32 H 0.2147 0.6916 0.0501
H33 H 0.1289 0.6899 0.0195
H34 H 0.1304 0.6058 0.0495
C29 C -0.03846(17) 0.71085(17) 0.06405(6)
H35 H -0.0487 0.6421 0.0713
H36 H -0.0595 0.7191 0.0391
H37 H -0.0799 0.7540 0.0793
P2 P 0.21442(3) 0.39999(4) 0.146515(11)
O10 O 0.30984(9) 0.46136(10) 0.13333(3)
O11 O 0.15742(10) 0.44924(10) 0.17540(3)
O12 O 0.27006(10) 0.30073(10) 0.15706(3)
O13 O 0.46914(9) 0.59883(10) 0.12151(3)
O14 O 0.40651(10) 0.56040(9) 0.03455(3)
O15 O 0.58311(10) 0.47918(10) 0.04628(3)
H38 H 0.6459 0.4759 0.0514
O16 O 0.33806(18) 0.42177(14) 0.01292(4)
O17 O 0.07971(11) 0.41879(11) 0.04680(3)
O18 O 0.15434(11) 0.28479(10) 0.02266(3)
N7 N 0.14248(12) 0.37204(12) 0.11322(4)
H39 H 0.0815 0.3998 0.1121
N8 N 0.72991(11) 0.50633(11) 0.12410(4)
N9 N 0.76882(12) 0.49010(12) 0.09026(4)
N10 N 0.93722(12) 0.42526(12) 0.18060(4)
H40 H 1.0003 0.4029 0.1783
H41 H 0.9105 0.4329 0.2020
N11 N 0.92350(11) 0.43538(12) 0.11949(4)
N12 N 0.63120(16) 0.71947(14) 0.06506(5)
C30 C 0.29176(14) 0.55987(14) 0.11981(5)
H42 H 0.2827 0.6065 0.1399
H43 H 0.2286 0.5609 0.1051
C31 C 0.38283(13) 0.58968(14) 0.09760(5)
H44 H 0.3689 0.6548 0.0860
C32 C 0.41324(14) 0.51440(14) 0.06901(4)
H45 H 0.3670 0.4556 0.0701
C33 C 0.52515(14) 0.48441(13) 0.07792(4)
C34 C 0.55954(13) 0.57100(13) 0.10306(5)
C35 C 0.63549(13) 0.54297(13) 0.13159(5)
C36 C 0.62479(14) 0.54389(14) 0.16847(5)
H46 H 0.5660 0.5656 0.1813
C37 C 0.71535(15) 0.50745(15) 0.18356(5)
H47 H 0.7294 0.5002 0.2083
C38 C 0.78074(14) 0.48385(14) 0.15564(4)
C39 C 0.88245(14) 0.44726(13) 0.15190(4)
C40 C 0.86293(14) 0.45643(14) 0.09099(5)
H48 H 0.8933 0.4451 0.0683
C41 C 0.52524(14) 0.38756(13) 0.09820(5)
H49 H 0.4921 0.3366 0.0837
H50 H 0.4875 0.3955 0.1207
H51 H 0.5962 0.3680 0.1034
C42 C 0.59974(15) 0.65482(14) 0.08136(5)
C43 C 0.37119(17) 0.50288(16) 0.00804(5)
C44 C 0.38306(18) 0.55082(17) -0.02803(5)
H52 H 0.4091 0.6195 -0.0246
C45 C 0.2804(2) 0.5552(2) -0.04720(6)
H53 H 0.2556 0.4881 -0.0516
H54 H 0.2887 0.5898 -0.0700
H55 H 0.2306 0.5906 -0.0323
C46 C 0.4613(2) 0.4932(2) -0.04866(8)
H56 H 0.5251 0.4892 -0.0348
H57 H 0.4749 0.5262 -0.0715
H58 H 0.4352 0.4266 -0.0532
C47 C 0.30237(14) 0.28057(14) 0.19233(4)
C48 C 0.40523(15) 0.28945(15) 0.20059(5)
H59 H 0.4534 0.3118 0.1833
C49 C 0.43610(19) 0.26475(16) 0.23489(6)
H60 H 0.5063 0.2711 0.2415
C50 C 0.3659(2) 0.23119(16) 0.25945(5)
H61 H 0.3882 0.2133 0.2828
C51 C 0.2632(2) 0.22317(16) 0.25057(5)
H62 H 0.2151 0.2004 0.2678
C52 C 0.23051(17) 0.24845(14) 0.21651(5)
H63 H 0.1601 0.2437 0.2101
C53 C 0.17046(15) 0.30411(14) 0.08460(5)
H64 H 0.2471 0.3007 0.0831
C54 C 0.12937(14) 0.34446(14) 0.04945(5)
C55 C 0.1291(2) 0.20054(16) 0.09148(5)
H65 H 0.1546 0.1766 0.1145
H66 H 0.1522 0.1562 0.0724
H67 H 0.0538 0.2023 0.0919
C56 C 0.12315(17) 0.31615(16) -0.01347(5)
H68 H 0.1307 0.3893 -0.0156
C57 C 0.19706(18) 0.26637(17) -0.03846(5)
H69 H 0.2670 0.2892 -0.0334
H70 H 0.1790 0.2826 -0.0632
H71 H 0.1934 0.1948 -0.0351
C58 C 0.01219(18) 0.28787(18) -0.01943(5)
H72 H 0.0048 0.2162 -0.0173
H73 H -0.0092 0.3087 -0.0434
H74 H -0.0310 0.3204 -0.0015
loop_
_geom_bond_atom_site_label_1
_geom_bond_atom_site_label_2
_geom_bond_site_symmetry_1
_geom_bond_site_symmetry_2
P1 O1 1_555 1_555
O1 C1 1_555 1_555
O2 P1 1_555 1_555
O3 P1 1_555 1_555
O4 C2 1_555 1_555
O5 C3 1_555 1_555
O6 H1 1_555 1_555
O7 C14 1_555 1_555
O8 C25 1_555 1_555
O9 C25 1_555 1_555
N1 P1 1_555 1_555
H2 N1 1_555 1_555
N2 N3 1_555 1_555
N3 C11 1_555 1_555
N4 H3 1_555 1_555
H4 N4 1_555 1_555
N5 C10 1_555 1_555
N6 C13 1_555 1_555
C1 H5 1_555 1_555
H6 C1 1_555 1_555
C2 C1 1_555 1_555
H7 C2 1_555 1_555
C3 C2 1_555 1_555
H8 C3 1_555 1_555
C4 O6 1_555 1_555
C5 O4 1_555 1_555
C6 N2 1_555 1_555
C7 C6 1_555 1_555
H9 C7 1_555 1_555
C8 C7 1_555 1_555
H10 C8 1_555 1_555
C9 N2 1_555 1_555
C10 N4 1_555 1_555
C11 N5 1_555 1_555
H11 C11 1_555 1_555
C12 C4 1_555 1_555
H12 C12 1_555 1_555
H13 C12 1_555 1_555
H14 C12 1_555 1_555
C13 C5 1_555 1_555
C14 O5 1_555 1_555
C15 C14 1_555 1_555
H15 C15 1_555 1_555
C16 C15 1_555 1_555
H16 C16 1_555 1_555
H17 C16 1_555 1_555
H18 C16 1_555 1_555
C17 C15 1_555 1_555
H19 C17 1_555 1_555
H20 C17 1_555 1_555
H21 C17 1_555 1_555
C18 O3 1_555 1_555
C19 C18 1_555 1_555
H22 C19 1_555 1_555
C20 C19 1_555 1_555
H23 C20 1_555 1_555
C21 C20 1_555 1_555
H24 C21 1_555 1_555
C22 C21 1_555 1_555
H25 C22 1_555 1_555
C23 C18 1_555 1_555
H26 C23 1_555 1_555
C24 N1 1_555 1_555
H27 C24 1_555 1_555
C25 C24 1_555 1_555
C26 C24 1_555 1_555
H28 C26 1_555 1_555
H29 C26 1_555 1_555
H30 C26 1_555 1_555
C27 O9 1_555 1_555
H31 C27 1_555 1_555
C28 C27 1_555 1_555
H32 C28 1_555 1_555
H33 C28 1_555 1_555
H34 C28 1_555 1_555
C29 C27 1_555 1_555
H35 C29 1_555 1_555
H36 C29 1_555 1_555
H37 C29 1_555 1_555
P2 O10 1_555 1_555
O10 C30 1_555 1_555
O11 P2 1_555 1_555
O12 P2 1_555 1_555
O13 C31 1_555 1_555
O14 C32 1_555 1_555
O15 H38 1_555 1_555
O16 C43 1_555 1_555
O17 C54 1_555 1_555
O18 C54 1_555 1_555
N7 P2 1_555 1_555
H39 N7 1_555 1_555
N8 N9 1_555 1_555
N9 C40 1_555 1_555
N10 H40 1_555 1_555
H41 N10 1_555 1_555
N11 C39 1_555 1_555
N12 C42 1_555 1_555
C30 H42 1_555 1_555
H43 C30 1_555 1_555
C31 C30 1_555 1_555
H44 C31 1_555 1_555
C32 C31 1_555 1_555
H45 C32 1_555 1_555
C33 O15 1_555 1_555
C34 O13 1_555 1_555
C35 N8 1_555 1_555
C36 C35 1_555 1_555
H46 C36 1_555 1_555
C37 C36 1_555 1_555
H47 C37 1_555 1_555
C38 N8 1_555 1_555
C39 N10 1_555 1_555
C40 N11 1_555 1_555
H48 C40 1_555 1_555
C41 C33 1_555 1_555
H49 C41 1_555 1_555
H50 C41 1_555 1_555
H51 C41 1_555 1_555
C42 C34 1_555 1_555
C43 O14 1_555 1_555
C44 C43 1_555 1_555
H52 C44 1_555 1_555
C45 C44 1_555 1_555
H53 C45 1_555 1_555
H54 C45 1_555 1_555
H55 C45 1_555 1_555
C46 C44 1_555 1_555
H56 C46 1_555 1_555
H57 C46 1_555 1_555
H58 C46 1_555 1_555
C47 O12 1_555 1_555
C48 C47 1_555 1_555
H59 C48 1_555 1_555
C49 C48 1_555 1_555
H60 C49 1_555 1_555
C50 C49 1_555 1_555
H61 C50 1_555 1_555
C51 C50 1_555 1_555
H62 C51 1_555 1_555
C52 C47 1_555 1_555
H63 C52 1_555 1_555
C53 N7 1_555 1_555
H64 C53 1_555 1_555
C54 C53 1_555 1_555
C55 C53 1_555 1_555
H65 C55 1_555 1_555
H66 C55 1_555 1_555
H67 C55 1_555 1_555
C56 O18 1_555 1_555
H68 C56 1_555 1_555
C57 C56 1_555 1_555
H69 C57 1_555 1_555
H70 C57 1_555 1_555
H71 C57 1_555 1_555
C58 C56 1_555 1_555
H72 C58 1_555 1_555
H73 C58 1_555 1_555
H74 C58 1_555 1_555
C3 C4 1_555 1_555
C4 C5 1_555 1_555
C5 C6 1_555 1_555
C8 C9 1_555 1_555
C9 C10 1_555 1_555
C22 C23 1_555 1_555
C32 C33 1_555 1_555
C33 C34 1_555 1_555
C34 C35 1_555 1_555
C37 C38 1_555 1_555
C38 C39 1_555 1_555
C51 C52 1_555 1_555

#END
