
#######################################################################
#
#                 Cambridge Crystallographic Data Centre
#                                CCDC 
#
#######################################################################
#
# If this CIF has been generated from an entry in the Cambridge 
# Structural Database, then it will include bibliographic, chemical, 
# crystal, experimental, refinement or atomic coordinate data resulting 
# from the CCDC's data processing and validation procedures.
#
#######################################################################

data_MIZGOT
_chemical_formula_moiety         'C16 H10 Cl1 F3 O2'
_chemical_name_systematic        
3-(4-Chlorophenyl)-1-(4-hydroxyphenyl)-2-(trifluoromethyl)prop-2-en-1-one
_symmetry_cell_setting           monoclinic
_symmetry_space_group_name_H-M   'P 21/c'
_symmetry_Int_Tables_number      14
_space_group_name_Hall           '-P 2ybc'
loop_
_symmetry_equiv_pos_site_id
_symmetry_equiv_pos_as_xyz
1 x,y,z
2 -x,1/2+y,1/2-z
3 -x,-y,-z
4 x,1/2-y,1/2+z
_cell_length_a                   7.9820(10)
_cell_length_b                   17.645(2)
_cell_length_c                   10.5260(13)
_cell_angle_alpha                90
_cell_angle_beta                 93.310(2)
_cell_angle_gamma                90
_cell_volume                     1480.03
_cell_formula_units_Z            4
loop_
_atom_site_label
_atom_site_type_symbol
_atom_site_fract_x
_atom_site_fract_y
_atom_site_fract_z
Cl1 Cl 0.3826(3) 0.67776(16) 0.4715(2)
O1 O -0.0046(6) 0.3924(3) 0.8880(5)
O2 O 0.7667(6) 0.4083(3) 1.0705(5)
F1 F 0.0223(6) 0.2238(3) 0.5957(5)
C1 C 0.2909(9) 0.3786(4) 0.8983(7)
C2 C 0.1014(9) 0.3366(4) 0.7060(7)
C3 C 0.1278(9) 0.3697(5) 0.5937(7)
C4 C 0.4312(9) 0.3553(4) 0.8336(7)
C5 C 0.6099(9) 0.3968(4) 1.0123(7)
C6 C 0.5930(9) 0.3644(4) 0.8914(7)
F2 F -0.0986(7) 0.2477(4) 0.7660(5)
C7 C 0.1242(9) 0.3716(4) 0.8356(7)
C8 C 0.4716(10) 0.4171(5) 1.0799(8)
C9 C 0.1845(9) 0.5068(5) 0.6569(7)
F3 F 0.1565(7) 0.2127(4) 0.7764(6)
C10 C 0.2444(9) 0.5774(4) 0.6257(7)
C11 C 0.3065(9) 0.5882(5) 0.5063(8)
C12 C 0.3100(9) 0.4089(5) 1.0204(7)
C13 C 0.1863(9) 0.4465(4) 0.5692(7)
C14 C 0.3073(11) 0.5312(5) 0.4179(8)
C15 C 0.2451(10) 0.4607(5) 0.4470(8)
C16 C 0.0461(10) 0.2567(5) 0.7082(8)
loop_
_geom_bond_atom_site_label_1
_geom_bond_atom_site_label_2
_geom_bond_site_symmetry_1
_geom_bond_site_symmetry_2
Cl1 C11 1_555 1_555
O1 C7 1_555 1_555
O2 C5 1_555 1_555
F1 C16 1_555 1_555
C1 C4 1_555 1_555
C2 C3 1_555 1_555
C3 C13 1_555 1_555
C4 C6 1_555 1_555
C5 C6 1_555 1_555
F2 C16 1_555 1_555
C7 C1 1_555 1_555
C8 C5 1_555 1_555
C9 C10 1_555 1_555
F3 C16 1_555 1_555
C10 C11 1_555 1_555
C11 C14 1_555 1_555
C12 C1 1_555 1_555
C13 C9 1_555 1_555
C14 C15 1_555 1_555
C15 C13 1_555 1_555
C16 C2 1_555 1_555
C2 C7 1_555 1_555
C8 C12 1_555 1_555

#END
