
#######################################################################
#
#                 Cambridge Crystallographic Data Centre
#                                CCDC 
#
#######################################################################
#
# If this CIF has been generated from an entry in the Cambridge 
# Structural Database, then it will include bibliographic, chemical, 
# crystal, experimental, refinement or atomic coordinate data resulting 
# from the CCDC's data processing and validation procedures.
#
#######################################################################

data_MIZGUZ
_chemical_formula_moiety         'C19 H16 F3 N1 O5'
_chemical_name_systematic        
'2-((3-(3,4-dimethoxyphenyl)-2-(trifluoromethyl)acryloyl)amino)benzoic acid'
_symmetry_cell_setting           monoclinic
_symmetry_space_group_name_H-M   'P 21/c'
_symmetry_Int_Tables_number      14
_space_group_name_Hall           '-P 2ybc'
loop_
_symmetry_equiv_pos_site_id
_symmetry_equiv_pos_as_xyz
1 x,y,z
2 -x,1/2+y,1/2-z
3 -x,-y,-z
4 x,1/2-y,1/2+z
_cell_length_a                   15.2942(12)
_cell_length_b                   8.3891(7)
_cell_length_c                   14.6278(12)
_cell_angle_alpha                90
_cell_angle_beta                 102.291(2)
_cell_angle_gamma                90
_cell_volume                     1833.8
_cell_formula_units_Z            4
loop_
_atom_site_label
_atom_site_type_symbol
_atom_site_fract_x
_atom_site_fract_y
_atom_site_fract_z
O1 O 0.37736(16) 0.6059(3) 0.33520(15)
O2 O 0.19871(16) 0.9975(3) 0.57536(18)
F1 F 0.32750(16) 0.5349(3) 0.83699(15)
O3 O 0.18920(17) 0.4147(3) 0.55475(18)
O4 O 0.11760(18) 1.1539(3) 0.46743(19)
O5 O 0.52371(16) 0.7700(3) 0.36679(17)
C1 C 0.3729(2) 0.6023(4) 0.5003(2)
N1 N 0.17890(17) 0.6867(3) 0.55523(18)
C2 C 0.1099(2) 0.7180(4) 0.4762(2)
F2 F 0.2396(2) 0.3577(3) 0.76143(18)
C3 C 0.4108(2) 0.6510(4) 0.5924(2)
C4 C 0.2892(2) 0.5593(4) 0.6726(2)
F3 F 0.19145(17) 0.5928(4) 0.77426(17)
C5 C 0.4907(2) 0.7368(4) 0.4436(2)
C6 C 0.0606(2) 0.5962(4) 0.4232(2)
C7 C 0.1407(2) 1.0119(4) 0.5047(2)
C8 C 0.09054(19) 0.8788(4) 0.4509(2)
C9 C 0.0212(2) 0.9137(4) 0.3742(2)
C10 C 0.2145(2) 0.5443(4) 0.5881(2)
C11 C 0.5290(2) 0.7818(4) 0.5334(2)
C12 C 0.4897(2) 0.7393(4) 0.6082(2)
C13 C 0.3730(2) 0.6076(4) 0.6725(2)
C14 C -0.0075(2) 0.6358(4) 0.3470(2)
C15 C -0.0270(2) 0.7926(5) 0.3230(2)
C16 C 0.6101(3) 0.8495(5) 0.3827(3)
C17 C 0.2636(2) 0.5117(4) 0.7610(3)
C18 C 0.2923(2) 0.5271(5) 0.3159(3)
C19 C 0.4115(2) 0.6461(4) 0.4266(2)
loop_
_geom_bond_atom_site_label_1
_geom_bond_atom_site_label_2
_geom_bond_site_symmetry_1
_geom_bond_site_symmetry_2
O1 C18 1_555 1_555
O2 C7 1_555 1_555
F1 C17 1_555 1_555
O3 C10 1_555 1_555
O4 C7 1_555 1_555
O5 C5 1_555 1_555
C1 C3 1_555 1_555
N1 C2 1_555 1_555
C2 C6 1_555 1_555
F2 C17 1_555 1_555
C3 C12 1_555 1_555
C4 C10 1_555 1_555
F3 C17 1_555 1_555
C5 C11 1_555 1_555
C6 C14 1_555 1_555
C7 C8 1_555 1_555
C8 C2 1_555 1_555
C9 C8 1_555 1_555
C10 N1 1_555 1_555
C11 C12 1_555 1_555
C13 C3 1_555 1_555
C14 C15 1_555 1_555
C15 C9 1_555 1_555
C16 O5 1_555 1_555
C17 C4 1_555 1_555
C19 O1 1_555 1_555
C1 C19 1_555 1_555
C4 C13 1_555 1_555
C5 C19 1_555 1_555

#END
