
#######################################################################
#
#                 Cambridge Crystallographic Data Centre
#                                CCDC 
#
#######################################################################
#
# If this CIF has been generated from an entry in the Cambridge 
# Structural Database, then it will include bibliographic, chemical, 
# crystal, experimental, refinement or atomic coordinate data resulting 
# from the CCDC's data processing and validation procedures.
#
#######################################################################

data_MIZHOU01
_chemical_formula_moiety         'C20 H16 Cl1 F3 N2 O3,2(H2 O1)'
_chemical_name_systematic        
'3-(4-(4-chlorophenyl)-5,5,5-trifluoro-4-(nitromethyl)pentan-2-ylidene)-1,3-dihydro-2H-indol-2-one dihydrate'
_symmetry_cell_setting           orthorhombic
_symmetry_space_group_name_H-M   'P 2 21 21'
_symmetry_Int_Tables_number      18
_space_group_name_Hall           'P 2bc 2'
loop_
_symmetry_equiv_pos_site_id
_symmetry_equiv_pos_as_xyz
1 x,y,z
2 -x,1/2-y,1/2+z
3 x,-y,-z
4 -x,1/2+y,1/2-z
_cell_length_a                   7.6488(11)
_cell_length_b                   16.8386(13)
_cell_length_c                   17.9210(19)
_cell_angle_alpha                90
_cell_angle_beta                 90
_cell_angle_gamma                90
_cell_volume                     2308.14
_exptl_crystal_colour            'light yellow'
_exptl_crystal_description       block
_cell_formula_units_Z            4
loop_
_atom_site_label
_atom_site_type_symbol
_atom_site_fract_x
_atom_site_fract_y
_atom_site_fract_z
Cl1 Cl -0.2262(4) -0.17165(13) -0.37838(16)
F1 F -0.0600(10) -0.6478(3) -0.3506(3)
F2 F 0.0191(9) -0.5495(3) -0.4198(3)
F3 F -0.2529(9) -0.5788(3) -0.4095(3)
O1 O -0.1523(10) -0.4992(4) -0.1041(4)
O2 O 0.2618(13) -0.4474(7) -0.2968(8)
O3 O 0.2972(12) -0.5729(7) -0.3124(5)
N1 N -0.1972(12) -0.6012(4) -0.0205(4)
H1 H -0.1737 -0.5759 0.0200
N2 N 0.2145(12) -0.5156(7) -0.2893(6)
C1 C -0.2435(13) -0.6801(5) -0.0255(5)
C2 C -0.2558(16) -0.7327(7) 0.0317(6)
H2 H -0.2358 -0.7150 0.0801
C3 C -0.2970(18) -0.8117(7) 0.0206(7)
H3 H -0.3060 -0.8470 0.0603
C4 C -0.3234(17) -0.8351(7) -0.0498(8)
H4 H -0.3496 -0.8882 -0.0588
C5 C -0.3133(14) -0.7833(6) -0.1099(6)
H5 H -0.3318 -0.8018 -0.1581
C6 C -0.2764(14) -0.7053(5) -0.0981(6)
C7 C -0.2549(13) -0.6340(5) -0.1438(5)
C8 C -0.1951(13) -0.5695(5) -0.0915(6)
C9 C -0.2913(12) -0.6219(5) -0.2189(5)
C10 C -0.3694(15) -0.6896(6) -0.2627(6)
H6 H -0.4729 -0.7083 -0.2380
H7 H -0.2860 -0.7321 -0.2662
H8 H -0.3989 -0.6716 -0.3120
C11 C -0.2802(12) -0.5418(5) -0.2552(5)
H9 H -0.2920 -0.5023 -0.2160
H10 H -0.3816 -0.5363 -0.2873
C12 C -0.1169(11) -0.5187(5) -0.3023(5)
C13 C 0.0454(12) -0.5321(6) -0.2506(6)
H11 H 0.0357 -0.4977 -0.2074
H12 H 0.0453 -0.5866 -0.2331
C14 C -0.1000(14) -0.5728(5) -0.3712(6)
C15 C -0.1373(13) -0.4314(5) -0.3239(5)
C16 C -0.1784(16) -0.4062(5) -0.3964(6)
H13 H -0.1928 -0.4441 -0.4337
C17 C -0.1985(15) -0.3253(6) -0.4145(6)
H14 H -0.2178 -0.3093 -0.4635
C18 C -0.1890(14) -0.2714(5) -0.3583(5)
C19 C -0.1589(16) -0.2941(6) -0.2844(6)
H15 H -0.1563 -0.2570 -0.2459
C20 C -0.1336(15) -0.3725(5) -0.2711(5)
H16 H -0.1120 -0.3876 -0.2221
O4 O -0.1770(9) -0.1683(3) -0.5963(4)
H17 H -0.1484 -0.1244 -0.5762
H18 H -0.2869 -0.1746 -0.5930
O5 O -0.6117(11) -0.4796(4) -0.1070(4)
H19 H -0.5680 -0.4343 -0.1166
H20 H -0.7074 -0.4736 -0.0835
loop_
_geom_bond_atom_site_label_1
_geom_bond_atom_site_label_2
_geom_bond_site_symmetry_1
_geom_bond_site_symmetry_2
Cl1 C18 1_555 1_555
F1 C14 1_555 1_555
F2 C14 1_555 1_555
F3 C14 1_555 1_555
O1 C8 1_555 1_555
O2 N2 1_555 1_555
O3 N2 1_555 1_555
N1 H1 1_555 1_555
N2 C13 1_555 1_555
C1 N1 1_555 1_555
C2 C1 1_555 1_555
H2 C2 1_555 1_555
C3 C2 1_555 1_555
H3 C3 1_555 1_555
C4 C3 1_555 1_555
H4 C4 1_555 1_555
C5 C4 1_555 1_555
H5 C5 1_555 1_555
C6 C1 1_555 1_555
C7 C6 1_555 1_555
C8 N1 1_555 1_555
C9 C7 1_555 1_555
C10 C9 1_555 1_555
H6 C10 1_555 1_555
H7 C10 1_555 1_555
H8 C10 1_555 1_555
C11 C9 1_555 1_555
H9 C11 1_555 1_555
H10 C11 1_555 1_555
C12 C11 1_555 1_555
C13 C12 1_555 1_555
H11 C13 1_555 1_555
H12 C13 1_555 1_555
C14 C12 1_555 1_555
C15 C12 1_555 1_555
C16 C15 1_555 1_555
H13 C16 1_555 1_555
C17 C16 1_555 1_555
H14 C17 1_555 1_555
C18 C17 1_555 1_555
C19 C18 1_555 1_555
H15 C19 1_555 1_555
C20 C15 1_555 1_555
H16 C20 1_555 1_555
O4 H17 1_555 1_555
H18 O4 1_555 1_555
O5 H19 1_555 1_555
H20 O5 1_555 1_555
C5 C6 1_555 1_555
C7 C8 1_555 1_555
C19 C20 1_555 1_555

#END
