
#######################################################################
#
#                 Cambridge Crystallographic Data Centre
#                                CCDC 
#
#######################################################################
#
# If this CIF has been generated from an entry in the Cambridge 
# Structural Database, then it will include bibliographic, chemical, 
# crystal, experimental, refinement or atomic coordinate data resulting 
# from the CCDC's data processing and validation procedures.
#
#######################################################################

data_MOBMAT
_chemical_formula_moiety         'C27 H27 Cl1 N2'
_chemical_name_systematic        
2-(3-(3-chlorophenyl)-N-isopropylprop-2-ynimidoyl)-N-isopropyl-N-phenylaniline
_symmetry_cell_setting           monoclinic
_symmetry_space_group_name_H-M   'P 21/c'
_symmetry_Int_Tables_number      14
_space_group_name_Hall           '-P 2ybc'
loop_
_symmetry_equiv_pos_site_id
_symmetry_equiv_pos_as_xyz
1 x,y,z
2 -x,1/2+y,1/2-z
3 -x,-y,-z
4 x,1/2-y,1/2+z
_cell_length_a                   10.2667(9)
_cell_length_b                   10.7828(10)
_cell_length_c                   21.1178(19)
_cell_angle_alpha                90
_cell_angle_beta                 98.755(9)
_cell_angle_gamma                90
_cell_volume                     2310.58
_exptl_crystal_colour            colorless
_exptl_crystal_description       block
_cell_formula_units_Z            4
loop_
_atom_site_label
_atom_site_type_symbol
_atom_site_fract_x
_atom_site_fract_y
_atom_site_fract_z
C1 C 0.4817(2) 0.7799(2) 0.64095(10)
C2 C 0.2471(2) 0.7900(3) 0.63028(12)
H1 H 0.2551 0.8302 0.5894
C3 C 0.1845(3) 0.6635(3) 0.61799(16)
H2 H 0.2401 0.6122 0.5963
H3 H 0.0999 0.6722 0.5919
H4 H 0.1738 0.6257 0.6581
C4 C 0.1658(3) 0.8706(3) 0.66815(16)
H5 H 0.1620 0.8330 0.7090
H6 H 0.0782 0.8788 0.6450
H7 H 0.2056 0.9511 0.6744
C5 C 0.6950(3) 0.5161(2) 0.60865(13)
H8 H 0.6684 0.4847 0.5651
C6 C 0.8267(4) 0.4492(3) 0.63918(18)
H9 H 0.8977 0.4762 0.6177
H10 H 0.8161 0.3611 0.6345
H11 H 0.8462 0.4697 0.6838
C7 C 0.5912(3) 0.4827(3) 0.64845(17)
H12 H 0.6191 0.5084 0.6919
H13 H 0.5776 0.3946 0.6471
H14 H 0.5102 0.5239 0.6318
C8 C 0.4786(2) 0.8016(2) 0.57350(11)
C9 C 0.4655(2) 0.8237(2) 0.51754(11)
C10 C 0.4461(2) 0.8475(2) 0.45006(10)
C11 C 0.5521(3) 0.8543(2) 0.41572(11)
H15 H 0.6379 0.8454 0.4369
C12 C 0.5297(3) 0.8742(2) 0.35056(12)
H16 H 0.6006 0.8786 0.3280
C13 C 0.4033(3) 0.8877(2) 0.31854(11)
H17 H 0.3880 0.8993 0.2744
C14 C 0.2997(3) 0.8837(2) 0.35313(11)
C15 C 0.3184(2) 0.8644(2) 0.41823(11)
H18 H 0.2471 0.8627 0.4406
C16 C 0.6124(2) 0.77370(19) 0.68281(10)
C17 C 0.6226(2) 0.8295(2) 0.74279(10)
H19 H 0.5481 0.8648 0.7556
C18 C 0.7404(3) 0.8334(2) 0.78352(11)
H20 H 0.7454 0.8714 0.8234
C19 C 0.8512(2) 0.7809(2) 0.76506(12)
H21 H 0.9314 0.7846 0.7922
C20 C 0.8432(2) 0.7231(2) 0.70653(11)
H22 H 0.9183 0.6873 0.6946
C21 C 0.7239(2) 0.71735(19) 0.66488(10)
C22 C 0.7879(2) 0.6973(2) 0.55912(10)
C23 C 0.8176(2) 0.8240(2) 0.55851(11)
H23 H 0.7935 0.8753 0.5902
C24 C 0.8821(3) 0.8741(3) 0.51167(13)
H24 H 0.8997 0.9587 0.5121
C25 C 0.9208(3) 0.8012(3) 0.46423(13)
H25 H 0.9651 0.8353 0.4331
C26 C 0.8921(3) 0.6770(3) 0.46443(12)
H26 H 0.9167 0.6266 0.4325
C27 C 0.8272(2) 0.6245(2) 0.51105(11)
H27 H 0.8099 0.5398 0.5101
Cl1 Cl 0.13924(7) 0.90594(7) 0.31420(3)
N1 N 0.37786(19) 0.7742(2) 0.66802(9)
N2 N 0.71708(18) 0.65073(16) 0.60576(9)
loop_
_geom_bond_atom_site_label_1
_geom_bond_atom_site_label_2
_geom_bond_site_symmetry_1
_geom_bond_site_symmetry_2
C1 C8 1_555 1_555
C2 H1 1_555 1_555
C3 C2 1_555 1_555
H2 C3 1_555 1_555
H3 C3 1_555 1_555
H4 C3 1_555 1_555
C4 C2 1_555 1_555
H5 C4 1_555 1_555
H6 C4 1_555 1_555
H7 C4 1_555 1_555
C5 H8 1_555 1_555
C6 C5 1_555 1_555
H9 C6 1_555 1_555
H10 C6 1_555 1_555
H11 C6 1_555 1_555
C7 C5 1_555 1_555
H12 C7 1_555 1_555
H13 C7 1_555 1_555
H14 C7 1_555 1_555
C8 C9 1_555 1_555
C9 C10 1_555 1_555
C10 C11 1_555 1_555
C11 H15 1_555 1_555
C12 C11 1_555 1_555
H16 C12 1_555 1_555
C13 C12 1_555 1_555
H17 C13 1_555 1_555
C14 C13 1_555 1_555
C15 C10 1_555 1_555
H18 C15 1_555 1_555
C16 C1 1_555 1_555
C17 C16 1_555 1_555
H19 C17 1_555 1_555
C18 C17 1_555 1_555
H20 C18 1_555 1_555
C19 C18 1_555 1_555
H21 C19 1_555 1_555
C20 C19 1_555 1_555
H22 C20 1_555 1_555
C21 C16 1_555 1_555
C22 C23 1_555 1_555
C23 H23 1_555 1_555
C24 C23 1_555 1_555
H24 C24 1_555 1_555
C25 C24 1_555 1_555
H25 C25 1_555 1_555
C26 C25 1_555 1_555
H26 C26 1_555 1_555
C27 C22 1_555 1_555
H27 C27 1_555 1_555
Cl1 C14 1_555 1_555
N1 C1 1_555 1_555
N2 C5 1_555 1_555
C2 N1 1_555 1_555
C14 C15 1_555 1_555
C20 C21 1_555 1_555
C21 N2 1_555 1_555
C22 N2 1_555 1_555
C26 C27 1_555 1_555

#END
