
#######################################################################
#
#                 Cambridge Crystallographic Data Centre
#                                CCDC 
#
#######################################################################
#
# If this CIF has been generated from an entry in the Cambridge 
# Structural Database, then it will include bibliographic, chemical, 
# crystal, experimental, refinement or atomic coordinate data resulting 
# from the CCDC's data processing and validation procedures.
#
#######################################################################

data_MOBPIP01
_chemical_formula_moiety         'C13 H15 N1 O3'
_chemical_name_systematic        1,3-benzodioxol-5-yl(piperidin-1-yl)methanone
_symmetry_cell_setting           orthorhombic
_symmetry_space_group_name_H-M   'P b c a'
_symmetry_Int_Tables_number      61
_space_group_name_Hall           '-P 2ac 2ab'
loop_
_symmetry_equiv_pos_site_id
_symmetry_equiv_pos_as_xyz
1 x,y,z
2 1/2-x,-y,1/2+z
3 -x,1/2+y,1/2-z
4 1/2+x,1/2-y,-z
5 -x,-y,-z
6 1/2+x,y,1/2-z
7 x,1/2-y,1/2+z
8 1/2-x,1/2+y,z
_cell_length_a                   14.636(6)
_cell_length_b                   7.810(3)
_cell_length_c                   20.147(8)
_cell_angle_alpha                90
_cell_angle_beta                 90
_cell_angle_gamma                90
_cell_volume                     2302.95
_cell_formula_units_Z            8
loop_
_atom_site_label
_atom_site_type_symbol
_atom_site_fract_x
_atom_site_fract_y
_atom_site_fract_z
N1 N 1.0432(2) 0.3504(4) 0.67608(17)
O1 O 0.66301(16) 0.4358(4) 0.61422(14)
O2 O 0.6728(2) 0.3337(5) 0.50670(14)
O3 O 1.0295(2) 0.6210(3) 0.63803(15)
C1 C 1.0104(3) 0.1749(5) 0.6850(2)
H1 H 0.9563 0.1567 0.6581
H2 H 0.9941 0.1565 0.7311
C2 C 1.0825(3) 0.0524(5) 0.6653(2)
H3 H 1.0619 -0.0633 0.6742
H4 H 1.0936 0.0623 0.6179
C3 C 1.1664(2) 0.0838(4) 0.70076(18)
H5 H 1.1564 0.0675 0.7479
H6 H 1.2126 0.0027 0.6864
C4 C 1.1979(3) 0.2550(5) 0.6888(3)
H7 H 1.2100 0.2692 0.6418
H8 H 1.2546 0.2735 0.7126
C5 C 1.1303(3) 0.3833(5) 0.7101(2)
H9 H 1.1217 0.3766 0.7578
H10 H 1.1520 0.4973 0.6993
C6 C 1.0001(2) 0.4730(4) 0.64001(17)
C7 C 0.9141(2) 0.4259(4) 0.60396(16)
C8 C 0.9195(3) 0.3641(5) 0.53942(19)
H11 H 0.9767 0.3449 0.5208
C9 C 0.8416(3) 0.3301(6) 0.50168(18)
H12 H 0.8455 0.2903 0.4583
C10 C 0.7589(3) 0.3582(5) 0.53186(17)
C11 C 0.7537(2) 0.4197(4) 0.59629(16)
C12 C 0.8293(2) 0.4562(5) 0.63359(16)
H13 H 0.8245 0.4990 0.6765
C13 C 0.6109(3) 0.3844(5) 0.55824(19)
H14 H 0.5731 0.4785 0.5431
H15 H 0.5714 0.2894 0.5700
loop_
_geom_bond_atom_site_label_1
_geom_bond_atom_site_label_2
_geom_bond_site_symmetry_1
_geom_bond_site_symmetry_2
N1 C1 1_555 1_555
O1 C11 1_555 1_555
O2 C10 1_555 1_555
O3 C6 1_555 1_555
C1 H1 1_555 1_555
H2 C1 1_555 1_555
C2 C1 1_555 1_555
H3 C2 1_555 1_555
H4 C2 1_555 1_555
C3 C2 1_555 1_555
H5 C3 1_555 1_555
H6 C3 1_555 1_555
C4 C3 1_555 1_555
H7 C4 1_555 1_555
H8 C4 1_555 1_555
C5 N1 1_555 1_555
H9 C5 1_555 1_555
H10 C5 1_555 1_555
C6 N1 1_555 1_555
C7 C6 1_555 1_555
C8 C7 1_555 1_555
H11 C8 1_555 1_555
C9 C8 1_555 1_555
H12 C9 1_555 1_555
C10 C9 1_555 1_555
C11 C10 1_555 1_555
C12 C7 1_555 1_555
H13 C12 1_555 1_555
C13 O1 1_555 1_555
H14 C13 1_555 1_555
H15 C13 1_555 1_555
O2 C13 1_555 1_555
C4 C5 1_555 1_555
C11 C12 1_555 1_555

#END
