
#######################################################################
#
#                 Cambridge Crystallographic Data Centre
#                                CCDC 
#
#######################################################################
#
# If this CIF has been generated from an entry in the Cambridge 
# Structural Database, then it will include bibliographic, chemical, 
# crystal, experimental, refinement or atomic coordinate data resulting 
# from the CCDC's data processing and validation procedures.
#
#######################################################################

data_MOCXAE
_chemical_formula_moiety         'C19 H15 N1 O4 S1'
_chemical_name_systematic        
'Ethyl hydroxy(3-oxo-1H-pyrido(3,2,1-kl)phenothiazin-2(3H)-ylidene)acetate'
_symmetry_cell_setting           monoclinic
_symmetry_space_group_name_H-M   'C c'
_symmetry_Int_Tables_number      9
_space_group_name_Hall           'C -2yc'
loop_
_symmetry_equiv_pos_site_id
_symmetry_equiv_pos_as_xyz
1 x,y,z
2 x,-y,1/2+z
3 1/2+x,1/2+y,z
4 1/2+x,1/2-y,1/2+z
_cell_length_a                   22.8959(18)
_cell_length_b                   9.5515(8)
_cell_length_c                   7.5778(6)
_cell_angle_alpha                90.00
_cell_angle_beta                 101.007(3)
_cell_angle_gamma                90.00
_cell_volume                     1626.7
_exptl_crystal_colour            'dark brown'
_exptl_crystal_description       column
_cell_formula_units_Z            4
_exptl_crystal_recrystallization_method dichloromethane
loop_
_atom_site_label
_atom_site_type_symbol
_atom_site_fract_x
_atom_site_fract_y
_atom_site_fract_z
S1 S 0.74367(2) 0.92405(4) 0.81506(5)
N1 N 0.85763(6) 0.77957(13) 0.9720(2)
C1 C 0.80648(7) 0.71081(16) 1.0054(2)
C2 C 0.80969(10) 0.58239(18) 1.0941(3)
H1 H 0.8464 0.5399 1.1343
C3 C 0.75767(11) 0.5182(2) 1.1222(3)
H2 H 0.7597 0.4309 1.1775
C4 C 0.70365(12) 0.5813(2) 1.0699(3)
H3 H 0.6694 0.5380 1.0923
C5 C 0.69971(9) 0.7091(2) 0.9840(3)
H4 H 0.6630 0.7530 0.9503
C6 C 0.75084(7) 0.77191(17) 0.9481(2)
C7 C 0.81047(7) 1.00634(16) 0.9107(2)
C8 C 0.81421(8) 1.15099(18) 0.9119(2)
H5 H 0.7801 1.2043 0.8748
C9 C 0.86869(9) 1.21704(18) 0.9684(3)
H6 H 0.8713 1.3141 0.9632
C10 C 0.91842(8) 1.13915(18) 1.0316(2)
H7 H 0.9548 1.1837 1.0699
C11 C 0.91509(7) 0.99293(16) 1.0392(2)
C12 C 0.86081(7) 0.92511(14) 0.9731(2)
C13 C 0.96577(8) 0.91302(17) 1.1339(2)
C14 C 0.96325(7) 0.76139(17) 1.1190(2)
C15 C 0.91376(7) 0.70637(17) 0.9745(2)
H8 H 0.9251 0.7167 0.8583
H9 H 0.9082 0.6073 0.9945
C16 C 1.00777(8) 0.68492(18) 1.2202(2)
C17 C 1.01178(8) 0.5282(2) 1.2112(2)
C18 C 1.07158(10) 0.3301(2) 1.2991(3)
H10 H 1.0763 0.3044 1.1788
H11 H 1.0382 0.2786 1.3281
C19 C 1.12655(12) 0.2977(3) 1.4306(4)
H12 H 1.1345 0.1991 1.4284
H13 H 1.1214 0.3242 1.5489
H14 H 1.1593 0.3487 1.3999
O1 O 1.00863(6) 0.97492(15) 1.2309(2)
O2 O 1.05238(6) 0.74541(14) 1.3314(2)
O3 O 0.97462(7) 0.45557(16) 1.1236(3)
O4 O 1.06135(6) 0.48142(15) 1.3094(2)
loop_
_geom_bond_atom_site_label_1
_geom_bond_atom_site_label_2
_geom_bond_site_symmetry_1
_geom_bond_site_symmetry_2
S1 C6 1_555 1_555
N1 C1 1_555 1_555
C1 C2 1_555 1_555
C2 H1 1_555 1_555
C3 C2 1_555 1_555
H2 C3 1_555 1_555
C4 C3 1_555 1_555
H3 C4 1_555 1_555
C5 C4 1_555 1_555
H4 C5 1_555 1_555
C6 C1 1_555 1_555
C7 S1 1_555 1_555
C8 C7 1_555 1_555
H5 C8 1_555 1_555
C9 C8 1_555 1_555
H6 C9 1_555 1_555
C10 C9 1_555 1_555
H7 C10 1_555 1_555
C11 C10 1_555 1_555
C12 N1 1_555 1_555
C13 C11 1_555 1_555
C14 C13 1_555 1_555
C15 N1 1_555 1_555
H8 C15 1_555 1_555
H9 C15 1_555 1_555
C16 C14 1_555 1_555
C17 C16 1_555 1_555
C18 H10 1_555 1_555
H11 C18 1_555 1_555
C19 C18 1_555 1_555
H12 C19 1_555 1_555
H13 C19 1_555 1_555
H14 C19 1_555 1_555
O1 C13 1_555 1_555
O2 C16 1_555 1_555
O3 C17 1_555 1_555
O4 C17 1_555 1_555
C5 C6 1_555 1_555
C7 C12 1_555 1_555
C11 C12 1_555 1_555
C14 C15 1_555 1_555
C18 O4 1_555 1_555

#END
