
#######################################################################
#
#                 Cambridge Crystallographic Data Centre
#                                CCDC 
#
#######################################################################
#
# If this CIF has been generated from an entry in the Cambridge 
# Structural Database, then it will include bibliographic, chemical, 
# crystal, experimental, refinement or atomic coordinate data resulting 
# from the CCDC's data processing and validation procedures.
#
#######################################################################

data_MOCZUZ
_chemical_formula_moiety         'C30 H32 N2 O6'
_chemical_name_systematic        
1,6-bis(2-Furyl)-2,5-bis(3-formyl-2-hydroxy-5-methylbenzyl)-2,5-diazahexane
_symmetry_cell_setting           monoclinic
_symmetry_space_group_name_H-M   'P 21/c'
_symmetry_Int_Tables_number      14
_space_group_name_Hall           '-P 2ybc'
loop_
_symmetry_equiv_pos_site_id
_symmetry_equiv_pos_as_xyz
1 x,y,z
2 x,1/2-y,1/2+z
3 -x,-y,-z
4 -x,1/2+y,1/2-z
_cell_length_a                   5.3060(10)
_cell_length_b                   16.625(4)
_cell_length_c                   15.0200(10)
_cell_angle_alpha                90
_cell_angle_beta                 92.060(10)
_cell_angle_gamma                90
_cell_volume                     1324.09
_exptl_crystal_colour            colorless
_exptl_crystal_description       prismatic
_chemical_melting_point          382-383K
_cell_formula_units_Z            2
_exptl_crystal_recrystallization_method ethanol
loop_
_atom_site_label
_atom_site_type_symbol
_atom_site_fract_x
_atom_site_fract_y
_atom_site_fract_z
C1 C 0.2170(5) -0.03354(18) 0.69372(17)
H1 H 0.0918 -0.0161 0.6533
C2 C 0.2475(6) -0.10949(18) 0.72378(17)
H2 H 0.1519 -0.1539 0.7059
C3 C 0.4536(4) -0.10947(13) 0.78819(15)
H3 H 0.5146 -0.1531 0.8212
C4 C 0.5388(4) -0.03548(12) 0.79103(15)
C5 C 0.7435(3) 0.00422(11) 0.84683(14)
H4 H 0.8401 -0.0372 0.8781
H5 H 0.8564 0.0316 0.8075
C6 C 0.4523(3) 0.03328(11) 0.96933(13)
H6 H 0.3128 0.0134 0.9320
H7 H 0.3910 0.0776 1.0046
C7 C 0.5972(5) 0.14228(12) 0.87441(15)
H8 H 0.4316 0.1402 0.8449
H9 H 0.7183 0.1544 0.8295
C8 C 0.6000(3) 0.20934(11) 0.94109(13)
C9 C 0.7854(3) 0.21087(12) 1.01042(14)
C10 C 0.8008(4) 0.27395(12) 1.07168(14)
C11 C 0.6258(4) 0.33906(12) 1.05956(16)
H10 H 0.6332 0.3823 1.0988
C12 C 0.4401(4) 0.33873(12) 0.98823(16)
C13 C 0.4269(4) 0.27259(12) 0.93247(15)
H11 H 0.3001 0.2701 0.8882
C14 C 0.2610(4) 0.41087(12) 0.97582(16)
H12 H 0.1520 0.4023 0.9243
H13 H 0.3578 0.4590 0.9679
H14 H 0.1612 0.4164 1.0275
C15 C 0.9784(5) 0.27817(16) 1.14298(18)
H15 H 1.0913 0.2354 1.1469
N1 N 0.6563(3) 0.06221(9) 0.91234(11)
O1 O 0.4062(3) 0.01476(10) 0.73373(10)
O2 O 0.9566(3) 0.15113(9) 1.02132(11)
H16 H 0.9321 0.1170 0.9825
O3 O 1.0076(3) 0.32955(12) 1.20085(14)
C6B C 0.5477(3) -0.03328(11) 1.03067(13)
H6B H 0.6872 -0.0134 1.0680
H7B H 0.6090 -0.0776 0.9954
N1B N 0.3437(3) -0.06221(9) 1.08766(11)
C5B C 0.2565(3) -0.00422(11) 1.15317(14)
C4B C 0.4612(4) 0.03548(12) 1.20897(15)
C3B C 0.5464(4) 0.10947(13) 1.21181(15)
C2B C 0.7525(6) 0.10949(18) 1.27622(17)
C1B C 0.7830(5) 0.03354(18) 1.30628(17)
H1B H 0.9082 0.0161 1.3467
O1B O 0.5938(3) -0.01476(10) 1.26627(10)
H2B H 0.8481 0.1539 1.2941
H3B H 0.4854 0.1531 1.1788
H4B H 0.1599 0.0372 1.1219
H5B H 0.1436 -0.0316 1.1925
C7B C 0.4028(5) -0.14228(12) 1.12559(15)
H8B H 0.5684 -0.1402 1.1551
H9B H 0.2817 -0.1544 1.1705
C8B C 0.4000(3) -0.20934(11) 1.05891(13)
C9B C 0.2146(3) -0.21087(12) 0.98958(14)
C10B C 0.1992(4) -0.27395(12) 0.92832(14)
C11B C 0.3742(4) -0.33906(12) 0.94044(16)
H10B H 0.3668 -0.3823 0.9012
C12B C 0.5599(4) -0.33873(12) 1.01177(16)
C13B C 0.5731(4) -0.27259(12) 1.06753(15)
H11B H 0.6999 -0.2701 1.1118
C14B C 0.7390(4) -0.41087(12) 1.02418(16)
H12B H 0.8480 -0.4023 1.0757
H13B H 0.6422 -0.4590 1.0321
H14B H 0.8388 -0.4164 0.9725
C15B C 0.0216(5) -0.27817(16) 0.85702(18)
H15B H -0.0913 -0.2354 0.8531
O3B O -0.0076(3) -0.32955(12) 0.79915(14)
O2B O 0.0434(3) -0.15113(9) 0.97868(11)
H16B H 0.0679 -0.1170 1.0175
loop_
_geom_bond_atom_site_label_1
_geom_bond_atom_site_label_2
_geom_bond_site_symmetry_1
_geom_bond_site_symmetry_2
C1 H1 1_555 1_555
C2 C1 1_555 1_555
H2 C2 1_555 1_555
C3 C2 1_555 1_555
H3 C3 1_555 1_555
C4 C3 1_555 1_555
C5 C4 1_555 1_555
H4 C5 1_555 1_555
H5 C5 1_555 1_555
C6 H6 1_555 1_555
H7 C6 1_555 1_555
C7 H8 1_555 1_555
H9 C7 1_555 1_555
C8 C7 1_555 1_555
C9 C8 1_555 1_555
C10 C9 1_555 1_555
C11 C10 1_555 1_555
H10 C11 1_555 1_555
C12 C11 1_555 1_555
C13 C8 1_555 1_555
H11 C13 1_555 1_555
C14 C12 1_555 1_555
H12 C14 1_555 1_555
H13 C14 1_555 1_555
H14 C14 1_555 1_555
C15 C10 1_555 1_555
H15 C15 1_555 1_555
N1 C5 1_555 1_555
O1 C1 1_555 1_555
O2 C9 1_555 1_555
H16 O2 1_555 1_555
O3 C15 1_555 1_555
C6B C6 1_555 1_555
H6B C6B 1_555 1_555
H7B C6B 1_555 1_555
N1B C6B 1_555 1_555
C5B N1B 1_555 1_555
C4B C5B 1_555 1_555
C3B C4B 1_555 1_555
C2B C3B 1_555 1_555
C1B C2B 1_555 1_555
H1B C1B 1_555 1_555
O1B C4B 1_555 1_555
H2B C2B 1_555 1_555
H3B C3B 1_555 1_555
H4B C5B 1_555 1_555
H5B C5B 1_555 1_555
C7B N1B 1_555 1_555
H8B C7B 1_555 1_555
H9B C7B 1_555 1_555
C8B C7B 1_555 1_555
C9B C8B 1_555 1_555
C10B C9B 1_555 1_555
C11B C10B 1_555 1_555
H10B C11B 1_555 1_555
C12B C11B 1_555 1_555
C13B C8B 1_555 1_555
H11B C13B 1_555 1_555
C14B C12B 1_555 1_555
H12B C14B 1_555 1_555
H13B C14B 1_555 1_555
H14B C14B 1_555 1_555
C15B C10B 1_555 1_555
H15B C15B 1_555 1_555
O3B C15B 1_555 1_555
O2B C9B 1_555 1_555
H16B O2B 1_555 1_555
C4 O1 1_555 1_555
C6 N1 1_555 1_555
C7 N1 1_555 1_555
C12 C13 1_555 1_555
C1B O1B 1_555 1_555
C12B C13B 1_555 1_555

#END
