
#######################################################################
#
#                 Cambridge Crystallographic Data Centre
#                                CCDC 
#
#######################################################################
#
# If this CIF has been generated from an entry in the Cambridge 
# Structural Database, then it will include bibliographic, chemical, 
# crystal, experimental, refinement or atomic coordinate data resulting 
# from the CCDC's data processing and validation procedures.
#
#######################################################################

data_MODCIT
_chemical_formula_moiety         'C20 H18 Br1 N1 O5'
_chemical_name_systematic        
5-(4-Bromophenyl)-2-(3-hydroxy-1-(4-nitrophenyl)propyl)-2-methylfuran-3(2H)-one
_symmetry_cell_setting           triclinic
_symmetry_space_group_name_H-M   'P -1'
_symmetry_Int_Tables_number      2
_space_group_name_Hall           '-P 1'
loop_
_symmetry_equiv_pos_site_id
_symmetry_equiv_pos_as_xyz
1 x,y,z
2 -x,-y,-z
_cell_length_a                   9.606(4)
_cell_length_b                   9.632(5)
_cell_length_c                   10.401(6)
_cell_angle_alpha                89.56(3)
_cell_angle_beta                 70.47(2)
_cell_angle_gamma                82.00(2)
_cell_volume                     897.38
_exptl_crystal_colour            yellow
_exptl_crystal_description       block
_cell_formula_units_Z            2
loop_
_atom_site_label
_atom_site_type_symbol
_atom_site_fract_x
_atom_site_fract_y
_atom_site_fract_z
Br1 Br 0.72274(7) 1.30340(6) 0.22359(7)
C1 C 0.6331(5) 1.1416(4) 0.2516(5)
C2 C 0.6720(5) 1.0442(5) 0.3320(5)
H1 H 0.7428 1.0580 0.3718
C3 C 0.6070(5) 0.9260(4) 0.3542(5)
H2 H 0.6328 0.8584 0.4098
C4 C 0.5033(4) 0.9061(4) 0.2948(4)
C5 C 0.4651(5) 1.0067(4) 0.2148(5)
H3 H 0.3941 0.9941 0.1749
C6 C 0.5300(5) 1.1253(5) 0.1930(5)
H4 H 0.5039 1.1941 0.1386
C7 C 0.4355(4) 0.7798(4) 0.3191(4)
C8 C 0.4530(4) 0.6712(4) 0.3929(4)
H5 H 0.5192 0.6576 0.4414
C9 C 0.3549(4) 0.5806(4) 0.3854(5)
C10 C 0.2785(4) 0.6420(4) 0.2890(4)
C11 C 0.3298(5) 0.5524(5) 0.1608(5)
H6 H 0.2932 0.5993 0.0941
H7 H 0.2922 0.4645 0.1797
H8 H 0.4369 0.5358 0.1261
C12 C 0.1104(4) 0.6696(4) 0.3588(4)
H9 H 0.0812 0.5823 0.4016
C13 C 0.0646(5) 0.7810(4) 0.4738(4)
H10 H 0.1254 0.7582 0.5312
H11 H 0.0862 0.8705 0.4344
C14 C -0.0963(5) 0.7970(4) 0.5616(5)
H12 H -0.1170 0.8735 0.6284
H13 H -0.1582 0.8206 0.5053
C15 C 0.0282(4) 0.6999(4) 0.2616(4)
C16 C 0.0389(6) 0.8169(5) 0.1885(6)
H14 H 0.0985 0.8808 0.2000
C17 C -0.0360(6) 0.8434(5) 0.0979(6)
H15 H -0.0246 0.9225 0.0457
C18 C -0.1261(5) 0.7541(5) 0.0851(5)
C19 C -0.1421(5) 0.6394(5) 0.1567(5)
H16 H -0.2058 0.5786 0.1475
C20 C -0.0639(5) 0.6119(4) 0.2439(5)
H17 H -0.0737 0.5306 0.2930
N1 N -0.2111(5) 0.7880(5) -0.0059(5)
O1 O 0.3346(3) 0.7730(3) 0.2564(3)
O2 O 0.3307(3) 0.4709(3) 0.4400(3)
O3 O -0.1321(4) 0.6783(4) 0.6270(4)
H18 H -0.1170 0.6139 0.5707
O4 O -0.3077(5) 0.7195(4) -0.0017(4)
O5 O -0.1873(5) 0.8867(5) -0.0744(5)
loop_
_geom_bond_atom_site_label_1
_geom_bond_atom_site_label_2
_geom_bond_site_symmetry_1
_geom_bond_site_symmetry_2
Br1 C1 1_555 1_555
C1 C2 1_555 1_555
C2 H1 1_555 1_555
C3 C2 1_555 1_555
H2 C3 1_555 1_555
C4 C3 1_555 1_555
C5 C4 1_555 1_555
H3 C5 1_555 1_555
C6 C1 1_555 1_555
H4 C6 1_555 1_555
C7 C4 1_555 1_555
C8 C7 1_555 1_555
H5 C8 1_555 1_555
C9 C8 1_555 1_555
C10 C9 1_555 1_555
C11 C10 1_555 1_555
H6 C11 1_555 1_555
H7 C11 1_555 1_555
H8 C11 1_555 1_555
C12 C10 1_555 1_555
H9 C12 1_555 1_555
C13 C12 1_555 1_555
H10 C13 1_555 1_555
H11 C13 1_555 1_555
C14 C13 1_555 1_555
H12 C14 1_555 1_555
H13 C14 1_555 1_555
C15 C12 1_555 1_555
C16 C15 1_555 1_555
H14 C16 1_555 1_555
C17 C16 1_555 1_555
H15 C17 1_555 1_555
C18 C17 1_555 1_555
C19 C18 1_555 1_555
H16 C19 1_555 1_555
C20 C15 1_555 1_555
H17 C20 1_555 1_555
N1 C18 1_555 1_555
O1 C7 1_555 1_555
O2 C9 1_555 1_555
O3 C14 1_555 1_555
H18 O3 1_555 1_555
O4 N1 1_555 1_555
O5 N1 1_555 1_555
C5 C6 1_555 1_555
C10 O1 1_555 1_555
C19 C20 1_555 1_555

#END
