
#######################################################################
#
#                 Cambridge Crystallographic Data Centre
#                                CCDC 
#
#######################################################################
#
# If this CIF has been generated from an entry in the Cambridge 
# Structural Database, then it will include bibliographic, chemical, 
# crystal, experimental, refinement or atomic coordinate data resulting 
# from the CCDC's data processing and validation procedures.
#
#######################################################################

data_MODKOF
_chemical_formula_moiety         'C16 H33 N3 O3 Si1'
_chemical_name_systematic        
(3Z)-3-(1-ethyl-1-(trimethylsilyloxy)propyl)-N,N,N',N'-tetramethyl-4-nitro-1,3-butadiene-1,1-diamine
_symmetry_cell_setting           triclinic
_symmetry_space_group_name_H-M   'P -1'
_symmetry_Int_Tables_number      2
_space_group_name_Hall           '-P 1'
loop_
_symmetry_equiv_pos_site_id
_symmetry_equiv_pos_as_xyz
1 x,y,z
2 -x,-y,-z
_cell_length_a                   6.7250(16)
_cell_length_b                   8.239(3)
_cell_length_c                   19.622(6)
_cell_angle_alpha                92.44(3)
_cell_angle_beta                 99.09(3)
_cell_angle_gamma                108.42(3)
_cell_volume                     1013.57
_exptl_crystal_colour            orange
_chemical_melting_point          '130 deg.C'
_cell_formula_units_Z            2
_exptl_crystal_recrystallization_method tetrahydrofuran
loop_
_atom_site_label
_atom_site_type_symbol
_atom_site_fract_x
_atom_site_fract_y
_atom_site_fract_z
Si1 Si 0.8651(2) 0.3155(1) 0.1079(1)
O1 O 0.8239(3) 0.2093(3) 0.1753(1)
N1 N 0.6094(4) -0.1655(4) 0.3539(1)
C1 C 0.6563(5) 0.0770(4) 0.1967(2)
O2 O 0.4811(4) -0.3107(3) 0.3645(2)
N2 N 1.1132(4) -0.0585(4) 0.3673(1)
C2 C 0.7504(5) 0.0227(4) 0.2656(2)
N3 N 1.1897(4) 0.2263(4) 0.4057(1)
O3 O 0.7243(4) -0.0638(4) 0.4048(1)
C3 C 0.9479(5) 0.1206(4) 0.2989(2)
C4 C 1.0804(5) 0.0907(4) 0.3593(2)
C5 C 0.6088(5) -0.1255(4) 0.2877(2)
C6 C 0.9545(8) 0.1996(6) 0.0424(2)
C7 C 0.6282(7) 0.3633(5) 0.0638(2)
C8 C 1.0837(7) 0.5159(5) 0.1430(2)
C9 C 0.4784(6) 0.1501(6) 0.2090(2)
C10 C 0.5493(9) 0.3111(7) 0.2587(2)
C11 C 0.5726(7) -0.0725(5) 0.1389(2)
C12 C 0.7259(11) -0.1667(6) 0.1300(2)
C13 C 1.0511(6) -0.1955(5) 0.3104(2)
C14 C 1.1703(7) -0.1157(5) 0.4357(2)
C15 C 1.1122(7) 0.3696(5) 0.4143(2)
C16 C 1.4073(6) 0.2531(6) 0.4437(2)
H1 H 1.0068 0.2226 0.2800
H2 H 0.5066 -0.2020 0.2534
H3 H 1.0771 0.1724 0.0638
H4 H 0.9910 0.2709 0.0058
H5 H 0.8418 0.0953 0.0236
H6 H 0.5168 0.2577 0.0459
H7 H 0.6653 0.4315 0.0264
H8 H 0.5797 0.4256 0.0964
H9 H 1.2046 0.4883 0.1657
H10 H 1.0373 0.5794 0.1757
H11 H 1.1230 0.5842 0.1058
H12 H 0.4127 0.1745 0.1647
H13 H 0.3700 0.0620 0.2264
H14 H 0.4287 0.3470 0.2629
H15 H 0.6538 0.4007 0.2415
H16 H 0.6102 0.2880 0.3034
H17 H 0.4430 -0.1537 0.1488
H18 H 0.5358 -0.0280 0.0954
H19 H 0.6619 -0.2577 0.0932
H20 H 0.7604 -0.2143 0.1723
H21 H 0.8534 -0.0884 0.1189
H22 H 1.0885 -0.2922 0.3266
H23 H 1.1241 -0.1543 0.2731
H24 H 0.9000 -0.2298 0.2943
H28 H 1.1868 -0.2267 0.4295
H29 H 1.0595 -0.1230 0.4620
H30 H 1.3017 -0.0347 0.4600
H34 H 1.2101 0.4541 0.4495
H35 H 0.9750 0.3297 0.4278
H36 H 1.0998 0.4201 0.3712
H40 H 1.4549 0.3577 0.4741
H41 H 1.5020 0.2607 0.4113
H42 H 1.4064 0.1582 0.4706
H25? H 0.9865 -0.1587 0.2694
H26? H 0.9510 -0.2966 0.3229
H27? H 1.1750 -0.2210 0.3017
H31? H 1.1785 -0.0296 0.4715
H32? H 1.3058 -0.1333 0.4390
H33? H 1.0636 -0.2215 0.4410
H37? H 0.9799 0.3485 0.3828
H38? H 1.2150 0.4729 0.4046
H39? H 1.0902 0.3826 0.4611
H43? H 1.4540 0.1600 0.4299
H44? H 1.4069 0.2570 0.4927
H45? H 1.5024 0.3595 0.4334
loop_
_geom_bond_atom_site_label_1
_geom_bond_atom_site_label_2
_geom_bond_site_symmetry_1
_geom_bond_site_symmetry_2
Si1 O1 1_555 1_555
O1 C1 1_555 1_555
N1 O2 1_555 1_555
C1 C2 1_555 1_555
N2 C4 1_555 1_555
C2 C3 1_555 1_555
N3 C4 1_555 1_555
O3 N1 1_555 1_555
C3 C4 1_555 1_555
C5 N1 1_555 1_555
C6 Si1 1_555 1_555
C7 Si1 1_555 1_555
C8 Si1 1_555 1_555
C9 C1 1_555 1_555
C10 C9 1_555 1_555
C11 C1 1_555 1_555
C12 C11 1_555 1_555
C13 N2 1_555 1_555
C14 N2 1_555 1_555
C15 N3 1_555 1_555
C16 N3 1_555 1_555
H1 C3 1_555 1_555
H2 C5 1_555 1_555
H3 C6 1_555 1_555
H4 C6 1_555 1_555
H5 C6 1_555 1_555
H6 C7 1_555 1_555
H7 C7 1_555 1_555
H8 C7 1_555 1_555
H9 C8 1_555 1_555
H10 C8 1_555 1_555
H11 C8 1_555 1_555
H12 C9 1_555 1_555
H13 C9 1_555 1_555
H14 C10 1_555 1_555
H15 C10 1_555 1_555
H16 C10 1_555 1_555
H17 C11 1_555 1_555
H18 C11 1_555 1_555
H19 C12 1_555 1_555
H20 C12 1_555 1_555
H21 C12 1_555 1_555
H22 C13 1_555 1_555
H23 C13 1_555 1_555
H24 C13 1_555 1_555
H28 C14 1_555 1_555
H29 C14 1_555 1_555
H30 C14 1_555 1_555
H34 C15 1_555 1_555
H35 C15 1_555 1_555
H36 C15 1_555 1_555
H40 C16 1_555 1_555
H41 C16 1_555 1_555
H42 C16 1_555 1_555
C2 C5 1_555 1_555

#END
