
#######################################################################
#
#                 Cambridge Crystallographic Data Centre
#                                CCDC 
#
#######################################################################
#
# If this CIF has been generated from an entry in the Cambridge 
# Structural Database, then it will include bibliographic, chemical, 
# crystal, experimental, refinement or atomic coordinate data resulting 
# from the CCDC's data processing and validation procedures.
#
#######################################################################

data_MODLEY
_chemical_formula_moiety         'C21 H25 N3 O3,C1 H4 O1'
_chemical_name_systematic        
"1-Benzyl-6',7'-dimethoxy-1'H-spiro[piperidine-4,2'-quinazolin]-4'(3'H)-one methanol solvate"
_symmetry_cell_setting           monoclinic
_symmetry_space_group_name_H-M   'P 2/n'
_symmetry_Int_Tables_number      13
_space_group_name_Hall           '-P 2yac'
loop_
_symmetry_equiv_pos_site_id
_symmetry_equiv_pos_as_xyz
1 x,y,z
2 1/2-x,y,1/2-z
3 -x,-y,-z
4 1/2+x,-y,1/2+z
_cell_length_a                   18.113(4)
_cell_length_b                   6.4458(13)
_cell_length_c                   18.311(4)
_cell_angle_alpha                90
_cell_angle_beta                 105.30(3)
_cell_angle_gamma                90
_cell_volume                     2062.09
_cell_formula_units_Z            4
loop_
_atom_site_label
_atom_site_type_symbol
_atom_site_fract_x
_atom_site_fract_y
_atom_site_fract_z
O1 O 0.50503(6) 0.57171(16) 0.92093(5)
O2 O 0.43666(6) 0.25847(17) 0.84282(6)
O3 O 0.45582(6) 0.40965(16) 0.56856(6)
N1 N 0.56563(7) 0.87338(19) 0.70281(7)
N2 N 0.53002(7) 0.69801(19) 0.58546(7)
N3 N 0.70399(7) 0.90470(19) 0.54812(7)
C1 C 0.53621(8) 0.7117(2) 0.73646(8)
C2 C 0.53871(8) 0.7235(2) 0.81362(8)
H1 H 0.5630 0.8347 0.8425
C3 C 0.50523(8) 0.5709(2) 0.84657(8)
C4 C 0.46839(8) 0.3993(2) 0.80341(8)
C5 C 0.46651(8) 0.3878(2) 0.72790(8)
H2 H 0.4428 0.2755 0.6992
C6 C 0.50009(8) 0.5442(2) 0.69363(8)
C7 C 0.53100(9) 0.7577(2) 0.96245(8)
H3 H 0.5843 0.7782 0.9658
H4 H 0.5240 0.7459 1.0125
H5 H 0.5021 0.8736 0.9370
C8 C 0.38744(9) 0.1060(2) 0.79889(9)
H6 H 0.3485 0.1732 0.7603
H7 H 0.3640 0.0267 0.8311
H8 H 0.4167 0.0153 0.7757
C9 C 0.49384(8) 0.5417(2) 0.61190(8)
C10 C 0.58972(8) 0.8283(2) 0.63459(8)
C11 C 0.59695(8) 1.0349(2) 0.59614(8)
H9 H 0.5469 1.0992 0.5801
H10 H 0.6299 1.1265 0.6326
C12 C 0.62931(8) 1.0120(2) 0.52785(8)
H11 H 0.5936 0.9339 0.4887
H12 H 0.6354 1.1482 0.5077
C13 C 0.69713(8) 0.6992(2) 0.58172(9)
H13 H 0.7468 0.6317 0.5950
H14 H 0.6622 0.6131 0.5447
C14 C 0.66788(8) 0.7191(2) 0.65216(8)
H15 H 0.7046 0.7973 0.6904
H16 H 0.6633 0.5820 0.6724
C15 C 0.73031(9) 0.8699(2) 0.47911(9)
H17 H 0.6917 0.7908 0.4431
H18 H 0.7767 0.7874 0.4923
C16 C 0.74590(8) 1.0678(2) 0.44162(8)
C17 C 0.69372(10) 1.1414(3) 0.37685(9)
H19 H 0.6479 1.0708 0.3578
C18 C 0.70881(11) 1.3179(3) 0.34036(10)
H20 H 0.6734 1.3649 0.2970
C19 C 0.77649(11) 1.4243(3) 0.36827(11)
H21 H 0.7870 1.5419 0.3433
C20 C 0.82879(10) 1.3561(3) 0.43341(11)
H22 H 0.8741 1.4289 0.4527
C21 C 0.81340(9) 1.1786(3) 0.46982(9)
H23 H 0.8486 1.1332 0.5136
H24 H 0.5999(9) 0.951(3) 0.7361(9)
H25 H 0.5307(11) 0.681(3) 0.5366(12)
O4 O 0.67768(6) 0.06271(17) 0.83328(7)
H26 H 0.7138 0.0245 0.8680
C22 C 0.67863(10) 0.2805(3) 0.82766(10)
H27 H 0.6724 0.3408 0.8736
H28 H 0.6375 0.3249 0.7858
H29 H 0.7266 0.3243 0.8197
loop_
_geom_bond_atom_site_label_1
_geom_bond_atom_site_label_2
_geom_bond_site_symmetry_1
_geom_bond_site_symmetry_2
O1 C3 1_555 1_555
O2 C4 1_555 1_555
O3 C9 1_555 1_555
N1 C1 1_555 1_555
N2 C9 1_555 1_555
N3 C12 1_555 1_555
C1 C2 1_555 1_555
C2 H1 1_555 1_555
C3 C2 1_555 1_555
C4 C3 1_555 1_555
C5 C4 1_555 1_555
H2 C5 1_555 1_555
C6 C1 1_555 1_555
C7 O1 1_555 1_555
H3 C7 1_555 1_555
H4 C7 1_555 1_555
H5 C7 1_555 1_555
C8 O2 1_555 1_555
H6 C8 1_555 1_555
H7 C8 1_555 1_555
H8 C8 1_555 1_555
C9 C6 1_555 1_555
C10 N1 1_555 1_555
C11 C10 1_555 1_555
H9 C11 1_555 1_555
H10 C11 1_555 1_555
C12 C11 1_555 1_555
H11 C12 1_555 1_555
H12 C12 1_555 1_555
C13 N3 1_555 1_555
H13 C13 1_555 1_555
H14 C13 1_555 1_555
C14 C10 1_555 1_555
H15 C14 1_555 1_555
H16 C14 1_555 1_555
C15 N3 1_555 1_555
H17 C15 1_555 1_555
H18 C15 1_555 1_555
C16 C15 1_555 1_555
C17 C16 1_555 1_555
H19 C17 1_555 1_555
C18 C17 1_555 1_555
H20 C18 1_555 1_555
C19 C18 1_555 1_555
H21 C19 1_555 1_555
C20 C19 1_555 1_555
H22 C20 1_555 1_555
C21 C16 1_555 1_555
H23 C21 1_555 1_555
H24 N1 1_555 1_555
H25 N2 1_555 1_555
O4 H26 1_555 1_555
C22 O4 1_555 1_555
H27 C22 1_555 1_555
H28 C22 1_555 1_555
H29 C22 1_555 1_555
N2 C10 1_555 1_555
C5 C6 1_555 1_555
C13 C14 1_555 1_555
C20 C21 1_555 1_555

#END
