
#######################################################################
#
#                 Cambridge Crystallographic Data Centre
#                                CCDC 
#
#######################################################################
#
# If this CIF has been generated from an entry in the Cambridge 
# Structural Database, then it will include bibliographic, chemical, 
# crystal, experimental, refinement or atomic coordinate data resulting 
# from the CCDC's data processing and validation procedures.
#
#######################################################################

data_MODVEH
_chemical_formula_moiety         'C17 H15 N3 O3 S1,0.5(H2 O1)'
_chemical_name_systematic        
'2-Methoxy-N-(5-(2-methoxyphenyl)-1,3,4-thiadiazol-2-yl)benzamide hemihydrate'
_symmetry_cell_setting           monoclinic
_symmetry_space_group_name_H-M   'C 2/c'
_symmetry_Int_Tables_number      15
_space_group_name_Hall           '-C 2yn'
loop_
_symmetry_equiv_pos_site_id
_symmetry_equiv_pos_as_xyz
1 x,y,z
2 1/2+x,1/2+y,z
3 -x,y,1/2-z
4 1/2-x,1/2+y,1/2-z
5 -x,-y,-z
6 1/2-x,1/2-y,-z
7 x,-y,1/2+z
8 1/2+x,1/2-y,1/2+z
_cell_length_a                   29.950(6)
_cell_length_b                   14.561(3)
_cell_length_c                   7.6520(15)
_cell_angle_alpha                90
_cell_angle_beta                 94.78(3)
_cell_angle_gamma                90
_cell_volume                     3325.45
_exptl_crystal_colour            colorless
_exptl_crystal_description       block
_chemical_melting_point          '513-514 K'
_cell_formula_units_Z            8
_exptl_crystal_recrystallization_method ethanol
loop_
_atom_site_label
_atom_site_type_symbol
_atom_site_fract_x
_atom_site_fract_y
_atom_site_fract_z
S1 S 0.14065(4) 0.20610(9) 0.03340(17)
O1 O 0.16810(11) 0.1136(2) -0.2572(5)
O2 O 0.19106(10) 0.2584(3) 0.3483(5)
O3 O 0.09246(10) 0.3994(2) 0.5803(4)
N1 N 0.06625(14) 0.2824(4) 0.0904(6)
N2 N 0.06140(12) 0.2445(3) -0.0693(5)
N3 N 0.11780(9) 0.3022(2) 0.3039(5)
H2 H 0.0969 0.3324 0.3490
C1 C 0.20716(19) 0.0758(5) -0.3250(9)
H3 H 0.2323 0.0820 -0.2392
H4 H 0.2132 0.1081 -0.4299
H5 H 0.2022 0.0120 -0.3516
C2 C 0.12874(16) 0.1123(3) -0.3594(6)
C3 C 0.09255(15) 0.1571(3) -0.2910(6)
C4 C 0.05153(18) 0.1584(4) -0.3904(7)
H6 H 0.0273 0.1894 -0.3501
C5 C 0.0471(2) 0.1124(5) -0.5522(8)
H7 H 0.0194 0.1107 -0.6165
C6 C 0.0828(2) 0.0707(5) -0.6157(8)
H8 H 0.0794 0.0422 -0.7248
C7 C 0.1229(2) 0.0696(4) -0.5235(7)
H9 H 0.1470 0.0403 -0.5690
C8 C 0.09539(14) 0.2027(3) -0.1186(6)
C9 C 0.10742(16) 0.2703(4) 0.1660(8)
C10 C 0.16044(14) 0.2990(3) 0.4122(6)
C11 C 0.05722(17) 0.4453(4) 0.6622(8)
H10 H 0.0303 0.4444 0.5846
H11 H 0.0658 0.5077 0.6873
H12 H 0.0520 0.4143 0.7694
C12 C 0.13322(14) 0.3932(3) 0.6683(6)
C13 C 0.16640(13) 0.3438(3) 0.5879(5)
C14 C 0.20858(15) 0.3341(3) 0.6785(6)
H13 H 0.2305 0.3006 0.6276
C15 C 0.21853(18) 0.3729(4) 0.8408(7)
H14 H 0.2467 0.3653 0.9000
C16 C 0.1862(2) 0.4227(4) 0.9133(7)
H15 H 0.1934 0.4515 1.0205
C17 C 0.14394(18) 0.4321(3) 0.8354(7)
H16 H 0.1223 0.4639 0.8917
O4 O 1.0000 0.3791(4) 0.2500
H1 H 0.9969 0.3526 0.3472
H1B H 1.0031 0.3526 0.1528
loop_
_geom_bond_atom_site_label_1
_geom_bond_atom_site_label_2
_geom_bond_site_symmetry_1
_geom_bond_site_symmetry_2
S1 C8 1_555 1_555
O1 C1 1_555 1_555
O2 C10 1_555 1_555
O3 C11 1_555 1_555
O4 H1 1_555 1_555
N1 N2 1_555 1_555
N2 C8 1_555 1_555
N3 H2 1_555 1_555
C1 H3 1_555 1_555
H4 C1 1_555 1_555
H5 C1 1_555 1_555
C2 O1 1_555 1_555
C3 C2 1_555 1_555
C4 C3 1_555 1_555
H6 C4 1_555 1_555
C5 C4 1_555 1_555
H7 C5 1_555 1_555
C6 C5 1_555 1_555
H8 C6 1_555 1_555
C7 C2 1_555 1_555
H9 C7 1_555 1_555
C8 C3 1_555 1_555
C9 S1 1_555 1_555
C10 N3 1_555 1_555
C11 H10 1_555 1_555
H11 C11 1_555 1_555
H12 C11 1_555 1_555
C12 O3 1_555 1_555
C13 C10 1_555 1_555
C14 C13 1_555 1_555
H13 C14 1_555 1_555
C15 C14 1_555 1_555
H14 C15 1_555 1_555
C16 C15 1_555 1_555
H15 C16 1_555 1_555
C17 C12 1_555 1_555
H16 C17 1_555 1_555
H1B O4 1_555 1_555
N1 C9 1_555 1_555
N3 C9 1_555 1_555
C6 C7 1_555 1_555
C12 C13 1_555 1_555
C16 C17 1_555 1_555

#END
