
#######################################################################
#
#                 Cambridge Crystallographic Data Centre
#                                CCDC 
#
#######################################################################
#
# If this CIF has been generated from an entry in the Cambridge 
# Structural Database, then it will include bibliographic, chemical, 
# crystal, experimental, refinement or atomic coordinate data resulting 
# from the CCDC's data processing and validation procedures.
#
#######################################################################

data_MOFLOJ
_chemical_formula_moiety         'C26 H41 F1 Li1 N1 O2'
_chemical_name_systematic        
'(N-(2-(Fluoro-F)phenyl)-2,6-di-isopropylanilinato-N)-bis(diethyl ether)-lithium'
_symmetry_cell_setting           monoclinic
_symmetry_space_group_name_H-M   'P 21/c'
_symmetry_Int_Tables_number      14
_space_group_name_Hall           '-P 2ybc'
loop_
_symmetry_equiv_pos_site_id
_symmetry_equiv_pos_as_xyz
1 x,y,z
2 -x,1/2+y,1/2-z
3 -x,-y,-z
4 x,1/2-y,1/2+z
_cell_length_a                   16.3699(5)
_cell_length_b                   9.5320(3)
_cell_length_c                   17.0844(6)
_cell_angle_alpha                90
_cell_angle_beta                 96.353(2)
_cell_angle_gamma                90
_cell_volume                     2649.44
_exptl_crystal_colour            colorless
_exptl_crystal_description       prism
_cell_formula_units_Z            4
_exptl_crystal_recrystallization_method 'diethyl ether'
loop_
_atom_site_label
_atom_site_type_symbol
_atom_site_fract_x
_atom_site_fract_y
_atom_site_fract_z
F1 F 0.16105(9) 0.30500(13) 0.04153(8)
O1 O 0.30743(11) 0.30911(17) -0.04300(10)
O2 O 0.20468(10) 0.58466(18) -0.09890(9)
N1 N 0.22858(11) 0.54555(19) 0.09496(10)
C1 C 0.26235(13) 0.6753(2) 0.12352(13)
C2 C 0.21975(15) 0.8025(2) 0.10570(14)
C3 C 0.13417(16) 0.8027(3) 0.06127(16)
H1 H 0.1260 0.7115 0.0379
C4 C 0.06877(18) 0.8279(3) 0.1162(2)
H2 H 0.0155 0.8271 0.0864
H3 H 0.0782 0.9176 0.1410
H4 H 0.0712 0.7559 0.1557
C5 C 0.12492(19) 0.9104(3) -0.00555(17)
H5 H 0.0701 0.9077 -0.0322
H6 H 0.1635 0.8888 -0.0422
H7 H 0.1361 1.0024 0.0159
C6 C 0.25664(17) 0.9289(3) 0.13017(15)
H8 H 0.2276 1.0154 0.1192
C7 C 0.33481(18) 0.9326(3) 0.16981(16)
H9 H 0.3611 1.0199 0.1850
C8 C 0.37619(16) 0.8097(3) 0.18703(16)
H10 H 0.4303 0.8114 0.2153
C9 C 0.34141(14) 0.6797(3) 0.16583(14)
C10 C 0.38856(16) 0.5456(3) 0.18735(16)
H11 H 0.3508 0.4699 0.1745
C11 C 0.4616(2) 0.5278(4) 0.1411(2)
H12 H 0.4899 0.4423 0.1564
H13 H 0.4981 0.6059 0.1521
H14 H 0.4433 0.5251 0.0858
C12 C 0.4157(2) 0.5354(4) 0.27571(18)
H15 H 0.4454 0.4497 0.2873
H16 H 0.3678 0.5370 0.3034
H17 H 0.4504 0.6137 0.2920
C13 C 0.18182(13) 0.4751(2) 0.14256(13)
C14 C 0.16226(14) 0.5132(3) 0.21834(14)
H18 H 0.1839 0.5991 0.2415
C15 C 0.11232(16) 0.4309(3) 0.26084(15)
H19 H 0.0999 0.4610 0.3118
C16 C 0.07949(17) 0.3057(3) 0.23120(17)
H20 H 0.0464 0.2488 0.2617
C17 C 0.09677(15) 0.2634(3) 0.15684(16)
H21 H 0.0742 0.1771 0.1350
C18 C 0.14508(14) 0.3470(2) 0.11658(14)
C19 C 0.4289(3) 0.1807(5) 0.0105(3)
H22 H 0.4535 0.1226 0.0525
H23 H 0.4611 0.2642 0.0072
H24 H 0.4268 0.1302 -0.0383
C20 C 0.3445(2) 0.2234(3) 0.02104(18)
H25 H 0.3458 0.2748 0.0695
H26 H 0.3115 0.1408 0.0239
C21 C 0.2760(2) 0.2277(3) -0.11128(16)
H27 H 0.3030 0.1381 -0.1081
H28 H 0.2179 0.2146 -0.1113
C22 C 0.2922(2) 0.2958(3) -0.18494(17)
H29 H 0.2718 0.2402 -0.2298
H30 H 0.3504 0.3089 -0.1846
H31 H 0.2653 0.3854 -0.1878
C23 C 0.06976(17) 0.4894(3) -0.10612(18)
H32 H 0.0165 0.4873 -0.1359
H33 H 0.0649 0.5236 -0.0540
H34 H 0.0924 0.3963 -0.1030
C24 C 0.12565(17) 0.5834(3) -0.14442(17)
H35 H 0.1039 0.6770 -0.1475
H36 H 0.1314 0.5497 -0.1965
C25 C 0.26145(19) 0.6780(3) -0.12942(16)
H37 H 0.2709 0.6472 -0.1812
H38 H 0.2378 0.7703 -0.1326
C26 C 0.34049(18) 0.6773(3) -0.0764(2)
H39 H 0.3790 0.7402 -0.0965
H40 H 0.3630 0.5842 -0.0734
H41 H 0.3299 0.7073 -0.0249
Li1 Li 0.2348(2) 0.4607(4) -0.0086(2)
loop_
_geom_bond_atom_site_label_1
_geom_bond_atom_site_label_2
_geom_bond_site_symmetry_1
_geom_bond_site_symmetry_2
F1 C18 1_555 1_555
O1 C20 1_555 1_555
O2 C24 1_555 1_555
N1 C1 1_555 1_555
C1 C2 1_555 1_555
C2 C3 1_555 1_555
C3 H1 1_555 1_555
C4 C3 1_555 1_555
H2 C4 1_555 1_555
H3 C4 1_555 1_555
H4 C4 1_555 1_555
C5 C3 1_555 1_555
H5 C5 1_555 1_555
H6 C5 1_555 1_555
H7 C5 1_555 1_555
C6 C2 1_555 1_555
H8 C6 1_555 1_555
C7 C6 1_555 1_555
H9 C7 1_555 1_555
C8 C7 1_555 1_555
H10 C8 1_555 1_555
C9 C1 1_555 1_555
C10 C9 1_555 1_555
H11 C10 1_555 1_555
C11 C10 1_555 1_555
H12 C11 1_555 1_555
H13 C11 1_555 1_555
H14 C11 1_555 1_555
C12 C10 1_555 1_555
H15 C12 1_555 1_555
H16 C12 1_555 1_555
H17 C12 1_555 1_555
C13 N1 1_555 1_555
C14 C13 1_555 1_555
H18 C14 1_555 1_555
C15 C14 1_555 1_555
H19 C15 1_555 1_555
C16 C15 1_555 1_555
H20 C16 1_555 1_555
C17 C16 1_555 1_555
H21 C17 1_555 1_555
C18 C13 1_555 1_555
C19 H22 1_555 1_555
H23 C19 1_555 1_555
H24 C19 1_555 1_555
C20 C19 1_555 1_555
H25 C20 1_555 1_555
H26 C20 1_555 1_555
C21 O1 1_555 1_555
H27 C21 1_555 1_555
H28 C21 1_555 1_555
C22 C21 1_555 1_555
H29 C22 1_555 1_555
H30 C22 1_555 1_555
H31 C22 1_555 1_555
C23 H32 1_555 1_555
H33 C23 1_555 1_555
H34 C23 1_555 1_555
C24 C23 1_555 1_555
H35 C24 1_555 1_555
H36 C24 1_555 1_555
C25 O2 1_555 1_555
H37 C25 1_555 1_555
H38 C25 1_555 1_555
C26 C25 1_555 1_555
H39 C26 1_555 1_555
H40 C26 1_555 1_555
H41 C26 1_555 1_555
Li1 F1 1_555 1_555
O1 Li1 1_555 1_555
O2 Li1 1_555 1_555
N1 Li1 1_555 1_555
C8 C9 1_555 1_555
C17 C18 1_555 1_555

#END
