
#######################################################################
#
#                 Cambridge Crystallographic Data Centre
#                                CCDC 
#
#######################################################################
#
# If this CIF has been generated from an entry in the Cambridge 
# Structural Database, then it will include bibliographic, chemical, 
# crystal, experimental, refinement or atomic coordinate data resulting 
# from the CCDC's data processing and validation procedures.
#
#######################################################################

data_MOFYEM
_chemical_compound_source        'roots of Aconitum szechenyianum Gay'
_chemical_formula_moiety         'C22 H29 N1 O3'
_chemical_name_systematic        Songoramine
_chemical_properties_biological  
'possible bioactivity, roots used in folk medicine for the treatment of pain'
_symmetry_cell_setting           orthorhombic
_symmetry_space_group_name_H-M   'P 21 21 21'
_symmetry_Int_Tables_number      19
_space_group_name_Hall           'P 2ac 2ab'
loop_
_symmetry_equiv_pos_site_id
_symmetry_equiv_pos_as_xyz
1 x,y,z
2 1/2-x,-y,1/2+z
3 -x,1/2+y,1/2-z
4 1/2+x,1/2-y,-z
_cell_length_a                   8.950(2)
_cell_length_b                   13.272(3)
_cell_length_c                   15.454(4)
_cell_angle_alpha                90
_cell_angle_beta                 90
_cell_angle_gamma                90
_cell_volume                     1835.69
_exptl_crystal_colour            colorless
_exptl_crystal_description       prism
_cell_formula_units_Z            4
_exptl_crystal_recrystallization_method methanol
loop_
_atom_site_label
_atom_site_type_symbol
_atom_site_fract_x
_atom_site_fract_y
_atom_site_fract_z
N1 N 0.9999(2) 0.8889(1) 0.2195(1)
C1 C 1.0007(2) 0.9929(2) 0.0485(1)
H1 H 1.0188 1.0648 0.0389
O1 O 1.1245(2) 0.9470(1) 0.0942(1)
C2 C 0.9876(3) 0.9369(2) -0.0368(1)
H2 H 1.0688 0.9555 -0.0752
H3 H 0.8936 0.9528 -0.0649
C3 C 0.9953(3) 0.8236(2) -0.0146(1)
H4 H 0.9290 0.7862 -0.0525
H5 H 1.0962 0.7990 -0.0235
C4 C 0.9493(2) 0.8068(2) 0.0801(2)
C5 C 0.8031(2) 0.8680(2) 0.0926(2)
H6 H 0.7408 0.8632 0.0406
C6 C 0.7074(3) 0.8501(2) 0.1742(2)
H7 H 0.6029 0.8411 0.1594
H8 H 0.7418 0.7915 0.2060
C7 C 0.7310(2) 0.9469(2) 0.2266(1)
H9 H 0.7146 0.9391 0.2890
C8 C 0.6481(2) 1.0359(2) 0.1863(1)
C9 C 0.7288(2) 1.0505(1) 0.0969(1)
H10 H 0.6618 1.0269 0.0510
C10 C 0.8606(2) 0.9767(2) 0.1039(1)
C11 C 0.7694(3) 1.1611(2) 0.0786(2)
H11 H 0.8583 1.1789 0.1111
H12 H 0.7919 1.1689 0.0175
C12 C 0.6442(3) 1.2318(2) 0.1028(2)
O2 O 0.6105(2) 1.3043(1) 0.0599(1)
C13 C 0.5642(3) 1.2054(2) 0.1860(1)
H13 H 0.5345 1.2654 0.2187
C14 C 0.6604(3) 1.1342(2) 0.2396(1)
H14 H 0.6206 1.1257 0.2975
H15 H 0.7628 1.1576 0.2432
C15 C 0.4773(2) 1.0301(2) 0.1759(2)
H16 H 0.4340 1.0054 0.2301
O3 O 0.4341(2) 0.9649(1) 0.1082(1)
H17 H 0.3438 0.9697 0.1003
C16 C 0.4314(3) 1.1392(2) 0.1635(1)
C17 C 0.3017(3) 1.1714(2) 0.1364(2)
H18 H 0.2268 1.1255 0.1226
H19 H 0.2842 1.2401 0.1308
C18 C 0.9386(3) 0.6952(2) 0.1021(2)
H20 H 0.9238 0.6874 0.1632
H21 H 1.0293 0.6620 0.0852
H22 H 0.8558 0.6659 0.0716
C19 C 1.0664(3) 0.8591(2) 0.1383(2)
H23 H 1.1486 0.8121 0.1497
C20 C 0.8931(2) 0.9704(2) 0.2018(1)
H24 H 0.9267 1.0351 0.2254
C21 C 1.1067(3) 0.9136(2) 0.2883(2)
H25 H 1.1502 0.9792 0.2767
H26 H 1.1869 0.8644 0.2880
C22 C 1.0347(4) 0.9149(2) 0.3763(2)
H27 H 0.9587 0.9659 0.3778
H28 H 1.1088 0.9292 0.4194
H29 H 0.9905 0.8503 0.3878
loop_
_geom_bond_atom_site_label_1
_geom_bond_atom_site_label_2
_geom_bond_site_symmetry_1
_geom_bond_site_symmetry_2
N1 C19 1_555 1_555
C1 H1 1_555 1_555
O1 C1 1_555 1_555
C2 C1 1_555 1_555
H2 C2 1_555 1_555
H3 C2 1_555 1_555
C3 C2 1_555 1_555
H4 C3 1_555 1_555
H5 C3 1_555 1_555
C4 C3 1_555 1_555
C5 C4 1_555 1_555
H6 C5 1_555 1_555
C6 C5 1_555 1_555
H7 C6 1_555 1_555
H8 C6 1_555 1_555
C7 C6 1_555 1_555
H9 C7 1_555 1_555
C8 C7 1_555 1_555
C9 C8 1_555 1_555
H10 C9 1_555 1_555
C10 C1 1_555 1_555
C11 C9 1_555 1_555
H11 C11 1_555 1_555
H12 C11 1_555 1_555
C12 C11 1_555 1_555
O2 C12 1_555 1_555
C13 C12 1_555 1_555
H13 C13 1_555 1_555
C14 C8 1_555 1_555
H14 C14 1_555 1_555
H15 C14 1_555 1_555
C15 C8 1_555 1_555
H16 C15 1_555 1_555
O3 C15 1_555 1_555
H17 O3 1_555 1_555
C16 C13 1_555 1_555
C17 C16 1_555 1_555
H18 C17 1_555 1_555
H19 C17 1_555 1_555
C18 C4 1_555 1_555
H20 C18 1_555 1_555
H21 C18 1_555 1_555
H22 C18 1_555 1_555
C19 O1 1_555 1_555
H23 C19 1_555 1_555
C20 N1 1_555 1_555
H24 C20 1_555 1_555
C21 N1 1_555 1_555
H25 C21 1_555 1_555
H26 C21 1_555 1_555
C22 C21 1_555 1_555
H27 C22 1_555 1_555
H28 C22 1_555 1_555
H29 C22 1_555 1_555
C4 C19 1_555 1_555
C5 C10 1_555 1_555
C7 C20 1_555 1_555
C9 C10 1_555 1_555
C10 C20 1_555 1_555
C13 C14 1_555 1_555
C15 C16 1_555 1_555

#END
