
#######################################################################
#
#                 Cambridge Crystallographic Data Centre
#                                CCDC 
#
#######################################################################
#
# If this CIF has been generated from an entry in the Cambridge 
# Structural Database, then it will include bibliographic, chemical, 
# crystal, experimental, refinement or atomic coordinate data resulting 
# from the CCDC's data processing and validation procedures.
#
#######################################################################

data_MOGWOW
_chemical_formula_moiety         'C41 H39 B1 N2'
_chemical_name_systematic        
6-(4-(Dimesitylboryl)phenyl)-N,N-diphenylpyridin-3-amine
_symmetry_cell_setting           monoclinic
_symmetry_space_group_name_H-M   'P 21/c'
_symmetry_Int_Tables_number      14
_space_group_name_Hall           '-P 2ybc'
loop_
_symmetry_equiv_pos_site_id
_symmetry_equiv_pos_as_xyz
1 x,y,z
2 -x,1/2+y,1/2-z
3 -x,-y,-z
4 x,1/2-y,1/2+z
_cell_length_a                   17.5180(7)
_cell_length_b                   9.2570(3)
_cell_length_c                   21.2687(7)
_cell_angle_alpha                90
_cell_angle_beta                 109.371(2)
_cell_angle_gamma                90
_cell_volume                     3253.77
_exptl_crystal_colour            colorless
_exptl_crystal_description       needle
_cell_formula_units_Z            4
loop_
_atom_site_label
_atom_site_type_symbol
_atom_site_fract_x
_atom_site_fract_y
_atom_site_fract_z
B1 B 0.7154(2) -0.0475(4) -0.04567(18)
N1 N 1.03041(16) 0.3722(3) 0.08524(12)
N2 N 1.15551(15) 0.6298(3) 0.20891(12)
C1 C 0.78106(18) 0.0610(3) -0.00567(15)
C2 C 0.82615(19) 0.1445(3) -0.03573(15)
H1 H 0.8147 0.1373 -0.0825
C3 C 0.88694(19) 0.2375(3) 0.00060(15)
H2 H 0.9181 0.2889 -0.0210
C4 C 0.90237(18) 0.2556(3) 0.06877(15)
C5 C 0.85713(18) 0.1779(3) 0.09910(15)
H3 H 0.8661 0.1909 0.1453
C6 C 0.79875(18) 0.0810(3) 0.06288(15)
H4 H 0.7698 0.0263 0.0854
C7 C 0.66328(18) -0.0112(3) -0.11948(14)
C8 C 0.65926(18) -0.1075(3) -0.17238(16)
C9 C 0.61005(19) -0.0758(3) -0.23669(16)
H5 H 0.6092 -0.1408 -0.2715
C10 C 0.56216(19) 0.0461(4) -0.25236(15)
C11 C 0.56648(18) 0.1409(3) -0.20097(16)
H6 H 0.5338 0.2254 -0.2106
C12 C 0.61663(19) 0.1175(3) -0.13587(15)
C13 C 0.6165(2) 0.2283(3) -0.08346(16)
H7 H 0.5632 0.2744 -0.0957
H8 H 0.6578 0.3018 -0.0807
H9 H 0.6285 0.1805 -0.0402
C14 C 0.5059(2) 0.0751(4) -0.32229(16)
H10 H 0.5222 0.0162 -0.3539
H11 H 0.5085 0.1776 -0.3329
H12 H 0.4504 0.0503 -0.3254
C15 C 0.7095(2) -0.2434(3) -0.15958(16)
H13 H 0.7011 -0.2942 -0.2018
H14 H 0.6933 -0.3061 -0.1291
H15 H 0.7668 -0.2182 -0.1396
C16 C 0.70016(18) -0.1896(3) -0.01127(14)
C17 C 0.62216(19) -0.2270(3) -0.01114(14)
C18 C 0.60917(19) -0.3547(3) 0.01800(14)
H16 H 0.5562 -0.3757 0.0183
C19 C 0.6709(2) -0.4529(3) 0.04668(14)
C20 C 0.7479(2) -0.4160(3) 0.04704(15)
H17 H 0.7915 -0.4806 0.0669
C21 C 0.76355(19) -0.2876(3) 0.01930(15)
C22 C 0.85010(19) -0.2607(4) 0.02266(17)
H18 H 0.8804 -0.3517 0.0322
H19 H 0.8753 -0.1909 0.0581
H20 H 0.8506 -0.2222 -0.0201
C23 C 0.55026(18) -0.1282(3) -0.04062(16)
H21 H 0.5025 -0.1697 -0.0332
H22 H 0.5398 -0.1176 -0.0886
H23 H 0.5619 -0.0332 -0.0192
C24 C 0.6548(2) -0.5908(3) 0.07760(16)
H24 H 0.6047 -0.6348 0.0484
H25 H 0.6492 -0.5696 0.1210
H26 H 0.7000 -0.6578 0.0836
C25 C 0.96744(18) 0.3558(3) 0.10736(15)
C26 C 0.96226(19) 0.4281(3) 0.16282(16)
H27 H 0.9169 0.4145 0.1773
C27 C 1.0243(2) 0.5204(3) 0.19674(16)
H28 H 1.0217 0.5723 0.2345
C28 C 1.08947(19) 0.5365(3) 0.17549(16)
C29 C 1.09043(18) 0.4615(3) 0.11982(15)
H29 H 1.1357 0.4732 0.1051
C30 C 1.22909(19) 0.5635(3) 0.24932(14)
C31 C 1.22649(19) 0.4477(3) 0.29009(14)
H30 H 1.1759 0.4121 0.2907
C32 C 1.2976(2) 0.3844(3) 0.32980(15)
H31 H 1.2956 0.3045 0.3572
C33 C 1.3712(2) 0.4358(3) 0.32997(16)
H32 H 1.4198 0.3938 0.3584
C34 C 1.3740(2) 0.5493(4) 0.28838(16)
H33 H 1.4247 0.5836 0.2876
C35 C 1.3034(2) 0.6128(3) 0.24809(15)
H34 H 1.3056 0.6903 0.2195
C36 C 1.14224(18) 0.7800(3) 0.20737(15)
C37 C 1.07620(19) 0.8417(3) 0.15936(15)
H35 H 1.0389 0.7813 0.1276
C38 C 1.0635(2) 0.9891(4) 0.15679(17)
H36 H 1.0178 1.0290 0.1234
C39 C 1.1167(2) 1.0787(4) 0.20234(18)
H37 H 1.1081 1.1802 0.2007
C40 C 1.1824(2) 1.0192(4) 0.25028(17)
H38 H 1.2194 1.0802 0.2819
C41 C 1.19545(19) 0.8719(3) 0.25302(15)
H39 H 1.2413 0.8329 0.2865
loop_
_geom_bond_atom_site_label_1
_geom_bond_atom_site_label_2
_geom_bond_site_symmetry_1
_geom_bond_site_symmetry_2
B1 C1 1_555 1_555
N1 C25 1_555 1_555
N2 C28 1_555 1_555
C1 C2 1_555 1_555
C2 H1 1_555 1_555
C3 C2 1_555 1_555
H2 C3 1_555 1_555
C4 C3 1_555 1_555
C5 C4 1_555 1_555
H3 C5 1_555 1_555
C6 C1 1_555 1_555
H4 C6 1_555 1_555
C7 B1 1_555 1_555
C8 C7 1_555 1_555
C9 C8 1_555 1_555
H5 C9 1_555 1_555
C10 C9 1_555 1_555
C11 C10 1_555 1_555
H6 C11 1_555 1_555
C12 C7 1_555 1_555
C13 C12 1_555 1_555
H7 C13 1_555 1_555
H8 C13 1_555 1_555
H9 C13 1_555 1_555
C14 C10 1_555 1_555
H10 C14 1_555 1_555
H11 C14 1_555 1_555
H12 C14 1_555 1_555
C15 C8 1_555 1_555
H13 C15 1_555 1_555
H14 C15 1_555 1_555
H15 C15 1_555 1_555
C16 B1 1_555 1_555
C17 C16 1_555 1_555
C18 C17 1_555 1_555
H16 C18 1_555 1_555
C19 C18 1_555 1_555
C20 C19 1_555 1_555
H17 C20 1_555 1_555
C21 C16 1_555 1_555
C22 C21 1_555 1_555
H18 C22 1_555 1_555
H19 C22 1_555 1_555
H20 C22 1_555 1_555
C23 C17 1_555 1_555
H21 C23 1_555 1_555
H22 C23 1_555 1_555
H23 C23 1_555 1_555
C24 C19 1_555 1_555
H24 C24 1_555 1_555
H25 C24 1_555 1_555
H26 C24 1_555 1_555
C25 C4 1_555 1_555
C26 C25 1_555 1_555
H27 C26 1_555 1_555
C27 C26 1_555 1_555
H28 C27 1_555 1_555
C28 C27 1_555 1_555
C29 N1 1_555 1_555
H29 C29 1_555 1_555
C30 N2 1_555 1_555
C31 C30 1_555 1_555
H30 C31 1_555 1_555
C32 C31 1_555 1_555
H31 C32 1_555 1_555
C33 C32 1_555 1_555
H32 C33 1_555 1_555
C34 C33 1_555 1_555
H33 C34 1_555 1_555
C35 C30 1_555 1_555
H34 C35 1_555 1_555
C36 N2 1_555 1_555
C37 C36 1_555 1_555
H35 C37 1_555 1_555
C38 C37 1_555 1_555
H36 C38 1_555 1_555
C39 C38 1_555 1_555
H37 C39 1_555 1_555
C40 C39 1_555 1_555
H38 C40 1_555 1_555
C41 C36 1_555 1_555
H39 C41 1_555 1_555
C5 C6 1_555 1_555
C11 C12 1_555 1_555
C20 C21 1_555 1_555
C28 C29 1_555 1_555
C34 C35 1_555 1_555
C40 C41 1_555 1_555

#END
