
#######################################################################
#
#                 Cambridge Crystallographic Data Centre
#                                CCDC 
#
#######################################################################
#
# If this CIF has been generated from an entry in the Cambridge 
# Structural Database, then it will include bibliographic, chemical, 
# crystal, experimental, refinement or atomic coordinate data resulting 
# from the CCDC's data processing and validation procedures.
#
#######################################################################

data_MOGXOX
_chemical_formula_moiety         'C32 H24 N6 O8 S2,2(C1 H2 Cl2)'
_chemical_name_systematic        
"1,1'-bis((2-Nitrophenyl)sulfonyl)-2,2',3,3'-tetrahydro-1H,1'H-3a,3a'-bipyrrolo[2,3-b]indole dichloromethane solvate"
_symmetry_cell_setting           triclinic
_symmetry_space_group_name_H-M   'P -1'
_symmetry_Int_Tables_number      2
_space_group_name_Hall           '-P 1'
loop_
_symmetry_equiv_pos_site_id
_symmetry_equiv_pos_as_xyz
1 x,y,z
2 -x,-y,-z
_cell_length_a                   11.2563(3)
_cell_length_b                   13.0650(3)
_cell_length_c                   14.4176(4)
_cell_angle_alpha                87.383(2)
_cell_angle_beta                 69.786(2)
_cell_angle_gamma                66.9080(10)
_cell_volume                     1820.34
_exptl_crystal_colour            colorless
_exptl_crystal_description       plate
_cell_formula_units_Z            2
loop_
_atom_site_label
_atom_site_type_symbol
_atom_site_fract_x
_atom_site_fract_y
_atom_site_fract_z
S1 S 1.02690(6) 0.24270(5) 0.35206(4)
S2 S 0.47542(6) 0.76209(5) 0.14519(4)
N1 N 0.9092(2) 0.36093(16) 0.34177(16)
N2 N 0.7431(2) 0.30119(18) 0.31615(16)
N3 N 0.5972(2) 0.64594(17) 0.15354(16)
N4 N 0.7640(2) 0.70727(17) 0.17755(17)
N5 N 1.0662(2) 0.26309(19) 0.55787(17)
N6 N 0.4138(2) 0.72821(19) -0.05198(18)
O1 O 1.13664(18) 0.26765(15) 0.35776(14)
O2 O 1.05082(18) 0.16390(15) 0.27530(13)
O3 O 0.35979(18) 0.73737(15) 0.15276(14)
O4 O 0.46177(18) 0.84462(14) 0.21461(13)
O5 O 1.0143(2) 0.36453(16) 0.55964(16)
O6 O 1.1774(2) 0.20951(19) 0.56659(18)
O7 O 0.4611(2) 0.62955(17) -0.03817(17)
O8 O 0.3083(2) 0.77402(19) -0.07113(19)
C1 C 0.7980(3) 0.3708(2) 0.31517(18)
C2 C 0.8840(3) 0.4723(2) 0.3874(2)
H1 H 0.9572 0.4978 0.3489
H2 H 0.8803 0.4683 0.4570
C3 C 0.7414(3) 0.5518(2) 0.38235(19)
H3 H 0.6668 0.5641 0.4477
H4 H 0.7422 0.6250 0.3622
C4 C 0.7202(3) 0.4916(2) 0.30414(19)
C5 C 0.5814(3) 0.4863(2) 0.32274(19)
C6 C 0.6065(3) 0.3719(2) 0.31852(19)
C7 C 0.5026(3) 0.3364(2) 0.3265(2)
H5 H 0.5204 0.2590 0.3228
C8 C 0.3712(3) 0.4178(3) 0.3400(2)
H6 H 0.2990 0.3957 0.3433
C9 C 0.3443(3) 0.5313(3) 0.3486(2)
H7 H 0.2533 0.5852 0.3599
C10 C 0.4489(3) 0.5671(2) 0.3411(2)
H8 H 0.4298 0.6445 0.3482
C11 C 0.9518(2) 0.19600(19) 0.46612(19)
C12 C 0.8666(3) 0.1421(2) 0.4680(2)
H9 H 0.8435 0.1374 0.4114
C13 C 0.8151(3) 0.0952(2) 0.5530(2)
H10 H 0.7546 0.0604 0.5548
C14 C 0.8510(3) 0.0985(2) 0.6352(2)
H11 H 0.8173 0.0643 0.6922
C15 C 0.9364(3) 0.1520(2) 0.6339(2)
H12 H 0.9620 0.1545 0.6898
C16 C 0.9835(3) 0.2014(2) 0.5508(2)
C17 C 0.7088(3) 0.6371(2) 0.17940(18)
C18 C 0.6234(3) 0.5338(2) 0.10956(19)
H13 H 0.6256 0.5368 0.0403
H14 H 0.5510 0.5079 0.1491
C19 C 0.7658(3) 0.4559(2) 0.11333(19)
H15 H 0.8395 0.4444 0.0476
H16 H 0.7663 0.3822 0.1332
C20 C 0.7876(2) 0.51646(19) 0.19164(18)
C21 C 0.9255(3) 0.5225(2) 0.17352(19)
C22 C 1.0567(3) 0.4422(2) 0.1566(2)
H17 H 1.0761 0.3648 0.1486
C23 C 1.1607(3) 0.4782(2) 0.1514(2)
H18 H 1.2512 0.4242 0.1418
C24 C 1.1341(3) 0.5910(3) 0.1600(2)
H19 H 1.2061 0.6130 0.1577
C25 C 1.0028(3) 0.6728(2) 0.1721(2)
H20 H 0.9847 0.7502 0.1764
C26 C 0.9001(3) 0.6368(2) 0.17773(19)
C27 C 0.5380(2) 0.8023(2) 0.02472(19)
C28 C 0.6266(3) 0.8567(2) 0.0116(2)
H21 H 0.6585 0.8632 0.0631
C29 C 0.6680(3) 0.9012(2) -0.0775(2)
H22 H 0.7302 0.9365 -0.0870
C30 C 0.6204(3) 0.8948(2) -0.1521(2)
H23 H 0.6479 0.9273 -0.2119
C31 C 0.5323(3) 0.8411(2) -0.1401(2)
H24 H 0.4982 0.8368 -0.1909
C32 C 0.4949(3) 0.7939(2) -0.0528(2)
C33 C 0.0413(3) 0.9135(2) 0.8831(2)
H25 H 0.1101 0.9276 0.9026
H26 H 0.0900 0.8694 0.8171
Cl1 Cl -0.08620(7) 1.04269(5) 0.87464(5)
Cl2 Cl -0.03135(7) 0.83540(6) 0.97071(6)
C34 C 0.3965(3) 0.0558(2) 0.6647(2)
H27 H 0.3993 0.1018 0.7160
H28 H 0.3726 0.1045 0.6135
Cl3 Cl 0.56066(7) -0.05391(6) 0.60947(5)
Cl4 Cl 0.26902(8) 0.00341(8) 0.71943(9)
loop_
_geom_bond_atom_site_label_1
_geom_bond_atom_site_label_2
_geom_bond_site_symmetry_1
_geom_bond_site_symmetry_2
S1 N1 1_555 1_555
S2 N3 1_555 1_555
N1 C1 1_555 1_555
N2 C1 1_555 1_555
N3 C17 1_555 1_555
N4 C17 1_555 1_555
N5 O5 1_555 1_555
N6 O7 1_555 1_555
O1 S1 1_555 1_555
O2 S1 1_555 1_555
O3 S2 1_555 1_555
O4 S2 1_555 1_555
O6 N5 1_555 1_555
O8 N6 1_555 1_555
C1 C4 1_555 1_555
C2 N1 1_555 1_555
H1 C2 1_555 1_555
H2 C2 1_555 1_555
C3 C2 1_555 1_555
H3 C3 1_555 1_555
H4 C3 1_555 1_555
C4 C3 1_555 1_555
C5 C4 1_555 1_555
C6 N2 1_555 1_555
C7 C6 1_555 1_555
H5 C7 1_555 1_555
C8 C7 1_555 1_555
H6 C8 1_555 1_555
C9 C8 1_555 1_555
H7 C9 1_555 1_555
C10 C5 1_555 1_555
H8 C10 1_555 1_555
C11 S1 1_555 1_555
C12 C11 1_555 1_555
H9 C12 1_555 1_555
C13 C12 1_555 1_555
H10 C13 1_555 1_555
C14 C13 1_555 1_555
H11 C14 1_555 1_555
C15 C14 1_555 1_555
H12 C15 1_555 1_555
C16 N5 1_555 1_555
C17 C20 1_555 1_555
C18 N3 1_555 1_555
H13 C18 1_555 1_555
H14 C18 1_555 1_555
C19 C18 1_555 1_555
H15 C19 1_555 1_555
H16 C19 1_555 1_555
C20 C4 1_555 1_555
C21 C20 1_555 1_555
C22 C21 1_555 1_555
H17 C22 1_555 1_555
C23 C22 1_555 1_555
H18 C23 1_555 1_555
C24 C23 1_555 1_555
H19 C24 1_555 1_555
C25 C24 1_555 1_555
H20 C25 1_555 1_555
C26 N4 1_555 1_555
C27 S2 1_555 1_555
C28 C27 1_555 1_555
H21 C28 1_555 1_555
C29 C28 1_555 1_555
H22 C29 1_555 1_555
C30 C29 1_555 1_555
H23 C30 1_555 1_555
C31 C30 1_555 1_555
H24 C31 1_555 1_555
C32 N6 1_555 1_555
C33 H25 1_555 1_555
H26 C33 1_555 1_555
Cl1 C33 1_555 1_555
Cl2 C33 1_555 1_555
C34 H27 1_555 1_555
H28 C34 1_555 1_555
Cl3 C34 1_555 1_555
Cl4 C34 1_555 1_555
C5 C6 1_555 1_555
C9 C10 1_555 1_555
C11 C16 1_555 1_555
C15 C16 1_555 1_555
C19 C20 1_555 1_555
C21 C26 1_555 1_555
C25 C26 1_555 1_555
C27 C32 1_555 1_555
C31 C32 1_555 1_555

#END
