
#######################################################################
#
#                 Cambridge Crystallographic Data Centre
#                                CCDC 
#
#######################################################################
#
# If this CIF has been generated from an entry in the Cambridge 
# Structural Database, then it will include bibliographic, chemical, 
# crystal, experimental, refinement or atomic coordinate data resulting 
# from the CCDC's data processing and validation procedures.
#
#######################################################################

data_MOGYEN
_chemical_formula_moiety         'C5 H6 N2 O4'
_chemical_name_systematic        bis(Diformylamino)methane
_symmetry_cell_setting           orthorhombic
_symmetry_space_group_name_H-M   'P b c a'
_symmetry_Int_Tables_number      61
_space_group_name_Hall           '-P 2ac 2ab'
loop_
_symmetry_equiv_pos_site_id
_symmetry_equiv_pos_as_xyz
1 x,y,z
2 1/2-x,-y,1/2+z
3 -x,1/2+y,1/2-z
4 1/2+x,1/2-y,-z
5 -x,-y,-z
6 1/2+x,y,1/2-z
7 x,1/2-y,1/2+z
8 1/2-x,1/2+y,z
_cell_length_a                   9.8676(6)
_cell_length_b                   7.9334(3)
_cell_length_c                   16.6490(10)
_cell_angle_alpha                90
_cell_angle_beta                 90
_cell_angle_gamma                90
_cell_volume                     1303.34
_exptl_crystal_colour            colorless
_exptl_crystal_description       prism
_chemical_melting_point          '138-140 deg.C'
_cell_formula_units_Z            8
_exptl_crystal_recrystallization_method benzene
loop_
_atom_site_label
_atom_site_type_symbol
_atom_site_fract_x
_atom_site_fract_y
_atom_site_fract_z
O1 O 0.19728(12) 0.41769(16) 0.84577(7)
O2 O -0.05424(13) 0.18859(16) 1.04771(7)
O3 O -0.22275(12) 0.37505(15) 0.90813(7)
O4 O 0.05854(12) 0.15356(16) 0.71845(7)
N1 N 0.06617(13) 0.28737(16) 0.93989(7)
N2 N -0.07424(13) 0.25471(16) 0.82059(7)
C1 C 0.16388(16) 0.4010(2) 0.91513(10)
H1 H 0.2019(18) 0.468(2) 0.9588(11)
C2 C 0.03112(17) 0.2807(2) 1.02093(9)
H2 H 0.0802(17) 0.362(2) 1.0525(10)
C3 C -0.18691(16) 0.3503(2) 0.83969(10)
H3 H -0.2311(18) 0.397(2) 0.7917(11)
C4 C -0.03715(17) 0.2363(2) 0.74026(9)
H4 H -0.0968(18) 0.299(2) 0.7035(10)
C5 C 0.00419(17) 0.1702(2) 0.88293(9)
H5 H -0.0523(18) 0.100(2) 0.9120(11)
H6 H 0.0741(19) 0.108(2) 0.8567(11)
loop_
_geom_bond_atom_site_label_1
_geom_bond_atom_site_label_2
_geom_bond_site_symmetry_1
_geom_bond_site_symmetry_2
O1 C1 1_555 1_555
O2 C2 1_555 1_555
O3 C3 1_555 1_555
O4 C4 1_555 1_555
N1 C1 1_555 1_555
N2 C3 1_555 1_555
C1 H1 1_555 1_555
C2 N1 1_555 1_555
H2 C2 1_555 1_555
C3 H3 1_555 1_555
C4 N2 1_555 1_555
H4 C4 1_555 1_555
C5 N1 1_555 1_555
H5 C5 1_555 1_555
H6 C5 1_555 1_555
N2 C5 1_555 1_555

#END
