
#######################################################################
#
#                 Cambridge Crystallographic Data Centre
#                                CCDC 
#
#######################################################################
#
# If this CIF has been generated from an entry in the Cambridge 
# Structural Database, then it will include bibliographic, chemical, 
# crystal, experimental, refinement or atomic coordinate data resulting 
# from the CCDC's data processing and validation procedures.
#
#######################################################################

data_MOJBIY
_chemical_formula_moiety         'C22 H16 F2 N2 O3,C3 H7 N1 O1'
_chemical_name_systematic        
'(5RS,6SR)-6-(4-Fluorobenzoyl)-5-(4-fluorophenyl)-2-(4-hydroxyphenyl)-5,6-dihydro-4H-1,3,4-oxadiazine N,N-dimethylformamide solvate'
_symmetry_cell_setting           monoclinic
_symmetry_space_group_name_H-M   'P 21/c'
_symmetry_Int_Tables_number      14
_space_group_name_Hall           '-P 2ybc'
loop_
_symmetry_equiv_pos_site_id
_symmetry_equiv_pos_as_xyz
1 x,y,z
2 -x,1/2+y,1/2-z
3 -x,-y,-z
4 x,1/2-y,1/2+z
_cell_length_a                   17.5182(7)
_cell_length_b                   7.4306(3)
_cell_length_c                   17.5595(7)
_cell_angle_alpha                90
_cell_angle_beta                 101.252(4)
_cell_angle_gamma                90
_cell_volume                     2241.8
_exptl_crystal_colour            colorless
_exptl_crystal_description       block
_cell_formula_units_Z            4
loop_
_atom_site_label
_atom_site_type_symbol
_atom_site_fract_x
_atom_site_fract_y
_atom_site_fract_z
O1 O 0.54057(6) 0.09857(15) 0.38825(6)
C1 C 0.56472(8) 0.18855(19) 0.45613(7)
N1 N 0.52360(7) 0.29026(18) 0.49027(7)
N2 N 0.44462(7) 0.31235(18) 0.45558(7)
H1 H 0.4317 0.4237 0.4702
C2 C 0.43087(8) 0.3059(2) 0.37062(8)
H2 H 0.4614 0.4033 0.3511
C3 C 0.46110(8) 0.1210(2) 0.35015(8)
H3 H 0.4283 0.0227 0.3657
C4 C 0.64783(8) 0.15928(19) 0.48957(8)
C5 C 0.69582(9) 0.0605(2) 0.45070(8)
H4 H 0.6746 0.0074 0.4020
C6 C 0.77445(9) 0.0384(2) 0.48228(9)
H5 H 0.8065 -0.0300 0.4553
C7 C 0.80613(9) 0.1164(2) 0.55345(9)
C8 C 0.75867(9) 0.2159(2) 0.59270(9)
H6 H 0.7801 0.2699 0.6412
C9 C 0.68056(9) 0.2364(2) 0.56129(8)
H7 H 0.6485 0.3037 0.5887
O2 O 0.88326(7) 0.08818(18) 0.58294(7)
H8 H 0.8950 0.1192 0.6346
C10 C 0.34530(8) 0.33191(19) 0.33759(8)
C11 C 0.28957(9) 0.2422(2) 0.36982(8)
H9 H 0.3053 0.1717 0.4153
C12 C 0.21092(9) 0.2545(2) 0.33622(10)
H10 H 0.1726 0.1950 0.3585
C13 C 0.19040(9) 0.3556(2) 0.26975(10)
F1 F 0.11395(6) 0.36116(18) 0.23453(7)
C14 C 0.24334(9) 0.4505(2) 0.23741(9)
H11 H 0.2269 0.5222 0.1924
C15 C 0.32151(8) 0.4392(2) 0.27214(8)
H12 H 0.3591 0.5050 0.2511
C16 C 0.46022(8) 0.1118(2) 0.26265(8)
O3 O 0.51715(6) 0.16080(18) 0.23857(6)
C17 C 0.38685(8) 0.0600(2) 0.20898(8)
C18 C 0.32639(9) -0.0316(2) 0.23270(8)
H13 H 0.3330 -0.0742 0.2846
C19 C 0.25645(9) -0.0616(2) 0.18153(9)
H14 H 0.2149 -0.1236 0.1976
C20 C 0.24931(9) 0.0011(2) 0.10688(9)
F2 F 0.18020(6) -0.02128(17) 0.05734(6)
C21 C 0.30860(10) 0.0869(2) 0.08015(8)
H15 H 0.3021 0.1247 0.0276
C22 C 0.37782(9) 0.1169(2) 0.13173(8)
H16 H 0.4195 0.1764 0.1147
N3 N 0.9875(6) 0.1371(15) 0.8529(7)
C23 C 0.958(4) 0.086(5) 0.7803(9)
H17 H 0.9828 -0.0221 0.7554
O4 O 0.918(3) 0.183(5) 0.7321(12)
C24 C 1.0460(5) 0.0279(13) 0.9027(4)
H18 H 1.0704 -0.0535 0.8706
H19 H 1.0212 -0.0428 0.9382
H20 H 1.0857 0.1065 0.9327
C25 C 0.9538(14) 0.289(2) 0.8875(13)
H21 H 0.9175 0.3534 0.8470
H22 H 0.9955 0.3711 0.9115
H23 H 0.9259 0.2452 0.9270
N4? N 0.9715(9) 0.1101(19) 0.8507(9)
C26? C 0.956(5) 0.100(7) 0.7733(12)
H24? H 0.9828 -0.0020 0.7554
O5? O 0.914(4) 0.204(7) 0.7313(15)
C27? C 1.0095(6) -0.0389(17) 0.8974(5)
H25? H 0.9737 -0.0904 0.9280
H26? H 1.0563 0.0050 0.9323
H27? H 1.0240 -0.1316 0.8631
C28? C 0.9660(18) 0.283(2) 0.8891(17)
H28? H 1.0183 0.3255 0.9121
H29? H 0.9356 0.2680 0.9300
H30? H 0.9403 0.3708 0.8510
loop_
_geom_bond_atom_site_label_1
_geom_bond_atom_site_label_2
_geom_bond_site_symmetry_1
_geom_bond_site_symmetry_2
O1 C1 1_555 1_555
C1 N1 1_555 1_555
N1 N2 1_555 1_555
N2 H1 1_555 1_555
C2 N2 1_555 1_555
H2 C2 1_555 1_555
C3 O1 1_555 1_555
H3 C3 1_555 1_555
C4 C1 1_555 1_555
C5 C4 1_555 1_555
H4 C5 1_555 1_555
C6 C5 1_555 1_555
H5 C6 1_555 1_555
C7 C6 1_555 1_555
C8 C7 1_555 1_555
H6 C8 1_555 1_555
C9 C4 1_555 1_555
H7 C9 1_555 1_555
O2 C7 1_555 1_555
H8 O2 1_555 1_555
C10 C2 1_555 1_555
C11 C10 1_555 1_555
H9 C11 1_555 1_555
C12 C11 1_555 1_555
H10 C12 1_555 1_555
C13 C12 1_555 1_555
F1 C13 1_555 1_555
C14 C13 1_555 1_555
H11 C14 1_555 1_555
C15 C10 1_555 1_555
H12 C15 1_555 1_555
C16 C3 1_555 1_555
O3 C16 1_555 1_555
C17 C16 1_555 1_555
C18 C17 1_555 1_555
H13 C18 1_555 1_555
C19 C18 1_555 1_555
H14 C19 1_555 1_555
C20 C19 1_555 1_555
F2 C20 1_555 1_555
C21 C20 1_555 1_555
H15 C21 1_555 1_555
C22 C17 1_555 1_555
H16 C22 1_555 1_555
N3 C23 1_555 1_555
C23 H17 1_555 1_555
O4 C23 1_555 1_555
C24 N3 1_555 1_555
H18 C24 1_555 1_555
H19 C24 1_555 1_555
H20 C24 1_555 1_555
C25 N3 1_555 1_555
H21 C25 1_555 1_555
H22 C25 1_555 1_555
H23 C25 1_555 1_555
C2 C3 1_555 1_555
C8 C9 1_555 1_555
C14 C15 1_555 1_555
C21 C22 1_555 1_555

#END
