
#######################################################################
#
#                 Cambridge Crystallographic Data Centre
#                                CCDC 
#
#######################################################################
#
# If this CIF has been generated from an entry in the Cambridge 
# Structural Database, then it will include bibliographic, chemical, 
# crystal, experimental, refinement or atomic coordinate data resulting 
# from the CCDC's data processing and validation procedures.
#
#######################################################################

data_MOKJAY
_chemical_formula_moiety         'C17 H17 N3 O2'
_chemical_name_systematic        
3-(2-Hydroxyethyl)-2-(p-tolylamino)quinazolin-4(3H)-one
_symmetry_cell_setting           monoclinic
_symmetry_space_group_name_H-M   'P 21/n'
_symmetry_Int_Tables_number      14
_space_group_name_Hall           '-P 2yn'
loop_
_symmetry_equiv_pos_site_id
_symmetry_equiv_pos_as_xyz
1 x,y,z
2 1/2-x,1/2+y,1/2-z
3 -x,-y,-z
4 1/2+x,1/2-y,1/2+z
_cell_length_a                   7.8589(2)
_cell_length_b                   19.1706(5)
_cell_length_c                   10.6696(3)
_cell_angle_alpha                90
_cell_angle_beta                 111.082(3)
_cell_angle_gamma                90
_cell_volume                     1499.89
_exptl_crystal_colour            colorless
_exptl_crystal_description       block
_cell_formula_units_Z            4
_exptl_crystal_recrystallization_method methanol/dichloromethane
loop_
_atom_site_label
_atom_site_type_symbol
_atom_site_fract_x
_atom_site_fract_y
_atom_site_fract_z
C1 C 0.713(2) 0.6964(7) 0.4651(16)
H1 H 0.5917 0.6810 0.4512
H2 H 0.7975 0.6738 0.5432
H3 H 0.7434 0.6846 0.3881
C2 C 0.7255(16) 0.7741(6) 0.4853(13)
C3 C 0.6939(17) 0.8197(6) 0.3785(13)
H4 H 0.6602 0.8019 0.2918
C4 C 0.7113(16) 0.8908(6) 0.3978(11)
H5 H 0.6892 0.9202 0.3243
C5 C 0.7611(14) 0.9190(5) 0.5253(11)
C6 C 0.7883(15) 0.8745(6) 0.6330(12)
H6 H 0.8185 0.8924 0.7193
C7 C 0.7703(16) 0.8033(6) 0.6116(13)
H7 H 0.7891 0.7740 0.6848
C8 C 0.8785(14) 1.0302(5) 0.6438(11)
C9 C 0.9600(16) 1.1474(6) 0.7315(11)
C10 C 1.0902(15) 1.1136(6) 0.8487(11)
C11 C 1.1021(15) 1.0410(6) 0.8529(11)
C12 C 1.2277(17) 1.0094(7) 0.9662(12)
H8 H 1.2365 0.9610 0.9711
C13 C 1.3379(19) 1.0490(8) 1.0699(13)
H9 H 1.4213 1.0272 1.1448
C14 C 1.3277(19) 1.1213(7) 1.0656(12)
H10 H 1.4040 1.1478 1.1366
C15 C 1.2045(18) 1.1529(7) 0.9560(12)
H11 H 1.1965 1.2013 0.9528
C16 C 0.7068(16) 1.1345(6) 0.5175(11)
H12 H 0.6734 1.1787 0.5463
H13 H 0.5999 1.1047 0.4912
C17 C 0.7589(16) 1.1470(6) 0.3967(11)
H14 H 0.6786 1.1817 0.3390
H15 H 0.8828 1.1645 0.4253
N1 N 0.7697(13) 0.9925(5) 0.5361(9)
H16 H 0.737(16) 1.015(6) 0.461(9)
N2 N 0.8506(12) 1.1022(4) 0.6320(9)
N3 N 0.9966(12) 0.9998(5) 0.7464(9)
O1 O 0.7451(12) 1.0832(4) 0.3238(8)
H17 H 0.84(2) 1.074(7) 0.306(15)
O2 O 0.9394(12) 1.2106(4) 0.7163(9)
loop_
_geom_bond_atom_site_label_1
_geom_bond_atom_site_label_2
_geom_bond_site_symmetry_1
_geom_bond_site_symmetry_2
C1 H1 1_555 1_555
H2 C1 1_555 1_555
H3 C1 1_555 1_555
C2 C1 1_555 1_555
C3 C2 1_555 1_555
H4 C3 1_555 1_555
C4 C3 1_555 1_555
H5 C4 1_555 1_555
C5 C4 1_555 1_555
C6 C5 1_555 1_555
H6 C6 1_555 1_555
C7 C2 1_555 1_555
H7 C7 1_555 1_555
C8 N1 1_555 1_555
C9 C10 1_555 1_555
C10 C11 1_555 1_555
C11 C12 1_555 1_555
C12 H8 1_555 1_555
C13 C12 1_555 1_555
H9 C13 1_555 1_555
C14 C13 1_555 1_555
H10 C14 1_555 1_555
C15 C10 1_555 1_555
H11 C15 1_555 1_555
C16 H12 1_555 1_555
H13 C16 1_555 1_555
C17 C16 1_555 1_555
H14 C17 1_555 1_555
H15 C17 1_555 1_555
N1 C5 1_555 1_555
H16 N1 1_555 1_555
N2 C8 1_555 1_555
N3 C8 1_555 1_555
O1 C17 1_555 1_555
H17 O1 1_555 1_555
O2 C9 1_555 1_555
C6 C7 1_555 1_555
C9 N2 1_555 1_555
C11 N3 1_555 1_555
C14 C15 1_555 1_555
C16 N2 1_555 1_555

#END
