
#######################################################################
#
#                 Cambridge Crystallographic Data Centre
#                                CCDC 
#
#######################################################################
#
# If this CIF has been generated from an entry in the Cambridge 
# Structural Database, then it will include bibliographic, chemical, 
# crystal, experimental, refinement or atomic coordinate data resulting 
# from the CCDC's data processing and validation procedures.
#
#######################################################################

data_MOKNIJ
_chemical_formula_moiety         'C29 H17 Cl1'
_chemical_name_systematic        
1-(2,2'-Biphenyl)-7-chloro-2-phenyl-1H-cyclobut[a]indene
_symmetry_cell_setting           monoclinic
_symmetry_space_group_name_H-M   'P 21/n'
_symmetry_Int_Tables_number      14
_space_group_name_Hall           '-P 2yn'
loop_
_symmetry_equiv_pos_site_id
_symmetry_equiv_pos_as_xyz
1 x,y,z
2 1/2-x,1/2+y,1/2-z
3 -x,-y,-z
4 1/2+x,1/2-y,1/2+z
_cell_length_a                   10.387(1)
_cell_length_b                   13.242(1)
_cell_length_c                   15.218(2)
_cell_angle_alpha                90
_cell_angle_beta                 99.564(9)
_cell_angle_gamma                90
_cell_volume                     2064.06
_exptl_crystal_colour            'light yellow'
_chemical_melting_point          183-184deg.C
_cell_formula_units_Z            4
loop_
_atom_site_label
_atom_site_type_symbol
_atom_site_fract_x
_atom_site_fract_y
_atom_site_fract_z
Cl1 Cl 0.1317(1) 0.2204(1) 0.6413(1)
C1 C -0.1583(2) 0.3904(2) 0.6910(1)
C2 C -0.1135(2) 0.3052(2) 0.6340(1)
C3 C -0.0318(2) 0.2414(2) 0.6034(1)
C4 C -0.1051(2) 0.1908(2) 0.5238(1)
C5 C -0.0649(2) 0.1211(2) 0.4666(2)
C6 C -0.1535(3) 0.0896(2) 0.3935(2)
C7 C -0.2797(3) 0.1262(2) 0.3770(2)
C8 C -0.3224(2) 0.1959(2) 0.4340(1)
C9 C -0.2357(2) 0.2284(2) 0.5074(1)
C10 C -0.2400(2) 0.3017(2) 0.5789(1)
C11 C -0.2905(2) 0.3761(2) 0.6250(1)
C12 C -0.4151(2) 0.4248(2) 0.6235(1)
C13 C -0.5256(2) 0.3895(2) 0.5674(2)
C14 C -0.6446(2) 0.4356(2) 0.5674(2)
C15 C -0.6549(3) 0.5169(2) 0.6216(2)
C16 C -0.5468(3) 0.5532(2) 0.6760(2)
C17 C -0.4273(2) 0.5072(2) 0.6778(2)
C18 C -0.1666(2) 0.3751(2) 0.7885(1)
C19 C -0.2176(2) 0.2945(2) 0.8293(2)
C20 C -0.2275(2) 0.3032(2) 0.9188(2)
C21 C -0.1898(2) 0.3894(2) 0.9654(2)
C22 C -0.1380(2) 0.4694(2) 0.9260(1)
C23 C -0.1248(2) 0.4619(2) 0.8370(1)
C24 C -0.0737(2) 0.5332(2) 0.7777(2)
C25 C -0.0144(2) 0.6270(2) 0.7948(2)
C26 C 0.0290(3) 0.6767(2) 0.7264(3)
C27 C 0.0138(3) 0.6357(2) 0.6421(3)
C28 C -0.0475(2) 0.5427(2) 0.6234(2)
C29 C -0.0910(2) 0.4919(2) 0.6922(1)
H1 H 0.0199(2) 0.0959(2) 0.4769(2)
H2 H -0.1274(3) 0.0426(2) 0.3545(2)
H3 H -0.3368(3) 0.1039(2) 0.3272(2)
H4 H -0.4075(2) 0.2201(2) 0.4230(1)
H5 H -0.5191(2) 0.3348(2) 0.5300(2)
H6 H -0.7184(2) 0.4114(2) 0.5304(2)
H7 H -0.7356(3) 0.5475(2) 0.6214(2)
H8 H -0.5539(3) 0.6091(2) 0.7119(2)
H9 H -0.3545(2) 0.5316(2) 0.7158(2)
H10 H -0.2444(2) 0.2361(2) 0.7975(2)
H11 H -0.2605(2) 0.2495(2) 0.9475(2)
H12 H -0.1994(2) 0.3939(2) 1.0249(2)
H13 H -0.1122(2) 0.5276(2) 0.9584(1)
H14 H -0.0044(2) 0.6554(2) 0.8515(2)
H15 H 0.0694(3) 0.7392(2) 0.7371(3)
H16 H 0.0449(3) 0.6707(2) 0.5970(3)
H17 H -0.0589(2) 0.5156(2) 0.5662(2)
loop_
_geom_bond_atom_site_label_1
_geom_bond_atom_site_label_2
_geom_bond_site_symmetry_1
_geom_bond_site_symmetry_2
Cl1 C3 1_555 1_555
C1 C2 1_555 1_555
C2 C3 1_555 1_555
C3 C4 1_555 1_555
C4 C5 1_555 1_555
C5 C6 1_555 1_555
C6 C7 1_555 1_555
C7 C8 1_555 1_555
C8 C9 1_555 1_555
C9 C4 1_555 1_555
C10 C2 1_555 1_555
C11 C1 1_555 1_555
C12 C11 1_555 1_555
C13 C12 1_555 1_555
C14 C13 1_555 1_555
C15 C14 1_555 1_555
C16 C15 1_555 1_555
C17 C12 1_555 1_555
C18 C1 1_555 1_555
C19 C18 1_555 1_555
C20 C19 1_555 1_555
C21 C20 1_555 1_555
C22 C21 1_555 1_555
C23 C18 1_555 1_555
C24 C23 1_555 1_555
C25 C24 1_555 1_555
C26 C25 1_555 1_555
C27 C26 1_555 1_555
C28 C27 1_555 1_555
C29 C1 1_555 1_555
H1 C5 1_555 1_555
H2 C6 1_555 1_555
H3 C7 1_555 1_555
H4 C8 1_555 1_555
H5 C13 1_555 1_555
H6 C14 1_555 1_555
H7 C15 1_555 1_555
H8 C16 1_555 1_555
H9 C17 1_555 1_555
H10 C19 1_555 1_555
H11 C20 1_555 1_555
H12 C21 1_555 1_555
H13 C22 1_555 1_555
H14 C25 1_555 1_555
H15 C26 1_555 1_555
H16 C27 1_555 1_555
H17 C28 1_555 1_555
C9 C10 1_555 1_555
C10 C11 1_555 1_555
C16 C17 1_555 1_555
C22 C23 1_555 1_555
C24 C29 1_555 1_555
C28 C29 1_555 1_555

#END
