
#######################################################################
#
#                 Cambridge Crystallographic Data Centre
#                                CCDC 
#
#######################################################################
#
# If this CIF has been generated from an entry in the Cambridge 
# Structural Database, then it will include bibliographic, chemical, 
# crystal, experimental, refinement or atomic coordinate data resulting 
# from the CCDC's data processing and validation procedures.
#
#######################################################################

data_MOKNOP
_chemical_formula_moiety         'C31 H19 Cl1'
_chemical_name_systematic        
1-(2,2'-Stilbene)-7-chloro-2-phenyl-1H-cyclobut[a]indene
_symmetry_cell_setting           monoclinic
_symmetry_space_group_name_H-M   'P 21/c'
_symmetry_Int_Tables_number      14
_space_group_name_Hall           '-P 2ybc'
loop_
_symmetry_equiv_pos_site_id
_symmetry_equiv_pos_as_xyz
1 x,y,z
2 -x,1/2+y,1/2-z
3 -x,-y,-z
4 x,1/2-y,1/2+z
_cell_length_a                   12.846(1)
_cell_length_b                   8.480(1)
_cell_length_c                   19.950(3)
_cell_angle_alpha                90
_cell_angle_beta                 90.76(1)
_cell_angle_gamma                90
_cell_volume                     2173.04
_exptl_crystal_colour            orange
_cell_formula_units_Z            4
loop_
_atom_site_label
_atom_site_type_symbol
_atom_site_fract_x
_atom_site_fract_y
_atom_site_fract_z
Cl1 Cl 0.1482(1) 0.1286(1) 0.6325(1)
C1 C 0.2231(2) 0.5273(3) 0.5418(1)
C2 C 0.2828(2) 0.6407(3) 0.5711(1)
C3 C 0.2984(2) 0.5391(3) 0.6371(2)
C4 C 0.2293(2) 0.4206(3) 0.5971(2)
C5 C 0.1714(2) 0.2934(4) 0.5849(2)
C6 C 0.1234(2) 0.3115(4) 0.5181(2)
C7 C 0.0555(3) 0.2145(4) 0.4829(2)
C8 C 0.0196(3) 0.2613(5) 0.4205(2)
C9 C 0.0506(3) 0.4009(5) 0.3929(2)
C10 C 0.1189(3) 0.5024(4) 0.4269(2)
C11 C 0.1551(2) 0.4567(4) 0.4899(2)
C12 C 0.3159(2) 0.7971(3) 0.5516(2)
C13 C 0.2828(3) 0.8584(4) 0.4900(2)
C14 C 0.3120(3) 1.0079(4) 0.4704(2)
C15 C 0.3736(3) 1.0985(4) 0.5112(2)
C16 C 0.4082(3) 1.0413(4) 0.5713(2)
C17 C 0.3802(2) 0.8920(4) 0.5918(2)
C18 C 0.4086(3) 0.4816(4) 0.6506(2)
C19 C 0.4899(3) 0.5357(4) 0.6115(2)
C20 C 0.5910(3) 0.4784(5) 0.6190(2)
C21 C 0.6115(3) 0.3656(6) 0.6660(2)
C22 C 0.5326(4) 0.3082(5) 0.7044(2)
C23 C 0.4297(3) 0.3642(4) 0.6985(2)
C24 C 0.3515(4) 0.2912(5) 0.7398(2)
C25 C 0.2610(4) 0.3470(5) 0.7614(2)
C26 C 0.2164(3) 0.5032(4) 0.7516(2)
C27 C 0.1447(3) 0.5571(5) 0.7996(2)
C28 C 0.1011(3) 0.7040(5) 0.7958(2)
C29 C 0.1287(3) 0.8026(4) 0.7453(2)
C30 C 0.1966(2) 0.7519(4) 0.6968(2)
C31 C 0.2402(2) 0.6019(4) 0.6973(2)
H1 H 0.0344(6) 0.1189(4) 0.5010(2)
H2 H -0.0265(3) 0.1968(5) 0.3969(2)
H3 H 0.0257(3) 0.4290(5) 0.3505(2)
H4 H 0.1395(3) 0.5975(4) 0.4080(2)
H5 H 0.2407(3) 0.7979(4) 0.4619(2)
H6 H 0.2895(3) 1.0470(4) 0.4292(2)
H7 H 0.3920(3) 1.1998(4) 0.4979(2)
H8 H 0.4508(3) 1.1031(4) 0.5986(2)
H9 H 0.4044(2) 0.8540(4) 0.6329(2)
H10 H 0.4764(3) 0.6126(4) 0.5793(2)
H11 H 0.6441(3) 0.5168(5) 0.5922(2)
H12 H 0.6789(3) 0.3276(6) 0.6719(2)
H13 H 0.5475(4) 0.2295(5) 0.7356(2)
H14 H 0.3669(4) 0.1889(5) 0.7534(2)
H15 H 0.2211(4) 0.2768(5) 0.7860(2)
H16 H 0.1267(3) 0.4908(5) 0.8348(2)
H17 H 0.0530(3) 0.7362(5) 0.8275(2)
H18 H 0.1018(3) 0.9043(4) 0.7434(2)
H19 H 0.2140(2) 0.8209(4) 0.6625(2)
loop_
_geom_bond_atom_site_label_1
_geom_bond_atom_site_label_2
_geom_bond_site_symmetry_1
_geom_bond_site_symmetry_2
Cl1 C5 1_555 1_555
C1 C2 1_555 1_555
C2 C3 1_555 1_555
C3 C4 1_555 1_555
C4 C1 1_555 1_555
C5 C4 1_555 1_555
C6 C5 1_555 1_555
C7 C6 1_555 1_555
C8 C7 1_555 1_555
C9 C8 1_555 1_555
C10 C9 1_555 1_555
C11 C1 1_555 1_555
C12 C2 1_555 1_555
C13 C12 1_555 1_555
C14 C13 1_555 1_555
C15 C14 1_555 1_555
C16 C15 1_555 1_555
C17 C12 1_555 1_555
C18 C3 1_555 1_555
C19 C18 1_555 1_555
C20 C19 1_555 1_555
C21 C20 1_555 1_555
C22 C21 1_555 1_555
C23 C18 1_555 1_555
C24 C23 1_555 1_555
C25 C24 1_555 1_555
C26 C25 1_555 1_555
C27 C26 1_555 1_555
C28 C27 1_555 1_555
C29 C28 1_555 1_555
C30 C29 1_555 1_555
C31 C3 1_555 1_555
H1 C7 1_555 1_555
H2 C8 1_555 1_555
H3 C9 1_555 1_555
H4 C10 1_555 1_555
H5 C13 1_555 1_555
H6 C14 1_555 1_555
H7 C15 1_555 1_555
H8 C16 1_555 1_555
H9 C17 1_555 1_555
H10 C19 1_555 1_555
H11 C20 1_555 1_555
H12 C21 1_555 1_555
H13 C22 1_555 1_555
H14 C24 1_555 1_555
H15 C25 1_555 1_555
H16 C27 1_555 1_555
H17 C28 1_555 1_555
H18 C29 1_555 1_555
H19 C30 1_555 1_555
C6 C11 1_555 1_555
C10 C11 1_555 1_555
C16 C17 1_555 1_555
C22 C23 1_555 1_555
C26 C31 1_555 1_555
C30 C31 1_555 1_555

#END
