
#######################################################################
#
#                 Cambridge Crystallographic Data Centre
#                                CCDC 
#
#######################################################################
#
# If this CIF has been generated from an entry in the Cambridge 
# Structural Database, then it will include bibliographic, chemical, 
# crystal, experimental, refinement or atomic coordinate data resulting 
# from the CCDC's data processing and validation procedures.
#
#######################################################################

data_MOKPIL
_chemical_formula_moiety         'C31 H20'
_chemical_name_systematic        
10-Phenyl-15H-benzo[6,7]cyclohepta[1,2,3-de]indeno[1,2-b]naphthalene
_symmetry_cell_setting           monoclinic
_symmetry_space_group_name_H-M   'P 21/n'
_symmetry_Int_Tables_number      14
_space_group_name_Hall           '-P 2yn'
loop_
_symmetry_equiv_pos_site_id
_symmetry_equiv_pos_as_xyz
1 x,y,z
2 1/2-x,1/2+y,1/2-z
3 -x,-y,-z
4 1/2+x,1/2-y,1/2+z
_cell_length_a                   9.930(2)
_cell_length_b                   42.010(4)
_cell_length_c                   11.015(2)
_cell_angle_alpha                90
_cell_angle_beta                 114.50(1)
_cell_angle_gamma                90
_cell_volume                     4181.28
_exptl_crystal_colour            'light yellow'
_chemical_melting_point          197-198deg.C
_cell_formula_units_Z            8
loop_
_atom_site_label
_atom_site_type_symbol
_atom_site_fract_x
_atom_site_fract_y
_atom_site_fract_z
C1 C 0.8868(4) 0.1468(1) 0.5634(3)
C2 C 0.8136(4) 0.1746(1) 0.5967(3)
C3 C 0.6818(4) 0.1852(1) 0.4978(4)
C4 C 0.5940(4) 0.2081(1) 0.5191(4)
C5 C 0.6383(5) 0.2215(1) 0.6443(4)
C6 C 0.7737(4) 0.2128(1) 0.7425(4)
C7 C 0.8667(4) 0.1908(1) 0.7194(4)
C8 C 1.0162(5) 0.1877(1) 0.8205(4)
C9 C 1.1369(5) 0.1778(1) 0.8063(4)
C10 C 1.1554(4) 0.1639(1) 0.6919(4)
C11 C 1.2986(4) 0.1639(1) 0.6990(4)
C12 C 1.3342(5) 0.1462(1) 0.6105(4)
C13 C 1.2357(4) 0.1258(1) 0.5234(4)
C14 C 1.0898(4) 0.1237(1) 0.5170(4)
C15 C 1.0416(4) 0.1457(1) 0.5908(4)
C16 C 0.9942(4) 0.0989(1) 0.4410(3)
C17 C 0.8552(4) 0.0963(1) 0.4424(3)
C18 C 0.7473(4) 0.0704(1) 0.4025(3)
C19 C 0.7571(4) 0.0395(1) 0.3621(4)
C20 C 0.6425(4) 0.0189(1) 0.3457(4)
C21 C 0.5205(4) 0.0281(1) 0.3668(4)
C22 C 0.5092(4) 0.0590(1) 0.4037(4)
C23 C 0.6248(4) 0.0800(1) 0.4248(4)
C24 C 0.6406(4) 0.1138(1) 0.4706(4)
C25 C 0.8009(4) 0.1214(1) 0.4962(4)
C26 C 1.0379(4) 0.0751(1) 0.3623(4)
C27 C 1.1295(4) 0.0493(1) 0.4256(4)
C28 C 1.1582(4) 0.0261(1) 0.3490(4)
C29 C 1.1054(4) 0.0296(1) 0.2133(4)
C30 C 1.0177(5) 0.0553(1) 0.1526(4)
C31 C 0.9831(4) 0.0778(1) 0.2270(4)
H1 H 0.6507(4) 0.1764(1) 0.4130(4)
H2 H 0.5059(4) 0.2144(1) 0.4497(4)
H3 H 0.5783(5) 0.2361(1) 0.6619(4)
H4 H 0.8043(4) 0.2218(1) 0.8269(4)
H5 H 1.0303(5) 0.1932(1) 0.9067(4)
H6 H 1.2247(5) 0.1803(1) 0.8823(4)
H7 H 1.3714(4) 0.1760(1) 0.7642(4)
H8 H 1.4275(5) 0.1485(1) 0.6107(4)
H9 H 1.2633(4) 0.1131(1) 0.4682(4)
H10 H 0.8380(4) 0.0329(1) 0.3466(4)
H11 H 0.6477(4) -0.0019(1) 0.3194(4)
H12 H 0.4461(4) 0.0135(1) 0.3562(4)
H13 H 0.4255(4) 0.0657(1) 0.4143(4)
H14 H 0.6248(4) 0.1159(1) 0.5514(4)
H15 H 0.5718(4) 0.1276(1) 0.4022(4)
H16 H 1.1708(4) 0.0477(1) 0.5182(4)
H17 H 1.2135(4) 0.0082(1) 0.3901(4)
H18 H 1.1287(4) 0.0146(1) 0.1628(4)
H19 H 0.9812(5) 0.0576(1) 0.0605(4)
H20 H 0.9219(4) 0.0948(1) 0.1843(4)
C32 C 0.6214(4) 0.1659(1) 0.1056(3)
C33 C 0.7365(4) 0.1897(1) 0.1857(3)
C34 C 0.8787(4) 0.1787(1) 0.2568(3)
C35 C 0.9966(4) 0.1981(1) 0.3316(4)
C36 C 0.9695(5) 0.2306(1) 0.3360(4)
C37 C 0.8280(5) 0.2418(1) 0.2707(4)
C38 C 0.7076(5) 0.2218(1) 0.2000(4)
C39 C 0.5604(5) 0.2348(1) 0.1579(4)
C40 C 0.4377(5) 0.2198(1) 0.1457(4)
C41 C 0.4112(5) 0.1861(1) 0.1562(4)
C42 C 0.2919(5) 0.1781(1) 0.1842(4)
C43 C 0.2375(5) 0.1475(1) 0.1712(4)
C44 C 0.2909(4) 0.1248(1) 0.1154(4)
C45 C 0.4108(4) 0.1309(1) 0.0803(4)
C46 C 0.4843(4) 0.1612(1) 0.1178(3)
C47 C 0.4549(4) 0.1084(1) 0.0066(4)
C48 C 0.5721(4) 0.1159(1) -0.0235(3)
C49 C 0.6375(4) 0.0991(1) -0.1030(3)
C50 C 0.5989(4) 0.0700(1) -0.1695(4)
C51 C 0.6850(5) 0.0592(1) -0.2328(4)
C52 C 0.8063(4) 0.0757(1) -0.2279(4)
C53 C 0.8446(4) 0.1047(1) -0.1631(4)
C54 C 0.7596(4) 0.1159(1) -0.0987(4)
C55 C 0.7809(4) 0.1457(1) -0.0184(3)
C56 C 0.6560(4) 0.1440(1) 0.0296(3)
C57 C 0.3712(4) 0.0781(1) -0.0372(4)
C58 C 0.4165(5) 0.0508(1) 0.0361(4)
C59 C 0.3397(5) 0.0230(1) -0.0056(5)
C60 C 0.2193(5) 0.0214(1) -0.1217(5)
C61 C 0.1713(5) 0.0486(1) -0.1976(5)
C62 C 0.2462(4) 0.0769(1) -0.1566(4)
H21 H 0.8963(4) 0.1570(1) 0.2543(3)
H22 H 1.0910(4) 0.1897(1) 0.3776(4)
H23 H 1.0467(5) 0.2445(1) 0.3827(4)
H24 H 0.8109(5) 0.2636(1) 0.2733(4)
H25 H 0.5504(5) 0.2564(1) 0.1368(4)
H26 H 0.3561(5) 0.2329(1) 0.1275(4)
H27 H 0.2466(5) 0.1940(1) 0.2129(4)
H28 H 0.1647(5) 0.1424(1) 0.2005(4)
H29 H 0.2478(4) 0.1047(1) 0.0996(4)
H30 H 0.5184(4) 0.0584(1) -0.1713(4)
H31 H 0.6596(5) 0.0402(1) -0.2802(4)
H32 H 0.8637(4) 0.0672(1) -0.2686(4)
H33 H 0.9246(4) 0.1163(1) -0.1627(4)
H34 H 0.7710(4) 0.1644(1) -0.0729(3)
H35 H 0.8773(4) 0.1460(1) 0.0564(3)
H36 H 0.5010(5) 0.0511(1) 0.1159(4)
H37 H 0.3713(5) 0.0049(1) 0.0471(5)
H38 H 0.1689(5) 0.0023(1) -0.1505(5)
H39 H 0.0873(5) 0.0478(1) -0.2777(5)
H40 H 0.2130(4) 0.0951(1) -0.2085(4)
loop_
_geom_bond_atom_site_label_1
_geom_bond_atom_site_label_2
_geom_bond_site_symmetry_1
_geom_bond_site_symmetry_2
C1 C2 1_555 1_555
C2 C3 1_555 1_555
C3 C4 1_555 1_555
C4 C5 1_555 1_555
C5 C6 1_555 1_555
C6 C7 1_555 1_555
C7 C2 1_555 1_555
C8 C7 1_555 1_555
C9 C8 1_555 1_555
C10 C9 1_555 1_555
C11 C10 1_555 1_555
C12 C11 1_555 1_555
C13 C12 1_555 1_555
C14 C13 1_555 1_555
C15 C1 1_555 1_555
C16 C14 1_555 1_555
C17 C16 1_555 1_555
C18 C17 1_555 1_555
C19 C18 1_555 1_555
C20 C19 1_555 1_555
C21 C20 1_555 1_555
C22 C21 1_555 1_555
C23 C18 1_555 1_555
C24 C23 1_555 1_555
C25 C1 1_555 1_555
C26 C16 1_555 1_555
C27 C26 1_555 1_555
C28 C27 1_555 1_555
C29 C28 1_555 1_555
C30 C29 1_555 1_555
C31 C26 1_555 1_555
C32 C33 1_555 1_555
C33 C34 1_555 1_555
C34 C35 1_555 1_555
C35 C36 1_555 1_555
C36 C37 1_555 1_555
C37 C38 1_555 1_555
C38 C33 1_555 1_555
C39 C38 1_555 1_555
C40 C39 1_555 1_555
C41 C40 1_555 1_555
C42 C41 1_555 1_555
C43 C42 1_555 1_555
C44 C43 1_555 1_555
C45 C44 1_555 1_555
C46 C32 1_555 1_555
C47 C45 1_555 1_555
C48 C47 1_555 1_555
C49 C48 1_555 1_555
C50 C49 1_555 1_555
C51 C50 1_555 1_555
C52 C51 1_555 1_555
C53 C52 1_555 1_555
C54 C49 1_555 1_555
C55 C54 1_555 1_555
C56 C32 1_555 1_555
C57 C47 1_555 1_555
C58 C57 1_555 1_555
C59 C58 1_555 1_555
C60 C59 1_555 1_555
C61 C60 1_555 1_555
C62 C57 1_555 1_555
H1 C3 1_555 1_555
H2 C4 1_555 1_555
H3 C5 1_555 1_555
H4 C6 1_555 1_555
H5 C8 1_555 1_555
H6 C9 1_555 1_555
H7 C11 1_555 1_555
H8 C12 1_555 1_555
H9 C13 1_555 1_555
H10 C19 1_555 1_555
H11 C20 1_555 1_555
H12 C21 1_555 1_555
H13 C22 1_555 1_555
H14 C24 1_555 1_555
H15 C24 1_555 1_555
H16 C27 1_555 1_555
H17 C28 1_555 1_555
H18 C29 1_555 1_555
H19 C30 1_555 1_555
H20 C31 1_555 1_555
H21 C34 1_555 1_555
H22 C35 1_555 1_555
H23 C36 1_555 1_555
H24 C37 1_555 1_555
H25 C39 1_555 1_555
H26 C40 1_555 1_555
H27 C42 1_555 1_555
H28 C43 1_555 1_555
H29 C44 1_555 1_555
H30 C50 1_555 1_555
H31 C51 1_555 1_555
H32 C52 1_555 1_555
H33 C53 1_555 1_555
H34 C55 1_555 1_555
H35 C55 1_555 1_555
H36 C58 1_555 1_555
H37 C59 1_555 1_555
H38 C60 1_555 1_555
H39 C61 1_555 1_555
H40 C62 1_555 1_555
C10 C15 1_555 1_555
C14 C15 1_555 1_555
C17 C25 1_555 1_555
C22 C23 1_555 1_555
C24 C25 1_555 1_555
C30 C31 1_555 1_555
C41 C46 1_555 1_555
C45 C46 1_555 1_555
C48 C56 1_555 1_555
C53 C54 1_555 1_555
C55 C56 1_555 1_555
C61 C62 1_555 1_555

#END
