
#######################################################################
#
#                 Cambridge Crystallographic Data Centre
#                                CCDC 
#
#######################################################################
#
# If this CIF has been generated from an entry in the Cambridge 
# Structural Database, then it will include bibliographic, chemical, 
# crystal, experimental, refinement or atomic coordinate data resulting 
# from the CCDC's data processing and validation procedures.
#
#######################################################################

data_MOKQUY
_chemical_formula_moiety         'C18 H17 N3 O1'
_chemical_name_systematic        
(Z)-2-(Benzotriazol-1-yl)-4-methyl-1-phenyl-3-penten-1-one
_symmetry_cell_setting           monoclinic
_symmetry_space_group_name_H-M   'P 21/c'
_symmetry_Int_Tables_number      14
_space_group_name_Hall           '-P 2ybc'
loop_
_symmetry_equiv_pos_site_id
_symmetry_equiv_pos_as_xyz
1 x,y,z
2 -x,1/2+y,1/2-z
3 -x,-y,-z
4 x,1/2-y,1/2+z
_cell_length_a                   17.387(7)
_cell_length_b                   8.447(3)
_cell_length_c                   10.587(4)
_cell_angle_alpha                90
_cell_angle_beta                 100.016(5)
_cell_angle_gamma                90
_cell_volume                     1531.19
_exptl_crystal_colour            colorless
_exptl_crystal_description       needles
_chemical_melting_point          144-145deg.C
_cell_formula_units_Z            4
_exptl_crystal_recrystallization_method 'hexanes/ethyl acetate'
loop_
_atom_site_label
_atom_site_type_symbol
_atom_site_fract_x
_atom_site_fract_y
_atom_site_fract_z
O1 O 0.3266(1) 0.5384(1) 0.8616(1)
C1 C 0.3220(1) 0.6778(2) 0.8880(1)
C2 C 0.2517(1) 0.7777(2) 0.8256(1)
C3 C 0.2780(1) 0.9073(2) 0.7454(1)
C4 C 0.2538(1) 1.0569(2) 0.7394(1)
C5 C 0.2840(1) 1.1748(2) 0.6543(1)
C6 C 0.1946(1) 1.1223(2) 0.8113(2)
C7 C 0.3851(1) 0.7589(2) 0.9786(1)
C8 C 0.4605(1) 0.6956(2) 0.9940(1)
C9 C 0.5211(1) 0.7631(2) 1.0792(1)
C10 C 0.5072(1) 0.8929(2) 1.1498(1)
C11 C 0.4328(1) 0.9577(2) 1.1354(1)
C12 C 0.3722(1) 0.8925(2) 1.0492(1)
N1 N 0.1926(1) 0.6750(1) 0.7505(1)
N2 N 0.1828(1) 0.6709(1) 0.6213(1)
N3 N 0.1258(1) 0.5734(2) 0.5780(1)
C13 C 0.0976(1) 0.5105(2) 0.6806(1)
C14 C 0.0355(1) 0.4062(2) 0.6864(2)
C15 C 0.0221(1) 0.3666(2) 0.8053(2)
C16 C 0.0685(1) 0.4265(2) 0.9171(2)
C17 C 0.1284(1) 0.5321(2) 0.9137(1)
C18 C 0.1413(1) 0.5734(1) 0.7921(1)
H1 H 0.2281 0.8279 0.8954
H2 H 0.3156 0.8796 0.6940
H3 H 0.3223 1.1237 0.6099
H4 H 0.3089 1.2629 0.7063
H5 H 0.2405 1.2151 0.5910
H6 H 0.1827 1.0434 0.8730
H7 H 0.1468 1.1483 0.7511
H8 H 0.2152 1.2182 0.8572
H9 H 0.4702 0.6053 0.9456
H10 H 0.5722 0.7197 1.0887
H11 H 0.5486 0.9386 1.2088
H12 H 0.4235 1.0473 1.1849
H13 H 0.3216 0.9388 1.0381
H14 H 0.0043 0.3652 0.6109
H15 H -0.0197 0.2968 0.8129
H16 H 0.0581 0.3928 0.9981
H17 H 0.1589 0.5739 0.9895
loop_
_geom_bond_atom_site_label_1
_geom_bond_atom_site_label_2
_geom_bond_site_symmetry_1
_geom_bond_site_symmetry_2
O1 C1 1_555 1_555
C1 C2 1_555 1_555
C2 C3 1_555 1_555
C3 C4 1_555 1_555
C4 C5 1_555 1_555
C5 H3 1_555 1_555
C6 C4 1_555 1_555
C7 C1 1_555 1_555
C8 C7 1_555 1_555
C9 C8 1_555 1_555
C10 C9 1_555 1_555
C11 C10 1_555 1_555
C12 C7 1_555 1_555
N1 C2 1_555 1_555
N2 N1 1_555 1_555
N3 N2 1_555 1_555
C13 N3 1_555 1_555
C14 C13 1_555 1_555
C15 C14 1_555 1_555
C16 C15 1_555 1_555
C17 C16 1_555 1_555
C18 N1 1_555 1_555
H1 C2 1_555 1_555
H2 C3 1_555 1_555
H4 C5 1_555 1_555
H5 C5 1_555 1_555
H6 C6 1_555 1_555
H7 C6 1_555 1_555
H8 C6 1_555 1_555
H9 C8 1_555 1_555
H10 C9 1_555 1_555
H11 C10 1_555 1_555
H12 C11 1_555 1_555
H13 C12 1_555 1_555
H14 C14 1_555 1_555
H15 C15 1_555 1_555
H16 C16 1_555 1_555
H17 C17 1_555 1_555
C11 C12 1_555 1_555
C13 C18 1_555 1_555
C17 C18 1_555 1_555

#END
