
#######################################################################
#
#                 Cambridge Crystallographic Data Centre
#                                CCDC 
#
#######################################################################
#
# If this CIF has been generated from an entry in the Cambridge 
# Structural Database, then it will include bibliographic, chemical, 
# crystal, experimental, refinement or atomic coordinate data resulting 
# from the CCDC's data processing and validation procedures.
#
#######################################################################

data_MOKRAF
_chemical_formula_moiety         'C29 H25 N5'
_chemical_name_systematic        
cis-1-(4-Methyl-5-(4-methylphenyl)-1,3-diphenyl-4,5-dihydro-1H-pyrazol-4-yl)benzotriazole
_symmetry_cell_setting           monoclinic
_symmetry_space_group_name_H-M   'P 21/c'
_symmetry_Int_Tables_number      14
_space_group_name_Hall           '-P 2ybc'
loop_
_symmetry_equiv_pos_site_id
_symmetry_equiv_pos_as_xyz
1 x,y,z
2 -x,1/2+y,1/2-z
3 -x,-y,-z
4 x,1/2-y,1/2+z
_cell_length_a                   10.349(3)
_cell_length_b                   12.211(3)
_cell_length_c                   17.921(4)
_cell_angle_alpha                90
_cell_angle_beta                 97.260(4)
_cell_angle_gamma                90
_cell_volume                     2246.55
_exptl_crystal_colour            yellow
_exptl_crystal_description       needles
_chemical_melting_point          184-186deg.C
_cell_formula_units_Z            4
_exptl_crystal_recrystallization_method methanol
loop_
_atom_site_label
_atom_site_type_symbol
_atom_site_fract_x
_atom_site_fract_y
_atom_site_fract_z
N1 N -0.3928(2) 0.8222(1) 0.0203(1)
N2 N -0.4473(2) 0.8699(1) 0.0777(1)
C1 C -0.3699(2) 0.9440(2) 0.1104(1)
C2 C -0.2464(2) 0.9568(2) 0.0730(1)
C3 C -0.2573(2) 0.8565(2) 0.0171(1)
C4 C -0.4552(2) 0.7349(2) -0.0205(1)
C5 C -0.4049(2) 0.6959(2) -0.0843(1)
C6 C -0.4664(2) 0.6107(2) -0.1254(1)
C7 C -0.5778(2) 0.5636(2) -0.1045(1)
C8 C -0.6265(2) 0.6013(2) -0.0413(1)
C9 C -0.5668(2) 0.6868(2) 0.0007(1)
C10 C -0.4149(2) 1.0172(2) 0.1672(1)
C11 C -0.3296(2) 1.0896(2) 0.2094(1)
C12 C -0.3757(2) 1.1604(2) 0.2609(1)
C13 C -0.5055(2) 1.1608(2) 0.2710(1)
C14 C -0.5916(2) 1.0892(2) 0.2290(1)
C15 C -0.5471(2) 1.0183(2) 0.1783(1)
N3 N -0.1252(2) 0.9526(1) 0.1256(1)
N4 N -0.0167(2) 1.0048(2) 0.1063(1)
N5 N 0.0840(2) 0.9786(2) 0.1546(1)
C16 C 0.0433(2) 0.9067(2) 0.2063(1)
C17 C 0.1136(2) 0.8540(2) 0.2680(1)
C18 C 0.0469(2) 0.7856(2) 0.3095(1)
C19 C -0.0893(2) 0.7691(2) 0.2909(1)
C20 C -0.1610(2) 0.8205(2) 0.2313(1)
C21 C -0.0913(2) 0.8892(2) 0.1878(1)
C22 C -0.2541(2) 1.0638(2) 0.0281(1)
C23 C -0.1584(2) 0.7643(2) 0.0370(1)
C24 C -0.1853(2) 0.6743(2) 0.0812(1)
C25 C -0.0904(2) 0.5962(2) 0.1020(1)
C26 C 0.0351(2) 0.6051(2) 0.0796(1)
C27 C 0.0575(2) 0.6951(2) 0.0352(1)
C28 C -0.0367(2) 0.7725(2) 0.0133(1)
C29 C 0.1364(2) 0.5191(2) 0.1020(1)
H1 H -0.2488 0.8836 -0.0347
H2 H -0.3286 0.7278 -0.0994
H3 H -0.4317 0.5842 -0.1686
H4 H -0.6202 0.5058 -0.1335
H5 H -0.7022 0.5683 -0.0263
H6 H -0.6020 0.7124 0.0439
H7 H -0.2399 1.0905 0.2029
H8 H -0.3170 1.2088 0.2895
H9 H -0.5362 1.2094 0.3062
H10 H -0.6813 1.0895 0.2355
H11 H -0.6063 0.9694 0.1505
H12 H 0.2045 0.8655 0.2805
H13 H 0.0921 0.7485 0.3516
H14 H -0.1325 0.7204 0.3209
H15 H -0.2524 0.8102 0.2201
H16 H -0.2477 1.1261 0.0628
H17 H -0.3373 1.0671 -0.0047
H18 H -0.1823 1.0668 -0.0027
H19 H -0.2692 0.6669 0.0969
H20 H -0.1102 0.5357 0.1320
H21 H 0.1412 0.7034 0.0194
H22 H -0.0179 0.8316 -0.0180
H23 H 0.1217 0.4562 0.0681
H24 H 0.1305 0.4956 0.1537
H25 H 0.2232 0.5496 0.0988
loop_
_geom_bond_atom_site_label_1
_geom_bond_atom_site_label_2
_geom_bond_site_symmetry_1
_geom_bond_site_symmetry_2
N1 N2 1_555 1_555
N2 C1 1_555 1_555
C1 C2 1_555 1_555
C2 C3 1_555 1_555
C3 N1 1_555 1_555
C4 N1 1_555 1_555
C5 C4 1_555 1_555
C6 C5 1_555 1_555
C7 C6 1_555 1_555
C8 C7 1_555 1_555
C9 C4 1_555 1_555
C10 C1 1_555 1_555
C11 C10 1_555 1_555
C12 C11 1_555 1_555
C13 C12 1_555 1_555
C14 C13 1_555 1_555
C15 C10 1_555 1_555
N3 C2 1_555 1_555
N4 N3 1_555 1_555
N5 N4 1_555 1_555
C16 N5 1_555 1_555
C17 C16 1_555 1_555
C18 C17 1_555 1_555
C19 C18 1_555 1_555
C20 C19 1_555 1_555
C21 N3 1_555 1_555
C22 C2 1_555 1_555
C23 C3 1_555 1_555
C24 C23 1_555 1_555
C25 C24 1_555 1_555
C26 C25 1_555 1_555
C27 C26 1_555 1_555
C28 C23 1_555 1_555
C29 C26 1_555 1_555
H1 C3 1_555 1_555
H2 C5 1_555 1_555
H3 C6 1_555 1_555
H4 C7 1_555 1_555
H5 C8 1_555 1_555
H6 C9 1_555 1_555
H7 C11 1_555 1_555
H8 C12 1_555 1_555
H9 C13 1_555 1_555
H10 C14 1_555 1_555
H11 C15 1_555 1_555
H12 C17 1_555 1_555
H13 C18 1_555 1_555
H14 C19 1_555 1_555
H15 C20 1_555 1_555
H16 C22 1_555 1_555
H17 C22 1_555 1_555
H18 C22 1_555 1_555
H19 C24 1_555 1_555
H20 C25 1_555 1_555
H21 C27 1_555 1_555
H22 C28 1_555 1_555
H23 C29 1_555 1_555
H24 C29 1_555 1_555
H25 C29 1_555 1_555
C8 C9 1_555 1_555
C14 C15 1_555 1_555
C16 C21 1_555 1_555
C20 C21 1_555 1_555
C27 C28 1_555 1_555

#END
