
#######################################################################
#
#                 Cambridge Crystallographic Data Centre
#                                CCDC 
#
#######################################################################
#
# If this CIF has been generated from an entry in the Cambridge 
# Structural Database, then it will include bibliographic, chemical, 
# crystal, experimental, refinement or atomic coordinate data resulting 
# from the CCDC's data processing and validation procedures.
#
#######################################################################

data_MOLNAC
_chemical_formula_moiety         'C48 H36 N6 O12,3(C6 H6)'
_chemical_name_systematic        
"Cyclo-(N,N'-tris(cyclohexane-1,2-diyl)-tris(pyromellitdiimide)) benzene solvate"
_symmetry_cell_setting           hexagonal
_symmetry_space_group_name_H-M   'P 63'
_symmetry_Int_Tables_number      173
_space_group_name_Hall           'P 6c'
loop_
_symmetry_equiv_pos_site_id
_symmetry_equiv_pos_as_xyz
1 x,y,z
2 -y,x-y,z
3 -x+y,-x,z
4 -x,-y,1/2+z
5 y,-x+y,1/2+z
6 x-y,x,1/2+z
_cell_length_a                   15.825(2)
_cell_length_b                   15.825(2)
_cell_length_c                   13.701(3)
_cell_angle_alpha                90
_cell_angle_beta                 90
_cell_angle_gamma                120
_cell_volume                     2971.46
_exptl_crystal_colour            colorless
_exptl_crystal_description       prism
_chemical_melting_point          'above 360 deg.C'
_cell_formula_units_Z            2
loop_
_atom_site_label
_atom_site_type_symbol
_atom_site_fract_x
_atom_site_fract_y
_atom_site_fract_z
C1 C 0.70777(15) 0.04432(16) 0.3430(3)
H1 H 0.7193 0.0367 0.4104
C2 C 0.74766(15) -0.00854(15) 0.2817(3)
H2 H 0.7411 0.0017 0.2137
C3 C 0.85511(15) 0.03074(17) 0.3057(3)
H3 H 0.8806 -0.0008 0.2653
H4 H 0.8615 0.0170 0.3726
C4 C 0.91383(18) 0.14184(19) 0.2887(4)
H5 H 0.9121 0.1545 0.2204
H6 H 0.9808 0.1668 0.3069
C5 C 0.8719(2) 0.1942(2) 0.3443(4)
H7 H 0.9082 0.2628 0.3302
H8 H 0.8777 0.1856 0.4129
C6 C 0.76426(18) 0.15364(17) 0.3195(4)
H9 H 0.7379 0.1867 0.3564
H10 H 0.7582 0.1637 0.2514
C7 C 0.55333(18) -0.01035(18) 0.2427(3)
C8 C 0.44795(15) -0.05062(17) 0.2684(3)
C9 C 0.36837(17) -0.08109(19) 0.2080(3)
H11 H 0.3742 -0.0750 0.1383
C10 C 0.27947(16) -0.11993(15) 0.2561(3)
C11 C 0.17903(17) -0.16391(17) 0.2147(3)
C12 C 0.16585(17) -0.17067(19) 0.3824(3)
C13 C 0.27135(16) -0.12445(16) 0.3570(3)
C14 C 0.35205(17) -0.09074(18) 0.4177(3)
H12 H 0.3472 -0.0924 0.4875
C15 C 0.44024(17) -0.05483(17) 0.3696(3)
C16 C 0.53987(17) -0.01832(18) 0.4104(3)
N1 N 0.60226(13) 0.00414(14) 0.3310(3)
N2 N 0.68962(12) -0.11567(13) 0.2941(3)
O1 O 0.58985(14) 0.00624(17) 0.1627(3)
O2 O 0.15548(13) -0.17284(17) 0.1302(3)
O3 O 0.12957(13) -0.18496(15) 0.4630(3)
O4 O 0.56436(14) -0.00895(17) 0.4942(3)
N2A N 0.11567(13) -0.19471(18) 0.2941(3)
C2A C 0.00854(15) -0.24380(21) 0.2817(3)
C1A C -0.04432(16) -0.33655(22) 0.3430(3)
H1A H -0.0367 -0.3174 0.4104
C6A C -0.15364(17) -0.38938(25) 0.3195(4)
C5A C -0.1942(2) -0.3223(3) 0.3443(4)
C4A C -0.14184(19) -0.22801(26) 0.2887(4)
C3A C -0.03074(17) -0.17563(23) 0.3057(3)
H2A H -0.0017 -0.2606 0.2137
H3A H 0.0008 -0.1186 0.2653
H4A H -0.0170 -0.1555 0.3726
H5A H -0.1545 -0.2424 0.2204
H6A H -0.1668 -0.1860 0.3069
H7A H -0.2628 -0.3546 0.3302
H8A H -0.1856 -0.3079 0.4129
H9A H -0.1867 -0.4488 0.3564
H10A H -0.1637 -0.4055 0.2514
N1A N -0.00414(14) -0.40188(19) 0.3310(3)
C7A C 0.01035(18) -0.43632(25) 0.2427(3)
C8A C 0.05062(17) -0.50143(23) 0.2684(3)
C9A C 0.08109(19) -0.55054(25) 0.2080(3)
H11A H 0.0750 -0.5508 0.1383
C10A C 0.11993(15) -0.60060(22) 0.2561(3)
C11A C 0.16391(17) -0.65706(24) 0.2147(3)
N2B N 0.19471(18) -0.68962(12) 0.2941(3)
C2B C 0.24380(21) -0.74766(15) 0.2817(3)
C1B C 0.33655(22) -0.70777(15) 0.3430(3)
H1B H 0.3174 -0.7193 0.4104
C6B C 0.38938(25) -0.76426(18) 0.3195(4)
C5B C 0.3223(3) -0.8719(2) 0.3443(4)
C4B C 0.22801(26) -0.91383(18) 0.2887(4)
C3B C 0.17563(23) -0.85511(15) 0.3057(3)
H2B H 0.2606 -0.7411 0.2137
H3B H 0.1186 -0.8806 0.2653
H4B H 0.1555 -0.8615 0.3726
H5B H 0.2424 -0.9121 0.2204
H6B H 0.1860 -0.9808 0.3069
H7B H 0.3546 -0.9082 0.3302
H8B H 0.3079 -0.8777 0.4129
H9B H 0.4488 -0.7379 0.3564
H10B H 0.4055 -0.7582 0.2514
N1B N 0.40188(19) -0.60226(13) 0.3310(3)
C7B C 0.43632(25) -0.55333(18) 0.2427(3)
C8B C 0.50143(23) -0.44795(15) 0.2684(3)
C9B C 0.55054(25) -0.36837(17) 0.2080(3)
H11B H 0.5508 -0.3742 0.1383
C10B C 0.60060(22) -0.27947(16) 0.2561(3)
C11B C 0.65706(24) -0.17903(17) 0.2147(3)
C12B C 0.66348(25) -0.16585(17) 0.3824(3)
C13B C 0.60420(23) -0.27135(16) 0.3570(3)
C14B C 0.55721(25) -0.35205(17) 0.4177(3)
H12B H 0.5604 -0.3472 0.4875
C15B C 0.50493(24) -0.44024(17) 0.3696(3)
C16B C 0.44181(25) -0.53987(17) 0.4104(3)
O4B O 0.42669(22) -0.56436(14) 0.4942(3)
O3B O 0.68547(20) -0.12957(13) 0.4630(3)
O2B O 0.67168(21) -0.15548(13) 0.1302(3)
O1B O 0.41639(22) -0.58985(14) 0.1627(3)
C12A C 0.17067(19) -0.66348(25) 0.3824(3)
C13A C 0.12445(16) -0.60420(23) 0.3570(3)
C14A C 0.09074(18) -0.55721(25) 0.4177(3)
H12A H 0.0924 -0.5604 0.4875
C15A C 0.05483(17) -0.50493(24) 0.3696(3)
C16A C 0.01832(18) -0.44181(25) 0.4104(3)
O4A O 0.00895(17) -0.42669(22) 0.4942(3)
O3A O 0.18496(15) -0.68547(20) 0.4630(3)
O2A O 0.17284(17) -0.67168(21) 0.1302(3)
O1A O -0.00624(17) -0.41639(22) 0.1627(3)
C17 C 0.0834(3) -0.0067(3) 0.5589(3)
H13 H 0.1415 -0.0116 0.5593
C18 C -0.0066(3) -0.0897(3) 0.5581(3)
H14 H -0.0115 -0.1526 0.5578
C17B C -0.0901(4) -0.0834(3) 0.5589(3)
H13B H -0.1531 -0.1415 0.5593
C18B C -0.0831(4) 0.0066(3) 0.5581(3)
C17A C 0.0067(3) 0.0901(4) 0.5589(3)
H13A H 0.0116 0.1531 0.5593
C18A C 0.0897(3) 0.0831(4) 0.5581(3)
H14A H 0.1526 0.1411 0.5578
H14B H -0.1411 0.0115 0.5578
C19 C 0.4032(3) -0.2345(2) 0.0285(5)
H15 H 0.4512 -0.1663 0.0269
C20 C 0.3038(4) -0.2641(3) 0.0297(5)
H16 H 0.2837 -0.2161 0.0313
C19A C 0.2345(2) -0.3623(4) 0.0285(5)
H15A H 0.1663 -0.3825 0.0269
C20A C 0.2641(3) -0.4321(5) 0.0297(5)
C19B C 0.3623(4) -0.4032(3) 0.0285(5)
H15B H 0.3825 -0.4512 0.0269
C20B C 0.4321(5) -0.3038(4) 0.0297(5)
H16B H 0.5002 -0.2837 0.0313
H16A H 0.2161 -0.5002 0.0313
C21? C 0.3745(10) -0.3924(10) 0.6041(3)
H17? H 0.4044 -0.4323 0.6041
C22? C 0.2771(10) -0.4339(6) 0.6041(3)
H18? H 0.2372 -0.5037 0.6041
C23? C 0.3838(11) -0.2789(15) -0.067(2)
C24? C 0.3828(12) -0.2800(15) 0.113(2)
C25? C 0.3173(19) -0.428(3) 0.021(3)
C26? C 0.3393(10) -0.3801(11) 0.7164(15)
C27? C 0.3396(11) -0.3833(12) 0.5368(15)
C28? C 0.320(2) -0.428(3) 0.630(3)
C29? C 0.3988(17) -0.237(3) 0.634(3)
loop_
_geom_bond_atom_site_label_1
_geom_bond_atom_site_label_2
_geom_bond_site_symmetry_1
_geom_bond_site_symmetry_2
C1 H1 1_555 1_555
C2 C1 1_555 1_555
H2 C2 1_555 1_555
C3 C2 1_555 1_555
H3 C3 1_555 1_555
H4 C3 1_555 1_555
C4 C3 1_555 1_555
H5 C4 1_555 1_555
H6 C4 1_555 1_555
C5 C4 1_555 1_555
H7 C5 1_555 1_555
H8 C5 1_555 1_555
C6 C1 1_555 1_555
H9 C6 1_555 1_555
H10 C6 1_555 1_555
C7 C8 1_555 1_555
C8 C9 1_555 1_555
C9 H11 1_555 1_555
C10 C9 1_555 1_555
C11 C10 1_555 1_555
C12 C13 1_555 1_555
C13 C10 1_555 1_555
C14 C13 1_555 1_555
H12 C14 1_555 1_555
C15 C8 1_555 1_555
C16 C15 1_555 1_555
N1 C1 1_555 1_555
N2 C2 1_555 1_555
O1 C7 1_555 1_555
O2 C11 1_555 1_555
O3 C12 1_555 1_555
O4 C16 1_555 1_555
C17 H13 1_555 1_555
C18 C17 1_555 1_555
H14 C18 1_555 1_555
C19 H15 1_555 1_555
C20 C19 1_555 1_555
H16 C20 1_555 1_555
N2A C11 1_555 1_555
C2A N2A 1_555 1_555
C1A C2A 1_555 1_555
H1A C1A 1_555 1_555
C6A C1A 1_555 1_555
C5A C6A 1_555 1_555
C4A C5A 1_555 1_555
C3A C2A 1_555 1_555
H2A C2A 1_555 1_555
H3A C3A 1_555 1_555
H4A C3A 1_555 1_555
H5A C4A 1_555 1_555
H6A C4A 1_555 1_555
H7A C5A 1_555 1_555
H8A C5A 1_555 1_555
H9A C6A 1_555 1_555
H10A C6A 1_555 1_555
N1A C1A 1_555 1_555
C7A N1A 1_555 1_555
C8A C7A 1_555 1_555
C9A C8A 1_555 1_555
H11A C9A 1_555 1_555
C10A C9A 1_555 1_555
C11A C10A 1_555 1_555
N2B C11A 1_555 1_555
C2B N2B 1_555 1_555
C1B C2B 1_555 1_555
H1B C1B 1_555 1_555
C6B C1B 1_555 1_555
C5B C6B 1_555 1_555
C4B C5B 1_555 1_555
C3B C2B 1_555 1_555
H2B C2B 1_555 1_555
H3B C3B 1_555 1_555
H4B C3B 1_555 1_555
H5B C4B 1_555 1_555
H6B C4B 1_555 1_555
H7B C5B 1_555 1_555
H8B C5B 1_555 1_555
H9B C6B 1_555 1_555
H10B C6B 1_555 1_555
N1B C1B 1_555 1_555
C7B N1B 1_555 1_555
C8B C7B 1_555 1_555
C9B C8B 1_555 1_555
H11B C9B 1_555 1_555
C10B C9B 1_555 1_555
C11B N2 1_555 1_555
C12B N2 1_555 1_555
C13B C10B 1_555 1_555
C14B C13B 1_555 1_555
H12B C14B 1_555 1_555
C15B C8B 1_555 1_555
C16B N1B 1_555 1_555
O4B C16B 1_555 1_555
O3B C12B 1_555 1_555
O2B C11B 1_555 1_555
O1B C7B 1_555 1_555
C12A N2B 1_555 1_555
C13A C10A 1_555 1_555
C14A C13A 1_555 1_555
H12A C14A 1_555 1_555
C15A C8A 1_555 1_555
C16A N1A 1_555 1_555
O4A C16A 1_555 1_555
O3A C12A 1_555 1_555
O2A C11A 1_555 1_555
O1A C7A 1_555 1_555
C17B C18 1_555 1_555
H13B C17B 1_555 1_555
C18B C17B 1_555 1_555
C17A C18B 1_555 1_555
H13A C17A 1_555 1_555
C18A C17 1_555 1_555
H14A C18A 1_555 1_555
H14B C18B 1_555 1_555
C19A C20 1_555 1_555
H15A C19A 1_555 1_555
C20A C19A 1_555 1_555
C19B C20A 1_555 1_555
H15B C19B 1_555 1_555
C20B C19 1_555 1_555
H16B C20B 1_555 1_555
H16A C20A 1_555 1_555
C5 C6 1_555 1_555
C7 N1 1_555 1_555
C12 N2A 1_555 1_555
C14 C15 1_555 1_555
C16 N1 1_555 1_555
C4A C3A 1_555 1_555
C4B C3B 1_555 1_555
C10B C11B 1_555 1_555
C12B C13B 1_555 1_555
C14B C15B 1_555 1_555
C15B C16B 1_555 1_555
C12A C13A 1_555 1_555
C14A C15A 1_555 1_555
C15A C16A 1_555 1_555
C17A C18A 1_555 1_555
C19B C20B 1_555 1_555

#END
