
#######################################################################
#
#                 Cambridge Crystallographic Data Centre
#                                CCDC 
#
#######################################################################
#
# If this CIF has been generated from an entry in the Cambridge 
# Structural Database, then it will include bibliographic, chemical, 
# crystal, experimental, refinement or atomic coordinate data resulting 
# from the CCDC's data processing and validation procedures.
#
#######################################################################

data_MOLWUH
_chemical_name_common            
'5,17-dichloro-11,23-bis(N-ethylformamido)-2,8,14,20-tetraoxacalix[2]arene[2]triazene methanol solvate monohydrate'
_chemical_formula_moiety         'C26 H22 Cl2 N8 O6,C1 H4 O1,H2 O1'
_chemical_name_systematic        
"5,17-dichloro-N,N'-dipropyl-2,8,14,20-tetraoxa-4,6,16,18,26,28-hexaazapentacyclo[19.3.1.1^3,7^.1^9,13^.1^15,19^]octacosa-1(25),3(28),4,6,9(27),10,12,15(26),16,18,21,23-dodecaene-11,23-dicarboxamide methanol solvate monohydrate"
_symmetry_cell_setting           monoclinic
_symmetry_space_group_name_H-M   'P 21/n'
_symmetry_Int_Tables_number      14
_space_group_name_Hall           '-P 2yn'
loop_
_symmetry_equiv_pos_site_id
_symmetry_equiv_pos_as_xyz
1 x,y,z
2 1/2-x,1/2+y,1/2-z
3 -x,-y,-z
4 1/2+x,1/2-y,1/2+z
_cell_length_a                   11.836(2)
_cell_length_b                   14.185(3)
_cell_length_c                   19.156(4)
_cell_angle_alpha                90
_cell_angle_beta                 104.43(3)
_cell_angle_gamma                90
_cell_volume                     3114.71
_exptl_crystal_colour            colorless
_exptl_crystal_description       plate
_cell_formula_units_Z            4
_exptl_crystal_recrystallization_method methanol
loop_
_atom_site_label
_atom_site_type_symbol
_atom_site_fract_x
_atom_site_fract_y
_atom_site_fract_z
Cl1 Cl 0.12257(12) 0.58385(10) 0.72281(7)
Cl2 Cl -0.05250(12) -0.08411(9) 0.26851(7)
O1 O 0.2364(2) 0.26886(19) 0.67390(15)
O2 O 0.1771(2) 0.48565(18) 0.49096(15)
O3 O 0.1002(2) 0.23150(19) 0.31779(15)
O4 O 0.1751(2) 0.01547(18) 0.50169(16)
O5 O 0.5588(2) 0.42846(19) 0.41884(16)
O6 O 0.6160(2) 0.06391(19) 0.58436(17)
N1 N 0.1482(3) 0.5288(2) 0.5981(2)
N2 N 0.1837(3) 0.4162(3) 0.69437(19)
N3 N 0.2132(3) 0.3738(2) 0.57964(18)
N4 N 0.0341(3) 0.0834(2) 0.29626(19)
N5 N 0.1450(3) 0.1284(2) 0.41327(18)
N6 N 0.0657(3) -0.0269(2) 0.3937(2)
N7 N 0.5425(3) 0.2759(2) 0.3838(2)
H1 H 0.4968 0.2261 0.3758
N8 N 0.6280(3) 0.2193(2) 0.6096(2)
H2 H 0.5901 0.2712 0.6145
C1 C 0.1545(3) 0.5003(3) 0.6642(2)
C2 C 0.2100(3) 0.3561(3) 0.6471(2)
C3 C 0.1813(3) 0.4605(3) 0.5589(2)
C4 C 0.2165(4) 0.4189(3) 0.4477(2)
C5 C 0.3331(3) 0.4204(3) 0.4467(2)
H3 H 0.3856 0.4641 0.4754
C6 C 0.3718(3) 0.3561(3) 0.4024(2)
C7 C 0.2931(3) 0.2942(3) 0.3598(2)
H4 H 0.3182 0.2512 0.3287
C8 C 0.1783(4) 0.2960(3) 0.3630(2)
C9 C 0.1369(3) 0.3571(3) 0.4067(2)
H5 H 0.0574 0.3567 0.4085
C10 C 0.4993(3) 0.3564(3) 0.4026(2)
C11 C 0.6620(4) 0.2664(3) 0.3759(3)
H6 H 0.6621 0.2789 0.3251
H7 H 0.7116 0.3147 0.4061
C12 C 0.7129(4) 0.1738(4) 0.3962(4)
H8 H 0.6637 0.1252 0.3661
H9 H 0.7135 0.1612 0.4471
C13 C 0.8358(5) 0.1662(4) 0.3873(4)
H10 H 0.8362 0.1813 0.3375
H11 H 0.8646 0.1019 0.3987
H12 H 0.8863 0.2106 0.4201
C14 C 0.0944(3) 0.1446(3) 0.3450(2)
C15 C 0.1282(3) 0.0414(3) 0.4334(2)
C16 C 0.0248(4) 0.0001(3) 0.3264(3)
C17 C 0.2501(4) 0.0822(3) 0.5458(2)
C18 C 0.3675(3) 0.0782(3) 0.5487(2)
H13 H 0.3973 0.0327 0.5216
C19 C 0.4415(3) 0.1428(3) 0.5928(2)
C20 C 0.3965(3) 0.2065(3) 0.6333(2)
H14 H 0.4462 0.2503 0.6638
C21 C 0.2791(4) 0.2056(3) 0.6290(2)
C22 C 0.2025(4) 0.1447(3) 0.5859(2)
H15 H 0.1215 0.1453 0.5837
C23 C 0.5695(4) 0.1395(3) 0.5954(2)
C24 C 0.7546(4) 0.2241(3) 0.6176(3)
H16 H 0.7792 0.1692 0.5930
H17 H 0.7950 0.2201 0.6694
C25 C 0.7904(4) 0.3124(3) 0.5871(3)
H18 H 0.7714 0.3672 0.6141
H19 H 0.7461 0.3188 0.5361
C26 C 0.9206(4) 0.3121(4) 0.5913(4)
H20 H 0.9382 0.2619 0.5605
H21 H 0.9643 0.3011 0.6412
H22 H 0.9432 0.3731 0.5749
O7 O 0.5445(3) 0.4021(2) 0.64301(18)
H23 H 0.5325 0.4187 0.6826
H24 H 0.5228 0.4553 0.6255
O8 O 0.9104(4) 0.4048(2) 0.8413(2)
H25 H 0.9036 0.4472 0.8707
C27 C 0.8761(10) 0.4399(6) 0.7721(5)
H26 H 0.9377 0.4805 0.7627
H27 H 0.8043 0.4767 0.7666
H28 H 0.8619 0.3875 0.7376
loop_
_geom_bond_atom_site_label_1
_geom_bond_atom_site_label_2
_geom_bond_site_symmetry_1
_geom_bond_site_symmetry_2
Cl1 C1 1_555 1_555
Cl2 C16 1_555 1_555
O1 C2 1_555 1_555
O2 C3 1_555 1_555
O3 C8 1_555 1_555
O4 C15 1_555 1_555
O5 C10 1_555 1_555
O6 C23 1_555 1_555
N1 C1 1_555 1_555
N2 C1 1_555 1_555
N3 C2 1_555 1_555
N4 C14 1_555 1_555
N5 C14 1_555 1_555
N6 C15 1_555 1_555
N7 H1 1_555 1_555
N8 H2 1_555 1_555
C2 N2 1_555 1_555
C3 N1 1_555 1_555
C4 O2 1_555 1_555
C5 C4 1_555 1_555
H3 C5 1_555 1_555
C6 C5 1_555 1_555
C7 C6 1_555 1_555
H4 C7 1_555 1_555
C8 C7 1_555 1_555
C9 C4 1_555 1_555
H5 C9 1_555 1_555
C10 N7 1_555 1_555
C11 N7 1_555 1_555
H6 C11 1_555 1_555
H7 C11 1_555 1_555
C12 C11 1_555 1_555
H8 C12 1_555 1_555
H9 C12 1_555 1_555
C13 C12 1_555 1_555
H10 C13 1_555 1_555
H11 C13 1_555 1_555
H12 C13 1_555 1_555
C14 O3 1_555 1_555
C15 N5 1_555 1_555
C16 N4 1_555 1_555
C17 O4 1_555 1_555
C18 C17 1_555 1_555
H13 C18 1_555 1_555
C19 C18 1_555 1_555
C20 C19 1_555 1_555
H14 C20 1_555 1_555
C21 O1 1_555 1_555
C22 C17 1_555 1_555
H15 C22 1_555 1_555
C23 N8 1_555 1_555
C24 N8 1_555 1_555
H16 C24 1_555 1_555
H17 C24 1_555 1_555
C25 C24 1_555 1_555
H18 C25 1_555 1_555
H19 C25 1_555 1_555
C26 C25 1_555 1_555
H20 C26 1_555 1_555
H21 C26 1_555 1_555
H22 C26 1_555 1_555
O7 H23 1_555 1_555
H24 O7 1_555 1_555
O8 H25 1_555 1_555
C27 O8 1_555 1_555
H26 C27 1_555 1_555
H27 C27 1_555 1_555
H28 C27 1_555 1_555
N3 C3 1_555 1_555
N6 C16 1_555 1_555
C6 C10 1_555 1_555
C8 C9 1_555 1_555
C19 C23 1_555 1_555
C20 C21 1_555 1_555
C21 C22 1_555 1_555

#END
