
#######################################################################
#
#                 Cambridge Crystallographic Data Centre
#                                CCDC 
#
#######################################################################
#
# If this CIF has been generated from an entry in the Cambridge 
# Structural Database, then it will include bibliographic, chemical, 
# crystal, experimental, refinement or atomic coordinate data resulting 
# from the CCDC's data processing and validation procedures.
#
#######################################################################

data_MOMPOV
_chemical_formula_moiety         'C23 H24 N4 O2'
_chemical_name_systematic        
'ethyl cyano(5,5-dimethyl-3-(2-(4-(1H-1,2,4-triazol-1-yl)phenyl)vinyl)cyclohex-2-en-1-ylidene)acetate'
_symmetry_cell_setting           monoclinic
_symmetry_space_group_name_H-M   'C 2/c'
_symmetry_Int_Tables_number      15
_space_group_name_Hall           '-C 2yn'
loop_
_symmetry_equiv_pos_site_id
_symmetry_equiv_pos_as_xyz
1 x,y,z
2 -x,y,1/2-z
3 1/2+x,1/2+y,z
4 1/2-x,1/2+y,1/2-z
5 -x,-y,-z
6 x,-y,1/2+z
7 1/2-x,1/2-y,-z
8 1/2+x,1/2-y,1/2+z
_cell_length_a                   30.567(5)
_cell_length_b                   7.925(5)
_cell_length_c                   17.725(5)
_cell_angle_alpha                90
_cell_angle_beta                 98.370(5)
_cell_angle_gamma                90
_cell_volume                     4248.03
_exptl_crystal_colour            yellow
_exptl_crystal_description       block
_cell_formula_units_Z            8
loop_
_atom_site_label
_atom_site_type_symbol
_atom_site_fract_x
_atom_site_fract_y
_atom_site_fract_z
N1 N 0.22029(6) 1.2630(2) 1.10632(9)
C1 C 0.20542(7) 1.1416(3) 1.04909(11)
O1 O 0.05865(7) 0.9047(2) 0.44949(10)
C2 C 0.18678(8) 1.1956(3) 0.97769(12)
H1 H 0.1839 1.3103 0.9671
C3 C 0.10267(8) 0.6441(3) 0.61004(12)
N2 N 0.21641(7) 1.4311(3) 1.09259(11)
C4 C 0.17668(8) 0.9065(3) 0.93570(12)
C5 C 0.13269(8) 0.6937(3) 0.74445(12)
C6 C 0.08550(9) 0.7055(3) 0.54005(13)
C7 C 0.17256(8) 1.0792(3) 0.92244(12)
H2 H 0.1598 1.1167 0.8746
C8 C 0.12889(9) 0.5110(3) 0.76305(13)
H3 H 0.1191 0.5014 0.8125
H4 H 0.1580 0.4600 0.7671
C9 C 0.11974(8) 0.7522(3) 0.67307(12)
H5 H 0.1219 0.8673 0.6641
C10 C 0.09742(8) 0.4122(3) 0.70531(12)
C11 C 0.10605(9) 0.4587(3) 0.62480(12)
H6 H 0.1354 0.4205 0.6180
H7 H 0.0848 0.4005 0.5877
N3 N 0.24886(8) 1.3847(3) 1.21289(11)
C12 C 0.07911(10) 0.8853(4) 0.51998(14)
C13 C 0.16193(8) 0.7811(3) 0.87735(13)
H8 H 0.1610 0.6695 0.8932
O2 O 0.09061(9) 1.0028(3) 0.56036(11)
C14 C 0.23963(9) 1.2411(3) 1.17811(13)
H9 H 0.2458 1.1361 1.2007
C15 C 0.19529(9) 0.8559(3) 1.00843(13)
H10 H 0.1982 0.7414 1.0194
C16 C 0.07232(11) 0.5890(4) 0.47905(14)
C17 C 0.23398(9) 1.4960(3) 1.15743(13)
H11 H 0.2361 1.6119 1.1651
C18 C 0.14957(8) 0.8120(3) 0.80336(12)
H12 H 0.1522 0.9232 0.7879
C19 C 0.20959(9) 0.9717(3) 1.06455(13)
H13 H 0.2220 0.9352 1.1128
C20 C 0.04836(13) 1.0781(4) 0.42485(18)
H14 H 0.0314 1.1328 0.4601
H15 H 0.0755 1.1411 0.4243
C21 C 0.10515(11) 0.2248(3) 0.71851(15)
H16 H 0.1350 0.1973 0.7121
H17 H 0.0850 0.1621 0.6824
H18 H 0.1004 0.1963 0.7693
N4 N 0.06312(13) 0.4958(4) 0.43058(14)
C22 C 0.05013(9) 0.4558(4) 0.71419(17)
H19 H 0.0302 0.3930 0.6778
H20 H 0.0453 0.5744 0.7056
H21 H 0.0449 0.4276 0.7648
C23 C 0.02327(17) 1.0756(6) 0.3496(2)
H22 H 0.0402 1.0208 0.3151
H23 H 0.0168 1.1892 0.3328
H24 H -0.0039 1.0152 0.3507
loop_
_geom_bond_atom_site_label_1
_geom_bond_atom_site_label_2
_geom_bond_site_symmetry_1
_geom_bond_site_symmetry_2
N1 C1 1_555 1_555
C1 C2 1_555 1_555
O1 C12 1_555 1_555
C2 H1 1_555 1_555
C3 C6 1_555 1_555
N2 N1 1_555 1_555
C4 C7 1_555 1_555
C5 C8 1_555 1_555
C6 C12 1_555 1_555
C7 C2 1_555 1_555
H2 C7 1_555 1_555
C8 H3 1_555 1_555
H4 C8 1_555 1_555
C9 C3 1_555 1_555
H5 C9 1_555 1_555
C10 C8 1_555 1_555
C11 C3 1_555 1_555
H6 C11 1_555 1_555
H7 C11 1_555 1_555
N3 C14 1_555 1_555
C12 O2 1_555 1_555
C13 C4 1_555 1_555
H8 C13 1_555 1_555
C14 N1 1_555 1_555
H9 C14 1_555 1_555
C15 C4 1_555 1_555
H10 C15 1_555 1_555
C16 C6 1_555 1_555
C17 N2 1_555 1_555
H11 C17 1_555 1_555
C18 C5 1_555 1_555
H12 C18 1_555 1_555
C19 C1 1_555 1_555
H13 C19 1_555 1_555
C20 O1 1_555 1_555
H14 C20 1_555 1_555
H15 C20 1_555 1_555
C21 C10 1_555 1_555
H16 C21 1_555 1_555
H17 C21 1_555 1_555
H18 C21 1_555 1_555
N4 C16 1_555 1_555
C22 C10 1_555 1_555
H19 C22 1_555 1_555
H20 C22 1_555 1_555
H21 C22 1_555 1_555
C23 C20 1_555 1_555
H22 C23 1_555 1_555
H23 C23 1_555 1_555
H24 C23 1_555 1_555
C5 C9 1_555 1_555
C10 C11 1_555 1_555
N3 C17 1_555 1_555
C13 C18 1_555 1_555
C15 C19 1_555 1_555

#END
