
#######################################################################
#
#                 Cambridge Crystallographic Data Centre
#                                CCDC 
#
#######################################################################
#
# If this CIF has been generated from an entry in the Cambridge 
# Structural Database, then it will include bibliographic, chemical, 
# crystal, experimental, refinement or atomic coordinate data resulting 
# from the CCDC's data processing and validation procedures.
#
#######################################################################

data_MOMSIQ
_chemical_formula_moiety         'C4 H12 N1 1+,C24 H20 B1 1-,C4 H11 N1'
_chemical_name_systematic        
't-Butylammonium tetraphenylborate t-butylamine'
_symmetry_cell_setting           orthorhombic
_symmetry_space_group_name_H-M   'P 21 21 21'
_symmetry_Int_Tables_number      19
_space_group_name_Hall           'P 2ac 2ab'
loop_
_symmetry_equiv_pos_site_id
_symmetry_equiv_pos_as_xyz
1 x,y,z
2 1/2-x,-y,1/2+z
3 1/2+x,1/2-y,-z
4 -x,1/2+y,1/2-z
_cell_length_a                   9.6400(10)
_cell_length_b                   16.045(3)
_cell_length_c                   18.879(3)
_cell_angle_alpha                90
_cell_angle_beta                 90
_cell_angle_gamma                90
_cell_volume                     2920.09
_exptl_crystal_colour            white
_exptl_crystal_description       prism
_cell_formula_units_Z            4
_exptl_crystal_recrystallization_method benzene
loop_
_atom_site_label
_atom_site_type_symbol
_atom_site_fract_x
_atom_site_fract_y
_atom_site_fract_z
B1 B 0.6313(11) 0.4927(6) 0.0881(5)
C1 C 0.6877(9) 0.4785(6) 0.1697(5)
C2 C 0.7616(11) 0.5388(7) 0.2084(6)
H1 H 0.7866 0.5886 0.1865
C3 C 0.7985(12) 0.5253(9) 0.2796(6)
H2 H 0.8516 0.5646 0.3036
C4 C 0.7573(14) 0.4557(9) 0.3130(6)
H3 H 0.7782 0.4480 0.3606
C5 C 0.6867(12) 0.3979(8) 0.2778(7)
H4 H 0.6610 0.3493 0.3011
C6 C 0.6509(11) 0.4082(6) 0.2081(5)
H5 H 0.6001 0.3665 0.1858
C7 C 0.7141(11) 0.5668(6) 0.0466(5)
C8 C 0.8582(11) 0.5650(7) 0.0433(5)
H6 H 0.9061 0.5240 0.0681
C9 C 0.9316(11) 0.6224(7) 0.0044(5)
H7 H 1.0276 0.6178 0.0017
C10 C 0.8648(13) 0.6879(6) -0.0314(5)
H8 H 0.9151 0.7294 -0.0542
C11 C 0.7217(13) 0.6881(6) -0.0314(5)
H9 H 0.6742 0.7275 -0.0581
C12 C 0.6497(9) 0.6314(6) 0.0072(5)
H10 H 0.5534 0.6351 0.0079
C13 C 0.4672(8) 0.5168(6) 0.1006(4)
C14 C 0.4288(11) 0.5943(7) 0.1270(5)
H11 H 0.4984 0.6334 0.1347
C15 C 0.2926(12) 0.6171(7) 0.1427(5)
H12 H 0.2710 0.6704 0.1586
C16 C 0.1903(12) 0.5568(10) 0.1335(6)
H13 H 0.0983 0.5695 0.1436
C17 C 0.2250(13) 0.4784(8) 0.1095(6)
H14 H 0.1564 0.4380 0.1052
C18 C 0.3583(10) 0.4593(6) 0.0920(5)
H15 H 0.3779 0.4067 0.0739
C19 C 0.6508(10) 0.4092(6) 0.0398(5)
C20 C 0.7567(11) 0.3521(6) 0.0520(5)
H16 H 0.8106 0.3584 0.0925
C21 C 0.7855(13) 0.2874(7) 0.0079(6)
H17 H 0.8585 0.2517 0.0185
C22 C 0.7082(13) 0.2743(7) -0.0521(7)
H18 H 0.7247 0.2286 -0.0812
C23 C 0.6030(11) 0.3323(7) -0.0683(5)
H19 H 0.5515 0.3269 -0.1097
C24 C 0.5778(10) 0.3960(7) -0.0230(5)
H20 H 0.5073 0.4333 -0.0344
N1 N 0.5921(9) 0.0278(5) 0.2056(4)
C25 C 0.6126(11) 0.0983(7) 0.1519(6)
C26 C 0.5146(12) 0.1679(8) 0.1686(7)
H21 H 0.5341 0.1890 0.2152
H22 H 0.4210 0.1476 0.1670
H23 H 0.5259 0.2117 0.1345
C27 C 0.7582(12) 0.1285(8) 0.1592(7)
H24 H 0.7713 0.1516 0.2056
H25 H 0.7761 0.1705 0.1241
H26 H 0.8211 0.0828 0.1524
C28 C 0.5871(16) 0.0634(9) 0.0804(6)
H27 H 0.4925 0.0451 0.0770
H28 H 0.6479 0.0170 0.0724
H29 H 0.6042 0.1055 0.0453
N2 N 0.6768(17) 0.0826(7) -0.2834(8)
C29 C 0.6796(11) 0.1661(8) -0.3095(7)
C31 C 0.827(3) 0.2062(18) -0.3296(17)
C33 C 0.627(4) 0.132(2) -0.3860(18)
C35 C 0.562(4) 0.207(2) -0.261(2)
C30? C 0.790(3) 0.2018(17) -0.2664(17)
C32? C 0.727(5) 0.169(3) -0.384(2)
C34? C 0.543(3) 0.217(2) -0.304(2)
loop_
_geom_bond_atom_site_label_1
_geom_bond_atom_site_label_2
_geom_bond_site_symmetry_1
_geom_bond_site_symmetry_2
B1 C1 1_555 1_555
C1 C2 1_555 1_555
C2 H1 1_555 1_555
C3 C2 1_555 1_555
H2 C3 1_555 1_555
C4 C3 1_555 1_555
H3 C4 1_555 1_555
C5 C4 1_555 1_555
H4 C5 1_555 1_555
C6 C1 1_555 1_555
H5 C6 1_555 1_555
C7 B1 1_555 1_555
C8 C7 1_555 1_555
H6 C8 1_555 1_555
C9 C8 1_555 1_555
H7 C9 1_555 1_555
C10 C9 1_555 1_555
H8 C10 1_555 1_555
C11 C10 1_555 1_555
H9 C11 1_555 1_555
C12 C7 1_555 1_555
H10 C12 1_555 1_555
C13 B1 1_555 1_555
C14 C13 1_555 1_555
H11 C14 1_555 1_555
C15 C14 1_555 1_555
H12 C15 1_555 1_555
C16 C15 1_555 1_555
H13 C16 1_555 1_555
C17 C16 1_555 1_555
H14 C17 1_555 1_555
C18 C13 1_555 1_555
H15 C18 1_555 1_555
C19 B1 1_555 1_555
C20 C19 1_555 1_555
H16 C20 1_555 1_555
C21 C20 1_555 1_555
H17 C21 1_555 1_555
C22 C21 1_555 1_555
H18 C22 1_555 1_555
C23 C22 1_555 1_555
H19 C23 1_555 1_555
C24 C19 1_555 1_555
H20 C24 1_555 1_555
N1 C25 1_555 1_555
C25 C26 1_555 1_555
C26 H21 1_555 1_555
H22 C26 1_555 1_555
H23 C26 1_555 1_555
C27 C25 1_555 1_555
H24 C27 1_555 1_555
H25 C27 1_555 1_555
H26 C27 1_555 1_555
C28 C25 1_555 1_555
H27 C28 1_555 1_555
H28 C28 1_555 1_555
H29 C28 1_555 1_555
N2 C29 1_555 1_555
C29 C31 1_555 1_555
C33 C29 1_555 1_555
C35 C29 1_555 1_555
C5 C6 1_555 1_555
C11 C12 1_555 1_555
C17 C18 1_555 1_555
C23 C24 1_555 1_555

#END
