
#######################################################################
#
#                 Cambridge Crystallographic Data Centre
#                                CCDC 
#
#######################################################################
#
# If this CIF has been generated from an entry in the Cambridge 
# Structural Database, then it will include bibliographic, chemical, 
# crystal, experimental, refinement or atomic coordinate data resulting 
# from the CCDC's data processing and validation procedures.
#
#######################################################################

data_MOPCAX
_chemical_formula_moiety         'C26 H21 N1 O3'
_chemical_name_systematic        
1'-acetyl-4,5-diphenyl-2H-spiro[cyclopentane-1,2'-indole]-2,3'(1'H)-dione
_symmetry_cell_setting           orthorhombic
_symmetry_space_group_name_H-M   'P 21 21 21'
_symmetry_Int_Tables_number      19
_space_group_name_Hall           'P 2ac 2ab'
loop_
_symmetry_equiv_pos_site_id
_symmetry_equiv_pos_as_xyz
1 x,y,z
2 1/2-x,-y,1/2+z
3 -x,1/2+y,1/2-z
4 1/2+x,1/2-y,-z
_cell_length_a                   10.0642(3)
_cell_length_b                   12.0270(4)
_cell_length_c                   17.5802(7)
_cell_angle_alpha                90
_cell_angle_beta                 90
_cell_angle_gamma                90
_cell_volume                     2127.94
_exptl_crystal_colour            colorless
_exptl_crystal_description       prism
_cell_formula_units_Z            4
loop_
_atom_site_label
_atom_site_type_symbol
_atom_site_fract_x
_atom_site_fract_y
_atom_site_fract_z
N1 N 0.34915(13) 0.47412(10) 0.62081(7)
O1 O 0.19805(14) 0.67677(11) 0.57328(8)
O2 O 0.53512(14) 0.71745(10) 0.58846(7)
O3 O 0.18763(11) 0.42300(11) 0.54112(7)
C1 C 0.39248(15) 0.55790(12) 0.56534(8)
C2 C 0.27887(17) 0.63109(14) 0.53390(10)
C3 C 0.2946(2) 0.63982(16) 0.44876(10)
H1 H 0.2847 0.7171 0.4321
H2 H 0.2278 0.5943 0.4228
C4 C 0.43493(17) 0.59707(14) 0.43157(9)
H3 H 0.4986 0.6587 0.4395
C5 C 0.45940(15) 0.50799(12) 0.49338(8)
H4 H 0.4070 0.4417 0.4788
C6 C 0.48912(17) 0.62970(13) 0.61043(9)
C7 C 0.51331(17) 0.57198(14) 0.68185(9)
C8 C 0.6059(2) 0.59649(17) 0.73809(11)
H5 H 0.6658 0.6558 0.7321
C9 C 0.6078(2) 0.53191(18) 0.80261(12)
H6 H 0.6687 0.5472 0.8418
C10 C 0.5201(2) 0.44477(18) 0.80948(11)
H7 H 0.5219 0.4020 0.8542
C11 C 0.4292(2) 0.41720(17) 0.75314(10)
H8 H 0.3712 0.3566 0.7590
C12 C 0.42694(17) 0.48236(13) 0.68785(9)
C13 C 0.24382(16) 0.40664(14) 0.60169(10)
C14 C 0.2050(2) 0.31435(16) 0.65410(12)
H9 H 0.1315 0.2732 0.6322
H10 H 0.1783 0.3451 0.7028
H11 H 0.2801 0.2649 0.6614
C15 C 0.45542(17) 0.55057(15) 0.35223(9)
C16 C 0.3773(2) 0.46436(17) 0.32518(10)
H12 H 0.3083 0.4362 0.3556
C17 C 0.3996(3) 0.4188(2) 0.25346(12)
H13 H 0.3455 0.3606 0.2357
C18 C 0.5004(3) 0.4589(3) 0.20885(12)
H14 H 0.5159 0.4282 0.1605
C19 C 0.5782(3) 0.5435(3) 0.23491(12)
H15 H 0.6477 0.5706 0.2044
C20 C 0.5559(2) 0.5901(2) 0.30626(10)
H16 H 0.6098 0.6490 0.3232
C21 C 0.60069(16) 0.46981(13) 0.50489(8)
C22 C 0.70967(17) 0.54045(17) 0.49509(9)
H17 H 0.6961 0.6142 0.4792
C23 C 0.83711(19) 0.5027(2) 0.50850(11)
H18 H 0.9094 0.5511 0.5017
C24 C 0.8593(2) 0.3965(2) 0.53135(13)
H19 H 0.9465 0.3718 0.5405
C25 C 0.7543(3) 0.3254(2) 0.54112(14)
H20 H 0.7697 0.2518 0.5569
C26 C 0.62469(19) 0.36164(15) 0.52770(11)
H21 H 0.5532 0.3122 0.5342
loop_
_geom_bond_atom_site_label_1
_geom_bond_atom_site_label_2
_geom_bond_site_symmetry_1
_geom_bond_site_symmetry_2
N1 C1 1_555 1_555
O1 C2 1_555 1_555
O2 C6 1_555 1_555
O3 C13 1_555 1_555
C1 C2 1_555 1_555
C2 C3 1_555 1_555
C3 H1 1_555 1_555
H2 C3 1_555 1_555
C4 C3 1_555 1_555
H3 C4 1_555 1_555
C5 C1 1_555 1_555
H4 C5 1_555 1_555
C6 C1 1_555 1_555
C7 C6 1_555 1_555
C8 C7 1_555 1_555
H5 C8 1_555 1_555
C9 C8 1_555 1_555
H6 C9 1_555 1_555
C10 C9 1_555 1_555
H7 C10 1_555 1_555
C11 C10 1_555 1_555
H8 C11 1_555 1_555
C12 N1 1_555 1_555
C13 N1 1_555 1_555
C14 C13 1_555 1_555
H9 C14 1_555 1_555
H10 C14 1_555 1_555
H11 C14 1_555 1_555
C15 C4 1_555 1_555
C16 C15 1_555 1_555
H12 C16 1_555 1_555
C17 C16 1_555 1_555
H13 C17 1_555 1_555
C18 C17 1_555 1_555
H14 C18 1_555 1_555
C19 C18 1_555 1_555
H15 C19 1_555 1_555
C20 C15 1_555 1_555
H16 C20 1_555 1_555
C21 C5 1_555 1_555
C22 C21 1_555 1_555
H17 C22 1_555 1_555
C23 C22 1_555 1_555
H18 C23 1_555 1_555
C24 C23 1_555 1_555
H19 C24 1_555 1_555
C25 C24 1_555 1_555
H20 C25 1_555 1_555
C26 C21 1_555 1_555
H21 C26 1_555 1_555
C4 C5 1_555 1_555
C7 C12 1_555 1_555
C11 C12 1_555 1_555
C19 C20 1_555 1_555
C25 C26 1_555 1_555

#END
