
#######################################################################
#
#                 Cambridge Crystallographic Data Centre
#                                CCDC 
#
#######################################################################
#
# If this CIF has been generated from an entry in the Cambridge 
# Structural Database, then it will include bibliographic, chemical, 
# crystal, experimental, refinement or atomic coordinate data resulting 
# from the CCDC's data processing and validation procedures.
#
#######################################################################

data_MOPGUV
_chemical_formula_moiety         'C10 H12 N2'
_chemical_name_systematic        2,2'-ethane-1,2-diylbis(1H-pyrrole)
_symmetry_cell_setting           monoclinic
_symmetry_space_group_name_H-M   'P 21/c'
_symmetry_Int_Tables_number      14
_space_group_name_Hall           '-P 2ybc'
loop_
_symmetry_equiv_pos_site_id
_symmetry_equiv_pos_as_xyz
1 x,y,z
2 -x,1/2+y,1/2-z
3 -x,-y,-z
4 x,1/2-y,1/2+z
_cell_length_a                   5.2963(10)
_cell_length_b                   7.4802(14)
_cell_length_c                   11.401(2)
_cell_angle_alpha                90
_cell_angle_beta                 99.512(3)
_cell_angle_gamma                90
_cell_volume                     445.468
_exptl_crystal_colour            colorless
_exptl_crystal_description       block
_chemical_melting_point          '381 K'
_cell_formula_units_Z            2
loop_
_atom_site_label
_atom_site_type_symbol
_atom_site_fract_x
_atom_site_fract_y
_atom_site_fract_z
N1 N 0.9266(6) 1.0610(4) 0.7549(3)
C1 C 0.6259(6) 0.8810(4) 0.7855(3)
C2 C 0.8094(7) 0.9895(4) 0.8412(3)
C3 C 0.6226(7) 0.8898(5) 0.6654(3)
C4 C 0.8696(8) 1.0337(6) 0.9715(4)
H1 H 0.7402 0.9810 1.0118
H2 H 0.8632 1.1623 0.9814
C5 C 0.8145(8) 1.0023(5) 0.6479(3)
H3 H 1.041(10) 1.124(7) 0.763(4)
H4 H 0.493(8) 0.822(6) 0.835(3)
H5 H 0.866(10) 1.042(6) 0.599(5)
H6 H 0.532(8) 0.818(6) 0.608(4)
N1B N 1.0734(6) 0.9390(4) 1.2451(3)
C1B C 1.3741(6) 1.1190(4) 1.2145(3)
C2B C 1.1906(7) 1.0105(4) 1.1588(3)
C3B C 1.3774(7) 1.1102(5) 1.3346(3)
C4B C 1.1304(8) 0.9663(6) 1.0285(4)
H1B H 1.2598 1.0190 0.9882
H2B H 1.1368 0.8377 1.0186
C5B C 1.1855(8) 0.9977(5) 1.3521(3)
H3B H 0.959(10) 0.876(7) 1.237(4)
H4B H 1.507(8) 1.178(6) 1.165(3)
H5B H 1.134(10) 0.958(6) 1.401(5)
H6B H 1.468(8) 1.182(6) 1.392(4)
loop_
_geom_bond_atom_site_label_1
_geom_bond_atom_site_label_2
_geom_bond_site_symmetry_1
_geom_bond_site_symmetry_2
N1 C2 1_555 1_555
C1 C2 1_555 1_555
C2 C4 1_555 1_555
C3 C1 1_555 1_555
C4 H1 1_555 1_555
H2 C4 1_555 1_555
C5 N1 1_555 1_555
H3 N1 1_555 1_555
H4 C1 1_555 1_555
H5 C5 1_555 1_555
H6 C3 1_555 1_555
N1B C2B 1_555 1_555
C1B C2B 1_555 1_555
C2B C4B 1_555 1_555
C3B C1B 1_555 1_555
C4B C4 1_555 1_555
H1B C4B 1_555 1_555
H2B C4B 1_555 1_555
C5B N1B 1_555 1_555
H3B N1B 1_555 1_555
H4B C1B 1_555 1_555
H5B C5B 1_555 1_555
H6B C3B 1_555 1_555
C3 C5 1_555 1_555
C3B C5B 1_555 1_555

#END
