
#######################################################################
#
#                 Cambridge Crystallographic Data Centre
#                                CCDC 
#
#######################################################################
#
# If this CIF has been generated from an entry in the Cambridge 
# Structural Database, then it will include bibliographic, chemical, 
# crystal, experimental, refinement or atomic coordinate data resulting 
# from the CCDC's data processing and validation procedures.
#
#######################################################################

data_MOPPOX
_chemical_formula_moiety         'C18 H21 N1 O6'
_chemical_name_systematic        
2,2-Dimethyl-4'-(4-methylphenyl)dihydro-5'H-spiro[1,3-dioxolo[4,5-c]pyran-6,2'-[1,4]oxazinane]-5',7(4H)-dione
_symmetry_cell_setting           monoclinic
_symmetry_space_group_name_H-M   'P 21'
_symmetry_Int_Tables_number      4
_space_group_name_Hall           'P 2yb'
loop_
_symmetry_equiv_pos_site_id
_symmetry_equiv_pos_as_xyz
1 x,y,z
2 -x,1/2+y,-z
_cell_length_a                   9.5204(3)
_cell_length_b                   6.5582(2)
_cell_length_c                   13.2707(4)
_cell_angle_alpha                90
_cell_angle_beta                 91.632(2)
_cell_angle_gamma                90
_cell_volume                     828.242
_exptl_crystal_colour            colorless
_exptl_crystal_description       cube
_cell_formula_units_Z            2
loop_
_atom_site_label
_atom_site_type_symbol
_atom_site_fract_x
_atom_site_fract_y
_atom_site_fract_z
O1 O 1.19732(5) 0.35630(8) 0.46646(4)
O2 O 1.40316(4) 0.47845(8) 0.53868(3)
O3 O 1.03141(4) 0.30715(7) 0.65373(4)
O4 O 1.24348(5) 0.70585(7) 0.66851(4)
O5 O 1.18238(4) 0.28716(7) 0.79737(4)
O6 O 0.88832(5) 0.20381(8) 0.95817(4)
C1 C 1.11361(5) 0.41514(8) 0.72624(4)
C2 C 1.10634(6) 0.14958(9) 0.60244(5)
H1 H 1.0436 0.0861 0.5529
H2 H 1.1352 0.0459 0.6509
C3 C 1.23479(6) 0.22805(9) 0.55011(5)
H3 H 1.2919 0.1134 0.5275
C4 C 1.32074(6) 0.47305(10) 0.44471(4)
C5 C 1.27648(7) 0.68700(11) 0.41528(6)
H4 H 1.2224 0.7455 0.4680
H5 H 1.2205 0.6824 0.3540
H6 H 1.3585 0.7689 0.4052
C6 C 1.40668(8) 0.36759(14) 0.36575(5)
H7 H 1.4314 0.2331 0.3886
H8 H 1.4906 0.4446 0.3548
H9 H 1.3524 0.3583 0.3038
C7 C 1.32601(5) 0.37665(9) 0.61248(4)
H10 H 1.3892 0.3022 0.6590
C8 C 1.23191(5) 0.52218(8) 0.67031(4)
C9 C 1.01687(6) 0.56430(8) 0.77757(5)
H11 H 1.0723 0.6582 0.8188
H12 H 0.9651 0.6429 0.7270
C10 C 0.95664(6) 0.28234(9) 0.89121(4)
C11 C 1.08730(6) 0.17237(9) 0.85662(5)
H13 H 1.1386 0.1231 0.9160
H14 H 1.0574 0.0539 0.8178
C12 C 0.78632(5) 0.55235(8) 0.86077(4)
C13 C 0.78426(6) 0.75254(8) 0.89580(5)
H15 H 0.8681 0.8206 0.9103
C14 C 0.65577(6) 0.85073(9) 0.90906(4)
H16 H 0.6550 0.9842 0.9327
C15 C 0.52841(6) 0.75191(9) 0.88741(4)
C16 C 0.53272(6) 0.54842(10) 0.85542(4)
H17 H 0.4490 0.4783 0.8434
C17 C 0.66023(6) 0.44914(9) 0.84134(4)
H18 H 0.6612 0.3147 0.8191
C18 C 0.39037(6) 0.86359(12) 0.89450(5)
H19 H 0.4074 1.0002 0.9177
H20 H 0.3317 0.7940 0.9410
H21 H 0.3443 0.8675 0.8292
N1 N 0.91778(5) 0.45488(7) 0.84110(4)
loop_
_geom_bond_atom_site_label_1
_geom_bond_atom_site_label_2
_geom_bond_site_symmetry_1
_geom_bond_site_symmetry_2
O1 C3 1_555 1_555
O2 C4 1_555 1_555
O3 C1 1_555 1_555
O4 C8 1_555 1_555
O5 C1 1_555 1_555
O6 C10 1_555 1_555
C1 C8 1_555 1_555
C2 O3 1_555 1_555
H1 C2 1_555 1_555
H2 C2 1_555 1_555
C3 C2 1_555 1_555
H3 C3 1_555 1_555
C4 O1 1_555 1_555
C5 C4 1_555 1_555
H4 C5 1_555 1_555
H5 C5 1_555 1_555
H6 C5 1_555 1_555
C6 C4 1_555 1_555
H7 C6 1_555 1_555
H8 C6 1_555 1_555
H9 C6 1_555 1_555
C7 O2 1_555 1_555
H10 C7 1_555 1_555
C8 C7 1_555 1_555
C9 C1 1_555 1_555
H11 C9 1_555 1_555
H12 C9 1_555 1_555
C10 C11 1_555 1_555
C11 O5 1_555 1_555
H13 C11 1_555 1_555
H14 C11 1_555 1_555
C12 C13 1_555 1_555
C13 H15 1_555 1_555
C14 C13 1_555 1_555
H16 C14 1_555 1_555
C15 C14 1_555 1_555
C16 C15 1_555 1_555
H17 C16 1_555 1_555
C17 C12 1_555 1_555
H18 C17 1_555 1_555
C18 C15 1_555 1_555
H19 C18 1_555 1_555
H20 C18 1_555 1_555
H21 C18 1_555 1_555
N1 C9 1_555 1_555
C3 C7 1_555 1_555
C10 N1 1_555 1_555
C12 N1 1_555 1_555
C16 C17 1_555 1_555

#END
