
#######################################################################
#
#                 Cambridge Crystallographic Data Centre
#                                CCDC 
#
#######################################################################
#
# If this CIF has been generated from an entry in the Cambridge 
# Structural Database, then it will include bibliographic, chemical, 
# crystal, experimental, refinement or atomic coordinate data resulting 
# from the CCDC's data processing and validation procedures.
#
#######################################################################

data_MOQLIO
_chemical_formula_moiety         'C17 H13 Cl2 N3 O2,C2 H6 O1'
_chemical_name_systematic        
'2-Amino-4-(3,4-dichlorophenyl)-6,7-dimethyl-5-oxo-5,6-dihydro-4H-pyrano[3,2-c]pyridine-3-carbonitrile ethanol solvate'
_chemical_properties_biological  'limited biological activity'
_symmetry_cell_setting           triclinic
_symmetry_space_group_name_H-M   'P -1'
_symmetry_Int_Tables_number      2
_space_group_name_Hall           '-P 1'
loop_
_symmetry_equiv_pos_site_id
_symmetry_equiv_pos_as_xyz
1 x,y,z
2 -x,-y,-z
_cell_length_a                   9.120(6)
_cell_length_b                   10.251(6)
_cell_length_c                   11.299(7)
_cell_angle_alpha                71.757(8)
_cell_angle_beta                 74.660(9)
_cell_angle_gamma                80.836(9)
_cell_volume                     964.121
_exptl_crystal_colour            'light brown'
_exptl_crystal_description       needle
_cell_formula_units_Z            2
loop_
_atom_site_label
_atom_site_type_symbol
_atom_site_fract_x
_atom_site_fract_y
_atom_site_fract_z
Cl1 Cl 0.22676(10) 0.92480(9) 0.50976(8)
Cl2 Cl 0.42008(10) 0.72070(9) 0.35546(9)
O1 O -0.1243(2) 1.0785(2) 0.1136(2)
O2 O -0.0302(2) 1.4890(2) 0.18543(19)
N1 N -0.3184(3) 1.2034(2) 0.2189(2)
N2 N 0.1890(3) 1.5852(2) 0.1299(2)
H2 H 0.2833 1.5980 0.0938
H3 H 0.1342 1.6460 0.1643
N3 N 0.4754(3) 1.3630(2) -0.0251(2)
C1 C 0.3251(3) 0.8719(3) 0.2785(3)
C2 C 0.2413(3) 0.9611(3) 0.3471(3)
C3 C 0.3357(3) 0.9044(3) 0.1490(3)
H4 H 0.3939 0.8440 0.1017
C4 C 0.1672(3) 1.0831(3) 0.2839(3)
H5 H 0.1092 1.1438 0.3310
C5 C 0.2609(3) 1.0256(3) 0.0873(3)
H6 H 0.2675 1.0464 -0.0018
C6 C 0.1773(3) 1.1166(3) 0.1532(3)
C7 C 0.1029(3) 1.2527(3) 0.0842(3)
H7 H 0.1091 1.2518 -0.0052
C8 C -0.0621(3) 1.2784(3) 0.1472(3)
C9 C -0.1660(3) 1.1804(3) 0.1565(3)
C10 C -0.4216(3) 1.0994(3) 0.2352(3)
H8 H -0.3630 1.0225 0.2052
H9 H -0.4990 1.1409 0.1854
H10 H -0.4717 1.0654 0.3260
C11 C -0.3730(3) 1.3163(3) 0.2630(3)
C12 C -0.5385(3) 1.3324(3) 0.3246(3)
H11 H -0.5644 1.2531 0.3998
H12 H -0.5994 1.3373 0.2634
H13 H -0.5605 1.4172 0.3510
C13 C -0.2746(3) 1.4105(3) 0.2492(3)
H14 H -0.3106 1.4901 0.2778
C14 C -0.1189(3) 1.3880(3) 0.1920(3)
C15 C 0.1225(3) 1.4786(3) 0.1280(3)
C16 C 0.1880(3) 1.3730(3) 0.0777(3)
C17 C 0.3459(3) 1.3695(3) 0.0209(3)
O3 O -0.0283(3) 1.7973(2) 0.2054(2)
H1 H -0.0529 1.8810 0.1552
C18 C -0.1171(5) 1.7785(5) 0.3305(4)
H15 H -0.2179 1.7516 0.3338
H16 H -0.1342 1.8680 0.3502
C19 C -0.0551(5) 1.6792(5) 0.4272(4)
H17 H 0.0259 1.7177 0.4446
H18 H -0.0128 1.5972 0.3986
H19 H -0.1355 1.6537 0.5054
loop_
_geom_bond_atom_site_label_1
_geom_bond_atom_site_label_2
_geom_bond_site_symmetry_1
_geom_bond_site_symmetry_2
Cl1 C2 1_555 1_555
Cl2 C1 1_555 1_555
O1 C9 1_555 1_555
O2 C14 1_555 1_555
O3 H1 1_555 1_555
N1 C9 1_555 1_555
N2 H2 1_555 1_555
H3 N2 1_555 1_555
N3 C17 1_555 1_555
C1 C2 1_555 1_555
C2 C4 1_555 1_555
C3 C1 1_555 1_555
H4 C3 1_555 1_555
C4 H5 1_555 1_555
C5 C3 1_555 1_555
H6 C5 1_555 1_555
C6 C4 1_555 1_555
C7 C6 1_555 1_555
H7 C7 1_555 1_555
C8 C7 1_555 1_555
C9 C8 1_555 1_555
C10 N1 1_555 1_555
H8 C10 1_555 1_555
H9 C10 1_555 1_555
H10 C10 1_555 1_555
C11 N1 1_555 1_555
C12 C11 1_555 1_555
H11 C12 1_555 1_555
H12 C12 1_555 1_555
H13 C12 1_555 1_555
C13 C11 1_555 1_555
H14 C13 1_555 1_555
C14 C8 1_555 1_555
C15 O2 1_555 1_555
C16 C7 1_555 1_555
C17 C16 1_555 1_555
C18 O3 1_555 1_555
H15 C18 1_555 1_555
H16 C18 1_555 1_555
C19 C18 1_555 1_555
H17 C19 1_555 1_555
H18 C19 1_555 1_555
H19 C19 1_555 1_555
N2 C15 1_555 1_555
C5 C6 1_555 1_555
C13 C14 1_555 1_555
C15 C16 1_555 1_555

#END
