
#######################################################################
#
#                 Cambridge Crystallographic Data Centre
#                                CCDC 
#
#######################################################################
#
# If this CIF has been generated from an entry in the Cambridge 
# Structural Database, then it will include bibliographic, chemical, 
# crystal, experimental, refinement or atomic coordinate data resulting 
# from the CCDC's data processing and validation procedures.
#
#######################################################################

data_MOQZAU
_chemical_formula_moiety         'C21 H21 N1 O6 S2'
_chemical_name_systematic        
'2-Methyl-2-(pyrid-2-yl)propane-1,3-diyl bis(benzenesulfonate)'
_symmetry_cell_setting           orthorhombic
_symmetry_space_group_name_H-M   'P c a 21'
_symmetry_Int_Tables_number      29
_space_group_name_Hall           'P 2c -2ac'
loop_
_symmetry_equiv_pos_site_id
_symmetry_equiv_pos_as_xyz
1 x,y,z
2 -x,-y,1/2+z
3 1/2+x,-y,z
4 1/2-x,y,1/2+z
_cell_length_a                   15.361(3)
_cell_length_b                   5.9990(12)
_cell_length_c                   22.999(5)
_cell_angle_alpha                90
_cell_angle_beta                 90
_cell_angle_gamma                90
_cell_volume                     2119.37
_exptl_crystal_colour            blue
_exptl_crystal_description       irregular
_cell_formula_units_Z            4
_exptl_crystal_recrystallization_method methanol
loop_
_atom_site_label
_atom_site_type_symbol
_atom_site_fract_x
_atom_site_fract_y
_atom_site_fract_z
S1 S 0.60706(5) 0.06480(12) 0.26590(4)
S2 S 0.33142(5) 0.20754(13) 0.43511(3)
O1 O 0.66851(15) 0.2004(5) 0.29533(13)
O2 O 0.61002(17) -0.1708(4) 0.27312(13)
O3 O 0.51297(13) 0.1328(3) 0.28549(9)
O4 O 0.36652(16) 0.3419(4) 0.38171(10)
O5 O 0.37211(19) 0.3149(5) 0.48310(10)
O6 O 0.34298(17) -0.0259(4) 0.42536(12)
N1 N 0.3269(2) 0.1685(6) 0.20226(16)
C1 C 0.6482(2) 0.3282(6) 0.17277(18)
H1 H 0.6717 0.4290 0.1992
C2 C 0.6505(3) 0.3696(8) 0.1133(2)
H2 H 0.6758 0.4998 0.0994
C3 C 0.6155(3) 0.2195(9) 0.07538(19)
H3 H 0.6175 0.2500 0.0358
C4 C 0.5777(3) 0.0255(8) 0.09374(19)
H4 H 0.5550 -0.0747 0.0669
C5 C 0.5733(3) -0.0205(7) 0.15304(17)
H5 H 0.5466 -0.1499 0.1664
C6 C 0.6093(2) 0.1292(5) 0.19152(15)
C7 C 0.49465(19) 0.3712(4) 0.29210(14)
H6 H 0.5289 0.4565 0.2645
H7 H 0.5098 0.4198 0.3310
C8 C 0.39773(18) 0.4087(4) 0.28112(12)
C9 C 0.3811(2) 0.6584(5) 0.29134(19)
H8 H 0.3943 0.6950 0.3310
H9 H 0.3211 0.6916 0.2835
H10 H 0.4175 0.7444 0.2659
C10 C 0.3774(2) 0.3473(5) 0.21791(14)
C11 C 0.4176(2) 0.4756(5) 0.17839(14)
H11 H 0.4528 0.5940 0.1896
C12 C 0.4050(3) 0.4269(8) 0.12226(18)
H12 H 0.4316 0.5175 0.0946
C13 C 0.3554(3) 0.2515(8) 0.10283(18)
H13 H 0.3487 0.2238 0.0633
C14 C 0.3160(3) 0.1182(8) 0.14371(18)
H14 H 0.2826 -0.0035 0.1324
C15 C 0.3425(2) 0.2709(5) 0.32218(14)
H15 H 0.2811 0.2975 0.3151
H16 H 0.3542 0.1133 0.3169
C16 C 0.2195(2) 0.2664(5) 0.43634(15)
C17 C 0.1922(3) 0.4726(6) 0.45527(18)
H17 H 0.2322 0.5816 0.4660
C18 C 0.1031(3) 0.5134(9) 0.4580(2)
H18 H 0.0829 0.6519 0.4701
C19 C 0.0448(3) 0.3493(8) 0.44259(19)
H19 H -0.0146 0.3778 0.4447
C20 C 0.0731(3) 0.1454(8) 0.4243(2)
H20 H 0.0331 0.0360 0.4139
C21 C 0.1617(2) 0.1018(7) 0.42123(17)
H21 H 0.1816 -0.0370 0.4091
loop_
_geom_bond_atom_site_label_1
_geom_bond_atom_site_label_2
_geom_bond_site_symmetry_1
_geom_bond_site_symmetry_2
S1 O1 1_555 1_555
S2 O4 1_555 1_555
O2 S1 1_555 1_555
O3 S1 1_555 1_555
O4 C15 1_555 1_555
O5 S2 1_555 1_555
O6 S2 1_555 1_555
N1 C10 1_555 1_555
C1 H1 1_555 1_555
C2 C1 1_555 1_555
H2 C2 1_555 1_555
C3 C2 1_555 1_555
H3 C3 1_555 1_555
C4 C3 1_555 1_555
H4 C4 1_555 1_555
C5 C4 1_555 1_555
H5 C5 1_555 1_555
C6 S1 1_555 1_555
C7 O3 1_555 1_555
H6 C7 1_555 1_555
H7 C7 1_555 1_555
C8 C7 1_555 1_555
C9 C8 1_555 1_555
H8 C9 1_555 1_555
H9 C9 1_555 1_555
H10 C9 1_555 1_555
C10 C8 1_555 1_555
C11 C10 1_555 1_555
H11 C11 1_555 1_555
C12 C11 1_555 1_555
H12 C12 1_555 1_555
C13 C12 1_555 1_555
H13 C13 1_555 1_555
C14 N1 1_555 1_555
H14 C14 1_555 1_555
C15 C8 1_555 1_555
H15 C15 1_555 1_555
H16 C15 1_555 1_555
C16 S2 1_555 1_555
C17 C16 1_555 1_555
H17 C17 1_555 1_555
C18 C17 1_555 1_555
H18 C18 1_555 1_555
C19 C18 1_555 1_555
H19 C19 1_555 1_555
C20 C19 1_555 1_555
H20 C20 1_555 1_555
C21 C16 1_555 1_555
H21 C21 1_555 1_555
C1 C6 1_555 1_555
C5 C6 1_555 1_555
C13 C14 1_555 1_555
C20 C21 1_555 1_555

#END
