
#######################################################################
#
#                 Cambridge Crystallographic Data Centre
#                                CCDC 
#
#######################################################################
#
# If this CIF has been generated from an entry in the Cambridge 
# Structural Database, then it will include bibliographic, chemical, 
# crystal, experimental, refinement or atomic coordinate data resulting 
# from the CCDC's data processing and validation procedures.
#
#######################################################################

data_MORXEX
_chemical_formula_moiety         'C22 H20 O2,C3 H8 O1'
_chemical_name_systematic        
'trans-1,4 bis(phenylethynyl)-cyclohexane-1,4-diol 1-propanol solvate'
_symmetry_cell_setting           monoclinic
_symmetry_space_group_name_H-M   'P 21/c'
_symmetry_Int_Tables_number      14
_space_group_name_Hall           '-P 2ybc'
loop_
_symmetry_equiv_pos_site_id
_symmetry_equiv_pos_as_xyz
1 x,y,z
2 -x,1/2+y,1/2-z
3 -x,-y,-z
4 x,1/2-y,1/2+z
_cell_length_a                   6.0444(2)
_cell_length_b                   28.5804(9)
_cell_length_c                   12.6039(4)
_cell_angle_alpha                90
_cell_angle_beta                 94.7190(10)
_cell_angle_gamma                90
_cell_volume                     2169.96
_exptl_crystal_colour            colorless
_exptl_crystal_description       block
_cell_formula_units_Z            4
_exptl_crystal_recrystallization_method 1-propanol
loop_
_atom_site_label
_atom_site_type_symbol
_atom_site_fract_x
_atom_site_fract_y
_atom_site_fract_z
O1 O 0.4652(3) 0.52228(6) 0.21478(12)
C1 C 0.2992(3) 0.48870(8) 0.05457(16)
C2 C 0.7414(4) 0.41925(8) 0.16279(17)
C7 C 0.3382(4) 0.46823(8) -0.05461(17)
C9 C 0.6421(4) 0.45511(8) 0.14603(16)
C10 C 0.8660(4) 0.37668(8) 0.18201(17)
C12 C 0.5208(3) 0.49922(7) 0.11897(16)
C15 C 1.0806(4) 0.37813(9) 0.23329(18)
C17 C 1.2022(5) 0.33719(9) 0.2503(2)
C18 C 0.7763(5) 0.33361(9) 0.14841(19)
C20 C 1.1111(5) 0.29463(10) 0.2160(2)
C21 C 0.8999(5) 0.29285(9) 0.1650(2)
H10 H 0.419(4) 0.4385(8) -0.0468(17)
H11 H 1.145(4) 0.4085(9) 0.256(2)
H12 H 0.215(4) 0.5189(8) 0.0453(17)
H13 H 0.216(4) 0.4661(8) 0.0939(18)
H15 H 0.194(4) 0.4612(8) -0.093(2)
H17 H 0.842(5) 0.2625(10) 0.144(2)
H21 H 1.355(5) 0.3385(10) 0.284(2)
H22 H 1.194(5) 0.2669(10) 0.227(2)
H24 H 0.625(5) 0.3336(10) 0.116(2)
H25 H 0.594(5) 0.5310(10) 0.252(2)
O1B O 0.5348(3) 0.47772(6) -0.21478(12)
C1B C 0.7008(3) 0.51130(8) -0.05457(16)
C2B C 0.2586(4) 0.58075(8) -0.16279(17)
C7B C 0.6618(4) 0.53177(8) 0.05461(17)
C9B C 0.3579(4) 0.54489(8) -0.14603(16)
C10B C 0.1340(4) 0.62332(8) -0.18201(17)
C12B C 0.4792(3) 0.50078(7) -0.11897(16)
C15B C -0.0806(4) 0.62187(9) -0.23329(18)
C17B C -0.2022(5) 0.66281(9) -0.2503(2)
C18B C 0.2237(5) 0.66639(9) -0.14841(19)
C20B C -0.1111(5) 0.70537(10) -0.2160(2)
C21B C 0.1001(5) 0.70715(9) -0.1650(2)
H10B H 0.581(4) 0.5615(8) 0.0468(17)
H11B H -0.145(4) 0.5915(9) -0.256(2)
H12B H 0.785(4) 0.4811(8) -0.0453(17)
H13B H 0.784(4) 0.5339(8) -0.0939(18)
H15B H 0.806(4) 0.5388(8) 0.093(2)
H17B H 0.158(5) 0.7375(10) -0.144(2)
H21B H -0.355(5) 0.6615(10) -0.284(2)
H22B H -0.194(5) 0.7331(10) -0.227(2)
H24B H 0.375(5) 0.6664(10) -0.116(2)
H25B H 0.406(5) 0.4690(10) -0.252(2)
O2 O 0.8313(3) 0.55547(5) 0.32746(12)
C3 C 1.1085(4) 0.57764(7) 0.46079(16)
C4 C 1.2244(4) 0.61101(8) 0.48094(17)
C5 C 0.9586(3) 0.53900(7) 0.42238(16)
C6 C 1.3624(4) 0.65203(7) 0.49586(17)
C8 C 0.7924(4) 0.52693(8) 0.50326(17)
C11 C 1.0905(4) 0.49509(8) 0.39654(16)
C13 C 1.6216(4) 0.73270(9) 0.5144(2)
C14 C 1.2973(4) 0.68985(8) 0.55616(19)
C16 C 1.5611(4) 0.65483(8) 0.44622(18)
C19 C 1.4276(4) 0.72993(8) 0.5649(2)
C22 C 1.6895(4) 0.69488(9) 0.4558(2)
H8 H 0.977(4) 0.4729(8) 0.3649(18)
H9 H 0.684(4) 0.5040(8) 0.4692(17)
H14 H 0.712(4) 0.5544(9) 0.519(2)
H16 H 1.830(5) 0.6959(9) 0.426(2)
H18 H 1.197(4) 0.5042(8) 0.3456(19)
H19 H 1.610(4) 0.6282(9) 0.409(2)
H20 H 1.164(5) 0.6879(9) 0.589(2)
H23 H 1.713(5) 0.7618(10) 0.522(2)
H27 H 1.383(5) 0.7563(11) 0.601(2)
H28 H 0.930(6) 0.5670(11) 0.281(3)
O2B O 1.1687(3) 0.44453(5) 0.67254(12)
C3B C 0.8915(4) 0.42236(7) 0.53921(16)
C4B C 0.7756(4) 0.38899(8) 0.51906(17)
C5B C 1.0414(3) 0.46100(7) 0.57762(16)
C6B C 0.6376(4) 0.34797(7) 0.50414(17)
C8B C 1.2076(4) 0.47307(8) 0.49674(17)
C11B C 0.9095(4) 0.50491(8) 0.60346(16)
C13B C 0.3784(4) 0.26730(9) 0.4856(2)
C14B C 0.7027(4) 0.31015(8) 0.44384(19)
C16B C 0.4389(4) 0.34517(8) 0.55378(18)
C19B C 0.5724(4) 0.27007(8) 0.4351(2)
C22B C 0.3105(4) 0.30512(9) 0.5442(2)
H8B H 1.023(4) 0.5271(8) 0.6351(18)
H9B H 1.316(4) 0.4960(8) 0.5308(17)
H14B H 1.288(4) 0.4456(9) 0.481(2)
H16B H 0.170(5) 0.3041(9) 0.574(2)
H18B H 0.803(4) 0.4958(8) 0.6544(19)
H19B H 0.390(4) 0.3718(9) 0.591(2)
H20B H 0.836(5) 0.3121(9) 0.411(2)
H23B H 0.287(5) 0.2382(10) 0.478(2)
H27B H 0.617(5) 0.2437(11) 0.399(2)
H28B H 1.070(6) 0.4330(11) 0.719(3)
O3 O 0.1295(3) 0.58593(6) 0.19528(13)
C23 C 0.1792(6) 0.62873(12) 0.1519(4)
H1 H 0.1804 0.6255 0.0754
H2 H 0.3266 0.6383 0.1799
C24 C 0.0191(7) 0.66522(14) 0.1755(6)
H3 H 0.0497 0.6735 0.2499
H4 H 0.0535 0.6926 0.1344
C25 C -0.2078(6) 0.65801(11) 0.1586(3)
H5 H -0.2850 0.6850 0.1821
H6 H -0.2486 0.6310 0.1980
H7 H -0.2470 0.6530 0.0841
H26 H 0.250(5) 0.5674(10) 0.203(2)
loop_
_geom_bond_atom_site_label_1
_geom_bond_atom_site_label_2
_geom_bond_site_symmetry_1
_geom_bond_site_symmetry_2
O1 C12 1_555 1_555
O2 C5 1_555 1_555
C1 C7 1_555 1_555
C2 C9 1_555 1_555
C3 C4 1_555 1_555
C4 C6 1_555 1_555
C5 C3 1_555 1_555
C6 C14 1_555 1_555
C7 H10 1_555 1_555
C8 C5 1_555 1_555
C9 C12 1_555 1_555
C10 C2 1_555 1_555
C11 C5 1_555 1_555
C12 C1 1_555 1_555
C13 C19 1_555 1_555
C14 C19 1_555 1_555
C15 C10 1_555 1_555
C16 C6 1_555 1_555
C17 C15 1_555 1_555
C18 C10 1_555 1_555
C19 H27 1_555 1_555
C20 C17 1_555 1_555
C21 C18 1_555 1_555
C22 C13 1_555 1_555
O3 C23 1_555 1_555
C23 H1 1_555 1_555
H2 C23 1_555 1_555
C24 C23 1_555 1_555
H3 C24 1_555 1_555
H4 C24 1_555 1_555
C25 C24 1_555 1_555
H5 C25 1_555 1_555
H6 C25 1_555 1_555
H7 C25 1_555 1_555
H8 C11 1_555 1_555
H9 C8 1_555 1_555
H11 C15 1_555 1_555
H12 C1 1_555 1_555
H13 C1 1_555 1_555
H14 C8 1_555 1_555
H15 C7 1_555 1_555
H16 C22 1_555 1_555
H17 C21 1_555 1_555
H18 C11 1_555 1_555
H19 C16 1_555 1_555
H20 C14 1_555 1_555
H21 C17 1_555 1_555
H22 C20 1_555 1_555
H23 C13 1_555 1_555
H24 C18 1_555 1_555
H25 O1 1_555 1_555
H26 O3 1_555 1_555
H28 O2 1_555 1_555
O1B C12B 1_555 1_555
O2B C5B 1_555 1_555
C1B C7B 1_555 1_555
C2B C9B 1_555 1_555
C3B C4B 1_555 1_555
C4B C6B 1_555 1_555
C5B C3B 1_555 1_555
C6B C14B 1_555 1_555
C7B C12 1_555 1_555
C8B C11 1_555 1_555
C9B C12B 1_555 1_555
C10B C2B 1_555 1_555
C11B C8 1_555 1_555
C12B C7 1_555 1_555
C13B C19B 1_555 1_555
C14B C19B 1_555 1_555
C15B C10B 1_555 1_555
C16B C6B 1_555 1_555
C17B C15B 1_555 1_555
C18B C10B 1_555 1_555
C19B H27B 1_555 1_555
C20B C17B 1_555 1_555
C21B C18B 1_555 1_555
C22B C13B 1_555 1_555
H8B C11B 1_555 1_555
H9B C8B 1_555 1_555
H10B C7B 1_555 1_555
H11B C15B 1_555 1_555
H12B C1B 1_555 1_555
H13B C1B 1_555 1_555
H14B C8B 1_555 1_555
H15B C7B 1_555 1_555
H16B C22B 1_555 1_555
H17B C21B 1_555 1_555
H18B C11B 1_555 1_555
H19B C16B 1_555 1_555
H20B C14B 1_555 1_555
H21B C17B 1_555 1_555
H22B C20B 1_555 1_555
H23B C13B 1_555 1_555
H24B C18B 1_555 1_555
H25B O1B 1_555 1_555
H28B O2B 1_555 1_555
C16 C22 1_555 1_555
C20 C21 1_555 1_555
C1B C12B 1_555 1_555
C5B C8B 1_555 1_555
C5B C11B 1_555 1_555
C16B C22B 1_555 1_555
C20B C21B 1_555 1_555

#END
