
#######################################################################
#
#                 Cambridge Crystallographic Data Centre
#                                CCDC 
#
#######################################################################
#
# If this CIF has been generated from an entry in the Cambridge 
# Structural Database, then it will include bibliographic, chemical, 
# crystal, experimental, refinement or atomic coordinate data resulting 
# from the CCDC's data processing and validation procedures.
#
#######################################################################

data_MOSNEO
_chemical_compound_source        'seed of Lansium domesticum Corr. (Meliaceae)'
_chemical_name_common            Kokosanolide
_chemical_formula_moiety         'C27 H32 O9'
_chemical_name_systematic        8,14-Secogammacera-7,14(27)-diene-3,21-dione
_symmetry_cell_setting           monoclinic
_symmetry_space_group_name_H-M   'P 21'
_symmetry_Int_Tables_number      4
_space_group_name_Hall           'P 2yb'
loop_
_symmetry_equiv_pos_site_id
_symmetry_equiv_pos_as_xyz
1 x,y,z
2 -x,1/2+y,-z
_cell_length_a                   8.83260(10)
_cell_length_b                   12.8977(2)
_cell_length_c                   11.15550(10)
_cell_angle_alpha                90
_cell_angle_beta                 110.7770(10)
_cell_angle_gamma                90
_cell_volume                     1188.19
_exptl_crystal_colour            colorless
_exptl_crystal_description       block
_cell_formula_units_Z            2
loop_
_atom_site_label
_atom_site_type_symbol
_atom_site_fract_x
_atom_site_fract_y
_atom_site_fract_z
O1 O 0.84140(14) 0.50022(10) 0.13328(11)
O2 O 0.76288(15) 0.65296(11) 0.03392(13)
O3 O 1.14818(14) 0.54506(9) 0.20719(11)
O4 O 0.96159(15) 0.32343(10) 0.00956(13)
O5 O 1.42245(14) 0.50619(9) 0.27176(11)
O6 O 1.34114(15) 0.35288(10) 0.07332(12)
H1 H 1.3135 0.2934 0.0428
O7 O 1.59091(18) 0.01203(12) 0.27280(16)
O8 O 1.77358(16) 0.12432(10) 0.38724(14)
O9 O 2.20986(18) 0.18614(14) 0.66355(16)
C1 C 0.6733(2) 0.47246(17) 0.10624(19)
H2 H 0.6663 0.3989 0.1258
H3 H 0.6109 0.4850 0.0154
H4 H 0.6293 0.5147 0.1592
C2 C 0.8676(2) 0.59050(14) 0.08735(16)
C3 C 1.04435(18) 0.60764(13) 0.10460(15)
H5 H 1.0710 0.6821 0.1276
C4 C 1.09301(19) 0.58216(13) -0.01273(15)
H6 H 1.0674 0.6416 -0.0743
C5 C 1.27793(19) 0.57214(13) 0.05798(16)
H7 H 1.3274 0.5339 0.0030
C6 C 1.3650(2) 0.67574(14) 0.10056(18)
H8 H 1.4797 0.6630 0.1498
H9 H 1.3158 0.7128 0.1543
H10 H 1.3551 0.7177 0.0249
C7 C 1.27580(18) 0.50317(13) 0.16845(15)
C8 C 1.22596(19) 0.39101(13) 0.12532(16)
C9 C 1.0573(2) 0.39205(13) 0.01658(16)
C10 C 1.0219(2) 0.47930(13) -0.08308(15)
C11 C 0.8397(2) 0.48559(15) -0.16080(16)
H11 H 0.8027 0.4195 -0.2048
H12 H 0.8193 0.5414 -0.2242
H13 H 0.7807 0.4999 -0.1029
C12 C 1.1023(2) 0.45050(16) -0.18142(17)
H14 H 1.0540 0.3864 -0.2257
H15 H 1.2187 0.4403 -0.1367
H16 H 1.0849 0.5066 -0.2441
C13 C 1.2208(2) 0.32682(13) 0.23880(16)
H17 H 1.2015 0.2532 0.2127
H18 H 1.1293 0.3506 0.2634
C14 C 1.3790(2) 0.33558(13) 0.35547(16)
H19 H 1.3509 0.3102 0.4297
C15 C 1.4203(2) 0.45085(13) 0.38358(15)
H20 H 1.3358 0.4828 0.4123
C16 C 1.5849(2) 0.46840(14) 0.48766(16)
H21 H 1.5790 0.4487 0.5717
H22 H 1.6121 0.5431 0.4911
C17 C 1.7188(2) 0.40598(13) 0.46466(17)
H23 H 1.8226 0.4193 0.5355
H24 H 1.7306 0.4296 0.3840
C18 C 1.6839(2) 0.28830(13) 0.45591(16)
C19 C 1.6878(2) 0.24514(15) 0.58587(17)
H25 H 1.6774 0.1695 0.5807
H26 H 1.5979 0.2746 0.6067
H27 H 1.7906 0.2639 0.6529
C20 C 1.5183(2) 0.26731(13) 0.35417(16)
C21 C 1.4975(2) 0.18237(14) 0.28188(17)
H28 H 1.3999 0.1746 0.2103
C22 C 1.6205(2) 0.10045(16) 0.30943(19)
C23 C 1.8114(2) 0.23374(14) 0.41244(18)
H29 H 1.8107 0.2672 0.3314
C24 C 1.9817(2) 0.23557(16) 0.50764(19)
C25 C 2.0961(2) 0.31887(18) 0.53514(19)
H30 H 2.0804 0.3850 0.4950
C26 C 2.2305(2) 0.28487(19) 0.6295(2)
H31 H 2.3264 0.3245 0.6669
C27 C 2.0560(3) 0.15765(18) 0.5880(2)
H32 H 2.0083 0.0923 0.5917
loop_
_geom_bond_atom_site_label_1
_geom_bond_atom_site_label_2
_geom_bond_site_symmetry_1
_geom_bond_site_symmetry_2
O1 C1 1_555 1_555
O2 C2 1_555 1_555
O3 C3 1_555 1_555
O4 C9 1_555 1_555
O5 C7 1_555 1_555
O6 H1 1_555 1_555
O7 C22 1_555 1_555
O8 C22 1_555 1_555
O9 C26 1_555 1_555
C1 H2 1_555 1_555
H3 C1 1_555 1_555
H4 C1 1_555 1_555
C2 O1 1_555 1_555
C3 C2 1_555 1_555
H5 C3 1_555 1_555
C4 C3 1_555 1_555
H6 C4 1_555 1_555
C5 C4 1_555 1_555
H7 C5 1_555 1_555
C6 C5 1_555 1_555
H8 C6 1_555 1_555
H9 C6 1_555 1_555
H10 C6 1_555 1_555
C7 O3 1_555 1_555
C8 O6 1_555 1_555
C9 C8 1_555 1_555
C10 C4 1_555 1_555
C11 C10 1_555 1_555
H11 C11 1_555 1_555
H12 C11 1_555 1_555
H13 C11 1_555 1_555
C12 C10 1_555 1_555
H14 C12 1_555 1_555
H15 C12 1_555 1_555
H16 C12 1_555 1_555
C13 C8 1_555 1_555
H17 C13 1_555 1_555
H18 C13 1_555 1_555
C14 C13 1_555 1_555
H19 C14 1_555 1_555
C15 O5 1_555 1_555
H20 C15 1_555 1_555
C16 C15 1_555 1_555
H21 C16 1_555 1_555
H22 C16 1_555 1_555
C17 C16 1_555 1_555
H23 C17 1_555 1_555
H24 C17 1_555 1_555
C18 C17 1_555 1_555
C19 C18 1_555 1_555
H25 C19 1_555 1_555
H26 C19 1_555 1_555
H27 C19 1_555 1_555
C20 C14 1_555 1_555
C21 C20 1_555 1_555
H28 C21 1_555 1_555
C22 C21 1_555 1_555
C23 O8 1_555 1_555
H29 C23 1_555 1_555
C24 C23 1_555 1_555
C25 C24 1_555 1_555
H30 C25 1_555 1_555
C26 C25 1_555 1_555
H31 C26 1_555 1_555
C27 O9 1_555 1_555
H32 C27 1_555 1_555
C5 C7 1_555 1_555
C7 C8 1_555 1_555
C9 C10 1_555 1_555
C14 C15 1_555 1_555
C18 C20 1_555 1_555
C18 C23 1_555 1_555
C24 C27 1_555 1_555

#END
