
#######################################################################
#
#                 Cambridge Crystallographic Data Centre
#                                CCDC 
#
#######################################################################
#
# If this CIF has been generated from an entry in the Cambridge 
# Structural Database, then it will include bibliographic, chemical, 
# crystal, experimental, refinement or atomic coordinate data resulting 
# from the CCDC's data processing and validation procedures.
#
#######################################################################

data_MOTHEJ
_chemical_formula_moiety         'C14 H8 Cl2 N4 S1'
_chemical_name_systematic        
7-(2,4-dichlorophenyl)-2-(methylsulfanyl)pyrazolo[1,5-a]pyrimidine-3-carbonitrile
_symmetry_cell_setting           monoclinic
_symmetry_space_group_name_H-M   'P 21/n'
_symmetry_Int_Tables_number      14
_space_group_name_Hall           '-P 2yn'
loop_
_symmetry_equiv_pos_site_id
_symmetry_equiv_pos_as_xyz
1 x,y,z
2 1/2-x,1/2+y,1/2-z
3 -x,-y,-z
4 1/2+x,1/2-y,1/2+z
_cell_length_a                   8.230(2)
_cell_length_b                   14.656(4)
_cell_length_c                   12.667(4)
_cell_angle_alpha                90
_cell_angle_beta                 108.460(5)
_cell_angle_gamma                90
_cell_volume                     1449.26
_exptl_crystal_colour            colorless
_exptl_crystal_description       prism
_chemical_melting_point          '475 K'
_cell_formula_units_Z            4
_exptl_crystal_recrystallization_method ethanol/dimethylformamide
loop_
_atom_site_label
_atom_site_type_symbol
_atom_site_fract_x
_atom_site_fract_y
_atom_site_fract_z
S1 S 0.07522(9) 1.04589(4) 0.33961(6)
Cl1 Cl 0.27654(9) 0.56767(4) 0.47097(6)
Cl2 Cl 0.81796(7) 0.72025(5) 0.77238(6)
N1 N 0.1176(2) 0.88388(12) 0.44665(15)
N2 N 0.0148(2) 0.81205(12) 0.45471(14)
N3 N -0.4254(3) 0.99138(17) 0.2170(2)
C1 C 0.3585(3) 0.65420(15) 0.56647(18)
C2 C 0.5304(3) 0.65097(16) 0.62770(19)
H1 H 0.5982 0.6025 0.6193
C3 C 0.6000(3) 0.72040(16) 0.70121(19)
C4 C 0.4996(3) 0.79158(16) 0.71666(19)
H2 H 0.5468 0.8373 0.7681
C5 C 0.3289(3) 0.79383(16) 0.65490(19)
H3 H 0.2616 0.8420 0.6648
C6 C 0.2541(3) 0.72596(14) 0.57789(18)
C7 C 0.0708(3) 0.73292(15) 0.51216(18)
C8 C -0.0531(3) 0.66876(16) 0.5045(2)
H4 H -0.0243 0.6132 0.5411
C9 C -0.2230(3) 0.68669(18) 0.4416(2)
H5 H -0.3036 0.6412 0.4376
N4 N -0.2771(2) 0.76324(14) 0.38782(17)
C10 C -0.1555(3) 0.82588(15) 0.39444(18)
C11 C -0.1611(3) 0.91130(15) 0.34518(18)
C12 C 0.0087(3) 0.94280(15) 0.38006(18)
C13 C 0.3024(4) 1.0381(2) 0.4068(3)
H6 H 0.3249 1.0229 0.4838
H7 H 0.3547 1.0957 0.4012
H8 H 0.3489 0.9916 0.3714
C14 C -0.3084(3) 0.95536(16) 0.2741(2)
loop_
_geom_bond_atom_site_label_1
_geom_bond_atom_site_label_2
_geom_bond_site_symmetry_1
_geom_bond_site_symmetry_2
S1 C12 1_555 1_555
Cl1 C1 1_555 1_555
Cl2 C3 1_555 1_555
N1 N2 1_555 1_555
N2 C7 1_555 1_555
N3 C14 1_555 1_555
C1 C2 1_555 1_555
C2 H1 1_555 1_555
C3 C2 1_555 1_555
C4 C3 1_555 1_555
H2 C4 1_555 1_555
C5 C4 1_555 1_555
H3 C5 1_555 1_555
C6 C1 1_555 1_555
C7 C6 1_555 1_555
C8 C7 1_555 1_555
H4 C8 1_555 1_555
C9 C8 1_555 1_555
H5 C9 1_555 1_555
N4 C9 1_555 1_555
C10 N2 1_555 1_555
C11 C10 1_555 1_555
C12 N1 1_555 1_555
C13 S1 1_555 1_555
H6 C13 1_555 1_555
H7 C13 1_555 1_555
H8 C13 1_555 1_555
C14 C11 1_555 1_555
C5 C6 1_555 1_555
N4 C10 1_555 1_555
C11 C12 1_555 1_555

#END
