
#######################################################################
#
#                 Cambridge Crystallographic Data Centre
#                                CCDC 
#
#######################################################################
#
# If this CIF has been generated from an entry in the Cambridge 
# Structural Database, then it will include bibliographic, chemical, 
# crystal, experimental, refinement or atomic coordinate data resulting 
# from the CCDC's data processing and validation procedures.
#
#######################################################################

data_MOTJIP
_chemical_formula_moiety         'C26 H26 Br2 O6'
_chemical_name_systematic        
7,14-bis(4-bromophenyl)-2,11,11-trimethyl-1,4,10,12-tetraoxadispiro[4.2.5.2]pentadecane-9,13-dione
_symmetry_cell_setting           triclinic
_symmetry_space_group_name_H-M   'P -1'
_symmetry_Int_Tables_number      2
_space_group_name_Hall           '-P 1'
loop_
_symmetry_equiv_pos_site_id
_symmetry_equiv_pos_as_xyz
1 x,y,z
2 -x,-y,-z
_cell_length_a                   7.356(3)
_cell_length_b                   12.590(5)
_cell_length_c                   14.852(6)
_cell_angle_alpha                69.787(6)
_cell_angle_beta                 87.415(7)
_cell_angle_gamma                79.243(6)
_cell_volume                     1267.8
_exptl_crystal_colour            colorless
_exptl_crystal_description       prism
_cell_formula_units_Z            2
loop_
_atom_site_label
_atom_site_type_symbol
_atom_site_fract_x
_atom_site_fract_y
_atom_site_fract_z
Br1 Br -0.42012(15) 0.06501(8) 1.10942(7)
Br2 Br 0.153(4) 0.9617(10) 0.6351(8)
O1 O 0.0177(8) 0.4886(5) 0.8942(4)
O2 O -0.2101(7) 0.5229(5) 0.7764(4)
O3 O 0.2839(8) 0.3774(4) 0.9013(4)
O4 O -0.1776(7) 0.4473(4) 0.6644(4)
O5 O 0.2593(9) 0.2562(5) 0.5545(4)
O6 O 0.4502(10) 0.2393(5) 0.6762(4)
C1 C 0.1367(14) 0.4189(7) 0.8619(6)
C2 C -0.1683(13) 0.5300(8) 0.8662(7)
C3 C -0.1111(14) 0.4561(7) 0.7342(7)
C4 C 0.0841(11) 0.4000(6) 0.7706(6)
C5 C 0.1176(11) 0.2655(6) 0.7948(5)
H1 H 0.2411 0.2357 0.8250
C6 C 0.1253(13) 0.2337(7) 0.7058(6)
H2 H 0.0047 0.2600 0.6740
H3 H 0.1540 0.1505 0.7239
C7 C 0.2707(14) 0.2862(7) 0.6355(7)
C8 C 0.2277(12) 0.4198(7) 0.6086(6)
H4 H 0.3187 0.4532 0.5636
H5 H 0.1068 0.4498 0.5772
C9 C 0.2306(11) 0.4533(6) 0.6926(6)
H6 H 0.3536 0.4200 0.7227
C10 C -0.2069(13) 0.6528(7) 0.8562(6)
H7 H -0.3337 0.6847 0.8365
H8 H -0.1274 0.6932 0.8089
H9 H -0.1845 0.6603 0.9167
C11 C -0.2822(11) 0.4550(6) 0.9417(5)
H10 H -0.4112 0.4804 0.9241
H11 H -0.2618 0.4611 1.0029
H12 H -0.2454 0.3763 0.9454
C12 C -0.0149(12) 0.2112(6) 0.8688(6)
C13 C 0.0441(12) 0.1672(6) 0.9644(6)
H13 H 0.1648 0.1672 0.9807
C14 C -0.0782(13) 0.1233(6) 1.0353(6)
H14 H -0.0391 0.0948 1.0993
C15 C -0.2547(13) 0.1210(6) 1.0128(7)
C16 C -0.3171(11) 0.1642(6) 0.9171(6)
H15 H -0.4377 0.1640 0.9009
C17 C -0.1928(13) 0.2069(6) 0.8477(6)
H16 H -0.2311 0.2340 0.7836
C18 C 0.2047(12) 0.5829(6) 0.6711(6)
C19 C 0.3090(12) 0.6205(7) 0.7226(6)
H17 H 0.4012 0.5686 0.7645
C20 C 0.2792(13) 0.7354(7) 0.7134(6)
H18 H 0.3513 0.7617 0.7481
C21 C 0.1409(15) 0.8104(7) 0.6517(7)
C22 C 0.0427(13) 0.7738(7) 0.5975(6)
H19 H -0.0453 0.8257 0.5530
C23 C 0.0739(12) 0.6600(7) 0.6087(6)
H20 H 0.0037 0.6344 0.5725
C24 C 0.4398(14) 0.2316(9) 0.5185(7)
H21 H 0.4661 0.2965 0.4645
H22 H 0.4542 0.1642 0.4994
C25 C 0.5598(15) 0.2100(9) 0.6036(8)
H23 H 0.6610 0.2537 0.5858
C26 C 0.633(3) 0.0856(14) 0.6492(12)
H24 H 0.6963 0.0725 0.7082
H25 H 0.7168 0.0596 0.6068
H26 H 0.5318 0.0441 0.6624
Br3? Br 0.052(4) 0.9718(7) 0.6478(10)
C27? C 0.5598(15) 0.2100(9) 0.6036(8)
C28? C 0.755(3) 0.147(3) 0.602(2)
H27? H 0.5957 0.2858 0.5774
H28? H 0.8223 0.1402 0.6583
H29? H 0.8157 0.1889 0.5459
H30? H 0.7525 0.0714 0.6009
loop_
_geom_bond_atom_site_label_1
_geom_bond_atom_site_label_2
_geom_bond_site_symmetry_1
_geom_bond_site_symmetry_2
Br1 C15 1_555 1_555
Br2 C21 1_555 1_555
O1 C1 1_555 1_555
O2 C2 1_555 1_555
O3 C1 1_555 1_555
O4 C3 1_555 1_555
O5 C7 1_555 1_555
O6 C7 1_555 1_555
C1 C4 1_555 1_555
C2 O1 1_555 1_555
C3 O2 1_555 1_555
C4 C3 1_555 1_555
C5 C4 1_555 1_555
H1 C5 1_555 1_555
C6 C5 1_555 1_555
H2 C6 1_555 1_555
H3 C6 1_555 1_555
C7 C6 1_555 1_555
C8 C7 1_555 1_555
H4 C8 1_555 1_555
H5 C8 1_555 1_555
C9 C4 1_555 1_555
H6 C9 1_555 1_555
C10 C2 1_555 1_555
H7 C10 1_555 1_555
H8 C10 1_555 1_555
H9 C10 1_555 1_555
C11 C2 1_555 1_555
H10 C11 1_555 1_555
H11 C11 1_555 1_555
H12 C11 1_555 1_555
C12 C5 1_555 1_555
C13 C12 1_555 1_555
H13 C13 1_555 1_555
C14 C13 1_555 1_555
H14 C14 1_555 1_555
C15 C14 1_555 1_555
C16 C15 1_555 1_555
H15 C16 1_555 1_555
C17 C12 1_555 1_555
H16 C17 1_555 1_555
C18 C9 1_555 1_555
C19 C18 1_555 1_555
H17 C19 1_555 1_555
C20 C19 1_555 1_555
H18 C20 1_555 1_555
C21 C20 1_555 1_555
C22 C21 1_555 1_555
H19 C22 1_555 1_555
C23 C18 1_555 1_555
H20 C23 1_555 1_555
C24 O5 1_555 1_555
H21 C24 1_555 1_555
H22 C24 1_555 1_555
C25 O6 1_555 1_555
H23 C25 1_555 1_555
C26 C25 1_555 1_555
H24 C26 1_555 1_555
H25 C26 1_555 1_555
H26 C26 1_555 1_555
C8 C9 1_555 1_555
C16 C17 1_555 1_555
C22 C23 1_555 1_555
C24 C25 1_555 1_555

#END
