
#######################################################################
#
#                 Cambridge Crystallographic Data Centre
#                                CCDC 
#
#######################################################################
#
# If this CIF has been generated from an entry in the Cambridge 
# Structural Database, then it will include bibliographic, chemical, 
# crystal, experimental, refinement or atomic coordinate data resulting 
# from the CCDC's data processing and validation procedures.
#
#######################################################################

data_MOTKEN
_chemical_formula_moiety         'C24 H17 Cl1 N2 O3'
_chemical_name_systematic        
10-(2-((4-chlorophenoxy)methyl)-1H-imidazol-4-yl)-10-hydroxyanthracen-9(10H)-one
_symmetry_cell_setting           monoclinic
_symmetry_space_group_name_H-M   'P 21/c'
_symmetry_Int_Tables_number      14
_space_group_name_Hall           '-P 2ybc'
loop_
_symmetry_equiv_pos_site_id
_symmetry_equiv_pos_as_xyz
1 x,y,z
2 -x,1/2+y,1/2-z
3 -x,-y,-z
4 x,1/2-y,1/2+z
_cell_length_a                   19.0233(10)
_cell_length_b                   6.9191(4)
_cell_length_c                   15.1543(8)
_cell_angle_alpha                90
_cell_angle_beta                 108.540(3)
_cell_angle_gamma                90
_cell_volume                     1891.15
_exptl_crystal_colour            'pale brown'
_exptl_crystal_description       prism
_cell_formula_units_Z            4
loop_
_atom_site_label
_atom_site_type_symbol
_atom_site_fract_x
_atom_site_fract_y
_atom_site_fract_z
C1 C 1.08300(18) 1.2600(5) 0.9576(2)
C2 C 1.10419(18) 1.0691(5) 0.9666(3)
H1 H 1.1517 1.0335 1.0071
C3 C 1.05645(19) 0.9301(5) 0.9169(3)
H2 H 1.0710 0.7982 0.9227
C4 C 0.98671(17) 0.9825(5) 0.8580(2)
C5 C 0.96602(19) 1.1744(5) 0.8489(3)
H3 H 0.9186 1.2103 0.8082
C6 C 1.0145(2) 1.3157(5) 0.8994(3)
H4 H 1.0005 1.4481 0.8938
C7 C 0.87039(18) 0.8810(5) 0.7547(3)
H5 H 0.8733 0.9633 0.7025
H6 H 0.8438 0.9537 0.7906
C8 C 0.83038(17) 0.7000(5) 0.7183(2)
C9 C 0.80803(16) 0.3880(4) 0.7050(2)
H7 H 0.8118 0.2515 0.7118
C10 C 0.75434(17) 0.4879(4) 0.6513(2)
C11 C 0.68462(17) 0.3989(4) 0.5846(2)
C12 C 0.68580(16) 0.4447(4) 0.4866(2)
C13 C 0.71641(18) 0.3149(5) 0.4388(3)
H8 H 0.7352 0.1942 0.4661
C14 C 0.7194(2) 0.3622(6) 0.3515(3)
H9 H 0.7393 0.2718 0.3186
C15 C 0.6943(2) 0.5367(6) 0.3117(2)
H10 H 0.6968 0.5665 0.2515
C16 C 0.66526(19) 0.6700(6) 0.3586(2)
H11 H 0.6489 0.7925 0.3315
C17 C 0.66012(17) 0.6235(5) 0.4465(2)
C18 C 0.62193(17) 0.7573(4) 0.4931(2)
C19 C 0.59117(17) 0.6701(5) 0.5624(2)
C20 C 0.61762(17) 0.4918(5) 0.6027(2)
C21 C 0.58373(19) 0.4054(6) 0.6616(2)
H12 H 0.6014 0.2853 0.6905
C22 C 0.5236(2) 0.4963(7) 0.6781(3)
H13 H 0.4999 0.4357 0.7174
C23 C 0.4981(2) 0.6716(7) 0.6386(3)
H14 H 0.4572 0.7320 0.6505
C24 C 0.53214(19) 0.7588(6) 0.5822(2)
H15 H 0.5153 0.8817 0.5560
N1 N 0.86058(13) 0.5312(3) 0.75160(17)
N2 N 0.76549(14) 0.6857(4) 0.65651(19)
O1 O 0.94259(12) 0.8327(3) 0.81277(17)
O2 O 0.68972(13) 0.1997(3) 0.60521(17)
H16 H 0.6512 0.1436 0.5720
O3 O 0.61183(14) 0.9277(3) 0.47019(19)
Cl1 Cl 1.14451(6) 1.43579(15) 1.02142(8)
loop_
_geom_bond_atom_site_label_1
_geom_bond_atom_site_label_2
_geom_bond_site_symmetry_1
_geom_bond_site_symmetry_2
C1 C2 1_555 1_555
C2 H1 1_555 1_555
C3 C2 1_555 1_555
H2 C3 1_555 1_555
C4 C3 1_555 1_555
C5 C4 1_555 1_555
H3 C5 1_555 1_555
C6 C1 1_555 1_555
H4 C6 1_555 1_555
C7 H5 1_555 1_555
H6 C7 1_555 1_555
C8 C7 1_555 1_555
C9 H7 1_555 1_555
C10 C9 1_555 1_555
C11 C10 1_555 1_555
C12 C11 1_555 1_555
C13 C12 1_555 1_555
H8 C13 1_555 1_555
C14 C13 1_555 1_555
H9 C14 1_555 1_555
C15 C14 1_555 1_555
H10 C15 1_555 1_555
C16 C15 1_555 1_555
H11 C16 1_555 1_555
C17 C12 1_555 1_555
C18 C17 1_555 1_555
C19 C18 1_555 1_555
C20 C11 1_555 1_555
C21 C20 1_555 1_555
H12 C21 1_555 1_555
C22 C21 1_555 1_555
H13 C22 1_555 1_555
C23 C22 1_555 1_555
H14 C23 1_555 1_555
C24 C19 1_555 1_555
H15 C24 1_555 1_555
N1 C8 1_555 1_555
N2 C8 1_555 1_555
O1 C4 1_555 1_555
O2 C11 1_555 1_555
H16 O2 1_555 1_555
O3 C18 1_555 1_555
Cl1 C1 1_555 1_555
C5 C6 1_555 1_555
C7 O1 1_555 1_555
C9 N1 1_555 1_555
C10 N2 1_555 1_555
C16 C17 1_555 1_555
C19 C20 1_555 1_555
C23 C24 1_555 1_555

#END
