
#######################################################################
#
#                 Cambridge Crystallographic Data Centre
#                                CCDC 
#
#######################################################################
#
# If this CIF has been generated from an entry in the Cambridge 
# Structural Database, then it will include bibliographic, chemical, 
# crystal, experimental, refinement or atomic coordinate data resulting 
# from the CCDC's data processing and validation procedures.
#
#######################################################################

data_MOVBEE
_chemical_formula_moiety         'C15 H17 I1 N2 S1 Si1'
_chemical_name_systematic        
1-(4'-Iodo-1,1'-biphenyl-4-yl)-3-trimethylsilyl-1,3-diaza-2-thiaallene
_symmetry_cell_setting           triclinic
_symmetry_space_group_name_H-M   'P -1'
_symmetry_Int_Tables_number      2
_space_group_name_Hall           '-P 1'
loop_
_symmetry_equiv_pos_site_id
_symmetry_equiv_pos_as_xyz
1 x,y,z
2 -x,-y,-z
_cell_length_a                   6.2520(4)
_cell_length_b                   11.8804(8)
_cell_length_c                   12.2049(7)
_cell_angle_alpha                96.821(5)
_cell_angle_beta                 101.336(5)
_cell_angle_gamma                93.620(5)
_cell_volume                     879.069
_exptl_crystal_colour            yellow
_exptl_crystal_description       'thick plate'
_chemical_melting_point          '75-76 deg.C'
_cell_formula_units_Z            2
loop_
_atom_site_label
_atom_site_type_symbol
_atom_site_fract_x
_atom_site_fract_y
_atom_site_fract_z
I1 I 0.40095(4) 0.77929(2) 0.58549(2)
Si1 Si 2.14401(15) 1.45608(8) 0.74461(7)
S1 S 2.04186(15) 1.35155(8) 0.93487(7)
N1 N 1.8790(5) 1.2777(3) 0.9778(2)
N2 N 2.0005(5) 1.3643(2) 0.8112(2)
C1 C 1.6823(6) 1.2135(2) 0.9193(2)
C2 C 1.6196(6) 1.1863(3) 0.8027(3)
C3 C 1.4291(6) 1.1211(3) 0.7556(3)
C4 C 1.2855(5) 1.0807(2) 0.8193(2)
C5 C 1.3496(6) 1.1093(3) 0.9365(3)
C6 C 1.5410(6) 1.1727(3) 0.9848(3)
C7 C 1.0802(5) 1.0115(3) 0.7659(2)
C8 C 0.9683(6) 1.0245(3) 0.6584(3)
C9 C 0.7774(6) 0.9587(3) 0.6063(3)
C10 C 0.6945(6) 0.8769(3) 0.6627(3)
C11 C 0.7991(6) 0.8625(3) 0.7694(3)
C12 C 0.9897(6) 0.9284(3) 0.8196(3)
C13 C 1.9633(9) 1.5710(5) 0.7136(6)
C14 C 2.1897(14) 1.3717(6) 0.6153(5)
C15 C 2.4099(8) 1.5159(5) 0.8361(5)
H1 H 1.715(6) 1.206(3) 0.762(3)
H2 H 1.392(6) 1.102(3) 0.683(3)
H3 H 1.258(7) 1.087(3) 0.979(3)
H4 H 1.570(7) 1.188(4) 1.058(4)
H5 H 1.013(6) 1.082(3) 0.623(3)
H6 H 0.708(6) 0.965(3) 0.527(3)
H7 H 0.742(6) 0.804(3) 0.804(3)
H8 H 1.079(6) 0.917(3) 0.890(3)
H9 H 1.837(10) 1.525(5) 0.665(5)
H10 H 1.961(12) 1.625(7) 0.784(6)
H11 H 2.020(12) 1.623(7) 0.675(6)
H12 H 2.094(12) 1.386(6) 0.559(6)
H13 H 2.317(15) 1.411(8) 0.587(7)
H14 H 2.283(10) 1.307(6) 0.631(5)
H15 H 2.369(11) 1.561(6) 0.898(6)
H16 H 2.504(11) 1.462(6) 0.883(6)
H17 H 2.471(11) 1.544(6) 0.801(6)
loop_
_geom_bond_atom_site_label_1
_geom_bond_atom_site_label_2
_geom_bond_site_symmetry_1
_geom_bond_site_symmetry_2
I1 C10 1_555 1_555
Si1 N2 1_555 1_555
S1 N1 1_555 1_555
N1 C1 1_555 1_555
N2 S1 1_555 1_555
C1 C2 1_555 1_555
C2 C3 1_555 1_555
C3 C4 1_555 1_555
C4 C5 1_555 1_555
C5 C6 1_555 1_555
C6 C1 1_555 1_555
C7 C4 1_555 1_555
C8 C7 1_555 1_555
C9 C8 1_555 1_555
C10 C9 1_555 1_555
C11 C10 1_555 1_555
C12 C7 1_555 1_555
C13 Si1 1_555 1_555
C14 Si1 1_555 1_555
C15 Si1 1_555 1_555
H1 C2 1_555 1_555
H2 C3 1_555 1_555
H3 C5 1_555 1_555
H4 C6 1_555 1_555
H5 C8 1_555 1_555
H6 C9 1_555 1_555
H7 C11 1_555 1_555
H8 C12 1_555 1_555
H9 C13 1_555 1_555
H10 C13 1_555 1_555
H11 C13 1_555 1_555
H12 C14 1_555 1_555
H13 C14 1_555 1_555
H14 C14 1_555 1_555
H15 C15 1_555 1_555
H16 C15 1_555 1_555
H17 C15 1_555 1_555
C11 C12 1_555 1_555

#END
