
#######################################################################
#
#                 Cambridge Crystallographic Data Centre
#                                CCDC 
#
#######################################################################
#
# If this CIF has been generated from an entry in the Cambridge 
# Structural Database, then it will include bibliographic, chemical, 
# crystal, experimental, refinement or atomic coordinate data resulting 
# from the CCDC's data processing and validation procedures.
#
#######################################################################

data_MOVDAE
_chemical_name_common            
"1,1'-((7',17'-dimethyl-21',22',23',24'-tetraazadispiro[cyclohexane-1,2'-pentacyclo[16.2.1.1$3,6!.1$8,11!.1$13,16!]tetracosane-12',1''-cyclohexane]-1'(20'),3',5',8',10',13',15',18'-octaene-7',17'-diyl)bis(4,1-phenylenenitrilomethylylidene))bis(2-naphthol) unknown solvate"
_chemical_formula_moiety         'C66 H62 N6 O2'
_chemical_name_systematic        
'5,10,15,20,22,24-Hexahydro-5,15-dicyclohexyl-10,20-dimethyl-10a,20a-bis(4-(4-hydroxy-3-methoxybenzylidene)methyleneaminophenyl)calix[4]pyrrole unknown solvate'
_symmetry_cell_setting           monoclinic
_symmetry_space_group_name_H-M   'C 2/c'
_symmetry_Int_Tables_number      15
_space_group_name_Hall           '-C 2yn'
loop_
_symmetry_equiv_pos_site_id
_symmetry_equiv_pos_as_xyz
1 x,y,z
2 -x,y,1/2-z
3 1/2+x,1/2+y,z
4 1/2-x,1/2+y,1/2-z
5 -x,-y,-z
6 x,-y,1/2+z
7 1/2-x,1/2-y,-z
8 1/2+x,1/2-y,1/2+z
_cell_length_a                   44.102(6)
_cell_length_b                   6.5349(8)
_cell_length_c                   23.212(3)
_cell_angle_alpha                90
_cell_angle_beta                 93.872(4)
_cell_angle_gamma                90
_cell_volume                     6674.48
_chemical_melting_point          '274.4-274.6 deg.C'
_cell_formula_units_Z            4
loop_
_atom_site_label
_atom_site_type_symbol
_atom_site_fract_x
_atom_site_fract_y
_atom_site_fract_z
C1 C -0.06690(6) 0.8793(4) 0.25532(14)
C2 C -0.07908(8) 1.0440(5) 0.22613(15)
H1 H -0.0905 1.1476 0.2417
C3 C -0.07145(8) 1.0301(5) 0.16887(16)
H2 H -0.0771 1.1232 0.1398
C4 C -0.05434(7) 0.8567(4) 0.16238(14)
C5 C -0.04086(6) 0.7546(4) 0.11260(13)
C6 C -0.06182(7) 0.5774(5) 0.09105(16)
H3 H -0.0617 0.4725 0.1206
H4 H -0.0825 0.6283 0.0850
C7 C -0.05229(9) 0.4812(5) 0.03456(16)
H5 H -0.0330 0.4119 0.0419
H6 H -0.0673 0.3797 0.0214
C8 C -0.04937(9) 0.6378(6) -0.01219(16)
H7 H -0.0693 0.6915 -0.0242
H8 H -0.0412 0.5732 -0.0454
C9 C -0.02855(9) 0.8139(5) 0.00880(15)
H9 H -0.0080 0.7629 0.0159
H10 H -0.0284 0.9174 -0.0211
C10 C -0.03872(7) 0.9084(5) 0.06275(14)
H11 H -0.0585 0.9706 0.0544
H12 H -0.0246 1.0162 0.0750
C11 C -0.01005(7) 0.6719(4) 0.13310(13)
C12 C -0.00079(7) 0.4838(4) 0.15248(14)
H13 H -0.0127 0.3663 0.1529
C13 C 0.03056(7) 0.5001(5) 0.17203(14)
H14 H 0.0427 0.3938 0.1870
C14 C 0.03959(6) 0.6952(4) 0.16513(12)
C15 C 0.06915(7) 0.8017(4) 0.18385(14)
C16 C 0.07492(8) 0.9856(5) 0.14382(15)
H15 H 0.0941 1.0471 0.1555
H16 H 0.0590 1.0848 0.1466
H17 H 0.0752 0.9388 0.1047
C17 C 0.09512(7) 0.6472(4) 0.18030(14)
C18 C 0.10152(7) 0.5701(5) 0.12751(15)
H18 H 0.0906 0.6172 0.0944
C19 C 0.12408(8) 0.4221(5) 0.12239(17)
H19 H 0.1280 0.3723 0.0861
C20 C 0.14061(7) 0.3494(5) 0.17077(17)
C21 C 0.13506(7) 0.4374(5) 0.22406(15)
H20 H 0.1467 0.3975 0.2570
C22 C 0.11285(7) 0.5805(5) 0.22840(15)
H21 H 0.1095 0.6348 0.2644
C23 C 0.17010(7) 0.0558(5) 0.20270(19)
H22 H 0.1641 0.0748 0.2400
C24 C 0.18822(8) -0.1126(5) 0.1913(2)
C25 C 0.19762(8) -0.2576(6) 0.2344(2)
C26 C 0.19219(12) -0.2342(7) 0.2935(3)
H23 H 0.1821 -0.1176 0.3048
C27 C 0.20102(14) -0.3735(9) 0.3338(3)
H24 H 0.1970 -0.3522 0.3722
C28 C 0.21626(15) -0.5497(9) 0.3182(4)
H25 H 0.2225 -0.6459 0.3461
C29 C 0.22196(11) -0.5802(8) 0.2617(3)
H26 H 0.2319 -0.6984 0.2511
C30 C 0.21310(8) -0.4370(6) 0.2203(3)
C31 C 0.21988(10) -0.4654(7) 0.1616(3)
H27 H 0.2300 -0.5837 0.1517
C32 C 0.21224(12) -0.3291(8) 0.1204(3)
H28 H 0.2173 -0.3520 0.0826
C33 C 0.19624(10) -0.1473(7) 0.1346(2)
N1 N 0.01485(5) 0.7996(4) 0.14130(10)
H29 H 0.0148 0.9275 0.1326
N2 N -0.05218(5) 0.7680(4) 0.21645(11)
H30 H -0.0426 0.6557 0.2246
N3 N 0.16116(6) 0.1901(4) 0.16185(14)
O1 O 0.18962(8) -0.0221(6) 0.09355(16)
H31 H 0.1712 -0.0236 0.0856
C1A C 0.06690(6) 0.8793(4) 0.24468(14)
C2A C 0.07908(8) 1.0440(5) 0.27387(15)
H1A H 0.0905 1.1476 0.2583
C3A C 0.07145(8) 1.0301(5) 0.33113(16)
H2A H 0.0771 1.1232 0.3602
C4A C 0.05434(7) 0.8567(4) 0.33762(14)
C5A C 0.04086(6) 0.7546(4) 0.38740(13)
C6A C 0.06182(7) 0.5774(5) 0.40895(16)
H3A H 0.0617 0.4725 0.3794
H4A H 0.0825 0.6283 0.4150
C7A C 0.05229(9) 0.4812(5) 0.46544(16)
H5A H 0.0330 0.4119 0.4581
H6A H 0.0673 0.3797 0.4786
C8A C 0.04937(9) 0.6378(6) 0.51219(16)
H7A H 0.0693 0.6915 0.5242
H8A H 0.0412 0.5732 0.5454
C9A C 0.02855(9) 0.8139(5) 0.49120(15)
H9A H 0.0080 0.7629 0.4841
H10A H 0.0284 0.9174 0.5211
C10A C 0.03872(7) 0.9084(5) 0.43725(14)
H11A H 0.0585 0.9706 0.4456
H12A H 0.0246 1.0162 0.4250
C11A C 0.01005(7) 0.6719(4) 0.36690(13)
C12A C 0.00079(7) 0.4838(4) 0.34752(14)
H13A H 0.0127 0.3663 0.3471
C13A C -0.03056(7) 0.5001(5) 0.32797(14)
H14A H -0.0427 0.3938 0.3130
C14A C -0.03959(6) 0.6952(4) 0.33487(12)
C15A C -0.06915(7) 0.8017(4) 0.31615(14)
C16A C -0.07492(8) 0.9856(5) 0.35618(15)
H15A H -0.0941 1.0471 0.3445
H16A H -0.0590 1.0848 0.3534
H17A H -0.0752 0.9388 0.3953
C17A C -0.09512(7) 0.6472(4) 0.31970(14)
C18A C -0.10152(7) 0.5701(5) 0.37249(15)
H18A H -0.0906 0.6172 0.4056
C19A C -0.12408(8) 0.4221(5) 0.37761(17)
H19A H -0.1280 0.3723 0.4139
C20A C -0.14061(7) 0.3494(5) 0.32923(17)
C21A C -0.13506(7) 0.4374(5) 0.27594(15)
H20A H -0.1467 0.3975 0.2430
C22A C -0.11285(7) 0.5805(5) 0.27160(15)
H21A H -0.1095 0.6348 0.2356
C23A C -0.17010(7) 0.0558(5) 0.29730(19)
H22A H -0.1641 0.0748 0.2600
C24A C -0.18822(8) -0.1126(5) 0.3087(2)
C25A C -0.19762(8) -0.2576(6) 0.2656(2)
C26A C -0.19219(12) -0.2342(7) 0.2065(3)
H23A H -0.1821 -0.1176 0.1952
C27A C -0.20102(14) -0.3735(9) 0.1662(3)
H24A H -0.1970 -0.3522 0.1278
C28A C -0.21626(15) -0.5497(9) 0.1818(4)
H25A H -0.2225 -0.6459 0.1539
C29A C -0.22196(11) -0.5802(8) 0.2383(3)
H26A H -0.2319 -0.6984 0.2489
C30A C -0.21310(8) -0.4370(6) 0.2797(3)
C31A C -0.21988(10) -0.4654(7) 0.3384(3)
H27A H -0.2300 -0.5837 0.3483
C32A C -0.21224(12) -0.3291(8) 0.3796(3)
H28A H -0.2173 -0.3520 0.4174
C33A C -0.19624(10) -0.1473(7) 0.3654(2)
N1A N -0.01485(5) 0.7996(4) 0.35870(10)
H29A H -0.0148 0.9275 0.3674
N2A N 0.05218(5) 0.7680(4) 0.28355(11)
H30A H 0.0426 0.6557 0.2754
N3A N -0.16116(6) 0.1901(4) 0.33815(14)
O1A O -0.18962(8) -0.0221(6) 0.40645(16)
H31A H -0.1712 -0.0236 0.4144
loop_
_geom_bond_atom_site_label_1
_geom_bond_atom_site_label_2
_geom_bond_site_symmetry_1
_geom_bond_site_symmetry_2
C1 C2 1_555 1_555
C2 H1 1_555 1_555
C3 C2 1_555 1_555
H2 C3 1_555 1_555
C4 C3 1_555 1_555
C5 C4 1_555 1_555
C6 C5 1_555 1_555
H3 C6 1_555 1_555
H4 C6 1_555 1_555
C7 C6 1_555 1_555
H5 C7 1_555 1_555
H6 C7 1_555 1_555
C8 C7 1_555 1_555
H7 C8 1_555 1_555
H8 C8 1_555 1_555
C9 C8 1_555 1_555
H9 C9 1_555 1_555
H10 C9 1_555 1_555
C10 C5 1_555 1_555
H11 C10 1_555 1_555
H12 C10 1_555 1_555
C11 C5 1_555 1_555
C12 C11 1_555 1_555
H13 C12 1_555 1_555
C13 C12 1_555 1_555
H14 C13 1_555 1_555
C14 C13 1_555 1_555
C15 C14 1_555 1_555
C16 C15 1_555 1_555
H15 C16 1_555 1_555
H16 C16 1_555 1_555
H17 C16 1_555 1_555
C17 C15 1_555 1_555
C18 C17 1_555 1_555
H18 C18 1_555 1_555
C19 C18 1_555 1_555
H19 C19 1_555 1_555
C20 C19 1_555 1_555
C21 C20 1_555 1_555
H20 C21 1_555 1_555
C22 C17 1_555 1_555
H21 C22 1_555 1_555
C23 H22 1_555 1_555
C24 C23 1_555 1_555
C25 C24 1_555 1_555
C26 C25 1_555 1_555
H23 C26 1_555 1_555
C27 C26 1_555 1_555
H24 C27 1_555 1_555
C28 C27 1_555 1_555
H25 C28 1_555 1_555
C29 C28 1_555 1_555
H26 C29 1_555 1_555
C30 C25 1_555 1_555
C31 C30 1_555 1_555
H27 C31 1_555 1_555
C32 C31 1_555 1_555
H28 C32 1_555 1_555
C33 C24 1_555 1_555
N1 C11 1_555 1_555
H29 N1 1_555 1_555
N2 C1 1_555 1_555
H30 N2 1_555 1_555
N3 C20 1_555 1_555
O1 C33 1_555 1_555
H31 O1 1_555 1_555
C1A C15 1_555 1_555
C2A C1A 1_555 1_555
H1A C2A 1_555 1_555
C3A C2A 1_555 1_555
H2A C3A 1_555 1_555
C4A C3A 1_555 1_555
C5A C4A 1_555 1_555
C6A C5A 1_555 1_555
H3A C6A 1_555 1_555
H4A C6A 1_555 1_555
C7A C6A 1_555 1_555
H5A C7A 1_555 1_555
H6A C7A 1_555 1_555
C8A C7A 1_555 1_555
H7A C8A 1_555 1_555
H8A C8A 1_555 1_555
C9A C8A 1_555 1_555
H9A C9A 1_555 1_555
H10A C9A 1_555 1_555
C10A C5A 1_555 1_555
H11A C10A 1_555 1_555
H12A C10A 1_555 1_555
C11A C5A 1_555 1_555
C12A C11A 1_555 1_555
H13A C12A 1_555 1_555
C13A C12A 1_555 1_555
H14A C13A 1_555 1_555
C14A C13A 1_555 1_555
C15A C1 1_555 1_555
C16A C15A 1_555 1_555
H15A C16A 1_555 1_555
H16A C16A 1_555 1_555
H17A C16A 1_555 1_555
C17A C15A 1_555 1_555
C18A C17A 1_555 1_555
H18A C18A 1_555 1_555
C19A C18A 1_555 1_555
H19A C19A 1_555 1_555
C20A C19A 1_555 1_555
C21A C20A 1_555 1_555
H20A C21A 1_555 1_555
C22A C17A 1_555 1_555
H21A C22A 1_555 1_555
C23A H22A 1_555 1_555
C24A C23A 1_555 1_555
C25A C24A 1_555 1_555
C26A C25A 1_555 1_555
H23A C26A 1_555 1_555
C27A C26A 1_555 1_555
H24A C27A 1_555 1_555
C28A C27A 1_555 1_555
H25A C28A 1_555 1_555
C29A C28A 1_555 1_555
H26A C29A 1_555 1_555
C30A C25A 1_555 1_555
C31A C30A 1_555 1_555
H27A C31A 1_555 1_555
C32A C31A 1_555 1_555
H28A C32A 1_555 1_555
C33A C24A 1_555 1_555
N1A C11A 1_555 1_555
H29A N1A 1_555 1_555
N2A C1A 1_555 1_555
H30A N2A 1_555 1_555
N3A C20A 1_555 1_555
O1A C33A 1_555 1_555
H31A O1A 1_555 1_555
C4 N2 1_555 1_555
C9 C10 1_555 1_555
C14 N1 1_555 1_555
C21 C22 1_555 1_555
C23 N3 1_555 1_555
C29 C30 1_555 1_555
C32 C33 1_555 1_555
C4A N2A 1_555 1_555
C9A C10A 1_555 1_555
C14A C15A 1_555 1_555
C14A N1A 1_555 1_555
C21A C22A 1_555 1_555
C23A N3A 1_555 1_555
C29A C30A 1_555 1_555
C32A C33A 1_555 1_555

#END
