
#######################################################################
#
#                 Cambridge Crystallographic Data Centre
#                                CCDC 
#
#######################################################################
#
# If this CIF has been generated from an entry in the Cambridge 
# Structural Database, then it will include bibliographic, chemical, 
# crystal, experimental, refinement or atomic coordinate data resulting 
# from the CCDC's data processing and validation procedures.
#
#######################################################################

data_MOVKEP
_chemical_formula_moiety         'C30 H26 Br1 N1 O3'
_chemical_name_systematic        
'methyl 2-anilino-3-(4-bromophenyl)-5-oxo-2,5-diphenylpentanoate'
_symmetry_cell_setting           triclinic
_symmetry_space_group_name_H-M   'P -1'
_symmetry_Int_Tables_number      2
_space_group_name_Hall           '-P 1'
loop_
_symmetry_equiv_pos_site_id
_symmetry_equiv_pos_as_xyz
1 x,y,z
2 -x,-y,-z
_cell_length_a                   8.9772(3)
_cell_length_b                   11.5040(4)
_cell_length_c                   13.5812(5)
_cell_angle_alpha                65.9990(10)
_cell_angle_beta                 80.9860(10)
_cell_angle_gamma                89.0190(10)
_cell_volume                     1263.8
_exptl_crystal_colour            colorless
_exptl_crystal_description       block
_cell_formula_units_Z            2
loop_
_atom_site_label
_atom_site_type_symbol
_atom_site_fract_x
_atom_site_fract_y
_atom_site_fract_z
Br1 Br 0.73156(3) 0.92197(2) -0.03822(2)
O1 O 1.21117(19) 0.54685(14) 0.02974(11)
O2 O 1.30140(16) 0.59860(13) 0.15138(11)
O3 O 0.84706(19) 0.53657(15) 0.44647(13)
N1 N 1.05690(19) 0.34396(15) 0.17784(12)
H1 H 1.0463 0.3878 0.1093
C1 C 0.9921(2) 0.22086(18) 0.22418(15)
C2 C 1.0071(3) 0.12858(19) 0.32660(16)
H2 H 1.0668 0.1475 0.3706
C3 C 0.9356(3) 0.0098(2) 0.36455(18)
H3 H 0.9456 -0.0516 0.4353
C4 C 0.8505(3) -0.0222(2) 0.3028(2)
H4 H 0.8019 -0.1045 0.3299
C5 C 0.8374(3) 0.0680(2) 0.20083(19)
H5 H 0.7802 0.0472 0.1564
C6 C 0.9055(2) 0.1876(2) 0.16208(16)
H6 H 0.8934 0.2488 0.0917
C7 C 0.7235(2) 0.3357(2) 0.55348(16)
C8 C 0.7345(3) 0.2060(2) 0.5935(2)
H7 H 0.8140 0.1712 0.5608
C9 C 0.6315(4) 0.1254(3) 0.6808(2)
H8 H 0.6425 0.0359 0.7093
C10 C 0.5143(3) 0.1739(3) 0.7259(2)
H9 H 0.4428 0.1184 0.7852
C11 C 0.4999(3) 0.3015(3) 0.6862(2)
H10 H 0.4172 0.3350 0.7174
C12 C 0.6043(3) 0.3837(3) 0.60065(19)
H11 H 0.5940 0.4731 0.5743
C13 C 0.9500(2) 0.58184(18) 0.21481(15)
C14 C 0.8398(2) 0.56027(19) 0.16221(16)
H12 H 0.8084 0.4752 0.1780
C15 C 0.7747(2) 0.6607(2) 0.08709(16)
H13 H 0.7007 0.6447 0.0506
C16 C 0.8183(2) 0.78301(19) 0.06603(16)
C17 C 0.9249(2) 0.8081(2) 0.11832(17)
H14 H 0.9537 0.8934 0.1037
C18 C 0.9893(2) 0.70706(19) 0.19241(16)
H15 H 1.0626 0.7238 0.2290
C19 C 1.2651(2) 0.33427(18) 0.28042(15)
C20 C 1.3598(3) 0.2762(2) 0.22486(19)
H16 H 1.3410 0.2817 0.1562
C21 C 1.4803(3) 0.2108(3) 0.2677(2)
H17 H 1.5454 0.1737 0.2275
C22 C 1.5074(3) 0.1988(3) 0.3678(2)
H18 H 1.5903 0.1530 0.3976
C23 C 1.4130(3) 0.2537(2) 0.4247(2)
H19 H 1.4300 0.2445 0.4948
C24 C 1.2937(2) 0.3223(2) 0.38105(16)
H20 H 1.2309 0.3615 0.4205
C25 C 0.8334(2) 0.4268(2) 0.46018(15)
C26 C 0.9240(2) 0.37508(19) 0.38503(15)
H21 H 0.8534 0.3390 0.3543
H22 H 0.9832 0.3047 0.4284
C27 C 1.0320(2) 0.47400(18) 0.29086(15)
H23 H 1.0981 0.5125 0.3237
C28 C 1.1389(2) 0.41238(17) 0.22293(14)
C29 C 1.2207(2) 0.52590(18) 0.12223(15)
C30 C 1.3693(3) 0.7147(2) 0.06393(19)
H24 H 1.4264 0.7613 0.0935
H25 H 1.2900 0.7676 0.0287
H26 H 1.4375 0.6941 0.0101
loop_
_geom_bond_atom_site_label_1
_geom_bond_atom_site_label_2
_geom_bond_site_symmetry_1
_geom_bond_site_symmetry_2
Br1 C16 1_555 1_555
O1 C29 1_555 1_555
O2 C29 1_555 1_555
O3 C25 1_555 1_555
N1 H1 1_555 1_555
C1 N1 1_555 1_555
C2 C1 1_555 1_555
H2 C2 1_555 1_555
C3 C2 1_555 1_555
H3 C3 1_555 1_555
C4 C3 1_555 1_555
H4 C4 1_555 1_555
C5 C4 1_555 1_555
H5 C5 1_555 1_555
C6 C1 1_555 1_555
H6 C6 1_555 1_555
C7 C8 1_555 1_555
C8 H7 1_555 1_555
C9 C8 1_555 1_555
H8 C9 1_555 1_555
C10 C9 1_555 1_555
H9 C10 1_555 1_555
C11 C10 1_555 1_555
H10 C11 1_555 1_555
C12 C7 1_555 1_555
H11 C12 1_555 1_555
C13 C14 1_555 1_555
C14 H12 1_555 1_555
C15 C14 1_555 1_555
H13 C15 1_555 1_555
C16 C15 1_555 1_555
C17 C16 1_555 1_555
H14 C17 1_555 1_555
C18 C13 1_555 1_555
H15 C18 1_555 1_555
C19 C20 1_555 1_555
C20 H16 1_555 1_555
C21 C20 1_555 1_555
H17 C21 1_555 1_555
C22 C21 1_555 1_555
H18 C22 1_555 1_555
C23 C22 1_555 1_555
H19 C23 1_555 1_555
C24 C19 1_555 1_555
H20 C24 1_555 1_555
C25 C7 1_555 1_555
C26 C25 1_555 1_555
H21 C26 1_555 1_555
H22 C26 1_555 1_555
C27 C13 1_555 1_555
H23 C27 1_555 1_555
C28 N1 1_555 1_555
C29 C28 1_555 1_555
C30 O2 1_555 1_555
H24 C30 1_555 1_555
H25 C30 1_555 1_555
H26 C30 1_555 1_555
C5 C6 1_555 1_555
C11 C12 1_555 1_555
C17 C18 1_555 1_555
C19 C28 1_555 1_555
C23 C24 1_555 1_555
C26 C27 1_555 1_555
C27 C28 1_555 1_555

#END
