
#######################################################################
#
#                 Cambridge Crystallographic Data Centre
#                                CCDC 
#
#######################################################################
#
# If this CIF has been generated from an entry in the Cambridge 
# Structural Database, then it will include bibliographic, chemical, 
# crystal, experimental, refinement or atomic coordinate data resulting 
# from the CCDC's data processing and validation procedures.
#
#######################################################################

data_MOXCIL
_chemical_formula_moiety         'C12 H14 N4 O2'
_chemical_name_systematic        
2-(Methylphenylamino)-4,6-dimethoxy-1,3,5-triazine
_symmetry_cell_setting           monoclinic
_symmetry_space_group_name_H-M   'P 21/c'
_symmetry_Int_Tables_number      14
_space_group_name_Hall           '-P 2ybc'
loop_
_symmetry_equiv_pos_site_id
_symmetry_equiv_pos_as_xyz
1 x,y,z
2 -x,1/2+y,1/2-z
3 -x,-y,-z
4 x,1/2-y,1/2+z
_cell_length_a                   5.5970(10)
_cell_length_b                   7.870(2)
_cell_length_c                   28.640(6)
_cell_angle_alpha                90
_cell_angle_beta                 90.77(3)
_cell_angle_gamma                90
_cell_volume                     1261.43
_exptl_crystal_colour            colorless
_chemical_melting_point          52-53deg.C
_cell_formula_units_Z            4
_exptl_crystal_recrystallization_method ligroin
loop_
_atom_site_label
_atom_site_type_symbol
_atom_site_fract_x
_atom_site_fract_y
_atom_site_fract_z
O1 O 0.0616(5) 0.2942(3) 0.1510(1)
O2 O 0.4912(6) 0.1775(3) 0.0229(1)
N1 N 0.3653(5) 0.4624(3) 0.1343(1)
N2 N 0.2704(5) 0.2279(3) 0.0852(1)
N3 N 0.5898(5) 0.4135(3) 0.0651(1)
N4 N 0.6773(5) 0.6381(3) 0.1135(1)
C1 C 0.5423(6) 0.4995(3) 0.1042(1)
C2 C 0.2408(6) 0.3261(3) 0.1220(1)
C3 C 0.4530(7) 0.2780(4) 0.0593(1)
C4 C -0.0894(8) 0.1505(4) 0.1418(1)
C5 C 0.6926(8) 0.2120(5) -0.0064(1)
C6 C 0.8627(7) 0.6904(5) 0.0810(1)
C7 C 0.6578(6) 0.7256(3) 0.1569(1)
C8 C 0.8326(7) 0.7034(4) 0.1899(1)
C9 C 0.8249(8) 0.7919(4) 0.2321(1)
C10 C 0.6357(8) 0.8986(5) 0.2401(1)
C11 C 0.4635(8) 0.9217(5) 0.2070(2)
C12 C 0.4769(7) 0.8365(4) 0.1653(1)
H1 H -0.2122 0.1446 0.1648
H2 H -0.1614 0.1618 0.1113
H3 H 0.0049 0.0487 0.1430
H4 H 0.7026 0.1340 -0.0320
H5 H 0.6860 0.3262 -0.0181
H6 H 0.8307 0.1992 0.0136
H7 H 0.8563 0.6211 0.0534
H8 H 0.8417 0.8075 0.0725
H9 H 1.0149 0.6761 0.0964
H10 H 0.9590 0.6243 0.1839
H11 H 0.9498 0.7789 0.2551
H12 H 0.6249 0.9577 0.2693
H13 H 0.3360 0.9999 0.2131
H14 H 0.3533 0.8514 0.1421
loop_
_geom_bond_atom_site_label_1
_geom_bond_atom_site_label_2
_geom_bond_site_symmetry_1
_geom_bond_site_symmetry_2
O1 C2 1_555 1_555
O2 C3 1_555 1_555
N1 C1 1_555 1_555
N2 C2 1_555 1_555
N3 C1 1_555 1_555
N4 C1 1_555 1_555
C2 N1 1_555 1_555
C3 N2 1_555 1_555
C4 O1 1_555 1_555
C5 O2 1_555 1_555
C6 N4 1_555 1_555
C7 N4 1_555 1_555
C8 C7 1_555 1_555
C9 C8 1_555 1_555
C10 C9 1_555 1_555
C11 C10 1_555 1_555
C12 C7 1_555 1_555
H1 C4 1_555 1_555
H2 C4 1_555 1_555
H3 C4 1_555 1_555
H4 C5 1_555 1_555
H5 C5 1_555 1_555
H6 C5 1_555 1_555
H7 C6 1_555 1_555
H8 C6 1_555 1_555
H9 C6 1_555 1_555
H10 C8 1_555 1_555
H11 C9 1_555 1_555
H12 C10 1_555 1_555
H13 C11 1_555 1_555
H14 C12 1_555 1_555
N3 C3 1_555 1_555
C11 C12 1_555 1_555

#END
