
#######################################################################
#
#                 Cambridge Crystallographic Data Centre
#                                CCDC 
#
#######################################################################
#
# If this CIF has been generated from an entry in the Cambridge 
# Structural Database, then it will include bibliographic, chemical, 
# crystal, experimental, refinement or atomic coordinate data resulting 
# from the CCDC's data processing and validation procedures.
#
#######################################################################

data_MOXRAU
_chemical_formula_moiety         'C55 H70 O10,0.5(C18 H20 N2 O4),4(H2 O1)'
_chemical_name_systematic        
'2,6-dibutylpyrrolo[3,4-f]isoindole-1,3,5,7(2H,6H)-tetrone 4,9,14,19,24,26,28,30,32,34-decaethoxyhexacyclo[21.2.2.2^3,6^.2^8,11^.2^13,16^.2^18,21^]pentatriaconta-1(25),3,5,8,10,13,15,18,20,23,26,28,30,32,34-pentadecaene tetrahydrate'
_symmetry_cell_setting           triclinic
_symmetry_space_group_name_H-M   'P -1'
_symmetry_Int_Tables_number      2
_space_group_name_Hall           '-P 1'
loop_
_symmetry_equiv_pos_site_id
_symmetry_equiv_pos_as_xyz
1 x,y,z
2 -x,-y,-z
_cell_length_a                   12.306(7)
_cell_length_b                   12.532(7)
_cell_length_c                   25.592(14)
_cell_angle_alpha                95.097(8)
_cell_angle_beta                 99.985(8)
_cell_angle_gamma                107.517(8)
_cell_volume                     3664.71
_cell_formula_units_Z            2
loop_
_atom_site_label
_atom_site_type_symbol
_atom_site_fract_x
_atom_site_fract_y
_atom_site_fract_z
C1 C 0.7366(6) 0.8175(6) 0.3615(3)
C2 C 0.8132(6) 0.7572(6) 0.3613(3)
C3 C 0.9261(6) 0.8126(6) 0.3628(3)
H1 H 0.9773 0.7711 0.3624
C4 C 0.9688(6) 0.9274(6) 0.3648(3)
C5 C 0.8944(6) 0.9922(6) 0.3642(2)
C6 C 0.7759(6) 0.9343(6) 0.3631(2)
H2 H 0.7238 0.9747 0.3633
C7 C 0.5430(6) 0.8209(8) 0.3607(4)
H3 H 0.5419 0.8618 0.3303
H4 H 0.5634 0.8743 0.3935
C8 C 0.4278(8) 0.7325(9) 0.3566(6)
H5 H 0.3693 0.7682 0.3583
H6 H 0.4325 0.6898 0.3858
H7 H 0.4077 0.6828 0.3232
C9 C 1.1653(6) 0.9288(7) 0.3643(3)
H8 H 1.1386 0.8711 0.3328
H9 H 1.1723 0.8917 0.3958
C10 C 1.2785(7) 1.0085(8) 0.3625(4)
H10 H 1.2714 1.0438 0.3309
H11 H 1.3339 0.9687 0.3617
H12 H 1.3045 1.0653 0.3937
C11 C 0.7672(7) 0.6270(6) 0.3581(3)
H13 H 0.8258 0.6018 0.3792
H14 H 0.6979 0.6057 0.3732
C12 C 0.7383(6) 0.5695(5) 0.3005(3)
C13 C 0.6283(7) 0.5476(6) 0.2707(4)
H15 H 0.5733 0.5661 0.2871
C14 C 0.5953(6) 0.4997(7) 0.2178(4)
C15 C 0.6758(7) 0.4695(6) 0.1925(3)
C16 C 0.7862(6) 0.4868(6) 0.2228(4)
H16 H 0.8406 0.4652 0.2071
C17 C 0.8168(7) 0.5365(6) 0.2769(4)
C18 C 0.9963(8) 0.4999(10) 0.2924(5)
H17 H 1.0168 0.5216 0.2590
H18 H 0.9558 0.4191 0.2864
C19 C 1.1026(10) 0.5268(12) 0.3342(5)
H19 H 1.1464 0.4782 0.3259
H20 H 1.0818 0.5155 0.3682
H21 H 1.1490 0.6043 0.3358
C20 C 0.4011(8) 0.5122(11) 0.2112(5)
H22 H 0.4259 0.5933 0.2225
H23 H 0.3886 0.4742 0.2421
C21 C 0.2893(9) 0.4733(13) 0.1666(6)
H24 H 0.2262 0.4860 0.1808
H25 H 0.2703 0.3942 0.1538
H26 H 0.3020 0.5157 0.1375
C22 C 0.6451(7) 0.4206(6) 0.1336(3)
H27 H 0.5634 0.3752 0.1239
H28 H 0.6907 0.3714 0.1274
C23 C 0.6685(7) 0.5135(6) 0.0980(3)
C24 C 0.7732(7) 0.5541(7) 0.0840(3)
C25 C 0.7966(7) 0.6400(6) 0.0531(3)
H29 H 0.8702 0.6680 0.0453
C26 C 0.7076(7) 0.6849(6) 0.0333(3)
C27 C 0.6004(6) 0.6407(6) 0.0479(3)
C28 C 0.5832(6) 0.5564(6) 0.0792(3)
H30 H 0.5105 0.5277 0.0878
C29 C 0.4079(7) 0.6448(7) 0.0380(3)
H31 H 0.4107 0.6527 0.0763
H32 H 0.3740 0.5653 0.0231
C30 C 0.3371(7) 0.7125(8) 0.0113(4)
H33 H 0.3730 0.7912 0.0258
H34 H 0.2595 0.6867 0.0177
H35 H 0.3339 0.7025 -0.0266
C31 C 0.9678(9) 0.5398(10) 0.0849(8)
H36 H 0.9498 0.5388 0.0464
H37 H 1.0121 0.6170 0.1013
C32 C 1.0324(12) 0.4763(13) 0.0953(9)
H38 H 0.9839 0.3986 0.0904
H39 H 1.0755 0.4985 0.1317
H40 H 1.0856 0.4847 0.0714
C33 C 0.7328(6) 0.7806(6) 0.0016(3)
H41 H 0.6622 0.7751 -0.0238
H42 H 0.7906 0.7741 -0.0187
C34 C 0.7768(6) 0.8952(6) 0.0364(3)
C35 C 0.8960(6) 0.9498(6) 0.0572(3)
C36 C 0.9331(6) 1.0488(6) 0.0910(3)
H43 H 1.0127 1.0829 0.1046
C37 C 0.8566(5) 1.1010(5) 0.1059(2)
C38 C 0.7398(6) 1.0498(6) 0.0861(3)
C39 C 0.6994(6) 0.9460(6) 0.0508(3)
H44 H 0.6199 0.9117 0.0373
C40 C 0.5444(6) 1.0451(7) 0.0867(4)
H45 H 0.5261 0.9704 0.0973
H46 H 0.5205 1.0364 0.0479
C41 C 0.4818(6) 1.1109(7) 0.1122(4)
H47 H 0.4019 1.0653 0.1083
H48 H 0.4853 1.1770 0.0954
H49 H 0.5174 1.1333 0.1497
C42 C 1.0877(6) 0.9381(7) 0.0643(3)
H50 H 1.1010 0.9467 0.1031
H51 H 1.1198 1.0119 0.0539
C43 C 1.1446(7) 0.8581(7) 0.0438(3)
H52 H 1.1309 0.7944 0.0629
H53 H 1.2269 0.8959 0.0492
H54 H 1.1125 0.8325 0.0063
C44 C 0.9016(5) 1.2114(5) 0.1450(3)
H55 H 0.9774 1.2556 0.1397
H56 H 0.8490 1.2548 0.1373
C45 C 0.9122(5) 1.1928(5) 0.2023(2)
C46 C 1.0153(6) 1.1799(5) 0.2304(3)
C47 C 1.0193(5) 1.1582(5) 0.2839(3)
H57 H 1.0868 1.1500 0.3032
C48 C 0.9264(6) 1.1490(5) 0.3079(2)
C49 C 0.8281(5) 1.1654(5) 0.2801(3)
C50 C 0.8227(5) 1.1868(5) 0.2276(3)
H58 H 0.7556 1.1973 0.2092
C51 C 0.6459(7) 1.1914(9) 0.2839(3)
H59 H 0.6043 1.1445 0.2499
H60 H 0.6761 1.2689 0.2775
C52 C 0.5654(8) 1.1842(12) 0.3214(5)
H61 H 0.5443 1.1099 0.3316
H62 H 0.4966 1.1985 0.3041
H63 H 0.6033 1.2395 0.3529
C53 C 1.1990(6) 1.1599(8) 0.2275(4)
H64 H 1.1736 1.0826 0.2348
H65 H 1.2366 1.2092 0.2614
C54 C 1.2837(7) 1.1715(10) 0.1914(4)
H66 H 1.2423 1.1391 0.1553
H67 H 1.3378 1.1327 0.2031
H68 H 1.3253 1.2502 0.1925
C55 C 0.9338(6) 1.1171(6) 0.3646(3)
H69 H 1.0137 1.1491 0.3845
H70 H 0.8860 1.1498 0.3829
O1 O 0.6241(4) 0.7578(4) 0.3610(2)
O2 O 1.0844(4) 0.9875(4) 0.36597(19)
O3 O 0.4879(5) 0.4802(6) 0.1861(3)
O4 O 0.9254(5) 0.5563(5) 0.3076(2)
O5 O 0.5190(4) 0.6887(4) 0.0280(2)
O6 O 0.8588(5) 0.5062(5) 0.1037(3)
O7 O 0.6648(4) 1.1019(4) 0.10256(19)
O8 O 0.9681(4) 0.8931(4) 0.0419(2)
O9 O 0.7383(4) 1.1545(4) 0.30627(18)
O10 O 1.1030(4) 1.1883(4) 0.2035(2)
C56 C 0.3878(16) 0.4086(16) 0.3632(5)
H71 H 0.3356 0.4113 0.3312
H72 H 0.4317 0.3601 0.3548
H73 H 0.4402 0.4834 0.3774
C57 C 0.3173(10) 0.3620(17) 0.4051(6)
H74 H 0.2731 0.4130 0.4102
H75 H 0.2605 0.2910 0.3864
C58 C 0.3573(17) 0.337(2) 0.4618(6)
H76 H 0.3671 0.2639 0.4539
H77 H 0.4361 0.3899 0.4720
C59 C 0.3221(19) 0.330(2) 0.5165(6)
H78 H 0.3835 0.3229 0.5440
H79 H 0.2988 0.3939 0.5282
C60 C 0.2333(7) 0.1206(7) 0.5028(3)
C61 C 0.1147(6) 0.0482(7) 0.5015(2)
C62 C 0.0724(6) -0.0682(6) 0.5000(3)
H80 H 0.1206 -0.1127 0.4996
C63 C -0.0440(6) -0.1141(6) 0.4992(2)
C64 C -0.1121(7) -0.2320(8) 0.4976(3)
N1 N 0.2268(6) 0.2290(6) 0.5017(2)
O11 O 0.3209(5) 0.0990(5) 0.5030(3)
O12 O -0.0862(5) -0.3166(5) 0.4959(2)
C56A C -0.3878(16) -0.4086(16) 0.6368(5)
H71A H -0.3356 -0.4113 0.6688
H72A H -0.4317 -0.3601 0.6452
H73A H -0.4402 -0.4834 0.6226
C57A C -0.3173(10) -0.3620(17) 0.5949(6)
H74A H -0.2731 -0.4130 0.5898
H75A H -0.2605 -0.2910 0.6136
C58A C -0.3573(17) -0.337(2) 0.5382(6)
H76A H -0.3671 -0.2639 0.5461
H77A H -0.4361 -0.3899 0.5280
C59A C -0.3221(19) -0.330(2) 0.4835(6)
H78A H -0.3835 -0.3229 0.4560
H79A H -0.2988 -0.3939 0.4718
C60A C -0.2333(7) -0.1206(7) 0.4972(3)
C61A C -0.1147(6) -0.0482(7) 0.4985(2)
C62A C -0.0724(6) 0.0682(6) 0.5000(3)
H80A H -0.1206 0.1127 0.5004
C63A C 0.0440(6) 0.1141(6) 0.5008(2)
C64A C 0.1121(7) 0.2320(8) 0.5024(3)
N1A N -0.2268(6) -0.2290(6) 0.4983(2)
O11A O -0.3209(5) -0.0990(5) 0.4970(3)
O12A O 0.0862(5) 0.3166(5) 0.5041(2)
O13 O 0.305(3) 0.765(2) 0.5169(6)
O14 O 0.651(3) 0.8454(18) 0.1958(9)
O15 O 0.1322(13) 0.5951(11) 0.5687(7)
O16 O 0.941(4) 0.814(2) 0.2099(7)
loop_
_geom_bond_atom_site_label_1
_geom_bond_atom_site_label_2
_geom_bond_site_symmetry_1
_geom_bond_site_symmetry_2
C1 C2 1_555 1_555
C2 C3 1_555 1_555
C3 H1 1_555 1_555
C4 C3 1_555 1_555
C5 C4 1_555 1_555
C6 C1 1_555 1_555
H2 C6 1_555 1_555
C7 H3 1_555 1_555
H4 C7 1_555 1_555
C8 C7 1_555 1_555
H5 C8 1_555 1_555
H6 C8 1_555 1_555
H7 C8 1_555 1_555
C9 H8 1_555 1_555
H9 C9 1_555 1_555
C10 C9 1_555 1_555
H10 C10 1_555 1_555
H11 C10 1_555 1_555
H12 C10 1_555 1_555
C11 C2 1_555 1_555
H13 C11 1_555 1_555
H14 C11 1_555 1_555
C12 C11 1_555 1_555
C13 C12 1_555 1_555
H15 C13 1_555 1_555
C14 C13 1_555 1_555
C15 C14 1_555 1_555
C16 C15 1_555 1_555
H16 C16 1_555 1_555
C17 C12 1_555 1_555
C18 H17 1_555 1_555
H18 C18 1_555 1_555
C19 C18 1_555 1_555
H19 C19 1_555 1_555
H20 C19 1_555 1_555
H21 C19 1_555 1_555
C20 H22 1_555 1_555
H23 C20 1_555 1_555
C21 C20 1_555 1_555
H24 C21 1_555 1_555
H25 C21 1_555 1_555
H26 C21 1_555 1_555
C22 C15 1_555 1_555
H27 C22 1_555 1_555
H28 C22 1_555 1_555
C23 C22 1_555 1_555
C24 C23 1_555 1_555
C25 C24 1_555 1_555
H29 C25 1_555 1_555
C26 C25 1_555 1_555
C27 C26 1_555 1_555
C28 C23 1_555 1_555
H30 C28 1_555 1_555
C29 H31 1_555 1_555
H32 C29 1_555 1_555
C30 C29 1_555 1_555
H33 C30 1_555 1_555
H34 C30 1_555 1_555
H35 C30 1_555 1_555
C31 H36 1_555 1_555
H37 C31 1_555 1_555
C32 C31 1_555 1_555
H38 C32 1_555 1_555
H39 C32 1_555 1_555
H40 C32 1_555 1_555
C33 C26 1_555 1_555
H41 C33 1_555 1_555
H42 C33 1_555 1_555
C34 C33 1_555 1_555
C35 C34 1_555 1_555
C36 C35 1_555 1_555
H43 C36 1_555 1_555
C37 C36 1_555 1_555
C38 C37 1_555 1_555
C39 C34 1_555 1_555
H44 C39 1_555 1_555
C40 H45 1_555 1_555
H46 C40 1_555 1_555
C41 C40 1_555 1_555
H47 C41 1_555 1_555
H48 C41 1_555 1_555
H49 C41 1_555 1_555
C42 H50 1_555 1_555
H51 C42 1_555 1_555
C43 C42 1_555 1_555
H52 C43 1_555 1_555
H53 C43 1_555 1_555
H54 C43 1_555 1_555
C44 C37 1_555 1_555
H55 C44 1_555 1_555
H56 C44 1_555 1_555
C45 C44 1_555 1_555
C46 C45 1_555 1_555
C47 C46 1_555 1_555
H57 C47 1_555 1_555
C48 C47 1_555 1_555
C49 C48 1_555 1_555
C50 C45 1_555 1_555
H58 C50 1_555 1_555
C51 H59 1_555 1_555
H60 C51 1_555 1_555
C52 C51 1_555 1_555
H61 C52 1_555 1_555
H62 C52 1_555 1_555
H63 C52 1_555 1_555
C53 H64 1_555 1_555
H65 C53 1_555 1_555
C54 C53 1_555 1_555
H66 C54 1_555 1_555
H67 C54 1_555 1_555
H68 C54 1_555 1_555
C55 C5 1_555 1_555
H69 C55 1_555 1_555
H70 C55 1_555 1_555
O1 C1 1_555 1_555
O2 C4 1_555 1_555
O3 C14 1_555 1_555
O4 C17 1_555 1_555
O5 C27 1_555 1_555
O6 C24 1_555 1_555
O7 C38 1_555 1_555
O8 C35 1_555 1_555
O9 C49 1_555 1_555
O10 C46 1_555 1_555
C56 H71 1_555 1_555
H72 C56 1_555 1_555
H73 C56 1_555 1_555
C57 C56 1_555 1_555
H74 C57 1_555 1_555
H75 C57 1_555 1_555
C58 C57 1_555 1_555
H76 C58 1_555 1_555
H77 C58 1_555 1_555
C59 C58 1_555 1_555
H78 C59 1_555 1_555
H79 C59 1_555 1_555
C60 C61 1_555 1_555
C61 C62 1_555 1_555
C62 H80 1_555 1_555
C63 C62 1_555 1_555
C64 C63 1_555 1_555
N1 C59 1_555 1_555
O11 C60 1_555 1_555
O12 C64 1_555 1_555
C56A H71A 1_555 1_555
H72A C56A 1_555 1_555
H73A C56A 1_555 1_555
C57A C56A 1_555 1_555
H74A C57A 1_555 1_555
H75A C57A 1_555 1_555
C58A C57A 1_555 1_555
H76A C58A 1_555 1_555
H77A C58A 1_555 1_555
C59A C58A 1_555 1_555
H78A C59A 1_555 1_555
H79A C59A 1_555 1_555
C60A C61A 1_555 1_555
C61A C63 1_555 1_555
C62A C61A 1_555 1_555
H80A C62A 1_555 1_555
C63A C61 1_555 1_555
C64A N1 1_555 1_555
N1A C64 1_555 1_555
O11A C60A 1_555 1_555
O12A C64A 1_555 1_555
C5 C6 1_555 1_555
C7 O1 1_555 1_555
C9 O2 1_555 1_555
C16 C17 1_555 1_555
C18 O4 1_555 1_555
C20 O3 1_555 1_555
C27 C28 1_555 1_555
C29 O5 1_555 1_555
C31 O6 1_555 1_555
C38 C39 1_555 1_555
C40 O7 1_555 1_555
C42 O8 1_555 1_555
C48 C55 1_555 1_555
C49 C50 1_555 1_555
C51 O9 1_555 1_555
C53 O10 1_555 1_555
C60 N1 1_555 1_555
C59A N1A 1_555 1_555
C60A N1A 1_555 1_555
C62A C63A 1_555 1_555
C63A C64A 1_555 1_555

#END
