
#######################################################################
#
#                 Cambridge Crystallographic Data Centre
#                                CCDC 
#
#######################################################################
#
# If this CIF has been generated from an entry in the Cambridge 
# Structural Database, then it will include bibliographic, chemical, 
# crystal, experimental, refinement or atomic coordinate data resulting 
# from the CCDC's data processing and validation procedures.
#
#######################################################################

data_MOYDUZ
_chemical_formula_moiety         'C20 H25 N1 O4'
_chemical_name_systematic        
'(2S,3R)-N-1,2-cyclohexanedicarboxy-4-phenylvaline methyl ester'
_symmetry_cell_setting           monoclinic
_symmetry_space_group_name_H-M   'P 21'
_symmetry_Int_Tables_number      4
_space_group_name_Hall           'P 2yb'
loop_
_symmetry_equiv_pos_site_id
_symmetry_equiv_pos_as_xyz
1 x,y,z
2 -x,1/2+y,-z
_cell_length_a                   15.738(3)
_cell_length_b                   6.450(1)
_cell_length_c                   9.110(2)
_cell_angle_alpha                90
_cell_angle_beta                 93.36(2)
_cell_angle_gamma                90
_cell_volume                     923.167
_chemical_melting_point          68-70deg.C
_cell_formula_units_Z            2
_exptl_crystal_recrystallization_method ethanol
loop_
_atom_site_label
_atom_site_type_symbol
_atom_site_fract_x
_atom_site_fract_y
_atom_site_fract_z
O1 O 0.31424(16) 0.10000 0.53220(34)
O2 O 0.40269(17) 0.35425(74) 0.47302(85)
O3 O 0.08805(16) 0.18165(74) 0.36279(35)
N1 N 0.18544(16) 0.37654(64) 0.50087(32)
O4 O 0.2553(2) 0.5535(8) 0.6892(3)
C1 C 0.2695(2) 0.5973(8) 0.3340(4)
C2 C 0.3332(2) 0.2796(8) 0.4718(4)
C3 C 0.1057(2) 0.4506(8) 0.7036(4)
C4 C 0.25294(19) 0.37993(71) 0.39708(87)
C5 C 0.4366(2) 0.8346(8) 0.2385(4)
C6 C 0.1105(2) 0.2657(8) 0.4770(4)
C7 C 0.0669(2) 0.2646(8) 0.6211(4)
C8 C 0.1922(2) 0.4707(8) 0.6393(4)
C9 C 0.3641(2) 0.7725(8) 0.1555(4)
C10 C 0.3198(3) 0.5758(8) 0.1939(4)
C11 C 0.3372(3) 0.9014(10) 0.0392(5)
C12 C 0.4809(3) 1.0115(10) 0.2058(6)
C13 C 0.3842(3) -0.0104(10) 0.6070(6)
C14 C 0.4521(3) 1.1343(9) 0.0908(6)
C15 C 0.1075(3) 0.4452(11) 0.8718(6)
C16 C 0.1877(3) 0.7163(9) 0.3016(6)
C17 C 0.0890(4) 0.0574(9) 0.6982(6)
C18 C 0.3806(4) 1.0818(10) 0.0085(6)
C19 C 0.1276(4) 0.2352(12) 0.9344(6)
C20 C 0.0738(4) 0.0695(12) 0.8621(7)
H1 H 0.2358(19) 0.3060(56) 0.3239(35)
H2 H 0.282(3) 0.530(10) 0.104(6)
H3 H 0.531(3) 1.044(9) 0.269(5)
H4 H 0.074(3) 0.568(7) 0.667(4)
H5 H 0.458(3) 0.738(10) 0.331(6)
H6 H 0.359(4) 1.151(12) -0.065(7)
H7 H 0.054(4) -0.050(11) 0.655(6)
H8 H 0.148(5) 0.559(15) 0.904(8)
H9 H 0.305(3) 0.674(7) 0.414(4)
H10 H 0.082(4) -0.061(15) 0.901(8)
H11 H 0.479(3) 1.267(10) 0.079(5)
H12 H 0.146(4) 0.080(10) 0.683(6)
H13 H 0.409(3) 0.084(10) 0.689(6)
H14 H 0.003(3) 0.270(7) 0.601(4)
H15 H 0.294(4) 0.853(10) -0.020(6)
H16 H 0.045(3) 0.489(10) 0.888(6)
H17 H 0.429(4) -0.032(12) 0.543(7)
H18 H 0.361(3) 0.470(8) 0.208(4)
H19 H 0.357(4) -0.141(13) 0.640(7)
H20 H 0.013(5) 0.118(14) 0.869(8)
H21 H 0.19776 0.85310 0.26490
H22 H 0.15676 0.72770 0.38900
H23 H 0.15376 0.64100 0.22860
H24 H 0.12002 0.23639 1.03819
H25 H 0.18612 0.20559 0.91849
loop_
_geom_bond_atom_site_label_1
_geom_bond_atom_site_label_2
_geom_bond_site_symmetry_1
_geom_bond_site_symmetry_2
O1 C2 1_555 1_555
O2 C2 1_555 1_555
O3 C6 1_555 1_555
N1 C4 1_555 1_555
O4 C8 1_555 1_555
C1 C4 1_555 1_555
C2 C4 1_555 1_555
C3 C7 1_555 1_555
C4 H1 1_555 1_555
C5 C9 1_555 1_555
C6 N1 1_555 1_555
C7 C6 1_555 1_555
C8 N1 1_555 1_555
C9 C10 1_555 1_555
C10 C1 1_555 1_555
C11 C9 1_555 1_555
C12 C5 1_555 1_555
C13 O1 1_555 1_555
C14 C12 1_555 1_555
C15 C3 1_555 1_555
C16 C1 1_555 1_555
C17 C7 1_555 1_555
C18 C11 1_555 1_555
C19 C15 1_555 1_555
C20 C17 1_555 1_555
H2 C10 1_555 1_555
H3 C12 1_555 1_555
H4 C3 1_555 1_555
H5 C5 1_555 1_555
H6 C18 1_555 1_555
H7 C17 1_555 1_555
H8 C15 1_555 1_555
H9 C1 1_555 1_555
H10 C20 1_555 1_555
H11 C14 1_555 1_555
H12 C17 1_555 1_555
H13 C13 1_555 1_555
H14 C7 1_555 1_555
H15 C11 1_555 1_555
H16 C15 1_555 1_555
H17 C13 1_555 1_555
H18 C10 1_555 1_555
H19 C13 1_555 1_555
H20 C20 1_555 1_555
H21 C16 1_555 1_555
H22 C16 1_555 1_555
H23 C16 1_555 1_555
H24 C19 1_555 1_555
H25 C19 1_555 1_555
C3 C8 1_555 1_555
C14 C18 1_555 1_555
C19 C20 1_555 1_555

#END
