
#######################################################################
#
#                 Cambridge Crystallographic Data Centre
#                                CCDC 
#
#######################################################################
#
# If this CIF has been generated from an entry in the Cambridge 
# Structural Database, then it will include bibliographic, chemical, 
# crystal, experimental, refinement or atomic coordinate data resulting 
# from the CCDC's data processing and validation procedures.
#
#######################################################################

data_MOZBAG
_chemical_formula_moiety         '2(C7 H5 Cl1 O2),C4 H5 N3'
_chemical_name_systematic        '2-Aminopyrimidine 4-chlorobenzoic acid'
_symmetry_cell_setting           orthorhombic
_symmetry_space_group_name_H-M   'P n m a'
_symmetry_Int_Tables_number      62
_space_group_name_Hall           '-P 2ac 2n'
loop_
_symmetry_equiv_pos_site_id
_symmetry_equiv_pos_as_xyz
1 x,y,z
2 1/2-x,-y,1/2+z
3 -x,1/2+y,-z
4 1/2+x,1/2-y,1/2-z
5 -x,-y,-z
6 1/2+x,y,1/2-z
7 x,1/2-y,z
8 1/2-x,1/2+y,1/2+z
_cell_length_a                   12.8405(8)
_cell_length_b                   36.354(2)
_cell_length_c                   3.7870(2)
_cell_angle_alpha                90
_cell_angle_beta                 90
_cell_angle_gamma                90
_cell_volume                     1767.78
_exptl_crystal_colour            colorless
_exptl_crystal_description       plate
_chemical_melting_point          '496 K'
_cell_formula_units_Z            4
loop_
_atom_site_label
_atom_site_type_symbol
_atom_site_fract_x
_atom_site_fract_y
_atom_site_fract_z
C1 C 0.5506(2) 0.62025(9) -0.0435(7)
C2 C 0.5930(2) 0.58881(10) 0.1124(8)
H1 H 0.6651 0.5880 0.1687
C3 C 0.5304(2) 0.55900(9) 0.1845(7)
H2 H 0.5591 0.5375 0.2892
C4 C 0.4257(2) 0.56061(9) 0.1033(7)
C5 C 0.3824(2) 0.59110(9) -0.0556(8)
H3 H 0.3104 0.5916 -0.1132
C6 C 0.4454(2) 0.62097(9) -0.1301(7)
H4 H 0.4167 0.6421 -0.2410
C7 C 0.6142(2) 0.65358(10) -0.1169(8)
O1 O 0.71109(15) 0.65187(7) -0.0058(5)
O2 O 0.57756(15) 0.68037(7) -0.2651(5)
Cl1 Cl 0.34481(6) 0.52392(2) 0.2119(2)
H5 H 0.745(3) 0.6738(14) 0.002(11)
C8 C 0.2680(3) 0.7500 0.5971(10)
C9 C 0.3988(2) 0.71782(9) 0.3256(7)
H6 H 0.4298 0.6952 0.2572
C10 C 0.4475(3) 0.7500 0.2370(10)
H7 H 0.5126 0.7500 0.1183
N1 N 0.30901(17) 0.71702(7) 0.5053(6)
N2 N 0.1819(3) 0.7500 0.7925(10)
H8 H 0.149(2) 0.7286(10) 0.851(9)
C9F C 0.3988(2) 0.78218(9) 0.3256(7)
H6F H 0.4298 0.8048 0.2572
N1F N 0.30901(17) 0.78298(7) 0.5053(6)
H8F H 0.149(2) 0.7714(10) 0.851(9)
loop_
_geom_bond_atom_site_label_1
_geom_bond_atom_site_label_2
_geom_bond_site_symmetry_1
_geom_bond_site_symmetry_2
C1 C2 1_555 1_555
C2 H1 1_555 1_555
C3 C2 1_555 1_555
H2 C3 1_555 1_555
C4 C3 1_555 1_555
C5 C4 1_555 1_555
H3 C5 1_555 1_555
C6 C1 1_555 1_555
H4 C6 1_555 1_555
C7 C1 1_555 1_555
O1 C7 1_555 1_555
O2 C7 1_555 1_555
Cl1 C4 1_555 1_555
H5 O1 1_555 1_555
C8 N1 1_555 1_555
C9 H6 1_555 1_555
C10 C9 1_555 1_555
H7 C10 1_555 1_555
N1 C9 1_555 1_555
N2 C8 1_555 1_555
H8 N2 1_555 1_555
C9F C10 1_555 1_555
H6F C9F 1_555 1_555
N1F C8 1_555 1_555
H8F N2 1_555 1_555
C5 C6 1_555 1_555
C9F N1F 1_555 1_555

#END
