
#######################################################################
#
#                 Cambridge Crystallographic Data Centre
#                                CCDC 
#
#######################################################################
#
# If this CIF has been generated from an entry in the Cambridge 
# Structural Database, then it will include bibliographic, chemical, 
# crystal, experimental, refinement or atomic coordinate data resulting 
# from the CCDC's data processing and validation procedures.
#
#######################################################################

data_MOZBUA
_chemical_formula_moiety         'C7 H5 Br1 O2,C7 H4 Br1 O2 1-,C5 H7 N2 1+'
_chemical_name_systematic        
'3-Aminopyridinium 3-bromobenzoate 3-bromobenzoic acid'
_symmetry_cell_setting           monoclinic
_symmetry_space_group_name_H-M   'C 2/c'
_symmetry_Int_Tables_number      15
_space_group_name_Hall           '-C 2yn'
loop_
_symmetry_equiv_pos_site_id
_symmetry_equiv_pos_as_xyz
1 x,y,z
2 -x,y,1/2-z
3 1/2+x,1/2+y,z
4 1/2-x,1/2+y,1/2-z
5 -x,-y,-z
6 x,-y,1/2+z
7 1/2-x,1/2-y,-z
8 1/2+x,1/2-y,1/2+z
_cell_length_a                   37.4083(11)
_cell_length_b                   8.4004(3)
_cell_length_c                   12.7899(3)
_cell_angle_alpha                90
_cell_angle_beta                 107.627(2)
_cell_angle_gamma                90
_cell_volume                     3830.45
_exptl_crystal_colour            brown
_exptl_crystal_description       plate
_cell_formula_units_Z            8
loop_
_atom_site_label
_atom_site_type_symbol
_atom_site_fract_x
_atom_site_fract_y
_atom_site_fract_z
C8 C -0.08115(17) 0.4407(7) -0.0685(5)
C9 C -0.05651(17) 0.3515(7) 0.0126(6)
H5 H -0.0612 0.3318 0.0805
C10 C -0.02433(18) 0.2908(7) -0.0083(6)
C11 C -0.01759(19) 0.3208(8) -0.1053(6)
H6 H 0.0045 0.2799 -0.1175
C12 C -0.0420(2) 0.4086(9) -0.1850(6)
H7 H -0.0371 0.4270 -0.2526
C13 C -0.0737(2) 0.4703(8) -0.1685(6)
H8 H -0.0906 0.5326 -0.2239
C14 C -0.11570(18) 0.5095(7) -0.0513(5)
O3 O -0.13424(15) 0.6106(8) -0.1135(4)
O4 O -0.12454(12) 0.4547(5) 0.0332(4)
Br2 Br 0.009783(19) 0.17341(9) 0.10419(7)
H9 H -0.147(2) 0.512(9) 0.041(7)
H10 H 0.262(2) 0.019(9) 0.474(6)
C15 C 0.24235(16) 0.1062(7) 0.3442(5)
H11 H 0.2621 0.0846 0.3141
C16 C 0.21116(16) 0.1911(6) 0.2824(4)
C17 C 0.18269(15) 0.2174(6) 0.3315(5)
H12 H 0.1608 0.2747 0.2928
C18 C 0.18635(17) 0.1609(7) 0.4351(5)
H13 H 0.1670 0.1785 0.4676
C19 C 0.21856(17) 0.0778(7) 0.4922(5)
H14 H 0.2215 0.0385 0.5639
N1 N 0.24500(16) 0.0546(6) 0.4446(4)
N2 N 0.20844(18) 0.2423(8) 0.1802(5)
H15 H 0.227(2) 0.227(9) 0.158(6)
H16 H 0.1943(19) 0.280(8) 0.155(5)
C1 C 0.16212(15) 0.7667(6) 0.3113(4)
C2 C 0.13319(15) 0.8121(6) 0.3516(4)
H1 H 0.1322 0.7742 0.4207
C3 C 0.10583(16) 0.9127(7) 0.2901(5)
C4 C 0.10612(17) 0.9720(8) 0.1891(5)
H2 H 0.0869 1.0415 0.1483
C5 C 0.13533(18) 0.9270(8) 0.1492(5)
H3 H 0.1361 0.9658 0.0801
C6 C 0.16341(16) 0.8254(7) 0.2099(5)
H4 H 0.1834 0.7959 0.1826
C7 C 0.19276(15) 0.6579(6) 0.3768(4)
O1 O 0.22209(11) 0.6470(5) 0.3509(4)
O2 O 0.18703(10) 0.5823(5) 0.4565(3)
Br1 Br 0.066164(17) 0.97468(8) 0.34565(5)
loop_
_geom_bond_atom_site_label_1
_geom_bond_atom_site_label_2
_geom_bond_site_symmetry_1
_geom_bond_site_symmetry_2
C1 C2 1_555 1_555
C2 H1 1_555 1_555
C3 C2 1_555 1_555
C4 C3 1_555 1_555
H2 C4 1_555 1_555
C5 C4 1_555 1_555
H3 C5 1_555 1_555
C6 C1 1_555 1_555
H4 C6 1_555 1_555
C7 C1 1_555 1_555
O1 C7 1_555 1_555
O2 C7 1_555 1_555
Br1 C3 1_555 1_555
C8 C9 1_555 1_555
C9 H5 1_555 1_555
C10 C9 1_555 1_555
C11 C10 1_555 1_555
H6 C11 1_555 1_555
C12 C11 1_555 1_555
H7 C12 1_555 1_555
C13 C8 1_555 1_555
H8 C13 1_555 1_555
C14 C8 1_555 1_555
O3 C14 1_555 1_555
O4 C14 1_555 1_555
Br2 C10 1_555 1_555
H9 O4 1_555 1_555
H10 N1 1_555 1_555
C15 H11 1_555 1_555
C16 C15 1_555 1_555
C17 C16 1_555 1_555
H12 C17 1_555 1_555
C18 C17 1_555 1_555
H13 C18 1_555 1_555
C19 C18 1_555 1_555
H14 C19 1_555 1_555
N1 C15 1_555 1_555
N2 C16 1_555 1_555
H15 N2 1_555 1_555
H16 N2 1_555 1_555
C5 C6 1_555 1_555
C12 C13 1_555 1_555
C19 N1 1_555 1_555

#END
