
#######################################################################
#
#                 Cambridge Crystallographic Data Centre
#                                CCDC 
#
#######################################################################
#
# If this CIF has been generated from an entry in the Cambridge 
# Structural Database, then it will include bibliographic, chemical, 
# crystal, experimental, refinement or atomic coordinate data resulting 
# from the CCDC's data processing and validation procedures.
#
#######################################################################

data_MOZCEK
_chemical_name_common            
'Caffeine 3,5-dihydroxybenzoic acid monohydrate'
_chemical_formula_moiety         'C8 H10 N4 O2,C7 H6 O4,H2 O1'
_chemical_name_systematic        
'3,5-Dihydroxybenzoic acid 1,3,7-trimethyl-3,7-dihydro-1H-purine-2,6-dione monohydrate'
_symmetry_cell_setting           monoclinic
_symmetry_space_group_name_H-M   'P 21/c'
_symmetry_Int_Tables_number      14
_space_group_name_Hall           '-P 2ybc'
loop_
_symmetry_equiv_pos_site_id
_symmetry_equiv_pos_as_xyz
1 x,y,z
2 -x,1/2+y,1/2-z
3 -x,-y,-z
4 x,1/2-y,1/2+z
_cell_length_a                   7.015(2)
_cell_length_b                   7.693(2)
_cell_length_c                   30.319(9)
_cell_angle_alpha                90
_cell_angle_beta                 90.594(5)
_cell_angle_gamma                90
_cell_volume                     1636.12
_exptl_crystal_colour            colorless
_exptl_crystal_description       plate
_cell_formula_units_Z            4
_exptl_crystal_recrystallization_method acetonitrile/water
loop_
_atom_site_label
_atom_site_type_symbol
_atom_site_fract_x
_atom_site_fract_y
_atom_site_fract_z
O1 O -0.5352(2) 0.7219(2) 0.00372(4)
O2 O -0.68121(19) 0.53286(18) 0.14315(4)
N1 N -0.3167(2) 0.77783(19) 0.05769(4)
N2 N -0.5995(2) 0.6191(2) 0.07334(4)
N3 N -0.2909(2) 0.69286(19) 0.17209(4)
N4 N -0.1035(2) 0.8194(2) 0.12159(5)
C1 C -0.2668(2) 0.7616(2) 0.10185(5)
C2 C -0.1964(3) 0.8760(3) 0.02678(6)
H1 H -0.1312 0.7963 0.0078
H2 H -0.1048 0.9435 0.0431
H3 H -0.2751 0.9520 0.0093
C3 C -0.4871(2) 0.7068(2) 0.04280(5)
C4 C -0.7783(3) 0.5393(3) 0.05695(6)
H4 H -0.8848 0.6082 0.0661
H5 H -0.7898 0.4240 0.0688
H6 H -0.7763 0.5337 0.0253
C5 C -0.5639(2) 0.6053(2) 0.11922(5)
C6 C -0.3859(2) 0.6826(2) 0.13165(5)
C7 C -0.3620(3) 0.6368(3) 0.21533(5)
H7 H -0.2630 0.6500 0.2372
H8 H -0.3999 0.5170 0.2138
H9 H -0.4696 0.7068 0.2233
C8 C -0.1251(3) 0.7756(2) 0.16428(6)
H10 H -0.0349 0.7999 0.1861
O3 O 0.27059(19) 0.9543(2) 0.17912(4)
O4 O 0.22787(18) 1.00317(19) 0.10640(4)
H11 H 0.1275 0.9516 0.1107
O5 O 0.91486(19) 1.23711(19) 0.21188(4)
H12 H 0.8801 1.1710 0.2314
O6 O 0.80568(19) 1.34688(19) 0.05964(4)
H13 H 0.7262 1.3320 0.0400
C9 C 0.3249(2) 1.0172(2) 0.14444(5)
C10 C 0.5103(2) 1.1142(2) 0.14035(5)
C11 C 0.6242(2) 1.1301(2) 0.17817(5)
H14 H 0.5852 1.0825 0.2048
C12 C 0.7975(2) 1.2182(2) 0.17550(5)
C13 C 0.8578(3) 1.2912(2) 0.13572(5)
H15 H 0.9732 1.3502 0.1343
C14 C 0.7413(2) 1.2738(2) 0.09814(5)
C15 C 0.5671(2) 1.1853(2) 0.10002(5)
H16 H 0.4905 1.1739 0.0750
O7 O 0.8332(2) 1.0091(2) 0.27363(4)
H17 H 0.782(4) 1.030(3) 0.2984(9)
H18 H 0.911(4) 0.933(4) 0.2784(8)
loop_
_geom_bond_atom_site_label_1
_geom_bond_atom_site_label_2
_geom_bond_site_symmetry_1
_geom_bond_site_symmetry_2
O1 C3 1_555 1_555
O2 C5 1_555 1_555
N1 C1 1_555 1_555
N2 C3 1_555 1_555
N3 C6 1_555 1_555
N4 C1 1_555 1_555
C1 C6 1_555 1_555
C2 N1 1_555 1_555
H1 C2 1_555 1_555
H2 C2 1_555 1_555
H3 C2 1_555 1_555
C3 N1 1_555 1_555
C4 N2 1_555 1_555
H4 C4 1_555 1_555
H5 C4 1_555 1_555
H6 C4 1_555 1_555
C5 N2 1_555 1_555
C6 C5 1_555 1_555
C7 N3 1_555 1_555
H7 C7 1_555 1_555
H8 C7 1_555 1_555
H9 C7 1_555 1_555
C8 N3 1_555 1_555
H10 C8 1_555 1_555
O3 C9 1_555 1_555
O4 H11 1_555 1_555
O5 H12 1_555 1_555
O6 H13 1_555 1_555
C9 O4 1_555 1_555
C10 C9 1_555 1_555
C11 C10 1_555 1_555
H14 C11 1_555 1_555
C12 O5 1_555 1_555
C13 C12 1_555 1_555
H15 C13 1_555 1_555
C14 O6 1_555 1_555
C15 C10 1_555 1_555
H16 C15 1_555 1_555
O7 H17 1_555 1_555
H18 O7 1_555 1_555
N4 C8 1_555 1_555
C11 C12 1_555 1_555
C13 C14 1_555 1_555
C14 C15 1_555 1_555

#END
