
#######################################################################
#
#                 Cambridge Crystallographic Data Centre
#                                CCDC 
#
#######################################################################
#
# If this CIF has been generated from an entry in the Cambridge 
# Structural Database, then it will include bibliographic, chemical, 
# crystal, experimental, refinement or atomic coordinate data resulting 
# from the CCDC's data processing and validation procedures.
#
#######################################################################

data_MOZDAH
_chemical_name_common            'Caffeine bis(4-Hydroxybenzoic acid)'
_chemical_formula_moiety         'C8 H10 N4 O2,2(C7 H6 O3)'
_chemical_name_systematic        
'bis(4-Hydroxybenzoic acid) 1,3,7-trimethyl-3,7-dihydro-1H-purine-2,6-dione'
_symmetry_cell_setting           monoclinic
_symmetry_space_group_name_H-M   'P 21/c'
_symmetry_Int_Tables_number      14
_space_group_name_Hall           '-P 2ybc'
loop_
_symmetry_equiv_pos_site_id
_symmetry_equiv_pos_as_xyz
1 x,y,z
2 -x,1/2+y,1/2-z
3 -x,-y,-z
4 x,1/2-y,1/2+z
_cell_length_a                   7.421(5)
_cell_length_b                   22.494(15)
_cell_length_c                   12.939(9)
_cell_angle_alpha                90
_cell_angle_beta                 92.242(12)
_cell_angle_gamma                90
_cell_volume                     2158.23
_exptl_crystal_colour            colorless
_exptl_crystal_description       plate
_cell_formula_units_Z            4
_exptl_crystal_recrystallization_method acetonitrile
loop_
_atom_site_label
_atom_site_type_symbol
_atom_site_fract_x
_atom_site_fract_y
_atom_site_fract_z
O1 O 0.4570(3) 0.45696(10) 0.34519(18)
O2 O 0.2744(3) 0.28838(10) 0.17363(16)
N1 N 0.4262(3) 0.21967(11) 0.36652(19)
N2 N 0.5392(3) 0.27008(11) 0.50287(19)
N3 N 0.4927(3) 0.36961(11) 0.43235(18)
N4 N 0.3688(3) 0.37191(11) 0.26111(19)
C1 C 0.3703(5) 0.16913(14) 0.3017(3)
H1 H 0.4101 0.1328 0.3343
H2 H 0.4228 0.1726 0.2353
H3 H 0.2412 0.1688 0.2930
C2 C 0.5016(4) 0.21683(14) 0.4617(2)
H4 H 0.5256 0.1812 0.4961
C3 C 0.4831(4) 0.30858(13) 0.4274(2)
C4 C 0.4122(4) 0.27959(13) 0.3421(2)
C5 C 0.3436(4) 0.31011(13) 0.2527(2)
C6 C 0.3172(5) 0.40824(15) 0.1696(3)
H5 H 0.2643 0.4448 0.1916
H6 H 0.2313 0.3868 0.1265
H7 H 0.4224 0.4167 0.1313
C7 C 0.4415(4) 0.40240(13) 0.3470(2)
C8 C 0.5560(5) 0.39879(14) 0.5289(2)
H8 H 0.5608 0.4410 0.5183
H9 H 0.6741 0.3844 0.5487
H10 H 0.4744 0.3900 0.5826
O3 O 0.7342(3) 0.17031(10) 0.65366(17)
O4 O 0.7336(3) 0.26810(10) 0.68293(17)
H11 H 0.673(6) 0.2697(18) 0.623(3)
O5 O 1.1543(3) 0.18261(11) 1.08978(18)
H12 H 1.187(5) 0.2158(16) 1.114(3)
C9 C 0.7765(4) 0.21291(14) 0.7077(2)
C10 C 0.8786(4) 0.20677(13) 0.8087(2)
C11 C 0.9264(4) 0.25648(13) 0.8691(2)
H13 H 0.8959 0.2944 0.8457
C12 C 1.0186(4) 0.24950(14) 0.9632(2)
H14 H 1.0513 0.2826 1.0026
C13 C 1.0623(4) 0.19250(14) 0.9989(2)
C14 C 1.0140(4) 0.14258(14) 0.9396(2)
H15 H 1.0434 0.1046 0.9632
C15 C 0.9219(4) 0.15021(13) 0.8454(2)
H16 H 0.8887 0.1171 0.8061
O6 O 1.3438(3) 0.58450(12) 0.0596(2)
O7 O 1.0795(4) 0.59970(12) -0.0250(2)
H17 H 1.143(6) 0.611(2) -0.070(4)
O8 O 0.7900(4) 0.49963(11) 0.3932(2)
H18 H 0.677(6) 0.4901(19) 0.375(3)
C16 C 1.1815(5) 0.58140(13) 0.0568(2)
C17 C 1.0725(4) 0.55901(13) 0.1426(2)
C18 C 0.8909(5) 0.54395(14) 0.1287(3)
H19 H 0.8340 0.5478 0.0637
C19 C 0.7947(5) 0.52337(14) 0.2108(3)
H20 H 0.6742 0.5128 0.2006
C20 C 0.8781(5) 0.51838(13) 0.3087(3)
C21 C 1.0595(5) 0.53259(15) 0.3230(3)
H21 H 1.1163 0.5287 0.3880
C22 C 1.1555(5) 0.55249(15) 0.2405(3)
H22 H 1.2771 0.5617 0.2503
loop_
_geom_bond_atom_site_label_1
_geom_bond_atom_site_label_2
_geom_bond_site_symmetry_1
_geom_bond_site_symmetry_2
O1 C7 1_555 1_555
O2 C5 1_555 1_555
N1 C1 1_555 1_555
N2 C2 1_555 1_555
N3 C3 1_555 1_555
N4 C5 1_555 1_555
C1 H1 1_555 1_555
H2 C1 1_555 1_555
H3 C1 1_555 1_555
C2 N1 1_555 1_555
H4 C2 1_555 1_555
C3 N2 1_555 1_555
C4 N1 1_555 1_555
C5 C4 1_555 1_555
C6 N4 1_555 1_555
H5 C6 1_555 1_555
H6 C6 1_555 1_555
H7 C6 1_555 1_555
C7 N3 1_555 1_555
C8 N3 1_555 1_555
H8 C8 1_555 1_555
H9 C8 1_555 1_555
H10 C8 1_555 1_555
O3 C9 1_555 1_555
O4 H11 1_555 1_555
O5 H12 1_555 1_555
C9 O4 1_555 1_555
C10 C9 1_555 1_555
C11 C10 1_555 1_555
H13 C11 1_555 1_555
C12 C11 1_555 1_555
H14 C12 1_555 1_555
C13 O5 1_555 1_555
C14 C13 1_555 1_555
H15 C14 1_555 1_555
C15 C10 1_555 1_555
H16 C15 1_555 1_555
O6 C16 1_555 1_555
O7 H17 1_555 1_555
O8 H18 1_555 1_555
C16 O7 1_555 1_555
C17 C16 1_555 1_555
C18 C17 1_555 1_555
H19 C18 1_555 1_555
C19 C18 1_555 1_555
H20 C19 1_555 1_555
C20 O8 1_555 1_555
C21 C20 1_555 1_555
H21 C21 1_555 1_555
C22 C17 1_555 1_555
H22 C22 1_555 1_555
N4 C7 1_555 1_555
C3 C4 1_555 1_555
C12 C13 1_555 1_555
C14 C15 1_555 1_555
C19 C20 1_555 1_555
C21 C22 1_555 1_555

#END
