
#######################################################################
#
#                 Cambridge Crystallographic Data Centre
#                                CCDC 
#
#######################################################################
#
# If this CIF has been generated from an entry in the Cambridge 
# Structural Database, then it will include bibliographic, chemical, 
# crystal, experimental, refinement or atomic coordinate data resulting 
# from the CCDC's data processing and validation procedures.
#
#######################################################################

data_MOZXIJ
_chemical_formula_moiety         'C20 H26 N4'
_chemical_name_systematic        
N,N'-bis(4-Pyridylmethylene)octane-1,8-diamine
_symmetry_cell_setting           monoclinic
_symmetry_space_group_name_H-M   'P 21/c'
_symmetry_Int_Tables_number      14
_space_group_name_Hall           '-P 2ybc'
loop_
_symmetry_equiv_pos_site_id
_symmetry_equiv_pos_as_xyz
1 x,y,z
2 -x,1/2+y,1/2-z
3 -x,-y,-z
4 x,1/2-y,1/2+z
_cell_length_a                   11.6285(4)
_cell_length_b                   9.3821(3)
_cell_length_c                   8.8302(3)
_cell_angle_alpha                90
_cell_angle_beta                 111.143(2)
_cell_angle_gamma                90
_cell_volume                     898.521
_exptl_crystal_colour            'light yellow'
_exptl_crystal_description       plate
_chemical_melting_point          393K
_cell_formula_units_Z            2
_exptl_crystal_recrystallization_method methanol
loop_
_atom_site_label
_atom_site_type_symbol
_atom_site_fract_x
_atom_site_fract_y
_atom_site_fract_z
N1 N 0.28339(13) 0.52618(14) 0.97725(16)
N2 N 0.09040(12) 0.40434(14) 1.39134(15)
C1 C 0.48329(13) 0.46639(14) 0.56773(16)
H1 H 0.5601 0.4388 0.6573
H2 H 0.4353 0.3784 0.5261
C2 C 0.40867(13) 0.56437(15) 0.63471(17)
H3 H 0.4584 0.6500 0.6818
H4 H 0.3340 0.5961 0.5442
C3 C 0.36981(13) 0.49380(15) 0.76402(17)
H5 H 0.3086 0.4184 0.7125
H6 H 0.4426 0.4476 0.8451
C4 C 0.31509(18) 0.59651(17) 0.8495(2)
H7 H 0.3748 0.6740 0.8979
H8 H 0.2400 0.6397 0.7697
C5 C 0.20006(13) 0.58108(14) 1.01734(16)
H9 H 0.1598 0.6647 0.9631
C6 C 0.16301(12) 0.51912(15) 1.14647(15)
C7 C 0.07925(13) 0.58973(15) 1.19920(17)
H10 H 0.0446 0.6782 1.1522
C8 C 0.04704(13) 0.52910(16) 1.32146(18)
H11 H -0.0092 0.5793 1.3576
C9 C 0.17031(14) 0.33682(16) 1.33808(18)
H12 H 0.2018 0.2473 1.3852
C10 C 0.20944(13) 0.38956(15) 1.21893(17)
H13 H 0.2673 0.3380 1.1869
N1B N 0.71661(13) 0.47382(14) 0.02275(16)
N2B N 0.90960(12) 0.59566(14) -0.39134(15)
C1B C 0.51671(13) 0.53361(14) 0.43227(16)
H1B H 0.4399 0.5612 0.3427
H2B H 0.5647 0.6216 0.4739
C2B C 0.59133(13) 0.43563(15) 0.36529(17)
H3B H 0.5416 0.3500 0.3182
H4B H 0.6660 0.4039 0.4558
C3B C 0.63019(13) 0.50620(15) 0.23598(17)
H5B H 0.6914 0.5816 0.2875
H6B H 0.5574 0.5524 0.1549
C4B C 0.68491(18) 0.40349(17) 0.1505(2)
H7B H 0.6252 0.3260 0.1021
H8B H 0.7600 0.3603 0.2303
C5B C 0.79994(13) 0.41892(14) -0.01734(16)
H9B H 0.8402 0.3353 0.0369
C6B C 0.83699(12) 0.48088(15) -0.14647(15)
C7B C 0.92075(13) 0.41027(15) -0.19920(17)
H10B H 0.9554 0.3218 -0.1522
C8B C 0.95296(13) 0.47090(16) -0.32146(18)
H11B H 1.0092 0.4207 -0.3576
C9B C 0.82969(14) 0.66318(16) -0.33808(18)
H12B H 0.7982 0.7527 -0.3852
C10B C 0.79056(13) 0.61044(15) -0.21893(17)
H13B H 0.7327 0.6620 -0.1869
loop_
_geom_bond_atom_site_label_1
_geom_bond_atom_site_label_2
_geom_bond_site_symmetry_1
_geom_bond_site_symmetry_2
N1 C4 1_555 1_555
N2 C8 1_555 1_555
C1 H1 1_555 1_555
H2 C1 1_555 1_555
C2 C1 1_555 1_555
H3 C2 1_555 1_555
H4 C2 1_555 1_555
C3 C2 1_555 1_555
H5 C3 1_555 1_555
H6 C3 1_555 1_555
C4 C3 1_555 1_555
H7 C4 1_555 1_555
H8 C4 1_555 1_555
C5 N1 1_555 1_555
H9 C5 1_555 1_555
C6 C5 1_555 1_555
C7 C6 1_555 1_555
H10 C7 1_555 1_555
C8 C7 1_555 1_555
H11 C8 1_555 1_555
C9 N2 1_555 1_555
H12 C9 1_555 1_555
C10 C6 1_555 1_555
H13 C10 1_555 1_555
N1B C4B 1_555 1_555
N2B C8B 1_555 1_555
C1B C1 1_555 1_555
H1B C1B 1_555 1_555
H2B C1B 1_555 1_555
C2B C1B 1_555 1_555
H3B C2B 1_555 1_555
H4B C2B 1_555 1_555
C3B C2B 1_555 1_555
H5B C3B 1_555 1_555
H6B C3B 1_555 1_555
C4B C3B 1_555 1_555
H7B C4B 1_555 1_555
H8B C4B 1_555 1_555
C5B N1B 1_555 1_555
H9B C5B 1_555 1_555
C6B C5B 1_555 1_555
C7B C6B 1_555 1_555
H10B C7B 1_555 1_555
C8B C7B 1_555 1_555
H11B C8B 1_555 1_555
C9B N2B 1_555 1_555
H12B C9B 1_555 1_555
C10B C6B 1_555 1_555
H13B C10B 1_555 1_555
C9 C10 1_555 1_555
C9B C10B 1_555 1_555

#END
