
#######################################################################
#
#                 Cambridge Crystallographic Data Centre
#                                CCDC 
#
#######################################################################
#
# If this CIF has been generated from an entry in the Cambridge 
# Structural Database, then it will include bibliographic, chemical, 
# crystal, experimental, refinement or atomic coordinate data resulting 
# from the CCDC's data processing and validation procedures.
#
#######################################################################

data_MTMALN01
_chemical_formula_moiety         'C6 H6 N2 S2'
_chemical_name_systematic        2,3-bis(Methylthio)maleonitrile
_symmetry_cell_setting           monoclinic
_symmetry_space_group_name_H-M   'C 2/c'
_symmetry_Int_Tables_number      15
_space_group_name_Hall           '-C 2yn'
loop_
_symmetry_equiv_pos_site_id
_symmetry_equiv_pos_as_xyz
1 x,y,z
2 1/2+x,1/2+y,z
3 -x,y,1/2-z
4 1/2-x,1/2+y,1/2-z
5 -x,-y,-z
6 1/2-x,1/2-y,-z
7 x,-y,1/2+z
8 1/2+x,1/2-y,1/2+z
_cell_length_a                   14.086(2)
_cell_length_b                   12.5780(18)
_cell_length_c                   9.1361(13)
_cell_angle_alpha                90
_cell_angle_beta                 104.290(2)
_cell_angle_gamma                90
_cell_volume                     1568.59
_exptl_crystal_colour            colorless
_exptl_crystal_description       block
_chemical_melting_point          '98 deg.C'
_cell_formula_units_Z            8
loop_
_atom_site_label
_atom_site_type_symbol
_atom_site_fract_x
_atom_site_fract_y
_atom_site_fract_z
S1 S 0.00549(2) 0.27951(2) 1.02547(4)
S2 S 0.11113(2) 0.47883(2) 0.93149(4)
N1 N 0.13022(8) 0.07558(9) 0.84054(13)
N2 N 0.27003(8) 0.32554(9) 0.72874(12)
C1 C -0.02755(10) 0.14348(10) 1.05313(15)
C2 C 0.14026(8) 0.35134(9) 0.88189(13)
C3 C 0.11526(8) 0.16042(9) 0.87629(13)
C4 C 0.21181(8) 0.33671(9) 0.79615(13)
C5 C 0.09378(8) 0.26455(9) 0.92189(12)
C6 C 0.19940(10) 0.56073(10) 0.87159(16)
H1 H 0.0300(12) 0.1052(14) 1.1132(19)
H2 H -0.0776(13) 0.1510(14) 1.107(2)
H3 H 0.2613(15) 0.5420(16) 0.929(2)
H4 H -0.0547(12) 0.1091(15) 0.958(2)
H5 H 0.1833(13) 0.6340(16) 0.897(2)
H6 H 0.1934(15) 0.5541(17) 0.769(2)
loop_
_geom_bond_atom_site_label_1
_geom_bond_atom_site_label_2
_geom_bond_site_symmetry_1
_geom_bond_site_symmetry_2
S1 C1 1_555 1_555
S2 C2 1_555 1_555
N1 C3 1_555 1_555
N2 C4 1_555 1_555
C1 H1 1_555 1_555
C2 C4 1_555 1_555
C3 C5 1_555 1_555
C5 S1 1_555 1_555
C6 S2 1_555 1_555
H2 C1 1_555 1_555
H3 C6 1_555 1_555
H4 C1 1_555 1_555
H5 C6 1_555 1_555
H6 C6 1_555 1_555
C2 C5 1_555 1_555

#END
