
#######################################################################
#
#                 Cambridge Crystallographic Data Centre
#                                CCDC 
#
#######################################################################
#
# If this CIF has been generated from an entry in the Cambridge 
# Structural Database, then it will include bibliographic, chemical, 
# crystal, experimental, refinement or atomic coordinate data resulting 
# from the CCDC's data processing and validation procedures.
#
#######################################################################

data_MUBDAQ
_chemical_formula_moiety         'C80 H56 O4 Si4,2(C4 H10 O1)'
_chemical_name_systematic        
"2''',2'''',3''',3'''',4''',4'''',5''',5''''-octaphenyltetraspiro[dibenzo[b,d]silole-5,2'-[1,3,5,7,2,4,6,8]tetroxatetrasilocane-6',5''-dibenzo[b,d]silole-4',1'''-silole-8',1''''-silole] diethyl ether solvate"
_symmetry_cell_setting           monoclinic
_symmetry_space_group_name_H-M   'C 2/c'
_symmetry_Int_Tables_number      15
_space_group_name_Hall           '-C 2yn'
loop_
_symmetry_equiv_pos_site_id
_symmetry_equiv_pos_as_xyz
1 x,y,z
2 -x,y,1/2-z
3 1/2+x,1/2+y,z
4 1/2-x,1/2+y,1/2-z
5 -x,-y,-z
6 x,-y,1/2+z
7 1/2-x,1/2-y,-z
8 1/2+x,1/2-y,1/2+z
_cell_length_a                   16.7450(12)
_cell_length_b                   21.055(3)
_cell_length_c                   20.5200(17)
_cell_angle_alpha                90
_cell_angle_beta                 93.825(7)
_cell_angle_gamma                90
_cell_volume                     7218.54
_exptl_crystal_colour            'light yellow'
_exptl_crystal_description       block
_cell_formula_units_Z            4
loop_
_atom_site_label
_atom_site_type_symbol
_atom_site_fract_x
_atom_site_fract_y
_atom_site_fract_z
Si1 Si 0.12624(3) 0.44241(2) 0.28859(2)
Si2 Si -0.04162(3) 0.43609(2) 0.35197(2)
O1 O 0.04812(7) 0.44864(6) 0.33027(6)
O2 O -0.09857(7) 0.42295(6) 0.28594(6)
C1 C 0.20473(10) 0.38808(8) 0.32476(8)
C2 C 0.27006(10) 0.42440(8) 0.34037(8)
C3 C 0.26117(10) 0.49518(8) 0.32619(8)
C4 C 0.18963(10) 0.51455(8) 0.29874(8)
C5 C 0.19236(10) 0.31995(8) 0.33824(9)
C6 C 0.14153(11) 0.28421(9) 0.29525(10)
H1 H 0.1188 0.3034 0.2564
C7 C 0.12394(12) 0.22119(9) 0.30856(11)
H2 H 0.0899 0.1975 0.2787
C8 C 0.15615(12) 0.19294(9) 0.36555(11)
H3 H 0.1438 0.1500 0.3750
C9 C 0.20626(12) 0.22755(9) 0.40849(10)
H4 H 0.2281 0.2083 0.4476
C10 C 0.22494(11) 0.29022(9) 0.39499(9)
H5 H 0.2602 0.3132 0.4246
C11 C 0.34886(10) 0.40178(8) 0.36947(9)
C12 C 0.37915(12) 0.42363(10) 0.43026(10)
H6 H 0.3477 0.4509 0.4551
C13 C 0.45514(13) 0.40569(11) 0.45456(11)
H7 H 0.4753 0.4206 0.4962
C14 C 0.50181(13) 0.36628(11) 0.41867(13)
H8 H 0.5543 0.3550 0.4350
C15 C 0.47136(13) 0.34353(11) 0.35878(12)
H9 H 0.5026 0.3158 0.3343
C16 C 0.39522(12) 0.36118(10) 0.33432(10)
H10 H 0.3747 0.3453 0.2932
C17 C 0.32806(11) 0.53974(8) 0.34482(9)
C18 C 0.31717(11) 0.58696(9) 0.39089(10)
H11 H 0.2680 0.5895 0.4113
C19 C 0.37747(12) 0.63038(10) 0.40726(10)
H12 H 0.3695 0.6624 0.4388
C20 C 0.44932(12) 0.62718(10) 0.37765(10)
H13 H 0.4904 0.6573 0.3884
C21 C 0.46111(12) 0.57990(10) 0.33224(10)
H14 H 0.5106 0.5773 0.3122
C22 C 0.40072(11) 0.53627(9) 0.31591(9)
H15 H 0.4091 0.5039 0.2848
C23 C 0.16503(11) 0.58091(8) 0.28537(8)
C24 C 0.20912(11) 0.62371(9) 0.25080(9)
H16 H 0.2575 0.6102 0.2334
C25 C 0.18346(12) 0.68607(9) 0.24136(10)
H17 H 0.2132 0.7145 0.2164
C26 C 0.11480(12) 0.70640(10) 0.26834(10)
H18 H 0.0982 0.7493 0.2631
C27 C 0.07002(12) 0.66484(10) 0.30287(10)
H19 H 0.0229 0.6791 0.3217
C28 C 0.09410(11) 0.60208(9) 0.30999(9)
H20 H 0.0618 0.5731 0.3320
C29 C -0.08185(10) 0.49844(8) 0.40460(8)
C30 C -0.09691(10) 0.56275(9) 0.39491(9)
H21 H -0.0867 0.5820 0.3544
C31 C -0.12697(11) 0.59896(10) 0.44456(10)
H22 H -0.1370 0.6430 0.4382
C32 C -0.14224(12) 0.57037(10) 0.50336(10)
H23 H -0.1623 0.5953 0.5372
C33 C -0.12876(11) 0.50622(10) 0.51346(9)
H24 H -0.1403 0.4872 0.5538
C34 C -0.09826(10) 0.46959(9) 0.46433(8)
C35 C -0.07783(10) 0.40086(9) 0.47003(9)
C36 C -0.08582(12) 0.36377(10) 0.52531(10)
H25 H -0.1107 0.3808 0.5617
C37 C -0.05731(13) 0.30167(10) 0.52726(10)
H26 H -0.0622 0.2768 0.5654
C38 C -0.02206(12) 0.27577(9) 0.47465(10)
H27 H -0.0013 0.2338 0.4770
C39 C -0.01702(11) 0.31148(9) 0.41787(9)
H28 H 0.0057 0.2933 0.3810
C40 C -0.04505(10) 0.37353(9) 0.41495(8)
Si1A Si -0.12624(3) 0.44241(2) 0.21141(2)
Si2A Si 0.04162(3) 0.43609(2) 0.14803(2)
O1A O -0.04812(7) 0.44864(6) 0.16973(6)
O2A O 0.09857(7) 0.42295(6) 0.21406(6)
C1A C -0.20473(10) 0.38808(8) 0.17524(8)
C2A C -0.27006(10) 0.42440(8) 0.15963(8)
C3A C -0.26117(10) 0.49518(8) 0.17381(8)
C4A C -0.18963(10) 0.51455(8) 0.20126(8)
C5A C -0.19236(10) 0.31995(8) 0.16176(9)
C6A C -0.14153(11) 0.28421(9) 0.20475(10)
H1A H -0.1188 0.3034 0.2436
C7A C -0.12394(12) 0.22119(9) 0.19144(11)
H2A H -0.0899 0.1975 0.2213
C8A C -0.15615(12) 0.19294(9) 0.13445(11)
H3A H -0.1438 0.1500 0.1250
C9A C -0.20626(12) 0.22755(9) 0.09151(10)
H4A H -0.2281 0.2083 0.0524
C10A C -0.22494(11) 0.29022(9) 0.10501(9)
H5A H -0.2602 0.3132 0.0754
C11A C -0.34886(10) 0.40178(8) 0.13053(9)
C12A C -0.37915(12) 0.42363(10) 0.06974(10)
H6A H -0.3477 0.4509 0.0449
C13A C -0.45514(13) 0.40569(11) 0.04544(11)
H7A H -0.4753 0.4206 0.0038
C14A C -0.50181(13) 0.36628(11) 0.08133(13)
H8A H -0.5543 0.3550 0.0650
C15A C -0.47136(13) 0.34353(11) 0.14122(12)
H9A H -0.5026 0.3158 0.1657
C16A C -0.39522(12) 0.36118(10) 0.16568(10)
H10A H -0.3747 0.3453 0.2068
C17A C -0.32806(11) 0.53974(8) 0.15518(9)
C18A C -0.31717(11) 0.58696(9) 0.10911(10)
H11A H -0.2680 0.5895 0.0887
C19A C -0.37747(12) 0.63038(10) 0.09274(10)
H12A H -0.3695 0.6624 0.0612
C20A C -0.44932(12) 0.62718(10) 0.12235(10)
H13A H -0.4904 0.6573 0.1116
C21A C -0.46111(12) 0.57990(10) 0.16776(10)
H14A H -0.5106 0.5773 0.1878
C22A C -0.40072(11) 0.53627(9) 0.18409(9)
H15A H -0.4091 0.5039 0.2152
C23A C -0.16503(11) 0.58091(8) 0.21463(8)
C24A C -0.20912(11) 0.62371(9) 0.24920(9)
H16A H -0.2575 0.6102 0.2666
C25A C -0.18346(12) 0.68607(9) 0.25864(10)
H17A H -0.2132 0.7145 0.2836
C26A C -0.11480(12) 0.70640(10) 0.23166(10)
H18A H -0.0982 0.7493 0.2369
C27A C -0.07002(12) 0.66484(10) 0.19713(10)
H19A H -0.0229 0.6791 0.1783
C28A C -0.09410(11) 0.60208(9) 0.19001(9)
H20A H -0.0618 0.5731 0.1680
C29A C 0.08185(10) 0.49844(8) 0.09540(8)
C30A C 0.09691(10) 0.56275(9) 0.10509(9)
H21A H 0.0867 0.5820 0.1456
C31A C 0.12697(11) 0.59896(10) 0.05544(10)
H22A H 0.1370 0.6430 0.0618
C32A C 0.14224(12) 0.57037(10) -0.00336(10)
H23A H 0.1623 0.5953 -0.0372
C33A C 0.12876(11) 0.50622(10) -0.01346(9)
H24A H 0.1403 0.4872 -0.0538
C34A C 0.09826(10) 0.46959(9) 0.03567(8)
C35A C 0.07783(10) 0.40086(9) 0.02997(9)
C36A C 0.08582(12) 0.36377(10) -0.02531(10)
H25A H 0.1107 0.3808 -0.0617
C37A C 0.05731(13) 0.30167(10) -0.02726(10)
H26A H 0.0622 0.2768 -0.0654
C38A C 0.02206(12) 0.27577(9) 0.02535(10)
H27A H 0.0013 0.2338 0.0230
C39A C 0.01702(11) 0.31148(9) 0.08213(9)
H28A H -0.0057 0.2933 0.1190
C40A C 0.04505(10) 0.37353(9) 0.08505(8)
O3 O 0.70899(10) 0.38967(7) 0.39720(8)
C41 C 0.74871(16) 0.28253(12) 0.40714(15)
H29 H 0.7562 0.2437 0.3820
H30 H 0.7051 0.2763 0.4360
H31 H 0.7982 0.2924 0.4334
C42 C 0.72839(17) 0.33610(12) 0.36153(13)
H32 H 0.7746 0.3456 0.3354
H33 H 0.6825 0.3241 0.3311
C43 C 0.68758(18) 0.44149(12) 0.35584(14)
H34 H 0.6398 0.4306 0.3270
H35 H 0.7320 0.4517 0.3281
C44 C 0.67020(18) 0.49665(14) 0.39722(18)
H36 H 0.6570 0.5335 0.3694
H37 H 0.7173 0.5063 0.4265
H38 H 0.6248 0.4867 0.4232
O4? O 0.6632(4) 0.3777(2) 0.3636(7)
H39? H 0.7765 0.3635 0.3631
H40? H 0.7239 0.3171 0.3173
H41? H 0.6677 0.4535 0.3110
H42? H 0.7466 0.4399 0.3555
loop_
_geom_bond_atom_site_label_1
_geom_bond_atom_site_label_2
_geom_bond_site_symmetry_1
_geom_bond_site_symmetry_2
Si1 O1 1_555 1_555
Si2 O1 1_555 1_555
O2 Si2 1_555 1_555
C1 Si1 1_555 1_555
C2 C1 1_555 1_555
C3 C2 1_555 1_555
C4 Si1 1_555 1_555
C5 C1 1_555 1_555
C6 C5 1_555 1_555
H1 C6 1_555 1_555
C7 C6 1_555 1_555
H2 C7 1_555 1_555
C8 C7 1_555 1_555
H3 C8 1_555 1_555
C9 C8 1_555 1_555
H4 C9 1_555 1_555
C10 C5 1_555 1_555
H5 C10 1_555 1_555
C11 C2 1_555 1_555
C12 C11 1_555 1_555
H6 C12 1_555 1_555
C13 C12 1_555 1_555
H7 C13 1_555 1_555
C14 C13 1_555 1_555
H8 C14 1_555 1_555
C15 C14 1_555 1_555
H9 C15 1_555 1_555
C16 C11 1_555 1_555
H10 C16 1_555 1_555
C17 C3 1_555 1_555
C18 C17 1_555 1_555
H11 C18 1_555 1_555
C19 C18 1_555 1_555
H12 C19 1_555 1_555
C20 C19 1_555 1_555
H13 C20 1_555 1_555
C21 C20 1_555 1_555
H14 C21 1_555 1_555
C22 C17 1_555 1_555
H15 C22 1_555 1_555
C23 C4 1_555 1_555
C24 C23 1_555 1_555
H16 C24 1_555 1_555
C25 C24 1_555 1_555
H17 C25 1_555 1_555
C26 C25 1_555 1_555
H18 C26 1_555 1_555
C27 C26 1_555 1_555
H19 C27 1_555 1_555
C28 C23 1_555 1_555
H20 C28 1_555 1_555
C29 Si2 1_555 1_555
C30 C29 1_555 1_555
H21 C30 1_555 1_555
C31 C30 1_555 1_555
H22 C31 1_555 1_555
C32 C31 1_555 1_555
H23 C32 1_555 1_555
C33 C32 1_555 1_555
H24 C33 1_555 1_555
C34 C29 1_555 1_555
C35 C34 1_555 1_555
C36 C35 1_555 1_555
H25 C36 1_555 1_555
C37 C36 1_555 1_555
H26 C37 1_555 1_555
C38 C37 1_555 1_555
H27 C38 1_555 1_555
C39 C38 1_555 1_555
H28 C39 1_555 1_555
C40 Si2 1_555 1_555
O3 C42 1_555 1_555
C41 H29 1_555 1_555
H30 C41 1_555 1_555
H31 C41 1_555 1_555
C42 C41 1_555 1_555
H32 C42 1_555 1_555
H33 C42 1_555 1_555
C43 O3 1_555 1_555
H34 C43 1_555 1_555
H35 C43 1_555 1_555
C44 C43 1_555 1_555
H36 C44 1_555 1_555
H37 C44 1_555 1_555
H38 C44 1_555 1_555
Si1A O2 1_555 1_555
Si2A O1A 1_555 1_555
O1A Si1A 1_555 1_555
O2A Si1 1_555 1_555
C1A Si1A 1_555 1_555
C2A C1A 1_555 1_555
C3A C2A 1_555 1_555
C4A Si1A 1_555 1_555
C5A C1A 1_555 1_555
C6A C5A 1_555 1_555
H1A C6A 1_555 1_555
C7A C6A 1_555 1_555
H2A C7A 1_555 1_555
C8A C7A 1_555 1_555
H3A C8A 1_555 1_555
C9A C8A 1_555 1_555
H4A C9A 1_555 1_555
C10A C5A 1_555 1_555
H5A C10A 1_555 1_555
C11A C2A 1_555 1_555
C12A C11A 1_555 1_555
H6A C12A 1_555 1_555
C13A C12A 1_555 1_555
H7A C13A 1_555 1_555
C14A C13A 1_555 1_555
H8A C14A 1_555 1_555
C15A C14A 1_555 1_555
H9A C15A 1_555 1_555
C16A C11A 1_555 1_555
H10A C16A 1_555 1_555
C17A C3A 1_555 1_555
C18A C17A 1_555 1_555
H11A C18A 1_555 1_555
C19A C18A 1_555 1_555
H12A C19A 1_555 1_555
C20A C19A 1_555 1_555
H13A C20A 1_555 1_555
C21A C20A 1_555 1_555
H14A C21A 1_555 1_555
C22A C17A 1_555 1_555
H15A C22A 1_555 1_555
C23A C4A 1_555 1_555
C24A C23A 1_555 1_555
H16A C24A 1_555 1_555
C25A C24A 1_555 1_555
H17A C25A 1_555 1_555
C26A C25A 1_555 1_555
H18A C26A 1_555 1_555
C27A C26A 1_555 1_555
H19A C27A 1_555 1_555
C28A C23A 1_555 1_555
H20A C28A 1_555 1_555
C29A Si2A 1_555 1_555
C30A C29A 1_555 1_555
H21A C30A 1_555 1_555
C31A C30A 1_555 1_555
H22A C31A 1_555 1_555
C32A C31A 1_555 1_555
H23A C32A 1_555 1_555
C33A C32A 1_555 1_555
H24A C33A 1_555 1_555
C34A C29A 1_555 1_555
C35A C34A 1_555 1_555
C36A C35A 1_555 1_555
H25A C36A 1_555 1_555
C37A C36A 1_555 1_555
H26A C37A 1_555 1_555
C38A C37A 1_555 1_555
H27A C38A 1_555 1_555
C39A C38A 1_555 1_555
H28A C39A 1_555 1_555
C40A Si2A 1_555 1_555
C3 C4 1_555 1_555
C9 C10 1_555 1_555
C15 C16 1_555 1_555
C21 C22 1_555 1_555
C27 C28 1_555 1_555
C33 C34 1_555 1_555
C35 C40 1_555 1_555
C39 C40 1_555 1_555
Si2A O2A 1_555 1_555
C3A C4A 1_555 1_555
C9A C10A 1_555 1_555
C15A C16A 1_555 1_555
C21A C22A 1_555 1_555
C27A C28A 1_555 1_555
C33A C34A 1_555 1_555
C35A C40A 1_555 1_555
C39A C40A 1_555 1_555

#END
