
#######################################################################
#
#                 Cambridge Crystallographic Data Centre
#                                CCDC 
#
#######################################################################
#
# If this CIF has been generated from an entry in the Cambridge 
# Structural Database, then it will include bibliographic, chemical, 
# crystal, experimental, refinement or atomic coordinate data resulting 
# from the CCDC's data processing and validation procedures.
#
#######################################################################

data_MUBDEU
_chemical_formula_moiety         'C62 H48 O4 Si4,2(C7 H8)'
_chemical_name_systematic        
"4',8'-dimethyl-2,2'',4,4',4'',8'-hexaphenyldispiro[dibenzo[b,d]silole-5,2'-[1,3,5,7,2,4,6,8]tetroxatetrasilocane-6',5''-dibenzo[b,d]silole] toluene solvate"
_symmetry_cell_setting           triclinic
_symmetry_space_group_name_H-M   'P -1'
_symmetry_Int_Tables_number      2
_space_group_name_Hall           '-P 1'
loop_
_symmetry_equiv_pos_site_id
_symmetry_equiv_pos_as_xyz
1 x,y,z
2 -x,-y,-z
_cell_length_a                   10.722(4)
_cell_length_b                   11.006(4)
_cell_length_c                   13.920(6)
_cell_angle_alpha                102.992(19)
_cell_angle_beta                 101.607(18)
_cell_angle_gamma                103.183(13)
_cell_volume                     1502.22
_exptl_crystal_colour            colorless
_exptl_crystal_description       block
_cell_formula_units_Z            1
loop_
_atom_site_label
_atom_site_type_symbol
_atom_site_fract_x
_atom_site_fract_y
_atom_site_fract_z
Si1 Si 0.20637(5) 0.48319(5) 0.05025(4)
Si2 Si -0.00438(6) 0.57832(8) 0.16048(4)
O1 O 0.10865(13) 0.53421(14) 0.11300(11)
O2 O -0.12783(14) 0.57672(16) 0.06962(12)
C1 C 0.36431(18) 0.6082(2) 0.06805(16)
C2 C 0.3908(2) 0.7215(2) 0.03775(17)
H1 H 0.3196 0.7487 0.0053
C3 C 0.5214(2) 0.7951(2) 0.05495(18)
H2 H 0.5394 0.8725 0.0344
C4 C 0.6249(2) 0.7555(2) 0.10189(17)
H3 H 0.7139 0.8061 0.1135
C5 C 0.60011(19) 0.6425(2) 0.13227(16)
H4 H 0.6720 0.6156 0.1640
C6 C 0.46940(18) 0.5684(2) 0.11607(16)
C7 C 0.42939(18) 0.4440(2) 0.14376(15)
C8 C 0.51668(19) 0.3935(2) 0.19894(16)
H5 H 0.6089 0.4382 0.2209
C9 C 0.47072(19) 0.2782(2) 0.22247(15)
C10 C 0.3342(2) 0.2149(2) 0.19117(16)
H6 H 0.3023 0.1366 0.2079
C11 C 0.24403(19) 0.2640(2) 0.13595(15)
C12 C 0.29127(18) 0.3792(2) 0.11085(15)
C13 C 0.5650(2) 0.2250(2) 0.28239(17)
C14 C 0.6690(2) 0.3085(2) 0.36523(17)
H7 H 0.6811 0.3997 0.3816
C15 C 0.7549(2) 0.2592(3) 0.42391(19)
H8 H 0.8243 0.3165 0.4808
C16 C 0.7393(3) 0.1269(3) 0.3996(2)
H9 H 0.7983 0.0934 0.4396
C17 C 0.6376(3) 0.0426(3) 0.3168(2)
H10 H 0.6274 -0.0483 0.2997
C18 C 0.5509(2) 0.0918(2) 0.25906(18)
H11 H 0.4810 0.0338 0.2029
C19 C 0.09840(19) 0.19713(19) 0.10704(16)
C20 C 0.0380(2) 0.1563(2) 0.17850(18)
H12 H 0.0901 0.1683 0.2456
C21 C -0.0984(2) 0.0980(2) 0.15204(19)
H13 H -0.1395 0.0711 0.2012
C22 C -0.1742(2) 0.0791(2) 0.0543(2)
H14 H -0.2674 0.0398 0.0366
C23 C -0.1158(2) 0.1167(2) -0.01745(19)
H15 H -0.1683 0.1025 -0.0848
C24 C 0.02030(19) 0.17547(19) 0.00843(17)
H16 H 0.0604 0.2011 -0.0416
C25 C 0.07043(19) 0.7483(2) 0.24352(15)
C26 C 0.2080(2) 0.8031(2) 0.27775(18)
H17 H 0.2646 0.7534 0.2568
C27 C 0.2635(2) 0.9294(3) 0.34205(19)
H18 H 0.3573 0.9655 0.3641
C28 C 0.1831(3) 1.0019(2) 0.37364(19)
H19 H 0.2212 1.0879 0.4178
C29 C 0.0464(3) 0.9496(2) 0.34120(18)
H20 H -0.0093 0.9997 0.3632
C30 C -0.0092(2) 0.8244(2) 0.27670(17)
H21 H -0.1031 0.7895 0.2546
C31 C -0.0669(2) 0.4661(2) 0.23189(18)
H22 H -0.1047 0.3777 0.1856
H23 H -0.1357 0.4935 0.2606
H24 H 0.0064 0.4677 0.2875
Si1A Si -0.20637(5) 0.51681(5) -0.05025(4)
Si2A Si 0.00438(6) 0.42168(8) -0.16048(4)
O1A O -0.10865(13) 0.46579(14) -0.11300(11)
O2A O 0.12783(14) 0.42328(16) -0.06962(12)
C1A C -0.36431(18) 0.3918(2) -0.06805(16)
C2A C -0.3908(2) 0.2785(2) -0.03775(17)
H1A H -0.3196 0.2513 -0.0053
C3A C -0.5214(2) 0.2049(2) -0.05495(18)
H2A H -0.5394 0.1275 -0.0344
C4A C -0.6249(2) 0.2445(2) -0.10189(17)
H3A H -0.7139 0.1939 -0.1135
C5A C -0.60011(19) 0.3575(2) -0.13227(16)
H4A H -0.6720 0.3844 -0.1640
C6A C -0.46940(18) 0.4316(2) -0.11607(16)
C7A C -0.42939(18) 0.5560(2) -0.14376(15)
C8A C -0.51668(19) 0.6065(2) -0.19894(16)
H5A H -0.6089 0.5618 -0.2209
C9A C -0.47072(19) 0.7218(2) -0.22247(15)
C10A C -0.3342(2) 0.7851(2) -0.19117(16)
H6A H -0.3023 0.8634 -0.2079
C11A C -0.24403(19) 0.7360(2) -0.13595(15)
C12A C -0.29127(18) 0.6208(2) -0.11085(15)
C13A C -0.5650(2) 0.7750(2) -0.28239(17)
C14A C -0.6690(2) 0.6915(2) -0.36523(17)
H7A H -0.6811 0.6003 -0.3816
C15A C -0.7549(2) 0.7408(3) -0.42391(19)
H8A H -0.8243 0.6835 -0.4808
C16A C -0.7393(3) 0.8731(3) -0.3996(2)
H9A H -0.7983 0.9066 -0.4396
C17A C -0.6376(3) 0.9574(3) -0.3168(2)
H10A H -0.6274 1.0483 -0.2997
C18A C -0.5509(2) 0.9082(2) -0.25906(18)
H11A H -0.4810 0.9662 -0.2029
C19A C -0.09840(19) 0.80287(19) -0.10704(16)
C20A C -0.0380(2) 0.8437(2) -0.17850(18)
H12A H -0.0901 0.8317 -0.2456
C21A C 0.0984(2) 0.9020(2) -0.15204(19)
H13A H 0.1395 0.9289 -0.2012
C22A C 0.1742(2) 0.9209(2) -0.0543(2)
H14A H 0.2674 0.9602 -0.0366
C23A C 0.1158(2) 0.8833(2) 0.01745(19)
H15A H 0.1683 0.8975 0.0848
C24A C -0.02030(19) 0.82453(19) -0.00843(17)
H16A H -0.0604 0.7989 0.0416
C25A C -0.07043(19) 0.2517(2) -0.24352(15)
C26A C -0.2080(2) 0.1969(2) -0.27775(18)
H17A H -0.2646 0.2466 -0.2568
C27A C -0.2635(2) 0.0706(3) -0.34205(19)
H18A H -0.3573 0.0345 -0.3641
C28A C -0.1831(3) -0.0019(2) -0.37364(19)
H19A H -0.2212 -0.0879 -0.4178
C29A C -0.0464(3) 0.0504(2) -0.34120(18)
H20A H 0.0093 0.0003 -0.3632
C30A C 0.0092(2) 0.1756(2) -0.27670(17)
H21A H 0.1031 0.2105 -0.2546
C31A C 0.0669(2) 0.5339(2) -0.23189(18)
H22A H 0.1047 0.6223 -0.1856
H23A H 0.1357 0.5065 -0.2606
H24A H -0.0064 0.5323 -0.2875
C32 C 0.4969(3) 0.6972(3) 0.4019(2)
H25 H 0.4276 0.6136 0.3762
H26 H 0.5076 0.7337 0.3450
H27 H 0.4716 0.7574 0.4526
C33 C 0.6259(2) 0.6769(2) 0.45098(18)
C34 C 0.6398(2) 0.6327(2) 0.53809(18)
H28 H 0.5661 0.6133 0.5658
C35 C 0.7597(2) 0.6169(3) 0.58442(19)
H29 H 0.7675 0.5864 0.6434
C36 C 0.8679(2) 0.6452(3) 0.54543(19)
H30 H 0.9502 0.6347 0.5776
C37 C 0.8561(2) 0.6889(2) 0.45936(18)
H31 H 0.9303 0.7083 0.4321
C38 C 0.7364(2) 0.7044(2) 0.41301(18)
H32 H 0.7294 0.7345 0.3539
Si3? Si 0.032(2) 0.645(3) 0.1698(15)
O3? O -0.094(4) 0.611(6) 0.070(3)
loop_
_geom_bond_atom_site_label_1
_geom_bond_atom_site_label_2
_geom_bond_site_symmetry_1
_geom_bond_site_symmetry_2
Si1 O1 1_555 1_555
Si2 O1 1_555 1_555
O2 Si2 1_555 1_555
C1 Si1 1_555 1_555
C2 C1 1_555 1_555
H1 C2 1_555 1_555
C3 C2 1_555 1_555
H2 C3 1_555 1_555
C4 C3 1_555 1_555
H3 C4 1_555 1_555
C5 C4 1_555 1_555
H4 C5 1_555 1_555
C6 C1 1_555 1_555
C7 C6 1_555 1_555
C8 C7 1_555 1_555
H5 C8 1_555 1_555
C9 C8 1_555 1_555
C10 C9 1_555 1_555
H6 C10 1_555 1_555
C11 C10 1_555 1_555
C12 Si1 1_555 1_555
C13 C9 1_555 1_555
C14 C13 1_555 1_555
H7 C14 1_555 1_555
C15 C14 1_555 1_555
H8 C15 1_555 1_555
C16 C15 1_555 1_555
H9 C16 1_555 1_555
C17 C16 1_555 1_555
H10 C17 1_555 1_555
C18 C13 1_555 1_555
H11 C18 1_555 1_555
C19 C11 1_555 1_555
C20 C19 1_555 1_555
H12 C20 1_555 1_555
C21 C20 1_555 1_555
H13 C21 1_555 1_555
C22 C21 1_555 1_555
H14 C22 1_555 1_555
C23 C22 1_555 1_555
H15 C23 1_555 1_555
C24 C19 1_555 1_555
H16 C24 1_555 1_555
C25 Si2 1_555 1_555
C26 C25 1_555 1_555
H17 C26 1_555 1_555
C27 C26 1_555 1_555
H18 C27 1_555 1_555
C28 C27 1_555 1_555
H19 C28 1_555 1_555
C29 C28 1_555 1_555
H20 C29 1_555 1_555
C30 C25 1_555 1_555
H21 C30 1_555 1_555
C31 Si2 1_555 1_555
H22 C31 1_555 1_555
H23 C31 1_555 1_555
H24 C31 1_555 1_555
C32 H25 1_555 1_555
H26 C32 1_555 1_555
H27 C32 1_555 1_555
C33 C32 1_555 1_555
C34 C33 1_555 1_555
H28 C34 1_555 1_555
C35 C34 1_555 1_555
H29 C35 1_555 1_555
C36 C35 1_555 1_555
H30 C36 1_555 1_555
C37 C36 1_555 1_555
H31 C37 1_555 1_555
C38 C33 1_555 1_555
H32 C38 1_555 1_555
Si1A O2 1_555 1_555
Si2A O1A 1_555 1_555
O1A Si1A 1_555 1_555
O2A Si1 1_555 1_555
C1A Si1A 1_555 1_555
C2A C1A 1_555 1_555
H1A C2A 1_555 1_555
C3A C2A 1_555 1_555
H2A C3A 1_555 1_555
C4A C3A 1_555 1_555
H3A C4A 1_555 1_555
C5A C4A 1_555 1_555
H4A C5A 1_555 1_555
C6A C1A 1_555 1_555
C7A C6A 1_555 1_555
C8A C7A 1_555 1_555
H5A C8A 1_555 1_555
C9A C8A 1_555 1_555
C10A C9A 1_555 1_555
H6A C10A 1_555 1_555
C11A C10A 1_555 1_555
C12A Si1A 1_555 1_555
C13A C9A 1_555 1_555
C14A C13A 1_555 1_555
H7A C14A 1_555 1_555
C15A C14A 1_555 1_555
H8A C15A 1_555 1_555
C16A C15A 1_555 1_555
H9A C16A 1_555 1_555
C17A C16A 1_555 1_555
H10A C17A 1_555 1_555
C18A C13A 1_555 1_555
H11A C18A 1_555 1_555
C19A C11A 1_555 1_555
C20A C19A 1_555 1_555
H12A C20A 1_555 1_555
C21A C20A 1_555 1_555
H13A C21A 1_555 1_555
C22A C21A 1_555 1_555
H14A C22A 1_555 1_555
C23A C22A 1_555 1_555
H15A C23A 1_555 1_555
C24A C19A 1_555 1_555
H16A C24A 1_555 1_555
C25A Si2A 1_555 1_555
C26A C25A 1_555 1_555
H17A C26A 1_555 1_555
C27A C26A 1_555 1_555
H18A C27A 1_555 1_555
C28A C27A 1_555 1_555
H19A C28A 1_555 1_555
C29A C28A 1_555 1_555
H20A C29A 1_555 1_555
C30A C25A 1_555 1_555
H21A C30A 1_555 1_555
C31A Si2A 1_555 1_555
H22A C31A 1_555 1_555
H23A C31A 1_555 1_555
H24A C31A 1_555 1_555
C5 C6 1_555 1_555
C7 C12 1_555 1_555
C11 C12 1_555 1_555
C17 C18 1_555 1_555
C23 C24 1_555 1_555
C29 C30 1_555 1_555
C37 C38 1_555 1_555
Si2A O2A 1_555 1_555
C5A C6A 1_555 1_555
C7A C12A 1_555 1_555
C11A C12A 1_555 1_555
C17A C18A 1_555 1_555
C23A C24A 1_555 1_555
C29A C30A 1_555 1_555

#END
