
#######################################################################
#
#                 Cambridge Crystallographic Data Centre
#                                CCDC 
#
#######################################################################
#
# If this CIF has been generated from an entry in the Cambridge 
# Structural Database, then it will include bibliographic, chemical, 
# crystal, experimental, refinement or atomic coordinate data resulting 
# from the CCDC's data processing and validation procedures.
#
#######################################################################

data_MUBKIE
_chemical_formula_moiety         'C17 H17 F1 N4 O4'
_chemical_name_systematic        
'1-Cyclopropyl-6-fluoro-7-(4-nitroso-1-piperazinyl)-4-oxo-1,4-dihydro-3-quinolinecarboxylic acid'
_symmetry_cell_setting           triclinic
_symmetry_space_group_name_H-M   'P -1'
_symmetry_Int_Tables_number      2
_space_group_name_Hall           '-P 1'
loop_
_symmetry_equiv_pos_site_id
_symmetry_equiv_pos_as_xyz
1 x,y,z
2 -x,-y,-z
_cell_length_a                   8.378(3)
_cell_length_b                   9.625(4)
_cell_length_c                   10.328(4)
_cell_angle_alpha                102.99(2)
_cell_angle_beta                 96.089(14)
_cell_angle_gamma                97.392(16)
_cell_volume                     796.883
_exptl_crystal_colour            yellow
_exptl_crystal_description       block
_cell_formula_units_Z            2
loop_
_atom_site_label
_atom_site_type_symbol
_atom_site_fract_x
_atom_site_fract_y
_atom_site_fract_z
N1 N 0.14474(19) 0.38921(17) 0.16119(15)
O1 O -0.1340(2) 0.09746(18) -0.25939(15)
H1 H -0.0827 0.1674 -0.2814
O2 O 0.0676(2) 0.32428(17) -0.25086(13)
C1 C 0.2117(2) 0.4611(2) -0.03990(18)
F1 F 0.51960(16) 0.74426(14) -0.07933(12)
C2 C 0.2335(2) 0.48548(19) 0.10118(18)
C3 C 0.4372(2) 0.6987(2) 0.1245(2)
C4 C 0.0120(2) 0.2477(2) -0.05450(19)
O3 O -0.1742(2) 0.03235(18) -0.07173(17)
C5 C 0.3415(2) 0.6063(2) 0.18211(19)
H2 H 0.3488 0.6247 0.2770
C6 C 0.3081(3) 0.5551(2) -0.0978(2)
H3 H 0.2962 0.5415 -0.1925
N2 N 0.5528(2) 0.81427(18) 0.20147(16)
C7 C 0.0944(2) 0.3414(2) -0.1242(2)
C8 C 0.4184(3) 0.6654(2) -0.0179(2)
C9 C 0.0408(2) 0.2758(2) 0.0830(2)
H4 H -0.0163 0.2111 0.1257
C10 C -0.1066(3) 0.1168(2) -0.1269(2)
N3 N 0.7368(3) 1.0685(2) 0.37104(18)
C11 C 0.1612(3) 0.4155(2) 0.30774(19)
H5 H 0.1132 0.4997 0.3544
C12 C 0.5794(3) 0.8301(2) 0.3473(2)
H6 H 0.5869 0.7346 0.3663
H7 H 0.4859 0.8666 0.3870
C13 C 0.3112(3) 0.3878(3) 0.3816(2)
H8 H 0.3549 0.4545 0.4696
H9 H 0.3943 0.3493 0.3283
C14 C 0.7354(3) 0.9344(2) 0.4114(2)
H10 H 0.7434 0.9535 0.5103
H11 H 0.8306 0.8901 0.3840
C15 C 0.5548(3) 0.9558(3) 0.1687(2)
H12 H 0.4633 1.0008 0.2039
H13 H 0.5390 0.9417 0.0700
C16 C 0.7110(3) 1.0550(3) 0.2268(2)
H14 H 0.8022 1.0156 0.1856
H15 H 0.7058 1.1509 0.2082
C17 C 0.1525(3) 0.2910(3) 0.3709(2)
H16 H 0.1379 0.1929 0.3111
H17 H 0.0986 0.2981 0.4524
N4 N 0.7544(3) 1.1903(2) 0.4635(2)
O4 O 0.7463(3) 1.3001(2) 0.4211(2)
loop_
_geom_bond_atom_site_label_1
_geom_bond_atom_site_label_2
_geom_bond_site_symmetry_1
_geom_bond_site_symmetry_2
N1 C2 1_555 1_555
O1 H1 1_555 1_555
O2 C7 1_555 1_555
C1 C2 1_555 1_555
F1 C8 1_555 1_555
C2 C5 1_555 1_555
C3 C5 1_555 1_555
C4 C7 1_555 1_555
O3 C10 1_555 1_555
C5 H2 1_555 1_555
C6 C1 1_555 1_555
H3 C6 1_555 1_555
N2 C3 1_555 1_555
C7 C1 1_555 1_555
C8 C3 1_555 1_555
C9 N1 1_555 1_555
H4 C9 1_555 1_555
C10 O1 1_555 1_555
N3 C14 1_555 1_555
C11 N1 1_555 1_555
H5 C11 1_555 1_555
C12 N2 1_555 1_555
H6 C12 1_555 1_555
H7 C12 1_555 1_555
C13 C11 1_555 1_555
H8 C13 1_555 1_555
H9 C13 1_555 1_555
C14 C12 1_555 1_555
H10 C14 1_555 1_555
H11 C14 1_555 1_555
C15 N2 1_555 1_555
H12 C15 1_555 1_555
H13 C15 1_555 1_555
C16 N3 1_555 1_555
H14 C16 1_555 1_555
H15 C16 1_555 1_555
C17 C11 1_555 1_555
H16 C17 1_555 1_555
H17 C17 1_555 1_555
N4 N3 1_555 1_555
O4 N4 1_555 1_555
C4 C9 1_555 1_555
C4 C10 1_555 1_555
C6 C8 1_555 1_555
C13 C17 1_555 1_555
C15 C16 1_555 1_555

#END
