
#######################################################################
#
#                 Cambridge Crystallographic Data Centre
#                                CCDC 
#
#######################################################################
#
# If this CIF has been generated from an entry in the Cambridge 
# Structural Database, then it will include bibliographic, chemical, 
# crystal, experimental, refinement or atomic coordinate data resulting 
# from the CCDC's data processing and validation procedures.
#
#######################################################################

data_MUCCET
_chemical_formula_moiety         'C14 H12 Br1 N3 O2,H2 O1'
_chemical_name_systematic        
"N'-(3-Bromo-4-methoxybenzylidene)nicotinohydrazide monohydrate"
_symmetry_cell_setting           monoclinic
_symmetry_space_group_name_H-M   'P 21/c'
_symmetry_Int_Tables_number      14
_space_group_name_Hall           '-P 2ybc'
loop_
_symmetry_equiv_pos_site_id
_symmetry_equiv_pos_as_xyz
1 x,y,z
2 -x,1/2+y,1/2-z
3 -x,-y,-z
4 x,1/2-y,1/2+z
_cell_length_a                   7.79790(10)
_cell_length_b                   12.5678(2)
_cell_length_c                   14.9419(3)
_cell_angle_alpha                90
_cell_angle_beta                 97.4490(10)
_cell_angle_gamma                90
_cell_volume                     1451.98
_exptl_crystal_colour            colorless
_exptl_crystal_description       block
_cell_formula_units_Z            4
_exptl_crystal_recrystallization_method methanol
loop_
_atom_site_label
_atom_site_type_symbol
_atom_site_fract_x
_atom_site_fract_y
_atom_site_fract_z
Br1 Br 0.38290(3) 0.882695(16) 0.139661(15)
O1 O -0.0836(2) 0.53946(11) -0.37189(9)
N1 N 0.0118(2) 0.66340(13) -0.22564(10)
C1 C 0.2856(2) 0.77093(14) 0.06618(12)
C2 C 0.1504(3) 0.70831(15) -0.07779(12)
N2 N -0.0635(2) 0.70309(13) -0.30777(10)
H1 H -0.0792 0.7704 -0.3150
C3 C 0.1501(3) 0.60611(15) -0.04249(14)
H2 H 0.1064 0.5501 -0.0792
O2 O 0.3473(2) 0.65767(12) 0.19064(9)
N3 N -0.2839(3) 0.66239(14) -0.61976(11)
C4 C -0.3787(3) 0.81441(17) -0.54493(14)
H3 H -0.4406 0.8779 -0.5484
C5 C 0.2194(3) 0.79090(15) -0.02219(12)
H4 H 0.2207 0.8598 -0.0448
C6 C -0.2933(3) 0.78026(16) -0.46379(13)
H5 H -0.2956 0.8207 -0.4118
C7 C -0.3718(3) 0.75404(18) -0.62074(13)
H6 H -0.4306 0.7777 -0.6752
C8 C -0.2044(3) 0.62932(16) -0.54085(13)
H7 H -0.1453 0.5649 -0.5392
C9 C -0.2041(2) 0.68508(15) -0.46049(12)
C10 C 0.2824(3) 0.66925(15) 0.10238(12)
C11 C 0.2141(3) 0.58670(16) 0.04669(13)
H8 H 0.2116 0.5180 0.0696
C12 C 0.0758(3) 0.73423(16) -0.17017(13)
H9 H 0.0751 0.8048 -0.1890
C13 C 0.3529(4) 0.55397(18) 0.22835(15)
H10 H 0.4014 0.5573 0.2907
H11 H 0.4233 0.5089 0.1962
H12 H 0.2379 0.5255 0.2237
C14 C -0.1121(3) 0.63517(15) -0.37660(12)
O3 O -0.1669(3) 0.57231(13) -0.77890(10)
H13 H -0.214(3) 0.5932(19) -0.7336(13)
H14 H -0.110(3) 0.519(2) -0.7634(19)
loop_
_geom_bond_atom_site_label_1
_geom_bond_atom_site_label_2
_geom_bond_site_symmetry_1
_geom_bond_site_symmetry_2
Br1 C1 1_555 1_555
O1 C14 1_555 1_555
N1 N2 1_555 1_555
C1 C5 1_555 1_555
C2 C3 1_555 1_555
N2 H1 1_555 1_555
C3 H2 1_555 1_555
O2 C10 1_555 1_555
N3 C7 1_555 1_555
C4 H3 1_555 1_555
C5 C2 1_555 1_555
H4 C5 1_555 1_555
C6 C4 1_555 1_555
H5 C6 1_555 1_555
C7 C4 1_555 1_555
H6 C7 1_555 1_555
C8 N3 1_555 1_555
H7 C8 1_555 1_555
C9 C6 1_555 1_555
C10 C1 1_555 1_555
C11 C3 1_555 1_555
H8 C11 1_555 1_555
C12 N1 1_555 1_555
H9 C12 1_555 1_555
C13 O2 1_555 1_555
H10 C13 1_555 1_555
H11 C13 1_555 1_555
H12 C13 1_555 1_555
C14 N2 1_555 1_555
O3 H13 1_555 1_555
H14 O3 1_555 1_555
C2 C12 1_555 1_555
C8 C9 1_555 1_555
C9 C14 1_555 1_555
C10 C11 1_555 1_555

#END
