
#######################################################################
#
#                 Cambridge Crystallographic Data Centre
#                                CCDC 
#
#######################################################################
#
# If this CIF has been generated from an entry in the Cambridge 
# Structural Database, then it will include bibliographic, chemical, 
# crystal, experimental, refinement or atomic coordinate data resulting 
# from the CCDC's data processing and validation procedures.
#
#######################################################################

data_MUCFIB
_chemical_formula_moiety         'C20 H23 N3 O2 S1'
_chemical_name_systematic        
N-t-Butyl-1-((4-methylphenyl)sulfonyl)-3-phenyl-1H-pyrazol-5-amine
_symmetry_cell_setting           monoclinic
_symmetry_space_group_name_H-M   'P 21/n'
_symmetry_Int_Tables_number      14
_space_group_name_Hall           '-P 2yn'
loop_
_symmetry_equiv_pos_site_id
_symmetry_equiv_pos_as_xyz
1 x,y,z
2 1/2-x,1/2+y,1/2-z
3 -x,-y,-z
4 1/2+x,1/2-y,1/2+z
_cell_length_a                   9.2469(6)
_cell_length_b                   12.1137(7)
_cell_length_c                   17.1803(11)
_cell_angle_alpha                90
_cell_angle_beta                 99.893(2)
_cell_angle_gamma                90
_cell_volume                     1895.82
_exptl_crystal_colour            colorless
_exptl_crystal_description       block
_cell_formula_units_Z            4
loop_
_atom_site_label
_atom_site_type_symbol
_atom_site_fract_x
_atom_site_fract_y
_atom_site_fract_z
S1 S 0.64971(5) 0.37197(3) 0.50452(2)
O1 O 0.67475(14) 0.48836(9) 0.50305(7)
O2 O 0.57747(14) 0.32494(9) 0.56329(6)
N1 N 0.54923(15) 0.34144(10) 0.41719(7)
N2 N 0.50908(15) 0.23021(10) 0.40936(7)
N3 N 0.60200(15) 0.49533(10) 0.33919(8)
H1 H 0.603(2) 0.5297(16) 0.3775(12)
C1 C 0.55709(15) 0.38968(11) 0.34394(8)
C2 C 0.51144(15) 0.30908(11) 0.28907(8)
H2 H 0.4998 0.3157 0.2344
C3 C 0.48556(15) 0.21368(11) 0.33243(8)
C4 C 0.43893(15) 0.10422(11) 0.30097(9)
C5 C 0.39079(18) 0.08857(12) 0.22084(9)
H3 H 0.3842 0.1487 0.1867
C6 C 0.3522(2) -0.01601(14) 0.19086(11)
H4 H 0.3192 -0.0255 0.1370
C7 C 0.36304(19) -0.10587(13) 0.24117(11)
H5 H 0.3383 -0.1759 0.2211
C8 C 0.41049(18) -0.09159(12) 0.32098(11)
H6 H 0.4178 -0.1521 0.3547
C9 C 0.44736(16) 0.01277(12) 0.35124(9)
H7 H 0.4779 0.0220 0.4053
C10 C 0.61513(16) 0.55449(11) 0.26609(8)
C11 C 0.71654(18) 0.49220(13) 0.22027(10)
H8 H 0.8082 0.4776 0.2543
H9 H 0.7339 0.5361 0.1763
H10 H 0.6715 0.4237 0.2013
C12 C 0.46457(18) 0.57247(14) 0.21535(11)
H11 H 0.4195 0.5023 0.2010
H12 H 0.4756 0.6122 0.1684
H13 H 0.4039 0.6142 0.2447
C13 C 0.6834(2) 0.66595(13) 0.29264(11)
H14 H 0.6228 0.7032 0.3244
H15 H 0.6909 0.7101 0.2471
H16 H 0.7795 0.6547 0.3231
C14 C 0.81708(18) 0.30322(12) 0.50528(8)
C15 C 0.83598(19) 0.19683(13) 0.53520(10)
H17 H 0.7596 0.1610 0.5537
C16 C 0.96994(19) 0.14444(13) 0.53726(10)
H18 H 0.9828 0.0733 0.5576
C17 C 1.08516(18) 0.19615(14) 0.50961(9)
C18 C 1.0630(2) 0.30193(16) 0.47912(12)
H19 H 1.1389 0.3374 0.4600
C19 C 0.9299(2) 0.35605(14) 0.47656(11)
H20 H 0.9166 0.4269 0.4558
C20 C 1.2310(2) 0.13935(17) 0.51272(12)
H21 H 1.3084 0.1929 0.5226
H22 H 1.2335 0.1034 0.4632
H23 H 1.2440 0.0855 0.5544
loop_
_geom_bond_atom_site_label_1
_geom_bond_atom_site_label_2
_geom_bond_site_symmetry_1
_geom_bond_site_symmetry_2
S1 O1 1_555 1_555
O2 S1 1_555 1_555
N1 S1 1_555 1_555
N2 N1 1_555 1_555
N3 H1 1_555 1_555
C1 N1 1_555 1_555
C2 C1 1_555 1_555
H2 C2 1_555 1_555
C3 N2 1_555 1_555
C4 C3 1_555 1_555
C5 C4 1_555 1_555
H3 C5 1_555 1_555
C6 C5 1_555 1_555
H4 C6 1_555 1_555
C7 C6 1_555 1_555
H5 C7 1_555 1_555
C8 C7 1_555 1_555
H6 C8 1_555 1_555
C9 C4 1_555 1_555
H7 C9 1_555 1_555
C10 N3 1_555 1_555
C11 C10 1_555 1_555
H8 C11 1_555 1_555
H9 C11 1_555 1_555
H10 C11 1_555 1_555
C12 C10 1_555 1_555
H11 C12 1_555 1_555
H12 C12 1_555 1_555
H13 C12 1_555 1_555
C13 C10 1_555 1_555
H14 C13 1_555 1_555
H15 C13 1_555 1_555
H16 C13 1_555 1_555
C14 S1 1_555 1_555
C15 C14 1_555 1_555
H17 C15 1_555 1_555
C16 C15 1_555 1_555
H18 C16 1_555 1_555
C17 C16 1_555 1_555
C18 C17 1_555 1_555
H19 C18 1_555 1_555
C19 C14 1_555 1_555
H20 C19 1_555 1_555
C20 C17 1_555 1_555
H21 C20 1_555 1_555
H22 C20 1_555 1_555
H23 C20 1_555 1_555
N3 C1 1_555 1_555
C2 C3 1_555 1_555
C8 C9 1_555 1_555
C18 C19 1_555 1_555

#END
