
#######################################################################
#
#                 Cambridge Crystallographic Data Centre
#                                CCDC 
#
#######################################################################
#
# If this CIF has been generated from an entry in the Cambridge 
# Structural Database, then it will include bibliographic, chemical, 
# crystal, experimental, refinement or atomic coordinate data resulting 
# from the CCDC's data processing and validation procedures.
#
#######################################################################

data_MUDDUK
_chemical_formula_moiety         'C3 H7 N1 O3,2(H2 O1)'
_chemical_name_systematic        'DL-Serine dihydrate'
_symmetry_cell_setting           monoclinic
_symmetry_space_group_name_H-M   'P 21/n'
_symmetry_Int_Tables_number      14
_space_group_name_Hall           '-P 2yn'
loop_
_symmetry_equiv_pos_site_id
_symmetry_equiv_pos_as_xyz
1 x,y,z
2 1/2-x,1/2+y,1/2-z
3 -x,-y,-z
4 1/2+x,1/2-y,1/2+z
_cell_length_a                   4.831(2)
_cell_length_b                   9.150(4)
_cell_length_c                   10.444(4)
_cell_angle_alpha                90
_cell_angle_beta                 99.97(2)
_cell_angle_gamma                90
_cell_volume                     454.691
_exptl_crystal_colour            colorless
_exptl_crystal_description       block
_cell_formula_units_Z            4
_chemical_properties_physical    moisture-sensitive
loop_
_atom_site_label
_atom_site_type_symbol
_atom_site_fract_x
_atom_site_fract_y
_atom_site_fract_z
N1 N 0.5925(3) 0.3293(2) 0.8479(1)
O1 O 0.4204(3) -0.0061(2) 0.6679(1)
O2 O 0.2670(2) 0.0975(1) 0.8362(1)
O3 O 0.2974(3) 0.3307(2) 0.5683(1)
C1 C 0.4181(3) 0.0942(2) 0.7505(2)
C2 C 0.6228(4) 0.2206(2) 0.7449(1)
C3 C 0.5820(4) 0.2909(2) 0.6113(2)
O4 O -0.2004(5) -0.0135(6) 0.5270(4)
O5 O 0.2659(6) 0.4288(1) 0.7299(3)
loop_
_geom_bond_atom_site_label_1
_geom_bond_atom_site_label_2
_geom_bond_site_symmetry_1
_geom_bond_site_symmetry_2
N1 C2 1_555 1_555
O1 C1 1_555 1_555
O2 C1 1_555 1_555
O3 C3 1_555 1_555
C1 C2 1_555 1_555
C2 C3 1_555 1_555

#END
