
#######################################################################
#
#                 Cambridge Crystallographic Data Centre
#                                CCDC 
#
#######################################################################
#
# If this CIF has been generated from an entry in the Cambridge 
# Structural Database, then it will include bibliographic, chemical, 
# crystal, experimental, refinement or atomic coordinate data resulting 
# from the CCDC's data processing and validation procedures.
#
#######################################################################

data_MUDHIC02
_chemical_formula_moiety         'C22 H19 N3 O2'
_chemical_name_systematic        
4-(((2-Hydroxy-1-naphthyl)methylene)amino)-1,5-dimethyl-2-phenyl-1,2-dihydro-3H-pyrazol-3-one
_symmetry_cell_setting           orthorhombic
_symmetry_space_group_name_H-M   'P 21 21 21'
_symmetry_Int_Tables_number      19
_space_group_name_Hall           'P 2ac 2ab'
loop_
_symmetry_equiv_pos_site_id
_symmetry_equiv_pos_as_xyz
1 x,y,z
2 1/2-x,-y,1/2+z
3 -x,1/2+y,1/2-z
4 1/2+x,1/2-y,-z
_cell_length_a                   8.8170(18)
_cell_length_b                   14.605(3)
_cell_length_c                   14.734(3)
_cell_angle_alpha                90
_cell_angle_beta                 90
_cell_angle_gamma                90
_cell_volume                     1897.33
_cell_formula_units_Z            4
loop_
_atom_site_label
_atom_site_type_symbol
_atom_site_fract_x
_atom_site_fract_y
_atom_site_fract_z
O1 O -0.3184(3) 0.37352(16) 0.19720(13)
H1 H -0.2301 0.3911 0.1962
O2 O 0.1576(2) 0.52940(15) -0.00392(11)
N1 N 0.2706(3) 0.52395(16) 0.22161(13)
N2 N 0.2935(3) 0.54656(16) 0.13044(13)
N3 N -0.0674(3) 0.42809(15) 0.12820(14)
C1 C 0.3970(4) 0.7020(2) 0.1405(2)
H2 H 0.3230 0.7175 0.1828
C2 C 0.5026(5) 0.7657(2) 0.1129(3)
H3 H 0.4993 0.8246 0.1368
C3 C 0.6131(5) 0.7438(3) 0.0504(2)
H4 H 0.6835 0.7875 0.0323
C4 C 0.6183(4) 0.6571(3) 0.0152(2)
H5 H 0.6930 0.6419 -0.0268
C5 C 0.5129(3) 0.5917(2) 0.04173(19)
H6 H 0.5164 0.5329 0.0175
C6 C 0.4028(3) 0.61465(18) 0.10448(16)
C7 C 0.3979(4) 0.5270(3) 0.28451(18)
H7 H 0.3639 0.5102 0.3441
H8 H 0.4388 0.5879 0.2860
H9 H 0.4749 0.4850 0.2648
C8 C 0.0890(4) 0.4320(2) 0.31424(18)
H10 H 0.1587 0.4479 0.3617
H11 H 0.0843 0.3665 0.3085
H12 H -0.0098 0.4553 0.3287
C9 C 0.1417(3) 0.4727(2) 0.22684(17)
C10 C 0.1709(3) 0.51459(18) 0.07860(17)
C11 C 0.0756(3) 0.46731(18) 0.14236(16)
C12 C -0.1256(3) 0.41955(18) 0.04825(18)
H13 H -0.0693 0.4370 -0.0023
C13 C -0.2796(3) 0.38265(18) 0.03568(19)
C14 C -0.3687(3) 0.36272(19) 0.1117(2)
C15 C -0.5228(4) 0.3315(2) 0.1005(3)
H14 H -0.5827 0.3201 0.1512
C16 C -0.5798(4) 0.3190(2) 0.0171(3)
H15 H -0.6799 0.2996 0.0114
C17 C -0.4943(3) 0.3341(2) -0.0627(2)
C18 C -0.3411(3) 0.36750(19) -0.0533(2)
C19 C -0.2578(4) 0.3824(3) -0.1346(2)
H16 H -0.1596 0.4054 -0.1308
C20 C -0.3180(5) 0.3639(3) -0.2183(2)
H17 H -0.2607 0.3741 -0.2703
C21 C -0.4680(4) 0.3292(3) -0.2256(3)
H18 H -0.5084 0.3156 -0.2824
C22 C -0.5521(4) 0.3161(2) -0.1496(3)
H19 H -0.6509 0.2945 -0.1553
loop_
_geom_bond_atom_site_label_1
_geom_bond_atom_site_label_2
_geom_bond_site_symmetry_1
_geom_bond_site_symmetry_2
O1 H1 1_555 1_555
O2 C10 1_555 1_555
N1 N2 1_555 1_555
N2 C6 1_555 1_555
N3 C11 1_555 1_555
C1 H2 1_555 1_555
C2 C1 1_555 1_555
H3 C2 1_555 1_555
C3 C2 1_555 1_555
H4 C3 1_555 1_555
C4 C3 1_555 1_555
H5 C4 1_555 1_555
C5 C4 1_555 1_555
H6 C5 1_555 1_555
C6 C1 1_555 1_555
C7 N1 1_555 1_555
H7 C7 1_555 1_555
H8 C7 1_555 1_555
H9 C7 1_555 1_555
C8 H10 1_555 1_555
H11 C8 1_555 1_555
H12 C8 1_555 1_555
C9 N1 1_555 1_555
C10 N2 1_555 1_555
C11 C9 1_555 1_555
C12 N3 1_555 1_555
H13 C12 1_555 1_555
C13 C12 1_555 1_555
C14 O1 1_555 1_555
C15 C14 1_555 1_555
H14 C15 1_555 1_555
C16 C15 1_555 1_555
H15 C16 1_555 1_555
C17 C16 1_555 1_555
C18 C13 1_555 1_555
C19 C18 1_555 1_555
H16 C19 1_555 1_555
C20 C19 1_555 1_555
H17 C20 1_555 1_555
C21 C20 1_555 1_555
H18 C21 1_555 1_555
C22 C17 1_555 1_555
H19 C22 1_555 1_555
C5 C6 1_555 1_555
C8 C9 1_555 1_555
C10 C11 1_555 1_555
C13 C14 1_555 1_555
C17 C18 1_555 1_555
C21 C22 1_555 1_555

#END
