
#######################################################################
#
#                 Cambridge Crystallographic Data Centre
#                                CCDC 
#
#######################################################################
#
# If this CIF has been generated from an entry in the Cambridge 
# Structural Database, then it will include bibliographic, chemical, 
# crystal, experimental, refinement or atomic coordinate data resulting 
# from the CCDC's data processing and validation procedures.
#
#######################################################################

data_MUDZES
_chemical_formula_moiety         'C22 H16 N2'
_chemical_name_systematic        
(3,4-dimethyl-2,5-diphenylcyclopenta-2,4-dien-1-ylidene)malononitrile
_symmetry_cell_setting           monoclinic
_symmetry_space_group_name_H-M   'P 21/c'
_symmetry_Int_Tables_number      14
_space_group_name_Hall           '-P 2ybc'
loop_
_symmetry_equiv_pos_site_id
_symmetry_equiv_pos_as_xyz
1 x,y,z
2 -x,1/2+y,1/2-z
3 -x,-y,-z
4 x,1/2-y,1/2+z
_cell_length_a                   11.0094(6)
_cell_length_b                   16.0877(9)
_cell_length_c                   9.7472(6)
_cell_angle_alpha                90
_cell_angle_beta                 108.178(4)
_cell_angle_gamma                90
_cell_volume                     1640.22
_exptl_crystal_colour            brown
_exptl_crystal_description       prism
_cell_formula_units_Z            4
loop_
_atom_site_label
_atom_site_type_symbol
_atom_site_fract_x
_atom_site_fract_y
_atom_site_fract_z
H1 H 0.5902 0.2802 0.5127
H2 H 0.7764 0.2973 0.4548
H3 H 0.7751 0.3691 0.2485
H4 H 0.585 0.4248 0.0999
H5 H 0.3979 0.407 0.1557
H6 H -0.059 0.2429 0.2222
H7 H -0.2228 0.1547 0.2296
H8 H -0.1982 0.0693 0.4276
H9 H -0.0097 0.0726 0.6178
H10 H 0.1526 0.162 0.613
H11 H 0.241 0.5128 0.3697
H12 H 0.3304 0.4958 0.5272
H13 H 0.3861 0.4931 0.3976
H14 H 0.0086 0.3687 0.4936
H15 H 0.018 0.4348 0.3792
H16 H 0.1047 0.4431 0.5402
C1 C 0.28360(19) 0.25083(13) 0.3736(2)
C2 C 0.35256(19) 0.33022(13) 0.3736(2)
C3 C 0.2826(2) 0.39088(13) 0.4084(2)
C4 C 0.1661(2) 0.35405(12) 0.4311(2)
C5 C 0.16686(19) 0.27092(13) 0.4125(2)
C6 C 0.31490(19) 0.17514(13) 0.3348(2)
C7 C 0.4241(2) 0.15736(13) 0.2869(2)
N1 N 0.5062(2) 0.13530(12) 0.2470(2)
C8 C 0.2420(2) 0.10070(14) 0.3364(2)
N2 N 0.19076(19) 0.03877(12) 0.3342(2)
C9 C 0.4729(2) 0.34057(12) 0.3393(2)
C10 C 0.5886(2) 0.30868(13) 0.4291(2)
C11 C 0.7002(2) 0.31930(14) 0.3948(2)
C12 C 0.6998(2) 0.36231(14) 0.2715(2)
C13 C 0.5858(2) 0.39541(14) 0.1823(2)
C14 C 0.4738(2) 0.38462(14) 0.2159(2)
C15 C 0.3127(2) 0.48113(13) 0.4274(3)
C16 C 0.0654(2) 0.40462(14) 0.4639(2)
C17 C 0.06432(19) 0.21216(13) 0.4167(2)
C18 C -0.0490(2) 0.20904(13) 0.3023(2)
C19 C -0.1471(2) 0.15592(13) 0.3063(2)
C20 C -0.1326(2) 0.10505(14) 0.4247(2)
C21 C -0.0199(2) 0.10728(14) 0.5387(2)
C22 C 0.0777(2) 0.16050(13) 0.5353(2)
loop_
_geom_bond_atom_site_label_1
_geom_bond_atom_site_label_2
_geom_bond_site_symmetry_1
_geom_bond_site_symmetry_2
H1 C10 1_555 1_555
H2 C11 1_555 1_555
H3 C12 1_555 1_555
H4 C13 1_555 1_555
H5 C14 1_555 1_555
H6 C18 1_555 1_555
H7 C19 1_555 1_555
H8 C20 1_555 1_555
H9 C21 1_555 1_555
H10 C22 1_555 1_555
H11 C15 1_555 1_555
H12 C15 1_555 1_555
H13 C15 1_555 1_555
H14 C16 1_555 1_555
H15 C16 1_555 1_555
H16 C16 1_555 1_555
C1 C2 1_555 1_555
C2 C3 1_555 1_555
C3 C4 1_555 1_555
C4 C5 1_555 1_555
C5 C1 1_555 1_555
C6 C1 1_555 1_555
C7 C6 1_555 1_555
N1 C7 1_555 1_555
C8 C6 1_555 1_555
N2 C8 1_555 1_555
C9 C2 1_555 1_555
C10 C9 1_555 1_555
C11 C10 1_555 1_555
C12 C11 1_555 1_555
C13 C12 1_555 1_555
C14 C9 1_555 1_555
C15 C3 1_555 1_555
C16 C4 1_555 1_555
C17 C5 1_555 1_555
C18 C17 1_555 1_555
C19 C18 1_555 1_555
C20 C19 1_555 1_555
C21 C20 1_555 1_555
C22 C17 1_555 1_555
C13 C14 1_555 1_555
C21 C22 1_555 1_555

#END
