
#######################################################################
#
#                 Cambridge Crystallographic Data Centre
#                                CCDC 
#
#######################################################################
#
# If this CIF has been generated from an entry in the Cambridge 
# Structural Database, then it will include bibliographic, chemical, 
# crystal, experimental, refinement or atomic coordinate data resulting 
# from the CCDC's data processing and validation procedures.
#
#######################################################################

data_MUFCUN
_chemical_formula_moiety         'C52 H34 N4 O2,C1 H2 Cl2'
_chemical_name_systematic        
'2,3-bis(4-(diphenylamino)phenyl)naphtho[2,3-f]quinoxaline-7,12-dione dichloromethane solvate'
_symmetry_cell_setting           monoclinic
_symmetry_space_group_name_H-M   'P 21/n'
_symmetry_Int_Tables_number      14
_space_group_name_Hall           '-P 2yn'
loop_
_symmetry_equiv_pos_site_id
_symmetry_equiv_pos_as_xyz
1 x,y,z
2 1/2-x,1/2+y,1/2-z
3 -x,-y,-z
4 1/2+x,1/2-y,1/2+z
_cell_length_a                   16.7483(17)
_cell_length_b                   8.8132(11)
_cell_length_c                   28.185(3)
_cell_angle_alpha                90
_cell_angle_beta                 95.889(3)
_cell_angle_gamma                90
_cell_volume                     4138.32
_exptl_crystal_colour            red
_exptl_crystal_description       block
_cell_formula_units_Z            4
loop_
_atom_site_label
_atom_site_type_symbol
_atom_site_fract_x
_atom_site_fract_y
_atom_site_fract_z
C1 C 0.4380(3) 0.1943(5) -0.07925(15)
C2 C 0.4373(3) 0.2519(5) -0.03240(15)
H1 H 0.4803 0.3135 -0.019
C3 C 0.3746(3) 0.2190(6) -0.00635(16)
H2 H 0.3752 0.2571 0.0252
C4 C 0.3097(3) 0.1301(6) -0.02559(17)
H3 H 0.266 0.1097 -0.0075
C5 C 0.3102(3) 0.0729(6) -0.07096(16)
H4 H 0.2664 0.0132 -0.0844
C6 C 0.3752(3) 0.1024(5) -0.09748(15)
H5 H 0.376 0.0587 -0.1282
C7 C 0.4915(3) 0.2418(6) -0.15749(15)
C8 C 0.4225(3) 0.3035(6) -0.18080(16)
H6 H 0.3801 0.3364 -0.1634
C9 C 0.4162(4) 0.3166(6) -0.23050(17)
H7 H 0.368 0.355 -0.2468
C10 C 0.4778(4) 0.2755(7) -0.25619(18)
H8 H 0.4726 0.2863 -0.2899
C11 C 0.5478(4) 0.2179(7) -0.23241(17)
H9 H 0.5912 0.19 -0.2498
C12 C 0.5547(3) 0.2010(6) -0.18364(16)
H10 H 0.6029 0.1613 -0.1676
C13 C 0.5767(3) 0.2825(5) -0.08254(14)
C14 C 0.6054(3) 0.4223(5) -0.09462(15)
H11 H 0.5786 0.4784 -0.1203
C15 C 0.6741(2) 0.4808(5) -0.06897(14)
H12 H 0.6943 0.5763 -0.0778
C16 C 0.7134(2) 0.4029(5) -0.03081(14)
C17 C 0.6850(3) 0.2588(6) -0.02036(15)
H13 H 0.7125 0.2015 0.0048
C18 C 0.6180(3) 0.1988(6) -0.04589(15)
H14 H 0.5998 0.1002 -0.0385
C19 C 0.7830(2) 0.4763(5) -0.00399(14)
C20 C 0.8071(2) 0.4496(5) 0.04642(14)
C21 C 0.7532(2) 0.3853(5) 0.07892(14)
C22 C 0.7819(3) 0.2936(5) 0.11764(14)
H15 H 0.837 0.2654 0.1215
C23 C 0.7319(2) 0.2436(5) 0.15022(14)
H16 H 0.7526 0.1778 0.1752
C24 C 0.6510(2) 0.2877(5) 0.14728(14)
C25 C 0.6219(2) 0.3800(5) 0.10834(14)
H17 H 0.5673 0.4106 0.105
C26 C 0.6718(2) 0.4263(5) 0.07509(14)
H18 H 0.6506 0.4873 0.049
C27 C 0.5154(2) 0.2423(5) 0.17240(14)
C28 C 0.4774(3) 0.1658(5) 0.13383(16)
H19 H 0.508 0.1163 0.1118
C29 C 0.3940(3) 0.1616(6) 0.12733(17)
H20 H 0.3677 0.1104 0.1004
C30 C 0.3496(3) 0.2297(7) 0.15895(18)
H21 H 0.2927 0.2227 0.1549
C31 C 0.3879(3) 0.3101(7) 0.19735(17)
H22 H 0.357 0.3607 0.219
C32 C 0.4704(3) 0.3163(6) 0.20401(16)
H23 H 0.4965 0.3711 0.2302
C33 C 0.6349(2) 0.2193(6) 0.22999(14)
C34 C 0.6922(3) 0.3176(6) 0.25207(15)
H24 H 0.7104 0.402 0.2352
C35 C 0.7221(3) 0.2914(6) 0.29841(16)
H25 H 0.7611 0.3587 0.3135
C36 C 0.6968(3) 0.1693(6) 0.32357(17)
H26 H 0.7187 0.1523 0.3556
C37 C 0.6397(3) 0.0722(6) 0.30208(16)
H27 H 0.6211 -0.0105 0.3196
C38 C 0.6088(3) 0.0948(6) 0.25458(15)
H28 H 0.5707 0.0262 0.2393
O1 O 0.8173(3) 0.8191(8) -0.0846(2)
O2 O 1.1286(2) 0.9152(6) -0.02659(16)
C39 C 0.8894(4) 0.6391(11) -0.0064(3)
C40 C 0.9224(4) 0.5872(10) 0.0387(3)
C41 C 1.0009(6) 0.6302(14) 0.0569(3)
H29 H 1.0239 0.5933 0.0869
C42 C 1.0437(6) 0.7273(15) 0.0300(3)
H30 H 1.0972 0.7538 0.0413
C43 C 1.0088(6) 0.7872(15) -0.0136(3)
C44 C 0.9319(6) 0.7471(13) -0.0312(3)
C45 C 0.8905(4) 0.8250(10) -0.0749(3)
C46 C 0.9428(4) 0.9189(9) -0.1030(2)
C47 C 0.9055(6) 0.9833(15) -0.1458(4)
H31 H 0.8515 0.9595 -0.1568
C48 C 0.9497(5) 1.0817(12) -0.1711(3)
H32 H 0.9249 1.1299 -0.199
C49 C 1.0293(5) 1.1106(10) -0.1562(3)
H33 H 1.0591 1.1775 -0.1742
C50 C 1.0668(7) 1.0412(15) -0.1144(4)
H34 H 1.1224 1.0567 -0.1052
C51 C 1.0219(4) 0.9506(7) -0.0871(2)
C52 C 1.0586(3) 0.8876(8) -0.0413(2)
N1 N 0.5035(2) 0.2256(4) -0.10623(12)
N2 N 0.6013(2) 0.2442(4) 0.18134(11)
N3 N 0.8242(2) 0.5700(5) -0.02795(12)
N4 N 0.8786(2) 0.4951(4) 0.06585(12)
C53 C 1.1846(8) 0.564(2) 0.1483(6)
H35 H 1.217 0.4872 0.1331
H36 H 1.1658 0.6398 0.1239
Cl1 Cl 1.1029(4) 0.4762(9) 0.1692(2)
Cl2 Cl 1.2428(4) 0.6505(10) 0.1935(3)
O3? O 1.0192(7) 0.4351(15) 0.1231(4)
O4? O 1.1630(7) 0.8910(15) 0.0398(5)
C54? C 0.9318(13) 0.564(3) 0.0385(9)
C55? C 0.9019(11) 0.617(3) -0.0063(10)
C56? C 0.9434(17) 0.728(4) -0.0288(9)
H37? H 0.923 0.7642 -0.0595
C57? C 1.015(2) 0.786(5) -0.0066(11)
H38? H 1.0432 0.8619 -0.022
C58? C 1.0447(19) 0.733(5) 0.0382(11)
C59? C 1.0032(17) 0.622(4) 0.0608(8)
C60? C 1.0440(9) 0.5525(19) 0.1071(5)
C61? C 1.1191(7) 0.6245(15) 0.1316(4)
C62? C 1.1464(9) 0.5855(17) 0.1782(4)
H39? H 1.1215 0.505 0.1936
C63? C 1.2101(10) 0.664(2) 0.2023(4)
H40? H 1.2288 0.6375 0.2341
C64? C 1.2465(10) 0.782(2) 0.1797(5)
H41? H 1.29 0.8358 0.1962
C65? C 1.2191(9) 0.8210(18) 0.1331(5)
H42? H 1.244 0.9015 0.1177
C66? C 1.1554(8) 0.7423(16) 0.1090(4)
C67? C 1.1256(9) 0.7936(19) 0.0602(5)
C68? C 1.028(3) 1.076(11) -0.1545(18)
H43? H 1.0206 1.1866 -0.1598
H44? H 1.0568 1.0352 -0.1807
Cl3? Cl 0.9355(15) 0.990(5) -0.1556(9)
Cl4? Cl 1.0855(12) 1.047(3) -0.1004(8)
C69? C 1.238(4) 0.775(4) 0.1992(8)
H45? H 1.2954 0.7992 0.2074
H46? H 1.2049 0.8548 0.2123
Cl5? Cl 1.2152(7) 0.7581(16) 0.1378(4)
Cl6? Cl 1.2149(13) 0.598(3) 0.2206(8)
C70? C 1.163(3) 0.575(4) 0.1982(12)
H47? H 1.1122 0.5971 0.2119
H48? H 1.1769 0.6648 0.1798
Cl7? Cl 1.1475(9) 0.424(2) 0.1601(5)
Cl8? Cl 1.2378(14) 0.546(3) 0.2443(8)
loop_
_geom_bond_atom_site_label_1
_geom_bond_atom_site_label_2
_geom_bond_site_symmetry_1
_geom_bond_site_symmetry_2
C1 C2 1_555 1_555
C2 H1 1_555 1_555
C3 C2 1_555 1_555
H2 C3 1_555 1_555
C4 C3 1_555 1_555
H3 C4 1_555 1_555
C5 C4 1_555 1_555
H4 C5 1_555 1_555
C6 C1 1_555 1_555
H5 C6 1_555 1_555
C7 C8 1_555 1_555
C8 H6 1_555 1_555
C9 C8 1_555 1_555
H7 C9 1_555 1_555
C10 C9 1_555 1_555
H8 C10 1_555 1_555
C11 C10 1_555 1_555
H9 C11 1_555 1_555
C12 C7 1_555 1_555
H10 C12 1_555 1_555
C13 C14 1_555 1_555
C14 H11 1_555 1_555
C15 C14 1_555 1_555
H12 C15 1_555 1_555
C16 C15 1_555 1_555
C17 C16 1_555 1_555
H13 C17 1_555 1_555
C18 C13 1_555 1_555
H14 C18 1_555 1_555
C19 C16 1_555 1_555
C20 C19 1_555 1_555
C21 C20 1_555 1_555
C22 C21 1_555 1_555
H15 C22 1_555 1_555
C23 C22 1_555 1_555
H16 C23 1_555 1_555
C24 C23 1_555 1_555
C25 C24 1_555 1_555
H17 C25 1_555 1_555
C26 C21 1_555 1_555
H18 C26 1_555 1_555
C27 C28 1_555 1_555
C28 H19 1_555 1_555
C29 C28 1_555 1_555
H20 C29 1_555 1_555
C30 C29 1_555 1_555
H21 C30 1_555 1_555
C31 C30 1_555 1_555
H22 C31 1_555 1_555
C32 C27 1_555 1_555
H23 C32 1_555 1_555
C33 C34 1_555 1_555
C34 H24 1_555 1_555
C35 C34 1_555 1_555
H25 C35 1_555 1_555
C36 C35 1_555 1_555
H26 C36 1_555 1_555
C37 C36 1_555 1_555
H27 C37 1_555 1_555
C38 C33 1_555 1_555
H28 C38 1_555 1_555
O1 C45 1_555 1_555
O2 C52 1_555 1_555
C39 C40 1_555 1_555
C40 C41 1_555 1_555
C41 H29 1_555 1_555
C42 C41 1_555 1_555
H30 C42 1_555 1_555
C43 C42 1_555 1_555
C44 C39 1_555 1_555
C45 C44 1_555 1_555
C46 C45 1_555 1_555
C47 C46 1_555 1_555
H31 C47 1_555 1_555
C48 C47 1_555 1_555
H32 C48 1_555 1_555
C49 C48 1_555 1_555
H33 C49 1_555 1_555
C50 C49 1_555 1_555
H34 C50 1_555 1_555
C51 C46 1_555 1_555
C52 C43 1_555 1_555
N1 C1 1_555 1_555
N2 C24 1_555 1_555
N3 C19 1_555 1_555
N4 C20 1_555 1_555
C53 H35 1_555 1_555
H36 C53 1_555 1_555
Cl1 C53 1_555 1_555
Cl2 C53 1_555 1_555
C5 C6 1_555 1_555
C7 N1 1_555 1_555
C11 C12 1_555 1_555
C13 N1 1_555 1_555
C17 C18 1_555 1_555
C25 C26 1_555 1_555
C27 N2 1_555 1_555
C31 C32 1_555 1_555
C33 N2 1_555 1_555
C37 C38 1_555 1_555
C39 N3 1_555 1_555
C40 N4 1_555 1_555
C43 C44 1_555 1_555
C50 C51 1_555 1_555
C51 C52 1_555 1_555

#END
