
#######################################################################
#
#                 Cambridge Crystallographic Data Centre
#                                CCDC 
#
#######################################################################
#
# If this CIF has been generated from an entry in the Cambridge 
# Structural Database, then it will include bibliographic, chemical, 
# crystal, experimental, refinement or atomic coordinate data resulting 
# from the CCDC's data processing and validation procedures.
#
#######################################################################

data_MUGLUX
_chemical_formula_moiety         'C2 H6 N5 1+,C1 H2 N5 O1 1-'
_chemical_name_systematic        
'4,5-diamino-4H-1,2,4-triazol-1-ium 5-amino-1H-tetrazol-1-olate'
_symmetry_cell_setting           triclinic
_symmetry_space_group_name_H-M   'P -1'
_symmetry_Int_Tables_number      2
_space_group_name_Hall           '-P 1'
loop_
_symmetry_equiv_pos_site_id
_symmetry_equiv_pos_as_xyz
1 x,y,z
2 -x,-y,-z
_cell_length_a                   6.5562(5)
_cell_length_b                   7.6898(6)
_cell_length_c                   9.09(2)
_cell_angle_alpha                78.533(2)
_cell_angle_beta                 70.9560(10)
_cell_angle_gamma                65.4880(10)
_cell_volume                     393.082
_cell_formula_units_Z            2
loop_
_atom_site_label
_atom_site_type_symbol
_atom_site_fract_x
_atom_site_fract_y
_atom_site_fract_z
N1 N -0.0577(4) 0.5609(3) 0.7260(3)
N2 N -0.1135(4) 0.6543(3) 0.8574(3)
H1 H -0.2449 0.6809 0.9278
N3 N 0.2318(4) 0.6334(3) 0.7308(2)
N4 N 0.4554(4) 0.6390(3) 0.6846(3)
H2 H 0.4426 0.7589 0.6842
H3 H 0.5342 0.5641 0.7519
N5 N 0.0681(4) 0.7865(3) 0.9677(3)
H4 H -0.0497 0.8247 1.0475
H5 H 0.1921 0.8064 0.9571
C1 C 0.0587(4) 0.6974(4) 0.8616(3)
C2 C 0.1526(5) 0.5504(4) 0.6536(3)
H6 H 0.2393 0.4931 0.5601
N6 N 0.4940(4) 0.9818(4) 0.3057(3)
N7 N 0.2801(4) 0.9783(3) 0.3808(3)
N8 N 0.4351(4) 0.8120(3) 0.1795(2)
N9 N 0.0529(4) 0.8341(3) 0.3267(3)
H7 H -0.0662 0.8809 0.4037
H8 H 0.0495 0.7628 0.2664
O1 O 0.4758(3) 0.6965(3) 0.0714(2)
C3 C 0.2452(4) 0.8726(4) 0.3005(3)
N10 N 0.5908(4) 0.8806(3) 0.1838(3)
loop_
_geom_bond_atom_site_label_1
_geom_bond_atom_site_label_2
_geom_bond_site_symmetry_1
_geom_bond_site_symmetry_2
N1 N2 1_555 1_555
N2 H1 1_555 1_555
N3 N4 1_555 1_555
N4 H2 1_555 1_555
H3 N4 1_555 1_555
N5 H4 1_555 1_555
H5 N5 1_555 1_555
C1 N2 1_555 1_555
C2 N1 1_555 1_555
H6 C2 1_555 1_555
N6 N7 1_555 1_555
N7 C3 1_555 1_555
N8 O1 1_555 1_555
N9 H7 1_555 1_555
H8 N9 1_555 1_555
C3 N8 1_555 1_555
N10 N6 1_555 1_555
N3 C1 1_555 1_555
N3 C2 1_555 1_555
N5 C1 1_555 1_555
N8 N10 1_555 1_555
N9 C3 1_555 1_555

#END
