
#######################################################################
#
#                 Cambridge Crystallographic Data Centre
#                                CCDC 
#
#######################################################################
#
# If this CIF has been generated from an entry in the Cambridge 
# Structural Database, then it will include bibliographic, chemical, 
# crystal, experimental, refinement or atomic coordinate data resulting 
# from the CCDC's data processing and validation procedures.
#
#######################################################################

data_MUGMIM
_chemical_formula_moiety         'C2 H6 N5 1+,C1 H1 N6 O2 1-'
_chemical_name_systematic        
'4,5-diamino-4H-1,2,4-triazol-1-ium 5-(nitroimino)-4,5-dihydrotetrazol-1-ide'
_symmetry_cell_setting           monoclinic
_symmetry_space_group_name_H-M   'P 21'
_symmetry_Int_Tables_number      4
_space_group_name_Hall           'P 2yb'
loop_
_symmetry_equiv_pos_site_id
_symmetry_equiv_pos_as_xyz
1 x,y,z
2 -x,1/2+y,-z
_cell_length_a                   9.3555(17)
_cell_length_b                   5.2829(10)
_cell_length_c                   9.5580(17)
_cell_angle_alpha                90
_cell_angle_beta                 104.076(4)
_cell_angle_gamma                90
_cell_volume                     458.212
_exptl_crystal_colour            colorless
_exptl_crystal_description       block
_cell_formula_units_Z            2
loop_
_atom_site_label
_atom_site_type_symbol
_atom_site_fract_x
_atom_site_fract_y
_atom_site_fract_z
C1 C 0.0735(2) 0.3110(4) 0.6871(2)
C2 C 0.23338(17) 0.5178(4) 0.59830(16)
H1 H 0.013(2) 0.275(5) 0.753(2)
H2 H 0.206(3) 0.274(6) 0.451(3)
H3 H 0.352(2) 0.695(5) 0.500(2)
H4 H 0.353(2) 0.799(5) 0.642(2)
H5 H 0.111(3) 0.791(6) 0.808(2)
H6 H 0.212(3) 0.626(6) 0.894(3)
N1 N 0.16527(15) 0.5167(3) 0.70713(13)
N2 N 0.08182(18) 0.1834(3) 0.57478(18)
N3 N 0.18438(16) 0.3149(3) 0.52045(17)
N4 N 0.33184(18) 0.6844(4) 0.58107(19)
N5 N 0.1946(2) 0.7006(3) 0.81673(17)
C3 C 0.35351(19) -0.0577(4) 0.21857(17)
H7 H 0.405(3) 0.025(6) 0.032(3)
N6 N 0.40572(17) -0.2464(4) 0.30685(15)
N7 N 0.50431(17) -0.3724(3) 0.24951(16)
N8 N 0.51355(16) -0.2654(4) 0.12934(15)
N9 N 0.42024(17) -0.0694(3) 0.10859(16)
N10 N 0.25236(17) 0.1075(4) 0.24877(15)
N11 N 0.19777(16) 0.2769(3) 0.14841(16)
O1 O 0.23485(17) 0.2880(4) 0.03242(15)
O2 O 0.10657(16) 0.4263(3) 0.17477(18)
loop_
_geom_bond_atom_site_label_1
_geom_bond_atom_site_label_2
_geom_bond_site_symmetry_1
_geom_bond_site_symmetry_2
C1 H1 1_555 1_555
C2 N1 1_555 1_555
H2 N3 1_555 1_555
H3 N4 1_555 1_555
H4 N4 1_555 1_555
H5 N5 1_555 1_555
H6 N5 1_555 1_555
N1 C1 1_555 1_555
N2 C1 1_555 1_555
N3 C2 1_555 1_555
N4 C2 1_555 1_555
N5 N1 1_555 1_555
C3 N6 1_555 1_555
H7 N9 1_555 1_555
N6 N7 1_555 1_555
N7 N8 1_555 1_555
N8 N9 1_555 1_555
N9 C3 1_555 1_555
N10 C3 1_555 1_555
N11 N10 1_555 1_555
O1 N11 1_555 1_555
O2 N11 1_555 1_555
N2 N3 1_555 1_555

#END
