
#######################################################################
#
#                 Cambridge Crystallographic Data Centre
#                                CCDC 
#
#######################################################################
#
# If this CIF has been generated from an entry in the Cambridge 
# Structural Database, then it will include bibliographic, chemical, 
# crystal, experimental, refinement or atomic coordinate data resulting 
# from the CCDC's data processing and validation procedures.
#
#######################################################################

data_MUGRAI
_chemical_formula_moiety         'C14 H8 N2 O4'
_chemical_name_systematic        
'1H-1,10-Phenanthrolinium-4-carboxylate-7-carboxylic acid'
_symmetry_cell_setting           monoclinic
_symmetry_space_group_name_H-M   'P 21/c'
_symmetry_Int_Tables_number      14
_space_group_name_Hall           '-P 2ybc'
loop_
_symmetry_equiv_pos_site_id
_symmetry_equiv_pos_as_xyz
1 x,y,z
2 -x,1/2+y,1/2-z
3 -x,-y,-z
4 x,1/2-y,1/2+z
_cell_length_a                   9.7547(10)
_cell_length_b                   7.5702(6)
_cell_length_c                   15.2163(16)
_cell_angle_alpha                90
_cell_angle_beta                 104.189(3)
_cell_angle_gamma                90
_cell_volume                     1089.37
_exptl_crystal_colour            colorless
_exptl_crystal_description       prism
_cell_formula_units_Z            4
loop_
_atom_site_label
_atom_site_type_symbol
_atom_site_fract_x
_atom_site_fract_y
_atom_site_fract_z
C1 C 0.93480(19) 0.6344(2) 1.09592(13)
C2 C 1.0167(2) 0.5080(3) 1.15057(15)
H1 H 1.1001 0.5413 1.1943
C3 C 0.9758(2) 0.3329(3) 1.14072(14)
H2 H 1.0309 0.2460 1.1786
N1 N 0.86082(16) 0.2846(2) 1.07914(12)
H3 H 0.8381 0.1719 1.0744
C4 C 0.77616(18) 0.4015(2) 1.02276(13)
C5 C 0.65111(19) 0.3397(2) 0.95900(13)
C6 C 0.5038(2) 0.1107(3) 0.90341(14)
H4 H 0.4802 -0.0110 0.9038
N2 N 0.62001(16) 0.1651(2) 0.96127(12)
C7 C 0.4130(2) 0.2215(3) 0.84133(14)
H5 H 0.3315 0.1741 0.8006
C8 C 0.44221(18) 0.3987(2) 0.83962(13)
C9 C 0.56710(18) 0.4642(2) 0.90034(13)
C10 C 0.6118(2) 0.6446(3) 0.90464(14)
H6 H 0.5587 0.7268 0.8625
C11 C 0.7273(2) 0.7018(2) 0.96697(14)
H7 H 0.7520 0.8234 0.9691
C12 C 0.81281(19) 0.5812(2) 1.02974(13)
C13 C 0.97605(19) 0.8278(3) 1.10889(13)
O1 O 1.09767(14) 0.86337(19) 1.09988(11)
O2 O 0.88830(14) 0.93005(17) 1.12854(11)
C14 C 0.33853(19) 0.5190(3) 0.77755(14)
O3 O 0.32796(15) 0.67566(19) 0.79149(11)
O4 O 0.25931(14) 0.43308(18) 0.70883(10)
H8 H 0.2022 0.5034 0.6761
loop_
_geom_bond_atom_site_label_1
_geom_bond_atom_site_label_2
_geom_bond_site_symmetry_1
_geom_bond_site_symmetry_2
C1 C2 1_555 1_555
C2 H1 1_555 1_555
C3 C2 1_555 1_555
H2 C3 1_555 1_555
N1 C3 1_555 1_555
H3 N1 1_555 1_555
C4 N1 1_555 1_555
C5 C4 1_555 1_555
C6 H4 1_555 1_555
N2 C5 1_555 1_555
C7 C6 1_555 1_555
H5 C7 1_555 1_555
C8 C7 1_555 1_555
C9 C5 1_555 1_555
C10 C9 1_555 1_555
H6 C10 1_555 1_555
C11 C10 1_555 1_555
H7 C11 1_555 1_555
C12 C1 1_555 1_555
C13 C1 1_555 1_555
O1 C13 1_555 1_555
O2 C13 1_555 1_555
C14 C8 1_555 1_555
O3 C14 1_555 1_555
O4 C14 1_555 1_555
H8 O4 1_555 1_555
C4 C12 1_555 1_555
C6 N2 1_555 1_555
C8 C9 1_555 1_555
C11 C12 1_555 1_555

#END
