
#######################################################################
#
#                 Cambridge Crystallographic Data Centre
#                                CCDC 
#
#######################################################################
#
# If this CIF has been generated from an entry in the Cambridge 
# Structural Database, then it will include bibliographic, chemical, 
# crystal, experimental, refinement or atomic coordinate data resulting 
# from the CCDC's data processing and validation procedures.
#
#######################################################################

data_MUJKUZ
_chemical_formula_moiety         'C15 H22 N2 O5'
_chemical_name_systematic        
'methyl 3-((diisopropylamino)(oxo)acetyl)-4-oxo-3-azabicyclo[3.1.0]hexane-2-carboxylate'
_symmetry_cell_setting           orthorhombic
_symmetry_space_group_name_H-M   'P 21 21 21'
_symmetry_Int_Tables_number      19
_space_group_name_Hall           'P 2ac 2ab'
loop_
_symmetry_equiv_pos_site_id
_symmetry_equiv_pos_as_xyz
1 x,y,z
2 1/2-x,-y,1/2+z
3 -x,1/2+y,1/2-z
4 1/2+x,1/2-y,-z
_cell_length_a                   10.7542(4)
_cell_length_b                   11.2346(6)
_cell_length_c                   13.4066(6)
_cell_angle_alpha                90
_cell_angle_beta                 90
_cell_angle_gamma                90
_cell_volume                     1619.77
_exptl_crystal_colour            yellow
_exptl_crystal_description       block
_cell_formula_units_Z            4
loop_
_atom_site_label
_atom_site_type_symbol
_atom_site_fract_x
_atom_site_fract_y
_atom_site_fract_z
O1 O -1.57560(18) -1.31249(18) -1.64446(14)
O2 O -1.66244(17) -1.52470(18) -1.51959(14)
O3 O -1.37923(16) -1.04070(19) -1.62344(15)
O4 O -1.28522(18) -1.21667(19) -1.59662(16)
O5 O -1.4450(2) -1.44039(19) -1.37670(15)
N1 N -1.46999(19) -1.5657(2) -1.58347(17)
N2 N -1.49237(18) -1.29391(19) -1.49117(16)
C1 C -1.3668(3) -1.1467(3) -1.5808(2)
C2 C -1.5604(2) -1.4941(3) -1.55265(18)
C3 C -1.5418(2) -1.3599(2) -1.5680(2)
C4 C -1.4701(2) -1.1663(2) -1.5056(2)
H1 H -1.5465 -1.1260 -1.5269
C5 C -1.3516(2) -1.5185(3) -1.6245(2)
H2 H -1.3559 -1.4315 -1.6210
C6 C -1.4486(3) -1.3362(3) -1.3986(2)
C7 C -1.4303(3) -1.1235(3) -1.4027(2)
H3 H -1.3710 -1.0576 -1.3974
C8 C -1.4122(3) -1.2320(3) -1.3386(2)
H4 H -1.3419 -1.2368 -1.2923
C9 C -1.5182(3) -1.1456(3) -1.3194(2)
H5 H -1.6017 -1.1713 -1.3362
H6 H -1.5124 -1.0946 -1.2612
C10 C -1.4816(3) -1.6966(3) -1.5719(2)
H7 H -1.4057 -1.7314 -1.6000
C11 C -1.3383(3) -1.5522(3) -1.7332(2)
H8 H -1.3350 -1.6373 -1.7392
H9 H -1.2632 -1.5182 -1.7594
H10 H -1.4083 -1.5224 -1.7699
C12 C -1.5888(3) -1.7480(3) -1.6302(2)
H11 H -1.6657 -1.7181 -1.6038
H12 H -1.5876 -1.8332 -1.6249
H13 H -1.5814 -1.7255 -1.6990
C13 C -1.4839(3) -1.7309(3) -1.4618(2)
H14 H -1.4155 -1.6937 -1.4281
H15 H -1.4771 -1.8158 -1.4556
H16 H -1.5607 -1.7049 -1.4325
C14 C -1.2812(3) -1.0057(4) -1.6917(3)
H17 H -1.2651 -1.0695 -1.7375
H18 H -1.2070 -0.9883 -1.6546
H19 H -1.3067 -0.9362 -1.7280
C15 C -1.2414(3) -1.5577(3) -1.5612(3)
H20 H -1.2538 -1.5325 -1.4935
H21 H -1.1667 -1.5225 -1.5869
H22 H -1.2344 -1.6429 -1.5634
loop_
_geom_bond_atom_site_label_1
_geom_bond_atom_site_label_2
_geom_bond_site_symmetry_1
_geom_bond_site_symmetry_2
O1 C3 1_555 1_555
O2 C2 1_555 1_555
O3 C1 1_555 1_555
O4 C1 1_555 1_555
O5 C6 1_555 1_555
N1 C2 1_555 1_555
N2 C3 1_555 1_555
C1 C4 1_555 1_555
C2 C3 1_555 1_555
C4 N2 1_555 1_555
H1 C4 1_555 1_555
C5 N1 1_555 1_555
H2 C5 1_555 1_555
C6 N2 1_555 1_555
C7 C4 1_555 1_555
H3 C7 1_555 1_555
C8 C6 1_555 1_555
H4 C8 1_555 1_555
C9 C7 1_555 1_555
H5 C9 1_555 1_555
H6 C9 1_555 1_555
C10 N1 1_555 1_555
H7 C10 1_555 1_555
C11 C5 1_555 1_555
H8 C11 1_555 1_555
H9 C11 1_555 1_555
H10 C11 1_555 1_555
C12 C10 1_555 1_555
H11 C12 1_555 1_555
H12 C12 1_555 1_555
H13 C12 1_555 1_555
C13 C10 1_555 1_555
H14 C13 1_555 1_555
H15 C13 1_555 1_555
H16 C13 1_555 1_555
C14 O3 1_555 1_555
H17 C14 1_555 1_555
H18 C14 1_555 1_555
H19 C14 1_555 1_555
C15 C5 1_555 1_555
H20 C15 1_555 1_555
H21 C15 1_555 1_555
H22 C15 1_555 1_555
C7 C8 1_555 1_555
C8 C9 1_555 1_555

#END
