
#######################################################################
#
#                 Cambridge Crystallographic Data Centre
#                                CCDC 
#
#######################################################################
#
# If this CIF has been generated from an entry in the Cambridge 
# Structural Database, then it will include bibliographic, chemical, 
# crystal, experimental, refinement or atomic coordinate data resulting 
# from the CCDC's data processing and validation procedures.
#
#######################################################################

data_MUKROB
_chemical_compound_source        'fungus Entonaema sp.'
_chemical_name_common            'Entonalactam A'
_chemical_formula_moiety         'C17 H17 N1 O5'
_chemical_name_systematic        
5-hydroxy-3-(2-hydroxy-3-methoxy-5-methylphenyl)-7-methoxyisoindolin-1-one
_chemical_properties_biological  'antimalarial activity'
_symmetry_cell_setting           monoclinic
_symmetry_space_group_name_H-M   'P 21/c'
_symmetry_Int_Tables_number      14
_space_group_name_Hall           '-P 2ybc'
loop_
_symmetry_equiv_pos_site_id
_symmetry_equiv_pos_as_xyz
1 x,y,z
2 -x,1/2+y,1/2-z
3 -x,-y,-z
4 x,1/2-y,1/2+z
_cell_length_a                   8.7515(6)
_cell_length_b                   8.6295(6)
_cell_length_c                   19.4001(14)
_cell_angle_alpha                90
_cell_angle_beta                 97.989(7)
_cell_angle_gamma                90
_cell_volume                     1450.9
_exptl_crystal_colour            colorless
_exptl_crystal_description       plate
_chemical_melting_point          'above 573 K'
_cell_formula_units_Z            4
_exptl_crystal_recrystallization_method methanol/water
loop_
_atom_site_label
_atom_site_type_symbol
_atom_site_fract_x
_atom_site_fract_y
_atom_site_fract_z
O1 O -0.0979(2) 0.0492(2) 0.91224(8)
O2 O -0.1613(2) 0.2557(2) 0.79045(9)
O3 O 0.3114(3) 0.4362(2) 0.71413(11)
O4 O 0.6135(2) 0.1611(2) 0.91234(9)
O5 O 0.8002(2) 0.3274(2) 1.00700(9)
N1 N 0.1647(3) 0.0415(3) 0.94268(12)
C1 C 0.0346(3) 0.0900(3) 0.90358(12)
C2 C 0.0818(3) 0.1892(3) 0.84927(12)
C3 C -0.0061(3) 0.2697(3) 0.79489(13)
C4 C 0.0717(3) 0.3536(3) 0.74940(13)
C5 C 0.2319(3) 0.3569(3) 0.75837(13)
C6 C 0.3199(3) 0.2775(3) 0.81217(12)
C7 C 0.2415(3) 0.1956(3) 0.85742(12)
C8 C 0.3071(3) 0.1006(3) 0.92075(12)
C9 C 0.4034(3) 0.1956(3) 0.97568(13)
C10 C 0.5573(3) 0.2231(3) 0.96907(13)
C11 C 0.6485(3) 0.3107(3) 1.01876(13)
C12 C 0.5864(3) 0.3755(3) 1.07371(13)
C13 C 0.4328(3) 0.3497(3) 1.08124(13)
C14 C 0.3439(3) 0.2591(3) 1.03242(13)
C15 C -0.2540(3) 0.3336(3) 0.73405(13)
C16 C 0.9034(3) 0.3972(3) 1.06120(15)
C17 C 0.3629(4) 0.4226(3) 1.14022(13)
H1 H 0.165(3) -0.014(3) 0.9798(12)
H2 H 0.01550 0.40840 0.71230
H3 H 0.255(5) 0.479(4) 0.6844(18)
H4 H 0.42830 0.27940 0.81760
H5 H 0.36900 0.01350 0.90620
H6 H 0.728(5) 0.156(4) 0.9198(18)
H7 H 0.87100 0.50280 1.06820
H8 H 1.00680 0.39760 1.04850
H9 H 0.90300 0.33870 1.10390
H10 H 0.64840 0.43740 1.10620
H11 H 0.33100 0.52770 1.12770
H12 H 0.43870 0.42420 1.18180
H13 H 0.27390 0.36260 1.14910
H14 H 0.24040 0.23980 1.03760
H15 H -0.23420 0.44420 0.73740
H16 H -0.36220 0.31410 0.73650
H17 H -0.22800 0.29520 0.69010
loop_
_geom_bond_atom_site_label_1
_geom_bond_atom_site_label_2
_geom_bond_site_symmetry_1
_geom_bond_site_symmetry_2
O1 C1 1_555 1_555
O2 C3 1_555 1_555
O3 C5 1_555 1_555
O4 C10 1_555 1_555
O5 C11 1_555 1_555
N1 C1 1_555 1_555
C1 C2 1_555 1_555
C2 C3 1_555 1_555
C3 C4 1_555 1_555
C4 C5 1_555 1_555
C5 C6 1_555 1_555
C6 C7 1_555 1_555
C7 C2 1_555 1_555
C8 N1 1_555 1_555
C9 C8 1_555 1_555
C10 C9 1_555 1_555
C11 C10 1_555 1_555
C12 C11 1_555 1_555
C13 C12 1_555 1_555
C14 C9 1_555 1_555
C15 O2 1_555 1_555
C16 O5 1_555 1_555
C17 C13 1_555 1_555
H1 N1 1_555 1_555
H2 C4 1_555 1_555
H3 O3 1_555 1_555
H4 C6 1_555 1_555
H5 C8 1_555 1_555
H6 O4 1_555 1_555
H7 C16 1_555 1_555
H8 C16 1_555 1_555
H9 C16 1_555 1_555
H10 C12 1_555 1_555
H11 C17 1_555 1_555
H12 C17 1_555 1_555
H13 C17 1_555 1_555
H14 C14 1_555 1_555
H15 C15 1_555 1_555
H16 C15 1_555 1_555
H17 C15 1_555 1_555
C7 C8 1_555 1_555
C13 C14 1_555 1_555

#END
