
#######################################################################
#
#                 Cambridge Crystallographic Data Centre
#                                CCDC 
#
#######################################################################
#
# If this CIF has been generated from an entry in the Cambridge 
# Structural Database, then it will include bibliographic, chemical, 
# crystal, experimental, refinement or atomic coordinate data resulting 
# from the CCDC's data processing and validation procedures.
#
#######################################################################

data_MUMJUA
_chemical_name_common            
2,8,14,20,25,27-Hexaazapentacyclo[19.3.1.1$3,7!.1$9,13!.1$15,19!]octacosa-1(25),3(28),4,6,9(27),10,12,15(26),16,18,21,23-dodecaene
_chemical_formula_moiety         'C22 H18 N6'
_chemical_name_systematic        2,8,14,20-Tetra-aza-calix(2)arene(2)pyridine
_symmetry_cell_setting           triclinic
_symmetry_space_group_name_H-M   'P -1'
_symmetry_Int_Tables_number      2
_space_group_name_Hall           '-P 1'
loop_
_symmetry_equiv_pos_site_id
_symmetry_equiv_pos_as_xyz
1 x,y,z
2 -x,-y,-z
_cell_length_a                   8.3972(17)
_cell_length_b                   10.175(2)
_cell_length_c                   21.221(4)
_cell_angle_alpha                98.76(3)
_cell_angle_beta                 101.25(3)
_cell_angle_gamma                97.86(3)
_cell_volume                     1731.46
_exptl_crystal_colour            colorless
_exptl_crystal_description       prism
_cell_formula_units_Z            4
loop_
_atom_site_label
_atom_site_type_symbol
_atom_site_fract_x
_atom_site_fract_y
_atom_site_fract_z
N1 N 0.0818(3) 0.7760(2) 0.43737(11)
N3 N -0.0432(3) 0.5506(2) 0.39113(11)
H1 H -0.0090 0.4810 0.3712
N5 N -0.5133(3) 0.7844(2) 0.39211(11)
H3 H -0.5560 0.7951 0.4269
N7 N -0.3560(3) 0.9280(2) 0.34230(10)
N10 N -0.1897(3) 1.0715(2) 0.29517(11)
H6 H -0.1848 1.0836 0.2554
N11 N 0.2099(3) 1.0015(2) 0.48425(10)
H7 H 0.2638 1.0522 0.5217
C1 C 0.1978(3) 0.8635(3) 0.48275(12)
C3 C 0.3140(3) 0.8213(3) 0.52867(13)
H9 H 0.3958 0.8854 0.5598
C5 C 0.3075(4) 0.6856(3) 0.52774(13)
H11 H 0.3868 0.6545 0.5578
C8 C 0.1853(4) 0.5941(3) 0.48298(13)
H14 H 0.1766 0.4999 0.4827
C10 C 0.0763(3) 0.6433(3) 0.43866(13)
C11 C -0.2112(3) 0.5568(3) 0.37184(13)
C13 C -0.3142(4) 0.4423(3) 0.33191(13)
H15 H -0.2688 0.3657 0.3174
C16 C -0.4816(4) 0.4405(3) 0.31354(14)
H18 H -0.5510 0.3621 0.2869
C18 C -0.5492(4) 0.5524(3) 0.33366(14)
H20 H -0.6643 0.5513 0.3210
C19 C -0.4462(3) 0.6657(3) 0.37255(13)
C21 C -0.2790(3) 0.6688(3) 0.39206(12)
H21 H -0.2105 0.7471 0.4192
C23 C -0.5060(3) 0.8827(3) 0.35190(12)
C26 C -0.6474(3) 0.9290(3) 0.32574(13)
H24 H -0.7507 0.8971 0.3349
C27 C -0.6326(4) 1.0233(3) 0.28580(14)
H25 H -0.7272 1.0571 0.2669
C29 C -0.4823(4) 1.0685(3) 0.27323(13)
H27 H -0.4720 1.1306 0.2445
C31 C -0.3441(3) 1.0201(2) 0.30415(12)
C34 C -0.0403(3) 1.1065(3) 0.34225(12)
C35 C 0.0625(3) 1.2255(3) 0.34085(13)
H29 H 0.0344 1.2757 0.3073
C37 C 0.2049(4) 1.2696(3) 0.38855(14)
H31 H 0.2743 1.3514 0.3881
C39 C 0.2478(3) 1.1961(3) 0.43692(14)
H33 H 0.3435 1.2291 0.4708
C41 C 0.1503(3) 1.0733(2) 0.43596(12)
C44 C 0.0057(3) 1.0290(3) 0.38900(12)
H36 H -0.0618 0.9459 0.3887
N2 N -0.2683(3) 0.8521(2) 0.15476(11)
N4 N -0.5266(3) 0.7490(2) 0.17153(12)
H2 H -0.5724 0.7190 0.2017
N6 N -0.7052(3) 1.0222(2) 0.01176(11)
H4 H -0.7570 1.0110 -0.0295
N8 N -0.4926(3) 1.1783(2) 0.09007(11)
N9 N -0.2798(3) 1.3398(2) 0.16599(12)
H5 H -0.2826 1.3955 0.2016
N12 N -0.0103(3) 0.9514(2) 0.13773(11)
H8 H 0.0458 0.9173 0.1102
C2 C -0.1016(3) 0.8620(3) 0.16803(13)
C4 C -0.0184(4) 0.7882(3) 0.20868(13)
H10 H 0.0976 0.7939 0.2150
C6 C -0.1084(4) 0.7060(3) 0.23987(14)
H12 H -0.0535 0.6572 0.2696
C7 C -0.2765(4) 0.6943(3) 0.22823(13)
H13 H -0.3388 0.6374 0.2495
C9 C -0.3547(4) 0.7675(2) 0.18445(13)
C12 C -0.6363(4) 0.7719(3) 0.11695(13)
C14 C -0.7758(4) 0.6739(3) 0.08963(15)
H16 H -0.7947 0.5950 0.1078
C15 C -0.8866(4) 0.6929(3) 0.03568(15)
H17 H -0.9817 0.6264 0.0166
C17 C -0.8600(4) 0.8074(3) 0.00952(14)
H19 H -0.9352 0.8197 -0.0279
C20 C -0.7208(3) 0.9056(3) 0.03871(13)
C22 C -0.6106(3) 0.8877(2) 0.09199(12)
H22 H -0.5167 0.9551 0.1116
C24 C -0.6227(3) 1.1529(3) 0.03828(12)
C25 C -0.6832(4) 1.2557(3) 0.00935(14)
H23 H -0.7736 1.2349 -0.0274
C28 C -0.6104(4) 1.3869(3) 0.03467(14)
H26 H -0.6516 1.4582 0.0162
C30 C -0.4763(4) 1.4155(3) 0.08731(14)
H28 H -0.4249 1.5061 0.1053
C32 C -0.4189(3) 1.3095(3) 0.11316(13)
C33 C -0.1361(4) 1.2827(3) 0.16298(13)
C36 C 0.0133(4) 1.3685(3) 0.17053(14)
H30 H 0.0191 1.4636 0.1785
C38 C 0.1532(4) 1.3127(3) 0.16618(14)
H32 H 0.2554 1.3701 0.1706
C40 C 0.1456(4) 1.1749(3) 0.15561(13)
H34 H 0.2418 1.1370 0.1526
C42 C -0.0048(3) 1.0919(3) 0.14936(12)
C43 C -0.1440(3) 1.1456(2) 0.15309(12)
H35 H -0.2460 1.0880 0.1488
loop_
_geom_bond_atom_site_label_1
_geom_bond_atom_site_label_2
_geom_bond_site_symmetry_1
_geom_bond_site_symmetry_2
N1 C1 1_555 1_555
N2 C2 1_555 1_555
N3 H1 1_555 1_555
N4 H2 1_555 1_555
N5 H3 1_555 1_555
N6 H4 1_555 1_555
N7 C23 1_555 1_555
N8 C24 1_555 1_555
N9 H5 1_555 1_555
N10 H6 1_555 1_555
N11 H7 1_555 1_555
N12 H8 1_555 1_555
C1 N11 1_555 1_555
C2 N12 1_555 1_555
C3 C1 1_555 1_555
H9 C3 1_555 1_555
C4 C2 1_555 1_555
H10 C4 1_555 1_555
C5 C3 1_555 1_555
H11 C5 1_555 1_555
C6 C4 1_555 1_555
H12 C6 1_555 1_555
C7 C6 1_555 1_555
H13 C7 1_555 1_555
C8 C5 1_555 1_555
H14 C8 1_555 1_555
C9 N2 1_555 1_555
C10 N1 1_555 1_555
C11 N3 1_555 1_555
C12 N4 1_555 1_555
C13 C11 1_555 1_555
H15 C13 1_555 1_555
C14 C12 1_555 1_555
H16 C14 1_555 1_555
C15 C14 1_555 1_555
H17 C15 1_555 1_555
C16 C13 1_555 1_555
H18 C16 1_555 1_555
C17 C15 1_555 1_555
H19 C17 1_555 1_555
C18 C16 1_555 1_555
H20 C18 1_555 1_555
C19 N5 1_555 1_555
C20 N6 1_555 1_555
C21 C11 1_555 1_555
H21 C21 1_555 1_555
C22 C12 1_555 1_555
H22 C22 1_555 1_555
C23 N5 1_555 1_555
C24 N6 1_555 1_555
C25 C24 1_555 1_555
H23 C25 1_555 1_555
C26 C23 1_555 1_555
H24 C26 1_555 1_555
C27 C26 1_555 1_555
H25 C27 1_555 1_555
C28 C25 1_555 1_555
H26 C28 1_555 1_555
C29 C27 1_555 1_555
H27 C29 1_555 1_555
C30 C28 1_555 1_555
H28 C30 1_555 1_555
C31 N7 1_555 1_555
C32 N8 1_555 1_555
C33 N9 1_555 1_555
C34 N10 1_555 1_555
C35 C34 1_555 1_555
H29 C35 1_555 1_555
C36 C33 1_555 1_555
H30 C36 1_555 1_555
C37 C35 1_555 1_555
H31 C37 1_555 1_555
C38 C36 1_555 1_555
H32 C38 1_555 1_555
C39 C37 1_555 1_555
H33 C39 1_555 1_555
C40 C38 1_555 1_555
H34 C40 1_555 1_555
C41 N11 1_555 1_555
C42 N12 1_555 1_555
C43 C33 1_555 1_555
H35 C43 1_555 1_555
C44 C34 1_555 1_555
H36 C44 1_555 1_555
N3 C10 1_555 1_555
N4 C9 1_555 1_555
N9 C32 1_555 1_555
N10 C31 1_555 1_555
C7 C9 1_555 1_555
C8 C10 1_555 1_555
C17 C20 1_555 1_555
C18 C19 1_555 1_555
C19 C21 1_555 1_555
C20 C22 1_555 1_555
C29 C31 1_555 1_555
C30 C32 1_555 1_555
C39 C41 1_555 1_555
C40 C42 1_555 1_555
C41 C44 1_555 1_555
C42 C43 1_555 1_555

#END
