
#######################################################################
#
#                 Cambridge Crystallographic Data Centre
#                                CCDC 
#
#######################################################################
#
# If this CIF has been generated from an entry in the Cambridge 
# Structural Database, then it will include bibliographic, chemical, 
# crystal, experimental, refinement or atomic coordinate data resulting 
# from the CCDC's data processing and validation procedures.
#
#######################################################################

data_MUMJOU
_chemical_name_common            
'2,8,14,20,25,27,29,31-Octaazanonacyclo[19.3.1.1$1,21!.1$3,7!.1$3,7!.1$9,13!.1$9,13!.1$15,19!.1$15,19!]dotriaconta-4,10,16,22-tetraene 1,4-dioxane solvate'
_chemical_formula_moiety         'C21 H17 N7,4(C4 H8 O2)'
_chemical_name_systematic        
'2,8,14,20-Tetra-aza-calix(1)arene(3)pyridine 1,4-dioxane solvate'
_symmetry_cell_setting           tetragonal
_symmetry_space_group_name_H-M   'I 41/a'
_symmetry_Int_Tables_number      88
_space_group_name_Hall           '-I 4ad'
loop_
_symmetry_equiv_pos_site_id
_symmetry_equiv_pos_as_xyz
1 x,y,z
2 1/2-x,-y,1/2+z
3 3/4-y,1/4+x,1/4+z
4 3/4+y,3/4-x,3/4+z
5 1/2+x,1/2+y,1/2+z
6 -x,1/2-y,z
7 1/4-y,3/4+x,3/4+z
8 1/4+y,1/4-x,1/4+z
9 -x,-y,-z
10 1/2+x,y,1/2-z
11 1/4+y,3/4-x,3/4-z
12 1/4-y,1/4+x,1/4-z
13 1/2-x,1/2-y,1/2-z
14 x,1/2+y,-z
15 3/4+y,1/4-x,1/4-z
16 3/4-y,3/4+x,3/4-z
_cell_length_a                   15.300(2)
_cell_length_b                   15.300(2)
_cell_length_c                   14.684(3)
_cell_angle_alpha                90
_cell_angle_beta                 90
_cell_angle_gamma                90
_cell_volume                     3437.38
_cell_formula_units_Z            4
loop_
_atom_site_label
_atom_site_type_symbol
_atom_site_fract_x
_atom_site_fract_y
_atom_site_fract_z
O1 O 0.48045(8) 0.56010(7) 0.07052(8)
C7 C 0.55283(11) 0.50120(10) 0.07761(11)
H5 H 0.5343 0.4476 0.1100
H6 H 0.6002 0.5289 0.1134
C8 C 0.41331(11) 0.52265(11) 0.01594(11)
H7 H 0.3646 0.5648 0.0098
H8 H 0.3904 0.4696 0.0463
O1H O 0.51955(8) 0.43990(7) -0.07052(8)
C7H C 0.44717(11) 0.49880(10) -0.07761(11)
H5H H 0.4657 0.5524 -0.1100
H6H H 0.3998 0.4711 -0.1134
C8H C 0.58669(11) 0.47735(11) -0.01594(11)
H7H H 0.6354 0.4352 -0.0098
H8H H 0.6096 0.5304 -0.0463
O2 O 0.58729(6) 0.78372(7) 0.91858(7)
C9 C 0.54881(10) 0.74519(11) 0.83903(10)
H9 H 0.5641 0.6824 0.8367
H10 H 0.5731 0.7736 0.7840
C10 C 0.54899(9) 0.74502(9) 0.99798(9)
H11 H 0.5734 0.7732 1.0531
H12 H 0.5641 0.6821 1.0001
O2E O 0.41271(6) 0.71628(7) 0.91858(7)
C9E C 0.45119(10) 0.75481(11) 0.83903(10)
H9E H 0.4359 0.8176 0.8367
H10E H 0.4269 0.7264 0.7840
C10E C 0.45101(9) 0.75498(9) 0.99798(9)
H11E H 0.4266 0.7268 1.0531
H12E H 0.4359 0.8179 1.0001
N1 N 0.89113(7) 0.65546(7) 0.88028(8)
N2 N 0.98289(8) 0.53716(8) 0.83917(9)
H1 H 0.9206 0.6921 0.8380
C2 C 0.91752(8) 0.57217(8) 0.89493(9)
C3 C 0.87688(9) 0.51691(9) 0.95753(10)
H2 H 0.8970 0.4588 0.9661
C4 C 0.80668(9) 0.54860(9) 1.00680(9)
H3 H 0.7785 0.5124 1.0504
C5 C 0.77761(8) 0.63289(9) 0.99262(9)
H4 H 0.7292 0.6554 1.0257
C6 C 0.82143(8) 0.68460(9) 0.92798(9)
H13 H 0.9810(13) 0.4828(12) 0.8334(13)
N1O N 1.09454(7) 0.64113(7) 0.86972(8)
N1E N 1.10887(7) 0.84454(7) 0.88028(8)
N1J N 0.90546(7) 0.85887(7) 0.86972(8)
N2O N 1.21284(8) 0.73289(8) 0.91083(9)
N2E N 1.01711(8) 0.96284(8) 0.83917(9)
N2J N 0.78716(8) 0.76711(8) 0.91083(9)
H1O H 1.0579 0.6706 0.9120
H1E H 1.0794 0.8079 0.8380
H1J H 0.9421 0.8294 0.9120
C2O C 1.17783(8) 0.66752(8) 0.85507(9)
C2E C 1.08248(8) 0.92783(8) 0.89493(9)
C2J C 0.82217(8) 0.83248(8) 0.85507(9)
C3J C 0.76691(9) 0.87312(9) 0.79247(10)
C3E C 1.12312(9) 0.98309(9) 0.95753(10)
C3O C 1.23309(9) 0.62688(9) 0.79247(10)
H2J H 0.7088 0.8530 0.7839
H2E H 1.1030 1.0412 0.9661
H2O H 1.2912 0.6470 0.7839
C4J C 0.79860(9) 0.94332(9) 0.74320(9)
C4E C 1.19332(9) 0.95140(9) 1.00680(9)
C4O C 1.20140(9) 0.55668(9) 0.74320(9)
H3J H 0.7624 0.9715 0.6996
H3E H 1.2215 0.9876 1.0504
H3O H 1.2376 0.5285 0.6996
C5J C 0.88289(9) 0.97239(8) 0.75738(9)
C5E C 1.22239(8) 0.86711(9) 0.99262(9)
C5O C 1.11711(9) 0.52761(8) 0.75738(9)
H4J H 0.9054 1.0208 0.7243
H4E H 1.2708 0.8446 1.0257
H4O H 1.0946 0.4792 0.7243
C6O C 1.06540(9) 0.57143(8) 0.82202(9)
C6E C 1.17857(8) 0.81540(9) 0.92798(9)
C6J C 0.93460(9) 0.92857(8) 0.82202(9)
H13J H 0.7328(12) 0.7690(13) 0.9166(13)
H13E H 1.0190(13) 1.0172(12) 0.8334(13)
H13O H 1.2672(12) 0.7310(13) 0.9166(13)
C1? C 0.89113(7) 0.65546(7) 0.88028(8)
loop_
_geom_bond_atom_site_label_1
_geom_bond_atom_site_label_2
_geom_bond_site_symmetry_1
_geom_bond_site_symmetry_2
N1 H1 1_555 1_555
N2 C2 1_555 1_555
C2 N1 1_555 1_555
C3 C2 1_555 1_555
H2 C3 1_555 1_555
C4 C3 1_555 1_555
H3 C4 1_555 1_555
C5 C4 1_555 1_555
H4 C5 1_555 1_555
C6 N1 1_555 1_555
O1 C7 1_555 1_555
O2 C9 1_555 1_555
C7 H5 1_555 1_555
H6 C7 1_555 1_555
C8 O1 1_555 1_555
H7 C8 1_555 1_555
H8 C8 1_555 1_555
C9 H9 1_555 1_555
H10 C9 1_555 1_555
C10 O2 1_555 1_555
H11 C10 1_555 1_555
H12 C10 1_555 1_555
H13 N2 1_555 1_555
N1O H1O 1_555 1_555
N1E H1E 1_555 1_555
N1J H1J 1_555 1_555
N2O C2O 1_555 1_555
N2E C2E 1_555 1_555
N2J C6 1_555 1_555
C2O N1O 1_555 1_555
C2E N1E 1_555 1_555
C2J N1J 1_555 1_555
C3J C2J 1_555 1_555
C3E C2E 1_555 1_555
C3O C2O 1_555 1_555
H2J C3J 1_555 1_555
H2E C3E 1_555 1_555
H2O C3O 1_555 1_555
C4J C3J 1_555 1_555
C4E C3E 1_555 1_555
C4O C3O 1_555 1_555
H3J C4J 1_555 1_555
H3E C4E 1_555 1_555
H3O C4O 1_555 1_555
C5J C4J 1_555 1_555
C5E C4E 1_555 1_555
C5O C4O 1_555 1_555
H4J C5J 1_555 1_555
H4E C5E 1_555 1_555
H4O C5O 1_555 1_555
C6O N2 1_555 1_555
C6E N1E 1_555 1_555
C6J N1J 1_555 1_555
O1H C7H 1_555 1_555
O2E C9E 1_555 1_555
C7H C8 1_555 1_555
H5H C7H 1_555 1_555
H6H C7H 1_555 1_555
C8H C7 1_555 1_555
H7H C8H 1_555 1_555
H8H C8H 1_555 1_555
C9E C9 1_555 1_555
H9E C9E 1_555 1_555
H10E C9E 1_555 1_555
C10E C10 1_555 1_555
H11E C10E 1_555 1_555
H12E C10E 1_555 1_555
H13J N2J 1_555 1_555
H13E N2E 1_555 1_555
H13O N2O 1_555 1_555
C5 C6 1_555 1_555
N1O C6O 1_555 1_555
N2O C6E 1_555 1_555
N2E C6J 1_555 1_555
N2J C2J 1_555 1_555
C5J C6J 1_555 1_555
C5E C6E 1_555 1_555
C5O C6O 1_555 1_555
O1H C8H 1_555 1_555
O2E C10E 1_555 1_555

#END
