
#######################################################################
#
#                 Cambridge Crystallographic Data Centre
#                                CCDC 
#
#######################################################################
#
# If this CIF has been generated from an entry in the Cambridge 
# Structural Database, then it will include bibliographic, chemical, 
# crystal, experimental, refinement or atomic coordinate data resulting 
# from the CCDC's data processing and validation procedures.
#
#######################################################################

data_MUMQAN
_chemical_formula_moiety         'C23 H29 N3 O5'
_chemical_name_systematic        
5-n-Butyl-2-ethyl-9-(4-methoxyphenyl)-3b-methylhexahydro-1H-pyrrolo[3',4':3,4]pyrrolo[1,2-a]pyrazine-1,3,4,7(2H)-tetrone
_symmetry_cell_setting           triclinic
_symmetry_space_group_name_H-M   'P -1'
_symmetry_Int_Tables_number      2
_space_group_name_Hall           '-P 1'
loop_
_symmetry_equiv_pos_site_id
_symmetry_equiv_pos_as_xyz
1 x,y,z
2 -x,-y,-z
_cell_length_a                   10.4794(11)
_cell_length_b                   10.5119(12)
_cell_length_c                   11.4317(12)
_cell_angle_alpha                92.030(2)
_cell_angle_beta                 106.955(2)
_cell_angle_gamma                114.730(2)
_cell_volume                     1075.98
_exptl_crystal_colour            colorless
_exptl_crystal_description       block
_cell_formula_units_Z            2
loop_
_atom_site_label
_atom_site_type_symbol
_atom_site_fract_x
_atom_site_fract_y
_atom_site_fract_z
O1 O 0.63325(16) 0.11092(15) -0.08091(13)
N1 N 0.71843(18) 0.35261(17) -0.03784(15)
C1 C 0.6381(2) 0.2142(2) -0.02542(18)
O2 O 1.09804(16) 0.05922(15) 0.16217(14)
N2 N 0.69795(18) 0.34913(18) 0.27410(15)
C2 C 0.5623(2) 0.2182(2) 0.06790(18)
H1 H 0.464(2) 0.143(2) 0.0405(19)
O3 O 0.82288(18) 0.31230(17) 0.45813(14)
N3 N 0.77394(19) 0.62225(18) 0.37409(16)
C3 C 0.6508(2) 0.2089(2) 0.20237(19)
H2 H 0.580(2) 0.135(2) 0.2338(18)
O4 O 0.61811(17) 0.64529(15) 0.20018(13)
C4 C 0.7756(2) 0.3863(2) 0.39763(19)
O5 O 0.76260(17) 0.57783(15) 0.03404(14)
C5 C 0.8049(3) 0.5293(3) 0.4580(2)
H3 H 0.742(2) 0.513(2) 0.513(2)
H4 H 0.907(3) 0.577(3) 0.503(2)
C6 C 0.6672(2) 0.5717(2) 0.26108(19)
C7 C 0.5998(2) 0.4133(2) 0.21464(18)
C8 C 0.5717(2) 0.3678(2) 0.07751(19)
H5 H 0.485(2) 0.3683(18) 0.0291(17)
C9 C 0.6966(2) 0.4516(2) 0.02671(18)
C10 C 0.8133(2) 0.3886(2) -0.1158(2)
H6 H 0.881(2) 0.494(2) -0.0877(18)
H7 H 0.876(2) 0.338(2) -0.0940(19)
C11 C 0.7227(3) 0.3543(3) -0.2527(2)
H8 H 0.668(3) 0.411(2) -0.271(2)
H9 H 0.650(3) 0.251(3) -0.281(2)
H10 H 0.792(3) 0.379(3) -0.303(2)
C12 C 0.9164(2) 0.2739(2) 0.20873(19)
H11 H 0.937(2) 0.378(2) 0.2215(19)
C13 C 1.0220(2) 0.2329(2) 0.1961(2)
H12 H 1.118(3) 0.301(2) 0.197(2)
C14 C 0.9888(2) 0.0894(2) 0.17877(18)
C15 C 0.8524(2) -0.0119(2) 0.17901(18)
H13 H 0.829(2) -0.111(2) 0.1663(18)
C16 C 0.7491(2) 0.0315(2) 0.19471(18)
H14 H 0.653(3) -0.041(2) 0.194(2)
C17 C 0.7773(2) 0.1727(2) 0.20648(17)
C18 C 1.0623(3) -0.0886(3) 0.1345(3)
H15 H 1.048(2) -0.136(2) 0.207(2)
H16 H 1.146(3) -0.091(2) 0.116(2)
H17 H 0.972(3) -0.136(3) 0.062(2)
C19 C 0.8288(3) 0.7704(2) 0.4315(2)
H18 H 0.929(3) 0.797(2) 0.493(2)
H19 H 0.845(3) 0.830(3) 0.366(2)
C20 C 0.7254(3) 0.7936(3) 0.4873(2)
H20 H 0.715(2) 0.747(2) 0.562(2)
H21 H 0.618(3) 0.746(3) 0.425(3)
C21 C 0.7715(4) 0.9504(3) 0.5252(3)
H22 H 0.784(3) 0.998(3) 0.457(3)
H23 H 0.874(3) 0.994(2) 0.593(2)
C22 C 0.6628(4) 0.9757(4) 0.5733(4)
H24 H 0.696(3) 1.080(4) 0.589(3)
H25 H 0.562(5) 0.921(4) 0.524(4)
H26 H 0.662(4) 0.940(4) 0.655(4)
C23 C 0.4510(3) 0.3448(3) 0.2395(2)
H27 H 0.388(2) 0.388(2) 0.1984(19)
H28 H 0.394(3) 0.237(3) 0.209(2)
H29 H 0.466(3) 0.362(2) 0.327(2)
loop_
_geom_bond_atom_site_label_1
_geom_bond_atom_site_label_2
_geom_bond_site_symmetry_1
_geom_bond_site_symmetry_2
O1 C1 1_555 1_555
N1 C1 1_555 1_555
C1 C2 1_555 1_555
O2 C14 1_555 1_555
N2 C3 1_555 1_555
C2 H1 1_555 1_555
O3 C4 1_555 1_555
N3 C5 1_555 1_555
C3 C2 1_555 1_555
H2 C3 1_555 1_555
O4 C6 1_555 1_555
C4 N2 1_555 1_555
O5 C9 1_555 1_555
C5 C4 1_555 1_555
H3 C5 1_555 1_555
H4 C5 1_555 1_555
C6 N3 1_555 1_555
C7 N2 1_555 1_555
C8 C2 1_555 1_555
H5 C8 1_555 1_555
C9 N1 1_555 1_555
C10 N1 1_555 1_555
H6 C10 1_555 1_555
H7 C10 1_555 1_555
C11 C10 1_555 1_555
H8 C11 1_555 1_555
H9 C11 1_555 1_555
H10 C11 1_555 1_555
C12 H11 1_555 1_555
C13 C12 1_555 1_555
H12 C13 1_555 1_555
C14 C13 1_555 1_555
C15 C14 1_555 1_555
H13 C15 1_555 1_555
C16 C15 1_555 1_555
H14 C16 1_555 1_555
C17 C3 1_555 1_555
C18 O2 1_555 1_555
H15 C18 1_555 1_555
H16 C18 1_555 1_555
H17 C18 1_555 1_555
C19 N3 1_555 1_555
H18 C19 1_555 1_555
H19 C19 1_555 1_555
C20 C19 1_555 1_555
H20 C20 1_555 1_555
H21 C20 1_555 1_555
C21 C20 1_555 1_555
H22 C21 1_555 1_555
H23 C21 1_555 1_555
C22 C21 1_555 1_555
H24 C22 1_555 1_555
H25 C22 1_555 1_555
H26 C22 1_555 1_555
C23 C7 1_555 1_555
H27 C23 1_555 1_555
H28 C23 1_555 1_555
H29 C23 1_555 1_555
C6 C7 1_555 1_555
C7 C8 1_555 1_555
C8 C9 1_555 1_555
C12 C17 1_555 1_555
C16 C17 1_555 1_555

#END
