
#######################################################################
#
#                 Cambridge Crystallographic Data Centre
#                                CCDC 
#
#######################################################################
#
# If this CIF has been generated from an entry in the Cambridge 
# Structural Database, then it will include bibliographic, chemical, 
# crystal, experimental, refinement or atomic coordinate data resulting 
# from the CCDC's data processing and validation procedures.
#
#######################################################################

data_MUNREU
_chemical_formula_moiety         'C26 H24 N2 O4'
_chemical_name_systematic        
'Dimethyl 1,2,3-triphenyl-1,2,3,6-tetrahydropyrimidine-4,5-dicarboxylate'
_symmetry_cell_setting           monoclinic
_symmetry_space_group_name_H-M   'P 21/c'
_symmetry_Int_Tables_number      14
_space_group_name_Hall           '-P 2ybc'
loop_
_symmetry_equiv_pos_site_id
_symmetry_equiv_pos_as_xyz
1 x,y,z
2 -x,1/2+y,1/2-z
3 -x,-y,-z
4 x,1/2-y,1/2+z
_cell_length_a                   9.7172(19)
_cell_length_b                   11.762(2)
_cell_length_c                   19.840(4)
_cell_angle_alpha                90
_cell_angle_beta                 99.84(3)
_cell_angle_gamma                90
_cell_volume                     2234.23
_exptl_crystal_colour            yellow
_exptl_crystal_description       block
_cell_formula_units_Z            4
loop_
_atom_site_label
_atom_site_type_symbol
_atom_site_fract_x
_atom_site_fract_y
_atom_site_fract_z
C1 C 0.6405(2) 0.03474(16) 0.34024(9)
C2 C 0.6743(3) 0.11431(18) 0.29475(11)
H1 H 0.6064 0.1391 0.2589
C3 C 0.8082(3) 0.1575(2) 0.30199(14)
H2 H 0.8301 0.2101 0.2705
C4 C 0.9085(3) 0.1237(2) 0.35485(15)
H3 H 0.9983 0.1534 0.3596
C5 C 0.8760(3) 0.0458(2) 0.40078(12)
H4 H 0.9439 0.0232 0.4372
C6 C 0.7428(2) 0.0002(2) 0.39368(11)
H5 H 0.7221 -0.0537 0.4248
C7 C 0.3253(2) -0.00433(15) 0.22174(9)
C8 C 0.4041(3) -0.05567(17) 0.17834(10)
H6 H 0.5008 -0.0590 0.1902
C9 C 0.3382(3) -0.1019(2) 0.11722(11)
H7 H 0.3911 -0.1370 0.0883
C10 C 0.1959(4) -0.0967(2) 0.09884(12)
H8 H 0.1528 -0.1272 0.0573
C11 C 0.1170(3) -0.0463(2) 0.14161(12)
H9 H 0.0204 -0.0427 0.1291
C12 C 0.1814(2) -0.00075(17) 0.20371(11)
H10 H 0.1278 0.0321 0.2331
C13 C 0.3581(2) -0.12911(16) 0.40053(9)
C14 C 0.3957(3) -0.23802(17) 0.38342(12)
H11 H 0.4784 -0.2489 0.3667
C15 C 0.3121(3) -0.3298(2) 0.39097(12)
H12 H 0.3382 -0.4021 0.3790
C16 C 0.1902(3) -0.3150(3) 0.41615(12)
H13 H 0.1336 -0.3770 0.4214
C17 C 0.1528(3) -0.2085(3) 0.43337(14)
H14 H 0.0711 -0.1984 0.4511
C18 C 0.2346(3) -0.1160(2) 0.42485(11)
H15 H 0.2061 -0.0438 0.4356
C19 C 0.4975(2) -0.02138(16) 0.33075(9)
H16 H 0.5055 -0.0963 0.3102
C20 C 0.3365(2) 0.13796(15) 0.31216(9)
C21 C 0.3554(2) 0.15591(15) 0.38034(9)
C22 C 0.4318(2) 0.06984(15) 0.42907(9)
H17 H 0.5221 0.1006 0.4491
H18 H 0.3794 0.0568 0.4658
C23 C 0.2714(2) 0.22455(16) 0.26070(10)
C24 C 0.0810(3) 0.3422(2) 0.22374(13)
H19 H 0.1261 0.4119 0.2402
H20 H -0.0170 0.3472 0.2253
H21 H 0.0939 0.3293 0.1774
C25 C 0.3156(2) 0.26407(18) 0.40850(11)
C26 C 0.2636(4) 0.3511(2) 0.50893(14)
H22 H 0.3314 0.4091 0.5053
H23 H 0.2644 0.3337 0.5563
H24 H 0.1724 0.3776 0.4886
N1 N 0.39140(17) 0.04413(13) 0.28423(7)
N2 N 0.45241(18) -0.03839(13) 0.39658(7)
O1 O 0.33368(16) 0.26380(12) 0.21892(8)
O2 O 0.14117(16) 0.24921(11) 0.26615(7)
O3 O 0.2991(2) 0.35420(13) 0.37999(8)
O4 O 0.2975(2) 0.24963(13) 0.47353(8)
loop_
_geom_bond_atom_site_label_1
_geom_bond_atom_site_label_2
_geom_bond_site_symmetry_1
_geom_bond_site_symmetry_2
C1 C2 1_555 1_555
C2 H1 1_555 1_555
C3 C2 1_555 1_555
H2 C3 1_555 1_555
C4 C3 1_555 1_555
H3 C4 1_555 1_555
C5 C4 1_555 1_555
H4 C5 1_555 1_555
C6 C1 1_555 1_555
H5 C6 1_555 1_555
C7 C8 1_555 1_555
C8 H6 1_555 1_555
C9 C8 1_555 1_555
H7 C9 1_555 1_555
C10 C9 1_555 1_555
H8 C10 1_555 1_555
C11 C10 1_555 1_555
H9 C11 1_555 1_555
C12 C7 1_555 1_555
H10 C12 1_555 1_555
C13 C14 1_555 1_555
C14 H11 1_555 1_555
C15 C14 1_555 1_555
H12 C15 1_555 1_555
C16 C15 1_555 1_555
H13 C16 1_555 1_555
C17 C16 1_555 1_555
H14 C17 1_555 1_555
C18 C13 1_555 1_555
H15 C18 1_555 1_555
C19 C1 1_555 1_555
H16 C19 1_555 1_555
C20 C21 1_555 1_555
C21 C22 1_555 1_555
C22 H17 1_555 1_555
H18 C22 1_555 1_555
C23 C20 1_555 1_555
C24 H19 1_555 1_555
H20 C24 1_555 1_555
H21 C24 1_555 1_555
C25 C21 1_555 1_555
C26 H22 1_555 1_555
H23 C26 1_555 1_555
H24 C26 1_555 1_555
N1 C7 1_555 1_555
N2 C13 1_555 1_555
O1 C23 1_555 1_555
O2 C23 1_555 1_555
O3 C25 1_555 1_555
O4 C25 1_555 1_555
C5 C6 1_555 1_555
C11 C12 1_555 1_555
C17 C18 1_555 1_555
C19 N1 1_555 1_555
C19 N2 1_555 1_555
C20 N1 1_555 1_555
C22 N2 1_555 1_555
C24 O2 1_555 1_555
C26 O4 1_555 1_555

#END
