
#######################################################################
#
#                 Cambridge Crystallographic Data Centre
#                                CCDC 
#
#######################################################################
#
# If this CIF has been generated from an entry in the Cambridge 
# Structural Database, then it will include bibliographic, chemical, 
# crystal, experimental, refinement or atomic coordinate data resulting 
# from the CCDC's data processing and validation procedures.
#
#######################################################################

data_MUNRIW
_chemical_formula_moiety         'C74 H72 Br2 N2 O8'
_chemical_name_systematic        
N,N'-bis(10-Bromo-9-anthracenylmethyl)-25,27:26,28-bis(7-aza-1,4,10,13-tetraoxatridecane-1,13-diyl)calix(4)arene
_symmetry_cell_setting           monoclinic
_symmetry_space_group_name_H-M   'C 2/c'
_symmetry_Int_Tables_number      15
_space_group_name_Hall           '-C 2yn'
loop_
_symmetry_equiv_pos_site_id
_symmetry_equiv_pos_as_xyz
1 x,y,z
2 1/2+x,1/2+y,z
3 -x,y,1/2-z
4 1/2-x,1/2+y,1/2-z
5 -x,-y,-z
6 1/2-x,1/2-y,-z
7 x,-y,1/2+z
8 1/2+x,1/2-y,1/2+z
_cell_length_a                   10.4611(8)
_cell_length_b                   16.649(2)
_cell_length_c                   35.282(2)
_cell_angle_alpha                90
_cell_angle_beta                 96.179(6)
_cell_angle_gamma                90
_cell_volume                     6109.26
_exptl_crystal_colour            yellow
_exptl_crystal_description       block
_cell_formula_units_Z            4
loop_
_atom_site_label
_atom_site_type_symbol
_atom_site_fract_x
_atom_site_fract_y
_atom_site_fract_z
Br1 Br 1.23931(8) 0.3534 0.54954(2)
N1 N 0.7953(5) 0.1939(3) 0.40541(13)
O1 O 1.0468(7) 0.0521(4) 0.38730(18)
O2 O 0.6186(6) 0.2667(4) 0.32889(17)
O3 O 0.8309(3) 0.2541(2) 0.26210(11)
O4 O 0.8915(3) 0.0587(2) 0.19395(10)
C1 C 1.1028(6) 0.3105(4) 0.51527(18)
C2 C 1.0555(6) 0.2353(4) 0.52300(16)
C3 C 1.1101(8) 0.1850(5) 0.55389(19)
H1 H 1.1830 0.2039 0.5703
C4 C 1.0610(9) 0.1122(6) 0.5601(2)
H2 H 1.0989 0.0800 0.5810
C5 C 0.9552(9) 0.0827(4) 0.5366(2)
H3 H 0.9215 0.0304 0.5413
C6 C 0.8997(7) 0.1274(4) 0.50715(18)
H4 H 0.8270 0.1060 0.4914
C7 C 0.9462(6) 0.2052(4) 0.49889(17)
C8 C 0.8924(5) 0.2514(4) 0.46729(15)
C9 C 0.9486(6) 0.3254(4) 0.45992(17)
C10 C 0.8995(7) 0.3722(4) 0.42746(18)
H5 H 0.8287 0.3522 0.4105
C11 C 0.9520(8) 0.4441(5) 0.4205(2)
H6 H 0.9187 0.4747 0.3986
C12 C 1.0550(8) 0.4745(5) 0.4452(2)
H7 H 1.0906 0.5260 0.4400
C13 C 1.1046(7) 0.4328(4) 0.4758(2)
H8 H 1.1753 0.4549 0.4921
C14 C 1.0545(6) 0.3568(4) 0.48448(17)
C15 C 0.7737(6) 0.2244(4) 0.44339(16)
H9 H 0.7337 0.1828 0.4568
H10 H 0.7147 0.2686 0.4402
C16 C 0.8788(7) 0.1238(4) 0.40853(18)
H11 H 0.8271 0.0770 0.4114
H12 H 0.9375 0.1288 0.4313
C17 C 0.9540(6) 0.1111(5) 0.37579(19)
H13 H 0.8990 0.0931 0.3539
H14 H 0.9949 0.1602 0.3694
C18 C 0.6715(7) 0.1767(4) 0.38400(19)
H15 H 0.6177 0.1506 0.4007
H16 H 0.6847 0.1396 0.3639
C19 C 0.6016(6) 0.2491(5) 0.36674(17)
H17 H 0.5113 0.2417 0.3684
H18 H 0.6283 0.2950 0.3820
C20 C 0.7414(7) 0.2733(5) 0.3200(2)
H19 H 0.7850 0.2228 0.3239
H20 H 0.7871 0.3128 0.3360
C21 C 0.7376(7) 0.2976(4) 0.27932(18)
H21 H 0.6539 0.2870 0.2663
H22 H 0.7543 0.3541 0.2777
C22 C 0.8444(5) 0.2750(3) 0.22475(16)
C23 C 0.9282(5) 0.3366(3) 0.21810(16)
C24 C 0.9397(6) 0.3551(4) 0.18032(18)
H23 H 0.9962 0.3977 0.1745
C25 C 0.8718(7) 0.3135(4) 0.15112(19)
H24 H 0.8809 0.3278 0.1252
C26 C 0.7912(6) 0.2519(4) 0.15867(18)
H25 H 0.7453 0.2230 0.1379
C27 C 0.7752(5) 0.2307(3) 0.19602(17)
C28 C 1.0000 0.3829(5) 0.2500
H26 H 0.9396 0.4171 0.2608
H27 H 1.0604 0.4171 0.2392
C29 C 0.6835(5) 0.1654(3) 0.20383(18)
H28 H 0.6567 0.1390 0.1801
H29 H 0.6087 0.1901 0.2123
C30 C 0.7303(5) 0.1021(3) 0.23254(16)
C31 C 0.6705(5) 0.0906(4) 0.26544(19)
H30 H 0.5988 0.1239 0.2699
C32 C 0.7117(5) 0.0330(4) 0.29155(17)
H31 H 0.6672 0.0253 0.3137
C33 C 0.8155(5) -0.0135(3) 0.28628(16)
H32 H 0.8436 -0.0534 0.3050
C34 C 0.8816(5) -0.0044(3) 0.25451(16)
C35 C 0.8344(5) 0.0520(3) 0.22751(16)
C36 C 1.0000 -0.0530(5) 0.2500
H33 H 1.0172 -0.0871 0.2719
H34 H 0.9828 -0.0871 0.2281
C37 C 0.8381(7) 0.0063(5) 0.16452(19)
H35 H 0.8407 -0.0475 0.1743
H36 H 0.7494 0.0203 0.1582
C38 C 1.1014(10) 0.0072(7) 0.3688(3)
H37 H 1.0404 -0.0358 0.3644
H38 H 1.1672 -0.0137 0.3872
C37B C 1.1619(7) 0.0063(5) 0.33548(19)
O4B O 1.1085(3) 0.0587(2) 0.30605(10)
C35B C 1.1656(5) 0.0520(3) 0.27249(16)
C30B C 1.2697(5) 0.1021(3) 0.26746(16)
C29B C 1.3165(5) 0.1654(3) 0.29617(18)
C27B C 1.2248(5) 0.2307(3) 0.30398(17)
C22B C 1.1556(5) 0.2750(3) 0.27525(16)
O3B O 1.1691(3) 0.2541(2) 0.23790(11)
C21B C 1.2624(7) 0.2976(4) 0.22068(18)
C20B C 1.2586(7) 0.2733(5) 0.1800(2)
O2B O 1.3814(6) 0.2667(4) 0.17111(17)
C19B C 1.3984(6) 0.2491(5) 0.13326(17)
C18B C 1.3285(7) 0.1767(4) 0.11600(19)
N1B N 1.2047(5) 0.1939(3) 0.09459(13)
C15B C 1.2263(6) 0.2244(4) 0.05661(16)
C8B C 1.1076(5) 0.2514(4) 0.03271(15)
C7B C 1.0538(6) 0.2052(4) 0.00111(17)
C2B C 0.9445(6) 0.2353(4) -0.02300(16)
C1B C 0.8972(6) 0.3105(4) -0.01527(18)
Br1B Br 0.76069(8) 0.3534 -0.04954(2)
C14B C 0.9455(6) 0.3568(4) 0.01552(17)
C9B C 1.0514(6) 0.3254(4) 0.04008(17)
C10B C 1.1005(7) 0.3722(4) 0.07254(18)
H5B H 1.1713 0.3522 0.0895
C11B C 1.0480(8) 0.4441(5) 0.0795(2)
H6B H 1.0813 0.4747 0.1014
C12B C 0.9450(8) 0.4745(5) 0.0548(2)
H7B H 0.9094 0.5260 0.0600
C13B C 0.8954(7) 0.4328(4) 0.0242(2)
H8B H 0.8247 0.4549 0.0079
C3B C 0.8899(8) 0.1850(5) -0.05389(19)
H1B H 0.8170 0.2039 -0.0703
C4B C 0.9390(9) 0.1122(6) -0.0601(2)
H2B H 0.9011 0.0800 -0.0810
C5B C 1.0448(9) 0.0827(4) -0.0366(2)
H3B H 1.0785 0.0304 -0.0413
C6B C 1.1003(7) 0.1274(4) -0.00715(18)
H4B H 1.1730 0.1060 0.0086
H9B H 1.2663 0.1828 0.0432
H10B H 1.2853 0.2686 0.0598
C16B C 1.1212(7) 0.1238(4) 0.09147(18)
H11B H 1.1729 0.0770 0.0886
H12B H 1.0625 0.1288 0.0687
C17B C 1.0460(6) 0.1111(5) 0.12421(19)
O1B O 0.9532(7) 0.0521(4) 0.11270(18)
C38B C 0.8986(10) 0.0072(7) 0.1312(3)
C23B C 1.0718(5) 0.3366(3) 0.28190(16)
C24B C 1.0603(6) 0.3551(4) 0.31968(18)
H23B H 1.0038 0.3977 0.3255
C25B C 1.1282(7) 0.3135(4) 0.34888(19)
H24B H 1.1191 0.3278 0.3748
C26B C 1.2088(6) 0.2519(4) 0.34133(18)
H25B H 1.2547 0.2230 0.3621
C34B C 1.1184(5) -0.0044(3) 0.24549(16)
C33B C 1.1845(5) -0.0135(3) 0.21372(16)
C32B C 1.2883(5) 0.0330(4) 0.20845(17)
C31B C 1.3295(5) 0.0906(4) 0.23456(19)
H30B H 1.4012 0.1239 0.2301
H31B H 1.3328 0.0253 0.1863
H32B H 1.1564 -0.0534 0.1950
H37B H 0.9596 -0.0358 0.1356
H38B H 0.8328 -0.0137 0.1128
H13B H 1.1010 0.0931 0.1461
H14B H 1.0051 0.1602 0.1306
H15B H 1.3823 0.1506 0.0993
H16B H 1.3153 0.1396 0.1361
H17B H 1.4887 0.2417 0.1316
H18B H 1.3717 0.2950 0.1180
H19B H 1.2150 0.2228 0.1761
H20B H 1.2129 0.3128 0.1640
H21B H 1.3461 0.2870 0.2337
H22B H 1.2457 0.3541 0.2223
H28B H 1.3433 0.1390 0.3199
H29B H 1.3913 0.1901 0.2877
H35B H 1.1593 -0.0475 0.3257
H36B H 1.2506 0.0203 0.3418
loop_
_geom_bond_atom_site_label_1
_geom_bond_atom_site_label_2
_geom_bond_site_symmetry_1
_geom_bond_site_symmetry_2
Br1 C1 1_555 1_555
N1 C15 1_555 1_555
O1 C17 1_555 1_555
O2 C19 1_555 1_555
O3 C21 1_555 1_555
O4 C35 1_555 1_555
C1 C2 1_555 1_555
C2 C3 1_555 1_555
C3 H1 1_555 1_555
C4 C3 1_555 1_555
H2 C4 1_555 1_555
C5 C4 1_555 1_555
H3 C5 1_555 1_555
C6 C5 1_555 1_555
H4 C6 1_555 1_555
C7 C2 1_555 1_555
C8 C7 1_555 1_555
C9 C8 1_555 1_555
C10 C9 1_555 1_555
H5 C10 1_555 1_555
C11 C10 1_555 1_555
H6 C11 1_555 1_555
C12 C11 1_555 1_555
H7 C12 1_555 1_555
C13 C12 1_555 1_555
H8 C13 1_555 1_555
C14 C1 1_555 1_555
C15 C8 1_555 1_555
H9 C15 1_555 1_555
H10 C15 1_555 1_555
C16 N1 1_555 1_555
H11 C16 1_555 1_555
H12 C16 1_555 1_555
C17 C16 1_555 1_555
H13 C17 1_555 1_555
H14 C17 1_555 1_555
C18 N1 1_555 1_555
H15 C18 1_555 1_555
H16 C18 1_555 1_555
C19 C18 1_555 1_555
H17 C19 1_555 1_555
H18 C19 1_555 1_555
C20 O2 1_555 1_555
H19 C20 1_555 1_555
H20 C20 1_555 1_555
C21 C20 1_555 1_555
H21 C21 1_555 1_555
H22 C21 1_555 1_555
C22 O3 1_555 1_555
C23 C22 1_555 1_555
C24 C23 1_555 1_555
H23 C24 1_555 1_555
C25 C24 1_555 1_555
H24 C25 1_555 1_555
C26 C25 1_555 1_555
H25 C26 1_555 1_555
C27 C22 1_555 1_555
C28 C23 1_555 1_555
H26 C28 1_555 1_555
H27 C28 1_555 1_555
C29 C27 1_555 1_555
H28 C29 1_555 1_555
H29 C29 1_555 1_555
C30 C29 1_555 1_555
C31 C30 1_555 1_555
H30 C31 1_555 1_555
C32 C31 1_555 1_555
H31 C32 1_555 1_555
C33 C32 1_555 1_555
H32 C33 1_555 1_555
C34 C33 1_555 1_555
C35 C30 1_555 1_555
C36 C34 1_555 1_555
H33 C36 1_555 1_555
H34 C36 1_555 1_555
C37 O4 1_555 1_555
H35 C37 1_555 1_555
H36 C37 1_555 1_555
C38 O1 1_555 1_555
H37 C38 1_555 1_555
H38 C38 1_555 1_555
C37B C38 1_555 1_555
O4B C37B 1_555 1_555
C35B O4B 1_555 1_555
C30B C35B 1_555 1_555
C29B C30B 1_555 1_555
C27B C29B 1_555 1_555
C22B C27B 1_555 1_555
O3B C22B 1_555 1_555
C21B O3B 1_555 1_555
C20B C21B 1_555 1_555
O2B C20B 1_555 1_555
C19B O2B 1_555 1_555
C18B C19B 1_555 1_555
N1B C18B 1_555 1_555
C15B N1B 1_555 1_555
C8B C15B 1_555 1_555
C7B C8B 1_555 1_555
C2B C7B 1_555 1_555
C1B C2B 1_555 1_555
Br1B C1B 1_555 1_555
C14B C1B 1_555 1_555
C9B C8B 1_555 1_555
C10B C9B 1_555 1_555
H5B C10B 1_555 1_555
C11B C10B 1_555 1_555
H6B C11B 1_555 1_555
C12B C11B 1_555 1_555
H7B C12B 1_555 1_555
C13B C14B 1_555 1_555
H8B C13B 1_555 1_555
C3B C2B 1_555 1_555
H1B C3B 1_555 1_555
C4B C3B 1_555 1_555
H2B C4B 1_555 1_555
C5B C4B 1_555 1_555
H3B C5B 1_555 1_555
C6B C7B 1_555 1_555
H4B C6B 1_555 1_555
H9B C15B 1_555 1_555
H10B C15B 1_555 1_555
C16B N1B 1_555 1_555
H11B C16B 1_555 1_555
H12B C16B 1_555 1_555
C17B C16B 1_555 1_555
O1B C17B 1_555 1_555
C38B C37 1_555 1_555
C23B C28 1_555 1_555
C24B C23B 1_555 1_555
H23B C24B 1_555 1_555
C25B C24B 1_555 1_555
H24B C25B 1_555 1_555
C26B C27B 1_555 1_555
H25B C26B 1_555 1_555
C34B C36 1_555 1_555
C33B C34B 1_555 1_555
C32B C33B 1_555 1_555
C31B C30B 1_555 1_555
H30B C31B 1_555 1_555
H31B C32B 1_555 1_555
H32B C33B 1_555 1_555
H37B C38B 1_555 1_555
H38B C38B 1_555 1_555
H13B C17B 1_555 1_555
H14B C17B 1_555 1_555
H15B C18B 1_555 1_555
H16B C18B 1_555 1_555
H17B C19B 1_555 1_555
H18B C19B 1_555 1_555
H19B C20B 1_555 1_555
H20B C20B 1_555 1_555
H21B C21B 1_555 1_555
H22B C21B 1_555 1_555
H28B C29B 1_555 1_555
H29B C29B 1_555 1_555
H35B C37B 1_555 1_555
H36B C37B 1_555 1_555
C6 C7 1_555 1_555
C9 C14 1_555 1_555
C13 C14 1_555 1_555
C26 C27 1_555 1_555
C34 C35 1_555 1_555
C35B C34B 1_555 1_555
C22B C23B 1_555 1_555
C14B C9B 1_555 1_555
C12B C13B 1_555 1_555
C5B C6B 1_555 1_555
O1B C38B 1_555 1_555
C25B C26B 1_555 1_555
C32B C31B 1_555 1_555

#END
