
#######################################################################
#
#                 Cambridge Crystallographic Data Centre
#                                CCDC 
#
#######################################################################
#
# If this CIF has been generated from an entry in the Cambridge 
# Structural Database, then it will include bibliographic, chemical, 
# crystal, experimental, refinement or atomic coordinate data resulting 
# from the CCDC's data processing and validation procedures.
#
#######################################################################

data_MUNTIA
_chemical_formula_moiety         'C26 H24 N2 O4'
_chemical_name_systematic        
'Dimethyl 1,2,3-triphenyl-1,2,3,6-tetrahydropyrimidine-4,5-dicarboxylate'
_symmetry_cell_setting           monoclinic
_symmetry_space_group_name_H-M   'P 21/n'
_symmetry_Int_Tables_number      14
_space_group_name_Hall           '-P 2yn'
loop_
_symmetry_equiv_pos_site_id
_symmetry_equiv_pos_as_xyz
1 x,y,z
2 1/2-x,1/2+y,1/2-z
3 -x,-y,-z
4 1/2+x,1/2-y,1/2+z
_cell_length_a                   9.5910(15)
_cell_length_b                   14.916(2)
_cell_length_c                   15.744(3)
_cell_angle_alpha                90
_cell_angle_beta                 91.790(2)
_cell_angle_gamma                90
_cell_volume                     2251.23
_exptl_crystal_colour            colorless
_exptl_crystal_description       block
_cell_formula_units_Z            4
loop_
_atom_site_label
_atom_site_type_symbol
_atom_site_fract_x
_atom_site_fract_y
_atom_site_fract_z
C1 C 0.4001(4) 0.7139(2) -0.1302(2)
H1 H 0.3068 0.7038 -0.1450
C2 C 0.5035(5) 0.6818(3) -0.1817(3)
H2 H 0.4794 0.6498 -0.2307
C3 C 0.6403(6) 0.6969(3) -0.1608(4)
H3 H 0.7095 0.6754 -0.1955
C4 C 0.6754(4) 0.7433(3) -0.0891(3)
H4 H 0.7690 0.7532 -0.0749
C5 C 0.5743(4) 0.7760(2) -0.0369(3)
H5 H 0.5997 0.8081 0.0117
C6 C 0.4351(3) 0.76071(19) -0.05738(19)
C7 C 0.4267(3) 0.8507(2) 0.1604(2)
H6 H 0.4355 0.7915 0.1428
C8 C 0.4704(4) 0.8751(3) 0.2423(2)
H7 H 0.5080 0.8323 0.2793
C9 C 0.4581(4) 0.9624(3) 0.2684(3)
H8 H 0.4875 0.9787 0.3231
C10 C 0.4024(4) 1.0256(3) 0.2139(3)
H9 H 0.3937 1.0847 0.2319
C11 C 0.3593(4) 1.0020(2) 0.1328(2)
H10 H 0.3224 1.0455 0.0963
C12 C 0.3701(3) 0.9141(2) 0.1048(2)
C13 C 0.3234(3) 0.89198(18) 0.01439(18)
H11 H 0.3863 0.9227 -0.0239
C14 C 0.2187(3) 0.9811(2) -0.1466(2)
H12 H 0.2969 1.0116 -0.1255
C15 C 0.1800(4) 0.9896(3) -0.2311(2)
H13 H 0.2328 1.0253 -0.2663
C16 C 0.0654(4) 0.9462(3) -0.2638(2)
H14 H 0.0391 0.9524 -0.3209
C17 C -0.0106(4) 0.8932(3) -0.2111(3)
H15 H -0.0889 0.8633 -0.2328
C18 C 0.0277(4) 0.8835(2) -0.1258(2)
H16 H -0.0247 0.8468 -0.0912
C19 C 0.1428(3) 0.92767(18) -0.09203(19)
C20 C 0.0837(3) 0.88108(19) 0.05302(19)
H17 H -0.0111 0.8944 0.0338
H18 H 0.0970 0.9048 0.1101
C21 C 0.1044(3) 0.78094(19) 0.05484(18)
C22 C 0.2209(3) 0.74352(18) 0.02322(18)
C23 C 0.2520(5) 0.6438(3) 0.0268(3)
C24 C 0.2253(7) 0.4983(3) -0.0053(4)
H19 H 0.2369 0.4649 -0.0568
H20 H 0.1548 0.4703 0.0276
H21 H 0.3119 0.4993 0.0269
C25 C 0.0019(3) 0.7232(2) 0.0947(2)
C26 C -0.2194(4) 0.7182(3) 0.1559(3)
H22 H -0.2578 0.6731 0.1185
H23 H -0.2923 0.7577 0.1731
H24 H -0.1771 0.6901 0.2052
N1 N 0.1820(2) 0.92504(15) -0.00374(15)
N2 N 0.3307(2) 0.79476(15) -0.00374(15)
O1 O -0.1150(2) 0.76913(16) 0.11202(15)
O2 O 0.0151(3) 0.64558(16) 0.11233(17)
O3 O 0.1797(3) 0.59721(17) -0.02788(19)
O4 O 0.3404(4) 0.6147(2) 0.0755(2)
loop_
_geom_bond_atom_site_label_1
_geom_bond_atom_site_label_2
_geom_bond_site_symmetry_1
_geom_bond_site_symmetry_2
C1 H1 1_555 1_555
C2 C1 1_555 1_555
H2 C2 1_555 1_555
C3 C2 1_555 1_555
H3 C3 1_555 1_555
C4 C3 1_555 1_555
H4 C4 1_555 1_555
C5 C4 1_555 1_555
H5 C5 1_555 1_555
C6 C1 1_555 1_555
C7 H6 1_555 1_555
C8 C7 1_555 1_555
H7 C8 1_555 1_555
C9 C8 1_555 1_555
H8 C9 1_555 1_555
C10 C9 1_555 1_555
H9 C10 1_555 1_555
C11 C10 1_555 1_555
H10 C11 1_555 1_555
C12 C7 1_555 1_555
C13 C12 1_555 1_555
H11 C13 1_555 1_555
C14 H12 1_555 1_555
C15 C14 1_555 1_555
H13 C15 1_555 1_555
C16 C15 1_555 1_555
H14 C16 1_555 1_555
C17 C16 1_555 1_555
H15 C17 1_555 1_555
C18 C17 1_555 1_555
H16 C18 1_555 1_555
C19 C14 1_555 1_555
C20 H17 1_555 1_555
H18 C20 1_555 1_555
C21 C20 1_555 1_555
C22 C21 1_555 1_555
C23 C22 1_555 1_555
C24 H19 1_555 1_555
H20 C24 1_555 1_555
H21 C24 1_555 1_555
C25 C21 1_555 1_555
C26 H22 1_555 1_555
H23 C26 1_555 1_555
H24 C26 1_555 1_555
N1 C13 1_555 1_555
N2 C6 1_555 1_555
O1 C25 1_555 1_555
O2 C25 1_555 1_555
O3 C23 1_555 1_555
O4 C23 1_555 1_555
C5 C6 1_555 1_555
C11 C12 1_555 1_555
C13 N2 1_555 1_555
C18 C19 1_555 1_555
C19 N1 1_555 1_555
C20 N1 1_555 1_555
C22 N2 1_555 1_555
C24 O3 1_555 1_555
C26 O1 1_555 1_555

#END
