
#######################################################################
#
#                 Cambridge Crystallographic Data Centre
#                                CCDC 
#
#######################################################################
#
# If this CIF has been generated from an entry in the Cambridge 
# Structural Database, then it will include bibliographic, chemical, 
# crystal, experimental, refinement or atomic coordinate data resulting 
# from the CCDC's data processing and validation procedures.
#
#######################################################################

data_MUQLOZ
_chemical_formula_moiety         'C27 H38 N2 O6 S1'
_chemical_name_systematic        'Epothilone B'
_chemical_properties_biological  'cytotoxic agent'
_symmetry_cell_setting           orthorhombic
_symmetry_space_group_name_H-M   'P 21 21 21'
_symmetry_Int_Tables_number      19
_space_group_name_Hall           'P 2ac 2ab'
loop_
_symmetry_equiv_pos_site_id
_symmetry_equiv_pos_as_xyz
1 x,y,z
2 1/2-x,-y,1/2+z
3 1/2+x,1/2-y,-z
4 -x,1/2+y,1/2-z
_cell_length_a                   18.675(2)
_cell_length_b                   8.5059(7)
_cell_length_c                   17.495(1)
_cell_angle_alpha                90
_cell_angle_beta                 90
_cell_angle_gamma                90
_cell_volume                     2779.04
_exptl_crystal_colour            colorless
_exptl_crystal_description       plates
_chemical_melting_point          431-434K
_cell_formula_units_Z            4
_exptl_crystal_recrystallization_method 'cooled from melt at 413 K'
loop_
_atom_site_label
_atom_site_type_symbol
_atom_site_fract_x
_atom_site_fract_y
_atom_site_fract_z
S1 S 0.6212(2) 0.8875(4) 0.6865(2)
O1 O 0.5159(4) 0.6529(8) 0.3492(4)
O2 O 0.3878(4) 0.2977(9) 0.4401(4)
O3 O 0.7409(4) 0.3628(9) 0.2196(4)
O4 O 0.7132(4) 0.1176(8) 0.3141(4)
O5 O 0.4771(4) 0.7115(10) 0.2314(4)
O6 O 0.6432(4) 0.8482(8) 0.2655(4)
N1 N 0.5044(5) 0.9201(10) 0.6141(10)
N2 N 0.4021(6) 0.5241(10) 0.6009(10)
C1 C 0.7359(5) 0.3867(10) 0.3556(10)
C2 C 0.6560(5) 0.6864(10) 0.2842(10)
C3 C 0.5934(5) 0.6006(10) 0.2452(10)
C4 C 0.5224(6) 0.6658(10) 0.2729(10)
C5 C 0.4490(6) 0.7053(10) 0.3841(10)
C6 C 0.5257(6) 0.7654(10) 0.4957(10)
C7 C 0.4641(6) 0.7781(10) 0.4588(10)
C8 C 0.5478(7) 0.8223(10) 0.5693(10)
C9 C 0.7310(6) 0.6315(10) 0.2591(10)
C10 C 0.4344(6) 0.4150(10) 0.4085(10)
C11 C 0.7356(6) 0.4537(10) 0.2742(10)
C12 C 0.6824(5) 0.2459(10) 0.3586(10)
C13 C 0.3974(6) 0.5651(10) 0.3853(10)
C14 C 0.4458(6) 0.3603(10) 0.4823(10)
C15 C 0.8129(5) 0.3470(10) 0.3757(10)
C16 C 0.3981(6) 0.8685(10) 0.4904(10)
C17 C 0.7877(6) 0.7169(10) 0.3098(10)
C18 C 0.6608(7) 0.1857(20) 0.4369(10)
C19 C 0.6135(7) 0.7910(20) 0.6012(10)
C20 C 0.7442(6) 0.6687(20) 0.1741(10)
C21 C 0.5367(7) 0.9638(20) 0.6745(10)
C22 C 0.5055(7) 0.2432(20) 0.5026(10)
C23 C 0.6268(10) 0.3312(20) 0.4816(10)
C24 C 0.7186(9) 0.1044(20) 0.4800(10)
C25 C 0.5725(9) 0.3196(20) 0.5277(10)
C26 C 0.5043(10) 1.0691(20) 0.7332(10)
C27 C 0.4217(6) 0.4533(20) 0.5488(10)
H1 H 0.7195 0.4766 0.3960
H2 H 0.6527 0.6676 0.3474
H3 H 0.5991 0.6176 0.1830
H4 H 0.5970 0.4739 0.2556
H5 H 0.4233 0.7901 0.3464
H6 H 0.5666 0.6960 0.4663
H7 H 0.4597 0.3662 0.3578
H8 H 0.6306 0.2854 0.3319
H9 H 0.3545 0.5903 0.4266
H10 H 0.3727 0.5510 0.3295
H11 H 0.8169 0.2960 0.4320
H12 H 0.8330 0.2576 0.3345
H13 H 0.8466 0.4482 0.3714
H14 H 0.8423 0.6833 0.2955
H15 H 0.7831 0.8432 0.3067
H16 H 0.7799 0.6840 0.3712
H17 H 0.6216 0.0916 0.4314
H18 H 0.6544 0.7198 0.5739
H19 H 0.7965 0.6290 0.1551
H20 H 0.7039 0.6101 0.1377
H21 H 0.7401 0.7944 0.1631
H22 H 0.4541 1.1230 0.7126
H23 H 0.4931 1.0101 0.7862
H24 H 0.5407 1.1690 0.7460
H25 H 0.3945 0.8570 0.5519
H26 H 0.4016 0.9924 0.4759
H27 H 0.3487 0.8220 0.4654
H28 H 0.6993 0.0642 0.5358
H29 H 0.7380 0.0020 0.4490
H30 H 0.7638 0.1827 0.4900
H31 H 0.4872 0.1577 0.5445
H32 H 0.5200 0.1760 0.4503
H33 H 0.5577 0.4289 0.5536
H34 H 0.5927 0.2426 0.5774
H35 H 0.6685 0.3945 0.5105
H36 H 0.6050 0.4117 0.4364
H37 H 0.6744 0.0348 0.3052
H38 H 0.6795 0.9173 0.2935
loop_
_geom_bond_atom_site_label_1
_geom_bond_atom_site_label_2
_geom_bond_site_symmetry_1
_geom_bond_site_symmetry_2
S1 C19 1_555 1_555
O1 C4 1_555 1_555
O2 C10 1_555 1_555
O3 C11 1_555 1_555
O4 C12 1_555 1_555
O5 C4 1_555 1_555
O6 C2 1_555 1_555
N1 C8 1_555 1_555
N2 C27 1_555 1_555
C1 C11 1_555 1_555
C2 C3 1_555 1_555
C3 C4 1_555 1_555
C5 O1 1_555 1_555
C6 C7 1_555 1_555
C7 C5 1_555 1_555
C8 C6 1_555 1_555
C9 C2 1_555 1_555
C10 C13 1_555 1_555
C11 C9 1_555 1_555
C12 C1 1_555 1_555
C13 C5 1_555 1_555
C14 O2 1_555 1_555
C15 C1 1_555 1_555
C16 C7 1_555 1_555
C17 C9 1_555 1_555
C18 C12 1_555 1_555
C19 C8 1_555 1_555
C20 C9 1_555 1_555
C21 S1 1_555 1_555
C22 C14 1_555 1_555
C23 C18 1_555 1_555
C24 C18 1_555 1_555
C25 C22 1_555 1_555
C26 C21 1_555 1_555
C27 C14 1_555 1_555
H1 C1 1_555 1_555
H2 C2 1_555 1_555
H3 C3 1_555 1_555
H4 C3 1_555 1_555
H5 C5 1_555 1_555
H6 C6 1_555 1_555
H7 C10 1_555 1_555
H8 C12 1_555 1_555
H9 C13 1_555 1_555
H10 C13 1_555 1_555
H11 C15 1_555 1_555
H12 C15 1_555 1_555
H13 C15 1_555 1_555
H14 C17 1_555 1_555
H15 C17 1_555 1_555
H16 C17 1_555 1_555
H17 C18 1_555 1_555
H18 C19 1_555 1_555
H19 C20 1_555 1_555
H20 C20 1_555 1_555
H21 C20 1_555 1_555
H22 C26 1_555 1_555
H23 C26 1_555 1_555
H24 C26 1_555 1_555
H25 C16 1_555 1_555
H26 C16 1_555 1_555
H27 C16 1_555 1_555
H28 C24 1_555 1_555
H29 C24 1_555 1_555
H30 C24 1_555 1_555
H31 C22 1_555 1_555
H32 C22 1_555 1_555
H33 C25 1_555 1_555
H34 C25 1_555 1_555
H35 C23 1_555 1_555
H36 C23 1_555 1_555
H37 O4 1_555 1_555
H38 O6 1_555 1_555
N1 C21 1_555 1_555
C10 C14 1_555 1_555
C23 C25 1_555 1_555

#END
