
#######################################################################
#
#                 Cambridge Crystallographic Data Centre
#                                CCDC 
#
#######################################################################
#
# If this CIF has been generated from an entry in the Cambridge 
# Structural Database, then it will include bibliographic, chemical, 
# crystal, experimental, refinement or atomic coordinate data resulting 
# from the CCDC's data processing and validation procedures.
#
#######################################################################

data_MUQNAP
_chemical_formula_moiety         'C30 H20 B2 N2 S2,2(C3 H6 O1)'
_chemical_name_systematic        
"6,13-diphenyl-5,6,12,13-tetrahydro[1,2]benzazaborinino[3'',4'':4',5']thieno[2',3':4,5]thieno[3,2-c][1,2]benzazaborinine acetone solvate"
_symmetry_cell_setting           monoclinic
_symmetry_space_group_name_H-M   'P 21/c'
_symmetry_Int_Tables_number      14
_space_group_name_Hall           '-P 2ybc'
loop_
_symmetry_equiv_pos_site_id
_symmetry_equiv_pos_as_xyz
1 x,y,z
2 -x,1/2+y,1/2-z
3 -x,-y,-z
4 x,1/2-y,1/2+z
_cell_length_a                   10.4796(17)
_cell_length_b                   14.933(3)
_cell_length_c                   11.2274(18)
_cell_angle_alpha                90
_cell_angle_beta                 112.972(5)
_cell_angle_gamma                90
_cell_volume                     1617.66
_exptl_crystal_colour            yellow
_exptl_crystal_description       block
_cell_formula_units_Z            2
loop_
_atom_site_label
_atom_site_type_symbol
_atom_site_fract_x
_atom_site_fract_y
_atom_site_fract_z
S1 S 0.64081(5) 0.06125(3) 0.93734(5)
C1 C 0.65506(19) -0.02653(11) 1.14506(17)
N1 N 0.87536(17) -0.06250(10) 1.32828(15)
H1 H 0.9208 -0.0892 1.4003
C2 C 0.88432(19) 0.02572(12) 1.15186(17)
C3 C 0.73603(19) 0.01707(11) 1.09012(17)
C4 C 0.9522(2) -0.01506(12) 1.27292(18)
B1 B 0.7295(2) -0.07108(13) 1.2774(2)
C5 C 0.48755(19) 0.02220(11) 0.94268(17)
C6 C 0.6612(2) -0.12350(13) 1.35781(18)
C7 C 0.9643(2) 0.07293(13) 1.0982(2)
H2 H 0.9212 0.0998 1.0177
C8 C 0.5492(2) -0.09010(14) 1.38091(18)
H3 H 0.5095 -0.0361 1.3430
C9 C 1.0959(2) -0.00662(15) 1.3370(2)
H4 H 1.1410 -0.0334 1.4174
C10 C 1.1054(2) 0.08027(15) 1.1624(2)
H5 H 1.1570 0.1118 1.1252
C11 C 0.4949(2) -0.13458(17) 1.4583(2)
H6 H 0.4204 -0.1103 1.4728
C12 C 1.1706(2) 0.04082(15) 1.2821(2)
H7 H 1.2660 0.0465 1.3258
C13 C 0.5511(3) -0.21472(19) 1.5140(3)
H8 H 0.5150 -0.2450 1.5662
C14 C 0.7147(3) -0.20469(16) 1.4159(3)
H9 H 0.7897 -0.2294 1.4029
C15 C 0.6602(3) -0.24985(18) 1.4922(3)
H10 H 0.6980 -0.3045 1.5290
S1B S 0.35919(5) -0.06125(3) 1.06266(5)
C1B C 0.34494(19) 0.02653(11) 0.85494(17)
N1B N 0.12464(17) 0.06250(10) 0.67172(15)
H1B H 0.0792 0.0892 0.5997
C2B C 0.11568(19) -0.02572(12) 0.84814(17)
C3B C 0.26397(19) -0.01707(11) 0.90988(17)
C4B C 0.0478(2) 0.01506(12) 0.72708(18)
B1B B 0.2705(2) 0.07108(13) 0.7226(2)
C5B C 0.51245(19) -0.02220(11) 1.05732(17)
C6B C 0.3388(2) 0.12350(13) 0.64219(18)
C7B C 0.0357(2) -0.07293(13) 0.9018(2)
H2B H 0.0788 -0.0998 0.9823
C8B C 0.4508(2) 0.09010(14) 0.61909(18)
H3B H 0.4905 0.0361 0.6570
C9B C -0.0959(2) 0.00662(15) 0.6630(2)
H4B H -0.1410 0.0334 0.5826
C10B C -0.1054(2) -0.08027(15) 0.8376(2)
H5B H -0.1570 -0.1118 0.8748
C11B C 0.5051(2) 0.13458(17) 0.5417(2)
H6B H 0.5796 0.1103 0.5272
C12B C -0.1706(2) -0.04082(15) 0.7179(2)
H7B H -0.2660 -0.0465 0.6742
C13B C 0.4489(3) 0.21472(19) 0.4860(3)
H8B H 0.4850 0.2450 0.4338
C14B C 0.2853(3) 0.20469(16) 0.5841(3)
H9B H 0.2103 0.2294 0.5971
C15B C 0.3398(3) 0.24985(18) 0.5078(3)
H10B H 0.3020 0.3045 0.4710
O1 O 1.0880(3) -0.17309(18) 1.5431(2)
C16 C 1.1500(4) -0.20850(18) 1.6424(3)
C17 C 1.3032(4) -0.1961(2) 1.7031(3)
H11 H 1.3323 -0.1587 1.6488
H12 H 1.3480 -0.2534 1.7134
H13 H 1.3281 -0.1683 1.7863
C18 C 1.0865(5) -0.2636(3) 1.7111(4)
H14 H 0.9882 -0.2663 1.6624
H15 H 1.1047 -0.2379 1.7945
H16 H 1.1246 -0.3229 1.7217
loop_
_geom_bond_atom_site_label_1
_geom_bond_atom_site_label_2
_geom_bond_site_symmetry_1
_geom_bond_site_symmetry_2
S1 C3 1_555 1_555
C1 C3 1_555 1_555
N1 H1 1_555 1_555
C2 C3 1_555 1_555
C4 N1 1_555 1_555
B1 C1 1_555 1_555
C5 S1 1_555 1_555
C6 B1 1_555 1_555
C7 C2 1_555 1_555
H2 C7 1_555 1_555
C8 C6 1_555 1_555
H3 C8 1_555 1_555
C9 C4 1_555 1_555
H4 C9 1_555 1_555
C10 C7 1_555 1_555
H5 C10 1_555 1_555
C11 C8 1_555 1_555
H6 C11 1_555 1_555
C12 C9 1_555 1_555
H7 C12 1_555 1_555
C13 C11 1_555 1_555
H8 C13 1_555 1_555
C14 C6 1_555 1_555
H9 C14 1_555 1_555
C15 C13 1_555 1_555
H10 C15 1_555 1_555
O1 C16 1_555 1_555
C16 C17 1_555 1_555
C17 H11 1_555 1_555
H12 C17 1_555 1_555
H13 C17 1_555 1_555
C18 C16 1_555 1_555
H14 C18 1_555 1_555
H15 C18 1_555 1_555
H16 C18 1_555 1_555
S1B C3B 1_555 1_555
C1B C5 1_555 1_555
N1B H1B 1_555 1_555
C2B C3B 1_555 1_555
C3B C1B 1_555 1_555
C4B N1B 1_555 1_555
B1B C1B 1_555 1_555
C5B C1 1_555 1_555
C6B B1B 1_555 1_555
C7B C2B 1_555 1_555
H2B C7B 1_555 1_555
C8B C6B 1_555 1_555
H3B C8B 1_555 1_555
C9B C4B 1_555 1_555
H4B C9B 1_555 1_555
C10B C7B 1_555 1_555
H5B C10B 1_555 1_555
C11B C8B 1_555 1_555
H6B C11B 1_555 1_555
C12B C9B 1_555 1_555
H7B C12B 1_555 1_555
C13B C11B 1_555 1_555
H8B C13B 1_555 1_555
C14B C6B 1_555 1_555
H9B C14B 1_555 1_555
C15B C13B 1_555 1_555
H10B C15B 1_555 1_555
N1 B1 1_555 1_555
C2 C4 1_555 1_555
C5 C5B 1_555 1_555
C10 C12 1_555 1_555
C14 C15 1_555 1_555
S1B C5B 1_555 1_555
N1B B1B 1_555 1_555
C2B C4B 1_555 1_555
C10B C12B 1_555 1_555
C14B C15B 1_555 1_555

#END
