
#######################################################################
#
#                 Cambridge Crystallographic Data Centre
#                                CCDC 
#
#######################################################################
#
# If this CIF has been generated from an entry in the Cambridge 
# Structural Database, then it will include bibliographic, chemical, 
# crystal, experimental, refinement or atomic coordinate data resulting 
# from the CCDC's data processing and validation procedures.
#
#######################################################################

data_MUQZON
_chemical_formula_moiety         'C32 H26 O6,C6 H6'
_chemical_name_systematic        
"1,1',8,8'-Tetramethoxy-9,9'-bianthracenyl-10,10'(9H,9'H)-dione benzene solvate"
_symmetry_cell_setting           triclinic
_symmetry_space_group_name_H-M   'P -1'
_symmetry_Int_Tables_number      2
_space_group_name_Hall           '-P 1'
loop_
_symmetry_equiv_pos_site_id
_symmetry_equiv_pos_as_xyz
1 x,y,z
2 -x,-y,-z
_cell_length_a                   7.638(3)
_cell_length_b                   8.457(6)
_cell_length_c                   11.313(5)
_cell_angle_alpha                98.88(4)
_cell_angle_beta                 95.92(3)
_cell_angle_gamma                94.17(4)
_cell_volume                     715.222
_cell_formula_units_Z            1
_exptl_crystal_recrystallization_method benzene/hexane
loop_
_atom_site_label
_atom_site_type_symbol
_atom_site_fract_x
_atom_site_fract_y
_atom_site_fract_z
O1 O 0.5501(2) 0.85979(13) 1.11315(10)
O2 O 0.2885(2) 0.2442(2) 1.24963(11)
O3 O 0.2020(2) 0.52439(14) 0.80051(10)
C1 C 0.5160(2) 0.7650(2) 1.19677(15)
C2 C 0.5503(2) 0.8160(2) 1.3207(2)
H1 H 0.6035(2) 0.9214(2) 1.3512(2)
C3 C 0.5071(2) 0.7131(2) 1.3996(2)
H2 H 0.5331(2) 0.7477(2) 1.4840(2)
C4 C 0.4267(2) 0.5615(2) 1.3566(2)
H3 H 0.3943(2) 0.4924(2) 1.4110(2)
C5 C 0.0544(2) 0.2156(2) 1.0316(2)
H4 H 0.0224(2) 0.1460(2) 1.0858(2)
C6 C -0.0420(2) 0.2043(2) 0.9204(2)
H5 H -0.1408(2) 0.1266(2) 0.8980(2)
C7 C 0.0038(2) 0.3053(2) 0.8410(2)
H6 H -0.0642(2) 0.2972(2) 0.7648(2)
C8 C 0.1490(2) 0.4185(2) 0.87242(15)
C9 C 0.4153(2) 0.5448(2) 1.01803(14)
H7 H 0.4041(2) 0.6370(2) 0.97276(14)
C10 C 0.2966(2) 0.3491(2) 1.1866(2)
C11 C 0.1993(2) 0.3298(2) 1.0641(2)
C12 C 0.2503(2) 0.4310(2) 0.98473(14)
C13 C 0.4397(2) 0.6092(2) 1.15125(14)
C14 C 0.3932(2) 0.5097(2) 1.23281(15)
C15 C 0.6376(3) 1.0168(2) 1.1546(2)
H8 H 0.6536(3) 1.0713(2) 1.0856(2)
H9 H 0.7533(3) 1.0079(2) 1.1982(2)
H10 H 0.5660(3) 1.0790(2) 1.2086(2)
C16 C 0.1181(2) 0.5031(2) 0.6800(2)
H11 H 0.1679(2) 0.5863(2) 0.6385(2)
H12 H -0.0091(2) 0.5115(2) 0.6810(2)
H13 H 0.1378(2) 0.3969(2) 0.6377(2)
C9A C 0.5847(2) 0.4552(2) 0.98197(14)
H7A H 0.5959(2) 0.3630(2) 1.02724(14)
C12A C 0.7497(2) 0.5690(2) 1.01527(14)
C8A C 0.8510(2) 0.5815(2) 1.12758(15)
O3A O 0.7980(2) 0.47561(14) 1.19949(10)
C16A C 0.8819(2) 0.4969(2) 1.3200(2)
H11A H 0.8321(2) 0.4137(2) 1.3615(2)
H12A H 1.0091(2) 0.4885(2) 1.3190(2)
H13A H 0.8622(2) 0.6031(2) 1.3623(2)
C7A C 0.9962(2) 0.6947(2) 1.1590(2)
C6A C 1.0420(2) 0.7957(2) 1.0796(2)
C5A C 0.9456(2) 0.7844(2) 0.9684(2)
H4A H 0.9776(2) 0.8540(2) 0.9142(2)
C11A C 0.8007(2) 0.6702(2) 0.9359(2)
C10A C 0.7034(2) 0.6509(2) 0.8134(2)
O2A O 0.7115(2) 0.7558(2) 0.75037(11)
C14A C 0.6068(2) 0.4903(2) 0.76719(15)
C4A C 0.5733(2) 0.4385(2) 0.6434(2)
C3A C 0.4929(2) 0.2869(2) 0.6004(2)
C2A C 0.4497(2) 0.1840(2) 0.6793(2)
C1A C 0.4840(2) 0.2350(2) 0.80323(15)
O1A O 0.4499(2) 0.14021(13) 0.88685(10)
C15A C 0.3624(3) -0.0168(2) 0.8454(2)
H8A H 0.3464(3) -0.0713(2) 0.9144(2)
H9A H 0.2467(3) -0.0079(2) 0.8018(2)
H10A H 0.4340(3) -0.0790(2) 0.7914(2)
C13A C 0.5603(2) 0.3908(2) 0.84875(14)
H1A H 0.3965(2) 0.0786(2) 0.6488(2)
H2A H 0.4669(2) 0.2523(2) 0.5160(2)
H3A H 0.6057(2) 0.5076(2) 0.5890(2)
H5A H 1.1408(2) 0.8734(2) 1.1020(2)
H6A H 1.0642(2) 0.7028(2) 1.2352(2)
C17 C -0.0238(3) 0.8880(2) 0.5753(2)
H14 H -0.0397(3) 0.8108(2) 0.6269(2)
C18 C 0.1101(3) 0.8775(2) 0.5002(2)
H15 H 0.1856(3) 0.7930(2) 0.5005(2)
C19 C -0.1329(3) 1.0104(2) 0.5745(2)
H16 H -0.2243(3) 1.0176(2) 0.6255(2)
C19A C 0.1329(3) 0.9896(2) 0.4255(2)
C17A C 0.0238(3) 1.1120(2) 0.4247(2)
H14A H 0.0397(3) 1.1892(2) 0.3731(2)
C18A C -0.1101(3) 1.1225(2) 0.4998(2)
H15A H -0.1856(3) 1.2070(2) 0.4995(2)
H16A H 0.2243(3) 0.9824(2) 0.3745(2)
loop_
_geom_bond_atom_site_label_1
_geom_bond_atom_site_label_2
_geom_bond_site_symmetry_1
_geom_bond_site_symmetry_2
O1 C1 1_555 1_555
O2 C10 1_555 1_555
O3 C8 1_555 1_555
C1 C2 1_555 1_555
C2 H1 1_555 1_555
C3 C2 1_555 1_555
H2 C3 1_555 1_555
C4 C3 1_555 1_555
H3 C4 1_555 1_555
C5 H4 1_555 1_555
C6 C5 1_555 1_555
H5 C6 1_555 1_555
C7 C6 1_555 1_555
H6 C7 1_555 1_555
C8 C7 1_555 1_555
C9 H7 1_555 1_555
C10 C11 1_555 1_555
C11 C5 1_555 1_555
C12 C8 1_555 1_555
C13 C1 1_555 1_555
C14 C4 1_555 1_555
C15 O1 1_555 1_555
H8 C15 1_555 1_555
H9 C15 1_555 1_555
H10 C15 1_555 1_555
C16 O3 1_555 1_555
H11 C16 1_555 1_555
H12 C16 1_555 1_555
H13 C16 1_555 1_555
C17 H14 1_555 1_555
C18 C17 1_555 1_555
H15 C18 1_555 1_555
C19 C17 1_555 1_555
H16 C19 1_555 1_555
C9A C9 1_555 1_555
H7A C9A 1_555 1_555
C12A C9A 1_555 1_555
C8A C12A 1_555 1_555
O3A C8A 1_555 1_555
C16A O3A 1_555 1_555
H11A C16A 1_555 1_555
H12A C16A 1_555 1_555
H13A C16A 1_555 1_555
C7A C8A 1_555 1_555
C6A C7A 1_555 1_555
C5A C6A 1_555 1_555
H4A C5A 1_555 1_555
C11A C12A 1_555 1_555
C10A C11A 1_555 1_555
O2A C10A 1_555 1_555
C14A C10A 1_555 1_555
C4A C14A 1_555 1_555
C3A C4A 1_555 1_555
C2A C3A 1_555 1_555
C1A C2A 1_555 1_555
O1A C1A 1_555 1_555
C15A O1A 1_555 1_555
H8A C15A 1_555 1_555
H9A C15A 1_555 1_555
H10A C15A 1_555 1_555
C13A C9A 1_555 1_555
H1A C2A 1_555 1_555
H2A C3A 1_555 1_555
H3A C4A 1_555 1_555
H5A C6A 1_555 1_555
H6A C7A 1_555 1_555
C19A C18 1_555 1_555
C17A C19A 1_555 1_555
H14A C17A 1_555 1_555
C18A C19 1_555 1_555
H15A C18A 1_555 1_555
H16A C19A 1_555 1_555
C9 C12 1_555 1_555
C9 C13 1_555 1_555
C10 C14 1_555 1_555
C11 C12 1_555 1_555
C13 C14 1_555 1_555
C5A C11A 1_555 1_555
C14A C13A 1_555 1_555
C1A C13A 1_555 1_555
C17A C18A 1_555 1_555

#END
