
#######################################################################
#
#                 Cambridge Crystallographic Data Centre
#                                CCDC 
#
#######################################################################
#
# If this CIF has been generated from an entry in the Cambridge 
# Structural Database, then it will include bibliographic, chemical, 
# crystal, experimental, refinement or atomic coordinate data resulting 
# from the CCDC's data processing and validation procedures.
#
#######################################################################

data_MUSBIN
_chemical_formula_moiety         'C12 H8 N4 O1,C10 H10 O4'
_chemical_name_systematic        
"2,2'-(1,3-Phenylene)diacetic acid 4,4'-(1,3,4-oxadiazole-2,5-diyl)dipyridine"
_symmetry_cell_setting           monoclinic
_symmetry_space_group_name_H-M   'P 21/c'
_symmetry_Int_Tables_number      14
_space_group_name_Hall           '-P 2ybc'
loop_
_symmetry_equiv_pos_site_id
_symmetry_equiv_pos_as_xyz
1 x,y,z
2 -x,1/2+y,1/2-z
3 -x,-y,-z
4 x,1/2-y,1/2+z
_cell_length_a                   17.1528(10)
_cell_length_b                   13.4635(8)
_cell_length_c                   8.8010(6)
_cell_angle_alpha                90
_cell_angle_beta                 90.807(2)
_cell_angle_gamma                90
_cell_volume                     2032.27
_exptl_crystal_colour            colorless
_exptl_crystal_description       Block
_cell_formula_units_Z            4
loop_
_atom_site_label
_atom_site_type_symbol
_atom_site_fract_x
_atom_site_fract_y
_atom_site_fract_z
O1 O 0.52348(7) 0.46250(9) 0.21288(14)
C1 C 0.41959(10) 0.43470(14) 0.3910(2)
C2 C 0.47789(10) 0.39690(14) 0.2879(2)
N1 N 0.74313(9) 0.53244(12) -0.14447(19)
C3 C 0.62830(10) 0.44766(13) 0.0325(2)
C4 C 0.63890(11) 0.54936(14) 0.0305(2)
H1 H 0.6078 0.5908 0.0886
C5 C 0.56948(11) 0.40225(14) 0.1282(2)
C6 C 0.40571(11) 0.53531(14) 0.4077(2)
H2 H 0.4350 0.5818 0.3552
N2 N 0.30440(10) 0.50261(14) 0.58388(19)
N3 N 0.55377(10) 0.30949(12) 0.1479(2)
C7 C 0.67613(11) 0.38939(14) -0.0563(2)
H3 H 0.6701 0.3208 -0.0585
N4 N 0.49331(10) 0.30615(12) 0.2532(2)
C8 C 0.73253(11) 0.43449(14) -0.1409(2)
H4 H 0.7650 0.3947 -0.1987
C9 C 0.37532(12) 0.36965(15) 0.4753(2)
H5 H 0.3837 0.3015 0.4686
C10 C 0.31899(13) 0.40637(17) 0.5688(3)
H6 H 0.2895 0.3616 0.6245
C11 C 0.69661(12) 0.58802(15) -0.0598(2)
H7 H 0.7033 0.6565 -0.0615
C12 C 0.34738(12) 0.56517(16) 0.5039(2)
H8 H 0.3376 0.6328 0.5132
C13 C 0.01470(10) 0.73528(13) 0.7241(2)
H9 H 0.0114 0.6680 0.7007
O2 O -0.15212(8) 0.61892(10) 0.67448(19)
H10 H -0.1868 0.5954 0.7266
O3 O 0.18883(9) 0.56175(11) 0.7671(2)
H11 H 0.2220 0.5467 0.7051
O4 O -0.22218(8) 0.75466(11) 0.69913(19)
C14 C -0.16618(11) 0.71291(15) 0.6497(2)
C15 C -0.03900(10) 0.79956(14) 0.6589(2)
C16 C 0.07303(10) 0.76694(13) 0.8227(2)
C17 C 0.18859(11) 0.65735(16) 0.7858(2)
O5 O 0.23376(10) 0.71077(12) 0.7235(2)
C18 C 0.12868(11) 0.69338(16) 0.8944(2)
H12 H 0.1547 0.7244 0.9807
H13 H 0.0994 0.6370 0.9317
C19 C -0.10428(11) 0.76183(17) 0.5571(2)
H14 H -0.1268 0.8168 0.5004
H15 H -0.0837 0.7145 0.4849
C20 C 0.07833(12) 0.86676(15) 0.8539(3)
H16 H 0.1174 0.8902 0.9190
C21 C -0.03242(13) 0.89886(16) 0.6933(3)
H17 H -0.0677 0.9440 0.6514
C22 C 0.02612(14) 0.93171(16) 0.7893(4)
H18 H 0.0303 0.9992 0.8106
loop_
_geom_bond_atom_site_label_1
_geom_bond_atom_site_label_2
_geom_bond_site_symmetry_1
_geom_bond_site_symmetry_2
O1 C2 1_555 1_555
C1 C2 1_555 1_555
C2 N4 1_555 1_555
N1 C8 1_555 1_555
C3 C4 1_555 1_555
C4 H1 1_555 1_555
C5 O1 1_555 1_555
C6 C1 1_555 1_555
H2 C6 1_555 1_555
N2 C10 1_555 1_555
N3 C5 1_555 1_555
C7 C3 1_555 1_555
H3 C7 1_555 1_555
N4 N3 1_555 1_555
C8 C7 1_555 1_555
H4 C8 1_555 1_555
C9 C1 1_555 1_555
H5 C9 1_555 1_555
C10 C9 1_555 1_555
H6 C10 1_555 1_555
C11 N1 1_555 1_555
H7 C11 1_555 1_555
C12 C6 1_555 1_555
H8 C12 1_555 1_555
C13 H9 1_555 1_555
O2 H10 1_555 1_555
O3 H11 1_555 1_555
O4 C14 1_555 1_555
C14 O2 1_555 1_555
C15 C13 1_555 1_555
C16 C13 1_555 1_555
C17 O3 1_555 1_555
O5 C17 1_555 1_555
C18 C16 1_555 1_555
H12 C18 1_555 1_555
H13 C18 1_555 1_555
C19 C14 1_555 1_555
H14 C19 1_555 1_555
H15 C19 1_555 1_555
C20 C16 1_555 1_555
H16 C20 1_555 1_555
C21 C15 1_555 1_555
H17 C21 1_555 1_555
C22 C20 1_555 1_555
H18 C22 1_555 1_555
C3 C5 1_555 1_555
C4 C11 1_555 1_555
N2 C12 1_555 1_555
C15 C19 1_555 1_555
C17 C18 1_555 1_555
C21 C22 1_555 1_555

#END
