
#######################################################################
#
#                 Cambridge Crystallographic Data Centre
#                                CCDC 
#
#######################################################################
#
# If this CIF has been generated from an entry in the Cambridge 
# Structural Database, then it will include bibliographic, chemical, 
# crystal, experimental, refinement or atomic coordinate data resulting 
# from the CCDC's data processing and validation procedures.
#
#######################################################################

data_MUSGIS
_chemical_formula_moiety         'C20 H15 N2 O3 1+,N1 O3 1-'
_chemical_name_systematic        
"7a-hydroxy-12-oxo-7-phenyl-7a,12-dihydro-7H-pyrido[1',2':2,3][1,2,4]oxadiazino[5,4-a]isoindol-5-ium nitrate"
_symmetry_cell_setting           monoclinic
_symmetry_space_group_name_H-M   'P 21/c'
_symmetry_Int_Tables_number      14
_space_group_name_Hall           '-P 2ybc'
loop_
_symmetry_equiv_pos_site_id
_symmetry_equiv_pos_as_xyz
1 x,y,z
2 -x,1/2+y,1/2-z
3 -x,-y,-z
4 x,1/2-y,1/2+z
_cell_length_a                   17.4786(13)
_cell_length_b                   8.0506(4)
_cell_length_c                   14.1032(11)
_cell_angle_alpha                90
_cell_angle_beta                 112.673(9)
_cell_angle_gamma                90
_cell_volume                     1831.14
_cell_formula_units_Z            4
loop_
_atom_site_label
_atom_site_type_symbol
_atom_site_fract_x
_atom_site_fract_y
_atom_site_fract_z
C1 C 0.4476(2) 0.7547(4) 0.5030(2)
H1 H 0.4302 0.8043 0.5508
C2 C 0.5274(2) 0.7653(4) 0.5135(3)
H2 H 0.5653 0.8241 0.5682
C3 C 0.55268(19) 0.6893(4) 0.4434(2)
H3 H 0.6079 0.6956 0.4511
C4 C 0.49712(17) 0.6047(4) 0.3628(2)
H4 H 0.5147 0.5532 0.3157
C5 C 0.41399(15) 0.5943(3) 0.35008(18)
C6 C 0.35307(16) 0.5033(3) 0.17154(19)
C7 C 0.26709(16) 0.4737(3) 0.10252(18)
C8 C 0.23559(19) 0.4537(4) -0.0028(2)
H5 H 0.2696 0.4614 -0.0397
C9 C 0.1525(2) 0.4222(4) -0.0510(2)
H6 H 0.1296 0.4075 -0.1219
C10 C 0.10216(19) 0.4118(4) 0.0043(2)
H7 H 0.0459 0.3903 -0.0303
C11 C 0.13352(16) 0.4326(3) 0.1098(2)
H8 H 0.0995 0.4247 0.1466
C12 C 0.21741(15) 0.4657(3) 0.15867(18)
C13 C 0.26863(14) 0.4871(3) 0.27185(17)
C14 C 0.24875(15) 0.6434(3) 0.32009(18)
H9 H 0.2494 0.7406 0.2786
C15 C 0.16930(17) 0.6404(3) 0.3373(2)
C16 C 0.10200(18) 0.7293(4) 0.2725(2)
H10 H 0.1065 0.7903 0.2188
C17 C 0.0277(2) 0.7283(4) 0.2866(3)
H11 H -0.0175 0.7876 0.2420
C18 C 0.0208(2) 0.6411(5) 0.3652(3)
H12 H -0.0291 0.6399 0.3743
C19 C 0.0881(3) 0.5543(5) 0.4316(3)
H13 H 0.0837 0.4961 0.4861
C20 C 0.1621(2) 0.5529(4) 0.4177(3)
H14 H 0.2071 0.4932 0.4625
N1 N 0.39283(14) 0.6701(3) 0.42118(17)
N2 N 0.35246(12) 0.5150(2) 0.27124(15)
O1 O 0.31380(12) 0.6597(2) 0.42200(14)
O2 O 0.41364(12) 0.5170(3) 0.15148(15)
O3 O 0.26724(11) 0.3513(2) 0.33207(14)
H15 H 0.273(2) 0.266(5) 0.303(3)
N3 N 0.67796(18) 0.5156(3) 0.27611(19)
O4 O 0.6625(2) 0.3819(3) 0.3052(2)
O5 O 0.6548(3) 0.6399(4) 0.3003(4)
O6 O 0.7146(3) 0.5309(4) 0.2198(3)
loop_
_geom_bond_atom_site_label_1
_geom_bond_atom_site_label_2
_geom_bond_site_symmetry_1
_geom_bond_site_symmetry_2
C1 H1 1_555 1_555
C2 C1 1_555 1_555
H2 C2 1_555 1_555
C3 C2 1_555 1_555
H3 C3 1_555 1_555
C4 C3 1_555 1_555
H4 C4 1_555 1_555
C5 C4 1_555 1_555
C6 C7 1_555 1_555
C7 C8 1_555 1_555
C8 H5 1_555 1_555
C9 C8 1_555 1_555
H6 C9 1_555 1_555
C10 C9 1_555 1_555
H7 C10 1_555 1_555
C11 C10 1_555 1_555
H8 C11 1_555 1_555
C12 C7 1_555 1_555
C13 C12 1_555 1_555
C14 C13 1_555 1_555
H9 C14 1_555 1_555
C15 C14 1_555 1_555
C16 C15 1_555 1_555
H10 C16 1_555 1_555
C17 C16 1_555 1_555
H11 C17 1_555 1_555
C18 C17 1_555 1_555
H12 C18 1_555 1_555
C19 C18 1_555 1_555
H13 C19 1_555 1_555
C20 C15 1_555 1_555
H14 C20 1_555 1_555
N1 C1 1_555 1_555
N2 C5 1_555 1_555
O1 C14 1_555 1_555
O2 C6 1_555 1_555
O3 C13 1_555 1_555
H15 O3 1_555 1_555
N3 O4 1_555 1_555
O5 N3 1_555 1_555
O6 N3 1_555 1_555
C5 N1 1_555 1_555
C6 N2 1_555 1_555
C11 C12 1_555 1_555
C13 N2 1_555 1_555
C19 C20 1_555 1_555
N1 O1 1_555 1_555

#END
