
#######################################################################
#
#                 Cambridge Crystallographic Data Centre
#                                CCDC 
#
#######################################################################
#
# If this CIF has been generated from an entry in the Cambridge 
# Structural Database, then it will include bibliographic, chemical, 
# crystal, experimental, refinement or atomic coordinate data resulting 
# from the CCDC's data processing and validation procedures.
#
#######################################################################

data_MUTDIP
_chemical_name_common            D-Xylo-naphthylimidazole
_chemical_formula_moiety         'C15 H16 N2 O4'
_chemical_name_systematic        
1-(1H-Naphtho[2,3-d]imidazol-2-yl)butane-1,2,3,4-tetrol
_symmetry_cell_setting           monoclinic
_symmetry_space_group_name_H-M   'C 2'
_symmetry_Int_Tables_number      5
_space_group_name_Hall           'C 2y'
loop_
_symmetry_equiv_pos_site_id
_symmetry_equiv_pos_as_xyz
1 x,y,z
2 -x,y,-z
3 1/2+x,1/2+y,z
4 1/2-x,1/2+y,-z
_cell_length_a                   52.2518(15)
_cell_length_b                   7.1303(2)
_cell_length_c                   6.9994(2)
_cell_angle_alpha                90
_cell_angle_beta                 94.6960(10)
_cell_angle_gamma                90
_cell_volume                     2599.02
_exptl_crystal_colour            'pale brown'
_exptl_crystal_description       prism
_cell_formula_units_Z            8
loop_
_atom_site_label
_atom_site_type_symbol
_atom_site_fract_x
_atom_site_fract_y
_atom_site_fract_z
C1 C 0.15591(10) 0.8556(8) 0.8592(8)
C2 C 0.18146(10) 0.8795(8) 0.8406(8)
H1 H 0.1915 0.7833 0.7970
C3 C 0.19208(11) 1.0580(8) 0.8906(8)
C4 C 0.21855(10) 1.0956(8) 0.8760(8)
H2 H 0.2288 1.0032 0.8283
C5 C 0.22921(11) 1.2634(9) 0.9302(9)
H3 H 0.2466 1.2841 0.9209
C6 C 0.21390(11) 1.4053(9) 1.0002(8)
H4 H 0.2213 1.5194 1.0382
C7 C 0.18811(11) 1.3768(9) 1.0129(8)
H5 H 0.1782 1.4733 1.0568
C8 C 0.17630(10) 1.2019(8) 0.9600(7)
C9 C 0.14988(10) 1.1742(8) 0.9726(8)
H6 H 0.1394 1.2698 1.0124
C10 C 0.13993(10) 0.9975(8) 0.9232(8)
C11 C 0.11574(11) 0.7561(8) 0.8736(8)
C12 C 0.09375(10) 0.6224(8) 0.8745(8)
H7 H 0.0903 0.5975 1.0078
C13 C 0.06946(10) 0.7075(8) 0.7695(8)
H8 H 0.0685 0.8385 0.8106
C14 C 0.04481(10) 0.6119(8) 0.8203(8)
H9 H 0.0449 0.6079 0.9603
C15 C 0.02130(10) 0.7231(9) 0.7420(9)
H10 H 0.0229 0.8516 0.7868
H11 H 0.0206 0.7247 0.6031
N1 N 0.13940(8) 0.7005(6) 0.8295(7)
H23 H 0.1410 0.5839 0.7893
N2 N 0.11487(8) 0.9309(6) 0.9289(7)
O1 O 0.10085(7) 0.4523(5) 0.7896(5)
H25 H 0.0889 0.3777 0.7889
O2 O 0.07157(7) 0.7087(5) 0.5667(5)
H26 H 0.0589 0.6576 0.5123
O3 O 0.04325(8) 0.4235(5) 0.7499(6)
H27 H 0.0559 0.3646 0.7928
O4 O -0.00198(7) 0.6436(6) 0.8012(6)
H28 H -0.0016 0.6444 0.9185
C16 C 0.14828(10) 0.3689(8) 0.4481(8)
C17 C 0.17439(11) 0.3773(8) 0.4978(8)
H12 H 0.1835 0.2749 0.5500
C18 C 0.18654(11) 0.5517(8) 0.4645(8)
C19 C 0.21350(11) 0.5768(9) 0.5090(8)
H13 H 0.2230 0.4782 0.5652
C20 C 0.22565(12) 0.7392(9) 0.4723(9)
H14 H 0.2433 0.7506 0.5013
C21 C 0.21121(11) 0.8919(9) 0.3890(8)
H15 H 0.2195 1.0033 0.3627
C22 C 0.18539(11) 0.8766(9) 0.3473(8)
H16 H 0.1763 0.9784 0.2937
C23 C 0.17196(10) 0.7076(8) 0.3839(8)
C24 C 0.14495(10) 0.6926(8) 0.3377(8)
H17 H 0.1353 0.7941 0.2888
C25 C 0.13359(11) 0.5206(8) 0.3685(8)
C26 C 0.10753(11) 0.2901(8) 0.3794(8)
C27 C 0.08440(10) 0.1626(8) 0.3653(8)
H18 H 0.0751 0.1773 0.4803
C28 C 0.06662(10) 0.2147(8) 0.1877(7)
H19 H 0.0631 0.3493 0.1958
C29 C 0.04098(10) 0.1143(8) 0.1779(8)
H20 H 0.0440 -0.0212 0.1710
C30 C 0.02581(11) 0.1552(9) 0.3489(8)
H21 H 0.0083 0.1105 0.3222
H22 H 0.0334 0.0875 0.4597
N3 N 0.13102(8) 0.2201(7) 0.4524(6)
H24 H 0.1364 0.0979 0.5115
N4 N 0.10781(9) 0.4667(7) 0.3328(7)
O5 O 0.09352(8) -0.0242(5) 0.3558(6)
H29 H 0.0813 -0.0968 0.3480
O6 O 0.07914(7) 0.1848(5) 0.0154(5)
H30 H 0.0930 0.2397 0.0232
O7 O 0.02623(7) 0.1731(7) 0.0061(5)
H31 H 0.0346 0.2484 -0.0518
O8 O 0.02532(8) 0.3493(6) 0.3922(6)
H32 H 0.0170 0.4051 0.3055
loop_
_geom_bond_atom_site_label_1
_geom_bond_atom_site_label_2
_geom_bond_site_symmetry_1
_geom_bond_site_symmetry_2
C1 C2 1_555 1_555
C2 H1 1_555 1_555
C3 C2 1_555 1_555
C4 C3 1_555 1_555
H2 C4 1_555 1_555
C5 C4 1_555 1_555
H3 C5 1_555 1_555
C6 C5 1_555 1_555
H4 C6 1_555 1_555
C7 C6 1_555 1_555
H5 C7 1_555 1_555
C8 C3 1_555 1_555
C9 C8 1_555 1_555
H6 C9 1_555 1_555
C10 C1 1_555 1_555
C11 C12 1_555 1_555
C12 H7 1_555 1_555
C13 C12 1_555 1_555
H8 C13 1_555 1_555
C14 C13 1_555 1_555
H9 C14 1_555 1_555
C15 C14 1_555 1_555
H10 C15 1_555 1_555
H11 C15 1_555 1_555
C16 C17 1_555 1_555
C17 H12 1_555 1_555
C18 C17 1_555 1_555
C19 C18 1_555 1_555
H13 C19 1_555 1_555
C20 C19 1_555 1_555
H14 C20 1_555 1_555
C21 C20 1_555 1_555
H15 C21 1_555 1_555
C22 C21 1_555 1_555
H16 C22 1_555 1_555
C23 C18 1_555 1_555
C24 C23 1_555 1_555
H17 C24 1_555 1_555
C25 C16 1_555 1_555
C26 C27 1_555 1_555
C27 H18 1_555 1_555
C28 C27 1_555 1_555
H19 C28 1_555 1_555
C29 C28 1_555 1_555
H20 C29 1_555 1_555
C30 C29 1_555 1_555
H21 C30 1_555 1_555
H22 C30 1_555 1_555
N1 C1 1_555 1_555
H23 N1 1_555 1_555
N2 C10 1_555 1_555
N3 C16 1_555 1_555
H24 N3 1_555 1_555
N4 C25 1_555 1_555
O1 C12 1_555 1_555
H25 O1 1_555 1_555
O2 C13 1_555 1_555
H26 O2 1_555 1_555
O3 C14 1_555 1_555
H27 O3 1_555 1_555
O4 C15 1_555 1_555
H28 O4 1_555 1_555
O5 C27 1_555 1_555
H29 O5 1_555 1_555
O6 C28 1_555 1_555
H30 O6 1_555 1_555
O7 C29 1_555 1_555
H31 O7 1_555 1_555
O8 C30 1_555 1_555
H32 O8 1_555 1_555
C7 C8 1_555 1_555
C9 C10 1_555 1_555
C11 N1 1_555 1_555
C11 N2 1_555 1_555
C22 C23 1_555 1_555
C24 C25 1_555 1_555
C26 N3 1_555 1_555
C26 N4 1_555 1_555

#END
