
#######################################################################
#
#                 Cambridge Crystallographic Data Centre
#                                CCDC 
#
#######################################################################
#
# If this CIF has been generated from an entry in the Cambridge 
# Structural Database, then it will include bibliographic, chemical, 
# crystal, experimental, refinement or atomic coordinate data resulting 
# from the CCDC's data processing and validation procedures.
#
#######################################################################

data_MUVKOE
_chemical_formula_moiety         'C66 Cl10,0.75(C7 H8)'
_chemical_name_systematic        'Decachloro-C66fullerene toluene solvate'
_symmetry_cell_setting           triclinic
_symmetry_space_group_name_H-M   'P -1'
_symmetry_Int_Tables_number      2
_space_group_name_Hall           '-P 1'
loop_
_symmetry_equiv_pos_site_id
_symmetry_equiv_pos_as_xyz
1 x,y,z
2 -x,-y,-z
_cell_length_a                   12.3298(3)
_cell_length_b                   18.7616(5)
_cell_length_c                   19.4956(5)
_cell_angle_alpha                96.637(2)
_cell_angle_beta                 100.007(2)
_cell_angle_gamma                100.282(2)
_cell_volume                     4319.62
_cell_formula_units_Z            4
loop_
_atom_site_label
_atom_site_type_symbol
_atom_site_fract_x
_atom_site_fract_y
_atom_site_fract_z
C1 C 0.5910(7) 1.2614(5) 0.2815(4)
C3 C 0.5427(7) 1.1367(4) 0.2259(4)
C5 C 0.6761(7) 1.2494(4) 0.2328(4)
C7 C 0.4608(7) 1.0700(4) 0.1898(5)
C9 C 0.6555(10) 1.1616(7) 0.2071(6)
C25 C 0.5025(5) 1.1887(3) 0.2582(3)
C27 C 0.3962(5) 1.2065(3) 0.2482(3)
C31 C 0.5382(5) 1.1036(3) 0.0814(3)
C34 C 0.4759(6) 1.3889(3) -0.0085(3)
C37 C 0.1797(6) 1.3560(4) -0.0219(4)
C38 C 0.3993(5) 1.0684(3) -0.0288(4)
C39 C 0.5013(5) 1.1126(3) 0.0083(3)
C41 C 0.0608(5) 1.1446(4) 0.0680(4)
C44 C 0.0667(6) 1.1325(4) -0.0589(3)
C46 C 0.4703(6) 1.2738(4) -0.0844(3)
C48 C 0.6449(5) 1.2800(3) 0.1643(3)
C49 C 0.4784(5) 1.1989(4) -0.0770(3)
C51 C 0.1708(5) 1.0571(4) 0.0952(4)
C56 C 0.3734(6) 1.1532(4) -0.1130(3)
C58 C 0.3099(5) 1.3033(3) 0.2099(3)
C63 C 0.5966(5) 1.3141(3) 0.0290(3)
C69 C 0.5275(6) 1.3303(3) -0.0314(3)
C72 C 0.0589(5) 1.2173(4) 0.0695(3)
C73 C 0.2149(6) 1.0690(4) -0.0859(4)
C74 C 0.4643(6) 1.0649(3) 0.1145(3)
C75 C 0.5420(5) 1.1816(3) -0.0163(3)
C77 C 0.5931(5) 1.3652(3) 0.0889(4)
C78 C 0.6442(5) 1.1537(3) 0.1250(3)
C81 C 0.2124(5) 1.2506(3) 0.1774(3)
C82 C 0.2872(6) 1.4041(4) 0.0062(4)
C83 C 0.6060(5) 1.3456(4) 0.1566(3)
C85 C 0.5143(6) 1.4092(3) 0.0663(4)
C89 C 0.1439(6) 1.1166(4) -0.1036(4)
C90 C 0.3645(6) 1.3876(4) -0.0392(4)
C91 C 0.1848(6) 1.1817(4) -0.1298(3)
C92 C 0.2113(5) 1.1743(4) 0.1770(3)
C93 C 0.2729(6) 1.0432(4) 0.1241(4)
C94 C 0.3311(6) 1.3816(3) 0.1946(3)
C96 C 0.0655(5) 1.1013(4) 0.0036(4)
C97 C 0.3328(5) 1.0891(4) -0.0888(3)
C100 C 0.6394(5) 1.2290(3) 0.1083(3)
C101 C 0.5341(5) 1.3660(4) 0.2023(3)
C102 C 0.4487(6) 1.4001(4) 0.1772(3)
C104 C 0.3513(6) 1.0330(3) 0.0793(4)
C105 C 0.3222(6) 1.0306(4) 0.0084(4)
C107 C 0.3579(6) 1.2745(4) -0.1184(3)
C108 C 0.1177(5) 1.3242(4) 0.0235(3)
C109 C 0.1585(5) 1.3409(4) 0.0982(3)
C114 C 0.2561(5) 1.3879(3) 0.1255(3)
C118 C 0.0585(5) 1.2498(4) 0.0059(3)
C122 C 0.1158(5) 1.2749(4) 0.1328(3)
C123 C 0.2099(6) 1.0347(4) -0.0234(4)
C125 C 0.1179(5) 1.1157(4) 0.1303(4)
C126 C 0.4395(6) 1.4232(3) 0.1092(4)
C127 C 0.1378(6) 1.0506(4) 0.0208(4)
C128 C 0.2968(6) 1.1994(4) -0.1361(3)
C129 C 0.3276(5) 1.0753(4) 0.1991(4)
C130 C 0.4012(5) 1.2799(3) 0.2458(3)
C132 C 0.0600(5) 1.2075(4) -0.0573(3)
C133 C 0.3054(5) 1.1526(4) 0.2113(4)
C135 C 0.3049(6) 1.3297(4) -0.0950(3)
C136 C 0.6047(5) 1.2414(3) 0.0372(3)
C137 C 0.1315(6) 1.2386(4) -0.1035(3)
C138 C 0.3240(6) 1.4193(3) 0.0783(4)
C139 C 0.5213(5) 1.3235(3) 0.2626(3)
C141 C 0.1894(6) 1.3102(4) -0.0864(3)
Cl1 Cl 0.4995(2) 0.98895(11) 0.22010(13)
Cl3 Cl 0.81658(17) 1.29210(13) 0.27225(11)
Cl5 Cl 0.65047(17) 1.26497(12) 0.37155(10)
Cl15 Cl 0.5436(3) 1.39232(18) 0.34116(14)
Cl17 Cl 0.2824(3) 1.02258(14) 0.26091(14)
Cl20 Cl 0.75908(13) 1.12152(10) 0.25341(9)
Cl21 Cl 0.01856(13) 1.07962(10) 0.18348(10)
Cl24 Cl 0.30599(14) 1.44406(8) 0.26531(8)
Cl25 Cl 0.01660(14) 1.29454(11) 0.18807(9)
Cl26 Cl 0.76641(13) 1.12697(10) 0.09800(9)
C11 C 1.1105(6) 0.6312(5) 0.3493(4)
C13 C 1.0716(5) 0.6924(4) 0.3182(3)
C15 C 0.9727(6) 0.6718(6) 0.2751(4)
C17 C 0.9291(6) 0.5917(4) 0.2584(4)
C19 C 1.1145(7) 0.7710(4) 0.3486(4)
C21 C 1.0015(6) 0.5657(4) 0.3195(4)
C23 C 0.9451(5) 0.5622(3) 0.3814(3)
C24 C 1.0830(5) 0.8031(4) 0.5629(3)
C26 C 0.7974(5) 0.5847(3) 0.2598(3)
C28 C 1.0350(5) 0.8710(3) 0.3956(3)
C29 C 0.9395(5) 0.9242(3) 0.4813(3)
C30 C 0.5439(5) 0.6601(3) 0.3584(3)
C32 C 0.6807(5) 0.5372(3) 0.4491(4)
C33 C 0.7585(5) 0.8968(3) 0.4141(3)
C35 C 0.8834(5) 0.7132(3) 0.2709(3)
C36 C 0.8345(5) 0.8909(3) 0.3613(3)
C40 C 0.6849(5) 0.5673(3) 0.5212(3)
C42 C 0.5466(5) 0.7319(3) 0.3768(3)
C43 C 0.5418(5) 0.7134(4) 0.4995(3)
C45 C 0.8261(5) 0.5376(3) 0.3774(3)
C47 C 0.6154(5) 0.6156(4) 0.5367(3)
C50 C 0.9651(6) 0.8819(4) 0.5958(3)
C52 C 1.0173(5) 0.6710(3) 0.5581(3)
C53 C 0.7704(6) 0.6912(4) 0.6272(3)
C54 C 1.0870(5) 0.8601(3) 0.5203(3)
C55 C 0.8006(5) 0.5827(4) 0.5570(3)
C57 C 1.0105(5) 0.9051(3) 0.5366(3)
C59 C 0.9507(6) 0.7621(4) 0.6356(3)
C60 C 0.5445(5) 0.7602(4) 0.4482(3)
C61 C 0.5980(5) 0.6312(3) 0.2996(3)
C62 C 0.5443(5) 0.6125(3) 0.4105(3)
C64 C 0.6499(5) 0.5704(3) 0.3307(3)
C65 C 0.8439(5) 0.6431(4) 0.6076(3)
C66 C 1.0871(5) 0.7315(3) 0.5354(3)
C67 C 0.9015(5) 0.7859(3) 0.3016(3)
C68 C 0.6731(5) 0.8595(3) 0.5337(3)
C70 C 0.6120(5) 0.5601(3) 0.3945(3)
C71 C 0.6103(5) 0.7916(3) 0.3433(3)
C76 C 0.7824(6) 0.9049(3) 0.5433(3)
C79 C 0.9508(5) 0.9060(3) 0.4090(3)
C80 C 0.9738(5) 0.6046(3) 0.5074(3)
C84 C 1.1007(5) 0.8456(3) 0.4511(3)
C86 C 1.1200(5) 0.7212(3) 0.4665(3)
C87 C 1.1202(5) 0.6442(3) 0.4331(3)
C88 C 0.9529(5) 0.6872(4) 0.6092(3)
C95 C 0.8554(6) 0.8827(3) 0.6001(3)
C98 C 1.1269(5) 0.7778(3) 0.4277(3)
C99 C 0.6555(5) 0.8519(3) 0.4051(3)
C103 C 0.6109(5) 0.8333(3) 0.4651(3)
C106 C 0.6597(5) 0.6784(4) 0.5916(3)
C110 C 0.8238(5) 0.9225(3) 0.4836(3)
C111 C 1.0127(5) 0.8186(4) 0.6129(3)
C112 C 1.0137(5) 0.5968(3) 0.4427(3)
C113 C 1.0248(5) 0.8271(3) 0.3246(3)
C115 C 0.7920(5) 0.5322(3) 0.4411(3)
C116 C 0.8367(6) 0.7648(4) 0.6447(3)
C117 C 0.6746(6) 0.8104(4) 0.5855(3)
C119 C 0.7885(6) 0.8239(4) 0.6256(3)
C120 C 0.8681(6) 0.5632(3) 0.5070(3)
C121 C 0.6935(5) 0.6895(3) 0.2886(3)
C124 C 0.7063(5) 0.7641(3) 0.3141(3)
C131 C 0.7838(5) 0.6649(3) 0.2656(3)
C134 C 0.6119(5) 0.7390(4) 0.5687(3)
C140 C 0.8114(5) 0.8125(3) 0.3211(3)
C142 C 0.5430(5) 0.6382(4) 0.4800(3)
Cl7 Cl 1.06358(17) 0.87615(12) 0.25868(10)
Cl9 Cl 0.7139(3) 0.52945(11) 0.17956(10)
Cl11 Cl 0.95872(15) 0.56122(10) 0.17471(9)
Cl13 Cl 1.25031(15) 0.80261(11) 0.32684(10)
Cl19 Cl 1.03342(16) 0.47746(10) 0.29641(10)
Cl22 Cl 1.23436(13) 0.61349(9) 0.32134(9)
Cl23 Cl 0.81924(14) 0.95449(8) 0.29910(9)
Cl27 Cl 0.49387(12) 0.60191(8) 0.21860(8)
Cl28 Cl 0.51888(13) 0.81933(9) 0.27198(8)
Cl29 Cl 1.24225(13) 0.61663(9) 0.47912(9)
C154 C 0.7522(5) 0.5556(3) 0.3195(3)
C145 C 1.2351(11) 0.7987(7) 0.1125(7)
H3 H 1.2164 0.8257 0.0748
H4 H 1.3133 0.8147 0.1337
H5 H 1.1904 0.8070 0.1473
C146 C 1.1614(7) 0.5676(3) 0.0368(5)
H6 H 1.1446 0.5175 0.0210
C147 C 1.2074(7) 0.5941(4) 0.1074(4)
H7 H 1.2214 0.5616 0.1388
C148 C 1.2324(7) 0.6691(4) 0.1309(3)
H8 H 1.2632 0.6868 0.1782
C149 C 1.2114(6) 0.7176(3) 0.0839(4)
C150 C 1.1654(6) 0.6912(4) 0.0133(3)
H9 H 1.1513 0.7237 -0.0181
C151 C 1.1404(6) 0.6162(4) -0.0102(3)
H10 H 1.1096 0.5985 -0.0575
C2? C 0.4548(17) 1.0985(11) 0.2468(11)
C4? C 0.5987(13) 1.2041(13) 0.2375(12)
C6? C 0.534(2) 1.0742(12) 0.1962(12)
C8? C 0.6194(17) 1.2840(12) 0.2392(13)
C10? C 0.628(3) 1.1419(19) 0.206(2)
C12? C 1.141(4) 0.668(3) 0.356(3)
C14? C 1.022(3) 0.642(2) 0.311(2)
C16? C 0.995(4) 0.699(2) 0.283(3)
C18? C 1.075(3) 0.767(2) 0.3002(16)
C20? C 0.914(3) 0.574(3) 0.301(2)
C22? C 1.157(4) 0.750(2) 0.362(2)
C143? C 0.4053(10) 0.9494(7) 0.4763(6)
H1? H 0.3393 0.9145 0.4597
C144? C 0.4634(10) 0.9748(7) 0.4272(6)
H2? H 0.4379 0.9572 0.3794
Cl2? Cl 0.7632(5) 1.3184(3) 0.2960(3)
Cl4? Cl 0.5688(6) 0.9891(3) 0.2088(3)
Cl6? Cl 0.4869(5) 1.0694(3) 0.3302(3)
Cl8? Cl 0.7526(17) 0.5345(12) 0.1747(7)
Cl10? Cl 1.0360(10) 0.9048(6) 0.2706(6)
Cl12? Cl 1.1416(8) 0.7785(5) 0.2258(5)
Cl14? Cl 0.9685(9) 0.4961(6) 0.2602(6)
Cl16? Cl 0.2441(7) 1.0277(5) 0.2595(4)
Cl18? Cl 0.5719(8) 1.3808(5) 0.3434(5)
Cl30? Cl 1.3033(9) 0.7870(5) 0.3696(6)
C152? C 0.5633(11) 1.0285(7) 0.4512(7)
C153? C 0.6226(19) 1.0592(12) 0.4010(12)
H11? H 0.6886 1.0941 0.4253
H12? H 0.6442 1.0208 0.3726
H13? H 0.4252 0.9169 0.6288
loop_
_geom_bond_atom_site_label_1
_geom_bond_atom_site_label_2
_geom_bond_site_symmetry_1
_geom_bond_site_symmetry_2
C1 C5 1_555 1_555
C3 C7 1_555 1_555
C5 C9 1_555 1_555
C7 C74 1_555 1_555
C9 C3 1_555 1_555
C11 C13 1_555 1_555
C13 C15 1_555 1_555
C15 C17 1_555 1_555
C17 C21 1_555 1_555
C19 C13 1_555 1_555
C21 C11 1_555 1_555
C23 C21 1_555 1_555
C24 C54 1_555 1_555
C25 C1 1_555 1_555
C26 C17 1_555 1_555
C27 C25 1_555 1_555
C28 C79 1_555 1_555
C29 C57 1_555 1_555
C30 C42 1_555 1_555
C31 C39 1_555 1_555
C32 C40 1_555 1_555
C33 C36 1_555 1_555
C34 C69 1_555 1_555
C35 C15 1_555 1_555
C36 C79 1_555 1_555
C37 C82 1_555 1_555
C38 C39 1_555 1_555
C39 C75 1_555 1_555
C40 C47 1_555 1_555
C41 C72 1_555 1_555
C42 C60 1_555 1_555
C43 C60 1_555 1_555
C44 C89 1_555 1_555
C45 C23 1_555 1_555
C46 C49 1_555 1_555
C47 C106 1_555 1_555
C48 C5 1_555 1_555
C49 C56 1_555 1_555
C50 C57 1_555 1_555
C51 C93 1_555 1_555
C52 C66 1_555 1_555
C53 C65 1_555 1_555
C54 C57 1_555 1_555
C55 C40 1_555 1_555
C56 C97 1_555 1_555
C58 C81 1_555 1_555
C59 C88 1_555 1_555
C60 C103 1_555 1_555
C61 C30 1_555 1_555
C62 C30 1_555 1_555
C63 C69 1_555 1_555
C64 C61 1_555 1_555
C65 C55 1_555 1_555
C66 C24 1_555 1_555
C67 C35 1_555 1_555
C68 C76 1_555 1_555
C69 C46 1_555 1_555
C70 C32 1_555 1_555
C71 C42 1_555 1_555
C72 C118 1_555 1_555
C73 C89 1_555 1_555
C74 C31 1_555 1_555
C75 C49 1_555 1_555
C76 C95 1_555 1_555
C77 C63 1_555 1_555
C78 C9 1_555 1_555
C79 C29 1_555 1_555
C80 C52 1_555 1_555
C81 C92 1_555 1_555
C82 C90 1_555 1_555
C83 C48 1_555 1_555
C84 C28 1_555 1_555
C85 C34 1_555 1_555
C86 C66 1_555 1_555
C87 C11 1_555 1_555
C88 C52 1_555 1_555
C89 C91 1_555 1_555
C90 C34 1_555 1_555
C91 C128 1_555 1_555
C92 C125 1_555 1_555
C93 C104 1_555 1_555
C94 C58 1_555 1_555
C95 C50 1_555 1_555
C96 C41 1_555 1_555
C97 C38 1_555 1_555
C98 C19 1_555 1_555
C99 C33 1_555 1_555
C100 C48 1_555 1_555
C101 C83 1_555 1_555
C102 C94 1_555 1_555
C103 C68 1_555 1_555
C104 C74 1_555 1_555
C105 C38 1_555 1_555
C106 C53 1_555 1_555
C107 C46 1_555 1_555
C108 C37 1_555 1_555
C109 C108 1_555 1_555
C110 C29 1_555 1_555
C111 C24 1_555 1_555
C112 C23 1_555 1_555
C113 C19 1_555 1_555
C114 C94 1_555 1_555
C115 C32 1_555 1_555
C116 C53 1_555 1_555
C117 C68 1_555 1_555
C118 C108 1_555 1_555
C119 C95 1_555 1_555
C120 C55 1_555 1_555
C121 C61 1_555 1_555
C122 C72 1_555 1_555
C123 C73 1_555 1_555
C124 C71 1_555 1_555
C125 C41 1_555 1_555
C126 C85 1_555 1_555
C127 C51 1_555 1_555
C128 C56 1_555 1_555
C129 C7 1_555 1_555
C130 C27 1_555 1_555
C131 C26 1_555 1_555
C132 C44 1_555 1_555
C133 C27 1_555 1_555
C134 C43 1_555 1_555
C135 C90 1_555 1_555
C136 C63 1_555 1_555
C137 C91 1_555 1_555
C138 C82 1_555 1_555
C139 C1 1_555 1_555
C140 C36 1_555 1_555
C141 C37 1_555 1_555
C142 C43 1_555 1_555
C145 H3 1_555 1_555
H4 C145 1_555 1_555
H5 C145 1_555 1_555
Cl1 C7 1_555 1_555
Cl3 C5 1_555 1_555
Cl5 C1 1_555 1_555
Cl7 C113 1_555 1_555
Cl9 C26 1_555 1_555
Cl11 C17 1_555 1_555
Cl13 C19 1_555 1_555
Cl15 C139 1_555 1_555
Cl17 C129 1_555 1_555
Cl19 C21 1_555 1_555
Cl20 C9 1_555 1_555
Cl21 C125 1_555 1_555
Cl22 C11 1_555 1_555
Cl23 C36 1_555 1_555
Cl24 C94 1_555 1_555
Cl25 C122 1_555 1_555
Cl26 C78 1_555 1_555
Cl27 C61 1_555 1_555
Cl28 C71 1_555 1_555
Cl29 C87 1_555 1_555
C146 H6 1_555 1_555
C147 C146 1_555 1_555
H7 C147 1_555 1_555
C148 C147 1_555 1_555
H8 C148 1_555 1_555
C149 C145 1_555 1_555
C150 C149 1_555 1_555
H9 C150 1_555 1_555
C151 C146 1_555 1_555
H10 C151 1_555 1_555
C154 C26 1_555 1_555
C3 C25 1_555 1_555
C28 C113 1_555 1_555
C31 C78 1_555 1_555
C33 C110 1_555 1_555
C35 C131 1_555 1_555
C44 C96 1_555 1_555
C45 C115 1_555 1_555
C45 C154 1_555 1_555
C47 C142 1_555 1_555
C50 C111 1_555 1_555
C51 C125 1_555 1_555
C54 C84 1_555 1_555
C58 C130 1_555 1_555
C59 C111 1_555 1_555
C59 C116 1_555 1_555
C62 C70 1_555 1_555
C62 C142 1_555 1_555
C64 C70 1_555 1_555
C64 C154 1_555 1_555
C65 C88 1_555 1_555
C67 C113 1_555 1_555
C67 C140 1_555 1_555
C71 C99 1_555 1_555
C73 C97 1_555 1_555
C75 C136 1_555 1_555
C76 C110 1_555 1_555
C77 C83 1_555 1_555
C77 C85 1_555 1_555
C78 C100 1_555 1_555
C80 C112 1_555 1_555
C80 C120 1_555 1_555
C81 C122 1_555 1_555
C84 C98 1_555 1_555
C86 C87 1_555 1_555
C86 C98 1_555 1_555
C87 C112 1_555 1_555
C92 C133 1_555 1_555
C93 C129 1_555 1_555
C96 C127 1_555 1_555
C99 C103 1_555 1_555
C100 C136 1_555 1_555
C101 C102 1_555 1_555
C101 C139 1_555 1_555
C102 C126 1_555 1_555
C104 C105 1_555 1_555
C105 C123 1_555 1_555
C106 C134 1_555 1_555
C107 C128 1_555 1_555
C107 C135 1_555 1_555
C109 C114 1_555 1_555
C109 C122 1_555 1_555
C114 C138 1_555 1_555
C115 C120 1_555 1_555
C116 C119 1_555 1_555
C117 C119 1_555 1_555
C117 C134 1_555 1_555
C118 C132 1_555 1_555
C121 C124 1_555 1_555
C121 C131 1_555 1_555
C123 C127 1_555 1_555
C124 C140 1_555 1_555
C126 C138 1_555 1_555
C129 C133 1_555 1_555
C130 C139 1_555 1_555
C132 C137 1_555 1_555
C135 C141 1_555 1_555
C137 C141 1_555 1_555
C148 C149 1_555 1_555
C150 C151 1_555 1_555

#END
