
#######################################################################
#
#                 Cambridge Crystallographic Data Centre
#                                CCDC 
#
#######################################################################
#
# If this CIF has been generated from an entry in the Cambridge 
# Structural Database, then it will include bibliographic, chemical, 
# crystal, experimental, refinement or atomic coordinate data resulting 
# from the CCDC's data processing and validation procedures.
#
#######################################################################

data_MUVKAQ
_chemical_formula_moiety         'C54 Cl8'
_chemical_name_systematic        Octachloro-C54fullerene
_symmetry_cell_setting           monoclinic
_symmetry_space_group_name_H-M   'C 2/c'
_symmetry_Int_Tables_number      15
_space_group_name_Hall           '-C 2yn'
loop_
_symmetry_equiv_pos_site_id
_symmetry_equiv_pos_as_xyz
1 x,y,z
2 -x,y,1/2-z
3 1/2+x,1/2+y,z
4 1/2-x,1/2+y,1/2-z
5 -x,-y,-z
6 x,-y,1/2+z
7 1/2-x,1/2-y,-z
8 1/2+x,1/2-y,1/2+z
_cell_length_a                   18.570(3)
_cell_length_b                   10.7448(18)
_cell_length_c                   16.801(3)
_cell_angle_alpha                90
_cell_angle_beta                 110.877(3)
_cell_angle_gamma                90
_cell_volume                     3132.23
_exptl_crystal_colour            red
_exptl_crystal_description       block
_cell_formula_units_Z            4
loop_
_atom_site_label
_atom_site_type_symbol
_atom_site_fract_x
_atom_site_fract_y
_atom_site_fract_z
Cl1 Cl 0.49213(3) 0.36868(5) 0.12208(4)
Cl2 Cl 0.17862(3) 0.78592(6) 0.22570(4)
Cl3 Cl 0.33864(4) 0.54899(6) 0.43098(4)
Cl4 Cl 0.27115(4) 0.81822(7) 0.41698(5)
C1 C 0.46588(14) 0.8845(2) 0.05518(15)
C2 C 0.37290(13) 0.6311(2) 0.12347(14)
C3 C 0.35213(13) 0.8860(2) 0.08462(15)
C4 C 0.37316(13) 0.6585(2) 0.37325(14)
C5 C 0.53674(14) 0.8255(2) 0.06887(14)
C6 C 0.42687(12) 0.55372(19) 0.18579(13)
C7 C 0.46385(14) 0.9983(2) 0.09934(15)
C8 C 0.36670(13) 0.6104(2) 0.28623(14)
C9 C 0.39372(14) 0.9998(2) 0.11735(15)
C10 C 0.42854(12) 0.55122(19) 0.26859(13)
C11 C 0.31165(13) 0.6748(2) 0.22378(15)
C12 C 0.30932(13) 0.8308(2) 0.12739(15)
C13 C 0.41125(13) 0.6855(2) 0.07171(13)
C14 C 0.34819(14) 0.9858(2) 0.23844(15)
C15 C 0.53222(14) 1.0423(2) 0.15857(16)
C16 C 0.31761(12) 0.6969(2) 0.14390(14)
C17 C 0.60717(14) 0.8815(2) 0.12156(15)
C18 C 0.49621(12) 0.5286(2) 0.15943(14)
C19 C 0.45582(13) 0.6935(2) 0.41910(14)
C20 C 0.39994(14) 0.8121(2) 0.05077(14)
C21 C 0.32784(14) 0.7879(2) 0.35315(15)
C22 C 0.48449(13) 0.6280(2) 0.08968(14)
C23 C 0.28166(13) 0.7878(2) 0.25489(15)
C24 C 0.39435(13) 1.04460(19) 0.19526(16)
C25 C 0.30263(13) 0.8871(2) 0.20261(16)
C26 C 0.53360(14) 1.0850(2) 0.24088(16)
C27 C 0.39517(14) 0.9840(2) 0.33058(15)
Cl1A Cl 0.50787(3) 0.36868(5) 0.37792(4)
Cl2A Cl 0.82138(3) 0.78592(6) 0.27430(4)
Cl3A Cl 0.66136(4) 0.54899(6) 0.06902(4)
Cl4A Cl 0.72885(4) 0.81822(7) 0.08302(5)
C1A C 0.53412(14) 0.8845(2) 0.44482(15)
C2A C 0.62710(13) 0.6311(2) 0.37653(14)
C3A C 0.64787(13) 0.8860(2) 0.41538(15)
C4A C 0.62684(13) 0.6585(2) 0.12675(14)
C5A C 0.46326(14) 0.8255(2) 0.43113(14)
C6A C 0.57313(12) 0.55372(19) 0.31421(13)
C7A C 0.53615(14) 0.9983(2) 0.40066(15)
C8A C 0.63330(13) 0.6104(2) 0.21377(14)
C9A C 0.60628(14) 0.9998(2) 0.38265(15)
C10A C 0.57146(12) 0.55122(19) 0.23141(13)
C11A C 0.68835(13) 0.6748(2) 0.27622(15)
C12A C 0.69068(13) 0.8308(2) 0.37261(15)
C13A C 0.58875(13) 0.6855(2) 0.42829(13)
C14A C 0.65181(14) 0.9858(2) 0.26156(15)
C15A C 0.46778(14) 1.0423(2) 0.34143(16)
C16A C 0.68239(12) 0.6969(2) 0.35610(14)
C17A C 0.39283(14) 0.8815(2) 0.37844(15)
C18A C 0.50379(12) 0.5286(2) 0.34057(14)
C19A C 0.54418(13) 0.6935(2) 0.08090(14)
C20A C 0.60006(14) 0.8121(2) 0.44923(14)
C21A C 0.67216(14) 0.7879(2) 0.14685(15)
C22A C 0.51551(13) 0.6280(2) 0.41032(14)
C23A C 0.71834(13) 0.7878(2) 0.24511(15)
C24A C 0.60565(13) 1.04460(19) 0.30474(16)
C25A C 0.69737(13) 0.8871(2) 0.29739(16)
C26A C 0.46640(14) 1.0850(2) 0.25912(16)
C27A C 0.60483(14) 0.9840(2) 0.16942(15)
loop_
_geom_bond_atom_site_label_1
_geom_bond_atom_site_label_2
_geom_bond_site_symmetry_1
_geom_bond_site_symmetry_2
Cl1 C18 1_555 1_555
Cl2 C23 1_555 1_555
Cl3 C4 1_555 1_555
Cl4 C21 1_555 1_555
C1 C5 1_555 1_555
C2 C6 1_555 1_555
C3 C9 1_555 1_555
C4 C8 1_555 1_555
C5 C17 1_555 1_555
C6 C10 1_555 1_555
C7 C1 1_555 1_555
C8 C10 1_555 1_555
C9 C7 1_555 1_555
C10 C18A 1_555 1_555
C11 C8 1_555 1_555
C12 C3 1_555 1_555
C13 C2 1_555 1_555
C14 C24 1_555 1_555
C15 C7 1_555 1_555
C16 C2 1_555 1_555
C17 C21A 1_555 1_555
C18 C6 1_555 1_555
C19 C4 1_555 1_555
C20 C1 1_555 1_555
C21 C4 1_555 1_555
C22 C13 1_555 1_555
C23 C11 1_555 1_555
C24 C9 1_555 1_555
C25 C12 1_555 1_555
C26 C15 1_555 1_555
C27 C14 1_555 1_555
Cl1A C18A 1_555 1_555
Cl2A C23A 1_555 1_555
Cl3A C4A 1_555 1_555
Cl4A C21A 1_555 1_555
C1A C5A 1_555 1_555
C2A C6A 1_555 1_555
C3A C9A 1_555 1_555
C4A C8A 1_555 1_555
C5A C19 1_555 1_555
C6A C10A 1_555 1_555
C7A C1A 1_555 1_555
C8A C10A 1_555 1_555
C9A C7A 1_555 1_555
C10A C18 1_555 1_555
C11A C8A 1_555 1_555
C12A C3A 1_555 1_555
C13A C2A 1_555 1_555
C14A C24A 1_555 1_555
C15A C27 1_555 1_555
C16A C2A 1_555 1_555
C17A C21 1_555 1_555
C18A C6A 1_555 1_555
C19A C5 1_555 1_555
C20A C1A 1_555 1_555
C21A C4A 1_555 1_555
C22A C19 1_555 1_555
C23A C11A 1_555 1_555
C24A C26 1_555 1_555
C25A C12A 1_555 1_555
C26A C24 1_555 1_555
C27A C15 1_555 1_555
C3 C20 1_555 1_555
C11 C16 1_555 1_555
C12 C16 1_555 1_555
C13 C20 1_555 1_555
C14 C25 1_555 1_555
C17 C27A 1_555 1_555
C18 C22 1_555 1_555
C21 C23 1_555 1_555
C22 C19A 1_555 1_555
C23 C25 1_555 1_555
C26 C26A 1_555 1_555
C27 C17A 1_555 1_555
C3A C20A 1_555 1_555
C4A C19A 1_555 1_555
C5A C17A 1_555 1_555
C7A C15A 1_555 1_555
C9A C24A 1_555 1_555
C11A C16A 1_555 1_555
C12A C16A 1_555 1_555
C13A C20A 1_555 1_555
C13A C22A 1_555 1_555
C14A C25A 1_555 1_555
C14A C27A 1_555 1_555
C15A C26A 1_555 1_555
C18A C22A 1_555 1_555
C21A C23A 1_555 1_555
C23A C25A 1_555 1_555

#END
