
#######################################################################
#
#                 Cambridge Crystallographic Data Centre
#                                CCDC 
#
#######################################################################
#
# If this CIF has been generated from an entry in the Cambridge 
# Structural Database, then it will include bibliographic, chemical, 
# crystal, experimental, refinement or atomic coordinate data resulting 
# from the CCDC's data processing and validation procedures.
#
#######################################################################

data_MUXQUT
_chemical_formula_moiety         'C9 H6 Cl1 N1 O1'
_chemical_name_systematic        7-chloro-4H-quinolizin-4-one
_symmetry_cell_setting           triclinic
_symmetry_space_group_name_H-M   'P -1'
_symmetry_Int_Tables_number      2
_space_group_name_Hall           '-P 1'
loop_
_symmetry_equiv_pos_site_id
_symmetry_equiv_pos_as_xyz
1 x,y,z
2 -x,-y,-z
_cell_length_a                   6.9741(13)
_cell_length_b                   7.3965(14)
_cell_length_c                   15.814(3)
_cell_angle_alpha                97.550(3)
_cell_angle_beta                 92.082(3)
_cell_angle_gamma                104.949(3)
_cell_volume                     779.204
_exptl_crystal_colour            yellow
_exptl_crystal_description       block
_cell_formula_units_Z            4
loop_
_atom_site_label
_atom_site_type_symbol
_atom_site_fract_x
_atom_site_fract_y
_atom_site_fract_z
Cl1 Cl 0.37829(9) 0.94725(8) 1.13424(4)
O1 O 0.2360(3) 0.6595(3) 0.82427(11)
N1 N 0.2385(2) 0.5196(2) 0.94499(10)
C1 C 0.2880(3) 0.6979(3) 0.99205(13)
H1 H 0.3051 0.8032 0.9640
C2 C 0.3118(3) 0.7218(3) 1.07746(13)
C3 C 0.2859(3) 0.5649(3) 1.12189(14)
H2 H 0.3002 0.5813 1.1813
C4 C 0.2401(3) 0.3917(3) 1.07628(15)
H3 H 0.2230 0.2877 1.1053
C5 C 0.2166(3) 0.3601(3) 0.98597(14)
C6 C 0.1729(3) 0.1853(3) 0.93689(19)
H4 H 0.1566 0.0772 0.9629
C7 C 0.1533(4) 0.1699(4) 0.8490(2)
H5 H 0.1259 0.0507 0.8165
C8 C 0.1729(4) 0.3247(5) 0.80833(17)
H6 H 0.1578 0.3075 0.7489
C9 C 0.2153(3) 0.5101(4) 0.85351(15)
Cl2 Cl 0.12160(11) 0.28030(9) 0.29436(4)
O2 O 0.1629(2) 0.1324(3) 0.59609(10)
N2 N 0.4083(2) 0.2234(2) 0.50579(10)
C10 C 0.3412(3) 0.1673(3) 0.58584(13)
C11 C 0.4955(4) 0.1609(3) 0.64518(15)
H7 H 0.4626 0.1237 0.6979
C12 C 0.6897(4) 0.2074(4) 0.62762(18)
H8 H 0.7857 0.1990 0.6682
C13 C 0.7483(4) 0.2666(3) 0.55159(19)
H9 H 0.8828 0.3016 0.5420
C14 C 0.6082(3) 0.2742(3) 0.48945(16)
C15 C 0.6517(4) 0.3307(3) 0.40834(18)
H10 H 0.7842 0.3675 0.3957
C16 C 0.5101(4) 0.3333(3) 0.34907(17)
H11 H 0.5434 0.3707 0.2964
C17 C 0.3093(4) 0.2779(3) 0.36859(13)
C18 C 0.2615(3) 0.2221(3) 0.44423(12)
H12 H 0.1284 0.1820 0.4554
loop_
_geom_bond_atom_site_label_1
_geom_bond_atom_site_label_2
_geom_bond_site_symmetry_1
_geom_bond_site_symmetry_2
Cl1 C2 1_555 1_555
O1 C9 1_555 1_555
N1 C1 1_555 1_555
C1 H1 1_555 1_555
C2 C1 1_555 1_555
C3 C2 1_555 1_555
H2 C3 1_555 1_555
C4 C3 1_555 1_555
H3 C4 1_555 1_555
C5 N1 1_555 1_555
C6 C5 1_555 1_555
H4 C6 1_555 1_555
C7 C6 1_555 1_555
H5 C7 1_555 1_555
C8 C7 1_555 1_555
H6 C8 1_555 1_555
C9 N1 1_555 1_555
Cl2 C17 1_555 1_555
O2 C10 1_555 1_555
N2 C10 1_555 1_555
C10 C11 1_555 1_555
C11 H7 1_555 1_555
C12 C11 1_555 1_555
H8 C12 1_555 1_555
C13 C12 1_555 1_555
H9 C13 1_555 1_555
C14 N2 1_555 1_555
C15 C14 1_555 1_555
H10 C15 1_555 1_555
C16 C15 1_555 1_555
H11 C16 1_555 1_555
C17 C16 1_555 1_555
C18 N2 1_555 1_555
H12 C18 1_555 1_555
C4 C5 1_555 1_555
C8 C9 1_555 1_555
C13 C14 1_555 1_555
C17 C18 1_555 1_555

#END
