
#######################################################################
#
#                 Cambridge Crystallographic Data Centre
#                                CCDC 
#
#######################################################################
#
# If this CIF has been generated from an entry in the Cambridge 
# Structural Database, then it will include bibliographic, chemical, 
# crystal, experimental, refinement or atomic coordinate data resulting 
# from the CCDC's data processing and validation procedures.
#
#######################################################################

data_MUXVUX
_chemical_formula_moiety         'C34 H42 N6 O6,H2 O1,0.25(C6 H14)'
_chemical_name_systematic        
'5,11,17,23-Tetra-t-butyl-2,8,14,20-tetraoxa-4,6,16,18,26,28-hexaazapentacyclo[19.3.1.1^3,7^.1^9,13^.1^15,19^]octacosa-1(25),3(28),4,6,9(27),10,12,15(26),16,18,21,23-dodecaene-25,27-diol n-hexane solvate monohydrate'
_symmetry_cell_setting           tetragonal
_symmetry_space_group_name_H-M   'P 4/n'
_symmetry_Int_Tables_number      85
_space_group_name_Hall           '-P 4a'
loop_
_symmetry_equiv_pos_site_id
_symmetry_equiv_pos_as_xyz
1 x,y,z
2 1/2-y,x,z
3 1/2-x,1/2-y,z
4 y,1/2-x,z
5 -x,-y,-z
6 1/2+y,-x,-z
7 1/2+x,1/2+y,-z
8 -y,1/2+x,-z
_cell_length_a                   23.6877(12)
_cell_length_b                   23.6877(12)
_cell_length_c                   13.3531(8)
_cell_angle_alpha                90
_cell_angle_beta                 90
_cell_angle_gamma                90
_cell_volume                     7492.52
_exptl_crystal_colour            colorless
_exptl_crystal_description       prism
_cell_formula_units_Z            8
loop_
_atom_site_label
_atom_site_type_symbol
_atom_site_fract_x
_atom_site_fract_y
_atom_site_fract_z
N1 N 0.30167(9) 0.02110(10) 0.31702(16)
N2 N 0.22043(9) 0.06644(10) 0.38535(16)
N3 N 0.26218(9) -0.01033(10) 0.47212(16)
N4 N 0.48140(9) 0.07171(9) 0.22837(17)
N5 N 0.57418(9) 0.06684(9) 0.29664(17)
N6 N 0.53729(9) 0.15519(9) 0.24426(17)
O2 O 0.36298(8) 0.13327(8) 0.31711(14)
H3 H 0.3859(13) 0.1612(12) 0.329(3)
O3 O 0.43871(9) 0.00273(9) 0.42204(17)
H4 H 0.4124(13) 0.0028(16) 0.466(2)
O4 O 0.26086(8) 0.09935(8) 0.24613(14)
O5 O 0.33502(8) -0.05650(8) 0.40213(14)
O6 O 0.52105(8) -0.01122(8) 0.28378(16)
O7 O 0.45094(7) 0.15890(8) 0.17598(14)
C1 C 0.35762(11) 0.12426(11) 0.21716(19)
C2 C 0.39950(11) 0.13304(11) 0.14632(19)
C3 C 0.39147(11) 0.12242(11) 0.0454(2)
H5 H 0.4212 0.1298 -0.0005
C4 C 0.34029(11) 0.10101(12) 0.0100(2)
C5 C 0.29793(12) 0.09146(12) 0.0810(2)
H6 H 0.2625 0.0768 0.0602
C6 C 0.30709(11) 0.10308(12) 0.1805(2)
C7 C 0.26195(11) 0.06043(12) 0.31850(19)
C8 C 0.22333(11) 0.03050(12) 0.46318(19)
C9 C 0.29815(11) -0.01308(12) 0.3946(2)
C10 C 0.42723(12) -0.03091(12) 0.3435(2)
C11 C 0.46790(11) -0.03711(11) 0.2687(2)
C12 C 0.45964(12) -0.06966(12) 0.1852(2)
H7 H 0.4886 -0.0721 0.1361
C13 C 0.40913(12) -0.09933(13) 0.1712(2)
C14 C 0.36828(12) -0.09359(12) 0.2452(2)
H8 H 0.3335 -0.1132 0.2387
C15 C 0.37733(11) -0.06014(12) 0.3275(2)
C16 C 0.52463(11) 0.04488(11) 0.2697(2)
C17 C 0.57844(11) 0.12289(12) 0.2820(2)
C18 C 0.49091(11) 0.12629(11) 0.21835(19)
C19 C 0.32957(12) 0.08929(13) -0.1009(2)
C20 C 0.2854(5) 0.0434(6) -0.1141(9)
H9 H 0.2959 0.0103 -0.0743
H10 H 0.2831 0.0328 -0.1849
H11 H 0.2486 0.0575 -0.0916
C21 C 0.3837(3) 0.0727(8) -0.1554(8)
H12 H 0.3986 0.0377 -0.1266
H13 H 0.4117 0.1029 -0.1481
H14 H 0.3755 0.0669 -0.2266
C22 C 0.3075(9) 0.1445(4) -0.1489(9)
H15 H 0.2744 0.1579 -0.1117
H16 H 0.2969 0.1373 -0.2187
H17 H 0.3372 0.1733 -0.1468
C23 C 0.18051(12) 0.03797(13) 0.5472(2)
C24 C 0.12159(12) 0.02553(15) 0.5045(2)
H18 H 0.1198 -0.0139 0.4826
H19 H 0.1144 0.0504 0.4472
H20 H 0.0931 0.0322 0.5563
C25 C 0.18304(17) 0.09970(16) 0.5816(3)
H21 H 0.2210 0.1082 0.6068
H22 H 0.1553 0.1059 0.6350
H23 H 0.1744 0.1245 0.5249
C26 C 0.19249(14) -0.00121(17) 0.6342(2)
H24 H 0.1910 -0.0405 0.6111
H25 H 0.1641 0.0046 0.6866
H26 H 0.2301 0.0069 0.6613
C27 C 0.39988(14) -0.13542(16) 0.0783(3)
C28 C 0.4071(3) -0.0941(3) -0.0148(4)
H27 H 0.3792 -0.0637 -0.0105
H28 H 0.4014 -0.1152 -0.0771
H29 H 0.4452 -0.0779 -0.0142
C29 C 0.3412(2) -0.1602(3) 0.0709(5)
H30 H 0.3337 -0.1837 0.1299
H31 H 0.3384 -0.1834 0.0103
H32 H 0.3134 -0.1296 0.0676
C30 C 0.4445(2) -0.1801(2) 0.0692(5)
H33 H 0.4403 -0.2074 0.1236
H34 H 0.4819 -0.1625 0.0733
H35 H 0.4406 -0.1994 0.0047
C31 C 0.63370(12) 0.15139(12) 0.3114(2)
C32 C 0.63289(16) 0.15951(17) 0.4252(3)
H36 H 0.6266 0.1230 0.4579
H37 H 0.6024 0.1856 0.4433
H38 H 0.6691 0.1752 0.4471
C33 C 0.68376(13) 0.11443(15) 0.2815(3)
H39 H 0.6823 0.1070 0.2093
H40 H 0.6820 0.0786 0.3180
H41 H 0.7191 0.1340 0.2978
C34 C 0.63905(14) 0.20879(13) 0.2609(3)
H42 H 0.6388 0.2039 0.1880
H43 H 0.6745 0.2267 0.2813
H44 H 0.6072 0.2328 0.2807
O1 O 0.51537(10) 0.63115(10) 0.41864(17)
H1 H 0.4897(14) 0.6151(15) 0.369(3)
H2 H 0.5017(16) 0.6683(12) 0.430(3)
C35? C 0.7500 0.7500 0.4596(6)
H45? H 0.7732 0.7657 0.4077
H46? H 0.7479 0.7098 0.4518
H47? H 0.7128 0.7658 0.4554
C36? C 0.7779(5) 0.7592(14) 0.5625(6)
H48? H 0.7805 0.7995 0.5698
H49? H 0.8154 0.7440 0.5661
C37? C 0.7355(6) 0.751(2) 0.6487(6)
H50? H 0.7339 0.7106 0.6433
H51? H 0.6977 0.7654 0.6445
C38? C 0.7668(8) 0.7560(18) 0.7494(6)
H52? H 0.7715 0.7962 0.7526
H53? H 0.8033 0.7388 0.7564
C39? C 0.7270(6) 0.7371(11) 0.8340(7)
H54? H 0.7217 0.6970 0.8282
H55? H 0.6908 0.7548 0.8261
C40? C 0.7500 0.7500 0.9394(7)
H56? H 0.7239 0.7366 0.9889
H57? H 0.7858 0.7317 0.9485
H58? H 0.7546 0.7901 0.9464
C41? C 0.3186(11) 0.0262(3) -0.1160(10)
C42? C 0.3798(4) 0.1066(8) -0.1671(7)
C43? C 0.2776(5) 0.1227(8) -0.1353(8)
C44? C 0.3888(6) -0.1978(4) 0.1219(9)
C45? C 0.3459(5) -0.1178(7) 0.0270(11)
C46? C 0.4491(5) -0.1408(6) 0.0081(10)
H59? H 0.3534 0.0050 -0.1029
H60? H 0.3064 0.0194 -0.1851
H61? H 0.2890 0.0136 -0.0697
H62? H 0.4139 0.0872 -0.1439
H63? H 0.3853 0.1475 -0.1628
H64? H 0.3721 0.0960 -0.2367
H65? H 0.2449 0.1117 -0.0949
H66? H 0.2701 0.1145 -0.2060
H67? H 0.2847 0.1632 -0.1269
H68? H 0.3545 -0.1976 0.1630
H69? H 0.4210 -0.2095 0.1630
H70? H 0.3840 -0.2244 0.0662
H71? H 0.3149 -0.1181 0.0756
H72? H 0.3375 -0.1443 -0.0273
H73? H 0.3504 -0.0797 -0.0004
H74? H 0.4816 -0.1563 0.0442
H75? H 0.4589 -0.1034 -0.0185
H76? H 0.4390 -0.1660 -0.0473
loop_
_geom_bond_atom_site_label_1
_geom_bond_atom_site_label_2
_geom_bond_site_symmetry_1
_geom_bond_site_symmetry_2
O1 H1 1_555 1_555
H2 O1 1_555 1_555
N1 C7 1_555 1_555
N2 C7 1_555 1_555
N3 C8 1_555 1_555
N4 C16 1_555 1_555
N5 C16 1_555 1_555
N6 C17 1_555 1_555
O2 H3 1_555 1_555
O3 H4 1_555 1_555
O4 C6 1_555 1_555
O5 C9 1_555 1_555
O6 C11 1_555 1_555
O7 C2 1_555 1_555
C1 O2 1_555 1_555
C2 C1 1_555 1_555
C3 C2 1_555 1_555
H5 C3 1_555 1_555
C4 C3 1_555 1_555
C5 C4 1_555 1_555
H6 C5 1_555 1_555
C6 C1 1_555 1_555
C7 O4 1_555 1_555
C8 N2 1_555 1_555
C9 N1 1_555 1_555
C10 O3 1_555 1_555
C11 C10 1_555 1_555
C12 C11 1_555 1_555
H7 C12 1_555 1_555
C13 C12 1_555 1_555
C14 C13 1_555 1_555
H8 C14 1_555 1_555
C15 O5 1_555 1_555
C16 O6 1_555 1_555
C17 N5 1_555 1_555
C18 N4 1_555 1_555
C19 C4 1_555 1_555
C20 C19 1_555 1_555
H9 C20 1_555 1_555
H10 C20 1_555 1_555
H11 C20 1_555 1_555
C21 C19 1_555 1_555
H12 C21 1_555 1_555
H13 C21 1_555 1_555
H14 C21 1_555 1_555
C22 C19 1_555 1_555
H15 C22 1_555 1_555
H16 C22 1_555 1_555
H17 C22 1_555 1_555
C23 C8 1_555 1_555
C24 C23 1_555 1_555
H18 C24 1_555 1_555
H19 C24 1_555 1_555
H20 C24 1_555 1_555
C25 C23 1_555 1_555
H21 C25 1_555 1_555
H22 C25 1_555 1_555
H23 C25 1_555 1_555
C26 C23 1_555 1_555
H24 C26 1_555 1_555
H25 C26 1_555 1_555
H26 C26 1_555 1_555
C27 C13 1_555 1_555
C28 C27 1_555 1_555
H27 C28 1_555 1_555
H28 C28 1_555 1_555
H29 C28 1_555 1_555
C29 C27 1_555 1_555
H30 C29 1_555 1_555
H31 C29 1_555 1_555
H32 C29 1_555 1_555
C30 C27 1_555 1_555
H33 C30 1_555 1_555
H34 C30 1_555 1_555
H35 C30 1_555 1_555
C31 C17 1_555 1_555
C32 C31 1_555 1_555
H36 C32 1_555 1_555
H37 C32 1_555 1_555
H38 C32 1_555 1_555
C33 C31 1_555 1_555
H39 C33 1_555 1_555
H40 C33 1_555 1_555
H41 C33 1_555 1_555
C34 C31 1_555 1_555
H42 C34 1_555 1_555
H43 C34 1_555 1_555
H44 C34 1_555 1_555
N3 C9 1_555 1_555
N6 C18 1_555 1_555
O7 C18 1_555 1_555
C5 C6 1_555 1_555
C10 C15 1_555 1_555
C14 C15 1_555 1_555

#END
