
#######################################################################
#
#                 Cambridge Crystallographic Data Centre
#                                CCDC 
#
#######################################################################
#
# If this CIF has been generated from an entry in the Cambridge 
# Structural Database, then it will include bibliographic, chemical, 
# crystal, experimental, refinement or atomic coordinate data resulting 
# from the CCDC's data processing and validation procedures.
#
#######################################################################

data_MUYZUD01
_chemical_formula_moiety         'C22 H20 N2 O1'
_chemical_name_systematic        
5-Benzylidene-3,3-dimethyl-1-(quinolin-8-yl)pyrrolidin-2-one
_symmetry_cell_setting           orthorhombic
_symmetry_space_group_name_H-M   'P b c a'
_symmetry_Int_Tables_number      61
_space_group_name_Hall           '-P 2ac 2ab'
loop_
_symmetry_equiv_pos_site_id
_symmetry_equiv_pos_as_xyz
1 x,y,z
2 1/2-x,-y,1/2+z
3 1/2+x,1/2-y,-z
4 -x,1/2+y,1/2-z
5 -x,-y,-z
6 1/2+x,y,1/2-z
7 1/2-x,1/2+y,z
8 x,1/2-y,1/2+z
_cell_length_a                   9.0524(5)
_cell_length_b                   14.0895(6)
_cell_length_c                   27.3670(13)
_cell_angle_alpha                90
_cell_angle_beta                 90
_cell_angle_gamma                90
_cell_volume                     3490.49
_exptl_crystal_colour            yellow
_exptl_crystal_description       plate
_cell_formula_units_Z            8
loop_
_atom_site_label
_atom_site_type_symbol
_atom_site_fract_x
_atom_site_fract_y
_atom_site_fract_z
O1 O 0.40578(14) 0.05503(8) 0.66999(4)
N1 N 0.50461(15) 0.31033(10) 0.64172(5)
N2 N 0.62220(15) 0.12758(9) 0.64726(5)
C1 C 0.4502(2) 0.39702(14) 0.64047(7)
H1 H 0.4037 0.4163 0.6118
C2 C 0.4568(2) 0.46226(13) 0.67880(8)
H2 H 0.4157 0.5224 0.6755
C3 C 0.5238(2) 0.43648(12) 0.72065(7)
H3 H 0.5293 0.4788 0.7467
C4 C 0.58559(18) 0.34519(11) 0.72481(6)
C5 C 0.57284(17) 0.28396(10) 0.68413(5)
C6 C 0.63313(18) 0.19137(11) 0.68790(5)
C7 C 0.7022(2) 0.16317(12) 0.72942(6)
H4 H 0.7411 0.1022 0.7313
C8 C 0.7161(2) 0.22437(14) 0.76954(6)
H5 H 0.7647 0.2042 0.7976
C9 C 0.6585(2) 0.31289(14) 0.76732(6)
H6 H 0.6671 0.3530 0.7942
C10 C 0.51190(19) 0.06149(11) 0.64288(6)
C11 C 0.55300(19) -0.00471(10) 0.60126(6)
C12 C 0.6649(2) 0.05481(11) 0.57261(6)
H7 H 0.7404 0.0148 0.5582
H8 H 0.6164 0.0904 0.5468
C13 C 0.73023(19) 0.12030(10) 0.60998(5)
C14 C 0.86110(19) 0.16283(10) 0.61246(6)
H9 H 0.8793 0.1963 0.6411
C15 C 0.98086(19) 0.16437(10) 0.57640(5)
C16 C 0.9638(2) 0.14362(13) 0.52689(6)
H10 H 0.8720 0.1244 0.5152
C17 C 1.0812(2) 0.15119(16) 0.49494(7)
H11 H 1.0676 0.1369 0.4621
C18 C 1.2171(2) 0.17934(14) 0.51099(7)
H12 H 1.2955 0.1844 0.4892
C19 C 1.2373(2) 0.20001(13) 0.55934(7)
H13 H 1.3297 0.2189 0.5706
C20 C 1.1208(2) 0.19282(12) 0.59132(6)
H14 H 1.1361 0.2075 0.6241
C21 C 0.6308(2) -0.08922(11) 0.62555(7)
H15 H 0.7136 -0.0668 0.6442
H16 H 0.6647 -0.1324 0.6008
H17 H 0.5628 -0.1213 0.6468
C22 C 0.4212(2) -0.03810(14) 0.57196(7)
H18 H 0.3535 -0.0708 0.5931
H19 H 0.4537 -0.0803 0.5466
H20 H 0.3726 0.0156 0.5576
loop_
_geom_bond_atom_site_label_1
_geom_bond_atom_site_label_2
_geom_bond_site_symmetry_1
_geom_bond_site_symmetry_2
O1 C10 1_555 1_555
N1 C1 1_555 1_555
N2 C6 1_555 1_555
C1 H1 1_555 1_555
C2 C1 1_555 1_555
H2 C2 1_555 1_555
C3 C2 1_555 1_555
H3 C3 1_555 1_555
C4 C3 1_555 1_555
C5 N1 1_555 1_555
C6 C5 1_555 1_555
C7 C6 1_555 1_555
H4 C7 1_555 1_555
C8 C7 1_555 1_555
H5 C8 1_555 1_555
C9 C4 1_555 1_555
H6 C9 1_555 1_555
C10 N2 1_555 1_555
C11 C10 1_555 1_555
C12 C11 1_555 1_555
H7 C12 1_555 1_555
H8 C12 1_555 1_555
C13 N2 1_555 1_555
C14 C13 1_555 1_555
H9 C14 1_555 1_555
C15 C14 1_555 1_555
C16 C15 1_555 1_555
H10 C16 1_555 1_555
C17 C16 1_555 1_555
H11 C17 1_555 1_555
C18 C17 1_555 1_555
H12 C18 1_555 1_555
C19 C18 1_555 1_555
H13 C19 1_555 1_555
C20 C15 1_555 1_555
H14 C20 1_555 1_555
C21 C11 1_555 1_555
H15 C21 1_555 1_555
H16 C21 1_555 1_555
H17 C21 1_555 1_555
C22 C11 1_555 1_555
H18 C22 1_555 1_555
H19 C22 1_555 1_555
H20 C22 1_555 1_555
C4 C5 1_555 1_555
C8 C9 1_555 1_555
C12 C13 1_555 1_555
C19 C20 1_555 1_555

#END
