
#######################################################################
#
#                 Cambridge Crystallographic Data Centre
#                                CCDC 
#
#######################################################################
#
# If this CIF has been generated from an entry in the Cambridge 
# Structural Database, then it will include bibliographic, chemical, 
# crystal, experimental, refinement or atomic coordinate data resulting 
# from the CCDC's data processing and validation procedures.
#
#######################################################################

data_MUYZUD
_chemical_formula_moiety         'C22 H20 N2 O1'
_chemical_name_systematic        
5-Benzylidene-3,3-dimethyl-1-(quinolin-8-yl)pyrrolidin-2-one
_symmetry_cell_setting           orthorhombic
_symmetry_space_group_name_H-M   'P b c a'
_symmetry_Int_Tables_number      61
_space_group_name_Hall           '-P 2ac 2ab'
loop_
_symmetry_equiv_pos_site_id
_symmetry_equiv_pos_as_xyz
1 x,y,z
2 1/2-x,-y,1/2+z
3 1/2+x,1/2-y,-z
4 -x,1/2+y,1/2-z
5 -x,-y,-z
6 1/2+x,y,1/2-z
7 1/2-x,1/2+y,z
8 x,1/2-y,1/2+z
_cell_length_a                   9.0007(4)
_cell_length_b                   13.9627(7)
_cell_length_c                   27.1120(11)
_cell_angle_alpha                90
_cell_angle_beta                 90
_cell_angle_gamma                90
_cell_volume                     3407.28
_exptl_crystal_colour            yellow
_exptl_crystal_description       block
_cell_formula_units_Z            8
loop_
_atom_site_label
_atom_site_type_symbol
_atom_site_fract_x
_atom_site_fract_y
_atom_site_fract_z
O1 O 1.09668(11) 0.44160(7) 0.33045(4)
N1 N 0.87813(12) 0.36895(8) 0.35333(4)
N2 N 0.99572(12) 0.18401(8) 0.35869(4)
C1 C 1.04995(15) 0.09647(11) 0.36006(5)
H1 H 1.0969 0.0765 0.3897
C2 C 1.04383(16) 0.03029(11) 0.32106(6)
H2 H 1.0862 -0.0317 0.3244
C3 C 0.97617(15) 0.05672(10) 0.27857(5)
H3 H 0.9705 0.0134 0.2516
C4 C 0.91411(14) 0.14935(10) 0.27464(5)
C5 C 0.92729(13) 0.21124(9) 0.31595(4)
C6 C 0.86659(14) 0.30472(9) 0.31235(5)
C7 C 0.79644(15) 0.33386(10) 0.27039(5)
H4 H 0.7567 0.3968 0.2685
C8 C 0.78233(15) 0.27189(11) 0.22989(5)
H5 H 0.7322 0.2928 0.2010
C9 C 0.84014(15) 0.18207(11) 0.23182(5)
H6 H 0.8308 0.1408 0.2041
C10 C 0.98934(15) 0.43549(9) 0.35760(5)
C11 C 0.94657(15) 0.50315(9) 0.39918(5)
C12 C 0.83429(16) 0.44332(10) 0.42845(5)
H7 H 0.8842 0.4069 0.4550
H8 H 0.7567 0.4846 0.4432
C13 C 0.76878(15) 0.37692(9) 0.39077(5)
C14 C 0.63628(15) 0.33460(9) 0.38791(5)
H9 H 0.6176 0.3002 0.3583
C15 C 0.51547(15) 0.33396(9) 0.42417(5)
C16 C 0.53220(16) 0.35653(11) 0.47423(5)
H10 H 0.6261 0.3770 0.4862
C17 C 0.41311(17) 0.34925(12) 0.50634(5)
H11 H 0.4263 0.3650 0.5401
C18 C 0.27603(17) 0.31962(11) 0.49001(5)
H12 H 0.1952 0.3147 0.5124
C19 C 0.25662(16) 0.29710(10) 0.44083(5)
H13 H 0.1622 0.2768 0.4292
C20 C 0.37487(15) 0.30417(10) 0.40876(5)
H14 H 0.3602 0.2883 0.3750
C21 C 1.07881(17) 0.53831(12) 0.42866(6)
H15 H 1.0447 0.5825 0.4544
H16 H 1.1482 0.5716 0.4067
H17 H 1.1290 0.4836 0.4440
C22 C 0.86727(16) 0.58723(10) 0.37392(5)
H18 H 0.7824 0.5631 0.3550
H19 H 0.9366 0.6198 0.3517
H20 H 0.8322 0.6325 0.3990
loop_
_geom_bond_atom_site_label_1
_geom_bond_atom_site_label_2
_geom_bond_site_symmetry_1
_geom_bond_site_symmetry_2
O1 C10 1_555 1_555
N1 C6 1_555 1_555
N2 C1 1_555 1_555
C1 H1 1_555 1_555
C2 C1 1_555 1_555
H2 C2 1_555 1_555
C3 C2 1_555 1_555
H3 C3 1_555 1_555
C4 C3 1_555 1_555
C5 N2 1_555 1_555
C6 C5 1_555 1_555
C7 C6 1_555 1_555
H4 C7 1_555 1_555
C8 C7 1_555 1_555
H5 C8 1_555 1_555
C9 C4 1_555 1_555
H6 C9 1_555 1_555
C10 N1 1_555 1_555
C11 C10 1_555 1_555
C12 C11 1_555 1_555
H7 C12 1_555 1_555
H8 C12 1_555 1_555
C13 N1 1_555 1_555
C14 C13 1_555 1_555
H9 C14 1_555 1_555
C15 C14 1_555 1_555
C16 C15 1_555 1_555
H10 C16 1_555 1_555
C17 C16 1_555 1_555
H11 C17 1_555 1_555
C18 C17 1_555 1_555
H12 C18 1_555 1_555
C19 C18 1_555 1_555
H13 C19 1_555 1_555
C20 C15 1_555 1_555
H14 C20 1_555 1_555
C21 C11 1_555 1_555
H15 C21 1_555 1_555
H16 C21 1_555 1_555
H17 C21 1_555 1_555
C22 C11 1_555 1_555
H18 C22 1_555 1_555
H19 C22 1_555 1_555
H20 C22 1_555 1_555
C4 C5 1_555 1_555
C8 C9 1_555 1_555
C12 C13 1_555 1_555
C19 C20 1_555 1_555

#END
