
#######################################################################
#
#                 Cambridge Crystallographic Data Centre
#                                CCDC 
#
#######################################################################
#
# If this CIF has been generated from an entry in the Cambridge 
# Structural Database, then it will include bibliographic, chemical, 
# crystal, experimental, refinement or atomic coordinate data resulting 
# from the CCDC's data processing and validation procedures.
#
#######################################################################

data_MUZPAA
_chemical_formula_moiety         'C11 H11 Cl2 N1 O2'
_chemical_name_systematic        
2,2-Dichloro-1-(3-methyl-2,3-dihydro-4H-1,4-benzoxazin-4-yl)ethanone
_symmetry_cell_setting           orthorhombic
_symmetry_space_group_name_H-M   'F d d 2'
_symmetry_Int_Tables_number      43
_space_group_name_Hall           'F 2 -2d'
loop_
_symmetry_equiv_pos_site_id
_symmetry_equiv_pos_as_xyz
1 x,y,z
2 -x,-y,z
3 1/4+x,1/4-y,1/4+z
4 1/4-x,1/4+y,1/4+z
5 x,1/2+y,1/2+z
6 -x,1/2-y,1/2+z
7 1/4+x,3/4-y,3/4+z
8 1/4-x,3/4+y,3/4+z
9 1/2+x,y,1/2+z
10 1/2-x,-y,1/2+z
11 3/4+x,1/4-y,3/4+z
12 3/4-x,1/4+y,3/4+z
13 1/2+x,1/2+y,z
14 1/2-x,1/2-y,z
15 3/4+x,3/4-y,1/4+z
16 3/4-x,3/4+y,1/4+z
_cell_length_a                   21.250(4)
_cell_length_b                   39.476(8)
_cell_length_c                   5.4664(11)
_cell_angle_alpha                90
_cell_angle_beta                 90
_cell_angle_gamma                90
_cell_volume                     4585.57
_exptl_crystal_colour            colorless
_exptl_crystal_description       block
_cell_formula_units_Z            16
loop_
_atom_site_label
_atom_site_type_symbol
_atom_site_fract_x
_atom_site_fract_y
_atom_site_fract_z
C1 C 0.15080(10) 0.00077(6) 1.1258(5)
H1 H 0.1406 -0.0219 1.0998
C2 C 0.19445(11) 0.00920(6) 1.3023(6)
H2 H 0.2136 -0.0077 1.3947
C3 C 0.20971(10) 0.04284(6) 1.3418(5)
H3 H 0.2392 0.0486 1.4605
C4 C 0.18112(10) 0.06793(6) 1.2048(5)
H4 H 0.1910 0.0905 1.2336
C5 C 0.13767(9) 0.05966(5) 1.0241(5)
C6 C 0.12186(10) 0.02579(5) 0.9860(5)
C7 C 0.05041(11) 0.04075(6) 0.6726(5)
H5 H 0.0105 0.0329 0.6080
H6 H 0.0783 0.0449 0.5355
C8 C 0.04009(9) 0.07348(5) 0.8101(5)
H7 H 0.0229 0.0903 0.6962
C9 C -0.00458(10) 0.07028(7) 1.0256(5)
H8 H 0.0115 0.0538 1.1385
H9 H -0.0452 0.0632 0.9683
H10 H -0.0082 0.0918 1.1064
C10 C 0.13070(9) 0.11462(5) 0.8235(5)
C11 C 0.08601(10) 0.14179(5) 0.7177(4)
H11 H 0.0433 0.1381 0.7802
Cl1 Cl 0.08574(3) 0.13870(2) 0.39450(12)
Cl2 Cl 0.11250(3) 0.182122(14) 0.80754(15)
N1 N 0.10309(7) 0.08510(4) 0.8914(4)
O1 O 0.07703(7) 0.01494(4) 0.8255(4)
O2 O 0.18619(7) 0.12095(4) 0.8485(4)
loop_
_geom_bond_atom_site_label_1
_geom_bond_atom_site_label_2
_geom_bond_site_symmetry_1
_geom_bond_site_symmetry_2
C1 H1 1_555 1_555
C2 C1 1_555 1_555
H2 C2 1_555 1_555
C3 C2 1_555 1_555
H3 C3 1_555 1_555
C4 C3 1_555 1_555
H4 C4 1_555 1_555
C5 C4 1_555 1_555
C6 C1 1_555 1_555
C7 H5 1_555 1_555
H6 C7 1_555 1_555
C8 C7 1_555 1_555
H7 C8 1_555 1_555
C9 C8 1_555 1_555
H8 C9 1_555 1_555
H9 C9 1_555 1_555
H10 C9 1_555 1_555
C10 C11 1_555 1_555
C11 H11 1_555 1_555
Cl1 C11 1_555 1_555
Cl2 C11 1_555 1_555
N1 C5 1_555 1_555
O1 C6 1_555 1_555
O2 C10 1_555 1_555
C5 C6 1_555 1_555
C7 O1 1_555 1_555
C8 N1 1_555 1_555
C10 N1 1_555 1_555

#END
