
#######################################################################
#
#                 Cambridge Crystallographic Data Centre
#                                CCDC 
#
#######################################################################
#
# If this CIF has been generated from an entry in the Cambridge 
# Structural Database, then it will include bibliographic, chemical, 
# crystal, experimental, refinement or atomic coordinate data resulting 
# from the CCDC's data processing and validation procedures.
#
#######################################################################

data_MYANDR
_chemical_formula_moiety         'C20 H32'
_chemical_name_systematic        3-Methylene-5\a-androstane
_symmetry_cell_setting           orthorhombic
_symmetry_space_group_name_H-M   'P 21 21 21'
_symmetry_Int_Tables_number      19
_space_group_name_Hall           'P 2ac 2ab'
loop_
_symmetry_equiv_pos_site_id
_symmetry_equiv_pos_as_xyz
1 x,y,z
2 1/2+x,1/2-y,-z
3 -x,1/2+y,1/2-z
4 1/2-x,-y,1/2+z
_cell_length_a                   6.535(2)
_cell_length_b                   12.163(4)
_cell_length_c                   21.228(6)
_cell_angle_alpha                90
_cell_angle_beta                 90
_cell_angle_gamma                90
_cell_volume                     1687.31
_cell_formula_units_Z            4
loop_
_atom_site_label
_atom_site_type_symbol
_atom_site_fract_x
_atom_site_fract_y
_atom_site_fract_z
C1 C -0.29020 0.26110 0.17319
C10 C -0.51200 0.22940 0.18692
C11 C -0.48190 0.29500 0.30305
C12 C -0.51220 0.26590 0.37277
C13 C -0.73260 0.22550 0.38517
C14 C -0.77500 0.13020 0.34121
C15 C -0.97850 0.08080 0.36715
C16 C -0.95670 0.09680 0.43931
C17 C -0.76750 0.17140 0.44959
C18 C -0.88290 0.32130 0.37706
C19 C -0.65400 0.32680 0.16700
C2 C -0.24420 0.27510 0.10273
C20 C -0.17440 0.12160 0.02838
C3 C -0.30210 0.17490 0.06625
C4 C -0.51690 0.13580 0.07780
C5 C -0.56040 0.12420 0.14866
C6 C -0.77200 0.07940 0.16048
C7 C -0.81120 0.05810 0.23044
C8 C -0.76030 0.15840 0.27149
C9 C -0.54330 0.20070 0.25704
H1 H -0.20700 0.19000 0.19000
H10 H -0.25200 0.32900 0.19610
H11 H -0.57700 0.36700 0.29420
H110 H -0.34800 0.31200 0.29430
H12 H -0.50000 0.33800 0.40350
H120 H -0.41900 0.21000 0.38740
H14 H -0.65200 0.07600 0.34930
H15 H -0.97900 0.0 0.35160
H150 H -1.10500 0.13000 0.34870
H16 H -0.95400 0.01800 0.45850
H160 H -1.09200 0.12100 0.45940
H17 H -0.64400 0.12100 0.46090
H170 H -0.80900 0.21900 0.48480
H18 H -0.83500 0.36300 0.40580
H180 H -0.87900 0.33800 0.33110
H181 H -1.02000 0.30800 0.39180
H19 H -0.61100 0.39600 0.18920
H190 H -0.65100 0.34300 0.11990
H191 H -0.79900 0.30800 0.18130
H2 H -0.08800 0.30700 0.09750
H201 H -0.04800 0.15800 0.02060
H20 H -0.32500 0.33400 0.08330
H200 H -0.20000 0.05300 0.00510
H4 H -0.63700 0.17700 0.05840
H40 H -0.55800 0.05900 0.05620
H5 H -0.48900 0.06900 0.16120
H6 H -0.79300 0.00600 0.13430
H60 H -0.88600 0.15700 0.14140
H7 H -0.72800 -0.00200 0.24340
H70 H -0.98600 0.02900 0.23730
H8 H -0.86100 0.21800 0.26390
H9 H -0.45200 0.14500 0.26510
loop_
_geom_bond_atom_site_label_1
_geom_bond_atom_site_label_2
_geom_bond_site_symmetry_1
_geom_bond_site_symmetry_2
C1 C10 1_555 1_555
C10 C19 1_555 1_555
C11 C12 1_555 1_555
C12 C13 1_555 1_555
C13 C14 1_555 1_555
C14 C15 1_555 1_555
C15 C16 1_555 1_555
C16 C17 1_555 1_555
C17 C13 1_555 1_555
C18 C13 1_555 1_555
C19 H19 1_555 1_555
C2 C1 1_555 1_555
C20 C3 1_555 1_555
C3 C2 1_555 1_555
C4 C3 1_555 1_555
C5 C10 1_555 1_555
C6 C5 1_555 1_555
C7 C6 1_555 1_555
C8 C14 1_555 1_555
C9 C10 1_555 1_555
H1 C1 1_555 1_555
H10 C1 1_555 1_555
H11 C11 1_555 1_555
H110 C11 1_555 1_555
H12 C12 1_555 1_555
H120 C12 1_555 1_555
H14 C14 1_555 1_555
H15 C15 1_555 1_555
H150 C15 1_555 1_555
H16 C16 1_555 1_555
H160 C16 1_555 1_555
H17 C17 1_555 1_555
H170 C17 1_555 1_555
H18 C18 1_555 1_555
H180 C18 1_555 1_555
H181 C18 1_555 1_555
H190 C19 1_555 1_555
H191 C19 1_555 1_555
H2 C2 1_555 1_555
H201 C20 1_555 1_555
H20 C2 1_555 1_555
H200 C20 1_555 1_555
H4 C4 1_555 1_555
H40 C4 1_555 1_555
H5 C5 1_555 1_555
H6 C6 1_555 1_555
H60 C6 1_555 1_555
H7 C7 1_555 1_555
H70 C7 1_555 1_555
H8 C8 1_555 1_555
H9 C9 1_555 1_555
C11 C9 1_555 1_555
C4 C5 1_555 1_555
C7 C8 1_555 1_555
C8 C9 1_555 1_555

#END
