
#######################################################################
#
#                 Cambridge Crystallographic Data Centre
#                                CCDC 
#
#######################################################################
#
# If this CIF has been generated from an entry in the Cambridge 
# Structural Database, then it will include bibliographic, chemical, 
# crystal, experimental, refinement or atomic coordinate data resulting 
# from the CCDC's data processing and validation procedures.
#
#######################################################################

data_NABKAD
_chemical_formula_moiety         'C44 H56 N4 O4 S2'
_chemical_name_systematic        
syn-anti-5,17-bis(N'-Methylthioureido)-25,26,27,28-tetrakis(n-propoxy)calix(4)arene
_symmetry_cell_setting           monoclinic
_symmetry_space_group_name_H-M   'C 2/c'
_symmetry_Int_Tables_number      15
_space_group_name_Hall           '-C 2yn'
loop_
_symmetry_equiv_pos_site_id
_symmetry_equiv_pos_as_xyz
1 x,y,z
2 1/2+x,1/2+y,z
3 -x,y,1/2-z
4 1/2-x,1/2+y,1/2-z
5 -x,-y,-z
6 1/2-x,1/2-y,-z
7 x,-y,1/2+z
8 1/2+x,1/2-y,1/2+z
_cell_length_a                   25.021(4)
_cell_length_b                   9.4409(16)
_cell_length_c                   17.902(3)
_cell_angle_alpha                90
_cell_angle_beta                 99.367(3)
_cell_angle_gamma                90
_cell_volume                     4172.44
_chemical_melting_point          258.3-259.8deg.C
_cell_formula_units_Z            4
loop_
_atom_site_label
_atom_site_type_symbol
_atom_site_fract_x
_atom_site_fract_y
_atom_site_fract_z
S1 S 0.26289(7) 0.6719(2) 0.11600(10)
O1 O 0.06048(16) 0.2066(4) -0.1885(2)
N1 N 0.2114(2) 0.4259(6) 0.1000(3)
H1 H 0.1876 0.3699 0.0741
C1 C 0.2376(3) 0.3779(8) 0.1745(4)
H2 H 0.2239 0.2850 0.1847
H3 H 0.2299 0.4442 0.2127
H4 H 0.2764 0.3727 0.1755
O2 O 0.07423(15) 0.1764(4) -0.3623(2)
N2 N 0.19550(19) 0.5744(6) -0.0022(3)
H5 H 0.2007 0.6572 -0.0212
C2 C 0.2211(2) 0.5487(7) 0.0691(4)
C3 C 0.1608(2) 0.4791(6) -0.0494(3)
C4 C 0.1139(2) 0.4275(6) -0.0272(3)
H6 H 0.1049 0.4546 0.0197
C5 C 0.0800(2) 0.3363(6) -0.0738(3)
C6 C 0.0943(2) 0.2946(6) -0.1425(3)
C7 C 0.1393(2) 0.3524(6) -0.1679(3)
C8 C 0.1726(2) 0.4414(6) -0.1194(3)
H7 H 0.2042 0.4771 -0.1347
C9 C 0.0242(2) 0.2954(6) -0.0568(3)
H8 H 0.0179 0.1942 -0.0666
H9 H 0.0226 0.3132 -0.0033
C10 C 0.0795(4) 0.0597(10) -0.1905(5)
H10 H 0.0675 0.0216 -0.2414
H11 H 0.1192 0.0599 -0.1816
C11 C 0.0617(4) -0.0308(11) -0.1381(6)
H12 H 0.0220 -0.0299 -0.1454
H13 H 0.0752 0.0029 -0.0868
C12 C 0.0819(4) -0.1849(8) -0.1474(6)
H14 H 0.0689 -0.2460 -0.1106
H15 H 0.1212 -0.1860 -0.1392
H16 H 0.0682 -0.2186 -0.1980
C13 C 0.1478(2) 0.3260(7) -0.2486(3)
H17 H 0.1478 0.2239 -0.2586
H18 H 0.1829 0.3644 -0.2562
C14 C 0.1027(2) 0.3969(6) -0.3029(3)
C15 C 0.0657(2) 0.3208(6) -0.3539(3)
C16 C -0.0194(2) 0.3809(6) -0.1059(3)
C17 C -0.0124(2) 0.5261(7) -0.1151(3)
H19 H 0.0186 0.5702 -0.0884
C18 C -0.0497(2) 0.6070(7) -0.1620(4)
H20 H -0.0449 0.7053 -0.1658
C19 C 0.0938(2) 0.5418(7) -0.2969(3)
H21 H 0.1187 0.5962 -0.2638
C20 C 0.1097(3) 0.1465(8) -0.4159(4)
H22 H 0.1425 0.2045 -0.4046
H23 H 0.0915 0.1696 -0.4672
C21 C 0.1249(5) -0.0109(10) -0.4113(7)
H24 H 0.1374 -0.0368 -0.3583
H25 H 0.0927 -0.0679 -0.4300
C22 C 0.1678(5) -0.0427(13) -0.4564(7)
H26 H 0.1763 -0.1429 -0.4528
H27 H 0.1999 0.0119 -0.4372
H28 H 0.1553 -0.0178 -0.5089
C16B C 0.0194(2) 0.3809(6) -0.3941(3)
C9B C -0.0242(2) 0.2954(6) -0.4432(3)
C5B C -0.0800(2) 0.3363(6) -0.4262(3)
C4B C -0.1139(2) 0.4275(6) -0.4728(3)
C3B C -0.1608(2) 0.4791(6) -0.4506(3)
N2B N -0.19550(19) 0.5744(6) -0.4978(3)
H5B H -0.2007 0.6572 -0.4788
C2B C -0.2211(2) 0.5487(7) -0.5691(4)
S1B S -0.26289(7) 0.6719(2) -0.61600(10)
N1B N -0.2114(2) 0.4259(6) -0.6000(3)
H1B H -0.1876 0.3699 -0.5741
C1B C -0.2376(3) 0.3779(8) -0.6745(4)
H2B H -0.2239 0.2850 -0.6847
H3B H -0.2299 0.4442 -0.7127
H4B H -0.2764 0.3727 -0.6755
C8B C -0.1726(2) 0.4414(6) -0.3806(3)
C7B C -0.1393(2) 0.3524(6) -0.3321(3)
C6B C -0.0943(2) 0.2946(6) -0.3575(3)
O1B O -0.06048(16) 0.2066(4) -0.3115(2)
C10B C -0.0795(4) 0.0597(10) -0.3095(5)
H10B H -0.0675 0.0216 -0.2586
H11B H -0.1192 0.0599 -0.3184
C11B C -0.0617(4) -0.0308(11) -0.3619(6)
H12B H -0.0220 -0.0299 -0.3546
H13B H -0.0752 0.0029 -0.4132
C12B C -0.0819(4) -0.1849(8) -0.3526(6)
H14B H -0.0689 -0.2460 -0.3894
H15B H -0.1212 -0.1860 -0.3608
H16B H -0.0682 -0.2186 -0.3020
C13B C -0.1478(2) 0.3260(7) -0.2514(3)
H17B H -0.1478 0.2239 -0.2414
H18B H -0.1829 0.3644 -0.2438
C14B C -0.1027(2) 0.3969(6) -0.1971(3)
C15B C -0.0657(2) 0.3208(6) -0.1461(3)
O2B O -0.07423(15) 0.1764(4) -0.1377(2)
C20B C -0.1097(3) 0.1465(8) -0.0841(4)
H22B H -0.1425 0.2045 -0.0954
H23B H -0.0915 0.1696 -0.0328
C21B C -0.1249(5) -0.0109(10) -0.0887(7)
H24B H -0.1374 -0.0368 -0.1417
H25B H -0.0927 -0.0679 -0.0700
C22B C -0.1678(5) -0.0427(13) -0.0436(7)
H26B H -0.1763 -0.1429 -0.0472
H27B H -0.1999 0.0119 -0.0628
H28B H -0.1553 -0.0178 0.0089
C19B C -0.0938(2) 0.5418(7) -0.2031(3)
H21B H -0.1187 0.5962 -0.2362
H7B H -0.2042 0.4771 -0.3653
H6B H -0.1049 0.4546 -0.5197
H8B H -0.0179 0.1942 -0.4334
H9B H -0.0226 0.3132 -0.4967
C17B C 0.0124(2) 0.5261(7) -0.3849(3)
H19B H -0.0186 0.5702 -0.4116
C18B C 0.0497(2) 0.6070(7) -0.3380(4)
H20B H 0.0449 0.7053 -0.3342
loop_
_geom_bond_atom_site_label_1
_geom_bond_atom_site_label_2
_geom_bond_site_symmetry_1
_geom_bond_site_symmetry_2
S1 C2 1_555 1_555
O1 C6 1_555 1_555
N1 H1 1_555 1_555
C1 N1 1_555 1_555
H2 C1 1_555 1_555
H3 C1 1_555 1_555
H4 C1 1_555 1_555
O2 C15 1_555 1_555
N2 H5 1_555 1_555
C2 N1 1_555 1_555
C3 N2 1_555 1_555
C4 C3 1_555 1_555
H6 C4 1_555 1_555
C5 C4 1_555 1_555
C6 C5 1_555 1_555
C7 C6 1_555 1_555
C8 C3 1_555 1_555
H7 C8 1_555 1_555
C9 C5 1_555 1_555
H8 C9 1_555 1_555
H9 C9 1_555 1_555
C10 O1 1_555 1_555
H10 C10 1_555 1_555
H11 C10 1_555 1_555
C11 C10 1_555 1_555
H12 C11 1_555 1_555
H13 C11 1_555 1_555
C12 C11 1_555 1_555
H14 C12 1_555 1_555
H15 C12 1_555 1_555
H16 C12 1_555 1_555
C13 C7 1_555 1_555
H17 C13 1_555 1_555
H18 C13 1_555 1_555
C14 C13 1_555 1_555
C15 C14 1_555 1_555
C16 C9 1_555 1_555
C17 C16 1_555 1_555
H19 C17 1_555 1_555
C18 C17 1_555 1_555
H20 C18 1_555 1_555
C19 C14 1_555 1_555
H21 C19 1_555 1_555
C20 O2 1_555 1_555
H22 C20 1_555 1_555
H23 C20 1_555 1_555
C21 C20 1_555 1_555
H24 C21 1_555 1_555
H25 C21 1_555 1_555
C22 C21 1_555 1_555
H26 C22 1_555 1_555
H27 C22 1_555 1_555
H28 C22 1_555 1_555
C16B C15 1_555 1_555
C9B C16B 1_555 1_555
C5B C9B 1_555 1_555
C4B C5B 1_555 1_555
C3B C4B 1_555 1_555
N2B C3B 1_555 1_555
H5B N2B 1_555 1_555
C2B N2B 1_555 1_555
S1B C2B 1_555 1_555
N1B C2B 1_555 1_555
H1B N1B 1_555 1_555
C1B N1B 1_555 1_555
H2B C1B 1_555 1_555
H3B C1B 1_555 1_555
H4B C1B 1_555 1_555
C8B C3B 1_555 1_555
C7B C8B 1_555 1_555
C6B C5B 1_555 1_555
O1B C6B 1_555 1_555
C10B O1B 1_555 1_555
H10B C10B 1_555 1_555
H11B C10B 1_555 1_555
C11B C10B 1_555 1_555
H12B C11B 1_555 1_555
H13B C11B 1_555 1_555
C12B C11B 1_555 1_555
H14B C12B 1_555 1_555
H15B C12B 1_555 1_555
H16B C12B 1_555 1_555
C13B C7B 1_555 1_555
H17B C13B 1_555 1_555
H18B C13B 1_555 1_555
C14B C13B 1_555 1_555
C15B C16 1_555 1_555
O2B C15B 1_555 1_555
C20B O2B 1_555 1_555
H22B C20B 1_555 1_555
H23B C20B 1_555 1_555
C21B C20B 1_555 1_555
H24B C21B 1_555 1_555
H25B C21B 1_555 1_555
C22B C21B 1_555 1_555
H26B C22B 1_555 1_555
H27B C22B 1_555 1_555
H28B C22B 1_555 1_555
C19B C18 1_555 1_555
H21B C19B 1_555 1_555
H7B C8B 1_555 1_555
H6B C4B 1_555 1_555
H8B C9B 1_555 1_555
H9B C9B 1_555 1_555
C17B C16B 1_555 1_555
H19B C17B 1_555 1_555
C18B C19 1_555 1_555
H20B C18B 1_555 1_555
N2 C2 1_555 1_555
C7 C8 1_555 1_555
C7B C6B 1_555 1_555
C14B C15B 1_555 1_555
C14B C19B 1_555 1_555
C17B C18B 1_555 1_555

#END
