
#######################################################################
#
#                 Cambridge Crystallographic Data Centre
#                                CCDC 
#
#######################################################################
#
# If this CIF has been generated from an entry in the Cambridge 
# Structural Database, then it will include bibliographic, chemical, 
# crystal, experimental, refinement or atomic coordinate data resulting 
# from the CCDC's data processing and validation procedures.
#
#######################################################################

data_NACBAX
_chemical_formula_moiety         'C23 H33 F1 O4'
_chemical_name_systematic        
'8-(2-(4-fluoro-6-oxotetrahydro-2H-pyran-2-yl)ethyl)-7-methyl-1,2,3,7,8,8a-hexahydronaphthalen-1-yl 2-methylbutanoate'
_symmetry_cell_setting           orthorhombic
_symmetry_space_group_name_H-M   'P 21 21 21'
_symmetry_Int_Tables_number      19
_space_group_name_Hall           'P 2ac 2ab'
loop_
_symmetry_equiv_pos_site_id
_symmetry_equiv_pos_as_xyz
1 x,y,z
2 1/2-x,-y,1/2+z
3 -x,1/2+y,1/2-z
4 1/2+x,1/2-y,-z
_cell_length_a                   9.0212(8)
_cell_length_b                   9.7370(9)
_cell_length_c                   24.2879(19)
_cell_angle_alpha                90
_cell_angle_beta                 90
_cell_angle_gamma                90
_cell_volume                     2133.44
_exptl_crystal_colour            colorless
_exptl_crystal_description       sheet
_cell_formula_units_Z            4
loop_
_atom_site_label
_atom_site_type_symbol
_atom_site_fract_x
_atom_site_fract_y
_atom_site_fract_z
F1 F 0.6379(16) -0.176(2) 1.0446(5)
O1 O -0.0332(3) 0.0928(3) 0.81285(10)
O2 O -0.1369(6) -0.0086(4) 0.88612(16)
O3 O 0.3948(11) -0.4766(7) 0.9434(3)
O4 O 0.4090(5) -0.2680(4) 0.91039(14)
C1 C -0.0179(4) -0.0401(3) 0.78601(15)
H1 H -0.0066 -0.1127 0.8142
C2 C 0.1205(4) -0.0348(3) 0.75004(14)
H2 H 0.1352 -0.1291 0.7357
C3 C 0.2639(4) 0.0032(4) 0.78047(15)
H3 H 0.2549 0.1002 0.7922
C4 C 0.3974(4) -0.0061(4) 0.74085(16)
H4 H 0.4822 0.0393 0.7592
C5 C 0.3657(4) 0.0730(4) 0.68928(17)
H5 H 0.4463 0.1037 0.6680
C6 C 0.2299(5) 0.1019(4) 0.67209(17)
H6 H 0.2192 0.1549 0.6400
C7 C 0.0964(4) 0.0559(3) 0.70024(15)
C8 C -0.0398(5) 0.0874(4) 0.68253(16)
H7 H -0.0472 0.1423 0.6508
C9 C -0.1814(5) 0.0423(4) 0.7090(2)
H8 H -0.2488 0.0073 0.6807
H9 H -0.2289 0.1215 0.7266
C10 C -0.1555(4) -0.0682(4) 0.75162(19)
H10 H -0.1446 -0.1570 0.7331
H11 H -0.2420 -0.0739 0.7759
C11 C -0.0968(5) 0.0940(5) 0.86321(17)
C12 C -0.1038(8) 0.2356(5) 0.8874(2)
H12 H -0.0932 0.3070 0.8586
C13 C 0.0108(19) 0.2552(14) 0.9338(7)
H13 H -0.0051 0.3449 0.9511
H14 H -0.0049 0.1845 0.9619
C14 C 0.170(3) 0.247(2) 0.9133(9)
H15 H 0.1864 0.1579 0.8964
H16 H 0.2371 0.2586 0.9440
H17 H 0.1869 0.3186 0.8864
C15 C -0.2419(15) 0.2549(9) 0.9196(4)
H18 H -0.3241 0.2711 0.8947
H19 H -0.2306 0.3331 0.9440
H20 H -0.2613 0.1731 0.9413
C16 C 0.2845(4) -0.0839(4) 0.83248(16)
H21 H 0.1974 -0.0714 0.8561
H22 H 0.2876 -0.1808 0.8217
C17 C 0.4228(5) -0.0525(5) 0.86638(18)
H23 H 0.5109 -0.0828 0.8462
H24 H 0.4306 0.0470 0.8720
C18 C 0.4174(5) -0.1239(5) 0.92180(17)
H25 H 0.3247 -0.0962 0.9405
C19 C 0.5460(6) -0.0911(8) 0.9597(2)
H26 H 0.6398 -0.1036 0.9400
H27 H 0.5398 0.0048 0.9717
C20 C 0.5408(8) -0.1840(11) 1.0084(3)
H28 H 0.4595 -0.1378 1.0286
C21 C 0.4825(14) -0.3031(13) 1.0047(4)
H29 H 0.4001 -0.3051 1.0310
H30 H 0.5566 -0.3684 1.0183
C22 C 0.4231(10) -0.3619(9) 0.9508(3)
C23 C 0.4457(5) -0.1520(5) 0.7269(2)
H31 H 0.3628 -0.2017 0.7111
H32 H 0.4784 -0.1981 0.7602
H33 H 0.5265 -0.1490 0.7006
H34? H -0.1244 0.2920 0.8544
C24? C 0.059(3) 0.278(2) 0.9010(11)
H35? H 0.1177 0.2759 0.8670
H36? H 0.0593 0.3733 0.9144
C25? C 0.132(4) 0.189(4) 0.9429(13)
H37? H 0.0581 0.1332 0.9612
H38? H 0.1825 0.2459 0.9699
H39? H 0.2040 0.1298 0.9249
H40? H -0.3194 0.1969 0.9046
H41? H -0.2725 0.3503 0.9176
H42? H -0.2241 0.2302 0.9578
loop_
_geom_bond_atom_site_label_1
_geom_bond_atom_site_label_2
_geom_bond_site_symmetry_1
_geom_bond_site_symmetry_2
F1 C20 1_555 1_555
O1 C1 1_555 1_555
O2 C11 1_555 1_555
O3 C22 1_555 1_555
O4 C18 1_555 1_555
C1 H1 1_555 1_555
C2 C1 1_555 1_555
H2 C2 1_555 1_555
C3 C2 1_555 1_555
H3 C3 1_555 1_555
C4 C3 1_555 1_555
H4 C4 1_555 1_555
C5 C4 1_555 1_555
H5 C5 1_555 1_555
C6 C5 1_555 1_555
H6 C6 1_555 1_555
C7 C2 1_555 1_555
C8 C7 1_555 1_555
H7 C8 1_555 1_555
C9 C8 1_555 1_555
H8 C9 1_555 1_555
H9 C9 1_555 1_555
C10 C1 1_555 1_555
H10 C10 1_555 1_555
H11 C10 1_555 1_555
C11 O1 1_555 1_555
C12 C11 1_555 1_555
H12 C12 1_555 1_555
C13 C12 1_555 1_555
H13 C13 1_555 1_555
H14 C13 1_555 1_555
C14 C13 1_555 1_555
H15 C14 1_555 1_555
H16 C14 1_555 1_555
H17 C14 1_555 1_555
C15 C12 1_555 1_555
H18 C15 1_555 1_555
H19 C15 1_555 1_555
H20 C15 1_555 1_555
C16 C3 1_555 1_555
H21 C16 1_555 1_555
H22 C16 1_555 1_555
C17 C16 1_555 1_555
H23 C17 1_555 1_555
H24 C17 1_555 1_555
C18 C17 1_555 1_555
H25 C18 1_555 1_555
C19 C18 1_555 1_555
H26 C19 1_555 1_555
H27 C19 1_555 1_555
C20 C19 1_555 1_555
H28 C20 1_555 1_555
C21 C20 1_555 1_555
H29 C21 1_555 1_555
H30 C21 1_555 1_555
C22 O4 1_555 1_555
C23 C4 1_555 1_555
H31 C23 1_555 1_555
H32 C23 1_555 1_555
H33 C23 1_555 1_555
C6 C7 1_555 1_555
C9 C10 1_555 1_555
C21 C22 1_555 1_555

#END
