
#######################################################################
#
#                 Cambridge Crystallographic Data Centre
#                                CCDC 
#
#######################################################################
#
# If this CIF has been generated from an entry in the Cambridge 
# Structural Database, then it will include bibliographic, chemical, 
# crystal, experimental, refinement or atomic coordinate data resulting 
# from the CCDC's data processing and validation procedures.
#
#######################################################################

data_NACHAA
_chemical_formula_moiety         'C20 H17 N1 O4,0.25(C6 H14)'
_chemical_name_systematic        
(2R,3S,4'S)-3'-(2,3-Dihydro-2-phenylfuran-3-oyl)-4'-phenyloxazolidin-2'-one
_symmetry_cell_setting           hexagonal
_symmetry_space_group_name_H-M   'P 61'
_symmetry_Int_Tables_number      169
_space_group_name_Hall           'P 61'
loop_
_symmetry_equiv_pos_site_id
_symmetry_equiv_pos_as_xyz
1 x,y,z
2 x-y,x,1/6+z
3 -y,x-y,1/3+z
4 -x,-y,1/2+z
5 -x+y,-x,2/3+z
6 y,-x+y,5/6+z
_cell_length_a                   15.487(2)
_cell_length_b                   15.487(2)
_cell_length_c                   12.705(1)
_cell_angle_alpha                90
_cell_angle_beta                 90
_cell_angle_gamma                120
_cell_volume                     2639
_exptl_crystal_colour            colorless
_chemical_melting_point          415K
_cell_formula_units_Z            6
loop_
_atom_site_label
_atom_site_type_symbol
_atom_site_fract_x
_atom_site_fract_y
_atom_site_fract_z
O1 O 0.98393(13) 0.45985(13) -0.10652(14)
O2 O 1.03822(14) 0.47021(13) 0.0596(2)
O3 O 0.73379(13) 0.36164(13) 0.12161(14)
O4 O 0.8441(2) 0.19440(14) 0.25295(14)
N1 N 0.87224(14) 0.42289(14) 0.02174(15)
C1 C 0.9715(2) 0.4520(2) -0.0011(2)
C2 C 0.8211(2) 0.4294(2) -0.0741(2)
H1 H 0.7519(2) 0.3709(2) -0.0778(2)
C3 C 0.8869(2) 0.4202(2) -0.1574(2)
H2 H 0.8601(2) 0.3496(2) -0.1776(2)
H3 H 0.8916(2) 0.4592(2) -0.2211(2)
C4 C 0.8198(2) 0.3800(2) 0.1146(2)
C5 C 0.8962(2) 0.2710(2) 0.1730(2)
H4 H 0.9696(2) 0.2979(2) 0.1810(2)
C6 C 0.8730(2) 0.3569(2) 0.2008(2)
H5 H 0.9367(2) 0.4191(2) 0.2183(2)
C7 C 0.8113(2) 0.3174(2) 0.2990(2)
H6 H 0.7847(2) 0.3506(2) 0.3386(2)
C8 C 0.8001(2) 0.2293(2) 0.3217(2)
H7 H 0.7639(2) 0.1921(2) 0.3816(2)
C9 C 0.8183(2) 0.5257(2) -0.0780(2)
C10 C 0.7278(2) 0.5238(2) -0.0678(2)
H8 H 0.6677(2) 0.4620(2) -0.0597(2)
C11 C 0.7254(2) 0.6122(2) -0.0706(2)
H9 H 0.6638(2) 0.6106(2) -0.0615(2)
C12 C 0.8124(2) 0.7022(2) -0.0855(2)
H10 H 0.8100(2) 0.7624(2) -0.0875(2)
C13 C 0.9025(2) 0.7046(2) -0.0983(2)
H11 H 0.9621(2) 0.7661(2) -0.1103(2)
C14 C 0.9055(2) 0.6165(2) -0.0935(2)
H12 H 0.9672(2) 0.6179(2) -0.1006(2)
C15 C 0.8646(2) 0.2245(2) 0.0658(2)
C16 C 0.7631(2) 0.1721(2) 0.0379(2)
H13 H 0.7136(2) 0.1626(2) 0.0881(2)
C17 C 0.7355(2) 0.1347(2) -0.0629(2)
H14 H 0.6669(2) 0.0997(2) -0.0814(2)
C18 C 0.8065(2) 0.1478(2) -0.1372(2)
H15 H 0.7865(2) 0.1231(2) -0.2066(2)
C19 C 0.9067(2) 0.1970(2) -0.1093(2)
H16 H 0.9556(2) 0.2048(2) -0.1594(2)
C20 C 0.9353(2) 0.2346(2) -0.0084(2)
H17 H 1.0039(2) 0.2682(2) 0.0103(2)
C21? C 1.0799(43) 0.0197(39) -0.1276(52)
C22? C 1.0249(29) 0.0096(32) -0.0074(39)
C23? C 1.0964(18) -0.0083(21) -0.1545(29)
C24? C 1.0003(76) 0.0316(76) -0.168(10)
C25? C 1.0317(20) -0.0021(20) -0.0734(33)
H18? H 0.9728(23) 0.0405(24) -0.2633(34)
H19? H 1.0154(64) 0.0475(58) -0.0754(95)
H20? H 1.0789(39) 0.0606(43) -0.0527(62)
H21? H 1.0275(47) 0.0262(45) -0.1169(73)
H22? H 0.9819(46) -0.0465(42) -0.0020(47)
loop_
_geom_bond_atom_site_label_1
_geom_bond_atom_site_label_2
_geom_bond_site_symmetry_1
_geom_bond_site_symmetry_2
O1 C1 1_555 1_555
O2 C1 1_555 1_555
O3 C4 1_555 1_555
O4 C5 1_555 1_555
N1 C1 1_555 1_555
C2 N1 1_555 1_555
H1 C2 1_555 1_555
C3 O1 1_555 1_555
H2 C3 1_555 1_555
H3 C3 1_555 1_555
C4 N1 1_555 1_555
C5 H4 1_555 1_555
C6 C4 1_555 1_555
H5 C6 1_555 1_555
C7 C6 1_555 1_555
H6 C7 1_555 1_555
C8 O4 1_555 1_555
H7 C8 1_555 1_555
C9 C2 1_555 1_555
C10 C9 1_555 1_555
H8 C10 1_555 1_555
C11 C10 1_555 1_555
H9 C11 1_555 1_555
C12 C11 1_555 1_555
H10 C12 1_555 1_555
C13 C12 1_555 1_555
H11 C13 1_555 1_555
C14 C9 1_555 1_555
H12 C14 1_555 1_555
C15 C5 1_555 1_555
C16 C15 1_555 1_555
H13 C16 1_555 1_555
C17 C16 1_555 1_555
H14 C17 1_555 1_555
C18 C17 1_555 1_555
H15 C18 1_555 1_555
C19 C18 1_555 1_555
H16 C19 1_555 1_555
C20 C15 1_555 1_555
H17 C20 1_555 1_555
C2 C3 1_555 1_555
C5 C6 1_555 1_555
C7 C8 1_555 1_555
C13 C14 1_555 1_555
C19 C20 1_555 1_555

#END
