
#######################################################################
#
#                 Cambridge Crystallographic Data Centre
#                                CCDC 
#
#######################################################################
#
# If this CIF has been generated from an entry in the Cambridge 
# Structural Database, then it will include bibliographic, chemical, 
# crystal, experimental, refinement or atomic coordinate data resulting 
# from the CCDC's data processing and validation procedures.
#
#######################################################################

data_NACMOV
_chemical_formula_moiety         'C14 H14 Br2 Cl1 N5 O4 S1'
_chemical_name_systematic        
4-(2-Chloro-3-(5,6-dibromo-1,3-dioxo-1H-pyrrolo[1,2-c]imidazol-2(3H)-yl)propyl)-N,N-dimethyl-1H-imidazole-1-sulfonamide
_symmetry_cell_setting           monoclinic
_symmetry_space_group_name_H-M   'P 21'
_symmetry_Int_Tables_number      4
_space_group_name_Hall           'P 2yb'
loop_
_symmetry_equiv_pos_site_id
_symmetry_equiv_pos_as_xyz
1 x,y,z
2 -x,1/2+y,-z
_cell_length_a                   9.474(3)
_cell_length_b                   6.900(2)
_cell_length_c                   15.745(5)
_cell_angle_alpha                90
_cell_angle_beta                 105.240(5)
_cell_angle_gamma                90
_cell_volume                     993.064
_exptl_crystal_colour            colorless
_exptl_crystal_description       prism
_cell_formula_units_Z            2
loop_
_atom_site_label
_atom_site_type_symbol
_atom_site_fract_x
_atom_site_fract_y
_atom_site_fract_z
Br1 Br 0.78215(6) 0.49903(9) -0.06463(4)
Br2 Br 0.79425(6) -0.00145(10) 0.00868(4)
Cl1 Cl 0.68399(17) 0.2392(3) 0.42407(11)
S1 S 0.96647(16) -0.2193(3) 0.73640(11)
O1 O 1.0913(5) -0.3338(9) 0.7361(4)
O2 O 0.8730(5) -0.2688(10) 0.7892(3)
O3 O 0.4569(5) 0.4691(7) 0.2369(3)
O4 O 0.6397(5) -0.1118(7) 0.1731(3)
N1 N 1.0129(5) 0.0015(12) 0.7530(3)
N2 N 0.8656(4) -0.2319(8) 0.6316(3)
N3 N 0.8116(6) -0.2847(12) 0.4892(4)
N4 N 0.5386(5) 0.1547(7) 0.2235(3)
N5 N 0.6346(5) 0.1949(6) 0.1114(3)
C1 C 0.9172(13) 0.1390(17) 0.7837(8)
H1 H 0.9726 0.2516 0.8082
H2 H 0.8792 0.0779 0.8278
H3 H 0.8377 0.1768 0.7349
C2 C 1.0986(9) 0.0844(14) 0.6976(6)
H4 H 1.0355 0.1132 0.6406
H5 H 1.1720 -0.0067 0.6916
H6 H 1.1449 0.2014 0.7241
C3 C 0.9093(7) -0.3097(12) 0.5620(5)
H7 H 0.9982 -0.3721 0.5672
C4 C 0.7306(6) -0.1470(9) 0.5954(4)
H8 H 0.6737 -0.0790 0.6253
C5 C 0.6984(6) -0.1824(10) 0.5088(4)
C6 C 0.5691(6) -0.1167(11) 0.4378(4)
H9 H 0.5022 -0.0470 0.4640
H10 H 0.5181 -0.2290 0.4074
C7 C 0.6146(5) 0.0143(10) 0.3715(3)
H11 H 0.6930 -0.0500 0.3522
C8 C 0.4891(6) 0.0535(9) 0.2918(4)
H12 H 0.4439 -0.0683 0.2685
H13 H 0.4160 0.1315 0.3090
C9 C 0.5165(6) 0.3534(9) 0.2011(4)
C10 C 0.5843(6) 0.3755(8) 0.1272(4)
C11 C 0.6235(5) 0.5052(11) 0.0723(3)
H14 H 0.6032 0.6373 0.0683
C12 C 0.7009(6) 0.3997(9) 0.0230(4)
C13 C 0.7075(5) 0.2101(9) 0.0475(3)
C14 C 0.6076(6) 0.0572(9) 0.1704(4)
loop_
_geom_bond_atom_site_label_1
_geom_bond_atom_site_label_2
_geom_bond_site_symmetry_1
_geom_bond_site_symmetry_2
Br1 C12 1_555 1_555
Br2 C13 1_555 1_555
Cl1 C7 1_555 1_555
S1 O1 1_555 1_555
O2 S1 1_555 1_555
O3 C9 1_555 1_555
O4 C14 1_555 1_555
N1 S1 1_555 1_555
N2 S1 1_555 1_555
N3 C3 1_555 1_555
N4 C8 1_555 1_555
N5 C10 1_555 1_555
C1 N1 1_555 1_555
H1 C1 1_555 1_555
H2 C1 1_555 1_555
H3 C1 1_555 1_555
C2 N1 1_555 1_555
H4 C2 1_555 1_555
H5 C2 1_555 1_555
H6 C2 1_555 1_555
C3 N2 1_555 1_555
H7 C3 1_555 1_555
C4 N2 1_555 1_555
H8 C4 1_555 1_555
C5 N3 1_555 1_555
C6 C5 1_555 1_555
H9 C6 1_555 1_555
H10 C6 1_555 1_555
C7 C6 1_555 1_555
H11 C7 1_555 1_555
C8 C7 1_555 1_555
H12 C8 1_555 1_555
H13 C8 1_555 1_555
C9 N4 1_555 1_555
C10 C9 1_555 1_555
C11 C10 1_555 1_555
H14 C11 1_555 1_555
C12 C11 1_555 1_555
C13 N5 1_555 1_555
C14 N4 1_555 1_555
N5 C14 1_555 1_555
C4 C5 1_555 1_555
C12 C13 1_555 1_555

#END
