
#######################################################################
#
#                 Cambridge Crystallographic Data Centre
#                                CCDC 
#
#######################################################################
#
# If this CIF has been generated from an entry in the Cambridge 
# Structural Database, then it will include bibliographic, chemical, 
# crystal, experimental, refinement or atomic coordinate data resulting 
# from the CCDC's data processing and validation procedures.
#
#######################################################################

data_NADBIE
_chemical_formula_moiety         'C20 H13 N1 O2'
_chemical_name_systematic        1-Formyl-3-benzoylbenzo(d)indolizine
_symmetry_cell_setting           monoclinic
_symmetry_space_group_name_H-M   'P 21/c'
_symmetry_Int_Tables_number      14
_space_group_name_Hall           '-P 2ybc'
loop_
_symmetry_equiv_pos_site_id
_symmetry_equiv_pos_as_xyz
1 x,y,z
2 x,1/2-y,1/2+z
3 -x,-y,-z
4 -x,1/2+y,1/2-z
_cell_length_a                   14.1907(15)
_cell_length_b                   6.8890(7)
_cell_length_c                   29.670(3)
_cell_angle_alpha                90
_cell_angle_beta                 96.791(2)
_cell_angle_gamma                90
_cell_volume                     2880.18
_exptl_crystal_colour            colorless
_cell_formula_units_Z            8
loop_
_atom_site_label
_atom_site_type_symbol
_atom_site_fract_x
_atom_site_fract_y
_atom_site_fract_z
H1 H 0.6043(13) 0.182(3) 0.0305(7)
O3 O 0.49922(12) -0.0944(3) 0.23314(7)
O4 O 0.47197(13) 0.2051(3) 0.02625(6)
N2 N 0.61819(13) 0.0519(3) 0.16639(6)
C21 C 0.68207(19) 0.0219(4) 0.20478(9)
C22 C 0.77458(19) 0.0322(4) 0.20199(9)
C23 C 0.81016(16) 0.0710(3) 0.16010(8)
C24 C 0.90751(18) 0.0783(4) 0.15724(11)
C25 C 0.94195(19) 0.1128(4) 0.11734(10)
C26 C 0.87953(19) 0.1425(4) 0.07834(10)
C27 C 0.78387(18) 0.1370(4) 0.08008(9)
C28 C 0.74628(15) 0.1000(3) 0.12059(8)
C29 C 0.64646(16) 0.0930(3) 0.12418(8)
C30 C 0.56172(16) 0.1222(4) 0.09459(8)
C31 C 0.48690(18) 0.1018(4) 0.12005(9)
C32 C 0.51948(16) 0.0573(4) 0.16398(8)
C33 C 0.5489(2) 0.1696(5) 0.04711(10)
C34 C 0.46534(18) -0.0011(4) 0.20016(9)
C35 C 0.36230(18) 0.0523(5) 0.19467(8)
C36 C 0.2963(3) -0.0872(6) 0.20379(11)
C37 C 0.2001(3) -0.0328(8) 0.20068(12)
C38 C 0.1738(3) 0.1529(8) 0.19140(12)
C39 C 0.2389(2) 0.2910(7) 0.18328(11)
C40 C 0.3331(2) 0.2392(5) 0.18435(10)
H15 H 0.6494(15) -0.012(3) 0.2310(6)
H16 H 0.8190(17) 0.019(3) 0.2272(9)
H17 H 0.9488(15) 0.058(3) 0.1830(8)
H18 H 1.0106(15) 0.123(3) 0.1140(7)
H19 H 0.9039(14) 0.172(3) 0.0504(7)
H20 H 0.7419(14) 0.159(3) 0.0538(7)
H21 H 0.4195(11) 0.118(3) 0.1077(7)
H22 H 0.3224(17) -0.214(4) 0.2103(9)
H23 H 0.163(2) -0.126(4) 0.2077(10)
H24 H 0.107(2) 0.197(4) 0.1879(10)
H25 H 0.221(2) 0.423(3) 0.1774(12)
H26 H 0.3832(19) 0.340(4) 0.1792(9)
O1 O 0.97824(11) 0.7466(3) 0.00813(6)
O2 O 1.02350(14) 0.5563(3) 0.22371(6)
N1 N 0.86982(12) 0.6328(3) 0.08122(6)
C1 C 0.80376(17) 0.6512(4) 0.04318(9)
C2 C 0.71199(18) 0.6445(4) 0.04772(9)
C3 C 0.67924(16) 0.6172(3) 0.09062(9)
C4 C 0.58223(18) 0.6151(4) 0.09511(11)
C5 C 0.5515(2) 0.5847(4) 0.13594(11)
C6 C 0.61567(19) 0.5498(4) 0.17416(11)
C7 C 0.71076(18) 0.5535(4) 0.17083(9)
C8 C 0.74550(15) 0.5894(3) 0.12933(8)
C9 C 0.84447(15) 0.6002(3) 0.12433(8)
C10 C 0.93072(16) 0.5901(4) 0.15376(8)
C11 C 1.00389(17) 0.6163(4) 0.12749(8)
C12 C 0.96845(15) 0.6435(4) 0.08284(8)
C13 C 0.9460(2) 0.5639(5) 0.20219(10)
C14 C 1.01812(16) 0.6980(4) 0.04530(9)
C15 C 1.12398(17) 0.7089(4) 0.05356(8)
C16 C 1.1667(2) 0.8797(5) 0.04252(10)
C17 C 1.2645(2) 0.8983(7) 0.04766(11)
C18 C 1.3179(3) 0.7395(7) 0.06190(12)
C19 C 1.2785(2) 0.5697(8) 0.07249(12)
C20 C 1.1789(2) 0.5544(5) 0.06892(10)
H2 H 0.8328(14) 0.669(3) 0.0140(8)
H3 H 0.6637(15) 0.657(3) 0.0208(8)
H4 H 0.5366(16) 0.637(3) 0.0679(8)
H5 H 0.4872(16) 0.585(3) 0.1408(7)
H6 H 0.5907(17) 0.518(3) 0.2043(9)
H7 H 0.7578(15) 0.532(3) 0.1976(7)
H8 H 1.0718(15) 0.622(3) 0.1391(7)
H9 H 0.8916(19) 0.547(4) 0.2177(9)
H10 H 1.1293(17) 0.993(3) 0.0318(9)
H11 H 1.297(2) 1.028(5) 0.0402(10)
H12 H 1.383(2) 0.760(5) 0.0651(11)
H13 H 1.313(2) 0.454(5) 0.0799(11)
H14 H 1.1489(14) 0.426(3) 0.0725(7)
loop_
_geom_bond_atom_site_label_1
_geom_bond_atom_site_label_2
_geom_bond_site_symmetry_1
_geom_bond_site_symmetry_2
H1 C33 1_555 1_555
O1 C14 1_555 1_555
O2 C13 1_555 1_555
O3 C34 1_555 1_555
O4 C33 1_555 1_555
N1 C1 1_555 1_555
N2 C21 1_555 1_555
C1 C2 1_555 1_555
C2 C3 1_555 1_555
C3 C4 1_555 1_555
C4 C5 1_555 1_555
C5 C6 1_555 1_555
C6 C7 1_555 1_555
C7 C8 1_555 1_555
C8 C3 1_555 1_555
C9 N1 1_555 1_555
C10 C9 1_555 1_555
C11 C10 1_555 1_555
C12 N1 1_555 1_555
C13 C10 1_555 1_555
C14 C12 1_555 1_555
C15 C14 1_555 1_555
C16 C15 1_555 1_555
C17 C16 1_555 1_555
C18 C17 1_555 1_555
C19 C18 1_555 1_555
C20 C15 1_555 1_555
C21 C22 1_555 1_555
C22 C23 1_555 1_555
C23 C24 1_555 1_555
C24 C25 1_555 1_555
C25 C26 1_555 1_555
C26 C27 1_555 1_555
C27 C28 1_555 1_555
C28 C23 1_555 1_555
C29 N2 1_555 1_555
C30 C29 1_555 1_555
C31 C30 1_555 1_555
C32 N2 1_555 1_555
C33 C30 1_555 1_555
C34 C32 1_555 1_555
C35 C34 1_555 1_555
C36 C35 1_555 1_555
C37 C36 1_555 1_555
C38 C37 1_555 1_555
C39 C38 1_555 1_555
C40 C35 1_555 1_555
H2 C1 1_555 1_555
H3 C2 1_555 1_555
H4 C4 1_555 1_555
H5 C5 1_555 1_555
H6 C6 1_555 1_555
H7 C7 1_555 1_555
H8 C11 1_555 1_555
H9 C13 1_555 1_555
H10 C16 1_555 1_555
H11 C17 1_555 1_555
H12 C18 1_555 1_555
H13 C19 1_555 1_555
H14 C20 1_555 1_555
H15 C21 1_555 1_555
H16 C22 1_555 1_555
H17 C24 1_555 1_555
H18 C25 1_555 1_555
H19 C26 1_555 1_555
H20 C27 1_555 1_555
H21 C31 1_555 1_555
H22 C36 1_555 1_555
H23 C37 1_555 1_555
H24 C38 1_555 1_555
H25 C39 1_555 1_555
H26 C40 1_555 1_555
C8 C9 1_555 1_555
C11 C12 1_555 1_555
C19 C20 1_555 1_555
C28 C29 1_555 1_555
C31 C32 1_555 1_555
C39 C40 1_555 1_555

#END
