
#######################################################################
#
#                 Cambridge Crystallographic Data Centre
#                                CCDC 
#
#######################################################################
#
# If this CIF has been generated from an entry in the Cambridge 
# Structural Database, then it will include bibliographic, chemical, 
# crystal, experimental, refinement or atomic coordinate data resulting 
# from the CCDC's data processing and validation procedures.
#
#######################################################################

data_NADWAT
_chemical_formula_moiety         'C38 H34 N1 O4 P1 S1'
_chemical_name_systematic        
3-((diphenylphosphoryl)methyl)-3,6-dimethyl-4-(4-methylbenzylidene)-1-(phenylsulfonyl)-3,4-dihydroquinolin-2(1H)-one
_symmetry_cell_setting           monoclinic
_symmetry_space_group_name_H-M   'P 21/c'
_symmetry_Int_Tables_number      14
_space_group_name_Hall           '-P 2ybc'
loop_
_symmetry_equiv_pos_site_id
_symmetry_equiv_pos_as_xyz
1 x,y,z
2 -x,1/2+y,1/2-z
3 -x,-y,-z
4 x,1/2-y,1/2+z
_cell_length_a                   13.8300(11)
_cell_length_b                   21.2702(18)
_cell_length_c                   14.1309(13)
_cell_angle_alpha                90
_cell_angle_beta                 119.452(3)
_cell_angle_gamma                90
_cell_volume                     3619.65
_exptl_crystal_colour            white
_exptl_crystal_description       block
_cell_formula_units_Z            4
loop_
_atom_site_label
_atom_site_type_symbol
_atom_site_fract_x
_atom_site_fract_y
_atom_site_fract_z
N1 N 0.4299(5) 0.1504(3) 0.4327(5)
O1 O 0.0325(4) 0.2028(2) 0.1255(4)
O2 O 0.4402(4) 0.2468(2) 0.5079(5)
O3 O 0.6000(4) 0.1530(2) 0.6217(4)
O4 O 0.5941(4) 0.0827(2) 0.4798(4)
P1 P 0.04219(17) 0.20346(10) 0.23286(18)
S1 S 0.56953(16) 0.14261(10) 0.5117(2)
C1 C 0.3859(7) 0.2115(4) 0.4330(7)
C2 C 0.2756(6) 0.2289(3) 0.3342(6)
C3 C 0.2875(6) 0.2082(3) 0.2373(6)
C4 C 0.3034(6) 0.1378(3) 0.2399(7)
C5 C 0.3681(6) 0.1109(3) 0.3400(7)
C6 C 0.3748(7) 0.0448(3) 0.3505(7)
H1 H 0.4178 0.0259 0.4178
C7 C 0.3161(7) 0.0092(4) 0.2583(8)
H2 H 0.3180 -0.0343 0.2649
C8 C 0.2565(7) 0.0344(4) 0.1598(8)
C9 C 0.2468(6) 0.1008(4) 0.1529(7)
H3 H 0.1998 0.1193 0.0861
C10 C 0.1934(8) -0.0036(4) 0.0602(8)
H4 H 0.2244 -0.0451 0.0721
H5 H 0.1979 0.0158 0.0011
H6 H 0.1172 -0.0061 0.0429
C11 C 0.2947(6) 0.2411(3) 0.1630(6)
H7 H 0.3198 0.2189 0.1226
C12 C 0.2693(6) 0.3082(3) 0.1329(6)
C13 C 0.1639(7) 0.3312(3) 0.0882(6)
H8 H 0.1079 0.3055 0.0847
C14 C 0.1380(6) 0.3924(3) 0.0477(6)
H9 H 0.0654 0.4070 0.0172
C15 C 0.2211(8) 0.4313(3) 0.0529(6)
C16 C 0.3267(7) 0.4088(4) 0.0996(6)
H10 H 0.3837 0.4348 0.1059
C17 C 0.3507(7) 0.3465(3) 0.1385(6)
H11 H 0.4229 0.3314 0.1683
C18 C 0.1908(8) 0.4972(3) 0.0023(7)
H12 H 0.2483 0.5263 0.0472
H13 H 0.1219 0.5103 -0.0029
H14 H 0.1832 0.4963 -0.0690
C19 C 0.1817(6) 0.1927(3) 0.3424(6)
H15 H 0.1839 0.2052 0.4094
H16 H 0.1988 0.1482 0.3480
C20 C 0.2609(6) 0.3002(3) 0.3422(6)
H17 H 0.3194 0.3224 0.3385
H18 H 0.2636 0.3095 0.4099
H19 H 0.1905 0.3132 0.2831
C21 C -0.0341(6) 0.1411(4) 0.2495(7)
C22 C -0.0119(7) 0.0814(4) 0.2298(7)
H20 H 0.0423 0.0744 0.2103
C23 C -0.0712(9) 0.0312(5) 0.2391(8)
H21 H -0.0532 -0.0096 0.2295
C24 C -0.1546(9) 0.0404(5) 0.2619(8)
H22 H -0.1977 0.0066 0.2610
C25 C -0.1753(8) 0.0994(5) 0.2862(8)
H23 H -0.2293 0.1059 0.3062
C26 C -0.1125(7) 0.1507(4) 0.2800(7)
H24 H -0.1250 0.1911 0.2969
C27 C -0.0097(6) 0.2764(4) 0.2593(8)
C28 C 0.0061(6) 0.2923(4) 0.3585(8)
H25 H 0.0449 0.2653 0.4170
C29 C -0.0351(7) 0.3487(5) 0.3739(9)
H26 H -0.0235 0.3599 0.4423
C30 C -0.0926(8) 0.3871(4) 0.2871(11)
H27 H -0.1223 0.4242 0.2966
C31 C -0.1079(7) 0.3731(4) 0.1879(10)
H28 H -0.1453 0.4007 0.1301
C32 C -0.0666(6) 0.3166(4) 0.1735(8)
H29 H -0.0776 0.3059 0.1051
C33 C 0.6206(6) 0.2023(4) 0.4615(7)
C34 C 0.6031(7) 0.1970(4) 0.3601(8)
H30 H 0.5670 0.1620 0.3183
C35 C 0.6396(8) 0.2448(5) 0.3181(9)
H31 H 0.6259 0.2428 0.2468
C36 C 0.6946(8) 0.2936(5) 0.3816(10)
H32 H 0.7224 0.3242 0.3545
C37 C 0.7113(8) 0.3000(5) 0.4845(10)
H33 H 0.7485 0.3351 0.5255
C38 C 0.6738(7) 0.2551(5) 0.5279(8)
H34 H 0.6827 0.2591 0.5973
loop_
_geom_bond_atom_site_label_1
_geom_bond_atom_site_label_2
_geom_bond_site_symmetry_1
_geom_bond_site_symmetry_2
N1 S1 1_555 1_555
O1 P1 1_555 1_555
O2 C1 1_555 1_555
O3 S1 1_555 1_555
O4 S1 1_555 1_555
P1 C19 1_555 1_555
S1 C33 1_555 1_555
C1 N1 1_555 1_555
C2 C1 1_555 1_555
C3 C2 1_555 1_555
C4 C3 1_555 1_555
C5 N1 1_555 1_555
C6 C5 1_555 1_555
H1 C6 1_555 1_555
C7 C6 1_555 1_555
H2 C7 1_555 1_555
C8 C7 1_555 1_555
C9 C4 1_555 1_555
H3 C9 1_555 1_555
C10 C8 1_555 1_555
H4 C10 1_555 1_555
H5 C10 1_555 1_555
H6 C10 1_555 1_555
C11 C3 1_555 1_555
H7 C11 1_555 1_555
C12 C11 1_555 1_555
C13 C12 1_555 1_555
H8 C13 1_555 1_555
C14 C13 1_555 1_555
H9 C14 1_555 1_555
C15 C14 1_555 1_555
C16 C15 1_555 1_555
H10 C16 1_555 1_555
C17 C12 1_555 1_555
H11 C17 1_555 1_555
C18 C15 1_555 1_555
H12 C18 1_555 1_555
H13 C18 1_555 1_555
H14 C18 1_555 1_555
C19 C2 1_555 1_555
H15 C19 1_555 1_555
H16 C19 1_555 1_555
C20 C2 1_555 1_555
H17 C20 1_555 1_555
H18 C20 1_555 1_555
H19 C20 1_555 1_555
C21 P1 1_555 1_555
C22 C21 1_555 1_555
H20 C22 1_555 1_555
C23 C22 1_555 1_555
H21 C23 1_555 1_555
C24 C23 1_555 1_555
H22 C24 1_555 1_555
C25 C24 1_555 1_555
H23 C25 1_555 1_555
C26 C21 1_555 1_555
H24 C26 1_555 1_555
C27 P1 1_555 1_555
C28 C27 1_555 1_555
H25 C28 1_555 1_555
C29 C28 1_555 1_555
H26 C29 1_555 1_555
C30 C29 1_555 1_555
H27 C30 1_555 1_555
C31 C30 1_555 1_555
H28 C31 1_555 1_555
C32 C27 1_555 1_555
H29 C32 1_555 1_555
C33 C34 1_555 1_555
C34 H30 1_555 1_555
C35 C34 1_555 1_555
H31 C35 1_555 1_555
C36 C35 1_555 1_555
H32 C36 1_555 1_555
C37 C36 1_555 1_555
H33 C37 1_555 1_555
C38 C33 1_555 1_555
H34 C38 1_555 1_555
C4 C5 1_555 1_555
C8 C9 1_555 1_555
C16 C17 1_555 1_555
C25 C26 1_555 1_555
C31 C32 1_555 1_555
C37 C38 1_555 1_555

#END
