
#######################################################################
#
#                 Cambridge Crystallographic Data Centre
#                                CCDC 
#
#######################################################################
#
# If this CIF has been generated from an entry in the Cambridge 
# Structural Database, then it will include bibliographic, chemical, 
# crystal, experimental, refinement or atomic coordinate data resulting 
# from the CCDC's data processing and validation procedures.
#
#######################################################################

data_NAGTUK02
_chemical_formula_moiety         'C18 H24 N2 Te2'
_chemical_name_systematic        
bis(o-(Dimethylaminomethyl)phenyl)-di-tellurium
_symmetry_cell_setting           orthorhombic
_symmetry_space_group_name_H-M   'P c a b'
_symmetry_Int_Tables_number      61
_space_group_name_Hall           '-P 2bc 2ac'
loop_
_symmetry_equiv_pos_site_id
_symmetry_equiv_pos_as_xyz
1 x,y,z
2 -x,1/2-y,1/2+z
3 1/2+x,-y,1/2-z
4 1/2-x,1/2+y,-z
5 -x,-y,-z
6 x,1/2+y,1/2-z
7 1/2-x,y,1/2+z
8 1/2+x,1/2-y,z
_cell_length_a                   9.098(3)
_cell_length_b                   18.9503(17)
_cell_length_c                   23.172(3)
_cell_angle_alpha                90
_cell_angle_beta                 90
_cell_angle_gamma                90
_cell_volume                     3995.08
_exptl_crystal_colour            yellow
_exptl_crystal_description       chunk
_cell_formula_units_Z            8
loop_
_atom_site_label
_atom_site_type_symbol
_atom_site_fract_x
_atom_site_fract_y
_atom_site_fract_z
Te1 Te 0.13283(2) 0.008841(12) 0.121392(11)
Te2 Te -0.12604(3) 0.076259(13) 0.095071(11)
N1 N 0.3927(3) -0.04843(16) 0.17696(14)
N2 N -0.3774(3) 0.14395(17) 0.04704(15)
C1 C 0.2264(4) 0.08655(17) 0.17706(16)
C2 C 0.1926(5) 0.15776(19) 0.17062(18)
H1 H 0.1248 0.1720 0.1429
C3 C 0.2599(6) 0.2072(2) 0.2054(2)
H2 H 0.2379 0.2548 0.2009
C4 C 0.3593(6) 0.1865(3) 0.2468(2)
H3 H 0.4058 0.2201 0.2697
C5 C 0.3896(5) 0.1158(2) 0.2542(2)
H4 H 0.4551 0.1019 0.2828
C6 C 0.3237(5) 0.0649(2) 0.21955(17)
C7 C 0.3543(5) -0.0127(2) 0.22979(18)
H5 H 0.4342 -0.0175 0.2572
H6 H 0.2678 -0.0347 0.2464
C8 C 0.5353(5) -0.0280(3) 0.1555(3)
H7 H 0.5412 0.0226 0.1538
H8 H 0.5494 -0.0473 0.1176
H9 H 0.6101 -0.0456 0.1809
C9 C 0.3833(7) -0.1251(2) 0.1832(3)
H10 H 0.2852 -0.1380 0.1943
H11 H 0.4513 -0.1405 0.2123
H12 H 0.4071 -0.1472 0.1471
C10 C -0.0656(4) 0.12578(18) 0.01572(15)
C11 C 0.0580(4) 0.1058(2) -0.01476(16)
H13 H 0.1202 0.0715 0.0003
C12 C 0.0900(5) 0.1363(2) -0.06751(18)
H14 H 0.1731 0.1220 -0.0878
C13 C 0.0009(5) 0.1872(2) -0.09019(18)
H15 H 0.0237 0.2082 -0.1254
C14 C -0.1246(5) 0.2074(2) -0.05996(19)
H16 H -0.1872 0.2410 -0.0758
C15 C -0.1580(4) 0.17794(19) -0.00621(16)
C16 C -0.2903(4) 0.20232(19) 0.02635(19)
H17 H -0.2592 0.2308 0.0589
H18 H -0.3503 0.2317 0.0014
C17 C -0.4472(6) 0.1065(3) -0.0007(2)
H19 H -0.3740 0.0931 -0.0284
H20 H -0.5183 0.1367 -0.0187
H21 H -0.4953 0.0650 0.0138
C18 C -0.4837(5) 0.1671(3) 0.0896(2)
H22 H -0.4331 0.1833 0.1235
H23 H -0.5468 0.1284 0.0997
H24 H -0.5415 0.2048 0.0739
loop_
_geom_bond_atom_site_label_1
_geom_bond_atom_site_label_2
_geom_bond_site_symmetry_1
_geom_bond_site_symmetry_2
Te1 Te2 1_555 1_555
Te2 C10 1_555 1_555
N1 C7 1_555 1_555
N2 C16 1_555 1_555
C1 Te1 1_555 1_555
C2 C1 1_555 1_555
H1 C2 1_555 1_555
C3 C2 1_555 1_555
H2 C3 1_555 1_555
C4 C3 1_555 1_555
H3 C4 1_555 1_555
C5 C4 1_555 1_555
H4 C5 1_555 1_555
C6 C1 1_555 1_555
C7 C6 1_555 1_555
H5 C7 1_555 1_555
H6 C7 1_555 1_555
C8 N1 1_555 1_555
H7 C8 1_555 1_555
H8 C8 1_555 1_555
H9 C8 1_555 1_555
C9 N1 1_555 1_555
H10 C9 1_555 1_555
H11 C9 1_555 1_555
H12 C9 1_555 1_555
C10 C11 1_555 1_555
C11 H13 1_555 1_555
C12 C11 1_555 1_555
H14 C12 1_555 1_555
C13 C12 1_555 1_555
H15 C13 1_555 1_555
C14 C13 1_555 1_555
H16 C14 1_555 1_555
C15 C10 1_555 1_555
C16 C15 1_555 1_555
H17 C16 1_555 1_555
H18 C16 1_555 1_555
C17 N2 1_555 1_555
H19 C17 1_555 1_555
H20 C17 1_555 1_555
H21 C17 1_555 1_555
C18 N2 1_555 1_555
H22 C18 1_555 1_555
H23 C18 1_555 1_555
H24 C18 1_555 1_555
C5 C6 1_555 1_555
C14 C15 1_555 1_555

#END
