
#######################################################################
#
#                 Cambridge Crystallographic Data Centre
#                                CCDC 
#
#######################################################################
#
# If this CIF has been generated from an entry in the Cambridge 
# Structural Database, then it will include bibliographic, chemical, 
# crystal, experimental, refinement or atomic coordinate data resulting 
# from the CCDC's data processing and validation procedures.
#
#######################################################################

data_NAHHUZ
_chemical_formula_moiety         'C70 H80 N8 O6,C1 H2 Cl2'
_chemical_name_systematic        
"13^1^,13^1^'-bis(13^2^-Methoxyphytoporphyrin methyl ester)ylidene dichloromethane solvate"
_symmetry_cell_setting           monoclinic
_symmetry_space_group_name_H-M   'P 21'
_symmetry_Int_Tables_number      4
_space_group_name_Hall           'P 2yb'
loop_
_symmetry_equiv_pos_site_id
_symmetry_equiv_pos_as_xyz
1 x,y,z
2 -x,1/2+y,-z
_cell_length_a                   11.269(4)
_cell_length_b                   18.475(7)
_cell_length_c                   15.466(7)
_cell_angle_alpha                90
_cell_angle_beta                 95.46(4)
_cell_angle_gamma                90
_cell_volume                     3205.33
_exptl_crystal_colour            blue
_cell_formula_units_Z            2
loop_
_atom_site_label
_atom_site_type_symbol
_atom_site_fract_x
_atom_site_fract_y
_atom_site_fract_z
N1 N 0.2548(7) -0.0043(4) 0.6153(5)
H1 H 0.2967(7) 0.0127(4) 0.6618(5)
N2 N 0.2311(6) 0.1254(4) 0.7310(5)
N3 N 0.4447(6) 0.0973(4) 0.8203(5)
H2 H 0.3966(6) 0.0807(4) 0.7766(5)
N4 N 0.4811(6) -0.0397(4) 0.7125(4)
C1 C 0.2864(8) -0.0633(5) 0.5692(6)
C2 C 0.1950(9) -0.0740(5) 0.4999(7)
C3 C 0.1945(10) -0.1325(6) 0.4349(7)
H3 H 0.2636(10) -0.1640(6) 0.4489(7)
H4 H 0.1983(10) -0.1115(6) 0.3771(7)
H5 H 0.1211(10) -0.1609(6) 0.4356(7)
C4 C 0.1146(11) -0.0186(7) 0.5040(9)
C5 C 0.0049(11) -0.0015(9) 0.4326(10)
H6 H -0.0065(11) 0.0515(9) 0.4270(10)
H7 H 0.0219(11) -0.0209(9) 0.3754(10)
C6 C -0.0995(15) -0.0340(10) 0.4590(10)
H8 H -0.1669(15) -0.0238(10) 0.4160(10)
H9 H -0.1160(15) -0.0143(10) 0.5155(10)
H10 H -0.0878(15) -0.0865(10) 0.4640(10)
C7 C 0.1474(8) 0.0252(6) 0.5789(7)
C8 C 0.0917(8) 0.0849(6) 0.6072(7)
H11 H 0.0184(8) 0.0971(6) 0.5750(7)
C9 C 0.1261(8) 0.1300(5) 0.6755(6)
C10 C 0.0589(8) 0.1927(5) 0.6995(7)
C11 C -0.0587(9) 0.2149(6) 0.6524(7)
H12 H -0.0817(9) 0.1799(6) 0.6062(7)
H13 H -0.0510(9) 0.2630(6) 0.6269(7)
H14 H -0.1198(9) 0.2161(6) 0.6934(7)
C12 C 0.1238(8) 0.2257(6) 0.7680(6)
C13 C 0.0981(9) 0.2967(6) 0.8122(7)
H15 H 0.0113(9) 0.3063(6) 0.8044(7)
H16 H 0.1220(9) 0.2925(6) 0.8752(7)
C14 C 0.1639(11) 0.3599(7) 0.7758(9)
H17 H 0.1448(11) 0.4045(7) 0.8059(9)
H18 H 0.1393(11) 0.3649(7) 0.7136(9)
H19 H 0.2499(11) 0.3511(7) 0.7845(9)
C15 C 0.2310(8) 0.1826(5) 0.7857(6)
C16 C 0.3229(8) 0.1982(5) 0.8521(6)
H20 H 0.3136(8) 0.2396(5) 0.8872(6)
C17 C 0.4253(7) 0.1574(5) 0.8695(5)
C18 C 0.5215(8) 0.1656(5) 0.9334(5)
C19 C 0.5285(8) 0.2253(5) 1.0024(6)
H21 H 0.4580(8) 0.2564(5) 0.9931(6)
H22 H 0.6004(8) 0.2543(5) 0.9979(6)
H23 H 0.5315(8) 0.2033(5) 1.0602(6)
C20 C 0.6022(8) 0.1094(5) 0.9211(6)
C21 C 0.7142(7) 0.0743(5) 0.9529(6)
C22 C 0.7275(7) 0.0067(5) 0.8927(6)
H24 H 0.7297(7) -0.0382(5) 0.9289(6)
O1 O 0.8357(5) 0.0106(3) 0.8486(4)
C23 C 0.8414(9) 0.0718(6) 0.7906(7)
H25 H 0.9167(9) 0.0705(6) 0.7638(7)
H26 H 0.8367(9) 0.1169(6) 0.8236(7)
H27 H 0.7746(9) 0.0695(6) 0.7453(7)
C24 C 0.5494(8) 0.0682(5) 0.8505(6)
C25 C 0.6149(8) 0.0060(5) 0.8297(6)
C26 C 0.5847(8) -0.0439(5) 0.7650(6)
C27 C 0.6566(9) -0.1096(5) 0.7478(6)
H28 H 0.7424(9) -0.0959(5) 0.7473(6)
C28 C 0.6445(9) -0.1690(5) 0.8147(6)
H29 H 0.5607(9) -0.1856(5) 0.8106(6)
H30 H 0.6644(9) -0.1489(5) 0.8736(6)
C29 C 0.7250(11) -0.2336(6) 0.8022(7)
H31 H 0.6887(11) -0.2641(6) 0.7541(7)
H32 H 0.8030(11) -0.2162(6) 0.7860(7)
C30 C 0.7434(9) -0.2774(5) 0.8819(7)
C31 C 0.7560(12) -0.3947(7) 0.9448(8)
H33 H 0.7431(12) -0.4455(7) 0.9280(8)
H34 H 0.7034(12) -0.3819(7) 0.9894(8)
H35 H 0.8392(12) -0.3878(7) 0.9680(8)
O2 O 0.7738(7) -0.2537(4) 0.9543(5)
O3 O 0.7292(8) -0.3479(4) 0.8679(5)
C32 C 0.6037(9) -0.1283(5) 0.6543(6)
H36 H 0.5940(9) -0.1817(5) 0.6458(6)
C33 C 0.6766(9) -0.0947(7) 0.5862(6)
H37 H 0.7541(9) -0.1190(7) 0.5878(6)
H38 H 0.6887(9) -0.0431(7) 0.5987(6)
H39 H 0.6337(9) -0.1006(7) 0.5285(6)
C34 C 0.4839(8) -0.0900(5) 0.6511(6)
C35 C 0.3909(8) -0.1025(5) 0.5854(6)
H40 H 0.4010(8) -0.1423(5) 0.5480(6)
N5 N 1.2296(7) 0.1333(4) 1.3846(5)
H41 H 1.1893(7) 0.1177(4) 1.3367(5)
N6 N 1.2427(6) 0.0034(4) 1.2712(5)
N7 N 1.0371(6) 0.0443(4) 1.1742(4)
H42 H 1.0805(6) 0.0565(4) 1.2222(4)
N8 N 1.0102(7) 0.1832(4) 1.2783(5)
C36 C 1.2006(8) 0.1929(5) 1.4306(6)
C37 C 1.2863(8) 0.1978(5) 1.5046(5)
C38 C 1.2863(10) 0.2552(6) 1.5722(6)
H43 H 1.2178(10) 0.2873(6) 1.5588(6)
H44 H 1.3602(10) 0.2833(6) 1.5733(6)
H45 H 1.2810(10) 0.2327(6) 1.6291(6)
C39 C 1.3666(9) 0.1429(5) 1.4999(6)
C40 C 1.4716(8) 0.1257(6) 1.5645(6)
H46 H 1.4821(8) 0.0726(6) 1.5677(6)
H47 H 1.4545(8) 0.1429(6) 1.6226(6)
C41 C 1.5893(11) 0.1607(9) 1.5409(8)
H48 H 1.6542(11) 0.1477(9) 1.5848(8)
H49 H 1.5802(11) 0.2135(9) 1.5390(8)
H50 H 1.6077(11) 0.1432(9) 1.4839(8)
C42 C 1.3305(8) 0.1013(5) 1.4240(6)
C43 C 1.3842(9) 0.0403(5) 1.3952(6)
H51 H 1.4562(9) 0.0264(5) 1.4278(6)
C44 C 1.4103(8) -0.0684(5) 1.2989(6)
C45 C 1.3467(8) -0.0050(5) 1.3231(6)
C46 C 1.5299(9) -0.0934(7) 1.3427(7)
H52 H 1.5550(9) -0.0608(7) 1.3910(7)
H53 H 1.5895(9) -0.0927(7) 1.3005(7)
H54 H 1.5222(9) -0.1427(7) 1.3648(7)
C47 C 1.3457(8) -0.0989(5) 1.2297(6)
C48 C 1.3707(9) -0.1685(6) 1.1832(6)
H55 H 1.3320(9) -0.1663(6) 1.1230(6)
H56 H 1.4577(9) -0.1732(6) 1.1801(6)
C49 C 1.3266(13) -0.2332(7) 1.2273(9)
H57 H 1.3446(13) -0.2769(7) 1.1950(9)
H58 H 1.2402(13) -0.2293(7) 1.2296(9)
H59 H 1.3659(13) -0.2362(7) 1.2865(9)
C50 C 1.2392(8) -0.0524(5) 1.2139(5)
C51 C 1.1486(8) -0.0645(5) 1.1473(6)
H60 H 1.1525(8) -0.1074(5) 1.1138(6)
C52 C 1.0522(8) -0.0177(5) 1.1265(5)
C53 C 0.9614(8) -0.0204(5) 1.0555(5)
C54 C 0.9484(9) -0.0827(5) 0.9942(6)
H61 H 1.0105(9) -0.1186(5) 1.0106(6)
H62 H 0.9563(9) -0.0657(5) 0.9350(6)
H63 H 0.8698(9) -0.1049(5) 0.9966(6)
C55 C 0.8957(8) 0.0446(5) 1.0603(5)
C56 C 0.7937(7) 0.0881(5) 1.0225(5)
C57 C 0.7916(7) 0.1572(5) 1.0751(5)
H64 H 0.7132(7) 0.1601(5) 1.1002(5)
O4 O 0.8052(5) 0.2213(3) 1.0240(4)
C58 C 0.9168(8) 0.2245(6) 0.9852(7)
H65 H 0.9202(8) 0.2693(6) 0.9517(7)
H66 H 0.9227(8) 0.1828(6) 0.9466(7)
H67 H 0.9832(8) 0.2235(6) 1.0310(7)
C59 C 0.9456(7) 0.0831(5) 1.1358(5)
C60 C 0.8895(7) 0.1477(5) 1.1497(6)
C61 C 0.9162(8) 0.1956(5) 1.2184(6)
C62 C 0.8537(8) 0.2667(5) 1.2340(7)
H68 H 0.8646(8) 0.2994(5) 1.1839(7)
C63 C 0.7161(9) 0.2623(6) 1.2448(7)
H69 H 0.6874(9) 0.3112(6) 1.2587(7)
H70 H 0.6735(9) 0.2475(6) 1.1886(7)
C64 C 0.6834(10) 0.2093(7) 1.3158(8)
H71 H 0.7483(10) 0.2096(7) 1.3637(8)
H72 H 0.6101(10) 0.2268(7) 1.3396(8)
C65 C 0.6633(11) 0.1320(8) 1.2846(9)
C67 C 0.5935(27) 0.0491(15) 1.1795(17)
O5 O 0.5914(8) 0.1286(5) 1.2086(5)
O6 O 0.6937(10) 0.0796(6) 1.3256(7)
C68 C 0.9273(9) 0.2976(5) 1.3148(6)
H73 H 0.8750(9) 0.3017(5) 1.3632(6)
C69 C 0.9805(10) 0.3709(6) 1.2988(9)
H74 H 1.0261(10) 0.3878(6) 1.3521(9)
H75 H 0.9165(10) 0.4053(6) 1.2816(9)
H76 H 1.0335(10) 0.3670(6) 1.2523(9)
C70 C 1.0215(8) 0.2360(5) 1.3370(6)
C71 C 1.1049(8) 0.2402(5) 1.4068(6)
H77 H 1.0976(8) 0.2804(5) 1.4443(6)
C72 C 0.6578(16) -0.5907(10) 1.0841(10)
H78 H 0.6178(16) -0.5971(10) 1.1378(10)
H79 H 0.6882(16) -0.6386(10) 1.0676(10)
Cl1 Cl 0.7787(6) -0.5310(3) 1.1049(4)
Cl2 Cl 0.5520(5) -0.5596(2) 1.0000(3)
C66? C 0.5399(21) 0.0640(12) 1.1666(13)
loop_
_geom_bond_atom_site_label_1
_geom_bond_atom_site_label_2
_geom_bond_site_symmetry_1
_geom_bond_site_symmetry_2
N1 H1 1_555 1_555
N2 C9 1_555 1_555
N3 H2 1_555 1_555
N4 C26 1_555 1_555
C1 N1 1_555 1_555
C2 C1 1_555 1_555
C3 C2 1_555 1_555
H3 C3 1_555 1_555
H4 C3 1_555 1_555
H5 C3 1_555 1_555
C4 C2 1_555 1_555
C5 C4 1_555 1_555
H6 C5 1_555 1_555
H7 C5 1_555 1_555
C6 C5 1_555 1_555
H8 C6 1_555 1_555
H9 C6 1_555 1_555
H10 C6 1_555 1_555
C7 N1 1_555 1_555
C8 C7 1_555 1_555
H11 C8 1_555 1_555
C9 C8 1_555 1_555
C10 C9 1_555 1_555
C11 C10 1_555 1_555
H12 C11 1_555 1_555
H13 C11 1_555 1_555
H14 C11 1_555 1_555
C12 C10 1_555 1_555
C13 C12 1_555 1_555
H15 C13 1_555 1_555
H16 C13 1_555 1_555
C14 C13 1_555 1_555
H17 C14 1_555 1_555
H18 C14 1_555 1_555
H19 C14 1_555 1_555
C15 N2 1_555 1_555
C16 C15 1_555 1_555
H20 C16 1_555 1_555
C17 N3 1_555 1_555
C18 C17 1_555 1_555
C19 C18 1_555 1_555
H21 C19 1_555 1_555
H22 C19 1_555 1_555
H23 C19 1_555 1_555
C20 C18 1_555 1_555
C21 C20 1_555 1_555
C22 C21 1_555 1_555
H24 C22 1_555 1_555
O1 C22 1_555 1_555
C23 O1 1_555 1_555
H25 C23 1_555 1_555
H26 C23 1_555 1_555
H27 C23 1_555 1_555
C24 N3 1_555 1_555
C25 C22 1_555 1_555
C26 C25 1_555 1_555
C27 C26 1_555 1_555
H28 C27 1_555 1_555
C28 C27 1_555 1_555
H29 C28 1_555 1_555
H30 C28 1_555 1_555
C29 C28 1_555 1_555
H31 C29 1_555 1_555
H32 C29 1_555 1_555
C30 C29 1_555 1_555
C31 H33 1_555 1_555
H34 C31 1_555 1_555
H35 C31 1_555 1_555
O2 C30 1_555 1_555
O3 C30 1_555 1_555
C32 C27 1_555 1_555
H36 C32 1_555 1_555
C33 C32 1_555 1_555
H37 C33 1_555 1_555
H38 C33 1_555 1_555
H39 C33 1_555 1_555
C34 N4 1_555 1_555
C35 C1 1_555 1_555
H40 C35 1_555 1_555
N5 H41 1_555 1_555
N6 C45 1_555 1_555
N7 H42 1_555 1_555
N8 C61 1_555 1_555
C36 N5 1_555 1_555
C37 C36 1_555 1_555
C38 C37 1_555 1_555
H43 C38 1_555 1_555
H44 C38 1_555 1_555
H45 C38 1_555 1_555
C39 C37 1_555 1_555
C40 C39 1_555 1_555
H46 C40 1_555 1_555
H47 C40 1_555 1_555
C41 C40 1_555 1_555
H48 C41 1_555 1_555
H49 C41 1_555 1_555
H50 C41 1_555 1_555
C42 N5 1_555 1_555
C43 C42 1_555 1_555
H51 C43 1_555 1_555
C44 C45 1_555 1_555
C45 C43 1_555 1_555
C46 C44 1_555 1_555
H52 C46 1_555 1_555
H53 C46 1_555 1_555
H54 C46 1_555 1_555
C47 C44 1_555 1_555
C48 C47 1_555 1_555
H55 C48 1_555 1_555
H56 C48 1_555 1_555
C49 C48 1_555 1_555
H57 C49 1_555 1_555
H58 C49 1_555 1_555
H59 C49 1_555 1_555
C50 N6 1_555 1_555
C51 C50 1_555 1_555
H60 C51 1_555 1_555
C52 N7 1_555 1_555
C53 C52 1_555 1_555
C54 C53 1_555 1_555
H61 C54 1_555 1_555
H62 C54 1_555 1_555
H63 C54 1_555 1_555
C55 C53 1_555 1_555
C56 C21 1_555 1_555
C57 C56 1_555 1_555
H64 C57 1_555 1_555
O4 C57 1_555 1_555
C58 O4 1_555 1_555
H65 C58 1_555 1_555
H66 C58 1_555 1_555
H67 C58 1_555 1_555
C59 N7 1_555 1_555
C60 C57 1_555 1_555
C61 C60 1_555 1_555
C62 C61 1_555 1_555
H68 C62 1_555 1_555
C63 C62 1_555 1_555
H69 C63 1_555 1_555
H70 C63 1_555 1_555
C64 C63 1_555 1_555
H71 C64 1_555 1_555
H72 C64 1_555 1_555
C65 C64 1_555 1_555
C67 O5 1_555 1_555
O5 C65 1_555 1_555
O6 C65 1_555 1_555
C68 C62 1_555 1_555
H73 C68 1_555 1_555
C69 C68 1_555 1_555
H74 C69 1_555 1_555
H75 C69 1_555 1_555
H76 C69 1_555 1_555
C70 N8 1_555 1_555
C71 C36 1_555 1_555
H77 C71 1_555 1_555
C72 H78 1_555 1_555
H79 C72 1_555 1_555
Cl1 C72 1_555 1_555
Cl2 C72 1_555 1_555
C4 C7 1_555 1_555
C12 C15 1_555 1_555
C16 C17 1_555 1_555
C20 C24 1_555 1_555
C24 C25 1_555 1_555
C31 O3 1_555 1_555
C32 C34 1_555 1_555
C34 C35 1_555 1_555
C39 C42 1_555 1_555
C47 C50 1_555 1_555
C51 C52 1_555 1_555
C55 C56 1_555 1_555
C55 C59 1_555 1_555
C59 C60 1_555 1_555
C68 C70 1_555 1_555
C70 C71 1_555 1_555

#END
