
#######################################################################
#
#                 Cambridge Crystallographic Data Centre
#                                CCDC 
#
#######################################################################
#
# If this CIF has been generated from an entry in the Cambridge 
# Structural Database, then it will include bibliographic, chemical, 
# crystal, experimental, refinement or atomic coordinate data resulting 
# from the CCDC's data processing and validation procedures.
#
#######################################################################

data_NAHNIV
_chemical_formula_moiety         'C24 H23 Br1 N2 O6'
_chemical_name_systematic        
"Ethyl 2-bromo-9-(4-methoxyphenyl)-7a-methyl-8,10-dioxo-6a,7a,8,9,10,11a-hexahydro-6H,7H-chromeno[3',4':4,5]pyrrolo[1,2-c]imidazole-7-carboxylate"
_symmetry_cell_setting           monoclinic
_symmetry_space_group_name_H-M   'P 21/c'
_symmetry_Int_Tables_number      14
_space_group_name_Hall           '-P 2ybc'
loop_
_symmetry_equiv_pos_site_id
_symmetry_equiv_pos_as_xyz
1 x,y,z
2 -x,1/2+y,1/2-z
3 -x,-y,-z
4 x,1/2-y,1/2+z
_cell_length_a                   13.396(2)
_cell_length_b                   6.8114(12)
_cell_length_c                   24.048(4)
_cell_angle_alpha                90
_cell_angle_beta                 90.825(4)
_cell_angle_gamma                90
_cell_volume                     2194.04
_exptl_crystal_colour            colorless
_exptl_crystal_description       needle
_cell_formula_units_Z            4
loop_
_atom_site_label
_atom_site_type_symbol
_atom_site_fract_x
_atom_site_fract_y
_atom_site_fract_z
Br1 Br 0.588920(19) 0.83949(4) 0.592444(12)
N1 N 0.08999(14) 0.3774(3) 0.61965(8)
O1 O 0.40901(13) 0.0996(3) 0.68479(7)
C1 C 0.52654(17) 0.6140(4) 0.62319(11)
N2 N 0.23353(13) 0.3184(2) 0.57561(8)
O2 O 0.13994(13) -0.2937(2) 0.52223(7)
C2 C 0.55731(19) 0.5433(4) 0.67437(12)
H1 H 0.605(2) 0.608(4) 0.6955(12)
O3 O 0.29405(12) -0.1922(2) 0.50020(7)
C3 C 0.5156(2) 0.3718(4) 0.69444(12)
H2 H 0.532(2) 0.315(4) 0.7302(14)
O4 O -0.00759(12) 0.1201(2) 0.58796(8)
C4 C 0.44291(18) 0.2719(4) 0.66326(10)
O5 O 0.22887(11) 0.5696(2) 0.64130(7)
C5 C 0.31746(18) 0.0260(4) 0.66084(10)
H3 H 0.262(2) 0.109(4) 0.6750(11)
H4 H 0.3104(19) -0.106(4) 0.6729(10)
O6 O -0.20677(14) 0.7541(3) 0.73931(7)
C6 C 0.31850(16) 0.0252(3) 0.59768(9)
H5 H 0.371(2) -0.063(4) 0.5837(10)
C7 C 0.21392(16) -0.0322(3) 0.57540(9)
H6 H 0.176(2) -0.096(4) 0.6059(11)
C8 C 0.16329(16) 0.1650(3) 0.55655(9)
C9 C 0.07003(16) 0.2102(3) 0.58903(9)
C10 C 0.19079(16) 0.4363(3) 0.61522(9)
C11 C 0.33574(15) 0.2362(3) 0.57737(9)
H7 H 0.3622(17) 0.230(4) 0.5383(10)
C12 C 0.41026(16) 0.3468(3) 0.61236(10)
C13 C 0.45376(16) 0.5188(3) 0.59230(10)
H8 H 0.436(2) 0.565(4) 0.5578(12)
C14 C 0.21048(17) -0.1878(3) 0.53012(9)
C15 C 0.2997(2) -0.3482(4) 0.45811(12)
H9 H 0.278(2) -0.472(5) 0.4752(12)
H10 H 0.372(3) -0.359(4) 0.4521(13)
C16 C 0.2441(2) -0.2970(5) 0.40572(12)
H11 H 0.174(3) -0.275(5) 0.4146(14)
H12 H 0.267(3) -0.182(5) 0.3904(15)
H13 H 0.251(3) -0.388(5) 0.3801(15)
C17 C 0.13968(19) 0.1821(3) 0.49461(10)
H14 H 0.199(2) 0.167(3) 0.4738(11)
H15 H 0.093(2) 0.086(4) 0.4831(11)
H16 H 0.115(2) 0.308(4) 0.4895(12)
C18 C -0.02888(18) 0.3875(3) 0.69540(10)
H17 H -0.009(2) 0.260(4) 0.7046(11)
C19 C -0.1035(2) 0.4833(4) 0.72392(10)
H18 H -0.134(2) 0.424(5) 0.7528(13)
C20 C -0.13335(18) 0.6716(3) 0.70815(10)
C21 C -0.08783(17) 0.7641(3) 0.66359(9)
H19 H -0.107(2) 0.890(4) 0.6500(11)
C22 C -0.01353(17) 0.6652(3) 0.63469(10)
H20 H 0.014(2) 0.731(5) 0.6055(13)
C23 C 0.01597(16) 0.4805(3) 0.65086(9)
C24 C -0.2352(2) 0.9509(4) 0.72730(13)
H21 H -0.177(2) 1.041(5) 0.7321(13)
H22 H -0.261(3) 0.960(5) 0.6883(15)
H23 H -0.282(2) 0.976(4) 0.7539(13)
loop_
_geom_bond_atom_site_label_1
_geom_bond_atom_site_label_2
_geom_bond_site_symmetry_1
_geom_bond_site_symmetry_2
Br1 C1 1_555 1_555
N1 C9 1_555 1_555
O1 C4 1_555 1_555
C1 C2 1_555 1_555
N2 C8 1_555 1_555
O2 C14 1_555 1_555
C2 H1 1_555 1_555
O3 C14 1_555 1_555
C3 C2 1_555 1_555
H2 C3 1_555 1_555
O4 C9 1_555 1_555
C4 C3 1_555 1_555
O5 C10 1_555 1_555
C5 O1 1_555 1_555
H3 C5 1_555 1_555
H4 C5 1_555 1_555
O6 C20 1_555 1_555
C6 C5 1_555 1_555
H5 C6 1_555 1_555
C7 C6 1_555 1_555
H6 C7 1_555 1_555
C8 C7 1_555 1_555
C9 C8 1_555 1_555
C10 N1 1_555 1_555
C11 N2 1_555 1_555
H7 C11 1_555 1_555
C12 C4 1_555 1_555
C13 C1 1_555 1_555
H8 C13 1_555 1_555
C14 C7 1_555 1_555
C15 O3 1_555 1_555
H9 C15 1_555 1_555
H10 C15 1_555 1_555
C16 C15 1_555 1_555
H11 C16 1_555 1_555
H12 C16 1_555 1_555
H13 C16 1_555 1_555
C17 C8 1_555 1_555
H14 C17 1_555 1_555
H15 C17 1_555 1_555
H16 C17 1_555 1_555
C18 H17 1_555 1_555
C19 C18 1_555 1_555
H18 C19 1_555 1_555
C20 C19 1_555 1_555
C21 C20 1_555 1_555
H19 C21 1_555 1_555
C22 C21 1_555 1_555
H20 C22 1_555 1_555
C23 N1 1_555 1_555
C24 O6 1_555 1_555
H21 C24 1_555 1_555
H22 C24 1_555 1_555
H23 C24 1_555 1_555
N2 C10 1_555 1_555
C6 C11 1_555 1_555
C11 C12 1_555 1_555
C12 C13 1_555 1_555
C18 C23 1_555 1_555
C22 C23 1_555 1_555

#END
