
#######################################################################
#
#                 Cambridge Crystallographic Data Centre
#                                CCDC 
#
#######################################################################
#
# If this CIF has been generated from an entry in the Cambridge 
# Structural Database, then it will include bibliographic, chemical, 
# crystal, experimental, refinement or atomic coordinate data resulting 
# from the CCDC's data processing and validation procedures.
#
#######################################################################

data_NAHTUN
_chemical_formula_moiety         'C26 H24 N1 O1 P1'
_chemical_name_systematic        
N-(2-(Diphenylphosphoryl)phenyl)-2,6-dimethylaniline
_symmetry_cell_setting           triclinic
_symmetry_space_group_name_H-M   'P -1'
_symmetry_Int_Tables_number      2
_space_group_name_Hall           '-P 1'
loop_
_symmetry_equiv_pos_site_id
_symmetry_equiv_pos_as_xyz
1 x,y,z
2 -x,-y,-z
_cell_length_a                   8.5300(2)
_cell_length_b                   15.1880(4)
_cell_length_c                   16.6720(5)
_cell_angle_alpha                92.5630(10)
_cell_angle_beta                 103.1440(10)
_cell_angle_gamma                95.943(2)
_cell_volume                     2086.83
_exptl_crystal_colour            colorless
_exptl_crystal_description       prism
_cell_formula_units_Z            4
loop_
_atom_site_label
_atom_site_type_symbol
_atom_site_fract_x
_atom_site_fract_y
_atom_site_fract_z
P1 P 0.21773(9) 0.18440(5) 0.10395(5)
O1 O 0.3222(2) 0.26346(14) 0.15068(14)
N1 N 0.0021(3) 0.33105(16) 0.07902(17)
H1 H 0.1151 0.3366 0.0787
C1 C 0.2069(4) 0.18510(19) -0.0051(2)
C2 C 0.3346(4) 0.2304(2) -0.0318(2)
H3 H 0.4263 0.2599 0.0082
C3 C 0.3295(4) 0.2330(2) -0.1150(2)
H4 H 0.4163 0.2655 -0.1331
C4 C 0.1990(4) 0.1892(2) -0.1731(2)
H5 H 0.1982 0.1893 -0.2308
C5 C 0.0711(4) 0.1442(2) -0.1480(2)
H6 H -0.0208 0.1147 -0.1879
C6 C 0.0751(4) 0.1425(2) -0.0643(2)
H7 H -0.0139 0.1115 -0.0469
C7 C 0.2909(3) 0.0806(2) 0.1350(2)
C8 C 0.3188(4) 0.0162(2) 0.0791(2)
H8 H 0.2943 0.0254 0.0212
C9 C 0.3809(4) -0.0606(2) 0.1062(2)
H9 H 0.4026 -0.1036 0.0673
C10 C 0.4124(4) -0.0757(2) 0.1890(2)
H10 H 0.4544 -0.1295 0.2071
C11 C 0.3837(4) -0.0135(2) 0.2456(2)
H11 H 0.4043 -0.0248 0.3031
C12 C 0.3236(4) 0.0644(2) 0.2186(2)
H12 H 0.3056 0.1080 0.2580
C13 C 0.0123(4) 0.1775(2) 0.11496(19)
C14 C -0.0674(4) 0.0988(2) 0.1342(2)
H13 H -0.0101 0.0476 0.1432
C15 C -0.2265(4) 0.0937(2) 0.1406(2)
H14 H -0.2803 0.0386 0.1520
C16 C -0.3061(4) 0.1688(2) 0.1297(2)
H15 H -0.4154 0.1658 0.1362
C17 C -0.2310(4) 0.2468(2) 0.1105(2)
H16 H -0.2884 0.2980 0.1028
C18 C -0.0716(4) 0.2532(2) 0.10151(19)
C19 C -0.0900(4) 0.4038(2) 0.0555(2)
C20 C -0.2026(4) 0.3953(2) -0.0202(2)
C21 C -0.2182(4) 0.3167(2) -0.0799(2)
H17 H -0.1415 0.2772 -0.0571
H18 H -0.1975 0.3358 -0.1310
H19 H -0.3260 0.2865 -0.0897
C22 C -0.3004(4) 0.4630(2) -0.0392(2)
H20 H -0.3824 0.4568 -0.0898
C23 C -0.2824(4) 0.5378(2) 0.0133(3)
H21 H -0.3499 0.5843 -0.0006
C24 C -0.1649(4) 0.5466(2) 0.0872(2)
H22 H -0.1507 0.5991 0.1236
C25 C -0.0671(4) 0.4793(2) 0.1094(2)
C26 C 0.0578(4) 0.4878(2) 0.1893(2)
H23 H 0.0567 0.5439 0.2180
H24 H 0.1630 0.4844 0.1786
H25 H 0.0337 0.4406 0.2226
P2 P 0.17371(9) 0.34096(5) 0.61265(5)
O2 O 0.2576(2) 0.27026(13) 0.65902(13)
N2 N 0.1298(3) 0.18339(16) 0.49297(17)
H2 H 0.1132 0.1855 0.5480
C27 C 0.2424(4) 0.45005(19) 0.66234(19)
C28 C 0.3951(4) 0.4659(2) 0.7161(2)
H26 H 0.4603 0.4180 0.7274
C29 C 0.4521(4) 0.5505(2) 0.7530(2)
H27 H 0.5577 0.5607 0.7897
C30 C 0.3587(4) 0.6193(2) 0.7372(2)
H28 H 0.3986 0.6781 0.7615
C31 C 0.2057(4) 0.6034(2) 0.6856(2)
H29 H 0.1403 0.6513 0.6754
C32 C 0.1473(4) 0.5200(2) 0.6480(2)
H30 H 0.0403 0.5093 0.6127
C33 C -0.0435(4) 0.32496(19) 0.60346(19)
C34 C -0.0981(4) 0.3004(2) 0.6733(2)
H31 H -0.0209 0.2946 0.7240
C35 C -0.2625(4) 0.2858(2) 0.6692(2)
H32 H -0.3003 0.2684 0.7169
C36 C -0.3741(4) 0.2954(2) 0.5971(2)
H33 H -0.4883 0.2854 0.5941
C37 C -0.3216(4) 0.3202(2) 0.5273(2)
H34 H -0.4005 0.3266 0.4774
C38 C -0.1558(4) 0.3351(2) 0.5312(2)
H35 H -0.1186 0.3528 0.4835
C39 C 0.2041(3) 0.34253(19) 0.50931(19)
C40 C 0.2606(4) 0.4202(2) 0.4771(2)
H36 H 0.2796 0.4748 0.5110
C41 C 0.2873(4) 0.4200(2) 0.3984(2)
H37 H 0.3252 0.4743 0.3777
C42 C 0.2588(4) 0.3403(2) 0.3506(2)
H38 H 0.2769 0.3387 0.2958
C43 C 0.2045(4) 0.2622(2) 0.3800(2)
H39 H 0.1848 0.2079 0.3457
C44 C 0.1785(4) 0.2612(2) 0.4601(2)
C45 C 0.1025(4) 0.0983(2) 0.4483(2)
C46 C -0.0342(4) 0.0770(2) 0.3839(2)
C47 C -0.1575(4) 0.1417(2) 0.3598(2)
H40 H -0.1230 0.1959 0.3940
H41 H -0.2605 0.1163 0.3673
H42 H -0.1673 0.1538 0.3030
C48 C -0.0580(4) -0.0067(2) 0.3426(2)
H43 H -0.1489 -0.0214 0.2965
C49 C 0.0488(4) -0.0684(2) 0.3676(2)
H44 H 0.0305 -0.1267 0.3401
C50 C 0.1813(4) -0.0473(2) 0.4326(2)
H45 H 0.2544 -0.0906 0.4493
C51 C 0.2120(4) 0.0368(2) 0.4739(2)
C52 C 0.3568(4) 0.0609(2) 0.5443(2)
H46 H 0.4176 0.0110 0.5533
H47 H 0.3221 0.0765 0.5934
H48 H 0.4238 0.1103 0.5312
loop_
_geom_bond_atom_site_label_1
_geom_bond_atom_site_label_2
_geom_bond_site_symmetry_1
_geom_bond_site_symmetry_2
P1 O1 1_555 1_555
P2 O2 1_555 1_555
N1 H1 1_555 1_555
N2 H2 1_555 1_555
C1 P1 1_555 1_555
C2 C1 1_555 1_555
H3 C2 1_555 1_555
C3 C2 1_555 1_555
H4 C3 1_555 1_555
C4 C3 1_555 1_555
H5 C4 1_555 1_555
C5 C4 1_555 1_555
H6 C5 1_555 1_555
C6 C1 1_555 1_555
H7 C6 1_555 1_555
C7 P1 1_555 1_555
C8 C7 1_555 1_555
H8 C8 1_555 1_555
C9 C8 1_555 1_555
H9 C9 1_555 1_555
C10 C9 1_555 1_555
H10 C10 1_555 1_555
C11 C10 1_555 1_555
H11 C11 1_555 1_555
C12 C7 1_555 1_555
H12 C12 1_555 1_555
C13 P1 1_555 1_555
C14 C13 1_555 1_555
H13 C14 1_555 1_555
C15 C14 1_555 1_555
H14 C15 1_555 1_555
C16 C15 1_555 1_555
H15 C16 1_555 1_555
C17 C16 1_555 1_555
H16 C17 1_555 1_555
C18 N1 1_555 1_555
C19 N1 1_555 1_555
C20 C19 1_555 1_555
C21 C20 1_555 1_555
H17 C21 1_555 1_555
H18 C21 1_555 1_555
H19 C21 1_555 1_555
C22 C20 1_555 1_555
H20 C22 1_555 1_555
C23 C22 1_555 1_555
H21 C23 1_555 1_555
C24 C23 1_555 1_555
H22 C24 1_555 1_555
C25 C19 1_555 1_555
C26 C25 1_555 1_555
H23 C26 1_555 1_555
H24 C26 1_555 1_555
H25 C26 1_555 1_555
C27 P2 1_555 1_555
C28 C27 1_555 1_555
H26 C28 1_555 1_555
C29 C28 1_555 1_555
H27 C29 1_555 1_555
C30 C29 1_555 1_555
H28 C30 1_555 1_555
C31 C30 1_555 1_555
H29 C31 1_555 1_555
C32 C27 1_555 1_555
H30 C32 1_555 1_555
C33 P2 1_555 1_555
C34 C33 1_555 1_555
H31 C34 1_555 1_555
C35 C34 1_555 1_555
H32 C35 1_555 1_555
C36 C35 1_555 1_555
H33 C36 1_555 1_555
C37 C36 1_555 1_555
H34 C37 1_555 1_555
C38 C33 1_555 1_555
H35 C38 1_555 1_555
C39 P2 1_555 1_555
C40 C39 1_555 1_555
H36 C40 1_555 1_555
C41 C40 1_555 1_555
H37 C41 1_555 1_555
C42 C41 1_555 1_555
H38 C42 1_555 1_555
C43 C42 1_555 1_555
H39 C43 1_555 1_555
C44 N2 1_555 1_555
C45 N2 1_555 1_555
C46 C45 1_555 1_555
C47 C46 1_555 1_555
H40 C47 1_555 1_555
H41 C47 1_555 1_555
H42 C47 1_555 1_555
C48 C46 1_555 1_555
H43 C48 1_555 1_555
C49 C48 1_555 1_555
H44 C49 1_555 1_555
C50 C49 1_555 1_555
H45 C50 1_555 1_555
C51 C45 1_555 1_555
C52 C51 1_555 1_555
H46 C52 1_555 1_555
H47 C52 1_555 1_555
H48 C52 1_555 1_555
C5 C6 1_555 1_555
C11 C12 1_555 1_555
C13 C18 1_555 1_555
C17 C18 1_555 1_555
C24 C25 1_555 1_555
C31 C32 1_555 1_555
C37 C38 1_555 1_555
C39 C44 1_555 1_555
C43 C44 1_555 1_555
C50 C51 1_555 1_555

#END
