
#######################################################################
#
#                 Cambridge Crystallographic Data Centre
#                                CCDC 
#
#######################################################################
#
# If this CIF has been generated from an entry in the Cambridge 
# Structural Database, then it will include bibliographic, chemical, 
# crystal, experimental, refinement or atomic coordinate data resulting 
# from the CCDC's data processing and validation procedures.
#
#######################################################################

data_NAJGOV
_chemical_formula_moiety         'C18 H16 N6 O2'
_chemical_name_systematic        
1,2-bis(2-Pyrazinecarboxamido)-4,5-dimethylbenzene
_symmetry_cell_setting           monoclinic
_symmetry_space_group_name_H-M   'C 2/c'
_symmetry_Int_Tables_number      15
_space_group_name_Hall           '-C 2yn'
loop_
_symmetry_equiv_pos_site_id
_symmetry_equiv_pos_as_xyz
1 x,y,z
2 1/2+x,1/2+y,z
3 -x,y,1/2-z
4 1/2-x,1/2+y,1/2-z
5 -x,-y,-z
6 1/2-x,1/2-y,-z
7 x,-y,1/2+z
8 1/2+x,1/2-y,1/2+z
_cell_length_a                   12.3389(3)
_cell_length_b                   12.5072(4)
_cell_length_c                   11.0924(2)
_cell_angle_alpha                90
_cell_angle_beta                 110.624(2)
_cell_angle_gamma                90
_cell_volume                     1602.13
_exptl_crystal_colour            'pale yellow'
_exptl_crystal_description       needle
_cell_formula_units_Z            4
_exptl_crystal_recrystallization_method ethanol
loop_
_atom_site_label
_atom_site_type_symbol
_atom_site_fract_x
_atom_site_fract_y
_atom_site_fract_z
O1 O 0.11781(9) 0.22242(7) 0.00691(9)
N1 N 0.12065(9) -0.01756(8) 0.17900(10)
N2 N 0.19412(11) -0.10126(9) -0.01320(11)
N3 N 0.08162(9) 0.19078(8) 0.19289(10)
H1 H 0.0879 0.1405 0.2504
C1 C 0.13751(11) -0.12204(9) 0.16936(12)
H2 H 0.1251 -0.1694 0.2302
C2 C 0.17263(11) -0.16356(10) 0.07311(12)
H3 H 0.1816 -0.2387 0.0686
C3 C 0.17865(12) 0.00407(10) -0.00236(12)
H4 H 0.1943 0.0517 -0.0609
C4 C 0.14061(10) 0.04538(9) 0.09147(11)
C5 C 0.11374(10) 0.16293(9) 0.09275(11)
C6 C 0.03918(10) 0.29057(9) 0.21704(11)
C7 C 0.07468(10) 0.38751(9) 0.18166(12)
H5 H 0.1253 0.3874 0.1340
C8 C 0.03748(10) 0.48455(9) 0.21479(12)
C9 C 0.07932(12) 0.58816(10) 0.17718(14)
H6 H 0.1194 0.6301 0.2547
H7 H 0.0130 0.6288 0.1206
H8 H 0.1328 0.5729 0.1317
O1B O -0.11781(9) 0.22242(7) 0.49309(9)
N1B N -0.12065(9) -0.01756(8) 0.32100(10)
N2B N -0.19412(11) -0.10126(9) 0.51320(11)
N3B N -0.08162(9) 0.19078(8) 0.30711(10)
H1B H -0.0879 0.1405 0.2496
C1B C -0.13751(11) -0.12204(9) 0.33064(12)
H2B H -0.1251 -0.1694 0.2698
C2B C -0.17263(11) -0.16356(10) 0.42689(12)
H3B H -0.1816 -0.2387 0.4314
C3B C -0.17865(12) 0.00407(10) 0.50236(12)
H4B H -0.1943 0.0517 0.5609
C4B C -0.14061(10) 0.04538(9) 0.40853(11)
C5B C -0.11374(10) 0.16293(9) 0.40725(11)
C6B C -0.03918(10) 0.29057(9) 0.28296(11)
C7B C -0.07468(10) 0.38751(9) 0.31834(12)
H5B H -0.1253 0.3874 0.3660
C8B C -0.03748(10) 0.48455(9) 0.28521(12)
C9B C -0.07932(12) 0.58816(10) 0.32282(14)
H6B H -0.1194 0.6301 0.2453
H7B H -0.0130 0.6288 0.3794
H8B H -0.1328 0.5729 0.3683
loop_
_geom_bond_atom_site_label_1
_geom_bond_atom_site_label_2
_geom_bond_site_symmetry_1
_geom_bond_site_symmetry_2
O1 C5 1_555 1_555
N1 C1 1_555 1_555
N2 C2 1_555 1_555
N3 H1 1_555 1_555
C1 H2 1_555 1_555
C2 C1 1_555 1_555
H3 C2 1_555 1_555
C3 N2 1_555 1_555
H4 C3 1_555 1_555
C4 N1 1_555 1_555
C5 N3 1_555 1_555
C6 N3 1_555 1_555
C7 C6 1_555 1_555
H5 C7 1_555 1_555
C8 C7 1_555 1_555
C9 C8 1_555 1_555
H6 C9 1_555 1_555
H7 C9 1_555 1_555
H8 C9 1_555 1_555
O1B C5B 1_555 1_555
N1B C1B 1_555 1_555
N2B C2B 1_555 1_555
N3B H1B 1_555 1_555
C1B H2B 1_555 1_555
C2B C1B 1_555 1_555
H3B C2B 1_555 1_555
C3B N2B 1_555 1_555
H4B C3B 1_555 1_555
C4B N1B 1_555 1_555
C5B N3B 1_555 1_555
C6B C6 1_555 1_555
C7B C6B 1_555 1_555
H5B C7B 1_555 1_555
C8B C8 1_555 1_555
C9B C8B 1_555 1_555
H6B C9B 1_555 1_555
H7B C9B 1_555 1_555
H8B C9B 1_555 1_555
C3 C4 1_555 1_555
C4 C5 1_555 1_555
N3B C6B 1_555 1_555
C3B C4B 1_555 1_555
C4B C5B 1_555 1_555
C7B C8B 1_555 1_555

#END
