
#######################################################################
#
#                 Cambridge Crystallographic Data Centre
#                                CCDC 
#
#######################################################################
#
# If this CIF has been generated from an entry in the Cambridge 
# Structural Database, then it will include bibliographic, chemical, 
# crystal, experimental, refinement or atomic coordinate data resulting 
# from the CCDC's data processing and validation procedures.
#
#######################################################################

data_NAJJUG
_chemical_formula_moiety         'C20 H15 Br1 Cl1 N1 O4'
_chemical_name_systematic        
'Ethyl 2-amino-5-(4-bromophenyl)-4-(4-chlorobenzoyl)-3-furoate'
_symmetry_cell_setting           triclinic
_symmetry_space_group_name_H-M   'P -1'
_symmetry_Int_Tables_number      2
_space_group_name_Hall           '-P 1'
loop_
_symmetry_equiv_pos_site_id
_symmetry_equiv_pos_as_xyz
1 x,y,z
2 -x,-y,-z
_cell_length_a                   8.3761(9)
_cell_length_b                   10.7568(14)
_cell_length_c                   11.6693(14)
_cell_angle_alpha                109.424(4)
_cell_angle_beta                 90.492(4)
_cell_angle_gamma                107.385(4)
_cell_volume                     939.434
_exptl_crystal_colour            yellow
_exptl_crystal_description       block
_cell_formula_units_Z            2
loop_
_atom_site_label
_atom_site_type_symbol
_atom_site_fract_x
_atom_site_fract_y
_atom_site_fract_z
Br1 Br 1.28762(6) 1.16038(5) 0.42086(5)
C1 C 0.3584(5) 1.0467(4) 0.1122(3)
C2 C 0.2905(5) 0.9138(4) 0.1102(4)
C3 C 0.4267(5) 0.8794(4) 0.1554(4)
C4 C 0.5646(5) 0.9937(4) 0.1847(4)
C5 C 0.1140(5) 0.8340(5) 0.0770(4)
C6 C -0.1021(6) 0.6317(6) 0.0805(5)
H1 H -0.1296 0.5638 -0.0020
H2 H -0.1731 0.6903 0.0905
C7 C -0.1316(8) 0.5594(7) 0.1717(7)
H3 H -0.0525 0.5097 0.1671
H4 H -0.2442 0.4952 0.1539
H5 H -0.1171 0.6269 0.2525
C8 C 0.4267(5) 0.7377(4) 0.1488(4)
C9 C 0.3781(5) 0.6893(4) 0.2515(4)
C10 C 0.4000(5) 0.5663(4) 0.2502(5)
H6 H 0.4412 0.5135 0.1842
C11 C 0.3600(5) 0.5231(5) 0.3484(5)
H7 H 0.3777 0.4423 0.3500
C12 C 0.2944(6) 0.5987(5) 0.4432(5)
C13 C 0.2733(7) 0.7225(5) 0.4461(5)
H8 H 0.2309 0.7741 0.5120
C14 C 0.3154(6) 0.7679(5) 0.3509(4)
H9 H 0.3024 0.8512 0.3520
C15 C 0.7373(5) 1.0301(4) 0.2365(3)
C16 C 0.7858(5) 0.9478(4) 0.2917(4)
H10 H 0.7068 0.8663 0.2925
C17 C 0.9493(5) 0.9855(4) 0.3452(4)
H11 H 0.9800 0.9298 0.3817
C18 C 1.0658(5) 1.1060(4) 0.3440(4)
C19 C 1.0218(5) 1.1891(5) 0.2895(4)
H12 H 1.1012 1.2707 0.2895
C20 C 0.8591(5) 1.1498(4) 0.2350(4)
H13 H 0.8304 1.2045 0.1964
Cl1 Cl 0.23998(19) 0.53918(14) 0.56770(13)
N1 N 0.2945(5) 1.1342(4) 0.0827(4)
H14 H 0.3578 1.2173 0.0928
H15 H 0.1902 1.1071 0.0537
O1 O 0.5236(3) 1.0983(3) 0.1571(3)
O2 O 0.0109(4) 0.8707(4) 0.0341(3)
O3 O 0.0744(4) 0.7158(3) 0.1007(3)
O4 O 0.4724(4) 0.6674(3) 0.0581(3)
loop_
_geom_bond_atom_site_label_1
_geom_bond_atom_site_label_2
_geom_bond_site_symmetry_1
_geom_bond_site_symmetry_2
Br1 C18 1_555 1_555
C1 C2 1_555 1_555
C2 C3 1_555 1_555
C3 C4 1_555 1_555
C4 C15 1_555 1_555
C5 C2 1_555 1_555
C6 H1 1_555 1_555
H2 C6 1_555 1_555
C7 C6 1_555 1_555
H3 C7 1_555 1_555
H4 C7 1_555 1_555
H5 C7 1_555 1_555
C8 C3 1_555 1_555
C9 C8 1_555 1_555
C10 C9 1_555 1_555
H6 C10 1_555 1_555
C11 C10 1_555 1_555
H7 C11 1_555 1_555
C12 C11 1_555 1_555
C13 C12 1_555 1_555
H8 C13 1_555 1_555
C14 C9 1_555 1_555
H9 C14 1_555 1_555
C15 C16 1_555 1_555
C16 H10 1_555 1_555
C17 C16 1_555 1_555
H11 C17 1_555 1_555
C18 C17 1_555 1_555
C19 C18 1_555 1_555
H12 C19 1_555 1_555
C20 C15 1_555 1_555
H13 C20 1_555 1_555
Cl1 C12 1_555 1_555
N1 C1 1_555 1_555
H14 N1 1_555 1_555
H15 N1 1_555 1_555
O1 C1 1_555 1_555
O2 C5 1_555 1_555
O3 C5 1_555 1_555
O4 C8 1_555 1_555
C4 O1 1_555 1_555
C6 O3 1_555 1_555
C13 C14 1_555 1_555
C19 C20 1_555 1_555

#END
