
#######################################################################
#
#                 Cambridge Crystallographic Data Centre
#                                CCDC 
#
#######################################################################
#
# If this CIF has been generated from an entry in the Cambridge 
# Structural Database, then it will include bibliographic, chemical, 
# crystal, experimental, refinement or atomic coordinate data resulting 
# from the CCDC's data processing and validation procedures.
#
#######################################################################

data_NAJKER
_chemical_formula_moiety         'C20 H15 Cl2 N1 O4'
_chemical_name_systematic        
'Ethyl 2-amino-4-(4-chlorobenzoyl)-5-(3-chlorophenyl)-3-furoate'
_symmetry_cell_setting           monoclinic
_symmetry_space_group_name_H-M   'P 21/n'
_symmetry_Int_Tables_number      14
_space_group_name_Hall           '-P 2yn'
loop_
_symmetry_equiv_pos_site_id
_symmetry_equiv_pos_as_xyz
1 x,y,z
2 1/2-x,1/2+y,1/2-z
3 -x,-y,-z
4 1/2+x,1/2-y,1/2+z
_cell_length_a                   13.845(3)
_cell_length_b                   6.9223(13)
_cell_length_c                   19.527(4)
_cell_angle_alpha                90
_cell_angle_beta                 95.755(5)
_cell_angle_gamma                90
_cell_volume                     1862.02
_cell_formula_units_Z            4
loop_
_atom_site_label
_atom_site_type_symbol
_atom_site_fract_x
_atom_site_fract_y
_atom_site_fract_z
Cl1 Cl 0.67611(6) 1.23641(13) 0.07034(4)
Cl2 Cl -0.13354(5) 0.62954(15) 0.10965(5)
O1 O 0.20413(11) 0.7135(2) 0.25613(8)
O2 O 0.48023(13) 0.6713(3) 0.36232(10)
C1 C 0.28519(18) 0.7026(3) 0.29986(12)
O3 O 0.37809(14) 0.4878(3) 0.09978(9)
N1 N 0.2742(2) 0.7133(4) 0.36767(12)
O4 O 0.52784(12) 0.6107(3) 0.25794(9)
C2 C 0.46142(18) 0.6531(4) 0.30030(14)
C3 C 0.36530(18) 0.6746(3) 0.26539(12)
C4 C 0.45925(17) 0.7847(4) 0.11836(12)
C5 C 0.05830(18) 0.6670(4) 0.14666(13)
H1 H 0.0441 0.6307 0.1904
C6 C 0.45906(18) 0.9668(4) 0.14848(13)
H2 H 0.4136 0.9952 0.1790
C7 C 0.15353(18) 0.7073(3) 0.13455(12)
C8 C 0.38848(17) 0.6349(4) 0.13418(13)
C9 C 0.32944(17) 0.6678(3) 0.19333(11)
C10 C 0.52516(19) 1.1056(4) 0.13380(14)
H3 H 0.5242 1.2273 0.1540
C11 C 0.59225(19) 1.0624(4) 0.08916(14)
C12 C 0.23176(18) 0.6921(3) 0.18929(12)
C13 C 0.5942(2) 0.8840(5) 0.05809(14)
H4 H 0.6400 0.8571 0.0277
C14 C 0.0041(2) 0.7341(4) 0.02864(15)
H5 H -0.0460 0.7423 -0.0067
C15 C -0.01499(19) 0.6810(4) 0.09372(15)
C16 C 0.5275(2) 0.7460(4) 0.07261(14)
H6 H 0.5282 0.6256 0.0516
C17 C 0.6278(2) 0.6059(6) 0.28837(18)
H7 H 0.6416 0.7196 0.3167
H8 H 0.6384 0.4926 0.3174
C18 C 0.0977(2) 0.7750(4) 0.01648(14)
H9 H 0.1111 0.8123 -0.0273
C19 C 0.17137(19) 0.7611(4) 0.06829(13)
H10 H 0.2346 0.7881 0.0591
C20 C 0.6907(2) 0.6005(8) 0.2350(2)
H11 H 0.6776 0.4864 0.2077
H12 H 0.7570 0.5986 0.2549
H13 H 0.6799 0.7128 0.2064
H14 H 0.330(2) 0.723(4) 0.3919(16)
H15 H 0.229(2) 0.779(4) 0.3792(15)
loop_
_geom_bond_atom_site_label_1
_geom_bond_atom_site_label_2
_geom_bond_site_symmetry_1
_geom_bond_site_symmetry_2
Cl1 C11 1_555 1_555
Cl2 C15 1_555 1_555
O1 C1 1_555 1_555
O2 C2 1_555 1_555
C1 N1 1_555 1_555
O3 C8 1_555 1_555
N1 H14 1_555 1_555
O4 C2 1_555 1_555
C2 C3 1_555 1_555
C3 C1 1_555 1_555
C4 C6 1_555 1_555
C5 H1 1_555 1_555
C6 H2 1_555 1_555
C7 C5 1_555 1_555
C8 C4 1_555 1_555
C9 C3 1_555 1_555
C10 C6 1_555 1_555
H3 C10 1_555 1_555
C11 C10 1_555 1_555
C12 O1 1_555 1_555
C13 C11 1_555 1_555
H4 C13 1_555 1_555
C14 H5 1_555 1_555
C15 C5 1_555 1_555
C16 C4 1_555 1_555
H6 C16 1_555 1_555
C17 O4 1_555 1_555
H7 C17 1_555 1_555
H8 C17 1_555 1_555
C18 C14 1_555 1_555
H9 C18 1_555 1_555
C19 C7 1_555 1_555
H10 C19 1_555 1_555
C20 C17 1_555 1_555
H11 C20 1_555 1_555
H12 C20 1_555 1_555
H13 C20 1_555 1_555
H15 N1 1_555 1_555
C7 C12 1_555 1_555
C8 C9 1_555 1_555
C9 C12 1_555 1_555
C13 C16 1_555 1_555
C14 C15 1_555 1_555
C18 C19 1_555 1_555

#END
