
#######################################################################
#
#                 Cambridge Crystallographic Data Centre
#                                CCDC 
#
#######################################################################
#
# If this CIF has been generated from an entry in the Cambridge 
# Structural Database, then it will include bibliographic, chemical, 
# crystal, experimental, refinement or atomic coordinate data resulting 
# from the CCDC's data processing and validation procedures.
#
#######################################################################

data_NAJKIV
_chemical_formula_moiety         'C21 H18 Cl1 N1 O4'
_chemical_name_systematic        
'Ethyl 2-amino-5-(4-chlorophenyl)-4-(4-methylbenzoyl)-3-furoate'
_symmetry_cell_setting           triclinic
_symmetry_space_group_name_H-M   'P -1'
_symmetry_Int_Tables_number      2
_space_group_name_Hall           '-P 1'
loop_
_symmetry_equiv_pos_site_id
_symmetry_equiv_pos_as_xyz
1 x,y,z
2 -x,-y,-z
_cell_length_a                   8.293(2)
_cell_length_b                   10.351(3)
_cell_length_c                   12.222(3)
_cell_angle_alpha                103.589(7)
_cell_angle_beta                 93.205(7)
_cell_angle_gamma                108.649(7)
_cell_volume                     956.403
_cell_formula_units_Z            2
loop_
_atom_site_label
_atom_site_type_symbol
_atom_site_fract_x
_atom_site_fract_y
_atom_site_fract_z
Cl1 Cl -0.79730(10) -0.14548(9) 0.09962(9)
C1 C 0.1857(4) 0.2237(3) 0.1350(3)
H1 H 0.1939 0.1395 0.1449
C2 C 0.2286(4) 0.2618(4) 0.0383(3)
H2 H 0.2660 0.2033 -0.0166
O1 O -0.0391(2) -0.0953(2) 0.35149(16)
C3 C 0.1188(4) 0.4314(3) 0.2014(3)
H3 H 0.0825 0.4905 0.2565
O2 O 0.4882(3) 0.1286(3) 0.4616(2)
O3 O 0.4331(2) 0.2918(2) 0.39067(19)
C4 C 0.6447(6) 0.4786(5) 0.3472(4)
H4 H 0.6240 0.4292 0.2679
H5 H 0.7615 0.5422 0.3668
H6 H 0.5682 0.5313 0.3621
C5 C -0.5474(4) -0.1746(3) 0.2313(3)
H7 H -0.6326 -0.2525 0.2423
C6 C -0.3803(4) -0.1384(3) 0.2804(3)
H8 H -0.3533 -0.1925 0.3247
C7 C 0.2634(5) 0.4270(4) -0.0880(3)
H9 H 0.3656 0.4079 -0.1075
H10 H 0.2831 0.5262 -0.0762
H11 H 0.1704 0.3737 -0.1487
C8 C -0.2962(4) 0.0566(3) 0.2005(3)
H12 H -0.2120 0.1355 0.1900
C9 C -0.4644(4) 0.0211(3) 0.1512(3)
H13 H -0.4932 0.0758 0.1084
N1 N 0.1891(3) -0.1338(3) 0.4325(2)
H14 H 0.1207 -0.2171 0.4301
H15 H 0.2957 -0.1076 0.4601
O4 O 0.0402(3) 0.3438(3) 0.4000(2)
C10 C 0.1607(5) 0.4675(3) 0.1037(4)
H16 H 0.1504 0.5506 0.0930
C11 C 0.6149(4) 0.3772(4) 0.4148(3)
H17 H 0.6463 0.4264 0.4951
H18 H 0.6841 0.3175 0.3953
C12 C -0.5875(4) -0.0954(3) 0.1663(3)
C13 C -0.2514(4) -0.0229(3) 0.2651(2)
C14 C -0.0742(4) 0.0115(3) 0.3144(3)
C15 C 0.0712(3) 0.1246(3) 0.3336(2)
C16 C 0.0803(3) 0.2670(3) 0.3231(3)
C17 C 0.1303(3) 0.3079(3) 0.2186(3)
C18 C 0.2177(4) 0.3848(4) 0.0204(3)
C19 C 0.1304(4) -0.0461(3) 0.3937(2)
C20 C 0.2060(4) 0.0889(3) 0.3838(2)
C21 C 0.3876(4) 0.1681(3) 0.4171(3)
loop_
_geom_bond_atom_site_label_1
_geom_bond_atom_site_label_2
_geom_bond_site_symmetry_1
_geom_bond_site_symmetry_2
Cl1 C12 1_555 1_555
C1 H1 1_555 1_555
C2 C1 1_555 1_555
H2 C2 1_555 1_555
O1 C14 1_555 1_555
C3 H3 1_555 1_555
O2 C21 1_555 1_555
O3 C11 1_555 1_555
C4 H4 1_555 1_555
H5 C4 1_555 1_555
H6 C4 1_555 1_555
C5 H7 1_555 1_555
C6 C5 1_555 1_555
H8 C6 1_555 1_555
C7 H9 1_555 1_555
H10 C7 1_555 1_555
H11 C7 1_555 1_555
C8 H12 1_555 1_555
C9 C8 1_555 1_555
H13 C9 1_555 1_555
N1 H14 1_555 1_555
H15 N1 1_555 1_555
O4 C16 1_555 1_555
C10 C3 1_555 1_555
H16 C10 1_555 1_555
C11 C4 1_555 1_555
H17 C11 1_555 1_555
H18 C11 1_555 1_555
C12 C5 1_555 1_555
C13 C6 1_555 1_555
C14 C13 1_555 1_555
C15 C14 1_555 1_555
C16 C15 1_555 1_555
C17 C1 1_555 1_555
C18 C2 1_555 1_555
C19 O1 1_555 1_555
C20 C15 1_555 1_555
C21 O3 1_555 1_555
C3 C17 1_555 1_555
C7 C18 1_555 1_555
C8 C13 1_555 1_555
C9 C12 1_555 1_555
N1 C19 1_555 1_555
C10 C18 1_555 1_555
C16 C17 1_555 1_555
C19 C20 1_555 1_555
C20 C21 1_555 1_555

#END
