
#######################################################################
#
#                 Cambridge Crystallographic Data Centre
#                                CCDC 
#
#######################################################################
#
# If this CIF has been generated from an entry in the Cambridge 
# Structural Database, then it will include bibliographic, chemical, 
# crystal, experimental, refinement or atomic coordinate data resulting 
# from the CCDC's data processing and validation procedures.
#
#######################################################################

data_NAJTAV
_chemical_formula_moiety         'C36 H54 Ba2 Cl4 N2 O28'
_chemical_name_systematic        
"bis(\m~2~-perchlorato-O,O')-bis(ethyl 2,3,5,6,8,9,11,12-octahydro-13H-1,4,7,10,13-benzotetraoxaazacyclopentadecine-13-acetate)-bis(perchlorato)-di-barium"
_symmetry_cell_setting           monoclinic
_symmetry_space_group_name_H-M   'P 21/c'
_symmetry_Int_Tables_number      14
_space_group_name_Hall           '-P 2ybc'
loop_
_symmetry_equiv_pos_site_id
_symmetry_equiv_pos_as_xyz
1 x,y,z
2 -x,1/2+y,1/2-z
3 -x,-y,-z
4 x,1/2-y,1/2+z
_cell_length_a                   15.0987(9)
_cell_length_b                   8.5917(5)
_cell_length_c                   20.4014(12)
_cell_angle_alpha                90
_cell_angle_beta                 110.939(2)
_cell_angle_gamma                90
_cell_volume                     2471.77
_exptl_crystal_colour            colorless
_exptl_crystal_description       plate
_chemical_melting_point          '282-283deg. C(dec.)'
_cell_formula_units_Z            2
_exptl_crystal_recrystallization_method benzene/acetonitrile
loop_
_atom_site_label
_atom_site_type_symbol
_atom_site_fract_x
_atom_site_fract_y
_atom_site_fract_z
Ba1 Ba 0.338402(13) 0.33686(2) 0.375502(10)
Cl1 Cl 0.42386(6) 0.46704(9) 0.56414(4)
O1 O 0.3974(2) 0.3252(3) 0.52423(14)
O2 O 0.4252(3) 0.5915(4) 0.5185(2)
O3 O 0.35894(18) 0.4994(3) 0.59831(13)
O4 O 0.48199(17) 0.5535(3) 0.38430(13)
Cl2 Cl 0.18029(6) 0.65461(9) 0.24671(4)
O5 O 0.26917(19) 0.5879(3) 0.29231(14)
O6 O 0.12270(19) 0.6953(3) 0.28667(14)
O7 O 0.1308(2) 0.5410(4) 0.19413(16)
O8 O 0.2004(2) 0.7879(3) 0.21342(17)
O9 O 0.30693(16) 0.0322(3) 0.41252(12)
O10 O 0.46517(17) 0.0870(3) 0.38093(12)
O11 O 0.40189(17) 0.2771(3) 0.26185(12)
O12 O 0.22063(16) 0.1936(3) 0.24926(11)
O13 O 0.20829(16) 0.4822(3) 0.42269(11)
O14 O 0.05781(16) 0.5362(3) 0.41122(12)
N1 N 0.14764(19) 0.1962(3) 0.35938(14)
C1 C 0.1672(2) 0.1205(4) 0.42625(16)
C2 C 0.1096(3) 0.1307(4) 0.46572(19)
C3 C 0.1341(3) 0.0539(4) 0.5303(2)
C4 C 0.2145(3) -0.0347(4) 0.55441(19)
C5 C 0.2737(3) -0.0484(4) 0.51566(18)
C6 C 0.2504(2) 0.0314(4) 0.45229(17)
C7 C 0.3792(3) -0.0867(4) 0.4253(2)
C8 C 0.4227(3) -0.0653(4) 0.3711(2)
C9 C 0.5201(3) 0.1166(5) 0.33757(19)
C10 C 0.4596(3) 0.1450(5) 0.26218(19)
C11 C 0.3254(3) 0.2986(4) 0.19656(17)
C12 C 0.2448(3) 0.1895(4) 0.18716(18)
C13 C 0.1251(2) 0.1406(4) 0.23474(18)
C14 C 0.1168(3) 0.0809(4) 0.30170(17)
C15 C 0.0811(2) 0.3262(4) 0.34631(17)
C16 C 0.1241(2) 0.4551(4) 0.39785(16)
C17 C 0.0909(3) 0.6620(4) 0.46281(19)
C18 C 0.1251(3) 0.5954(5) 0.5354(2)
H1 H 0.052(3) 0.184(4) 0.4494(19)
H2 H 0.094(3) 0.055(4) 0.553(2)
H3 H 0.231(3) -0.094(4) 0.595(2)
H4 H 0.328(3) -0.107(4) 0.5295(18)
H5 H 0.349(3) -0.186(5) 0.428(2)
H6 H 0.425(3) -0.072(5) 0.475(2)
H7 H 0.473(3) -0.146(5) 0.375(2)
H8 H 0.374(3) -0.083(5) 0.322(2)
H9 H 0.560(3) 0.026(5) 0.343(2)
H10 H 0.556(3) 0.211(4) 0.3556(19)
H11 H 0.503(3) 0.168(5) 0.234(2)
H12 H 0.422(2) 0.061(4) 0.2404(18)
H13 H 0.349(3) 0.293(4) 0.158(2)
H14 H 0.305(2) 0.410(4) 0.1974(17)
H15 H 0.192(3) 0.216(5) 0.149(2)
H16 H 0.260(3) 0.087(4) 0.1771(19)
H17 H 0.115(3) 0.057(4) 0.2040(19)
H18 H 0.079(2) 0.226(4) 0.2135(17)
H19 H 0.054(3) 0.049(4) 0.2958(18)
H20 H 0.154(2) -0.009(4) 0.3193(17)
H21 H 0.022(3) 0.288(4) 0.3496(18)
H22 H 0.073(2) 0.366(3) 0.2990(17)
H23 H 0.031(3) 0.720(4) 0.450(2)
H24 H 0.141(3) 0.720(5) 0.455(2)
H25 H 0.145(4) 0.673(6) 0.571(3)
H26 H 0.182(4) 0.538(5) 0.547(2)
H27 H 0.072(3) 0.527(5) 0.545(2)
Ba1B Ba 0.661598(13) 0.66314(2) 0.624498(10)
Cl1B Cl 0.57614(6) 0.53296(9) 0.43586(4)
O1B O 0.6026(2) 0.6748(3) 0.47577(14)
O2B O 0.5748(3) 0.4085(4) 0.4815(2)
O3B O 0.64106(18) 0.5006(3) 0.40169(13)
O4B O 0.51801(17) 0.4465(3) 0.61570(13)
Cl2B Cl 0.81971(6) 0.34539(9) 0.75329(4)
O5B O 0.73083(19) 0.4121(3) 0.70769(14)
O6B O 0.87730(19) 0.3047(3) 0.71333(14)
O7B O 0.8692(2) 0.4590(4) 0.80587(16)
O8B O 0.7996(2) 0.2121(3) 0.78658(17)
O9B O 0.69307(16) 0.9678(3) 0.58748(12)
O10B O 0.53483(17) 0.9130(3) 0.61907(12)
O11B O 0.59811(17) 0.7229(3) 0.73815(12)
O12B O 0.77937(16) 0.8064(3) 0.75074(11)
O13B O 0.79171(16) 0.5178(3) 0.57731(11)
O14B O 0.94219(16) 0.4638(3) 0.58878(12)
N1B N 0.85236(19) 0.8038(3) 0.64062(14)
C1B C 0.8328(2) 0.8795(4) 0.57375(16)
C2B C 0.8904(3) 0.8693(4) 0.53428(19)
C3B C 0.8659(3) 0.9461(4) 0.4697(2)
C4B C 0.7855(3) 1.0347(4) 0.44559(19)
C5B C 0.7263(3) 1.0484(4) 0.48434(18)
C6B C 0.7496(2) 0.9686(4) 0.54771(17)
C7B C 0.6208(3) 1.0867(4) 0.5747(2)
C8B C 0.5773(3) 1.0653(4) 0.6289(2)
C9B C 0.4799(3) 0.8834(5) 0.66243(19)
C10B C 0.5404(3) 0.8550(5) 0.73782(19)
C11B C 0.6746(3) 0.7014(4) 0.80344(17)
C12B C 0.7552(3) 0.8105(4) 0.81284(18)
C13B C 0.8749(2) 0.8594(4) 0.76526(18)
C14B C 0.8832(3) 0.9191(4) 0.69830(17)
C15B C 0.9189(2) 0.6738(4) 0.65369(17)
C16B C 0.8759(2) 0.5449(4) 0.60215(16)
C17B C 0.9091(3) 0.3380(4) 0.53719(19)
C18B C 0.8749(3) 0.4046(5) 0.4646(2)
H1B H 0.948(3) 0.816(4) 0.5506(19)
H2B H 0.906(3) 0.945(4) 0.447(2)
H3B H 0.769(3) 1.094(4) 0.405(2)
H4B H 0.672(3) 1.107(4) 0.4705(18)
H5B H 0.651(3) 1.186(5) 0.572(2)
H6B H 0.575(3) 1.072(5) 0.525(2)
H7B H 0.527(3) 1.146(5) 0.625(2)
H8B H 0.626(3) 1.083(5) 0.678(2)
H9B H 0.440(3) 0.974(5) 0.657(2)
H10B H 0.444(3) 0.789(4) 0.6444(19)
H11B H 0.497(3) 0.832(5) 0.766(2)
H12B H 0.578(2) 0.939(4) 0.7596(18)
H13B H 0.651(3) 0.707(4) 0.842(2)
H14B H 0.695(2) 0.590(4) 0.8026(17)
H15B H 0.808(3) 0.784(5) 0.851(2)
H16B H 0.740(3) 0.913(4) 0.8229(19)
H17B H 0.885(3) 0.943(4) 0.7960(19)
H18B H 0.921(2) 0.774(4) 0.7865(17)
H19B H 0.946(3) 0.951(4) 0.7042(18)
H20B H 0.846(2) 1.009(4) 0.6807(17)
H21B H 0.978(3) 0.712(4) 0.6504(18)
H22B H 0.927(2) 0.634(3) 0.7010(17)
H23B H 0.969(3) 0.280(4) 0.550(2)
H24B H 0.859(3) 0.280(5) 0.545(2)
H25B H 0.855(4) 0.327(6) 0.429(3)
H26B H 0.818(4) 0.462(5) 0.453(2)
H27B H 0.928(3) 0.473(5) 0.455(2)
loop_
_geom_bond_atom_site_label_1
_geom_bond_atom_site_label_2
_geom_bond_site_symmetry_1
_geom_bond_site_symmetry_2
Ba1 O1 1_555 1_555
Cl1 O1 1_555 1_555
O2 Cl1 1_555 1_555
O3 Cl1 1_555 1_555
O4 Ba1 1_555 1_555
Cl2 O5 1_555 1_555
O5 Ba1 1_555 1_555
O6 Cl2 1_555 1_555
O7 Cl2 1_555 1_555
O8 Cl2 1_555 1_555
O9 Ba1 1_555 1_555
O10 Ba1 1_555 1_555
O11 Ba1 1_555 1_555
O12 Ba1 1_555 1_555
O13 Ba1 1_555 1_555
O14 C16 1_555 1_555
N1 Ba1 1_555 1_555
C1 N1 1_555 1_555
C2 C1 1_555 1_555
C3 C2 1_555 1_555
C4 C3 1_555 1_555
C5 C4 1_555 1_555
C6 O9 1_555 1_555
C7 O9 1_555 1_555
C8 O10 1_555 1_555
C9 O10 1_555 1_555
C10 O11 1_555 1_555
C11 O11 1_555 1_555
C12 O12 1_555 1_555
C13 O12 1_555 1_555
C14 N1 1_555 1_555
C15 N1 1_555 1_555
C16 O13 1_555 1_555
C17 O14 1_555 1_555
C18 C17 1_555 1_555
H1 C2 1_555 1_555
H2 C3 1_555 1_555
H3 C4 1_555 1_555
H4 C5 1_555 1_555
H5 C7 1_555 1_555
H6 C7 1_555 1_555
H7 C8 1_555 1_555
H8 C8 1_555 1_555
H9 C9 1_555 1_555
H10 C9 1_555 1_555
H11 C10 1_555 1_555
H12 C10 1_555 1_555
H13 C11 1_555 1_555
H14 C11 1_555 1_555
H15 C12 1_555 1_555
H16 C12 1_555 1_555
H17 C13 1_555 1_555
H18 C13 1_555 1_555
H19 C14 1_555 1_555
H20 C14 1_555 1_555
H21 C15 1_555 1_555
H22 C15 1_555 1_555
H23 C17 1_555 1_555
H24 C17 1_555 1_555
H25 C18 1_555 1_555
H26 C18 1_555 1_555
H27 C18 1_555 1_555
Ba1B O1B 1_555 1_555
Cl1B O4 1_555 1_555
O1B Cl1B 1_555 1_555
O2B Cl1B 1_555 1_555
O3B Cl1B 1_555 1_555
O4B Cl1 1_555 1_555
Cl2B O5B 1_555 1_555
O5B Ba1B 1_555 1_555
O6B Cl2B 1_555 1_555
O7B Cl2B 1_555 1_555
O8B Cl2B 1_555 1_555
O9B Ba1B 1_555 1_555
O10B Ba1B 1_555 1_555
O11B Ba1B 1_555 1_555
O12B Ba1B 1_555 1_555
O13B Ba1B 1_555 1_555
O14B C16B 1_555 1_555
N1B Ba1B 1_555 1_555
C1B N1B 1_555 1_555
C2B C1B 1_555 1_555
C3B C2B 1_555 1_555
C4B C3B 1_555 1_555
C5B C4B 1_555 1_555
C6B O9B 1_555 1_555
C7B O9B 1_555 1_555
C8B O10B 1_555 1_555
C9B O10B 1_555 1_555
C10B O11B 1_555 1_555
C11B O11B 1_555 1_555
C12B O12B 1_555 1_555
C13B O12B 1_555 1_555
C14B N1B 1_555 1_555
C15B N1B 1_555 1_555
C16B O13B 1_555 1_555
C17B O14B 1_555 1_555
C18B C17B 1_555 1_555
H1B C2B 1_555 1_555
H2B C3B 1_555 1_555
H3B C4B 1_555 1_555
H4B C5B 1_555 1_555
H5B C7B 1_555 1_555
H6B C7B 1_555 1_555
H7B C8B 1_555 1_555
H8B C8B 1_555 1_555
H9B C9B 1_555 1_555
H10B C9B 1_555 1_555
H11B C10B 1_555 1_555
H12B C10B 1_555 1_555
H13B C11B 1_555 1_555
H14B C11B 1_555 1_555
H15B C12B 1_555 1_555
H16B C12B 1_555 1_555
H17B C13B 1_555 1_555
H18B C13B 1_555 1_555
H19B C14B 1_555 1_555
H20B C14B 1_555 1_555
H21B C15B 1_555 1_555
H22B C15B 1_555 1_555
H23B C17B 1_555 1_555
H24B C17B 1_555 1_555
H25B C18B 1_555 1_555
H26B C18B 1_555 1_555
H27B C18B 1_555 1_555
C1 C6 1_555 1_555
C5 C6 1_555 1_555
C7 C8 1_555 1_555
C9 C10 1_555 1_555
C11 C12 1_555 1_555
C13 C14 1_555 1_555
C15 C16 1_555 1_555
Ba1B O4B 1_555 1_555
C1B C6B 1_555 1_555
C5B C6B 1_555 1_555
C7B C8B 1_555 1_555
C9B C10B 1_555 1_555
C11B C12B 1_555 1_555
C13B C14B 1_555 1_555
C15B C16B 1_555 1_555

#END
