
#######################################################################
#
#                 Cambridge Crystallographic Data Centre
#                                CCDC 
#
#######################################################################
#
# If this CIF has been generated from an entry in the Cambridge 
# Structural Database, then it will include bibliographic, chemical, 
# crystal, experimental, refinement or atomic coordinate data resulting 
# from the CCDC's data processing and validation procedures.
#
#######################################################################

data_NAJVIF
_chemical_formula_moiety         'C17 H26 Cl1 N2 Na1 O8'
_chemical_name_systematic        
(4,10-Dimethyl-16-formyl-1,7,13,4,10-benzotrioxadiazacyclodecene)-(perchlorato-O,O')-sodium
_symmetry_cell_setting           monoclinic
_symmetry_space_group_name_H-M   'P 21/c'
_symmetry_Int_Tables_number      14
_space_group_name_Hall           '-P 2ybc'
loop_
_symmetry_equiv_pos_site_id
_symmetry_equiv_pos_as_xyz
1 x,y,z
2 -x,1/2+y,1/2-z
3 -x,-y,-z
4 x,1/2-y,1/2+z
_cell_length_a                   9.4634(8)
_cell_length_b                   25.232(2)
_cell_length_c                   9.3834(9)
_cell_angle_alpha                90
_cell_angle_beta                 112.588(3)
_cell_angle_gamma                90
_cell_volume                     2068.7
_exptl_crystal_colour            colorless
_exptl_crystal_description       plate
_cell_formula_units_Z            4
_exptl_crystal_recrystallization_method benzene/acetonitrile
loop_
_atom_site_label
_atom_site_type_symbol
_atom_site_fract_x
_atom_site_fract_y
_atom_site_fract_z
Na1 Na 0.16656(13) 0.38185(4) 0.56883(12)
Cl1 Cl -0.02735(10) 0.37180(3) 0.76508(9)
O1 O 0.1295(3) 0.35572(10) 0.8078(3)
O2 O -0.0771(3) 0.39430(10) 0.6129(3)
O3 O -0.1206(3) 0.32790(10) 0.7683(4)
O4 O -0.0366(3) 0.41210(11) 0.8688(3)
O5 O 0.4453(2) 0.36252(8) 0.7127(2)
O6 O 0.1139(2) 0.44578(7) 0.3763(2)
O7 O 0.2771(2) 0.29920(7) 0.5131(2)
O8 O 0.4469(3) 0.11155(9) 0.7619(3)
N1 N 0.3175(3) 0.46517(9) 0.6915(3)
N2 N -0.0053(3) 0.34032(9) 0.3135(3)
C1 C 0.3799(3) 0.27521(11) 0.6433(3)
C2 C 0.3955(4) 0.22141(12) 0.6704(4)
C3 C 0.5006(3) 0.20360(12) 0.8149(4)
C4 C 0.5890(4) 0.23898(13) 0.9245(4)
C5 C 0.5769(4) 0.29303(13) 0.8952(4)
C6 C 0.4721(3) 0.31121(11) 0.7550(3)
C7 C 0.5322(4) 0.40336(13) 0.8189(4)
C8 C 0.4817(4) 0.45494(13) 0.7351(4)
C9 C 0.2629(4) 0.50574(12) 0.5692(4)
C10 C 0.2336(4) 0.48400(12) 0.4106(4)
C11 C 0.0659(4) 0.42510(13) 0.2230(3)
C12 C -0.0582(4) 0.38443(13) 0.2036(3)
C13 C 0.0842(4) 0.30196(12) 0.2642(3)
C14 C 0.1763(4) 0.26569(12) 0.3931(4)
C15 C 0.2869(5) 0.48225(14) 0.8255(4)
C16 C -0.1367(4) 0.31379(14) 0.3296(4)
C17 C 0.5159(4) 0.14639(14) 0.8505(5)
H1 H 0.338(3) 0.1968(10) 0.598(3)
H2 H 0.660(4) 0.2231(13) 1.020(4)
H3 H 0.647(3) 0.3156(12) 0.964(4)
H4 H 0.642(4) 0.3940(12) 0.843(3)
H5 H 0.517(3) 0.4002(11) 0.919(4)
H6 H 0.544(4) 0.4854(15) 0.800(4)
H7 H 0.510(3) 0.4519(11) 0.644(3)
H8 H 0.329(4) 0.5348(13) 0.594(4)
H9 H 0.164(4) 0.5210(14) 0.580(4)
H10 H 0.204(3) 0.5100(12) 0.336(4)
H11 H 0.329(4) 0.4673(12) 0.407(3)
H12 H 0.152(4) 0.4095(12) 0.209(3)
H13 H 0.031(3) 0.4524(12) 0.148(3)
H14 H -0.141(4) 0.4021(12) 0.227(3)
H15 H -0.099(3) 0.3724(11) 0.093(4)
H16 H 0.156(3) 0.3232(11) 0.225(3)
H17 H 0.016(4) 0.2804(12) 0.174(4)
H18 H 0.116(3) 0.2446(10) 0.440(3)
H19 H 0.235(3) 0.2426(11) 0.357(3)
H20 H 0.336(4) 0.5164(13) 0.863(4)
H21 H 0.318(3) 0.4547(11) 0.904(3)
H22 H 0.186(4) 0.4865(12) 0.796(4)
H23 H -0.203(4) 0.3005(13) 0.241(4)
H24 H -0.196(3) 0.3401(12) 0.359(3)
H25 H -0.105(4) 0.2861(14) 0.407(4)
H26 H 0.588(3) 0.1358(11) 0.976(3)
loop_
_geom_bond_atom_site_label_1
_geom_bond_atom_site_label_2
_geom_bond_site_symmetry_1
_geom_bond_site_symmetry_2
Na1 O1 1_555 1_555
Cl1 O1 1_555 1_555
O2 Na1 1_555 1_555
O3 Cl1 1_555 1_555
O4 Cl1 1_555 1_555
O5 Na1 1_555 1_555
O6 Na1 1_555 1_555
O7 Na1 1_555 1_555
O8 C17 1_555 1_555
N1 Na1 1_555 1_555
N2 Na1 1_555 1_555
C1 O7 1_555 1_555
C2 C1 1_555 1_555
C3 C2 1_555 1_555
C4 C3 1_555 1_555
C5 C4 1_555 1_555
C6 O5 1_555 1_555
C7 O5 1_555 1_555
C8 N1 1_555 1_555
C9 N1 1_555 1_555
C10 O6 1_555 1_555
C11 O6 1_555 1_555
C12 N2 1_555 1_555
C13 N2 1_555 1_555
C14 O7 1_555 1_555
C15 N1 1_555 1_555
C16 N2 1_555 1_555
C17 C3 1_555 1_555
H1 C2 1_555 1_555
H2 C4 1_555 1_555
H3 C5 1_555 1_555
H4 C7 1_555 1_555
H5 C7 1_555 1_555
H6 C8 1_555 1_555
H7 C8 1_555 1_555
H8 C9 1_555 1_555
H9 C9 1_555 1_555
H10 C10 1_555 1_555
H11 C10 1_555 1_555
H12 C11 1_555 1_555
H13 C11 1_555 1_555
H14 C12 1_555 1_555
H15 C12 1_555 1_555
H16 C13 1_555 1_555
H17 C13 1_555 1_555
H18 C14 1_555 1_555
H19 C14 1_555 1_555
H20 C15 1_555 1_555
H21 C15 1_555 1_555
H22 C15 1_555 1_555
H23 C16 1_555 1_555
H24 C16 1_555 1_555
H25 C16 1_555 1_555
H26 C17 1_555 1_555
Cl1 O2 1_555 1_555
C1 C6 1_555 1_555
C5 C6 1_555 1_555
C7 C8 1_555 1_555
C9 C10 1_555 1_555
C11 C12 1_555 1_555
C13 C14 1_555 1_555

#END
