
#######################################################################
#
#                 Cambridge Crystallographic Data Centre
#                                CCDC 
#
#######################################################################
#
# If this CIF has been generated from an entry in the Cambridge 
# Structural Database, then it will include bibliographic, chemical, 
# crystal, experimental, refinement or atomic coordinate data resulting 
# from the CCDC's data processing and validation procedures.
#
#######################################################################

data_NAJYAB
_chemical_formula_moiety         '2(C9 H22 N1 1+),C2 H2 O4,C2 O4 2-'
_chemical_name_systematic        'bis(tripropylammonium) oxalate oxalic acid'
_symmetry_cell_setting           triclinic
_symmetry_space_group_name_H-M   'P -1'
_symmetry_Int_Tables_number      2
_space_group_name_Hall           '-P 1'
loop_
_symmetry_equiv_pos_site_id
_symmetry_equiv_pos_as_xyz
1 x,y,z
2 -x,-y,-z
_cell_length_a                   8.439(4)
_cell_length_b                   11.949(5)
_cell_length_c                   14.567(7)
_cell_angle_alpha                107.561(3)
_cell_angle_beta                 105.678(7)
_cell_angle_gamma                92.798(4)
_cell_volume                     1334.68
_exptl_crystal_colour            colorless
_exptl_crystal_description       Prism
_cell_formula_units_Z            2
loop_
_atom_site_label
_atom_site_type_symbol
_atom_site_fract_x
_atom_site_fract_y
_atom_site_fract_z
O1 O 0.47762(16) 0.11358(9) 0.44681(8)
O2 O 0.52654(18) -0.07204(10) 0.38253(9)
C1 C 0.50174(19) 0.01051(13) 0.45009(11)
O1A O 0.52238(16) -0.11358(9) 0.55319(8)
O2A O 0.47346(18) 0.07204(10) 0.61747(9)
C1A C 0.49826(19) -0.01051(13) 0.54991(11)
O3 O 0.19027(15) 0.57990(10) 0.08201(10)
O4 O 0.09190(16) 0.38867(10) 0.04138(10)
C2 C 0.08278(19) 0.49312(13) 0.03616(11)
O3A O -0.19027(15) 0.42010(10) -0.08201(10)
O4A O -0.09190(16) 0.61133(10) -0.04138(10)
C2A C -0.08278(19) 0.50688(13) -0.03616(11)
O5 O 0.31437(18) 0.36692(10) 0.18412(10)
O6 O 0.3008(2) 0.17649(12) 0.09488(10)
O7 O 0.55052(19) 0.32001(12) 0.33650(10)
O8 O 0.39635(19) 0.14272(11) 0.27899(10)
C3 C 0.3459(2) 0.25969(14) 0.17261(12)
C4 C 0.4446(2) 0.24398(13) 0.27316(11)
H1 H 0.230(4) 0.373(3) 0.120(3)
H2 H 0.441(4) 0.129(3) 0.346(2)
N1 N -0.17819(17) 0.19911(11) -0.04151(10)
H3 H -0.1254 0.2803 -0.0316
C5 C -0.3630(2) 0.19768(15) -0.07815(14)
H4 H -0.3927 0.2029 -0.1471
H5 H -0.3929 0.2690 -0.0341
C6 C -0.1214(2) 0.17965(15) 0.05877(13)
H6 H 0.0006 0.1806 0.0778
H7 H -0.1729 0.1002 0.0519
C7 C -0.4656(2) 0.08908(15) -0.08015(14)
H8 H -0.4590 0.0928 -0.0104
H9 H -0.4213 0.0168 -0.1116
C8 C -0.1136(2) 0.11372(16) -0.11692(14)
H10 H -0.1709 0.0327 -0.1335
H11 H 0.0067 0.1142 -0.0867
C9 C -0.1641(3) 0.27143(18) 0.14259(15)
H12 H -0.2864 0.2661 0.1275
H13 H -0.1200 0.3518 0.1470
C10 C -0.6455(2) 0.0832(2) -0.13997(17)
H14 H -0.6529 0.0716 -0.2106
H15 H -0.6862 0.1575 -0.1118
H16 H -0.7134 0.0169 -0.1361
C11 C -0.0900(4) 0.2514(2) 0.24287(16)
H17 H -0.1362 0.1726 0.2390
H18 H -0.1173 0.3120 0.2966
H19 H 0.0310 0.2567 0.2577
C12 C -0.0810(3) 0.0577(2) -0.29049(17)
H20 H -0.1104 0.0758 -0.3538
H21 H -0.1337 -0.0224 -0.3024
H22 H 0.0400 0.0623 -0.2653
C13 C -0.1401(4) 0.1451(2) -0.21442(16)
H23 H -0.2599 0.1474 -0.2435
H24 H -0.0796 0.2250 -0.1982
N2 N 0.60124(17) -0.29464(11) 0.39550(10)
H25 H 0.5612 -0.2161 0.4159
C14 C 0.7752(2) -0.28000(14) 0.46365(12)
H26 H 0.8155 -0.3581 0.4501
H27 H 0.7734 -0.2533 0.5346
C15 C 0.5902(2) -0.32392(14) 0.28568(12)
H28 H 0.6452 -0.2545 0.2768
H29 H 0.4715 -0.3363 0.2461
C16 C 0.4886(2) -0.38144(14) 0.41464(12)
H30 H 0.5124 -0.3635 0.4884
H31 H 0.5138 -0.4625 0.3864
C17 C 0.3058(2) -0.37847(16) 0.36898(14)
H32 H 0.2778 -0.4045 0.2945
H33 H 0.2806 -0.2965 0.3926
C18 C 0.6667(2) -0.43175(15) 0.24198(12)
H34 H 0.6165 -0.5021 0.2520
H35 H 0.7878 -0.4187 0.2763
C19 C 0.8961(2) -0.19212(17) 0.45071(14)
H36 H 0.8495 -0.1169 0.4551
H37 H 0.9116 -0.2241 0.3831
C20 C 1.0633(2) -0.16790(19) 0.53103(16)
H38 H 1.1408 -0.1144 0.5187
H39 H 1.1076 -0.2427 0.5285
H40 H 1.0494 -0.1309 0.5977
C21 C 0.6345(3) -0.4522(2) 0.12960(14)
H41 H 0.5145 -0.4636 0.0965
H42 H 0.6810 -0.5230 0.0997
H43 H 0.6875 -0.3832 0.1204
C22 C 0.2024(3) -0.46025(19) 0.40006(18)
H44 H 0.0840 -0.4581 0.3707
H45 H 0.2300 -0.4338 0.4738
H46 H 0.2267 -0.5415 0.3757
loop_
_geom_bond_atom_site_label_1
_geom_bond_atom_site_label_2
_geom_bond_site_symmetry_1
_geom_bond_site_symmetry_2
O1 C1 1_555 1_555
O2 C1 1_555 1_555
C1 C1A 1_555 1_555
O3 C2 1_555 1_555
O4 C2 1_555 1_555
C2 C2A 1_555 1_555
O5 C3 1_555 1_555
O6 C3 1_555 1_555
O7 C4 1_555 1_555
O8 C4 1_555 1_555
C3 C4 1_555 1_555
H1 O5 1_555 1_555
H2 O8 1_555 1_555
N1 H3 1_555 1_555
C5 N1 1_555 1_555
H4 C5 1_555 1_555
H5 C5 1_555 1_555
C6 N1 1_555 1_555
H6 C6 1_555 1_555
H7 C6 1_555 1_555
C7 C5 1_555 1_555
H8 C7 1_555 1_555
H9 C7 1_555 1_555
C8 N1 1_555 1_555
H10 C8 1_555 1_555
H11 C8 1_555 1_555
C9 C6 1_555 1_555
H12 C9 1_555 1_555
H13 C9 1_555 1_555
C10 C7 1_555 1_555
H14 C10 1_555 1_555
H15 C10 1_555 1_555
H16 C10 1_555 1_555
C11 C9 1_555 1_555
H17 C11 1_555 1_555
H18 C11 1_555 1_555
H19 C11 1_555 1_555
C12 H20 1_555 1_555
H21 C12 1_555 1_555
H22 C12 1_555 1_555
C13 C8 1_555 1_555
H23 C13 1_555 1_555
H24 C13 1_555 1_555
N2 H25 1_555 1_555
C14 N2 1_555 1_555
H26 C14 1_555 1_555
H27 C14 1_555 1_555
C15 N2 1_555 1_555
H28 C15 1_555 1_555
H29 C15 1_555 1_555
C16 N2 1_555 1_555
H30 C16 1_555 1_555
H31 C16 1_555 1_555
C17 C16 1_555 1_555
H32 C17 1_555 1_555
H33 C17 1_555 1_555
C18 C15 1_555 1_555
H34 C18 1_555 1_555
H35 C18 1_555 1_555
C19 C14 1_555 1_555
H36 C19 1_555 1_555
H37 C19 1_555 1_555
C20 C19 1_555 1_555
H38 C20 1_555 1_555
H39 C20 1_555 1_555
H40 C20 1_555 1_555
C21 C18 1_555 1_555
H41 C21 1_555 1_555
H42 C21 1_555 1_555
H43 C21 1_555 1_555
C22 C17 1_555 1_555
H44 C22 1_555 1_555
H45 C22 1_555 1_555
H46 C22 1_555 1_555
O1A C1A 1_555 1_555
O2A C1A 1_555 1_555
O3A C2A 1_555 1_555
O4A C2A 1_555 1_555
C12 C13 1_555 1_555

#END
