
#######################################################################
#
#                 Cambridge Crystallographic Data Centre
#                                CCDC 
#
#######################################################################
#
# If this CIF has been generated from an entry in the Cambridge 
# Structural Database, then it will include bibliographic, chemical, 
# crystal, experimental, refinement or atomic coordinate data resulting 
# from the CCDC's data processing and validation procedures.
#
#######################################################################

data_NAJZAC
_chemical_name_common            Diosgenin
_chemical_formula_moiety         'C27 H42 O3,H2 O1'
_chemical_name_systematic        'spirost-5-en-3-ol monohydrate'
_symmetry_cell_setting           monoclinic
_symmetry_space_group_name_H-M   'P 21'
_symmetry_Int_Tables_number      4
_space_group_name_Hall           'P 2yb'
loop_
_symmetry_equiv_pos_site_id
_symmetry_equiv_pos_as_xyz
1 x,y,z
2 -x,1/2+y,-z
_cell_length_a                   10.4103(13)
_cell_length_b                   7.2492(8)
_cell_length_c                   16.7086(18)
_cell_angle_alpha                90
_cell_angle_beta                 92.8170(10)
_cell_angle_gamma                90
_cell_volume                     1259.41
_cell_formula_units_Z            2
loop_
_atom_site_label
_atom_site_type_symbol
_atom_site_fract_x
_atom_site_fract_y
_atom_site_fract_z
O1 O 0.5719(6) 0.7847(10) 0.9146(4)
H1 H 0.5215 0.7025 0.9254
O2 O 0.8192(6) 0.5936(9) 0.2600(4)
O3 O 0.7281(6) 0.7622(9) 0.1529(4)
C1 C 0.6741(9) 0.9821(12) 0.7225(6)
H2 H 0.7282 1.0882 0.7132
H3 H 0.5900 1.0082 0.6976
C2 C 0.6594(10) 0.9659(13) 0.8129(6)
H4 H 0.7435 0.9554 0.8401
H5 H 0.6181 1.0759 0.8324
C3 C 0.5793(10) 0.7977(13) 0.8309(6)
H6 H 0.4925 0.8134 0.8064
C4 C 0.6417(9) 0.6265(13) 0.7949(6)
H7 H 0.7241 0.6047 0.8230
H8 H 0.5876 0.5202 0.8036
C5 C 0.6621(9) 0.6438(13) 0.7064(7)
C6 C 0.6205(8) 0.5152(13) 0.6556(6)
H9 H 0.5798 0.4133 0.6767
C7 C 0.6333(9) 0.5194(12) 0.5662(5)
H10 H 0.5494 0.5427 0.5403
H11 H 0.6619 0.3992 0.5487
C8 C 0.7272(9) 0.6654(12) 0.5395(6)
H12 H 0.8145 0.6189 0.5510
C9 C 0.7117(8) 0.8401(13) 0.5873(6)
H13 H 0.6211 0.8744 0.5782
C10 C 0.7304(9) 0.8163(13) 0.6789(6)
C11 C 0.7879(8) 1.0049(12) 0.5557(6)
H14 H 0.7624 1.1161 0.5830
H15 H 0.8788 0.9854 0.5684
C12 C 0.7671(8) 1.0333(13) 0.4650(6)
H16 H 0.6797 1.0749 0.4532
H17 H 0.8250 1.1288 0.4478
C13 C 0.7906(9) 0.8572(13) 0.4184(6)
C14 C 0.7115(8) 0.6994(12) 0.4513(6)
H18 H 0.6223 0.7413 0.4433
C15 C 0.7230(8) 0.5463(13) 0.3910(6)
H19 H 0.6515 0.4610 0.3932
H20 H 0.8028 0.4789 0.4005
C16 C 0.7209(10) 0.6456(13) 0.3116(6)
H21 H 0.6365 0.6305 0.2838
C17 C 0.7459(9) 0.8558(13) 0.3301(6)
H22 H 0.6641 0.9223 0.3239
C18 C 0.8317(10) 0.9158(13) 0.2638(6)
H23 H 0.9186 0.9337 0.2878
C19 C 0.8354(10) 0.7488(15) 0.2081(7)
C20 C 0.9569(9) 0.7207(13) 0.1638(6)
H24 H 1.0282 0.7015 0.2025
H25 H 0.9745 0.8318 0.1339
C21 C 0.9492(10) 0.5560(15) 0.1057(7)
H26 H 1.0256 0.5523 0.0747
H27 H 0.9446 0.4417 0.1356
C22 C 0.8297(12) 0.5767(17) 0.0497(7)
H28 H 0.8382 0.6856 0.0156
C23 C 0.7136(10) 0.5973(14) 0.1003(6)
H29 H 0.6366 0.6097 0.0656
H30 H 0.7045 0.4878 0.1329
C24 C 0.8105(11) 0.4027(15) -0.0027(7)
H31 H 0.8799 0.3925 -0.0383
H32 H 0.7305 0.4118 -0.0336
H33 H 0.8092 0.2956 0.0310
C25 C 0.8756(8) 0.7964(14) 0.7056(5)
H34 H 0.9128 0.6975 0.6763
H35 H 0.8834 0.7700 0.7619
H36 H 0.9197 0.9093 0.6949
C26 C 0.9387(8) 0.8109(13) 0.4271(5)
H37 H 0.9574 0.7094 0.3927
H38 H 0.9613 0.7783 0.4817
H39 H 0.9875 0.9168 0.4123
C27 C 0.7917(9) 1.0952(12) 0.2208(5)
H40 H 0.8443 1.1138 0.1758
H41 H 0.8027 1.1970 0.2572
H42 H 0.7031 1.0871 0.2023
O4 O 0.4032(7) 0.5156(11) 0.9547(4)
H43 H 0.4157 0.4522 0.9971
H44 H 0.3642 0.4482 0.9196
loop_
_geom_bond_atom_site_label_1
_geom_bond_atom_site_label_2
_geom_bond_site_symmetry_1
_geom_bond_site_symmetry_2
O1 H1 1_555 1_555
O2 C16 1_555 1_555
O3 C19 1_555 1_555
C1 H2 1_555 1_555
H3 C1 1_555 1_555
C2 C1 1_555 1_555
H4 C2 1_555 1_555
H5 C2 1_555 1_555
C3 O1 1_555 1_555
H6 C3 1_555 1_555
C4 C3 1_555 1_555
H7 C4 1_555 1_555
H8 C4 1_555 1_555
C5 C4 1_555 1_555
C6 C5 1_555 1_555
H9 C6 1_555 1_555
C7 C6 1_555 1_555
H10 C7 1_555 1_555
H11 C7 1_555 1_555
C8 C7 1_555 1_555
H12 C8 1_555 1_555
C9 C8 1_555 1_555
H13 C9 1_555 1_555
C10 C1 1_555 1_555
C11 C9 1_555 1_555
H14 C11 1_555 1_555
H15 C11 1_555 1_555
C12 C11 1_555 1_555
H16 C12 1_555 1_555
H17 C12 1_555 1_555
C13 C12 1_555 1_555
C14 C8 1_555 1_555
H18 C14 1_555 1_555
C15 C14 1_555 1_555
H19 C15 1_555 1_555
H20 C15 1_555 1_555
C16 C15 1_555 1_555
H21 C16 1_555 1_555
C17 C13 1_555 1_555
H22 C17 1_555 1_555
C18 C17 1_555 1_555
H23 C18 1_555 1_555
C19 O2 1_555 1_555
C20 C19 1_555 1_555
H24 C20 1_555 1_555
H25 C20 1_555 1_555
C21 C20 1_555 1_555
H26 C21 1_555 1_555
H27 C21 1_555 1_555
C22 C21 1_555 1_555
H28 C22 1_555 1_555
C23 O3 1_555 1_555
H29 C23 1_555 1_555
H30 C23 1_555 1_555
C24 C22 1_555 1_555
H31 C24 1_555 1_555
H32 C24 1_555 1_555
H33 C24 1_555 1_555
C25 C10 1_555 1_555
H34 C25 1_555 1_555
H35 C25 1_555 1_555
H36 C25 1_555 1_555
C26 C13 1_555 1_555
H37 C26 1_555 1_555
H38 C26 1_555 1_555
H39 C26 1_555 1_555
C27 C18 1_555 1_555
H40 C27 1_555 1_555
H41 C27 1_555 1_555
H42 C27 1_555 1_555
O4 H43 1_555 1_555
H44 O4 1_555 1_555
C2 C3 1_555 1_555
C5 C10 1_555 1_555
C9 C10 1_555 1_555
C13 C14 1_555 1_555
C16 C17 1_555 1_555
C18 C19 1_555 1_555
C22 C23 1_555 1_555

#END
