
#######################################################################
#
#                 Cambridge Crystallographic Data Centre
#                                CCDC 
#
#######################################################################
#
# If this CIF has been generated from an entry in the Cambridge 
# Structural Database, then it will include bibliographic, chemical, 
# crystal, experimental, refinement or atomic coordinate data resulting 
# from the CCDC's data processing and validation procedures.
#
#######################################################################

data_NAKHOY
_chemical_formula_moiety         'C16 H13 N1 O4'
_chemical_name_systematic        2-Amino-7-methoxy-4'-hydroxyisoflavone
_symmetry_cell_setting           monoclinic
_symmetry_space_group_name_H-M   'P 21/c'
_symmetry_Int_Tables_number      14
_space_group_name_Hall           '-P 2ybc'
loop_
_symmetry_equiv_pos_site_id
_symmetry_equiv_pos_as_xyz
1 x,y,z
2 -x,1/2+y,1/2-z
3 -x,-y,-z
4 x,1/2-y,1/2+z
_cell_length_a                   10.990(7)
_cell_length_b                   11.879(7)
_cell_length_c                   10.422(6)
_cell_angle_alpha                90
_cell_angle_beta                 96.904(11)
_cell_angle_gamma                90
_cell_volume                     1350.73
_exptl_crystal_colour            colorless
_exptl_crystal_description       block
_chemical_melting_point          '594.15 K'
_cell_formula_units_Z            4
loop_
_atom_site_label
_atom_site_type_symbol
_atom_site_fract_x
_atom_site_fract_y
_atom_site_fract_z
N1 N 0.36055(14) 0.87148(13) 0.34479(15)
H1 H 0.3350 0.9090 0.2762
H2 H 0.4227 0.8950 0.3957
O1 O 0.73752(12) 0.82582(11) 0.84254(14)
H3 H 0.7312 0.8904 0.8686
O2 O 0.29496(12) 0.53991(10) 0.58294(13)
O3 O 0.20913(12) 0.75565(10) 0.27978(12)
O4 O -0.11898(13) 0.52281(12) 0.10114(15)
C1 C 0.63774(19) 0.80024(17) 0.75644(19)
C2 C 0.64030(18) 0.70066(17) 0.68812(19)
H4 H 0.7075 0.6529 0.7031
C3 C 0.54316(18) 0.67229(16) 0.59780(19)
H5 H 0.5464 0.6054 0.5519
C4 C 0.44068(17) 0.74052(15) 0.57329(18)
C5 C 0.43966(17) 0.83982(16) 0.64395(19)
H6 H 0.3722 0.8874 0.6296
C6 C 0.53622(18) 0.86955(16) 0.73480(19)
H7 H 0.5330 0.9361 0.7814
C7 C 0.33559(17) 0.70850(15) 0.47742(18)
C8 C 0.26950(18) 0.60718(16) 0.48905(19)
C9 C 0.16967(17) 0.58335(16) 0.38805(18)
C10 C 0.09569(18) 0.48733(17) 0.3861(2)
H8 H 0.1113 0.4340 0.4513
C11 C 0.00101(19) 0.47002(17) 0.2904(2)
H9 H -0.0472 0.4058 0.2915
C12 C -0.02341(19) 0.54875(18) 0.1909(2)
C13 C 0.04744(18) 0.64360(17) 0.1885(2)
H10 H 0.0324 0.6964 0.1226
C14 C 0.14166(18) 0.65810(16) 0.28684(19)
C15 C 0.30379(18) 0.77696(16) 0.37204(19)
C16 C -0.1613(2) 0.60699(19) 0.0079(2)
H11 H -0.1801 0.6747 0.0517
H12 H -0.2336 0.5804 -0.0442
H13 H -0.0985 0.6222 -0.0463
loop_
_geom_bond_atom_site_label_1
_geom_bond_atom_site_label_2
_geom_bond_site_symmetry_1
_geom_bond_site_symmetry_2
N1 H1 1_555 1_555
H2 N1 1_555 1_555
O1 H3 1_555 1_555
O2 C8 1_555 1_555
O3 C14 1_555 1_555
O4 C12 1_555 1_555
C1 O1 1_555 1_555
C2 C1 1_555 1_555
H4 C2 1_555 1_555
C3 C2 1_555 1_555
H5 C3 1_555 1_555
C4 C3 1_555 1_555
C5 C4 1_555 1_555
H6 C5 1_555 1_555
C6 C1 1_555 1_555
H7 C6 1_555 1_555
C7 C4 1_555 1_555
C8 C7 1_555 1_555
C9 C8 1_555 1_555
C10 C9 1_555 1_555
H8 C10 1_555 1_555
C11 C10 1_555 1_555
H9 C11 1_555 1_555
C12 C11 1_555 1_555
C13 C12 1_555 1_555
H10 C13 1_555 1_555
C14 C9 1_555 1_555
C15 N1 1_555 1_555
C16 O4 1_555 1_555
H11 C16 1_555 1_555
H12 C16 1_555 1_555
H13 C16 1_555 1_555
O3 C15 1_555 1_555
C5 C6 1_555 1_555
C7 C15 1_555 1_555
C13 C14 1_555 1_555

#END
