
#######################################################################
#
#                 Cambridge Crystallographic Data Centre
#                                CCDC 
#
#######################################################################
#
# If this CIF has been generated from an entry in the Cambridge 
# Structural Database, then it will include bibliographic, chemical, 
# crystal, experimental, refinement or atomic coordinate data resulting 
# from the CCDC's data processing and validation procedures.
#
#######################################################################

data_NAKNOF01
_chemical_formula_moiety         'C6 H14 N2 2+,2(B1 F4 1-),H2 O1'
_chemical_name_systematic        
'1,4-diazoniabicyclo[2.2.2]octane bis(tetrafluoroborate) monohydrate'
_symmetry_cell_setting           orthorhombic
_symmetry_space_group_name_H-M   'P c a 21'
_symmetry_Int_Tables_number      29
_space_group_name_Hall           'P 2c -2ac'
loop_
_symmetry_equiv_pos_site_id
_symmetry_equiv_pos_as_xyz
1 x,y,z
2 -x,-y,1/2+z
3 1/2-x,y,1/2+z
4 1/2+x,-y,z
_cell_length_a                   13.0629(4)
_cell_length_b                   7.8370(2)
_cell_length_c                   11.6838(3)
_cell_angle_alpha                90
_cell_angle_beta                 90
_cell_angle_gamma                90
_cell_volume                     1196.12
_exptl_crystal_colour            colorless
_exptl_crystal_description       block
_cell_formula_units_Z            4
loop_
_atom_site_label
_atom_site_type_symbol
_atom_site_fract_x
_atom_site_fract_y
_atom_site_fract_z
B1 B 0.2272(7) 0.7183(12) 0.1004(11)
F1 F 0.1202(4) 0.6958(9) 0.1081(7)
F2 F 0.2727(4) 0.5694(7) 0.1401(7)
F3 F 0.2554(5) 0.7454(9) -0.0115(7)
F4 F 0.2568(6) 0.8528(8) 0.1679(8)
C1 C -0.0426(10) 0.254(2) 0.3363(11)
H1 H -0.0877 0.3284 0.3814
H2 H -0.0814 0.1529 0.3138
C2 C -0.0057(7) 0.3489(11) 0.2304(10)
H3 H -0.0267 0.2867 0.1615
H4 H -0.0366 0.4628 0.2278
C3 C 0.1153(13) 0.0933(16) 0.3381(14)
H5 H 0.0779 -0.0088 0.3137
H6 H 0.1732 0.0570 0.3855
C4 C 0.1542(7) 0.1886(11) 0.2342(10)
H7 H 0.2290 0.1974 0.2371
H8 H 0.1353 0.1272 0.1643
C5 C 0.1038(9) 0.3611(15) 0.4444(10)
H9 H 0.1625 0.3283 0.4919
H10 H 0.0585 0.4335 0.4903
C6 C 0.1404(7) 0.4581(13) 0.3398(10)
H11 H 0.1113 0.5733 0.3398
H12 H 0.2152 0.4682 0.3414
N1 N 0.0471(6) 0.2040(10) 0.4056(8)
H13 H 0.0232 0.1404 0.4737
N2 N 0.1075(6) 0.3639(9) 0.2335(8)
H14 H 0.1312 0.4268 0.1650
B2 B 0.4098(8) 0.2389(12) 0.4217(10)
F5 F 0.416(2) 0.266(4) 0.305(2)
F6 F 0.374(2) 0.377(3) 0.4850(18)
F7 F 0.5044(18) 0.190(5) 0.4508(18)
F8 F 0.339(3) 0.108(3) 0.4377(18)
O1 O 0.0702(8) 0.0591(10) 0.6197(8)
H15 H 0.054(10) 0.140(13) 0.665(11)
H16 H 0.118(8) 0.010(16) 0.658(11)
F9? F 0.392(2) 0.298(3) 0.311(2)
F10? F 0.338(3) 0.320(5) 0.490(3)
F11? F 0.503(2) 0.281(5) 0.468(3)
F12? F 0.387(2) 0.067(2) 0.436(2)
loop_
_geom_bond_atom_site_label_1
_geom_bond_atom_site_label_2
_geom_bond_site_symmetry_1
_geom_bond_site_symmetry_2
B1 F1 1_555 1_555
F2 B1 1_555 1_555
F3 B1 1_555 1_555
F4 B1 1_555 1_555
C1 H1 1_555 1_555
H2 C1 1_555 1_555
C2 C1 1_555 1_555
H3 C2 1_555 1_555
H4 C2 1_555 1_555
C3 H5 1_555 1_555
H6 C3 1_555 1_555
C4 C3 1_555 1_555
H7 C4 1_555 1_555
H8 C4 1_555 1_555
C5 H9 1_555 1_555
H10 C5 1_555 1_555
C6 C5 1_555 1_555
H11 C6 1_555 1_555
H12 C6 1_555 1_555
N1 C1 1_555 1_555
H13 N1 1_555 1_555
N2 C2 1_555 1_555
H14 N2 1_555 1_555
B2 F5 1_555 1_555
F6 B2 1_555 1_555
F7 B2 1_555 1_555
F8 B2 1_555 1_555
O1 H15 1_555 1_555
H16 O1 1_555 1_555
C3 N1 1_555 1_555
C4 N2 1_555 1_555
C5 N1 1_555 1_555
C6 N2 1_555 1_555

#END
