
#######################################################################
#
#                 Cambridge Crystallographic Data Centre
#                                CCDC 
#
#######################################################################
#
# If this CIF has been generated from an entry in the Cambridge 
# Structural Database, then it will include bibliographic, chemical, 
# crystal, experimental, refinement or atomic coordinate data resulting 
# from the CCDC's data processing and validation procedures.
#
#######################################################################

data_NAKVAY
_chemical_formula_moiety         'C32 H38 F2 Mg1 N6 O8,6(H2 O1)'
_chemical_name_systematic        
'Diaqua-bis[1-ethyl-6-fluoro-4-oxo-7-(piperazin-1-yl)-1,4-dihydroquinoline-3-carboxylato]-magnesium(ii) hexahydrate'
_symmetry_cell_setting           triclinic
_symmetry_space_group_name_H-M   'P -1'
_symmetry_Int_Tables_number      2
_space_group_name_Hall           '-P 1'
loop_
_symmetry_equiv_pos_site_id
_symmetry_equiv_pos_as_xyz
1 x,y,z
2 -x,-y,-z
_cell_length_a                   5.0944(10)
_cell_length_b                   13.785(3)
_cell_length_c                   14.351(3)
_cell_angle_alpha                112.06(3)
_cell_angle_beta                 97.59(3)
_cell_angle_gamma                93.74(3)
_cell_volume                     918.591
_exptl_crystal_colour            colorless
_exptl_crystal_description       block
_cell_formula_units_Z            1
loop_
_atom_site_label
_atom_site_type_symbol
_atom_site_fract_x
_atom_site_fract_y
_atom_site_fract_z
C1 C 0.6643(11) 1.0494(5) 0.1860(4)
H1 H 0.8374 1.0250 0.1780
H2 H 0.5932 1.0600 0.1249
C2 C 0.4804(10) 0.9679(4) 0.1990(4)
H3 H 0.3051 0.9910 0.2043
H4 H 0.4622 0.9021 0.1399
C3 C 0.6286(11) 1.0513(4) 0.3807(4)
H5 H 0.7095 1.0396 0.4401
H6 H 0.4582 1.0765 0.3932
C4 C 0.8076(12) 1.1339(4) 0.3651(5)
H7 H 0.8267 1.2000 0.4239
H8 H 0.9833 1.1117 0.3584
C5 C 0.4638(9) 0.8637(3) 0.3026(3)
C6 C 0.2314(9) 0.8028(4) 0.2407(4)
H9 H 0.1484 0.8213 0.1891
C7 C 0.1195(9) 0.7150(3) 0.2534(3)
C8 C 0.2283(9) 0.6871(3) 0.3335(3)
C9 C 0.4682(9) 0.7473(4) 0.3948(3)
H10 H 0.5519 0.7296 0.4469
C10 C 0.5770(9) 0.8300(4) 0.3787(4)
C11 C 0.1060(8) 0.6013(3) 0.3537(3)
C12 C -0.1318(9) 0.5427(4) 0.2836(3)
C13 C -0.2237(10) 0.5729(4) 0.2062(4)
H11 H -0.3732 0.5321 0.1601
C14 C -0.2863(10) 0.4475(4) 0.2873(4)
C15 C -0.2428(10) 0.6777(4) 0.1028(4)
H12 H -0.2341 0.7535 0.1229
H13 H -0.4297 0.6488 0.0853
C16 C -0.1147(13) 0.6332(5) 0.0103(4)
H14 H 0.0675 0.6649 0.0255
H15 H -0.2094 0.6480 -0.0444
H16 H -0.1201 0.5583 -0.0097
F1 F 0.8150(5) 0.8827(2) 0.4368(2)
Mg1 Mg 0.0000 0.5000 0.5000
N1 N 0.6945(10) 1.1490(3) 0.2742(4)
H17 H 0.6518 1.2077 0.2725
N2 N 0.5853(8) 0.9511(3) 0.2908(3)
N3 N -0.1186(8) 0.6557(3) 0.1905(3)
O1 O 0.2033(6) 0.5828(3) 0.4305(2)
O2 O -0.2364(6) 0.4254(3) 0.3645(2)
O3 O -0.4641(8) 0.3955(3) 0.2116(3)
O4 O 0.2550(7) 0.3831(3) 0.4608(3)
H20 H 0.241(5) 0.3441(18) 0.4005(5)
H24 H 0.407(2) 0.3970(11) 0.4929(19)
C1A C -0.6643(11) -0.0494(5) 0.8140(4)
H1A H -0.8374 -0.0250 0.8220
H2A H -0.5932 -0.0600 0.8751
C2A C -0.4804(10) 0.0321(4) 0.8010(4)
H3A H -0.3051 0.0090 0.7957
H4A H -0.4622 0.0979 0.8601
C3A C -0.6286(11) -0.0513(4) 0.6193(4)
H5A H -0.7095 -0.0396 0.5599
H6A H -0.4582 -0.0765 0.6068
C4A C -0.8076(12) -0.1339(4) 0.6349(5)
H7A H -0.8267 -0.2000 0.5761
H8A H -0.9833 -0.1117 0.6416
C5A C -0.4638(9) 0.1363(3) 0.6974(3)
C6A C -0.2314(9) 0.1972(4) 0.7593(4)
H9A H -0.1484 0.1787 0.8109
C7A C -0.1195(9) 0.2850(3) 0.7466(3)
C8A C -0.2283(9) 0.3129(3) 0.6665(3)
C9A C -0.4682(9) 0.2527(4) 0.6052(3)
H10A H -0.5519 0.2704 0.5531
C10A C -0.5770(9) 0.1700(4) 0.6213(4)
C11A C -0.1060(8) 0.3987(3) 0.6463(3)
C12A C 0.1318(9) 0.4573(4) 0.7164(3)
C13A C 0.2237(10) 0.4271(4) 0.7938(4)
H11A H 0.3732 0.4679 0.8399
C14A C 0.2863(10) 0.5525(4) 0.7127(4)
C15A C 0.2428(10) 0.3223(4) 0.8972(4)
H12A H 0.2341 0.2465 0.8771
H13A H 0.4297 0.3512 0.9147
C16A C 0.1147(13) 0.3668(5) 0.9897(4)
H14A H -0.0675 0.3351 0.9745
H15A H 0.2094 0.3520 1.0444
H16A H 0.1201 0.4417 1.0097
F1A F -0.8150(5) 0.1173(2) 0.5632(2)
N1A N -0.6945(10) -0.1490(3) 0.7258(4)
H17A H -0.6518 -0.2077 0.7275
N2A N -0.5853(8) 0.0489(3) 0.7092(3)
N3A N 0.1186(8) 0.3443(3) 0.8095(3)
O1A O -0.2033(6) 0.4172(3) 0.5695(2)
O2A O 0.2364(6) 0.5746(3) 0.6355(2)
O3A O 0.4641(8) 0.6045(3) 0.7884(3)
O4A O -0.2550(7) 0.6169(3) 0.5392(3)
H20A H -0.241(5) 0.6559(18) 0.5995(5)
H24A H -0.407(2) 0.6030(11) 0.5071(19)
O5 O 0.2443(8) 0.2500(3) 0.2582(3)
H18 H 0.292(7) 0.302(3) 0.247(5)
H22 H 0.0823(16) 0.237(4) 0.253(5)
O6 O 0.5868(10) 0.2135(4) 0.0401(3)
H21 H 0.660(10) 0.263(3) 0.092(3)
H23 H 0.51(5) 0.166(11) 0.050(5)
O7 O 0.0637(12) 0.1102(5) 0.0279(6)
H19 H 0.027(14) 0.105(5) -0.0312(14)
H25 H -0.008(8) 0.155(3) 0.069(3)
loop_
_geom_bond_atom_site_label_1
_geom_bond_atom_site_label_2
_geom_bond_site_symmetry_1
_geom_bond_site_symmetry_2
C1 H1 1_555 1_555
H2 C1 1_555 1_555
C2 C1 1_555 1_555
H3 C2 1_555 1_555
H4 C2 1_555 1_555
C3 H5 1_555 1_555
H6 C3 1_555 1_555
C4 C3 1_555 1_555
H7 C4 1_555 1_555
H8 C4 1_555 1_555
C5 C6 1_555 1_555
C6 H9 1_555 1_555
C7 C6 1_555 1_555
C8 C7 1_555 1_555
C9 C8 1_555 1_555
H10 C9 1_555 1_555
C10 C5 1_555 1_555
C11 C8 1_555 1_555
C12 C11 1_555 1_555
C13 C12 1_555 1_555
H11 C13 1_555 1_555
C14 C12 1_555 1_555
C15 H12 1_555 1_555
H13 C15 1_555 1_555
C16 C15 1_555 1_555
H14 C16 1_555 1_555
H15 C16 1_555 1_555
H16 C16 1_555 1_555
F1 C10 1_555 1_555
Mg1 O1 1_555 1_555
N1 C1 1_555 1_555
H17 N1 1_555 1_555
N2 C2 1_555 1_555
N3 C7 1_555 1_555
O1 C11 1_555 1_555
O2 C14 1_555 1_555
O3 C14 1_555 1_555
O4 Mg1 1_555 1_555
O5 H18 1_555 1_555
O6 H21 1_555 1_555
O7 H19 1_555 1_555
H20 O4 1_555 1_555
H22 O5 1_555 1_555
H23 O6 1_555 1_555
H24 O4 1_555 1_555
H25 O7 1_555 1_555
C1A H1A 1_555 1_555
H2A C1A 1_555 1_555
C2A C1A 1_555 1_555
H3A C2A 1_555 1_555
H4A C2A 1_555 1_555
C3A H5A 1_555 1_555
H6A C3A 1_555 1_555
C4A C3A 1_555 1_555
H7A C4A 1_555 1_555
H8A C4A 1_555 1_555
C5A C6A 1_555 1_555
C6A H9A 1_555 1_555
C7A C6A 1_555 1_555
C8A C7A 1_555 1_555
C9A C8A 1_555 1_555
H10A C9A 1_555 1_555
C10A C5A 1_555 1_555
C11A C8A 1_555 1_555
C12A C11A 1_555 1_555
C13A C12A 1_555 1_555
H11A C13A 1_555 1_555
C14A C12A 1_555 1_555
C15A H12A 1_555 1_555
H13A C15A 1_555 1_555
C16A C15A 1_555 1_555
H14A C16A 1_555 1_555
H15A C16A 1_555 1_555
H16A C16A 1_555 1_555
F1A C10A 1_555 1_555
N1A C1A 1_555 1_555
H17A N1A 1_555 1_555
N2A C2A 1_555 1_555
N3A C7A 1_555 1_555
O1A Mg1 1_555 1_555
O2A Mg1 1_555 1_555
O3A C14A 1_555 1_555
O4A Mg1 1_555 1_555
H20A O4A 1_555 1_555
H24A O4A 1_555 1_555
C3 N2 1_555 1_555
C4 N1 1_555 1_555
C5 N2 1_555 1_555
C9 C10 1_555 1_555
C13 N3 1_555 1_555
C15 N3 1_555 1_555
Mg1 O2 1_555 1_555
C3A N2A 1_555 1_555
C4A N1A 1_555 1_555
C5A N2A 1_555 1_555
C9A C10A 1_555 1_555
C11A O1A 1_555 1_555
C13A N3A 1_555 1_555
C14A O2A 1_555 1_555
C15A N3A 1_555 1_555

#END
