
#######################################################################
#
#                 Cambridge Crystallographic Data Centre
#                                CCDC 
#
#######################################################################
#
# If this CIF has been generated from an entry in the Cambridge 
# Structural Database, then it will include bibliographic, chemical, 
# crystal, experimental, refinement or atomic coordinate data resulting 
# from the CCDC's data processing and validation procedures.
#
#######################################################################

data_NAKVON
_chemical_formula_moiety         'C88 H96 N16 O8,2(C2 H3 N1)'
_chemical_name_systematic        
'1(1,10)-17(10,1)-bis(3,8-di-t-butyl-11,12-dihydroindolo[2,3-a]carbazola)-2,16,18(1,4)-tris(triazola)-9,25,32(1,3)-tris(benzena)-5,8,10,13,21,24,26,29-octaoxo-cyclodotriacontaphane acetonitrile solvate'
_symmetry_cell_setting           monoclinic
_symmetry_space_group_name_H-M   'P 21/c'
_symmetry_Int_Tables_number      14
_space_group_name_Hall           '-P 2ybc'
loop_
_symmetry_equiv_pos_site_id
_symmetry_equiv_pos_as_xyz
1 x,y,z
2 -x,1/2+y,1/2-z
3 -x,-y,-z
4 x,1/2-y,1/2+z
_cell_length_a                   21.048(4)
_cell_length_b                   11.504(2)
_cell_length_c                   17.527(4)
_cell_angle_alpha                90
_cell_angle_beta                 102.01(3)
_cell_angle_gamma                90
_cell_volume                     4151.03
_exptl_crystal_colour            'light yellow'
_exptl_crystal_description       plate
_cell_formula_units_Z            2
loop_
_atom_site_label
_atom_site_type_symbol
_atom_site_fract_x
_atom_site_fract_y
_atom_site_fract_z
O1 O -0.19789(7) 0.65928(11) 0.64167(8)
O2 O -0.36614(7) 0.67783(12) 0.64607(10)
O3 O 0.46346(7) 0.94814(13) 0.40062(10)
O4 O 0.45392(7) 0.70240(13) 0.38528(9)
N1 N 0.12120(7) 0.93201(12) 0.33277(9)
H1 H 0.1293 0.8787 0.3760
N2 N -0.01328(7) 0.93305(12) 0.39040(9)
H2 H 0.0120 0.8768 0.4222
N3 N -0.08459(7) 0.69457(13) 0.58346(9)
N4 N 0.32214(8) 0.71124(13) 0.41891(9)
N5 N -0.05253(9) 0.65864(15) 0.52887(11)
N6 N -0.05969(9) 0.74008(15) 0.47488(11)
N7 N 0.22225(8) 0.74901(13) 0.37048(10)
N8 N 0.26061(8) 0.67390(14) 0.41417(10)
C1 C 0.51855(10) 0.87275(19) 0.40469(15)
H3 H 0.5578 0.9083 0.4373
H4 H 0.5268 0.8588 0.3519
C2 C 0.50251(10) 0.76087(19) 0.44027(14)
H5 H 0.5418 0.7117 0.4540
H6 H 0.4865 0.7768 0.4885
C3 C 0.42449(11) 0.60786(18) 0.41720(14)
H7 H 0.4589 0.5609 0.4505
H8 H 0.4021 0.5576 0.3741
C4 C -0.51927(12) 0.7825(2) 0.67778(16)
H9 H -0.5550 0.7529 0.6970
C5 C -0.46810(11) 0.7104(2) 0.67376(15)
H10 H -0.4687 0.6312 0.6889
C6 C -0.51990(11) 0.8983(2) 0.65423(15)
H11 H -0.5556 0.9473 0.6573
C7 C -0.25955(10) 1.25675(17) 0.38674(13)
H12 H -0.3030 1.2905 0.3810
H13 H -0.2380 1.2899 0.3473
H14 H -0.2340 1.2743 0.4389
C8 C -0.41524(10) 0.75529(18) 0.64708(13)
C9 C -0.46792(10) 0.94032(18) 0.62639(13)
C10 C -0.25901(10) 0.61976(18) 0.65137(13)
H15 H -0.2564 0.5926 0.7055
H16 H -0.2741 0.5545 0.6153
C11 C -0.30630(9) 1.09822(19) 0.29450(12)
H17 H -0.3485 1.1369 0.2884
H18 H -0.3128 1.0141 0.2887
H19 H -0.2838 1.1267 0.2546
C12 C 0.37621(10) 0.64611(18) 0.46510(13)
H20 H 0.3591 0.5768 0.4875
H21 H 0.3987 0.6952 0.5088
C13 C 0.24593(11) 1.0990(2) 0.05520(12)
H22 H 0.2430 1.0147 0.0470
H23 H 0.2701 1.1337 0.0188
H24 H 0.2021 1.1322 0.0461
C14 C 0.28779(11) 1.25662(17) 0.15032(13)
H25 H 0.3128 1.2734 0.2028
H26 H 0.2445 1.2915 0.1439
H27 H 0.3102 1.2893 0.1115
C15 C -0.30522(10) 0.72114(17) 0.63358(13)
H28 H -0.2900 0.7873 0.6688
H29 H -0.3092 0.7471 0.5789
C16 C -0.08642(10) 0.62080(17) 0.65081(12)
H30 H -0.0752 0.6679 0.6990
H31 H -0.0535 0.5585 0.6540
C17 C -0.41443(10) 0.86989(18) 0.62317(12)
H32 H -0.3783 0.9000 0.6050
C18 C -0.30059(10) 1.07779(17) 0.43739(12)
H33 H -0.3425 1.1173 0.4323
H34 H -0.2741 1.0919 0.4896
H35 H -0.3078 0.9941 0.4296
C19 C -0.15214(9) 0.56710(16) 0.64548(12)
H36 H -0.1634 0.5178 0.5983
H37 H -0.1523 0.5180 0.6918
C20 C 0.32315(9) 0.81055(15) 0.37857(11)
H38 H 0.3601 0.8545 0.3728
C21 C -0.11540(8) 0.92720(15) 0.44312(10)
C22 C 0.34981(10) 1.07373(18) 0.15041(13)
H39 H 0.3734 1.0888 0.2039
H40 H 0.3729 1.1102 0.1135
H41 H 0.3471 0.9897 0.1412
C23 C 0.02372(9) 1.15163(15) 0.21415(11)
H42 H 0.0295 1.2016 0.1730
C24 C -0.03364(9) 1.15365(15) 0.24047(11)
H43 H -0.0674 1.2056 0.2178
C25 C -0.17530(9) 0.98161(15) 0.43651(10)
H44 H -0.2029 0.9567 0.4698
C26 C 0.07393(8) 1.07469(15) 0.24885(10)
C27 C -0.09695(8) 0.82744(15) 0.49492(11)
C28 C -0.11308(9) 0.79827(15) 0.56409(11)
H45 H -0.1388 0.8418 0.5924
C29 C 0.06513(8) 0.99688(15) 0.30776(10)
C30 C -0.26518(9) 1.12492(16) 0.37590(11)
C31 C 0.28119(9) 1.12450(16) 0.13896(11)
C32 C -0.04199(8) 1.07832(15) 0.30118(10)
C33 C 0.17766(9) 1.10936(15) 0.19170(10)
H46 H 0.1597 1.1699 0.1570
C34 C -0.07506(8) 0.96851(15) 0.39521(10)
C35 C 0.25899(9) 0.83427(15) 0.34750(10)
C36 C 0.16689(8) 0.96789(15) 0.29145(10)
C37 C -0.15633(9) 1.10924(15) 0.33512(10)
H47 H -0.1702 1.1691 0.2981
C38 C -0.09493(9) 1.05917(15) 0.34130(10)
C39 C 0.00678(8) 0.99856(15) 0.33395(10)
C40 C 0.24164(9) 1.07296(15) 0.19512(10)
C41 C -0.19715(9) 1.07132(15) 0.38332(11)
C42 C 0.14000(9) 1.05724(15) 0.23903(10)
C43 C 0.26647(9) 0.98450(15) 0.24790(10)
H48 H 0.3101 0.9606 0.2511
C44 C 0.23053(8) 0.92960(15) 0.29604(10)
O1B O 0.19789(7) 1.34072(11) 0.35833(8)
O2B O 0.36614(7) 1.32217(12) 0.35393(10)
O3B O -0.46346(7) 1.05186(13) 0.59938(10)
O4B O -0.45392(7) 1.29760(13) 0.61472(9)
N1B N -0.12120(7) 1.06799(12) 0.66723(9)
H1B H -0.1293 1.1213 0.6240
N2B N 0.01328(7) 1.06695(12) 0.60960(9)
H2B H -0.0120 1.1232 0.5778
N3B N 0.08459(7) 1.30543(13) 0.41654(9)
N4B N -0.32214(8) 1.28876(13) 0.58109(9)
N5B N 0.05253(9) 1.34136(15) 0.47113(11)
N6B N 0.05969(9) 1.25992(15) 0.52512(11)
N7B N -0.22225(8) 1.25099(13) 0.62952(10)
N8B N -0.26061(8) 1.32610(14) 0.58583(10)
C1B C -0.51855(10) 1.12725(19) 0.59531(15)
H3B H -0.5578 1.0917 0.5627
H4B H -0.5268 1.1412 0.6481
C2B C -0.50251(10) 1.23913(19) 0.55973(14)
H5B H -0.5418 1.2883 0.5460
H6B H -0.4865 1.2232 0.5115
C3B C -0.42449(11) 1.39214(18) 0.58280(14)
H7B H -0.4589 1.4391 0.5495
H8B H -0.4021 1.4424 0.6259
C4B C 0.51927(12) 1.2175(2) 0.32222(16)
H9B H 0.5550 1.2471 0.3030
C5B C 0.46810(11) 1.2896(2) 0.32624(15)
H10B H 0.4687 1.3688 0.3111
C6B C 0.51990(11) 1.1017(2) 0.34577(15)
H11B H 0.5556 1.0527 0.3427
C7B C 0.25955(10) 0.74325(17) 0.61326(13)
H12B H 0.3030 0.7095 0.6190
H13B H 0.2380 0.7101 0.6527
H14B H 0.2340 0.7257 0.5611
C8B C 0.41524(10) 1.24471(18) 0.35292(13)
C9B C 0.46792(10) 1.05968(18) 0.37361(13)
C10B C 0.25901(10) 1.38024(18) 0.34863(13)
H15B H 0.2564 1.4074 0.2945
H16B H 0.2741 1.4455 0.3847
C11B C 0.30630(9) 0.90178(19) 0.70550(12)
H17B H 0.3485 0.8631 0.7116
H18B H 0.3128 0.9859 0.7113
H19B H 0.2838 0.8733 0.7454
C12B C -0.37621(10) 1.35389(18) 0.53490(13)
H20B H -0.3591 1.4232 0.5125
H21B H -0.3987 1.3048 0.4912
C13B C -0.24593(11) 0.9010(2) 0.94480(12)
H22B H -0.2430 0.9853 0.9530
H23B H -0.2701 0.8663 0.9812
H24B H -0.2021 0.8678 0.9539
C14B C -0.28779(11) 0.74338(17) 0.84968(13)
H25B H -0.3128 0.7266 0.7972
H26B H -0.2445 0.7085 0.8561
H27B H -0.3102 0.7107 0.8885
C15B C 0.30522(10) 1.27886(17) 0.36642(13)
H28B H 0.2900 1.2127 0.3312
H29B H 0.3092 1.2529 0.4211
C16B C 0.08642(10) 1.37920(17) 0.34919(12)
H30B H 0.0752 1.3321 0.3010
H31B H 0.0535 1.4415 0.3460
C17B C 0.41443(10) 1.13011(18) 0.37683(12)
H32B H 0.3783 1.1000 0.3950
C18B C 0.30059(10) 0.92221(17) 0.56261(12)
H33B H 0.3425 0.8827 0.5677
H34B H 0.2741 0.9081 0.5104
H35B H 0.3078 1.0059 0.5704
C19B C 0.15214(9) 1.43290(16) 0.35452(12)
H36B H 0.1634 1.4822 0.4017
H37B H 0.1523 1.4820 0.3082
C20B C -0.32315(9) 1.18945(15) 0.62143(11)
H38B H -0.3601 1.1455 0.6272
C21B C 0.11540(8) 1.07280(15) 0.55688(10)
C22B C -0.34981(10) 0.92627(18) 0.84959(13)
H39B H -0.3734 0.9112 0.7961
H40B H -0.3729 0.8898 0.8865
H41B H -0.3471 1.0103 0.8588
C23B C -0.02372(9) 0.84837(15) 0.78585(11)
H42B H -0.0295 0.7984 0.8270
C24B C 0.03364(9) 0.84635(15) 0.75953(11)
H43B H 0.0674 0.7944 0.7822
C25B C 0.17530(9) 1.01839(15) 0.56349(10)
H44B H 0.2029 1.0433 0.5302
C26B C -0.07393(8) 0.92531(15) 0.75115(10)
C27B C 0.09695(8) 1.17256(15) 0.50508(11)
C28B C 0.11308(9) 1.20173(15) 0.43591(11)
H45B H 0.1388 1.1582 0.4076
C29B C -0.06513(8) 1.00312(15) 0.69224(10)
C30B C 0.26518(9) 0.87508(16) 0.62410(11)
C31B C -0.28119(9) 0.87550(16) 0.86104(11)
C32B C 0.04199(8) 0.92168(15) 0.69882(10)
C33B C -0.17766(9) 0.89064(15) 0.80830(10)
H46B H -0.1597 0.8301 0.8430
C34B C 0.07506(8) 1.03149(15) 0.60479(10)
C35B C -0.25899(9) 1.16573(15) 0.65250(10)
C36B C -0.16689(8) 1.03211(15) 0.70855(10)
C37B C 0.15633(9) 0.89076(15) 0.66488(10)
H47B H 0.1702 0.8309 0.7019
C38B C 0.09493(9) 0.94083(15) 0.65870(10)
C39B C -0.00678(8) 1.00144(15) 0.66605(10)
C40B C -0.24164(9) 0.92704(15) 0.80488(10)
C41B C 0.19715(9) 0.92868(15) 0.61668(11)
C42B C -0.14000(9) 0.94276(15) 0.76097(10)
C43B C -0.26647(9) 1.01550(15) 0.75210(10)
H48B H -0.3101 1.0394 0.7489
C44B C -0.23053(8) 1.07040(15) 0.70396(10)
N9 N 0.09613(9) 0.75963(17) 0.45702(11)
C45 C 0.09649(10) 0.69399(18) 0.50557(13)
C46 C 0.09730(12) 0.6108(2) 0.56849(16)
H49 H 0.0814 0.6485 0.6111
H50 H 0.1418 0.5832 0.5878
H51 H 0.0692 0.5447 0.5489
loop_
_geom_bond_atom_site_label_1
_geom_bond_atom_site_label_2
_geom_bond_site_symmetry_1
_geom_bond_site_symmetry_2
O1 C10 1_555 1_555
O2 C8 1_555 1_555
O3 C1 1_555 1_555
O4 C2 1_555 1_555
N1 H1 1_555 1_555
N2 H2 1_555 1_555
N3 N5 1_555 1_555
N4 N8 1_555 1_555
N5 N6 1_555 1_555
N6 C27 1_555 1_555
N7 N8 1_555 1_555
C1 H3 1_555 1_555
H4 C1 1_555 1_555
C2 C1 1_555 1_555
H5 C2 1_555 1_555
H6 C2 1_555 1_555
C3 O4 1_555 1_555
H7 C3 1_555 1_555
H8 C3 1_555 1_555
C4 H9 1_555 1_555
C5 C4 1_555 1_555
H10 C5 1_555 1_555
C6 C4 1_555 1_555
H11 C6 1_555 1_555
C7 H12 1_555 1_555
H13 C7 1_555 1_555
H14 C7 1_555 1_555
C8 C5 1_555 1_555
C9 C6 1_555 1_555
C10 H15 1_555 1_555
H16 C10 1_555 1_555
C11 H17 1_555 1_555
H18 C11 1_555 1_555
H19 C11 1_555 1_555
C12 N4 1_555 1_555
H20 C12 1_555 1_555
H21 C12 1_555 1_555
C13 H22 1_555 1_555
H23 C13 1_555 1_555
H24 C13 1_555 1_555
C14 H25 1_555 1_555
H26 C14 1_555 1_555
H27 C14 1_555 1_555
C15 O2 1_555 1_555
H28 C15 1_555 1_555
H29 C15 1_555 1_555
C16 N3 1_555 1_555
H30 C16 1_555 1_555
H31 C16 1_555 1_555
C17 C8 1_555 1_555
H32 C17 1_555 1_555
C18 H33 1_555 1_555
H34 C18 1_555 1_555
H35 C18 1_555 1_555
C19 O1 1_555 1_555
H36 C19 1_555 1_555
H37 C19 1_555 1_555
C20 N4 1_555 1_555
H38 C20 1_555 1_555
C21 C25 1_555 1_555
C22 H39 1_555 1_555
H40 C22 1_555 1_555
H41 C22 1_555 1_555
C23 H42 1_555 1_555
C24 C23 1_555 1_555
H43 C24 1_555 1_555
C25 H44 1_555 1_555
C26 C23 1_555 1_555
C27 C21 1_555 1_555
C28 N3 1_555 1_555
H45 C28 1_555 1_555
C29 N1 1_555 1_555
C30 C7 1_555 1_555
C31 C13 1_555 1_555
C32 C24 1_555 1_555
C33 H46 1_555 1_555
C34 N2 1_555 1_555
C35 N7 1_555 1_555
C36 N1 1_555 1_555
C37 H47 1_555 1_555
C38 C32 1_555 1_555
C39 N2 1_555 1_555
C40 C31 1_555 1_555
C41 C25 1_555 1_555
C42 C26 1_555 1_555
C43 C40 1_555 1_555
H48 C43 1_555 1_555
C44 C35 1_555 1_555
N9 C45 1_555 1_555
C45 C46 1_555 1_555
C46 H49 1_555 1_555
H50 C46 1_555 1_555
H51 C46 1_555 1_555
O1B C10B 1_555 1_555
O2B C8B 1_555 1_555
O3B C9 1_555 1_555
O4B C2B 1_555 1_555
N1B H1B 1_555 1_555
N2B H2B 1_555 1_555
N3B N5B 1_555 1_555
N4B N8B 1_555 1_555
N5B N6B 1_555 1_555
N6B C27B 1_555 1_555
N7B N8B 1_555 1_555
C1B O3B 1_555 1_555
H3B C1B 1_555 1_555
H4B C1B 1_555 1_555
C2B C1B 1_555 1_555
H5B C2B 1_555 1_555
H6B C2B 1_555 1_555
C3B O4B 1_555 1_555
H7B C3B 1_555 1_555
H8B C3B 1_555 1_555
C4B H9B 1_555 1_555
C5B C4B 1_555 1_555
H10B C5B 1_555 1_555
C6B C4B 1_555 1_555
H11B C6B 1_555 1_555
C7B H12B 1_555 1_555
H13B C7B 1_555 1_555
H14B C7B 1_555 1_555
C8B C5B 1_555 1_555
C9B O3 1_555 1_555
C10B H15B 1_555 1_555
H16B C10B 1_555 1_555
C11B H17B 1_555 1_555
H18B C11B 1_555 1_555
H19B C11B 1_555 1_555
C12B N4B 1_555 1_555
H20B C12B 1_555 1_555
H21B C12B 1_555 1_555
C13B H22B 1_555 1_555
H23B C13B 1_555 1_555
H24B C13B 1_555 1_555
C14B H25B 1_555 1_555
H26B C14B 1_555 1_555
H27B C14B 1_555 1_555
C15B O2B 1_555 1_555
H28B C15B 1_555 1_555
H29B C15B 1_555 1_555
C16B N3B 1_555 1_555
H30B C16B 1_555 1_555
H31B C16B 1_555 1_555
C17B C8B 1_555 1_555
H32B C17B 1_555 1_555
C18B H33B 1_555 1_555
H34B C18B 1_555 1_555
H35B C18B 1_555 1_555
C19B O1B 1_555 1_555
H36B C19B 1_555 1_555
H37B C19B 1_555 1_555
C20B N4B 1_555 1_555
H38B C20B 1_555 1_555
C21B C25B 1_555 1_555
C22B H39B 1_555 1_555
H40B C22B 1_555 1_555
H41B C22B 1_555 1_555
C23B H42B 1_555 1_555
C24B C23B 1_555 1_555
H43B C24B 1_555 1_555
C25B H44B 1_555 1_555
C26B C23B 1_555 1_555
C27B C21B 1_555 1_555
C28B N3B 1_555 1_555
H45B C28B 1_555 1_555
C29B N1B 1_555 1_555
C30B C7B 1_555 1_555
C31B C13B 1_555 1_555
C32B C24B 1_555 1_555
C33B H46B 1_555 1_555
C34B N2B 1_555 1_555
C35B N7B 1_555 1_555
C36B N1B 1_555 1_555
C37B H47B 1_555 1_555
C38B C32B 1_555 1_555
C39B N2B 1_555 1_555
C40B C31B 1_555 1_555
C41B C25B 1_555 1_555
C42B C26B 1_555 1_555
C43B C40B 1_555 1_555
H48B C43B 1_555 1_555
C44B C35B 1_555 1_555
C3 C12 1_555 1_555
C9 C17 1_555 1_555
C10 C15 1_555 1_555
C11 C30 1_555 1_555
C14 C31 1_555 1_555
C16 C19 1_555 1_555
C18 C30 1_555 1_555
C20 C35 1_555 1_555
C21 C34 1_555 1_555
C22 C31 1_555 1_555
C26 C29 1_555 1_555
C27 C28 1_555 1_555
C29 C39 1_555 1_555
C30 C41 1_555 1_555
C32 C39 1_555 1_555
C33 C40 1_555 1_555
C33 C42 1_555 1_555
C34 C38 1_555 1_555
C36 C42 1_555 1_555
C36 C44 1_555 1_555
C37 C38 1_555 1_555
C37 C41 1_555 1_555
C43 C44 1_555 1_555
C3B C12B 1_555 1_555
C6B C9B 1_555 1_555
C9B C17B 1_555 1_555
C10B C15B 1_555 1_555
C11B C30B 1_555 1_555
C14B C31B 1_555 1_555
C16B C19B 1_555 1_555
C18B C30B 1_555 1_555
C20B C35B 1_555 1_555
C21B C34B 1_555 1_555
C22B C31B 1_555 1_555
C26B C29B 1_555 1_555
C27B C28B 1_555 1_555
C29B C39B 1_555 1_555
C30B C41B 1_555 1_555
C32B C39B 1_555 1_555
C33B C40B 1_555 1_555
C33B C42B 1_555 1_555
C34B C38B 1_555 1_555
C36B C42B 1_555 1_555
C36B C44B 1_555 1_555
C37B C38B 1_555 1_555
C37B C41B 1_555 1_555
C43B C44B 1_555 1_555

#END
