
#######################################################################
#
#                 Cambridge Crystallographic Data Centre
#                                CCDC 
#
#######################################################################
#
# If this CIF has been generated from an entry in the Cambridge 
# Structural Database, then it will include bibliographic, chemical, 
# crystal, experimental, refinement or atomic coordinate data resulting 
# from the CCDC's data processing and validation procedures.
#
#######################################################################

data_NALSAV
_chemical_formula_moiety         'C18 H34 N2 2+,2(I1 1-),2(H2 O1)'
_chemical_name_systematic        
"Decahydrodispiro(piperidine-1,1'-(1',5')naphthyridine-5',1''-piperidine-1',4'-diium) di-iodide dihydrate"
_symmetry_cell_setting           orthorhombic
_symmetry_space_group_name_H-M   'P b c a'
_symmetry_Int_Tables_number      61
_space_group_name_Hall           '-P 2ac 2ab'
loop_
_symmetry_equiv_pos_site_id
_symmetry_equiv_pos_as_xyz
1 x,y,z
2 1/2-x,-y,1/2+z
3 -x,1/2+y,1/2-z
4 1/2+x,1/2-y,-z
5 -x,-y,-z
6 1/2+x,y,1/2-z
7 x,1/2-y,1/2+z
8 1/2-x,1/2+y,z
_cell_length_a                   13.6686(6)
_cell_length_b                   13.3197(6)
_cell_length_c                   23.9124(11)
_cell_angle_alpha                90
_cell_angle_beta                 90
_cell_angle_gamma                90
_cell_volume                     4353.53
_exptl_crystal_colour            colorless
_exptl_crystal_description       blade
_cell_formula_units_Z            8
loop_
_atom_site_label
_atom_site_type_symbol
_atom_site_fract_x
_atom_site_fract_y
_atom_site_fract_z
I1 I 0.794861(18) 0.868294(17) 0.296432(9)
I2 I 0.70679(2) 0.57570(2) 0.074229(10)
N1 N 0.8113(2) 0.1523(2) 0.42422(12)
N2 N 1.0175(2) 0.1820(2) 0.31493(12)
C1 C 0.7365(3) 0.1009(3) 0.38649(14)
H1 H 0.7095 0.1508 0.3600
H2 H 0.7697 0.0481 0.3644
C2 C 0.6535(3) 0.0543(3) 0.41912(15)
H3 H 0.6797 0.0018 0.4443
H4 H 0.6072 0.0220 0.3929
C3 C 0.5997(3) 0.1328(3) 0.45351(17)
H5 H 0.5670 0.1813 0.4283
H6 H 0.5489 0.1000 0.4767
C4 C 0.6717(3) 0.1875(3) 0.49082(16)
H7 H 0.6373 0.2423 0.5107
H8 H 0.6972 0.1403 0.5193
C5 C 0.7564(3) 0.2311(3) 0.45832(15)
H9 H 0.8025 0.2633 0.4847
H10 H 0.7315 0.2837 0.4328
C6 C 0.8615(3) 0.0788(3) 0.46312(14)
H11 H 0.8114 0.0424 0.4851
H12 H 0.9034 0.1163 0.4896
C7 C 0.9234(3) 0.0037(3) 0.43147(14)
H13 H 0.8802 -0.0386 0.4080
H14 H 0.9568 -0.0407 0.4586
C8 C 1.0002(3) 0.0536(3) 0.39409(15)
H15 H 1.0486 0.0898 0.4173
H16 H 1.0351 0.0021 0.3719
C9 C 0.9481(3) 0.1271(3) 0.35514(14)
H17 H 0.9017 0.0871 0.3317
C10 C 0.8866(3) 0.2063(3) 0.38724(14)
H18 H 0.8495 0.2462 0.3588
C11 C 0.9512(3) 0.2796(3) 0.41971(15)
H19 H 0.9100 0.3299 0.4390
H20 H 0.9895 0.2429 0.4483
C12 C 1.0199(3) 0.3318(3) 0.37897(15)
H21 H 0.9811 0.3731 0.3527
H22 H 1.0639 0.3772 0.4000
C13 C 1.0808(3) 0.2573(3) 0.34607(15)
H23 H 1.1248 0.2210 0.3720
H24 H 1.1220 0.2942 0.3189
C14 C 1.0887(3) 0.1099(3) 0.28597(15)
H25 H 1.1355 0.1493 0.2632
H26 H 1.1265 0.0732 0.3148
C15 C 1.0372(3) 0.0351(3) 0.24877(15)
H27 H 0.9939 -0.0077 0.2718
H28 H 1.0864 -0.0088 0.2307
C16 C 0.9766(3) 0.0876(3) 0.20380(15)
H29 H 1.0208 0.1225 0.1774
H30 H 0.9387 0.0370 0.1825
C17 C 0.9071(3) 0.1629(3) 0.23015(15)
H31 H 0.8564 0.1265 0.2516
H32 H 0.8739 0.2014 0.2002
C18 C 0.9602(3) 0.2356(3) 0.26894(14)
H33 H 0.9118 0.2811 0.2864
H34 H 1.0059 0.2771 0.2466
O1 O 0.5771(3) 0.8044(3) 0.08159(14)
H35 H 0.6260 0.8476 0.1027
H36 H 0.6144 0.7334 0.0774
O2 O 0.6912(3) 0.8978(3) 0.16087(14)
H37 H 0.7148 0.8924 0.2027
H38 H 0.7478 0.9412 0.1402
loop_
_geom_bond_atom_site_label_1
_geom_bond_atom_site_label_2
_geom_bond_site_symmetry_1
_geom_bond_site_symmetry_2
N1 C1 1_555 1_555
N2 C9 1_555 1_555
C1 H1 1_555 1_555
H2 C1 1_555 1_555
C2 C1 1_555 1_555
H3 C2 1_555 1_555
H4 C2 1_555 1_555
C3 C2 1_555 1_555
H5 C3 1_555 1_555
H6 C3 1_555 1_555
C4 C3 1_555 1_555
H7 C4 1_555 1_555
H8 C4 1_555 1_555
C5 N1 1_555 1_555
H9 C5 1_555 1_555
H10 C5 1_555 1_555
C6 N1 1_555 1_555
H11 C6 1_555 1_555
H12 C6 1_555 1_555
C7 C6 1_555 1_555
H13 C7 1_555 1_555
H14 C7 1_555 1_555
C8 C7 1_555 1_555
H15 C8 1_555 1_555
H16 C8 1_555 1_555
C9 C8 1_555 1_555
H17 C9 1_555 1_555
C10 N1 1_555 1_555
H18 C10 1_555 1_555
C11 C10 1_555 1_555
H19 C11 1_555 1_555
H20 C11 1_555 1_555
C12 C11 1_555 1_555
H21 C12 1_555 1_555
H22 C12 1_555 1_555
C13 N2 1_555 1_555
H23 C13 1_555 1_555
H24 C13 1_555 1_555
C14 N2 1_555 1_555
H25 C14 1_555 1_555
H26 C14 1_555 1_555
C15 C14 1_555 1_555
H27 C15 1_555 1_555
H28 C15 1_555 1_555
C16 C15 1_555 1_555
H29 C16 1_555 1_555
H30 C16 1_555 1_555
C17 C16 1_555 1_555
H31 C17 1_555 1_555
H32 C17 1_555 1_555
C18 N2 1_555 1_555
H33 C18 1_555 1_555
H34 C18 1_555 1_555
O1 H35 1_555 1_555
H36 O1 1_555 1_555
O2 H37 1_555 1_555
H38 O2 1_555 1_555
C4 C5 1_555 1_555
C9 C10 1_555 1_555
C12 C13 1_555 1_555
C17 C18 1_555 1_555

#END
