
#######################################################################
#
#                 Cambridge Crystallographic Data Centre
#                                CCDC 
#
#######################################################################
#
# If this CIF has been generated from an entry in the Cambridge 
# Structural Database, then it will include bibliographic, chemical, 
# crystal, experimental, refinement or atomic coordinate data resulting 
# from the CCDC's data processing and validation procedures.
#
#######################################################################

data_NAMJUH
_chemical_formula_moiety         'C16 H24 N2 O4'
_chemical_name_systematic        2,5-bis(Morpholinomethyl)hydroquinone
_symmetry_cell_setting           orthorhombic
_symmetry_space_group_name_H-M   'P b c a'
_symmetry_Int_Tables_number      61
_space_group_name_Hall           '-P 2ac 2ab'
loop_
_symmetry_equiv_pos_site_id
_symmetry_equiv_pos_as_xyz
1 x,y,z
2 1/2-x,-y,1/2+z
3 -x,1/2+y,1/2-z
4 1/2+x,1/2-y,-z
5 -x,-y,-z
6 1/2+x,y,1/2-z
7 x,1/2-y,1/2+z
8 1/2-x,1/2+y,z
_cell_length_a                   10.479(4)
_cell_length_b                   10.298(4)
_cell_length_c                   14.865(5)
_cell_angle_alpha                90
_cell_angle_beta                 90
_cell_angle_gamma                90
_cell_volume                     1604.12
_exptl_crystal_colour            colorless
_exptl_crystal_description       flakes
_chemical_melting_point          '207-209 deg.C'
_cell_formula_units_Z            4
loop_
_atom_site_label
_atom_site_type_symbol
_atom_site_fract_x
_atom_site_fract_y
_atom_site_fract_z
O1 O 0.6963(2) 0.5022(2) 0.70094(12)
O2 O 0.60394(19) 0.23269(16) 0.44439(12)
H1 H 0.5977 0.2876 0.4841
N1 N 0.53399(18) 0.32935(18) 0.60498(13)
C1 C 0.6280(3) 0.2832(3) 0.67016(19)
H2 H 0.6590 0.1982 0.6524
H3 H 0.5887 0.2753 0.7290
C2 C 0.7377(3) 0.3773(3) 0.6747(2)
H4 H 0.8004 0.3458 0.7174
H5 H 0.7783 0.3826 0.6162
C3 C 0.6044(3) 0.5476(3) 0.6387(2)
H6 H 0.6437 0.5555 0.5799
H7 H 0.5759 0.6333 0.6569
C4 C 0.4908(3) 0.4589(2) 0.63192(19)
H8 H 0.4477 0.4541 0.6896
H9 H 0.4310 0.4924 0.5879
C5 C 0.4282(2) 0.2373(2) 0.59473(18)
H10 H 0.3601 0.2784 0.5609
H11 H 0.3950 0.2154 0.6537
C6 C 0.4687(2) 0.1138(2) 0.54692(16)
C7 C 0.5514(2) 0.1178(2) 0.47370(16)
C8 C 0.4183(2) -0.0052(2) 0.57227(16)
H12 H 0.3630 -0.0094 0.6211
O1D O 0.3037(2) -0.5022(2) 0.29906(12)
O2D O 0.39606(19) -0.23269(16) 0.55561(12)
H1D H 0.4023 -0.2876 0.5159
N1D N 0.46601(18) -0.32935(18) 0.39502(13)
C1D C 0.3720(3) -0.2832(3) 0.32984(19)
H2D H 0.3410 -0.1982 0.3476
H3D H 0.4113 -0.2753 0.2710
C2D C 0.2623(3) -0.3773(3) 0.3253(2)
H4D H 0.1996 -0.3458 0.2826
H5D H 0.2217 -0.3826 0.3838
C3D C 0.3956(3) -0.5476(3) 0.3613(2)
H6D H 0.3563 -0.5555 0.4201
H7D H 0.4241 -0.6333 0.3431
C4D C 0.5092(3) -0.4589(2) 0.36808(19)
H8D H 0.5523 -0.4541 0.3104
H9D H 0.5690 -0.4924 0.4121
C5D C 0.5718(2) -0.2373(2) 0.40527(18)
H10D H 0.6399 -0.2784 0.4391
H11D H 0.6050 -0.2154 0.3463
C6D C 0.5313(2) -0.1138(2) 0.45308(16)
C7D C 0.4486(2) -0.1178(2) 0.52630(16)
C8D C 0.5817(2) 0.0052(2) 0.42773(16)
H12D H 0.6370 0.0094 0.3789
loop_
_geom_bond_atom_site_label_1
_geom_bond_atom_site_label_2
_geom_bond_site_symmetry_1
_geom_bond_site_symmetry_2
O1 C2 1_555 1_555
O2 H1 1_555 1_555
N1 C1 1_555 1_555
C1 H2 1_555 1_555
H3 C1 1_555 1_555
C2 C1 1_555 1_555
H4 C2 1_555 1_555
H5 C2 1_555 1_555
C3 O1 1_555 1_555
H6 C3 1_555 1_555
H7 C3 1_555 1_555
C4 N1 1_555 1_555
H8 C4 1_555 1_555
H9 C4 1_555 1_555
C5 N1 1_555 1_555
H10 C5 1_555 1_555
H11 C5 1_555 1_555
C6 C5 1_555 1_555
C7 O2 1_555 1_555
C8 C6 1_555 1_555
H12 C8 1_555 1_555
O1D C2D 1_555 1_555
O2D H1D 1_555 1_555
N1D C1D 1_555 1_555
C1D H2D 1_555 1_555
H3D C1D 1_555 1_555
C2D C1D 1_555 1_555
H4D C2D 1_555 1_555
H5D C2D 1_555 1_555
C3D O1D 1_555 1_555
H6D C3D 1_555 1_555
H7D C3D 1_555 1_555
C4D N1D 1_555 1_555
H8D C4D 1_555 1_555
H9D C4D 1_555 1_555
C5D N1D 1_555 1_555
H10D C5D 1_555 1_555
H11D C5D 1_555 1_555
C6D C5D 1_555 1_555
C7D C8 1_555 1_555
C8D C7 1_555 1_555
H12D C8D 1_555 1_555
C3 C4 1_555 1_555
C6 C7 1_555 1_555
O2D C7D 1_555 1_555
C3D C4D 1_555 1_555
C6D C7D 1_555 1_555
C6D C8D 1_555 1_555

#END
