
#######################################################################
#
#                 Cambridge Crystallographic Data Centre
#                                CCDC 
#
#######################################################################
#
# If this CIF has been generated from an entry in the Cambridge 
# Structural Database, then it will include bibliographic, chemical, 
# crystal, experimental, refinement or atomic coordinate data resulting 
# from the CCDC's data processing and validation procedures.
#
#######################################################################

data_NAMTAZ
_chemical_name_common            
'2-[4-N,N-diphenylaminostyryl]-beta-naphthothiazolium propylsulfonate methanol solvate'
_chemical_formula_moiety         'C34 H28 N2 O3 S2,C1 H4 O1'
_chemical_name_systematic        
'3-(2-(2-(4-(diphenylamino)phenyl)vinyl)naphtho[1,2-d][1,3]thiazol-1-ium-1-yl)propane-1-sulfonate methanol solvate'
_symmetry_cell_setting           triclinic
_symmetry_space_group_name_H-M   'P -1'
_symmetry_Int_Tables_number      2
_space_group_name_Hall           '-P 1'
loop_
_symmetry_equiv_pos_site_id
_symmetry_equiv_pos_as_xyz
1 x,y,z
2 -x,-y,-z
_cell_length_a                   9.457(10)
_cell_length_b                   10.750(11)
_cell_length_c                   15.728(16)
_cell_angle_alpha                76.123(19)
_cell_angle_beta                 81.025(16)
_cell_angle_gamma                72.653(16)
_cell_volume                     1475.51
_exptl_crystal_colour            red
_exptl_crystal_description       platelet
_cell_formula_units_Z            2
loop_
_atom_site_label
_atom_site_type_symbol
_atom_site_fract_x
_atom_site_fract_y
_atom_site_fract_z
C1 C 0.0831(3) 0.6253(3) 0.10229(18)
C2 C 0.0214(4) 0.6571(3) 0.0240(2)
H1 H 0.0766 0.6793 -0.0289
C3 C -0.1241(4) 0.6555(4) 0.0250(3)
H2 H -0.1677 0.6773 -0.0276
C4 C -0.2030(4) 0.6226(4) 0.1012(3)
H3 H -0.3010 0.6217 0.1010
C5 C -0.1428(4) 0.5912(4) 0.1777(3)
H4 H -0.1989 0.5682 0.2301
C6 C 0.0011(3) 0.5927(3) 0.1795(2)
H5 H 0.0425 0.5718 0.2328
C7 C 0.2684(3) 0.7480(3) 0.05595(18)
C8 C 0.1762(4) 0.8695(3) 0.0618(2)
H6 H 0.0861 0.8760 0.0964
C9 C 0.2136(4) 0.9829(4) 0.0175(3)
H7 H 0.1487 1.0658 0.0219
C10 C 0.3447(5) 0.9749(4) -0.0325(2)
H8 H 0.3716 1.0516 -0.0619
C11 C 0.4363(4) 0.8529(4) -0.0389(2)
H9 H 0.5262 0.8466 -0.0736
C12 C 0.3996(3) 0.7395(3) 0.0043(2)
H10 H 0.4635 0.6567 -0.0013
C13 C 0.3246(3) 0.5343(3) 0.16008(17)
C14 C 0.3262(3) 0.4020(3) 0.17653(19)
H11 H 0.2654 0.3757 0.1472
C15 C 0.4158(3) 0.3088(3) 0.23527(19)
H12 H 0.4162 0.2200 0.2443
C16 C 0.5053(3) 0.3438(3) 0.28133(17)
C17 C 0.5046(3) 0.4766(3) 0.26357(17)
H13 H 0.5649 0.5029 0.2933
C18 C 0.4181(3) 0.5698(3) 0.20380(18)
H14 H 0.4218 0.6578 0.1923
C19 C 0.5857(3) 0.2436(3) 0.34855(17)
H15 H 0.5872 0.1561 0.3504
C20 C 0.6579(3) 0.2626(3) 0.40805(18)
H16 H 0.6632 0.3479 0.4070
C21 C 0.7278(3) 0.1534(3) 0.47399(17)
C22 C 0.8666(3) 0.0417(3) 0.58979(16)
C23 C 0.8172(3) -0.0576(3) 0.57381(17)
C24 C 0.8537(3) -0.1885(3) 0.62154(18)
H17 H 0.8180 -0.2531 0.6089
C25 C 0.9422(4) -0.2174(3) 0.68636(19)
H18 H 0.9700 -0.3045 0.7181
C26 C 0.9942(3) -0.1211(3) 0.70767(17)
C27 C 0.9565(3) 0.0144(3) 0.66041(16)
C28 C 1.0115(3) 0.1050(3) 0.68682(19)
H19 H 0.9865 0.1942 0.6587
C29 C 1.1015(4) 0.0628(4) 0.7536(2)
H20 H 1.1389 0.1240 0.7694
C30 C 1.1390(4) -0.0686(4) 0.7988(2)
H21 H 1.2004 -0.0949 0.8443
C31 C 1.0857(4) -0.1571(3) 0.7759(2)
H22 H 1.1105 -0.2450 0.8065
C32 C 0.8576(3) 0.2878(3) 0.51920(17)
H23 H 0.9545 0.2681 0.5402
H24 H 0.8639 0.3304 0.4575
C33 C 0.7460(3) 0.3795(3) 0.56948(19)
H25 H 0.7497 0.3414 0.6319
H26 H 0.6474 0.3883 0.5544
C34 C 0.7720(3) 0.5168(3) 0.55111(19)
H27 H 0.8709 0.5066 0.5664
H28 H 0.7015 0.5688 0.5897
N1 N 0.2305(2) 0.6300(2) 0.10182(16)
N2 N 0.8156(2) 0.1615(2) 0.52937(14)
S1 S 0.70677(8) -0.00053(7) 0.48859(5)
S2 S 0.75604(9) 0.60787(7) 0.44187(5)
O1 O 0.7402(4) 0.7428(3) 0.4459(2)
O2 O 0.6314(3) 0.5888(2) 0.41244(17)
O3 O 0.8903(3) 0.5519(3) 0.39282(16)
O4 O 0.5251(4) 0.9364(4) 0.3330(3)
H29 H 0.5802 0.8417 0.3754
C35 C 0.4854(6) 0.8844(5) 0.2725(3)
H30 H 0.4406 0.8145 0.3021
H31 H 0.5721 0.8491 0.2358
H32 H 0.4154 0.9530 0.2369
loop_
_geom_bond_atom_site_label_1
_geom_bond_atom_site_label_2
_geom_bond_site_symmetry_1
_geom_bond_site_symmetry_2
C1 C2 1_555 1_555
C2 H1 1_555 1_555
C3 C2 1_555 1_555
H2 C3 1_555 1_555
C4 C3 1_555 1_555
H3 C4 1_555 1_555
C5 C4 1_555 1_555
H4 C5 1_555 1_555
C6 C1 1_555 1_555
H5 C6 1_555 1_555
C7 C8 1_555 1_555
C8 H6 1_555 1_555
C9 C8 1_555 1_555
H7 C9 1_555 1_555
C10 C9 1_555 1_555
H8 C10 1_555 1_555
C11 C10 1_555 1_555
H9 C11 1_555 1_555
C12 C7 1_555 1_555
H10 C12 1_555 1_555
C13 C14 1_555 1_555
C14 H11 1_555 1_555
C15 C14 1_555 1_555
H12 C15 1_555 1_555
C16 C15 1_555 1_555
C17 C16 1_555 1_555
H13 C17 1_555 1_555
C18 C13 1_555 1_555
H14 C18 1_555 1_555
C19 C16 1_555 1_555
H15 C19 1_555 1_555
C20 C19 1_555 1_555
H16 C20 1_555 1_555
C21 C20 1_555 1_555
C22 C23 1_555 1_555
C23 C24 1_555 1_555
C24 H17 1_555 1_555
C25 C24 1_555 1_555
H18 C25 1_555 1_555
C26 C25 1_555 1_555
C27 C22 1_555 1_555
C28 C27 1_555 1_555
H19 C28 1_555 1_555
C29 C28 1_555 1_555
H20 C29 1_555 1_555
C30 C29 1_555 1_555
H21 C30 1_555 1_555
C31 C26 1_555 1_555
H22 C31 1_555 1_555
C32 H23 1_555 1_555
H24 C32 1_555 1_555
C33 C32 1_555 1_555
H25 C33 1_555 1_555
H26 C33 1_555 1_555
C34 C33 1_555 1_555
H27 C34 1_555 1_555
H28 C34 1_555 1_555
N1 C1 1_555 1_555
N2 C21 1_555 1_555
S1 C21 1_555 1_555
S2 C34 1_555 1_555
O1 S2 1_555 1_555
O2 S2 1_555 1_555
O3 S2 1_555 1_555
O4 H29 1_555 1_555
C35 O4 1_555 1_555
H30 C35 1_555 1_555
H31 C35 1_555 1_555
H32 C35 1_555 1_555
C5 C6 1_555 1_555
C7 N1 1_555 1_555
C11 C12 1_555 1_555
C13 N1 1_555 1_555
C17 C18 1_555 1_555
C22 N2 1_555 1_555
C23 S1 1_555 1_555
C26 C27 1_555 1_555
C30 C31 1_555 1_555
C32 N2 1_555 1_555

#END
