
#######################################################################
#
#                 Cambridge Crystallographic Data Centre
#                                CCDC 
#
#######################################################################
#
# If this CIF has been generated from an entry in the Cambridge 
# Structural Database, then it will include bibliographic, chemical, 
# crystal, experimental, refinement or atomic coordinate data resulting 
# from the CCDC's data processing and validation procedures.
#
#######################################################################

data_NANHUF
_chemical_formula_moiety         'C25 H21 N1 O5'
_chemical_name_systematic        
"((2'R,4'S)-3'-Benzoyl-4'-benzyl-5'-oxo-2'-phenyloxazolidin-4'-yl)acetic acid"
_symmetry_cell_setting           orthorhombic
_symmetry_space_group_name_H-M   'P 21 21 21'
_symmetry_Int_Tables_number      19
_space_group_name_Hall           'P 2ac 2ab'
loop_
_symmetry_equiv_pos_site_id
_symmetry_equiv_pos_as_xyz
1 x,y,z
2 1/2-x,-y,1/2+z
3 1/2+x,1/2-y,-z
4 -x,1/2+y,1/2-z
_cell_length_a                   6.8350(10)
_cell_length_b                   16.178(2)
_cell_length_c                   19.308(2)
_cell_angle_alpha                90
_cell_angle_beta                 90
_cell_angle_gamma                90
_cell_volume                     2135.01
_exptl_crystal_colour            colorless
_exptl_crystal_description       'long needles'
_chemical_melting_point          207.5-211deg.C
_cell_formula_units_Z            4
loop_
_atom_site_label
_atom_site_type_symbol
_atom_site_fract_x
_atom_site_fract_y
_atom_site_fract_z
O1 O -0.7499(5) -0.0700(2) -0.1178(2)
O2 O -0.6590(5) -0.1393(2) -0.2126(2)
O3 O -0.1578(5) -0.0801(2) -0.0163(2)
O4 O -0.6530(5) -0.2329(2) -0.0450(2)
O5 O -0.4510(5) -0.3364(2) -0.0728(2)
N1 N -0.4639(5) -0.0694(2) -0.0574(2)
C1 C -0.6740(7) -0.0495(3) -0.0508(2)
C2 C -0.4214(7) -0.1154(3) -0.1216(2)
C3 C -0.6193(7) -0.1118(3) -0.1567(3)
C4 C -0.2663(7) -0.0749(3) -0.1688(2)
C5 C -0.3312(8) -0.0603(3) -0.0066(2)
C6 C -0.3617(7) -0.2051(3) -0.1097(2)
C7 C -0.5070(7) -0.2578(3) -0.0722(2)
C8 C -0.7223(7) 0.0394(3) -0.0352(2)
C9 C -0.6731(7) 0.1013(3) -0.0811(3)
C10 C -0.7200(7) 0.1823(3) -0.0667(3)
C11 C -0.8148(8) 0.2010(3) -0.0061(3)
C12 C -0.8641(8) 0.1403(3) 0.0402(3)
C13 C -0.8177(7) 0.0585(3) 0.0249(3)
C14 C -0.2873(7) 0.0160(3) -0.1822(2)
C15 C -0.3994(8) 0.0440(3) -0.2368(3)
C16 C -0.4152(9) 0.1279(4) -0.2496(3)
C17 C -0.3210(9) 0.1842(3) -0.2075(3)
C18 C -0.2089(8) 0.1561(3) -0.1536(3)
C19 C -0.1922(8) 0.0729(3) -0.1405(3)
C20 C -0.3999(7) -0.0291(3) 0.0610(2)
C21 C -0.5040(7) -0.0789(4) 0.1051(2)
C22 C -0.5666(8) -0.0492(4) 0.1683(3)
C23 C -0.5304(8) 0.0313(5) 0.1864(3)
C24 C -0.4267(9) 0.0802(4) 0.1428(3)
C25 C -0.3568(8) 0.0515(3) 0.0802(3)
H1 H -0.5192(5) -0.3635(2) -0.0438(2)
H2 H -0.7323(7) -0.0844(3) -0.0163(2)
H3 H -0.2660(7) -0.1032(3) -0.2125(2)
H4 H -0.1409(7) -0.0838(3) -0.1477(2)
H5 H -0.3348(7) -0.2302(3) -0.1538(2)
H6 H -0.2424(7) -0.2055(3) -0.0835(2)
H7 H -0.6074(7) 0.0875(3) -0.1235(3)
H8 H -0.6885(7) 0.2256(3) -0.0989(3)
H9 H -0.8458(8) 0.2574(3) 0.0046(3)
H10 H -0.9294(8) 0.1545(3) 0.0826(3)
H11 H -0.8522(7) 0.0154(3) 0.0569(3)
H12 H -0.4678(8) 0.0049(3) -0.2652(3)
H13 H -0.4887(9) 0.1471(4) -0.2888(3)
H14 H -0.3349(9) 0.2424(3) -0.2157(3)
H15 H -0.1421(8) 0.1951(3) -0.1245(3)
H16 H -0.1143(8) 0.0541(3) -0.1023(3)
H17 H -0.5328(7) -0.1347(4) 0.0915(2)
H18 H -0.6352(8) -0.0853(4) 0.1994(3)
H19 H -0.5777(8) 0.0524(5) 0.2298(3)
H20 H -0.4007(9) 0.1363(4) 0.1560(3)
H21 H -0.2807(8) 0.0865(3) 0.0505(3)
loop_
_geom_bond_atom_site_label_1
_geom_bond_atom_site_label_2
_geom_bond_site_symmetry_1
_geom_bond_site_symmetry_2
O1 C1 1_555 1_555
O2 C3 1_555 1_555
O3 C5 1_555 1_555
O4 C7 1_555 1_555
O5 C7 1_555 1_555
N1 C1 1_555 1_555
C1 C8 1_555 1_555
C2 N1 1_555 1_555
C3 O1 1_555 1_555
C4 C2 1_555 1_555
C5 N1 1_555 1_555
C6 C2 1_555 1_555
C7 C6 1_555 1_555
C8 C9 1_555 1_555
C9 C10 1_555 1_555
C10 C11 1_555 1_555
C11 C12 1_555 1_555
C12 C13 1_555 1_555
C13 C8 1_555 1_555
C14 C4 1_555 1_555
C15 C14 1_555 1_555
C16 C15 1_555 1_555
C17 C16 1_555 1_555
C18 C17 1_555 1_555
C19 C14 1_555 1_555
C20 C5 1_555 1_555
C21 C20 1_555 1_555
C22 C21 1_555 1_555
C23 C22 1_555 1_555
C24 C23 1_555 1_555
C25 C20 1_555 1_555
H1 O5 1_555 1_555
H2 C1 1_555 1_555
H3 C4 1_555 1_555
H4 C4 1_555 1_555
H5 C6 1_555 1_555
H6 C6 1_555 1_555
H7 C9 1_555 1_555
H8 C10 1_555 1_555
H9 C11 1_555 1_555
H10 C12 1_555 1_555
H11 C13 1_555 1_555
H12 C15 1_555 1_555
H13 C16 1_555 1_555
H14 C17 1_555 1_555
H15 C18 1_555 1_555
H16 C19 1_555 1_555
H17 C21 1_555 1_555
H18 C22 1_555 1_555
H19 C23 1_555 1_555
H20 C24 1_555 1_555
H21 C25 1_555 1_555
C2 C3 1_555 1_555
C18 C19 1_555 1_555
C24 C25 1_555 1_555

#END
