
#######################################################################
#
#                 Cambridge Crystallographic Data Centre
#                                CCDC 
#
#######################################################################
#
# If this CIF has been generated from an entry in the Cambridge 
# Structural Database, then it will include bibliographic, chemical, 
# crystal, experimental, refinement or atomic coordinate data resulting 
# from the CCDC's data processing and validation procedures.
#
#######################################################################

data_NANQEZ
_chemical_formula_moiety         'C8 H6 O4,C12 H8 N4 O1'
_chemical_name_systematic        
'Isophthalic acid 2,5-bis(pyrid-4-yl)-1,3,4-oxadiazole'
_symmetry_cell_setting           monoclinic
_symmetry_space_group_name_H-M   'P 21/c'
_symmetry_Int_Tables_number      14
_space_group_name_Hall           '-P 2ybc'
loop_
_symmetry_equiv_pos_site_id
_symmetry_equiv_pos_as_xyz
1 x,y,z
2 -x,1/2+y,1/2-z
3 -x,-y,-z
4 x,1/2-y,1/2+z
_cell_length_a                   13.160(4)
_cell_length_b                   6.773(2)
_cell_length_c                   23.049(8)
_cell_angle_alpha                90
_cell_angle_beta                 120.395(6)
_cell_angle_gamma                90
_cell_volume                     1772.06
_exptl_crystal_colour            colorless
_exptl_crystal_description       block
_chemical_melting_point          'above 300deg.C'
_cell_formula_units_Z            4
loop_
_atom_site_label
_atom_site_type_symbol
_atom_site_fract_x
_atom_site_fract_y
_atom_site_fract_z
O1 O 0.62512(14) 0.4718(3) 0.24485(7)
C1 C 0.4946(2) 0.4330(4) 0.12386(11)
N1 N 0.87596(19) 0.5662(4) 0.49652(10)
C2 C 0.7711(2) 0.3049(4) 0.42092(12)
H1 H 0.7485 0.1729 0.4147
C3 C 0.3613(2) 0.3920(5) 0.00683(12)
H2 H 0.3104 0.3109 -0.0286
C4 C 0.6604(2) 0.3497(4) 0.29834(11)
C5 C 0.7734(2) 0.6213(4) 0.37787(12)
H3 H 0.7518 0.7083 0.3423
C6 C 0.7363(2) 0.4274(4) 0.36639(11)
N2 N 0.37334(19) 0.5781(4) -0.00660(10)
C7 C 0.8398(2) 0.3804(5) 0.48481(12)
H4 H 0.8617 0.2970 0.5213
C8 C 0.4461(2) 0.6922(4) 0.04472(12)
H5 H 0.4562 0.8224 0.0358
N3 N 0.5491(2) 0.1753(4) 0.21059(10)
C9 C 0.5078(2) 0.6271(4) 0.11082(12)
H6 H 0.5567 0.7123 0.1455
N4 N 0.6192(2) 0.1740(4) 0.28113(10)
C10 C 0.5549(2) 0.3522(4) 0.19220(11)
C11 C 0.8437(2) 0.6830(4) 0.44382(12)
H7 H 0.8696 0.8133 0.4516
C12 C 0.4203(2) 0.3128(4) 0.07053(11)
H8 H 0.4104 0.1808 0.0776
C13 C 0.0642(2) 0.4937(4) 0.18395(12)
C14 C 0.1917(2) 0.4884(4) 0.30437(12)
O2 O 0.00521(18) 0.7902(3) 0.12159(8)
H9 H -0.0326 0.8362 0.0835
C15 C -0.0002(2) 0.5975(5) 0.11847(13)
C16 C 0.0515(2) 0.2911(4) 0.18470(13)
H10 H 0.0043 0.2239 0.1446
O3 O 0.25785(18) 0.7817(3) 0.36834(8)
H11 H 0.2869 0.8247 0.4068
O4 O -0.0539(2) 0.5109(3) 0.06598(10)
C17 C 0.1344(2) 0.5916(4) 0.24410(11)
H12 H 0.1432 0.7279 0.2441
O5 O 0.3241(2) 0.4990(3) 0.42178(10)
C18 C 0.1084(3) 0.1882(4) 0.24449(14)
H13 H 0.0993 0.0520 0.2446
C19 C 0.1782(2) 0.2862(4) 0.30374(13)
H14 H 0.2168 0.2158 0.3439
C20 C 0.2641(2) 0.5889(4) 0.37007(13)
loop_
_geom_bond_atom_site_label_1
_geom_bond_atom_site_label_2
_geom_bond_site_symmetry_1
_geom_bond_site_symmetry_2
O1 C4 1_555 1_555
C1 C9 1_555 1_555
N1 C7 1_555 1_555
C2 H1 1_555 1_555
C3 H2 1_555 1_555
C4 C6 1_555 1_555
C5 H3 1_555 1_555
C6 C2 1_555 1_555
N2 C3 1_555 1_555
C7 C2 1_555 1_555
H4 C7 1_555 1_555
C8 N2 1_555 1_555
H5 C8 1_555 1_555
N3 N4 1_555 1_555
C9 C8 1_555 1_555
H6 C9 1_555 1_555
N4 C4 1_555 1_555
C10 O1 1_555 1_555
C11 N1 1_555 1_555
H7 C11 1_555 1_555
C12 C1 1_555 1_555
H8 C12 1_555 1_555
C13 C15 1_555 1_555
C14 C17 1_555 1_555
O2 H9 1_555 1_555
C15 O2 1_555 1_555
C16 C13 1_555 1_555
H10 C16 1_555 1_555
O3 H11 1_555 1_555
O4 C15 1_555 1_555
C17 C13 1_555 1_555
H12 C17 1_555 1_555
O5 C20 1_555 1_555
C18 C16 1_555 1_555
H13 C18 1_555 1_555
C19 C14 1_555 1_555
H14 C19 1_555 1_555
C20 C14 1_555 1_555
C1 C10 1_555 1_555
C3 C12 1_555 1_555
C5 C6 1_555 1_555
C5 C11 1_555 1_555
N3 C10 1_555 1_555
O3 C20 1_555 1_555
C18 C19 1_555 1_555

#END
