
#######################################################################
#
#                 Cambridge Crystallographic Data Centre
#                                CCDC 
#
#######################################################################
#
# If this CIF has been generated from an entry in the Cambridge 
# Structural Database, then it will include bibliographic, chemical, 
# crystal, experimental, refinement or atomic coordinate data resulting 
# from the CCDC's data processing and validation procedures.
#
#######################################################################

data_NAPMAV
_chemical_formula_moiety         'C36 H23 N1'
_chemical_name_systematic        9-(4-(triphenylen-2-yl)phenyl)-9H-carbazole
_symmetry_cell_setting           triclinic
_symmetry_space_group_name_H-M   'P -1'
_symmetry_Int_Tables_number      2
_space_group_name_Hall           '-P 1'
loop_
_symmetry_equiv_pos_site_id
_symmetry_equiv_pos_as_xyz
1 x,y,z
2 -x,-y,-z
_cell_length_a                   9.7759(4)
_cell_length_b                   17.9916(7)
_cell_length_c                   27.8822(11)
_cell_angle_alpha                101.316(3)
_cell_angle_beta                 100.085(3)
_cell_angle_gamma                97.853(3)
_cell_volume                     4659.55
_cell_formula_units_Z            8
loop_
_atom_site_label
_atom_site_type_symbol
_atom_site_fract_x
_atom_site_fract_y
_atom_site_fract_z
N1 N -0.5268(2) 0.11716(12) 0.36245(8)
C1 C -0.4781(3) 0.24867(16) 0.35058(11)
H1 H -0.4596 0.2676 0.3850
C2 C -0.3841(2) 0.36043(14) 0.16238(9)
C3 C -0.2275(3) 0.37274(15) 0.04908(10)
H2 H -0.2232 0.4042 0.0264
C4 C -0.3017(3) 0.39075(15) 0.08750(10)
C5 C -0.3089(2) 0.34252(15) 0.12144(10)
C6 C -0.5408(3) 0.14239(17) 0.27915(11)
H3 H -0.5684 0.0899 0.2652
C7 C -0.3685(3) 0.45930(15) 0.09356(10)
C8 C -0.4417(2) 0.42826(14) 0.16942(9)
C9 C -0.1612(3) 0.30991(15) 0.04411(10)
H4 H -0.1126 0.2994 0.0184
C10 C -0.4332(3) 0.47931(15) 0.13451(10)
C11 C -0.4021(2) 0.31034(15) 0.19470(10)
H5 H -0.3663 0.2648 0.1895
C12 C -0.5236(2) 0.39563(15) 0.24138(10)
H6 H -0.5678 0.4085 0.2680
C13 C -0.1671(3) 0.26224(15) 0.07748(10)
H7 H -0.1228 0.2195 0.0742
C14 C -0.5148(2) 0.16896(15) 0.33059(10)
C15 C -0.5260(3) 0.19345(18) 0.24813(11)
H8 H -0.5422 0.1744 0.2137
C16 C -0.4693(3) 0.29893(17) 0.31938(11)
H9 H -0.4509 0.3517 0.3329
C17 C -0.4928(3) 0.54644(15) 0.13983(10)
H10 H -0.5342 0.5603 0.1671
C18 C -0.4876(2) 0.27203(15) 0.26730(10)
C19 C -0.2390(2) 0.27853(15) 0.11569(10)
H11 H -0.2415 0.2466 0.1381
C20 C -0.5914(2) 0.12669(15) 0.40403(9)
C21 C -0.4746(3) 0.04808(14) 0.35868(10)
C22 C -0.5103(3) 0.44430(15) 0.20983(10)
H12 H -0.5476 0.4894 0.2152
C23 C -0.3704(3) 0.50711(16) 0.05911(11)
H13 H -0.3294 0.4943 0.0316
C24 C -0.4709(2) 0.32611(15) 0.23392(10)
C25 C -0.7171(3) 0.17933(17) 0.46430(10)
H14 H -0.7635 0.2178 0.4775
C26 C -0.6595(3) 0.18576(16) 0.42328(10)
H15 H -0.6656 0.2280 0.4089
C27 C -0.5089(3) 0.01275(15) 0.39656(10)
C28 C -0.3947(3) 0.01635(16) 0.32570(10)
H16 H -0.3713 0.0404 0.3009
C29 C -0.3882(3) -0.08851(17) 0.36827(11)
H17 H -0.3588 -0.1348 0.3709
C30 C -0.5834(3) 0.06254(15) 0.42541(10)
C31 C -0.4914(3) 0.59211(16) 0.10566(11)
H18 H -0.5312 0.6364 0.1100
C32 C -0.3516(3) -0.05202(17) 0.33124(11)
H19 H -0.2973 -0.0741 0.3100
C33 C -0.7080(3) 0.11703(17) 0.48666(10)
H20 H -0.7461 0.1152 0.5148
C34 C -0.6429(3) 0.05780(16) 0.46738(10)
H21 H -0.6385 0.0156 0.4819
C35 C -0.4306(3) 0.57203(17) 0.06478(11)
H22 H -0.4306 0.6023 0.0413
C36 C -0.4668(3) -0.05734(15) 0.40081(11)
H23 H -0.4915 -0.0823 0.4251
N2 N 0.3024(2) 0.88018(12) 0.13812(8)
C41 C 0.6487(3) 0.59742(16) 0.41093(10)
C42 C 0.5397(3) 0.52949(16) 0.40436(10)
C43 C 0.5124(3) 0.63111(15) 0.33622(9)
C44 C 0.2776(3) 0.60053(15) 0.25724(9)
H28 H 0.2002 0.5893 0.2307
C45 C 0.4224(3) 0.51282(16) 0.36361(10)
C46 C 0.4910(2) 0.68167(15) 0.30422(9)
H29 H 0.5572 0.7264 0.3096
C47 C 0.2972(3) 0.74939(17) 0.14937(12)
H30 H 0.2723 0.7311 0.1149
C48 C 0.6365(3) 0.64723(15) 0.37763(9)
C49 C 0.3557(2) 0.72328(15) 0.23220(10)
C50 C 0.3803(3) 0.80356(18) 0.25156(12)
H31 H 0.4111 0.8226 0.2859
C51 C 0.3756(3) 0.66777(15) 0.26496(9)
C52 C 0.4098(3) 0.56447(15) 0.32899(9)
C53 C 0.8601(3) 0.72703(16) 0.42343(10)
H32 H 0.9301 0.7696 0.4274
C54 C 0.8717(3) 0.67865(17) 0.45676(10)
H33 H 0.9491 0.6893 0.4833
C55 C 0.3189(3) 0.44779(15) 0.35862(10)
H34 H 0.2423 0.4359 0.3317
C56 C 0.3601(3) 0.85458(18) 0.22112(11)
H35 H 0.3733 0.9071 0.2351
C57 C 0.5448(3) 0.48031(17) 0.43789(10)
H36 H 0.6212 0.4906 0.4648
C58 C 0.3110(3) 0.69833(17) 0.18025(11)
H37 H 0.2899 0.6457 0.1661
C59 C 0.1917(3) 0.87118(15) 0.09668(10)
C60 C 0.3203(2) 0.82780(15) 0.16982(10)
C61 C 0.2939(3) 0.55050(15) 0.28839(10)
H38 H 0.2266 0.5061 0.2825
C62 C 0.3275(3) 0.40110(16) 0.39233(10)
H39 H 0.2571 0.3586 0.3882
C63 C 0.7441(3) 0.71129(16) 0.38459(10)
H40 H 0.7368 0.7438 0.3625
C64 C 0.3933(3) 0.94999(15) 0.14242(10)
C65 C -0.0194(3) 0.81808(17) 0.03565(10)
H41 H -0.0981 0.7795 0.0221
C66 C 0.0756(3) 0.81197(16) 0.07720(10)
H42 H 0.0625 0.7698 0.0916
C67 C 0.5220(3) 0.98140(16) 0.17537(11)
H43 H 0.5578 0.9573 0.2002
C68 C 0.3386(3) 0.98552(15) 0.10428(10)
C69 C 0.7692(3) 0.61553(17) 0.45043(10)
H44 H 0.7790 0.5835 0.4728
C70 C 0.4412(3) 0.41762(17) 0.43237(11)
H45 H 0.4474 0.3865 0.4554
C71 C 0.2110(3) 0.93499(16) 0.07539(10)
C72 C 0.5948(3) 1.04990(17) 0.16979(12)
H46 H 0.6816 1.0717 0.1910
C73 C 0.1141(3) 0.93953(17) 0.03296(10)
H47 H 0.1267 0.9814 0.0182
C74 C 0.0007(3) 0.88110(18) 0.01370(11)
H48 H -0.0640 0.8834 -0.0145
C75 C 0.4135(3) 1.05524(16) 0.10031(11)
H49 H 0.3779 1.0801 0.0759
C76 C 0.5403(3) 1.08678(17) 0.13291(12)
H50 H 0.5904 1.1332 0.1304
N3 N -0.1993(2) 0.88214(12) 0.13862(8)
C81 C -0.2140(3) 0.60721(15) 0.26184(10)
H55 H -0.2947 0.5963 0.2366
C82 C -0.1137(3) 0.67341(15) 0.26700(9)
C83 C 0.1531(3) 0.65620(16) 0.37936(10)
C84 C 0.1676(3) 0.60763(16) 0.41318(10)
C85 C 0.0281(3) 0.63816(15) 0.33819(10)
C86 C -0.0744(3) 0.57204(15) 0.33252(10)
C87 C 0.0611(3) 0.53967(16) 0.40759(10)
C88 C -0.0576(3) 0.52122(15) 0.36727(10)
C89 C -0.1576(3) 0.45493(16) 0.36251(10)
H56 H -0.2347 0.4421 0.3358
C90 C 0.2902(3) 0.62639(17) 0.45220(10)
H57 H 0.3016 0.5947 0.4747
C91 C 0.3766(3) 0.73742(16) 0.42437(10)
H58 H 0.4450 0.7806 0.4280
C92 C -0.3085(3) 0.86936(15) 0.09632(10)
C93 C 0.0693(3) 0.49122(17) 0.44151(11)
H59 H 0.1455 0.5031 0.4686
C94 C 0.0058(3) 0.68692(15) 0.30484(9)
H60 H 0.0741 0.7301 0.3083
C95 C -0.1946(3) 0.55834(15) 0.29341(10)
H61 H -0.2628 0.5147 0.2890
C96 C 0.3920(3) 0.68946(16) 0.45769(10)
H62 H 0.4711 0.7002 0.4836
C97 C -0.1451(3) 0.40842(16) 0.39614(11)
H63 H -0.2127 0.3648 0.3922
C98 C -0.1357(3) 0.72740(15) 0.23372(10)
C99 C -0.1783(3) 0.83072(15) 0.17124(10)
C100 C 0.2594(3) 0.72066(16) 0.38586(10)
H64 H 0.2505 0.7529 0.3636
C101 C -0.2893(3) 0.79503(17) 0.18828(12)
H65 H -0.3793 0.8060 0.1793
C102 C -0.0221(3) 0.76411(18) 0.21787(12)
H66 H 0.0682 0.7545 0.2284
C103 C -0.1696(3) 0.98597(15) 0.10340(10)
C104 C -0.2682(3) 0.74359(18) 0.21837(12)
H67 H -0.3448 0.7193 0.2285
C105 C -0.0422(3) 0.81448(18) 0.18679(12)
H68 H 0.0341 0.8378 0.1761
C106 C -0.2935(3) 0.93285(15) 0.07395(10)
C107 C -0.1133(3) 0.95288(15) 0.14239(10)
C108 C -0.0296(3) 0.42758(18) 0.43632(11)
H69 H -0.0204 0.3969 0.4595
C109 C -0.4178(3) 0.80652(16) 0.07649(10)
H70 H -0.4263 0.7645 0.0913
C110 C -0.5128(3) 0.80877(17) 0.03426(11)
H71 H -0.5866 0.7675 0.0204
C111 C -0.3921(3) 0.93343(17) 0.03127(10)
H72 H -0.3845 0.9751 0.0161
C112 C 0.0700(3) 1.06216(18) 0.17343(12)
H73 H 0.1506 1.0885 0.1967
C113 C -0.1047(3) 1.05795(16) 0.09995(11)
H74 H -0.1417 1.0805 0.0744
C114 C -0.5007(3) 0.87152(17) 0.01183(11)
H75 H -0.5667 0.8716 -0.0166
C115 C 0.0155(3) 1.09552(17) 0.13483(12)
H76 H 0.0602 1.1434 0.1326
C116 C 0.0070(3) 0.99075(17) 0.17791(11)
H77 H 0.0439 0.9689 0.2038
C121 C 0.1219(3) 0.47147(15) 0.09464(10)
C122 C 0.1150(2) 0.37082(15) 0.16312(10)
N4 N -0.0286(2) 0.12022(12) 0.36046(8)
C123 C 0.1052(3) 0.32146(15) 0.19637(10)
H82 H 0.1517 0.2795 0.1928
C124 C 0.0503(3) 0.48667(15) 0.13454(10)
C125 C 0.1918(3) 0.40396(15) 0.08808(10)
C126 C 0.3265(3) 0.32263(17) 0.04168(11)
H83 H 0.3722 0.3122 0.0152
C127 C 0.1885(3) 0.35460(15) 0.12179(10)
C128 C 0.0157(3) 0.27686(15) 0.26653(10)
C129 C -0.0175(3) 0.55125(15) 0.13922(10)
H84 H -0.0631 0.5624 0.1657
C130 C -0.0363(3) 0.39725(15) 0.23947(10)
H85 H -0.0870 0.4065 0.2647
C131 C 0.3235(3) 0.27407(16) 0.07494(10)
H86 H 0.3672 0.2311 0.0708
C132 C 0.0298(2) 0.33244(15) 0.23395(10)
C133 C -0.0886(2) 0.13258(14) 0.40282(9)
C134 C 0.1196(3) 0.52114(16) 0.06130(10)
H87 H 0.1663 0.5117 0.0350
C135 C 0.0463(2) 0.43493(15) 0.16882(10)
C136 C -0.0184(3) 0.59826(16) 0.10593(11)
H88 H -0.0650 0.6401 0.1097
C137 C -0.0147(3) 0.17148(15) 0.32832(10)
C138 C 0.1106(3) 0.18755(18) 0.31259(11)
H89 H 0.1854 0.1634 0.3226
C139 C -0.0272(3) 0.44707(16) 0.20831(10)
H90 H -0.0706 0.4901 0.2133
C140 C 0.2616(3) 0.38592(16) 0.04817(10)
H91 H 0.2637 0.4177 0.0256
C141 C -0.1985(3) 0.19296(17) 0.46595(10)
H92 H -0.2375 0.2342 0.4801
C142 C 0.1262(3) 0.23917(18) 0.28212(12)
H93 H 0.2112 0.2489 0.2719
C143 C -0.0824(3) 0.06943(14) 0.42543(10)
C144 C -0.0155(3) 0.01639(15) 0.39585(10)
C145 C -0.1269(3) 0.20634(18) 0.31155(12)
H94 H -0.2134 0.1945 0.3204
C146 C 0.2556(3) 0.29013(16) 0.11393(10)
H95 H 0.2539 0.2573 0.1359
C147 C -0.1457(3) 0.19551(15) 0.42326(10)
H96 H -0.1483 0.2377 0.4087
C148 C 0.0180(3) 0.04928(15) 0.35673(10)
C149 C -0.1371(3) 0.06863(16) 0.46844(10)
H97 H -0.1345 0.0269 0.4835
C150 C -0.1103(3) 0.25827(18) 0.28190(12)
H98 H -0.1858 0.2818 0.2717
C151 C -0.1949(3) 0.13054(16) 0.48835(10)
H99 H -0.2316 0.1305 0.5169
C152 C 0.0509(3) 0.58286(17) 0.06642(11)
H100 H 0.0505 0.6143 0.0436
C153 C 0.0172(3) -0.05571(16) 0.39933(11)
H101 H -0.0049 -0.0782 0.4249
C154 C 0.1142(4) -0.05980(19) 0.32559(12)
H102 H 0.1581 -0.0863 0.3023
C155 C 0.0822(3) 0.01122(18) 0.32060(11)
H103 H 0.1026 0.0326 0.2943
C156 C 0.0825(4) -0.09289(18) 0.36439(12)
H104 H 0.1059 -0.1407 0.3666
C37? C -0.3835(17) 0.1813(10) 0.3134(6)
H24? H -0.3117 0.1548 0.3229
C38? C -0.3648(17) 0.2327(10) 0.2829(6)
H25? H -0.2803 0.2426 0.2724
C39? C -0.6017(17) 0.2538(10) 0.2815(6)
H26? H -0.6776 0.2765 0.2705
C40? C -0.6225(17) 0.2033(10) 0.3116(6)
H27? H -0.7107 0.1922 0.3193
C77? C 0.4518(17) 0.8084(10) 0.1870(6)
H51? H 0.5310 0.8315 0.1776
C78? C 0.4682(17) 0.7562(9) 0.2172(6)
H52? H 0.5567 0.7441 0.2272
C79? C 0.2216(17) 0.7383(10) 0.2181(7)
H53? H 0.1456 0.7132 0.2282
C80? C 0.2017(17) 0.7911(10) 0.1887(6)
H54? H 0.1127 0.8037 0.1806
C117? C -0.1468(15) 0.8627(10) 0.2201(6)
H78? H -0.1401 0.9152 0.2326
C118? C -0.1247(15) 0.8115(9) 0.2508(6)
H79? H -0.1008 0.8320 0.2851
C119? C -0.2032(16) 0.7549(10) 0.1497(6)
H80? H -0.2308 0.7374 0.1152
C120? C -0.1865(16) 0.7035(10) 0.1808(6)
H81? H -0.2095 0.6510 0.1664
C157? C 0.0275(16) 0.2547(9) 0.3504(7)
H105? H 0.0511 0.2717 0.3850
C158? C 0.0328(16) 0.3081(10) 0.3210(6)
H106? H 0.0462 0.3607 0.3346
C159? C -0.0312(17) 0.1484(10) 0.2789(7)
H107? H -0.0535 0.0960 0.2643
C160? C -0.0157(17) 0.2018(10) 0.2476(7)
H108? H -0.0279 0.1833 0.2133
loop_
_geom_bond_atom_site_label_1
_geom_bond_atom_site_label_2
_geom_bond_site_symmetry_1
_geom_bond_site_symmetry_2
N1 C14 1_555 1_555
C1 H1 1_555 1_555
C2 C5 1_555 1_555
C3 H2 1_555 1_555
C4 C3 1_555 1_555
C5 C4 1_555 1_555
C6 H3 1_555 1_555
C7 C4 1_555 1_555
C8 C2 1_555 1_555
C9 C3 1_555 1_555
H4 C9 1_555 1_555
C10 C7 1_555 1_555
C11 C2 1_555 1_555
H5 C11 1_555 1_555
C12 H6 1_555 1_555
C13 C9 1_555 1_555
H7 C13 1_555 1_555
C14 C1 1_555 1_555
C15 C6 1_555 1_555
H8 C15 1_555 1_555
C16 C1 1_555 1_555
H9 C16 1_555 1_555
C17 C10 1_555 1_555
H10 C17 1_555 1_555
C18 C15 1_555 1_555
C19 C5 1_555 1_555
H11 C19 1_555 1_555
C20 N1 1_555 1_555
C21 N1 1_555 1_555
C22 C8 1_555 1_555
H12 C22 1_555 1_555
C23 C7 1_555 1_555
H13 C23 1_555 1_555
C24 C11 1_555 1_555
C25 H14 1_555 1_555
C26 C20 1_555 1_555
H15 C26 1_555 1_555
C27 C21 1_555 1_555
C28 C21 1_555 1_555
H16 C28 1_555 1_555
C29 H17 1_555 1_555
C30 C20 1_555 1_555
C31 C17 1_555 1_555
H18 C31 1_555 1_555
C32 C28 1_555 1_555
H19 C32 1_555 1_555
C33 C25 1_555 1_555
H20 C33 1_555 1_555
C34 C30 1_555 1_555
H21 C34 1_555 1_555
C35 C23 1_555 1_555
H22 C35 1_555 1_555
C36 C27 1_555 1_555
H23 C36 1_555 1_555
N2 C59 1_555 1_555
C41 C42 1_555 1_555
C42 C45 1_555 1_555
C43 C46 1_555 1_555
C44 H28 1_555 1_555
C45 C52 1_555 1_555
C46 H29 1_555 1_555
C47 H30 1_555 1_555
C48 C41 1_555 1_555
C49 C50 1_555 1_555
C50 H31 1_555 1_555
C51 C44 1_555 1_555
C52 C43 1_555 1_555
C53 H32 1_555 1_555
C54 C53 1_555 1_555
H33 C54 1_555 1_555
C55 C45 1_555 1_555
H34 C55 1_555 1_555
C56 C50 1_555 1_555
H35 C56 1_555 1_555
C57 C42 1_555 1_555
H36 C57 1_555 1_555
C58 C47 1_555 1_555
H37 C58 1_555 1_555
C59 C66 1_555 1_555
C60 N2 1_555 1_555
C61 C44 1_555 1_555
H38 C61 1_555 1_555
C62 C55 1_555 1_555
H39 C62 1_555 1_555
C63 C48 1_555 1_555
H40 C63 1_555 1_555
C64 N2 1_555 1_555
C65 H41 1_555 1_555
C66 C65 1_555 1_555
H42 C66 1_555 1_555
C67 C64 1_555 1_555
H43 C67 1_555 1_555
C68 C64 1_555 1_555
C69 C41 1_555 1_555
H44 C69 1_555 1_555
C70 C57 1_555 1_555
H45 C70 1_555 1_555
C71 C59 1_555 1_555
C72 C67 1_555 1_555
H46 C72 1_555 1_555
C73 C71 1_555 1_555
H47 C73 1_555 1_555
C74 C65 1_555 1_555
H48 C74 1_555 1_555
C75 C68 1_555 1_555
H49 C75 1_555 1_555
C76 C72 1_555 1_555
H50 C76 1_555 1_555
N3 C92 1_555 1_555
C81 H55 1_555 1_555
C82 C81 1_555 1_555
C83 C84 1_555 1_555
C84 C87 1_555 1_555
C85 C83 1_555 1_555
C86 C85 1_555 1_555
C87 C88 1_555 1_555
C88 C86 1_555 1_555
C89 C88 1_555 1_555
H56 C89 1_555 1_555
C90 C84 1_555 1_555
H57 C90 1_555 1_555
C91 H58 1_555 1_555
C92 C106 1_555 1_555
C93 C87 1_555 1_555
H59 C93 1_555 1_555
C94 C82 1_555 1_555
H60 C94 1_555 1_555
C95 C81 1_555 1_555
H61 C95 1_555 1_555
C96 C90 1_555 1_555
H62 C96 1_555 1_555
C97 C89 1_555 1_555
H63 C97 1_555 1_555
C98 C82 1_555 1_555
C99 N3 1_555 1_555
C100 C83 1_555 1_555
H64 C100 1_555 1_555
C101 C99 1_555 1_555
H65 C101 1_555 1_555
C102 C98 1_555 1_555
H66 C102 1_555 1_555
C103 C106 1_555 1_555
C104 C98 1_555 1_555
H67 C104 1_555 1_555
C105 C99 1_555 1_555
H68 C105 1_555 1_555
C106 C111 1_555 1_555
C107 N3 1_555 1_555
C108 C93 1_555 1_555
H69 C108 1_555 1_555
C109 C92 1_555 1_555
H70 C109 1_555 1_555
C110 C109 1_555 1_555
H71 C110 1_555 1_555
C111 H72 1_555 1_555
C112 H73 1_555 1_555
C113 C103 1_555 1_555
H74 C113 1_555 1_555
C114 C110 1_555 1_555
H75 C114 1_555 1_555
C115 C112 1_555 1_555
H76 C115 1_555 1_555
C116 C107 1_555 1_555
H77 C116 1_555 1_555
C121 C124 1_555 1_555
C122 C123 1_555 1_555
N4 C133 1_555 1_555
C123 H82 1_555 1_555
C124 C129 1_555 1_555
C125 C121 1_555 1_555
C126 H83 1_555 1_555
C127 C122 1_555 1_555
C128 C132 1_555 1_555
C129 H84 1_555 1_555
C130 H85 1_555 1_555
C131 C126 1_555 1_555
H86 C131 1_555 1_555
C132 C123 1_555 1_555
C133 C143 1_555 1_555
C134 C121 1_555 1_555
H87 C134 1_555 1_555
C135 C122 1_555 1_555
C136 C129 1_555 1_555
H88 C136 1_555 1_555
C137 N4 1_555 1_555
C138 C137 1_555 1_555
H89 C138 1_555 1_555
C139 C130 1_555 1_555
H90 C139 1_555 1_555
C140 C125 1_555 1_555
H91 C140 1_555 1_555
C141 H92 1_555 1_555
C142 C128 1_555 1_555
H93 C142 1_555 1_555
C143 C144 1_555 1_555
C144 C148 1_555 1_555
C145 C137 1_555 1_555
H94 C145 1_555 1_555
C146 C127 1_555 1_555
H95 C146 1_555 1_555
C147 C133 1_555 1_555
H96 C147 1_555 1_555
C148 N4 1_555 1_555
C149 C143 1_555 1_555
H97 C149 1_555 1_555
C150 C128 1_555 1_555
H98 C150 1_555 1_555
C151 C141 1_555 1_555
H99 C151 1_555 1_555
C152 C134 1_555 1_555
H100 C152 1_555 1_555
C153 C144 1_555 1_555
H101 C153 1_555 1_555
C154 H102 1_555 1_555
C155 C148 1_555 1_555
H103 C155 1_555 1_555
C156 C153 1_555 1_555
H104 C156 1_555 1_555
C6 C14 1_555 1_555
C8 C10 1_555 1_555
C12 C22 1_555 1_555
C12 C24 1_555 1_555
C13 C19 1_555 1_555
C16 C18 1_555 1_555
C18 C24 1_555 1_555
C25 C26 1_555 1_555
C27 C30 1_555 1_555
C29 C32 1_555 1_555
C29 C36 1_555 1_555
C31 C35 1_555 1_555
C33 C34 1_555 1_555
C43 C48 1_555 1_555
C46 C51 1_555 1_555
C47 C60 1_555 1_555
C49 C51 1_555 1_555
C49 C58 1_555 1_555
C52 C61 1_555 1_555
C53 C63 1_555 1_555
C54 C69 1_555 1_555
C56 C60 1_555 1_555
C62 C70 1_555 1_555
C68 C71 1_555 1_555
C73 C74 1_555 1_555
C75 C76 1_555 1_555
C85 C94 1_555 1_555
C86 C95 1_555 1_555
C91 C96 1_555 1_555
C91 C100 1_555 1_555
C97 C108 1_555 1_555
C101 C104 1_555 1_555
C102 C105 1_555 1_555
C103 C107 1_555 1_555
C111 C114 1_555 1_555
C112 C116 1_555 1_555
C113 C115 1_555 1_555
C124 C135 1_555 1_555
C125 C127 1_555 1_555
C126 C140 1_555 1_555
C130 C132 1_555 1_555
C131 C146 1_555 1_555
C135 C139 1_555 1_555
C136 C152 1_555 1_555
C138 C142 1_555 1_555
C141 C147 1_555 1_555
C145 C150 1_555 1_555
C149 C151 1_555 1_555
C154 C155 1_555 1_555
C154 C156 1_555 1_555

#END
