
#######################################################################
#
#                 Cambridge Crystallographic Data Centre
#                                CCDC 
#
#######################################################################
#
# If this CIF has been generated from an entry in the Cambridge 
# Structural Database, then it will include bibliographic, chemical, 
# crystal, experimental, refinement or atomic coordinate data resulting 
# from the CCDC's data processing and validation procedures.
#
#######################################################################

data_NAPTAN02
_chemical_name_common            1H,3H-Benzo[de]isochromene-1,3-dione
_chemical_formula_moiety         'C12 H6 O3'
_chemical_name_systematic        'Naphthalene-1,8-dicarboxylic anhydride'
_symmetry_cell_setting           monoclinic
_symmetry_space_group_name_H-M   'P 21/c'
_symmetry_Int_Tables_number      14
_space_group_name_Hall           '-P 2ybc'
loop_
_symmetry_equiv_pos_site_id
_symmetry_equiv_pos_as_xyz
1 x,y,z
2 -x,1/2+y,1/2-z
3 -x,-y,-z
4 x,1/2-y,1/2+z
_cell_length_a                   3.76870(10)
_cell_length_b                   14.5269(3)
_cell_length_c                   15.8083(3)
_cell_angle_alpha                90
_cell_angle_beta                 94.752(2)
_cell_angle_gamma                90
_cell_volume                     862.49
_exptl_crystal_colour            yellow
_exptl_crystal_description       prism
_cell_formula_units_Z            4
loop_
_atom_site_label
_atom_site_type_symbol
_atom_site_fract_x
_atom_site_fract_y
_atom_site_fract_z
C1 C 0.3898(4) 0.64036(9) 0.28567(8)
C2 C 0.2469(4) 0.64100(10) 0.19687(9)
C3 C 0.5444(4) 0.56205(10) 0.32018(9)
H1 H 0.5618 0.5098 0.2868
C4 C 0.3060(5) 0.87580(12) 0.43612(10)
H2 H 0.2878 0.9279 0.4696
C5 C 0.3603(3) 0.72008(9) 0.33538(8)
C6 C 0.1982(4) 0.80075(10) 0.30145(8)
C7 C 0.0514(4) 0.80154(11) 0.21286(9)
C8 C 0.6540(4) 0.63636(11) 0.45452(10)
H3 H 0.7441 0.6341 0.5111
C9 C 0.6755(4) 0.56069(12) 0.40523(10)
H4 H 0.7788 0.5072 0.4284
C10 C 0.4972(4) 0.71882(10) 0.42179(8)
O1 O 0.0835(3) 0.72159(7) 0.16646(6)
C11 C 0.1693(4) 0.87738(11) 0.35104(9)
H5 H 0.0594 0.9302 0.3283
C12 C 0.4642(4) 0.79925(12) 0.47005(9)
H6 H 0.5534 0.7998 0.5267
O2 O -0.1003(4) 0.86395(8) 0.17671(7)
O3 O 0.2558(4) 0.57887(8) 0.14772(7)
loop_
_geom_bond_atom_site_label_1
_geom_bond_atom_site_label_2
_geom_bond_site_symmetry_1
_geom_bond_site_symmetry_2
C1 C2 1_555 1_555
C2 O1 1_555 1_555
C3 C1 1_555 1_555
H1 C3 1_555 1_555
C4 H2 1_555 1_555
C5 C1 1_555 1_555
C6 C5 1_555 1_555
C7 C6 1_555 1_555
C8 H3 1_555 1_555
C9 C3 1_555 1_555
H4 C9 1_555 1_555
C10 C5 1_555 1_555
O1 C7 1_555 1_555
C11 C4 1_555 1_555
H5 C11 1_555 1_555
C12 C4 1_555 1_555
H6 C12 1_555 1_555
O2 C7 1_555 1_555
O3 C2 1_555 1_555
C6 C11 1_555 1_555
C8 C9 1_555 1_555
C8 C10 1_555 1_555
C10 C12 1_555 1_555

#END
