
#######################################################################
#
#                 Cambridge Crystallographic Data Centre
#                                CCDC 
#
#######################################################################
#
# If this CIF has been generated from an entry in the Cambridge 
# Structural Database, then it will include bibliographic, chemical, 
# crystal, experimental, refinement or atomic coordinate data resulting 
# from the CCDC's data processing and validation procedures.
#
#######################################################################

data_NAPYRU
_chemical_formula_moiety         'C3 H3 O3 1-,Na1 1+'
_chemical_name_systematic        'Sodium pyruvate'
_chemical_properties_biological  
'Pyruvate is an intermediate in metabolism of carbohydrates, fats and proteins'
_symmetry_cell_setting           monoclinic
_symmetry_space_group_name_H-M   'P 21/a'
_symmetry_Int_Tables_number      14
_space_group_name_Hall           '-P 2yab'
loop_
_symmetry_equiv_pos_site_id
_symmetry_equiv_pos_as_xyz
1 x,y,z
2 1/2-x,1/2+y,-z
3 -x,-y,-z
4 1/2+x,1/2-y,z
_cell_length_a                   22.250
_cell_length_b                   5.310
_cell_length_c                   3.710
_cell_angle_alpha                90
_cell_angle_beta                 98.20
_cell_angle_gamma                90
_cell_volume                     433.846
_cell_formula_units_Z            4
loop_
_atom_site_label
_atom_site_type_symbol
_atom_site_fract_x
_atom_site_fract_y
_atom_site_fract_z
C1 C 0.16570 0.66080 -0.41460
C2 C 0.10240 0.58030 -0.63150
C3 C 0.05230 0.77220 -0.61180
O1 O 0.20350 0.48870 -0.35090
O2 O 0.10040 0.41000 -0.83830
O3 O 0.17070 0.88430 -0.28560
Na1 Na 0.19850 0.18020 0.16380
loop_
_geom_bond_atom_site_label_1
_geom_bond_atom_site_label_2
_geom_bond_site_symmetry_1
_geom_bond_site_symmetry_2
C1 C2 1_555 1_555
C2 C3 1_555 1_555
O1 C1 1_555 1_555
O2 C2 1_555 1_555
O3 C1 1_555 1_555

#END
