
#######################################################################
#
#                 Cambridge Crystallographic Data Centre
#                                CCDC 
#
#######################################################################
#
# If this CIF has been generated from an entry in the Cambridge 
# Structural Database, then it will include bibliographic, chemical, 
# crystal, experimental, refinement or atomic coordinate data resulting 
# from the CCDC's data processing and validation procedures.
#
#######################################################################

data_NAQLUO
_chemical_formula_moiety         'C10 H18 O6'
_chemical_name_systematic        
(R)-1-((2R,3S,3aR,5S,6aR)-3-Hydroxy-5-methoxy-5-methylhexahydrofuro(3,2-b)furan-2-yl)ethane-1,2-diol
_symmetry_cell_setting           monoclinic
_symmetry_space_group_name_H-M   'P 21'
_symmetry_Int_Tables_number      4
_space_group_name_Hall           'P 2yb'
loop_
_symmetry_equiv_pos_site_id
_symmetry_equiv_pos_as_xyz
1 x,y,z
2 -x,1/2+y,-z
_cell_length_a                   5.6357(9)
_cell_length_b                   8.9745(14)
_cell_length_c                   11.4542(17)
_cell_angle_alpha                90
_cell_angle_beta                 100.220(2)
_cell_angle_gamma                90
_cell_volume                     570.134
_exptl_crystal_colour            colorless
_exptl_crystal_description       block
_cell_formula_units_Z            2
loop_
_atom_site_label
_atom_site_type_symbol
_atom_site_fract_x
_atom_site_fract_y
_atom_site_fract_z
O1 O 0.33435(18) 0.98102(13) 0.63025(9)
O2 O 0.06711(19) 0.75562(12) 0.79268(10)
O3 O -0.1688(2) 1.05358(12) 0.59172(11)
H1 H -0.3015 1.0587 0.6114
O4 O -0.05569(18) 0.83364(13) 0.36484(11)
H2 H 0.0040 0.7500 0.3703
O5 O 0.4582(2) 0.80907(14) 0.38995(13)
H3 H 0.5981 0.8200 0.3808
O6 O 0.2893(2) 0.80543(16) 0.98042(11)
C1 C 0.3119(3) 0.9595(2) 0.75230(14)
H4 H 0.3454 1.0520 0.7977
C2 C 0.0506(3) 0.90606(18) 0.75116(14)
H5 H -0.0339 0.9699 0.7999
C3 C -0.0668(3) 0.91028(16) 0.62145(14)
H6 H -0.1853 0.8303 0.6011
C4 C 0.1506(2) 0.89110(16) 0.55981(14)
H7 H 0.2015 0.7866 0.5661
C5 C 0.1099(3) 0.93709(16) 0.43002(14)
H8 H 0.0330 1.0354 0.4235
C6 C 0.3394(3) 0.94844(19) 0.37867(15)
H9 H 0.3008 0.9765 0.2957
H10 H 0.4439 1.0243 0.4206
C7 C 0.4653(3) 0.8312(3) 0.81199(17)
H11 H 0.5324 0.7736 0.7540
H12 H 0.5963 0.8685 0.8713
C8 C 0.2938(3) 0.7370(2) 0.86914(14)
C9 C 0.3466(4) 0.5725(2) 0.8783(2)
H13 H 0.5015 0.5567 0.9270
H14 H 0.3469 0.5327 0.8005
H15 H 0.2249 0.5233 0.9131
C10 C 0.1235(4) 0.7452(3) 1.04791(19)
H16 H -0.0337 0.7397 0.9994
H17 H 0.1173 0.8082 1.1151
H18 H 0.1749 0.6472 1.0749
loop_
_geom_bond_atom_site_label_1
_geom_bond_atom_site_label_2
_geom_bond_site_symmetry_1
_geom_bond_site_symmetry_2
O1 C1 1_555 1_555
O2 C2 1_555 1_555
O3 H1 1_555 1_555
O4 H2 1_555 1_555
O5 H3 1_555 1_555
O6 C8 1_555 1_555
C1 H4 1_555 1_555
C2 C1 1_555 1_555
H5 C2 1_555 1_555
C3 O3 1_555 1_555
H6 C3 1_555 1_555
C4 O1 1_555 1_555
H7 C4 1_555 1_555
C5 O4 1_555 1_555
H8 C5 1_555 1_555
C6 O5 1_555 1_555
H9 C6 1_555 1_555
H10 C6 1_555 1_555
C7 C1 1_555 1_555
H11 C7 1_555 1_555
H12 C7 1_555 1_555
C8 O2 1_555 1_555
C9 C8 1_555 1_555
H13 C9 1_555 1_555
H14 C9 1_555 1_555
H15 C9 1_555 1_555
C10 O6 1_555 1_555
H16 C10 1_555 1_555
H17 C10 1_555 1_555
H18 C10 1_555 1_555
C2 C3 1_555 1_555
C3 C4 1_555 1_555
C4 C5 1_555 1_555
C5 C6 1_555 1_555
C7 C8 1_555 1_555

#END
