
#######################################################################
#
#                 Cambridge Crystallographic Data Centre
#                                CCDC 
#
#######################################################################
#
# If this CIF has been generated from an entry in the Cambridge 
# Structural Database, then it will include bibliographic, chemical, 
# crystal, experimental, refinement or atomic coordinate data resulting 
# from the CCDC's data processing and validation procedures.
#
#######################################################################

data_NAQZEN
_chemical_formula_moiety         'C22 H19 Cl2 N1 O3'
_chemical_name_systematic        
3-(3,4-dichloro-7-ethoxy-2,2-dimethyl-2H-chromen-6-yl)-5-phenyl-1,2-oxazole
_symmetry_cell_setting           monoclinic
_symmetry_space_group_name_H-M   'C 2/c'
_symmetry_Int_Tables_number      15
_space_group_name_Hall           '-C 2yn'
loop_
_symmetry_equiv_pos_site_id
_symmetry_equiv_pos_as_xyz
1 x,y,z
2 -x,y,1/2-z
3 1/2+x,1/2+y,z
4 1/2-x,1/2+y,1/2-z
5 -x,-y,-z
6 x,-y,1/2+z
7 1/2-x,1/2-y,-z
8 1/2+x,1/2-y,1/2+z
_cell_length_a                   18.190(5)
_cell_length_b                   11.612(5)
_cell_length_c                   19.561(5)
_cell_angle_alpha                90
_cell_angle_beta                 101.723(5)
_cell_angle_gamma                90
_cell_volume                     4045.54
_exptl_crystal_colour            white
_exptl_crystal_description       block
_cell_formula_units_Z            8
loop_
_atom_site_label
_atom_site_type_symbol
_atom_site_fract_x
_atom_site_fract_y
_atom_site_fract_z
Cl1 Cl 0.10257(9) 0.74160(18) -0.18994(11)
Cl2 Cl 0.10065(10) 0.50633(19) -0.27195(12)
O1 O 0.4375(2) 0.7527(4) 0.0229(2)
O2 O 0.2861(2) 0.4843(4) -0.1283(2)
O3 O 0.3084(2) 1.1135(4) -0.0117(3)
C1 C 0.5553(3) 0.7195(6) 0.0978(4)
H1 H 0.5750 0.7845 0.0770
H2 H 0.5948 0.6647 0.1130
H3 H 0.5354 0.7447 0.1371
N1 N 0.2847(3) 1.0085(5) -0.0460(4)
C2 C 0.2986(3) 0.5943(7) -0.1022(3)
C3 C 0.3908(4) 0.9818(6) 0.0320(4)
H4 H 0.4322 0.9448 0.0588
C4 C 0.3744(3) 0.7266(6) -0.0249(3)
C5 C 0.3353(3) 0.9314(6) -0.0194(3)
C6 C 0.1785(3) 0.6472(6) -0.1765(4)
C7 C 0.4931(3) 0.6633(6) 0.0441(3)
H5 H 0.5125 0.6359 0.0043
H6 H 0.4715 0.5988 0.0645
C8 C 0.5088(4) 1.2787(7) 0.1565(4)
H7 H 0.5566 1.2731 0.1844
C9 C 0.2467(4) 0.4717(6) -0.2006(4)
C10 C 0.2447(3) 0.6805(6) -0.1239(3)
C11 C 0.3680(4) 1.2976(7) 0.0736(4)
H8 H 0.3206 1.3048 0.0451
C12 C 0.3227(3) 0.8151(6) -0.0470(3)
C13 C 0.3994(4) 1.3888(7) 0.1128(4)
H9 H 0.3727 1.4572 0.1119
C14 C 0.4700(5) 1.3806(7) 0.1533(4)
H10 H 0.4916 1.4440 0.1788
C15 C 0.3617(3) 0.6167(6) -0.0526(3)
H11 H 0.3962 0.5582 -0.0376
C16 C 0.3730(3) 1.0934(7) 0.0353(4)
C17 C 0.1766(3) 0.5498(7) -0.2106(4)
C18 C 0.4063(3) 1.1947(6) 0.0760(3)
C19 C 0.2964(4) 0.5116(5) -0.2487(4)
H12 H 0.3136 0.5884 -0.2362
H13 H 0.2686 0.5110 -0.2960
H14 H 0.3388 0.4609 -0.2446
C20 C 0.4770(4) 1.1842(7) 0.1183(4)
H15 H 0.5028 1.1146 0.1210
C21 C 0.2287(4) 0.3439(6) -0.2084(4)
H16 H 0.2746 0.3006 -0.2011
H17 H 0.2003 0.3290 -0.2545
H18 H 0.2000 0.3213 -0.1746
C22 C 0.2589(3) 0.7873(6) -0.0956(3)
H19 H 0.2236 0.8449 -0.1099
loop_
_geom_bond_atom_site_label_1
_geom_bond_atom_site_label_2
_geom_bond_site_symmetry_1
_geom_bond_site_symmetry_2
Cl1 C6 1_555 1_555
Cl2 C17 1_555 1_555
O1 C4 1_555 1_555
O2 C2 1_555 1_555
O3 N1 1_555 1_555
C1 H1 1_555 1_555
H2 C1 1_555 1_555
H3 C1 1_555 1_555
N1 C5 1_555 1_555
C2 C10 1_555 1_555
C3 H4 1_555 1_555
C4 C12 1_555 1_555
C5 C3 1_555 1_555
C6 C10 1_555 1_555
C7 O1 1_555 1_555
H5 C7 1_555 1_555
H6 C7 1_555 1_555
C8 H7 1_555 1_555
C9 O2 1_555 1_555
C10 C22 1_555 1_555
C11 H8 1_555 1_555
C12 C5 1_555 1_555
C13 C11 1_555 1_555
H9 C13 1_555 1_555
C14 C8 1_555 1_555
H10 C14 1_555 1_555
C15 C2 1_555 1_555
H11 C15 1_555 1_555
C16 O3 1_555 1_555
C17 C6 1_555 1_555
C18 C11 1_555 1_555
C19 C9 1_555 1_555
H12 C19 1_555 1_555
H13 C19 1_555 1_555
H14 C19 1_555 1_555
C20 C8 1_555 1_555
H15 C20 1_555 1_555
C21 C9 1_555 1_555
H16 C21 1_555 1_555
H17 C21 1_555 1_555
H18 C21 1_555 1_555
C22 C12 1_555 1_555
H19 C22 1_555 1_555
C1 C7 1_555 1_555
C3 C16 1_555 1_555
C4 C15 1_555 1_555
C9 C17 1_555 1_555
C13 C14 1_555 1_555
C16 C18 1_555 1_555
C18 C20 1_555 1_555

#END
