
#######################################################################
#
#                 Cambridge Crystallographic Data Centre
#                                CCDC 
#
#######################################################################
#
# If this CIF has been generated from an entry in the Cambridge 
# Structural Database, then it will include bibliographic, chemical, 
# crystal, experimental, refinement or atomic coordinate data resulting 
# from the CCDC's data processing and validation procedures.
#
#######################################################################

data_NAQZAI
_chemical_formula_moiety         'C46 H84 Mg2 N4 O2 Si4'
_chemical_name_systematic        
bis(\m~2~-4-(2,6-Di-isopropylphenylimino)pent-2-en-2-olato)-bis(bis(trimethylsilyl)amide)-di-magnesium
_symmetry_cell_setting           monoclinic
_symmetry_space_group_name_H-M   'C 2/c'
_symmetry_Int_Tables_number      15
_space_group_name_Hall           '-C 2yn'
loop_
_symmetry_equiv_pos_site_id
_symmetry_equiv_pos_as_xyz
1 x,y,z
2 -x,y,1/2-z
3 1/2+x,1/2+y,z
4 1/2-x,1/2+y,1/2-z
5 -x,-y,-z
6 x,-y,1/2+z
7 1/2-x,1/2-y,-z
8 1/2+x,1/2-y,1/2+z
_cell_length_a                   11.130(3)
_cell_length_b                   22.444(7)
_cell_length_c                   21.331(5)
_cell_angle_alpha                90
_cell_angle_beta                 98.431(6)
_cell_angle_gamma                90
_cell_volume                     5270.94
_exptl_crystal_colour            colorless
_exptl_crystal_description       block
_cell_formula_units_Z            4
loop_
_atom_site_label
_atom_site_type_symbol
_atom_site_fract_x
_atom_site_fract_y
_atom_site_fract_z
C1 C 1.27461(18) 0.90988(10) 0.17909(10)
H1 H 1.2878 0.9515 0.1678
H2 H 1.3117 0.8835 0.1508
H3 H 1.3118 0.9027 0.2230
C2 C 1.14140(17) 0.89772(9) 0.17254(9)
C3 C 1.08895(18) 0.85947(9) 0.12770(8)
H4 H 1.1432 0.8424 0.1022
C4 C 0.96457(18) 0.84015(9) 0.11197(8)
C5 C 0.9482(2) 0.79027(9) 0.06425(10)
H5 H 0.8648 0.7752 0.0604
H6 H 1.0052 0.7580 0.0783
H7 H 0.9639 0.8051 0.0230
C6 C 0.75243(18) 0.84214(9) 0.11663(9)
C7 C 0.68502(19) 0.85999(9) 0.05931(9)
C8 C 0.5650(2) 0.84084(10) 0.04576(10)
H8 H 0.5178 0.8525 0.0070
C9 C 0.5130(2) 0.80554(11) 0.08690(11)
H9 H 0.4305 0.7938 0.0769
C10 C 0.5808(2) 0.78728(10) 0.14256(10)
H10 H 0.5446 0.7622 0.1704
C11 C 0.70119(19) 0.80462(9) 0.15913(9)
C12 C 0.7357(2) 0.89766(10) 0.01011(9)
H11 H 0.8224 0.9073 0.0266
C13 C 0.6666(2) 0.95552(11) -0.00168(11)
H12 H 0.5805 0.9470 -0.0157
H13 H 0.6994 0.9783 -0.0345
H14 H 0.6751 0.9788 0.0376
C14 C 0.7320(2) 0.86352(11) -0.05279(10)
H15 H 0.7779 0.8263 -0.0452
H16 H 0.7681 0.8881 -0.0831
H17 H 0.6475 0.8544 -0.0701
C15 C 0.7773(2) 0.78031(10) 0.21813(9)
H18 H 0.8351 0.8121 0.2362
C16 C 0.8511(2) 0.72666(11) 0.20187(11)
H19 H 0.7967 0.6973 0.1785
H20 H 0.8924 0.7086 0.2410
H21 H 0.9116 0.7396 0.1756
C17 C 0.7009(2) 0.76151(12) 0.26921(10)
H22 H 0.6458 0.7940 0.2766
H23 H 0.7547 0.7525 0.3087
H24 H 0.6534 0.7260 0.2550
C18 C 1.03264(19) 1.01681(10) 0.08627(9)
H25 H 1.0947 1.0089 0.1229
H26 H 1.0689 1.0392 0.0543
H27 H 1.0002 0.9790 0.0681
C19 C 0.9775(2) 1.12696(10) 0.15749(11)
H28 H 0.9135 1.1529 0.1691
H29 H 1.0271 1.1492 0.1312
H30 H 1.0290 1.1131 0.1960
C20 C 0.8250(2) 1.09501(11) 0.03744(10)
H31 H 0.7746 1.0645 0.0134
H32 H 0.8842 1.1104 0.0117
H33 H 0.7732 1.1277 0.0482
C21 C 0.71225(19) 1.06463(10) 0.26286(9)
H34 H 0.7648 1.0364 0.2891
H35 H 0.6330 1.0665 0.2777
H36 H 0.7498 1.1042 0.2661
C22 C 0.6153(2) 1.10488(11) 0.13497(11)
H37 H 0.6715 1.1387 0.1382
H38 H 0.5428 1.1158 0.1535
H39 H 0.5917 1.0943 0.0903
C23 C 0.57705(19) 0.97772(11) 0.16773(10)
H40 H 0.5440 0.9742 0.1227
H41 H 0.5111 0.9865 0.1921
H42 H 0.6163 0.9402 0.1826
Mg1 Mg 0.90116(6) 0.94165(3) 0.19215(3)
N1 N 0.87490(14) 0.86415(7) 0.13593(7)
N2 N 0.82463(14) 1.01752(7) 0.15540(7)
O1 O 1.08137(11) 0.92721(6) 0.21251(5)
Si1 Si 0.90718(5) 1.06135(3) 0.11210(2)
Si2 Si 0.69154(5) 1.03955(3) 0.17879(3)
C1A C 0.72539(18) 0.90988(10) 0.32091(10)
H1A H 0.7122 0.9515 0.3322
H2A H 0.6883 0.8835 0.3492
H3A H 0.6882 0.9027 0.2770
C2A C 0.85860(17) 0.89772(9) 0.32746(9)
C3A C 0.91105(18) 0.85947(9) 0.37230(8)
H4A H 0.8568 0.8424 0.3978
C4A C 1.03543(18) 0.84015(9) 0.38803(8)
C5A C 1.0518(2) 0.79027(9) 0.43575(10)
H5A H 1.1352 0.7752 0.4396
H6A H 0.9948 0.7580 0.4217
H7A H 1.0361 0.8051 0.4770
C6A C 1.24757(18) 0.84214(9) 0.38337(9)
C7A C 1.31498(19) 0.85999(9) 0.44069(9)
C8A C 1.4350(2) 0.84084(10) 0.45424(10)
H8A H 1.4822 0.8525 0.4930
C9A C 1.4870(2) 0.80554(11) 0.41310(11)
H9A H 1.5695 0.7938 0.4231
C10A C 1.4192(2) 0.78728(10) 0.35744(10)
H10A H 1.4554 0.7622 0.3296
C11A C 1.29881(19) 0.80462(9) 0.34087(9)
C12A C 1.2643(2) 0.89766(10) 0.48989(9)
H11A H 1.1776 0.9073 0.4734
C13A C 1.3334(2) 0.95552(11) 0.50168(11)
H12A H 1.4195 0.9470 0.5157
H13A H 1.3006 0.9783 0.5345
H14A H 1.3249 0.9788 0.4624
C14A C 1.2680(2) 0.86352(11) 0.55279(10)
H15A H 1.2221 0.8263 0.5452
H16A H 1.2319 0.8881 0.5831
H17A H 1.3525 0.8544 0.5701
C15A C 1.2227(2) 0.78031(10) 0.28187(9)
H18A H 1.1649 0.8121 0.2638
C16A C 1.1489(2) 0.72666(11) 0.29813(11)
H19A H 1.2033 0.6973 0.3215
H20A H 1.1076 0.7086 0.2590
H21A H 1.0884 0.7396 0.3244
C17A C 1.2991(2) 0.76151(12) 0.23079(10)
H22A H 1.3542 0.7940 0.2234
H23A H 1.2453 0.7525 0.1913
H24A H 1.3466 0.7260 0.2450
C18A C 0.96736(19) 1.01681(10) 0.41373(9)
H25A H 0.9053 1.0089 0.3771
H26A H 0.9311 1.0392 0.4457
H27A H 0.9998 0.9790 0.4319
C19A C 1.0225(2) 1.12696(10) 0.34251(11)
H28A H 1.0865 1.1529 0.3309
H29A H 0.9729 1.1492 0.3688
H30A H 0.9710 1.1131 0.3040
C20A C 1.1750(2) 1.09501(11) 0.46256(10)
H31A H 1.2254 1.0645 0.4866
H32A H 1.1158 1.1104 0.4883
H33A H 1.2268 1.1277 0.4518
C21A C 1.28775(19) 1.06463(10) 0.23714(9)
H34A H 1.2352 1.0364 0.2109
H35A H 1.3670 1.0665 0.2223
H36A H 1.2502 1.1042 0.2339
C22A C 1.3847(2) 1.10488(11) 0.36503(11)
H37A H 1.3285 1.1387 0.3618
H38A H 1.4572 1.1158 0.3465
H39A H 1.4083 1.0943 0.4097
C23A C 1.42295(19) 0.97772(11) 0.33227(10)
H40A H 1.4560 0.9742 0.3773
H41A H 1.4889 0.9865 0.3079
H42A H 1.3837 0.9402 0.3174
Mg1A Mg 1.09884(6) 0.94165(3) 0.30785(3)
N1A N 1.12510(14) 0.86415(7) 0.36407(7)
N2A N 1.17537(14) 1.01752(7) 0.34460(7)
O1A O 0.91863(11) 0.92721(6) 0.28749(5)
Si1A Si 1.09282(5) 1.06135(3) 0.38790(2)
Si2A Si 1.30846(5) 1.03955(3) 0.32121(3)
loop_
_geom_bond_atom_site_label_1
_geom_bond_atom_site_label_2
_geom_bond_site_symmetry_1
_geom_bond_site_symmetry_2
C1 H1 1_555 1_555
H2 C1 1_555 1_555
H3 C1 1_555 1_555
C2 C1 1_555 1_555
C3 C2 1_555 1_555
H4 C3 1_555 1_555
C4 C3 1_555 1_555
C5 C4 1_555 1_555
H5 C5 1_555 1_555
H6 C5 1_555 1_555
H7 C5 1_555 1_555
C6 C7 1_555 1_555
C7 C8 1_555 1_555
C8 H8 1_555 1_555
C9 C8 1_555 1_555
H9 C9 1_555 1_555
C10 C9 1_555 1_555
H10 C10 1_555 1_555
C11 C6 1_555 1_555
C12 C7 1_555 1_555
H11 C12 1_555 1_555
C13 C12 1_555 1_555
H12 C13 1_555 1_555
H13 C13 1_555 1_555
H14 C13 1_555 1_555
C14 C12 1_555 1_555
H15 C14 1_555 1_555
H16 C14 1_555 1_555
H17 C14 1_555 1_555
C15 C11 1_555 1_555
H18 C15 1_555 1_555
C16 C15 1_555 1_555
H19 C16 1_555 1_555
H20 C16 1_555 1_555
H21 C16 1_555 1_555
C17 C15 1_555 1_555
H22 C17 1_555 1_555
H23 C17 1_555 1_555
H24 C17 1_555 1_555
C18 H25 1_555 1_555
H26 C18 1_555 1_555
H27 C18 1_555 1_555
C19 H28 1_555 1_555
H29 C19 1_555 1_555
H30 C19 1_555 1_555
C20 H31 1_555 1_555
H32 C20 1_555 1_555
H33 C20 1_555 1_555
C21 H34 1_555 1_555
H35 C21 1_555 1_555
H36 C21 1_555 1_555
C22 H37 1_555 1_555
H38 C22 1_555 1_555
H39 C22 1_555 1_555
C23 H40 1_555 1_555
H41 C23 1_555 1_555
H42 C23 1_555 1_555
Mg1 N1 1_555 1_555
N1 C4 1_555 1_555
N2 Mg1 1_555 1_555
O1 C2 1_555 1_555
Si1 C18 1_555 1_555
Si2 C21 1_555 1_555
C1A H1A 1_555 1_555
H2A C1A 1_555 1_555
H3A C1A 1_555 1_555
C2A C1A 1_555 1_555
C3A C2A 1_555 1_555
H4A C3A 1_555 1_555
C4A C3A 1_555 1_555
C5A C4A 1_555 1_555
H5A C5A 1_555 1_555
H6A C5A 1_555 1_555
H7A C5A 1_555 1_555
C6A C7A 1_555 1_555
C7A C8A 1_555 1_555
C8A H8A 1_555 1_555
C9A C8A 1_555 1_555
H9A C9A 1_555 1_555
C10A C9A 1_555 1_555
H10A C10A 1_555 1_555
C11A C6A 1_555 1_555
C12A C7A 1_555 1_555
H11A C12A 1_555 1_555
C13A C12A 1_555 1_555
H12A C13A 1_555 1_555
H13A C13A 1_555 1_555
H14A C13A 1_555 1_555
C14A C12A 1_555 1_555
H15A C14A 1_555 1_555
H16A C14A 1_555 1_555
H17A C14A 1_555 1_555
C15A C11A 1_555 1_555
H18A C15A 1_555 1_555
C16A C15A 1_555 1_555
H19A C16A 1_555 1_555
H20A C16A 1_555 1_555
H21A C16A 1_555 1_555
C17A C15A 1_555 1_555
H22A C17A 1_555 1_555
H23A C17A 1_555 1_555
H24A C17A 1_555 1_555
C18A H25A 1_555 1_555
H26A C18A 1_555 1_555
H27A C18A 1_555 1_555
C19A H28A 1_555 1_555
H29A C19A 1_555 1_555
H30A C19A 1_555 1_555
C20A H31A 1_555 1_555
H32A C20A 1_555 1_555
H33A C20A 1_555 1_555
C21A H34A 1_555 1_555
H35A C21A 1_555 1_555
H36A C21A 1_555 1_555
C22A H37A 1_555 1_555
H38A C22A 1_555 1_555
H39A C22A 1_555 1_555
C23A H40A 1_555 1_555
H41A C23A 1_555 1_555
H42A C23A 1_555 1_555
Mg1A O1 1_555 1_555
N1A C4A 1_555 1_555
N2A Mg1A 1_555 1_555
O1A Mg1 1_555 1_555
Si1A C18A 1_555 1_555
Si2A C21A 1_555 1_555
C6 N1 1_555 1_555
C10 C11 1_555 1_555
C19 Si1 1_555 1_555
C20 Si1 1_555 1_555
C22 Si2 1_555 1_555
C23 Si2 1_555 1_555
Mg1 O1 1_555 1_555
N2 Si1 1_555 1_555
N2 Si2 1_555 1_555
C2A O1A 1_555 1_555
C6A N1A 1_555 1_555
C10A C11A 1_555 1_555
C19A Si1A 1_555 1_555
C20A Si1A 1_555 1_555
C22A Si2A 1_555 1_555
C23A Si2A 1_555 1_555
Mg1A N1A 1_555 1_555
Mg1A O1A 1_555 1_555
N2A Si1A 1_555 1_555
N2A Si2A 1_555 1_555

#END
