
#######################################################################
#
#                 Cambridge Crystallographic Data Centre
#                                CCDC 
#
#######################################################################
#
# If this CIF has been generated from an entry in the Cambridge 
# Structural Database, then it will include bibliographic, chemical, 
# crystal, experimental, refinement or atomic coordinate data resulting 
# from the CCDC's data processing and validation procedures.
#
#######################################################################

data_NARZIP
_chemical_formula_moiety         'C120,4(C6 H4 Cl2)'
_chemical_name_systematic        
"1,6':1',6-bis(C60Fullerene) 1,2-dichlorobenzene solvate"
_symmetry_cell_setting           triclinic
_symmetry_space_group_name_H-M   'P -1'
_symmetry_Int_Tables_number      2
_space_group_name_Hall           '-P 1'
loop_
_symmetry_equiv_pos_site_id
_symmetry_equiv_pos_as_xyz
1 x,y,z
2 -x,-y,-z
_cell_length_a                   11.141(6)
_cell_length_b                   17.942(10)
_cell_length_c                   10.100(4)
_cell_angle_alpha                97.20(4)
_cell_angle_beta                 103.30(4)
_cell_angle_gamma                94.39(6)
_cell_volume                     1937.62
_exptl_crystal_colour            black
_exptl_crystal_description       prism
_cell_formula_units_Z            1
loop_
_atom_site_label
_atom_site_type_symbol
_atom_site_fract_x
_atom_site_fract_y
_atom_site_fract_z
Cl1 Cl 0.4182(3) 0.2391(2) 0.2301(3)
Cl2 Cl 0.5748(3) 0.3012(2) 0.0363(3)
C1 C 0.4486(7) 0.3338(3) 0.2305(7)
C2 C 0.5157(7) 0.3613(4) 0.1427(7)
C3 C 0.5364(7) 0.4389(4) 0.1426(8)
C4 C 0.4900(8) 0.4892(3) 0.2303(9)
C5 C 0.4229(7) 0.4617(4) 0.3181(7)
C6 C 0.4022(6) 0.3841(4) 0.3182(7)
Cl3 Cl 0.4225(4) 0.0404(2) 1.6445(4)
Cl4 Cl 0.6163(4) -0.0749(2) 1.6278(5)
C7 C 0.5340(9) 0.0340(6) 1.7867(9)
C8 C 0.620(1) -0.0179(6) 1.7808(9)
C9 C 0.7141(9) -0.0219(6) 1.897(1)
C10 C 0.7213(9) 0.0258(6) 2.0196(9)
C11 C 0.635(1) 0.0777(6) 2.0255(9)
C12 C 0.5412(9) 0.0818(6) 1.909(1)
C13 C 1.0042(5) 0.4404(3) 0.4563(5)
C14 C 0.8996(5) 0.3794(3) 0.3794(5)
C15 C 0.9495(6) 0.3152(3) 0.3189(5)
C16 C 1.0837(6) 0.3257(3) 0.3726(6)
C17 C 1.1159(5) 0.3956(3) 0.4658(5)
C18 C 0.9883(5) 0.4813(3) 0.5983(5)
C19 C 1.0856(5) 0.4703(3) 0.7256(5)
C20 C 1.0287(6) 0.4590(3) 0.8361(6)
C21 C 0.8955(5) 0.4493(3) 0.7804(6)
C22 C 0.8701(5) 0.4549(3) 0.6398(6)
C23 C 1.2992(5) 0.3327(4) 0.7574(6)
C24 C 1.2721(5) 0.3351(4) 0.6120(7)
C25 C 1.2066(5) 0.3995(3) 0.5842(6)
C26 C 1.1914(5) 0.4377(3) 0.7170(6)
C27 C 1.2488(5) 0.3961(3) 0.8231(6)
C28 C 1.2928(6) 0.2642(4) 0.8082(7)
C29 C 1.2386(6) 0.2546(4) 0.9212(7)
C30 C 1.1714(6) 0.1796(4) 0.8948(6)
C31 C 1.1859(7) 0.1423(4) 0.7639(7)
C32 C 1.2633(6) 0.1948(4) 0.7114(7)
C33 C 0.9581(7) 0.1202(3) 0.8387(6)
C34 C 1.0593(6) 0.1680(3) 0.9296(6)
C35 C 1.0092(6) 0.2319(3) 0.9960(5)
C36 C 0.8757(6) 0.2227(3) 0.9436(6)
C37 C 0.8440(7) 0.1527(3) 0.8429(6)
C38 C 0.9710(7) 0.0843(3) 0.7131(6)
C39 C 0.8736(7) 0.0797(3) 0.5908(6)
C40 C 0.9296(8) 0.0880(3) 0.4746(7)
C41 C 1.0645(7) 0.0980(3) 0.5302(7)
C42 C 1.0895(7) 0.0948(3) 0.6761(7)
C43 C 0.6582(6) 0.2169(4) 0.5521(7)
C44 C 0.6831(6) 0.2146(4) 0.6974(7)
C45 C 0.7498(6) 0.1499(3) 0.7242(7)
C46 C 0.7633(7) 0.1115(3) 0.5948(7)
C47 C 0.7092(6) 0.1527(3) 0.4887(6)
C48 C 0.6683(5) 0.2850(4) 0.5055(6)
C49 C 0.7239(6) 0.2941(3) 0.3932(6)
C50 C 0.7915(5) 0.3696(3) 0.4188(6)
C51 C 0.7751(5) 0.4078(3) 0.5497(6)
C52 C 0.6974(5) 0.3551(3) 0.6024(6)
C53 C 0.8788(6) 0.3592(3) 0.9426(6)
C54 C 0.8120(6) 0.2842(3) 0.9161(6)
C55 C 0.7133(6) 0.2802(4) 0.7899(6)
C56 C 0.7211(5) 0.3533(3) 0.7428(6)
C57 C 0.8213(6) 0.4013(3) 0.8351(6)
C58 C 1.0057(6) 0.3684(3) 0.9933(5)
C59 C 1.0838(6) 0.4201(3) 0.9401(5)
C60 C 1.1965(6) 0.3884(3) 0.9326(6)
C61 C 1.1905(6) 0.3151(4) 0.9820(6)
C62 C 1.0738(6) 0.3034(3) 1.0220(5)
C63 C 1.0800(8) 0.1882(4) 0.3706(7)
C64 C 1.1460(6) 0.2639(3) 0.3988(6)
C65 C 1.2436(6) 0.2680(3) 0.5206(7)
C66 C 1.2390(7) 0.1967(4) 0.5727(7)
C67 C 1.1379(8) 0.1471(4) 0.4787(7)
C68 C 0.9513(8) 0.1790(3) 0.3196(6)
C69 C 0.8757(8) 0.1278(4) 0.3733(6)
C70 C 0.7616(7) 0.1606(4) 0.3817(6)
C71 C 0.7706(6) 0.2339(3) 0.3302(6)
C72 C 0.8854(7) 0.2446(3) 0.2914(6)
C13A C 0.9958(5) 0.5596(3) 0.5437(5)
C14A C 1.1004(5) 0.6206(3) 0.6206(5)
C15A C 1.0505(6) 0.6848(3) 0.6811(5)
C16A C 0.9163(6) 0.6743(3) 0.6274(6)
C17A C 0.8841(5) 0.6044(3) 0.5342(5)
C18A C 1.0117(5) 0.5187(3) 0.4017(5)
C19A C 0.9144(5) 0.5297(3) 0.2744(5)
C20A C 0.9713(6) 0.5410(3) 0.1639(6)
C21A C 1.1045(5) 0.5507(3) 0.2196(6)
C22A C 1.1299(5) 0.5451(3) 0.3602(6)
C51A C 1.2249(5) 0.5922(3) 0.4503(6)
C50A C 1.2085(5) 0.6304(3) 0.5812(6)
C49A C 1.2761(6) 0.7059(3) 0.6068(6)
C48A C 1.3317(5) 0.7150(4) 0.4945(6)
C43A C 1.3418(6) 0.7831(4) 0.4479(7)
C44A C 1.3169(6) 0.7854(4) 0.3026(7)
C45A C 1.2502(6) 0.8501(3) 0.2758(7)
C37A C 1.1560(7) 0.8473(3) 0.1571(6)
C33A C 1.0419(7) 0.8798(3) 0.1613(6)
C34A C 0.9407(6) 0.8320(3) 0.0704(6)
C30A C 0.8286(6) 0.8204(4) 0.1052(6)
C29A C 0.7614(6) 0.7454(4) 0.0788(7)
C28A C 0.7072(6) 0.7358(4) 0.1918(7)
C23A C 0.7008(5) 0.6673(4) 0.2426(6)
C24A C 0.7279(5) 0.6649(4) 0.3880(7)
C25A C 0.7934(5) 0.6005(3) 0.4158(6)
C26A C 0.8086(5) 0.5623(3) 0.2830(6)
C27A C 0.7512(5) 0.6039(3) 0.1769(6)
C60A C 0.8035(6) 0.6116(3) 0.0674(6)
C59A C 0.9162(6) 0.5799(3) 0.0599(5)
C58A C 0.9943(6) 0.6316(3) 0.0067(5)
C53A C 1.1212(6) 0.6408(3) 0.0574(6)
C54A C 1.1880(6) 0.7158(3) 0.0839(6)
C36A C 1.1243(6) 0.7773(3) 0.0564(6)
C35A C 0.9908(6) 0.7681(3) 0.0040(5)
C62A C 0.9262(6) 0.6966(3) -0.0220(5)
C61A C 0.8095(6) 0.6849(4) 0.0180(6)
C55A C 1.2867(6) 0.7198(4) 0.2101(6)
C56A C 1.2789(5) 0.6467(3) 0.2572(6)
C52A C 1.3026(5) 0.6449(3) 0.3976(6)
C57A C 1.1787(6) 0.5987(3) 0.1649(6)
C65A C 0.7564(6) 0.7320(3) 0.4794(7)
C64A C 0.8540(6) 0.7361(3) 0.6012(6)
C63A C 0.9200(8) 0.8118(4) 0.6294(7)
C67A C 0.8621(8) 0.8529(4) 0.5213(7)
C41A C 0.9355(7) 0.9020(3) 0.4698(7)
C40A C 1.0704(8) 0.9120(3) 0.5254(7)
C39A C 1.1264(7) 0.9203(3) 0.4092(6)
C38A C 1.0290(7) 0.9157(3) 0.2869(6)
C42A C 0.9105(7) 0.9052(3) 0.3239(7)
C31A C 0.8141(7) 0.8577(4) 0.2361(7)
C32A C 0.7367(6) 0.8052(4) 0.2886(7)
C66A C 0.7610(7) 0.8033(4) 0.4273(7)
C46A C 1.2367(7) 0.8885(3) 0.4052(7)
C47A C 1.2908(6) 0.8473(3) 0.5113(6)
C70A C 1.2384(7) 0.8394(4) 0.6183(6)
C69A C 1.1243(8) 0.8722(4) 0.6267(6)
C68A C 1.0487(8) 0.8210(3) 0.6804(6)
C72A C 1.1146(7) 0.7554(3) 0.7086(6)
C71A C 1.2294(6) 0.7661(3) 0.6698(6)
Cl5? Cl 0.4685(7) 0.4856(4) 1.2644(8)
Cl6? Cl 0.5992(5) 0.4156(3) 1.0372(6)
Cl7? Cl 0.8159(4) 0.0229(2) 1.0645(4)
Cl8? Cl 0.7460(4) -0.0746(2) 0.7734(5)
C73? C 0.469(1) 0.3894(5) 1.226(1)
C74? C 0.525(1) 0.3582(7) 1.125(1)
C75? C 0.523(1) 0.2800(7) 1.096(1)
C76? C 0.465(1) 0.2329(5) 1.168(2)
C77? C 0.409(1) 0.2641(7) 1.269(2)
C78? C 0.411(1) 0.3423(8) 1.298(1)
C79? C 0.6777(8) 0.0303(6) 0.9495(9)
C80? C 0.6450(9) -0.0131(6) 0.819(1)
C81? C 0.5340(9) -0.0051(6) 0.7273(8)
C82? C 0.4556(8) 0.0462(6) 0.7655(9)
C83? C 0.4883(9) 0.0895(6) 0.896(1)
C84? C 0.5994(9) 0.0816(8) 0.9877(8)
loop_
_geom_bond_atom_site_label_1
_geom_bond_atom_site_label_2
_geom_bond_site_symmetry_1
_geom_bond_site_symmetry_2
Cl1 C1 1_555 1_555
Cl2 C2 1_555 1_555
C1 C2 1_555 1_555
C2 C3 1_555 1_555
C3 C4 1_555 1_555
C4 C5 1_555 1_555
C5 C6 1_555 1_555
C6 C1 1_555 1_555
Cl3 C7 1_555 1_555
Cl4 C8 1_555 1_555
C7 C8 1_555 1_555
C8 C9 1_555 1_555
C9 C10 1_555 1_555
C10 C11 1_555 1_555
C11 C12 1_555 1_555
C12 C7 1_555 1_555
C13 C14 1_555 1_555
C14 C15 1_555 1_555
C15 C16 1_555 1_555
C16 C17 1_555 1_555
C17 C13 1_555 1_555
C18 C13 1_555 1_555
C19 C18 1_555 1_555
C20 C19 1_555 1_555
C21 C20 1_555 1_555
C22 C18 1_555 1_555
C23 C24 1_555 1_555
C24 C25 1_555 1_555
C25 C17 1_555 1_555
C26 C19 1_555 1_555
C27 C23 1_555 1_555
C28 C23 1_555 1_555
C29 C28 1_555 1_555
C30 C29 1_555 1_555
C31 C30 1_555 1_555
C32 C28 1_555 1_555
C33 C34 1_555 1_555
C34 C30 1_555 1_555
C35 C34 1_555 1_555
C36 C35 1_555 1_555
C37 C33 1_555 1_555
C38 C33 1_555 1_555
C39 C38 1_555 1_555
C40 C39 1_555 1_555
C41 C40 1_555 1_555
C42 C31 1_555 1_555
C43 C44 1_555 1_555
C44 C45 1_555 1_555
C45 C37 1_555 1_555
C46 C39 1_555 1_555
C47 C43 1_555 1_555
C48 C43 1_555 1_555
C49 C48 1_555 1_555
C50 C14 1_555 1_555
C51 C22 1_555 1_555
C52 C48 1_555 1_555
C53 C54 1_555 1_555
C54 C36 1_555 1_555
C55 C44 1_555 1_555
C56 C52 1_555 1_555
C57 C21 1_555 1_555
C58 C53 1_555 1_555
C59 C20 1_555 1_555
C60 C27 1_555 1_555
C61 C29 1_555 1_555
C62 C35 1_555 1_555
C63 C64 1_555 1_555
C64 C16 1_555 1_555
C65 C24 1_555 1_555
C66 C32 1_555 1_555
C67 C41 1_555 1_555
C68 C63 1_555 1_555
C69 C40 1_555 1_555
C70 C47 1_555 1_555
C71 C49 1_555 1_555
C72 C15 1_555 1_555
C13A C18 1_555 1_555
C14A C13A 1_555 1_555
C15A C14A 1_555 1_555
C16A C15A 1_555 1_555
C17A C13A 1_555 1_555
C18A C13 1_555 1_555
C19A C18A 1_555 1_555
C20A C19A 1_555 1_555
C21A C20A 1_555 1_555
C22A C18A 1_555 1_555
C51A C22A 1_555 1_555
C50A C14A 1_555 1_555
C49A C50A 1_555 1_555
C48A C49A 1_555 1_555
C43A C48A 1_555 1_555
C44A C43A 1_555 1_555
C45A C44A 1_555 1_555
C37A C45A 1_555 1_555
C33A C37A 1_555 1_555
C34A C33A 1_555 1_555
C30A C34A 1_555 1_555
C29A C30A 1_555 1_555
C28A C29A 1_555 1_555
C23A C28A 1_555 1_555
C24A C23A 1_555 1_555
C25A C17A 1_555 1_555
C26A C19A 1_555 1_555
C27A C23A 1_555 1_555
C60A C27A 1_555 1_555
C59A C20A 1_555 1_555
C58A C59A 1_555 1_555
C53A C58A 1_555 1_555
C54A C53A 1_555 1_555
C36A C37A 1_555 1_555
C35A C34A 1_555 1_555
C62A C58A 1_555 1_555
C61A C29A 1_555 1_555
C55A C44A 1_555 1_555
C56A C55A 1_555 1_555
C52A C51A 1_555 1_555
C57A C21A 1_555 1_555
C65A C24A 1_555 1_555
C64A C16A 1_555 1_555
C63A C64A 1_555 1_555
C67A C63A 1_555 1_555
C41A C67A 1_555 1_555
C40A C41A 1_555 1_555
C39A C40A 1_555 1_555
C38A C33A 1_555 1_555
C42A C41A 1_555 1_555
C31A C30A 1_555 1_555
C32A C28A 1_555 1_555
C66A C65A 1_555 1_555
C46A C45A 1_555 1_555
C47A C43A 1_555 1_555
C70A C47A 1_555 1_555
C69A C40A 1_555 1_555
C68A C63A 1_555 1_555
C72A C15A 1_555 1_555
C71A C49A 1_555 1_555
C21 C22 1_555 1_555
C25 C26 1_555 1_555
C26 C27 1_555 1_555
C31 C32 1_555 1_555
C36 C37 1_555 1_555
C38 C42 1_555 1_555
C41 C42 1_555 1_555
C45 C46 1_555 1_555
C46 C47 1_555 1_555
C49 C50 1_555 1_555
C50 C51 1_555 1_555
C51 C52 1_555 1_555
C53 C57 1_555 1_555
C54 C55 1_555 1_555
C55 C56 1_555 1_555
C56 C57 1_555 1_555
C58 C59 1_555 1_555
C58 C62 1_555 1_555
C59 C60 1_555 1_555
C60 C61 1_555 1_555
C61 C62 1_555 1_555
C63 C67 1_555 1_555
C64 C65 1_555 1_555
C65 C66 1_555 1_555
C66 C67 1_555 1_555
C68 C69 1_555 1_555
C68 C72 1_555 1_555
C69 C70 1_555 1_555
C70 C71 1_555 1_555
C71 C72 1_555 1_555
C13A C18A 1_555 1_555
C16A C17A 1_555 1_555
C21A C22A 1_555 1_555
C51A C50A 1_555 1_555
C48A C52A 1_555 1_555
C24A C25A 1_555 1_555
C25A C26A 1_555 1_555
C26A C27A 1_555 1_555
C60A C59A 1_555 1_555
C60A C61A 1_555 1_555
C53A C57A 1_555 1_555
C54A C36A 1_555 1_555
C54A C55A 1_555 1_555
C36A C35A 1_555 1_555
C35A C62A 1_555 1_555
C62A C61A 1_555 1_555
C56A C52A 1_555 1_555
C56A C57A 1_555 1_555
C65A C64A 1_555 1_555
C67A C66A 1_555 1_555
C39A C38A 1_555 1_555
C39A C46A 1_555 1_555
C38A C42A 1_555 1_555
C42A C31A 1_555 1_555
C31A C32A 1_555 1_555
C32A C66A 1_555 1_555
C46A C47A 1_555 1_555
C70A C69A 1_555 1_555
C70A C71A 1_555 1_555
C69A C68A 1_555 1_555
C68A C72A 1_555 1_555
C72A C71A 1_555 1_555

#END
