
#######################################################################
#
#                 Cambridge Crystallographic Data Centre
#                                CCDC 
#
#######################################################################
#
# If this CIF has been generated from an entry in the Cambridge 
# Structural Database, then it will include bibliographic, chemical, 
# crystal, experimental, refinement or atomic coordinate data resulting 
# from the CCDC's data processing and validation procedures.
#
#######################################################################

data_NASLUR
_chemical_formula_moiety         'C31 H16 F6 N2,H2 O1'
_chemical_name_systematic        
"5,14-bis(trifluoromethyl)-9H,18H-9,18-methanocycloocta[1,2,3-gh:5,6,7-g'h']diphenanthridine monohydrate"
_symmetry_cell_setting           orthorhombic
_symmetry_space_group_name_H-M   'P 21 21 21'
_symmetry_Int_Tables_number      19
_space_group_name_Hall           'P 2ac 2ab'
loop_
_symmetry_equiv_pos_site_id
_symmetry_equiv_pos_as_xyz
1 x,y,z
2 1/2-x,-y,1/2+z
3 1/2+x,1/2-y,-z
4 -x,1/2+y,1/2-z
_cell_length_a                   8.66970(10)
_cell_length_b                   9.98220(10)
_cell_length_c                   27.1306(4)
_cell_angle_alpha                90
_cell_angle_beta                 90
_cell_angle_gamma                90
_cell_volume                     2347.95
_exptl_crystal_description       block
_cell_formula_units_Z            4
loop_
_atom_site_label
_atom_site_type_symbol
_atom_site_fract_x
_atom_site_fract_y
_atom_site_fract_z
N1 N 0.3326(4) 0.7190(3) 0.05706(12)
N2 N 0.3790(4) 0.1992(3) -0.05884(12)
C1 C 0.3951(4) 0.3223(4) -0.04326(13)
C2 C 0.3708(4) 0.6007(4) 0.04133(13)
C3 C 0.3261(5) 0.4365(4) -0.06695(13)
C4 C 0.4903(4) 0.3458(4) 0.00278(14)
H1 H 0.5643 0.2723 0.0066
C5 C 0.2947(5) 0.1769(4) -0.10122(14)
C6 C 0.3324(4) 0.4767(4) 0.06587(13)
C7 C 0.1078(5) 0.6328(4) 0.16922(15)
H2 H 0.0722 0.5590 0.1867
C8 C 0.2456(5) 0.7266(4) 0.10043(14)
C9 C 0.3480(5) 0.2368(4) 0.07266(15)
H3 H 0.3832 0.1543 0.0613
C10 C 0.2029(5) 0.3616(4) 0.13244(15)
H4 H 0.1406 0.3632 0.1603
C11 C 0.2419(4) 0.4822(4) 0.10892(14)
C12 C 0.2739(6) 0.6731(4) -0.07055(16)
H5 H 0.2884 0.7594 -0.0585
C13 C 0.2555(6) 0.2427(4) 0.11477(16)
H6 H 0.2294 0.1639 0.1310
C14 C 0.5786(5) 0.4775(5) -0.00274(15)
H7 H 0.6421 0.4750 -0.0322
H8 H 0.6453 0.4913 0.0255
C15 C 0.3521(5) 0.5673(4) -0.04912(14)
C16 C 0.0728(5) 0.7592(5) 0.18528(15)
C17 C 0.2860(6) 0.0446(4) -0.11903(16)
H9 H 0.3382 -0.0229 -0.1023
C18 C -0.0196(6) 0.7776(5) 0.23075(19)
C19 C 0.2108(6) 0.8553(4) 0.11810(16)
H10 H 0.2469 0.9302 0.1013
C20 C 0.1311(5) 0.2450(5) -0.16888(16)
H11 H 0.0779 0.3112 -0.1860
C21 C 0.1968(5) 0.6135(4) 0.12651(14)
C22 C 0.1738(6) 0.6521(5) -0.10998(18)
H12 H 0.1205 0.7240 -0.1235
C23 C 0.1259(6) 0.1161(5) -0.18517(16)
C24 C 0.4614(5) 0.5918(4) -0.00644(14)
H13 H 0.5164 0.6764 -0.0118
C25 C 0.2284(5) 0.4148(4) -0.10826(14)
C26 C 0.2038(6) 0.0132(5) -0.15986(17)
H14 H 0.1988 -0.0748 -0.1710
C27 C 0.3874(4) 0.3516(4) 0.04796(13)
C28 C 0.0367(7) 0.0797(6) -0.2307(2)
C29 C 0.1531(6) 0.5249(5) -0.12907(16)
H15 H 0.0884 0.5125 -0.1560
C30 C 0.1245(6) 0.8714(4) 0.15977(17)
H16 H 0.1004 0.9569 0.1710
C31 C 0.2158(5) 0.2794(4) -0.12662(14)
F1 F -0.0178(11) 0.1844(6) -0.2550(3)
F2 F -0.0811(6) 0.0012(7) -0.22218(17)
F3 F 0.1204(5) 0.0090(7) -0.26281(14)
F4 F -0.0831(19) 0.6711(9) 0.2494(4)
F5 F -0.1402(10) 0.8565(15) 0.2251(3)
F6 F 0.0488(8) 0.8477(10) 0.2640(2)
O1 O 0.4954(6) -0.0532(6) -0.0085(3)
H17 H 0.434(10) -0.086(10) 0.014(3)
H18 H 0.463(11) 0.025(5) -0.019(4)
F7? F -0.082(9) 0.122(6) -0.230(2)
F8? F 0.093(5) 0.125(6) -0.2647(13)
F9? F 0.029(5) -0.070(5) -0.2401(14)
F10? F -0.146(5) 0.734(2) 0.2286(10)
F11? F -0.042(2) 0.903(3) 0.2429(7)
F12? F 0.0455(17) 0.712(2) 0.2700(4)
loop_
_geom_bond_atom_site_label_1
_geom_bond_atom_site_label_2
_geom_bond_site_symmetry_1
_geom_bond_site_symmetry_2
N1 C2 1_555 1_555
N2 C1 1_555 1_555
C1 C3 1_555 1_555
C2 C6 1_555 1_555
C3 C15 1_555 1_555
C4 C1 1_555 1_555
H1 C4 1_555 1_555
C5 N2 1_555 1_555
C6 C11 1_555 1_555
C7 H2 1_555 1_555
C8 N1 1_555 1_555
C9 H3 1_555 1_555
C10 H4 1_555 1_555
C11 C10 1_555 1_555
C12 H5 1_555 1_555
C13 C9 1_555 1_555
H6 C13 1_555 1_555
C14 C4 1_555 1_555
H7 C14 1_555 1_555
H8 C14 1_555 1_555
C15 C12 1_555 1_555
C16 C7 1_555 1_555
C17 C5 1_555 1_555
H9 C17 1_555 1_555
C18 C16 1_555 1_555
C19 C8 1_555 1_555
H10 C19 1_555 1_555
C20 H11 1_555 1_555
C21 C7 1_555 1_555
C22 C12 1_555 1_555
H12 C22 1_555 1_555
C23 C20 1_555 1_555
C24 C2 1_555 1_555
H13 C24 1_555 1_555
C25 C3 1_555 1_555
C26 C17 1_555 1_555
H14 C26 1_555 1_555
C27 C4 1_555 1_555
C28 C23 1_555 1_555
C29 C22 1_555 1_555
H15 C29 1_555 1_555
C30 C16 1_555 1_555
H16 C30 1_555 1_555
C31 C5 1_555 1_555
F1 C28 1_555 1_555
F2 C28 1_555 1_555
F3 C28 1_555 1_555
F4 C18 1_555 1_555
F5 C18 1_555 1_555
F6 C18 1_555 1_555
O1 H17 1_555 1_555
H18 O1 1_555 1_555
C6 C27 1_555 1_555
C8 C21 1_555 1_555
C9 C27 1_555 1_555
C10 C13 1_555 1_555
C11 C21 1_555 1_555
C14 C24 1_555 1_555
C15 C24 1_555 1_555
C19 C30 1_555 1_555
C20 C31 1_555 1_555
C23 C26 1_555 1_555
C25 C29 1_555 1_555
C25 C31 1_555 1_555

#END
