
#######################################################################
#
#                 Cambridge Crystallographic Data Centre
#                                CCDC 
#
#######################################################################
#
# If this CIF has been generated from an entry in the Cambridge 
# Structural Database, then it will include bibliographic, chemical, 
# crystal, experimental, refinement or atomic coordinate data resulting 
# from the CCDC's data processing and validation procedures.
#
#######################################################################

data_NASMEA
_chemical_formula_moiety         'C21 H19 Cl2 N1 O3'
_chemical_name_systematic        
'(R)-\a-Cyano(6-methoxynaphthalen-2-yl)methyl (1S)-trans-3-(2,2-dichlorovinyl)-2,2-dimethylcyclopropanecarboxylate'
_symmetry_cell_setting           orthorhombic
_symmetry_space_group_name_H-M   'P 21 21 21'
_symmetry_Int_Tables_number      19
_space_group_name_Hall           'P 2ac 2ab'
loop_
_symmetry_equiv_pos_site_id
_symmetry_equiv_pos_as_xyz
1 x,y,z
2 1/2-x,-y,1/2+z
3 -x,1/2+y,1/2-z
4 1/2+x,1/2-y,-z
_cell_length_a                   6.1214(7)
_cell_length_b                   10.1587(12)
_cell_length_c                   31.893(4)
_cell_angle_alpha                90
_cell_angle_beta                 90
_cell_angle_gamma                90
_cell_volume                     1983.28
_exptl_crystal_colour            colorless
_exptl_crystal_description       needle
_chemical_melting_point          '94-95 deg.C'
_cell_formula_units_Z            4
loop_
_atom_site_label
_atom_site_type_symbol
_atom_site_fract_x
_atom_site_fract_y
_atom_site_fract_z
Cl1 Cl 0.27455(6) 0.53840(4) 0.133162(11)
Cl2 Cl 0.29805(7) 0.27886(4) 0.096098(11)
O1 O 0.48150(18) -0.13384(10) 0.53238(3)
O2 O 0.45635(17) 0.34547(10) 0.31914(3)
O3 O 0.43146(18) 0.54315(10) 0.28751(3)
N1 N -0.0496(2) 0.45585(17) 0.34328(4)
C1 C 0.6830(3) -0.12447(16) 0.55468(5)
H1 H 0.6885 -0.1929 0.5763
H2 H 0.6938 -0.0376 0.5679
H3 H 0.8049 -0.1364 0.5351
C2 C 0.4413(2) -0.03968(15) 0.50254(4)
C3 C 0.2386(2) -0.05515(14) 0.48168(4)
H4 H 0.1435 -0.1250 0.4894
C4 C 0.1791(2) 0.02996(15) 0.45046(4)
H5 H 0.0430 0.0186 0.4366
C5 C 0.3190(2) 0.13527(14) 0.43853(4)
C6 C 0.5196(2) 0.15196(14) 0.46046(4)
C7 C 0.5791(2) 0.06211(14) 0.49275(4)
H6 H 0.7131 0.0726 0.5074
C8 C 0.6573(2) 0.25824(14) 0.44921(4)
H7 H 0.7885 0.2728 0.4644
C9 C 0.6036(2) 0.34056(15) 0.41663(4)
H8 H 0.6981 0.4113 0.4095
C10 C 0.4084(2) 0.32061(15) 0.39367(4)
C11 C 0.2674(2) 0.22149(14) 0.40497(4)
H9 H 0.1340 0.2106 0.3901
C12 C 0.3665(2) 0.40874(15) 0.35626(4)
H10 H 0.4433 0.4945 0.3607
C13 C 0.1307(3) 0.43498(16) 0.34899(5)
C14 C 0.4845(2) 0.42891(14) 0.28604(4)
C15 C 0.5799(2) 0.35927(14) 0.24988(4)
H11 H 0.5769 0.2609 0.2512
C16 C 0.7675(2) 0.42004(13) 0.22451(4)
C17 C 0.5399(2) 0.42013(14) 0.20655(4)
H12 H 0.4654 0.5077 0.2071
C18 C 0.8657(3) 0.55081(15) 0.23686(5)
H13 H 0.9312 0.5925 0.2122
H14 H 0.9784 0.5368 0.2582
H15 H 0.7512 0.6080 0.2482
C19 C 0.9307(2) 0.32283(16) 0.20701(5)
H16 H 0.9802 0.3528 0.1794
H17 H 0.8616 0.2362 0.2043
H18 H 1.0562 0.3165 0.2260
C20 C 0.4805(2) 0.33627(15) 0.17069(4)
H19 H 0.5242 0.2465 0.1712
C21 C 0.3698(2) 0.37876(15) 0.13777(4)
loop_
_geom_bond_atom_site_label_1
_geom_bond_atom_site_label_2
_geom_bond_site_symmetry_1
_geom_bond_site_symmetry_2
Cl1 C21 1_555 1_555
Cl2 C21 1_555 1_555
O1 C1 1_555 1_555
O2 C12 1_555 1_555
O3 C14 1_555 1_555
N1 C13 1_555 1_555
C1 H1 1_555 1_555
H2 C1 1_555 1_555
H3 C1 1_555 1_555
C2 O1 1_555 1_555
C3 C2 1_555 1_555
H4 C3 1_555 1_555
C4 C3 1_555 1_555
H5 C4 1_555 1_555
C5 C4 1_555 1_555
C6 C5 1_555 1_555
C7 C2 1_555 1_555
H6 C7 1_555 1_555
C8 C6 1_555 1_555
H7 C8 1_555 1_555
C9 C8 1_555 1_555
H8 C9 1_555 1_555
C10 C9 1_555 1_555
C11 C5 1_555 1_555
H9 C11 1_555 1_555
C12 C10 1_555 1_555
H10 C12 1_555 1_555
C13 C12 1_555 1_555
C14 O2 1_555 1_555
C15 C14 1_555 1_555
H11 C15 1_555 1_555
C16 C15 1_555 1_555
C17 C15 1_555 1_555
H12 C17 1_555 1_555
C18 C16 1_555 1_555
H13 C18 1_555 1_555
H14 C18 1_555 1_555
H15 C18 1_555 1_555
C19 C16 1_555 1_555
H16 C19 1_555 1_555
H17 C19 1_555 1_555
H18 C19 1_555 1_555
C20 C17 1_555 1_555
H19 C20 1_555 1_555
C21 C20 1_555 1_555
C6 C7 1_555 1_555
C10 C11 1_555 1_555
C16 C17 1_555 1_555

#END
