
#######################################################################
#
#                 Cambridge Crystallographic Data Centre
#                                CCDC 
#
#######################################################################
#
# If this CIF has been generated from an entry in the Cambridge 
# Structural Database, then it will include bibliographic, chemical, 
# crystal, experimental, refinement or atomic coordinate data resulting 
# from the CCDC's data processing and validation procedures.
#
#######################################################################

data_NATLEB
_chemical_formula_moiety         'C12 H22 F2'
_chemical_name_systematic        1,1-Difluorocyclododecane
_symmetry_cell_setting           triclinic
_symmetry_space_group_name_H-M   'P 1'
_symmetry_Int_Tables_number      1
_space_group_name_Hall           'P 1'
loop_
_symmetry_equiv_pos_site_id
_symmetry_equiv_pos_as_xyz
1 x,y,z
_cell_length_a                   5.560(4)
_cell_length_b                   7.559(7)
_cell_length_c                   8.004(7)
_cell_angle_alpha                62.82(4)
_cell_angle_beta                 77.07(5)
_cell_angle_gamma                87.23(6)
_cell_volume                     291.095
_exptl_crystal_colour            colorless
_exptl_crystal_description       prism
_cell_formula_units_Z            1
loop_
_atom_site_label
_atom_site_type_symbol
_atom_site_fract_x
_atom_site_fract_y
_atom_site_fract_z
C1 C 0.4772(13) 0.4643(11) 0.4816(9)
F2 F 0.256(3) 0.380(2) 0.554(2)
C2 C 0.3479(16) 0.6427(16) 0.3441(15)
C3 C 0.489(3) 0.717(2) 0.3557(15)
C4 C 0.488(2) 0.8292(19) 0.234(2)
C5 C 0.326(2) 0.8204(19) 0.198(2)
C6 C 0.4488(14) 0.9825(12) 0.0447(14)
C7 C 0.566(3) 0.893(2) -0.100(2)
C8 C 0.693(3) 0.9731(18) -0.071(2)
C9 C 0.833(3) 0.901(3) -0.1634(15)
C10 C 0.663(3) 0.867(2) -0.191(3)
C11 C 0.9345(12) 0.7832(10) -0.2781(8)
C12 C 0.902(3) 0.566(3) -0.166(3)
C13 C 1.008(3) 0.6497(15) -0.136(3)
C14 C 1.034(2) 0.483(2) -0.0016(17)
C15 C 0.871(3) 0.441(2) -0.041(2)
C16 C 0.9287(13) 0.2864(10) 0.1620(12)
C17 C 0.838(3) 0.371(2) 0.315(2)
C18 C 0.684(2) 0.2984(19) 0.2973(19)
C19 C 0.535(4) 0.364(3) 0.370(3)
C20 C 0.714(3) 0.4066(19) 0.4067(14)
F1? F 0.534(2) 0.5168(15) 0.6050(17)
F3? F 0.545(4) 1.135(3) -0.020(3)
F4? F 0.244(5) 0.966(3) 0.055(3)
F5? F 1.056(2) 0.9583(16) -0.3791(15)
F6? F 0.847(3) 0.806(2) -0.417(2)
loop_
_geom_bond_atom_site_label_1
_geom_bond_atom_site_label_2
_geom_bond_site_symmetry_1
_geom_bond_site_symmetry_2
C1 F2 1_555 1_555
C2 C1 1_555 1_555
C3 C1 1_555 1_555
C4 C3 1_555 1_555
C5 C2 1_555 1_555
C6 C4 1_555 1_555
C7 C6 1_555 1_555
C8 C6 1_555 1_555
C9 C8 1_555 1_555
C10 C7 1_555 1_555
C11 C9 1_555 1_555
C12 C11 1_555 1_555
C13 C11 1_555 1_555
C14 C13 1_555 1_555
C15 C12 1_555 1_555
C16 C14 1_555 1_555
C17 C16 1_555 1_555
C18 C16 1_555 1_555
C19 C1 1_555 1_555
C20 C1 1_555 1_555
C2 C3 1_555 1_555
C4 C5 1_555 1_555
C5 C6 1_555 1_555
C7 C8 1_555 1_555
C9 C10 1_555 1_555
C10 C11 1_555 1_555
C12 C13 1_555 1_555
C14 C15 1_555 1_555
C15 C16 1_555 1_555
C17 C18 1_555 1_555
C17 C20 1_555 1_555
C18 C19 1_555 1_555
C19 C20 1_555 1_555

#END
