
#######################################################################
#
#                 Cambridge Crystallographic Data Centre
#                                CCDC 
#
#######################################################################
#
# If this CIF has been generated from an entry in the Cambridge 
# Structural Database, then it will include bibliographic, chemical, 
# crystal, experimental, refinement or atomic coordinate data resulting 
# from the CCDC's data processing and validation procedures.
#
#######################################################################

data_NATPEE03
_chemical_formula_moiety         'C26 H18 N4,2(H2 O1)'
_chemical_name_systematic        
"4,4',4'',4'''-Benzene-1,2,4,5-tetrayltetrapyridine dihydrate"
_symmetry_cell_setting           monoclinic
_symmetry_space_group_name_H-M   'C 2/c'
_symmetry_Int_Tables_number      15
_space_group_name_Hall           '-C 2yn'
loop_
_symmetry_equiv_pos_site_id
_symmetry_equiv_pos_as_xyz
1 x,y,z
2 -x,y,1/2-z
3 1/2+x,1/2+y,z
4 1/2-x,1/2+y,1/2-z
5 -x,-y,-z
6 x,-y,1/2+z
7 1/2-x,1/2-y,-z
8 1/2+x,1/2-y,1/2+z
_cell_length_a                   16.3100(2)
_cell_length_b                   13.6832(2)
_cell_length_c                   9.7527(2)
_cell_angle_alpha                90
_cell_angle_beta                 97.1470(10)
_cell_angle_gamma                90
_cell_volume                     2159.63
_exptl_crystal_colour            yellow
_exptl_crystal_description       chunk
_cell_formula_units_Z            4
loop_
_atom_site_label
_atom_site_type_symbol
_atom_site_fract_x
_atom_site_fract_y
_atom_site_fract_z
N1 N 0.25986(9) 0.37769(11) 0.40942(15)
N2 N -0.09290(11) 0.89188(11) 0.10215(17)
C1 C 0.19595(11) 0.31918(13) 0.36720(18)
C2 C 0.13364(9) 0.34154(11) 0.26292(15)
C3 C 0.13661(8) 0.43054(9) 0.19431(13)
C4 C 0.20375(9) 0.49061(10) 0.23527(16)
C5 C 0.26284(10) 0.46210(12) 0.34183(17)
C6 C 0.06840(8) 0.46345(9) 0.08872(13)
C7 C 0.04138(8) 0.55967(9) 0.09716(13)
C8 C -0.02605(8) 0.59741(9) 0.01203(13)
C9 C -0.05040(9) 0.69996(10) 0.03933(14)
C10 C -0.12995(10) 0.72327(11) 0.06573(17)
C11 C -0.14772(11) 0.81913(14) 0.0960(2)
C12 C -0.01701(12) 0.86869(12) 0.0774(2)
C13 C 0.00698(10) 0.77471(11) 0.04697(18)
H1 H 0.1937 0.2581 0.4182
H2 H 0.0861 0.2944 0.2366
H3 H 0.2113 0.5519 0.1858
H4 H 0.3093 0.5026 0.3695
H5 H 0.0694 0.6035 0.1668
H6 H -0.1717 0.6647 0.0647
H7 H -0.2078 0.8361 0.1096
H8 H 0.0230 0.9237 0.0771
H9 H 0.0656 0.7641 0.0273
N1D N -0.25986(9) 0.62231(11) -0.40942(15)
N2D N 0.09290(11) 0.10812(11) -0.10215(17)
C1D C -0.19595(11) 0.68082(13) -0.36720(18)
C2D C -0.13364(9) 0.65846(11) -0.26292(15)
C3D C -0.13661(8) 0.56946(9) -0.19431(13)
C4D C -0.20375(9) 0.50939(10) -0.23527(16)
C5D C -0.26284(10) 0.53790(12) -0.34183(17)
C6D C -0.06840(8) 0.53655(9) -0.08872(13)
C7D C -0.04138(8) 0.44033(9) -0.09716(13)
C8D C 0.02605(8) 0.40259(9) -0.01203(13)
C9D C 0.05040(9) 0.30004(10) -0.03933(14)
C10D C 0.12995(10) 0.27673(11) -0.06573(17)
C11D C 0.14772(11) 0.18087(14) -0.0960(2)
C12D C 0.01701(12) 0.13131(12) -0.0774(2)
C13D C -0.00698(10) 0.22529(11) -0.04697(18)
H1D H -0.1937 0.7419 -0.4182
H2D H -0.0861 0.7056 -0.2366
H3D H -0.2113 0.4481 -0.1858
H4D H -0.3093 0.4974 -0.3695
H5D H -0.0694 0.3965 -0.1668
H6D H 0.1717 0.3353 -0.0647
H7D H 0.2078 0.1639 -0.1096
H8D H -0.0230 0.0763 -0.0771
H9D H -0.0656 0.2359 -0.0273
O1 O 0.1132(2) 0.08858(19) 0.3380(5)
O2? O 0.0702(4) 0.0979(2) 0.2578(6)
loop_
_geom_bond_atom_site_label_1
_geom_bond_atom_site_label_2
_geom_bond_site_symmetry_1
_geom_bond_site_symmetry_2
N1 C1 1_555 1_555
N2 C11 1_555 1_555
C1 C2 1_555 1_555
C2 C3 1_555 1_555
C3 C4 1_555 1_555
C4 C5 1_555 1_555
C5 N1 1_555 1_555
C6 C3 1_555 1_555
C7 C6 1_555 1_555
C8 C7 1_555 1_555
C9 C8 1_555 1_555
C10 C9 1_555 1_555
C11 C10 1_555 1_555
C12 N2 1_555 1_555
C13 C9 1_555 1_555
H1 C1 1_555 1_555
H2 C2 1_555 1_555
H3 C4 1_555 1_555
H4 C5 1_555 1_555
H5 C7 1_555 1_555
H6 C10 1_555 1_555
H7 C11 1_555 1_555
H8 C12 1_555 1_555
H9 C13 1_555 1_555
N1D C1D 1_555 1_555
N2D C11D 1_555 1_555
C1D C2D 1_555 1_555
C2D C3D 1_555 1_555
C3D C4D 1_555 1_555
C4D C5D 1_555 1_555
C5D N1D 1_555 1_555
C6D C8 1_555 1_555
C7D C6D 1_555 1_555
C8D C6 1_555 1_555
C9D C8D 1_555 1_555
C10D C9D 1_555 1_555
C11D C10D 1_555 1_555
C12D N2D 1_555 1_555
C13D C9D 1_555 1_555
H1D C1D 1_555 1_555
H2D C2D 1_555 1_555
H3D C4D 1_555 1_555
H4D C5D 1_555 1_555
H5D C7D 1_555 1_555
H6D C10D 1_555 1_555
H7D C11D 1_555 1_555
H8D C12D 1_555 1_555
H9D C13D 1_555 1_555
C12 C13 1_555 1_555
C3D C6D 1_555 1_555
C7D C8D 1_555 1_555
C12D C13D 1_555 1_555

#END
