
#######################################################################
#
#                 Cambridge Crystallographic Data Centre
#                                CCDC 
#
#######################################################################
#
# If this CIF has been generated from an entry in the Cambridge 
# Structural Database, then it will include bibliographic, chemical, 
# crystal, experimental, refinement or atomic coordinate data resulting 
# from the CCDC's data processing and validation procedures.
#
#######################################################################

data_NATQAC
_chemical_formula_moiety         'C27 H30 N2 O2'
_chemical_name_systematic        
2,2-Dimethyl-7,20-dioxa-12,15-diazatetracyclo[19.2.2.2^3,6^.2^12,15^]nonacosa-1(23),3,5,21,24,28-hexaene-9,17-diyne
_symmetry_cell_setting           monoclinic
_symmetry_space_group_name_H-M   'C 2/c'
_symmetry_Int_Tables_number      15
_space_group_name_Hall           '-C 2yn'
loop_
_symmetry_equiv_pos_site_id
_symmetry_equiv_pos_as_xyz
1 x,y,z
2 -x,y,1/2-z
3 1/2+x,1/2+y,z
4 1/2-x,1/2+y,1/2-z
5 -x,-y,-z
6 x,-y,1/2+z
7 1/2-x,1/2-y,-z
8 1/2+x,1/2-y,1/2+z
_cell_length_a                   13.946(2)
_cell_length_b                   18.635(3)
_cell_length_c                   9.1650(14)
_cell_angle_alpha                90
_cell_angle_beta                 107.492(2)
_cell_angle_gamma                90
_cell_volume                     2271.7
_exptl_crystal_colour            colorless
_exptl_crystal_description       block
_cell_formula_units_Z            4
loop_
_atom_site_label
_atom_site_type_symbol
_atom_site_fract_x
_atom_site_fract_y
_atom_site_fract_z
C1 C 0.09243(14) 0.32548(10) 0.2590(2)
C2 C 0.08604(15) 0.27026(11) 0.1554(2)
H1 H 0.0238 0.2595 0.0863
C3 C 0.16928(16) 0.23044(12) 0.1511(3)
H2 H 0.1624 0.1935 0.0804
C4 C 0.26237(15) 0.24604(12) 0.2523(3)
C5 C 0.26969(16) 0.29949(13) 0.3582(3)
H3 H 0.3318 0.3097 0.4284
C6 C 0.18648(16) 0.33818(11) 0.3620(2)
H4 H 0.1935 0.3738 0.4356
C7 C 0.0000 0.37202(15) 0.2500
C8 C 0.01673(19) 0.42070(13) 0.3912(3)
H5 H 0.0339 0.3918 0.4820
H6 H -0.0437 0.4470 0.3837
H7 H 0.0705 0.4537 0.3958
C9 C 0.34477(19) 0.14990(15) 0.1637(3)
H8 H 0.4119 0.1365 0.1631
H9 H 0.3056 0.1608 0.0592
C10 C 0.29899(17) 0.08951(14) 0.2184(3)
C11 C 0.26053(18) 0.04225(14) 0.2649(3)
C12 C 0.2102(2) -0.01500(13) 0.3229(3)
H10 H 0.2376 -0.0610 0.3056
H11 H 0.2236 -0.0091 0.4324
C13 C 0.0552(2) -0.07842(13) 0.2918(3)
H12 H 0.0655 -0.0785 0.4012
H13 H 0.0860 -0.1214 0.2660
C14 C 0.05569(18) 0.04906(12) 0.2901(3)
H14 H 0.0859 0.0916 0.2612
H15 H 0.0675 0.0503 0.3999
N1 N 0.10203(15) -0.01491(9) 0.2492(2)
O1 O 0.35095(12) 0.21260(9) 0.2554(2)
C1A C -0.09243(14) 0.32548(10) 0.2410(2)
C2A C -0.08604(15) 0.27026(11) 0.3446(2)
H1A H -0.0238 0.2595 0.4137
C3A C -0.16928(16) 0.23044(12) 0.3489(3)
H2A H -0.1624 0.1935 0.4196
C4A C -0.26237(15) 0.24604(12) 0.2477(3)
C5A C -0.26969(16) 0.29949(13) 0.1418(3)
H3A H -0.3318 0.3097 0.0716
C6A C -0.18648(16) 0.33818(11) 0.1380(2)
H4A H -0.1935 0.3738 0.0644
C8A C -0.01673(19) 0.42070(13) 0.1088(3)
H5A H -0.0339 0.3918 0.0180
H6A H 0.0437 0.4470 0.1163
H7A H -0.0705 0.4537 0.1042
C9A C -0.34477(19) 0.14990(15) 0.3363(3)
H8A H -0.4119 0.1365 0.3369
H9A H -0.3056 0.1608 0.4408
C10A C -0.29899(17) 0.08951(14) 0.2816(3)
C11A C -0.26053(18) 0.04225(14) 0.2351(3)
C12A C -0.2102(2) -0.01500(13) 0.1771(3)
H10A H -0.2376 -0.0610 0.1944
H11A H -0.2236 -0.0091 0.0676
C13A C -0.0552(2) -0.07842(13) 0.2082(3)
H12A H -0.0655 -0.0785 0.0988
H13A H -0.0860 -0.1214 0.2340
C14A C -0.05569(18) 0.04906(12) 0.2099(3)
H14A H -0.0859 0.0916 0.2388
H15A H -0.0675 0.0503 0.1001
N1A N -0.10203(15) -0.01491(9) 0.2508(2)
O1A O -0.35095(12) 0.21260(9) 0.2446(2)
loop_
_geom_bond_atom_site_label_1
_geom_bond_atom_site_label_2
_geom_bond_site_symmetry_1
_geom_bond_site_symmetry_2
C1 C2 1_555 1_555
C2 H1 1_555 1_555
C3 C2 1_555 1_555
H2 C3 1_555 1_555
C4 C3 1_555 1_555
C5 C4 1_555 1_555
H3 C5 1_555 1_555
C6 C1 1_555 1_555
H4 C6 1_555 1_555
C7 C1 1_555 1_555
C8 C7 1_555 1_555
H5 C8 1_555 1_555
H6 C8 1_555 1_555
H7 C8 1_555 1_555
C9 H8 1_555 1_555
H9 C9 1_555 1_555
C10 C9 1_555 1_555
C11 C10 1_555 1_555
C12 C11 1_555 1_555
H10 C12 1_555 1_555
H11 C12 1_555 1_555
C13 H12 1_555 1_555
H13 C13 1_555 1_555
C14 H14 1_555 1_555
H15 C14 1_555 1_555
N1 C12 1_555 1_555
O1 C4 1_555 1_555
C1A C7 1_555 1_555
C2A C1A 1_555 1_555
H1A C2A 1_555 1_555
C3A C2A 1_555 1_555
H2A C3A 1_555 1_555
C4A C3A 1_555 1_555
C5A C4A 1_555 1_555
H3A C5A 1_555 1_555
C6A C1A 1_555 1_555
H4A C6A 1_555 1_555
C8A C7 1_555 1_555
H5A C8A 1_555 1_555
H6A C8A 1_555 1_555
H7A C8A 1_555 1_555
C9A H8A 1_555 1_555
H9A C9A 1_555 1_555
C10A C9A 1_555 1_555
C11A C10A 1_555 1_555
C12A C11A 1_555 1_555
H10A C12A 1_555 1_555
H11A C12A 1_555 1_555
C13A C13 1_555 1_555
H12A C13A 1_555 1_555
H13A C13A 1_555 1_555
C14A C14 1_555 1_555
H14A C14A 1_555 1_555
H15A C14A 1_555 1_555
N1A C12A 1_555 1_555
O1A C4A 1_555 1_555
C5 C6 1_555 1_555
C9 O1 1_555 1_555
C13 N1 1_555 1_555
C14 N1 1_555 1_555
C5A C6A 1_555 1_555
C9A O1A 1_555 1_555
C13A N1A 1_555 1_555
C14A N1A 1_555 1_555

#END
