
#######################################################################
#
#                 Cambridge Crystallographic Data Centre
#                                CCDC 
#
#######################################################################
#
# If this CIF has been generated from an entry in the Cambridge 
# Structural Database, then it will include bibliographic, chemical, 
# crystal, experimental, refinement or atomic coordinate data resulting 
# from the CCDC's data processing and validation procedures.
#
#######################################################################

data_NATQAD
_chemical_formula_moiety         'C24 H21 Cl1 O4'
_chemical_name_systematic        
'ethyl 11-(4-chlorophenyl)-12-oxo-6,8,9,12-tetrahydro-7H-cycloocta[b]chromene-10-carboxylate'
_symmetry_cell_setting           monoclinic
_symmetry_space_group_name_H-M   'P 21/n'
_symmetry_Int_Tables_number      14
_space_group_name_Hall           '-P 2yn'
loop_
_symmetry_equiv_pos_site_id
_symmetry_equiv_pos_as_xyz
1 x,y,z
2 1/2-x,1/2+y,1/2-z
3 -x,-y,-z
4 1/2+x,1/2-y,1/2+z
_cell_length_a                   8.6179(16)
_cell_length_b                   12.789(2)
_cell_length_c                   18.174(3)
_cell_angle_alpha                90
_cell_angle_beta                 100.253(4)
_cell_angle_gamma                90
_cell_volume                     1971.05
_exptl_crystal_colour            colorless
_exptl_crystal_description       prismatic
_cell_formula_units_Z            4
loop_
_atom_site_label
_atom_site_type_symbol
_atom_site_fract_x
_atom_site_fract_y
_atom_site_fract_z
Cl1 Cl -0.03909(7) -0.06769(5) 0.09199(3)
O1 O 0.38306(15) 0.18121(11) 0.33987(7)
O2 O 0.81291(14) 0.05069(10) 0.41253(6)
O3 O 0.61802(17) 0.12197(11) 0.07464(7)
O4 O 0.6534(2) 0.29382(13) 0.08586(8)
C1 C 0.7216(2) 0.08046(14) 0.46373(9)
C2 C 0.7865(2) 0.06341(16) 0.53801(10)
H1 H 0.8869 0.0351 0.5514
C3 C 0.6993(3) 0.08919(17) 0.59122(11)
H2 H 0.7404 0.0778 0.6415
C4 C 0.5504(3) 0.13204(16) 0.57100(11)
H3 H 0.4922 0.1493 0.6077
C5 C 0.4884(2) 0.14910(14) 0.49746(11)
H4 H 0.3880 0.1777 0.4844
C6 C 0.5746(2) 0.12395(13) 0.44161(9)
C7 C 0.5124(2) 0.14161(14) 0.36192(10)
C8 C 0.6182(2) 0.11031(14) 0.31167(9)
C9 C 0.7588(2) 0.06585(13) 0.33843(9)
C10 C 0.8804(2) 0.03032(15) 0.29510(10)
H5 H 0.8296 0.0133 0.2445
H6 H 0.9301 -0.0328 0.3178
C11 C 1.0073(2) 0.11339(16) 0.29219(11)
H7 H 1.0347 0.1453 0.3412
H8 H 1.1010 0.0791 0.2814
C12 C 0.9603(2) 0.19909(16) 0.23491(11)
H9 H 0.9555 0.1693 0.1855
H10 H 1.0428 0.2516 0.2417
C13 C 0.8026(2) 0.25365(15) 0.23739(11)
H11 H 0.7909 0.2624 0.2891
H12 H 0.8039 0.3227 0.2154
C14 C 0.6633(2) 0.19372(14) 0.19649(9)
C15 C 0.5717(2) 0.13119(13) 0.23030(9)
C16 C 0.4236(2) 0.08092(14) 0.19286(9)
C17 C 0.3136(2) 0.13445(15) 0.14144(9)
H13 H 0.3349 0.2027 0.1285
C18 C 0.1734(2) 0.08824(16) 0.10914(10)
H14 H 0.1011 0.1245 0.0743
C19 C 0.1418(2) -0.01197(16) 0.12912(10)
C20 C 0.2479(2) -0.06781(15) 0.17924(10)
H15 H 0.2261 -0.1361 0.1916
C21 C 0.3881(2) -0.02036(14) 0.21096(10)
H16 H 0.4604 -0.0575 0.2453
C22 C 0.6409(2) 0.21039(16) 0.11379(11)
C23 C 0.6087(3) 0.1303(2) -0.00572(11)
H17 H 0.6348 0.0632 -0.0253
H18 H 0.6858 0.1809 -0.0161
C24 C 0.4505(3) 0.1626(2) -0.04422(13)
H19 H 0.3725 0.1171 -0.0297
H20 H 0.4454 0.1583 -0.0973
H21 H 0.4306 0.2332 -0.0307
loop_
_geom_bond_atom_site_label_1
_geom_bond_atom_site_label_2
_geom_bond_site_symmetry_1
_geom_bond_site_symmetry_2
Cl1 C19 1_555 1_555
O1 C7 1_555 1_555
O2 C1 1_555 1_555
O3 C22 1_555 1_555
O4 C22 1_555 1_555
C1 C2 1_555 1_555
C2 H1 1_555 1_555
C3 C2 1_555 1_555
H2 C3 1_555 1_555
C4 C3 1_555 1_555
H3 C4 1_555 1_555
C5 C4 1_555 1_555
H4 C5 1_555 1_555
C6 C1 1_555 1_555
C7 C6 1_555 1_555
C8 C7 1_555 1_555
C9 O2 1_555 1_555
C10 C9 1_555 1_555
H5 C10 1_555 1_555
H6 C10 1_555 1_555
C11 C10 1_555 1_555
H7 C11 1_555 1_555
H8 C11 1_555 1_555
C12 C11 1_555 1_555
H9 C12 1_555 1_555
H10 C12 1_555 1_555
C13 C12 1_555 1_555
H11 C13 1_555 1_555
H12 C13 1_555 1_555
C14 C13 1_555 1_555
C15 C8 1_555 1_555
C16 C15 1_555 1_555
C17 C16 1_555 1_555
H13 C17 1_555 1_555
C18 C17 1_555 1_555
H14 C18 1_555 1_555
C19 C18 1_555 1_555
C20 C19 1_555 1_555
H15 C20 1_555 1_555
C21 C16 1_555 1_555
H16 C21 1_555 1_555
C22 C14 1_555 1_555
C23 O3 1_555 1_555
H17 C23 1_555 1_555
H18 C23 1_555 1_555
C24 C23 1_555 1_555
H19 C24 1_555 1_555
H20 C24 1_555 1_555
H21 C24 1_555 1_555
C5 C6 1_555 1_555
C8 C9 1_555 1_555
C14 C15 1_555 1_555
C20 C21 1_555 1_555

#END
