
#######################################################################
#
#                 Cambridge Crystallographic Data Centre
#                                CCDC 
#
#######################################################################
#
# If this CIF has been generated from an entry in the Cambridge 
# Structural Database, then it will include bibliographic, chemical, 
# crystal, experimental, refinement or atomic coordinate data resulting 
# from the CCDC's data processing and validation procedures.
#
#######################################################################

data_NATYEP
_chemical_name_common            HFF-2
_chemical_formula_moiety         'C114 H60 O48,4(C4 H10 O1)'
_chemical_name_systematic        
'hexakis(1,3-bis(2-carboxyethoxy)-1,3-dioxopropane-2,2-diyl)-C60-fullerene diethyl ether solvate'
_symmetry_cell_setting           triclinic
_symmetry_space_group_name_H-M   'P -1'
_symmetry_Int_Tables_number      2
_space_group_name_Hall           '-P 1'
loop_
_symmetry_equiv_pos_site_id
_symmetry_equiv_pos_as_xyz
1 x,y,z
2 -x,-y,-z
_cell_length_a                   13.1513(5)
_cell_length_b                   14.4631(7)
_cell_length_c                   15.2117(7)
_cell_angle_alpha                107.332(3)
_cell_angle_beta                 95.752(3)
_cell_angle_gamma                94.594(2)
_cell_volume                     2729.64
_exptl_crystal_colour            yellow
_exptl_crystal_description       block
_cell_formula_units_Z            1
_exptl_crystal_recrystallization_method 'Vapour deposition'
loop_
_atom_site_label
_atom_site_type_symbol
_atom_site_fract_x
_atom_site_fract_y
_atom_site_fract_z
O1 O 0.91396(12) 0.44880(12) 0.86004(10)
O2 O 0.82163(12) 0.56139(11) 0.94100(10)
O3 O 0.61415(12) 0.47826(13) 0.96589(11)
O4 O 0.58154(13) 0.58708(13) 1.09590(12)
H1 H 0.5202 0.5660 1.0730
O5 O 0.80865(13) 0.73158(12) 0.84755(12)
O6 O 0.67843(11) 0.61039(11) 0.81034(10)
O7 O 0.34932(13) 0.64404(12) 0.90447(13)
H2 H 0.3169 0.6790 0.9441
O8 O 0.46272(14) 0.77896(13) 0.94365(13)
O9 O 0.69895(11) 0.70953(11) 0.28250(10)
O10 O 0.63541(11) 0.74098(11) 0.41935(10)
O11 O 0.50511(12) 0.60809(11) 0.48883(11)
O12 O 0.48865(13) 0.46777(11) 0.37319(11)
H3 H 0.4909 0.4439 0.4173
O13 O 0.93319(11) 0.90041(11) 0.50124(11)
O14 O 0.78875(11) 0.90737(10) 0.41050(10)
O15 O 0.60491(12) 1.06129(13) 0.58951(11)
H4 H 0.5408 1.0467 0.5792
O16 O 0.59474(12) 0.98291(12) 0.43706(11)
O17 O 0.61478(12) 0.19915(11) 0.44521(11)
O18 O 0.52720(11) 0.24811(11) 0.33448(10)
O19 O 0.24233(13) 0.11287(13) 0.36375(12)
O20 O 0.24637(15) -0.00004(15) 0.22738(14)
H5 H 0.1834 -0.0123 0.2301
O21 O 0.74394(13) 0.21401(12) 0.17856(11)
O22 O 0.64369(13) 0.10790(11) 0.22255(11)
O23 O 0.73092(17) -0.0934(2) 0.1946(2)
O24 O 0.58508(16) -0.18731(15) 0.18350(15)
H6 H 0.6250 -0.2209 0.2038
C1 C 0.83842(15) 0.50570(15) 0.69038(13)
C2 C 0.93401(15) 0.58374(14) 0.74182(13)
C3 C 1.03575(15) 0.54627(14) 0.74465(13)
C4 C 1.11041(15) 0.61594(14) 0.73135(13)
C5 C 1.05703(15) 0.69327(14) 0.70913(13)
C6 C 0.94965(15) 0.66964(14) 0.70798(13)
C7 C 0.87980(15) 0.68758(14) 0.64246(13)
C8 C 0.79159(14) 0.61504(14) 0.59430(13)
C9 C 0.77529(14) 0.52716(14) 0.61341(13)
C10 C 0.74671(14) 0.43855(14) 0.53851(14)
C11 C 0.72822(14) 0.44071(14) 0.44744(14)
C12 C 0.74518(14) 0.53127(14) 0.42877(14)
C13 C 0.77329(14) 0.61737(14) 0.50093(14)
C14 C 0.84094(14) 0.70067(14) 0.49202(13)
C15 C 0.91456(15) 0.73439(14) 0.57885(14)
C16 C 1.01904(15) 0.75661(14) 0.57995(13)
C17 C 1.09151(15) 0.73917(14) 0.64761(13)
C18 C 1.20928(15) 0.48630(14) 0.65842(13)
C19 C 1.13626(15) 0.41741(14) 0.67019(13)
C20 C 1.04741(15) 0.44786(15) 0.71189(13)
C21 C 0.95937(15) 0.37563(14) 0.66365(13)
C22 C 0.99519(15) 0.30077(14) 0.59251(13)
C23 C 1.10914(15) 0.31875(14) 0.60217(13)
C24 C 0.93511(15) 0.26132(14) 0.50707(14)
C25 C 0.83511(15) 0.28999(14) 0.49212(14)
C26 C 0.80054(15) 0.36213(14) 0.56143(14)
C27 C 0.86175(15) 0.40345(14) 0.64980(13)
C28 C 1.19820(15) 0.58746(14) 0.69225(13)
C29 C 1.18988(15) 0.72150(14) 0.60838(13)
C30 C 0.84492(15) 0.56515(15) 0.79243(14)
C31 C 0.86484(15) 0.51619(15) 0.86683(14)
C32 C 0.82892(17) 0.51924(18) 1.01702(15)
H7 H 0.9000 0.5326 1.0499
H8 H 0.8099 0.4478 0.9931
C33 C 0.75506(17) 0.56657(18) 1.08174(15)
H9 H 0.7660 0.5481 1.1394
H10 H 0.7708 0.6383 1.0989
C34 C 0.64387(18) 0.53876(17) 1.04098(15)
C35 C 0.77646(16) 0.64674(15) 0.81933(14)
C36 C 0.61178(18) 0.68246(17) 0.85257(17)
H11 H 0.6082 0.7321 0.8197
H12 H 0.6390 0.7158 0.9186
C37 C 0.50703(18) 0.62931(18) 0.84509(17)
H13 H 0.5137 0.5710 0.8656
H14 H 0.4753 0.6071 0.7794
C38 C 0.43868(18) 0.69330(17) 0.90329(16)
C39 C 0.81537(15) 0.75599(14) 0.42408(13)
C40 C 0.71044(15) 0.73193(14) 0.36589(14)
C41 C 0.53063(15) 0.72202(16) 0.37155(15)
H15 H 0.5267 0.7515 0.3205
H16 H 0.4833 0.7524 0.4155
C42 C 0.49801(17) 0.61324(17) 0.33233(15)
H17 H 0.4281 0.6020 0.2975
H18 H 0.5454 0.5836 0.2881
C43 C 0.49785(16) 0.56352(16) 0.40653(15)
C44 C 0.85495(15) 0.86300(15) 0.45184(14)
C45 C 0.80689(17) 1.01334(15) 0.43653(16)
H19 H 0.7761 1.0359 0.3856
H20 H 0.8818 1.0347 0.4478
C46 C 0.75896(17) 1.05663(16) 0.52350(16)
H21 H 0.7914 1.0344 0.5740
H22 H 0.7736 1.1285 0.5425
C47 C 0.64462(17) 1.02935(16) 0.51149(16)
C48 C 0.75155(15) 0.36093(14) 0.36622(13)
C49 C 0.70383(15) 0.25502(14) 0.33624(14)
C50 C 0.61167(16) 0.23044(14) 0.38101(14)
C51 C 0.42820(16) 0.21286(17) 0.35495(16)
H23 H 0.3768 0.2576 0.3485
H24 H 0.4347 0.2102 0.4195
C52 C 0.39380(17) 0.11228(17) 0.28773(17)
H25 H 0.3960 0.1140 0.2234
H26 H 0.4415 0.0664 0.2992
C53 C 0.28592(18) 0.07679(17) 0.29831(17)
C54 C 0.69948(15) 0.19277(15) 0.23560(14)
C55 C 0.6322(2) 0.04133(17) 0.12742(16)
H27 H 0.7005 0.0297 0.1071
H28 H 0.5934 0.0694 0.0843
C56 C 0.5744(2) -0.05265(18) 0.12817(18)
H29 H 0.5146 -0.0375 0.1624
H30 H 0.5479 -0.0920 0.0635
C57 C 0.6391(2) -0.11163(19) 0.17194(18)
O1A O 1.08604(12) 0.55120(12) 0.13996(10)
O2A O 1.17837(12) 0.43861(11) 0.05900(10)
O3A O 1.38585(12) 0.52174(13) 0.03411(11)
O4A O 1.41846(13) 0.41292(13) -0.09590(12)
H1A H 1.4798 0.4340 -0.0730
O5A O 1.19135(13) 0.26842(12) 0.15245(12)
O6A O 1.32157(11) 0.38961(11) 0.18966(10)
O7A O 1.65068(13) 0.35596(12) 0.09553(13)
H2A H 1.6831 0.3210 0.0559
O8A O 1.53728(14) 0.22104(13) 0.05635(13)
O9A O 1.30105(11) 0.29047(11) 0.71750(10)
O10A O 1.36459(11) 0.25902(11) 0.58065(10)
O11A O 1.49489(12) 0.39191(11) 0.51117(11)
O12A O 1.51135(13) 0.53223(11) 0.62681(11)
H3A H 1.5091 0.5561 0.5827
O13A O 1.06681(11) 0.09959(11) 0.49876(11)
O14A O 1.21125(11) 0.09263(10) 0.58950(10)
O15A O 1.39509(12) -0.06129(13) 0.41049(11)
H4A H 1.4592 -0.0467 0.4208
O16A O 1.40526(12) 0.01709(12) 0.56294(11)
O17A O 1.38522(12) 0.80085(11) 0.55479(11)
O18A O 1.47280(11) 0.75189(11) 0.66552(10)
O19A O 1.75767(13) 0.88713(13) 0.63625(12)
O20A O 1.75363(15) 1.00004(15) 0.77262(14)
H5A H 1.8166 1.0123 0.7699
O21A O 1.25606(13) 0.78599(12) 0.82144(11)
O22A O 1.35631(13) 0.89210(11) 0.77745(11)
O23A O 1.26908(17) 1.0934(2) 0.8054(2)
O24A O 1.41492(16) 1.18731(15) 0.81650(15)
H6A H 1.3750 1.2209 0.7962
C1A C 1.16158(15) 0.49430(15) 0.30962(13)
C2A C 1.06599(15) 0.41626(14) 0.25818(13)
C3A C 0.96425(15) 0.45373(14) 0.25535(13)
C4A C 0.88959(15) 0.38406(14) 0.26865(13)
C5A C 0.94297(15) 0.30673(14) 0.29087(13)
C6A C 1.05035(15) 0.33036(14) 0.29202(13)
C7A C 1.12020(15) 0.31242(14) 0.35754(13)
C8A C 1.20841(14) 0.38496(14) 0.40570(13)
C9A C 1.22471(14) 0.47284(14) 0.38659(13)
C10A C 1.25329(14) 0.56145(14) 0.46149(14)
C11A C 1.27178(14) 0.55929(14) 0.55256(14)
C12A C 1.25482(14) 0.46873(14) 0.57123(14)
C13A C 1.22671(14) 0.38263(14) 0.49907(14)
C14A C 1.15906(14) 0.29933(14) 0.50798(13)
C15A C 1.08544(15) 0.26561(14) 0.42115(14)
C16A C 0.98096(15) 0.24339(14) 0.42005(13)
C17A C 0.90849(15) 0.26083(14) 0.35239(13)
C18A C 0.79072(15) 0.51370(14) 0.34158(13)
C19A C 0.86374(15) 0.58259(14) 0.32981(13)
C20A C 0.95259(15) 0.55214(15) 0.28811(13)
C21A C 1.04063(15) 0.62437(14) 0.33635(13)
C22A C 1.00481(15) 0.69923(14) 0.40749(13)
C23A C 0.89086(15) 0.68125(14) 0.39783(13)
C24A C 1.06489(15) 0.73868(14) 0.49293(14)
C25A C 1.16489(15) 0.71001(14) 0.50788(14)
C26A C 1.19946(15) 0.63787(14) 0.43857(14)
C27A C 1.13825(15) 0.59655(14) 0.35020(13)
C28A C 0.80180(15) 0.41254(14) 0.30775(13)
C29A C 0.81012(15) 0.27850(14) 0.39162(13)
C30A C 1.15508(15) 0.43485(15) 0.20757(14)
C31A C 1.13516(15) 0.48381(15) 0.13317(14)
C32A C 1.17108(17) 0.48076(18) -0.01702(15)
H7A H 1.1000 0.4674 -0.0499
H8A H 1.1901 0.5522 0.0069
C33A C 1.24494(17) 0.43343(18) -0.08174(15)
H9A H 1.2340 0.4519 -0.1394
H10A H 1.2292 0.3617 -0.0989
C34A C 1.35613(18) 0.46124(17) -0.04098(15)
C35A C 1.22354(16) 0.35326(15) 0.18067(14)
C36A C 1.38822(18) 0.31754(17) 0.14743(17)
H11A H 1.3918 0.2679 0.1803
H12A H 1.3610 0.2842 0.0814
C37A C 1.49297(18) 0.37069(18) 0.15491(17)
H13A H 1.4863 0.4290 0.1344
H14A H 1.5247 0.3929 0.2206
C38A C 1.56132(18) 0.30670(17) 0.09671(16)
C39A C 1.18463(15) 0.24401(14) 0.57592(13)
C40A C 1.28956(15) 0.26807(14) 0.63411(14)
C41A C 1.46937(15) 0.27798(16) 0.62845(15)
H15A H 1.4733 0.2485 0.6795
H16A H 1.5167 0.2476 0.5845
C42A C 1.50199(17) 0.38676(17) 0.66767(15)
H17A H 1.5719 0.3980 0.7025
H18A H 1.4546 0.4164 0.7119
C43A C 1.50215(16) 0.43648(16) 0.59347(15)
C44A C 1.14505(15) 0.13700(15) 0.54816(14)
C45A C 1.19311(17) -0.01334(15) 0.56347(16)
H19A H 1.2239 -0.0359 0.6144
H20A H 1.1182 -0.0347 0.5522
C46A C 1.24104(17) -0.05663(16) 0.47650(16)
H21A H 1.2086 -0.0344 0.4260
H22A H 1.2264 -0.1285 0.4575
C47A C 1.35538(17) -0.02935(16) 0.48851(16)
C48A C 1.24845(15) 0.63907(14) 0.63378(13)
C49A C 1.29617(15) 0.74498(14) 0.66376(14)
C50A C 1.38833(16) 0.76956(14) 0.61899(14)
C51A C 1.57180(16) 0.78714(17) 0.64505(16)
H23A H 1.6232 0.7424 0.6515
H24A H 1.5653 0.7898 0.5805
C52A C 1.60620(17) 0.88772(17) 0.71227(17)
H25A H 1.6040 0.8860 0.7766
H26A H 1.5585 0.9336 0.7008
C53A C 1.71408(18) 0.92321(17) 0.70169(17)
C54A C 1.30052(15) 0.80723(15) 0.76440(14)
C55A C 1.3678(2) 0.95867(17) 0.87258(16)
H27A H 1.2995 0.9703 0.8929
H28A H 1.4066 0.9306 0.9157
C56A C 1.4256(2) 1.05265(18) 0.87183(18)
H29A H 1.4854 1.0375 0.8376
H30A H 1.4521 1.0920 0.9365
C57A C 1.3609(2) 1.11163(19) 0.82806(18)
O25 O 0.24692(13) 0.73274(14) 0.04031(12)
C58 C 0.2969(3) 0.7341(3) 0.1997(2)
H31 H 0.2267 0.7463 0.2121
H32 H 0.3453 0.7681 0.2555
H33 H 0.3020 0.6639 0.1828
C59 C 0.3223(2) 0.7708(2) 0.1214(2)
H34 H 0.3271 0.8429 0.1421
H35 H 0.3904 0.7522 0.1049
C60 C 0.1635(2) 0.7894(2) 0.0397(2)
H36 H 0.1859 0.8489 0.0240
H37 H 0.1411 0.8098 0.1022
C61 C 0.0764(2) 0.7319(2) -0.02917(19)
H38 H 0.0993 0.7098 -0.0906
H39 H 0.0206 0.7725 -0.0312
H40 H 0.0516 0.6752 -0.0113
O26 O 1.05185(14) 0.93725(14) 0.22184(14)
C62 C 1.0037(4) 1.0590(3) 0.1555(3)
H41 H 1.0724 1.0958 0.1729
H42 H 0.9521 1.1039 0.1537
H43 H 1.0000 1.0107 0.0941
C63 C 0.9832(3) 1.0085(2) 0.2253(3)
H44 H 0.9926 1.0565 0.2882
H45 H 0.9113 0.9770 0.2118
C64 C 1.0226(2) 0.8684(2) 0.2684(2)
H46 H 0.9942 0.9026 0.3256
H47 H 1.0844 0.8403 0.2869
C65 C 0.9442(2) 0.7878(2) 0.2085(2)
H48 H 0.8810 0.8149 0.1937
H49 H 0.9290 0.7407 0.2417
H50 H 0.9711 0.7550 0.1509
loop_
_geom_bond_atom_site_label_1
_geom_bond_atom_site_label_2
_geom_bond_site_symmetry_1
_geom_bond_site_symmetry_2
O1 C31 1_555 1_555
O2 C31 1_555 1_555
O3 C34 1_555 1_555
O4 H1 1_555 1_555
O5 C35 1_555 1_555
O6 C35 1_555 1_555
O7 H2 1_555 1_555
O8 C38 1_555 1_555
O9 C40 1_555 1_555
O10 C40 1_555 1_555
O11 C43 1_555 1_555
O12 H3 1_555 1_555
O13 C44 1_555 1_555
O14 C44 1_555 1_555
O15 H4 1_555 1_555
O16 C47 1_555 1_555
O17 C50 1_555 1_555
O18 C50 1_555 1_555
O19 C53 1_555 1_555
O20 H5 1_555 1_555
O21 C54 1_555 1_555
O22 C54 1_555 1_555
O23 C57 1_555 1_555
O24 H6 1_555 1_555
C1 C2 1_555 1_555
C2 C3 1_555 1_555
C3 C4 1_555 1_555
C4 C5 1_555 1_555
C5 C6 1_555 1_555
C6 C2 1_555 1_555
C7 C6 1_555 1_555
C8 C7 1_555 1_555
C9 C1 1_555 1_555
C10 C9 1_555 1_555
C11 C10 1_555 1_555
C12 C11 1_555 1_555
C13 C8 1_555 1_555
C14 C13 1_555 1_555
C15 C7 1_555 1_555
C16 C15 1_555 1_555
C17 C5 1_555 1_555
C18 C19 1_555 1_555
C19 C20 1_555 1_555
C20 C3 1_555 1_555
C21 C20 1_555 1_555
C22 C21 1_555 1_555
C23 C19 1_555 1_555
C24 C22 1_555 1_555
C25 C24 1_555 1_555
C26 C10 1_555 1_555
C27 C1 1_555 1_555
C28 C4 1_555 1_555
C29 C17 1_555 1_555
C30 C1 1_555 1_555
C31 C30 1_555 1_555
C32 O2 1_555 1_555
H7 C32 1_555 1_555
H8 C32 1_555 1_555
C33 C32 1_555 1_555
H9 C33 1_555 1_555
H10 C33 1_555 1_555
C34 O4 1_555 1_555
C35 C30 1_555 1_555
C36 O6 1_555 1_555
H11 C36 1_555 1_555
H12 C36 1_555 1_555
C37 C36 1_555 1_555
H13 C37 1_555 1_555
H14 C37 1_555 1_555
C38 O7 1_555 1_555
C39 C14 1_555 1_555
C40 C39 1_555 1_555
C41 O10 1_555 1_555
H15 C41 1_555 1_555
H16 C41 1_555 1_555
C42 C41 1_555 1_555
H17 C42 1_555 1_555
H18 C42 1_555 1_555
C43 O12 1_555 1_555
C44 C39 1_555 1_555
C45 O14 1_555 1_555
H19 C45 1_555 1_555
H20 C45 1_555 1_555
C46 C45 1_555 1_555
H21 C46 1_555 1_555
H22 C46 1_555 1_555
C47 O15 1_555 1_555
C48 C11 1_555 1_555
C49 C48 1_555 1_555
C50 C49 1_555 1_555
C51 O18 1_555 1_555
H23 C51 1_555 1_555
H24 C51 1_555 1_555
C52 C51 1_555 1_555
H25 C52 1_555 1_555
H26 C52 1_555 1_555
C53 O20 1_555 1_555
C54 C49 1_555 1_555
C55 O22 1_555 1_555
H27 C55 1_555 1_555
H28 C55 1_555 1_555
C56 C55 1_555 1_555
H29 C56 1_555 1_555
H30 C56 1_555 1_555
C57 O24 1_555 1_555
O25 C59 1_555 1_555
C58 H31 1_555 1_555
H32 C58 1_555 1_555
H33 C58 1_555 1_555
C59 C58 1_555 1_555
H34 C59 1_555 1_555
H35 C59 1_555 1_555
C60 O25 1_555 1_555
H36 C60 1_555 1_555
H37 C60 1_555 1_555
C61 C60 1_555 1_555
H38 C61 1_555 1_555
H39 C61 1_555 1_555
H40 C61 1_555 1_555
O26 C63 1_555 1_555
C62 H41 1_555 1_555
H42 C62 1_555 1_555
H43 C62 1_555 1_555
C63 C62 1_555 1_555
H44 C63 1_555 1_555
H45 C63 1_555 1_555
C64 O26 1_555 1_555
H46 C64 1_555 1_555
H47 C64 1_555 1_555
C65 C64 1_555 1_555
H48 C65 1_555 1_555
H49 C65 1_555 1_555
H50 C65 1_555 1_555
O1A C31A 1_555 1_555
O2A C31A 1_555 1_555
O3A C34A 1_555 1_555
O4A H1A 1_555 1_555
O5A C35A 1_555 1_555
O6A C35A 1_555 1_555
O7A H2A 1_555 1_555
O8A C38A 1_555 1_555
O9A C40A 1_555 1_555
O10A C40A 1_555 1_555
O11A C43A 1_555 1_555
O12A H3A 1_555 1_555
O13A C44A 1_555 1_555
O14A C44A 1_555 1_555
O15A H4A 1_555 1_555
O16A C47A 1_555 1_555
O17A C50A 1_555 1_555
O18A C50A 1_555 1_555
O19A C53A 1_555 1_555
O20A H5A 1_555 1_555
O21A C54A 1_555 1_555
O22A C54A 1_555 1_555
O23A C57A 1_555 1_555
O24A H6A 1_555 1_555
C1A C2A 1_555 1_555
C2A C3A 1_555 1_555
C3A C4A 1_555 1_555
C4A C5A 1_555 1_555
C5A C6A 1_555 1_555
C6A C2A 1_555 1_555
C7A C6A 1_555 1_555
C8A C7A 1_555 1_555
C9A C1A 1_555 1_555
C10A C9A 1_555 1_555
C11A C10A 1_555 1_555
C12A C18 1_555 1_555
C13A C8A 1_555 1_555
C14A C23 1_555 1_555
C15A C7A 1_555 1_555
C16A C24 1_555 1_555
C17A C5A 1_555 1_555
C18A C12 1_555 1_555
C19A C18A 1_555 1_555
C20A C3A 1_555 1_555
C21A C20A 1_555 1_555
C22A C21A 1_555 1_555
C23A C14 1_555 1_555
C24A C16 1_555 1_555
C25A C29 1_555 1_555
C26A C10A 1_555 1_555
C27A C1A 1_555 1_555
C28A C48 1_555 1_555
C29A C25 1_555 1_555
C30A C1A 1_555 1_555
C31A C30A 1_555 1_555
C32A O2A 1_555 1_555
H7A C32A 1_555 1_555
H8A C32A 1_555 1_555
C33A C32A 1_555 1_555
H9A C33A 1_555 1_555
H10A C33A 1_555 1_555
C34A O4A 1_555 1_555
C35A C30A 1_555 1_555
C36A O6A 1_555 1_555
H11A C36A 1_555 1_555
H12A C36A 1_555 1_555
C37A C36A 1_555 1_555
H13A C37A 1_555 1_555
H14A C37A 1_555 1_555
C38A O7A 1_555 1_555
C39A C23 1_555 1_555
C40A C39A 1_555 1_555
C41A O10A 1_555 1_555
H15A C41A 1_555 1_555
H16A C41A 1_555 1_555
C42A C41A 1_555 1_555
H17A C42A 1_555 1_555
H18A C42A 1_555 1_555
C43A O12A 1_555 1_555
C44A C39A 1_555 1_555
C45A O14A 1_555 1_555
H19A C45A 1_555 1_555
H20A C45A 1_555 1_555
C46A C45A 1_555 1_555
H21A C46A 1_555 1_555
H22A C46A 1_555 1_555
C47A O15A 1_555 1_555
C48A C28 1_555 1_555
C49A C29 1_555 1_555
C50A C49A 1_555 1_555
C51A O18A 1_555 1_555
H23A C51A 1_555 1_555
H24A C51A 1_555 1_555
C52A C51A 1_555 1_555
H25A C52A 1_555 1_555
H26A C52A 1_555 1_555
C53A O20A 1_555 1_555
C54A C49A 1_555 1_555
C55A O22A 1_555 1_555
H27A C55A 1_555 1_555
H28A C55A 1_555 1_555
C56A C55A 1_555 1_555
H29A C56A 1_555 1_555
H30A C56A 1_555 1_555
C57A O24A 1_555 1_555
C2 C30 1_555 1_555
C8 C9 1_555 1_555
C12 C13 1_555 1_555
C14 C15 1_555 1_555
C16 C17 1_555 1_555
C18 C28 1_555 1_555
C21 C27 1_555 1_555
C22 C23 1_555 1_555
C25 C26 1_555 1_555
C26 C27 1_555 1_555
C29 C48A 1_555 1_555
C33 C34 1_555 1_555
C37 C38 1_555 1_555
C39 C23A 1_555 1_555
C42 C43 1_555 1_555
C46 C47 1_555 1_555
C48 C29A 1_555 1_555
C49 C29A 1_555 1_555
C52 C53 1_555 1_555
C56 C57 1_555 1_555
C2A C30A 1_555 1_555
C4A C28A 1_555 1_555
C8A C9A 1_555 1_555
C11A C12A 1_555 1_555
C11A C48A 1_555 1_555
C12A C13A 1_555 1_555
C13A C14A 1_555 1_555
C14A C15A 1_555 1_555
C14A C39A 1_555 1_555
C15A C16A 1_555 1_555
C16A C17A 1_555 1_555
C17A C29A 1_555 1_555
C18A C28A 1_555 1_555
C19A C20A 1_555 1_555
C19A C23A 1_555 1_555
C21A C27A 1_555 1_555
C22A C23A 1_555 1_555
C22A C24A 1_555 1_555
C24A C25A 1_555 1_555
C25A C26A 1_555 1_555
C26A C27A 1_555 1_555
C33A C34A 1_555 1_555
C37A C38A 1_555 1_555
C42A C43A 1_555 1_555
C46A C47A 1_555 1_555
C48A C49A 1_555 1_555
C52A C53A 1_555 1_555
C56A C57A 1_555 1_555

#END
