
#######################################################################
#
#                 Cambridge Crystallographic Data Centre
#                                CCDC 
#
#######################################################################
#
# If this CIF has been generated from an entry in the Cambridge 
# Structural Database, then it will include bibliographic, chemical, 
# crystal, experimental, refinement or atomic coordinate data resulting 
# from the CCDC's data processing and validation procedures.
#
#######################################################################

data_NAVHOJ
_chemical_formula_moiety         'C29 H28 N2 O3'
_chemical_name_systematic        
'Ethyl 3-benzoyl-1-benzyl-2-methylene-1,2,3,5,6,10b-hexahydropyrazolo[5,1-a]isoquinoline-1-carboxylate'
_symmetry_cell_setting           triclinic
_symmetry_space_group_name_H-M   'P -1'
_symmetry_Int_Tables_number      2
_space_group_name_Hall           '-P 1'
loop_
_symmetry_equiv_pos_site_id
_symmetry_equiv_pos_as_xyz
1 x,y,z
2 -x,-y,-z
_cell_length_a                   9.2096(18)
_cell_length_b                   10.382(2)
_cell_length_c                   13.528(3)
_cell_angle_alpha                108.89(3)
_cell_angle_beta                 90.44(3)
_cell_angle_gamma                102.61(3)
_cell_volume                     1189.98
_exptl_crystal_colour            colorless
_exptl_crystal_description       block
_cell_formula_units_Z            2
loop_
_atom_site_label
_atom_site_type_symbol
_atom_site_fract_x
_atom_site_fract_y
_atom_site_fract_z
O1 O 0.27326(14) 0.07666(13) 0.01847(9)
O2 O 0.01466(16) -0.36673(14) 0.24670(13)
O3 O 0.21524(13) -0.35542(12) 0.15606(10)
N1 N 0.39721(13) -0.01134(13) 0.23085(10)
N2 N 0.29900(14) -0.00972(14) 0.14951(10)
C1 C 0.36276(18) -0.13002(16) 0.36557(12)
C2 C 0.2820(2) -0.16934(19) 0.44226(13)
H1 H 0.1837 -0.1555 0.4510
C3 C 0.3434(3) -0.2283(2) 0.50578(14)
H2 H 0.2874 -0.2548 0.5576
C4 C 0.4858(2) -0.2483(2) 0.49358(15)
H3 H 0.5288 -0.2881 0.5373
C5 C 0.5657(2) -0.21069(19) 0.41803(14)
H4 H 0.6638 -0.2253 0.4100
C6 C 0.50648(18) -0.15152(17) 0.35283(12)
C7 C 0.59650(18) -0.10866(19) 0.27193(13)
H5 H 0.6591 -0.1761 0.2425
H6 H 0.6639 -0.0153 0.3057
C8 C 0.49820(17) -0.10330(17) 0.18423(12)
H7 H 0.5603 -0.0661 0.1357
H8 H 0.4393 -0.1985 0.1441
C9 C 0.33824(17) 0.08820(17) 0.10106(12)
C10 C 0.46168(17) 0.21245(16) 0.15656(12)
C11 C 0.58815(18) 0.24654(18) 0.10704(13)
H9 H 0.6019 0.1858 0.0400
C12 C 0.6946(2) 0.36930(19) 0.15540(15)
H10 H 0.7821 0.3918 0.1218
C13 C 0.6744(2) 0.4586(2) 0.25158(16)
H11 H 0.7472 0.5432 0.2842
C14 C 0.5474(2) 0.4249(2) 0.30097(15)
H12 H 0.5333 0.4867 0.3674
C15 C 0.4412(2) 0.30166(18) 0.25401(14)
H13 H 0.3548 0.2783 0.2884
C16 C 0.14193(17) -0.14334(17) 0.23480(12)
C17 C 0.16147(17) -0.10963(16) 0.13354(12)
C18 C 0.0636(2) -0.15660(19) 0.05076(14)
H14 H 0.0825 -0.1228 -0.0064
H15 H -0.0257 -0.2242 0.0484
C19 C 0.11423(18) -0.30066(18) 0.21386(14)
C20 C 0.2036(2) -0.50427(19) 0.13412(17)
H16 H 0.1029 -0.5587 0.1012
H17 H 0.2207 -0.5232 0.1999
C21 C 0.3190(3) -0.5449(2) 0.06173(19)
H18 H 0.3142 -0.6449 0.0455
H19 H 0.4181 -0.4905 0.0952
H20 H 0.3007 -0.5261 -0.0032
C22 C 0.29514(16) -0.05898(16) 0.30170(12)
H21 H 0.2743 0.0274 0.3532
C23 C 0.00677(18) -0.0919(2) 0.28903(14)
H22 H -0.0848 -0.1429 0.2416
H23 H -0.0043 -0.1175 0.3535
C24 C 0.01681(18) 0.0627(2) 0.31814(14)
C25 C 0.0725(2) 0.1532(2) 0.41822(14)
H24 H 0.1018 0.1160 0.4687
C26 C 0.0864(2) 0.2963(2) 0.44608(17)
H25 H 0.1251 0.3561 0.5149
C27 C 0.0437(2) 0.3519(2) 0.37368(19)
H26 H 0.0546 0.4501 0.3919
C28 C -0.0148(2) 0.2640(2) 0.27498(17)
H27 H -0.0457 0.3018 0.2254
C29 C -0.0290(2) 0.1206(2) 0.24712(15)
H28 H -0.0705 0.0612 0.1788
loop_
_geom_bond_atom_site_label_1
_geom_bond_atom_site_label_2
_geom_bond_site_symmetry_1
_geom_bond_site_symmetry_2
O1 C9 1_555 1_555
O2 C19 1_555 1_555
O3 C19 1_555 1_555
N1 N2 1_555 1_555
N2 C9 1_555 1_555
C1 C2 1_555 1_555
C2 H1 1_555 1_555
C3 C2 1_555 1_555
H2 C3 1_555 1_555
C4 C3 1_555 1_555
H3 C4 1_555 1_555
C5 C4 1_555 1_555
H4 C5 1_555 1_555
C6 C1 1_555 1_555
C7 C6 1_555 1_555
H5 C7 1_555 1_555
H6 C7 1_555 1_555
C8 N1 1_555 1_555
H7 C8 1_555 1_555
H8 C8 1_555 1_555
C9 C10 1_555 1_555
C10 C11 1_555 1_555
C11 H9 1_555 1_555
C12 C11 1_555 1_555
H10 C12 1_555 1_555
C13 C12 1_555 1_555
H11 C13 1_555 1_555
C14 C13 1_555 1_555
H12 C14 1_555 1_555
C15 C10 1_555 1_555
H13 C15 1_555 1_555
C16 C17 1_555 1_555
C17 N2 1_555 1_555
C18 C17 1_555 1_555
H14 C18 1_555 1_555
H15 C18 1_555 1_555
C19 C16 1_555 1_555
C20 O3 1_555 1_555
H16 C20 1_555 1_555
H17 C20 1_555 1_555
C21 C20 1_555 1_555
H18 C21 1_555 1_555
H19 C21 1_555 1_555
H20 C21 1_555 1_555
C22 N1 1_555 1_555
H21 C22 1_555 1_555
C23 C16 1_555 1_555
H22 C23 1_555 1_555
H23 C23 1_555 1_555
C24 C23 1_555 1_555
C25 C24 1_555 1_555
H24 C25 1_555 1_555
C26 C25 1_555 1_555
H25 C26 1_555 1_555
C27 C26 1_555 1_555
H26 C27 1_555 1_555
C28 C27 1_555 1_555
H27 C28 1_555 1_555
C29 C24 1_555 1_555
H28 C29 1_555 1_555
C1 C22 1_555 1_555
C5 C6 1_555 1_555
C7 C8 1_555 1_555
C14 C15 1_555 1_555
C16 C22 1_555 1_555
C28 C29 1_555 1_555

#END
