
#######################################################################
#
#                 Cambridge Crystallographic Data Centre
#                                CCDC 
#
#######################################################################
#
# If this CIF has been generated from an entry in the Cambridge 
# Structural Database, then it will include bibliographic, chemical, 
# crystal, experimental, refinement or atomic coordinate data resulting 
# from the CCDC's data processing and validation procedures.
#
#######################################################################

data_NAWJIG
_chemical_formula_moiety         'C15 H17 Br1 O3'
_chemical_name_systematic        
'(1S,2R)-t-Butyl 2-bromo-2-formyl-1-phenylcyclopropanecarboxylate'
_symmetry_cell_setting           monoclinic
_symmetry_space_group_name_H-M   'P 21'
_symmetry_Int_Tables_number      4
_space_group_name_Hall           'P 2yb'
loop_
_symmetry_equiv_pos_site_id
_symmetry_equiv_pos_as_xyz
1 x,y,z
2 -x,1/2+y,-z
_cell_length_a                   6.0794(6)
_cell_length_b                   9.5410(10)
_cell_length_c                   13.1014(13)
_cell_angle_alpha                90
_cell_angle_beta                 102.299(2)
_cell_angle_gamma                90
_cell_volume                     742.487
_exptl_crystal_colour            colorless
_exptl_crystal_description       block
_cell_formula_units_Z            2
loop_
_atom_site_label
_atom_site_type_symbol
_atom_site_fract_x
_atom_site_fract_y
_atom_site_fract_z
C1 C 1.0252(14) 0.0287(10) 0.1780(7)
C2 C 0.8958(17) -0.0259(11) 0.0729(7)
C3 C 1.1467(12) -0.0379(10) 0.1018(7)
H1 H 1.2355 0.0241 0.0653
H2 H 1.2119 -0.1322 0.1188
C4 C 1.0095(14) -0.0640(10) 0.2691(7)
O1 O 1.1141(10) -0.1712(10) 0.2912(5)
O2 O 0.8610(11) -0.0123(7) 0.3222(5)
C5 C 0.8112(19) -0.0841(12) 0.4125(9)
C6 C 1.027(2) -0.1011(13) 0.4977(9)
H3 H 1.1330 -0.1616 0.4718
H4 H 0.9889 -0.1437 0.5599
H5 H 1.0953 -0.0090 0.5158
C7 C 0.706(2) -0.2244(12) 0.3813(10)
H6 H 0.5692 -0.2117 0.3272
H7 H 0.6683 -0.2700 0.4423
H8 H 0.8129 -0.2831 0.3540
C8 C 0.646(2) 0.0105(14) 0.4484(10)
H9 H 0.7158 0.1024 0.4665
H10 H 0.6033 -0.0303 0.5100
H11 H 0.5123 0.0213 0.3923
C9 C 1.0466(16) 0.1834(12) 0.2000(8)
C10 C 1.257(2) 0.2406(12) 0.2361(11)
H12 H 1.3860 0.1819 0.2476
C11 C 1.282(3) 0.3829(15) 0.2557(11)
H13 H 1.4272 0.4204 0.2828
C12 C 1.099(2) 0.4701(13) 0.2364(10)
H14 H 1.1165 0.5680 0.2484
C13 C 0.893(2) 0.4147(11) 0.2001(8)
H15 H 0.7662 0.4753 0.1869
C14 C 0.8600(18) 0.2724(8) 0.1813(8)
H16 H 0.7129 0.2361 0.1562
C15 C 0.8006(16) 0.0801(10) -0.0082(7)
H17 H 0.8957 0.1550 -0.0194
O3 O 0.6131(12) 0.0778(7) -0.0601(6)
Br1 Br 0.70530(13) -0.18694(12) 0.07016(7)
loop_
_geom_bond_atom_site_label_1
_geom_bond_atom_site_label_2
_geom_bond_site_symmetry_1
_geom_bond_site_symmetry_2
C1 C2 1_555 1_555
C2 C3 1_555 1_555
C3 C1 1_555 1_555
H1 C3 1_555 1_555
H2 C3 1_555 1_555
C4 C1 1_555 1_555
O1 C4 1_555 1_555
O2 C4 1_555 1_555
C5 O2 1_555 1_555
C6 C5 1_555 1_555
H3 C6 1_555 1_555
H4 C6 1_555 1_555
H5 C6 1_555 1_555
C7 C5 1_555 1_555
H6 C7 1_555 1_555
H7 C7 1_555 1_555
H8 C7 1_555 1_555
C8 C5 1_555 1_555
H9 C8 1_555 1_555
H10 C8 1_555 1_555
H11 C8 1_555 1_555
C9 C1 1_555 1_555
C10 C9 1_555 1_555
H12 C10 1_555 1_555
C11 C10 1_555 1_555
H13 C11 1_555 1_555
C12 C11 1_555 1_555
H14 C12 1_555 1_555
C13 C12 1_555 1_555
H15 C13 1_555 1_555
C14 C9 1_555 1_555
H16 C14 1_555 1_555
C15 C2 1_555 1_555
H17 C15 1_555 1_555
O3 C15 1_555 1_555
Br1 C2 1_555 1_555
C13 C14 1_555 1_555

#END
