
#######################################################################
#
#                 Cambridge Crystallographic Data Centre
#                                CCDC 
#
#######################################################################
#
# If this CIF has been generated from an entry in the Cambridge 
# Structural Database, then it will include bibliographic, chemical, 
# crystal, experimental, refinement or atomic coordinate data resulting 
# from the CCDC's data processing and validation procedures.
#
#######################################################################

data_NAWQIO
_chemical_name_common            
"4'-(4-bromophenyl)-1-methyl-1'-thioxo-1',2',4',9'- tetrahydrospiro[indoline-3,3'-pyrido[3,4-b]indol]-2-one"
_chemical_formula_moiety         'C25 H18 Br1 N3 O1 S1'
_chemical_name_systematic        
4-(4-bromophenyl)-1'-methyl-1-sulfanylidene-1,2,4,9-tetrahydrospiro[\b-carboline-3,3'-indol]-2'(1'H)-one
_symmetry_cell_setting           monoclinic
_symmetry_space_group_name_H-M   'C 2/c'
_symmetry_Int_Tables_number      15
_space_group_name_Hall           '-C 2yn'
loop_
_symmetry_equiv_pos_site_id
_symmetry_equiv_pos_as_xyz
1 x,y,z
2 -x,y,1/2-z
3 1/2+x,1/2+y,z
4 1/2-x,1/2+y,1/2-z
5 -x,-y,-z
6 x,-y,1/2+z
7 1/2-x,1/2-y,-z
8 1/2+x,1/2-y,1/2+z
_cell_length_a                   24.275(2)
_cell_length_b                   6.9971(7)
_cell_length_c                   24.991(2)
_cell_angle_alpha                90
_cell_angle_beta                 93.881(2)
_cell_angle_gamma                90
_cell_volume                     4235.1
_exptl_crystal_colour            yellow
_exptl_crystal_description       prism
_cell_formula_units_Z            8
loop_
_atom_site_label
_atom_site_type_symbol
_atom_site_fract_x
_atom_site_fract_y
_atom_site_fract_z
Br1 Br 0.57149(2) 1.35355(3) 0.30900(2)
S1 S 0.21647(2) 0.59837(6) 0.42609(2)
O1 O 0.40866(5) 0.65922(16) 0.42836(5)
N1 N 0.29724(5) 0.85203(18) 0.44220(5)
H1 H 0.2820 0.8800 0.4722
N2 N 0.27536(5) 0.5865(2) 0.31703(5)
H2 H 0.2532 0.4885 0.3207
N3 N 0.42424(6) 0.88366(19) 0.49499(5)
C1 C 0.31675(7) 0.6530(3) 0.17827(7)
H3 H 0.3122 0.6037 0.1428
C2 C 0.29211(6) 0.5590(3) 0.21931(6)
H4 H 0.2716 0.4447 0.2128
C3 C 0.29871(6) 0.6397(2) 0.27075(6)
C4 C 0.33163(6) 0.8048(2) 0.28156(6)
C5 C 0.32808(6) 0.8468(2) 0.33733(6)
C6 C 0.34936(6) 1.0102(2) 0.37198(6)
H5 H 0.3220 1.1165 0.3667
C7 C 0.34953(6) 0.9489(2) 0.43173(6)
C8 C 0.35829(6) 1.1096(2) 0.47179(6)
C9 C 0.40156(6) 1.0604(2) 0.50872(6)
C10 C 0.41749(7) 1.1774(3) 0.55185(7)
H6 H 0.4472 1.1436 0.5767
C11 C 0.38795(8) 1.3468(2) 0.55714(7)
H7 H 0.3980 1.4305 0.5861
C12 C 0.34837(7) 0.8197(2) 0.18790(6)
H8 H 0.3644 0.8811 0.1588
C13 C 0.35653(6) 0.8958(2) 0.23895(6)
H9 H 0.3785 1.0070 0.2452
C14 C 0.27142(6) 0.7244(2) 0.40923(6)
C15 C 0.29272(6) 0.7138(2) 0.35672(6)
C16 C 0.46508(7) 0.7790(3) 0.52880(7)
H10 H 0.4500 0.7502 0.5633
H11 H 0.4985 0.8569 0.5349
H12 H 0.4743 0.6594 0.5110
C17 C 0.39773(6) 0.8094(2) 0.44964(6)
C18 C 0.34424(8) 1.3961(2) 0.52105(7)
H13 H 0.3247 1.5117 0.5258
C19 C 0.32876(7) 1.2763(2) 0.47764(7)
H14 H 0.2988 1.3088 0.4529
C20 C 0.40492(6) 1.0892(2) 0.35792(6)
C21 C 0.41426(7) 1.2859(2) 0.36157(7)
H15 H 0.3864 1.3672 0.3738
C22 C 0.46402(7) 1.3639(2) 0.34736(7)
H16 H 0.4704 1.4976 0.3503
C23 C 0.50414(6) 1.2447(2) 0.32891(6)
C24 C 0.49620(6) 1.0484(2) 0.32534(6)
H17 H 0.5241 0.9679 0.3129
C25 C 0.44647(6) 0.9714(2) 0.34032(6)
H18 H 0.4408 0.8372 0.3385
loop_
_geom_bond_atom_site_label_1
_geom_bond_atom_site_label_2
_geom_bond_site_symmetry_1
_geom_bond_site_symmetry_2
Br1 C23 1_555 1_555
S1 C14 1_555 1_555
O1 C17 1_555 1_555
N1 H1 1_555 1_555
N2 H2 1_555 1_555
N3 C9 1_555 1_555
C1 H3 1_555 1_555
C2 C1 1_555 1_555
H4 C2 1_555 1_555
C3 N2 1_555 1_555
C4 C3 1_555 1_555
C5 C4 1_555 1_555
C6 C5 1_555 1_555
H5 C6 1_555 1_555
C7 N1 1_555 1_555
C8 C7 1_555 1_555
C9 C8 1_555 1_555
C10 C9 1_555 1_555
H6 C10 1_555 1_555
C11 C10 1_555 1_555
H7 C11 1_555 1_555
C12 C1 1_555 1_555
H8 C12 1_555 1_555
C13 C4 1_555 1_555
H9 C13 1_555 1_555
C14 N1 1_555 1_555
C15 N2 1_555 1_555
C16 N3 1_555 1_555
H10 C16 1_555 1_555
H11 C16 1_555 1_555
H12 C16 1_555 1_555
C17 N3 1_555 1_555
C18 C11 1_555 1_555
H13 C18 1_555 1_555
C19 C8 1_555 1_555
H14 C19 1_555 1_555
C20 C6 1_555 1_555
C21 C20 1_555 1_555
H15 C21 1_555 1_555
C22 C21 1_555 1_555
H16 C22 1_555 1_555
C23 C22 1_555 1_555
C24 C23 1_555 1_555
H17 C24 1_555 1_555
C25 C20 1_555 1_555
H18 C25 1_555 1_555
C2 C3 1_555 1_555
C5 C15 1_555 1_555
C6 C7 1_555 1_555
C7 C17 1_555 1_555
C12 C13 1_555 1_555
C14 C15 1_555 1_555
C18 C19 1_555 1_555
C24 C25 1_555 1_555

#END
