
#######################################################################
#
#                 Cambridge Crystallographic Data Centre
#                                CCDC 
#
#######################################################################
#
# If this CIF has been generated from an entry in the Cambridge 
# Structural Database, then it will include bibliographic, chemical, 
# crystal, experimental, refinement or atomic coordinate data resulting 
# from the CCDC's data processing and validation procedures.
#
#######################################################################

data_NAXSOX
_chemical_formula_moiety         'C19 H14 F1 N1 O2'
_chemical_name_systematic        
1'-benzyl-5'-fluoro-3-hydroxyspiro[cyclopenta-2,4-diene-1,3'-indol]-2'(1'H)-one
_symmetry_cell_setting           orthorhombic
_symmetry_space_group_name_H-M   'P 21 21 21'
_symmetry_Int_Tables_number      19
_space_group_name_Hall           'P 2ac 2ab'
loop_
_symmetry_equiv_pos_site_id
_symmetry_equiv_pos_as_xyz
1 x,y,z
2 1/2+x,1/2-y,-z
3 -x,1/2+y,1/2-z
4 1/2-x,-y,1/2+z
_cell_length_a                   5.4253(10)
_cell_length_b                   12.6694(14)
_cell_length_c                   21.9346(10)
_cell_angle_alpha                90
_cell_angle_beta                 90
_cell_angle_gamma                90
_cell_volume                     1507.68
_exptl_crystal_description       rod
_cell_formula_units_Z            4
loop_
_atom_site_label
_atom_site_type_symbol
_atom_site_fract_x
_atom_site_fract_y
_atom_site_fract_z
O1 O 0.9389(4) 0.83662(14) 0.51708(8)
F1 F 0.0893(3) 0.40147(12) 0.59859(7)
O2 O 1.0442(3) 0.73491(15) 0.71302(7)
N1 N 0.7872(3) 0.59727(15) 0.73762(7)
C1 C 0.8325(4) 0.79309(16) 0.55863(9)
C2 C 0.8909(4) 0.68548(15) 0.58334(8)
H1 H 1.0020 0.6369 0.5674
C3 C 0.7291(3) 0.67210(15) 0.64046(8)
C4 C 0.8779(4) 0.67379(17) 0.70049(8)
C5 C 0.8881(4) 0.5705(2) 0.79714(9)
H2 H 1.0489 0.6034 0.8011
H3 H 0.9120 0.4947 0.7990
C6 C 0.7310(4) 0.60376(16) 0.85099(8)
C7 C 0.8026(4) 0.57009(18) 0.90875(9)
H4 H 0.9407 0.5273 0.9132
C8 C 0.6689(5) 0.6002(2) 0.95946(9)
H5 H 0.7177 0.5773 0.9979
C9 C 0.4673(5) 0.6626(2) 0.95369(11)
H6 H 0.3785 0.6824 0.9881
C10 C 0.2622(4) 0.44726(16) 0.63494(10)
C11 C 0.2817(5) 0.41291(17) 0.69382(10)
H7 H 0.1785 0.3600 0.7084
C12 C 0.4584(5) 0.45826(16) 0.73164(10)
H8 H 0.4792 0.4352 0.7716
C13 C 0.6019(4) 0.53860(15) 0.70814(8)
C14 C 0.5727(3) 0.57502(14) 0.64857(8)
C15 C 0.4032(4) 0.52761(14) 0.61043(9)
H9 H 0.3848 0.5488 0.5701
C16 C 0.5678(4) 0.76985(15) 0.63869(9)
H10 H 0.4406 0.7823 0.6662
C17 C 0.6260(4) 0.83507(16) 0.59449(10)
H11 H 0.5473 0.8990 0.5869
C18 C 0.5270(4) 0.66679(18) 0.84562(10)
H12 H 0.4770 0.6898 0.8073
C19 C 0.3942(5) 0.69663(19) 0.89699(12)
H13 H 0.2561 0.7396 0.8930
loop_
_geom_bond_atom_site_label_1
_geom_bond_atom_site_label_2
_geom_bond_site_symmetry_1
_geom_bond_site_symmetry_2
O1 C1 1_555 1_555
F1 C10 1_555 1_555
O2 C4 1_555 1_555
N1 C4 1_555 1_555
C1 C2 1_555 1_555
C2 H1 1_555 1_555
C3 C2 1_555 1_555
C4 C3 1_555 1_555
C5 N1 1_555 1_555
H2 C5 1_555 1_555
H3 C5 1_555 1_555
C6 C5 1_555 1_555
C7 C6 1_555 1_555
H4 C7 1_555 1_555
C8 C7 1_555 1_555
H5 C8 1_555 1_555
C9 C8 1_555 1_555
H6 C9 1_555 1_555
C10 C11 1_555 1_555
C11 H7 1_555 1_555
C12 C11 1_555 1_555
H8 C12 1_555 1_555
C13 N1 1_555 1_555
C14 C3 1_555 1_555
C15 C10 1_555 1_555
H9 C15 1_555 1_555
C16 C3 1_555 1_555
H10 C16 1_555 1_555
C17 C1 1_555 1_555
H11 C17 1_555 1_555
C18 C6 1_555 1_555
H12 C18 1_555 1_555
C19 C9 1_555 1_555
H13 C19 1_555 1_555
C12 C13 1_555 1_555
C13 C14 1_555 1_555
C14 C15 1_555 1_555
C16 C17 1_555 1_555
C18 C19 1_555 1_555

#END
