
#######################################################################
#
#                 Cambridge Crystallographic Data Centre
#                                CCDC 
#
#######################################################################
#
# If this CIF has been generated from an entry in the Cambridge 
# Structural Database, then it will include bibliographic, chemical, 
# crystal, experimental, refinement or atomic coordinate data resulting 
# from the CCDC's data processing and validation procedures.
#
#######################################################################

data_NAXSUC
_chemical_formula_moiety         'C10 H12 N3 1+,C7 H4 N1 O3 S1 1-'
_chemical_name_systematic        
'2-amino-5,7-dimethyl-1,8-naphthyridin-1-ium 3-oxo-3H-1,2-benzothiazol-2-ide 1,1-dioxide'
_symmetry_cell_setting           monoclinic
_symmetry_space_group_name_H-M   'P 21/c'
_symmetry_Int_Tables_number      14
_space_group_name_Hall           '-P 2ybc'
loop_
_symmetry_equiv_pos_site_id
_symmetry_equiv_pos_as_xyz
1 x,y,z
2 -x,1/2+y,1/2-z
3 -x,-y,-z
4 x,1/2-y,1/2+z
_cell_length_a                   8.4237(12)
_cell_length_b                   8.0539(11)
_cell_length_c                   24.966(2)
_cell_angle_alpha                90
_cell_angle_beta                 90.5340(10)
_cell_angle_gamma                90
_cell_volume                     1693.71
_exptl_crystal_colour            colorless
_exptl_crystal_description       block
_cell_formula_units_Z            4
loop_
_atom_site_label
_atom_site_type_symbol
_atom_site_fract_x
_atom_site_fract_y
_atom_site_fract_z
N1 N 0.8964(3) 0.3932(3) 0.05900(10)
H1 H 0.8787 0.3797 0.0253
N2 N 0.7741(3) 0.6438(4) 0.04941(10)
N3 N 1.0170(4) 0.1404(4) 0.05931(12)
H2 H 0.9986 0.1324 0.0255
H3 H 1.0655 0.0616 0.0760
C1 C 0.9711(4) 0.2730(5) 0.08555(13)
C2 C 0.9959(4) 0.2930(5) 0.14142(13)
H4 H 1.0469 0.2104 0.1611
C3 C 0.9462(4) 0.4302(5) 0.16562(13)
H5 H 0.9621 0.4410 0.2024
C4 C 0.8699(4) 0.5605(4) 0.13737(12)
C5 C 0.8460(4) 0.5378(4) 0.08241(12)
C6 C 0.7235(4) 0.7846(5) 0.07127(15)
C7 C 0.7442(4) 0.8198(5) 0.12553(15)
H6 H 0.7090 0.9210 0.1389
C8 C 0.8146(4) 0.7096(5) 0.15933(13)
C9 C 0.6363(5) 0.9016(5) 0.03493(17)
H7 H 0.6686 0.8832 -0.0014
H8 H 0.6603 1.0139 0.0451
H9 H 0.5242 0.8828 0.0378
C10 C 0.8258(5) 0.7436(6) 0.21834(14)
H10 H 0.8789 0.6530 0.2359
H11 H 0.7209 0.7555 0.2326
H12 H 0.8845 0.8442 0.2243
N4 N 0.2122(3) 0.8950(4) 0.11423(11)
O1 O 0.4304(3) 0.9678(3) 0.17899(10)
O2 O 0.1850(3) 0.8636(4) 0.21334(10)
O3 O 0.1596(3) 0.7592(3) 0.03665(9)
S1 S 0.29734(11) 0.86123(12) 0.17111(3)
C11 C 0.2209(4) 0.7634(4) 0.08230(13)
C12 C 0.3087(4) 0.6207(4) 0.10611(12)
C13 C 0.3569(4) 0.6570(4) 0.15770(12)
C14 C 0.4352(4) 0.5433(5) 0.18924(14)
H13 H 0.4657 0.5686 0.2242
C15 C 0.4669(5) 0.3904(5) 0.16716(18)
H14 H 0.5204 0.3108 0.1874
C16 C 0.4202(5) 0.3537(5) 0.11534(17)
H15 H 0.4426 0.2496 0.1012
C17 C 0.3411(4) 0.4685(4) 0.08421(14)
H16 H 0.3105 0.4435 0.0492
H17? H 0.7773 0.8488 0.2260
H18? H 0.9353 0.7463 0.2292
H19? H 0.7717 0.6576 0.2376
loop_
_geom_bond_atom_site_label_1
_geom_bond_atom_site_label_2
_geom_bond_site_symmetry_1
_geom_bond_site_symmetry_2
N1 H1 1_555 1_555
N2 C5 1_555 1_555
N3 H2 1_555 1_555
H3 N3 1_555 1_555
N4 S1 1_555 1_555
O1 S1 1_555 1_555
O2 S1 1_555 1_555
O3 C11 1_555 1_555
S1 C13 1_555 1_555
C1 N1 1_555 1_555
C2 C1 1_555 1_555
H4 C2 1_555 1_555
C3 C2 1_555 1_555
H5 C3 1_555 1_555
C4 C3 1_555 1_555
C5 N1 1_555 1_555
C6 N2 1_555 1_555
C7 C6 1_555 1_555
H6 C7 1_555 1_555
C8 C4 1_555 1_555
C9 C6 1_555 1_555
H7 C9 1_555 1_555
H8 C9 1_555 1_555
H9 C9 1_555 1_555
C10 C8 1_555 1_555
H10 C10 1_555 1_555
H11 C10 1_555 1_555
H12 C10 1_555 1_555
C11 N4 1_555 1_555
C12 C11 1_555 1_555
C13 C12 1_555 1_555
C14 C13 1_555 1_555
H13 C14 1_555 1_555
C15 C14 1_555 1_555
H14 C15 1_555 1_555
C16 C15 1_555 1_555
H15 C16 1_555 1_555
C17 C12 1_555 1_555
H16 C17 1_555 1_555
N3 C1 1_555 1_555
C4 C5 1_555 1_555
C7 C8 1_555 1_555
C16 C17 1_555 1_555

#END
