
#######################################################################
#
#                 Cambridge Crystallographic Data Centre
#                                CCDC 
#
#######################################################################
#
# If this CIF has been generated from an entry in the Cambridge 
# Structural Database, then it will include bibliographic, chemical, 
# crystal, experimental, refinement or atomic coordinate data resulting 
# from the CCDC's data processing and validation procedures.
#
#######################################################################

data_NEDNIV
_chemical_formula_moiety         'C14 H22 N2 O2 S2'
_chemical_name_systematic        
6-((3-(Methylsulfanyl)propyl)amino)-4-((3-(methylsulfanyl)propyl)iminio)-3-oxocyclohexa-1,5-dien-1-olate
_symmetry_cell_setting           triclinic
_symmetry_space_group_name_H-M   'P -1'
_symmetry_Int_Tables_number      2
_space_group_name_Hall           '-P 1'
loop_
_symmetry_equiv_pos_site_id
_symmetry_equiv_pos_as_xyz
1 x,y,z
2 -x,-y,-z
_cell_length_a                   5.3008(4)
_cell_length_b                   9.8123(7)
_cell_length_c                   15.3621(9)
_cell_angle_alpha                104.132(4)
_cell_angle_beta                 91.046(3)
_cell_angle_gamma                94.447(4)
_cell_volume                     771.943
_exptl_crystal_colour            violet
_exptl_crystal_description       plate
_cell_formula_units_Z            2
loop_
_atom_site_label
_atom_site_type_symbol
_atom_site_fract_x
_atom_site_fract_y
_atom_site_fract_z
C1 C 1.0805(7) 0.2530(4) 0.3851(3)
H1 H 1.1277 0.2559 0.3262
C2 C 0.8893(7) 0.3314(4) 0.4259(2)
C3 C 0.8129(7) 0.3314(4) 0.5204(3)
C4 C 0.9421(7) 0.2482(4) 0.5659(3)
H2 H 0.8957 0.2467 0.6252
C5 C 1.1356(7) 0.1679(4) 0.5277(3)
C6 C 1.2027(7) 0.1701(4) 0.4315(3)
C7 C 0.8057(8) 0.4270(4) 0.2972(3)
H3 H 0.8020 0.3327 0.2549
H4 H 0.9775 0.4745 0.2974
C8 C 0.6140(9) 0.5125(5) 0.2642(3)
H5 H 0.6202 0.6074 0.3057
H6 H 0.4418 0.4660 0.2651
C9 C 0.6630(9) 0.5278(5) 0.1694(3)
H7 H 0.8405 0.5667 0.1681
H8 H 0.5525 0.5977 0.1563
C10 C 0.2718(10) 0.3580(6) 0.0665(4)
H9 H 0.1943 0.3418 0.1209
H10 H 0.2160 0.2797 0.0151
H11 H 0.2203 0.4464 0.0557
C11 C 1.4862(7) 0.0620(4) 0.3111(3)
H12 H 1.6733 0.0737 0.3178
H13 H 1.4319 0.1329 0.2801
C12 C 1.4041(8) -0.0850(4) 0.2540(3)
H14 H 1.4377 -0.1544 0.2890
H15 H 1.5094 -0.1043 0.2004
C13 C 1.1252(8) -0.1073(5) 0.2226(3)
H16 H 1.0199 -0.0943 0.2761
H17 H 1.0891 -0.2059 0.1872
C14 C 1.2664(9) -0.0174(6) 0.0714(3)
H18 H 1.4323 0.0230 0.0990
H19 H 1.2227 0.0288 0.0240
H20 H 1.2726 -0.1187 0.0454
O1 O 0.6388(5) 0.4057(3) 0.55222(19)
O2 O 1.2600(5) 0.0931(3) 0.56543(18)
N1 N 0.7568(6) 0.4100(4) 0.3861(2)
N2 N 1.3798(6) 0.0874(3) 0.3993(2)
S1 S 0.6121(2) 0.36894(13) 0.08069(8)
S2 S 1.0313(2) 0.00960(13) 0.15528(7)
H21 H 1.444(8) 0.055(4) 0.436(3)
H22 H 0.660(8) 0.453(4) 0.416(3)
loop_
_geom_bond_atom_site_label_1
_geom_bond_atom_site_label_2
_geom_bond_site_symmetry_1
_geom_bond_site_symmetry_2
C1 H1 1_555 1_555
C2 C1 1_555 1_555
C3 C2 1_555 1_555
C4 C3 1_555 1_555
H2 C4 1_555 1_555
C5 C4 1_555 1_555
C6 C1 1_555 1_555
C7 H3 1_555 1_555
H4 C7 1_555 1_555
C8 C7 1_555 1_555
H5 C8 1_555 1_555
H6 C8 1_555 1_555
C9 C8 1_555 1_555
H7 C9 1_555 1_555
H8 C9 1_555 1_555
C10 H9 1_555 1_555
H10 C10 1_555 1_555
H11 C10 1_555 1_555
C11 H12 1_555 1_555
H13 C11 1_555 1_555
C12 C11 1_555 1_555
H14 C12 1_555 1_555
H15 C12 1_555 1_555
C13 C12 1_555 1_555
H16 C13 1_555 1_555
H17 C13 1_555 1_555
C14 H18 1_555 1_555
H19 C14 1_555 1_555
H20 C14 1_555 1_555
O1 C3 1_555 1_555
O2 C5 1_555 1_555
N1 C2 1_555 1_555
N2 C6 1_555 1_555
S1 C9 1_555 1_555
S2 C13 1_555 1_555
H21 N2 1_555 1_555
H22 N1 1_555 1_555
C5 C6 1_555 1_555
C7 N1 1_555 1_555
C10 S1 1_555 1_555
C11 N2 1_555 1_555
C14 S2 1_555 1_555

#END
