
#######################################################################
#
#                 Cambridge Crystallographic Data Centre
#                                CCDC 
#
#######################################################################
#
# If this CIF has been generated from an entry in the Cambridge 
# Structural Database, then it will include bibliographic, chemical, 
# crystal, experimental, refinement or atomic coordinate data resulting 
# from the CCDC's data processing and validation procedures.
#
#######################################################################

data_NEDXIF
_chemical_formula_moiety         'C26 H24 N4 O1,4(H2 O1)'
_chemical_name_systematic        
'1,2,4,5-Tetra(pyridin-4-yl)cyclohexanol tetrahydrate'
_symmetry_cell_setting           monoclinic
_symmetry_space_group_name_H-M   'C 2/c'
_symmetry_Int_Tables_number      15
_space_group_name_Hall           '-C 2yn'
loop_
_symmetry_equiv_pos_site_id
_symmetry_equiv_pos_as_xyz
1 x,y,z
2 -x,y,1/2-z
3 1/2+x,1/2+y,z
4 1/2-x,1/2+y,1/2-z
5 -x,-y,-z
6 x,-y,1/2+z
7 1/2-x,1/2-y,-z
8 1/2+x,1/2-y,1/2+z
_cell_length_a                   15.5701(8)
_cell_length_b                   11.3472(6)
_cell_length_c                   14.0056(7)
_cell_angle_alpha                90
_cell_angle_beta                 91.147(2)
_cell_angle_gamma                90
_cell_volume                     2473.97
_exptl_crystal_colour            colorless
_exptl_crystal_description       chunk
_cell_formula_units_Z            4
loop_
_atom_site_label
_atom_site_type_symbol
_atom_site_fract_x
_atom_site_fract_y
_atom_site_fract_z
O2 O 0.46295(13) 0.17639(17) 0.16321(16)
H1 H 0.4843 0.1258 0.1206
H12 H 0.4694 0.2527 0.1549
O3 O 0.42927(19) 0.0595(2) 0.45643(15)
H2 H 0.3696 0.0615 0.4509
H13 H 0.4052 0.1250 0.4997
N1 N 0.01581(12) 1.09219(16) 0.63728(12)
N2 N 0.14704(13) 0.67876(18) 0.88386(14)
C1 C -0.01473(14) 0.9826(2) 0.62998(15)
C2 C 0.03291(14) 0.88786(18) 0.59893(15)
C3 C 0.11770(14) 0.90484(19) 0.57395(14)
C4 C 0.15101(14) 1.0178(2) 0.58494(16)
C5 C 0.09818(15) 1.1076(2) 0.61595(15)
C6 C 0.16990(14) 0.8038(2) 0.53523(15)
C7 C 0.20666(14) 0.83515(19) 0.43738(15)
C8 C 0.24338(14) 0.76830(19) 0.60472(16)
C9 C 0.20867(13) 0.73596(18) 0.70220(15)
C10 C 0.22954(14) 0.8027(2) 0.78193(16)
C11 C 0.19800(16) 0.7710(2) 0.86959(16)
C12 C 0.12608(16) 0.6143(2) 0.80666(18)
C13 C 0.15504(15) 0.6396(2) 0.71582(16)
H3 H 0.2416 0.9021 0.4461
H4 H 0.1219 1.1944 0.6226
H5 H 0.0101 0.8029 0.5942
H6 H 0.2164 0.8138 0.9256
H7 H 0.2598 0.8683 0.7810
H8 H 0.0897 0.5448 0.8172
H9 H 0.2137 1.0366 0.5692
H10 H -0.0717 0.9785 0.6418
H11 H 0.1436 0.5825 0.6630
H14 H 0.1590 0.8557 0.3926
N1F N 0.48419(12) 0.40781(16) 0.36272(12)
N2F N 0.35296(13) 0.82124(18) 0.11614(14)
C1F C 0.51473(14) 0.5174(2) 0.37002(15)
C2F C 0.46709(14) 0.61214(18) 0.40107(15)
C3F C 0.38230(14) 0.59516(19) 0.42605(14)
C4F C 0.34899(14) 0.4822(2) 0.41506(16)
C5F C 0.40182(15) 0.3924(2) 0.38405(15)
C6F C 0.33010(14) 0.6962(2) 0.46477(15)
C7F C 0.29334(14) 0.66485(19) 0.56262(15)
C8F C 0.25662(14) 0.73170(19) 0.39528(16)
C9F C 0.29133(13) 0.76404(18) 0.29780(15)
C10F C 0.27046(14) 0.6973(2) 0.21807(16)
C11F C 0.30200(16) 0.7290(2) 0.13041(16)
C12F C 0.37392(16) 0.8857(2) 0.19334(18)
C13F C 0.34496(15) 0.8604(2) 0.28418(16)
H3F H 0.2584 0.5979 0.5539
H4F H 0.3781 0.3056 0.3774
H5F H 0.4899 0.6971 0.4058
H6F H 0.2836 0.6862 0.0744
H7F H 0.2402 0.6317 0.2190
H8F H 0.4103 0.9552 0.1828
H9F H 0.2863 0.4634 0.4308
H10F H 0.5717 0.5215 0.3582
H11F H 0.3564 0.9175 0.3370
H14F H 0.3410 0.6443 0.6074
O1? O 0.2009(2) 0.6303(3) 0.3824(3)
O4? O 0.1168(7) 0.6978(12) 0.5251(7)
loop_
_geom_bond_atom_site_label_1
_geom_bond_atom_site_label_2
_geom_bond_site_symmetry_1
_geom_bond_site_symmetry_2
N1 C1 1_555 1_555
N2 C11 1_555 1_555
C1 C2 1_555 1_555
C2 C3 1_555 1_555
C3 C4 1_555 1_555
C4 C5 1_555 1_555
C5 N1 1_555 1_555
C6 C3 1_555 1_555
C7 C6 1_555 1_555
C8 C6 1_555 1_555
C9 C8 1_555 1_555
C10 C9 1_555 1_555
C11 C10 1_555 1_555
C12 N2 1_555 1_555
C13 C9 1_555 1_555
O2 H1 1_555 1_555
O3 H2 1_555 1_555
H3 C7 1_555 1_555
H4 C5 1_555 1_555
H5 C2 1_555 1_555
H6 C11 1_555 1_555
H7 C10 1_555 1_555
H8 C12 1_555 1_555
H9 C4 1_555 1_555
H10 C1 1_555 1_555
H11 C13 1_555 1_555
H12 O2 1_555 1_555
H13 O3 1_555 1_555
H14 C7 1_555 1_555
N1F C1F 1_555 1_555
N2F C11F 1_555 1_555
C1F C2F 1_555 1_555
C2F C3F 1_555 1_555
C3F C4F 1_555 1_555
C4F C5F 1_555 1_555
C5F N1F 1_555 1_555
C6F C3F 1_555 1_555
C7F C8 1_555 1_555
C8F C7 1_555 1_555
C9F C8F 1_555 1_555
C10F C9F 1_555 1_555
C11F C10F 1_555 1_555
C12F N2F 1_555 1_555
C13F C9F 1_555 1_555
H3F C7F 1_555 1_555
H4F C5F 1_555 1_555
H5F C2F 1_555 1_555
H6F C11F 1_555 1_555
H7F C10F 1_555 1_555
H8F C12F 1_555 1_555
H9F C4F 1_555 1_555
H10F C1F 1_555 1_555
H11F C13F 1_555 1_555
H14F C7F 1_555 1_555
C12 C13 1_555 1_555
C6F C7F 1_555 1_555
C6F C8F 1_555 1_555
C12F C13F 1_555 1_555

#END
