
#######################################################################
#
#                 Cambridge Crystallographic Data Centre
#                                CCDC 
#
#######################################################################
#
# If this CIF has been generated from an entry in the Cambridge 
# Structural Database, then it will include bibliographic, chemical, 
# crystal, experimental, refinement or atomic coordinate data resulting 
# from the CCDC's data processing and validation procedures.
#
#######################################################################

data_NEGPOG
_chemical_formula_moiety         'C29 H31 Cl1 N4 O1'
_chemical_name_systematic        
(2-(1-Benzyl-5-chloro-2-oxo-1,2-dihydro-3H-indol-3-ylidene)-1-((2,4,4-trimethylpentan-2-yl)amino)propylidene)propanedinitrile
_symmetry_cell_setting           triclinic
_symmetry_space_group_name_H-M   'P -1'
_symmetry_Int_Tables_number      2
_space_group_name_Hall           '-P 1'
loop_
_symmetry_equiv_pos_site_id
_symmetry_equiv_pos_as_xyz
1 x,y,z
2 -x,-y,-z
_cell_length_a                   10.1221(11)
_cell_length_b                   11.7432(13)
_cell_length_c                   11.7809(13)
_cell_angle_alpha                94.4220(10)
_cell_angle_beta                 103.5460(10)
_cell_angle_gamma                100.5700(10)
_cell_volume                     1327.69
_cell_formula_units_Z            2
loop_
_atom_site_label
_atom_site_type_symbol
_atom_site_fract_x
_atom_site_fract_y
_atom_site_fract_z
C1 C 0.4533(2) 0.10641(19) -0.40053(17)
H1 H 0.4315 0.0263 -0.3980
C2 C 0.3980(2) 0.1521(2) -0.50160(19)
H2 H 0.3401 0.1030 -0.5669
C3 C 0.4292(2) 0.2703(2) -0.5048(2)
H3 H 0.3919 0.3014 -0.5724
C4 C 0.5147(3) 0.3425(2) -0.4092(2)
H4 H 0.5352 0.4227 -0.4118
C5 C 0.5705(2) 0.29692(17) -0.30895(18)
H5 H 0.6292 0.3465 -0.2443
C6 C 0.53999(18) 0.17807(16) -0.30376(15)
C7 C 0.6065(2) 0.12658(16) -0.19647(16)
H6 H 0.5658 0.0438 -0.2062
H7 H 0.7047 0.1345 -0.1920
C8 C 0.47550(18) 0.15064(14) -0.04033(15)
C9 C 0.35304(19) 0.07279(16) -0.09160(17)
H8 H 0.3379 0.0327 -0.1662
C10 C 0.25233(19) 0.05567(16) -0.02863(18)
H9 H 0.1689 0.0026 -0.0606
C11 C 0.27571(18) 0.11702(16) 0.08091(17)
C12 C 0.39904(17) 0.19602(15) 0.13280(16)
H10 H 0.4129 0.2366 0.2070
C13 C 0.50082(17) 0.21311(14) 0.07198(15)
C14 C 0.64183(17) 0.28452(15) 0.09838(15)
C15 C 0.69478(18) 0.26037(16) -0.00813(16)
C16 C 0.71907(18) 0.35245(15) 0.19678(15)
C17 C 0.6706(2) 0.36916(19) 0.30708(17)
H11 H 0.5881 0.4007 0.2900
H12 H 0.7420 0.4221 0.3657
H13 H 0.6507 0.2953 0.3359
C18 C 0.86966(17) 0.40331(15) 0.20916(14)
C19 C 0.96186(18) 0.33307(15) 0.25032(16)
C20 C 1.1078(2) 0.37511(16) 0.27246(17)
C21 C 0.9130(2) 0.21680(17) 0.27026(16)
C22 C 0.8506(2) 0.60923(16) 0.14723(17)
C23 C 0.8462(3) 0.6043(2) 0.01600(19)
H14 H 0.9380 0.6066 0.0058
H15 H 0.8125 0.6700 -0.0144
H16 H 0.7854 0.5333 -0.0256
C24 C 0.7045(2) 0.6003(2) 0.1624(2)
H17 H 0.6434 0.5351 0.1103
H18 H 0.6734 0.6708 0.1442
H19 H 0.7043 0.5894 0.2423
C25 C 0.9531(2) 0.72322(17) 0.21087(18)
H20 H 1.0408 0.7210 0.1916
H21 H 0.9190 0.7869 0.1740
C26 C 0.9878(2) 0.75936(17) 0.34509(18)
C27 C 0.8709(3) 0.7947(4) 0.3870(3)
H22 H 0.8008 0.7267 0.3845
H23 H 0.8316 0.8473 0.3370
H24 H 0.9053 0.8330 0.4663
C28 C 1.0396(4) 0.6682(3) 0.4167(2)
H25 H 0.9654 0.6015 0.4072
H26 H 1.0716 0.7000 0.4983
H27 H 1.1147 0.6452 0.3904
C29 C 1.1040(4) 0.8675(3) 0.3734(3)
H28 H 1.1283 0.8933 0.4564
H29 H 1.0734 0.9283 0.3309
H30 H 1.1836 0.8492 0.3510
Cl1 Cl 0.14771(5) 0.09448(5) 0.15747(5)
N1 N 0.59125(14) 0.18004(12) -0.08600(12)
N2 N 1.22327(19) 0.41370(17) 0.28916(19)
N3 N 0.8731(2) 0.12418(15) 0.28757(17)
N4 N 0.91523(15) 0.51150(12) 0.19079(14)
H31 H 1.0045 0.5301 0.2084
O1 O 0.80618(13) 0.30245(13) -0.02582(12)
loop_
_geom_bond_atom_site_label_1
_geom_bond_atom_site_label_2
_geom_bond_site_symmetry_1
_geom_bond_site_symmetry_2
C1 H1 1_555 1_555
C2 C1 1_555 1_555
H2 C2 1_555 1_555
C3 C2 1_555 1_555
H3 C3 1_555 1_555
C4 C3 1_555 1_555
H4 C4 1_555 1_555
C5 C4 1_555 1_555
H5 C5 1_555 1_555
C6 C1 1_555 1_555
C7 C6 1_555 1_555
H6 C7 1_555 1_555
H7 C7 1_555 1_555
C8 C9 1_555 1_555
C9 H8 1_555 1_555
C10 C9 1_555 1_555
H9 C10 1_555 1_555
C11 C10 1_555 1_555
C12 C11 1_555 1_555
H10 C12 1_555 1_555
C13 C8 1_555 1_555
C14 C13 1_555 1_555
C15 C14 1_555 1_555
C16 C14 1_555 1_555
C17 C16 1_555 1_555
H11 C17 1_555 1_555
H12 C17 1_555 1_555
H13 C17 1_555 1_555
C18 C16 1_555 1_555
C19 C18 1_555 1_555
C20 C19 1_555 1_555
C21 C19 1_555 1_555
C22 C23 1_555 1_555
C23 H14 1_555 1_555
H15 C23 1_555 1_555
H16 C23 1_555 1_555
C24 C22 1_555 1_555
H17 C24 1_555 1_555
H18 C24 1_555 1_555
H19 C24 1_555 1_555
C25 C22 1_555 1_555
H20 C25 1_555 1_555
H21 C25 1_555 1_555
C26 C25 1_555 1_555
C27 C26 1_555 1_555
H22 C27 1_555 1_555
H23 C27 1_555 1_555
H24 C27 1_555 1_555
C28 C26 1_555 1_555
H25 C28 1_555 1_555
H26 C28 1_555 1_555
H27 C28 1_555 1_555
C29 C26 1_555 1_555
H28 C29 1_555 1_555
H29 C29 1_555 1_555
H30 C29 1_555 1_555
Cl1 C11 1_555 1_555
N1 C7 1_555 1_555
N2 C20 1_555 1_555
N3 C21 1_555 1_555
N4 C18 1_555 1_555
H31 N4 1_555 1_555
O1 C15 1_555 1_555
C5 C6 1_555 1_555
C8 N1 1_555 1_555
C12 C13 1_555 1_555
C15 N1 1_555 1_555
C22 N4 1_555 1_555

#END
