
#######################################################################
#
#                 Cambridge Crystallographic Data Centre
#                                CCDC 
#
#######################################################################
#
# If this CIF has been generated from an entry in the Cambridge 
# Structural Database, then it will include bibliographic, chemical, 
# crystal, experimental, refinement or atomic coordinate data resulting 
# from the CCDC's data processing and validation procedures.
#
#######################################################################

data_NEGPUM
_chemical_formula_moiety         'C34 H29 F1 N4 O3'
_chemical_name_systematic        
"Ethyl 2-(1'-benzyl-5,5-dicyano-4-((2,6-dimethylphenyl)imino)-5'-fluoro-2'-oxo-1',2'-dihydro-3H-spiro[cyclopentane-1,3'-indol]-3-ylidene)propanoate"
_symmetry_cell_setting           monoclinic
_symmetry_space_group_name_H-M   'P 21/n'
_symmetry_Int_Tables_number      14
_space_group_name_Hall           '-P 2yn'
loop_
_symmetry_equiv_pos_site_id
_symmetry_equiv_pos_as_xyz
1 x,y,z
2 1/2-x,1/2+y,1/2-z
3 -x,-y,-z
4 1/2+x,1/2-y,1/2+z
_cell_length_a                   13.178(10)
_cell_length_b                   16.397(12)
_cell_length_c                   14.757(11)
_cell_angle_alpha                90
_cell_angle_beta                 110.761(9)
_cell_angle_gamma                90
_cell_volume                     2981.64
_cell_formula_units_Z            4
loop_
_atom_site_label
_atom_site_type_symbol
_atom_site_fract_x
_atom_site_fract_y
_atom_site_fract_z
C1 C -0.0406(2) 0.3973(2) 0.4731(3)
C2 C 0.0308(2) 0.35653(19) 0.4390(2)
H1 H 0.0244 0.3594 0.3743
C3 C 0.1115(2) 0.31167(17) 0.5054(2)
C4 C 0.1987(2) 0.25799(16) 0.4936(2)
C5 C 0.2527(2) 0.22118(18) 0.5957(2)
C6 C 0.1169(2) 0.30649(18) 0.6011(2)
C7 C 0.0454(2) 0.3478(2) 0.6340(2)
H2 H 0.0508 0.3447 0.6985
C8 C -0.0342(3) 0.3939(2) 0.5678(3)
H3 H -0.0836 0.4228 0.5874
C9 C 0.2248(3) 0.2278(2) 0.7534(2)
H4 H 0.2668 0.1779 0.7646
H5 H 0.1568 0.2155 0.7620
C10 C 0.2856(2) 0.2891(2) 0.8289(2)
C11 C 0.3331(3) 0.3578(3) 0.8087(3)
H6 H 0.3260 0.3691 0.7450
C12 C 0.3913(3) 0.4103(3) 0.8817(4)
H7 H 0.4229 0.4570 0.8676
C13 C 0.4019(4) 0.3924(4) 0.9756(4)
H8 H 0.4428 0.4263 1.0257
C14 C 0.3525(5) 0.3246(4) 0.9956(3)
H9 H 0.3579 0.3137 1.0590
C15 C 0.2960(3) 0.2738(3) 0.9237(3)
H10 H 0.2635 0.2277 0.9381
C16 C 0.1604(2) 0.18942(17) 0.4175(2)
H11 H 0.1318 0.1438 0.4428
H12 H 0.1043 0.2092 0.3592
C17 C 0.2599(2) 0.16392(16) 0.39599(19)
C18 C 0.3444(2) 0.22695(16) 0.43082(18)
C19 C 0.2913(2) 0.30108(16) 0.46601(19)
C20 C 0.3651(2) 0.34777(18) 0.5489(2)
C21 C 0.2432(2) 0.35781(19) 0.3845(2)
C22 C 0.5136(2) 0.28701(17) 0.4507(2)
C23 C 0.5098(2) 0.34132(18) 0.3765(2)
C24 C 0.5816(3) 0.4061(2) 0.3990(3)
H13 H 0.5786 0.4441 0.3513
C25 C 0.6571(3) 0.4154(2) 0.4900(3)
H14 H 0.7031 0.4604 0.5042
C26 C 0.6651(2) 0.3586(2) 0.5608(3)
H15 H 0.7186 0.3646 0.6217
C27 C 0.5944(2) 0.2922(2) 0.5427(2)
C28 C 0.6028(3) 0.2292(3) 0.6189(2)
H16 H 0.6646 0.2409 0.6759
H17 H 0.6109 0.1762 0.5948
H18 H 0.5382 0.2304 0.6349
C29 C 0.4328(2) 0.3281(2) 0.2744(2)
H19 H 0.3614 0.3456 0.2690
H20 H 0.4310 0.2712 0.2586
H21 H 0.4568 0.3589 0.2305
C30 C 0.2685(2) 0.09654(16) 0.34782(19)
C31 C 0.1795(2) 0.03462(19) 0.3103(3)
H22 H 0.2030 -0.0164 0.3429
H23 H 0.1624 0.0274 0.2419
H24 H 0.1162 0.0533 0.3220
C32 C 0.3684(2) 0.07794(17) 0.3246(2)
C33 C 0.5234(3) -0.0085(2) 0.3675(3)
H25 H 0.5413 -0.0624 0.3957
H26 H 0.5063 -0.0132 0.2981
C34 C 0.6160(3) 0.0451(3) 0.4083(3)
H27 H 0.5989 0.0982 0.3793
H28 H 0.6772 0.0232 0.3955
H29 H 0.6334 0.0495 0.4770
F1 F -0.12176(15) 0.44089(13) 0.40816(16)
N1 N 0.2012(2) 0.25294(15) 0.65368(17)
N2 N 0.4153(2) 0.38392(18) 0.6154(2)
N3 N 0.2043(2) 0.40096(19) 0.3214(2)
N4 N 0.43886(16) 0.22096(14) 0.42846(16)
O1 O 0.32766(19) 0.17381(14) 0.62043(17)
O2 O 0.42887(16) 0.02269(13) 0.38608(16)
O3 O 0.38418(15) 0.10389(13) 0.25495(14)
loop_
_geom_bond_atom_site_label_1
_geom_bond_atom_site_label_2
_geom_bond_site_symmetry_1
_geom_bond_site_symmetry_2
C1 C2 1_555 1_555
C2 H1 1_555 1_555
C3 C2 1_555 1_555
C4 C3 1_555 1_555
C5 C4 1_555 1_555
C6 C3 1_555 1_555
C7 C6 1_555 1_555
H2 C7 1_555 1_555
C8 C1 1_555 1_555
H3 C8 1_555 1_555
C9 H4 1_555 1_555
H5 C9 1_555 1_555
C10 C9 1_555 1_555
C11 C10 1_555 1_555
H6 C11 1_555 1_555
C12 C11 1_555 1_555
H7 C12 1_555 1_555
C13 C12 1_555 1_555
H8 C13 1_555 1_555
C14 C13 1_555 1_555
H9 C14 1_555 1_555
C15 C10 1_555 1_555
H10 C15 1_555 1_555
C16 C4 1_555 1_555
H11 C16 1_555 1_555
H12 C16 1_555 1_555
C17 C16 1_555 1_555
C18 C17 1_555 1_555
C19 C4 1_555 1_555
C20 C19 1_555 1_555
C21 C19 1_555 1_555
C22 C23 1_555 1_555
C23 C24 1_555 1_555
C24 H13 1_555 1_555
C25 C24 1_555 1_555
H14 C25 1_555 1_555
C26 C25 1_555 1_555
H15 C26 1_555 1_555
C27 C22 1_555 1_555
C28 C27 1_555 1_555
H16 C28 1_555 1_555
H17 C28 1_555 1_555
H18 C28 1_555 1_555
C29 C23 1_555 1_555
H19 C29 1_555 1_555
H20 C29 1_555 1_555
H21 C29 1_555 1_555
C30 C17 1_555 1_555
C31 C30 1_555 1_555
H22 C31 1_555 1_555
H23 C31 1_555 1_555
H24 C31 1_555 1_555
C32 C30 1_555 1_555
C33 H25 1_555 1_555
H26 C33 1_555 1_555
C34 C33 1_555 1_555
H27 C34 1_555 1_555
H28 C34 1_555 1_555
H29 C34 1_555 1_555
F1 C1 1_555 1_555
N1 C5 1_555 1_555
N2 C20 1_555 1_555
N3 C21 1_555 1_555
N4 C18 1_555 1_555
O1 C5 1_555 1_555
O2 C32 1_555 1_555
O3 C32 1_555 1_555
C6 N1 1_555 1_555
C7 C8 1_555 1_555
C9 N1 1_555 1_555
C14 C15 1_555 1_555
C18 C19 1_555 1_555
C22 N4 1_555 1_555
C26 C27 1_555 1_555
C33 O2 1_555 1_555

#END
