
#######################################################################
#
#                 Cambridge Crystallographic Data Centre
#                                CCDC 
#
#######################################################################
#
# If this CIF has been generated from an entry in the Cambridge 
# Structural Database, then it will include bibliographic, chemical, 
# crystal, experimental, refinement or atomic coordinate data resulting 
# from the CCDC's data processing and validation procedures.
#
#######################################################################

data_NEGVAZ
_chemical_formula_moiety         'C12 H24 O6,C6 H7 N2 O2 1+,I1 O4 1-'
_chemical_name_systematic        '2-nitroanilinium periodate 18-crown-6'
_symmetry_cell_setting           triclinic
_symmetry_space_group_name_H-M   'P -1'
_symmetry_Int_Tables_number      2
_space_group_name_Hall           '-P 1'
loop_
_symmetry_equiv_pos_site_id
_symmetry_equiv_pos_as_xyz
1 x,y,z
2 -x,-y,-z
_cell_length_a                   9.4513(4)
_cell_length_b                   10.8946(5)
_cell_length_c                   13.5628(6)
_cell_angle_alpha                109.4650(10)
_cell_angle_beta                 107.3490(10)
_cell_angle_gamma                91.7750(10)
_cell_volume                     1243.56
_exptl_crystal_colour            yellow
_cell_formula_units_Z            2
loop_
_atom_site_label
_atom_site_type_symbol
_atom_site_fract_x
_atom_site_fract_y
_atom_site_fract_z
O1 O 0.4726(8) 0.6318(7) 0.1974(6)
O2 O 0.7299(8) 0.6699(7) 0.3823(6)
O3 O 0.9236(10) 0.4931(9) 0.3171(8)
O4 O 0.7861(7) 0.3088(6) 0.1107(5)
O5 O 0.5004(9) 0.1819(7) 0.0418(6)
O6 O 0.3102(10) 0.3680(9) 0.1085(8)
C1 C 0.3556(18) 0.1734(17) -0.0288(15)
H1 H 0.3546 0.2297 -0.0712
H2 H 0.3186 0.0836 -0.0798
C2 C 0.2693(14) 0.2134(13) 0.0375(11)
H3 H 0.2838 0.1650 0.0874
H4 H 0.1645 0.1937 -0.0079
C3 C 0.2775(17) 0.4527(18) 0.0627(14)
H5 H 0.1723 0.4318 0.0182
H6 H 0.3352 0.4461 0.0132
C4 C 0.3066(14) 0.5905(14) 0.1422(13)
H7 H 0.2587 0.5966 0.1974
H8 H 0.2651 0.6483 0.1033
C5 C 0.5216(17) 0.7491(12) 0.2895(10)
H9 H 0.4902 0.8223 0.2670
H10 H 0.4758 0.7455 0.3439
C6 C 0.6738(18) 0.7689(10) 0.3361(10)
H11 H 0.7047 0.8550 0.3944
H12 H 0.7188 0.7684 0.2804
C7 C 0.8924(16) 0.6727(18) 0.4445(12)
H13 H 0.9343 0.7634 0.4907
H14 H 0.8959 0.6245 0.4935
C8 C 0.983(2) 0.6237(18) 0.3845(17)
H15 H 1.0833 0.6278 0.4336
H16 H 0.9896 0.6751 0.3394
C9 C 0.9822(14) 0.4764(13) 0.2348(12)
H17 H 1.0900 0.5020 0.2655
H18 H 0.9403 0.5307 0.1926
C10 C 0.9470(12) 0.3410(14) 0.1650(11)
H19 H 0.9810 0.2864 0.2087
H20 H 0.9973 0.3244 0.1101
C11 C 0.7476(15) 0.1763(12) 0.0434(10)
H21 H 0.8120 0.1524 -0.0018
H22 H 0.7600 0.1222 0.0887
C12 C 0.6000(16) 0.1560(12) -0.0233(10)
H23 H 0.5739 0.0657 -0.0749
H24 H 0.5878 0.2133 -0.0658
O7 O 0.2700(9) 0.3715(11) 0.3812(10)
O8 O 0.4137(7) 0.5075(6) 0.3631(6)
N1 N 0.3845(7) 0.4031(7) 0.3696(5)
N2 N 0.6047(6) 0.4034(5) 0.2544(4)
H25 H 0.5139 0.3955 0.2064
H26 H 0.6698 0.3812 0.2180
H27 H 0.6325 0.4863 0.3012
C13 C 0.4941(7) 0.3123(6) 0.3662(5)
C14 C 0.6012(6) 0.3169(5) 0.3158(5)
C15 C 0.7073(8) 0.2314(7) 0.3203(6)
H28 H 0.7794 0.2317 0.2864
C16 C 0.7044(9) 0.1462(7) 0.3756(7)
H29 H 0.7764 0.0902 0.3801
C17 C 0.5966(9) 0.1427(7) 0.4243(7)
H30 H 0.5962 0.0846 0.4613
C18 C 0.4913(9) 0.2234(7) 0.4186(6)
H31 H 0.4170 0.2192 0.4499
I1 I 0.10154(5) 0.95971(5) 0.26478(4)
O9 O 0.2200(13) 0.9942(11) 0.3988(7)
O10 O 0.0371(16) 0.7931(9) 0.1964(11)
O11 O -0.0463(14) 1.0454(13) 0.2634(11)
O12 O 0.2030(18) 1.013(2) 0.1946(11)
loop_
_geom_bond_atom_site_label_1
_geom_bond_atom_site_label_2
_geom_bond_site_symmetry_1
_geom_bond_site_symmetry_2
O1 C4 1_555 1_555
O2 C6 1_555 1_555
O3 C8 1_555 1_555
O4 C10 1_555 1_555
O5 C1 1_555 1_555
O6 C2 1_555 1_555
C1 H1 1_555 1_555
H2 C1 1_555 1_555
C2 C1 1_555 1_555
H3 C2 1_555 1_555
H4 C2 1_555 1_555
C3 O6 1_555 1_555
H5 C3 1_555 1_555
H6 C3 1_555 1_555
C4 C3 1_555 1_555
H7 C4 1_555 1_555
H8 C4 1_555 1_555
C5 O1 1_555 1_555
H9 C5 1_555 1_555
H10 C5 1_555 1_555
C6 C5 1_555 1_555
H11 C6 1_555 1_555
H12 C6 1_555 1_555
C7 O2 1_555 1_555
H13 C7 1_555 1_555
H14 C7 1_555 1_555
C8 C7 1_555 1_555
H15 C8 1_555 1_555
H16 C8 1_555 1_555
C9 O3 1_555 1_555
H17 C9 1_555 1_555
H18 C9 1_555 1_555
C10 C9 1_555 1_555
H19 C10 1_555 1_555
H20 C10 1_555 1_555
C11 O4 1_555 1_555
H21 C11 1_555 1_555
H22 C11 1_555 1_555
C12 O5 1_555 1_555
H23 C12 1_555 1_555
H24 C12 1_555 1_555
O7 N1 1_555 1_555
O8 N1 1_555 1_555
N1 C13 1_555 1_555
N2 H25 1_555 1_555
H26 N2 1_555 1_555
H27 N2 1_555 1_555
C13 C14 1_555 1_555
C14 N2 1_555 1_555
C15 C14 1_555 1_555
H28 C15 1_555 1_555
C16 C15 1_555 1_555
H29 C16 1_555 1_555
C17 C16 1_555 1_555
H30 C17 1_555 1_555
C18 C13 1_555 1_555
H31 C18 1_555 1_555
I1 O9 1_555 1_555
O10 I1 1_555 1_555
O11 I1 1_555 1_555
O12 I1 1_555 1_555
C11 C12 1_555 1_555
C17 C18 1_555 1_555

#END
