
#######################################################################
#
#                 Cambridge Crystallographic Data Centre
#                                CCDC 
#
#######################################################################
#
# If this CIF has been generated from an entry in the Cambridge 
# Structural Database, then it will include bibliographic, chemical, 
# crystal, experimental, refinement or atomic coordinate data resulting 
# from the CCDC's data processing and validation procedures.
#
#######################################################################

data_NEHBOR
_chemical_formula_moiety         'C23 H24 O8,C4 H8 O1'
_chemical_name_systematic        
'rac-1,4-bis(O-Benzoyl)-2,3-o-isopropylidene-myo-inositol tetrahydrofuran solvate'
_symmetry_cell_setting           triclinic
_symmetry_space_group_name_H-M   'P -1'
_symmetry_Int_Tables_number      2
_space_group_name_Hall           '-P 1'
loop_
_symmetry_equiv_pos_site_id
_symmetry_equiv_pos_as_xyz
1 x,y,z
2 -x,-y,-z
_cell_length_a                   10.432(2)
_cell_length_b                   11.595(4)
_cell_length_c                   12.654(2)
_cell_angle_alpha                67.72(3)
_cell_angle_beta                 86.31(1)
_cell_angle_gamma                70.45(2)
_cell_volume                     1331.26
_cell_formula_units_Z            2
loop_
_atom_site_label
_atom_site_type_symbol
_atom_site_fract_x
_atom_site_fract_y
_atom_site_fract_z
O1 O 0.8819(3) 0.8038(3) 0.1596(2)
O2 O 0.7246(3) 0.8534(3) -0.0285(2)
O3 O 0.7564(3) 0.9180(3) -0.2202(2)
O4 O 1.0285(3) 0.7437(3) -0.2520(2)
O5 O 1.1500(4) 0.5370(3) -0.0353(3)
O6 O 1.1296(4) 0.6175(3) 0.1503(3)
O7 O 0.8796(4) 1.0058(4) 0.1368(3)
O8 O 0.9263(4) 0.6139(4) -0.2804(3)
C1 C 0.9477(5) 0.8133(4) 0.0530(3)
C2 C 0.8419(5) 0.8937(4) -0.0471(4)
C3 C 0.8843(5) 0.8772(4) -0.1589(4)
C4 C 0.9684(5) 0.7354(4) -0.1429(3)
C5 C 1.0821(5) 0.6717(4) -0.0496(4)
C6 C 1.0236(4) 0.6726(4) 0.0632(3)
C7 C 0.6534(5) 0.9054(5) -0.1382(4)
C8 C 0.5928(7) 0.8059(7) -0.1440(5)
C9 C 0.5524(6) 1.0431(7) -0.1630(6)
C10 C 0.8540(5) 0.9071(5) 0.1917(4)
C11 C 0.7881(5) 0.8840(5) 0.3020(4)
C12 C 0.7586(6) 0.7699(6) 0.3596(4)
C13 C 0.6977(7) 0.7526(8) 0.4623(5)
C14 C 0.6684(7) 0.8495(10) 0.5064(6)
C15 C 0.6966(7) 0.9631(9) 0.4498(6)
C16 C 0.7585(6) 0.9818(7) 0.3470(5)
C17 C 0.9981(5) 0.6815(4) -0.3120(4)
C18 C 1.0633(5) 0.7059(4) -0.4216(3)
C19 C 1.0713(6) 0.6238(5) -0.4803(4)
C20 C 1.1267(7) 0.6466(7) -0.5850(5)
C21 C 1.1754(6) 0.7489(7) -0.6311(4)
C22 C 1.1683(7) 0.8309(6) -0.5747(5)
C23 C 1.1118(6) 0.8101(5) -0.4703(4)
H1 H 1.2144(61) 0.5438(59) -0.0682(51)
H2 H 1.1348(65) 0.5512(56) 0.1825(52)
H3 H 1.0126(5) 0.8576(4) 0.0464(3)
H4 H 0.8150(5) 0.9856(4) -0.0589(4)
H5 H 0.9339(5) 0.9354(4) -0.1990(4)
H6 H 0.9100(5) 0.6829(4) -0.1273(3)
H7 H 1.1459(5) 0.7189(4) -0.0691(4)
H8 H 0.9627(4) 0.6225(4) 0.0838(3)
H9 H 0.5447(7) 0.8394(7) -0.2175(5)
H10 H 0.5308(7) 0.7913(7) -0.0849(5)
H11 H 0.6646(7) 0.7239(7) -0.1334(5)
H12 H 0.5058(6) 1.0762(7) -0.2371(6)
H13 H 0.6001(6) 1.1006(7) -0.1621(6)
H14 H 0.4873(6) 1.0397(7) -0.1058(6)
H15 H 0.7802(6) 0.7022(6) 0.3287(4)
H16 H 0.6760(7) 0.6735(8) 0.5025(5)
H17 H 0.6274(7) 0.8368(10) 0.5782(6)
H18 H 0.6737(7) 1.0305(9) 0.4811(6)
H19 H 0.7804(6) 1.0609(7) 0.3076(5)
H20 H 1.0381(6) 0.5507(5) -0.4475(4)
H21 H 1.1308(7) 0.5902(7) -0.6254(5)
H22 H 1.2151(6) 0.7639(7) -0.7036(4)
H23 H 1.2027(7) 0.9031(6) -0.6080(5)
H24 H 1.1062(6) 0.8684(5) -0.4315(4)
O9 O 0.6188(8) 0.5098(8) 0.1452(8)
C24 C 0.6094(15) 0.5864(12) 0.2047(12)
C25 C 0.5413(18) 0.5389(20) 0.3030(14)
C26 C 0.4919(18) 0.4395(19) 0.2874(17)
C27 C 0.5466(17) 0.4299(17) 0.1883(17)
H25 H 0.5590(15) 0.6770(12) 0.1595(12)
H26 H 0.6986(15) 0.5809(12) 0.2260(12)
H27 H 0.4660(18) 0.6099(20) 0.3105(14)
H28 H 0.6024(18) 0.4987(20) 0.3704(14)
H29 H 0.5241(18) 0.3559(19) 0.3507(17)
H30 H 0.3941(18) 0.4693(19) 0.2795(17)
H31 H 0.6040(17) 0.3403(17) 0.2038(17)
H32 H 0.4744(17) 0.4521(17) 0.1331(17)
loop_
_geom_bond_atom_site_label_1
_geom_bond_atom_site_label_2
_geom_bond_site_symmetry_1
_geom_bond_site_symmetry_2
O1 C1 1_555 1_555
O2 C2 1_555 1_555
O3 C3 1_555 1_555
O4 C4 1_555 1_555
O5 C5 1_555 1_555
O6 C6 1_555 1_555
O7 C10 1_555 1_555
O8 C17 1_555 1_555
O9 C24 1_555 1_555
C1 C2 1_555 1_555
C2 C3 1_555 1_555
C3 C4 1_555 1_555
C4 C5 1_555 1_555
C5 C6 1_555 1_555
C6 C1 1_555 1_555
C7 O2 1_555 1_555
C8 C7 1_555 1_555
C9 C7 1_555 1_555
C10 O1 1_555 1_555
C11 C10 1_555 1_555
C12 C11 1_555 1_555
C13 C12 1_555 1_555
C14 C13 1_555 1_555
C15 C14 1_555 1_555
C16 C11 1_555 1_555
C17 O4 1_555 1_555
C18 C17 1_555 1_555
C19 C18 1_555 1_555
C20 C19 1_555 1_555
C21 C20 1_555 1_555
C22 C21 1_555 1_555
C23 C18 1_555 1_555
C24 C25 1_555 1_555
C25 C26 1_555 1_555
C26 C27 1_555 1_555
C27 O9 1_555 1_555
H1 O5 1_555 1_555
H2 O6 1_555 1_555
H3 C1 1_555 1_555
H4 C2 1_555 1_555
H5 C3 1_555 1_555
H6 C4 1_555 1_555
H7 C5 1_555 1_555
H8 C6 1_555 1_555
H9 C8 1_555 1_555
H10 C8 1_555 1_555
H11 C8 1_555 1_555
H12 C9 1_555 1_555
H13 C9 1_555 1_555
H14 C9 1_555 1_555
H15 C12 1_555 1_555
H16 C13 1_555 1_555
H17 C14 1_555 1_555
H18 C15 1_555 1_555
H19 C16 1_555 1_555
H20 C19 1_555 1_555
H21 C20 1_555 1_555
H22 C21 1_555 1_555
H23 C22 1_555 1_555
H24 C23 1_555 1_555
H25 C24 1_555 1_555
H26 C24 1_555 1_555
H27 C25 1_555 1_555
H28 C25 1_555 1_555
H29 C26 1_555 1_555
H30 C26 1_555 1_555
H31 C27 1_555 1_555
H32 C27 1_555 1_555
O3 C7 1_555 1_555
C15 C16 1_555 1_555
C22 C23 1_555 1_555

#END
