
#######################################################################
#
#                 Cambridge Crystallographic Data Centre
#                                CCDC 
#
#######################################################################
#
# If this CIF has been generated from an entry in the Cambridge 
# Structural Database, then it will include bibliographic, chemical, 
# crystal, experimental, refinement or atomic coordinate data resulting 
# from the CCDC's data processing and validation procedures.
#
#######################################################################

data_NEHPOH
_chemical_name_common            
'Formosterol A ethyl acetate solvate monohydrate'
_chemical_formula_moiety         'C28 H42 O7,0.5(C4 H8 O2),H2 O1'
_chemical_name_systematic        
'3,12,14,16,25-pentahydroxy-22,23-epoxyergosta-5,7-dien-11-one ethyl acetate solvate monohydrate'
_symmetry_cell_setting           orthorhombic
_symmetry_space_group_name_H-M   'P 21 21 21'
_symmetry_Int_Tables_number      19
_space_group_name_Hall           'P 2ac 2ab'
loop_
_symmetry_equiv_pos_site_id
_symmetry_equiv_pos_as_xyz
1 x,y,z
2 1/2-x,-y,1/2+z
3 1/2+x,1/2-y,-z
4 -x,1/2+y,1/2-z
_cell_length_a                   7.3373(2)
_cell_length_b                   16.2963(4)
_cell_length_c                   23.7869(7)
_cell_angle_alpha                90
_cell_angle_beta                 90
_cell_angle_gamma                90
_cell_volume                     2844.22
_exptl_crystal_colour            colorless
_exptl_crystal_description       plate
_cell_formula_units_Z            4
loop_
_atom_site_label
_atom_site_type_symbol
_atom_site_fract_x
_atom_site_fract_y
_atom_site_fract_z
C1 C -0.0360(4) -0.17898(18) 0.12707(12)
H1 H -0.1366 -0.1396 0.1207
H2 H 0.0242 -0.1887 0.0904
C2 C -0.1173(5) -0.26038(19) 0.14805(13)
H3 H -0.1899 -0.2504 0.1825
H4 H -0.1994 -0.2834 0.1190
C3 C 0.0328(4) -0.32086(18) 0.16064(13)
H5 H 0.1049 -0.3302 0.1255
O1 O -0.0443(3) -0.39778(13) 0.17840(10)
H6 H 0.037(10) -0.439(5) 0.181(3)
C4 C 0.1590(4) -0.28676(18) 0.20553(13)
H7 H 0.0912 -0.2820 0.2414
H8 H 0.2611 -0.3256 0.2115
C5 C 0.2347(4) -0.20414(18) 0.18992(12)
C6 C 0.4090(4) -0.18419(18) 0.20217(13)
H9 H 0.4876 -0.2251 0.2170
C7 C 0.4796(4) -0.10187(17) 0.19325(12)
H10 H 0.5929 -0.0871 0.2097
C8 C 0.3902(4) -0.04677(17) 0.16269(11)
C9 C 0.2142(4) -0.07267(16) 0.13410(11)
H11 H 0.2478 -0.0972 0.0970
C10 C 0.1035(4) -0.13971(17) 0.16762(11)
C11 C 0.0973(4) 0.00189(17) 0.12228(11)
O2 O -0.0112(3) 0.00641(12) 0.08364(8)
C12 C 0.1282(4) 0.07315(16) 0.16152(11)
H12 H 0.1246 0.0506 0.2006
O3 O -0.0134(3) 0.13130(13) 0.15760(10)
H13 H -0.043(7) 0.120(3) 0.1316(19)
C13 C 0.3227(4) 0.11087(16) 0.15296(11)
C14 C 0.4656(4) 0.03715(17) 0.14739(11)
O4 O 0.6223(3) 0.04970(13) 0.18216(8)
H14 H 0.671(5) 0.089(2) 0.1691(16)
C15 C 0.5232(4) 0.03913(16) 0.08464(10)
H15 H 0.6473 0.0164 0.0796
H16 H 0.4369 0.0075 0.0611
C16 C 0.5179(4) 0.12988(16) 0.06974(11)
H17 H 0.5190 0.1382 0.0281
O5 O 0.6761(3) 0.16701(14) 0.09583(8)
H18 H 0.677(5) 0.217(2) 0.0889(15)
C17 C 0.3387(4) 0.15981(16) 0.09561(11)
H19 H 0.2386 0.1394 0.0707
C18 C 0.3624(4) 0.16325(18) 0.20463(11)
H20 H 0.2704 0.2066 0.2078
H21 H 0.4835 0.1881 0.2010
H22 H 0.3589 0.1287 0.2383
C19 C 0.0054(5) -0.10230(17) 0.21856(12)
H23 H -0.0805 -0.0602 0.2057
H24 H 0.0952 -0.0773 0.2438
H25 H -0.0611 -0.1454 0.2387
C20 C 0.3215(4) 0.25526(17) 0.09739(12)
H26 H 0.3982 0.2764 0.1290
C21 C 0.1267(4) 0.28626(18) 0.10536(14)
H27 H 0.0514 0.2683 0.0736
H28 H 0.1271 0.3463 0.1072
H29 H 0.0767 0.2640 0.1404
C22 C 0.3922(4) 0.29153(17) 0.04245(11)
H30 H 0.3370 0.2685 0.0074
O6 O 0.5881(3) 0.30795(12) 0.03978(8)
C23 C 0.4625(4) 0.37637(17) 0.03787(11)
H31 H 0.4484 0.4002 -0.0006
C24 C 0.4520(4) 0.44075(17) 0.08479(12)
H32 H 0.4008 0.4137 0.1190
C25 C 0.6370(4) 0.47751(17) 0.10037(12)
O7 O 0.5998(3) 0.54720(14) 0.13642(9)
H33 H 0.684(12) 0.584(5) 0.151(4)
C26 C 0.7473(5) 0.4166(2) 0.13564(16)
H34 H 0.6746 0.3990 0.1680
H35 H 0.8592 0.4432 0.1489
H36 H 0.7787 0.3688 0.1126
C27 C 0.7458(5) 0.5066(3) 0.04969(14)
H37 H 0.6724 0.5455 0.0279
H38 H 0.7774 0.4594 0.0261
H39 H 0.8575 0.5337 0.0625
C28 C 0.3118(5) 0.50445(19) 0.06381(14)
H40 H 0.2900 0.5453 0.0933
H41 H 0.1972 0.4767 0.0546
H42 H 0.3593 0.5319 0.0302
C29 C 0.541(3) 0.2198(15) 0.4437(10)
H43 H 0.5469 0.2423 0.4055
H44 H 0.4949 0.1635 0.4423
H45 H 0.6635 0.2199 0.4603
C30 C 0.4036(16) 0.2768(7) 0.4825(5)
C31 C 0.0943(16) 0.2624(8) 0.5300(5)
H46 H 0.1337 0.2829 0.5672
H47 H 0.0350 0.3076 0.5090
C32 C -0.026(3) 0.1918(13) 0.5354(10)
H48 H -0.1364 0.2078 0.5561
H49 H 0.0365 0.1479 0.5559
H50 H -0.0605 0.1721 0.4979
O8 O 0.398(2) 0.3460(8) 0.4985(6)
O9 O 0.2534(12) 0.2266(5) 0.4972(4)
O10 O 0.7178(4) 0.01605(14) 0.29518(11)
H51 H 0.631(6) 0.025(2) 0.3151(17)
H52 H 0.681(6) 0.025(2) 0.2621(19)
loop_
_geom_bond_atom_site_label_1
_geom_bond_atom_site_label_2
_geom_bond_site_symmetry_1
_geom_bond_site_symmetry_2
C1 H1 1_555 1_555
H2 C1 1_555 1_555
C2 C1 1_555 1_555
H3 C2 1_555 1_555
H4 C2 1_555 1_555
C3 C2 1_555 1_555
H5 C3 1_555 1_555
O1 C3 1_555 1_555
H6 O1 1_555 1_555
C4 C3 1_555 1_555
H7 C4 1_555 1_555
H8 C4 1_555 1_555
C5 C4 1_555 1_555
C6 C5 1_555 1_555
H9 C6 1_555 1_555
C7 C6 1_555 1_555
H10 C7 1_555 1_555
C8 C7 1_555 1_555
C9 C8 1_555 1_555
H11 C9 1_555 1_555
C10 C1 1_555 1_555
C11 C9 1_555 1_555
O2 C11 1_555 1_555
C12 C11 1_555 1_555
H12 C12 1_555 1_555
O3 C12 1_555 1_555
H13 O3 1_555 1_555
C13 C12 1_555 1_555
C14 C8 1_555 1_555
O4 C14 1_555 1_555
H14 O4 1_555 1_555
C15 C14 1_555 1_555
H15 C15 1_555 1_555
H16 C15 1_555 1_555
C16 C15 1_555 1_555
H17 C16 1_555 1_555
O5 C16 1_555 1_555
H18 O5 1_555 1_555
C17 C13 1_555 1_555
H19 C17 1_555 1_555
C18 C13 1_555 1_555
H20 C18 1_555 1_555
H21 C18 1_555 1_555
H22 C18 1_555 1_555
C19 C10 1_555 1_555
H23 C19 1_555 1_555
H24 C19 1_555 1_555
H25 C19 1_555 1_555
C20 C17 1_555 1_555
H26 C20 1_555 1_555
C21 C20 1_555 1_555
H27 C21 1_555 1_555
H28 C21 1_555 1_555
H29 C21 1_555 1_555
C22 C20 1_555 1_555
H30 C22 1_555 1_555
O6 C22 1_555 1_555
C23 C22 1_555 1_555
H31 C23 1_555 1_555
C24 C23 1_555 1_555
H32 C24 1_555 1_555
C25 C24 1_555 1_555
O7 C25 1_555 1_555
H33 O7 1_555 1_555
C26 C25 1_555 1_555
H34 C26 1_555 1_555
H35 C26 1_555 1_555
H36 C26 1_555 1_555
C27 C25 1_555 1_555
H37 C27 1_555 1_555
H38 C27 1_555 1_555
H39 C27 1_555 1_555
C28 C24 1_555 1_555
H40 C28 1_555 1_555
H41 C28 1_555 1_555
H42 C28 1_555 1_555
C29 H43 1_555 1_555
H44 C29 1_555 1_555
H45 C29 1_555 1_555
C30 C29 1_555 1_555
C31 H46 1_555 1_555
H47 C31 1_555 1_555
C32 C31 1_555 1_555
H48 C32 1_555 1_555
H49 C32 1_555 1_555
H50 C32 1_555 1_555
O8 C30 1_555 1_555
O9 C30 1_555 1_555
O10 H51 1_555 1_555
H52 O10 1_555 1_555
C5 C10 1_555 1_555
C9 C10 1_555 1_555
C13 C14 1_555 1_555
C16 C17 1_555 1_555
O6 C23 1_555 1_555
C31 O9 1_555 1_555

#END
