
#######################################################################
#
#                 Cambridge Crystallographic Data Centre
#                                CCDC 
#
#######################################################################
#
# If this CIF has been generated from an entry in the Cambridge 
# Structural Database, then it will include bibliographic, chemical, 
# crystal, experimental, refinement or atomic coordinate data resulting 
# from the CCDC's data processing and validation procedures.
#
#######################################################################

data_NEHWOO
_chemical_compound_source        'roots of Coriaria nepalensis'
_chemical_name_common            'Corialactone C'
_chemical_formula_moiety         'C15 H22 O4'
_chemical_name_systematic        
3-Hydroxy-5-(hydroxymethyl)-11-isopropyl-6-methyl-9-oxatricyclo[6.2.1.0^2,6^]undec-4-en-10-one
_symmetry_cell_setting           orthorhombic
_symmetry_space_group_name_H-M   'P 21 21 21'
_symmetry_Int_Tables_number      19
_space_group_name_Hall           'P 2ac 2ab'
loop_
_symmetry_equiv_pos_site_id
_symmetry_equiv_pos_as_xyz
1 x,y,z
2 1/2-x,-y,1/2+z
3 1/2+x,1/2-y,-z
4 -x,1/2+y,1/2-z
_cell_length_a                   7.591(6)
_cell_length_b                   11.852(4)
_cell_length_c                   16.035(5)
_cell_angle_alpha                90
_cell_angle_beta                 90
_cell_angle_gamma                90
_cell_volume                     1442.65
_exptl_crystal_colour            colorless
_exptl_crystal_description       prism
_cell_formula_units_Z            4
loop_
_atom_site_label
_atom_site_type_symbol
_atom_site_fract_x
_atom_site_fract_y
_atom_site_fract_z
O1 O -0.38217(16) -0.16807(10) -0.16499(6)
O2 O -0.2507(2) -0.01900(9) -0.22414(8)
O3 O -0.00974(12) -0.24710(10) -0.43373(5)
H1 H 0.0962 -0.2343 -0.4304
O4 O -0.66052(13) -0.19807(10) -0.41775(6)
H2 H -0.6165 -0.2136 -0.4630
C1 C -0.28196(16) -0.33683(10) -0.29303(7)
C2 C -0.36768(18) -0.36518(12) -0.20783(8)
H3 H -0.4945 -0.3687 -0.2150
H4 H -0.3281 -0.4393 -0.1903
C3 C -0.3258(2) -0.28122(13) -0.13976(8)
H5 H -0.3825 -0.3032 -0.0873
C4 C -0.12696(18) -0.26683(11) -0.12755(7)
H6 H -0.1096 -0.2164 -0.0798
C5 C -0.09150(17) -0.19820(10) -0.20675(7)
H7 H 0.0221 -0.1591 -0.2035
C6 C -0.10369(16) -0.27175(10) -0.28640(7)
H8 H -0.0053 -0.3253 -0.2879
C7 C -0.2578(2) -0.44749(12) -0.34150(10)
H9 H -0.3686 -0.4863 -0.3449
H10 H -0.1736 -0.4943 -0.3132
H11 H -0.2161 -0.4311 -0.3967
C8 C -0.0165(2) -0.37206(11) -0.11235(8)
H12 H -0.0302 -0.4225 -0.1603
C9 C -0.0794(3) -0.43403(15) -0.03436(9)
H13 H -0.2017 -0.4530 -0.0403
H14 H -0.0643 -0.3863 0.0135
H15 H -0.0118 -0.5018 -0.0272
C10 C 0.1771(2) -0.34093(17) -0.10439(11)
H16 H 0.2146 -0.3021 -0.1538
H17 H 0.2458 -0.4083 -0.0974
H18 H 0.1931 -0.2928 -0.0568
C11 C -0.09870(17) -0.19592(11) -0.36449(7)
H19 H -0.0457 -0.1227 -0.3512
C12 C -0.29005(17) -0.18198(11) -0.38587(8)
H20 H -0.3330 -0.1278 -0.4225
C13 C -0.39016(16) -0.25590(11) -0.34642(7)
C14 C -0.58554(19) -0.26755(16) -0.35507(9)
H21 H -0.6131 -0.3457 -0.3676
H22 H -0.6400 -0.2493 -0.3020
C15 C -0.2435(2) -0.11559(11) -0.20246(8)
loop_
_geom_bond_atom_site_label_1
_geom_bond_atom_site_label_2
_geom_bond_site_symmetry_1
_geom_bond_site_symmetry_2
O1 C3 1_555 1_555
O2 C15 1_555 1_555
O3 H1 1_555 1_555
O4 H2 1_555 1_555
C1 C2 1_555 1_555
C2 H3 1_555 1_555
H4 C2 1_555 1_555
C3 C2 1_555 1_555
H5 C3 1_555 1_555
C4 C3 1_555 1_555
H6 C4 1_555 1_555
C5 C4 1_555 1_555
H7 C5 1_555 1_555
C6 C1 1_555 1_555
H8 C6 1_555 1_555
C7 C1 1_555 1_555
H9 C7 1_555 1_555
H10 C7 1_555 1_555
H11 C7 1_555 1_555
C8 C4 1_555 1_555
H12 C8 1_555 1_555
C9 C8 1_555 1_555
H13 C9 1_555 1_555
H14 C9 1_555 1_555
H15 C9 1_555 1_555
C10 C8 1_555 1_555
H16 C10 1_555 1_555
H17 C10 1_555 1_555
H18 C10 1_555 1_555
C11 O3 1_555 1_555
H19 C11 1_555 1_555
C12 C11 1_555 1_555
H20 C12 1_555 1_555
C13 C1 1_555 1_555
C14 O4 1_555 1_555
H21 C14 1_555 1_555
H22 C14 1_555 1_555
C15 O1 1_555 1_555
C5 C6 1_555 1_555
C5 C15 1_555 1_555
C6 C11 1_555 1_555
C12 C13 1_555 1_555
C13 C14 1_555 1_555

#END
