
#######################################################################
#
#                 Cambridge Crystallographic Data Centre
#                                CCDC 
#
#######################################################################
#
# If this CIF has been generated from an entry in the Cambridge 
# Structural Database, then it will include bibliographic, chemical, 
# crystal, experimental, refinement or atomic coordinate data resulting 
# from the CCDC's data processing and validation procedures.
#
#######################################################################

data_NEHYOR
_chemical_formula_moiety         'C15 H10 O2'
_chemical_name_systematic        
'(4-ethynylphenyl)(4-hydroxyphenyl)methanone unknown solvate'
_symmetry_cell_setting           monoclinic
_symmetry_space_group_name_H-M   'C 2/c'
_symmetry_Int_Tables_number      15
_space_group_name_Hall           '-C 2yn'
loop_
_symmetry_equiv_pos_site_id
_symmetry_equiv_pos_as_xyz
1 x,y,z
2 -x,y,1/2-z
3 1/2+x,1/2+y,z
4 1/2-x,1/2+y,1/2-z
5 -x,-y,-z
6 x,-y,1/2+z
7 1/2-x,1/2-y,-z
8 1/2+x,1/2-y,1/2+z
_cell_length_a                   11.080(7)
_cell_length_b                   27.686(16)
_cell_length_c                   9.526(6)
_cell_angle_alpha                90
_cell_angle_beta                 96.376(14)
_cell_angle_gamma                90
_cell_volume                     2904.13
_exptl_crystal_colour            colorless
_exptl_crystal_description       Acicular
_cell_formula_units_Z            8
loop_
_atom_site_label
_atom_site_type_symbol
_atom_site_fract_x
_atom_site_fract_y
_atom_site_fract_z
C1 C 0.6862(2) 0.29498(7) 0.8388(2)
C2 C 0.7862(2) 0.30926(7) 0.7708(2)
H1 H 0.8134 0.3418 0.7764
C3 C 0.8443(2) 0.27595(7) 0.6963(2)
H2 H 0.9115 0.2858 0.6492
C4 C 0.8066(2) 0.22764(7) 0.6882(2)
C5 C 0.8739(2) 0.19414(8) 0.6069(2)
C6 C 0.8595(2) 0.14061(7) 0.6157(2)
C7 C 0.8698(2) 0.11342(7) 0.4950(2)
H3 H 0.8809 0.1294 0.4091
C8 C 0.8641(2) 0.06386(7) 0.4978(2)
H4 H 0.8717 0.0459 0.4143
C9 C 0.8472(2) 0.03977(7) 0.6227(2)
C10 C 0.8428(3) -0.01233(8) 0.6255(2)
C11 C 0.6469(2) 0.24758(7) 0.8312(2)
H5 H 0.5794 0.2379 0.8778
C12 C 0.8384(2) 0.06701(7) 0.7449(2)
H6 H 0.8287 0.0511 0.8313
C13 C 0.8439(2) 0.11666(7) 0.7406(2)
H7 H 0.8369 0.1348 0.8241
C14 C 0.7064(2) 0.21441(7) 0.7554(2)
H8 H 0.6784 0.1820 0.7490
C15 C 0.8413(3) -0.05451(8) 0.6231(2)
H9 H 0.8401 -0.0888 0.6212
O1 O 0.62900(15) 0.32935(5) 0.91087(16)
O2 O 0.94746(16) 0.21024(5) 0.52858(17)
loop_
_geom_bond_atom_site_label_1
_geom_bond_atom_site_label_2
_geom_bond_site_symmetry_1
_geom_bond_site_symmetry_2
C1 C2 1_555 1_555
C2 H1 1_555 1_555
C3 C2 1_555 1_555
H2 C3 1_555 1_555
C4 C3 1_555 1_555
C5 C4 1_555 1_555
C6 C5 1_555 1_555
C7 C6 1_555 1_555
H3 C7 1_555 1_555
C8 C7 1_555 1_555
H4 C8 1_555 1_555
C9 C8 1_555 1_555
C10 C9 1_555 1_555
C11 C1 1_555 1_555
H5 C11 1_555 1_555
C12 C9 1_555 1_555
H6 C12 1_555 1_555
C13 C6 1_555 1_555
H7 C13 1_555 1_555
C14 C4 1_555 1_555
H8 C14 1_555 1_555
C15 C10 1_555 1_555
H9 C15 1_555 1_555
O1 C1 1_555 1_555
O2 C5 1_555 1_555
C11 C14 1_555 1_555
C12 C13 1_555 1_555

#END
