
#######################################################################
#
#                 Cambridge Crystallographic Data Centre
#                                CCDC 
#
#######################################################################
#
# If this CIF has been generated from an entry in the Cambridge 
# Structural Database, then it will include bibliographic, chemical, 
# crystal, experimental, refinement or atomic coordinate data resulting 
# from the CCDC's data processing and validation procedures.
#
#######################################################################

data_NEJVOQ
_chemical_formula_moiety         'C39 H27 B1 N2 O1'
_chemical_name_systematic        
10,10,16-triphenyl-10,16-dihydro-9\l^5^,10\l^5^-phenanthro[9',10':4,5]imidazo[1,2-c][1,3,2]benzoxazaborinine
_symmetry_cell_setting           monoclinic
_symmetry_space_group_name_H-M   'P 21/n'
_symmetry_Int_Tables_number      14
_space_group_name_Hall           '-P 2yn'
loop_
_symmetry_equiv_pos_site_id
_symmetry_equiv_pos_as_xyz
1 x,y,z
2 1/2-x,1/2+y,1/2-z
3 -x,-y,-z
4 1/2+x,1/2-y,1/2+z
_cell_length_a                   9.4745(19)
_cell_length_b                   16.609(3)
_cell_length_c                   18.798(4)
_cell_angle_alpha                90
_cell_angle_beta                 99.49(3)
_cell_angle_gamma                90
_cell_volume                     2917.61
_exptl_crystal_colour            colorless
_exptl_crystal_description       block
_cell_formula_units_Z            4
loop_
_atom_site_label
_atom_site_type_symbol
_atom_site_fract_x
_atom_site_fract_y
_atom_site_fract_z
O1 O 1.0212(3) 0.19000(15) 0.12504(11)
N1 N 0.8460(3) 0.29385(16) 0.07676(13)
N2 N 0.8628(3) 0.35326(16) -0.02621(13)
C1 C 0.8961(4) 0.28568(19) 0.01437(17)
C2 C 0.7724(4) 0.36648(19) 0.07432(16)
C3 C 0.7880(4) 0.40555(19) 0.01225(16)
C4 C 0.7442(4) 0.4880(2) -0.00210(17)
C5 C 0.6284(4) 0.4765(2) 0.10829(17)
C6 C 0.6803(4) 0.3968(2) 0.12210(16)
C7 C 0.6651(4) 0.52318(19) 0.04869(18)
C8 C 0.8804(4) 0.36247(19) -0.10116(17)
C9 C 0.7825(4) 0.5357(2) -0.0576(2)
H1 H 0.8353 0.5132 -0.0902
C10 C 0.6291(4) 0.3506(2) 0.17489(18)
H2 H 0.6590 0.2974 0.1818
C11 C 0.9256(4) 0.2661(2) 0.21793(17)
C12 C 0.5366(4) 0.3815(3) 0.21651(19)
H3 H 0.5025 0.3492 0.2504
C13 C 0.4939(4) 0.4612(3) 0.2080(2)
H4 H 0.4354 0.4834 0.2380
C14 C 1.0348(4) 0.1679(2) 0.05822(18)
C15 C 0.7571(4) 0.1598(2) 0.12584(18)
C16 C 0.9740(4) 0.2148(2) -0.00168(17)
C17 C 0.7663(4) 0.3441(2) -0.15454(18)
H5 H 0.6801 0.3260 -0.1428
C18 C 0.6238(4) 0.6038(2) 0.0375(2)
H6 H 0.5689 0.6274 0.0685
C19 C 1.1152(4) 0.1001(2) 0.0487(2)
H7 H 1.1571 0.0703 0.0885
C20 C 0.8691(5) 0.2433(2) 0.27830(19)
H8 H 0.7968 0.2049 0.2736
C21 C 0.6609(5) 0.6486(2) -0.0168(2)
H9 H 0.6315 0.7019 -0.0222
C22 C 1.0085(4) 0.3894(2) -0.1174(2)
H10 H 1.0843 0.4014 -0.0809
C23 C 0.9932(5) 0.1885(2) -0.07056(19)
H11 H 0.9516 0.2172 -0.1111
C24 C 1.0723(5) 0.1212(3) -0.0786(2)
H12 H 1.0849 0.1053 -0.1246
C25 C 0.7833(5) 0.3532(3) -0.22616(19)
H13 H 0.7078 0.3413 -0.2629
C26 C 0.5374(4) 0.5069(2) 0.15567(19)
H14 H 0.5068 0.5600 0.1505
C27 C 0.6688(6) 0.0263(2) 0.1503(3)
H15 H 0.6811 -0.0215 0.1764
C28 C 0.6321(4) 0.1688(2) 0.0755(2)
H16 H 0.6176 0.2169 0.0500
C29 C 1.0227(5) 0.3983(3) -0.1886(2)
H17 H 1.1084 0.4172 -0.2003
C30 C 1.1334(5) 0.0766(3) -0.0198(2)
H18 H 1.1866 0.0308 -0.0261
C31 C 0.7715(5) 0.0862(2) 0.1626(2)
H19 H 0.8532 0.0772 0.1965
C32 C 0.7424(5) 0.6155(2) -0.0643(2)
H20 H 0.7700 0.6470 -0.1005
C33 C 0.9185(7) 0.2770(3) 0.3466(2)
H21 H 0.8778 0.2611 0.3862
C34 C 0.5474(6) 0.0378(3) 0.0990(3)
H22 H 0.4792 -0.0027 0.0899
C35 C 0.9111(6) 0.3795(3) -0.2427(2)
H23 H 0.9225 0.3847 -0.2907
B1 B 0.8837(5) 0.2256(2) 0.1394(2)
C36 C 1.0326(5) 0.3238(3) 0.2291(2)
H24 H 1.0723 0.3415 0.1899
C37 C 1.0832(6) 0.3566(3) 0.2971(3)
H25 H 1.1561 0.3947 0.3022
C38 C 0.5281(5) 0.1089(3) 0.0618(2)
H26 H 0.4464 0.1171 0.0277
C39 C 1.0268(8) 0.3333(3) 0.3551(3)
H27 H 1.0606 0.3549 0.4004
loop_
_geom_bond_atom_site_label_1
_geom_bond_atom_site_label_2
_geom_bond_site_symmetry_1
_geom_bond_site_symmetry_2
O1 C14 1_555 1_555
N1 C1 1_555 1_555
N2 C1 1_555 1_555
C1 C16 1_555 1_555
C2 N1 1_555 1_555
C3 N2 1_555 1_555
C4 C3 1_555 1_555
C5 C6 1_555 1_555
C6 C2 1_555 1_555
C7 C4 1_555 1_555
C8 N2 1_555 1_555
C9 C4 1_555 1_555
H1 C9 1_555 1_555
C10 C6 1_555 1_555
H2 C10 1_555 1_555
C11 C20 1_555 1_555
C12 C10 1_555 1_555
H3 C12 1_555 1_555
C13 C12 1_555 1_555
H4 C13 1_555 1_555
C14 C16 1_555 1_555
C15 C28 1_555 1_555
C16 C23 1_555 1_555
C17 C8 1_555 1_555
H5 C17 1_555 1_555
C18 C7 1_555 1_555
H6 C18 1_555 1_555
C19 C14 1_555 1_555
H7 C19 1_555 1_555
C20 H8 1_555 1_555
C21 C18 1_555 1_555
H9 C21 1_555 1_555
C22 C8 1_555 1_555
H10 C22 1_555 1_555
C23 H11 1_555 1_555
C24 C23 1_555 1_555
H12 C24 1_555 1_555
C25 C17 1_555 1_555
H13 C25 1_555 1_555
C26 C5 1_555 1_555
H14 C26 1_555 1_555
C27 H15 1_555 1_555
C28 H16 1_555 1_555
C29 C22 1_555 1_555
H17 C29 1_555 1_555
C30 C19 1_555 1_555
H18 C30 1_555 1_555
C31 C15 1_555 1_555
H19 C31 1_555 1_555
C32 C9 1_555 1_555
H20 C32 1_555 1_555
C33 C20 1_555 1_555
H21 C33 1_555 1_555
C34 C27 1_555 1_555
H22 C34 1_555 1_555
C35 C25 1_555 1_555
H23 C35 1_555 1_555
B1 O1 1_555 1_555
C36 C11 1_555 1_555
H24 C36 1_555 1_555
C37 C36 1_555 1_555
H25 C37 1_555 1_555
C38 C28 1_555 1_555
H26 C38 1_555 1_555
C39 C33 1_555 1_555
H27 C39 1_555 1_555
N1 B1 1_555 1_555
C2 C3 1_555 1_555
C5 C7 1_555 1_555
C11 B1 1_555 1_555
C13 C26 1_555 1_555
C15 B1 1_555 1_555
C21 C32 1_555 1_555
C24 C30 1_555 1_555
C27 C31 1_555 1_555
C29 C35 1_555 1_555
C34 C38 1_555 1_555
C37 C39 1_555 1_555

#END
