
#######################################################################
#
#                 Cambridge Crystallographic Data Centre
#                                CCDC 
#
#######################################################################
#
# If this CIF has been generated from an entry in the Cambridge 
# Structural Database, then it will include bibliographic, chemical, 
# crystal, experimental, refinement or atomic coordinate data resulting 
# from the CCDC's data processing and validation procedures.
#
#######################################################################

data_NEKCAK01
_chemical_formula_moiety         'C34 H36 O2'
_chemical_name_systematic        
1,1'-[2,2-bis(4-butoxyphenyl)ethene-1,1-diyl]dibenzene
_symmetry_cell_setting           monoclinic
_symmetry_space_group_name_H-M   'P 21/c'
_symmetry_Int_Tables_number      14
_space_group_name_Hall           '-P 2ybc'
loop_
_symmetry_equiv_pos_site_id
_symmetry_equiv_pos_as_xyz
1 x,y,z
2 -x,1/2+y,1/2-z
3 -x,-y,-z
4 x,1/2-y,1/2+z
_cell_length_a                   13.6584(13)
_cell_length_b                   5.7107(6)
_cell_length_c                   36.606(4)
_cell_angle_alpha                90
_cell_angle_beta                 100.414(2)
_cell_angle_gamma                90
_cell_volume                     2808.2
_exptl_crystal_colour            colorless
_exptl_crystal_description       block
_cell_formula_units_Z            4
loop_
_atom_site_label
_atom_site_type_symbol
_atom_site_fract_x
_atom_site_fract_y
_atom_site_fract_z
C1 C 1.01124(14) 0.8430(4) 0.19383(6)
H1 H 0.9736 0.9830 0.1938
C2 C 1.06434(16) 0.7581(5) 0.22689(6)
H2 H 1.0626 0.8396 0.2494
C3 C 1.11985(17) 0.5563(5) 0.22750(7)
H3 H 1.1558 0.4975 0.2503
C4 C 1.12277(17) 0.4404(5) 0.19464(7)
H4 H 1.1606 0.3006 0.1948
C5 C 1.07061(16) 0.5275(4) 0.16143(6)
H5 H 1.0749 0.4496 0.1388
C6 C 1.01219(14) 0.7265(4) 0.16068(6)
C7 C 0.95319(14) 0.8114(3) 0.12453(5)
C8 C 1.01346(15) 0.8512(4) 0.09485(6)
C9 C 1.10025(17) 0.9835(4) 0.10278(7)
H6 H 1.1209 1.0451 0.1271
C10 C 1.1568(2) 1.0264(6) 0.07578(8)
H7 H 1.2148 1.1211 0.0815
C11 C 1.1303(2) 0.9342(6) 0.04099(8)
H8 H 1.1693 0.9647 0.0225
C12 C 1.0466(2) 0.7967(5) 0.03296(7)
H9 H 1.0285 0.7292 0.0090
C13 C 0.98835(18) 0.7561(4) 0.05964(6)
H10 H 0.9304 0.6616 0.0537
C14 C 0.85359(14) 0.8485(3) 0.11978(5)
C15 C 0.79460(14) 0.9609(4) 0.08594(5)
C16 C 0.82379(16) 1.1655(4) 0.07067(6)
H11 H 0.8849 1.2366 0.0817
C17 C 0.76658(17) 1.2698(4) 0.03982(6)
H12 H 0.7886 1.4098 0.0299
C18 C 0.67691(16) 1.1686(5) 0.02361(6)
C19 C 0.64528(16) 0.9677(5) 0.03890(6)
H13 H 0.5834 0.8989 0.0282
C20 C 0.70297(15) 0.8660(4) 0.06965(6)
H14 H 0.6798 0.7284 0.0799
C21 C 0.6438(2) 1.4526(6) -0.02503(7)
H15 H 0.7054 1.4227 -0.0350
H16 H 0.6534 1.5914 -0.0086
C22 C 0.5495(3) 1.4810(10) -0.05732(13)
H17 H 0.5396 1.3371 -0.0726
H18 H 0.4889 1.5083 -0.0466
C23 C 0.5684(3) 1.6867(9) -0.08079(13)
H19 H 0.6293 1.6577 -0.0912
H20 H 0.5795 1.8287 -0.0651
C24 C 0.4806(4) 1.7281(15) -0.11248(16)
H21 H 0.4724 1.5917 -0.1290
H22 H 0.4935 1.8675 -0.1265
H23 H 0.4198 1.7515 -0.1023
C25 C 0.79464(14) 0.7869(4) 0.14905(5)
C26 C 0.72713(14) 0.9482(4) 0.15872(6)
H24 H 0.7165 1.0919 0.1455
C27 C 0.67540(15) 0.9041(4) 0.18701(6)
H25 H 0.6303 1.0177 0.1932
C28 C 0.68890(15) 0.6941(4) 0.20646(6)
C29 C 0.75214(15) 0.5263(4) 0.19627(6)
H26 H 0.7601 0.3798 0.2087
C30 C 0.80391(14) 0.5737(4) 0.16763(6)
H27 H 0.8466 0.4573 0.1606
C31 C 0.65631(19) 0.4685(5) 0.25811(7)
H28 H 0.7247 0.4725 0.2728
H29 H 0.6474 0.3225 0.2433
C32 C 0.6165(6) 0.4917(19) 0.2936(2)
H30 H 0.5447 0.4526 0.2880
H31 H 0.6216 0.6588 0.3009
C33 C 0.6684(6) 0.3323(13) 0.3311(2)
H32 H 0.7418 0.3211 0.3343
H33 H 0.6478 0.3832 0.3544
C34 C 0.6175(8) 0.1245(18) 0.3151(2)
H34 H 0.5465 0.1367 0.3162
H35 H 0.6456 -0.0133 0.3292
H36 H 0.6258 0.1090 0.2892
O1 O 0.61438(13) 1.2549(4) -0.00677(4)
O2 O 0.63689(12) 0.6697(3) 0.23489(4)
C35? C 0.5794(6) 1.6177(16) -0.0510(2)
H37? H 0.6180 1.7537 -0.0573
H38? H 0.5224 1.6743 -0.0401
C36? C 0.5447(5) 1.4642(14) -0.0848(2)
H39? H 0.6016 1.4321 -0.0973
H40? H 0.5208 1.3126 -0.0766
C37? C 0.4616(8) 1.579(2) -0.1121(3)
H41? H 0.4096 1.6338 -0.0989
H42? H 0.4332 1.4653 -0.1311
H43? H 0.4884 1.7127 -0.1240
C38? C 0.5765(6) 0.489(2) 0.2838(3)
H44? H 0.5799 0.6444 0.2959
H45? H 0.5086 0.4661 0.2693
C39? C 0.6021(7) 0.2937(15) 0.3131(2)
H46? H 0.5499 0.1738 0.3058
H47? H 0.6643 0.2235 0.3078
C40? C 0.6161(10) 0.302(2) 0.3530(2)
H48? H 0.6676 0.1898 0.3636
H49? H 0.5535 0.2629 0.3610
H50? H 0.6368 0.4604 0.3615
loop_
_geom_bond_atom_site_label_1
_geom_bond_atom_site_label_2
_geom_bond_site_symmetry_1
_geom_bond_site_symmetry_2
C1 H1 1_555 1_555
C2 C1 1_555 1_555
H2 C2 1_555 1_555
C3 C2 1_555 1_555
H3 C3 1_555 1_555
C4 C3 1_555 1_555
H4 C4 1_555 1_555
C5 C4 1_555 1_555
H5 C5 1_555 1_555
C6 C1 1_555 1_555
C7 C6 1_555 1_555
C8 C7 1_555 1_555
C9 C8 1_555 1_555
H6 C9 1_555 1_555
C10 C9 1_555 1_555
H7 C10 1_555 1_555
C11 C10 1_555 1_555
H8 C11 1_555 1_555
C12 C11 1_555 1_555
H9 C12 1_555 1_555
C13 C8 1_555 1_555
H10 C13 1_555 1_555
C14 C7 1_555 1_555
C15 C14 1_555 1_555
C16 C15 1_555 1_555
H11 C16 1_555 1_555
C17 C16 1_555 1_555
H12 C17 1_555 1_555
C18 C17 1_555 1_555
C19 C18 1_555 1_555
H13 C19 1_555 1_555
C20 C15 1_555 1_555
H14 C20 1_555 1_555
C21 H15 1_555 1_555
H16 C21 1_555 1_555
C22 C21 1_555 1_555
H17 C22 1_555 1_555
H18 C22 1_555 1_555
C23 C22 1_555 1_555
H19 C23 1_555 1_555
H20 C23 1_555 1_555
C24 C23 1_555 1_555
H21 C24 1_555 1_555
H22 C24 1_555 1_555
H23 C24 1_555 1_555
C25 C14 1_555 1_555
C26 C25 1_555 1_555
H24 C26 1_555 1_555
C27 C26 1_555 1_555
H25 C27 1_555 1_555
C28 C27 1_555 1_555
C29 C28 1_555 1_555
H26 C29 1_555 1_555
C30 C25 1_555 1_555
H27 C30 1_555 1_555
C31 H28 1_555 1_555
H29 C31 1_555 1_555
C32 C31 1_555 1_555
H30 C32 1_555 1_555
H31 C32 1_555 1_555
C33 C32 1_555 1_555
H32 C33 1_555 1_555
H33 C33 1_555 1_555
C34 C33 1_555 1_555
H34 C34 1_555 1_555
H35 C34 1_555 1_555
H36 C34 1_555 1_555
O1 C18 1_555 1_555
O2 C28 1_555 1_555
C5 C6 1_555 1_555
C12 C13 1_555 1_555
C19 C20 1_555 1_555
C21 O1 1_555 1_555
C29 C30 1_555 1_555
C31 O2 1_555 1_555

#END
