
#######################################################################
#
#                 Cambridge Crystallographic Data Centre
#                                CCDC 
#
#######################################################################
#
# If this CIF has been generated from an entry in the Cambridge 
# Structural Database, then it will include bibliographic, chemical, 
# crystal, experimental, refinement or atomic coordinate data resulting 
# from the CCDC's data processing and validation procedures.
#
#######################################################################

data_NEKPAX
_chemical_formula_moiety         'C19 H15 N1 O2'
_chemical_name_systematic        
"(pyridin-2-yl)methyl [1,1'-biphenyl]-4-carboxylate"
_symmetry_cell_setting           monoclinic
_symmetry_space_group_name_H-M   'P 21/n'
_symmetry_Int_Tables_number      14
_space_group_name_Hall           '-P 2yn'
loop_
_symmetry_equiv_pos_site_id
_symmetry_equiv_pos_as_xyz
1 x,y,z
2 1/2-x,1/2+y,1/2-z
3 -x,-y,-z
4 1/2+x,1/2-y,1/2+z
_cell_length_a                   6.1348(7)
_cell_length_b                   7.6394(7)
_cell_length_c                   31.076(4)
_cell_angle_alpha                90
_cell_angle_beta                 91.553(4)
_cell_angle_gamma                90
_cell_volume                     1455.88
_exptl_crystal_colour            colorless
_exptl_crystal_description       prism
_cell_formula_units_Z            4
loop_
_atom_site_label
_atom_site_type_symbol
_atom_site_fract_x
_atom_site_fract_y
_atom_site_fract_z
N1 N 0.32026(18) 0.64688(15) 0.53911(4)
C1 C 0.2190(2) 0.8008(2) 0.53558(5)
H1 H 0.300813 0.898371 0.528257
C2 C -0.0010(3) 0.8230(2) 0.54222(5)
H2 H -0.064958 0.932983 0.539596
C3 C -0.1230(2) 0.6801(2) 0.55274(5)
H3 H -0.271598 0.691006 0.557232
C4 C -0.0214(2) 0.5193(2) 0.55657(4)
H4 H -0.100594 0.420064 0.563645
C5 C 0.2004(2) 0.50820(17) 0.54969(4)
C6 C 0.3207(3) 0.33857(19) 0.55333(5)
H5 H 0.219350 0.241175 0.551898
H6 H 0.421784 0.327027 0.530022
O1 O 0.43854(17) 0.33961(13) 0.59464(3)
C7 C 0.5910(2) 0.21673(17) 0.59974(4)
O2 O 0.63153(18) 0.11028(14) 0.57246(3)
C8 C 0.7066(2) 0.22799(17) 0.64246(4)
C9 C 0.6273(2) 0.32715(18) 0.67597(4)
H7 H 0.500279 0.392272 0.671922
C10 C 0.7374(2) 0.32915(18) 0.71552(4)
H8 H 0.681642 0.395040 0.737850
C11 C 0.9299(2) 0.23480(16) 0.72268(4)
C12 C 1.0078(2) 0.13693(19) 0.68843(4)
H9 H 1.136321 0.073538 0.692154
C13 C 0.8973(2) 0.13244(19) 0.64902(4)
H10 H 0.951108 0.065000 0.626765
C14 C 1.0445(2) 0.23531(16) 0.76570(4)
C15 C 0.9445(2) 0.30242(19) 0.80192(4)
H11 H 0.805991 0.351200 0.799010
C16 C 1.0473(2) 0.2980(2) 0.84221(4)
H12 H 0.977562 0.343292 0.865964
C17 C 1.2533(2) 0.22616(18) 0.84709(5)
H13 H 1.322360 0.222629 0.874094
C18 C 1.3556(2) 0.15991(19) 0.81173(5)
H14 H 1.494274 0.111596 0.814898
C19 C 1.2530(2) 0.16478(18) 0.77131(5)
H15 H 1.324504 0.120359 0.747660
loop_
_geom_bond_atom_site_label_1
_geom_bond_atom_site_label_2
_geom_bond_site_symmetry_1
_geom_bond_site_symmetry_2
N1 C1 1_555 1_555
C1 H1 1_555 1_555
C2 C1 1_555 1_555
H2 C2 1_555 1_555
C3 C2 1_555 1_555
H3 C3 1_555 1_555
C4 C3 1_555 1_555
H4 C4 1_555 1_555
C5 N1 1_555 1_555
C6 C5 1_555 1_555
H5 C6 1_555 1_555
H6 C6 1_555 1_555
O1 C6 1_555 1_555
C7 O1 1_555 1_555
O2 C7 1_555 1_555
C8 C7 1_555 1_555
C9 C8 1_555 1_555
H7 C9 1_555 1_555
C10 C9 1_555 1_555
H8 C10 1_555 1_555
C11 C10 1_555 1_555
C12 C11 1_555 1_555
H9 C12 1_555 1_555
C13 C8 1_555 1_555
H10 C13 1_555 1_555
C14 C11 1_555 1_555
C15 C14 1_555 1_555
H11 C15 1_555 1_555
C16 C15 1_555 1_555
H12 C16 1_555 1_555
C17 C16 1_555 1_555
H13 C17 1_555 1_555
C18 C17 1_555 1_555
H14 C18 1_555 1_555
C19 C14 1_555 1_555
H15 C19 1_555 1_555
C4 C5 1_555 1_555
C12 C13 1_555 1_555
C18 C19 1_555 1_555

#END
