
#######################################################################
#
#                 Cambridge Crystallographic Data Centre
#                                CCDC 
#
#######################################################################
#
# If this CIF has been generated from an entry in the Cambridge 
# Structural Database, then it will include bibliographic, chemical, 
# crystal, experimental, refinement or atomic coordinate data resulting 
# from the CCDC's data processing and validation procedures.
#
#######################################################################

data_NEKZAH
_chemical_formula_moiety         'C36 H28 Cl1 N1 O5 S1'
_chemical_name_systematic        
11b-(4-chlorophenyl)-6-[(4-methylphenyl)sulfonyl]-3-(naphthalen-2-yl)-4a,5,6,11b-tetrahydro-1H,3H-[1]benzofuro[3,2-b][1,3]dioxino[5,4-d]pyridine
_symmetry_cell_setting           monoclinic
_symmetry_space_group_name_H-M   'P 21'
_symmetry_Int_Tables_number      4
_space_group_name_Hall           'P 2yb'
loop_
_symmetry_equiv_pos_site_id
_symmetry_equiv_pos_as_xyz
1 x,y,z
2 -x,1/2+y,-z
_cell_length_a                   12.7272(4)
_cell_length_b                   9.0183(3)
_cell_length_c                   13.5320(4)
_cell_angle_alpha                90
_cell_angle_beta                 104.6030(10)
_cell_angle_gamma                90
_cell_volume                     1503
_exptl_crystal_colour            colorless
_exptl_crystal_description       'prism fragment'
_cell_formula_units_Z            2
loop_
_atom_site_label
_atom_site_type_symbol
_atom_site_fract_x
_atom_site_fract_y
_atom_site_fract_z
S1 S 0.61706(7) -0.2406(6) 0.08347(6)
Cl1 Cl 0.96421(9) 0.1811(6) -0.22718(8)
N1 N 0.6609(2) -0.0903(7) 0.1510(2)
O1 O 0.92711(19) 0.0144(6) 0.29970(18)
O2 O 0.82799(19) 0.3048(6) 0.31944(18)
O3 O 0.66019(19) 0.1985(6) 0.24045(18)
O4 O 0.5019(2) -0.2204(7) 0.04825(19)
O5 O 0.6608(3) -0.3666(6) 0.1453(2)
C1 C 0.6242(3) 0.0493(7) 0.0934(3)
H1 H 0.5458 0.0636 0.0876
H2 H 0.6343 0.0398 0.0235
C2 C 0.6857(3) 0.1835(7) 0.1443(2)
H3 H 0.6600 0.2734 0.1018
C3 C 0.8112(3) 0.1674(7) 0.1606(3)
C4 C 0.8628(3) 0.2996(7) 0.2277(3)
H4 H 0.9429 0.2906 0.2445
H5 H 0.8424 0.3931 0.1892
C5 C 0.7138(3) 0.3205(7) 0.2986(3)
H6 H 0.6891 0.4172 0.2644
C6 C 0.6862(3) 0.3086(8) 0.4006(3)
C7 C 0.6216(3) 0.4001(7) 0.4334(4)
H7 H 0.5883 0.4791 0.3903
C8 C 0.5991(3) 0.3842(7) 0.5353(4)
C9 C 0.5310(4) 0.4835(9) 0.5663(5)
H8 H 0.4981 0.5628 0.5233
C10 C 0.5125(4) 0.4642(9) 0.6597(5)
H9 H 0.4656 0.5305 0.6825
C11 C 0.5637(4) 0.3435(11) 0.7256(4)
H10 H 0.5501 0.3321 0.7910
C12 C 0.6291(4) 0.2492(9) 0.6955(4)
H11 H 0.6617 0.1710 0.7398
C13 C 0.6525(3) 0.2636(8) 0.5933(4)
C14 C 0.7189(4) 0.1679(8) 0.5621(4)
H12 H 0.7524 0.0888 0.6050
C15 C 0.7371(4) 0.1867(9) 0.4676(3)
H13 H 0.7837 0.1197 0.4449
C16 C 0.8361(3) 0.0246(7) 0.2188(3)
C17 C 0.9094(3) -0.1079(7) 0.3550(3)
C18 C 0.9790(3) -0.1560(7) 0.4451(3)
H14 H 1.0481 -0.1120 0.4717
C19 C 0.9418(3) -0.2725(7) 0.4943(3)
H15 H 0.9863 -0.3092 0.5567
C20 C 0.8398(3) -0.3366(7) 0.4535(3)
H16 H 0.8156 -0.4140 0.4900
C21 C 0.7735(3) -0.2905(7) 0.3614(3)
H17 H 0.7054 -0.3367 0.3336
C22 C 0.8095(3) -0.1737(7) 0.3104(3)
C23 C 0.7660(3) -0.0872(7) 0.2192(2)
C24 C 0.8448(3) 0.1679(7) 0.0606(3)
C25 C 0.9039(3) 0.0512(7) 0.0354(3)
H18 H 0.9203 -0.0318 0.0798
C26 C 0.9398(3) 0.0530(8) -0.0540(3)
H19 H 0.9802 -0.0278 -0.0704
C27 C 0.9157(3) 0.1736(8) -0.1181(3)
C28 C 0.8543(4) 0.2911(7) -0.0960(3)
H20 H 0.8371 0.3731 -0.1412
C29 C 0.8189(3) 0.2873(7) -0.0075(3)
H21 H 0.7763 0.3668 0.0073
C30 C 0.6699(3) -0.2416(7) -0.0250(3)
C31 C 0.6052(3) -0.1937(8) -0.1190(3)
H22 H 0.5343 -0.1560 -0.1240
C32 C 0.6458(4) -0.2021(8) -0.2046(3)
H23 H 0.6020 -0.1698 -0.2686
C33 C 0.7493(4) -0.2568(8) -0.1988(3)
C34 C 0.8124(3) -0.3022(8) -0.1045(4)
H24 H 0.8836 -0.3387 -0.0994
C35 C 0.7738(3) -0.2953(7) -0.0177(3)
H25 H 0.8179 -0.3270 0.0463
C36 C 0.7911(5) -0.2684(10) -0.2939(4)
H26 H 0.8416 -0.3521 -0.2870
H27 H 0.8288 -0.1765 -0.3027
H28 H 0.7299 -0.2840 -0.3536
C37? C 0.7175(8) 0.288(3) 0.3242(14)
H29? H 0.6870 0.3889 0.3034
C38? C 0.708(2) 0.279(3) 0.4339(17)
C39? C 0.6351(18) 0.344(2) 0.4728(15)
H30? H 0.5904 0.4186 0.4339
C40? C 0.6198(15) 0.3057(19) 0.5751(14)
C41? C 0.542(2) 0.378(3) 0.6121(19)
H31? H 0.4974 0.4529 0.5727
C42? C 0.530(3) 0.341(4) 0.705(2)
H32? H 0.4766 0.3896 0.7319
C43? C 0.598(3) 0.227(4) 0.7652(19)
H33? H 0.5884 0.2019 0.8307
C44? C 0.672(3) 0.158(4) 0.7301(18)
H34? H 0.7157 0.0834 0.7708
C45? C 0.6897(18) 0.194(2) 0.6279(16)
C46? C 0.765(2) 0.124(3) 0.591(2)
H35? H 0.8101 0.0497 0.6293
C47? C 0.776(2) 0.164(3) 0.496(2)
H36? H 0.8292 0.1148 0.4698
loop_
_geom_bond_atom_site_label_1
_geom_bond_atom_site_label_2
_geom_bond_site_symmetry_1
_geom_bond_site_symmetry_2
S1 N1 1_555 1_555
Cl1 C27 1_555 1_555
N1 C1 1_555 1_555
O1 C16 1_555 1_555
O2 C4 1_555 1_555
O3 C2 1_555 1_555
O4 S1 1_555 1_555
O5 S1 1_555 1_555
C1 H1 1_555 1_555
H2 C1 1_555 1_555
C2 C1 1_555 1_555
H3 C2 1_555 1_555
C3 C2 1_555 1_555
C4 C3 1_555 1_555
H4 C4 1_555 1_555
H5 C4 1_555 1_555
C5 O2 1_555 1_555
H6 C5 1_555 1_555
C6 C5 1_555 1_555
C7 C6 1_555 1_555
H7 C7 1_555 1_555
C8 C7 1_555 1_555
C9 C8 1_555 1_555
H8 C9 1_555 1_555
C10 C9 1_555 1_555
H9 C10 1_555 1_555
C11 C10 1_555 1_555
H10 C11 1_555 1_555
C12 C11 1_555 1_555
H11 C12 1_555 1_555
C13 C8 1_555 1_555
C14 C13 1_555 1_555
H12 C14 1_555 1_555
C15 C6 1_555 1_555
H13 C15 1_555 1_555
C16 C3 1_555 1_555
C17 O1 1_555 1_555
C18 C17 1_555 1_555
H14 C18 1_555 1_555
C19 C18 1_555 1_555
H15 C19 1_555 1_555
C20 C19 1_555 1_555
H16 C20 1_555 1_555
C21 C20 1_555 1_555
H17 C21 1_555 1_555
C22 C17 1_555 1_555
C23 N1 1_555 1_555
C24 C3 1_555 1_555
C25 C24 1_555 1_555
H18 C25 1_555 1_555
C26 C25 1_555 1_555
H19 C26 1_555 1_555
C27 C26 1_555 1_555
C28 C27 1_555 1_555
H20 C28 1_555 1_555
C29 C24 1_555 1_555
H21 C29 1_555 1_555
C30 S1 1_555 1_555
C31 C30 1_555 1_555
H22 C31 1_555 1_555
C32 C31 1_555 1_555
H23 C32 1_555 1_555
C33 C32 1_555 1_555
C34 C33 1_555 1_555
H24 C34 1_555 1_555
C35 C30 1_555 1_555
H25 C35 1_555 1_555
C36 C33 1_555 1_555
H26 C36 1_555 1_555
H27 C36 1_555 1_555
H28 C36 1_555 1_555
O3 C5 1_555 1_555
C12 C13 1_555 1_555
C14 C15 1_555 1_555
C16 C23 1_555 1_555
C21 C22 1_555 1_555
C22 C23 1_555 1_555
C28 C29 1_555 1_555
C34 C35 1_555 1_555

#END
