
#######################################################################
#
#                 Cambridge Crystallographic Data Centre
#                                CCDC 
#
#######################################################################
#
# If this CIF has been generated from an entry in the Cambridge 
# Structural Database, then it will include bibliographic, chemical, 
# crystal, experimental, refinement or atomic coordinate data resulting 
# from the CCDC's data processing and validation procedures.
#
#######################################################################

data_NEMKAT
_chemical_formula_moiety         'C26 H27 N1 O3 S1'
_chemical_name_systematic        
N-((2-(4-Methoxyphenyl)cyclobutylidene)methyl)-4-methyl-N-(4-methylphenyl)benzenesulfonamide
_symmetry_cell_setting           orthorhombic
_symmetry_space_group_name_H-M   'P 21 21 21'
_symmetry_Int_Tables_number      19
_space_group_name_Hall           'P 2ac 2ab'
loop_
_symmetry_equiv_pos_site_id
_symmetry_equiv_pos_as_xyz
1 x,y,z
2 1/2-x,-y,1/2+z
3 1/2+x,1/2-y,-z
4 -x,1/2+y,1/2-z
_cell_length_a                   8.62690(10)
_cell_length_b                   9.7670(2)
_cell_length_c                   26.3759(5)
_cell_angle_alpha                90
_cell_angle_beta                 90
_cell_angle_gamma                90
_cell_volume                     2222.41
_exptl_crystal_colour            colorless
_exptl_crystal_description       prism
_cell_formula_units_Z            4
loop_
_atom_site_label
_atom_site_type_symbol
_atom_site_fract_x
_atom_site_fract_y
_atom_site_fract_z
S1 S 0.51929(5) 0.38026(5) 0.141694(18)
O1 O 0.61140(15) 0.32518(15) 0.18219(6)
O2 O -0.02721(19) -0.15575(15) 0.02518(6)
O3 O 0.55786(15) 0.34836(15) 0.09029(5)
N1 N 0.33935(17) 0.32865(17) 0.15202(6)
C1 C 0.2235(2) 0.3693(2) 0.11549(7)
C2 C 0.2962(2) 0.2906(2) 0.20244(7)
H1 H 0.3718 0.2999 0.2273
C3 C -0.00294(19) 0.11273(19) 0.14856(7)
C4 C 0.0034(2) 0.2059(2) 0.19385(7)
H2 H -0.0581 0.2886 0.1877
C5 C -0.1094(2) 0.1363(2) 0.11015(7)
H3 H -0.1749 0.2117 0.1123
C6 C 0.0945(2) -0.0008(2) 0.14364(9)
H4 H 0.1675 -0.0182 0.1688
C7 C 0.5172(2) 0.56039(19) 0.14752(7)
C8 C 0.1258(2) 0.4782(2) 0.12562(7)
H5 H 0.1340 0.5253 0.1561
C9 C 0.4412(2) 0.6221(2) 0.18796(7)
H6 H 0.3887 0.5691 0.2117
C10 C -0.1444(3) -0.1343(3) -0.01270(8)
H7 H -0.2449 -0.1386 0.0028
H8 H -0.1363 -0.2039 -0.0382
H9 H -0.1302 -0.0459 -0.0280
C11 C 0.5254(2) 0.8441(2) 0.15864(8)
C12 C 0.1004(2) 0.3391(2) 0.03465(7)
H10 H 0.0921 0.2917 0.0042
C13 C 0.0014(2) 0.4480(2) 0.04421(7)
C14 C 0.6017(3) 0.7802(2) 0.11863(9)
H11 H 0.6571 0.8331 0.0956
C15 C 0.5968(2) 0.6393(2) 0.11247(8)
H12 H 0.6464 0.5981 0.0851
C16 C 0.2119(2) 0.2995(2) 0.06989(7)
H13 H 0.2781 0.2268 0.0629
C17 C 0.1598(2) 0.2435(2) 0.21740(7)
C18 C -0.0238(2) -0.0631(2) 0.06460(8)
C19 C 0.0853(2) -0.0882(2) 0.10233(9)
H14 H 0.1515 -0.1630 0.0999
C20 C 0.1099(3) 0.1985(3) 0.27041(8)
H15 H 0.0929 0.2737 0.2938
H16 H 0.1760 0.1290 0.2853
C21 C -0.1205(2) 0.0492(2) 0.06827(8)
H17 H -0.1928 0.0668 0.0429
C22 C 0.0158(2) 0.5169(2) 0.09029(8)
H18 H -0.0498 0.5900 0.0974
C23 C 0.4442(2) 0.7627(2) 0.19259(8)
H19 H 0.3906 0.8040 0.2191
C24 C -0.0407(2) 0.1414(3) 0.24635(8)
H20 H -0.1345 0.1794 0.2609
H21 H -0.0451 0.0422 0.2458
C25 C 0.5330(3) 0.9972(2) 0.16511(10)
H22 H 0.4672 1.0242 0.1927
H23 H 0.4987 1.0410 0.1345
H24 H 0.6378 1.0239 0.1722
C26 C -0.1214(3) 0.4893(2) 0.00641(8)
H25 H -0.0823 0.4773 -0.0274
H26 H -0.1483 0.5837 0.0115
H27 H -0.2117 0.4333 0.0110
loop_
_geom_bond_atom_site_label_1
_geom_bond_atom_site_label_2
_geom_bond_site_symmetry_1
_geom_bond_site_symmetry_2
S1 O1 1_555 1_555
O2 C10 1_555 1_555
O3 S1 1_555 1_555
N1 S1 1_555 1_555
C1 N1 1_555 1_555
C2 N1 1_555 1_555
H1 C2 1_555 1_555
C3 C4 1_555 1_555
C4 H2 1_555 1_555
C5 C3 1_555 1_555
H3 C5 1_555 1_555
C6 C3 1_555 1_555
H4 C6 1_555 1_555
C7 S1 1_555 1_555
C8 C1 1_555 1_555
H5 C8 1_555 1_555
C9 C7 1_555 1_555
H6 C9 1_555 1_555
C10 H7 1_555 1_555
H8 C10 1_555 1_555
H9 C10 1_555 1_555
C11 C14 1_555 1_555
C12 H10 1_555 1_555
C13 C12 1_555 1_555
C14 H11 1_555 1_555
C15 C7 1_555 1_555
H12 C15 1_555 1_555
C16 C1 1_555 1_555
H13 C16 1_555 1_555
C17 C2 1_555 1_555
C18 O2 1_555 1_555
C19 C6 1_555 1_555
H14 C19 1_555 1_555
C20 C17 1_555 1_555
H15 C20 1_555 1_555
H16 C20 1_555 1_555
C21 C5 1_555 1_555
H17 C21 1_555 1_555
C22 C8 1_555 1_555
H18 C22 1_555 1_555
C23 C9 1_555 1_555
H19 C23 1_555 1_555
C24 C4 1_555 1_555
H20 C24 1_555 1_555
H21 C24 1_555 1_555
C25 C11 1_555 1_555
H22 C25 1_555 1_555
H23 C25 1_555 1_555
H24 C25 1_555 1_555
C26 C13 1_555 1_555
H25 C26 1_555 1_555
H26 C26 1_555 1_555
H27 C26 1_555 1_555
C4 C17 1_555 1_555
C11 C23 1_555 1_555
C12 C16 1_555 1_555
C13 C22 1_555 1_555
C14 C15 1_555 1_555
C18 C19 1_555 1_555
C18 C21 1_555 1_555
C20 C24 1_555 1_555

#END
