
#######################################################################
#
#                 Cambridge Crystallographic Data Centre
#                                CCDC 
#
#######################################################################
#
# If this CIF has been generated from an entry in the Cambridge 
# Structural Database, then it will include bibliographic, chemical, 
# crystal, experimental, refinement or atomic coordinate data resulting 
# from the CCDC's data processing and validation procedures.
#
#######################################################################

data_NEMKEY01
_chemical_formula_moiety         'C78 H70 Si2'
_chemical_name_systematic        
(+)-(P,P)-(buta-1,3-diyne-1,4-diylbis[(hexahelicene-15,2-diyl)ethyne-2,1-diyl])bis[triisopropylsilane]
_symmetry_cell_setting           orthorhombic
_symmetry_space_group_name_H-M   'P 21 21 21'
_symmetry_Int_Tables_number      19
_space_group_name_Hall           'P 2ac 2ab'
loop_
_symmetry_equiv_pos_site_id
_symmetry_equiv_pos_as_xyz
1 x,y,z
2 1/2-x,-y,1/2+z
3 -x,1/2+y,1/2-z
4 1/2+x,1/2-y,-z
_cell_length_a                   8.9333(2)
_cell_length_b                   15.8876(4)
_cell_length_c                   42.9033(13)
_cell_angle_alpha                90
_cell_angle_beta                 90
_cell_angle_gamma                90
_cell_volume                     6089.21
_exptl_crystal_colour            colorless
_exptl_crystal_description       plank
_chemical_melting_point          '281-283 deg.C'
_cell_formula_units_Z            4
_exptl_crystal_recrystallization_method 'Vapour deposition'
loop_
_atom_site_label
_atom_site_type_symbol
_atom_site_fract_x
_atom_site_fract_y
_atom_site_fract_z
Si1 Si 0.5457(3) 0.80383(14) 0.91078(5)
Si2 Si 0.6161(3) 0.89213(14) 0.49381(5)
C1 C 0.6008(15) 0.7670(7) 0.9751(2)
H1 H 0.6748 0.8121 0.9774
H2 H 0.6208 0.7227 0.9904
H3 H 0.5002 0.7897 0.9784
C2 C 0.6112(11) 0.7305(6) 0.9425(2)
H4 H 0.5391 0.6823 0.9422
C3 C 0.7667(13) 0.6905(7) 0.9371(2)
H5 H 0.7765 0.6742 0.9151
H6 H 0.7775 0.6406 0.9503
H7 H 0.8449 0.7314 0.9423
C4 C 0.8302(11) 0.8922(6) 0.9132(3)
H8 H 0.8843 0.9442 0.9083
H9 H 0.8728 0.8455 0.9012
H10 H 0.8395 0.8803 0.9356
C5 C 0.6649(9) 0.9027(5) 0.9048(2)
H11 H 0.6232 0.9475 0.9187
C6 C 0.6551(12) 0.9350(6) 0.8714(2)
H12 H 0.7060 0.8955 0.8575
H13 H 0.7032 0.9903 0.8701
H14 H 0.5497 0.9399 0.8653
C7 C 0.2398(12) 0.7579(6) 0.9217(3)
H15 H 0.2292 0.7331 0.9009
H16 H 0.1416 0.7767 0.9292
H17 H 0.2803 0.7157 0.9361
C8 C 0.3484(10) 0.8348(5) 0.9201(2)
H18 H 0.3495 0.8612 0.9412
C9 C 0.2827(10) 0.9002(5) 0.8974(2)
H19 H 0.3380 0.9532 0.8994
H20 H 0.1770 0.9097 0.9024
H21 H 0.2913 0.8792 0.8760
C10 C 0.5470(10) 0.7451(5) 0.87361(19)
C11 C 0.5469(8) 0.7185(5) 0.84714(19)
C12 C 0.5471(9) 0.6888(5) 0.81582(18)
C13 C 0.6631(9) 0.7100(5) 0.79538(19)
H22 H 0.7399 0.7467 0.8024
C14 C 0.6697(9) 0.6801(5) 0.76616(19)
H23 H 0.7498 0.6966 0.7529
C15 C 0.5583(9) 0.6242(5) 0.75485(19)
C16 C 0.4322(9) 0.6065(5) 0.77391(18)
C17 C 0.4340(9) 0.6348(5) 0.80465(18)
H24 H 0.3570 0.6172 0.8184
C18 C 0.5735(10) 0.5848(6) 0.7253(2)
H25 H 0.6521 0.6009 0.7116
C19 C 0.4757(11) 0.5243(5) 0.7167(2)
H26 H 0.4934 0.4938 0.6980
C20 C 0.3474(10) 0.5052(5) 0.73472(19)
C21 C 0.3126(10) 0.5528(5) 0.76124(19)
C22 C 0.2555(12) 0.4346(5) 0.7263(2)
H27 H 0.2773 0.4027 0.7082
C23 C 0.1373(11) 0.4140(5) 0.7446(2)
H28 H 0.0856 0.3629 0.7406
C24 C 0.0880(10) 0.4653(5) 0.7694(2)
C25 C 0.1672(10) 0.5428(5) 0.7758(2)
C26 C -0.0371(11) 0.4440(6) 0.7874(2)
H29 H -0.0887 0.3931 0.7830
C27 C -0.0874(11) 0.4936(6) 0.8111(2)
H30 H -0.1650 0.4742 0.8245
C28 C -0.0223(11) 0.5757(6) 0.8158(2)
C29 C 0.0938(9) 0.6019(5) 0.79568(19)
C30 C -0.0743(10) 0.6284(6) 0.8397(2)
H31 H -0.1464 0.6070 0.8539
C31 C -0.0257(11) 0.7090(7) 0.8433(2)
H32 H -0.0560 0.7413 0.8609
C32 C 0.0726(10) 0.7446(6) 0.8201(2)
C33 C 0.1247(10) 0.6938(6) 0.79555(19)
C34 C 0.1111(11) 0.8318(6) 0.8205(2)
H33 H 0.0753 0.8667 0.8369
C35 C 0.1985(10) 0.8656(6) 0.79771(19)
H34 H 0.2300 0.9225 0.7992
C36 C 0.2020(10) 0.7318(5) 0.77079(19)
H35 H 0.2273 0.6994 0.7529
C37 C 0.2423(9) 0.8170(5) 0.77215(19)
C38 C 0.3365(10) 0.8486(5) 0.7477(2)
C39 C 0.4135(10) 0.8692(5) 0.72621(19)
C40 C 0.5064(10) 0.8913(5) 0.70168(19)
C41 C 0.5853(9) 0.9095(5) 0.68027(19)
C42 C 0.6833(10) 0.9299(5) 0.65527(19)
C43 C 0.6479(10) 0.9995(5) 0.63494(19)
H36 H 0.5550 1.0282 0.6368
C44 C 0.7489(11) 1.0230(5) 0.61335(19)
H37 H 0.7252 1.0690 0.6001
C45 C 0.8884(11) 0.9827(5) 0.60943(19)
C46 C 0.9214(9) 0.9082(5) 0.62766(18)
C47 C 0.8157(10) 0.8869(5) 0.65069(19)
H38 H 0.8367 0.8402 0.6638
C48 C 1.0025(11) 1.0146(6) 0.5897(2)
H39 H 0.9800 1.0594 0.5758
C49 C 1.1428(11) 0.9827(6) 0.5903(2)
H40 H 1.2197 1.0095 0.5787
C50 C 1.1774(11) 0.9083(6) 0.6083(2)
C51 C 1.0628(10) 0.8668(5) 0.62359(19)
C52 C 1.3276(11) 0.8820(6) 0.6111(2)
H41 H 1.4040 0.9086 0.5992
C53 C 1.3619(10) 0.8183(6) 0.6309(2)
H42 H 1.4637 0.8068 0.6356
C54 C 1.2481(10) 0.7689(6) 0.64458(19)
C55 C 1.0961(10) 0.7841(5) 0.63707(18)
C56 C 1.2865(11) 0.6999(6) 0.6648(2)
H43 H 1.3875 0.6912 0.6709
C57 C 1.1775(11) 0.6475(6) 0.6750(2)
H44 H 1.2007 0.6074 0.6907
C58 C 1.0305(10) 0.6507(5) 0.6631(2)
C59 C 0.9884(9) 0.7163(5) 0.64207(18)
C60 C 0.9264(11) 0.5859(5) 0.6704(2)
H45 H 0.9530 0.5446 0.6854
C61 C 0.7910(11) 0.5815(5) 0.65658(19)
H46 H 0.7217 0.5397 0.6630
C62 C 0.7503(10) 0.6387(5) 0.63249(19)
C63 C 0.8519(9) 0.7062(5) 0.62440(18)
C64 C 0.6163(10) 0.6295(5) 0.6155(2)
H47 H 0.5461 0.5880 0.6218
C65 C 0.5845(9) 0.6787(5) 0.59037(19)
H48 H 0.4932 0.6711 0.5793
C66 C 0.6869(9) 0.7406(5) 0.58076(18)
C67 C 0.8172(9) 0.7520(5) 0.59745(18)
H49 H 0.8868 0.7928 0.5903
C68 C 0.6602(9) 0.7913(5) 0.55342(19)
C69 C 0.6419(10) 0.8337(5) 0.53045(19)
C70 C 0.4126(11) 0.9164(6) 0.4901(2)
H50 H 0.3620 0.8624 0.4843
C71 C 0.3399(12) 0.9461(7) 0.5206(2)
H51 H 0.3716 0.9094 0.5377
H52 H 0.2307 0.9439 0.5185
H53 H 0.3710 1.0041 0.5249
C72 C 0.3744(14) 0.9802(8) 0.4642(3)
H54 H 0.4213 1.0345 0.4690
H55 H 0.2656 0.9873 0.4630
H56 H 0.4122 0.9594 0.4442
C73 C 0.7393(10) 0.9888(5) 0.4953(2)
H57 H 0.7234 1.0206 0.4754
C74 C 0.6992(13) 1.0481(6) 0.5222(2)
H58 H 0.6001 1.0726 0.5186
H59 H 0.7739 1.0932 0.5236
H60 H 0.6981 1.0164 0.5418
C75 C 0.9050(12) 0.9665(6) 0.4971(3)
H61 H 0.9253 0.9373 0.5167
H62 H 0.9649 1.0181 0.4961
H63 H 0.9314 0.9297 0.4796
C76 C 0.6834(9) 0.8192(5) 0.4624(2)
H64 H 0.7908 0.8066 0.4670
C77 C 0.5976(13) 0.7337(6) 0.4639(2)
H65 H 0.6161 0.7067 0.4840
H66 H 0.6328 0.6968 0.4471
H67 H 0.4901 0.7439 0.4614
C78 C 0.6779(10) 0.8549(6) 0.4296(2)
H68 H 0.5737 0.8665 0.4239
H69 H 0.7206 0.8141 0.4150
H70 H 0.7358 0.9072 0.4288
loop_
_geom_bond_atom_site_label_1
_geom_bond_atom_site_label_2
_geom_bond_site_symmetry_1
_geom_bond_site_symmetry_2
Si1 C2 1_555 1_555
Si2 C69 1_555 1_555
C1 H1 1_555 1_555
H2 C1 1_555 1_555
H3 C1 1_555 1_555
C2 C1 1_555 1_555
H4 C2 1_555 1_555
C3 C2 1_555 1_555
H5 C3 1_555 1_555
H6 C3 1_555 1_555
H7 C3 1_555 1_555
C4 H8 1_555 1_555
H9 C4 1_555 1_555
H10 C4 1_555 1_555
C5 Si1 1_555 1_555
H11 C5 1_555 1_555
C6 C5 1_555 1_555
H12 C6 1_555 1_555
H13 C6 1_555 1_555
H14 C6 1_555 1_555
C7 H15 1_555 1_555
H16 C7 1_555 1_555
H17 C7 1_555 1_555
C8 Si1 1_555 1_555
H18 C8 1_555 1_555
C9 C8 1_555 1_555
H19 C9 1_555 1_555
H20 C9 1_555 1_555
H21 C9 1_555 1_555
C10 Si1 1_555 1_555
C11 C10 1_555 1_555
C12 C11 1_555 1_555
C13 C12 1_555 1_555
H22 C13 1_555 1_555
C14 C13 1_555 1_555
H23 C14 1_555 1_555
C15 C14 1_555 1_555
C16 C15 1_555 1_555
C17 C12 1_555 1_555
H24 C17 1_555 1_555
C18 C15 1_555 1_555
H25 C18 1_555 1_555
C19 C18 1_555 1_555
H26 C19 1_555 1_555
C20 C19 1_555 1_555
C21 C16 1_555 1_555
C22 C20 1_555 1_555
H27 C22 1_555 1_555
C23 C22 1_555 1_555
H28 C23 1_555 1_555
C24 C23 1_555 1_555
C25 C21 1_555 1_555
C26 C24 1_555 1_555
H29 C26 1_555 1_555
C27 C26 1_555 1_555
H30 C27 1_555 1_555
C28 C27 1_555 1_555
C29 C25 1_555 1_555
C30 C28 1_555 1_555
H31 C30 1_555 1_555
C31 C30 1_555 1_555
H32 C31 1_555 1_555
C32 C31 1_555 1_555
C33 C29 1_555 1_555
C34 C32 1_555 1_555
H33 C34 1_555 1_555
C35 C34 1_555 1_555
H34 C35 1_555 1_555
C36 C33 1_555 1_555
H35 C36 1_555 1_555
C37 C35 1_555 1_555
C38 C37 1_555 1_555
C39 C38 1_555 1_555
C40 C39 1_555 1_555
C41 C40 1_555 1_555
C42 C41 1_555 1_555
C43 C42 1_555 1_555
H36 C43 1_555 1_555
C44 C43 1_555 1_555
H37 C44 1_555 1_555
C45 C44 1_555 1_555
C46 C45 1_555 1_555
C47 C42 1_555 1_555
H38 C47 1_555 1_555
C48 C45 1_555 1_555
H39 C48 1_555 1_555
C49 C48 1_555 1_555
H40 C49 1_555 1_555
C50 C49 1_555 1_555
C51 C46 1_555 1_555
C52 C50 1_555 1_555
H41 C52 1_555 1_555
C53 C52 1_555 1_555
H42 C53 1_555 1_555
C54 C53 1_555 1_555
C55 C51 1_555 1_555
C56 C54 1_555 1_555
H43 C56 1_555 1_555
C57 C56 1_555 1_555
H44 C57 1_555 1_555
C58 C57 1_555 1_555
C59 C55 1_555 1_555
C60 C58 1_555 1_555
H45 C60 1_555 1_555
C61 C60 1_555 1_555
H46 C61 1_555 1_555
C62 C61 1_555 1_555
C63 C59 1_555 1_555
C64 C62 1_555 1_555
H47 C64 1_555 1_555
C65 C64 1_555 1_555
H48 C65 1_555 1_555
C66 C65 1_555 1_555
C67 C63 1_555 1_555
H49 C67 1_555 1_555
C68 C66 1_555 1_555
C69 C68 1_555 1_555
C70 Si2 1_555 1_555
H50 C70 1_555 1_555
C71 C70 1_555 1_555
H51 C71 1_555 1_555
H52 C71 1_555 1_555
H53 C71 1_555 1_555
C72 C70 1_555 1_555
H54 C72 1_555 1_555
H55 C72 1_555 1_555
H56 C72 1_555 1_555
C73 Si2 1_555 1_555
H57 C73 1_555 1_555
C74 C73 1_555 1_555
H58 C74 1_555 1_555
H59 C74 1_555 1_555
H60 C74 1_555 1_555
C75 C73 1_555 1_555
H61 C75 1_555 1_555
H62 C75 1_555 1_555
H63 C75 1_555 1_555
C76 Si2 1_555 1_555
H64 C76 1_555 1_555
C77 C76 1_555 1_555
H65 C77 1_555 1_555
H66 C77 1_555 1_555
H67 C77 1_555 1_555
C78 C76 1_555 1_555
H68 C78 1_555 1_555
H69 C78 1_555 1_555
H70 C78 1_555 1_555
C4 C5 1_555 1_555
C7 C8 1_555 1_555
C16 C17 1_555 1_555
C20 C21 1_555 1_555
C24 C25 1_555 1_555
C28 C29 1_555 1_555
C32 C33 1_555 1_555
C36 C37 1_555 1_555
C46 C47 1_555 1_555
C50 C51 1_555 1_555
C54 C55 1_555 1_555
C58 C59 1_555 1_555
C62 C63 1_555 1_555
C66 C67 1_555 1_555

#END
