
#######################################################################
#
#                 Cambridge Crystallographic Data Centre
#                                CCDC 
#
#######################################################################
#
# If this CIF has been generated from an entry in the Cambridge 
# Structural Database, then it will include bibliographic, chemical, 
# crystal, experimental, refinement or atomic coordinate data resulting 
# from the CCDC's data processing and validation procedures.
#
#######################################################################

data_NEMVIK
_chemical_formula_moiety         'C30 H30 N2 O4'
_chemical_name_systematic        
3,12,20,29-Tetraoxa-35,36-diazapentacyclo(29.3.1.1^14,18^.0^5,10^.0^22,27^)hexatriaconta-1(35),5,7,9,14(36),15,17,22,24,26,31,33-dodecaene
_symmetry_cell_setting           monoclinic
_symmetry_space_group_name_H-M   'P 21/c'
_symmetry_Int_Tables_number      14
_space_group_name_Hall           '-P 2ybc'
loop_
_symmetry_equiv_pos_site_id
_symmetry_equiv_pos_as_xyz
1 x,y,z
2 -x,1/2+y,1/2-z
3 -x,-y,-z
4 x,1/2-y,1/2+z
_cell_length_a                   13.16(1)
_cell_length_b                   4.372(7)
_cell_length_c                   21.060(6)
_cell_angle_alpha                90
_cell_angle_beta                 92.80(4)
_cell_angle_gamma                90
_cell_volume                     1210.25
_exptl_crystal_colour            colorless
_exptl_crystal_description       needle
_chemical_melting_point          413-415K
_cell_formula_units_Z            2
loop_
_atom_site_label
_atom_site_type_symbol
_atom_site_fract_x
_atom_site_fract_y
_atom_site_fract_z
O1 O -0.1673(1) 0.1537(4) -0.01510(7)
O2 O -0.3952(1) 0.0694(5) 0.12418(7)
N1 N -0.3547(2) 0.0893(5) -0.08311(9)
C1 C -0.4263(2) -0.0266(6) -0.1241(1)
C2 C -0.4214(2) 0.0144(7) -0.1902(1)
C3 C -0.3417(2) 0.1794(7) -0.2132(1)
C4 C -0.2687(2) 0.2971(7) -0.1709(1)
C5 C -0.2772(2) 0.2476(7) -0.1061(1)
C6 C -0.2043(2) 0.3867(7) -0.0578(1)
C7 C -0.1096(2) 0.2790(7) 0.0390(1)
C8 C -0.1187(2) 0.0738(6) 0.0958(1)
C9 C -0.0323(2) -0.0489(6) 0.1254(1)
C10 C -0.0383(2) -0.2326(7) 0.1790(1)
C11 C -0.1308(2) -0.2964(7) 0.2029(1)
C12 C -0.2201(2) -0.1744(7) 0.1739(1)
C13 C -0.2147(2) 0.0130(6) 0.1198(1)
C14 C -0.3099(2) 0.1457(7) 0.0889(1)
C15 C -0.5125(2) -0.1913(7) -0.0967(1)
H1 H -0.4722 -0.0704 -0.2186
H2 H -0.3373 0.2114 -0.2576
H3 H -0.2131 0.4109 -0.1858
H4 H 0.0323 -0.0074 0.1090
H5 H 0.0220 -0.3140 0.1992
H6 H -0.1345 -0.4241 0.2392
H7 H -0.2841 -0.2181 0.1908
H8 H -0.2380 0.5400 -0.0347
H9 H -0.1489 0.4756 -0.0785
H10 H -0.0400 0.2950 0.0293
H11 H -0.1351 0.4761 0.0485
H12 H -0.3193 0.0662 0.0470
H13 H -0.3036 0.3619 0.0870
H14 H -0.5083 -0.4033 -0.1060
H15 H -0.5104 -0.1631 -0.0519
O2B O -0.6048(1) -0.0694(5) -0.12418(7)
C14B C -0.6901(2) -0.1457(7) -0.0889(1)
C13B C -0.7853(2) -0.0130(6) -0.1198(1)
C8B C -0.8813(2) -0.0738(6) -0.0958(1)
C7B C -0.8904(2) -0.2790(7) -0.0390(1)
O1B O -0.8327(1) -0.1537(4) 0.01510(7)
C6B C -0.7957(2) -0.3867(7) 0.0578(1)
C5B C -0.7228(2) -0.2476(7) 0.1061(1)
N1B N -0.6453(2) -0.0893(5) 0.08311(9)
C1B C -0.5737(2) 0.0266(6) 0.1241(1)
C2B C -0.5786(2) -0.0144(7) 0.1902(1)
C3B C -0.6583(2) -0.1794(7) 0.2132(1)
C4B C -0.7313(2) -0.2971(7) 0.1709(1)
H3B H -0.7869 -0.4109 0.1858
H2B H -0.6627 -0.2114 0.2576
H1B H -0.5278 0.0704 0.2186
C15B C -0.4875(2) 0.1913(7) 0.0967(1)
H14B H -0.4917 0.4033 0.1060
H15B H -0.4896 0.1631 0.0519
H8B H -0.7620 -0.5400 0.0347
H9B H -0.8511 -0.4756 0.0785
H10B H -0.9600 -0.2950 -0.0293
H11B H -0.8649 -0.4761 -0.0485
C9B C -0.9677(2) 0.0489(6) -0.1254(1)
C10B C -0.9617(2) 0.2326(7) -0.1790(1)
C11B C -0.8692(2) 0.2964(7) -0.2029(1)
C12B C -0.7799(2) 0.1744(7) -0.1739(1)
H7B H -0.7159 0.2181 -0.1908
H6B H -0.8655 0.4241 -0.2392
H5B H -1.0220 0.3140 -0.1992
H4B H -1.0323 0.0074 -0.1090
H12B H -0.6807 -0.0662 -0.0470
H13B H -0.6964 -0.3619 -0.0870
loop_
_geom_bond_atom_site_label_1
_geom_bond_atom_site_label_2
_geom_bond_site_symmetry_1
_geom_bond_site_symmetry_2
O1 C6 1_555 1_555
O2 C14 1_555 1_555
N1 C1 1_555 1_555
C1 C2 1_555 1_555
C2 C3 1_555 1_555
C3 C4 1_555 1_555
C4 C5 1_555 1_555
C5 N1 1_555 1_555
C6 C5 1_555 1_555
C7 O1 1_555 1_555
C8 C7 1_555 1_555
C9 C8 1_555 1_555
C10 C9 1_555 1_555
C11 C10 1_555 1_555
C12 C11 1_555 1_555
C13 C8 1_555 1_555
C14 C13 1_555 1_555
C15 C1 1_555 1_555
H1 C2 1_555 1_555
H2 C3 1_555 1_555
H3 C4 1_555 1_555
H4 C9 1_555 1_555
H5 C10 1_555 1_555
H6 C11 1_555 1_555
H7 C12 1_555 1_555
H8 C6 1_555 1_555
H9 C6 1_555 1_555
H10 C7 1_555 1_555
H11 C7 1_555 1_555
H12 C14 1_555 1_555
H13 C14 1_555 1_555
H14 C15 1_555 1_555
H15 C15 1_555 1_555
O2B C15 1_555 1_555
C14B O2B 1_555 1_555
C13B C14B 1_555 1_555
C8B C13B 1_555 1_555
C7B C8B 1_555 1_555
O1B C7B 1_555 1_555
C6B O1B 1_555 1_555
C5B C6B 1_555 1_555
N1B C5B 1_555 1_555
C1B N1B 1_555 1_555
C2B C1B 1_555 1_555
C3B C2B 1_555 1_555
C4B C5B 1_555 1_555
H3B C4B 1_555 1_555
H2B C3B 1_555 1_555
H1B C2B 1_555 1_555
C15B O2 1_555 1_555
H14B C15B 1_555 1_555
H15B C15B 1_555 1_555
H8B C6B 1_555 1_555
H9B C6B 1_555 1_555
H10B C7B 1_555 1_555
H11B C7B 1_555 1_555
C9B C8B 1_555 1_555
C10B C9B 1_555 1_555
C11B C10B 1_555 1_555
C12B C13B 1_555 1_555
H7B C12B 1_555 1_555
H6B C11B 1_555 1_555
H5B C10B 1_555 1_555
H4B C9B 1_555 1_555
H12B C14B 1_555 1_555
H13B C14B 1_555 1_555
C12 C13 1_555 1_555
C1B C15B 1_555 1_555
C3B C4B 1_555 1_555
C11B C12B 1_555 1_555

#END
