
#######################################################################
#
#                 Cambridge Crystallographic Data Centre
#                                CCDC 
#
#######################################################################
#
# If this CIF has been generated from an entry in the Cambridge 
# Structural Database, then it will include bibliographic, chemical, 
# crystal, experimental, refinement or atomic coordinate data resulting 
# from the CCDC's data processing and validation procedures.
#
#######################################################################

data_NENBIU
_chemical_formula_moiety         'C16 H27 N1 O2'
_chemical_name_systematic        
(R)-4a,7,7,10a-tetramethyldodecahydro-3H-naphtho[1,2-e][1,3]oxazin-3-one
_chemical_properties_biological  'antifungal activity'
_symmetry_cell_setting           orthorhombic
_symmetry_space_group_name_H-M   'P 21 21 21'
_symmetry_Int_Tables_number      19
_space_group_name_Hall           'P 2ac 2ab'
loop_
_symmetry_equiv_pos_site_id
_symmetry_equiv_pos_as_xyz
1 x,y,z
2 1/2-x,-y,1/2+z
3 -x,1/2+y,1/2-z
4 1/2+x,1/2-y,-z
_cell_length_a                   7.3576(3)
_cell_length_b                   10.5131(4)
_cell_length_c                   37.5341(17)
_cell_angle_alpha                90
_cell_angle_beta                 90
_cell_angle_gamma                90
_cell_volume                     2903.31
_exptl_crystal_colour            colorless
_exptl_crystal_description       block
_cell_formula_units_Z            8
loop_
_atom_site_label
_atom_site_type_symbol
_atom_site_fract_x
_atom_site_fract_y
_atom_site_fract_z
O1 O 0.3010(2) 0.33099(15) 0.42542(4)
O2 O 0.1881(2) 0.26768(17) 0.37391(4)
N1 N 0.0289(3) 0.41435(19) 0.40535(5)
H1 H -0.0463 0.4221 0.3879
C1 C 0.1012(3) 0.5261(2) 0.50250(6)
C2 C -0.0970(3) 0.5182(2) 0.51592(6)
H2 H -0.1735 0.5699 0.5007
H3 H -0.1386 0.4309 0.5141
C3 C 0.1700(3) 0.3363(2) 0.40027(6)
C4 C 0.4349(3) 0.3780(2) 0.48098(6)
H4 H 0.5590 0.3793 0.4722
H5 H 0.4021 0.2901 0.4855
C5 C 0.2098(3) 0.4996(2) 0.56935(6)
C6 C 0.3097(3) 0.4323(2) 0.45257(6)
C7 C 0.1487(3) 0.6676(2) 0.49650(6)
H6 H 0.1030 0.6944 0.4737
H7 H 0.2783 0.6782 0.4971
H8 H 0.0944 0.7181 0.5149
C8 C 0.1161(3) 0.4472(2) 0.46736(6)
H9 H 0.0775 0.3610 0.4738
C9 C 0.4249(3) 0.4526(2) 0.51589(6)
H10 H 0.4696 0.5383 0.5121
H11 H 0.5017 0.4122 0.5336
C10 C -0.0104(3) 0.4875(2) 0.43734(6)
H12 H -0.1356 0.4738 0.4444
H13 H 0.0056 0.5775 0.4325
C11 C -0.1188(3) 0.5630(2) 0.55441(6)
H14 H -0.0922 0.6532 0.5558
H15 H -0.2437 0.5504 0.5619
C12 C 0.2284(3) 0.4582(2) 0.52974(6)
H16 H 0.1878 0.3694 0.5295
C13 C 0.3939(3) 0.5482(2) 0.43450(6)
H17 H 0.4902 0.5213 0.4190
H18 H 0.4418 0.6046 0.4523
H19 H 0.3027 0.5917 0.4209
C14 C 0.2850(3) 0.6332(2) 0.57760(6)
H20 H 0.4064 0.6403 0.5684
H21 H 0.2865 0.6462 0.6029
H22 H 0.2091 0.6962 0.5666
C15 C 0.3130(4) 0.4051(3) 0.59306(6)
H23 H 0.2781 0.3199 0.5869
H24 H 0.2840 0.4211 0.6176
H25 H 0.4413 0.4153 0.5895
C16 C 0.0072(3) 0.4908(2) 0.57936(6)
H26 H -0.0283 0.4019 0.5795
H27 H -0.0086 0.5236 0.6033
O3 O 0.8019(2) 0.36549(15) 0.32254(4)
O4 O 0.6740(2) 0.41005(17) 0.37411(4)
N2 N 0.5250(3) 0.2752(2) 0.33725(5)
H28 H 0.4442 0.2620 0.3534
C17 C 0.6641(3) 0.3515(2) 0.34603(6)
C18 C 0.9437(3) 0.3488(2) 0.26672(6)
H29 H 1.0666 0.3458 0.2760
H30 H 0.9071 0.4374 0.2655
C19 C 0.8181(3) 0.2786(2) 0.29209(6)
C20 C 0.4250(3) 0.2143(2) 0.22341(6)
H31 H 0.3487 0.1553 0.2365
H32 H 0.3787 0.2994 0.2275
C21 C 0.7388(3) 0.2644(2) 0.17314(6)
C22 C 0.9422(3) 0.2927(2) 0.22916(6)
H33 H 0.9916 0.2072 0.2298
H34 H 1.0187 0.3438 0.2137
C23 C 0.6215(3) 0.2058(2) 0.23792(6)
C24 C 0.6274(3) 0.2678(2) 0.27556(6)
H35 H 0.5869 0.3557 0.2720
C25 C 0.9055(3) 0.1570(2) 0.30609(6)
H36 H 0.9956 0.1782 0.3236
H37 H 0.9618 0.1122 0.2867
H38 H 0.8140 0.1042 0.3167
C26 C 0.6758(3) 0.0646(2) 0.23910(6)
H39 H 0.6204 0.0247 0.2594
H40 H 0.8056 0.0577 0.2409
H41 H 0.6355 0.0231 0.2177
C27 C 0.7476(3) 0.2889(2) 0.21396(6)
H42 H 0.7018 0.3758 0.2169
C28 C 0.4976(3) 0.2125(2) 0.30304(6)
H43 H 0.3731 0.2247 0.2952
H44 H 0.5191 0.1219 0.3055
C29 C 0.4122(3) 0.1840(2) 0.18375(6)
H45 H 0.4452 0.0957 0.1799
H46 H 0.2878 0.1954 0.1758
C30 C 0.8369(4) 0.3732(3) 0.15378(7)
H47 H 0.7920 0.4533 0.1624
H48 H 0.8148 0.3667 0.1286
H49 H 0.9651 0.3675 0.1582
C31 C 0.5365(3) 0.2690(3) 0.16199(6)
H50 H 0.4939 0.3560 0.1640
H51 H 0.5273 0.2445 0.1371
C32 C 0.8260(4) 0.1385(3) 0.16113(7)
H52 H 0.9419 0.1285 0.1725
H53 H 0.8422 0.1394 0.1358
H54 H 0.7482 0.0689 0.1676
loop_
_geom_bond_atom_site_label_1
_geom_bond_atom_site_label_2
_geom_bond_site_symmetry_1
_geom_bond_site_symmetry_2
O1 C3 1_555 1_555
O2 C3 1_555 1_555
N1 H1 1_555 1_555
C1 C2 1_555 1_555
C2 H2 1_555 1_555
H3 C2 1_555 1_555
C3 N1 1_555 1_555
C4 H4 1_555 1_555
H5 C4 1_555 1_555
C5 C12 1_555 1_555
C6 O1 1_555 1_555
C7 C1 1_555 1_555
H6 C7 1_555 1_555
H7 C7 1_555 1_555
H8 C7 1_555 1_555
C8 C1 1_555 1_555
H9 C8 1_555 1_555
C9 C4 1_555 1_555
H10 C9 1_555 1_555
H11 C9 1_555 1_555
C10 N1 1_555 1_555
H12 C10 1_555 1_555
H13 C10 1_555 1_555
C11 C2 1_555 1_555
H14 C11 1_555 1_555
H15 C11 1_555 1_555
C12 C1 1_555 1_555
H16 C12 1_555 1_555
C13 C6 1_555 1_555
H17 C13 1_555 1_555
H18 C13 1_555 1_555
H19 C13 1_555 1_555
C14 C5 1_555 1_555
H20 C14 1_555 1_555
H21 C14 1_555 1_555
H22 C14 1_555 1_555
C15 C5 1_555 1_555
H23 C15 1_555 1_555
H24 C15 1_555 1_555
H25 C15 1_555 1_555
C16 C5 1_555 1_555
H26 C16 1_555 1_555
H27 C16 1_555 1_555
O3 C17 1_555 1_555
O4 C17 1_555 1_555
N2 H28 1_555 1_555
C17 N2 1_555 1_555
C18 H29 1_555 1_555
H30 C18 1_555 1_555
C19 O3 1_555 1_555
C20 H31 1_555 1_555
H32 C20 1_555 1_555
C21 C27 1_555 1_555
C22 C18 1_555 1_555
H33 C22 1_555 1_555
H34 C22 1_555 1_555
C23 C20 1_555 1_555
C24 C19 1_555 1_555
H35 C24 1_555 1_555
C25 C19 1_555 1_555
H36 C25 1_555 1_555
H37 C25 1_555 1_555
H38 C25 1_555 1_555
C26 C23 1_555 1_555
H39 C26 1_555 1_555
H40 C26 1_555 1_555
H41 C26 1_555 1_555
C27 C22 1_555 1_555
H42 C27 1_555 1_555
C28 N2 1_555 1_555
H43 C28 1_555 1_555
H44 C28 1_555 1_555
C29 C20 1_555 1_555
H45 C29 1_555 1_555
H46 C29 1_555 1_555
C30 C21 1_555 1_555
H47 C30 1_555 1_555
H48 C30 1_555 1_555
H49 C30 1_555 1_555
C31 C21 1_555 1_555
H50 C31 1_555 1_555
H51 C31 1_555 1_555
C32 C21 1_555 1_555
H52 C32 1_555 1_555
H53 C32 1_555 1_555
H54 C32 1_555 1_555
C4 C6 1_555 1_555
C6 C8 1_555 1_555
C8 C10 1_555 1_555
C9 C12 1_555 1_555
C11 C16 1_555 1_555
C18 C19 1_555 1_555
C23 C24 1_555 1_555
C23 C27 1_555 1_555
C24 C28 1_555 1_555
C29 C31 1_555 1_555

#END
