
#######################################################################
#
#                 Cambridge Crystallographic Data Centre
#                                CCDC 
#
#######################################################################
#
# If this CIF has been generated from an entry in the Cambridge 
# Structural Database, then it will include bibliographic, chemical, 
# crystal, experimental, refinement or atomic coordinate data resulting 
# from the CCDC's data processing and validation procedures.
#
#######################################################################

data_NENDOZ
_chemical_formula_moiety         'C48 H36 N4 O4'
_chemical_name_systematic        
25,26,27,28-tetrakis(Pyridyl-2-oxy)calix(4)arene
_symmetry_cell_setting           monoclinic
_symmetry_space_group_name_H-M   'P 21/n'
_symmetry_Int_Tables_number      14
_space_group_name_Hall           '-P 2yn'
loop_
_symmetry_equiv_pos_site_id
_symmetry_equiv_pos_as_xyz
1 x,y,z
2 1/2+x,1/2-y,1/2+z
3 -x,-y,-z
4 1/2-x,1/2+y,1/2-z
_cell_length_a                   18.939(15)
_cell_length_b                   10.290(8)
_cell_length_c                   39.34(3)
_cell_angle_alpha                90
_cell_angle_beta                 101.616(17)
_cell_angle_gamma                90
_cell_volume                     7509.65
_cell_formula_units_Z            8
loop_
_atom_site_label
_atom_site_type_symbol
_atom_site_fract_x
_atom_site_fract_y
_atom_site_fract_z
C1 C 0.60832(19) 0.8650(5) 0.08220(10)
O1 O 0.82803(12) 1.0983(3) 0.18576(6)
O2 O 0.63630(12) 1.0927(3) 0.08628(6)
C2 C 0.6178(2) 0.7465(5) 0.06656(14)
H1 H 0.5950 0.6727 0.0727
O3 O 0.68972(13) 0.7970(3) 0.15085(6)
C3 C 0.6597(3) 0.7369(6) 0.04248(14)
H2 H 0.6646 0.6571 0.0321
C4 C 0.6946(2) 0.8430(6) 0.03332(11)
H3 H 0.7234 0.8346 0.0169
O4 O 0.82544(11) 0.9365(2) 0.09267(6)
C5 C 0.68784(19) 0.9624(4) 0.04813(10)
C6 C 0.7282(2) 1.0777(4) 0.03932(9)
H4 H 0.6935 1.1426 0.0288
H5 H 0.7551 1.0516 0.0219
C7 C 0.77976(19) 1.1406(4) 0.06877(9)
C8 C 0.7817(2) 1.2744(5) 0.07240(12)
H6 H 0.7494 1.3253 0.0570
C9 C 0.8306(3) 1.3335(4) 0.09850(14)
H7 H 0.8314 1.4236 0.1005
C10 C 0.8778(2) 1.2603(5) 0.12141(12)
H8 H 0.9106 1.3015 0.1389
C11 C 0.87825(19) 1.1272(4) 0.11942(9)
C12 C 0.93176(18) 1.0473(4) 0.14426(10)
H9 H 0.9647 1.0073 0.1314
H10 H 0.9598 1.1054 0.1612
C13 C 0.90127(18) 0.9434(4) 0.16327(9)
C14 C 0.9223(2) 0.8143(5) 0.16203(10)
H11 H 0.9573 0.7925 0.1495
C15 C 0.8927(2) 0.7190(4) 0.17881(11)
H12 H 0.9084 0.6336 0.1781
C16 C 0.8402(2) 0.7491(5) 0.19652(10)
H13 H 0.8195 0.6832 0.2074
C17 C 0.8172(2) 0.8749(4) 0.19867(8)
C18 C 0.7564(2) 0.9075(4) 0.21641(9)
H14 H 0.7735 0.9714 0.2343
H15 H 0.7439 0.8298 0.2279
C19 C 0.6884(2) 0.9599(4) 0.19341(11)
C20 C 0.6528(3) 1.0660(4) 0.20375(12)
H16 H 0.6723 1.1101 0.2241
C21 C 0.5875(3) 1.1058(4) 0.18331(17)
H17 H 0.5627 1.1749 0.1906
C22 C 0.5597(3) 1.0455(5) 0.15308(15)
H18 H 0.5166 1.0755 0.1397
C23 C 0.5926(2) 0.9440(4) 0.14184(11)
C24 C 0.5617(2) 0.8777(4) 0.10806(11)
H19 H 0.5466 0.7912 0.1133
H20 H 0.5186 0.9248 0.0972
C25 C 0.64315(19) 0.9719(4) 0.07139(10)
C26 C 0.65631(19) 0.9008(4) 0.16281(10)
C27 C 0.85048(19) 0.9696(4) 0.18276(9)
C28 C 0.82889(18) 1.0706(4) 0.09278(9)
C29 C 0.87392(19) 1.1784(4) 0.20794(9)
C30 C 0.8531(2) 1.3046(4) 0.20912(10)
H21 H 0.8100 1.3342 0.1957
C31 C 0.8980(3) 1.3853(4) 0.23066(11)
H22 H 0.8862 1.4727 0.2319
C32 C 0.9595(2) 1.3392(4) 0.25024(10)
H23 H 0.9907 1.3935 0.2651
C33 C 0.9745(2) 1.2119(4) 0.24762(11)
H24 H 1.0168 1.1797 0.2613
N1 N 0.93221(16) 1.1297(3) 0.22656(8)
C34 C 0.5790(2) 1.1691(4) 0.07174(9)
C35 C 0.5774(3) 1.2926(5) 0.08465(12)
H25 H 0.6141 1.3234 0.1022
C36 C 0.5196(3) 1.3687(5) 0.07067(15)
H26 H 0.5164 1.4531 0.0786
C37 C 0.4670(3) 1.3212(6) 0.04528(14)
H27 H 0.4274 1.3716 0.0354
C38 C 0.4741(2) 1.1992(5) 0.03490(12)
H28 H 0.4379 1.1664 0.0175
N2 N 0.52953(16) 1.1203(3) 0.04766(8)
C39 C 0.6748(2) 0.6778(5) 0.16028(11)
N3 N 0.6321(2) 0.6626(4) 0.18266(10)
C40 C 0.6212(3) 0.5373(7) 0.19225(15)
H29 H 0.5921 0.5215 0.2082
C41 C 0.6536(4) 0.4320(7) 0.1782(2)
H30 H 0.6468 0.3466 0.1846
C42 C 0.6947(4) 0.4614(8) 0.1554(2)
H31 H 0.7163 0.3931 0.1459
C43 C 0.7067(2) 0.5802(6) 0.14540(12)
H32 H 0.7351 0.5964 0.1292
C44 C 0.85734(18) 0.8656(4) 0.07096(9)
N4 N 0.89079(16) 0.9268(3) 0.04997(8)
C45 C 0.9202(2) 0.8492(6) 0.02859(11)
H33 H 0.9445 0.8882 0.0130
C46 C 0.9158(2) 0.7178(6) 0.02883(12)
H34 H 0.9368 0.6685 0.0137
C47 C 0.8804(2) 0.6589(4) 0.05146(12)
H35 H 0.8766 0.5688 0.0519
C48 C 0.8510(2) 0.7330(4) 0.07325(10)
H36 H 0.8271 0.6955 0.0893
O5 O 0.32199(11) 0.6187(2) 0.09131(6)
O6 O 0.18688(12) 0.7579(3) 0.14893(6)
O7 O 0.32459(12) 0.4558(3) 0.18439(6)
O8 O 0.13475(12) 0.4647(3) 0.08466(6)
C49 C 0.18513(19) 0.5954(4) 0.19189(10)
C50 C 0.1494(3) 0.4895(4) 0.20179(11)
H37 H 0.1690 0.4456 0.2222
C51 C 0.0848(3) 0.4481(4) 0.18184(14)
H38 H 0.0607 0.3782 0.1893
C52 C 0.0563(2) 0.5084(4) 0.15146(12)
H39 H 0.0130 0.4786 0.1383
C53 C 0.08978(19) 0.6113(4) 0.14003(10)
C54 C 0.05875(19) 0.6776(4) 0.10618(10)
H40 H 0.0158 0.6304 0.0953
H41 H 0.0436 0.7641 0.1114
C55 C 0.10594(19) 0.6905(5) 0.08028(10)
C56 C 0.1143(2) 0.8094(4) 0.06479(13)
H42 H 0.0911 0.8825 0.0711
C57 C 0.1563(3) 0.8202(6) 0.04039(13)
H43 H 0.1603 0.8999 0.0298
C58 C 0.1921(2) 0.7152(6) 0.03150(11)
H44 H 0.2214 0.7243 0.0153
C59 C 0.1858(2) 0.5952(4) 0.04622(10)
C60 C 0.2265(2) 0.4811(4) 0.03768(10)
H45 H 0.2542 0.5083 0.0207
H46 H 0.1919 0.4171 0.0265
C61 C 0.2769(2) 0.4150(4) 0.06680(10)
C62 C 0.2785(3) 0.2819(5) 0.06986(14)
H47 H 0.2468 0.2318 0.0540
C63 C 0.3268(3) 0.2215(5) 0.09627(16)
H48 H 0.3269 0.1314 0.0982
C64 C 0.3741(3) 0.2938(5) 0.11944(13)
H49 H 0.4066 0.2520 0.1369
C65 C 0.3747(2) 0.4259(4) 0.11764(10)
C66 C 0.42823(19) 0.5060(4) 0.14250(10)
H50 H 0.4566 0.4478 0.1593
H51 H 0.4609 0.5466 0.1296
C67 C 0.39747(19) 0.6103(4) 0.16193(9)
C68 C 0.4192(2) 0.7392(5) 0.16074(10)
H52 H 0.4546 0.7607 0.1484
C69 C 0.3894(2) 0.8345(5) 0.17741(12)
H53 H 0.4051 0.9200 0.1767
C70 C 0.3370(2) 0.8045(5) 0.19497(10)
H54 H 0.3166 0.8704 0.2060
C71 C 0.31320(19) 0.6786(4) 0.19700(9)
C72 C 0.2530(2) 0.6461(4) 0.21481(9)
H55 H 0.2409 0.7236 0.2265
H56 H 0.2701 0.5815 0.2325
C73 C 0.15327(19) 0.6542(3) 0.16102(9)
C74 C 0.34648(19) 0.5841(4) 0.18143(9)
C75 C 0.32599(19) 0.4838(4) 0.09126(10)
C76 C 0.14090(19) 0.5861(4) 0.06958(9)
C77 C 0.07755(18) 0.3881(4) 0.07041(9)
N5 N 0.02927(15) 0.4339(3) 0.04485(7)
C78 C -0.0256(2) 0.3556(4) 0.03203(10)
H57 H -0.0603 0.3862 0.0136
C79 C -0.0343(2) 0.2353(4) 0.04394(11)
H58 H -0.0740 0.1847 0.0343
C80 C 0.0173(3) 0.1905(4) 0.07061(12)
H59 H 0.0133 0.1076 0.0795
C81 C 0.0746(2) 0.2668(4) 0.08429(10)
H60 H 0.1104 0.2376 0.1024
C82 C 0.36975(19) 0.3756(4) 0.20673(9)
C83 C 0.3498(2) 0.2497(4) 0.20787(10)
H61 H 0.3071 0.2197 0.1942
C84 C 0.3943(3) 0.1681(4) 0.22974(11)
H62 H 0.3826 0.0807 0.2310
C85 C 0.4552(2) 0.2154(4) 0.24948(11)
H63 H 0.4862 0.1616 0.2646
C86 C 0.4700(2) 0.3418(4) 0.24679(10)
H64 H 0.5121 0.3739 0.2606
N6 N 0.42821(16) 0.4250(3) 0.22553(8)
C87 C 0.1731(2) 0.8779(5) 0.15878(11)
C88 C 0.2036(2) 0.9762(6) 0.14364(12)
H65 H 0.2302 0.9598 0.1267
C89 C 0.1940(3) 1.0946(7) 0.15387(18)
H66 H 0.2152 1.1630 0.1442
C90 C 0.1543(4) 1.1217(6) 0.1780(2)
H67 H 0.1482 1.2066 0.1850
C91 C 0.1229(3) 1.0170(6) 0.19202(15)
H68 H 0.0949 1.0329 0.2085
N7 N 0.13217(19) 0.8925(3) 0.18223(10)
C92 C 0.35654(18) 0.6893(4) 0.07076(9)
N8 N 0.39241(16) 0.6312(3) 0.05040(8)
C93 C 0.4244(2) 0.7105(5) 0.03069(11)
H69 H 0.4505 0.6724 0.0157
C94 C 0.4209(2) 0.8420(5) 0.03135(10)
H70 H 0.4439 0.8924 0.0172
C95 C 0.3829(2) 0.8977(4) 0.05325(11)
H71 H 0.3793 0.9877 0.0544
C96 C 0.35025(19) 0.8220(4) 0.07337(10)
H72 H 0.3242 0.8584 0.0886
loop_
_geom_bond_atom_site_label_1
_geom_bond_atom_site_label_2
_geom_bond_site_symmetry_1
_geom_bond_site_symmetry_2
C1 C2 1_555 1_555
O1 C27 1_555 1_555
O2 C25 1_555 1_555
C2 H1 1_555 1_555
O3 C26 1_555 1_555
C3 C2 1_555 1_555
H2 C3 1_555 1_555
C4 C3 1_555 1_555
H3 C4 1_555 1_555
O4 C28 1_555 1_555
C5 C4 1_555 1_555
O5 C75 1_555 1_555
C6 C5 1_555 1_555
H4 C6 1_555 1_555
H5 C6 1_555 1_555
O6 C73 1_555 1_555
C7 C6 1_555 1_555
O7 C74 1_555 1_555
C8 C7 1_555 1_555
H6 C8 1_555 1_555
O8 C76 1_555 1_555
C9 C8 1_555 1_555
H7 C9 1_555 1_555
C10 C9 1_555 1_555
H8 C10 1_555 1_555
C11 C10 1_555 1_555
C12 C11 1_555 1_555
H9 C12 1_555 1_555
H10 C12 1_555 1_555
C13 C12 1_555 1_555
C14 C13 1_555 1_555
H11 C14 1_555 1_555
C15 C14 1_555 1_555
H12 C15 1_555 1_555
C16 C15 1_555 1_555
H13 C16 1_555 1_555
C17 C16 1_555 1_555
C18 C17 1_555 1_555
H14 C18 1_555 1_555
H15 C18 1_555 1_555
C19 C18 1_555 1_555
C20 C19 1_555 1_555
H16 C20 1_555 1_555
C21 C20 1_555 1_555
H17 C21 1_555 1_555
C22 C21 1_555 1_555
H18 C22 1_555 1_555
C23 C22 1_555 1_555
C24 C1 1_555 1_555
H19 C24 1_555 1_555
H20 C24 1_555 1_555
C25 C1 1_555 1_555
C26 C19 1_555 1_555
C27 C13 1_555 1_555
C28 C7 1_555 1_555
C29 O1 1_555 1_555
C30 C29 1_555 1_555
H21 C30 1_555 1_555
C31 C30 1_555 1_555
H22 C31 1_555 1_555
C32 C31 1_555 1_555
H23 C32 1_555 1_555
C33 C32 1_555 1_555
H24 C33 1_555 1_555
N1 C29 1_555 1_555
C34 O2 1_555 1_555
C35 C34 1_555 1_555
H25 C35 1_555 1_555
C36 C35 1_555 1_555
H26 C36 1_555 1_555
C37 C36 1_555 1_555
H27 C37 1_555 1_555
C38 C37 1_555 1_555
H28 C38 1_555 1_555
N2 C34 1_555 1_555
C39 O3 1_555 1_555
N3 C39 1_555 1_555
C40 N3 1_555 1_555
H29 C40 1_555 1_555
C41 C40 1_555 1_555
H30 C41 1_555 1_555
C42 C41 1_555 1_555
H31 C42 1_555 1_555
C43 C39 1_555 1_555
H32 C43 1_555 1_555
C44 O4 1_555 1_555
N4 C44 1_555 1_555
C45 N4 1_555 1_555
H33 C45 1_555 1_555
C46 C45 1_555 1_555
H34 C46 1_555 1_555
C47 C46 1_555 1_555
H35 C47 1_555 1_555
C48 C44 1_555 1_555
H36 C48 1_555 1_555
C49 C50 1_555 1_555
C50 H37 1_555 1_555
C51 C50 1_555 1_555
H38 C51 1_555 1_555
C52 C51 1_555 1_555
H39 C52 1_555 1_555
C53 C52 1_555 1_555
C54 C53 1_555 1_555
H40 C54 1_555 1_555
H41 C54 1_555 1_555
C55 C54 1_555 1_555
C56 C55 1_555 1_555
H42 C56 1_555 1_555
C57 C56 1_555 1_555
H43 C57 1_555 1_555
C58 C57 1_555 1_555
H44 C58 1_555 1_555
C59 C58 1_555 1_555
C60 C59 1_555 1_555
H45 C60 1_555 1_555
H46 C60 1_555 1_555
C61 C60 1_555 1_555
C62 C61 1_555 1_555
H47 C62 1_555 1_555
C63 C62 1_555 1_555
H48 C63 1_555 1_555
C64 C63 1_555 1_555
H49 C64 1_555 1_555
C65 C64 1_555 1_555
C66 C65 1_555 1_555
H50 C66 1_555 1_555
H51 C66 1_555 1_555
C67 C66 1_555 1_555
C68 C67 1_555 1_555
H52 C68 1_555 1_555
C69 C68 1_555 1_555
H53 C69 1_555 1_555
C70 C69 1_555 1_555
H54 C70 1_555 1_555
C71 C70 1_555 1_555
C72 C49 1_555 1_555
H55 C72 1_555 1_555
H56 C72 1_555 1_555
C73 C49 1_555 1_555
C74 C67 1_555 1_555
C75 C61 1_555 1_555
C76 C55 1_555 1_555
C77 O8 1_555 1_555
N5 C77 1_555 1_555
C78 N5 1_555 1_555
H57 C78 1_555 1_555
C79 C78 1_555 1_555
H58 C79 1_555 1_555
C80 C79 1_555 1_555
H59 C80 1_555 1_555
C81 C77 1_555 1_555
H60 C81 1_555 1_555
C82 O7 1_555 1_555
C83 C82 1_555 1_555
H61 C83 1_555 1_555
C84 C83 1_555 1_555
H62 C84 1_555 1_555
C85 C84 1_555 1_555
H63 C85 1_555 1_555
C86 C85 1_555 1_555
H64 C86 1_555 1_555
N6 C82 1_555 1_555
C87 O6 1_555 1_555
C88 C87 1_555 1_555
H65 C88 1_555 1_555
C89 C88 1_555 1_555
H66 C89 1_555 1_555
C90 C89 1_555 1_555
H67 C90 1_555 1_555
C91 C90 1_555 1_555
H68 C91 1_555 1_555
N7 C87 1_555 1_555
C92 O5 1_555 1_555
N8 C92 1_555 1_555
C93 N8 1_555 1_555
H69 C93 1_555 1_555
C94 C93 1_555 1_555
H70 C94 1_555 1_555
C95 C94 1_555 1_555
H71 C95 1_555 1_555
C96 C92 1_555 1_555
H72 C96 1_555 1_555
C5 C25 1_555 1_555
C11 C28 1_555 1_555
C17 C27 1_555 1_555
C23 C24 1_555 1_555
C23 C26 1_555 1_555
C33 N1 1_555 1_555
C38 N2 1_555 1_555
C42 C43 1_555 1_555
C47 C48 1_555 1_555
C53 C73 1_555 1_555
C59 C76 1_555 1_555
C65 C75 1_555 1_555
C71 C72 1_555 1_555
C71 C74 1_555 1_555
C80 C81 1_555 1_555
C86 N6 1_555 1_555
C91 N7 1_555 1_555
C95 C96 1_555 1_555

#END
