
#######################################################################
#
#                 Cambridge Crystallographic Data Centre
#                                CCDC 
#
#######################################################################
#
# If this CIF has been generated from an entry in the Cambridge 
# Structural Database, then it will include bibliographic, chemical, 
# crystal, experimental, refinement or atomic coordinate data resulting 
# from the CCDC's data processing and validation procedures.
#
#######################################################################

data_NENJUO
_chemical_formula_moiety         'C20 H22 F3 N5 O3 S1,C1 H2 Cl2'
_chemical_name_systematic        
'N-(3-[6-Amino-5-cyano-3-methyl-4-isopropyl-2,4-dihydropyrano[2,3-c]pyrazol-4-yl]-5-(trifluoromethyl)phenyl)-N-methylmethanesulfonamide dichloromethane solvate'
_symmetry_cell_setting           triclinic
_symmetry_space_group_name_H-M   'P -1'
_symmetry_Int_Tables_number      2
_space_group_name_Hall           '-P 1'
loop_
_symmetry_equiv_pos_site_id
_symmetry_equiv_pos_as_xyz
1 x,y,z
2 -x,-y,-z
_cell_length_a                   10.4435(14)
_cell_length_b                   14.920(2)
_cell_length_c                   16.658(2)
_cell_angle_alpha                98.908(5)
_cell_angle_beta                 103.069(5)
_cell_angle_gamma                100.227(5)
_cell_volume                     2436.18
_exptl_crystal_colour            'light yellow'
_exptl_crystal_description       block
_cell_formula_units_Z            4
loop_
_atom_site_label
_atom_site_type_symbol
_atom_site_fract_x
_atom_site_fract_y
_atom_site_fract_z
S1 S 1.28355(8) 0.47781(6) 0.15121(6)
F1 F 1.3807(2) 0.14218(16) 0.26467(15)
O1 O 0.5774(2) 0.28203(17) 0.18216(13)
O2 O 1.3406(3) 0.40827(18) 0.11206(18)
F2 F 1.2015(2) 0.03866(18) 0.2386(2)
F3 F 1.2817(3) 0.0768(2) 0.13820(16)
O3 O 1.3685(3) 0.56724(18) 0.18864(19)
N1 N 0.7531(3) 0.2532(2) 0.37110(17)
H1 H 0.768(4) 0.258(3) 0.4273(13)
N2 N 1.2272(3) 0.4371(2) 0.22551(18)
N3 N 0.5404(3) 0.3128(2) 0.05297(18)
H2 H 0.527(4) 0.292(3) -0.0026(13)
H3 H 0.475(3) 0.338(3) 0.065(3)
N4 N 0.6489(3) 0.2832(2) 0.32547(16)
N5 N 0.8280(3) 0.2865(2) -0.02226(18)
C1 C 0.6644(3) 0.2623(2) 0.24851(19)
C2 C 0.7345(3) 0.2495(2) 0.10168(19)
C3 C 0.6212(3) 0.2799(2) 0.1105(2)
C4 C 0.7717(3) 0.2208(2) 0.24239(19)
C5 C 0.8034(3) 0.1918(2) 0.15947(19)
C6 C 1.2410(3) 0.2751(2) 0.2165(2)
H4 H 1.3364 0.2937 0.2301
C7 C 1.1772(3) 0.1824(2) 0.20397(19)
C8 C 1.1610(3) 0.3400(2) 0.2085(2)
C9 C 0.7824(3) 0.2677(2) 0.0318(2)
C10 C 1.0214(3) 0.3126(2) 0.18821(19)
H5 H 0.9686 0.3581 0.1830
C11 C 1.0375(3) 0.1541(2) 0.18363(19)
H6 H 0.9965 0.0900 0.1753
C12 C 0.7449(3) 0.0862(2) 0.1232(2)
H7 H 0.7899 0.0515 0.1640
C13 C 0.9578(3) 0.2191(2) 0.17541(18)
C14 C 0.8276(3) 0.2159(2) 0.3247(2)
C15 C 1.2604(3) 0.1103(2) 0.2105(2)
C16 C 0.5934(3) 0.0594(3) 0.1144(2)
H8 H 0.5749 0.0812 0.1683
H9 H 0.5625 -0.0084 0.0979
H10 H 0.5457 0.0882 0.0712
C17 C 0.7725(4) 0.0534(3) 0.0383(2)
H11 H 0.7196 0.0796 -0.0049
H12 H 0.7470 -0.0147 0.0229
H13 H 0.8687 0.0743 0.0425
C18 C 1.1427(4) 0.4903(3) 0.0764(2)
H14 H 1.1730 0.5217 0.0343
H15 H 1.0908 0.5273 0.1045
H16 H 1.0858 0.4287 0.0486
C19 C 1.1743(4) 0.5013(3) 0.2794(2)
H17 H 1.2370 0.5622 0.2969
H18 H 1.1644 0.4764 0.3293
H19 H 1.0863 0.5080 0.2479
C20 C 0.9456(4) 0.1798(3) 0.3642(2)
H20 H 0.9572 0.1898 0.4252
H21 H 1.0269 0.2128 0.3524
H22 H 0.9302 0.1132 0.3411
S2 S 0.18617(8) 0.42755(6) 0.83067(5)
F4 F -0.1260(2) 0.09758(16) 0.66013(14)
O4 O 0.7294(2) 0.25669(16) 0.65701(13)
F5 F -0.1502(2) 0.12374(18) 0.53608(14)
F6 F -0.0564(2) 0.01358(16) 0.57110(19)
O5 O 0.0770(2) 0.35485(18) 0.83200(16)
O6 O 0.1750(3) 0.52163(19) 0.85320(19)
N6 N 0.5306(3) 0.2590(2) 0.46587(18)
H23 H 0.521(4) 0.265(3) 0.4116(14)
N7 N 0.6557(3) 0.2778(2) 0.52073(17)
N8 N 0.7925(3) 0.2683(2) 0.79546(17)
H24 H 0.777(4) 0.268(3) 0.8460(16)
H25 H 0.870(3) 0.300(2) 0.791(3)
N9 N 0.2046(3) 0.41287(19) 0.73404(18)
N10 N 0.5042(3) 0.2198(2) 0.87031(18)
C21 C 0.6871(3) 0.2441(2) 0.72765(19)
C22 C 0.5555(3) 0.2110(2) 0.72585(19)
C23 C 0.6280(3) 0.2482(2) 0.58660(19)
C24 C 0.3121(3) 0.1983(2) 0.65246(19)
C25 C 0.5264(3) 0.2142(2) 0.8054(2)
C26 C 0.4433(3) 0.1688(2) 0.64484(19)
C27 C 0.1997(3) 0.3192(2) 0.6944(2)
C28 C 0.1864(3) 0.1369(2) 0.6210(2)
H26 H 0.1803 0.0742 0.5957
C29 C 0.4917(3) 0.2104(2) 0.57745(19)
C30 C 0.0745(3) 0.2586(2) 0.6625(2)
H27 H -0.0058 0.2792 0.6651
C31 C 0.0696(3) 0.1677(2) 0.6269(2)
C32 C 0.4245(3) 0.0603(2) 0.6244(2)
H28 H 0.3507 0.0351 0.5715
C33 C 0.3175(3) 0.2892(2) 0.68928(19)
H29 H 0.4023 0.3317 0.7113
C34 C 0.4310(3) 0.2187(2) 0.4971(2)
C35 C -0.0647(3) 0.1007(3) 0.5981(2)
C36 C 0.5528(3) 0.0314(2) 0.6100(2)
H30 H 0.5789 0.0588 0.5647
H31 H 0.5357 -0.0365 0.5943
H32 H 0.6258 0.0535 0.6619
C37 C 0.2883(3) 0.1942(3) 0.4468(2)
H33 H 0.2799 0.2231 0.3975
H34 H 0.2317 0.2167 0.4814
H35 H 0.2592 0.1264 0.4283
C38 C 0.3857(4) 0.0142(2) 0.6935(2)
H36 H 0.4612 0.0321 0.7442
H37 H 0.3640 -0.0536 0.6744
H38 H 0.3069 0.0343 0.7063
C39 C 0.3343(4) 0.4114(3) 0.8956(2)
H39 H 0.3273 0.4187 0.9538
H40 H 0.4115 0.4576 0.8925
H41 H 0.3469 0.3488 0.8767
C40 C 0.3019(4) 0.4884(3) 0.7174(3)
H42 H 0.2808 0.5484 0.7357
H43 H 0.2959 0.4784 0.6570
H44 H 0.3935 0.4881 0.7485
Cl1 Cl 0.85462(14) 0.87304(8) 0.16907(7)
Cl2 Cl 0.85094(13) 0.78020(10) 0.00229(7)
C41 C 0.9530(5) 0.8454(3) 0.0995(3)
H45 H 1.0059 0.9035 0.0910
H46 H 1.0170 0.8094 0.1246
Cl3? Cl 1.0320(16) 0.8965(11) 0.1168(9)
C42? C 0.910(2) 0.837(4) 0.0253(17)
H47? H 0.9373 0.7812 0.0001
H48? H 0.8992 0.8777 -0.0164
Cl4? Cl 0.7583(15) 0.8050(13) 0.0534(10)
Cl5? Cl 0.3673(5) 0.4544(4) 0.4876(3)
C43? C 0.4816(7) 0.5001(11) 0.4341(5)
H49? H 0.487(2) 0.4514(14) 0.3883(11)
H50? H 0.453(2) 0.5525(12) 0.4103(14)
Cl6? Cl -0.0022(6) 0.4200(3) 0.5369(3)
C44? C -0.0267(10) 0.4592(3) 0.4427(2)
H51? H 0.0368(18) 0.4392(7) 0.4117(6)
H52? H -0.1205(13) 0.4331(5) 0.4090(5)
Cl7? Cl 0.4598(5) 0.4730(4) 0.4104(2)
C45? C 0.4475(12) 0.5517(7) 0.4969(2)
H53? H 0.484(2) 0.6163(5) 0.4925(4)
H54? H 0.3517(12) 0.5453(15) 0.4978(4)
C46? C -0.0816(5) 0.4629(3) 0.4833(6)
H55? H -0.1377(9) 0.4428(6) 0.4243(8)
H56? H -0.1315(10) 0.4348(5) 0.5207(11)
Cl8? Cl 0.0626(6) 0.4157(3) 0.4889(3)
loop_
_geom_bond_atom_site_label_1
_geom_bond_atom_site_label_2
_geom_bond_site_symmetry_1
_geom_bond_site_symmetry_2
S1 O2 1_555 1_555
F1 C15 1_555 1_555
O1 C1 1_555 1_555
F2 C15 1_555 1_555
F3 C15 1_555 1_555
O3 S1 1_555 1_555
N1 H1 1_555 1_555
N2 S1 1_555 1_555
N3 H2 1_555 1_555
H3 N3 1_555 1_555
N4 N1 1_555 1_555
N5 C9 1_555 1_555
C1 N4 1_555 1_555
C2 C3 1_555 1_555
C3 O1 1_555 1_555
C4 C1 1_555 1_555
C5 C2 1_555 1_555
C6 H4 1_555 1_555
C7 C6 1_555 1_555
C8 N2 1_555 1_555
C9 C2 1_555 1_555
C10 C8 1_555 1_555
H5 C10 1_555 1_555
C11 C7 1_555 1_555
H6 C11 1_555 1_555
C12 C5 1_555 1_555
H7 C12 1_555 1_555
C13 C5 1_555 1_555
C14 N1 1_555 1_555
C15 C7 1_555 1_555
C16 C12 1_555 1_555
H8 C16 1_555 1_555
H9 C16 1_555 1_555
H10 C16 1_555 1_555
C17 C12 1_555 1_555
H11 C17 1_555 1_555
H12 C17 1_555 1_555
H13 C17 1_555 1_555
C18 S1 1_555 1_555
H14 C18 1_555 1_555
H15 C18 1_555 1_555
H16 C18 1_555 1_555
C19 N2 1_555 1_555
H17 C19 1_555 1_555
H18 C19 1_555 1_555
H19 C19 1_555 1_555
C20 C14 1_555 1_555
H20 C20 1_555 1_555
H21 C20 1_555 1_555
H22 C20 1_555 1_555
S2 O5 1_555 1_555
F4 C35 1_555 1_555
O4 C21 1_555 1_555
F5 C35 1_555 1_555
F6 C35 1_555 1_555
O6 S2 1_555 1_555
N6 H23 1_555 1_555
N7 N6 1_555 1_555
N8 H24 1_555 1_555
H25 N8 1_555 1_555
N9 S2 1_555 1_555
N10 C25 1_555 1_555
C21 N8 1_555 1_555
C22 C21 1_555 1_555
C23 O4 1_555 1_555
C24 C26 1_555 1_555
C25 C22 1_555 1_555
C26 C22 1_555 1_555
C27 N9 1_555 1_555
C28 C24 1_555 1_555
H26 C28 1_555 1_555
C29 C23 1_555 1_555
C30 C27 1_555 1_555
H27 C30 1_555 1_555
C31 C28 1_555 1_555
C32 C26 1_555 1_555
H28 C32 1_555 1_555
C33 C24 1_555 1_555
H29 C33 1_555 1_555
C34 N6 1_555 1_555
C35 C31 1_555 1_555
C36 C32 1_555 1_555
H30 C36 1_555 1_555
H31 C36 1_555 1_555
H32 C36 1_555 1_555
C37 C34 1_555 1_555
H33 C37 1_555 1_555
H34 C37 1_555 1_555
H35 C37 1_555 1_555
C38 C32 1_555 1_555
H36 C38 1_555 1_555
H37 C38 1_555 1_555
H38 C38 1_555 1_555
C39 S2 1_555 1_555
H39 C39 1_555 1_555
H40 C39 1_555 1_555
H41 C39 1_555 1_555
C40 N9 1_555 1_555
H42 C40 1_555 1_555
H43 C40 1_555 1_555
H44 C40 1_555 1_555
Cl1 C41 1_555 1_555
Cl2 C41 1_555 1_555
C41 H45 1_555 1_555
H46 C41 1_555 1_555
N3 C3 1_555 1_555
C4 C5 1_555 1_555
C4 C14 1_555 1_555
C6 C8 1_555 1_555
C10 C13 1_555 1_555
C11 C13 1_555 1_555
N7 C23 1_555 1_555
C26 C29 1_555 1_555
C27 C33 1_555 1_555
C29 C34 1_555 1_555
C30 C31 1_555 1_555

#END
