
#######################################################################
#
#                 Cambridge Crystallographic Data Centre
#                                CCDC 
#
#######################################################################
#
# If this CIF has been generated from an entry in the Cambridge 
# Structural Database, then it will include bibliographic, chemical, 
# crystal, experimental, refinement or atomic coordinate data resulting 
# from the CCDC's data processing and validation procedures.
#
#######################################################################

data_NENLOH
_chemical_formula_moiety         '2(C14 H35 Cl1 N3 Si1 1+),Cl12 Si6,2(Cl1 1-)'
_chemical_name_systematic        
"bis((N,N,N',N'',N''-Pentaethyldiethylenetriamine-N,N',N'')-chloro-dihydrido-silicon) dodecachlorocyclohexasilane dichloride"
_symmetry_cell_setting           orthorhombic
_symmetry_space_group_name_H-M   'P b c a'
_symmetry_Int_Tables_number      61
_space_group_name_Hall           '-P 2ac 2ab'
loop_
_symmetry_equiv_pos_site_id
_symmetry_equiv_pos_as_xyz
1 x,y,z
2 1/2-x,-y,1/2+z
3 -x,1/2+y,1/2-z
4 1/2+x,1/2-y,-z
5 -x,-y,-z
6 1/2+x,y,1/2-z
7 x,1/2-y,1/2+z
8 1/2-x,1/2+y,z
_cell_length_a                   19.7106(18)
_cell_length_b                   22.1508(19)
_cell_length_c                   27.130(2)
_cell_angle_alpha                90
_cell_angle_beta                 90
_cell_angle_gamma                90
_cell_volume                     11845.1
_exptl_crystal_colour            white
_cell_formula_units_Z            8
_exptl_crystal_recrystallization_method dichloromethane
loop_
_atom_site_label
_atom_site_type_symbol
_atom_site_fract_x
_atom_site_fract_y
_atom_site_fract_z
Si1 Si 0.01774(9) 0.20907(8) 0.07450(7)
Si2 Si 0.03000(8) 0.14112(7) 0.13867(6)
Si3 Si 0.13350(9) 0.13128(9) 0.17887(7)
Si4 Si 0.22166(9) 0.19712(9) 0.15943(7)
Si5 Si 0.21111(10) 0.26290(9) 0.09357(8)
Si6 Si 0.10830(12) 0.27016(10) 0.05255(9)
Cl1 Cl -0.06602(10) 0.26304(9) 0.09104(10)
Cl2 Cl -0.01589(11) 0.16298(10) 0.01279(7)
Cl3 Cl -0.04489(8) 0.16048(9) 0.19051(7)
Cl4 Cl 0.00049(8) 0.05609(7) 0.11505(6)
Cl5 Cl 0.11398(11) 0.13849(14) 0.25367(7)
Cl6 Cl 0.16721(11) 0.04293(9) 0.17247(10)
Cl7 Cl 0.24760(11) 0.24493(12) 0.22240(8)
Cl8 Cl 0.30856(9) 0.14600(10) 0.14702(9)
Cl9 Cl 0.23644(12) 0.34884(9) 0.11898(10)
Cl10 Cl 0.28846(12) 0.24757(12) 0.04337(9)
Cl11 Cl 0.07528(16) 0.35980(11) 0.05713(14)
Cl12 Cl 0.12632(17) 0.25686(18) -0.02170(9)
Si7 Si -0.29178(8) 0.01927(8) 0.06391(6)
N1 N -0.2436(3) 0.0884(2) 0.1030(2)
N2 N -0.2103(2) 0.0221(2) 0.0195(2)
N3 N -0.3293(3) -0.0442(2) 0.0143(2)
Cl13 Cl -0.38380(9) 0.01537(11) 0.11072(8)
C1 C -0.3939(4) -0.0185(4) -0.0078(3)
H1 H -0.4246 -0.0086 0.0189
H2 H -0.3826 0.0189 -0.0245
C2 C -0.4313(5) -0.0588(5) -0.0439(4)
H3 H -0.4711 -0.0383 -0.0556
H4 H -0.4444 -0.0955 -0.0277
H5 H -0.4022 -0.0680 -0.0712
C3 C -0.3468(4) -0.1055(4) 0.0376(4)
H6 H -0.3645 -0.1316 0.0119
H7 H -0.3829 -0.0993 0.0614
C4 C -0.2893(5) -0.1382(4) 0.0631(4)
H8 H -0.3057 -0.1754 0.0767
H9 H -0.2715 -0.1133 0.0891
H10 H -0.2540 -0.1466 0.0397
C5 C -0.2772(3) -0.0521(3) -0.0248(3)
H11 H -0.2991 -0.0619 -0.0558
H12 H -0.2472 -0.0851 -0.0162
C6 C -0.2372(4) 0.0050(3) -0.0302(3)
H13 H -0.2659 0.0369 -0.0429
H14 H -0.2000 -0.0012 -0.0530
C7 C -0.1541(3) -0.0191(4) 0.0349(3)
H15 H -0.1700 -0.0604 0.0321
H16 H -0.1444 -0.0117 0.0695
C8 C -0.0883(4) -0.0134(4) 0.0064(4)
H17 H -0.0559 -0.0419 0.0189
H18 H -0.0707 0.0267 0.0100
H19 H -0.0966 -0.0215 -0.0279
C9 C -0.1919(5) 0.0863(4) 0.0201(4)
H20 H -0.2274 0.1101 0.0048
H21 H -0.1501 0.0927 0.0019
C10 C -0.1828(4) 0.1050(4) 0.0729(4)
H22 H -0.1429 0.0854 0.0863
H23 H -0.1757 0.1483 0.0745
C11 C -0.2203(9) 0.0680(6) 0.1523(4)
H24 H -0.2120 0.0255 0.1462
H25 H -0.1755 0.0860 0.1538
C12 C -0.2344(9) 0.0672(8) 0.1926(4)
H26 H -0.1975 0.0508 0.2113
H27 H -0.2740 0.0425 0.1971
H28 H -0.2438 0.1075 0.2035
C13 C -0.2898(4) 0.1415(3) 0.1070(3)
H29 H -0.3294 0.1290 0.1256
H30 H -0.3052 0.1515 0.0740
C14 C -0.2624(5) 0.1988(4) 0.1304(3)
H31 H -0.2974 0.2290 0.1309
H32 H -0.2245 0.2132 0.1116
H33 H -0.2482 0.1904 0.1635
H34 H -0.318(2) 0.067(2) 0.0375(16)
H35 H -0.260(2) -0.026(2) 0.0939(16)
Si8 Si -0.01846(9) -0.11007(8) 0.21730(7)
N4 N -0.0477(2) -0.0512(2) 0.27403(18)
N5 N 0.0612(3) -0.1309(2) 0.26227(19)
N6 N 0.0174(3) -0.1798(2) 0.1723(2)
Cl14 Cl -0.10190(11) -0.08710(10) 0.16598(8)
C15 C -0.0371(4) -0.2285(3) 0.1724(3)
H36 H -0.0794 -0.2106 0.1614
H37 H -0.0437 -0.2421 0.2061
C16 C -0.0222(5) -0.2837(4) 0.1402(4)
H38 H -0.0588 -0.3121 0.1431
H39 H 0.0192 -0.3023 0.1510
H40 H -0.0177 -0.2713 0.1065
C17 C 0.0325(5) -0.1642(4) 0.1197(3)
H41 H -0.0103 -0.1582 0.1028
H42 H 0.0544 -0.1988 0.1046
C18 C 0.0763(5) -0.1095(4) 0.1103(3)
H43 H 0.0819 -0.1040 0.0754
H44 H 0.1199 -0.1153 0.1254
H45 H 0.0549 -0.0744 0.1241
C19 C 0.0791(4) -0.2044(3) 0.1970(3)
H46 H 0.1191 -0.1837 0.1848
H47 H 0.0837 -0.2470 0.1894
C20 C 0.0734(4) -0.1959(3) 0.2525(3)
H48 H 0.0361 -0.2199 0.2653
H49 H 0.1149 -0.2089 0.2685
C21 C 0.1235(3) -0.0936(3) 0.2527(3)
H50 H 0.1114 -0.0513 0.2560
H51 H 0.1375 -0.1001 0.2188
C22 C 0.1836(4) -0.1060(4) 0.2859(4)
H52 H 0.2208 -0.0805 0.2766
H53 H 0.1969 -0.1475 0.2827
H54 H 0.1714 -0.0979 0.3195
C23 C 0.0339(4) -0.1209(3) 0.3123(2)
H55 H 0.0697 -0.1249 0.3366
H56 H -0.0010 -0.1505 0.3196
C24 C 0.0045(4) -0.0586(3) 0.3142(2)
H57 H -0.0164 -0.0518 0.3460
H58 H 0.0403 -0.0290 0.3099
C25 C -0.0483(4) 0.0127(3) 0.2561(3)
H59 H -0.0882 0.0184 0.2357
H60 H -0.0088 0.0189 0.2353
C26 C -0.0484(5) 0.0613(4) 0.2961(3)
H61 H -0.0499 0.1005 0.2810
H62 H -0.0078 0.0579 0.3156
H63 H -0.0873 0.0561 0.3169
C27 C -0.1169(4) -0.0706(4) 0.2926(3)
H64 H -0.1419 -0.0842 0.2639
H65 H -0.1093 -0.1060 0.3129
C28 C -0.1597(7) -0.0348(7) 0.3182(8)
H66 H -0.2005 -0.0567 0.3255
H67 H -0.1705 0.0003 0.2990
H68 H -0.1384 -0.0225 0.3485
H69 H -0.057(2) -0.1552(18) 0.2429(15)
H70 H 0.027(2) -0.062(2) 0.1992(17)
Cl15 Cl 0.09099(8) 0.26051(7) 0.16259(7)
Cl16 Cl 0.15043(8) 0.14237(7) 0.07021(6)
loop_
_geom_bond_atom_site_label_1
_geom_bond_atom_site_label_2
_geom_bond_site_symmetry_1
_geom_bond_site_symmetry_2
Si1 Si2 1_555 1_555
Si2 Si3 1_555 1_555
Si3 Si4 1_555 1_555
Si4 Si5 1_555 1_555
Si5 Si6 1_555 1_555
Si6 Si1 1_555 1_555
Cl1 Si1 1_555 1_555
Cl2 Si1 1_555 1_555
Cl3 Si2 1_555 1_555
Cl4 Si2 1_555 1_555
Cl5 Si3 1_555 1_555
Cl6 Si3 1_555 1_555
Cl7 Si4 1_555 1_555
Cl8 Si4 1_555 1_555
Cl9 Si5 1_555 1_555
Cl10 Si5 1_555 1_555
Cl11 Si6 1_555 1_555
Cl12 Si6 1_555 1_555
Si7 N1 1_555 1_555
N1 C10 1_555 1_555
N2 Si7 1_555 1_555
N3 Si7 1_555 1_555
Cl13 Si7 1_555 1_555
C1 N3 1_555 1_555
H1 C1 1_555 1_555
H2 C1 1_555 1_555
C2 C1 1_555 1_555
H3 C2 1_555 1_555
H4 C2 1_555 1_555
H5 C2 1_555 1_555
C3 N3 1_555 1_555
H6 C3 1_555 1_555
H7 C3 1_555 1_555
C4 C3 1_555 1_555
H8 C4 1_555 1_555
H9 C4 1_555 1_555
H10 C4 1_555 1_555
C5 N3 1_555 1_555
H11 C5 1_555 1_555
H12 C5 1_555 1_555
C6 N2 1_555 1_555
H13 C6 1_555 1_555
H14 C6 1_555 1_555
C7 N2 1_555 1_555
H15 C7 1_555 1_555
H16 C7 1_555 1_555
C8 C7 1_555 1_555
H17 C8 1_555 1_555
H18 C8 1_555 1_555
H19 C8 1_555 1_555
C9 N2 1_555 1_555
H20 C9 1_555 1_555
H21 C9 1_555 1_555
C10 C9 1_555 1_555
H22 C10 1_555 1_555
H23 C10 1_555 1_555
C11 N1 1_555 1_555
H24 C11 1_555 1_555
H25 C11 1_555 1_555
C12 C11 1_555 1_555
H26 C12 1_555 1_555
H27 C12 1_555 1_555
H28 C12 1_555 1_555
C13 N1 1_555 1_555
H29 C13 1_555 1_555
H30 C13 1_555 1_555
C14 C13 1_555 1_555
H31 C14 1_555 1_555
H32 C14 1_555 1_555
H33 C14 1_555 1_555
H34 Si7 1_555 1_555
H35 Si7 1_555 1_555
Si8 N4 1_555 1_555
N4 C24 1_555 1_555
N5 Si8 1_555 1_555
N6 Si8 1_555 1_555
Cl14 Si8 1_555 1_555
C15 N6 1_555 1_555
H36 C15 1_555 1_555
H37 C15 1_555 1_555
C16 C15 1_555 1_555
H38 C16 1_555 1_555
H39 C16 1_555 1_555
H40 C16 1_555 1_555
C17 N6 1_555 1_555
H41 C17 1_555 1_555
H42 C17 1_555 1_555
C18 C17 1_555 1_555
H43 C18 1_555 1_555
H44 C18 1_555 1_555
H45 C18 1_555 1_555
C19 N6 1_555 1_555
H46 C19 1_555 1_555
H47 C19 1_555 1_555
C20 N5 1_555 1_555
H48 C20 1_555 1_555
H49 C20 1_555 1_555
C21 N5 1_555 1_555
H50 C21 1_555 1_555
H51 C21 1_555 1_555
C22 C21 1_555 1_555
H52 C22 1_555 1_555
H53 C22 1_555 1_555
H54 C22 1_555 1_555
C23 N5 1_555 1_555
H55 C23 1_555 1_555
H56 C23 1_555 1_555
C24 C23 1_555 1_555
H57 C24 1_555 1_555
H58 C24 1_555 1_555
C25 N4 1_555 1_555
H59 C25 1_555 1_555
H60 C25 1_555 1_555
C26 C25 1_555 1_555
H61 C26 1_555 1_555
H62 C26 1_555 1_555
H63 C26 1_555 1_555
C27 N4 1_555 1_555
H64 C27 1_555 1_555
H65 C27 1_555 1_555
C28 C27 1_555 1_555
H66 C28 1_555 1_555
H67 C28 1_555 1_555
H68 C28 1_555 1_555
H69 Si8 1_555 1_555
H70 Si8 1_555 1_555
C5 C6 1_555 1_555
C19 C20 1_555 1_555

#END
