
#######################################################################
#
#                 Cambridge Crystallographic Data Centre
#                                CCDC 
#
#######################################################################
#
# If this CIF has been generated from an entry in the Cambridge 
# Structural Database, then it will include bibliographic, chemical, 
# crystal, experimental, refinement or atomic coordinate data resulting 
# from the CCDC's data processing and validation procedures.
#
#######################################################################

data_NEQMIG01
_chemical_formula_moiety         'C18 H15 Br1 Cl1 N3 O2'
_chemical_name_systematic        
4-(3-Bromo-5-chloro-2-hydroxybenzylideneamino)-1,2-dihydro-1,5-dimethyl-2-phenylpyrazol-3-one
_symmetry_cell_setting           monoclinic
_symmetry_space_group_name_H-M   'P 21/n'
_symmetry_Int_Tables_number      14
_space_group_name_Hall           '-P 2yn'
loop_
_symmetry_equiv_pos_site_id
_symmetry_equiv_pos_as_xyz
1 x,y,z
2 1/2-x,1/2+y,1/2-z
3 -x,-y,-z
4 1/2+x,1/2-y,1/2+z
_cell_length_a                   7.0546(10)
_cell_length_b                   8.0426(12)
_cell_length_c                   30.666(4)
_cell_angle_alpha                90
_cell_angle_beta                 91.729(2)
_cell_angle_gamma                90
_cell_volume                     1739.11
_exptl_crystal_colour            yellow
_exptl_crystal_description       prism
_chemical_melting_point          '188.5-189.2 deg.C'
_cell_formula_units_Z            4
_exptl_crystal_recrystallization_method methanol
loop_
_atom_site_label
_atom_site_type_symbol
_atom_site_fract_x
_atom_site_fract_y
_atom_site_fract_z
Br1 Br 0.90723(6) 0.34635(5) 1.140011(12)
Cl1 Cl 1.55036(12) 0.02571(11) 1.08887(3)
O1 O 0.8297(3) 0.3536(3) 1.04242(8)
H1 H 0.8146 0.3590 1.0158
O2 O 1.1075(3) 0.1695(3) 0.87974(8)
N1 N 0.8965(4) 0.2903(3) 0.96108(9)
N2 N 0.8314(3) 0.2609(3) 0.84395(8)
N3 N 0.6721(4) 0.3536(3) 0.85645(8)
C1 C 0.9936(4) 0.2768(4) 1.05224(11)
C2 C 1.0559(5) 0.2593(4) 1.09543(11)
C3 C 1.2242(5) 0.1826(4) 1.10666(11)
H2 H 1.2630 0.1732 1.1358
C4 C 1.3350(5) 0.1196(4) 1.07426(11)
C5 C 1.2785(5) 0.1321(4) 1.03165(11)
H3 H 1.3545 0.0884 1.0102
C6 C 1.1070(4) 0.2100(4) 1.01953(10)
C7 C 1.0505(5) 0.2183(4) 0.97392(11)
H4 H 1.1277 0.1702 0.9534
C8 C 0.8437(4) 0.2935(4) 0.91712(10)
C9 C 0.9489(4) 0.2317(4) 0.88108(11)
C10 C 0.6798(4) 0.3605(4) 0.90106(10)
C11 C 0.5197(5) 0.4318(5) 0.92549(12)
H5 H 0.4088 0.3642 0.9208
H6 H 0.4942 0.5428 0.9154
H7 H 0.5530 0.4343 0.9561
C12 C 0.4931(5) 0.3175(5) 0.83254(11)
H8 H 0.4545 0.2056 0.8386
H9 H 0.5109 0.3298 0.8018
H10 H 0.3970 0.3934 0.8416
C13 C 0.9018(4) 0.2793(4) 0.80145(10)
C14 C 0.8476(5) 0.4110(4) 0.77514(11)
H11 H 0.7649 0.4913 0.7853
C15 C 0.9170(5) 0.4233(5) 0.73352(12)
H12 H 0.8761 0.5091 0.7152
C16 C 1.0457(6) 0.3096(5) 0.71916(13)
H13 H 1.0947 0.3202 0.6915
C17 C 1.1023(5) 0.1801(5) 0.74560(12)
H14 H 1.1908 0.1040 0.7359
C18 C 1.0290(5) 0.1622(4) 0.78646(11)
H15 H 1.0644 0.0722 0.8039
loop_
_geom_bond_atom_site_label_1
_geom_bond_atom_site_label_2
_geom_bond_site_symmetry_1
_geom_bond_site_symmetry_2
Br1 C2 1_555 1_555
Cl1 C4 1_555 1_555
O1 H1 1_555 1_555
O2 C9 1_555 1_555
N1 C7 1_555 1_555
N2 N3 1_555 1_555
N3 C10 1_555 1_555
C1 O1 1_555 1_555
C2 C1 1_555 1_555
C3 C2 1_555 1_555
H2 C3 1_555 1_555
C4 C3 1_555 1_555
C5 C4 1_555 1_555
H3 C5 1_555 1_555
C6 C1 1_555 1_555
C7 C6 1_555 1_555
H4 C7 1_555 1_555
C8 N1 1_555 1_555
C9 N2 1_555 1_555
C10 C8 1_555 1_555
C11 C10 1_555 1_555
H5 C11 1_555 1_555
H6 C11 1_555 1_555
H7 C11 1_555 1_555
C12 N3 1_555 1_555
H8 C12 1_555 1_555
H9 C12 1_555 1_555
H10 C12 1_555 1_555
C13 N2 1_555 1_555
C14 C13 1_555 1_555
H11 C14 1_555 1_555
C15 C14 1_555 1_555
H12 C15 1_555 1_555
C16 C15 1_555 1_555
H13 C16 1_555 1_555
C17 C16 1_555 1_555
H14 C17 1_555 1_555
C18 C13 1_555 1_555
H15 C18 1_555 1_555
C5 C6 1_555 1_555
C8 C9 1_555 1_555
C17 C18 1_555 1_555

#END
