
#######################################################################
#
#                 Cambridge Crystallographic Data Centre
#                                CCDC 
#
#######################################################################
#
# If this CIF has been generated from an entry in the Cambridge 
# Structural Database, then it will include bibliographic, chemical, 
# crystal, experimental, refinement or atomic coordinate data resulting 
# from the CCDC's data processing and validation procedures.
#
#######################################################################

data_NESCEV
_chemical_formula_moiety         'C12 H11 F1 N4 S1'
_chemical_name_systematic        
N-(4-Fluorophenyl)-2-(pyridin-2-yl)hydrazinecarbothioamide
_symmetry_cell_setting           triclinic
_symmetry_space_group_name_H-M   'P -1'
_symmetry_Int_Tables_number      2
_space_group_name_Hall           '-P 1'
loop_
_symmetry_equiv_pos_site_id
_symmetry_equiv_pos_as_xyz
1 x,y,z
2 -x,-y,-z
_cell_length_a                   9.928(2)
_cell_length_b                   11.123(2)
_cell_length_c                   12.860(3)
_cell_angle_alpha                74.09(3)
_cell_angle_beta                 89.89(3)
_cell_angle_gamma                65.90(3)
_cell_volume                     1236.85
_exptl_crystal_colour            yellow
_exptl_crystal_description       block
_cell_formula_units_Z            4
loop_
_atom_site_label
_atom_site_type_symbol
_atom_site_fract_x
_atom_site_fract_y
_atom_site_fract_z
S1 S 0.36330(6) 0.35010(6) 0.04171(5)
N1 N -0.1159(2) 0.47698(19) 0.33938(15)
N2 N 0.0096(2) 0.48115(19) 0.19017(15)
H1 H -0.071(3) 0.558(3) 0.157(2)
N3 N 0.1419(2) 0.46310(19) 0.14607(16)
H2 H 0.192(3) 0.508(3) 0.159(2)
N4 N 0.1218(2) 0.29865(18) 0.08123(15)
H3 H 0.043(3) 0.315(3) 0.112(2)
F1 F 0.25555(15) -0.13351(14) -0.09183(12)
C1 C -0.1197(3) 0.4273(2) 0.44666(19)
H4 H -0.2131 0.4577 0.4737
C2 C 0.0047(3) 0.3349(3) 0.5193(2)
H5 H -0.0023 0.3018 0.5946
C3 C 0.1402(3) 0.2917(2) 0.4790(2)
H6 H 0.2283 0.2288 0.5272
C4 C 0.1479(3) 0.3392(2) 0.3696(2)
H7 H 0.2400 0.3100 0.3406
C5 C 0.0154(2) 0.4319(2) 0.30294(17)
C6 C 0.2004(2) 0.3686(2) 0.09196(17)
C7 C 0.1628(2) 0.1894(2) 0.03244(16)
C8 C 0.0532(2) 0.1898(2) -0.03487(18)
H8 H -0.0432 0.2642 -0.0511
C9 C 0.0848(3) 0.0814(2) -0.07829(18)
H9 H 0.0117 0.0815 -0.1260
C10 C 0.2238(3) -0.0260(2) -0.05082(18)
C11 C 0.3335(3) -0.0299(2) 0.01697(18)
H10 H 0.4287 -0.1058 0.0343
C12 C 0.3024(2) 0.0791(2) 0.05954(17)
H11 H 0.3762 0.0783 0.1070
S2 S 0.28723(6) 0.64777(6) 0.22942(5)
N5 N 0.91829(19) 0.22638(18) 0.21362(14)
N6 N 0.6879(2) 0.40463(19) 0.18848(16)
H12 H 0.709(3) 0.441(3) 0.122(2)
N7 N 0.5379(2) 0.45523(19) 0.20278(16)
H13 H 0.483(3) 0.434(3) 0.165(2)
N8 N 0.5690(2) 0.61744(19) 0.26361(15)
H14 H 0.661(3) 0.571(3) 0.2622(19)
F2 F 0.47030(15) 1.08922(14) 0.37595(12)
C13 C 1.0178(2) 0.0967(2) 0.26635(18)
H15 H 1.1142 0.0646 0.2440
C14 C 0.9876(3) 0.0085(2) 0.35032(18)
H16 H 1.0602 -0.0827 0.3846
C15 C 0.8471(3) 0.0572(2) 0.38363(19)
H17 H 0.8230 -0.0009 0.4423
C16 C 0.7423(2) 0.1895(2) 0.33206(18)
H18 H 0.6459 0.2243 0.3541
C17 C 0.7837(2) 0.2699(2) 0.24629(17)
C18 C 0.4742(2) 0.5725(2) 0.23283(17)
C19 C 0.5363(2) 0.7402(2) 0.29265(17)
C20 C 0.6157(2) 0.8160(2) 0.24996(17)
H19 H 0.6852 0.7868 0.2012
C21 C 0.5947(2) 0.9342(2) 0.27763(17)
H20 H 0.6494 0.9861 0.2490
C22 C 0.4924(2) 0.9736(2) 0.34770(18)
C23 C 0.4125(3) 0.8999(3) 0.3917(2)
H21 H 0.3425 0.9300 0.4399
C24 C 0.4355(3) 0.7813(2) 0.36458(19)
H22 H 0.3826 0.7284 0.3951
loop_
_geom_bond_atom_site_label_1
_geom_bond_atom_site_label_2
_geom_bond_site_symmetry_1
_geom_bond_site_symmetry_2
S1 C6 1_555 1_555
N1 C1 1_555 1_555
N2 H1 1_555 1_555
N3 N2 1_555 1_555
H2 N3 1_555 1_555
N4 H3 1_555 1_555
F1 C10 1_555 1_555
C1 H4 1_555 1_555
C2 C1 1_555 1_555
H5 C2 1_555 1_555
C3 C2 1_555 1_555
H6 C3 1_555 1_555
C4 C3 1_555 1_555
H7 C4 1_555 1_555
C5 N1 1_555 1_555
C6 N3 1_555 1_555
C7 N4 1_555 1_555
C8 C7 1_555 1_555
H8 C8 1_555 1_555
C9 C8 1_555 1_555
H9 C9 1_555 1_555
C10 C9 1_555 1_555
C11 C10 1_555 1_555
H10 C11 1_555 1_555
C12 C7 1_555 1_555
H11 C12 1_555 1_555
S2 C18 1_555 1_555
N5 C13 1_555 1_555
N6 H12 1_555 1_555
N7 N6 1_555 1_555
H13 N7 1_555 1_555
N8 H14 1_555 1_555
F2 C22 1_555 1_555
C13 H15 1_555 1_555
C14 C13 1_555 1_555
H16 C14 1_555 1_555
C15 C14 1_555 1_555
H17 C15 1_555 1_555
C16 C15 1_555 1_555
H18 C16 1_555 1_555
C17 N5 1_555 1_555
C18 N7 1_555 1_555
C19 N8 1_555 1_555
C20 C19 1_555 1_555
H19 C20 1_555 1_555
C21 C20 1_555 1_555
H20 C21 1_555 1_555
C22 C21 1_555 1_555
C23 C22 1_555 1_555
H21 C23 1_555 1_555
C24 C19 1_555 1_555
H22 C24 1_555 1_555
N2 C5 1_555 1_555
N4 C6 1_555 1_555
C4 C5 1_555 1_555
C11 C12 1_555 1_555
N6 C17 1_555 1_555
N8 C18 1_555 1_555
C16 C17 1_555 1_555
C23 C24 1_555 1_555

#END
