
#######################################################################
#
#                 Cambridge Crystallographic Data Centre
#                                CCDC 
#
#######################################################################
#
# If this CIF has been generated from an entry in the Cambridge 
# Structural Database, then it will include bibliographic, chemical, 
# crystal, experimental, refinement or atomic coordinate data resulting 
# from the CCDC's data processing and validation procedures.
#
#######################################################################

data_NESCAS
_chemical_formula_moiety         'C17 H23 F3 N1 O4 P1'
_chemical_name_systematic        
'diethyl {1-(acetylamino)-2-methyl-2-[4-(trifluoromethyl)phenyl]cyclopropyl}phosphonate'
_symmetry_cell_setting           orthorhombic
_symmetry_space_group_name_H-M   'P 21 21 21'
_symmetry_Int_Tables_number      19
_space_group_name_Hall           'P 2ac 2ab'
loop_
_symmetry_equiv_pos_site_id
_symmetry_equiv_pos_as_xyz
1 x,y,z
2 1/2-x,-y,1/2+z
3 -x,1/2+y,1/2-z
4 1/2+x,1/2-y,-z
_cell_length_a                   10.2112(2)
_cell_length_b                   17.8559(5)
_cell_length_c                   21.0675(4)
_cell_angle_alpha                90
_cell_angle_beta                 90
_cell_angle_gamma                90
_cell_volume                     3841.24
_exptl_crystal_colour            colorless
_exptl_crystal_description       block
_cell_formula_units_Z            8
loop_
_atom_site_label
_atom_site_type_symbol
_atom_site_fract_x
_atom_site_fract_y
_atom_site_fract_z
P1 P 0.07226(8) 0.34807(4) 0.41009(3)
O1 O 0.2256(2) 0.48298(12) 0.30143(11)
F1 F 0.0064(3) 0.20294(13) -0.00665(10)
O2 O 0.0721(2) 0.43383(12) 0.42868(10)
O3 O 0.1648(2) 0.30183(13) 0.44659(11)
F2 F -0.0111(3) 0.32145(13) -0.00465(11)
F3 F -0.1777(2) 0.25311(19) 0.01640(11)
O4 O -0.0771(2) 0.32557(13) 0.41695(10)
N1 N 0.0442(2) 0.41054(13) 0.29243(11)
H1 H -0.033437 0.407063 0.276860
C1 C 0.1162(3) 0.24452(17) 0.11161(15)
H2 H 0.177097 0.230685 0.080937
C2 C 0.0634(3) 0.27033(16) 0.22113(14)
C3 C 0.1532(3) 0.24939(16) 0.17416(14)
H3 H 0.239230 0.238616 0.185479
C4 C 0.1099(3) 0.47516(17) 0.28524(13)
C5 C 0.2291(3) 0.31643(18) 0.30290(15)
H4 H 0.271605 0.341595 0.267673
H5 H 0.288364 0.296954 0.334880
C6 C 0.0983(3) 0.34689(16) 0.32510(13)
C7 C 0.1078(3) 0.27235(17) 0.28897(14)
C8 C -0.0657(3) 0.28479(17) 0.20339(14)
H6 H -0.126987 0.297763 0.234120
C9 C -0.1034(3) 0.27998(18) 0.14015(15)
H7 H -0.189628 0.289955 0.128730
C10 C -0.0128(3) 0.26033(17) 0.09404(14)
C11 C 0.0340(3) 0.53966(17) 0.25694(15)
H8 H 0.021015 0.577543 0.288658
H9 H -0.049454 0.522042 0.242206
H10 H 0.082210 0.560375 0.221982
C12 C 0.0851(4) 0.19966(18) 0.32387(15)
H11 H -0.006724 0.188130 0.323767
H12 H 0.115125 0.204479 0.366862
H13 H 0.132460 0.160144 0.303186
C13 C 0.1973(4) 0.46923(19) 0.44492(17)
H14 H 0.259381 0.463175 0.410454
H15 H 0.233819 0.446518 0.482814
C14 C -0.1236(4) 0.29403(19) 0.47663(15)
H16 H -0.059515 0.258448 0.492271
H17 H -0.204515 0.267018 0.468947
C15 C -0.0494(4) 0.2596(2) 0.02572(16)
C16 C 0.1699(5) 0.5514(2) 0.4562(2)
H18 H 0.136516 0.573596 0.418007
H19 H 0.249446 0.576254 0.468366
H20 H 0.106332 0.556595 0.489530
C17 C -0.1470(4) 0.3520(2) 0.52608(17)
H21 H -0.212958 0.386289 0.511577
H22 H -0.067200 0.378807 0.534068
H23 H -0.175971 0.328316 0.564505
P2 P 0.64059(7) 0.44822(4) 0.30294(4)
F4 F 0.0048(2) 0.49755(14) 0.01013(11)
F5 F 0.0029(2) 0.60822(13) 0.04657(12)
O5 O 0.6568(2) 0.49854(13) 0.36324(10)
O6 O 0.5313(2) 0.39134(12) 0.32475(11)
O7 O 0.7645(2) 0.41499(14) 0.27993(12)
F6 F -0.0861(2) 0.5205(2) 0.09955(12)
N2 N 0.4615(2) 0.55340(14) 0.27076(12)
H24 H 0.382246 0.538275 0.276053
O8 O 0.6003(2) 0.65216(14) 0.27918(13)
C18 C 0.2943(3) 0.43194(18) 0.14172(15)
H25 H 0.313016 0.382960 0.153677
C19 C 0.5543(3) 0.50269(17) 0.24408(14)
C20 C 0.3876(3) 0.48771(18) 0.15149(14)
C21 C 0.4921(3) 0.62400(18) 0.28808(16)
C22 C 0.1439(3) 0.52089(18) 0.09632(14)
C23 C 0.1735(3) 0.44826(19) 0.11438(16)
H26 H 0.112478 0.410267 0.108220
C24 C 0.0166(3) 0.5362(2) 0.06358(15)
C25 C 0.3548(3) 0.56105(18) 0.13420(15)
H27 H 0.414705 0.599420 0.141086
C26 C 0.5194(3) 0.46761(19) 0.17850(15)
C27 C 0.2344(3) 0.57757(19) 0.10695(15)
H28 H 0.214361 0.626645 0.095804
C28 C 0.7799(3) 0.5377(2) 0.37718(17)
H29 H 0.788587 0.581467 0.350187
H30 H 0.853875 0.504891 0.369374
C29 C 0.5485(4) 0.34507(19) 0.38059(17)
H31 H 0.467200 0.343187 0.404369
H32 H 0.615230 0.366783 0.407693
C30 C 0.6246(3) 0.5256(2) 0.18396(15)
H33 H 0.606204 0.574973 0.167020
H34 H 0.714499 0.509153 0.178767
C31 C 0.3828(4) 0.6675(2) 0.31889(19)
H35 H 0.304134 0.638044 0.318397
H36 H 0.368574 0.713197 0.295939
H37 H 0.406056 0.678876 0.361976
C32 C 0.7771(4) 0.5605(2) 0.44481(18)
H38 H 0.702014 0.591676 0.452320
H39 H 0.855313 0.587897 0.454773
H40 H 0.771958 0.516747 0.471155
C33 C 0.5881(4) 0.2674(2) 0.3619(2)
H41 H 0.527163 0.248171 0.331237
H42 H 0.588333 0.235733 0.398668
H43 H 0.674278 0.268564 0.343645
C34 C 0.5625(4) 0.3868(2) 0.16651(19)
H44 H 0.649891 0.379781 0.182294
H45 H 0.560762 0.376707 0.121762
H46 H 0.504072 0.353143 0.187968
loop_
_geom_bond_atom_site_label_1
_geom_bond_atom_site_label_2
_geom_bond_site_symmetry_1
_geom_bond_site_symmetry_2
P1 O2 1_555 1_555
O1 C4 1_555 1_555
F1 C15 1_555 1_555
O2 C13 1_555 1_555
O3 P1 1_555 1_555
F2 C15 1_555 1_555
F3 C15 1_555 1_555
O4 P1 1_555 1_555
N1 H1 1_555 1_555
C1 H2 1_555 1_555
C2 C3 1_555 1_555
C3 C1 1_555 1_555
H3 C3 1_555 1_555
C4 N1 1_555 1_555
C5 H4 1_555 1_555
H5 C5 1_555 1_555
C6 P1 1_555 1_555
C7 C2 1_555 1_555
C8 C2 1_555 1_555
H6 C8 1_555 1_555
C9 C8 1_555 1_555
H7 C9 1_555 1_555
C10 C1 1_555 1_555
C11 C4 1_555 1_555
H8 C11 1_555 1_555
H9 C11 1_555 1_555
H10 C11 1_555 1_555
C12 C7 1_555 1_555
H11 C12 1_555 1_555
H12 C12 1_555 1_555
H13 C12 1_555 1_555
C13 H14 1_555 1_555
H15 C13 1_555 1_555
C14 O4 1_555 1_555
H16 C14 1_555 1_555
H17 C14 1_555 1_555
C15 C10 1_555 1_555
C16 C13 1_555 1_555
H18 C16 1_555 1_555
H19 C16 1_555 1_555
H20 C16 1_555 1_555
C17 C14 1_555 1_555
H21 C17 1_555 1_555
H22 C17 1_555 1_555
H23 C17 1_555 1_555
P2 O5 1_555 1_555
F4 C24 1_555 1_555
F5 C24 1_555 1_555
O5 C28 1_555 1_555
O6 P2 1_555 1_555
O7 P2 1_555 1_555
F6 C24 1_555 1_555
N2 H24 1_555 1_555
O8 C21 1_555 1_555
C18 H25 1_555 1_555
C19 P2 1_555 1_555
C20 C18 1_555 1_555
C21 N2 1_555 1_555
C22 C23 1_555 1_555
C23 C18 1_555 1_555
H26 C23 1_555 1_555
C24 C22 1_555 1_555
C25 C20 1_555 1_555
H27 C25 1_555 1_555
C26 C19 1_555 1_555
C27 C22 1_555 1_555
H28 C27 1_555 1_555
C28 H29 1_555 1_555
H30 C28 1_555 1_555
C29 O6 1_555 1_555
H31 C29 1_555 1_555
H32 C29 1_555 1_555
C30 C19 1_555 1_555
H33 C30 1_555 1_555
H34 C30 1_555 1_555
C31 C21 1_555 1_555
H35 C31 1_555 1_555
H36 C31 1_555 1_555
H37 C31 1_555 1_555
C32 C28 1_555 1_555
H38 C32 1_555 1_555
H39 C32 1_555 1_555
H40 C32 1_555 1_555
C33 C29 1_555 1_555
H41 C33 1_555 1_555
H42 C33 1_555 1_555
H43 C33 1_555 1_555
C34 C26 1_555 1_555
H44 C34 1_555 1_555
H45 C34 1_555 1_555
H46 C34 1_555 1_555
N1 C6 1_555 1_555
C5 C6 1_555 1_555
C5 C7 1_555 1_555
C6 C7 1_555 1_555
C9 C10 1_555 1_555
N2 C19 1_555 1_555
C20 C26 1_555 1_555
C25 C27 1_555 1_555
C26 C30 1_555 1_555

#END
