
#######################################################################
#
#                 Cambridge Crystallographic Data Centre
#                                CCDC 
#
#######################################################################
#
# If this CIF has been generated from an entry in the Cambridge 
# Structural Database, then it will include bibliographic, chemical, 
# crystal, experimental, refinement or atomic coordinate data resulting 
# from the CCDC's data processing and validation procedures.
#
#######################################################################

data_NESGAW
_chemical_formula_moiety         'C16 H14 B1 N1 O2'
_chemical_name_systematic        
([1,2]azaborinino[1,2-a][1,2]azaborinin-1-yl)(4-methoxyphenyl)methanone
_symmetry_cell_setting           orthorhombic
_symmetry_space_group_name_H-M   'P 21 21 21'
_symmetry_Int_Tables_number      19
_space_group_name_Hall           'P 2ac 2ab'
loop_
_symmetry_equiv_pos_site_id
_symmetry_equiv_pos_as_xyz
1 x,y,z
2 1/2-x,-y,1/2+z
3 -x,1/2+y,1/2-z
4 1/2+x,1/2-y,-z
_cell_length_a                   6.201(3)
_cell_length_b                   14.303(5)
_cell_length_c                   15.463(7)
_cell_angle_alpha                90
_cell_angle_beta                 90
_cell_angle_gamma                90
_cell_volume                     1371.46
_exptl_crystal_colour            colorless
_exptl_crystal_description       sheet
_cell_formula_units_Z            4
loop_
_atom_site_label
_atom_site_type_symbol
_atom_site_fract_x
_atom_site_fract_y
_atom_site_fract_z
B1 B 0.7019(12) 0.7623(4) 0.8275(4)
N1 N 0.5484(10) 0.6857(3) 0.8388(3)
O1 O 1.1387(7) 1.1366(2) 0.9929(2)
O2 O 0.8215(9) 0.9286(3) 0.6540(2)
C1 C 0.9158(12) 0.6863(4) 0.9433(4)
H1 H 1.0361 0.6845 0.9792
C2 C 0.7609(16) 0.6152(5) 0.9503(5)
H2 H 0.7806 0.5673 0.9902
C3 C 0.5875(15) 0.6156(4) 0.9007(5)
H3 H 0.4874 0.5677 0.9069
C4 C 0.3666(13) 0.6806(5) 0.7894(5)
H4 H 0.2701 0.6320 0.7994
C5 C 0.3210(13) 0.7428(6) 0.7268(5)
H5 H 0.1946 0.7362 0.6950
C6 C 0.4622(12) 0.8181(5) 0.7085(4)
H6 H 0.4295 0.8590 0.6636
C7 C 0.6461(10) 0.8317(4) 0.7560(3)
C8 C 0.8962(11) 0.7579(4) 0.8860(3)
H7 H 1.0021 0.8038 0.8828
C9 C 0.7852(10) 0.9114(4) 0.7307(4)
C10 C 0.8791(9) 0.9713(3) 0.7991(3)
C11 C 1.0691(10) 1.0190(4) 0.7844(3)
H8 H 1.1362 1.0130 0.7309
C12 C 1.1638(9) 1.0755(3) 0.8465(3)
H9 H 1.2936 1.1058 0.8354
C13 C 1.0609(9) 1.0861(3) 0.9259(3)
C14 C 0.8657(9) 1.0412(3) 0.9411(3)
H10 H 0.7943 1.0501 0.9934
C15 C 0.7780(9) 0.9839(3) 0.8793(3)
H11 H 0.6494 0.9528 0.8908
C16 C 1.3318(11) 1.1890(5) 0.9815(5)
H12 H 1.4486 1.1473 0.9684
H13 H 1.3637 1.2226 1.0338
H14 H 1.3133 1.2325 0.9348
loop_
_geom_bond_atom_site_label_1
_geom_bond_atom_site_label_2
_geom_bond_site_symmetry_1
_geom_bond_site_symmetry_2
B1 N1 1_555 1_555
N1 C3 1_555 1_555
O1 C13 1_555 1_555
O2 C9 1_555 1_555
C1 H1 1_555 1_555
C2 C1 1_555 1_555
H2 C2 1_555 1_555
C3 C2 1_555 1_555
H3 C3 1_555 1_555
C4 N1 1_555 1_555
H4 C4 1_555 1_555
C5 C4 1_555 1_555
H5 C5 1_555 1_555
C6 C5 1_555 1_555
H6 C6 1_555 1_555
C7 B1 1_555 1_555
C8 B1 1_555 1_555
H7 C8 1_555 1_555
C9 C7 1_555 1_555
C10 C9 1_555 1_555
C11 C10 1_555 1_555
H8 C11 1_555 1_555
C12 C11 1_555 1_555
H9 C12 1_555 1_555
C13 C12 1_555 1_555
C14 C13 1_555 1_555
H10 C14 1_555 1_555
C15 C10 1_555 1_555
H11 C15 1_555 1_555
C16 O1 1_555 1_555
H12 C16 1_555 1_555
H13 C16 1_555 1_555
H14 C16 1_555 1_555
C1 C8 1_555 1_555
C6 C7 1_555 1_555
C14 C15 1_555 1_555

#END
