
#######################################################################
#
#                 Cambridge Crystallographic Data Centre
#                                CCDC 
#
#######################################################################
#
# If this CIF has been generated from an entry in the Cambridge 
# Structural Database, then it will include bibliographic, chemical, 
# crystal, experimental, refinement or atomic coordinate data resulting 
# from the CCDC's data processing and validation procedures.
#
#######################################################################

data_NESJIG
_chemical_formula_moiety         
'C17 H27 Ba1 O16 S1 1+,C17 H13 O9 S1 1-,3(H2 O1)'
_chemical_name_systematic        
'Heptaaqua(5-(5,7-dihydroxy-6-methoxy-4-oxo-4H-chromen-3-yl)-2-methoxybenzenesulfonato)barium 5-(5,7-dihydroxy-6-methoxy-4-oxo-4H-chromen-3-yl)-2-methoxybenzenesulfonate trihydrate'
_symmetry_cell_setting           triclinic
_symmetry_space_group_name_H-M   'P -1'
_symmetry_Int_Tables_number      2
_space_group_name_Hall           '-P 1'
loop_
_symmetry_equiv_pos_site_id
_symmetry_equiv_pos_as_xyz
1 x,y,z
2 -x,-y,-z
_cell_length_a                   7.2370(10)
_cell_length_b                   8.3220(10)
_cell_length_c                   37.233(7)
_cell_angle_alpha                93.160(10)
_cell_angle_beta                 93.700(10)
_cell_angle_gamma                90.820(10)
_cell_volume                     2233.97
_exptl_crystal_colour            yellow
_exptl_crystal_description       plate
_cell_formula_units_Z            2
loop_
_atom_site_label
_atom_site_type_symbol
_atom_site_fract_x
_atom_site_fract_y
_atom_site_fract_z
Ba1 Ba 0.36487(4) 0.70319(4) 0.762943(8)
S1 S 0.75179(17) 0.85957(14) 0.84101(3)
O1 O 0.8629(4) 0.9608(3) 1.04167(7)
O2 O 1.0523(5) 0.5584(4) 1.11821(9)
H1 H 1.0526 0.4602 1.1190
O3 O 0.8983(5) 0.3206(4) 1.07079(9)
O4 O 0.7489(5) 0.4055(3) 1.00428(8)
H2 H 0.7049 0.4475 0.9863
O5 O 0.6797(5) 0.6311(4) 0.96122(8)
O6 O 0.5282(5) 1.1562(4) 0.84602(9)
O7 O 0.5852(6) 0.7906(5) 0.82248(10)
O8 O 0.8781(5) 0.7375(4) 0.85296(9)
O9 O 0.8418(5) 0.9772(4) 0.82036(9)
C1 C 0.8747(6) 0.7992(5) 1.04688(11)
C2 C 0.9561(7) 0.7598(5) 1.07975(12)
H5 H 1.0025 0.8394 1.0966
C3 C 0.9665(6) 0.5984(5) 1.08689(12)
C4 C 0.8896(6) 0.4798(5) 1.06165(11)
C5 C 0.8148(6) 0.5204(5) 1.02872(11)
C6 C 0.8077(6) 0.6851(5) 1.02045(11)
C7 C 0.7366(6) 0.7329(5) 0.98537(11)
C8 C 0.7382(6) 0.9059(5) 0.98076(11)
C9 C 0.7970(6) 1.0057(5) 1.00892(11)
H6 H 0.7920 1.1156 1.0056
C10 C 0.6798(6) 0.9725(5) 0.94587(11)
C11 C 0.5841(6) 1.1167(5) 0.94392(12)
H7 H 0.5521 1.1703 0.9651
C12 C 0.5356(7) 1.1822(6) 0.91135(12)
H8 H 0.4731 1.2790 0.9110
C13 C 0.5794(6) 1.1044(5) 0.87948(12)
C14 C 0.6806(6) 0.9622(5) 0.88070(11)
C15 C 0.7285(6) 0.8983(5) 0.91361(11)
H9 H 0.7949 0.8035 0.9141
C16 C 0.7377(8) 0.2695(6) 1.08803(14)
H10 H 0.7255 0.3355 1.1097
H11 H 0.7505 0.1592 1.0939
H12 H 0.6296 0.2796 1.0720
C17 C 0.4518(10) 1.3122(7) 0.84431(16)
H13 H 0.3372 1.3147 0.8560
H14 H 0.4293 1.3370 0.8196
H15 H 0.5371 1.3902 0.8563
O19 O 0.2135(6) 0.9615(6) 0.80099(13)
H27 H 0.285(7) 1.008(9) 0.8163(14)
H28 H 0.108(4) 0.962(9) 0.8080(17)
O20 O 0.0056(6) 0.7345(8) 0.73810(14)
H29 H -0.032(12) 0.774(10) 0.7193(14)
H30 H -0.073(10) 0.683(10) 0.748(2)
O21 O 0.3067(8) 0.3862(7) 0.74043(17)
H31 H 0.224(9) 0.322(8) 0.744(2)
H32 H 0.358(11) 0.353(10) 0.7225(16)
O22 O 0.1429(6) 0.5721(5) 0.81114(12)
H33 H 0.083(8) 0.488(4) 0.8124(19)
H34 H 0.091(8) 0.646(5) 0.8219(17)
O23 O 0.5869(9) 0.9657(7) 0.75207(12)
H35 H 0.603(13) 1.024(8) 0.7354(13)
H36 H 0.636(12) 1.008(9) 0.7708(11)
O24 O 0.7012(7) 0.5390(6) 0.75392(13)
H37 H 0.684(12) 0.495(9) 0.7337(10)
H38 H 0.720(12) 0.517(10) 0.7752(7)
O25 O 0.3354(8) 0.7716(9) 0.69062(14)
H39 H 0.430(8) 0.771(13) 0.679(2)
H40 H 0.311(17) 0.868(4) 0.692(3)
S2 S 0.78781(18) 0.92659(15) 0.65809(3)
O10 O 0.6380(4) 0.9426(3) 0.45732(8)
O11 O 0.4553(6) 0.5019(4) 0.37892(9)
H3 H 0.4277 0.4064 0.3799
O12 O 0.5966(5) 0.2877(4) 0.42722(9)
O13 O 0.7436(5) 0.4063(4) 0.49401(8)
H4 H 0.7885 0.4570 0.5121
O14 O 0.8186(5) 0.6546(4) 0.53707(8)
O15 O 0.9656(5) 1.2480(4) 0.65222(9)
O16 O 0.6684(8) 0.7925(5) 0.64828(10)
O17 O 0.6995(8) 1.0387(5) 0.68164(12)
O18 O 0.9631(7) 0.8849(8) 0.67447(14)
C18 C 0.6244(6) 0.7786(5) 0.45136(11)
C19 C 0.5456(6) 0.7225(5) 0.41822(11)
H16 H 0.5009 0.7928 0.4013
C20 C 0.5359(6) 0.5582(6) 0.41127(12)
C21 C 0.6079(6) 0.4515(5) 0.43621(12)
C22 C 0.6804(6) 0.5102(5) 0.46948(11)
C23 C 0.6893(6) 0.6786(5) 0.47795(11)
C24 C 0.7601(6) 0.7430(5) 0.51327(11)
C25 C 0.7613(6) 0.9188(5) 0.51818(11)
C26 C 0.7014(6) 1.0050(5) 0.49005(11)
H17 H 0.7041 1.1165 0.4936
C27 C 0.8214(6) 1.0045(5) 0.55296(11)
C28 C 0.9088(6) 1.1552(5) 0.55445(12)
H18 H 0.9360 1.2003 0.5331
C29 C 0.9564(7) 1.2398(6) 0.58702(12)
H19 H 1.0127 1.3410 0.5872
C30 C 0.9204(6) 1.1743(5) 0.61915(12)
C31 C 0.8342(6) 1.0223(5) 0.61800(11)
C32 C 0.7847(6) 0.9396(5) 0.58548(11)
H20 H 0.7262 0.8393 0.5853
C33 C 0.7592(8) 0.2299(6) 0.41065(15)
H21 H 0.7788 0.2894 0.3898
H22 H 0.7424 0.1178 0.4035
H23 H 0.8648 0.2441 0.4276
C34 C 1.0393(10) 1.4078(7) 0.65360(16)
H24 H 1.1573 1.4076 0.6432
H25 H 1.0543 1.4489 0.6782
H26 H 0.9560 1.4748 0.6403
O26 O 0.0377(7) 0.1412(6) 0.74039(13)
O27 O 0.5900(9) 0.3571(6) 0.69055(13)
H41 H 0.616(13) 0.261(3) 0.688(3)
H42 H 0.557(13) 0.416(9) 0.6744(17)
O28 O 0.8803(9) 0.3147(7) 0.79788(18)
H43 H 0.893(14) 0.299(12) 0.8195(7)
H44 H 0.799(11) 0.253(10) 0.788(2)
loop_
_geom_bond_atom_site_label_1
_geom_bond_atom_site_label_2
_geom_bond_site_symmetry_1
_geom_bond_site_symmetry_2
Ba1 O7 1_555 1_555
S1 O7 1_555 1_555
S2 O16 1_555 1_555
O1 C1 1_555 1_555
O2 H1 1_555 1_555
O3 C4 1_555 1_555
O4 H2 1_555 1_555
O5 C7 1_555 1_555
O6 C13 1_555 1_555
O8 S1 1_555 1_555
O9 S1 1_555 1_555
O10 C18 1_555 1_555
O11 H3 1_555 1_555
O12 C21 1_555 1_555
O13 H4 1_555 1_555
O14 C24 1_555 1_555
O15 C30 1_555 1_555
O17 S2 1_555 1_555
O18 S2 1_555 1_555
C1 C2 1_555 1_555
C2 H5 1_555 1_555
C3 O2 1_555 1_555
C4 C3 1_555 1_555
C5 O4 1_555 1_555
C6 C1 1_555 1_555
C7 C6 1_555 1_555
C8 C7 1_555 1_555
C9 O1 1_555 1_555
H6 C9 1_555 1_555
C10 C8 1_555 1_555
C11 C10 1_555 1_555
H7 C11 1_555 1_555
C12 C11 1_555 1_555
H8 C12 1_555 1_555
C13 C12 1_555 1_555
C14 S1 1_555 1_555
C15 C10 1_555 1_555
H9 C15 1_555 1_555
C16 O3 1_555 1_555
H10 C16 1_555 1_555
H11 C16 1_555 1_555
H12 C16 1_555 1_555
C17 O6 1_555 1_555
H13 C17 1_555 1_555
H14 C17 1_555 1_555
H15 C17 1_555 1_555
C18 C19 1_555 1_555
C19 H16 1_555 1_555
C20 O11 1_555 1_555
C21 C20 1_555 1_555
C22 O13 1_555 1_555
C23 C18 1_555 1_555
C24 C23 1_555 1_555
C25 C24 1_555 1_555
C26 O10 1_555 1_555
H17 C26 1_555 1_555
C27 C25 1_555 1_555
C28 C27 1_555 1_555
H18 C28 1_555 1_555
C29 C28 1_555 1_555
H19 C29 1_555 1_555
C30 C29 1_555 1_555
C31 S2 1_555 1_555
C32 C27 1_555 1_555
H20 C32 1_555 1_555
C33 O12 1_555 1_555
H21 C33 1_555 1_555
H22 C33 1_555 1_555
H23 C33 1_555 1_555
C34 O15 1_555 1_555
H24 C34 1_555 1_555
H25 C34 1_555 1_555
H26 C34 1_555 1_555
O19 Ba1 1_555 1_555
H27 O19 1_555 1_555
H28 O19 1_555 1_555
O20 Ba1 1_555 1_555
H29 O20 1_555 1_555
H30 O20 1_555 1_555
O21 Ba1 1_555 1_555
H31 O21 1_555 1_555
H32 O21 1_555 1_555
O22 Ba1 1_555 1_555
H33 O22 1_555 1_555
H34 O22 1_555 1_555
O23 Ba1 1_555 1_555
H35 O23 1_555 1_555
H36 O23 1_555 1_555
O24 Ba1 1_555 1_555
H37 O24 1_555 1_555
H38 O24 1_555 1_555
O25 Ba1 1_555 1_555
H39 O25 1_555 1_555
H40 O25 1_555 1_555
O27 H41 1_555 1_555
H42 O27 1_555 1_555
O28 H43 1_555 1_555
H44 O28 1_555 1_555
C2 C3 1_555 1_555
C4 C5 1_555 1_555
C5 C6 1_555 1_555
C8 C9 1_555 1_555
C13 C14 1_555 1_555
C14 C15 1_555 1_555
C19 C20 1_555 1_555
C21 C22 1_555 1_555
C22 C23 1_555 1_555
C25 C26 1_555 1_555
C30 C31 1_555 1_555
C31 C32 1_555 1_555

#END
