
#######################################################################
#
#                 Cambridge Crystallographic Data Centre
#                                CCDC 
#
#######################################################################
#
# If this CIF has been generated from an entry in the Cambridge 
# Structural Database, then it will include bibliographic, chemical, 
# crystal, experimental, refinement or atomic coordinate data resulting 
# from the CCDC's data processing and validation procedures.
#
#######################################################################

data_NESTUC
_chemical_name_common            
'cyclobis(paraquat-p-phenylene) diradical bis(hexafluorophosphate) N,N-dimethylformamide solvate'
_chemical_formula_moiety         'C36 H32 N4 2+,2(F6 P1 1-),2.5(C3 H7 N1 O1)'
_chemical_name_systematic        
'(5,12,19,26-Tetraazoniaheptacyclo[24.2.2.2^2,5^.2^7,10^.2^12,15^.2^16,19^.2^21,24^]tetraconta-1(28),2,4,7,9,12,14,16,18,21,23,26,29,31,33,35,37,39-octadecaene diradical) bis(hexafluorophosphate) N,N-dimethylformamide solvate'
_symmetry_cell_setting           monoclinic
_symmetry_space_group_name_H-M   'P 21/n'
_symmetry_Int_Tables_number      14
_space_group_name_Hall           '-P 2yn'
loop_
_symmetry_equiv_pos_site_id
_symmetry_equiv_pos_as_xyz
1 x,y,z
2 1/2-x,1/2+y,1/2-z
3 -x,-y,-z
4 1/2+x,1/2-y,1/2+z
_cell_length_a                   18.274(4)
_cell_length_b                   30.187(6)
_cell_length_c                   18.591(4)
_cell_angle_alpha                90
_cell_angle_beta                 91.756(9)
_cell_angle_gamma                90
_cell_volume                     10250.7
_exptl_crystal_colour            purple
_exptl_crystal_description       needle
_cell_formula_units_Z            8
loop_
_atom_site_label
_atom_site_type_symbol
_atom_site_fract_x
_atom_site_fract_y
_atom_site_fract_z
N1 N -0.06935(7) 0.32590(4) 0.35963(7)
N2 N 0.11693(7) 0.14510(5) 0.20892(7)
N3 N 0.34908(8) 0.14893(5) 0.47321(8)
N4 N 0.14691(8) 0.31902(5) 0.63505(7)
C1 C -0.09835(9) 0.36301(6) 0.40231(9)
H1 H -0.1505 0.3577 0.4126
H2 H -0.0947 0.3911 0.3751
C2 C -0.08862(8) 0.28335(5) 0.37543(8)
H3 H -0.1275 0.2785 0.4072
C3 C -0.05423(8) 0.24795(5) 0.34739(8)
H4 H -0.0698 0.2189 0.3592
C4 C 0.00535(8) 0.25378(5) 0.30022(8)
C5 C 0.02274(8) 0.29868(5) 0.28408(8)
H5 H 0.0607 0.3047 0.2517
C6 C -0.01364(8) 0.33297(5) 0.31393(9)
H6 H 0.0000 0.3625 0.3027
C7 C 0.04323(8) 0.21726(5) 0.26997(8)
C8 C 0.02494(9) 0.17230(5) 0.28503(8)
H7 H -0.0139 0.1662 0.3164
C9 C 0.06186(9) 0.13806(6) 0.25546(8)
H8 H 0.0490 0.1085 0.2675
C10 C 0.13580(9) 0.18760(6) 0.19225(9)
H9 H 0.1743 0.1926 0.1600
C11 C 0.10087(9) 0.22289(6) 0.22060(9)
H10 H 0.1150 0.2520 0.2073
C12 C 0.16616(9) 0.10820(6) 0.18968(9)
H11 H 0.1868 0.1137 0.1419
H12 H 0.1384 0.0800 0.1875
C13 C 0.22725(9) 0.10510(5) 0.24624(9)
C14 C 0.21901(9) 0.07851(6) 0.30683(9)
H13 H 0.1782 0.0591 0.3091
C15 C 0.26947(10) 0.08011(6) 0.36351(9)
H14 H 0.2631 0.0619 0.4045
C16 C 0.32994(9) 0.10833(6) 0.36107(9)
C17 C 0.33970(10) 0.13366(6) 0.29949(10)
H15 H 0.3814 0.1523 0.2965
C18 C 0.28908(9) 0.13192(6) 0.24250(9)
H16 H 0.2966 0.1491 0.2006
C19 C 0.37959(10) 0.11408(6) 0.42704(10)
H17 H 0.3832 0.0858 0.4540
H18 H 0.4293 0.1226 0.4124
C20 C 0.36417(9) 0.19245(6) 0.45970(9)
H19 H 0.4006 0.1996 0.4262
C21 C 0.32827(9) 0.22571(6) 0.49306(9)
H20 H 0.3409 0.2556 0.4832
C22 C 0.27191(9) 0.21662(6) 0.54273(9)
C23 C 0.25806(9) 0.17073(6) 0.55447(9)
H21 H 0.2213 0.1624 0.5869
C24 C 0.29610(9) 0.13862(6) 0.52056(9)
H22 H 0.2856 0.1084 0.5300
C25 C 0.23099(9) 0.25086(6) 0.57530(9)
C26 C 0.24721(9) 0.29663(6) 0.56567(9)
H23 H 0.2878 0.3048 0.5378
C27 C 0.20604(9) 0.32887(6) 0.59531(9)
H24 H 0.2188 0.3590 0.5881
C28 C 0.12983(9) 0.27558(6) 0.64659(9)
H25 H 0.0889 0.2686 0.6747
C29 C 0.16978(9) 0.24220(6) 0.61900(9)
H26 H 0.1568 0.2124 0.6289
C30 C 0.09529(10) 0.35434(6) 0.65507(9)
H27 H 0.1224 0.3821 0.6652
H28 H 0.0696 0.3457 0.6991
C31 C 0.04022(9) 0.36158(5) 0.59383(9)
C32 C 0.05859(9) 0.38709(5) 0.53471(9)
H29 H 0.1032 0.4033 0.5359
C33 C 0.01263(9) 0.38908(5) 0.47424(9)
H30 H 0.0262 0.4063 0.4340
C34 C -0.05345(9) 0.36594(5) 0.47201(9)
C35 C -0.07395(9) 0.34256(6) 0.53262(9)
H31 H -0.1201 0.3281 0.5328
C36 C -0.02744(10) 0.34018(6) 0.59279(9)
H32 H -0.0418 0.3238 0.6337
N5 N 0.21923(7) 0.32917(5) 0.35163(7)
N6 N 0.04595(7) 0.13811(5) 0.48403(7)
N7 N 0.26919(9) 0.13816(5) 0.75557(8)
N8 N 0.44540(7) 0.32729(5) 0.61956(7)
C37 C 0.26547(9) 0.36839(6) 0.33736(9)
H33 H 0.2346 0.3953 0.3346
H34 H 0.2895 0.3647 0.2907
C38 C 0.24128(9) 0.28796(6) 0.33084(9)
H35 H 0.2815 0.2853 0.3000
C39 C 0.20720(9) 0.25078(5) 0.35312(9)
H36 H 0.2239 0.2227 0.3373
C40 C 0.14657(8) 0.25284(5) 0.40009(8)
C41 C 0.12495(8) 0.29670(5) 0.41895(8)
H37 H 0.0843 0.3006 0.4489
C42 C 0.16094(9) 0.33303(6) 0.39518(9)
H38 H 0.1452 0.3617 0.4092
C43 C 0.11209(8) 0.21435(5) 0.42729(8)
C44 C 0.13523(9) 0.17067(5) 0.41041(8)
H39 H 0.1744 0.1668 0.3786
C45 C 0.10285(9) 0.13427(5) 0.43857(8)
H40 H 0.1202 0.1057 0.4264
C46 C 0.02128(9) 0.17919(6) 0.50167(9)
H41 H -0.0185 0.1818 0.5332
C47 C 0.05225(9) 0.21653(5) 0.47522(8)
H42 H 0.0338 0.2446 0.4888
C48 C 0.02057(9) 0.09875(6) 0.52397(9)
H43 H 0.0247 0.0719 0.4939
H44 H -0.0313 0.1025 0.5365
C49 C 0.06798(9) 0.09420(5) 0.59170(9)
C50 C 0.13176(10) 0.06894(6) 0.59120(9)
H45 H 0.1423 0.0516 0.5502
C51 C 0.17999(10) 0.06896(6) 0.65022(9)
H46 H 0.2232 0.0515 0.6494
C52 C 0.16554(10) 0.09436(6) 0.71075(9)
C53 C 0.10080(11) 0.11848(6) 0.71190(9)
H47 H 0.0897 0.1352 0.7535
C54 C 0.05223(10) 0.11847(6) 0.65308(10)
H48 H 0.0081 0.1350 0.6546
C55 C 0.22288(11) 0.09926(6) 0.77069(10)
H49 H 0.1989 0.1033 0.8172
H50 H 0.2535 0.0722 0.7738
C56 C 0.32847(10) 0.13371(6) 0.71318(9)
H51 H 0.3456 0.1048 0.7024
C57 C 0.36365(10) 0.16922(6) 0.68602(9)
H52 H 0.4049 0.1647 0.6570
C58 C 0.33973(9) 0.21339(6) 0.70037(9)
C59 C 0.27879(9) 0.21654(6) 0.74617(9)
H53 H 0.2615 0.2450 0.7596
C60 C 0.24486(10) 0.17980(6) 0.77097(9)
H54 H 0.2031 0.1831 0.7997
C61 C 0.37552(9) 0.25155(6) 0.67310(9)
C62 C 0.43436(9) 0.24886(6) 0.62444(9)
H55 H 0.4513 0.2206 0.6098
C63 C 0.46647(9) 0.28582(6) 0.59883(9)
H56 H 0.5046 0.2829 0.5656
C64 C 0.39038(9) 0.33135(6) 0.66721(9)
H57 H 0.3757 0.3601 0.6819
C65 C 0.35611(9) 0.29529(6) 0.69412(9)
H58 H 0.3185 0.2993 0.7276
C66 C 0.47147(9) 0.36681(6) 0.58089(9)
H59 H 0.5230 0.3626 0.5673
H60 H 0.4689 0.3933 0.6122
C67 C 0.42316(9) 0.37313(6) 0.51424(9)
C68 C 0.35630(9) 0.39507(6) 0.51871(9)
H61 H 0.3448 0.4103 0.5617
C69 C 0.30647(9) 0.39489(5) 0.46108(9)
H62 H 0.2607 0.4095 0.4651
C70 C 0.32302(9) 0.37339(5) 0.39715(9)
C71 C 0.39155(9) 0.35362(6) 0.39141(9)
H63 H 0.4045 0.3402 0.3473
C72 C 0.44090(9) 0.35333(6) 0.44960(10)
H64 H 0.4872 0.3395 0.4452
P1 P 0.43962(3) 0.260331(17) 0.24241(3)
F1 F 0.48830(7) 0.21637(4) 0.25222(7)
F2 F 0.39008(7) 0.30403(4) 0.23274(6)
F3 F 0.37369(8) 0.23085(5) 0.21046(8)
F4 F 0.40974(7) 0.25351(4) 0.32146(6)
F5 F 0.50518(7) 0.28959(5) 0.27414(8)
F6 F 0.46907(7) 0.26690(4) 0.16325(7)
P2 P 0.31969(2) 0.658836(17) 0.52218(2)
F7 F 0.36462(6) 0.61991(4) 0.48517(6)
F8 F 0.27397(7) 0.69760(4) 0.55889(6)
F9 F 0.26914(6) 0.62280(4) 0.55914(6)
F10 F 0.26436(6) 0.66057(4) 0.45357(6)
F11 F 0.37070(6) 0.69465(4) 0.48483(6)
F12 F 0.37462(6) 0.65757(4) 0.59075(6)
P3 P 0.91874(3) 0.61935(2) 0.89054(3)
F13 F 0.85435(9) 0.62295(5) 0.94590(8)
F14 F 0.98267(7) 0.61583(5) 0.83433(7)
F15 F 0.92839(9) 0.67221(5) 0.89237(8)
F16 F 0.97675(9) 0.61482(6) 0.95554(8)
F17 F 0.90876(9) 0.56690(5) 0.88742(8)
F18 F 0.86086(8) 0.62449(5) 0.82504(8)
P4 P 0.75796(5) 0.53241(4) 0.33014(10)
F19 F 0.81561(13) 0.55322(9) 0.27678(14)
F20 F 0.70234(11) 0.51127(7) 0.38385(14)
F21 F 0.79556(19) 0.55826(15) 0.3965(2)
F22 F 0.7057(2) 0.57364(15) 0.3185(3)
F23 F 0.71805(11) 0.50724(7) 0.26466(15)
F24 F 0.81091(12) 0.49106(8) 0.34346(19)
O1 O 0.86635(8) 0.13916(5) 0.57641(8)
N9 N 0.79240(9) 0.19969(5) 0.57867(9)
C73 C 0.81389(11) 0.15965(6) 0.59938(11)
H65 H 0.7862 0.1455 0.6352
C74 C 0.83405(12) 0.22475(7) 0.52699(12)
H66 H 0.8738 0.2407 0.5523
H67 H 0.8017 0.2460 0.5020
H68 H 0.8547 0.2044 0.4919
C75 C 0.73445(12) 0.22287(7) 0.61519(13)
H69 H 0.7112 0.2026 0.6488
H70 H 0.6978 0.2334 0.5796
H71 H 0.7553 0.2482 0.6418
O2 O 0.40577(10) 0.52282(5) 0.08328(9)
N10 N 0.36914(10) 0.46697(5) 0.15610(10)
C76 C 0.41758(13) 0.49561(7) 0.13102(12)
H72 H 0.4656 0.4949 0.1521
C77 C 0.29517(13) 0.46436(8) 0.12650(17)
H73 H 0.2859 0.4344 0.1079
H74 H 0.2889 0.4859 0.0873
H75 H 0.2605 0.4710 0.1642
C78 C 0.38838(14) 0.43674(7) 0.21406(12)
H76 H 0.4394 0.4416 0.2297
H77 H 0.3824 0.4062 0.1972
H78 H 0.3564 0.4420 0.2545
O3 O 0.19359(10) 0.52694(5) 0.97833(9)
N11 N 0.09472(12) 0.49700(6) 0.91879(12)
C79 C 0.14269(19) 0.50055(9) 0.97263(14)
H79 H 0.1374 0.4804 1.0114
C80 C 0.0309(2) 0.46743(12) 0.9180(2)
H80 H -0.0140 0.4850 0.9126
H81 H 0.0302 0.4508 0.9632
H82 H 0.0338 0.4467 0.8776
C81 C 0.09907(17) 0.52564(12) 0.8583(2)
H83 H 0.0717 0.5529 0.8673
H84 H 0.0780 0.5108 0.8155
H85 H 0.1504 0.5329 0.8503
O4 O -0.02203(9) 0.44396(5) 0.31726(9)
N12 N 0.04754(10) 0.50188(6) 0.28264(11)
C82 C 0.03177(12) 0.45893(7) 0.28874(12)
H86 H 0.0652 0.4384 0.2693
C83 C 0.00389(18) 0.53585(9) 0.3138(2)
H87 H -0.0396 0.5225 0.3344
H88 H -0.0112 0.5572 0.2765
H89 H 0.0326 0.5510 0.3517
C84 C 0.11492(19) 0.51490(11) 0.2488(2)
H90 H 0.1385 0.4887 0.2288
H91 H 0.1480 0.5287 0.2848
H92 H 0.1037 0.5361 0.2101
O5 O 0.51774(9) 0.45894(5) 0.70034(10)
N13 N 0.48999(8) 0.51747(5) 0.62915(9)
C85 C 0.47606(11) 0.48843(6) 0.68027(12)
H93 H 0.4304 0.4907 0.7030
C86 C 0.55904(12) 0.51707(8) 0.59327(14)
H94 H 0.5888 0.4921 0.6111
H95 H 0.5851 0.5449 0.6031
H96 H 0.5500 0.5139 0.5413
C87 C 0.43826(12) 0.55231(8) 0.60884(14)
H97 H 0.4597 0.5812 0.6208
H98 H 0.3930 0.5483 0.6351
H99 H 0.4273 0.5508 0.5570
F25? F 0.8184(5) 0.5095(4) 0.2898(6)
F26? F 0.6797(7) 0.5695(7) 0.3108(12)
F27? F 0.7895(10) 0.5592(6) 0.3703(6)
F28? F 0.7850(9) 0.5865(5) 0.2596(5)
F29? F 0.7190(4) 0.5284(3) 0.2208(5)
F30? F 0.7210(6) 0.5026(3) 0.3341(6)
P5? P 0.75430(18) 0.54535(16) 0.2945(3)
loop_
_geom_bond_atom_site_label_1
_geom_bond_atom_site_label_2
_geom_bond_site_symmetry_1
_geom_bond_site_symmetry_2
N1 C1 1_555 1_555
N2 C9 1_555 1_555
N3 C19 1_555 1_555
N4 C27 1_555 1_555
C1 H1 1_555 1_555
H2 C1 1_555 1_555
C2 N1 1_555 1_555
H3 C2 1_555 1_555
C3 C2 1_555 1_555
H4 C3 1_555 1_555
C4 C3 1_555 1_555
C5 C4 1_555 1_555
H5 C5 1_555 1_555
C6 N1 1_555 1_555
H6 C6 1_555 1_555
C7 C4 1_555 1_555
C8 C7 1_555 1_555
H7 C8 1_555 1_555
C9 C8 1_555 1_555
H8 C9 1_555 1_555
C10 N2 1_555 1_555
H9 C10 1_555 1_555
C11 C7 1_555 1_555
H10 C11 1_555 1_555
C12 N2 1_555 1_555
H11 C12 1_555 1_555
H12 C12 1_555 1_555
C13 C12 1_555 1_555
C14 C13 1_555 1_555
H13 C14 1_555 1_555
C15 C14 1_555 1_555
H14 C15 1_555 1_555
C16 C15 1_555 1_555
C17 C16 1_555 1_555
H15 C17 1_555 1_555
C18 C13 1_555 1_555
H16 C18 1_555 1_555
C19 C16 1_555 1_555
H17 C19 1_555 1_555
H18 C19 1_555 1_555
C20 N3 1_555 1_555
H19 C20 1_555 1_555
C21 C20 1_555 1_555
H20 C21 1_555 1_555
C22 C21 1_555 1_555
C23 C22 1_555 1_555
H21 C23 1_555 1_555
C24 N3 1_555 1_555
H22 C24 1_555 1_555
C25 C22 1_555 1_555
C26 C25 1_555 1_555
H23 C26 1_555 1_555
C27 C26 1_555 1_555
H24 C27 1_555 1_555
C28 N4 1_555 1_555
H25 C28 1_555 1_555
C29 C25 1_555 1_555
H26 C29 1_555 1_555
C30 N4 1_555 1_555
H27 C30 1_555 1_555
H28 C30 1_555 1_555
C31 C30 1_555 1_555
C32 C31 1_555 1_555
H29 C32 1_555 1_555
C33 C32 1_555 1_555
H30 C33 1_555 1_555
C34 C1 1_555 1_555
C35 C34 1_555 1_555
H31 C35 1_555 1_555
C36 C31 1_555 1_555
H32 C36 1_555 1_555
N5 C37 1_555 1_555
N6 C45 1_555 1_555
N7 C55 1_555 1_555
N8 C63 1_555 1_555
C37 H33 1_555 1_555
H34 C37 1_555 1_555
C38 N5 1_555 1_555
H35 C38 1_555 1_555
C39 C38 1_555 1_555
H36 C39 1_555 1_555
C40 C39 1_555 1_555
C41 C40 1_555 1_555
H37 C41 1_555 1_555
C42 N5 1_555 1_555
H38 C42 1_555 1_555
C43 C40 1_555 1_555
C44 C43 1_555 1_555
H39 C44 1_555 1_555
C45 C44 1_555 1_555
H40 C45 1_555 1_555
C46 N6 1_555 1_555
H41 C46 1_555 1_555
C47 C43 1_555 1_555
H42 C47 1_555 1_555
C48 N6 1_555 1_555
H43 C48 1_555 1_555
H44 C48 1_555 1_555
C49 C48 1_555 1_555
C50 C49 1_555 1_555
H45 C50 1_555 1_555
C51 C50 1_555 1_555
H46 C51 1_555 1_555
C52 C51 1_555 1_555
C53 C52 1_555 1_555
H47 C53 1_555 1_555
C54 C49 1_555 1_555
H48 C54 1_555 1_555
C55 C52 1_555 1_555
H49 C55 1_555 1_555
H50 C55 1_555 1_555
C56 N7 1_555 1_555
H51 C56 1_555 1_555
C57 C56 1_555 1_555
H52 C57 1_555 1_555
C58 C57 1_555 1_555
C59 C58 1_555 1_555
H53 C59 1_555 1_555
C60 N7 1_555 1_555
H54 C60 1_555 1_555
C61 C58 1_555 1_555
C62 C61 1_555 1_555
H55 C62 1_555 1_555
C63 C62 1_555 1_555
H56 C63 1_555 1_555
C64 N8 1_555 1_555
H57 C64 1_555 1_555
C65 C61 1_555 1_555
H58 C65 1_555 1_555
C66 N8 1_555 1_555
H59 C66 1_555 1_555
H60 C66 1_555 1_555
C67 C66 1_555 1_555
C68 C67 1_555 1_555
H61 C68 1_555 1_555
C69 C68 1_555 1_555
H62 C69 1_555 1_555
C70 C37 1_555 1_555
C71 C70 1_555 1_555
H63 C71 1_555 1_555
C72 C67 1_555 1_555
H64 C72 1_555 1_555
P1 F1 1_555 1_555
F2 P1 1_555 1_555
F3 P1 1_555 1_555
F4 P1 1_555 1_555
F5 P1 1_555 1_555
F6 P1 1_555 1_555
P2 F7 1_555 1_555
F8 P2 1_555 1_555
F9 P2 1_555 1_555
F10 P2 1_555 1_555
F11 P2 1_555 1_555
F12 P2 1_555 1_555
P3 F13 1_555 1_555
F14 P3 1_555 1_555
F15 P3 1_555 1_555
F16 P3 1_555 1_555
F17 P3 1_555 1_555
F18 P3 1_555 1_555
P4 F19 1_555 1_555
F20 P4 1_555 1_555
F21 P4 1_555 1_555
F22 P4 1_555 1_555
F23 P4 1_555 1_555
F24 P4 1_555 1_555
O1 C73 1_555 1_555
N9 C73 1_555 1_555
C73 H65 1_555 1_555
C74 N9 1_555 1_555
H66 C74 1_555 1_555
H67 C74 1_555 1_555
H68 C74 1_555 1_555
C75 N9 1_555 1_555
H69 C75 1_555 1_555
H70 C75 1_555 1_555
H71 C75 1_555 1_555
O2 C76 1_555 1_555
N10 C76 1_555 1_555
C76 H72 1_555 1_555
C77 N10 1_555 1_555
H73 C77 1_555 1_555
H74 C77 1_555 1_555
H75 C77 1_555 1_555
C78 N10 1_555 1_555
H76 C78 1_555 1_555
H77 C78 1_555 1_555
H78 C78 1_555 1_555
O3 C79 1_555 1_555
N11 C79 1_555 1_555
C79 H79 1_555 1_555
C80 N11 1_555 1_555
H80 C80 1_555 1_555
H81 C80 1_555 1_555
H82 C80 1_555 1_555
C81 N11 1_555 1_555
H83 C81 1_555 1_555
H84 C81 1_555 1_555
H85 C81 1_555 1_555
O4 C82 1_555 1_555
N12 C82 1_555 1_555
C82 H86 1_555 1_555
C83 N12 1_555 1_555
H87 C83 1_555 1_555
H88 C83 1_555 1_555
H89 C83 1_555 1_555
C84 N12 1_555 1_555
H90 C84 1_555 1_555
H91 C84 1_555 1_555
H92 C84 1_555 1_555
O5 C85 1_555 1_555
N13 C85 1_555 1_555
C85 H93 1_555 1_555
C86 N13 1_555 1_555
H94 C86 1_555 1_555
H95 C86 1_555 1_555
H96 C86 1_555 1_555
C87 N13 1_555 1_555
H97 C87 1_555 1_555
H98 C87 1_555 1_555
H99 C87 1_555 1_555
C5 C6 1_555 1_555
C10 C11 1_555 1_555
C17 C18 1_555 1_555
C23 C24 1_555 1_555
C28 C29 1_555 1_555
C33 C34 1_555 1_555
C35 C36 1_555 1_555
C41 C42 1_555 1_555
C46 C47 1_555 1_555
C53 C54 1_555 1_555
C59 C60 1_555 1_555
C64 C65 1_555 1_555
C69 C70 1_555 1_555
C71 C72 1_555 1_555

#END
