
#######################################################################
#
#                 Cambridge Crystallographic Data Centre
#                                CCDC 
#
#######################################################################
#
# If this CIF has been generated from an entry in the Cambridge 
# Structural Database, then it will include bibliographic, chemical, 
# crystal, experimental, refinement or atomic coordinate data resulting 
# from the CCDC's data processing and validation procedures.
#
#######################################################################

data_NETGIF
_chemical_formula_moiety         'C42 H69 K1 O8,2(C7 H8)'
_chemical_name_systematic        
"(2,2'-(ethane-1,1-diyl)bis(4,6-di-t-butylphenolato))-(18-crown-6)-potassium toluene solvate"
_symmetry_cell_setting           monoclinic
_symmetry_space_group_name_H-M   'P 21/c'
_symmetry_Int_Tables_number      14
_space_group_name_Hall           '-P 2ybc'
loop_
_symmetry_equiv_pos_site_id
_symmetry_equiv_pos_as_xyz
1 x,y,z
2 -x,1/2+y,1/2-z
3 -x,-y,-z
4 x,1/2-y,1/2+z
_cell_length_a                   19.5891(4)
_cell_length_b                   16.1613(2)
_cell_length_c                   18.3334(3)
_cell_angle_alpha                90
_cell_angle_beta                 105.298(2)
_cell_angle_gamma                90
_cell_volume                     5598.43
_exptl_crystal_colour            colorless
_exptl_crystal_description       block
_cell_formula_units_Z            4
_chemical_properties_physical    
', Air-sensitive,Moisture-sensitive,Oxygen-sensitive'
_exptl_crystal_recrystallization_method toluene
loop_
_atom_site_label
_atom_site_type_symbol
_atom_site_fract_x
_atom_site_fract_y
_atom_site_fract_z
K1 K 0.29147(3) 0.07605(4) 0.45449(3)
O1 O 0.32825(10) 0.13846(13) 0.33502(10)
O2 O 0.21350(10) 0.11611(14) 0.23621(11)
H1 H 0.2545 0.1228 0.2612
O3 O 0.33071(19) -0.09668(17) 0.46184(19)
O4 O 0.39879(13) 0.00908(18) 0.57797(15)
O5 O 0.36413(15) 0.17553(17) 0.58297(14)
O6 O 0.23045(17) 0.21819(17) 0.50019(17)
O7 O 0.15113(14) 0.1096(2) 0.38964(15)
O8 O 0.19351(19) -0.05670(19) 0.39376(14)
C1 C 0.38116(14) 0.13695(17) 0.30238(14)
C2 C 0.43462(14) 0.19879(16) 0.31492(14)
C3 C 0.48738(14) 0.19276(17) 0.27674(15)
H2 H 0.5227 0.2329 0.2861
C4 C 0.49027(14) 0.13011(17) 0.22536(16)
C5 C 0.43786(14) 0.06981(16) 0.21425(16)
H3 H 0.4385 0.0268 0.1807
C6 C 0.38469(14) 0.07169(16) 0.25144(15)
C7 C 0.32806(14) 0.00445(16) 0.23809(16)
H4 H 0.3070 0.0074 0.2809
C8 C 0.26791(14) 0.02075(16) 0.16739(16)
C9 C 0.21297(14) 0.07511(16) 0.17189(15)
C10 C 0.15451(14) 0.08652(17) 0.10822(15)
C11 C 0.15468(15) 0.04553(18) 0.04181(15)
H5 H 0.1160 0.0523 0.0001
C12 C 0.20989(16) -0.00525(18) 0.03435(16)
C13 C 0.26585(15) -0.01687(18) 0.09867(17)
H6 H 0.3032 -0.0510 0.0955
C14 C 0.35931(17) -0.08282(18) 0.2398(2)
H7 H 0.3812 -0.0887 0.1990
H8 H 0.3222 -0.1230 0.2343
H9 H 0.3940 -0.0913 0.2870
C15 C 0.43349(16) 0.27118(18) 0.36924(16)
C16 C 0.36478(19) 0.3212(2) 0.34064(19)
H10 H 0.3637 0.3454 0.2925
H11 H 0.3630 0.3641 0.3763
H12 H 0.3248 0.2852 0.3353
C17 C 0.43694(19) 0.2377(2) 0.44869(17)
H13 H 0.3964 0.2034 0.4465
H14 H 0.4373 0.2831 0.4825
H15 H 0.4793 0.2056 0.4667
C18 C 0.4957(2) 0.3306(2) 0.37702(19)
H16 H 0.5394 0.3006 0.3942
H17 H 0.4935 0.3730 0.4129
H18 H 0.4934 0.3554 0.3288
C19 C 0.55023(17) 0.1249(2) 0.18584(19)
C20 C 0.6098(3) 0.0763(6) 0.2317(4)
H19 H 0.6334 0.1075 0.2757
H20 H 0.6424 0.0642 0.2023
H21 H 0.5923 0.0255 0.2471
C21 C 0.5712(4) 0.2098(3) 0.1646(4)
H22 H 0.5294 0.2411 0.1415
H23 H 0.5997 0.2043 0.1296
H24 H 0.5977 0.2380 0.2092
C22 C 0.5255(3) 0.0800(4) 0.1089(3)
H25 H 0.5189 0.0222 0.1172
H26 H 0.5607 0.0863 0.0814
H27 H 0.4816 0.1035 0.0802
C23 C 0.09243(15) 0.1439(2) 0.11221(17)
C24 C 0.11845(19) 0.2329(2) 0.1281(2)
H28 H 0.1413 0.2502 0.0903
H29 H 0.1515 0.2357 0.1771
H30 H 0.0789 0.2685 0.1269
C25 C 0.05894(17) 0.1147(2) 0.17473(19)
H31 H 0.0919 0.1227 0.2232
H32 H 0.0472 0.0571 0.1678
H33 H 0.0168 0.1461 0.1722
C26 C 0.03360(18) 0.1437(3) 0.03801(19)
H34 H 0.0166 0.0882 0.0265
H35 H 0.0520 0.1642 -0.0021
H36 H -0.0046 0.1784 0.0432
C27 C 0.2099(2) -0.0479(2) -0.04041(19)
C28 C 0.1450(4) -0.0193(4) -0.1060(3)
H37 H 0.1020 -0.0282 -0.0913
H38 H 0.1437 -0.0506 -0.1509
H39 H 0.1496 0.0385 -0.1160
C29 C 0.1986(6) -0.1389(4) -0.0337(4)
H40 H 0.2331 -0.1603 0.0095
H41 H 0.2034 -0.1664 -0.0785
H42 H 0.1519 -0.1485 -0.0279
C30 C 0.2747(4) -0.0275(8) -0.0618(4)
H43 H 0.2823 0.0312 -0.0582
H44 H 0.2703 -0.0451 -0.1129
H45 H 0.3142 -0.0552 -0.0285
C31 C 0.3777(3) -0.1265(3) 0.5277(3)
H46 H 0.4000 -0.1770 0.5167
H47 H 0.3524 -0.1390 0.5653
C32 C 0.4321(2) -0.0629(3) 0.5570(3)
H48 H 0.4672 -0.0841 0.6006
H49 H 0.4558 -0.0485 0.5185
C33 C 0.4485(2) 0.0670(3) 0.6179(2)
H50 H 0.4752 0.0898 0.5850
H51 H 0.4813 0.0402 0.6603
C34 C 0.4107(2) 0.1325(3) 0.6449(2)
H52 H 0.3835 0.1090 0.6770
H53 H 0.4445 0.1712 0.6750
C35 C 0.3288(3) 0.2414(3) 0.6068(3)
H54 H 0.3627 0.2814 0.6346
H55 H 0.3009 0.2213 0.6396
C36 C 0.2831(2) 0.2795(2) 0.5396(3)
H56 H 0.3112 0.2982 0.5064
H57 H 0.2593 0.3271 0.5539
C37 C 0.1806(3) 0.2474(4) 0.4385(3)
H58 H 0.2020 0.2578 0.3974
H59 H 0.1610 0.2990 0.4511
C38 C 0.1243(3) 0.1855(4) 0.4153(3)
H60 H 0.1049 0.1730 0.4577
H61 H 0.0864 0.2079 0.3748
C39 C 0.1024(2) 0.0474(4) 0.3723(2)
H62 H 0.0597 0.0672 0.3368
H63 H 0.0903 0.0290 0.4177
C40 C 0.1322(3) -0.0217(4) 0.3390(2)
H64 H 0.0965 -0.0642 0.3226
H65 H 0.1463 -0.0024 0.2950
C41 C 0.2229(3) -0.1195(3) 0.3636(3)
H66 H 0.2437 -0.0988 0.3246
H67 H 0.1873 -0.1604 0.3413
C42 C 0.2792(3) -0.1573(3) 0.4273(4)
H68 H 0.2575 -0.1798 0.4648
H69 H 0.3021 -0.2023 0.4079
C46 C 0.9220(5) 0.3736(6) 0.9810(5)
H79 H 0.8885 0.3420 0.9993
H80 H 0.9553 0.3992 1.0229
H81 H 0.9467 0.3377 0.9550
C47 C 0.8835(3) 0.4397(4) 0.9274(3)
C48 C 0.8140(2) 0.4597(3) 0.9250(2)
H82 H 0.7923 0.4331 0.9578
C49 C 0.7770(3) 0.5167(4) 0.8763(3)
H83 H 0.7306 0.5283 0.8769
C50 C 0.8054(5) 0.5573(4) 0.8268(4)
H84 H 0.7789 0.5959 0.7934
C51 C 0.8709(6) 0.5413(5) 0.8270(6)
H85 H 0.8907 0.5694 0.7933
C52 C 0.9110(3) 0.4847(6) 0.8750(6)
H86 H 0.9575 0.4754 0.8733
C53 C 0.7951(5) 0.1989(8) 0.2774(7)
H87 H 0.7693 0.2124 0.3136
H88 H 0.8059 0.1409 0.2803
H89 H 0.7670 0.2122 0.2275
C54 C 0.8499(3) 0.3101(4) 0.3362(2)
H90 H 0.8106 0.3183 0.3548
C55 C 0.9052(4) 0.3668(3) 0.35253(17)
H91 H 0.9029 0.4130 0.3820
C56 C 0.9639(3) 0.3546(2) 0.3248(2)
H92 H 1.0009 0.3926 0.3357
C57 C 0.96743(18) 0.2856(3) 0.2807(2)
H93 H 1.0067 0.2774 0.2621
C58 C 0.9122(2) 0.2288(2) 0.26435(16)
H94 H 0.9145 0.1826 0.2348
C59 C 0.85343(18) 0.2410(3) 0.2921(2)
C43? C 0.2858(10) -0.1038(12) -0.0313(10)
H70? H 0.3257 -0.0671 -0.0203
H71? H 0.2834 -0.1328 -0.0776
H72? H 0.2908 -0.1430 0.0092
C44? C 0.2084(11) 0.0135(11) -0.1013(8)
H73? H 0.1670 0.0476 -0.1084
H74? H 0.2072 -0.0150 -0.1476
H75? H 0.2500 0.0476 -0.0873
C45? C 0.1527(10) -0.1072(13) -0.0632(10)
H76? H 0.1595 -0.1511 -0.0267
H77? H 0.1522 -0.1295 -0.1118
H78? H 0.1084 -0.0801 -0.0660
loop_
_geom_bond_atom_site_label_1
_geom_bond_atom_site_label_2
_geom_bond_site_symmetry_1
_geom_bond_site_symmetry_2
K1 O1 1_555 1_555
O1 C1 1_555 1_555
O2 H1 1_555 1_555
O3 K1 1_555 1_555
O4 K1 1_555 1_555
O5 K1 1_555 1_555
O6 K1 1_555 1_555
O7 K1 1_555 1_555
O8 K1 1_555 1_555
C1 C2 1_555 1_555
C2 C3 1_555 1_555
C3 H2 1_555 1_555
C4 C3 1_555 1_555
C5 C4 1_555 1_555
H3 C5 1_555 1_555
C6 C1 1_555 1_555
C7 C6 1_555 1_555
H4 C7 1_555 1_555
C8 C7 1_555 1_555
C9 O2 1_555 1_555
C10 C9 1_555 1_555
C11 C10 1_555 1_555
H5 C11 1_555 1_555
C12 C11 1_555 1_555
C13 C8 1_555 1_555
H6 C13 1_555 1_555
C14 C7 1_555 1_555
H7 C14 1_555 1_555
H8 C14 1_555 1_555
H9 C14 1_555 1_555
C15 C2 1_555 1_555
C16 C15 1_555 1_555
H10 C16 1_555 1_555
H11 C16 1_555 1_555
H12 C16 1_555 1_555
C17 C15 1_555 1_555
H13 C17 1_555 1_555
H14 C17 1_555 1_555
H15 C17 1_555 1_555
C18 C15 1_555 1_555
H16 C18 1_555 1_555
H17 C18 1_555 1_555
H18 C18 1_555 1_555
C19 C4 1_555 1_555
C20 C19 1_555 1_555
H19 C20 1_555 1_555
H20 C20 1_555 1_555
H21 C20 1_555 1_555
C21 C19 1_555 1_555
H22 C21 1_555 1_555
H23 C21 1_555 1_555
H24 C21 1_555 1_555
C22 C19 1_555 1_555
H25 C22 1_555 1_555
H26 C22 1_555 1_555
H27 C22 1_555 1_555
C23 C10 1_555 1_555
C24 C23 1_555 1_555
H28 C24 1_555 1_555
H29 C24 1_555 1_555
H30 C24 1_555 1_555
C25 C23 1_555 1_555
H31 C25 1_555 1_555
H32 C25 1_555 1_555
H33 C25 1_555 1_555
C26 C23 1_555 1_555
H34 C26 1_555 1_555
H35 C26 1_555 1_555
H36 C26 1_555 1_555
C27 C12 1_555 1_555
C28 C27 1_555 1_555
H37 C28 1_555 1_555
H38 C28 1_555 1_555
H39 C28 1_555 1_555
C29 C27 1_555 1_555
H40 C29 1_555 1_555
H41 C29 1_555 1_555
H42 C29 1_555 1_555
C30 C27 1_555 1_555
H43 C30 1_555 1_555
H44 C30 1_555 1_555
H45 C30 1_555 1_555
C31 O3 1_555 1_555
H46 C31 1_555 1_555
H47 C31 1_555 1_555
C32 O4 1_555 1_555
H48 C32 1_555 1_555
H49 C32 1_555 1_555
C33 O4 1_555 1_555
H50 C33 1_555 1_555
H51 C33 1_555 1_555
C34 O5 1_555 1_555
H52 C34 1_555 1_555
H53 C34 1_555 1_555
C35 O5 1_555 1_555
H54 C35 1_555 1_555
H55 C35 1_555 1_555
C36 O6 1_555 1_555
H56 C36 1_555 1_555
H57 C36 1_555 1_555
C37 O6 1_555 1_555
H58 C37 1_555 1_555
H59 C37 1_555 1_555
C38 O7 1_555 1_555
H60 C38 1_555 1_555
H61 C38 1_555 1_555
C39 O7 1_555 1_555
H62 C39 1_555 1_555
H63 C39 1_555 1_555
C40 O8 1_555 1_555
H64 C40 1_555 1_555
H65 C40 1_555 1_555
C41 O8 1_555 1_555
H66 C41 1_555 1_555
H67 C41 1_555 1_555
C42 O3 1_555 1_555
H68 C42 1_555 1_555
H69 C42 1_555 1_555
C46 H79 1_555 1_555
H80 C46 1_555 1_555
H81 C46 1_555 1_555
C47 C46 1_555 1_555
C48 C47 1_555 1_555
H82 C48 1_555 1_555
C49 C48 1_555 1_555
H83 C49 1_555 1_555
C50 C49 1_555 1_555
H84 C50 1_555 1_555
C51 C50 1_555 1_555
H85 C51 1_555 1_555
C52 C47 1_555 1_555
H86 C52 1_555 1_555
C53 H87 1_555 1_555
H88 C53 1_555 1_555
H89 C53 1_555 1_555
C54 H90 1_555 1_555
C55 C54 1_555 1_555
H91 C55 1_555 1_555
C56 C55 1_555 1_555
H92 C56 1_555 1_555
C57 C56 1_555 1_555
H93 C57 1_555 1_555
C58 C57 1_555 1_555
H94 C58 1_555 1_555
C59 C53 1_555 1_555
C5 C6 1_555 1_555
C8 C9 1_555 1_555
C12 C13 1_555 1_555
C31 C32 1_555 1_555
C33 C34 1_555 1_555
C35 C36 1_555 1_555
C37 C38 1_555 1_555
C39 C40 1_555 1_555
C41 C42 1_555 1_555
C51 C52 1_555 1_555
C54 C59 1_555 1_555
C58 C59 1_555 1_555

#END
