
#######################################################################
#
#                 Cambridge Crystallographic Data Centre
#                                CCDC 
#
#######################################################################
#
# If this CIF has been generated from an entry in the Cambridge 
# Structural Database, then it will include bibliographic, chemical, 
# crystal, experimental, refinement or atomic coordinate data resulting 
# from the CCDC's data processing and validation procedures.
#
#######################################################################

data_NETROT
_chemical_compound_source        'yeasts and fungi'
_chemical_name_common            'D-Erythroascorbic acid'
_chemical_formula_moiety         'C5 H6 O5'
_chemical_name_systematic        D-Glycero-2-pentenono-1,4-lactone
_symmetry_cell_setting           orthorhombic
_symmetry_space_group_name_H-M   'P 21 21 21'
_symmetry_Int_Tables_number      19
_space_group_name_Hall           'P 2ac 2ab'
loop_
_symmetry_equiv_pos_site_id
_symmetry_equiv_pos_as_xyz
1 x,y,z
2 1/2-x,-y,1/2+z
3 1/2+x,1/2-y,-z
4 -x,1/2+y,1/2-z
_cell_length_a                   9.7442(6)
_cell_length_b                   14.844(2)
_cell_length_c                   8.4775(9)
_cell_angle_alpha                90
_cell_angle_beta                 90
_cell_angle_gamma                90
_cell_volume                     1226.21
_cell_formula_units_Z            8
loop_
_atom_site_label
_atom_site_type_symbol
_atom_site_fract_x
_atom_site_fract_y
_atom_site_fract_z
O1 O 1.1199(5) 0.7627(3) 1.359(5)
O2 O 1.0631(5) 0.7847(3) 1.7036(5)
O3 O 1.1560(4) 0.6082(3) 1.8418(5)
O4 O 1.1834(4) 0.6243(3) 1.4233(5)
O5 O 0.9668(4) 0.5082(3) 1.5614(5)
C1 C 1.1378(7) 0.7059(4) 1.4613(7)
C2 C 1.1160(6) 0.7140(4) 1.6282(7)
C3 C 1.1545(5) 0.6350(4) 1.6927(6)
C4 C 1.1972(6) 0.5708(4) 1.5684(8)
C5 C 1.1097(7) 0.4874(4) 1.5580(8)
H1 H 1.087(7) 0.844(5) 1.673(8)
H2 H 1.106(6) 0.664(4) 1.905(7)
H3 H 1.292(5) 0.554(3) 1.580(5)
H4 H 1.143(8) 0.456(5) 1.45(1)
H5 H 1.122(6) 0.452(4) 1.653(8)
H6 H 0.921(6) 0.500(4) 1.680(7)
O6 O 0.9215(5) 0.4593(3) 0.8707(5)
O7 O 0.9617(5) 0.4353(3) 1.2146(5)
O8 O 0.8644(4) 0.6168(3) 1.3486(5)
O9 O 0.8466(4) 0.5960(3) 0.9305(5)
O10 O 1.0531(4) 0.7159(2) 1.0564(5)
C6 C 0.8952(6) 0.5150(4) 0.9701(7)
C7 C 0.9058(6) 0.5077(4) 1.1375(7)
C8 C 0.8672(5) 0.5865(4) 1.2006(6)
C9 C 0.8255(7) 0.6489(4) 1.0711(8)
C10 C 0.9088(8) 0.7354(4) 1.0570(9)
H7 H 0.959(7) 0.380(5) 1.181(9)
H8 H 0.94(1) 0.571(6) 1.41(1)
H9 H 0.738(6) 0.665(3) 1.085(7)
H10 H 0.878(6) 0.767(4) 0.944(8)
H11 H 0.94(1) 0.779(7) 1.13(1)
H12 H 1.03(1) 0.727(8) 1.21(2)
loop_
_geom_bond_atom_site_label_1
_geom_bond_atom_site_label_2
_geom_bond_site_symmetry_1
_geom_bond_site_symmetry_2
O1 C1 1_555 1_555
O2 C2 1_555 1_555
O3 C3 1_555 1_555
O4 C1 1_555 1_555
O5 C5 1_555 1_555
C1 C2 1_555 1_555
C2 C3 1_555 1_555
C3 C4 1_555 1_555
C4 O4 1_555 1_555
C5 C4 1_555 1_555
H1 O2 1_555 1_555
H2 O3 1_555 1_555
H3 C4 1_555 1_555
H4 C5 1_555 1_555
H5 C5 1_555 1_555
H6 O5 1_555 1_555
O6 C6 1_555 1_555
O7 C7 1_555 1_555
O8 C8 1_555 1_555
O9 C6 1_555 1_555
O10 C10 1_555 1_555
C6 C7 1_555 1_555
C7 C8 1_555 1_555
C8 C9 1_555 1_555
C9 O9 1_555 1_555
C10 C9 1_555 1_555
H7 O7 1_555 1_555
H8 O8 1_555 1_555
H9 C9 1_555 1_555
H10 C10 1_555 1_555
H11 C10 1_555 1_555
H12 O10 1_555 1_555

#END
