
#######################################################################
#
#                 Cambridge Crystallographic Data Centre
#                                CCDC 
#
#######################################################################
#
# If this CIF has been generated from an entry in the Cambridge 
# Structural Database, then it will include bibliographic, chemical, 
# crystal, experimental, refinement or atomic coordinate data resulting 
# from the CCDC's data processing and validation procedures.
#
#######################################################################

data_NEVFIG
_chemical_formula_moiety         'C44 H36 N6 O4'
_chemical_name_systematic        
'diethyl 2^3^,3^4^-diphenyl-1^5^,4^5^-bis[(1H-pyrrol-2-yl)methylidene]-1^5^H,2^1^H,3^1^H,4^5^H-[1^2^,2^2^:2^5^,3^2^:3^5^,4^2^-quaterpyrrole]-2^4^,3^3^-dicarboxylate'
_symmetry_cell_setting           triclinic
_symmetry_space_group_name_H-M   'P -1'
_symmetry_Int_Tables_number      2
_space_group_name_Hall           '-P 1'
loop_
_symmetry_equiv_pos_site_id
_symmetry_equiv_pos_as_xyz
1 x,y,z
2 -x,-y,-z
_cell_length_a                   5.4494(5)
_cell_length_b                   15.3174(15)
_cell_length_c                   22.166(2)
_cell_angle_alpha                69.901(9)
_cell_angle_beta                 88.565(8)
_cell_angle_gamma                87.799(8)
_cell_volume                     1736.11
_exptl_crystal_colour            red
_exptl_crystal_description       lath
_cell_formula_units_Z            2
_exptl_crystal_recrystallization_method 
'slow evaporation dichloromethane/hexanes'
loop_
_atom_site_label
_atom_site_type_symbol
_atom_site_fract_x
_atom_site_fract_y
_atom_site_fract_z
C1 C 0.0870(3) 0.52931(11) 0.97725(7)
C2 C 0.1316(3) 0.62633(11) 0.95540(7)
C3 C 0.3210(3) 0.64263(11) 0.90695(7)
C4 C 0.3906(3) 0.55658(11) 0.90327(7)
C5 C 0.5838(3) 0.52730(11) 0.86754(7)
C6 C 0.7821(3) 0.58268(11) 0.82889(8)
H1 H 0.8056 0.6471 0.8197
C7 C 0.9246(3) 0.52345(12) 0.80902(8)
H2 H 1.0685 0.5381 0.7829
C8 C 0.8148(3) 0.43315(11) 0.83546(7)
C9 C 0.8986(3) 0.35156(12) 0.82890(8)
H3 H 1.0452 0.3535 0.8044
C10 C 0.7853(3) 0.26391(11) 0.85552(8)
C11 C 0.8567(3) 0.17697(12) 0.85190(8)
H4 H 0.9990 0.1635 0.8306
C12 C 0.6792(3) 0.11340(12) 0.88544(8)
H5 H 0.6805 0.0490 0.8913
C13 C 0.5029(3) 0.16160(12) 0.90829(8)
H6 H 0.3601 0.1361 0.9324
C14 C 0.0229(3) 0.69712(11) 0.97963(7)
C15 C 0.0397(3) 0.85457(11) 0.97333(8)
H7 H 0.0600 0.8368 1.0203
H8 H -0.1364 0.8690 0.9633
C16 C 0.1913(3) 0.93805(11) 0.93825(9)
H9 H 0.3646 0.9232 0.9493
H10 H 0.1353 0.9909 0.9509
H11 H 0.1722 0.9541 0.8918
C17 C 0.4151(3) 0.73064(11) 0.86061(8)
C18 C 0.5769(3) 0.78621(11) 0.87773(8)
H12 H 0.6154 0.7724 0.9217
C19 C 0.6829(3) 0.86196(12) 0.83097(9)
H13 H 0.7956 0.8985 0.8431
C20 C 0.6243(3) 0.88393(12) 0.76705(9)
H14 H 0.6963 0.9355 0.7353
C21 C 0.4588(3) 0.82990(12) 0.74940(8)
H15 H 0.4163 0.8452 0.7056
C22 C 0.3560(3) 0.75355(12) 0.79599(8)
H16 H 0.2446 0.7167 0.7837
N1 N 0.2480(2) 0.49104(9) 0.94546(6)
N2 N 0.6033(2) 0.43937(9) 0.87111(6)
N3 N 0.5682(3) 0.25154(10) 0.89057(7)
O1 O -0.1405(2) 0.68717(8) 1.02022(5)
O2 O 0.1266(2) 0.77980(8) 0.95183(6)
H17 H 0.488(4) 0.2967(16) 0.9020(11)
H18 H 0.249(4) 0.4269(16) 0.9520(10)
C1A C -0.0870(3) 0.47069(11) 1.02275(7)
C2A C -0.1316(3) 0.37367(11) 1.04460(7)
C3A C -0.3210(3) 0.35737(11) 1.09305(7)
C4A C -0.3906(3) 0.44342(11) 1.09673(7)
C5A C -0.5838(3) 0.47270(11) 1.13246(7)
C6A C -0.7821(3) 0.41732(11) 1.17111(8)
H1A H -0.8056 0.3529 1.1803
C7A C -0.9246(3) 0.47655(12) 1.19098(8)
H2A H -1.0685 0.4619 1.2171
C8A C -0.8148(3) 0.56685(11) 1.16454(7)
C9A C -0.8986(3) 0.64844(12) 1.17110(8)
H3A H -1.0452 0.6465 1.1956
C10A C -0.7853(3) 0.73609(11) 1.14448(8)
C11A C -0.8567(3) 0.82303(12) 1.14810(8)
H4A H -0.9990 0.8365 1.1694
C12A C -0.6792(3) 0.88660(12) 1.11456(8)
H5A H -0.6805 0.9510 1.1087
C13A C -0.5029(3) 0.83840(12) 1.09171(8)
H6A H -0.3601 0.8639 1.0676
C14A C -0.0229(3) 0.30288(11) 1.02037(7)
C15A C -0.0397(3) 0.14543(11) 1.02667(8)
H7A H -0.0600 0.1632 0.9797
H8A H 0.1364 0.1310 1.0367
C16A C -0.1913(3) 0.06195(11) 1.06175(9)
H9A H -0.3646 0.0768 1.0507
H10A H -0.1353 0.0091 1.0491
H11A H -0.1722 0.0459 1.1082
C17A C -0.4151(3) 0.26936(11) 1.13939(8)
C18A C -0.5769(3) 0.21379(11) 1.12227(8)
H12A H -0.6154 0.2276 1.0783
C19A C -0.6829(3) 0.13804(12) 1.16903(9)
H13A H -0.7956 0.1015 1.1569
C20A C -0.6243(3) 0.11607(12) 1.23295(9)
H14A H -0.6963 0.0645 1.2647
C21A C -0.4588(3) 0.17010(12) 1.25060(8)
H15A H -0.4163 0.1548 1.2944
C22A C -0.3560(3) 0.24645(12) 1.20401(8)
H16A H -0.2446 0.2833 1.2163
N1A N -0.2480(2) 0.50896(9) 1.05454(6)
N2A N -0.6033(2) 0.56063(9) 1.12889(6)
N3A N -0.5682(3) 0.74846(10) 1.10943(7)
O1A O 0.1405(2) 0.31283(8) 0.97978(5)
O2A O -0.1266(2) 0.22020(8) 1.04817(6)
H17A H -0.488(4) 0.7033(16) 1.0980(11)
H18A H -0.249(4) 0.5731(16) 1.0480(10)
C23 C 0.5834(3) 0.52325(11) 0.51459(7)
C24 C 0.6165(3) 0.61793(11) 0.50786(7)
C25 C 0.8020(3) 0.61806(11) 0.55274(7)
C26 C 0.8807(3) 0.52621(11) 0.58216(7)
C27 C 1.0717(3) 0.48261(11) 0.62791(7)
C28 C 1.2623(3) 0.52686(11) 0.65179(8)
H19 H 1.2807 0.5916 0.6426
C29 C 1.4063(3) 0.45656(12) 0.68957(8)
H20 H 1.5469 0.4621 0.7123
C30 C 1.3040(3) 0.37044(11) 0.68869(7)
C31 C 1.3870(3) 0.28151(12) 0.72025(8)
H21 H 1.5335 0.2736 0.7442
C32 C 1.2718(3) 0.19939(12) 0.72024(8)
C33 C 1.3340(3) 0.10612(12) 0.75305(8)
H22 H 1.4734 0.0833 0.7794
C34 C 1.1535(3) 0.05172(12) 0.74020(8)
H23 H 1.1485 -0.0142 0.7562
C35 C 0.9851(3) 0.11248(12) 0.69992(9)
H24 H 0.8424 0.0954 0.6834
C36 C 0.4998(3) 0.70109(11) 0.46198(7)
C37 C 0.5036(3) 0.86554(11) 0.41875(8)
H25 H 0.3236 0.8724 0.4238
H26 H 0.5401 0.8669 0.3745
C38 C 0.6318(4) 0.94319(12) 0.43154(10)
H27 H 0.6095 0.9369 0.4768
H28 H 0.5614 1.0033 0.4044
H29 H 0.8074 0.9397 0.4217
C39 C 0.8813(3) 0.69413(11) 0.57458(8)
C40 C 1.0191(3) 0.76830(12) 0.53654(8)
H30 H 1.0658 0.7719 0.4942
C41 C 1.0893(3) 0.83710(13) 0.55974(9)
H31 H 1.1830 0.8872 0.5331
C42 C 1.0233(4) 0.83298(13) 0.62153(9)
H32 H 1.0680 0.8807 0.6370
C43 C 0.8912(3) 0.75819(13) 0.66037(9)
H33 H 0.8493 0.7539 0.7031
C44 C 0.8197(3) 0.68956(12) 0.63735(8)
H34 H 0.7281 0.6390 0.6644
N4 N 0.7464(2) 0.47192(9) 0.55836(6)
N5 N 1.0960(2) 0.39087(10) 0.64995(6)
N6 N 1.0579(3) 0.20070(10) 0.68797(7)
O3 O 0.3383(2) 0.70417(8) 0.42390(6)
O4 O 0.5946(2) 0.77943(8) 0.46483(6)
H35 H 0.978(5) 0.2565(19) 0.6644(13)
H36 H 0.754(5) 0.4084(19) 0.5714(12)
C23A C 0.4166(3) 0.47675(11) 0.48541(7)
C24A C 0.3835(3) 0.38207(11) 0.49214(7)
C25A C 0.1980(3) 0.38194(11) 0.44726(7)
C26A C 0.1193(3) 0.47379(11) 0.41784(7)
C27A C -0.0717(3) 0.51739(11) 0.37209(7)
C28A C -0.2623(3) 0.47314(11) 0.34821(8)
H19A H -0.2807 0.4084 0.3574
C29A C -0.4063(3) 0.54344(12) 0.31043(8)
H20A H -0.5469 0.5379 0.2877
C30A C -0.3040(3) 0.62956(11) 0.31131(7)
C31A C -0.3870(3) 0.71849(12) 0.27975(8)
H21A H -0.5335 0.7264 0.2558
C32A C -0.2718(3) 0.80061(12) 0.27976(8)
C33A C -0.3340(3) 0.89388(12) 0.24695(8)
H22A H -0.4734 0.9167 0.2206
C34A C -0.1535(3) 0.94828(12) 0.25980(8)
H23A H -0.1485 1.0142 0.2438
C35A C 0.0149(3) 0.88752(12) 0.30008(9)
H24A H 0.1576 0.9046 0.3166
C36A C 0.5002(3) 0.29891(11) 0.53802(7)
C37A C 0.4964(3) 0.13446(11) 0.58125(8)
H25A H 0.6764 0.1276 0.5762
H26A H 0.4599 0.1331 0.6255
C38A C 0.3682(4) 0.05681(12) 0.56846(10)
H27A H 0.3905 0.0631 0.5232
H28A H 0.4386 -0.0033 0.5956
H29A H 0.1926 0.0603 0.5783
C39A C 0.1187(3) 0.30587(11) 0.42542(8)
C40A C -0.0191(3) 0.23170(12) 0.46346(8)
H30A H -0.0658 0.2281 0.5058
C41A C -0.0893(3) 0.16290(13) 0.44026(9)
H31A H -0.1830 0.1128 0.4669
C42A C -0.0233(4) 0.16702(13) 0.37847(9)
H32A H -0.0680 0.1193 0.3630
C43A C 0.1088(3) 0.24181(13) 0.33963(9)
H33A H 0.1507 0.2461 0.2969
C44A C 0.1803(3) 0.31044(12) 0.36265(8)
H34A H 0.2719 0.3610 0.3356
N4A N 0.2536(2) 0.52808(9) 0.44164(6)
N5A N -0.0960(2) 0.60913(10) 0.35005(6)
N6A N -0.0579(3) 0.79930(10) 0.31203(7)
O3A O 0.6617(2) 0.29583(8) 0.57610(6)
O4A O 0.4054(2) 0.22057(8) 0.53517(6)
H35A H 0.022(5) 0.7435(19) 0.3356(13)
H36A H 0.246(5) 0.5916(19) 0.4286(12)
loop_
_geom_bond_atom_site_label_1
_geom_bond_atom_site_label_2
_geom_bond_site_symmetry_1
_geom_bond_site_symmetry_2
C1 C2 1_555 1_555
C2 C3 1_555 1_555
C3 C4 1_555 1_555
C4 C5 1_555 1_555
C5 C6 1_555 1_555
C6 H1 1_555 1_555
C7 C6 1_555 1_555
H2 C7 1_555 1_555
C8 C7 1_555 1_555
C9 C8 1_555 1_555
H3 C9 1_555 1_555
C10 C9 1_555 1_555
C11 C10 1_555 1_555
H4 C11 1_555 1_555
C12 C11 1_555 1_555
H5 C12 1_555 1_555
C13 C12 1_555 1_555
H6 C13 1_555 1_555
C14 C2 1_555 1_555
C15 H7 1_555 1_555
H8 C15 1_555 1_555
C16 C15 1_555 1_555
H9 C16 1_555 1_555
H10 C16 1_555 1_555
H11 C16 1_555 1_555
C17 C3 1_555 1_555
C18 C17 1_555 1_555
H12 C18 1_555 1_555
C19 C18 1_555 1_555
H13 C19 1_555 1_555
C20 C19 1_555 1_555
H14 C20 1_555 1_555
C21 C20 1_555 1_555
H15 C21 1_555 1_555
C22 C17 1_555 1_555
H16 C22 1_555 1_555
N1 C1 1_555 1_555
N2 C5 1_555 1_555
N3 C10 1_555 1_555
O1 C14 1_555 1_555
O2 C14 1_555 1_555
H17 N3 1_555 1_555
H18 N1 1_555 1_555
C23 C24 1_555 1_555
C24 C25 1_555 1_555
C25 C26 1_555 1_555
C26 C27 1_555 1_555
C27 C28 1_555 1_555
C28 H19 1_555 1_555
C29 C28 1_555 1_555
H20 C29 1_555 1_555
C30 C29 1_555 1_555
C31 C30 1_555 1_555
H21 C31 1_555 1_555
C32 C31 1_555 1_555
C33 C32 1_555 1_555
H22 C33 1_555 1_555
C34 C33 1_555 1_555
H23 C34 1_555 1_555
C35 C34 1_555 1_555
H24 C35 1_555 1_555
C36 C24 1_555 1_555
C37 H25 1_555 1_555
H26 C37 1_555 1_555
C38 C37 1_555 1_555
H27 C38 1_555 1_555
H28 C38 1_555 1_555
H29 C38 1_555 1_555
C39 C25 1_555 1_555
C40 C39 1_555 1_555
H30 C40 1_555 1_555
C41 C40 1_555 1_555
H31 C41 1_555 1_555
C42 C41 1_555 1_555
H32 C42 1_555 1_555
C43 C42 1_555 1_555
H33 C43 1_555 1_555
C44 C39 1_555 1_555
H34 C44 1_555 1_555
N4 C23 1_555 1_555
N5 C27 1_555 1_555
N6 C32 1_555 1_555
O3 C36 1_555 1_555
O4 C36 1_555 1_555
H35 N6 1_555 1_555
H36 N4 1_555 1_555
C1A C1 1_555 1_555
C2A C1A 1_555 1_555
C3A C2A 1_555 1_555
C4A C3A 1_555 1_555
C5A C4A 1_555 1_555
C6A C5A 1_555 1_555
H1A C6A 1_555 1_555
C7A C6A 1_555 1_555
H2A C7A 1_555 1_555
C8A C7A 1_555 1_555
C9A C8A 1_555 1_555
H3A C9A 1_555 1_555
C10A C9A 1_555 1_555
C11A C10A 1_555 1_555
H4A C11A 1_555 1_555
C12A C11A 1_555 1_555
H5A C12A 1_555 1_555
C13A C12A 1_555 1_555
H6A C13A 1_555 1_555
C14A C2A 1_555 1_555
C15A H7A 1_555 1_555
H8A C15A 1_555 1_555
C16A C15A 1_555 1_555
H9A C16A 1_555 1_555
H10A C16A 1_555 1_555
H11A C16A 1_555 1_555
C17A C3A 1_555 1_555
C18A C17A 1_555 1_555
H12A C18A 1_555 1_555
C19A C18A 1_555 1_555
H13A C19A 1_555 1_555
C20A C19A 1_555 1_555
H14A C20A 1_555 1_555
C21A C20A 1_555 1_555
H15A C21A 1_555 1_555
C22A C17A 1_555 1_555
H16A C22A 1_555 1_555
N1A C1A 1_555 1_555
N2A C5A 1_555 1_555
N3A C10A 1_555 1_555
O1A C14A 1_555 1_555
O2A C14A 1_555 1_555
H17A N3A 1_555 1_555
H18A N1A 1_555 1_555
C23A C23 1_555 1_555
C24A C23A 1_555 1_555
C25A C24A 1_555 1_555
C26A C25A 1_555 1_555
C27A C26A 1_555 1_555
C28A C27A 1_555 1_555
H19A C28A 1_555 1_555
C29A C28A 1_555 1_555
H20A C29A 1_555 1_555
C30A C29A 1_555 1_555
C31A C30A 1_555 1_555
H21A C31A 1_555 1_555
C32A C31A 1_555 1_555
C33A C32A 1_555 1_555
H22A C33A 1_555 1_555
C34A C33A 1_555 1_555
H23A C34A 1_555 1_555
C35A C34A 1_555 1_555
H24A C35A 1_555 1_555
C36A C24A 1_555 1_555
C37A H25A 1_555 1_555
H26A C37A 1_555 1_555
C38A C37A 1_555 1_555
H27A C38A 1_555 1_555
H28A C38A 1_555 1_555
H29A C38A 1_555 1_555
C39A C25A 1_555 1_555
C40A C39A 1_555 1_555
H30A C40A 1_555 1_555
C41A C40A 1_555 1_555
H31A C41A 1_555 1_555
C42A C41A 1_555 1_555
H32A C42A 1_555 1_555
C43A C42A 1_555 1_555
H33A C43A 1_555 1_555
C44A C39A 1_555 1_555
H34A C44A 1_555 1_555
N4A C23A 1_555 1_555
N5A C27A 1_555 1_555
N6A C32A 1_555 1_555
O3A C36A 1_555 1_555
O4A C36A 1_555 1_555
H35A N6A 1_555 1_555
H36A N4A 1_555 1_555
C4 N1 1_555 1_555
C8 N2 1_555 1_555
C13 N3 1_555 1_555
C15 O2 1_555 1_555
C21 C22 1_555 1_555
C26 N4 1_555 1_555
C30 N5 1_555 1_555
C35 N6 1_555 1_555
C37 O4 1_555 1_555
C43 C44 1_555 1_555
C4A N1A 1_555 1_555
C8A N2A 1_555 1_555
C13A N3A 1_555 1_555
C15A O2A 1_555 1_555
C21A C22A 1_555 1_555
C26A N4A 1_555 1_555
C30A N5A 1_555 1_555
C35A N6A 1_555 1_555
C37A O4A 1_555 1_555
C43A C44A 1_555 1_555

#END
