
#######################################################################
#
#                 Cambridge Crystallographic Data Centre
#                                CCDC 
#
#######################################################################
#
# If this CIF has been generated from an entry in the Cambridge 
# Structural Database, then it will include bibliographic, chemical, 
# crystal, experimental, refinement or atomic coordinate data resulting 
# from the CCDC's data processing and validation procedures.
#
#######################################################################

data_NEVLUY
_chemical_formula_moiety         'C21 H27 N1 O3,C3 H6 O1'
_chemical_name_systematic        
'12a-hydroxy-8,10b-dimethyl-1,3,4,4a,5,7,8,9,10,10a,10b,11,12,12a-tetradecahydro-2H-9,10c-methanocyclopenta[1,8]azuleno[4,5-a]indolizine-2,13-dione acetone solvate'
_symmetry_cell_setting           triclinic
_symmetry_space_group_name_H-M   'P -1'
_symmetry_Int_Tables_number      2
_space_group_name_Hall           '-P 1'
loop_
_symmetry_equiv_pos_site_id
_symmetry_equiv_pos_as_xyz
1 x,y,z
2 -x,-y,-z
_cell_length_a                   11.4300(5)
_cell_length_b                   12.7489(5)
_cell_length_c                   16.0040(7)
_cell_angle_alpha                82.394(2)
_cell_angle_beta                 89.023(2)
_cell_angle_gamma                64.417(2)
_cell_volume                     2082.86
_exptl_crystal_colour            colorless
_exptl_crystal_description       block
_cell_formula_units_Z            4
loop_
_atom_site_label
_atom_site_type_symbol
_atom_site_fract_x
_atom_site_fract_y
_atom_site_fract_z
O1 O 0.5776(2) 0.39677(16) 0.84635(11)
H1 H 0.475(5) 0.220(4) 0.592(3)
N1 N 0.3859(2) 0.27968(18) 1.00835(13)
C1 C 0.6782(3) 0.3090(3) 1.0940(2)
H2 H 0.7468 0.3279 1.0690
H3 H 0.7162 0.2271 1.1209
H4 H 0.6359 0.3608 1.1364
O2 O 0.54096(19) 0.17661(15) 0.62773(11)
C2 C 0.5788(3) 0.3265(2) 1.02566(16)
H5 H 0.5471 0.4083 0.9954
O3 O 0.3494(2) 0.55134(16) 0.58208(12)
C3 C 0.6086(3) 0.1324(2) 0.98569(16)
H6 H 0.6607 0.0684 0.9528
H7 H 0.6310 0.1032 1.0464
C4 C 0.6361(3) 0.2393(2) 0.96005(15)
H8 H 0.7322 0.2126 0.9602
C5 C 0.4648(3) 0.1722(2) 0.96749(15)
H9 H 0.4412 0.1077 0.9913
C6 C 0.4625(3) 0.3117(2) 1.06501(16)
H10 H 0.4947 0.2503 1.1149
H11 H 0.4039 0.3862 1.0853
C7 C 0.3080(3) 0.3745(2) 0.94224(15)
H12 H 0.3543 0.4221 0.9210
H13 H 0.2235 0.4265 0.9632
C8 C 0.2894(2) 0.3102(2) 0.87396(15)
H14 H 0.2329 0.2736 0.8993
C9 C 0.4258(2) 0.2044(2) 0.87107(15)
C10 C 0.5278(2) 0.23750(19) 0.81925(15)
C11 C 0.5780(2) 0.3027(2) 0.87224(15)
C12 C 0.2123(2) 0.3900(2) 0.79514(16)
H15 H 0.1219 0.4356 0.8108
H16 H 0.2097 0.3395 0.7539
C13 C 0.2611(3) 0.4767(2) 0.75060(15)
H17 H 0.1936 0.5348 0.7090
H18 H 0.2782 0.5195 0.7925
C14 C 0.3817(2) 0.4131(2) 0.70702(15)
C15 C 0.4139(3) 0.4571(2) 0.62335(15)
C16 C 0.5479(3) 0.3677(2) 0.60223(16)
H19 H 0.5478 0.3514 0.5435
H20 H 0.6146 0.3961 0.6097
C17 C 0.5728(2) 0.2585(2) 0.66503(15)
C18 C 0.6995(3) 0.1874(2) 0.71498(16)
H21 H 0.7405 0.2379 0.7283
H22 H 0.7607 0.1252 0.6839
C19 C 0.6580(3) 0.1344(2) 0.79583(16)
H23 H 0.7254 0.1085 0.8419
H24 H 0.6429 0.0663 0.7853
C20 C 0.4788(2) 0.3084(2) 0.73385(15)
C21 C 0.4137(3) 0.1036(2) 0.83586(16)
H25 H 0.4002 0.1221 0.7744
H26 H 0.3398 0.0930 0.8603
H27 H 0.4935 0.0312 0.8503
O4 O 0.8936(5) 1.0074(3) 0.0950(3)
C22 C 0.9450(4) 0.9024(3) 0.0955(3)
C23 C 0.9509(4) 0.8516(4) 0.0196(3)
H28 H 0.8631 0.8805 -0.0055
H29 H 0.9889 0.7659 0.0331
H30 H 1.0049 0.8738 -0.0205
C24 C 0.9980(6) 0.8238(5) 0.1727(3)
H31 H 1.0858 0.7653 0.1641
H32 H 0.9428 0.7841 0.1896
H33 H 1.0013 0.8686 0.2172
N2 N 0.3207(2) 0.28043(18) 0.51020(13)
O5 O 0.02000(18) 0.39248(17) 0.35512(12)
O6 O 0.0994(2) 0.54678(16) 0.08415(12)
O7 O 0.27208(18) 0.17241(15) 0.13296(11)
H34 H 0.298(2) 0.2115(17) 0.094(2)
C25 C 0.2140(3) 0.3095(2) 0.56899(16)
H35 H 0.1985 0.3847 0.5885
H36 H 0.2427 0.2482 0.6190
C26 C 0.0845(3) 0.3203(2) 0.53372(16)
C27 C 0.1138(3) 0.2337(2) 0.46776(16)
H37 H 0.0450 0.2048 0.4695
C28 C 0.2452(3) 0.1287(2) 0.49109(16)
H38 H 0.2516 0.0988 0.5520
H39 H 0.2564 0.0645 0.4584
C29 C 0.3474(3) 0.1718(2) 0.47003(15)
H40 H 0.4337 0.1087 0.4925
C30 C 0.1093(2) 0.2991(2) 0.37972(16)
C31 C 0.2235(2) 0.2348(2) 0.32437(15)
C32 C 0.3556(2) 0.2048(2) 0.37322(15)
C33 C 0.3876(2) 0.3127(2) 0.37437(15)
H41 H 0.4788 0.2778 0.3984
C34 C 0.3050(3) 0.3761(2) 0.44332(15)
H42 H 0.3368 0.4301 0.4629
H43 H 0.2129 0.4213 0.4234
C35 C 0.1955(3) 0.1299(2) 0.30335(16)
H44 H 0.2771 0.0628 0.2921
H45 H 0.1537 0.1033 0.3508
C36 C 0.1035(3) 0.1804(2) 0.22380(16)
H46 H 0.1045 0.1170 0.1938
H47 H 0.0134 0.2295 0.2383
C37 C 0.1603(2) 0.2537(2) 0.17140(15)
C38 C 0.0793(3) 0.3617(2) 0.10860(16)
H48 H -0.0146 0.3891 0.1180
H49 H 0.0957 0.3448 0.0498
C39 C 0.1256(2) 0.4527(2) 0.12702(16)
C40 C 0.1978(2) 0.4109(2) 0.20977(15)
C41 C 0.2033(2) 0.3055(2) 0.23808(15)
C42 C 0.2559(3) 0.4770(2) 0.25081(15)
H50 H 0.1966 0.5203 0.2930
H51 H 0.2672 0.5349 0.2078
C43 C 0.3873(2) 0.3929(2) 0.29411(15)
H52 H 0.4318 0.4403 0.3082
H53 H 0.4402 0.3425 0.2527
C44 C 0.4667(3) 0.1054(2) 0.33671(17)
H54 H 0.4649 0.1254 0.2753
H55 H 0.4566 0.0326 0.3501
H56 H 0.5498 0.0945 0.3613
C45 C 0.0057(3) 0.2958(3) 0.6055(2)
H57 H -0.0820 0.3156 0.5837
H58 H 0.0005 0.3436 0.6498
H59 H 0.0481 0.2124 0.6288
O8 O 0.0500(4) 0.9817(3) 0.6157(2)
C46 C 0.2182(4) 0.8197(5) 0.6900(3)
H60 H 0.1960 0.7535 0.7041
H61 H 0.1949 0.8677 0.7361
H62 H 0.3117 0.7899 0.6819
C47 C 0.1468(3) 0.8913(3) 0.6124(3)
C48 C 0.1962(4) 0.8504(3) 0.5310(3)
H63 H 0.1325 0.8996 0.4853
H64 H 0.2103 0.7686 0.5327
H65 H 0.2783 0.8558 0.5210
loop_
_geom_bond_atom_site_label_1
_geom_bond_atom_site_label_2
_geom_bond_site_symmetry_1
_geom_bond_site_symmetry_2
O1 C11 1_555 1_555
H1 O2 1_555 1_555
N1 C5 1_555 1_555
C1 H2 1_555 1_555
H3 C1 1_555 1_555
H4 C1 1_555 1_555
O2 C17 1_555 1_555
C2 C1 1_555 1_555
H5 C2 1_555 1_555
O3 C15 1_555 1_555
C3 H6 1_555 1_555
H7 C3 1_555 1_555
C4 C2 1_555 1_555
H8 C4 1_555 1_555
C5 C3 1_555 1_555
H9 C5 1_555 1_555
C6 N1 1_555 1_555
H10 C6 1_555 1_555
H11 C6 1_555 1_555
C7 N1 1_555 1_555
H12 C7 1_555 1_555
H13 C7 1_555 1_555
C8 C7 1_555 1_555
H14 C8 1_555 1_555
C9 C5 1_555 1_555
C10 C9 1_555 1_555
C11 C4 1_555 1_555
C12 C8 1_555 1_555
H15 C12 1_555 1_555
H16 C12 1_555 1_555
C13 C12 1_555 1_555
H17 C13 1_555 1_555
H18 C13 1_555 1_555
C14 C13 1_555 1_555
C15 C14 1_555 1_555
C16 C15 1_555 1_555
H19 C16 1_555 1_555
H20 C16 1_555 1_555
C17 C16 1_555 1_555
C18 C17 1_555 1_555
H21 C18 1_555 1_555
H22 C18 1_555 1_555
C19 C10 1_555 1_555
H23 C19 1_555 1_555
H24 C19 1_555 1_555
C20 C10 1_555 1_555
C21 C9 1_555 1_555
H25 C21 1_555 1_555
H26 C21 1_555 1_555
H27 C21 1_555 1_555
O4 C22 1_555 1_555
C22 C23 1_555 1_555
C23 H28 1_555 1_555
H29 C23 1_555 1_555
H30 C23 1_555 1_555
C24 C22 1_555 1_555
H31 C24 1_555 1_555
H32 C24 1_555 1_555
H33 C24 1_555 1_555
N2 C25 1_555 1_555
O5 C30 1_555 1_555
O6 C39 1_555 1_555
O7 H34 1_555 1_555
C25 H35 1_555 1_555
H36 C25 1_555 1_555
C26 C25 1_555 1_555
C27 C26 1_555 1_555
H37 C27 1_555 1_555
C28 C27 1_555 1_555
H38 C28 1_555 1_555
H39 C28 1_555 1_555
C29 N2 1_555 1_555
H40 C29 1_555 1_555
C30 C27 1_555 1_555
C31 C30 1_555 1_555
C32 C29 1_555 1_555
C33 C32 1_555 1_555
H41 C33 1_555 1_555
C34 N2 1_555 1_555
H42 C34 1_555 1_555
H43 C34 1_555 1_555
C35 C31 1_555 1_555
H44 C35 1_555 1_555
H45 C35 1_555 1_555
C36 C35 1_555 1_555
H46 C36 1_555 1_555
H47 C36 1_555 1_555
C37 O7 1_555 1_555
C38 C37 1_555 1_555
H48 C38 1_555 1_555
H49 C38 1_555 1_555
C39 C38 1_555 1_555
C40 C39 1_555 1_555
C41 C31 1_555 1_555
C42 C40 1_555 1_555
H50 C42 1_555 1_555
H51 C42 1_555 1_555
C43 C33 1_555 1_555
H52 C43 1_555 1_555
H53 C43 1_555 1_555
C44 C32 1_555 1_555
H54 C44 1_555 1_555
H55 C44 1_555 1_555
H56 C44 1_555 1_555
C45 C26 1_555 1_555
H57 C45 1_555 1_555
H58 C45 1_555 1_555
H59 C45 1_555 1_555
O8 C47 1_555 1_555
C46 H60 1_555 1_555
H61 C46 1_555 1_555
H62 C46 1_555 1_555
C47 C46 1_555 1_555
C48 C47 1_555 1_555
H63 C48 1_555 1_555
H64 C48 1_555 1_555
H65 C48 1_555 1_555
C2 C6 1_555 1_555
C3 C4 1_555 1_555
C8 C9 1_555 1_555
C10 C11 1_555 1_555
C14 C20 1_555 1_555
C17 C20 1_555 1_555
C18 C19 1_555 1_555
C28 C29 1_555 1_555
C31 C32 1_555 1_555
C33 C34 1_555 1_555
C36 C37 1_555 1_555
C37 C41 1_555 1_555
C40 C41 1_555 1_555
C42 C43 1_555 1_555

#END
