
#######################################################################
#
#                 Cambridge Crystallographic Data Centre
#                                CCDC 
#
#######################################################################
#
# If this CIF has been generated from an entry in the Cambridge 
# Structural Database, then it will include bibliographic, chemical, 
# crystal, experimental, refinement or atomic coordinate data resulting 
# from the CCDC's data processing and validation procedures.
#
#######################################################################

data_NEVPAH
_chemical_formula_moiety         'C28 H22 N2 O10 Te1,C7 H8'
_chemical_name_systematic        
"1,1'-((bis(4-methoxyphenyl)-\l^4^-tellanediyl)bis(oxycarbonyl))bis(3-nitrobenzene) toluene solvate"
_symmetry_cell_setting           monoclinic
_symmetry_space_group_name_H-M   'P 21/n'
_symmetry_Int_Tables_number      14
_space_group_name_Hall           '-P 2yn'
loop_
_symmetry_equiv_pos_site_id
_symmetry_equiv_pos_as_xyz
1 x,y,z
2 1/2-x,1/2+y,1/2-z
3 -x,-y,-z
4 1/2+x,1/2-y,1/2+z
_cell_length_a                   13.245(2)
_cell_length_b                   14.468(3)
_cell_length_c                   16.983(3)
_cell_angle_alpha                90
_cell_angle_beta                 97.758(4)
_cell_angle_gamma                90
_cell_volume                     3224.64
_cell_formula_units_Z            4
loop_
_atom_site_label
_atom_site_type_symbol
_atom_site_fract_x
_atom_site_fract_y
_atom_site_fract_z
C1 C 0.7382(5) 0.6834(4) 0.6556(4)
C2 C 0.7644(5) 0.7051(4) 0.5813(4)
H1 H 0.7228 0.7442 0.5477
C3 C 0.8509(5) 0.6696(4) 0.5572(4)
H2 H 0.8687 0.6860 0.5079
C4 C 0.9122(5) 0.6094(4) 0.6056(4)
C5 C 0.8878(5) 0.5872(4) 0.6800(4)
H3 H 0.9298 0.5480 0.7132
C6 C 0.8005(5) 0.6235(4) 0.7049(4)
H4 H 0.7835 0.6079 0.7546
C7 C 1.0615(5) 0.5153(5) 0.6222(4)
H5 H 1.0855 0.5428 0.6727
H6 H 1.1186 0.5005 0.5951
H7 H 1.0244 0.4598 0.6302
C8 C 0.6617(5) 0.7958(4) 0.7981(4)
C9 C 0.7537(5) 0.8437(4) 0.8046(4)
H8 H 0.7918 0.8439 0.7624
C10 C 0.7887(5) 0.8912(4) 0.8740(4)
H9 H 0.8502 0.9230 0.8786
C11 C 0.7310(5) 0.8910(4) 0.9367(4)
C12 C 0.6410(5) 0.8408(4) 0.9305(4)
H10 H 0.6038 0.8393 0.9732
C13 C 0.6056(5) 0.7929(4) 0.8616(4)
H11 H 0.5453 0.7594 0.8579
C14 C 0.8457(5) 0.9962(4) 1.0118(4)
H12 H 0.9057 0.9590 1.0118
H13 H 0.8508 1.0311 1.0603
H14 H 0.8394 1.0377 0.9674
C15 C 0.5482(5) 0.5471(4) 0.7214(4)
C16 C 0.5192(5) 0.4658(4) 0.7685(4)
C17 C 0.5381(5) 0.4657(5) 0.8501(4)
H15 H 0.5708 0.5153 0.8776
C18 C 0.5074(5) 0.3899(4) 0.8902(4)
C19 C 0.4602(5) 0.3142(4) 0.8521(4)
H16 H 0.4401 0.2645 0.8810
C20 C 0.4431(5) 0.3136(5) 0.7696(4)
H17 H 0.4124 0.2629 0.7425
C21 C 0.4724(5) 0.3893(4) 0.7279(4)
H18 H 0.4609 0.3893 0.6727
C22 C 0.5811(5) 0.9258(4) 0.6365(4)
C23 C 0.6060(5) 1.0115(4) 0.5944(3)
C24 C 0.5373(5) 1.0845(4) 0.5894(3)
H19 H 0.4774 1.0801 0.6120
C25 C 0.5603(5) 1.1644(4) 0.5497(3)
C26 C 0.6480(5) 1.1746(5) 0.5169(4)
H20 H 0.6613 1.2288 0.4907
C27 C 0.7177(6) 1.1014(5) 0.5236(4)
H21 H 0.7785 1.1068 0.5022
C28 C 0.6964(5) 1.0217(4) 0.5617(4)
H22 H 0.7432 0.9735 0.5658
N1 N 0.4852(4) 1.2402(4) 0.5422(3)
N2 N 0.5291(5) 0.3898(4) 0.9764(4)
O1 O 0.9963(3) 0.5785(3) 0.5755(3)
O2 O 0.7573(4) 0.9372(3) 1.0060(2)
O3 O 0.5927(3) 0.6151(3) 0.7640(2)
O4 O 0.5322(3) 0.5480(3) 0.6481(3)
O5 O 0.4819(4) 0.3357(3) 1.0140(3)
O6 O 0.5946(4) 0.4441(3) 1.0084(3)
O7 O 0.6441(3) 0.8574(3) 0.6307(2)
O8 O 0.5095(3) 0.9221(3) 0.6741(3)
O9 O 0.4144(4) 1.2360(3) 0.5817(3)
O10 O 0.4991(4) 1.3044(3) 0.4970(3)
Te1 Te 0.60185(3) 0.73381(3) 0.69059(2)
C29 C 0.2213(5) 0.1118(5) 0.7033(4)
C30 C 0.2109(5) 0.1913(6) 0.6579(4)
H23 H 0.2234 0.1899 0.6053
C31 C 0.1820(6) 0.2726(6) 0.6904(6)
H24 H 0.1741 0.3260 0.6597
C32 C 0.1644(6) 0.2748(7) 0.7710(7)
H25 H 0.1465 0.3293 0.7946
C33 C 0.1747(7) 0.1939(9) 0.8124(6)
H26 H 0.1615 0.1931 0.8648
C34 C 0.2033(6) 0.1154(7) 0.7798(5)
H27 H 0.2110 0.0621 0.8106
C35 C 0.2548(7) 0.0225(6) 0.6694(6)
H28 H 0.3256 0.0121 0.6881
H29 H 0.2452 0.0261 0.6124
H30 H 0.2151 -0.0276 0.6860
loop_
_geom_bond_atom_site_label_1
_geom_bond_atom_site_label_2
_geom_bond_site_symmetry_1
_geom_bond_site_symmetry_2
C1 C2 1_555 1_555
C2 H1 1_555 1_555
C3 C2 1_555 1_555
H2 C3 1_555 1_555
C4 C3 1_555 1_555
C5 C4 1_555 1_555
H3 C5 1_555 1_555
C6 C1 1_555 1_555
H4 C6 1_555 1_555
C7 H5 1_555 1_555
H6 C7 1_555 1_555
H7 C7 1_555 1_555
C8 C9 1_555 1_555
C9 H8 1_555 1_555
C10 C9 1_555 1_555
H9 C10 1_555 1_555
C11 C10 1_555 1_555
C12 C11 1_555 1_555
H10 C12 1_555 1_555
C13 C8 1_555 1_555
H11 C13 1_555 1_555
C14 H12 1_555 1_555
H13 C14 1_555 1_555
H14 C14 1_555 1_555
C15 C16 1_555 1_555
C16 C17 1_555 1_555
C17 H15 1_555 1_555
C18 C17 1_555 1_555
C19 C18 1_555 1_555
H16 C19 1_555 1_555
C20 C19 1_555 1_555
H17 C20 1_555 1_555
C21 C16 1_555 1_555
H18 C21 1_555 1_555
C22 C23 1_555 1_555
C23 C24 1_555 1_555
C24 H19 1_555 1_555
C25 C24 1_555 1_555
C26 C25 1_555 1_555
H20 C26 1_555 1_555
C27 C26 1_555 1_555
H21 C27 1_555 1_555
C28 C23 1_555 1_555
H22 C28 1_555 1_555
N1 C25 1_555 1_555
N2 C18 1_555 1_555
O1 C4 1_555 1_555
O2 C11 1_555 1_555
O3 C15 1_555 1_555
O4 C15 1_555 1_555
O5 N2 1_555 1_555
O6 N2 1_555 1_555
O7 C22 1_555 1_555
O8 C22 1_555 1_555
O9 N1 1_555 1_555
O10 N1 1_555 1_555
Te1 C1 1_555 1_555
C29 C30 1_555 1_555
C30 H23 1_555 1_555
C31 C30 1_555 1_555
H24 C31 1_555 1_555
C32 C31 1_555 1_555
H25 C32 1_555 1_555
C33 C32 1_555 1_555
H26 C33 1_555 1_555
C34 C29 1_555 1_555
H27 C34 1_555 1_555
C35 C29 1_555 1_555
H28 C35 1_555 1_555
H29 C35 1_555 1_555
H30 C35 1_555 1_555
C5 C6 1_555 1_555
C7 O1 1_555 1_555
C8 Te1 1_555 1_555
C12 C13 1_555 1_555
C14 O2 1_555 1_555
C20 C21 1_555 1_555
C27 C28 1_555 1_555
O3 Te1 1_555 1_555
O7 Te1 1_555 1_555
C33 C34 1_555 1_555

#END
