
#######################################################################
#
#                 Cambridge Crystallographic Data Centre
#                                CCDC 
#
#######################################################################
#
# If this CIF has been generated from an entry in the Cambridge 
# Structural Database, then it will include bibliographic, chemical, 
# crystal, experimental, refinement or atomic coordinate data resulting 
# from the CCDC's data processing and validation procedures.
#
#######################################################################

data_NEVRIS
_chemical_formula_moiety         'C47 H55 N1 O16 S1'
_chemical_name_systematic        
"2-[(acetyloxy)methyl]-6-({2-[(acetyloxy)methyl]-10,12b-dimethyl-15,18-dioxo-8-sulfanylidene-2a,3,4a,5,6,7,7a,8,9,10,11,12,12a,12b,13,14,16a,16b-octadecahydro-15H-5,14a:11,12c-dimethano-4,16-dioxa-8a-azabenzo[a]cyclopenta[1',7']indeno[3a',4':4,5]indeno[7,1-gh]azulen-3-yl}oxy)oxane-3,4,5-triyl triacetate unknown solvate"
_symmetry_cell_setting           monoclinic
_symmetry_space_group_name_H-M   'P 21'
_symmetry_Int_Tables_number      4
_space_group_name_Hall           'P 2yb'
loop_
_symmetry_equiv_pos_site_id
_symmetry_equiv_pos_as_xyz
1 x,y,z
2 -x,1/2+y,-z
_cell_length_a                   11.743(2)
_cell_length_b                   10.292(2)
_cell_length_c                   21.540(4)
_cell_angle_alpha                90
_cell_angle_beta                 100.973(4)
_cell_angle_gamma                90
_cell_volume                     2555.71
_exptl_crystal_colour            colorless
_exptl_crystal_description       prismatic
_cell_formula_units_Z            2
loop_
_atom_site_label
_atom_site_type_symbol
_atom_site_fract_x
_atom_site_fract_y
_atom_site_fract_z
S1 S -0.12886(17) -0.0293(2) 0.63668(10)
N1 N -0.2357(4) 0.1720(6) 0.5751(2)
O1 O 0.0091(3) 0.3529(5) 0.63699(18)
O2 O 0.1608(3) 0.3991(4) 0.82402(15)
O3 O 0.0153(4) 0.7556(5) 0.8622(2)
O4 O 0.0892(3) 0.8006(4) 0.77790(19)
O5 O 0.3502(3) 0.4015(3) 0.81474(15)
O6 O 0.4700(3) 0.5327(3) 0.88068(15)
O7 O 0.4754(3) 0.7302(5) 0.7133(2)
O8 O 0.4456(6) 0.6881(7) 0.6110(3)
O9 O 0.4690(3) 0.1817(3) 0.87885(15)
O10 O 0.5292(5) 0.1242(6) 0.7906(3)
O11 O 0.7063(3) 0.2507(4) 0.93663(15)
O12 O 0.7102(3) 0.1722(5) 1.03414(19)
O13 O 0.7035(3) 0.4819(4) 1.01435(15)
O14 O 0.8744(9) 0.4897(17) 0.9838(6)
O15 O 0.6344(3) 0.7295(4) 0.90169(18)
O16 O 0.6601(5) 0.9230(5) 0.9440(3)
C1 C -0.0898(4) 0.3791(6) 0.6201(2)
C2 C -0.1418(5) 0.3860(7) 0.5487(3)
H1 H -0.1138 0.4651 0.5311
C3 C -0.1027(6) 0.2670(8) 0.5149(3)
H2 H -0.0260 0.2403 0.5379
C4 C -0.1866(6) 0.1561(8) 0.5173(3)
H3 H -0.2481 0.1579 0.4801
H4 H -0.1465 0.0735 0.5183
C5 C -0.2059(4) 0.1066(6) 0.6279(3)
C6 C -0.2577(4) 0.1767(6) 0.6777(3)
H5 H -0.3361 0.1405 0.6722
C7 C -0.2789(4) 0.3169(6) 0.6519(3)
C8 C -0.3074(5) 0.2893(7) 0.5814(3)
H6 H -0.3899 0.2680 0.5688
C9 C -0.2747(5) 0.3899(7) 0.5379(3)
H7 H -0.3016 0.4752 0.5479
H8 H -0.3081 0.3696 0.4943
C10 C -0.1704(4) 0.4137(6) 0.6656(2)
C11 C -0.0947(10) 0.2898(12) 0.4456(4)
H9 H -0.1649 0.3297 0.4239
H10 H -0.0838 0.2082 0.4260
H11 H -0.0301 0.3459 0.4435
C12 C -0.3815(4) 0.3759(7) 0.6766(3)
H12 H -0.4130 0.4470 0.6499
H13 H -0.3555 0.4067 0.7190
H14 H -0.4402 0.3109 0.6764
C13 C -0.2015(4) 0.5636(6) 0.6559(3)
H15 H -0.1503 0.6039 0.6311
H16 H -0.2806 0.5731 0.6331
C14 C -0.1880(4) 0.6289(6) 0.7190(3)
H17 H -0.2626 0.6358 0.7319
H18 H -0.1565 0.7156 0.7170
C15 C -0.1053(4) 0.5453(6) 0.7659(2)
C16 C -0.1125(4) 0.4142(6) 0.7345(2)
C17 C -0.0743(4) 0.3245(6) 0.7775(2)
C18 C -0.0786(5) 0.1828(7) 0.7683(3)
H19 H -0.0466 0.1399 0.8078
H20 H -0.0320 0.1588 0.7374
C19 C -0.2037(5) 0.1384(6) 0.7453(3)
H21 H -0.2063 0.0446 0.7487
H22 H -0.2511 0.1741 0.7735
C20 C -0.0392(4) 0.3969(7) 0.8397(2)
H23 H -0.0356 0.3440 0.8779
C21 C -0.1292(5) 0.5051(7) 0.8311(3)
H24 H -0.1114 0.5733 0.8625
H25 H -0.2076 0.4734 0.8293
C22 C 0.0695(4) 0.4776(6) 0.8373(2)
H26 H 0.0949 0.5207 0.8782
C23 C 0.0272(4) 0.5825(6) 0.7859(2)
C24 C 0.0939(4) 0.5914(5) 0.7312(2)
H27 H 0.0467 0.5544 0.6929
C25 C 0.1109(4) 0.7359(6) 0.7217(2)
H28 H 0.0596 0.7681 0.6835
C26 C 0.0411(5) 0.7192(6) 0.8137(3)
C27 C 0.2369(5) 0.7475(6) 0.7167(2)
H29 H 0.2715 0.8243 0.7072
C28 C 0.2913(4) 0.6378(5) 0.7274(2)
C29 C 0.2161(4) 0.5291(5) 0.7429(2)
H30 H 0.2171 0.4578 0.7129
C30 C 0.2500(4) 0.4781(5) 0.8092(2)
H31 H 0.2645 0.5509 0.8390
C31 C 0.4170(5) 0.6148(7) 0.7252(3)
H32 H 0.4555 0.5782 0.7652
H33 H 0.4223 0.5519 0.6923
C32 C 0.4839(5) 0.7590(8) 0.6550(4)
C33 C 0.5438(7) 0.8818(10) 0.6494(5)
H34 H 0.5346 0.9053 0.6056
H35 H 0.6248 0.8721 0.6670
H36 H 0.5113 0.9486 0.6718
C34 C 0.4206(4) 0.4075(5) 0.8745(2)
H37 H 0.3752 0.3918 0.9075
C35 C 0.5368(4) 0.5563(5) 0.9421(2)
H38 H 0.4902 0.5336 0.9738
C36 C 0.6422(4) 0.4670(5) 0.9503(2)
H39 H 0.6924 0.4920 0.9208
C37 C 0.6061(4) 0.3269(5) 0.9398(2)
H40 H 0.5720 0.2970 0.9755
C38 C 0.5186(4) 0.3083(5) 0.8788(2)
H41 H 0.5570 0.3178 0.8425
C39 C 0.4784(5) 0.1002(6) 0.8318(3)
C40 C 0.4136(6) -0.0233(7) 0.8371(4)
H42 H 0.3324 -0.0098 0.8212
H43 H 0.4248 -0.0492 0.8807
H44 H 0.4419 -0.0903 0.8130
C41 C 0.7544(4) 0.1823(6) 0.9894(2)
C42 C 0.8690(5) 0.1297(7) 0.9831(3)
H45 H 0.9291 0.1854 1.0049
H46 H 0.8739 0.1254 0.9392
H47 H 0.8782 0.0441 1.0011
C43 C 0.8112(6) 0.5226(10) 1.0251(3)
C44 C 0.8607(6) 0.5458(10) 1.0913(3)
H48 H 0.9423 0.5627 1.0958
H49 H 0.8491 0.4707 1.1157
H50 H 0.8234 0.6195 1.1061
C45 C 0.5641(4) 0.6970(6) 0.9470(2)
H51 H 0.4929 0.7473 0.9388
H52 H 0.6053 0.7174 0.9893
C46 C 0.6786(5) 0.8456(7) 0.9062(3)
C47 C 0.7485(7) 0.8725(8) 0.8569(4)
H53 H 0.7595 0.9645 0.8539
H54 H 0.7084 0.8399 0.8169
H55 H 0.8225 0.8305 0.8681
O17? O 0.8440(11) 0.5916(18) 0.9852(6)
loop_
_geom_bond_atom_site_label_1
_geom_bond_atom_site_label_2
_geom_bond_site_symmetry_1
_geom_bond_site_symmetry_2
S1 C5 1_555 1_555
N1 C4 1_555 1_555
O1 C1 1_555 1_555
O2 C22 1_555 1_555
O3 C26 1_555 1_555
O4 C25 1_555 1_555
O5 C30 1_555 1_555
O6 C34 1_555 1_555
O7 C31 1_555 1_555
O8 C32 1_555 1_555
O9 C38 1_555 1_555
O10 C39 1_555 1_555
O11 C37 1_555 1_555
O12 C41 1_555 1_555
O13 C36 1_555 1_555
O14 C43 1_555 1_555
O15 C45 1_555 1_555
O16 C46 1_555 1_555
C1 C2 1_555 1_555
C2 H1 1_555 1_555
C3 C2 1_555 1_555
H2 C3 1_555 1_555
C4 C3 1_555 1_555
H3 C4 1_555 1_555
H4 C4 1_555 1_555
C5 N1 1_555 1_555
C6 C5 1_555 1_555
H5 C6 1_555 1_555
C7 C6 1_555 1_555
C8 N1 1_555 1_555
H6 C8 1_555 1_555
C9 C2 1_555 1_555
H7 C9 1_555 1_555
H8 C9 1_555 1_555
C10 C1 1_555 1_555
C11 C3 1_555 1_555
H9 C11 1_555 1_555
H10 C11 1_555 1_555
H11 C11 1_555 1_555
C12 C7 1_555 1_555
H12 C12 1_555 1_555
H13 C12 1_555 1_555
H14 C12 1_555 1_555
C13 C10 1_555 1_555
H15 C13 1_555 1_555
H16 C13 1_555 1_555
C14 C13 1_555 1_555
H17 C14 1_555 1_555
H18 C14 1_555 1_555
C15 C14 1_555 1_555
C16 C10 1_555 1_555
C17 C16 1_555 1_555
C18 C17 1_555 1_555
H19 C18 1_555 1_555
H20 C18 1_555 1_555
C19 C6 1_555 1_555
H21 C19 1_555 1_555
H22 C19 1_555 1_555
C20 C17 1_555 1_555
H23 C20 1_555 1_555
C21 C15 1_555 1_555
H24 C21 1_555 1_555
H25 C21 1_555 1_555
C22 C20 1_555 1_555
H26 C22 1_555 1_555
C23 C15 1_555 1_555
C24 C23 1_555 1_555
H27 C24 1_555 1_555
C25 C24 1_555 1_555
H28 C25 1_555 1_555
C26 O4 1_555 1_555
C27 C25 1_555 1_555
H29 C27 1_555 1_555
C28 C27 1_555 1_555
C29 C24 1_555 1_555
H30 C29 1_555 1_555
C30 O2 1_555 1_555
H31 C30 1_555 1_555
C31 C28 1_555 1_555
H32 C31 1_555 1_555
H33 C31 1_555 1_555
C32 O7 1_555 1_555
C33 C32 1_555 1_555
H34 C33 1_555 1_555
H35 C33 1_555 1_555
H36 C33 1_555 1_555
C34 O5 1_555 1_555
H37 C34 1_555 1_555
C35 O6 1_555 1_555
H38 C35 1_555 1_555
C36 C35 1_555 1_555
H39 C36 1_555 1_555
C37 C36 1_555 1_555
H40 C37 1_555 1_555
C38 C34 1_555 1_555
H41 C38 1_555 1_555
C39 O9 1_555 1_555
C40 C39 1_555 1_555
H42 C40 1_555 1_555
H43 C40 1_555 1_555
H44 C40 1_555 1_555
C41 O11 1_555 1_555
C42 C41 1_555 1_555
H45 C42 1_555 1_555
H46 C42 1_555 1_555
H47 C42 1_555 1_555
C43 O13 1_555 1_555
C44 C43 1_555 1_555
H48 C44 1_555 1_555
H49 C44 1_555 1_555
H50 C44 1_555 1_555
C45 C35 1_555 1_555
H51 C45 1_555 1_555
H52 C45 1_555 1_555
C46 O15 1_555 1_555
C47 C46 1_555 1_555
H53 C47 1_555 1_555
H54 C47 1_555 1_555
H55 C47 1_555 1_555
C7 C8 1_555 1_555
C7 C10 1_555 1_555
C8 C9 1_555 1_555
C15 C16 1_555 1_555
C18 C19 1_555 1_555
C20 C21 1_555 1_555
C22 C23 1_555 1_555
C23 C26 1_555 1_555
C28 C29 1_555 1_555
C29 C30 1_555 1_555
C37 C38 1_555 1_555

#END
