
#######################################################################
#
#                 Cambridge Crystallographic Data Centre
#                                CCDC 
#
#######################################################################
#
# If this CIF has been generated from an entry in the Cambridge 
# Structural Database, then it will include bibliographic, chemical, 
# crystal, experimental, refinement or atomic coordinate data resulting 
# from the CCDC's data processing and validation procedures.
#
#######################################################################

data_NEVSOZ
_chemical_formula_moiety         'C21 H27 N1 O4'
_chemical_name_systematic        
'methyl 3,11a-dimethyl-6,12-dioxo-9-(prop-2-en-1-yl)-1,3,4,7,8,9,11a,11b-octahydro-2H-2,11-methanocyclohepta[a]indolizine-6a(6H)-carboxylate'
_symmetry_cell_setting           orthorhombic
_symmetry_space_group_name_H-M   'P 21 21 21'
_symmetry_Int_Tables_number      19
_space_group_name_Hall           'P 2ac 2ab'
loop_
_symmetry_equiv_pos_site_id
_symmetry_equiv_pos_as_xyz
1 x,y,z
2 1/2-x,-y,1/2+z
3 -x,1/2+y,1/2-z
4 1/2+x,1/2-y,-z
_cell_length_a                   6.6888(2)
_cell_length_b                   10.2183(2)
_cell_length_c                   26.7985(6)
_cell_angle_alpha                90
_cell_angle_beta                 90
_cell_angle_gamma                90
_cell_volume                     1831.63
_exptl_crystal_colour            colorless
_exptl_crystal_description       block
_cell_formula_units_Z            4
loop_
_atom_site_label
_atom_site_type_symbol
_atom_site_fract_x
_atom_site_fract_y
_atom_site_fract_z
O1 O 0.3856(4) 0.6432(3) 0.70366(9)
C1 C 0.5646(6) 0.9019(3) 0.70956(13)
H1 H 0.6509 0.9510 0.7330
H2 H 0.4348 0.8853 0.7261
N1 N 0.6588(5) 0.7783(3) 0.69661(10)
O2 O 0.6318(4) 0.9505(2) 0.54230(9)
C2 C 0.5317(6) 0.9825(3) 0.66209(13)
H3 H 0.4160 0.9438 0.6436
O3 O 0.8686(4) 0.5229(2) 0.73028(8)
C3 C 0.7199(5) 0.9759(3) 0.62721(12)
H4 H 0.7543 1.0669 0.6165
C4 C 0.8099(5) 0.6818(3) 0.62609(11)
C5 C 0.8484(5) 0.7789(3) 0.66924(12)
H5 H 0.9569 0.7439 0.6912
O4 O 0.8790(4) 0.3861(2) 0.66512(9)
C6 C 0.8990(6) 0.9183(3) 0.65393(13)
H6 H 0.9312 0.9713 0.6838
H7 H 1.0168 0.9185 0.6316
C7 C 1.0100(5) 0.6353(4) 0.60475(13)
H8 H 0.9856 0.5711 0.5783
H9 H 1.0893 0.5947 0.6313
H10 H 1.0830 0.7102 0.5910
C8 C 0.6868(5) 0.7478(3) 0.58438(12)
C9 C 0.6769(5) 0.8961(3) 0.58148(12)
C10 C 0.5897(5) 0.6865(3) 0.54732(13)
H11 H 0.5316 0.7452 0.5239
C11 C 0.5529(5) 0.5450(3) 0.53479(12)
H12 H 0.4046 0.5355 0.5316
C12 C 0.6167(6) 0.4460(3) 0.57422(13)
H13 H 0.5625 0.3587 0.5656
H14 H 0.7643 0.4397 0.5748
C13 C 0.5412(5) 0.4865(3) 0.62535(12)
H15 H 0.5166 0.4065 0.6452
H16 H 0.4112 0.5315 0.6211
C14 C 0.6802(5) 0.5764(3) 0.65522(12)
C15 C 0.5545(5) 0.6670(3) 0.68888(12)
C16 C 0.8191(5) 0.4958(3) 0.68857(12)
C17 C 1.0121(8) 0.3022(4) 0.69304(17)
H17 H 1.0519 0.2278 0.6722
H18 H 0.9434 0.2701 0.7229
H19 H 1.1311 0.3518 0.7029
C18 C 0.6389(6) 0.5144(4) 0.48295(13)
H20 H 0.5960 0.5832 0.4592
H21 H 0.7867 0.5161 0.4847
C19 C 0.5725(7) 0.3839(4) 0.46394(14)
H22 H 0.4330 0.3666 0.4628
C20 C 0.6939(10) 0.2927(5) 0.4489(2)
H23 H 0.8342 0.3071 0.4496
H24 H 0.6424 0.2117 0.4372
C21 C 0.4788(8) 1.1228(4) 0.67543(15)
H25 H 0.4366 1.1695 0.6453
H26 H 0.5961 1.1662 0.6898
H27 H 0.3697 1.1230 0.6998
loop_
_geom_bond_atom_site_label_1
_geom_bond_atom_site_label_2
_geom_bond_site_symmetry_1
_geom_bond_site_symmetry_2
O1 C15 1_555 1_555
C1 H1 1_555 1_555
H2 C1 1_555 1_555
N1 C1 1_555 1_555
O2 C9 1_555 1_555
C2 C1 1_555 1_555
H3 C2 1_555 1_555
O3 C16 1_555 1_555
C3 C2 1_555 1_555
H4 C3 1_555 1_555
C4 C5 1_555 1_555
C5 N1 1_555 1_555
H5 C5 1_555 1_555
O4 C16 1_555 1_555
C6 C3 1_555 1_555
H6 C6 1_555 1_555
H7 C6 1_555 1_555
C7 C4 1_555 1_555
H8 C7 1_555 1_555
H9 C7 1_555 1_555
H10 C7 1_555 1_555
C8 C4 1_555 1_555
C9 C3 1_555 1_555
C10 C8 1_555 1_555
H11 C10 1_555 1_555
C11 C10 1_555 1_555
H12 C11 1_555 1_555
C12 C11 1_555 1_555
H13 C12 1_555 1_555
H14 C12 1_555 1_555
C13 C12 1_555 1_555
H15 C13 1_555 1_555
H16 C13 1_555 1_555
C14 C4 1_555 1_555
C15 N1 1_555 1_555
C16 C14 1_555 1_555
C17 O4 1_555 1_555
H17 C17 1_555 1_555
H18 C17 1_555 1_555
H19 C17 1_555 1_555
C18 C11 1_555 1_555
H20 C18 1_555 1_555
H21 C18 1_555 1_555
C19 C18 1_555 1_555
H22 C19 1_555 1_555
C20 C19 1_555 1_555
H23 C20 1_555 1_555
H24 C20 1_555 1_555
C21 C2 1_555 1_555
H25 C21 1_555 1_555
H26 C21 1_555 1_555
H27 C21 1_555 1_555
C5 C6 1_555 1_555
C8 C9 1_555 1_555
C13 C14 1_555 1_555
C14 C15 1_555 1_555

#END
