
#######################################################################
#
#                 Cambridge Crystallographic Data Centre
#                                CCDC 
#
#######################################################################
#
# If this CIF has been generated from an entry in the Cambridge 
# Structural Database, then it will include bibliographic, chemical, 
# crystal, experimental, refinement or atomic coordinate data resulting 
# from the CCDC's data processing and validation procedures.
#
#######################################################################

data_NEWBUP
_chemical_formula_moiety         'C28 H22 Cl1 F3 N4 O3'
_chemical_name_systematic        
6-chloro-1-[(4-methoxyphenyl)methyl]-4-[2-oxo-1-phenyl-2-(1H-pyrazol-1-yl)ethyl]-4-(trifluoromethyl)-3,4-dihydroquinazolin-2(1H)-one
_symmetry_cell_setting           orthorhombic
_symmetry_space_group_name_H-M   'P 21 21 21'
_symmetry_Int_Tables_number      19
_space_group_name_Hall           'P 2ac 2ab'
loop_
_symmetry_equiv_pos_site_id
_symmetry_equiv_pos_as_xyz
1 x,y,z
2 1/2-x,-y,1/2+z
3 -x,1/2+y,1/2-z
4 1/2+x,1/2-y,-z
_cell_length_a                   10.3289(3)
_cell_length_b                   13.7520(4)
_cell_length_c                   18.4669(7)
_cell_angle_alpha                90
_cell_angle_beta                 90
_cell_angle_gamma                90
_cell_volume                     2623.09
_exptl_crystal_colour            colorless
_exptl_crystal_description       block
_cell_formula_units_Z            4
loop_
_atom_site_label
_atom_site_type_symbol
_atom_site_fract_x
_atom_site_fract_y
_atom_site_fract_z
Cl1 Cl 0.77949(6) 0.67345(6) 0.71067(6)
F1 F 0.3950(2) 0.39731(11) 0.73416(10)
F2 F 0.4199(2) 0.45971(12) 0.62937(10)
F3 F 0.23572(18) 0.40509(12) 0.66054(11)
O1 O 0.0542(2) 0.55521(17) 0.63127(12)
O2 O 0.0777(2) 0.56045(18) 0.86511(13)
N1 N 0.1647(2) 0.60911(17) 0.53352(13)
N2 N 0.2900(2) 0.60403(16) 0.86842(11)
N3 N 0.1956(2) 0.53716(16) 0.76540(13)
C1 C 0.4072(2) 0.61723(15) 0.83127(13)
O3 O 0.2669(3) 1.04282(17) 0.97929(16)
C2 C 0.4172(2) 0.59565(15) 0.75754(12)
C3 C 0.5327(2) 0.61292(17) 0.72164(14)
H1 H 0.5396 0.5988 0.6725
C4 C 0.3018(2) 0.55452(16) 0.71634(13)
N4 N 0.2800(3) 0.6368(2) 0.50353(14)
C5 C 0.6375(2) 0.65101(17) 0.75834(16)
C6 C 0.6307(3) 0.66955(19) 0.83061(17)
H2 H 0.7027 0.6932 0.8552
C7 C 0.2645(2) 0.62555(16) 0.65360(13)
H3 H 0.3401 0.6317 0.6219
C8 C 0.3391(3) 0.45363(18) 0.68486(15)
C9 C 0.2307(2) 0.72686(17) 0.68079(14)
C10 C 0.2758(3) 0.7424(2) 0.95605(14)
C11 C 0.5164(3) 0.65308(19) 0.86700(15)
H4 H 0.5119 0.6661 0.9164
C12 C 0.1523(3) 0.59098(19) 0.60750(15)
C13 C 0.1112(3) 0.7493(2) 0.70960(19)
H5 H 0.0493 0.7005 0.7143
C14 C 0.3565(3) 0.8871(2) 1.01511(15)
H6 H 0.4120 0.9154 1.0487
C15 C 0.1820(3) 0.56737(18) 0.83501(15)
C16 C 0.2749(3) 0.9433(2) 0.97484(17)
C17 C 0.3556(3) 0.7866(2) 1.00518(15)
H7 H 0.4110 0.7484 1.0328
C18 C 0.2776(3) 0.6332(2) 0.94493(15)
H8 H 0.3493 0.6058 0.9720
H9 H 0.1983 0.6059 0.9644
C19 C 0.1930(3) 0.8003(2) 0.91717(19)
H10 H 0.1367 0.7719 0.8840
C20 C 0.0813(3) 0.8425(3) 0.7316(2)
H11 H 0.0001 0.8561 0.7509
C21 C 0.0694(4) 0.5989(3) 0.4818(2)
H12 H -0.0163 0.5807 0.4892
C22 C 0.1916(4) 0.9002(3) 0.9263(2)
H13 H 0.1344 0.9382 0.8996
C23 C 0.1715(4) 0.9148(2) 0.7251(3)
H14 H 0.1515 0.9781 0.7388
C24 C 0.3213(3) 0.8003(2) 0.6748(2)
H15 H 0.4024 0.7874 0.6551
C25 C 0.2539(5) 0.6425(3) 0.4338(2)
H16 H 0.3149 0.6592 0.3989
C26 C 0.3666(4) 1.0932(3) 1.0153(2)
H17 H 0.4488 1.0743 0.9955
H18 H 0.3644 1.0776 1.0660
H19 H 0.3547 1.1619 1.0090
C27 C 0.2908(4) 0.8932(2) 0.6983(3)
H20 H 0.3532 0.9418 0.6957
C28 C 0.1266(5) 0.6210(3) 0.4182(2)
H21 H 0.0878 0.6215 0.3727
H22 H 0.122(3) 0.527(2) 0.7433(15)
loop_
_geom_bond_atom_site_label_1
_geom_bond_atom_site_label_2
_geom_bond_site_symmetry_1
_geom_bond_site_symmetry_2
Cl1 C5 1_555 1_555
F1 C8 1_555 1_555
F2 C8 1_555 1_555
F3 C8 1_555 1_555
O1 C12 1_555 1_555
O2 C15 1_555 1_555
N1 N4 1_555 1_555
N2 C1 1_555 1_555
N3 C4 1_555 1_555
C1 C2 1_555 1_555
O3 C16 1_555 1_555
C2 C3 1_555 1_555
C3 H1 1_555 1_555
C4 C2 1_555 1_555
N4 C25 1_555 1_555
C5 C3 1_555 1_555
C6 C5 1_555 1_555
H2 C6 1_555 1_555
C7 C4 1_555 1_555
H3 C7 1_555 1_555
C8 C4 1_555 1_555
C9 C7 1_555 1_555
C10 C17 1_555 1_555
C11 C1 1_555 1_555
H4 C11 1_555 1_555
C12 N1 1_555 1_555
C13 C9 1_555 1_555
H5 C13 1_555 1_555
C14 H6 1_555 1_555
C15 N2 1_555 1_555
C16 C14 1_555 1_555
C17 C14 1_555 1_555
H7 C17 1_555 1_555
C18 N2 1_555 1_555
H8 C18 1_555 1_555
H9 C18 1_555 1_555
C19 C10 1_555 1_555
H10 C19 1_555 1_555
C20 C13 1_555 1_555
H11 C20 1_555 1_555
C21 N1 1_555 1_555
H12 C21 1_555 1_555
C22 C16 1_555 1_555
H13 C22 1_555 1_555
C23 C20 1_555 1_555
H14 C23 1_555 1_555
C24 C9 1_555 1_555
H15 C24 1_555 1_555
C25 H16 1_555 1_555
C26 O3 1_555 1_555
H17 C26 1_555 1_555
H18 C26 1_555 1_555
H19 C26 1_555 1_555
C27 C23 1_555 1_555
H20 C27 1_555 1_555
C28 C21 1_555 1_555
H21 C28 1_555 1_555
H22 N3 1_555 1_555
N3 C15 1_555 1_555
C6 C11 1_555 1_555
C7 C12 1_555 1_555
C10 C18 1_555 1_555
C19 C22 1_555 1_555
C24 C27 1_555 1_555
C25 C28 1_555 1_555

#END
