
#######################################################################
#
#                 Cambridge Crystallographic Data Centre
#                                CCDC 
#
#######################################################################
#
# If this CIF has been generated from an entry in the Cambridge 
# Structural Database, then it will include bibliographic, chemical, 
# crystal, experimental, refinement or atomic coordinate data resulting 
# from the CCDC's data processing and validation procedures.
#
#######################################################################

data_NEWBID
_chemical_formula_moiety         'C21 H25 N1 O2 S1'
_chemical_name_systematic        
8,10b-dimethyl-5-sulfanylidene-2a,3,4,4a,5,7,8,9,10,10a,10b,11,12,12b-tetradecahydro-2H-9,10c-methanocyclopenta[1,8]azuleno[4,5-a]indolizine-2,13-dione
_symmetry_cell_setting           orthorhombic
_symmetry_space_group_name_H-M   'P 21 21 21'
_symmetry_Int_Tables_number      19
_space_group_name_Hall           'P 2ac 2ab'
loop_
_symmetry_equiv_pos_site_id
_symmetry_equiv_pos_as_xyz
1 x,y,z
2 1/2-x,-y,1/2+z
3 -x,1/2+y,1/2-z
4 1/2+x,1/2-y,-z
_cell_length_a                   8.6882(3)
_cell_length_b                   13.4255(5)
_cell_length_c                   14.7049(5)
_cell_angle_alpha                90
_cell_angle_beta                 90
_cell_angle_gamma                90
_cell_volume                     1715.23
_exptl_crystal_colour            colorless
_exptl_crystal_description       block
_cell_formula_units_Z            4
loop_
_atom_site_label
_atom_site_type_symbol
_atom_site_fract_x
_atom_site_fract_y
_atom_site_fract_z
S1 S 0.20390(7) 0.25760(7) 0.66214(5)
C1 C 0.3719(3) 0.2443(2) 0.71500(17)
O1 O 0.5386(2) 0.48785(13) 0.73941(13)
N1 N 0.3969(2) 0.25483(17) 0.80307(13)
O2 O 0.6070(2) 0.57689(16) 0.51434(14)
C2 C 0.5239(3) 0.21423(19) 0.67134(18)
H1 H 0.5208 0.1398 0.6685
C3 C 0.2973(3) 0.3053(2) 0.86841(17)
H2 H 0.2885 0.2652 0.9246
H3 H 0.1931 0.3140 0.8424
C4 C 0.5537(3) 0.22620(18) 0.83262(18)
H4 H 0.5552 0.1551 0.8530
C5 C 0.6502(3) 0.23906(19) 0.74451(16)
C6 C 0.3683(3) 0.4076(2) 0.89027(18)
H5 H 0.3306 0.4566 0.8442
C7 C 0.5940(3) 0.41901(19) 0.78133(17)
C8 C 0.5459(3) 0.39912(19) 0.88096(17)
H6 H 0.5956 0.4498 0.9213
C9 C 0.7153(3) 0.34903(18) 0.74070(17)
C10 C 0.7778(3) 0.38182(19) 0.64601(17)
H7 H 0.8568 0.3321 0.6263
C11 C 0.6805(3) 0.4094(2) 0.56285(18)
H8 H 0.7401 0.3851 0.5091
C12 C 0.5237(3) 0.3607(2) 0.55522(18)
H9 H 0.4809 0.3727 0.4938
H10 H 0.4527 0.3907 0.6003
C13 C 0.5365(3) 0.2482(2) 0.57226(16)
H11 H 0.4547 0.2144 0.5369
H12 H 0.6366 0.2251 0.5480
C14 C 0.8685(3) 0.3678(2) 0.79712(18)
H13 H 0.8447 0.3760 0.8625
H14 H 0.9401 0.3109 0.7901
C15 C 0.9412(3) 0.4640(2) 0.7584(2)
H15 H 0.9227 0.5214 0.7992
H16 H 1.0534 0.4559 0.7492
C16 C 0.8597(3) 0.4767(2) 0.6701(2)
C17 C 0.8155(3) 0.5544(2) 0.6199(2)
H17 H 0.8579 0.6195 0.6229
C18 C 0.6910(3) 0.5229(2) 0.55922(18)
C19 C 0.5957(3) 0.2950(2) 0.91118(18)
H18 H 0.7079 0.2931 0.9229
H19 H 0.5408 0.2750 0.9673
C20 C 0.7793(3) 0.1614(2) 0.7409(2)
H20 H 0.7343 0.0946 0.7377
H21 H 0.8429 0.1669 0.7957
H22 H 0.8431 0.1731 0.6870
C21 C 0.3180(4) 0.4431(3) 0.9844(2)
H23 H 0.3587 0.5101 0.9954
H24 H 0.3577 0.3974 1.0307
H25 H 0.2054 0.4447 0.9874
loop_
_geom_bond_atom_site_label_1
_geom_bond_atom_site_label_2
_geom_bond_site_symmetry_1
_geom_bond_site_symmetry_2
S1 C1 1_555 1_555
C1 N1 1_555 1_555
O1 C7 1_555 1_555
N1 C3 1_555 1_555
O2 C18 1_555 1_555
C2 C1 1_555 1_555
H1 C2 1_555 1_555
C3 H2 1_555 1_555
H3 C3 1_555 1_555
C4 N1 1_555 1_555
H4 C4 1_555 1_555
C5 C2 1_555 1_555
C6 C3 1_555 1_555
H5 C6 1_555 1_555
C7 C8 1_555 1_555
C8 C6 1_555 1_555
H6 C8 1_555 1_555
C9 C5 1_555 1_555
C10 C9 1_555 1_555
H7 C10 1_555 1_555
C11 C10 1_555 1_555
H8 C11 1_555 1_555
C12 C11 1_555 1_555
H9 C12 1_555 1_555
H10 C12 1_555 1_555
C13 C2 1_555 1_555
H11 C13 1_555 1_555
H12 C13 1_555 1_555
C14 C9 1_555 1_555
H13 C14 1_555 1_555
H14 C14 1_555 1_555
C15 C14 1_555 1_555
H15 C15 1_555 1_555
H16 C15 1_555 1_555
C16 C10 1_555 1_555
C17 C16 1_555 1_555
H17 C17 1_555 1_555
C18 C11 1_555 1_555
C19 C4 1_555 1_555
H18 C19 1_555 1_555
H19 C19 1_555 1_555
C20 C5 1_555 1_555
H20 C20 1_555 1_555
H21 C20 1_555 1_555
H22 C20 1_555 1_555
C21 C6 1_555 1_555
H23 C21 1_555 1_555
H24 C21 1_555 1_555
H25 C21 1_555 1_555
C4 C5 1_555 1_555
C7 C9 1_555 1_555
C8 C19 1_555 1_555
C12 C13 1_555 1_555
C15 C16 1_555 1_555
C17 C18 1_555 1_555

#END
