
#######################################################################
#
#                 Cambridge Crystallographic Data Centre
#                                CCDC 
#
#######################################################################
#
# If this CIF has been generated from an entry in the Cambridge 
# Structural Database, then it will include bibliographic, chemical, 
# crystal, experimental, refinement or atomic coordinate data resulting 
# from the CCDC's data processing and validation procedures.
#
#######################################################################

data_NEWCIE
_chemical_formula_moiety         'C19 H25 N1 O2'
_chemical_name_systematic        
3,11a-dimethyl-11-(prop-2-en-1-yl)-1,2,3,4,6a,7,8,11,11a,11b-decahydro-6H-2,11-methanocyclohepta[a]indolizine-6,12-dione
_symmetry_cell_setting           orthorhombic
_symmetry_space_group_name_H-M   'P 21 21 21'
_symmetry_Int_Tables_number      19
_space_group_name_Hall           'P 2ac 2ab'
loop_
_symmetry_equiv_pos_site_id
_symmetry_equiv_pos_as_xyz
1 x,y,z
2 1/2-x,-y,1/2+z
3 1/2+x,1/2-y,-z
4 -x,1/2+y,1/2-z
_cell_length_a                   8.8082(3)
_cell_length_b                   10.9022(3)
_cell_length_c                   16.2638(5)
_cell_angle_alpha                90
_cell_angle_beta                 90
_cell_angle_gamma                90
_cell_volume                     1561.79
_exptl_crystal_colour            colorless
_exptl_crystal_description       block
_cell_formula_units_Z            4
loop_
_atom_site_label
_atom_site_type_symbol
_atom_site_fract_x
_atom_site_fract_y
_atom_site_fract_z
C1 C 0.28836(16) 0.15565(14) 0.42447(9)
C2 C 0.24385(16) 0.22669(14) 0.34559(9)
C3 C 0.22592(17) 0.13332(14) 0.27133(9)
C4 C 0.32770(19) 0.01887(14) 0.28667(10)
H1 H 0.3491 -0.0227 0.2345
C5 C 0.47468(18) 0.04109(15) 0.33347(9)
H2 H 0.5298 0.1097 0.3100
H3 H 0.5390 -0.0311 0.3316
C6 C 0.42685(18) 0.06927(14) 0.42213(9)
H4 H 0.5118 0.1076 0.4513
C7 C 0.38469(19) -0.05322(15) 0.46513(10)
H5 H 0.3150 -0.0345 0.5104
C8 C 0.2992(2) -0.13446(15) 0.40254(11)
H6 H 0.3693 -0.1924 0.3779
H7 H 0.2206 -0.1806 0.4306
C9 C 0.0815(2) -0.03259(15) 0.33189(11)
C10 C 0.07020(18) 0.06529(15) 0.26586(10)
H8 H 0.0764 0.0193 0.2142
C11 C -0.0814(2) 0.13187(18) 0.26048(12)
H9 H -0.0738 0.1942 0.2181
H10 H -0.1580 0.0735 0.2430
C12 C -0.1357(2) 0.19259(19) 0.33906(14)
H11 H -0.2383 0.2223 0.3307
H12 H -0.1389 0.1315 0.3824
C13 C -0.03892(18) 0.29669(15) 0.36666(10)
H13 H -0.0921 0.3636 0.3873
C14 C 0.11038(18) 0.30933(14) 0.36653(9)
H14 H 0.1409 0.3871 0.3832
C15 C 0.37766(17) 0.32072(14) 0.32891(10)
H15 H 0.4637 0.2761 0.3067
H16 H 0.3448 0.3790 0.2875
C16 C 0.42852(19) 0.39024(16) 0.40366(11)
H17 H 0.4703 0.3454 0.4467
C17 C 0.2619(2) 0.19385(16) 0.18857(9)
H18 H 0.2422 0.1368 0.1449
H19 H 0.3669 0.2176 0.1874
H20 H 0.1992 0.2651 0.1816
C18 C 0.5211(2) -0.12060(16) 0.50065(12)
H21 H 0.4896 -0.1995 0.5206
H22 H 0.5631 -0.0737 0.5451
H23 H 0.5964 -0.1311 0.4586
N1 N 0.23129(16) -0.05914(13) 0.33882(8)
O1 O 0.22076(13) 0.17025(11) 0.48835(6)
O2 O -0.02153(15) -0.08109(12) 0.37072(8)
C19 C 0.4185(2) 0.50950(17) 0.41284(12)
H24 H 0.3774 0.5574 0.3711
H25 H 0.4525 0.5461 0.4611
loop_
_geom_bond_atom_site_label_1
_geom_bond_atom_site_label_2
_geom_bond_site_symmetry_1
_geom_bond_site_symmetry_2
C1 C2 1_555 1_555
C2 C3 1_555 1_555
C3 C4 1_555 1_555
C4 H1 1_555 1_555
C5 C4 1_555 1_555
H2 C5 1_555 1_555
H3 C5 1_555 1_555
C6 C1 1_555 1_555
H4 C6 1_555 1_555
C7 C6 1_555 1_555
H5 C7 1_555 1_555
C8 C7 1_555 1_555
H6 C8 1_555 1_555
H7 C8 1_555 1_555
C9 C10 1_555 1_555
C10 C3 1_555 1_555
H8 C10 1_555 1_555
C11 C10 1_555 1_555
H9 C11 1_555 1_555
H10 C11 1_555 1_555
C12 C11 1_555 1_555
H11 C12 1_555 1_555
H12 C12 1_555 1_555
C13 C12 1_555 1_555
H13 C13 1_555 1_555
C14 C2 1_555 1_555
H14 C14 1_555 1_555
C15 C2 1_555 1_555
H15 C15 1_555 1_555
H16 C15 1_555 1_555
C16 C15 1_555 1_555
H17 C16 1_555 1_555
C17 C3 1_555 1_555
H18 C17 1_555 1_555
H19 C17 1_555 1_555
H20 C17 1_555 1_555
C18 C7 1_555 1_555
H21 C18 1_555 1_555
H22 C18 1_555 1_555
H23 C18 1_555 1_555
N1 C4 1_555 1_555
O1 C1 1_555 1_555
O2 C9 1_555 1_555
C19 C16 1_555 1_555
H24 C19 1_555 1_555
H25 C19 1_555 1_555
C5 C6 1_555 1_555
C8 N1 1_555 1_555
C9 N1 1_555 1_555
C13 C14 1_555 1_555

#END
