
#######################################################################
#
#                 Cambridge Crystallographic Data Centre
#                                CCDC 
#
#######################################################################
#
# If this CIF has been generated from an entry in the Cambridge 
# Structural Database, then it will include bibliographic, chemical, 
# crystal, experimental, refinement or atomic coordinate data resulting 
# from the CCDC's data processing and validation procedures.
#
#######################################################################

data_NEWDAX
_chemical_formula_moiety         'C47 H55 N1 O16 S1,2(C4 H8 O2)'
_chemical_name_systematic        
"2-[(acetyloxy)methyl]-6-({2-[(acetyloxy)methyl]-10,12b-dimethyl-15,18-dioxo-8-sulfanylidene-2a,3,4a,5,6,7,7a,8,9,10,11,12,12a,12b,13,14,16a,16b-octadecahydro-15H-5,14a:11,12c-dimethano-4,16-dioxa-8a-azabenzo[a]cyclopenta[1',7']indeno[3a',4':4,5]indeno[7,1-gh]azulen-3-yl}oxy)oxane-3,4,5-triyl triacetate ethyl acetate solvate"
_symmetry_cell_setting           orthorhombic
_symmetry_space_group_name_H-M   'P 21 21 21'
_symmetry_Int_Tables_number      19
_space_group_name_Hall           'P 2ac 2ab'
loop_
_symmetry_equiv_pos_site_id
_symmetry_equiv_pos_as_xyz
1 x,y,z
2 1/2-x,-y,1/2+z
3 1/2+x,1/2-y,-z
4 -x,1/2+y,1/2-z
_cell_length_a                   12.8712(6)
_cell_length_b                   20.1086(11)
_cell_length_c                   21.4826(11)
_cell_angle_alpha                90
_cell_angle_beta                 90
_cell_angle_gamma                90
_cell_volume                     5560.17
_exptl_crystal_colour            colorless
_exptl_crystal_description       block
_cell_formula_units_Z            4
loop_
_atom_site_label
_atom_site_type_symbol
_atom_site_fract_x
_atom_site_fract_y
_atom_site_fract_z
C1 C 0.3186(7) -0.3758(4) -0.0487(4)
H1 H 0.2485 -0.3688 -0.0321
C2 C 0.3195(7) -0.3534(4) -0.1178(4)
H2 H 0.3686 -0.3801 -0.1412
H3 H 0.2511 -0.3595 -0.1359
C3 C 0.3942(5) -0.3299(4) -0.0127(3)
H4 H 0.4164 -0.3527 0.0253
C4 C 0.4902(6) -0.3161(4) -0.0532(3)
H5 H 0.5132 -0.3563 -0.0740
H6 H 0.5469 -0.2988 -0.0282
C5 C 0.4529(5) -0.2640(4) -0.1007(3)
H7 H 0.5003 -0.2624 -0.1364
C6 C 0.4369(5) -0.1937(4) -0.0737(3)
C7 C 0.3493(5) -0.1719(4) -0.1197(3)
H8 H 0.3865 -0.1648 -0.1589
C8 C 0.2856(5) -0.2343(4) -0.1321(3)
C9 C 0.3384(5) -0.2659(3) 0.0052(3)
C10 C 0.3994(5) -0.2002(3) -0.0043(3)
C11 C 0.3453(9) -0.4496(5) -0.0425(5)
H9 H 0.4148 -0.4571 -0.0572
H10 H 0.2975 -0.4755 -0.0668
H11 H 0.3405 -0.4627 0.0004
C12 C 0.2886(6) -0.1075(4) -0.1111(3)
H12 H 0.2540 -0.0977 -0.1501
H13 H 0.3385 -0.0721 -0.1039
C13 C 0.2070(5) -0.1037(4) -0.0594(3)
H14 H 0.1699 -0.0619 -0.0628
H15 H 0.1571 -0.1394 -0.0651
C14 C 0.2537(5) -0.1090(3) 0.0042(3)
C15 C 0.3362(4) -0.1443(3) 0.0210(3)
C16 C 0.5338(5) -0.1513(4) -0.0809(3)
H16 H 0.5918 -0.1736 -0.0621
H17 H 0.5232 -0.1091 -0.0608
H18 H 0.5476 -0.1443 -0.1243
C17 C 0.3571(4) -0.1316(3) 0.0900(3)
C18 C 0.4314(5) -0.1859(3) 0.1088(3)
H19 H 0.3943 -0.2243 0.1248
H20 H 0.4798 -0.1703 0.1402
C19 C 0.4886(5) -0.2029(4) 0.0469(3)
H21 H 0.5197 -0.2468 0.0488
H22 H 0.5424 -0.1705 0.0381
C20 C 0.2158(5) -0.0741(3) 0.0634(3)
H23 H 0.1429 -0.0600 0.0626
C21 C 0.2427(5) -0.1245(4) 0.1133(3)
H24 H 0.2032 -0.1654 0.1098
H25 H 0.2377 -0.1066 0.1551
C22 C 0.2949(5) -0.0183(3) 0.0781(3)
H26 H 0.3107 0.0077 0.0407
C23 C 0.3927(5) -0.0568(3) 0.1009(3)
C24 C 0.4253(5) -0.0454(4) 0.1685(3)
H27 H 0.4028 -0.0829 0.1943
C25 C 0.3918(5) 0.0214(4) 0.1991(3)
H28 H 0.3515 0.0117 0.2367
C26 C 0.3258(5) 0.0639(4) 0.1554(3)
H29 H 0.3692 0.0871 0.1249
C27 C 0.4911(6) 0.0547(4) 0.2175(4)
C28 C 0.5747(6) 0.0190(5) 0.1998(4)
H30 H 0.6430 0.0317 0.2076
C29 C 0.5454(5) -0.0422(4) 0.1665(3)
H31 H 0.5763 -0.0815 0.1862
C30 C 0.4905(5) -0.0385(3) 0.0644(3)
C31 C 0.4899(8) 0.1202(5) 0.2510(5)
H32 H 0.4527 0.1525 0.2260
H33 H 0.4528 0.1151 0.2900
C32 C 0.6319(9) 0.1380(6) 0.3133(6)
C33 C 0.7356(10) 0.1710(8) 0.3173(8)
H34 H 0.7816 0.1519 0.2870
H35 H 0.7640 0.1647 0.3582
H36 H 0.7280 0.2177 0.3092
C34 C 0.2439(6) 0.1689(4) 0.1633(3)
H37 H 0.2366 0.1638 0.1181
C35 C 0.1443(6) 0.1919(4) 0.1929(3)
H38 H 0.1468 0.1856 0.2381
C36 C 0.1212(6) 0.2649(4) 0.1767(3)
H39 H 0.0977 0.2685 0.1335
C37 C 0.2166(7) 0.3072(4) 0.1868(3)
H40 H 0.2289 0.3135 0.2314
C38 C 0.3117(6) 0.2794(4) 0.1563(3)
H41 H 0.3054 0.2801 0.1108
C39 C 0.1958(10) 0.4284(5) 0.1923(5)
C40 C 0.1552(15) 0.4864(6) 0.1538(8)
H42 H 0.0950 0.5049 0.1736
H43 H 0.1370 0.4709 0.1129
H44 H 0.2082 0.5198 0.1505
C41 C -0.0517(8) 0.2934(5) 0.2003(5)
C42 C -0.1180(9) 0.3225(8) 0.2492(7)
H45 H -0.1894 0.3121 0.2408
H46 H -0.1090 0.3699 0.2498
H47 H -0.0987 0.3044 0.2889
C43 C -0.0066(9) 0.1271(6) 0.2011(4)
C44 C -0.0842(13) 0.0855(8) 0.1663(7)
H48 H -0.0865 0.0417 0.1842
H49 H -0.0640 0.0824 0.1234
H50 H -0.1516 0.1056 0.1692
C45 C 0.4085(7) 0.3161(5) 0.1777(4)
H51 H 0.4017 0.3633 0.1696
H52 H 0.4189 0.3097 0.2221
C46 C 0.5823(9) 0.2897(6) 0.1751(6)
C47 C 0.6618(10) 0.2526(9) 0.1377(8)
H53 H 0.7244 0.2482 0.1616
H54 H 0.6763 0.2767 0.1001
H55 H 0.6355 0.2093 0.1275
N1 N 0.3485(5) -0.2847(3) -0.1208(3)
O1 O 0.2537(4) -0.2675(3) 0.0284(2)
O2 O 0.4959(4) -0.0241(3) 0.0101(2)
O3 O 0.5741(4) -0.0380(3) 0.1004(2)
O4 O 0.2506(4) 0.0227(3) 0.1253(2)
O5 O 0.2702(4) 0.1088(3) 0.1920(2)
O6 O 0.0632(4) 0.1512(3) 0.1655(2)
O7 O -0.0179(8) 0.1406(6) 0.2557(4)
O8 O 0.3267(4) 0.2128(3) 0.1790(2)
O9 O -0.0791(6) 0.2753(5) 0.1495(4)
O10 O 0.0454(5) 0.2907(3) 0.2171(3)
O11 O 0.1922(5) 0.3716(3) 0.1568(3)
O12 O 0.2227(11) 0.4289(4) 0.2436(4)
O13 O 0.4935(6) 0.2897(5) 0.1441(4)
O14 O 0.6006(8) 0.3171(6) 0.2206(5)
O15 O 0.5910(6) 0.1443(4) 0.2633(4)
O16 O 0.5957(10) 0.1020(8) 0.3562(5)
S1 S 0.16635(13) -0.23801(11) -0.15984(7)
C48 C 0.5639(16) 0.4623(10) 0.1359(9)
H56 H 0.5779 0.5069 0.1511
H57 H 0.5498 0.4339 0.1714
C49 C 0.7496(17) 0.4409(8) 0.1338(9)
C50 C 0.830(2) 0.4169(11) 0.0892(11)
H58 H 0.8582 0.4541 0.0670
H59 H 0.7981 0.3867 0.0602
H60 H 0.8838 0.3945 0.1115
O17 O 0.7569(13) 0.4602(7) 0.1851(7)
O18 O 0.6546(12) 0.4369(7) 0.1009(7)
C51 C 0.4722(19) 0.4632(15) 0.0931(12)
H61 H 0.4919 0.4828 0.0541
H62 H 0.4174 0.4889 0.1115
H63 H 0.4485 0.4186 0.0863
C52 C 0.4494(17) 0.2962(9) -0.0163(7)
H64 H 0.3793 0.3125 -0.0161
H65 H 0.4766 0.2982 -0.0579
H66 H 0.4914 0.3232 0.0107
C53 C 0.4509(12) 0.2253(8) 0.0062(6)
C54 C 0.5670(13) 0.1309(8) 0.0186(8)
H67 H 0.5462 0.1246 0.0616
H68 H 0.5246 0.1020 -0.0072
C55 C 0.6734(14) 0.1132(10) 0.0116(8)
H69 H 0.7161 0.1516 0.0186
H70 H 0.6850 0.0967 -0.0297
H71 H 0.6908 0.0793 0.0413
O19 O 0.5497(7) 0.1997(5) 0.0007(4)
O20 O 0.3852(9) 0.1927(7) 0.0265(5)
loop_
_geom_bond_atom_site_label_1
_geom_bond_atom_site_label_2
_geom_bond_site_symmetry_1
_geom_bond_site_symmetry_2
C1 H1 1_555 1_555
C2 C1 1_555 1_555
H2 C2 1_555 1_555
H3 C2 1_555 1_555
C3 C1 1_555 1_555
H4 C3 1_555 1_555
C4 C3 1_555 1_555
H5 C4 1_555 1_555
H6 C4 1_555 1_555
C5 C4 1_555 1_555
H7 C5 1_555 1_555
C6 C5 1_555 1_555
C7 C6 1_555 1_555
H8 C7 1_555 1_555
C8 C7 1_555 1_555
C9 C3 1_555 1_555
C10 C6 1_555 1_555
C11 C1 1_555 1_555
H9 C11 1_555 1_555
H10 C11 1_555 1_555
H11 C11 1_555 1_555
C12 C7 1_555 1_555
H12 C12 1_555 1_555
H13 C12 1_555 1_555
C13 C12 1_555 1_555
H14 C13 1_555 1_555
H15 C13 1_555 1_555
C14 C13 1_555 1_555
C15 C10 1_555 1_555
C16 C6 1_555 1_555
H16 C16 1_555 1_555
H17 C16 1_555 1_555
H18 C16 1_555 1_555
C17 C15 1_555 1_555
C18 C17 1_555 1_555
H19 C18 1_555 1_555
H20 C18 1_555 1_555
C19 C10 1_555 1_555
H21 C19 1_555 1_555
H22 C19 1_555 1_555
C20 C14 1_555 1_555
H23 C20 1_555 1_555
C21 C17 1_555 1_555
H24 C21 1_555 1_555
H25 C21 1_555 1_555
C22 C20 1_555 1_555
H26 C22 1_555 1_555
C23 C17 1_555 1_555
C24 C23 1_555 1_555
H27 C24 1_555 1_555
C25 C24 1_555 1_555
H28 C25 1_555 1_555
C26 C25 1_555 1_555
H29 C26 1_555 1_555
C27 C25 1_555 1_555
C28 C27 1_555 1_555
H30 C28 1_555 1_555
C29 C24 1_555 1_555
H31 C29 1_555 1_555
C30 C23 1_555 1_555
C31 C27 1_555 1_555
H32 C31 1_555 1_555
H33 C31 1_555 1_555
C32 C33 1_555 1_555
C33 H34 1_555 1_555
H35 C33 1_555 1_555
H36 C33 1_555 1_555
C34 H37 1_555 1_555
C35 C34 1_555 1_555
H38 C35 1_555 1_555
C36 C35 1_555 1_555
H39 C36 1_555 1_555
C37 C36 1_555 1_555
H40 C37 1_555 1_555
C38 C37 1_555 1_555
H41 C38 1_555 1_555
C39 C40 1_555 1_555
C40 H42 1_555 1_555
H43 C40 1_555 1_555
H44 C40 1_555 1_555
C41 C42 1_555 1_555
C42 H45 1_555 1_555
H46 C42 1_555 1_555
H47 C42 1_555 1_555
C43 C44 1_555 1_555
C44 H48 1_555 1_555
H49 C44 1_555 1_555
H50 C44 1_555 1_555
C45 C38 1_555 1_555
H51 C45 1_555 1_555
H52 C45 1_555 1_555
C46 C47 1_555 1_555
C47 H53 1_555 1_555
H54 C47 1_555 1_555
H55 C47 1_555 1_555
N1 C2 1_555 1_555
O1 C9 1_555 1_555
O2 C30 1_555 1_555
O3 C29 1_555 1_555
O4 C22 1_555 1_555
O5 C26 1_555 1_555
O6 C35 1_555 1_555
O7 C43 1_555 1_555
O8 C34 1_555 1_555
O9 C41 1_555 1_555
O10 C36 1_555 1_555
O11 C37 1_555 1_555
O12 C39 1_555 1_555
O13 C45 1_555 1_555
O14 C46 1_555 1_555
O15 C31 1_555 1_555
O16 C32 1_555 1_555
S1 C8 1_555 1_555
C48 H56 1_555 1_555
H57 C48 1_555 1_555
C49 C50 1_555 1_555
C50 H58 1_555 1_555
H59 C50 1_555 1_555
H60 C50 1_555 1_555
O17 C49 1_555 1_555
O18 C48 1_555 1_555
C51 C48 1_555 1_555
H61 C51 1_555 1_555
H62 C51 1_555 1_555
H63 C51 1_555 1_555
C52 H64 1_555 1_555
H65 C52 1_555 1_555
H66 C52 1_555 1_555
C53 C52 1_555 1_555
C54 H67 1_555 1_555
H68 C54 1_555 1_555
C55 C54 1_555 1_555
H69 C55 1_555 1_555
H70 C55 1_555 1_555
H71 C55 1_555 1_555
O19 C53 1_555 1_555
O20 C53 1_555 1_555
C5 N1 1_555 1_555
C8 N1 1_555 1_555
C9 C10 1_555 1_555
C14 C15 1_555 1_555
C18 C19 1_555 1_555
C20 C21 1_555 1_555
C22 C23 1_555 1_555
C26 O4 1_555 1_555
C28 C29 1_555 1_555
C30 O3 1_555 1_555
C32 O15 1_555 1_555
C34 O5 1_555 1_555
C38 O8 1_555 1_555
C39 O11 1_555 1_555
C41 O10 1_555 1_555
C43 O6 1_555 1_555
C46 O13 1_555 1_555
C49 O18 1_555 1_555
C54 O19 1_555 1_555

#END
