
#######################################################################
#
#                 Cambridge Crystallographic Data Centre
#                                CCDC 
#
#######################################################################
#
# If this CIF has been generated from an entry in the Cambridge 
# Structural Database, then it will include bibliographic, chemical, 
# crystal, experimental, refinement or atomic coordinate data resulting 
# from the CCDC's data processing and validation procedures.
#
#######################################################################

data_NEWGON
_chemical_formula_moiety         'C7 H7 F3 I1 N3 S1'
_chemical_name_systematic        
5-(Iodomethyl)-3-(trifluoromethyl)-6,7-dihydro-5H-[1,2,4]triazolo[3,4-b][1,3]thiazine
_symmetry_cell_setting           monoclinic
_symmetry_space_group_name_H-M   'P 21/n'
_symmetry_Int_Tables_number      14
_space_group_name_Hall           '-P 2yn'
loop_
_symmetry_equiv_pos_site_id
_symmetry_equiv_pos_as_xyz
1 x,y,z
2 1/2-x,1/2+y,1/2-z
3 -x,-y,-z
4 1/2+x,1/2-y,1/2+z
_cell_length_a                   8.2692(11)
_cell_length_b                   15.452(2)
_cell_length_c                   8.9783(11)
_cell_angle_alpha                90
_cell_angle_beta                 111.754(12)
_cell_angle_gamma                90
_cell_volume                     1065.51
_exptl_crystal_colour            colorless
_exptl_crystal_description       prism
_cell_formula_units_Z            4
loop_
_atom_site_label
_atom_site_type_symbol
_atom_site_fract_x
_atom_site_fract_y
_atom_site_fract_z
I1 I 0.62142(3) 0.104681(16) 0.93471(2)
S1 S -0.12729(11) 0.09944(7) 0.61903(14)
C1 C 0.0616(4) 0.1099(2) 0.8016(4)
H1 H 0.0244 0.1245 0.8891
H2 H 0.1219 0.0548 0.8265
N1 N 0.0011(4) 0.1257(2) 0.2508(3)
F1 F 0.2726(4) 0.1871(2) 0.1843(3)
N2 N -0.1161(4) 0.10846(19) 0.3243(4)
F2 F 0.4184(3) 0.21350(16) 0.4287(2)
C2 C 0.1857(4) 0.1788(2) 0.7881(3)
H3 H 0.2737 0.1891 0.8936
H4 H 0.1216 0.2323 0.7524
N3 N 0.1401(3) 0.13700(16) 0.5123(3)
F3 F 0.4043(4) 0.08614(18) 0.3458(4)
C3 C 0.2761(4) 0.1557(2) 0.6731(3)
H5 H 0.3434 0.2061 0.6630
C4 C 0.3989(4) 0.0779(2) 0.7236(3)
H6 H 0.4369 0.0626 0.6369
H7 H 0.3366 0.0288 0.7434
C5 C 0.1487(4) 0.1424(2) 0.3634(4)
C6 C 0.3106(5) 0.1581(3) 0.3300(4)
C7 C -0.0303(4) 0.1150(2) 0.4795(4)
loop_
_geom_bond_atom_site_label_1
_geom_bond_atom_site_label_2
_geom_bond_site_symmetry_1
_geom_bond_site_symmetry_2
I1 C4 1_555 1_555
S1 C1 1_555 1_555
C1 H1 1_555 1_555
H2 C1 1_555 1_555
N1 N2 1_555 1_555
F1 C6 1_555 1_555
N2 C7 1_555 1_555
F2 C6 1_555 1_555
C2 C1 1_555 1_555
H3 C2 1_555 1_555
H4 C2 1_555 1_555
N3 C3 1_555 1_555
F3 C6 1_555 1_555
C3 C2 1_555 1_555
H5 C3 1_555 1_555
C4 C3 1_555 1_555
H6 C4 1_555 1_555
H7 C4 1_555 1_555
C5 N1 1_555 1_555
C6 C5 1_555 1_555
C7 S1 1_555 1_555
N3 C5 1_555 1_555
N3 C7 1_555 1_555

#END
