
#######################################################################
#
#                 Cambridge Crystallographic Data Centre
#                                CCDC 
#
#######################################################################
#
# If this CIF has been generated from an entry in the Cambridge 
# Structural Database, then it will include bibliographic, chemical, 
# crystal, experimental, refinement or atomic coordinate data resulting 
# from the CCDC's data processing and validation procedures.
#
#######################################################################

data_NEWLUW
_chemical_compound_source        'roots of Dalaea filiciformis'
_chemical_formula_moiety         'C24 H22 O7'
_chemical_name_systematic        'Daleformis diacetate'
_chemical_properties_biological  'agent inhibiting endothelin converting enzyme'
_symmetry_cell_setting           monoclinic
_symmetry_space_group_name_H-M   'P 21'
_symmetry_Int_Tables_number      4
_space_group_name_Hall           'P 2yb'
loop_
_symmetry_equiv_pos_site_id
_symmetry_equiv_pos_as_xyz
1 x,y,z
2 -x,1/2+y,-z
_cell_length_a                   9.639(2)
_cell_length_b                   5.386(2)
_cell_length_c                   19.363(4)
_cell_angle_alpha                90
_cell_angle_beta                 92.28(2)
_cell_angle_gamma                90
_cell_volume                     1004.45
_exptl_crystal_colour            colorless
_cell_formula_units_Z            2
_exptl_crystal_recrystallization_method methanol
loop_
_atom_site_label
_atom_site_type_symbol
_atom_site_fract_x
_atom_site_fract_y
_atom_site_fract_z
O1 O -0.4565(2) 1.2566(5) 0.3048(1)
O2 O 0.0354(2) 1.1972(5) 0.2964(1)
O3 O 0.1151(2) 0.8252(4) 0.3437(1)
O4 O 0.2160(3) 1.5927(5) 0.0106(1)
O5 O 0.0104(3) 0.8849(5) 0.1196(1)
O6 O 0.1914(3) 1.0755(5) 0.4307(1)
O7 O 0.3977(3) 1.4117(6) -0.0395(1)
C1 C -0.2437(4) 0.8408(7) 0.2067(2)
C2 C -0.3582(4) 0.9522(7) 0.2341(2)
C3 C -0.3401(3) 1.1436(7) 0.2807(2)
C4 C -0.2074(4) 1.2290(7) 0.3012(2)
C5 C -0.0945(3) 1.1071(7) 0.2736(2)
C6 C 0.1966(4) 1.0929(7) 0.1716(2)
C7 C 0.1425(4) 1.0185(7) 0.2946(2)
C8 C 0.2989(4) 1.2704(7) 0.1738(2)
C9 C 0.3088(4) 1.4321(8) 0.1184(2)
C10 C 0.2157(4) 1.4105(8) 0.0623(2)
C11 C 0.1129(4) 1.2312(7) 0.0582(2)
C12 C 0.1062(4) 1.0736(7) 0.1140(2)
C13 C 0.1553(4) 0.9025(8) 0.2243(2)
C14 C 0.0152(4) 0.8054(7) 0.1923(2)
C15 C -0.1087(4) 0.9159(7) 0.2259(2)
C16 C -0.1958(4) 1.4445(7) 0.3460(2)
C17 C -0.3064(4) 1.5293(7) 0.3766(2)
C18 C -0.4434(4) 1.3968(7) 0.3698(2)
C19 C -0.4590(4) 1.2165(8) 0.4295(2)
C20 C -0.5644(4) 1.5761(8) 0.3647(2)
C21 C 0.1405(3) 0.8812(7) 0.4117(2)
C22 C 0.0983(4) 0.6771(8) 0.4579(2)
C23 C 0.3182(4) 1.5806(8) -0.0365(2)
C24 C 0.3121(5) 1.8091(8) -0.0804(2)
H1 H -0.2567(4) 0.7118(7) 0.1744(2)
H2 H -0.4481(4) 0.8976(7) 0.2210(2)
H3 H 0.2317(4) 1.0993(7) 0.3083(2)
H4 H 0.3612(4) 1.2824(7) 0.2123(2)
H5 H 0.3780(4) 1.5550(8) 0.1189(2)
H6 H 0.0512(4) 1.2178(7) 0.0195(2)
H7 H 0.2243(4) 0.7663(8) 0.2268(2)
H8 H 0.0120(4) 0.6220(7) 0.1952(2)
H9 H -0.1096(4) 1.5237(7) 0.3533(2)
H10 H -0.2992(4) 1.6753(7) 0.4031(2)
H11 H -0.4495(23) 1.3057(10) 0.4730(2)
H12 H -0.3876(15) 1.0898(24) 0.4279(7)
H13 H -0.5498(10) 1.1389(31) 0.4257(7)
H14 H -0.5693(14) 1.6682(30) 0.4076(5)
H15 H -0.6500(4) 1.4842(9) 0.3564(11)
H16 H -0.5514(12) 1.6907(27) 0.3269(8)
H17 H -0.0019(4) 0.6776(25) 0.4610(9)
H18 H 0.1414(18) 0.7009(23) 0.5035(3)
H19 H 0.1278(19) 0.5193(8) 0.4392(6)
H20 H 0.2188(8) 1.8294(26) -0.1003(10)
H21 H 0.3770(19) 1.7935(20) -0.1171(8)
H22 H 0.3365(24) 1.9526(9) -0.0522(3)
loop_
_geom_bond_atom_site_label_1
_geom_bond_atom_site_label_2
_geom_bond_site_symmetry_1
_geom_bond_site_symmetry_2
O1 C3 1_555 1_555
O2 C5 1_555 1_555
O3 C7 1_555 1_555
O4 C10 1_555 1_555
O5 C12 1_555 1_555
O6 C21 1_555 1_555
O7 C23 1_555 1_555
C1 C2 1_555 1_555
C2 C3 1_555 1_555
C3 C4 1_555 1_555
C4 C5 1_555 1_555
C5 C15 1_555 1_555
C6 C8 1_555 1_555
C7 O2 1_555 1_555
C8 C9 1_555 1_555
C9 C10 1_555 1_555
C10 C11 1_555 1_555
C11 C12 1_555 1_555
C12 C6 1_555 1_555
C13 C6 1_555 1_555
C14 O5 1_555 1_555
C15 C1 1_555 1_555
C16 C4 1_555 1_555
C17 C16 1_555 1_555
C18 O1 1_555 1_555
C19 C18 1_555 1_555
C20 C18 1_555 1_555
C21 O3 1_555 1_555
C22 C21 1_555 1_555
C23 O4 1_555 1_555
C24 C23 1_555 1_555
H1 C1 1_555 1_555
H2 C2 1_555 1_555
H3 C7 1_555 1_555
H4 C8 1_555 1_555
H5 C9 1_555 1_555
H6 C11 1_555 1_555
H7 C13 1_555 1_555
H8 C14 1_555 1_555
H9 C16 1_555 1_555
H10 C17 1_555 1_555
H11 C19 1_555 1_555
H12 C19 1_555 1_555
H13 C19 1_555 1_555
H14 C20 1_555 1_555
H15 C20 1_555 1_555
H16 C20 1_555 1_555
H17 C22 1_555 1_555
H18 C22 1_555 1_555
H19 C22 1_555 1_555
H20 C24 1_555 1_555
H21 C24 1_555 1_555
H22 C24 1_555 1_555
C7 C13 1_555 1_555
C13 C14 1_555 1_555
C14 C15 1_555 1_555
C17 C18 1_555 1_555

#END
