
#######################################################################
#
#                 Cambridge Crystallographic Data Centre
#                                CCDC 
#
#######################################################################
#
# If this CIF has been generated from an entry in the Cambridge 
# Structural Database, then it will include bibliographic, chemical, 
# crystal, experimental, refinement or atomic coordinate data resulting 
# from the CCDC's data processing and validation procedures.
#
#######################################################################

data_NEWNIN
_chemical_formula_moiety         'C28 H26 N4 O4 S1,C1 H4 O1'
_chemical_name_systematic        
'(+-)-N-(5-(5-Methoxy-1H-indol-3-yl)-1-oxo-1,2,3,4,5,10-hexahydroazepino(3,4-b)indol-4-yl)tosylamide methanol solvate'
_symmetry_cell_setting           monoclinic
_symmetry_space_group_name_H-M   'P 21/c'
_symmetry_Int_Tables_number      14
_space_group_name_Hall           '-P 2ybc'
loop_
_symmetry_equiv_pos_site_id
_symmetry_equiv_pos_as_xyz
1 x,y,z
2 -x,1/2+y,1/2-z
3 -x,-y,-z
4 x,1/2-y,1/2+z
_cell_length_a                   13.641(3)
_cell_length_b                   16.424(3)
_cell_length_c                   12.005(2)
_cell_angle_alpha                90
_cell_angle_beta                 94.29(3)
_cell_angle_gamma                90
_cell_volume                     2682.06
_exptl_crystal_colour            colorless
_exptl_crystal_description       prism
_cell_formula_units_Z            4
loop_
_atom_site_label
_atom_site_type_symbol
_atom_site_fract_x
_atom_site_fract_y
_atom_site_fract_z
O1 O 0.3377(4) 0.0960(4) 0.3784(5)
C1 C 0.3004(5) 0.0342(4) 0.3131(5)
C3 C 0.50597(17) 0.06219(14) -0.11837(19)
C4 C 0.47466(16) 0.12727(14) -0.04559(19)
C5 C 0.52033(16) 0.19172(14) 0.01096(19)
C6 C 0.62599(16) 0.21952(14) 0.0162(2)
H1 H 0.6467 0.2279 0.0954
C7 C 0.69653(16) 0.15665(15) -0.0281(2)
H2 H 0.7603 0.1838 -0.0302
C8 C 0.66683(18) 0.12925(16) -0.1478(2)
H3 H 0.6406 0.1758 -0.1899
H4 H 0.7253 0.1113 -0.1820
C9 C 0.44662(17) 0.23091(14) 0.07049(19)
C10 C 0.44616(19) 0.29913(16) 0.1409(2)
H5 H 0.5033 0.3291 0.1571
C11 C 0.3607(2) 0.32069(18) 0.1850(2)
H6 H 0.3603 0.3657 0.2320
C12 C 0.2741(2) 0.27705(19) 0.1616(2)
H7 H 0.2171 0.2933 0.1934
C13 C 0.27149(19) 0.21044(17) 0.0925(2)
H8 H 0.2137 0.1813 0.0763
C14 C 0.35828(17) 0.18816(15) 0.0477(2)
C15 C 0.5785(2) 0.33070(16) -0.1288(2)
H9 H 0.5224 0.3053 -0.1611
C16 C 0.63700(17) 0.30047(15) -0.0413(2)
C17 C 0.71453(17) 0.35836(14) -0.0185(2)
C18 C 0.79739(18) 0.36119(15) 0.0584(2)
H10 H 0.8088 0.3206 0.1119
C19 C 0.8610(2) 0.42550(18) 0.0523(3)
C20 C 0.8445(2) 0.48768(18) -0.0269(3)
H11 H 0.8894 0.5302 -0.0291
C21 C 0.7639(2) 0.48662(17) -0.1005(3)
H12 H 0.7527 0.5281 -0.1526
C22 C 0.69818(19) 0.42170(16) -0.0960(2)
C23 C 0.9690(2) 0.3802(2) 0.2055(3)
H13 H 1.0300 0.3954 0.2451
H14 H 0.9750 0.3267 0.1746
H15 H 0.9176 0.3803 0.2559
C24 C 0.88912(17) 0.10085(15) 0.1601(2)
C25 C 0.98905(19) 0.08862(19) 0.1658(3)
H16 H 1.0168 0.0538 0.1157
C26 C 1.0481(2) 0.1290(2) 0.2475(3)
H17 H 1.1157 0.1205 0.2521
C27 C 1.0087(2) 0.1812(2) 0.3217(3)
C28 C 0.9097(2) 0.19306(19) 0.3127(2)
H18 H 0.8822 0.2290 0.3614
C29 C 0.84857(19) 0.15325(16) 0.2331(2)
H19 H 0.7810 0.1618 0.2292
C30 C 1.0740(3) 0.2239(3) 0.4112(3)
H20 H 1.0345 0.2581 0.4549
H21 H 1.1215 0.2566 0.3767
H22 H 1.1073 0.1840 0.4588
N1 N 0.59475(16) 0.06427(14) -0.1572(2)
H23 H 0.606(2) 0.026(2) -0.193(3)
N2 N 0.71175(16) 0.08796(14) 0.0484(2)
H24 H 0.6709(17) 0.0674(15) 0.072(2)
N3 N 0.61456(17) 0.40387(15) -0.1621(2)
H25 H 0.5862(19) 0.4360(17) -0.214(2)
N4 N 0.37757(15) 0.12564(13) -0.02176(19)
H26 H 0.3389(17) 0.0970(15) -0.050(2)
O3 O 0.44810(12) 0.00497(10) -0.14329(15)
O4 O 0.94624(15) 0.43579(14) 0.1195(2)
O5 O 0.79684(13) -0.03474(11) 0.11466(18)
O6 O 0.86204(13) 0.04337(14) -0.03901(16)
S1 S 0.81548(5) 0.04231(4) 0.06362(6)
O2? O 0.3610(6) 0.0827(5) 0.2762(7)
C2? C 0.3643(8) 0.0269(6) 0.3642(8)
loop_
_geom_bond_atom_site_label_1
_geom_bond_atom_site_label_2
_geom_bond_site_symmetry_1
_geom_bond_site_symmetry_2
O1 C1 1_555 1_555
C3 C4 1_555 1_555
C4 C5 1_555 1_555
C5 C6 1_555 1_555
C6 H1 1_555 1_555
C7 C6 1_555 1_555
H2 C7 1_555 1_555
C8 C7 1_555 1_555
H3 C8 1_555 1_555
H4 C8 1_555 1_555
C9 C5 1_555 1_555
C10 C9 1_555 1_555
H5 C10 1_555 1_555
C11 C10 1_555 1_555
H6 C11 1_555 1_555
C12 C11 1_555 1_555
H7 C12 1_555 1_555
C13 C12 1_555 1_555
H8 C13 1_555 1_555
C14 C9 1_555 1_555
C15 H9 1_555 1_555
C16 C6 1_555 1_555
C17 C16 1_555 1_555
C18 C17 1_555 1_555
H10 C18 1_555 1_555
C19 C18 1_555 1_555
C20 C19 1_555 1_555
H11 C20 1_555 1_555
C21 C20 1_555 1_555
H12 C21 1_555 1_555
C22 C17 1_555 1_555
C23 H13 1_555 1_555
H14 C23 1_555 1_555
H15 C23 1_555 1_555
C24 C25 1_555 1_555
C25 H16 1_555 1_555
C26 C25 1_555 1_555
H17 C26 1_555 1_555
C27 C26 1_555 1_555
C28 C27 1_555 1_555
H18 C28 1_555 1_555
C29 C24 1_555 1_555
H19 C29 1_555 1_555
C30 C27 1_555 1_555
H20 C30 1_555 1_555
H21 C30 1_555 1_555
H22 C30 1_555 1_555
N1 C3 1_555 1_555
H23 N1 1_555 1_555
N2 C7 1_555 1_555
H24 N2 1_555 1_555
N3 C15 1_555 1_555
H25 N3 1_555 1_555
N4 C4 1_555 1_555
H26 N4 1_555 1_555
O3 C3 1_555 1_555
O4 C19 1_555 1_555
O5 S1 1_555 1_555
O6 S1 1_555 1_555
S1 C24 1_555 1_555
C8 N1 1_555 1_555
C13 C14 1_555 1_555
C14 N4 1_555 1_555
C15 C16 1_555 1_555
C21 C22 1_555 1_555
C22 N3 1_555 1_555
C23 O4 1_555 1_555
C28 C29 1_555 1_555
N2 S1 1_555 1_555

#END
