
#######################################################################
#
#                 Cambridge Crystallographic Data Centre
#                                CCDC 
#
#######################################################################
#
# If this CIF has been generated from an entry in the Cambridge 
# Structural Database, then it will include bibliographic, chemical, 
# crystal, experimental, refinement or atomic coordinate data resulting 
# from the CCDC's data processing and validation procedures.
#
#######################################################################

data_NEXBIE
_chemical_formula_moiety         'C9 H13 B10 I1 O1'
_chemical_name_systematic        
1,4-(2-formylphenyl)-12-iodo-1,2-dicarba-closo-dodecaborane(9)
_symmetry_cell_setting           monoclinic
_symmetry_space_group_name_H-M   'P 21'
_symmetry_Int_Tables_number      4
_space_group_name_Hall           'P 2yb'
loop_
_symmetry_equiv_pos_site_id
_symmetry_equiv_pos_as_xyz
1 x,y,z
2 -x,1/2+y,-z
_cell_length_a                   9.104(3)
_cell_length_b                   7.3271(16)
_cell_length_c                   11.901(3)
_cell_angle_alpha                90
_cell_angle_beta                 106.709(10)
_cell_angle_gamma                90
_cell_volume                     760.348
_exptl_crystal_colour            colorless
_exptl_crystal_description       block
_cell_formula_units_Z            2
loop_
_atom_site_label
_atom_site_type_symbol
_atom_site_fract_x
_atom_site_fract_y
_atom_site_fract_z
I1 I 0.34967(5) 0.14425(12) 0.03371(4)
O1 O 0.2201(8) 0.9163(7) 0.4328(6)
C1 C 0.3482(8) 0.6834(10) 0.2477(6)
H1 H 0.4059 0.8162 0.2519
C2 C 0.2347(6) 0.6385(14) 0.3286(4)
C3 C 0.2198(8) 0.7549(11) 0.4310(7)
C4 C 0.2077(6) 0.6242(13) 0.5242(5)
C5 C 0.1915(8) 0.6824(10) 0.6317(7)
H2 H 0.1795 0.8054 0.6460
C6 C 0.1937(9) 0.5545(11) 0.7149(7)
H3 H 0.1864 0.5908 0.7880
C7 C 0.2067(8) 0.3707(11) 0.6920(6)
H4 H 0.2066 0.2849 0.7495
C8 C 0.2200(8) 0.3128(9) 0.5837(6)
H5 H 0.2265 0.1891 0.5684
C9 C 0.2234(7) 0.4413(9) 0.4993(6)
B1 B 0.1499(10) 0.6781(13) 0.1821(7)
H6 H 0.0775 0.7961 0.1449
B2 B 0.2855(11) 0.5784(11) 0.1164(7)
H7 H 0.3001 0.6322 0.0339
B3 B 0.4451(9) 0.4948(12) 0.2281(7)
H8 H 0.5612 0.4945 0.2175
B4 B 0.4124(9) 0.5387(11) 0.3649(7)
H9 H 0.5074 0.5688 0.4438
B5 B 0.0878(8) 0.5004(10) 0.2585(7)
H10 H -0.0283 0.5034 0.2691
B6 B 0.1179(9) 0.4567(11) 0.1217(7)
H11 H 0.0230 0.4299 0.0422
B7 B 0.2977(9) 0.3446(11) 0.1513(7)
B8 B 0.3778(9) 0.3185(11) 0.3063(6)
H12 H 0.4505 0.2022 0.3464
B9 B 0.2444(8) 0.4187(10) 0.3728(6)
B10 B 0.1759(8) 0.2921(10) 0.2401(6)
H13 H 0.1192 0.1589 0.2374
loop_
_geom_bond_atom_site_label_1
_geom_bond_atom_site_label_2
_geom_bond_site_symmetry_1
_geom_bond_site_symmetry_2
I1 B7 1_555 1_555
O1 C3 1_555 1_555
C1 H1 1_555 1_555
C2 C1 1_555 1_555
C3 C2 1_555 1_555
C4 C3 1_555 1_555
C5 C4 1_555 1_555
H2 C5 1_555 1_555
C6 C5 1_555 1_555
H3 C6 1_555 1_555
C7 C6 1_555 1_555
H4 C7 1_555 1_555
C8 C7 1_555 1_555
H5 C8 1_555 1_555
C9 C4 1_555 1_555
B1 C1 1_555 1_555
H6 B1 1_555 1_555
B2 C1 1_555 1_555
H7 B2 1_555 1_555
B3 C1 1_555 1_555
H8 B3 1_555 1_555
B4 C1 1_555 1_555
H9 B4 1_555 1_555
B5 C2 1_555 1_555
H10 B5 1_555 1_555
B6 B1 1_555 1_555
H11 B6 1_555 1_555
B7 B2 1_555 1_555
B8 B3 1_555 1_555
H12 B8 1_555 1_555
B9 C2 1_555 1_555
B10 B5 1_555 1_555
H13 B10 1_555 1_555
C2 B1 1_555 1_555
C2 B4 1_555 1_555
C8 C9 1_555 1_555
C9 B9 1_555 1_555
B1 B2 1_555 1_555
B1 B5 1_555 1_555
B2 B3 1_555 1_555
B2 B6 1_555 1_555
B3 B4 1_555 1_555
B3 B7 1_555 1_555
B4 B8 1_555 1_555
B4 B9 1_555 1_555
B5 B6 1_555 1_555
B5 B9 1_555 1_555
B6 B7 1_555 1_555
B6 B10 1_555 1_555
B7 B8 1_555 1_555
B7 B10 1_555 1_555
B8 B9 1_555 1_555
B8 B10 1_555 1_555
B9 B10 1_555 1_555

#END
