
#######################################################################
#
#                 Cambridge Crystallographic Data Centre
#                                CCDC 
#
#######################################################################
#
# If this CIF has been generated from an entry in the Cambridge 
# Structural Database, then it will include bibliographic, chemical, 
# crystal, experimental, refinement or atomic coordinate data resulting 
# from the CCDC's data processing and validation procedures.
#
#######################################################################

data_NEYJOT
_chemical_formula_moiety         'C18 H14 N2,1.5(C6 H4 Cl2 O2)'
_chemical_name_systematic        
'trans-1-(2-pyridyl)-2-(4-(4-phenyl)pyridyl)ethylene sesquikis(4,6-dichlororesorcinol)'
_symmetry_cell_setting           triclinic
_symmetry_space_group_name_H-M   'P -1'
_symmetry_Int_Tables_number      2
_space_group_name_Hall           '-P 1'
loop_
_symmetry_equiv_pos_site_id
_symmetry_equiv_pos_as_xyz
1 x,y,z
2 -x,-y,-z
_cell_length_a                   11.060(2)
_cell_length_b                   11.180(2)
_cell_length_c                   21.621(4)
_cell_angle_alpha                85.64(3)
_cell_angle_beta                 80.41(3)
_cell_angle_gamma                65.33(3)
_cell_volume                     2395.43
_exptl_crystal_colour            'pale yellow'
_exptl_crystal_description       needle
_cell_formula_units_Z            4
_exptl_crystal_recrystallization_method 
'Re-crystallisation from solvent: Acetonitrile'
loop_
_atom_site_label
_atom_site_type_symbol
_atom_site_fract_x
_atom_site_fract_y
_atom_site_fract_z
Cl1 Cl 0.14956(7) -0.30963(7) 1.02853(4)
Cl2 Cl -0.08032(7) 0.07681(7) 1.20037(3)
O1 O 0.0500(2) 0.21508(19) 1.11330(10)
H1 H 0.101(3) 0.243(3) 1.0879(15)
O2 O 0.2616(2) -0.1342(2) 0.96135(10)
H2 H 0.294(3) -0.083(3) 0.9415(16)
C1 C 0.1209(2) -0.1540(2) 1.05285(13)
C2 C 0.0397(2) -0.1054(3) 1.10894(13)
H3 H 0.0000 -0.1566 1.1342
C3 C 0.0167(2) 0.0186(3) 1.12818(13)
C4 C 0.0743(3) 0.0948(3) 1.09163(13)
C5 C 0.1551(3) 0.0436(3) 1.03540(13)
H4 H 0.1940 0.0952 1.0099
C6 C 0.1808(3) -0.0808(3) 1.01515(13)
Cl3 Cl 0.31338(7) 0.69741(7) 0.45647(3)
Cl4 Cl 0.06214(6) 1.08193(7) 0.62868(3)
O3 O 0.33580(18) 1.03504(17) 0.64596(9)
H5 H 0.422(3) 1.009(3) 0.6548(14)
O4 O 0.55995(17) 0.69411(18) 0.49218(9)
H6 H 0.640(3) 0.682(3) 0.5093(16)
C7 C 0.3214(2) 0.7994(2) 0.51105(12)
C8 C 0.2043(2) 0.8927(2) 0.54210(12)
H7 H 0.1196 0.9030 0.5327
C9 C 0.2102(2) 0.9712(2) 0.58681(12)
C10 C 0.3332(2) 0.9583(2) 0.60107(12)
C11 C 0.4496(2) 0.8661(2) 0.56820(12)
H8 H 0.5344 0.8583 0.5764
C12 C 0.4459(2) 0.7851(2) 0.52374(12)
Cl5 Cl 0.99773(7) 0.56232(7) 0.18042(4)
Cl6 Cl 0.74565(7) 0.28640(7) 0.31911(4)
O5 O 0.63736(18) 0.50620(19) 0.40212(9)
H9 H 0.605(4) 0.578(4) 0.4273(17)
O6 O 0.85532(19) 0.7591(2) 0.27758(10)
H10 H 0.807(3) 0.821(3) 0.3036(16)
C13 C 0.8896(2) 0.5481(3) 0.24624(13)
C14 C 0.8647(2) 0.4363(2) 0.25480(13)
H11 H 0.9059 0.3676 0.2249
C15 C 0.7794(2) 0.4251(2) 0.30720(13)
C16 C 0.7182(2) 0.5255(3) 0.35160(12)
C17 C 0.7431(2) 0.6380(3) 0.34180(13)
H12 H 0.7011 0.7073 0.3714
C18 C 0.8286(2) 0.6503(3) 0.28925(13)
N1 N 0.3842(3) 0.0179(2) 0.89611(12)
N2 N 0.7775(2) 0.6618(2) 0.53614(11)
C19 C 0.3418(3) 0.0811(3) 0.84380(16)
H13 H 0.2630 0.0803 0.8322
C20 C 0.4067(3) 0.1475(3) 0.80561(14)
H14 H 0.3718 0.1907 0.7688
C21 C 0.5223(2) 0.1522(2) 0.82012(12)
C22 C 0.5665(3) 0.0858(3) 0.87443(14)
H15 H 0.6451 0.0849 0.8872
C23 C 0.4959(3) 0.0212(3) 0.90977(15)
H16 H 0.5292 -0.0242 0.9465
C24 C 0.5937(2) 0.2228(3) 0.78052(12)
C25 C 0.5240(3) 0.3335(3) 0.74548(13)
H17 H 0.4295 0.3633 0.7475
C26 C 0.5893(3) 0.4003(3) 0.70819(13)
H18 H 0.5394 0.4745 0.6845
C27 C 0.7282(2) 0.3606(3) 0.70473(12)
C28 C 0.7972(3) 0.2515(3) 0.74032(13)
H19 H 0.8913 0.2232 0.7393
C29 C 0.7319(2) 0.1836(3) 0.77698(13)
H20 H 0.7821 0.1087 0.8002
C30 C 0.8015(3) 0.4291(3) 0.66548(13)
H21 H 0.8930 0.4018 0.6704
C31 C 0.7548(3) 0.5249(3) 0.62378(13)
H22 H 0.6633 0.5535 0.6185
C32 C 0.8321(2) 0.5899(3) 0.58549(13)
C33 C 0.9561(3) 0.5800(3) 0.59701(15)
H23 H 0.9930 0.5316 0.6324
C34 C 1.0255(3) 0.6397(3) 0.55742(15)
H24 H 1.1111 0.6315 0.5646
C35 C 0.9692(3) 0.7114(3) 0.50739(14)
H25 H 1.0146 0.7540 0.4793
C36 C 0.8461(3) 0.7202(3) 0.49872(13)
H26 H 0.8071 0.7707 0.4642
N3 N 0.2009(3) 0.3153(2) 1.03269(13)
N4 N 0.5794(2) 0.9628(2) 0.67191(11)
C37 C 0.1584(3) 0.3687(3) 0.97866(18)
H27 H 0.0767 0.3689 0.9701
C38 C 0.2259(3) 0.4232(3) 0.93471(15)
H28 H 0.1901 0.4610 0.8974
C39 C 0.3468(3) 0.4228(2) 0.94510(14)
C40 C 0.3941(3) 0.3625(3) 0.99998(14)
H29 H 0.4782 0.3559 1.0086
C41 C 0.3184(3) 0.3120(3) 1.04210(15)
H30 H 0.3519 0.2729 1.0798
C42 C 0.4177(3) 0.4887(3) 0.90115(12)
C43 C 0.3454(3) 0.6049(3) 0.87053(13)
H31 H 0.2500 0.6386 0.8762
C44 C 0.4090(3) 0.6715(3) 0.83245(13)
H32 H 0.3571 0.7513 0.8127
C45 C 0.5491(3) 0.6234(3) 0.82231(13)
C46 C 0.6217(3) 0.5062(3) 0.85210(14)
H33 H 0.7172 0.4710 0.8454
C47 C 0.5573(3) 0.4405(3) 0.89104(14)
H34 H 0.6090 0.3614 0.9112
C48 C 0.6213(3) 0.6926(3) 0.78303(14)
H35 H 0.7161 0.6556 0.7817
C49 C 0.5696(3) 0.8011(3) 0.74908(14)
H36 H 0.4752 0.8378 0.7489
C50 C 0.6454(3) 0.8687(3) 0.71199(14)
C51 C 0.7789(3) 0.8414(3) 0.71683(16)
H37 H 0.8244 0.7769 0.7459
C52 C 0.8440(3) 0.9076(3) 0.67976(16)
H38 H 0.9351 0.8883 0.6825
C53 C 0.7768(3) 1.0015(3) 0.63875(15)
H39 H 0.8203 1.0484 0.6125
C54 C 0.6446(3) 1.0268(3) 0.63638(14)
H40 H 0.5976 1.0928 0.6082
loop_
_geom_bond_atom_site_label_1
_geom_bond_atom_site_label_2
_geom_bond_site_symmetry_1
_geom_bond_site_symmetry_2
Cl1 C1 1_555 1_555
Cl2 C3 1_555 1_555
O1 H1 1_555 1_555
O2 H2 1_555 1_555
C1 C2 1_555 1_555
C2 H3 1_555 1_555
C3 C2 1_555 1_555
C4 O1 1_555 1_555
C5 C4 1_555 1_555
H4 C5 1_555 1_555
C6 O2 1_555 1_555
Cl3 C7 1_555 1_555
Cl4 C9 1_555 1_555
O3 H5 1_555 1_555
O4 H6 1_555 1_555
C7 C8 1_555 1_555
C8 H7 1_555 1_555
C9 C8 1_555 1_555
C10 O3 1_555 1_555
C11 C10 1_555 1_555
H8 C11 1_555 1_555
C12 O4 1_555 1_555
Cl5 C13 1_555 1_555
Cl6 C15 1_555 1_555
O5 H9 1_555 1_555
O6 H10 1_555 1_555
C13 C14 1_555 1_555
C14 H11 1_555 1_555
C15 C14 1_555 1_555
C16 O5 1_555 1_555
C17 C16 1_555 1_555
H12 C17 1_555 1_555
C18 O6 1_555 1_555
N1 C19 1_555 1_555
N2 C32 1_555 1_555
C19 H13 1_555 1_555
C20 C19 1_555 1_555
H14 C20 1_555 1_555
C21 C20 1_555 1_555
C22 C21 1_555 1_555
H15 C22 1_555 1_555
C23 N1 1_555 1_555
H16 C23 1_555 1_555
C24 C21 1_555 1_555
C25 C24 1_555 1_555
H17 C25 1_555 1_555
C26 C25 1_555 1_555
H18 C26 1_555 1_555
C27 C26 1_555 1_555
C28 C27 1_555 1_555
H19 C28 1_555 1_555
C29 C24 1_555 1_555
H20 C29 1_555 1_555
C30 C27 1_555 1_555
H21 C30 1_555 1_555
C31 C30 1_555 1_555
H22 C31 1_555 1_555
C32 C31 1_555 1_555
C33 C32 1_555 1_555
H23 C33 1_555 1_555
C34 C33 1_555 1_555
H24 C34 1_555 1_555
C35 C34 1_555 1_555
H25 C35 1_555 1_555
C36 N2 1_555 1_555
H26 C36 1_555 1_555
N3 C37 1_555 1_555
N4 C50 1_555 1_555
C37 H27 1_555 1_555
C38 C37 1_555 1_555
H28 C38 1_555 1_555
C39 C38 1_555 1_555
C40 C39 1_555 1_555
H29 C40 1_555 1_555
C41 N3 1_555 1_555
H30 C41 1_555 1_555
C42 C39 1_555 1_555
C43 C42 1_555 1_555
H31 C43 1_555 1_555
C44 C43 1_555 1_555
H32 C44 1_555 1_555
C45 C44 1_555 1_555
C46 C45 1_555 1_555
H33 C46 1_555 1_555
C47 C42 1_555 1_555
H34 C47 1_555 1_555
C48 C45 1_555 1_555
H35 C48 1_555 1_555
C49 C48 1_555 1_555
H36 C49 1_555 1_555
C50 C49 1_555 1_555
C51 C50 1_555 1_555
H37 C51 1_555 1_555
C52 C51 1_555 1_555
H38 C52 1_555 1_555
C53 C52 1_555 1_555
H39 C53 1_555 1_555
C54 N4 1_555 1_555
H40 C54 1_555 1_555
C1 C6 1_555 1_555
C3 C4 1_555 1_555
C5 C6 1_555 1_555
C7 C12 1_555 1_555
C9 C10 1_555 1_555
C11 C12 1_555 1_555
C13 C18 1_555 1_555
C15 C16 1_555 1_555
C17 C18 1_555 1_555
C22 C23 1_555 1_555
C28 C29 1_555 1_555
C35 C36 1_555 1_555
C40 C41 1_555 1_555
C46 C47 1_555 1_555
C53 C54 1_555 1_555

#END
