
#######################################################################
#
#                 Cambridge Crystallographic Data Centre
#                                CCDC 
#
#######################################################################
#
# If this CIF has been generated from an entry in the Cambridge 
# Structural Database, then it will include bibliographic, chemical, 
# crystal, experimental, refinement or atomic coordinate data resulting 
# from the CCDC's data processing and validation procedures.
#
#######################################################################

data_NEYNEN
_chemical_formula_moiety         'C7 H3 Br1 N2 O2'
_chemical_name_systematic        4-bromo-2-nitrobenzonitrile
_symmetry_cell_setting           triclinic
_symmetry_space_group_name_H-M   'P -1'
_symmetry_Int_Tables_number      2
_space_group_name_Hall           '-P 1'
loop_
_symmetry_equiv_pos_site_id
_symmetry_equiv_pos_as_xyz
1 x,y,z
2 -x,-y,-z
_cell_length_a                   6.954(2)
_cell_length_b                   7.883(2)
_cell_length_c                   8.096(3)
_cell_angle_alpha                108.965(13)
_cell_angle_beta                 99.062(12)
_cell_angle_gamma                107.391(11)
_cell_volume                     384.258
_exptl_crystal_colour            colorless
_exptl_crystal_description       plate
_cell_formula_units_Z            2
_exptl_crystal_recrystallization_method ethanol/hexane
loop_
_atom_site_label
_atom_site_type_symbol
_atom_site_fract_x
_atom_site_fract_y
_atom_site_fract_z
Br1 Br 0.210383(16) 0.912237(15) 0.727138(14)
O1 O 0.33085(14) 0.28313(12) 0.32618(12)
O2 O 0.19026(16) 0.22437(13) 0.04449(12)
N1 N 0.25976(14) 0.32985(13) 0.20712(12)
N2 N 0.29152(17) 0.48532(17) -0.18530(14)
C1 C 0.22767(16) 0.78937(14) 0.49075(14)
C2 C 0.23944(15) 0.60727(14) 0.43751(13)
H1 H 0.2388 0.5427 0.5183
C3 C 0.25209(15) 0.52340(14) 0.26256(13)
C4 C 0.25578(15) 0.61596(15) 0.14128(13)
C5 C 0.24676(16) 0.80059(15) 0.20126(15)
H2 H 0.2514 0.8675 0.1223
C6 C 0.23115(17) 0.88644(15) 0.37540(15)
H3 H 0.2229 1.0108 0.4151
C7 C 0.27477(16) 0.53580(17) -0.03929(14)
loop_
_geom_bond_atom_site_label_1
_geom_bond_atom_site_label_2
_geom_bond_site_symmetry_1
_geom_bond_site_symmetry_2
Br1 C1 1_555 1_555
O1 N1 1_555 1_555
O2 N1 1_555 1_555
N1 C3 1_555 1_555
N2 C7 1_555 1_555
C1 C2 1_555 1_555
C2 H1 1_555 1_555
C3 C2 1_555 1_555
C4 C3 1_555 1_555
C5 C4 1_555 1_555
H2 C5 1_555 1_555
C6 C1 1_555 1_555
H3 C6 1_555 1_555
C7 C4 1_555 1_555
C5 C6 1_555 1_555

#END
