
#######################################################################
#
#                 Cambridge Crystallographic Data Centre
#                                CCDC 
#
#######################################################################
#
# If this CIF has been generated from an entry in the Cambridge 
# Structural Database, then it will include bibliographic, chemical, 
# crystal, experimental, refinement or atomic coordinate data resulting 
# from the CCDC's data processing and validation procedures.
#
#######################################################################

data_NIBJUF
_chemical_formula_moiety         'C7 H5 N3 O6,C6 H3 N3 O6'
_chemical_name_systematic        
'1,3,5-Trinitrobenzene 2-methyl-1,3,5-trinitrobenzene'
_symmetry_cell_setting           monoclinic
_symmetry_space_group_name_H-M   'P 21/c'
_symmetry_Int_Tables_number      14
_space_group_name_Hall           '-P 2ybc'
loop_
_symmetry_equiv_pos_site_id
_symmetry_equiv_pos_as_xyz
1 x,y,z
2 -x,1/2+y,1/2-z
3 -x,-y,-z
4 x,1/2-y,1/2+z
_cell_length_a                   20.4570(8)
_cell_length_b                   6.1222(2)
_cell_length_c                   15.1635(6)
_cell_angle_alpha                90
_cell_angle_beta                 110.091(4)
_cell_angle_gamma                90
_cell_volume                     1783.54
_exptl_crystal_colour            yellow
_exptl_crystal_description       block
_cell_formula_units_Z            4
loop_
_atom_site_label
_atom_site_type_symbol
_atom_site_fract_x
_atom_site_fract_y
_atom_site_fract_z
O1 O 0.24573(10) -0.2515(3) 0.24011(14)
O2 O 0.23668(15) -0.4896(5) 0.3376(2)
O3 O 0.06243(11) 0.4879(3) 0.26576(14)
O4 O 0.03721(10) 0.2488(3) 0.15452(12)
O5 O 0.15102(13) 0.0675(4) 0.59577(15)
O6 O 0.11208(12) -0.2596(5) 0.55873(14)
N1 N 0.22450(12) -0.3115(4) 0.30107(17)
N2 N 0.06462(10) 0.3037(4) 0.23621(15)
N3 N 0.13144(12) -0.0846(5) 0.54055(16)
C1 C 0.17992(12) -0.1638(4) 0.33116(17)
C2 C 0.14491(12) -0.0007(4) 0.27234(16)
H1 H 0.1489 0.0181 0.2136
C3 C 0.10352(11) 0.1346(4) 0.30310(15)
C4 C 0.09622(11) 0.1196(4) 0.39126(15)
C5 C 0.13319(12) -0.0520(4) 0.44471(15)
C6 C 0.17392(12) -0.1969(4) 0.41749(17)
H2 H 0.1964 -0.3123 0.4559
C7 C 0.04902(14) 0.2628(5) 0.42292(18)
H3 H 0.0732 0.3940 0.4502
H4 H 0.0350 0.1865 0.4688
H5 H 0.0086 0.2994 0.3700
O7 O 0.26705(17) 0.0114(5) 0.08758(18)
O8 O 0.26982(13) 0.2952(5) 0.00705(17)
O9 O 0.36636(18) 0.0191(6) 0.41925(18)
O10 O 0.42109(19) 0.3032(7) 0.49038(19)
O11 O 0.47303(14) 0.8837(4) 0.3076(3)
O12 O 0.43373(15) 0.8645(5) 0.1575(3)
N4 N 0.28564(14) 0.1951(6) 0.08035(19)
N5 N 0.39052(17) 0.2014(7) 0.4206(2)
N6 N 0.43990(14) 0.7962(5) 0.2348(3)
C8 C 0.32986(13) 0.3037(5) 0.16555(18)
C9 C 0.33818(13) 0.2064(5) 0.25042(18)
H6 H 0.3159 0.0759 0.2538
C10 C 0.38038(14) 0.3087(5) 0.32955(18)
C11 C 0.41363(13) 0.5024(5) 0.3264(2)
H7 H 0.4418 0.5711 0.3809
C12 C 0.40346(13) 0.5893(5) 0.2398(2)
C13 C 0.36211(13) 0.4952(5) 0.1578(2)
H8 H 0.3562 0.5580 0.0997
loop_
_geom_bond_atom_site_label_1
_geom_bond_atom_site_label_2
_geom_bond_site_symmetry_1
_geom_bond_site_symmetry_2
O1 N1 1_555 1_555
O2 N1 1_555 1_555
O3 N2 1_555 1_555
O4 N2 1_555 1_555
O5 N3 1_555 1_555
O6 N3 1_555 1_555
N1 C1 1_555 1_555
N2 C3 1_555 1_555
N3 C5 1_555 1_555
C1 C2 1_555 1_555
C2 H1 1_555 1_555
C3 C2 1_555 1_555
C4 C3 1_555 1_555
C5 C4 1_555 1_555
C6 C1 1_555 1_555
H2 C6 1_555 1_555
C7 C4 1_555 1_555
H3 C7 1_555 1_555
H4 C7 1_555 1_555
H5 C7 1_555 1_555
O7 N4 1_555 1_555
O8 N4 1_555 1_555
O9 N5 1_555 1_555
O10 N5 1_555 1_555
O11 N6 1_555 1_555
O12 N6 1_555 1_555
N4 C8 1_555 1_555
N5 C10 1_555 1_555
N6 C12 1_555 1_555
C8 C9 1_555 1_555
C9 H6 1_555 1_555
C10 C9 1_555 1_555
C11 C10 1_555 1_555
H7 C11 1_555 1_555
C12 C11 1_555 1_555
C13 C8 1_555 1_555
H8 C13 1_555 1_555
C5 C6 1_555 1_555
C12 C13 1_555 1_555

#END
