
#######################################################################
#
#                 Cambridge Crystallographic Data Centre
#                                CCDC 
#
#######################################################################
#
# If this CIF has been generated from an entry in the Cambridge 
# Structural Database, then it will include bibliographic, chemical, 
# crystal, experimental, refinement or atomic coordinate data resulting 
# from the CCDC's data processing and validation procedures.
#
#######################################################################

data_NICRAU
_chemical_formula_moiety         'C26 H15 Br2 I1'
_chemical_name_systematic        
2-Bromo-10-(5-bromo-2-iodophenyl)-9-phenylanthracene
_symmetry_cell_setting           triclinic
_symmetry_space_group_name_H-M   'P -1'
_symmetry_Int_Tables_number      2
_space_group_name_Hall           '-P 1'
loop_
_symmetry_equiv_pos_site_id
_symmetry_equiv_pos_as_xyz
1 x,y,z
2 -x,-y,-z
_cell_length_a                   8.1190(14)
_cell_length_b                   11.0489(19)
_cell_length_c                   13.905(2)
_cell_angle_alpha                96.922(3)
_cell_angle_beta                 105.375(3)
_cell_angle_gamma                110.024(3)
_cell_volume                     1098.85
_exptl_crystal_colour            colorless
_exptl_crystal_description       block
_cell_formula_units_Z            2
loop_
_atom_site_label
_atom_site_type_symbol
_atom_site_fract_x
_atom_site_fract_y
_atom_site_fract_z
I1 I 0.53960(5) 0.34126(3) 0.05891(2)
Br1 Br 0.36650(8) 0.21050(6) 0.49121(4)
C1 C 0.8216(9) 1.0623(5) 0.3493(4)
H1 H 0.8059 1.0384 0.4091
C2 C 0.9097(8) 1.2316(5) 0.2607(5)
H2 H 0.9564 1.3212 0.2609
C3 C 0.7924(8) 1.0044(5) 0.1741(4)
H3 H 0.7601 0.9412 0.1144
C4 C 0.8913(9) 1.1927(5) 0.3477(5)
H4 H 0.9271 1.2566 0.4075
C5 C 0.8591(10) 1.1382(6) 0.1735(5)
H5 H 0.8691 1.1639 0.1133
C6 C 0.8317(6) 0.7657(4) 0.3061(3)
C7 C 0.7061(6) 0.8215(4) 0.2636(3)
C8 C 0.4518(6) 0.6022(4) 0.2221(3)
C9 C 0.7735(6) 0.9642(4) 0.2620(4)
C10 C 0.1968(7) 0.7106(5) 0.1375(4)
C11 C 0.5780(6) 0.5488(4) 0.2649(3)
C12 C 0.5144(6) 0.7402(4) 0.2216(3)
C13 C 0.7670(6) 0.6275(4) 0.3067(3)
C14 C 0.3815(6) 0.7933(4) 0.1780(3)
H6 H 0.4196 0.8825 0.1771
C15 C 0.1326(7) 0.5759(5) 0.1361(4)
H7 H 0.0067 0.5231 0.1071
C16 C 0.2552(7) 0.5221(5) 0.1774(4)
H8 H 0.2116 0.4323 0.1768
C17 C 0.4160(8) 0.1718(4) 0.2020(4)
H9 H 0.3968 0.1035 0.1488
C18 C 0.4733(7) 0.3744(4) 0.3594(4)
H10 H 0.4918 0.4418 0.4131
C19 C 0.4809(6) 0.3023(4) 0.1925(3)
C20 C 0.4109(6) 0.2462(5) 0.3683(4)
C21 C 0.3802(7) 0.1435(5) 0.2900(4)
H11 H 0.3360 0.0564 0.2964
C22 C 0.5099(6) 0.4061(4) 0.2704(3)
C23 C 1.0855(7) 0.6551(5) 0.3881(4)
H12 H 1.1708 0.6191 0.4149
C24 C 1.0253(6) 0.8435(5) 0.3488(4)
H13 H 1.0686 0.9334 0.3498
C25 C 1.1493(7) 0.7900(5) 0.3881(4)
H14 H 1.2756 0.8428 0.4149
C26 C 0.9028(7) 0.5759(5) 0.3501(4)
H15 H 0.8646 0.4869 0.3521
Br2 Br 0.02241(9) 0.78204(8) 0.07992(5)
loop_
_geom_bond_atom_site_label_1
_geom_bond_atom_site_label_2
_geom_bond_site_symmetry_1
_geom_bond_site_symmetry_2
I1 C19 1_555 1_555
Br1 C20 1_555 1_555
C1 H1 1_555 1_555
C2 H2 1_555 1_555
C3 H3 1_555 1_555
C4 C1 1_555 1_555
H4 C4 1_555 1_555
C5 C2 1_555 1_555
H5 C5 1_555 1_555
C6 C7 1_555 1_555
C7 C9 1_555 1_555
C8 C11 1_555 1_555
C9 C1 1_555 1_555
C10 C14 1_555 1_555
C11 C13 1_555 1_555
C12 C7 1_555 1_555
C13 C6 1_555 1_555
C14 C12 1_555 1_555
H6 C14 1_555 1_555
C15 C10 1_555 1_555
H7 C15 1_555 1_555
C16 C8 1_555 1_555
H8 C16 1_555 1_555
C17 H9 1_555 1_555
C18 H10 1_555 1_555
C19 C17 1_555 1_555
C20 C18 1_555 1_555
C21 C17 1_555 1_555
H11 C21 1_555 1_555
C22 C11 1_555 1_555
C23 H12 1_555 1_555
C24 C6 1_555 1_555
H13 C24 1_555 1_555
C25 C23 1_555 1_555
H14 C25 1_555 1_555
C26 C13 1_555 1_555
H15 C26 1_555 1_555
Br2 C10 1_555 1_555
C2 C4 1_555 1_555
C3 C5 1_555 1_555
C3 C9 1_555 1_555
C8 C12 1_555 1_555
C15 C16 1_555 1_555
C18 C22 1_555 1_555
C19 C22 1_555 1_555
C20 C21 1_555 1_555
C23 C26 1_555 1_555
C24 C25 1_555 1_555

#END
