
#######################################################################
#
#                 Cambridge Crystallographic Data Centre
#                                CCDC 
#
#######################################################################
#
# If this CIF has been generated from an entry in the Cambridge 
# Structural Database, then it will include bibliographic, chemical, 
# crystal, experimental, refinement or atomic coordinate data resulting 
# from the CCDC's data processing and validation procedures.
#
#######################################################################

data_NICSAV
_chemical_formula_moiety         'C23 H32 F1 N1 O3 S1'
_chemical_name_systematic        
1-(10,10-Dimethyl-3,3-dioxido-3-thia-4-azatricyclo[5.2.1.0^1,5^]dec-4-yl)-3-(4-fluorophenyl)heptan-1-one
_symmetry_cell_setting           orthorhombic
_symmetry_space_group_name_H-M   'P 21 21 21'
_symmetry_Int_Tables_number      19
_space_group_name_Hall           'P 2ac 2ab'
loop_
_symmetry_equiv_pos_site_id
_symmetry_equiv_pos_as_xyz
1 x,y,z
2 1/2-x,-y,1/2+z
3 -x,1/2+y,1/2-z
4 1/2+x,1/2-y,-z
_cell_length_a                   7.9044(11)
_cell_length_b                   11.6680(16)
_cell_length_c                   24.899(3)
_cell_angle_alpha                90
_cell_angle_beta                 90
_cell_angle_gamma                90
_cell_volume                     2296.4
_exptl_crystal_colour            colorless
_exptl_crystal_description       block
_cell_formula_units_Z            4
loop_
_atom_site_label
_atom_site_type_symbol
_atom_site_fract_x
_atom_site_fract_y
_atom_site_fract_z
C1 C 0.1645(6) -0.1323(4) 0.02291(18)
H1 H 0.2510 -0.1896 0.0195
H2 H 0.0606 -0.1680 0.0339
H3 H 0.1980 -0.0769 0.0493
C2 C 0.1029(6) -0.1672(3) -0.0729(2)
H4 H 0.1123 -0.1361 -0.1085
H5 H -0.0093 -0.1965 -0.0676
H6 H 0.1834 -0.2280 -0.0685
C3 C 0.1386(4) -0.0723(3) -0.03147(15)
C4 C 0.0278(5) 0.0721(3) -0.09077(14)
H7 H -0.0103 0.1509 -0.0937
H8 H -0.0351 0.0249 -0.1158
C5 C 0.2229(5) 0.0620(4) -0.10024(15)
H9 H 0.2478 0.0136 -0.1309
H10 H 0.2737 0.1368 -0.1058
C6 C 0.2855(4) 0.0072(4) -0.04768(16)
C7 C 0.2828(4) 0.0978(4) -0.00415(16)
H11 H 0.3443 0.1659 -0.0150
H12 H 0.3298 0.0690 0.0292
C8 C 0.0918(4) 0.1220(3) 0.00115(11)
C9 C 0.0115(3) 0.0272(3) -0.03288(12)
C10 C -0.1705(4) 0.0093(3) -0.01252(11)
H13 H -0.2048 -0.0699 -0.0174
H14 H -0.2485 0.0581 -0.0321
C11 C 0.0693(4) 0.1889(3) 0.09592(13)
C12 C -0.0004(5) 0.1729(4) 0.15161(12)
H15 H -0.0851 0.1128 0.1509
H16 H -0.0555 0.2432 0.1629
C13 C 0.1349(4) 0.1420(3) 0.19191(13)
C14 C 0.2435(5) 0.0386(4) 0.17890(16)
H17 H 0.1751 -0.0300 0.1824
H18 H 0.2800 0.0439 0.1418
C15 C 0.3979(6) 0.0269(5) 0.2144(2)
H19 H 0.4690 0.0941 0.2104
H20 H 0.3629 0.0219 0.2517
C16 C 0.4969(12) -0.0781(8) 0.1997(4)
H21 H 0.4920 -0.0906 0.1612
H22 H 0.6145 -0.0686 0.2100
C17 C 0.4219(13) -0.1783(10) 0.2286(5)
H23 H 0.4829 -0.1913 0.2614
H24 H 0.4291 -0.2452 0.2063
H25 H 0.3054 -0.1627 0.2367
C18 C 0.0601(4) 0.1383(3) 0.24759(12)
C19 C 0.0905(5) 0.2202(3) 0.28461(14)
H26 H 0.1637 0.2797 0.2759
C20 C 0.0170(5) 0.2190(3) 0.33502(15)
H27 H 0.0379 0.2773 0.3596
C21 C -0.0846(5) 0.1315(4) 0.34731(14)
C22 C -0.1152(6) 0.0446(4) 0.31326(17)
H28 H -0.1809 -0.0177 0.3236
C23 C -0.0465(5) 0.0506(3) 0.26274(14)
H29 H -0.0727 -0.0063 0.2379
N1 N 0.0207(3) 0.1112(2) 0.05630(10)
O1 O -0.1635(3) -0.05359(19) 0.08977(10)
O2 O -0.2987(3) 0.12692(18) 0.06818(8)
O3 O 0.1733(4) 0.2620(2) 0.08554(10)
F1 F -0.1572(4) 0.1303(2) 0.39740(9)
S1 S -0.17004(9) 0.04557(6) 0.05668(3)
H30 H 0.2136(12) 0.2059(9) 0.1924(4)
H31 H 0.058(4) 0.196(3) -0.0181(12)
H32 H 0.396(4) -0.068(2) -0.0468(11)
loop_
_geom_bond_atom_site_label_1
_geom_bond_atom_site_label_2
_geom_bond_site_symmetry_1
_geom_bond_site_symmetry_2
C1 H1 1_555 1_555
H2 C1 1_555 1_555
H3 C1 1_555 1_555
C2 H4 1_555 1_555
H5 C2 1_555 1_555
H6 C2 1_555 1_555
C3 C1 1_555 1_555
C4 H7 1_555 1_555
H8 C4 1_555 1_555
C5 C4 1_555 1_555
H9 C5 1_555 1_555
H10 C5 1_555 1_555
C6 C3 1_555 1_555
C7 C6 1_555 1_555
H11 C7 1_555 1_555
H12 C7 1_555 1_555
C8 C7 1_555 1_555
C9 C3 1_555 1_555
C10 C9 1_555 1_555
H13 C10 1_555 1_555
H14 C10 1_555 1_555
C11 C12 1_555 1_555
C12 H15 1_555 1_555
H16 C12 1_555 1_555
C13 C12 1_555 1_555
C14 C13 1_555 1_555
H17 C14 1_555 1_555
H18 C14 1_555 1_555
C15 C14 1_555 1_555
H19 C15 1_555 1_555
H20 C15 1_555 1_555
C16 C15 1_555 1_555
H21 C16 1_555 1_555
H22 C16 1_555 1_555
C17 C16 1_555 1_555
H23 C17 1_555 1_555
H24 C17 1_555 1_555
H25 C17 1_555 1_555
C18 C13 1_555 1_555
C19 C18 1_555 1_555
H26 C19 1_555 1_555
C20 C19 1_555 1_555
H27 C20 1_555 1_555
C21 C20 1_555 1_555
C22 C21 1_555 1_555
H28 C22 1_555 1_555
C23 C18 1_555 1_555
H29 C23 1_555 1_555
N1 C8 1_555 1_555
O1 S1 1_555 1_555
O2 S1 1_555 1_555
O3 C11 1_555 1_555
F1 C21 1_555 1_555
S1 C10 1_555 1_555
H30 C13 1_555 1_555
H31 C8 1_555 1_555
H32 C6 1_555 1_555
C2 C3 1_555 1_555
C4 C9 1_555 1_555
C5 C6 1_555 1_555
C8 C9 1_555 1_555
C11 N1 1_555 1_555
C22 C23 1_555 1_555
N1 S1 1_555 1_555

#END
