
#######################################################################
#
#                 Cambridge Crystallographic Data Centre
#                                CCDC 
#
#######################################################################
#
# If this CIF has been generated from an entry in the Cambridge 
# Structural Database, then it will include bibliographic, chemical, 
# crystal, experimental, refinement or atomic coordinate data resulting 
# from the CCDC's data processing and validation procedures.
#
#######################################################################

data_NICTIF
_chemical_formula_moiety         'C10 H7 Cl1 F1 N1 O2'
_chemical_name_systematic        
'methyl 3-(4-chlorophenyl)-2-fluoro-2H-azirene-2-carboxylate'
_symmetry_cell_setting           triclinic
_symmetry_space_group_name_H-M   'P -1'
_symmetry_Int_Tables_number      2
_space_group_name_Hall           '-P 1'
loop_
_symmetry_equiv_pos_site_id
_symmetry_equiv_pos_as_xyz
1 x,y,z
2 -x,-y,-z
_cell_length_a                   4.1467(12)
_cell_length_b                   10.253(4)
_cell_length_c                   12.251(4)
_cell_angle_alpha                111.210(8)
_cell_angle_beta                 91.209(8)
_cell_angle_gamma                93.817(4)
_cell_volume                     483.933
_exptl_crystal_colour            colorless
_exptl_crystal_description       prism
_cell_formula_units_Z            2
loop_
_atom_site_label
_atom_site_type_symbol
_atom_site_fract_x
_atom_site_fract_y
_atom_site_fract_z
Cl1 Cl 0.34331(9) 0.44607(4) 1.35802(3)
F1 F 0.46945(17) 0.02381(8) 0.67422(6)
O1 O 1.1063(2) 0.28946(10) 0.75050(8)
O2 O 0.8624(2) 0.14784(10) 0.57814(8)
N1 N 0.8885(3) 0.04220(11) 0.81911(10)
C1 C 0.6967(3) 0.16805(14) 1.07787(12)
H1 H 0.815764 0.087514 1.060428
C2 C 0.6147(3) 0.23901(14) 1.19123(11)
H2 H 0.673593 0.207381 1.252282
C3 C 0.4448(3) 0.35738(14) 1.21480(11)
C4 C 0.3503(3) 0.40536(13) 1.12752(11)
H3 H 0.233071 0.486512 1.145746
C5 C 0.4302(3) 0.33266(13) 1.01332(11)
H4 H 0.366208 0.363305 0.952211
C6 C 0.6048(3) 0.21435(13) 0.98831(11)
C7 C 0.7078(3) 0.13951(13) 0.87109(11)
C8 C 0.7158(3) 0.10825(13) 0.74764(11)
C9 C 0.9169(3) 0.19366(13) 0.69291(10)
C10 C 1.0663(3) 0.21620(15) 0.51606(12)
H5 H 1.058656 0.318160 0.552471
H6 H 0.987736 0.184596 0.433893
H7 H 1.289692 0.191880 0.520004
loop_
_geom_bond_atom_site_label_1
_geom_bond_atom_site_label_2
_geom_bond_site_symmetry_1
_geom_bond_site_symmetry_2
Cl1 C3 1_555 1_555
F1 C8 1_555 1_555
O1 C9 1_555 1_555
O2 C9 1_555 1_555
N1 C7 1_555 1_555
C1 H1 1_555 1_555
C2 C1 1_555 1_555
H2 C2 1_555 1_555
C3 C2 1_555 1_555
C4 C3 1_555 1_555
H3 C4 1_555 1_555
C5 C4 1_555 1_555
H4 C5 1_555 1_555
C6 C1 1_555 1_555
C7 C6 1_555 1_555
C8 N1 1_555 1_555
C9 C8 1_555 1_555
C10 O2 1_555 1_555
H5 C10 1_555 1_555
H6 C10 1_555 1_555
H7 C10 1_555 1_555
C5 C6 1_555 1_555
C7 C8 1_555 1_555

#END
