
#######################################################################
#
#                 Cambridge Crystallographic Data Centre
#                                CCDC 
#
#######################################################################
#
# If this CIF has been generated from an entry in the Cambridge 
# Structural Database, then it will include bibliographic, chemical, 
# crystal, experimental, refinement or atomic coordinate data resulting 
# from the CCDC's data processing and validation procedures.
#
#######################################################################

data_NIDGUF
_chemical_name_common            
16-(tiophen-2-yl)-estra-1,3,5(10)-triene-17-one
_chemical_formula_moiety         'C23 H24 O2 S1'
_chemical_name_systematic        
3-hydroxy-16-[(thiophen-2-yl)methylidene]estra-1(10),2,4-trien-17-one
_symmetry_cell_setting           orthorhombic
_symmetry_space_group_name_H-M   'P 21 21 21'
_symmetry_Int_Tables_number      19
_space_group_name_Hall           'P 2ac 2ab'
loop_
_symmetry_equiv_pos_site_id
_symmetry_equiv_pos_as_xyz
1 x,y,z
2 1/2-x,-y,1/2+z
3 -x,1/2+y,1/2-z
4 1/2+x,1/2-y,-z
_cell_length_a                   11.94959(17)
_cell_length_b                   12.80404(18)
_cell_length_c                   13.01769(19)
_cell_angle_alpha                90
_cell_angle_beta                 90
_cell_angle_gamma                90
_cell_volume                     1991.75
_exptl_crystal_colour            colorless
_exptl_crystal_description       block
_cell_formula_units_Z            4
loop_
_atom_site_label
_atom_site_type_symbol
_atom_site_fract_x
_atom_site_fract_y
_atom_site_fract_z
O1 O -0.09923(15) 0.31370(18) 0.6687(2)
O2 O 0.78253(14) 0.13529(14) 0.69741(14)
H1 H 0.822351 0.186725 0.688910
S1 S 0.02893(11) 0.68268(10) 0.47906(12)
C1 C -0.0526(6) 0.7755(5) 0.4194(6)
H2 H -0.024004 0.832887 0.384409
C2 C -0.1605(6) 0.7555(6) 0.4292(5)
H3 H -0.216948 0.799441 0.405850
C3 C -0.1795(7) 0.6612(8) 0.4785(9)
H4 H -0.251087 0.633776 0.485913
C4 C -0.0863(2) 0.6103(2) 0.51598(19)
C5 C -0.0813(2) 0.51362(19) 0.57186(19)
H5 H -0.150616 0.484380 0.587133
C6 C 0.00689(19) 0.45867(18) 0.60557(17)
C7 C 0.13046(18) 0.47863(16) 0.59537(17)
H6 H 0.157084 0.525882 0.648229
H7 H 0.148832 0.506995 0.528364
C8 C 0.17894(18) 0.36834(15) 0.60936(15)
H8 H 0.164047 0.331353 0.544892
C9 C 0.30173(16) 0.35088(14) 0.63235(14)
H9 H 0.316091 0.373902 0.702929
C10 C 0.38206(18) 0.40862(16) 0.56163(17)
H10 H 0.376914 0.380402 0.492642
H11 H 0.362386 0.482067 0.559033
C11 C 0.50066(18) 0.39626(15) 0.60180(18)
H12 H 0.552740 0.419070 0.549239
H13 H 0.510442 0.441268 0.661066
C12 C 0.52878(18) 0.28498(14) 0.63214(14)
C13 C 0.64063(18) 0.26114(17) 0.65045(15)
H14 H 0.694298 0.313472 0.645192
C14 C 0.67335(18) 0.16082(17) 0.67636(15)
C15 C 0.5943(2) 0.08292(17) 0.68145(17)
H15 H 0.615657 0.014604 0.695713
C16 C 0.4830(2) 0.10679(16) 0.66527(16)
H16 H 0.430166 0.053675 0.669852
C17 C 0.44706(17) 0.20781(15) 0.64227(14)
C18 C 0.32326(18) 0.23211(14) 0.62685(16)
H17 H 0.303905 0.209751 0.557077
C19 C 0.24592(19) 0.17210(18) 0.7007(2)
H18 H 0.256201 0.097763 0.689885
H19 H 0.267781 0.187684 0.770797
C20 C 0.1212(2) 0.19871(18) 0.6871(2)
H20 H 0.094952 0.171601 0.621856
H21 H 0.078115 0.165867 0.741374
C21 C 0.10356(18) 0.31668(16) 0.69050(16)
C22 C 0.1197(2) 0.3603(2) 0.79957(17)
H22 H 0.191771 0.339761 0.825135
H23 H 0.062362 0.333154 0.843817
H24 H 0.115009 0.435095 0.797845
C23 C -0.0092(2) 0.35670(19) 0.6567(2)
S2? S -0.2131(11) 0.6470(15) 0.4809(13)
C24? C -0.150(3) 0.738(3) 0.410(3)
H25? H -0.189397 0.781752 0.365352
C25? C -0.041(3) 0.744(2) 0.423(3)
H26? H 0.007589 0.794294 0.396240
C26? C -0.014(2) 0.6560(16) 0.4875(14)
H27? H 0.059702 0.638716 0.504068
loop_
_geom_bond_atom_site_label_1
_geom_bond_atom_site_label_2
_geom_bond_site_symmetry_1
_geom_bond_site_symmetry_2
O1 C23 1_555 1_555
O2 H1 1_555 1_555
S1 C1 1_555 1_555
C1 H2 1_555 1_555
C2 C1 1_555 1_555
H3 C2 1_555 1_555
C3 C2 1_555 1_555
H4 C3 1_555 1_555
C4 S1 1_555 1_555
C5 C4 1_555 1_555
H5 C5 1_555 1_555
C6 C5 1_555 1_555
C7 C6 1_555 1_555
H6 C7 1_555 1_555
H7 C7 1_555 1_555
C8 C7 1_555 1_555
H8 C8 1_555 1_555
C9 C8 1_555 1_555
H9 C9 1_555 1_555
C10 C9 1_555 1_555
H10 C10 1_555 1_555
H11 C10 1_555 1_555
C11 C10 1_555 1_555
H12 C11 1_555 1_555
H13 C11 1_555 1_555
C12 C11 1_555 1_555
C13 C12 1_555 1_555
H14 C13 1_555 1_555
C14 O2 1_555 1_555
C15 C14 1_555 1_555
H15 C15 1_555 1_555
C16 C15 1_555 1_555
H16 C16 1_555 1_555
C17 C12 1_555 1_555
C18 C9 1_555 1_555
H17 C18 1_555 1_555
C19 C18 1_555 1_555
H18 C19 1_555 1_555
H19 C19 1_555 1_555
C20 C19 1_555 1_555
H20 C20 1_555 1_555
H21 C20 1_555 1_555
C21 C8 1_555 1_555
C22 C21 1_555 1_555
H22 C22 1_555 1_555
H23 C22 1_555 1_555
H24 C22 1_555 1_555
C23 C6 1_555 1_555
C3 C4 1_555 1_555
C13 C14 1_555 1_555
C16 C17 1_555 1_555
C17 C18 1_555 1_555
C20 C21 1_555 1_555
C21 C23 1_555 1_555

#END
