
#######################################################################
#
#                 Cambridge Crystallographic Data Centre
#                                CCDC 
#
#######################################################################
#
# If this CIF has been generated from an entry in the Cambridge 
# Structural Database, then it will include bibliographic, chemical, 
# crystal, experimental, refinement or atomic coordinate data resulting 
# from the CCDC's data processing and validation procedures.
#
#######################################################################

data_NIDQUP
_chemical_formula_moiety         'C23 H18 N2 O5 S1'
_chemical_name_systematic        
'8-((phenylsulfonyl)amino)quinolin-5-yl 4-methoxybenzoate'
_symmetry_cell_setting           triclinic
_symmetry_space_group_name_H-M   'P -1'
_symmetry_Int_Tables_number      2
_space_group_name_Hall           '-P 1'
loop_
_symmetry_equiv_pos_site_id
_symmetry_equiv_pos_as_xyz
1 x,y,z
2 -x,-y,-z
_cell_length_a                   9.1495(7)
_cell_length_b                   11.0385(8)
_cell_length_c                   11.7750(10)
_cell_angle_alpha                68.418(7)
_cell_angle_beta                 81.041(7)
_cell_angle_gamma                68.191(7)
_cell_volume                     1026.46
_cell_formula_units_Z            2
loop_
_atom_site_label
_atom_site_type_symbol
_atom_site_fract_x
_atom_site_fract_y
_atom_site_fract_z
S1 S 1.12004(6) 0.64209(5) 0.01503(5)
O1 O 1.13147(18) 0.77682(15) -0.02870(13)
O2 O 1.08928(18) 0.59029(16) -0.06981(13)
O3 O 0.8626(2) 0.82355(15) 0.51737(14)
O4 O 0.6806(3) 1.0185(2) 0.40980(18)
O5 O 0.6149(2) 1.10288(17) 0.92133(16)
N1 N 0.8385(2) 0.51528(18) 0.32160(16)
N2 N 0.9761(2) 0.64040(18) 0.11626(16)
H1 H 0.9059 0.6101 0.1076
C1 C 0.8798(2) 0.6213(2) 0.32252(18)
C2 C 0.9591(2) 0.6854(2) 0.21711(19)
C3 C 1.0094(3) 0.7878(2) 0.2177(2)
H2 H 1.0658 0.8272 0.1508
C4 C 0.9763(3) 0.8335(3) 0.3187(2)
H3 H 1.0112 0.9030 0.3178
C5 C 0.8954(3) 0.7784(2) 0.4161(2)
C6 C 0.8455(2) 0.6688(2) 0.42391(18)
C7 C 0.7668(3) 0.6013(2) 0.5255(2)
H4 H 0.7419 0.6291 0.5937
C8 C 0.7276(3) 0.4957(3) 0.5232(2)
H5 H 0.6753 0.4503 0.5896
C9 C 0.7667(3) 0.4555(3) 0.4196(2)
H6 H 0.7401 0.3817 0.4201
C10 C 1.2910(2) 0.5239(2) 0.09555(18)
C11 C 1.3157(3) 0.3836(2) 0.1343(2)
H7 H 1.2434 0.3521 0.1171
C12 C 1.4486(3) 0.2913(2) 0.1986(2)
H8 H 1.4658 0.1967 0.2261
C13 C 1.5565(3) 0.3385(3) 0.2225(2)
H9 H 1.6466 0.2754 0.2655
C14 C 1.5317(3) 0.4780(3) 0.1833(2)
H10 H 1.6054 0.5090 0.1993
C15 C 1.3978(3) 0.5722(2) 0.12029(19)
H11 H 1.3795 0.6669 0.0948
C16 C 0.7496(3) 0.9507(2) 0.5026(2)
C17 C 0.7263(3) 0.9878(2) 0.6134(2)
C18 C 0.8126(3) 0.9049(2) 0.7176(2)
H12 H 0.8946 0.8239 0.7174
C19 C 0.7791(3) 0.9402(2) 0.8218(2)
H13 H 0.8377 0.8829 0.8916
C20 C 0.6586(3) 1.0608(2) 0.8225(2)
C21 C 0.5733(3) 1.1468(2) 0.7170(2)
H14 H 0.4938 1.2294 0.7164
C22 C 0.6059(3) 1.1104(2) 0.6146(2)
H15 H 0.5473 1.1679 0.5449
C23 C 0.6953(4) 1.0136(3) 1.0329(2)
H16 H 0.8056 1.0003 1.0206
H17 H 0.6806 0.9256 1.0578
H18 H 0.6535 1.0549 1.0952
loop_
_geom_bond_atom_site_label_1
_geom_bond_atom_site_label_2
_geom_bond_site_symmetry_1
_geom_bond_site_symmetry_2
S1 O1 1_555 1_555
O2 S1 1_555 1_555
O3 C5 1_555 1_555
O4 C16 1_555 1_555
O5 C20 1_555 1_555
N1 C1 1_555 1_555
N2 S1 1_555 1_555
H1 N2 1_555 1_555
C1 C2 1_555 1_555
C2 N2 1_555 1_555
C3 C2 1_555 1_555
H2 C3 1_555 1_555
C4 C3 1_555 1_555
H3 C4 1_555 1_555
C5 C4 1_555 1_555
C6 C1 1_555 1_555
C7 C6 1_555 1_555
H4 C7 1_555 1_555
C8 C7 1_555 1_555
H5 C8 1_555 1_555
C9 N1 1_555 1_555
H6 C9 1_555 1_555
C10 S1 1_555 1_555
C11 C10 1_555 1_555
H7 C11 1_555 1_555
C12 C11 1_555 1_555
H8 C12 1_555 1_555
C13 C12 1_555 1_555
H9 C13 1_555 1_555
C14 C13 1_555 1_555
H10 C14 1_555 1_555
C15 C10 1_555 1_555
H11 C15 1_555 1_555
C16 O3 1_555 1_555
C17 C16 1_555 1_555
C18 C17 1_555 1_555
H12 C18 1_555 1_555
C19 C18 1_555 1_555
H13 C19 1_555 1_555
C20 C19 1_555 1_555
C21 C20 1_555 1_555
H14 C21 1_555 1_555
C22 C17 1_555 1_555
H15 C22 1_555 1_555
C23 O5 1_555 1_555
H16 C23 1_555 1_555
H17 C23 1_555 1_555
H18 C23 1_555 1_555
C5 C6 1_555 1_555
C8 C9 1_555 1_555
C14 C15 1_555 1_555
C21 C22 1_555 1_555

#END
