
#######################################################################
#
#                 Cambridge Crystallographic Data Centre
#                                CCDC 
#
#######################################################################
#
# If this CIF has been generated from an entry in the Cambridge 
# Structural Database, then it will include bibliographic, chemical, 
# crystal, experimental, refinement or atomic coordinate data resulting 
# from the CCDC's data processing and validation procedures.
#
#######################################################################

data_NIDTOM
_chemical_formula_moiety         'C27 H20 O2'
_chemical_name_systematic        
12-(diphenylmethylidene)-6H,12H-dibenzo[d,g][1,3]dioxocine
_symmetry_cell_setting           monoclinic
_symmetry_space_group_name_H-M   'P 21/n'
_symmetry_Int_Tables_number      14
_space_group_name_Hall           '-P 2yn'
loop_
_symmetry_equiv_pos_site_id
_symmetry_equiv_pos_as_xyz
1 x,y,z
2 1/2-x,1/2+y,1/2-z
3 -x,-y,-z
4 1/2+x,1/2-y,1/2+z
_cell_length_a                   9.2661(2)
_cell_length_b                   8.4682(2)
_cell_length_c                   25.0320(5)
_cell_angle_alpha                90
_cell_angle_beta                 97.682(2)
_cell_angle_gamma                90
_cell_volume                     1946.56
_exptl_crystal_description       block
_cell_formula_units_Z            4
loop_
_atom_site_label
_atom_site_type_symbol
_atom_site_fract_x
_atom_site_fract_y
_atom_site_fract_z
O1 O 0.35379(9) -0.05713(10) 0.24929(3)
O2 O 0.13307(9) -0.01478(11) 0.28169(3)
C1 C 0.29545(12) -0.09159(14) 0.36344(5)
C2 C 0.39863(12) 0.04473(14) 0.36279(5)
C3 C 0.48286(12) 0.31400(14) 0.39483(5)
C4 C 0.17220(12) -0.11295(14) 0.32552(5)
C5 C 0.32304(14) -0.20361(15) 0.40448(5)
H1 H 0.4070 -0.1944 0.4292
C6 C 0.07700(13) -0.23717(15) 0.33047(5)
H2 H -0.0054 -0.2494 0.3052
C7 C 0.66438(14) 0.03987(16) 0.35218(6)
H3 H 0.6849 0.0778 0.3872
C8 C 0.38584(12) 0.17213(14) 0.39371(4)
C9 C 0.26061(13) 0.18529(14) 0.42590(5)
C10 C 0.24553(13) 0.05598(15) 0.25675(5)
C11 C 0.51914(13) 0.01978(14) 0.32964(5)
C12 C 0.49952(14) 0.39450(15) 0.34763(5)
H4 H 0.4515 0.3584 0.3149
C13 C 0.66139(14) 0.58083(16) 0.39684(5)
H5 H 0.7216 0.6689 0.3975
C14 C 0.22882(15) -0.32782(16) 0.40943(5)
H6 H 0.2491 -0.4008 0.4372
C15 C 0.49240(13) -0.03427(14) 0.27646(5)
C16 C 0.10398(14) -0.34238(15) 0.37266(5)
H7 H 0.0382 -0.4233 0.3764
C17 C 0.58683(15) 0.52816(16) 0.34863(5)
H8 H 0.5951 0.5822 0.3168
C18 C 0.55567(14) 0.37101(16) 0.44319(5)
H9 H 0.5437 0.3208 0.4753
C19 C 0.26795(15) 0.13012(17) 0.47867(5)
H10 H 0.3529 0.0828 0.4953
C20 C 0.14876(17) 0.14572(18) 0.50653(6)
H11 H 0.1542 0.1082 0.5416
C21 C 0.77810(14) 0.00479(18) 0.32373(6)
H12 H 0.8739 0.0203 0.3394
C22 C 0.64595(15) 0.50187(17) 0.44400(5)
H13 H 0.6964 0.5366 0.4765
C23 C 0.60632(15) -0.07249(18) 0.24800(5)
H14 H 0.5868 -0.1108 0.2130
C24 C 0.13264(14) 0.25473(16) 0.40210(6)
H15 H 0.1260 0.2914 0.3668
C25 C 0.74849(15) -0.0536(2) 0.27174(6)
H16 H 0.8247 -0.0803 0.2528
C26 C 0.02290(17) 0.21617(17) 0.48263(7)
H17 H -0.0561 0.2274 0.5017
C27 C 0.01400(16) 0.27020(18) 0.43027(7)
H18 H -0.0714 0.3170 0.4139
H19 H 0.2907(14) 0.1464(17) 0.2778(5)
H20 H 0.1986(15) 0.0902(17) 0.2211(6)
loop_
_geom_bond_atom_site_label_1
_geom_bond_atom_site_label_2
_geom_bond_site_symmetry_1
_geom_bond_site_symmetry_2
O1 C10 1_555 1_555
O2 C4 1_555 1_555
C1 C2 1_555 1_555
C2 C8 1_555 1_555
C3 C8 1_555 1_555
C4 C1 1_555 1_555
C5 C1 1_555 1_555
H1 C5 1_555 1_555
C6 C4 1_555 1_555
H2 C6 1_555 1_555
C7 H3 1_555 1_555
C8 C9 1_555 1_555
C9 C19 1_555 1_555
C10 O2 1_555 1_555
C11 C2 1_555 1_555
C12 C3 1_555 1_555
H4 C12 1_555 1_555
C13 H5 1_555 1_555
C14 C5 1_555 1_555
H6 C14 1_555 1_555
C15 O1 1_555 1_555
C16 C6 1_555 1_555
H7 C16 1_555 1_555
C17 C12 1_555 1_555
H8 C17 1_555 1_555
C18 C3 1_555 1_555
H9 C18 1_555 1_555
C19 H10 1_555 1_555
C20 C19 1_555 1_555
H11 C20 1_555 1_555
C21 C7 1_555 1_555
H12 C21 1_555 1_555
C22 C13 1_555 1_555
H13 C22 1_555 1_555
C23 C15 1_555 1_555
H14 C23 1_555 1_555
C24 C9 1_555 1_555
H15 C24 1_555 1_555
C25 C21 1_555 1_555
H16 C25 1_555 1_555
C26 C20 1_555 1_555
H17 C26 1_555 1_555
C27 C24 1_555 1_555
H18 C27 1_555 1_555
H19 C10 1_555 1_555
H20 C10 1_555 1_555
C7 C11 1_555 1_555
C11 C15 1_555 1_555
C13 C17 1_555 1_555
C14 C16 1_555 1_555
C18 C22 1_555 1_555
C23 C25 1_555 1_555
C26 C27 1_555 1_555

#END
