
#######################################################################
#
#                 Cambridge Crystallographic Data Centre
#                                CCDC 
#
#######################################################################
#
# If this CIF has been generated from an entry in the Cambridge 
# Structural Database, then it will include bibliographic, chemical, 
# crystal, experimental, refinement or atomic coordinate data resulting 
# from the CCDC's data processing and validation procedures.
#
#######################################################################

data_NIDVEE
_chemical_formula_moiety         'C30 H26 O2'
_chemical_name_systematic        
15-(diphenylmethylidene)-6,7,8,9-tetrahydro-15H-dibenzo[g,j][1,6]dioxacycloundecine
_symmetry_cell_setting           monoclinic
_symmetry_space_group_name_H-M   'P 21/c'
_symmetry_Int_Tables_number      14
_space_group_name_Hall           '-P 2ybc'
loop_
_symmetry_equiv_pos_site_id
_symmetry_equiv_pos_as_xyz
1 x,y,z
2 -x,1/2+y,1/2-z
3 -x,-y,-z
4 x,1/2-y,1/2+z
_cell_length_a                   9.3824(12)
_cell_length_b                   9.3181(12)
_cell_length_c                   25.644(3)
_cell_angle_alpha                90
_cell_angle_beta                 97.845(4)
_cell_angle_gamma                90
_cell_volume                     2220.97
_exptl_crystal_description       block
_cell_formula_units_Z            4
loop_
_atom_site_label
_atom_site_type_symbol
_atom_site_fract_x
_atom_site_fract_y
_atom_site_fract_z
C1 C 0.6085(2) 0.79933(19) 0.37335(8)
H1 H 0.609504 0.880789 0.352452
C2 C 0.73551(16) 0.7499(2) 0.40201(9)
H2 H 0.821423 0.798307 0.400274
C3 C 0.73407(17) 0.6282(2) 0.43325(8)
H3 H 0.819019 0.595090 0.452416
C4 C 0.6057(2) 0.5558(2) 0.43583(8)
H4 H 0.604696 0.474354 0.456737
C5 C 0.47869(17) 0.6052(2) 0.40718(8)
H5 H 0.392775 0.556833 0.408915
C6 C 0.48013(16) 0.7270(2) 0.37594(7)
C7 C 0.3458(3) 0.7726(3) 0.34146(11)
C8 C 0.3579(2) 0.7761(2) 0.28364(5)
C9 C 0.44292(19) 0.67550(18) 0.26236(7)
H6 H 0.490277 0.604815 0.283727
C10 C 0.4572(2) 0.6806(2) 0.20915(8)
H7 H 0.514139 0.613271 0.194916
C11 C 0.3864(2) 0.7862(2) 0.17722(5)
H8 H 0.396011 0.789598 0.141621
C12 C 0.3014(2) 0.8868(2) 0.19850(7)
H9 H 0.254020 0.957471 0.177135
C13 C 0.28708(19) 0.88172(18) 0.25171(7)
H10 H 0.230157 0.949018 0.265946
C14 C 0.2268(3) 0.8091(3) 0.36188(11)
C15 C 0.08282(15) 0.83417(19) 0.33010(7)
C16 C 0.0078(2) 0.72195(15) 0.30318(8)
H11 H 0.048203 0.630687 0.303979
C17 C -0.12746(19) 0.74614(18) 0.27507(8)
H12 H -0.177620 0.671064 0.257062
C18 C -0.18778(16) 0.8825(2) 0.27388(8)
H13 H -0.278303 0.898733 0.255071
C19 C -0.11280(19) 0.99476(16) 0.30080(8)
H14 H -0.153165 1.086028 0.299997
C20 C 0.02249(18) 0.97057(16) 0.32891(7)
C21 C 0.0560(4) 1.2149(3) 0.35556(14)
H15 H -0.020508 1.218938 0.377432
H16 H 0.018722 1.249381 0.320667
C22 C 0.1811(4) 1.3048(4) 0.37894(14)
H17 H 0.150259 1.404133 0.378773
H18 H 0.255806 1.297907 0.356378
C23 C 0.2457(4) 1.2659(4) 0.43423(14)
H19 H 0.174346 1.212420 0.450304
H20 H 0.264363 1.354038 0.454101
C24 C 0.3831(4) 1.1789(4) 0.44006(15)
H21 H 0.451754 1.227072 0.421002
H22 H 0.423417 1.177321 0.476956
C25 C 0.2240(2) 0.8250(2) 0.42015(6)
C26 C 0.2912(2) 0.9399(2) 0.44807(8)
C27 C 0.2804(3) 0.9560(2) 0.50127(8)
H23 H 0.325330 1.032848 0.519954
C28 C 0.2023(3) 0.8573(3) 0.52655(6)
H24 H 0.195039 0.868114 0.562146
C29 C 0.1351(3) 0.7425(3) 0.49863(9)
H25 H 0.082872 0.676435 0.515546
C30 C 0.1460(2) 0.7263(2) 0.44543(8)
H26 H 0.100994 0.649489 0.426754
O1 O 0.3667(2) 1.0331(3) 0.42149(8)
O2 O 0.1070(2) 1.0729(2) 0.35287(10)
loop_
_geom_bond_atom_site_label_1
_geom_bond_atom_site_label_2
_geom_bond_site_symmetry_1
_geom_bond_site_symmetry_2
C1 H1 1_555 1_555
C2 C1 1_555 1_555
H2 C2 1_555 1_555
C3 C2 1_555 1_555
H3 C3 1_555 1_555
C4 C3 1_555 1_555
H4 C4 1_555 1_555
C5 C4 1_555 1_555
H5 C5 1_555 1_555
C6 C1 1_555 1_555
C7 C6 1_555 1_555
C8 C7 1_555 1_555
C9 C8 1_555 1_555
H6 C9 1_555 1_555
C10 C9 1_555 1_555
H7 C10 1_555 1_555
C11 C10 1_555 1_555
H8 C11 1_555 1_555
C12 C11 1_555 1_555
H9 C12 1_555 1_555
C13 C8 1_555 1_555
H10 C13 1_555 1_555
C14 C7 1_555 1_555
C15 C14 1_555 1_555
C16 C15 1_555 1_555
H11 C16 1_555 1_555
C17 C16 1_555 1_555
H12 C17 1_555 1_555
C18 C17 1_555 1_555
H13 C18 1_555 1_555
C19 C18 1_555 1_555
H14 C19 1_555 1_555
C20 C15 1_555 1_555
C21 H15 1_555 1_555
H16 C21 1_555 1_555
C22 C21 1_555 1_555
H17 C22 1_555 1_555
H18 C22 1_555 1_555
C23 C22 1_555 1_555
H19 C23 1_555 1_555
H20 C23 1_555 1_555
C24 C23 1_555 1_555
H21 C24 1_555 1_555
H22 C24 1_555 1_555
C25 C14 1_555 1_555
C26 C25 1_555 1_555
C27 C26 1_555 1_555
H23 C27 1_555 1_555
C28 C27 1_555 1_555
H24 C28 1_555 1_555
C29 C28 1_555 1_555
H25 C29 1_555 1_555
C30 C25 1_555 1_555
H26 C30 1_555 1_555
O1 C24 1_555 1_555
O2 C20 1_555 1_555
C5 C6 1_555 1_555
C12 C13 1_555 1_555
C19 C20 1_555 1_555
C21 O2 1_555 1_555
C26 O1 1_555 1_555
C29 C30 1_555 1_555

#END
