
#######################################################################
#
#                 Cambridge Crystallographic Data Centre
#                                CCDC 
#
#######################################################################
#
# If this CIF has been generated from an entry in the Cambridge 
# Structural Database, then it will include bibliographic, chemical, 
# crystal, experimental, refinement or atomic coordinate data resulting 
# from the CCDC's data processing and validation procedures.
#
#######################################################################

data_NIDYII
_chemical_formula_moiety         'C34 H48 N4 O2'
_chemical_name_systematic        
1,4-bis(3-(N-Cyclohexyliminomethyl)-2-hydroxy-5-methylbenzyl)piperazine
_symmetry_cell_setting           monoclinic
_symmetry_space_group_name_H-M   'P 21/c'
_symmetry_Int_Tables_number      14
_space_group_name_Hall           '-P 2ybc'
loop_
_symmetry_equiv_pos_site_id
_symmetry_equiv_pos_as_xyz
1 x,y,z
2 -x,1/2+y,1/2-z
3 -x,-y,-z
4 x,1/2-y,1/2+z
_cell_length_a                   11.4598(10)
_cell_length_b                   12.5892(11)
_cell_length_c                   11.1347(12)
_cell_angle_alpha                90
_cell_angle_beta                 97.996(7)
_cell_angle_gamma                90
_cell_volume                     1590.78
_exptl_crystal_colour            'light yellow'
_exptl_crystal_description       rectangular
_chemical_melting_point          481K
_cell_formula_units_Z            2
loop_
_atom_site_label
_atom_site_type_symbol
_atom_site_fract_x
_atom_site_fract_y
_atom_site_fract_z
O1 O 0.27216(10) -0.08552(11) -0.36285(11)
N1 N 0.29332(12) -0.13104(12) -0.58943(12)
N2 N 0.05156(11) -0.05390(10) -0.09307(11)
C1 C 0.15628(13) -0.11031(12) -0.39180(14)
C2 C 0.10999(13) -0.14335(12) -0.50877(14)
C3 C -0.00925(15) -0.16799(14) -0.5333(2)
C4 C -0.08319(14) -0.16207(13) -0.4462(2)
C5 C -0.03322(14) -0.13063(13) -0.3298(2)
C6 C 0.08454(13) -0.10343(12) -0.30081(14)
C7 C -0.2124(2) -0.1869(3) -0.4743(3)
C8 C 0.1848(2) -0.15384(14) -0.6038(2)
C9 C 0.3580(2) -0.1443(2) -0.6932(2)
C10 C 0.3971(3) -0.0376(2) -0.7335(2)
C11 C 0.4650(3) -0.0487(2) -0.8413(3)
C12 C 0.5680(2) -0.1246(2) -0.8126(3)
C13 C 0.5304(2) -0.2301(2) -0.7684(2)
C14 C 0.4610(2) -0.2184(2) -0.6619(2)
C15 C 0.1380(2) -0.0684(2) -0.1757(2)
C16 C -0.0110(2) 0.0463(2) -0.1146(2)
C17 C 0.1048(2) -0.0574(2) 0.03336(15)
H1 H 0.3023(17) -0.0942(16) -0.4292(19)
H2 H -0.0388(13) -0.1900(12) -0.6112(15)
H3 H -0.0832(13) -0.1302(12) -0.2680(14)
H4 H -0.2258(22) -0.2487(23) -0.5274(24)
H5 H -0.2399(24) -0.2238(25) -0.4129(26)
H6 H -0.2604(29) -0.1258(27) -0.4914(30)
H7 H 0.1437(13) -0.1821(13) -0.6798(16)
H8 H 0.3005(14) -0.1753(14) -0.7610(16)
H9 H 0.4507(19) -0.0117(18) -0.6638(21)
H10 H 0.3237(20) 0.0101(19) -0.7533(20)
H11 H 0.4951(23) 0.0228(23) -0.8594(25)
H12 H 0.4146(20) -0.0815(21) -0.9134(23)
H13 H 0.6081(18) -0.1338(16) -0.8815(20)
H14 H 0.6268(19) -0.1006(18) -0.7459(21)
H15 H 0.4747(18) -0.2625(18) -0.8380(19)
H16 H 0.6051(23) -0.2797(21) -0.7432(22)
H17 H 0.4277(20) -0.2906(20) -0.6356(21)
H18 H 0.5098(18) -0.1885(17) -0.5946(20)
H19 H 0.1848(16) -0.0028(15) -0.1837(17)
H20 H 0.1985(18) -0.1257(17) -0.1404(19)
H21 H -0.0481(14) 0.0465(13) -0.1997(16)
H22 H 0.0462(15) 0.1061(15) -0.0976(17)
H23 H 0.1680(15) 0.0010(15) 0.0487(16)
H24 H 0.1472(15) -0.1286(15) 0.0467(16)
C17B C -0.1048(2) 0.0574(2) -0.03336(15)
N2B N -0.05156(11) 0.05390(10) 0.09307(11)
C15B C -0.1380(2) 0.0684(2) 0.1757(2)
C6B C -0.08454(13) 0.10343(12) 0.30081(14)
C1B C -0.15628(13) 0.11031(12) 0.39180(14)
O1B O -0.27216(10) 0.08552(11) 0.36285(11)
H1B H -0.3023(17) 0.0942(16) 0.4292(19)
C2B C -0.10999(13) 0.14335(12) 0.50877(14)
C3B C 0.00925(15) 0.16799(14) 0.5333(2)
C4B C 0.08319(14) 0.16207(13) 0.4462(2)
C5B C 0.03322(14) 0.13063(13) 0.3298(2)
H3B H 0.0832(13) 0.1302(12) 0.2680(14)
C7B C 0.2124(2) 0.1869(3) 0.4743(3)
H4B H 0.2258(22) 0.2487(23) 0.5274(24)
H5B H 0.2399(24) 0.2238(25) 0.4129(26)
H6B H 0.2604(29) 0.1258(27) 0.4914(30)
H2B H 0.0388(13) 0.1900(12) 0.6112(15)
C8B C -0.1848(2) 0.15384(14) 0.6038(2)
N1B N -0.29332(12) 0.13104(12) 0.58943(12)
C9B C -0.3580(2) 0.1443(2) 0.6932(2)
C10B C -0.3971(3) 0.0376(2) 0.7335(2)
C11B C -0.4650(3) 0.0487(2) 0.8413(3)
C12B C -0.5680(2) 0.1246(2) 0.8126(3)
C13B C -0.5304(2) 0.2301(2) 0.7684(2)
C14B C -0.4610(2) 0.2184(2) 0.6619(2)
H8B H -0.3005(14) 0.1753(14) 0.7610(16)
H17B H -0.4277(20) 0.2906(20) 0.6356(21)
H18B H -0.5098(18) 0.1885(17) 0.5946(20)
H15B H -0.4747(18) 0.2625(18) 0.8380(19)
H16B H -0.6051(23) 0.2797(21) 0.7432(22)
H13B H -0.6081(18) 0.1338(16) 0.8815(20)
H14B H -0.6268(19) 0.1006(18) 0.7459(21)
H11B H -0.4951(23) -0.0228(23) 0.8594(25)
H12B H -0.4146(20) 0.0815(21) 0.9134(23)
H9B H -0.4507(19) 0.0117(18) 0.6638(21)
H10B H -0.3237(20) -0.0101(19) 0.7533(20)
H7B H -0.1437(13) 0.1821(13) 0.6798(16)
H19B H -0.1848(16) 0.0028(15) 0.1837(17)
H20B H -0.1985(18) 0.1257(17) 0.1404(19)
C16B C 0.0110(2) -0.0463(2) 0.1146(2)
H21B H 0.0481(14) -0.0465(13) 0.1997(16)
H22B H -0.0462(15) -0.1061(15) 0.0976(17)
H23B H -0.1680(15) -0.0010(15) -0.0487(16)
H24B H -0.1472(15) 0.1286(15) -0.0467(16)
loop_
_geom_bond_atom_site_label_1
_geom_bond_atom_site_label_2
_geom_bond_site_symmetry_1
_geom_bond_site_symmetry_2
O1 C1 1_555 1_555
N1 C8 1_555 1_555
N2 C15 1_555 1_555
C1 C2 1_555 1_555
C2 C3 1_555 1_555
C3 C4 1_555 1_555
C4 C5 1_555 1_555
C5 C6 1_555 1_555
C6 C1 1_555 1_555
C7 C4 1_555 1_555
C8 C2 1_555 1_555
C9 N1 1_555 1_555
C10 C9 1_555 1_555
C11 C10 1_555 1_555
C12 C11 1_555 1_555
C13 C12 1_555 1_555
C14 C9 1_555 1_555
C15 C6 1_555 1_555
C16 N2 1_555 1_555
C17 N2 1_555 1_555
H1 O1 1_555 1_555
H2 C3 1_555 1_555
H3 C5 1_555 1_555
H4 C7 1_555 1_555
H5 C7 1_555 1_555
H6 C7 1_555 1_555
H7 C8 1_555 1_555
H8 C9 1_555 1_555
H9 C10 1_555 1_555
H10 C10 1_555 1_555
H11 C11 1_555 1_555
H12 C11 1_555 1_555
H13 C12 1_555 1_555
H14 C12 1_555 1_555
H15 C13 1_555 1_555
H16 C13 1_555 1_555
H17 C14 1_555 1_555
H18 C14 1_555 1_555
H19 C15 1_555 1_555
H20 C15 1_555 1_555
H21 C16 1_555 1_555
H22 C16 1_555 1_555
H23 C17 1_555 1_555
H24 C17 1_555 1_555
C17B C16 1_555 1_555
N2B C17B 1_555 1_555
C15B N2B 1_555 1_555
C6B C15B 1_555 1_555
C1B C6B 1_555 1_555
O1B C1B 1_555 1_555
H1B O1B 1_555 1_555
C2B C1B 1_555 1_555
C3B C2B 1_555 1_555
C4B C3B 1_555 1_555
C5B C6B 1_555 1_555
H3B C5B 1_555 1_555
C7B C4B 1_555 1_555
H4B C7B 1_555 1_555
H5B C7B 1_555 1_555
H6B C7B 1_555 1_555
H2B C3B 1_555 1_555
C8B C2B 1_555 1_555
N1B C8B 1_555 1_555
C9B N1B 1_555 1_555
C10B C9B 1_555 1_555
C11B C10B 1_555 1_555
C12B C11B 1_555 1_555
C13B C12B 1_555 1_555
C14B C9B 1_555 1_555
H8B C9B 1_555 1_555
H17B C14B 1_555 1_555
H18B C14B 1_555 1_555
H15B C13B 1_555 1_555
H16B C13B 1_555 1_555
H13B C12B 1_555 1_555
H14B C12B 1_555 1_555
H11B C11B 1_555 1_555
H12B C11B 1_555 1_555
H9B C10B 1_555 1_555
H10B C10B 1_555 1_555
H7B C8B 1_555 1_555
H19B C15B 1_555 1_555
H20B C15B 1_555 1_555
C16B C17 1_555 1_555
H21B C16B 1_555 1_555
H22B C16B 1_555 1_555
H23B C17B 1_555 1_555
H24B C17B 1_555 1_555
C13 C14 1_555 1_555
N2B C16B 1_555 1_555
C4B C5B 1_555 1_555
C13B C14B 1_555 1_555

#END
