
#######################################################################
#
#                 Cambridge Crystallographic Data Centre
#                                CCDC 
#
#######################################################################
#
# If this CIF has been generated from an entry in the Cambridge 
# Structural Database, then it will include bibliographic, chemical, 
# crystal, experimental, refinement or atomic coordinate data resulting 
# from the CCDC's data processing and validation procedures.
#
#######################################################################

data_NIFKAO
_chemical_formula_moiety         'C14 H22 N4 O4'
_chemical_name_systematic        
4,4'-(Hexane-1,6-diyl)bis(piperazine-2,6-dione)
_chemical_properties_biological  
'more potent anticancer activity against human erythroleukemia K562 cells than ICRF-154, the ethane-1,2-diyl analogue'
_symmetry_cell_setting           monoclinic
_symmetry_space_group_name_H-M   'P 21/c'
_symmetry_Int_Tables_number      14
_space_group_name_Hall           '-P 2ybc'
loop_
_symmetry_equiv_pos_site_id
_symmetry_equiv_pos_as_xyz
1 x,y,z
2 -x,1/2+y,1/2-z
3 -x,-y,-z
4 x,1/2-y,1/2+z
_cell_length_a                   10.756(2)
_cell_length_b                   7.0690(10)
_cell_length_c                   10.160(2)
_cell_angle_alpha                90
_cell_angle_beta                 91.90(3)
_cell_angle_gamma                90
_cell_volume                     772.082
_exptl_crystal_colour            colorless
_exptl_crystal_description       block
_cell_formula_units_Z            2
loop_
_atom_site_label
_atom_site_type_symbol
_atom_site_fract_x
_atom_site_fract_y
_atom_site_fract_z
N1 N 0.1196(2) 0.0792(4) 0.8787(3)
N2 N 0.2818(2) -0.0743(3) 0.7112(2)
O1 O 0.0161(2) -0.1969(3) 0.8899(2)
O2 O 0.2040(2) 0.3676(3) 0.8527(3)
C1 C 0.4839(3) -0.3959(4) 0.5015(3)
C2 C 0.3882(3) -0.3482(5) 0.6060(3)
C3 C 0.3542(3) -0.1412(5) 0.5992(3)
C4 C 0.2647(3) 0.1281(5) 0.7027(3)
C5 C 0.1613(3) -0.1675(5) 0.7180(3)
C6 C 0.1960(3) 0.2052(4) 0.8173(3)
C7 C 0.0932(3) -0.0998(4) 0.8366(3)
H1 H 0.4465(27) -0.3634(42) 0.4085(29)
H2 H 0.5541(30) -0.3117(47) 0.5195(31)
H3 H 0.4221(28) -0.3708(45) 0.7023(31)
H4 H 0.3147(26) -0.4389(41) 0.5903(26)
H5 H 0.3079(26) -0.1156(41) 0.5098(28)
H6 H 0.4290(28) -0.0524(44) 0.5970(28)
H7 H 0.2176(26) 0.1624(40) 0.6179(28)
H8 H 0.3357(30) 0.2007(48) 0.6990(31)
H9 H 0.1721(23) -0.3040(40) 0.7241(24)
H10 H 0.1152(23) -0.1403(38) 0.6423(26)
H11 H 0.0925(32) 0.1144(50) 0.9465(33)
C1B C 0.5161(3) -0.6041(4) 0.4985(3)
C2B C 0.6118(3) -0.6518(5) 0.3940(3)
C3B C 0.6458(3) -0.8588(5) 0.4008(3)
N2B N 0.7182(2) -0.9257(3) 0.2888(2)
C4B C 0.7353(3) -1.1281(5) 0.2973(3)
C6B C 0.8040(3) -1.2052(4) 0.1827(3)
N1B N 0.8804(2) -1.0792(4) 0.1213(3)
C7B C 0.9068(3) -0.9002(4) 0.1634(3)
O1B O 0.9839(2) -0.8031(3) 0.1101(2)
C5B C 0.8387(3) -0.8325(5) 0.2820(3)
H9B H 0.8279(23) -0.6960(40) 0.2759(24)
H10B H 0.8848(23) -0.8597(38) 0.3577(26)
H11B H 0.9075(32) -1.1144(50) 0.0535(33)
O2B O 0.7960(2) -1.3676(3) 0.1473(3)
H7B H 0.7824(26) -1.1624(40) 0.3821(28)
H8B H 0.6643(30) -1.2007(48) 0.3010(31)
H5B H 0.6921(26) -0.8844(41) 0.4902(28)
H6B H 0.5710(28) -0.9476(44) 0.4030(28)
H3B H 0.5779(28) -0.6292(45) 0.2977(31)
H4B H 0.6853(26) -0.5611(41) 0.4097(26)
H1B H 0.5535(27) -0.6366(42) 0.5915(29)
H2B H 0.4459(30) -0.6883(47) 0.4805(31)
loop_
_geom_bond_atom_site_label_1
_geom_bond_atom_site_label_2
_geom_bond_site_symmetry_1
_geom_bond_site_symmetry_2
N1 C6 1_555 1_555
N2 C3 1_555 1_555
O1 C7 1_555 1_555
O2 C6 1_555 1_555
C1 C2 1_555 1_555
C2 C3 1_555 1_555
C3 H5 1_555 1_555
C4 N2 1_555 1_555
C5 N2 1_555 1_555
C6 C4 1_555 1_555
C7 N1 1_555 1_555
H1 C1 1_555 1_555
H2 C1 1_555 1_555
H3 C2 1_555 1_555
H4 C2 1_555 1_555
H6 C3 1_555 1_555
H7 C4 1_555 1_555
H8 C4 1_555 1_555
H9 C5 1_555 1_555
H10 C5 1_555 1_555
H11 N1 1_555 1_555
C1B C1 1_555 1_555
C2B C1B 1_555 1_555
C3B C2B 1_555 1_555
N2B C3B 1_555 1_555
C4B N2B 1_555 1_555
C6B C4B 1_555 1_555
N1B C6B 1_555 1_555
C7B N1B 1_555 1_555
O1B C7B 1_555 1_555
C5B N2B 1_555 1_555
H9B C5B 1_555 1_555
H10B C5B 1_555 1_555
H11B N1B 1_555 1_555
O2B C6B 1_555 1_555
H7B C4B 1_555 1_555
H8B C4B 1_555 1_555
H5B C3B 1_555 1_555
H6B C3B 1_555 1_555
H3B C2B 1_555 1_555
H4B C2B 1_555 1_555
H1B C1B 1_555 1_555
H2B C1B 1_555 1_555
C5 C7 1_555 1_555
C7B C5B 1_555 1_555

#END
