
#######################################################################
#
#                 Cambridge Crystallographic Data Centre
#                                CCDC 
#
#######################################################################
#
# If this CIF has been generated from an entry in the Cambridge 
# Structural Database, then it will include bibliographic, chemical, 
# crystal, experimental, refinement or atomic coordinate data resulting 
# from the CCDC's data processing and validation procedures.
#
#######################################################################

data_NIFQUO
_chemical_formula_moiety         'C17 H20 O3 S1'
_chemical_name_systematic        
(2-Carboxyphenyl)-(born-10-yl-2-olato)-\l^4^-sulfurane
_symmetry_cell_setting           orthorhombic
_symmetry_space_group_name_H-M   'P 21 21 21'
_symmetry_Int_Tables_number      19
_space_group_name_Hall           'P 2ac 2ab'
loop_
_symmetry_equiv_pos_site_id
_symmetry_equiv_pos_as_xyz
1 x,y,z
2 1/2-x,-y,1/2+z
3 1/2+x,1/2-y,-z
4 -x,1/2+y,1/2-z
_cell_length_a                   11.206(3)
_cell_length_b                   12.282(2)
_cell_length_c                   10.965(3)
_cell_angle_alpha                90
_cell_angle_beta                 90
_cell_angle_gamma                90
_cell_volume                     1509.14
_exptl_crystal_colour            colorless
_exptl_crystal_description       prismatic
_cell_formula_units_Z            4
loop_
_atom_site_label
_atom_site_type_symbol
_atom_site_fract_x
_atom_site_fract_y
_atom_site_fract_z
S1 S -0.7322(2) -0.0670(2) -0.2088(2)
O1 O -0.8782(7) -0.3275(5) -0.0402(6)
O2 O -0.7404(5) -0.2136(5) -0.1158(6)
O3 O -0.7227(5) 0.0553(5) -0.2779(5)
C1 C -0.8904(6) -0.0646(8) -0.1770(7)
C2 C -0.9653(8) 0.0173(7) -0.2224(9)
C3 C -1.0856(8) 0.0099(8) -0.197(1)
C4 C -1.1298(8) -0.0755(9) -0.1295(10)
C5 C -1.0557(8) -0.1580(8) -0.0911(9)
C6 C -0.9353(7) -0.1537(7) -0.1157(8)
C7 C -0.8488(9) -0.2417(8) -0.0857(8)
C8 C -0.6578(7) -0.0198(6) -0.0676(7)
C9 C -0.6224(7) 0.0966(7) -0.0910(7)
C10 C -0.6319(9) 0.1804(7) 0.0144(8)
C11 C -0.5655(9) 0.2821(7) -0.039(1)
C12 C -0.5206(8) 0.2414(7) -0.1619(8)
C13 C -0.6308(10) 0.2366(8) -0.2476(9)
C14 C -0.7011(8) 0.1424(7) -0.1908(8)
C15 C -0.4936(8) 0.1200(6) -0.1385(8)
C16 C -0.4547(8) 0.0562(9) -0.2519(10)
C17 C -0.3974(8) 0.1019(7) -0.042(1)
H1 H -0.9342 0.0762 -0.2692
H2 H -1.1384 0.0645 -0.2265
H3 H -1.2125 -0.0777 -0.1095
H4 H -1.0878 -0.2181 -0.0474
H5 H -0.7116 -0.0234 -0.0007
H6 H -0.5896 -0.0629 -0.0510
H7 H -0.5934 0.1549 0.0861
H8 H -0.7128 0.1972 0.0325
H9 H -0.5012 0.3034 0.0116
H10 H -0.6189 0.3415 -0.0495
H11 H -0.4551 0.2815 -0.1936
H12 H -0.6085 0.2210 -0.3291
H13 H -0.6751 0.3026 -0.2452
H14 H -0.7742 0.1679 -0.1573
H15 H -0.3799 0.0831 -0.2797
H16 H -0.4476 -0.0187 -0.2323
H17 H -0.5127 0.0652 -0.3146
H18 H -0.3234 0.1282 -0.0716
H19 H -0.3912 0.0261 -0.0253
H20 H -0.4185 0.1396 0.0303
loop_
_geom_bond_atom_site_label_1
_geom_bond_atom_site_label_2
_geom_bond_site_symmetry_1
_geom_bond_site_symmetry_2
S1 O2 1_555 1_555
O1 C7 1_555 1_555
O2 C7 1_555 1_555
O3 S1 1_555 1_555
C1 S1 1_555 1_555
C2 C1 1_555 1_555
C3 C2 1_555 1_555
C4 C3 1_555 1_555
C5 C4 1_555 1_555
C6 C1 1_555 1_555
C7 C6 1_555 1_555
C8 S1 1_555 1_555
C9 C8 1_555 1_555
C10 C9 1_555 1_555
C11 C10 1_555 1_555
C12 C11 1_555 1_555
C13 C12 1_555 1_555
C14 O3 1_555 1_555
C15 C9 1_555 1_555
C16 C15 1_555 1_555
C17 C15 1_555 1_555
H1 C2 1_555 1_555
H2 C3 1_555 1_555
H3 C4 1_555 1_555
H4 C5 1_555 1_555
H5 C8 1_555 1_555
H6 C8 1_555 1_555
H7 C10 1_555 1_555
H8 C10 1_555 1_555
H9 C11 1_555 1_555
H10 C11 1_555 1_555
H11 C12 1_555 1_555
H12 C13 1_555 1_555
H13 C13 1_555 1_555
H14 C14 1_555 1_555
H15 C16 1_555 1_555
H16 C16 1_555 1_555
H17 C16 1_555 1_555
H18 C17 1_555 1_555
H19 C17 1_555 1_555
H20 C17 1_555 1_555
C5 C6 1_555 1_555
C9 C14 1_555 1_555
C12 C15 1_555 1_555
C13 C14 1_555 1_555

#END
