
#######################################################################
#
#                 Cambridge Crystallographic Data Centre
#                                CCDC 
#
#######################################################################
#
# If this CIF has been generated from an entry in the Cambridge 
# Structural Database, then it will include bibliographic, chemical, 
# crystal, experimental, refinement or atomic coordinate data resulting 
# from the CCDC's data processing and validation procedures.
#
#######################################################################

data_NIFTII
_chemical_formula_moiety         'C26 H28 F1 N1 O5,0.5(C1 H4 O1),0.5(H2 O1)'
_chemical_name_systematic        
'N-(4-fluorobenzyl)-5,12-dihydroxy-11-methyl-6-methylene-16-oxo-15-oxapentacyclo[9.3.2.1^5,8^.0^1,10^.0^2,8^]heptadec-13-ene-9-carboxamide methanol solvate hemihydrate'
_symmetry_cell_setting           monoclinic
_symmetry_space_group_name_H-M   'P 21'
_symmetry_Int_Tables_number      4
_space_group_name_Hall           'P 2yb'
loop_
_symmetry_equiv_pos_site_id
_symmetry_equiv_pos_as_xyz
1 x,y,z
2 -x,1/2+y,-z
_cell_length_a                   9.4144(2)
_cell_length_b                   25.4932(4)
_cell_length_c                   10.9393(2)
_cell_angle_alpha                90
_cell_angle_beta                 115.504(2)
_cell_angle_gamma                90
_cell_volume                     2369.63
_exptl_crystal_colour            colorless
_exptl_crystal_description       ROD
_cell_formula_units_Z            4
loop_
_atom_site_label
_atom_site_type_symbol
_atom_site_fract_x
_atom_site_fract_y
_atom_site_fract_z
C1 C 0.8651(3) 0.44190(9) 0.6288(2)
H1 H 0.8559 0.4697 0.5681
C2 C 0.9833(3) 0.44066(10) 0.7527(2)
H2 H 1.0575 0.4685 0.7790
C3 C 1.0056(3) 0.39714(9) 0.8541(2)
H3 H 1.0129 0.4129 0.9404
C4 C 0.8667(3) 0.35701(9) 0.7997(2)
C5 C 0.8302(2) 0.34688(8) 0.6513(2)
H4 H 0.9287 0.3422 0.6390
C6 C 0.7101(2) 0.30448(8) 0.5776(2)
H5 H 0.6327 0.3023 0.6176
C7 C 0.7841(2) 0.25112(9) 0.58683(19)
C8 C 0.6236(2) 0.32451(8) 0.4291(2)
C9 C 0.6446(2) 0.38603(9) 0.4381(2)
H6 H 0.7063 0.3959 0.3866
C10 C 0.7465(2) 0.39801(9) 0.5874(2)
C11 C 0.4851(2) 0.41459(9) 0.3721(2)
H7 H 0.5034 0.4526 0.3665
H8 H 0.4283 0.4101 0.4294
C12 C 0.3825(3) 0.39320(9) 0.2284(2)
H9 H 0.2704 0.4007 0.2044
H10 H 0.4109 0.4115 0.1623
C13 C 0.4044(2) 0.33351(9) 0.2190(2)
C14 C 0.4494(2) 0.30927(9) 0.3589(2)
H11 H 0.3887 0.3249 0.4045
H12 H 0.4351 0.2707 0.3536
C15 C 0.6803(3) 0.30344(9) 0.3256(2)
H13 H 0.7827 0.3190 0.3399
H14 H 0.6894 0.2647 0.3296
C16 C 0.5483(3) 0.32171(9) 0.1924(2)
C17 C 0.5542(3) 0.32737(11) 0.0747(2)
H15 H 0.6487 0.3197 0.0668
H16 H 0.4640 0.3391 -0.0022
C18 C 0.8955(3) 0.30893(10) 0.8901(2)
H17 H 0.9311 0.3201 0.9844
H18 H 0.9764 0.2869 0.8822
H19 H 0.7976 0.2889 0.8617
C19 C 0.7191(3) 0.38644(9) 0.7842(2)
C20 C 0.7404(3) 0.15622(9) 0.5844(2)
H20 H 0.8370 0.1558 0.5696
H21 H 0.6562 0.1386 0.5060
C21 C 0.7706(3) 0.12507(9) 0.7112(2)
C22 C 0.8143(3) 0.14868(11) 0.8364(3)
H22 H 0.8211 0.1858 0.8437
C23 C 0.8481(3) 0.11838(13) 0.9515(3)
H23 H 0.8767 0.1344 1.0373
C24 C 0.8390(4) 0.06464(13) 0.9378(3)
C25 C 0.7956(4) 0.04004(12) 0.8160(4)
H24 H 0.7903 0.0029 0.8100
C26 C 0.7592(3) 0.07049(11) 0.7010(3)
H25 H 0.7264 0.0541 0.6151
N1 N 0.6946(2) 0.21043(8) 0.5889(2)
O1 O 1.15043(19) 0.37194(7) 0.87922(17)
O2 O 0.6698(2) 0.39232(8) 0.86850(17)
O3 O 0.64386(18) 0.40674(7) 0.65837(15)
O4 O 0.26088(19) 0.31356(7) 0.11548(16)
O5 O 0.91443(18) 0.24596(7) 0.58686(17)
F1 F 0.8763(3) 0.03506(11) 1.0507(2)
H26 H 0.604(4) 0.2159(13) 0.593(3)
H27 H 1.181(5) 0.3526(18) 0.952(4)
H28 H 0.272(4) 0.2831(17) 0.109(4)
C27 C 0.7571(2) 0.69829(8) 0.3558(2)
H29 H 0.8745 0.7003 0.3937
C28 C 0.7119(2) 0.65444(9) 0.4277(2)
H30 H 0.6014 0.6586 0.4165
C29 C 0.8248(3) 0.64212(9) 0.5747(2)
C30 C 0.7436(3) 0.60036(10) 0.6270(2)
H31 H 0.8251 0.5835 0.7101
C31 C 0.6628(3) 0.55816(9) 0.5215(2)
H32 H 0.6146 0.5297 0.5452
C32 C 0.6563(3) 0.55920(9) 0.3975(2)
H33 H 0.6057 0.5319 0.3347
C33 C 0.7309(2) 0.60462(9) 0.3591(2)
C34 C 0.6787(2) 0.61823(9) 0.2101(2)
H34 H 0.5650 0.6086 0.1607
C35 C 0.7665(3) 0.59070(9) 0.1385(2)
H35 H 0.7426 0.5527 0.1317
H36 H 0.8813 0.5950 0.1929
C36 C 0.7195(3) 0.61320(9) -0.0042(2)
H37 H 0.6228 0.5954 -0.0689
H38 H 0.8042 0.6060 -0.0325
C37 C 0.6898(3) 0.67320(9) -0.0092(2)
C38 C 0.5210(3) 0.68486(9) -0.0289(2)
C39 C 0.6901(2) 0.67991(8) 0.2054(2)
C40 C 0.5278(2) 0.70130(9) 0.1065(2)
H39 H 0.4419 0.6851 0.1227
H40 H 0.5225 0.7399 0.1132
C41 C 0.7892(3) 0.69651(9) 0.1311(2)
H41 H 0.7974 0.7351 0.1275
H42 H 0.8960 0.6810 0.1731
C42 C 0.9577(3) 0.61419(10) 0.5552(2)
C43 C 0.8863(3) 0.68908(10) 0.6695(2)
H43 H 0.7974 0.7096 0.6676
H44 H 0.9508 0.7111 0.6398
H45 H 0.9503 0.6767 0.7619
C44 C 0.3942(3) 0.68005(11) -0.1452(3)
H46 H 0.2931 0.6873 -0.1496
H47 H 0.4042 0.6694 -0.2244
C45 C 0.6936(2) 0.75162(9) 0.3692(2)
C46 C 0.7345(3) 0.84680(9) 0.3686(2)
H48 H 0.6246 0.8474 0.3578
H49 H 0.7365 0.8646 0.2890
C47 C 0.8371(3) 0.87731(10) 0.4954(3)
C48 C 0.9204(3) 0.85314(10) 0.6198(3)
H50 H 0.9144 0.8161 0.6269
C49 C 1.0127(3) 0.88235(12) 0.7343(3)
H51 H 1.0696 0.8657 0.8192
C50 C 1.0194(4) 0.93583(12) 0.7215(3)
C51 C 0.9390(4) 0.96144(11) 0.6005(3)
H52 H 0.9460 0.9984 0.5946
C52 C 0.8471(3) 0.93184(10) 0.4869(3)
H53 H 0.7904 0.9489 0.4024
N2 N 0.7832(2) 0.79242(8) 0.3701(2)
O6 O 0.6328(2) 0.62720(7) 0.66213(17)
O7 O 1.0917(2) 0.60815(8) 0.63714(17)
O8 O 0.90477(18) 0.59605(7) 0.42697(15)
O9 O 0.7266(2) 0.69827(7) -0.10936(17)
O10 O 0.56535(19) 0.75602(7) 0.37356(17)
F2 F 1.1103(3) 0.96427(9) 0.8333(2)
H54 H 0.876(4) 0.7852(13) 0.372(3)
H55 H 0.568(4) 0.6071(16) 0.667(3)
H56 H 0.713(5) 0.6790(19) -0.171(4)
C53 C 0.4541(4) 0.47997(14) 0.9538(3)
H57 H 0.5546 0.4708 1.0295
H58 H 0.3733 0.4548 0.9492
H59 H 0.4229 0.5153 0.9677
O11 O 0.4705(4) 0.47854(11) 0.8323(3)
H60 H 0.521(6) 0.452(2) 0.837(5)
O12 O 0.3971(2) 0.56168(8) 0.6606(2)
H61 H 0.420(4) 0.5354(17) 0.712(4)
H62 H 0.311(4) 0.5730(14) 0.658(3)
loop_
_geom_bond_atom_site_label_1
_geom_bond_atom_site_label_2
_geom_bond_site_symmetry_1
_geom_bond_site_symmetry_2
C1 H1 1_555 1_555
C2 C1 1_555 1_555
H2 C2 1_555 1_555
C3 C2 1_555 1_555
H3 C3 1_555 1_555
C4 C3 1_555 1_555
C5 C4 1_555 1_555
H4 C5 1_555 1_555
C6 C5 1_555 1_555
H5 C6 1_555 1_555
C7 C6 1_555 1_555
C8 C6 1_555 1_555
C9 C8 1_555 1_555
H6 C9 1_555 1_555
C10 C1 1_555 1_555
C11 C9 1_555 1_555
H7 C11 1_555 1_555
H8 C11 1_555 1_555
C12 C11 1_555 1_555
H9 C12 1_555 1_555
H10 C12 1_555 1_555
C13 C12 1_555 1_555
C14 C8 1_555 1_555
H11 C14 1_555 1_555
H12 C14 1_555 1_555
C15 C8 1_555 1_555
H13 C15 1_555 1_555
H14 C15 1_555 1_555
C16 C13 1_555 1_555
C17 C16 1_555 1_555
H15 C17 1_555 1_555
H16 C17 1_555 1_555
C18 C4 1_555 1_555
H17 C18 1_555 1_555
H18 C18 1_555 1_555
H19 C18 1_555 1_555
C19 C4 1_555 1_555
C20 H20 1_555 1_555
H21 C20 1_555 1_555
C21 C20 1_555 1_555
C22 C21 1_555 1_555
H22 C22 1_555 1_555
C23 C22 1_555 1_555
H23 C23 1_555 1_555
C24 C23 1_555 1_555
C25 C24 1_555 1_555
H24 C25 1_555 1_555
C26 C21 1_555 1_555
H25 C26 1_555 1_555
N1 C7 1_555 1_555
O1 C3 1_555 1_555
O2 C19 1_555 1_555
O3 C10 1_555 1_555
O4 C13 1_555 1_555
O5 C7 1_555 1_555
F1 C24 1_555 1_555
H26 N1 1_555 1_555
H27 O1 1_555 1_555
H28 O4 1_555 1_555
C27 H29 1_555 1_555
C28 C27 1_555 1_555
H30 C28 1_555 1_555
C29 C28 1_555 1_555
C30 C29 1_555 1_555
H31 C30 1_555 1_555
C31 C30 1_555 1_555
H32 C31 1_555 1_555
C32 C31 1_555 1_555
H33 C32 1_555 1_555
C33 C28 1_555 1_555
C34 C33 1_555 1_555
H34 C34 1_555 1_555
C35 C34 1_555 1_555
H35 C35 1_555 1_555
H36 C35 1_555 1_555
C36 C35 1_555 1_555
H37 C36 1_555 1_555
H38 C36 1_555 1_555
C37 C36 1_555 1_555
C38 C37 1_555 1_555
C39 C27 1_555 1_555
C40 C38 1_555 1_555
H39 C40 1_555 1_555
H40 C40 1_555 1_555
C41 C37 1_555 1_555
H41 C41 1_555 1_555
H42 C41 1_555 1_555
C42 C29 1_555 1_555
C43 C29 1_555 1_555
H43 C43 1_555 1_555
H44 C43 1_555 1_555
H45 C43 1_555 1_555
C44 C38 1_555 1_555
H46 C44 1_555 1_555
H47 C44 1_555 1_555
C45 C27 1_555 1_555
C46 H48 1_555 1_555
H49 C46 1_555 1_555
C47 C46 1_555 1_555
C48 C47 1_555 1_555
H50 C48 1_555 1_555
C49 C48 1_555 1_555
H51 C49 1_555 1_555
C50 C49 1_555 1_555
C51 C50 1_555 1_555
H52 C51 1_555 1_555
C52 C47 1_555 1_555
H53 C52 1_555 1_555
N2 C45 1_555 1_555
O6 C30 1_555 1_555
O7 C42 1_555 1_555
O8 C33 1_555 1_555
O9 C37 1_555 1_555
O10 C45 1_555 1_555
F2 C50 1_555 1_555
H54 N2 1_555 1_555
H55 O6 1_555 1_555
H56 O9 1_555 1_555
C53 H57 1_555 1_555
H58 C53 1_555 1_555
H59 C53 1_555 1_555
O11 C53 1_555 1_555
H60 O11 1_555 1_555
O12 H61 1_555 1_555
H62 O12 1_555 1_555
C5 C10 1_555 1_555
C9 C10 1_555 1_555
C13 C14 1_555 1_555
C15 C16 1_555 1_555
C19 O3 1_555 1_555
C20 N1 1_555 1_555
C25 C26 1_555 1_555
C32 C33 1_555 1_555
C34 C39 1_555 1_555
C39 C40 1_555 1_555
C39 C41 1_555 1_555
C42 O8 1_555 1_555
C46 N2 1_555 1_555
C51 C52 1_555 1_555

#END
