
#######################################################################
#
#                 Cambridge Crystallographic Data Centre
#                                CCDC 
#
#######################################################################
#
# If this CIF has been generated from an entry in the Cambridge 
# Structural Database, then it will include bibliographic, chemical, 
# crystal, experimental, refinement or atomic coordinate data resulting 
# from the CCDC's data processing and validation procedures.
#
#######################################################################

data_NIFVUW
_chemical_compound_source        'leaves of Garcinia bracteata'
_chemical_name_common            8-ethoxy-8,8a-dihydrobractatin
_chemical_formula_moiety         'C30 H38 O7'
_chemical_name_systematic        
6-ethoxy-8,10-dihydroxy-3,3-dimethyl-11-(2-methylbut-3-en-2-yl)-1-(3-methylbut-2-en-1-yl)-3,3a,4,5,6,6a-hexahydro-1H,7H-1,5-methanofuro[3,4-d]xanthene-7,13-dione
_symmetry_cell_setting           monoclinic
_symmetry_space_group_name_H-M   'P 21/c'
_symmetry_Int_Tables_number      14
_space_group_name_Hall           '-P 2ybc'
loop_
_symmetry_equiv_pos_site_id
_symmetry_equiv_pos_as_xyz
1 x,y,z
2 -x,1/2+y,1/2-z
3 -x,-y,-z
4 x,1/2-y,1/2+z
_cell_length_a                   14.317(5)
_cell_length_b                   8.341(5)
_cell_length_c                   22.569(5)
_cell_angle_alpha                90
_cell_angle_beta                 98.276(5)
_cell_angle_gamma                90
_cell_volume                     2667.08
_exptl_crystal_colour            white
_exptl_crystal_description       block
_chemical_melting_point          '215-219 deg.C'
_cell_formula_units_Z            4
loop_
_atom_site_label
_atom_site_type_symbol
_atom_site_fract_x
_atom_site_fract_y
_atom_site_fract_z
O1 O 0.3044(2) 0.4063(4) 0.49729(12)
H1 H 0.2807 0.3932 0.5279
O2 O 0.02730(19) 0.1250(4) 0.42216(12)
H2 H -0.0016 0.0942 0.3902
O3 O 0.25578(17) 0.2587(3) 0.29340(11)
O4 O -0.00417(18) 0.0741(4) 0.30803(12)
O5 O 0.02199(19) 0.1754(4) 0.14524(12)
O6 O 0.2123(2) 0.0399(4) 0.09580(12)
O7 O 0.34730(17) 0.1059(3) 0.20728(11)
C1 C 0.2490(3) 0.3379(6) 0.45058(19)
C2 C 0.1662(3) 0.2604(5) 0.45981(18)
H3 H 0.1490 0.2559 0.4980
C3 C 0.1105(3) 0.1913(5) 0.41279(18)
C4 C 0.1367(3) 0.1934(5) 0.35463(17)
C5 C 0.2242(3) 0.2655(5) 0.34856(18)
C6 C 0.2801(3) 0.3472(5) 0.39394(18)
C7 C 0.3701(3) 0.4454(6) 0.38927(18)
C8 C 0.4580(3) 0.3612(6) 0.42306(19)
H4 H 0.5134 0.4221 0.4185
H5 H 0.4633 0.2556 0.4069
H6 H 0.4520 0.3535 0.4648
C9 C 0.3904(3) 0.4747(6) 0.32502(18)
H7 H 0.4491 0.5309 0.3263
H8 H 0.3404 0.5378 0.3036
H9 H 0.3942 0.3738 0.3051
C10 C 0.3642(3) 0.6113(6) 0.4158(2)
H10 H 0.4131 0.6435 0.4451
C11 C 0.2967(4) 0.7097(7) 0.4009(2)
H11 H 0.2466 0.6814 0.3719
H12 H 0.2976 0.8099 0.4191
C12 C 0.0737(3) 0.1366(5) 0.30408(18)
C13 C 0.1048(3) 0.1661(5) 0.24350(16)
H13 H 0.0921 0.2790 0.2333
C14 C 0.2115(3) 0.1430(5) 0.25122(17)
C15 C 0.2448(3) -0.0289(5) 0.26568(18)
H14 H 0.2482 -0.0498 0.3087
C16 C 0.1725(3) -0.1404(5) 0.22996(17)
H15 H 0.1243 -0.1698 0.2540
H16 H 0.2034 -0.2376 0.2194
C17 C 0.1273(3) -0.0536(5) 0.17300(18)
H17 H 0.0972 -0.1300 0.1432
C18 C 0.0548(3) 0.0651(5) 0.19142(18)
H18 H 0.0015 0.0070 0.2041
C19 C -0.0386(3) 0.0998(6) 0.0982(2)
H19 H -0.0923 0.0535 0.1137
H20 H -0.0050 0.0141 0.0813
C20 C -0.0715(4) 0.2185(7) 0.0514(2)
H21 H -0.1119 0.1669 0.0193
H22 H -0.0181 0.2641 0.0362
H23 H -0.1058 0.3019 0.0681
C21 C 0.2532(3) 0.1657(5) 0.19298(17)
C22 C 0.1988(3) 0.0480(6) 0.14728(19)
C23 C 0.3462(3) -0.0322(6) 0.24690(18)
C24 C 0.4221(3) -0.0056(6) 0.29961(19)
H24 H 0.4829 -0.0104 0.2865
H25 H 0.4179 -0.0872 0.3291
H26 H 0.4137 0.0978 0.3168
C25 C 0.3673(3) -0.1797(6) 0.2113(2)
H27 H 0.4303 -0.1725 0.2016
H28 H 0.3232 -0.1852 0.1750
H29 H 0.3616 -0.2742 0.2347
C26 C 0.2561(3) 0.3363(5) 0.16948(17)
H30 H 0.1924 0.3681 0.1532
H31 H 0.2773 0.4067 0.2029
C27 C 0.3177(3) 0.3615(5) 0.12292(17)
H32 H 0.3699 0.2946 0.1245
C28 C 0.3065(3) 0.4678(6) 0.07961(19)
C29 C 0.2240(3) 0.5801(6) 0.0685(2)
H33 H 0.1822 0.5606 0.0974
H34 H 0.1908 0.5626 0.0289
H35 H 0.2461 0.6888 0.0720
C30 C 0.3774(4) 0.4856(6) 0.0365(2)
H36 H 0.4277 0.4100 0.0466
H37 H 0.4025 0.5925 0.0391
H38 H 0.3469 0.4656 -0.0035
loop_
_geom_bond_atom_site_label_1
_geom_bond_atom_site_label_2
_geom_bond_site_symmetry_1
_geom_bond_site_symmetry_2
O1 H1 1_555 1_555
O2 H2 1_555 1_555
O3 C5 1_555 1_555
O4 C12 1_555 1_555
O5 C18 1_555 1_555
O6 C22 1_555 1_555
O7 C21 1_555 1_555
C1 O1 1_555 1_555
C2 C1 1_555 1_555
H3 C2 1_555 1_555
C3 O2 1_555 1_555
C4 C3 1_555 1_555
C5 C4 1_555 1_555
C6 C1 1_555 1_555
C7 C6 1_555 1_555
C8 C7 1_555 1_555
H4 C8 1_555 1_555
H5 C8 1_555 1_555
H6 C8 1_555 1_555
C9 C7 1_555 1_555
H7 C9 1_555 1_555
H8 C9 1_555 1_555
H9 C9 1_555 1_555
C10 C7 1_555 1_555
H10 C10 1_555 1_555
C11 C10 1_555 1_555
H11 C11 1_555 1_555
H12 C11 1_555 1_555
C12 C4 1_555 1_555
C13 C12 1_555 1_555
H13 C13 1_555 1_555
C14 O3 1_555 1_555
C15 C14 1_555 1_555
H14 C15 1_555 1_555
C16 C15 1_555 1_555
H15 C16 1_555 1_555
H16 C16 1_555 1_555
C17 C16 1_555 1_555
H17 C17 1_555 1_555
C18 C13 1_555 1_555
H18 C18 1_555 1_555
C19 O5 1_555 1_555
H19 C19 1_555 1_555
H20 C19 1_555 1_555
C20 C19 1_555 1_555
H21 C20 1_555 1_555
H22 C20 1_555 1_555
H23 C20 1_555 1_555
C21 C14 1_555 1_555
C22 C17 1_555 1_555
C23 O7 1_555 1_555
C24 C23 1_555 1_555
H24 C24 1_555 1_555
H25 C24 1_555 1_555
H26 C24 1_555 1_555
C25 C23 1_555 1_555
H27 C25 1_555 1_555
H28 C25 1_555 1_555
H29 C25 1_555 1_555
C26 C21 1_555 1_555
H30 C26 1_555 1_555
H31 C26 1_555 1_555
C27 C26 1_555 1_555
H32 C27 1_555 1_555
C28 C27 1_555 1_555
C29 C28 1_555 1_555
H33 C29 1_555 1_555
H34 C29 1_555 1_555
H35 C29 1_555 1_555
C30 C28 1_555 1_555
H36 C30 1_555 1_555
H37 C30 1_555 1_555
H38 C30 1_555 1_555
C2 C3 1_555 1_555
C5 C6 1_555 1_555
C13 C14 1_555 1_555
C15 C23 1_555 1_555
C17 C18 1_555 1_555
C21 C22 1_555 1_555

#END
