
#######################################################################
#
#                 Cambridge Crystallographic Data Centre
#                                CCDC 
#
#######################################################################
#
# If this CIF has been generated from an entry in the Cambridge 
# Structural Database, then it will include bibliographic, chemical, 
# crystal, experimental, refinement or atomic coordinate data resulting 
# from the CCDC's data processing and validation procedures.
#
#######################################################################

data_NIFWAD
_chemical_compound_source        'leaves of Garcinia bracteata'
_chemical_name_common            epiisobractatin
_chemical_formula_moiety         'C28 H32 O6'
_chemical_name_systematic        
8-hydroxy-3,3,11,12,12-pentamethyl-1-(3-methylbut-2-en-1-yl)-3,3a,4,5,11,12-hexahydro-1H,7H-1,5-methanodifuro[2,3-c:3',4'-g]xanthene-7,14-dione
_symmetry_cell_setting           orthorhombic
_symmetry_space_group_name_H-M   'P 21 21 21'
_symmetry_Int_Tables_number      19
_space_group_name_Hall           'P 2ac 2ab'
loop_
_symmetry_equiv_pos_site_id
_symmetry_equiv_pos_as_xyz
1 x,y,z
2 1/2-x,-y,1/2+z
3 1/2+x,1/2-y,-z
4 -x,1/2+y,1/2-z
_cell_length_a                   10.105(5)
_cell_length_b                   11.810(5)
_cell_length_c                   20.030(5)
_cell_angle_alpha                90
_cell_angle_beta                 90
_cell_angle_gamma                90
_cell_volume                     2390.38
_exptl_crystal_colour            yellow
_exptl_crystal_description       block
_chemical_melting_point          '180-185 deg.C'
_cell_formula_units_Z            4
loop_
_atom_site_label
_atom_site_type_symbol
_atom_site_fract_x
_atom_site_fract_y
_atom_site_fract_z
C1 C 0.5791(3) -0.0094(3) 0.54972(16)
H1 H 0.5528 0.0204 0.5934
C2 C 0.4506(3) -0.0229(3) 0.50685(14)
C3 C 0.4505(3) 0.0916(3) 0.47174(13)
C4 C 0.5758(3) 0.1406(3) 0.47895(14)
C5 C 0.6158(3) 0.2413(3) 0.45059(14)
H2 H 0.7003 0.2702 0.4574
C6 C 0.5248(3) 0.2962(3) 0.41195(14)
C7 C 0.3967(3) 0.2506(2) 0.39994(14)
C8 C 0.3632(3) 0.1451(3) 0.42929(14)
C9 C 0.1500(3) 0.1350(2) 0.36950(13)
C10 C 0.1806(3) 0.2502(3) 0.34234(14)
C11 C 0.3046(3) 0.3085(3) 0.35828(14)
C12 C 0.0937(3) 0.2891(3) 0.29839(15)
H3 H 0.1049 0.3578 0.2764
C13 C -0.0233(4) 0.2150(3) 0.28665(16)
H4 H -0.0865 0.2477 0.2549
C14 C -0.0831(3) 0.1964(3) 0.35622(16)
H5 H -0.0946 0.2688 0.3783
H6 H -0.1694 0.1611 0.3519
C15 C 0.0069(3) 0.1211(3) 0.39812(15)
H7 H 0.0040 0.1440 0.4451
C16 C 0.0366(3) 0.1032(3) 0.26212(15)
C17 C 0.1369(3) 0.0488(3) 0.31151(14)
C18 C -0.0190(3) -0.0077(3) 0.39137(15)
C19 C 0.4607(4) -0.1171(3) 0.45561(15)
H8 H 0.5346 -0.1029 0.4267
H9 H 0.3809 -0.1197 0.4297
H10 H 0.4730 -0.1881 0.4780
C20 C 0.3355(4) -0.0420(3) 0.55440(16)
H11 H 0.3322 0.0185 0.5863
H12 H 0.3474 -0.1127 0.5773
H13 H 0.2543 -0.0441 0.5296
C21 C 0.6629(4) -0.1122(3) 0.5617(2)
H14 H 0.7374 -0.0920 0.5890
H15 H 0.6937 -0.1413 0.5198
H16 H 0.6113 -0.1689 0.5841
C22 C 0.0130(4) -0.0702(4) 0.45548(18)
H17 H -0.0034 -0.1496 0.4495
H18 H -0.0418 -0.0419 0.4909
H19 H 0.1044 -0.0587 0.4666
C23 C -0.1581(3) -0.0420(3) 0.36904(18)
H20 H -0.1795 -0.0041 0.3280
H21 H -0.2210 -0.0209 0.4028
H22 H -0.1613 -0.1224 0.3623
C24 C 0.2616(4) 0.0081(3) 0.27676(16)
H23 H 0.3223 -0.0209 0.3102
H24 H 0.2387 -0.0541 0.2474
C25 C 0.3312(4) 0.0974(3) 0.23673(16)
H25 H 0.2791 0.1364 0.2061
C26 C 0.4559(4) 0.1276(3) 0.23924(16)
C27 C 0.5557(4) 0.0748(4) 0.28487(18)
H26 H 0.6403 0.1100 0.2781
H27 H 0.5623 -0.0047 0.2754
H28 H 0.5285 0.0853 0.3304
C28 C 0.5111(5) 0.2178(4) 0.1953(3)
H29 H 0.6036 0.2274 0.2046
H30 H 0.4654 0.2877 0.2035
H31 H 0.4998 0.1964 0.1494
O1 O 0.2439(2) 0.09313(17) 0.41861(9)
O2 O 0.3278(3) 0.40399(19) 0.33321(11)
O3 O 0.5597(2) 0.39560(19) 0.38367(11)
H32 H 0.4974 0.4204 0.3619
O4 O 0.6599(2) 0.07731(19) 0.51683(10)
O5 O 0.0726(2) -0.04703(18) 0.34044(10)
O6 O 0.0082(3) 0.0589(2) 0.21002(11)
loop_
_geom_bond_atom_site_label_1
_geom_bond_atom_site_label_2
_geom_bond_site_symmetry_1
_geom_bond_site_symmetry_2
C1 H1 1_555 1_555
C2 C1 1_555 1_555
C3 C2 1_555 1_555
C4 C3 1_555 1_555
C5 C4 1_555 1_555
H2 C5 1_555 1_555
C6 C5 1_555 1_555
C7 C6 1_555 1_555
C8 C3 1_555 1_555
C9 C10 1_555 1_555
C10 C11 1_555 1_555
C11 C7 1_555 1_555
C12 C10 1_555 1_555
H3 C12 1_555 1_555
C13 C12 1_555 1_555
H4 C13 1_555 1_555
C14 C13 1_555 1_555
H5 C14 1_555 1_555
H6 C14 1_555 1_555
C15 C9 1_555 1_555
H7 C15 1_555 1_555
C16 C13 1_555 1_555
C17 C9 1_555 1_555
C18 C15 1_555 1_555
C19 C2 1_555 1_555
H8 C19 1_555 1_555
H9 C19 1_555 1_555
H10 C19 1_555 1_555
C20 C2 1_555 1_555
H11 C20 1_555 1_555
H12 C20 1_555 1_555
H13 C20 1_555 1_555
C21 C1 1_555 1_555
H14 C21 1_555 1_555
H15 C21 1_555 1_555
H16 C21 1_555 1_555
C22 C18 1_555 1_555
H17 C22 1_555 1_555
H18 C22 1_555 1_555
H19 C22 1_555 1_555
C23 C18 1_555 1_555
H20 C23 1_555 1_555
H21 C23 1_555 1_555
H22 C23 1_555 1_555
C24 C17 1_555 1_555
H23 C24 1_555 1_555
H24 C24 1_555 1_555
C25 C24 1_555 1_555
H25 C25 1_555 1_555
C26 C25 1_555 1_555
C27 C26 1_555 1_555
H26 C27 1_555 1_555
H27 C27 1_555 1_555
H28 C27 1_555 1_555
C28 C26 1_555 1_555
H29 C28 1_555 1_555
H30 C28 1_555 1_555
H31 C28 1_555 1_555
O1 C8 1_555 1_555
O2 C11 1_555 1_555
O3 C6 1_555 1_555
H32 O3 1_555 1_555
O4 C1 1_555 1_555
O5 C17 1_555 1_555
O6 C16 1_555 1_555
C4 O4 1_555 1_555
C7 C8 1_555 1_555
C9 O1 1_555 1_555
C14 C15 1_555 1_555
C16 C17 1_555 1_555
C18 O5 1_555 1_555

#END
