
#######################################################################
#
#                 Cambridge Crystallographic Data Centre
#                                CCDC 
#
#######################################################################
#
# If this CIF has been generated from an entry in the Cambridge 
# Structural Database, then it will include bibliographic, chemical, 
# crystal, experimental, refinement or atomic coordinate data resulting 
# from the CCDC's data processing and validation procedures.
#
#######################################################################

data_NIFYEJ
_chemical_formula_moiety         'C31 H37 N1 O4 S2'
_chemical_name_systematic        
2,6-di-t-butyl-4-(5-phenyl-3-(3,4,5-trimethoxyphenyl)-3H-1,2,4-dithiazol-3-yl)phenol
_symmetry_cell_setting           triclinic
_symmetry_space_group_name_H-M   'P -1'
_symmetry_Int_Tables_number      2
_space_group_name_Hall           '-P 1'
loop_
_symmetry_equiv_pos_site_id
_symmetry_equiv_pos_as_xyz
1 x,y,z
2 -x,-y,-z
_cell_length_a                   5.9664(3)
_cell_length_b                   11.1963(8)
_cell_length_c                   22.0102(12)
_cell_angle_alpha                84.102(5)
_cell_angle_beta                 83.150(4)
_cell_angle_gamma                74.871(5)
_cell_volume                     1405.28
_exptl_crystal_colour            colorless
_exptl_crystal_description       block
_chemical_melting_point          '163.2-165.6 deg.C'
_cell_formula_units_Z            2
loop_
_atom_site_label
_atom_site_type_symbol
_atom_site_fract_x
_atom_site_fract_y
_atom_site_fract_z
S1 S 0.2667(3) 0.28595(13) 0.71593(7)
S2 S 0.1290(3) 0.43752(15) 0.65837(7)
O1 O 0.1334(8) 0.4875(4) 0.9304(2)
O2 O 1.2181(8) -0.1038(4) 0.7659(2)
O3 O 0.6373(9) 0.7077(4) 0.8216(2)
O4 O 0.3506(8) 0.6697(5) 0.9218(2)
N1 N 0.5758(9) 0.4174(5) 0.6711(2)
C1 C 0.5440(11) 0.6071(6) 0.8229(3)
C2 C 0.9282(11) 0.0703(6) 0.8100(3)
C3 C 0.7150(10) 0.2282(5) 0.7396(3)
C4 C 0.7611(10) 0.1795(6) 0.7988(3)
H1 H 0.676801 0.221747 0.831814
C5 C 0.3135(11) 0.4198(6) 0.8307(3)
H2 H 0.231320 0.359238 0.832407
C6 C 0.5875(11) 0.5266(6) 0.7762(3)
H3 H 0.695002 0.534866 0.742788
C7 C 0.6055(12) 0.6214(6) 0.5813(3)
H4 H 0.708955 0.605476 0.611299
C8 C 0.8358(11) 0.1640(5) 0.6894(3)
H5 H 0.801538 0.195556 0.649896
C9 C 1.0482(11) 0.0074(6) 0.7593(3)
C10 C 0.2703(11) 0.5876(6) 0.5416(3)
H6 H 0.148343 0.549072 0.545149
C11 C 0.4086(11) 0.4671(6) 0.6396(3)
C12 C 1.0068(11) 0.0537(6) 0.6978(3)
C13 C 1.4105(12) -0.0285(6) 0.6432(3)
H7 H 1.439806 0.052433 0.639623
H8 H 1.493630 -0.073954 0.609276
H9 H 1.462198 -0.072019 0.680934
C14 C 1.2304(12) 0.0136(7) 0.8875(3)
H10 H 1.334524 -0.051589 0.865365
H11 H 1.248240 -0.003193 0.930590
H12 H 1.266350 0.091227 0.873597
C15 C 0.3964(11) 0.5890(6) 0.8760(3)
C16 C 0.6298(12) 0.7057(6) 0.5316(3)
H13 H 0.750206 0.745301 0.528141
C17 C 0.2794(11) 0.4953(6) 0.8791(3)
C18 C 0.4275(11) 0.5604(7) 0.5866(3)
C19 C 0.2950(12) 0.6725(7) 0.4913(3)
H14 H 0.191943 0.689420 0.461164
C20 C 1.0990(12) -0.1465(6) 0.6438(3)
H15 H 1.156714 -0.195988 0.679581
H16 H 1.178010 -0.185708 0.607658
H17 H 0.934537 -0.138638 0.644660
C21 C 0.4697(11) 0.4340(6) 0.7796(3)
C22 C 0.8195(12) 0.1090(6) 0.9234(3)
H18 H 0.844636 0.190535 0.914770
H19 H 0.858860 0.078147 0.964163
H20 H 0.658565 0.112672 0.920500
C23 C 1.1440(12) -0.0152(6) 0.6429(3)
C24 C 0.5216(10) 0.3480(6) 0.7272(3)
C25 C 0.0235(12) 0.3865(6) 0.9370(3)
H21 H -0.075407 0.395297 0.904586
H22 H -0.068483 0.387158 0.975896
H23 H 0.140759 0.309423 0.934850
C26 C 0.4739(13) 0.7305(7) 0.4872(3)
H24 H 0.490521 0.787231 0.454090
C27 C 0.5403(13) 0.6600(7) 0.9571(3)
H25 H 0.675136 0.668656 0.930212
H26 H 0.574423 0.580418 0.979737
H27 H 0.499390 0.724246 0.985091
C28 C 0.9179(12) -0.1064(6) 0.8924(3)
H28 H 0.757333 -0.098506 0.886899
H29 H 0.944591 -0.133581 0.934336
H30 H 1.015930 -0.166008 0.865947
C29 C 0.9757(12) 0.0208(6) 0.8764(3)
C30 C 1.0739(13) 0.0560(7) 0.5815(3)
H31 H 0.912874 0.060983 0.577891
H32 H 1.169138 0.013187 0.548202
H33 H 1.095870 0.138197 0.580248
C31 C 0.7896(14) 0.7276(8) 0.7686(3)
H34 H 0.708486 0.736934 0.732544
H35 H 0.923157 0.657936 0.765794
H36 H 0.839463 0.801486 0.771663
loop_
_geom_bond_atom_site_label_1
_geom_bond_atom_site_label_2
_geom_bond_site_symmetry_1
_geom_bond_site_symmetry_2
S1 S2 1_555 1_555
S2 C11 1_555 1_555
O1 C17 1_555 1_555
O2 C9 1_555 1_555
O3 C1 1_555 1_555
O4 C15 1_555 1_555
N1 C11 1_555 1_555
C1 C6 1_555 1_555
C2 C4 1_555 1_555
C3 C4 1_555 1_555
C4 H1 1_555 1_555
C5 H2 1_555 1_555
C6 H3 1_555 1_555
C7 H4 1_555 1_555
C8 C3 1_555 1_555
H5 C8 1_555 1_555
C9 C2 1_555 1_555
C10 H6 1_555 1_555
C11 C18 1_555 1_555
C12 C8 1_555 1_555
C13 H7 1_555 1_555
H8 C13 1_555 1_555
H9 C13 1_555 1_555
C14 H10 1_555 1_555
H11 C14 1_555 1_555
H12 C14 1_555 1_555
C15 C1 1_555 1_555
C16 C7 1_555 1_555
H13 C16 1_555 1_555
C17 C5 1_555 1_555
C18 C7 1_555 1_555
C19 C10 1_555 1_555
H14 C19 1_555 1_555
C20 H15 1_555 1_555
H16 C20 1_555 1_555
H17 C20 1_555 1_555
C21 C5 1_555 1_555
C22 H18 1_555 1_555
H19 C22 1_555 1_555
H20 C22 1_555 1_555
C23 C12 1_555 1_555
C24 S1 1_555 1_555
C25 O1 1_555 1_555
H21 C25 1_555 1_555
H22 C25 1_555 1_555
H23 C25 1_555 1_555
C26 C16 1_555 1_555
H24 C26 1_555 1_555
C27 O4 1_555 1_555
H25 C27 1_555 1_555
H26 C27 1_555 1_555
H27 C27 1_555 1_555
C28 H28 1_555 1_555
H29 C28 1_555 1_555
H30 C28 1_555 1_555
C29 C2 1_555 1_555
C30 C23 1_555 1_555
H31 C30 1_555 1_555
H32 C30 1_555 1_555
H33 C30 1_555 1_555
C31 O3 1_555 1_555
H34 C31 1_555 1_555
H35 C31 1_555 1_555
H36 C31 1_555 1_555
N1 C24 1_555 1_555
C3 C24 1_555 1_555
C6 C21 1_555 1_555
C9 C12 1_555 1_555
C10 C18 1_555 1_555
C13 C23 1_555 1_555
C14 C29 1_555 1_555
C15 C17 1_555 1_555
C19 C26 1_555 1_555
C20 C23 1_555 1_555
C21 C24 1_555 1_555
C22 C29 1_555 1_555
C28 C29 1_555 1_555

#END
