
#######################################################################
#
#                 Cambridge Crystallographic Data Centre
#                                CCDC 
#
#######################################################################
#
# If this CIF has been generated from an entry in the Cambridge 
# Structural Database, then it will include bibliographic, chemical, 
# crystal, experimental, refinement or atomic coordinate data resulting 
# from the CCDC's data processing and validation procedures.
#
#######################################################################

data_NIFZIO
_chemical_formula_moiety         'C10 H7 Br1 Cl1 N1 O1'
_chemical_name_systematic        
5-(bromomethyl)-3-(4-chlorophenyl)-1,2-oxazole
_symmetry_cell_setting           monoclinic
_symmetry_space_group_name_H-M   'P 21/n'
_symmetry_Int_Tables_number      14
_space_group_name_Hall           '-P 2yn'
loop_
_symmetry_equiv_pos_site_id
_symmetry_equiv_pos_as_xyz
1 x,y,z
2 1/2-x,1/2+y,1/2-z
3 -x,-y,-z
4 1/2+x,1/2-y,1/2+z
_cell_length_a                   7.5035(11)
_cell_length_b                   14.3078(12)
_cell_length_c                   10.3975(15)
_cell_angle_alpha                90
_cell_angle_beta                 110.805(17)
_cell_angle_gamma                90
_cell_volume                     1043.47
_exptl_crystal_colour            colorless
_exptl_crystal_description       block
_cell_formula_units_Z            4
loop_
_atom_site_label
_atom_site_type_symbol
_atom_site_fract_x
_atom_site_fract_y
_atom_site_fract_z
Br1 Br 0.72157(11) 0.04629(5) 0.48840(8)
Cl1 Cl 0.6781(3) 0.78220(12) 0.5749(2)
O1 O 0.7560(6) 0.2528(3) 0.3470(4)
N1 N 0.7071(7) 0.3476(3) 0.3386(5)
C1 C 0.6532(9) 0.5392(4) 0.3870(6)
H1 H 0.6004 0.5169 0.2973
C2 C 0.6320(9) 0.6317(5) 0.4134(7)
H2 H 0.5653 0.6715 0.3418
C3 C 0.7081(8) 0.6653(4) 0.5434(7)
C4 C 0.8083(9) 0.6074(5) 0.6493(7)
H3 H 0.8616 0.6306 0.7384
C5 C 0.8290(9) 0.5155(4) 0.6228(6)
H4 H 0.8973 0.4765 0.6950
C6 C 0.7514(7) 0.4786(4) 0.4915(5)
C7 C 0.7750(7) 0.3801(4) 0.4634(6)
C8 C 0.8678(8) 0.3079(4) 0.5570(6)
H5 H 0.9276 0.3125 0.6519
C9 C 0.8504(8) 0.2325(4) 0.4794(6)
C10 C 0.9235(8) 0.1358(4) 0.5094(6)
H6 H 1.0145 0.1329 0.6028
H7 H 0.9898 0.1192 0.4478
loop_
_geom_bond_atom_site_label_1
_geom_bond_atom_site_label_2
_geom_bond_site_symmetry_1
_geom_bond_site_symmetry_2
Br1 C10 1_555 1_555
Cl1 C3 1_555 1_555
O1 N1 1_555 1_555
N1 C7 1_555 1_555
C1 H1 1_555 1_555
C2 C1 1_555 1_555
H2 C2 1_555 1_555
C3 C2 1_555 1_555
C4 C3 1_555 1_555
H3 C4 1_555 1_555
C5 C4 1_555 1_555
H4 C5 1_555 1_555
C6 C1 1_555 1_555
C7 C6 1_555 1_555
C8 C7 1_555 1_555
H5 C8 1_555 1_555
C9 O1 1_555 1_555
C10 C9 1_555 1_555
H6 C10 1_555 1_555
H7 C10 1_555 1_555
C5 C6 1_555 1_555
C8 C9 1_555 1_555

#END
