
#######################################################################
#
#                 Cambridge Crystallographic Data Centre
#                                CCDC 
#
#######################################################################
#
# If this CIF has been generated from an entry in the Cambridge 
# Structural Database, then it will include bibliographic, chemical, 
# crystal, experimental, refinement or atomic coordinate data resulting 
# from the CCDC's data processing and validation procedures.
#
#######################################################################

data_NIGKEW
_chemical_name_common            '(1R,2R,4S)-epibatidine L-tartrate'
_chemical_formula_moiety         'C11 H14 Cl1 N2 1+,C4 H5 O6 1-'
_chemical_name_systematic        
'(1R,2R,4S)-2-(6-chloropyridin-3-yl)-7-azabicyclo[2.2.1]heptan-7-ium 3-carboxy-2,3-dihydroxypropanoate'
_symmetry_cell_setting           orthorhombic
_symmetry_space_group_name_H-M   'P 21 21 21'
_symmetry_Int_Tables_number      19
_space_group_name_Hall           'P 2ac 2ab'
loop_
_symmetry_equiv_pos_site_id
_symmetry_equiv_pos_as_xyz
1 x,y,z
2 1/2+x,1/2-y,-z
3 -x,1/2+y,1/2-z
4 1/2-x,-y,1/2+z
_cell_length_a                   7.1002(9)
_cell_length_b                   12.6795(15)
_cell_length_c                   18.118(2)
_cell_angle_alpha                90
_cell_angle_beta                 90
_cell_angle_gamma                90
_cell_volume                     1631.11
_exptl_crystal_colour            colorless
_exptl_crystal_description       acicular
_cell_formula_units_Z            4
loop_
_atom_site_label
_atom_site_type_symbol
_atom_site_fract_x
_atom_site_fract_y
_atom_site_fract_z
Cl1 Cl 0.18169(12) 0.31698(6) 0.54899(4)
C1 C 0.0119(4) 0.38584(18) 0.60019(14)
C2 C -0.1506(4) 0.41775(18) 0.56608(14)
C3 C -0.2796(3) 0.47350(17) 0.60771(13)
C4 C -0.2411(3) 0.49450(17) 0.68109(12)
C5 C -0.0701(3) 0.4589(2) 0.70832(14)
C6 C -0.3725(3) 0.55022(17) 0.73429(12)
C7 C -0.2813(4) 0.64856(19) 0.77238(13)
C8 C -0.4251(3) 0.73533(18) 0.75919(13)
C9 C -0.6041(4) 0.7145(2) 0.80341(13)
C10 C -0.6937(3) 0.62079(19) 0.76209(13)
C11 C -0.5523(3) 0.59693(17) 0.70108(13)
N1 N -0.4887(3) 0.70700(14) 0.68218(10)
N2 N 0.0581(3) 0.40486(16) 0.66950(12)
H1 H -0.593(4) 0.750(2) 0.6627(14)
H2 H -0.395(4) 0.711(2) 0.6485(14)
H3 H -0.177(4) 0.4037(19) 0.5160(14)
H4 H -0.388(4) 0.496(2) 0.5841(13)
H5 H -0.040(3) 0.4657(18) 0.7600(15)
H6 H -0.410(3) 0.5016(18) 0.7723(12)
H7 H -0.261(4) 0.640(2) 0.8272(15)
H8 H -0.165(4) 0.6656(17) 0.7487(13)
H9 H -0.375(3) 0.8068(18) 0.7610(12)
H10 H -0.686(4) 0.774(2) 0.8048(14)
H11 H -0.573(4) 0.701(2) 0.8559(14)
H12 H -0.715(4) 0.561(2) 0.7947(13)
H13 H -0.815(4) 0.6418(18) 0.7392(13)
H14 H -0.606(3) 0.5610(18) 0.6606(13)
O1 O 0.0095(2) 0.62664(13) 0.50700(9)
O2 O 0.0259(2) 0.53858(13) 0.40062(8)
O3 O 0.3786(2) 0.62363(13) 0.52810(8)
O4 O 0.3296(2) 0.74651(12) 0.39576(9)
O5 O 0.6770(2) 0.54224(11) 0.39796(9)
O6 O 0.6983(2) 0.71673(12) 0.38216(9)
C12 C 0.0992(3) 0.58397(16) 0.45850(12)
C13 C 0.3129(3) 0.58083(17) 0.46135(11)
C14 C 0.3935(3) 0.64097(17) 0.39561(12)
C15 C 0.6090(3) 0.63426(17) 0.39246(11)
H15 H -0.124(4) 0.540(2) 0.4038(17)
H16 H 0.313(4) 0.667(2) 0.5426(16)
H17 H 0.390(4) 0.778(2) 0.4241(14)
H18 H 0.351(3) 0.5070(17) 0.4576(11)
H19 H 0.345(3) 0.6083(17) 0.3505(12)
loop_
_geom_bond_atom_site_label_1
_geom_bond_atom_site_label_2
_geom_bond_site_symmetry_1
_geom_bond_site_symmetry_2
Cl1 C1 1_555 1_555
C1 C2 1_555 1_555
C2 C3 1_555 1_555
C3 C4 1_555 1_555
C4 C5 1_555 1_555
C5 N2 1_555 1_555
C6 C4 1_555 1_555
C7 C6 1_555 1_555
C8 C7 1_555 1_555
C9 C8 1_555 1_555
C10 C9 1_555 1_555
C11 C6 1_555 1_555
N1 C8 1_555 1_555
N2 C1 1_555 1_555
H1 N1 1_555 1_555
H2 N1 1_555 1_555
H3 C2 1_555 1_555
H4 C3 1_555 1_555
H5 C5 1_555 1_555
H6 C6 1_555 1_555
H7 C7 1_555 1_555
H8 C7 1_555 1_555
H9 C8 1_555 1_555
H10 C9 1_555 1_555
H11 C9 1_555 1_555
H12 C10 1_555 1_555
H13 C10 1_555 1_555
H14 C11 1_555 1_555
O1 C12 1_555 1_555
O2 C12 1_555 1_555
O3 C13 1_555 1_555
O4 C14 1_555 1_555
O5 C15 1_555 1_555
O6 C15 1_555 1_555
C12 C13 1_555 1_555
C13 C14 1_555 1_555
C14 C15 1_555 1_555
H15 O2 1_555 1_555
H16 O3 1_555 1_555
H17 O4 1_555 1_555
H18 C13 1_555 1_555
H19 C14 1_555 1_555
C10 C11 1_555 1_555
C11 N1 1_555 1_555

#END
