
#######################################################################
#
#                 Cambridge Crystallographic Data Centre
#                                CCDC 
#
#######################################################################
#
# If this CIF has been generated from an entry in the Cambridge 
# Structural Database, then it will include bibliographic, chemical, 
# crystal, experimental, refinement or atomic coordinate data resulting 
# from the CCDC's data processing and validation procedures.
#
#######################################################################

data_NIGMUO
_chemical_formula_moiety         'C23 H17 N1 O3 S1,C1 H1 Cl3'
_chemical_name_systematic        
'methyl 7-ethyl-8-oxo-5,8-dihydroindeno[2,1-c]phenothiazine-6-carboxylate chloroform solvate'
_symmetry_cell_setting           monoclinic
_symmetry_space_group_name_H-M   'P 21/c'
_symmetry_Int_Tables_number      14
_space_group_name_Hall           '-P 2ybc'
loop_
_symmetry_equiv_pos_site_id
_symmetry_equiv_pos_as_xyz
1 x,y,z
2 -x,1/2+y,1/2-z
3 -x,-y,-z
4 x,1/2-y,1/2+z
_cell_length_a                   12.946(2)
_cell_length_b                   9.4422(16)
_cell_length_c                   18.948(3)
_cell_angle_alpha                90
_cell_angle_beta                 102.090(4)
_cell_angle_gamma                90
_cell_volume                     2264.81
_exptl_crystal_colour            brown
_exptl_crystal_description       block
_cell_formula_units_Z            4
loop_
_atom_site_label
_atom_site_type_symbol
_atom_site_fract_x
_atom_site_fract_y
_atom_site_fract_z
C1 C 0.7377(2) 0.2358(4) 0.94148(19)
C2 C 0.8274(3) 0.1812(4) 0.9220(2)
H1 H 0.8675 0.1121 0.9502
C3 C 0.8567(3) 0.2307(5) 0.8600(2)
H2 H 0.9176 0.1963 0.8473
C4 C 0.7959(3) 0.3304(5) 0.8172(2)
H3 H 0.8157 0.3628 0.7757
C5 C 0.7054(3) 0.3826(4) 0.8360(2)
H4 H 0.6643 0.4494 0.8068
C6 C 0.6758(2) 0.3357(4) 0.8983(2)
C7 C 0.5696(2) 0.2192(4) 1.00821(18)
C8 C 0.5229(2) 0.3231(4) 0.95728(18)
C9 C 0.4144(2) 0.3601(4) 0.95001(17)
C10 C 0.3681(3) 0.4570(4) 0.8904(2)
C11 C 0.2146(3) 0.5271(5) 0.8063(2)
H5 H 0.2297 0.6240 0.8200
H6 H 0.1396 0.5121 0.7964
H7 H 0.2413 0.5063 0.7639
C12 C 0.3626(3) 0.1301(4) 1.10572(18)
C13 C 0.4484(2) 0.0328(4) 1.14109(18)
C14 C 0.4469(3) -0.0642(4) 1.1951(2)
H8 H 0.3875 -0.0741 1.2150
C15 C 0.5363(3) -0.1473(4) 1.2192(2)
H9 H 0.5367 -0.2144 1.2552
C16 C 0.6246(3) -0.1301(4) 1.1895(2)
H10 H 0.6840 -0.1857 1.2060
C17 C 0.6257(3) -0.0303(4) 1.13501(19)
H11 H 0.6857 -0.0186 1.1159
C18 C 0.5370(2) 0.0502(4) 1.11003(17)
C19 C 0.5092(2) 0.1585(4) 1.05193(17)
C20 C 0.4038(2) 0.2033(4) 1.04812(18)
C21 C 0.3548(2) 0.3024(4) 0.99813(18)
C22 C 0.2417(2) 0.3465(4) 0.9987(2)
H12 H 0.2280 0.4387 0.9761
H13 H 0.2336 0.3551 1.0483
C23 C 0.1609(3) 0.2407(5) 0.9592(2)
H14 H 0.1679 0.2328 0.9099
H15 H 0.0909 0.2728 0.9606
H16 H 0.1729 0.1498 0.9822
N1 N 0.5832(2) 0.3889(3) 0.91543(15)
H17 H 0.5621 0.4706 0.8981
O1 O 0.41633(19) 0.5453(3) 0.86323(14)
O2 O 0.26466(18) 0.4351(3) 0.86446(14)
O3 O 0.27808(18) 0.1448(3) 1.12407(14)
S1 S 0.70663(7) 0.18542(13) 1.02388(5)
C24 C 0.0529(3) 0.2572(5) 0.1430(3)
H18 H 0.1223 0.2352 0.1327
Cl1 Cl -0.02516(11) 0.10621(17) 0.12758(10)
Cl2 Cl -0.00350(11) 0.39387(17) 0.08616(8)
Cl3 Cl 0.07083(11) 0.3116(2) 0.23377(8)
loop_
_geom_bond_atom_site_label_1
_geom_bond_atom_site_label_2
_geom_bond_site_symmetry_1
_geom_bond_site_symmetry_2
C1 C2 1_555 1_555
C2 H1 1_555 1_555
C3 C2 1_555 1_555
H2 C3 1_555 1_555
C4 C3 1_555 1_555
H3 C4 1_555 1_555
C5 C4 1_555 1_555
H4 C5 1_555 1_555
C6 C1 1_555 1_555
C7 C8 1_555 1_555
C8 C9 1_555 1_555
C9 C10 1_555 1_555
C10 O1 1_555 1_555
C11 H5 1_555 1_555
H6 C11 1_555 1_555
H7 C11 1_555 1_555
C12 C13 1_555 1_555
C13 C14 1_555 1_555
C14 H8 1_555 1_555
C15 C14 1_555 1_555
H9 C15 1_555 1_555
C16 C15 1_555 1_555
H10 C16 1_555 1_555
C17 C16 1_555 1_555
H11 C17 1_555 1_555
C18 C13 1_555 1_555
C19 C7 1_555 1_555
C20 C12 1_555 1_555
C21 C9 1_555 1_555
C22 C21 1_555 1_555
H12 C22 1_555 1_555
H13 C22 1_555 1_555
C23 C22 1_555 1_555
H14 C23 1_555 1_555
H15 C23 1_555 1_555
H16 C23 1_555 1_555
N1 C6 1_555 1_555
H17 N1 1_555 1_555
O2 C10 1_555 1_555
O3 C12 1_555 1_555
S1 C1 1_555 1_555
C24 H18 1_555 1_555
Cl1 C24 1_555 1_555
Cl2 C24 1_555 1_555
Cl3 C24 1_555 1_555
C5 C6 1_555 1_555
C7 S1 1_555 1_555
C8 N1 1_555 1_555
C11 O2 1_555 1_555
C17 C18 1_555 1_555
C18 C19 1_555 1_555
C19 C20 1_555 1_555
C20 C21 1_555 1_555

#END
