
#######################################################################
#
#                 Cambridge Crystallographic Data Centre
#                                CCDC 
#
#######################################################################
#
# If this CIF has been generated from an entry in the Cambridge 
# Structural Database, then it will include bibliographic, chemical, 
# crystal, experimental, refinement or atomic coordinate data resulting 
# from the CCDC's data processing and validation procedures.
#
#######################################################################

data_NIGVAD
_chemical_formula_moiety         'C19 H26 O4'
_chemical_name_systematic        
'methyl 2,4,5-trimethyl-10-oxo-8-(prop-1-en-2-yl)-1,3,4,7,8,8a-hexahydro-2H-4a,2-(epoxymethano)naphthalene-4-carboxylate'
_symmetry_cell_setting           monoclinic
_symmetry_space_group_name_H-M   'C 2'
_symmetry_Int_Tables_number      5
_space_group_name_Hall           'C 2y'
loop_
_symmetry_equiv_pos_site_id
_symmetry_equiv_pos_as_xyz
1 x,y,z
2 -x,y,-z
3 1/2+x,1/2+y,z
4 1/2-x,1/2+y,-z
_cell_length_a                   35.2042(14)
_cell_length_b                   6.4269(3)
_cell_length_c                   15.5775(6)
_cell_angle_alpha                90
_cell_angle_beta                 107.959(2)
_cell_angle_gamma                90
_cell_volume                     3352.75
_exptl_crystal_colour            colorless
_exptl_crystal_description       needle
_cell_formula_units_Z            8
_exptl_crystal_recrystallization_method 'ethyl acetate'
loop_
_atom_site_label
_atom_site_type_symbol
_atom_site_fract_x
_atom_site_fract_y
_atom_site_fract_z
O1 O 0.12916(3) 0.58664(16) 0.32680(6)
O2 O 0.09865(3) 0.75704(17) 0.20112(7)
O3 O 0.23242(3) 0.38023(17) 0.36786(7)
O4 O 0.19290(3) 0.56383(19) 0.25353(7)
C1 C 0.09605(4) 0.2823(2) 0.35079(9)
H1 H 0.0814 0.3862 0.3766
C2 C 0.13801(4) 0.3761(2) 0.36494(9)
C3 C 0.15879(4) 0.4005(2) 0.46527(9)
C4 C 0.14960(4) 0.2737(3) 0.52331(9)
H2 H 0.1641 0.2927 0.5852
C5 C 0.11886(4) 0.1038(3) 0.50191(9)
H3 H 0.0998 0.1307 0.5358
H4 H 0.1324 -0.0297 0.5239
C6 C 0.09502(4) 0.0792(2) 0.40088(9)
H5 H 0.1081 -0.0316 0.3747
C7 C 0.07305(4) 0.2718(2) 0.24956(9)
H6 H 0.0470 0.3428 0.2376
H7 H 0.0680 0.1247 0.2306
C8 C 0.09756(4) 0.3774(2) 0.19540(10)
C9 C 0.13593(4) 0.2487(2) 0.21129(9)
H8 H 0.1503 0.2956 0.1692
H9 H 0.1288 0.1003 0.1986
C10 C 0.16377(4) 0.2712(2) 0.30973(9)
C11 C 0.18800(5) 0.5767(3) 0.49828(10)
H10 H 0.1973 0.5772 0.5644
H11 H 0.1748 0.7092 0.4763
H12 H 0.2108 0.5580 0.4756
C12 C 0.05208(4) 0.0129(2) 0.38890(9)
C13 C 0.02447(5) 0.1677(3) 0.40977(12)
H13 H -0.0012 0.1009 0.4043
H14 H 0.0203 0.2841 0.3672
H15 H 0.0362 0.2196 0.4714
C14 C 0.03981(5) -0.1775(3) 0.35985(11)
H16 H 0.0130 -0.2177 0.3520
H17 H 0.0579 -0.2734 0.3470
C15 C 0.07433(4) 0.3898(3) 0.09541(9)
H18 H 0.0511 0.4804 0.0868
H19 H 0.0654 0.2502 0.0727
H20 H 0.0916 0.4466 0.0623
C16 C 0.10824(4) 0.5908(2) 0.23714(9)
C17 C 0.18154(4) 0.0618(2) 0.34924(9)
H21 H 0.1986 0.0083 0.3151
H22 H 0.1599 -0.0373 0.3454
H23 H 0.1975 0.0804 0.4126
C18 C 0.19718(4) 0.4232(2) 0.30647(9)
C19 C 0.26400(5) 0.5264(3) 0.36950(11)
H24 H 0.2676 0.5329 0.3096
H25 H 0.2889 0.4806 0.4138
H26 H 0.2568 0.6646 0.3862
O5 O 0.12725(3) 0.44062(17) 0.82952(6)
O6 O 0.09965(3) 0.25589(17) 0.70559(7)
O7 O 0.23659(3) 0.62585(18) 0.85028(8)
O8 O 0.19179(3) 0.41423(18) 0.75853(7)
C20 C 0.10320(4) 0.7982(2) 0.83969(9)
H27 H 0.1130 0.9440 0.8386
C21 C 0.14024(4) 0.6519(2) 0.86255(10)
C22 C 0.16068(4) 0.6241(2) 0.96320(10)
C23 C 0.14740(4) 0.7227(2) 1.02322(9)
H28 H 0.1622 0.7071 1.0851
C24 C 0.11077(4) 0.8569(2) 1.00078(9)
H29 H 0.1183 1.0042 0.9967
H30 H 0.0980 0.8453 1.0491
C25 C 0.08153(4) 0.7880(2) 0.91127(9)
H31 H 0.0744 0.6394 0.9176
C26 C 0.07620(4) 0.7463(3) 0.74438(9)
H32 H 0.0648 0.8759 0.7124
H33 H 0.0539 0.6564 0.7479
C27 C 0.10073(4) 0.6334(2) 0.69224(10)
C28 C 0.13976(4) 0.7579(2) 0.70790(9)
H34 H 0.1333 0.9069 0.6953
H35 H 0.1538 0.7085 0.6655
C29 C 0.16790(4) 0.7334(2) 0.80678(9)
C30 C 0.19562(5) 0.4777(3) 0.99355(10)
H36 H 0.2191 0.5423 0.9835
H37 H 0.1893 0.3480 0.9590
H38 H 0.2012 0.4474 1.0579
C31 C 0.04321(5) 0.9142(3) 0.88572(10)
C32 C 0.04466(5) 1.1346(3) 0.86068(12)
H39 H 0.0495 1.1436 0.8021
H40 H 0.0663 1.2051 0.9066
H41 H 0.0192 1.2016 0.8566
C33 C 0.00916(5) 0.8226(4) 0.88848(12)
H42 H -0.0149 0.9005 0.8740
H43 H 0.0092 0.6802 0.9049
C34 C 0.07751(5) 0.6109(3) 0.59264(10)
H44 H 0.0938 0.5359 0.5619
H45 H 0.0709 0.7492 0.5656
H46 H 0.0528 0.5332 0.5862
C35 C 0.10927(4) 0.4244(2) 0.73862(10)
C36 C 0.18778(5) 0.9406(2) 0.84495(10)
H47 H 0.2036 0.9219 0.9083
H48 H 0.1672 1.0460 0.8406
H49 H 0.2052 0.9861 0.8103
C37 C 0.19913(4) 0.5718(3) 0.80276(9)
C38 C 0.26680(5) 0.4726(3) 0.85197(13)
H50 H 0.2624 0.3486 0.8843
H51 H 0.2932 0.5306 0.8827
H52 H 0.2652 0.4348 0.7900
loop_
_geom_bond_atom_site_label_1
_geom_bond_atom_site_label_2
_geom_bond_site_symmetry_1
_geom_bond_site_symmetry_2
O1 C2 1_555 1_555
O2 C16 1_555 1_555
O3 C18 1_555 1_555
O4 C18 1_555 1_555
C1 H1 1_555 1_555
C2 C1 1_555 1_555
C3 C2 1_555 1_555
C4 C3 1_555 1_555
H2 C4 1_555 1_555
C5 C4 1_555 1_555
H3 C5 1_555 1_555
H4 C5 1_555 1_555
C6 C1 1_555 1_555
H5 C6 1_555 1_555
C7 C1 1_555 1_555
H6 C7 1_555 1_555
H7 C7 1_555 1_555
C8 C7 1_555 1_555
C9 C8 1_555 1_555
H8 C9 1_555 1_555
H9 C9 1_555 1_555
C10 C2 1_555 1_555
C11 C3 1_555 1_555
H10 C11 1_555 1_555
H11 C11 1_555 1_555
H12 C11 1_555 1_555
C12 C6 1_555 1_555
C13 C12 1_555 1_555
H13 C13 1_555 1_555
H14 C13 1_555 1_555
H15 C13 1_555 1_555
C14 C12 1_555 1_555
H16 C14 1_555 1_555
H17 C14 1_555 1_555
C15 C8 1_555 1_555
H18 C15 1_555 1_555
H19 C15 1_555 1_555
H20 C15 1_555 1_555
C16 O1 1_555 1_555
C17 C10 1_555 1_555
H21 C17 1_555 1_555
H22 C17 1_555 1_555
H23 C17 1_555 1_555
C18 C10 1_555 1_555
C19 O3 1_555 1_555
H24 C19 1_555 1_555
H25 C19 1_555 1_555
H26 C19 1_555 1_555
O5 C21 1_555 1_555
O6 C35 1_555 1_555
O7 C37 1_555 1_555
O8 C37 1_555 1_555
C20 H27 1_555 1_555
C21 C20 1_555 1_555
C22 C21 1_555 1_555
C23 C22 1_555 1_555
H28 C23 1_555 1_555
C24 C23 1_555 1_555
H29 C24 1_555 1_555
H30 C24 1_555 1_555
C25 C20 1_555 1_555
H31 C25 1_555 1_555
C26 C20 1_555 1_555
H32 C26 1_555 1_555
H33 C26 1_555 1_555
C27 C26 1_555 1_555
C28 C27 1_555 1_555
H34 C28 1_555 1_555
H35 C28 1_555 1_555
C29 C21 1_555 1_555
C30 C22 1_555 1_555
H36 C30 1_555 1_555
H37 C30 1_555 1_555
H38 C30 1_555 1_555
C31 C25 1_555 1_555
C32 C31 1_555 1_555
H39 C32 1_555 1_555
H40 C32 1_555 1_555
H41 C32 1_555 1_555
C33 C31 1_555 1_555
H42 C33 1_555 1_555
H43 C33 1_555 1_555
C34 C27 1_555 1_555
H44 C34 1_555 1_555
H45 C34 1_555 1_555
H46 C34 1_555 1_555
C35 O5 1_555 1_555
C36 C29 1_555 1_555
H47 C36 1_555 1_555
H48 C36 1_555 1_555
H49 C36 1_555 1_555
C37 C29 1_555 1_555
C38 O7 1_555 1_555
H50 C38 1_555 1_555
H51 C38 1_555 1_555
H52 C38 1_555 1_555
C5 C6 1_555 1_555
C8 C16 1_555 1_555
C9 C10 1_555 1_555
C24 C25 1_555 1_555
C27 C35 1_555 1_555
C28 C29 1_555 1_555

#END
