
#######################################################################
#
#                 Cambridge Crystallographic Data Centre
#                                CCDC 
#
#######################################################################
#
# If this CIF has been generated from an entry in the Cambridge 
# Structural Database, then it will include bibliographic, chemical, 
# crystal, experimental, refinement or atomic coordinate data resulting 
# from the CCDC's data processing and validation procedures.
#
#######################################################################

data_NIGVAA
_chemical_formula_moiety         'C30 H28 N6'
_chemical_name_systematic        
N,N,N',N'-tetrakis(2-Pyridylmethyl)benzene-1,4-diamine
_symmetry_cell_setting           monoclinic
_symmetry_space_group_name_H-M   'P 21/c'
_symmetry_Int_Tables_number      14
_space_group_name_Hall           '-P 2ybc'
loop_
_symmetry_equiv_pos_site_id
_symmetry_equiv_pos_as_xyz
1 x,y,z
2 -x,1/2+y,1/2-z
3 -x,-y,-z
4 x,1/2-y,1/2+z
_cell_length_a                   6.2410(5)
_cell_length_b                   8.2229(4)
_cell_length_c                   24.151(3)
_cell_angle_alpha                90
_cell_angle_beta                 93.047(4)
_cell_angle_gamma                90
_cell_volume                     1237.66
_exptl_crystal_colour            beige
_exptl_crystal_description       flakes
_chemical_melting_point          206deg.C
_cell_formula_units_Z            2
_exptl_crystal_recrystallization_method 'absolute ethanol'
loop_
_atom_site_label
_atom_site_type_symbol
_atom_site_fract_x
_atom_site_fract_y
_atom_site_fract_z
N1 N 0.5630(2) 0.1191(2) 0.39251(5)
C1 C 0.3904(3) 0.1154(2) 0.35012(7)
C2 C 0.3496(3) -0.0506(2) 0.32450(6)
C3 C 0.5060(3) -0.1693(2) 0.32488(8)
C4 C 0.4590(4) -0.3176(3) 0.30070(9)
C5 C 0.2568(5) -0.3420(3) 0.27658(9)
C6 C 0.1133(4) -0.2178(4) 0.2775(1)
N2 N 0.1536(2) -0.0729(2) 0.30072(7)
C7 C 0.7651(3) 0.1935(2) 0.38043(7)
C8 C 0.7986(2) 0.3635(2) 0.40276(6)
C9 C 0.6379(3) 0.4523(2) 0.42598(8)
C10 C 0.6824(3) 0.6073(2) 0.44491(9)
C11 C 0.8844(3) 0.6697(2) 0.43939(9)
C12 C 1.0334(3) 0.5741(3) 0.4158(1)
N3 N 0.9966(2) 0.4222(2) 0.39779(8)
C13 C 0.5315(2) 0.0606(2) 0.44550(6)
C14 C 0.6919(2) 0.0714(2) 0.48830(6)
C15 C 0.3387(2) -0.0134(2) 0.45909(6)
H1 H 0.4235(3) 0.1912(2) 0.32100(7)
H2 H 0.2598(3) 0.1525(2) 0.36615(7)
H3 H 0.6417(3) -0.1493(2) 0.34129(8)
H4 H 0.5617(4) -0.3996(3) 0.30067(9)
H5 H 0.2193(5) -0.4409(3) 0.26007(9)
H6 H -0.0226(4) -0.2650(4) 0.2392(1)
H7 H 0.7755(3) 0.1965(2) 0.34051(7)
H8 H 0.8805(3) 0.1251(2) 0.39554(7)
H9 H 0.5018(3) 0.4080(2) 0.42878(8)
H10 H 0.5775(3) 0.6686(2) 0.46116(9)
H11 H 0.9187(3) 0.7744(2) 0.45142(9)
H12 H 1.1695(3) 0.6174(3) 0.4120(1)
H13 H 0.8205(2) 0.1428(2) 0.47994(6)
H14 H 0.2267(2) -0.0362(2) 0.43005(6)
C15B C 0.6613(2) 0.0134(2) 0.54091(6)
C13B C 0.4685(2) -0.0606(2) 0.55450(6)
N1B N 0.4370(2) -0.1191(2) 0.60749(5)
C1B C 0.6096(3) -0.1154(2) 0.64988(7)
C2B C 0.6504(3) 0.0506(2) 0.67550(6)
C3B C 0.4940(3) 0.1693(2) 0.67512(8)
C4B C 0.5410(4) 0.3176(3) 0.69930(9)
C5B C 0.7432(5) 0.3420(3) 0.72342(9)
C6B C 0.8867(4) 0.2178(4) 0.7225(1)
N2B N 0.8464(2) 0.0729(2) 0.69928(7)
H6B H 1.0226(4) 0.2650(4) 0.7608(1)
H5B H 0.7807(5) 0.4409(3) 0.73993(9)
H4B H 0.4383(4) 0.3996(3) 0.69933(9)
H3B H 0.3583(3) 0.1493(2) 0.65871(8)
H1B H 0.5765(3) -0.1912(2) 0.67900(7)
H2B H 0.7402(3) -0.1525(2) 0.63385(7)
C7B C 0.2349(3) -0.1935(2) 0.61957(7)
C8B C 0.2014(2) -0.3635(2) 0.59724(6)
C9B C 0.3621(3) -0.4523(2) 0.57402(8)
C10B C 0.3176(3) -0.6073(2) 0.55509(9)
C11B C 0.1156(3) -0.6697(2) 0.56061(9)
C12B C -0.0334(3) -0.5741(3) 0.5842(1)
N3B N 0.0034(2) -0.4222(2) 0.60221(8)
H12B H -0.1695(3) -0.6174(3) 0.5880(1)
H11B H 0.0813(3) -0.7744(2) 0.54858(9)
H10B H 0.4225(3) -0.6686(2) 0.53884(9)
H9B H 0.4982(3) -0.4080(2) 0.57122(8)
H7B H 0.2245(3) -0.1965(2) 0.65949(7)
H8B H 0.1195(3) -0.1251(2) 0.60446(7)
C14B C 0.3081(2) -0.0714(2) 0.51170(6)
H13B H 0.1795(2) -0.1428(2) 0.52006(6)
H14B H 0.7733(2) 0.0362(2) 0.56995(6)
loop_
_geom_bond_atom_site_label_1
_geom_bond_atom_site_label_2
_geom_bond_site_symmetry_1
_geom_bond_site_symmetry_2
N1 C1 1_555 1_555
C1 C2 1_555 1_555
C2 C3 1_555 1_555
C3 C4 1_555 1_555
C4 C5 1_555 1_555
C5 C6 1_555 1_555
C6 N2 1_555 1_555
N2 C2 1_555 1_555
C7 N1 1_555 1_555
C8 C7 1_555 1_555
C9 C8 1_555 1_555
C10 C9 1_555 1_555
C11 C10 1_555 1_555
C12 C11 1_555 1_555
N3 C8 1_555 1_555
C13 N1 1_555 1_555
C14 C13 1_555 1_555
C15 C13 1_555 1_555
H1 C1 1_555 1_555
H2 C1 1_555 1_555
H3 C3 1_555 1_555
H4 C4 1_555 1_555
H5 C5 1_555 1_555
H6 C6 1_555 1_555
H7 C7 1_555 1_555
H8 C7 1_555 1_555
H9 C9 1_555 1_555
H10 C10 1_555 1_555
H11 C11 1_555 1_555
H12 C12 1_555 1_555
H13 C14 1_555 1_555
H14 C15 1_555 1_555
C15B C14 1_555 1_555
C13B C15B 1_555 1_555
N1B C13B 1_555 1_555
C1B N1B 1_555 1_555
C2B C1B 1_555 1_555
C3B C2B 1_555 1_555
C4B C3B 1_555 1_555
C5B C4B 1_555 1_555
C6B C5B 1_555 1_555
N2B C2B 1_555 1_555
H6B C6B 1_555 1_555
H5B C5B 1_555 1_555
H4B C4B 1_555 1_555
H3B C3B 1_555 1_555
H1B C1B 1_555 1_555
H2B C1B 1_555 1_555
C7B N1B 1_555 1_555
C8B C7B 1_555 1_555
C9B C8B 1_555 1_555
C10B C9B 1_555 1_555
C11B C10B 1_555 1_555
C12B C11B 1_555 1_555
N3B C8B 1_555 1_555
H12B C12B 1_555 1_555
H11B C11B 1_555 1_555
H10B C10B 1_555 1_555
H9B C9B 1_555 1_555
H7B C7B 1_555 1_555
H8B C7B 1_555 1_555
C14B C15 1_555 1_555
H13B C14B 1_555 1_555
H14B C15B 1_555 1_555
C12 N3 1_555 1_555
C13B C14B 1_555 1_555
C6B N2B 1_555 1_555
C12B N3B 1_555 1_555

#END
