
#######################################################################
#
#                 Cambridge Crystallographic Data Centre
#                                CCDC 
#
#######################################################################
#
# If this CIF has been generated from an entry in the Cambridge 
# Structural Database, then it will include bibliographic, chemical, 
# crystal, experimental, refinement or atomic coordinate data resulting 
# from the CCDC's data processing and validation procedures.
#
#######################################################################

data_NIGZEL
_chemical_formula_moiety         'C32 H23 F5 N1 O2 P1'
_chemical_name_systematic        
(S)-2-{[(2',6'-dimethoxy[1,1'-biphenyl]-2-yl)(phenyl)phosphanyl](pentafluorophenyl)methyl}pyridine
_symmetry_cell_setting           triclinic
_symmetry_space_group_name_H-M   'P -1'
_symmetry_Int_Tables_number      2
_space_group_name_Hall           '-P 1'
loop_
_symmetry_equiv_pos_site_id
_symmetry_equiv_pos_as_xyz
1 x,y,z
2 -x,-y,-z
_cell_length_a                   9.913(10)
_cell_length_b                   11.995(12)
_cell_length_c                   13.437(13)
_cell_angle_alpha                110.387(14)
_cell_angle_beta                 107.015(14)
_cell_angle_gamma                92.158(15)
_cell_volume                     1414.64
_exptl_crystal_colour            colorless
_exptl_crystal_description       block
_cell_formula_units_Z            2
loop_
_atom_site_label
_atom_site_type_symbol
_atom_site_fract_x
_atom_site_fract_y
_atom_site_fract_z
F1 F 0.0129(3) 0.8418(2) 0.36248(17)
F2 F 0.0202(3) 0.8013(3) 0.5467(2)
F3 F 0.1204(3) 0.6048(3) 0.5780(2)
F4 F 0.2025(4) 0.4454(3) 0.4168(2)
F5 F 0.1853(3) 0.4789(2) 0.2275(2)
N1 N -0.1562(4) 0.6113(3) 0.1127(3)
O1 O 0.1500(3) 1.0556(2) 0.1209(2)
O2 O 0.5975(3) 0.9394(3) 0.2033(2)
P1 P 0.23141(13) 0.81407(9) 0.21545(9)
C1 C 0.2483(4) 0.7894(3) 0.0768(3)
C2 C 0.3195(4) 0.8863(3) 0.0671(3)
C3 C 0.3377(4) 0.8715(4) -0.0353(3)
H1 H 0.3857 0.9353 -0.0420
C4 C 0.2866(4) 0.7648(4) -0.1272(3)
H2 H 0.3003 0.7568 -0.1948
C5 C 0.2154(4) 0.6708(3) -0.1177(3)
H3 H 0.1801 0.5986 -0.1791
C6 C 0.1960(4) 0.6834(3) -0.0169(3)
H4 H 0.1467 0.6192 -0.0118
C7 C 0.3773(4) 1.0025(3) 0.1640(3)
C8 C 0.2901(5) 1.0893(4) 0.1892(3)
C9 C 0.3436(6) 1.1992(4) 0.2754(4)
H5 H 0.2848 1.2570 0.2911
C10 C 0.4861(6) 1.2218(4) 0.3379(4)
H6 H 0.5237 1.2966 0.3956
C11 C 0.5733(5) 1.1380(4) 0.3177(3)
H7 H 0.6689 1.1543 0.3619
C12 C 0.5185(4) 1.0295(4) 0.2315(3)
C13 C 0.0491(5) 1.1304(4) 0.1527(4)
H8 H 0.0499 1.1370 0.2262
H9 H -0.0446 1.0954 0.0997
H10 H 0.0741 1.2089 0.1537
C14 C 0.7370(5) 0.9521(5) 0.2803(4)
H11 H 0.8008 1.0105 0.2752
H12 H 0.7709 0.8760 0.2620
H13 H 0.7330 0.9782 0.3554
C15 C 0.0935(4) 0.6833(3) 0.1820(3)
H14 H 0.1185 0.6116 0.1321
C16 C -0.0579(4) 0.6950(3) 0.1213(3)
C17 C -0.0927(6) 0.7802(4) 0.0771(4)
H15 H -0.0220 0.8375 0.0829
C18 C -0.2365(7) 0.7805(6) 0.0228(5)
H16 H -0.2626 0.8390 -0.0068
C19 C -0.3357(6) 0.6959(6) 0.0138(4)
H17 H -0.4318 0.6932 -0.0229
C20 C -0.2918(6) 0.6143(5) 0.0598(5)
H18 H -0.3613 0.5560 0.0542
C21 C 0.1014(4) 0.6628(3) 0.2885(3)
C22 C 0.0599(4) 0.7413(4) 0.3720(3)
C23 C 0.0643(5) 0.7221(5) 0.4687(4)
C24 C 0.1135(5) 0.6218(5) 0.4818(4)
C25 C 0.1563(6) 0.5435(4) 0.4020(5)
C26 C 0.1471(5) 0.5625(4) 0.3058(4)
C27 C 0.391(17) 0.771(16) 0.290(14)
C28 C 0.460(4) 0.861(4) 0.392(3)
H19 H 0.4255 0.9338 0.4154
C29 C 0.584(4) 0.839(4) 0.459(2)
H20 H 0.6321 0.8951 0.5304
C30 C 0.634(9) 0.732(8) 0.416(8)
H21 H 0.7073 0.7098 0.4638
C31 C 0.577(3) 0.658(4) 0.306(3)
H22 H 0.6201 0.5922 0.2760
C32 C 0.456(5) 0.681(5) 0.238(4)
H23 H 0.4199 0.6374 0.1610
C33? C 0.395(17) 0.749(16) 0.270(14)
C34? C 0.482(4) 0.801(4) 0.381(3)
H24? H 0.4503 0.8601 0.4313
C35? C 0.613(9) 0.768(8) 0.421(8)
H25? H 0.6824 0.8217 0.4855
C36? C 0.638(3) 0.656(5) 0.364(3)
H26? H 0.7176 0.6253 0.3955
C37? C 0.542(3) 0.591(4) 0.259(3)
H27? H 0.5593 0.5166 0.2168
C38? C 0.419(5) 0.633(5) 0.216(4)
H28? H 0.3507 0.5828 0.1493
loop_
_geom_bond_atom_site_label_1
_geom_bond_atom_site_label_2
_geom_bond_site_symmetry_1
_geom_bond_site_symmetry_2
F1 C22 1_555 1_555
F2 C23 1_555 1_555
F3 C24 1_555 1_555
F4 C25 1_555 1_555
F5 C26 1_555 1_555
N1 C16 1_555 1_555
O1 C8 1_555 1_555
O2 C12 1_555 1_555
P1 C1 1_555 1_555
C1 C2 1_555 1_555
C2 C3 1_555 1_555
C3 H1 1_555 1_555
C4 C3 1_555 1_555
H2 C4 1_555 1_555
C5 C4 1_555 1_555
H3 C5 1_555 1_555
C6 C1 1_555 1_555
H4 C6 1_555 1_555
C7 C2 1_555 1_555
C8 C7 1_555 1_555
C9 C8 1_555 1_555
H5 C9 1_555 1_555
C10 C9 1_555 1_555
H6 C10 1_555 1_555
C11 C10 1_555 1_555
H7 C11 1_555 1_555
C12 C7 1_555 1_555
C13 O1 1_555 1_555
H8 C13 1_555 1_555
H9 C13 1_555 1_555
H10 C13 1_555 1_555
C14 O2 1_555 1_555
H11 C14 1_555 1_555
H12 C14 1_555 1_555
H13 C14 1_555 1_555
C15 P1 1_555 1_555
H14 C15 1_555 1_555
C16 C15 1_555 1_555
C17 C16 1_555 1_555
H15 C17 1_555 1_555
C18 C17 1_555 1_555
H16 C18 1_555 1_555
C19 C18 1_555 1_555
H17 C19 1_555 1_555
C20 N1 1_555 1_555
H18 C20 1_555 1_555
C21 C15 1_555 1_555
C22 C21 1_555 1_555
C23 C22 1_555 1_555
C24 C23 1_555 1_555
C25 C24 1_555 1_555
C26 C21 1_555 1_555
C27 P1 1_555 1_555
C28 C27 1_555 1_555
H19 C28 1_555 1_555
C29 C28 1_555 1_555
H20 C29 1_555 1_555
C30 C29 1_555 1_555
H21 C30 1_555 1_555
C31 C30 1_555 1_555
H22 C31 1_555 1_555
C32 C27 1_555 1_555
H23 C32 1_555 1_555
C5 C6 1_555 1_555
C11 C12 1_555 1_555
C19 C20 1_555 1_555
C25 C26 1_555 1_555
C31 C32 1_555 1_555

#END
