
#######################################################################
#
#                 Cambridge Crystallographic Data Centre
#                                CCDC 
#
#######################################################################
#
# If this CIF has been generated from an entry in the Cambridge 
# Structural Database, then it will include bibliographic, chemical, 
# crystal, experimental, refinement or atomic coordinate data resulting 
# from the CCDC's data processing and validation procedures.
#
#######################################################################

data_NIHBAH
_chemical_formula_moiety         'C7 H3 F2 N2 S2'
_chemical_name_systematic        
'4-(2,5-Difluorophenyl)-1,2,3,5-dithiadiazolyl radical'
_symmetry_cell_setting           tetragonal
_symmetry_space_group_name_H-M   'P 42/n'
_symmetry_Int_Tables_number      86
_space_group_name_Hall           '-P 4bc'
loop_
_symmetry_equiv_pos_site_id
_symmetry_equiv_pos_as_xyz
1 x,y,z
2 -y,1/2+x,1/2+z
3 1/2-x,1/2-y,z
4 1/2+y,-x,1/2+z
5 -x,-y,-z
6 y,1/2-x,1/2-z
7 1/2+x,1/2+y,-z
8 1/2-y,x,1/2-z
_cell_length_a                   21.277(3)
_cell_length_b                   21.277(3)
_cell_length_c                   3.544(6)
_cell_angle_alpha                90
_cell_angle_beta                 90
_cell_angle_gamma                90
_cell_volume                     1604.41
_cell_formula_units_Z            8
_exptl_crystal_recrystallization_method 'vacuum sublimation'
loop_
_atom_site_label
_atom_site_type_symbol
_atom_site_fract_x
_atom_site_fract_y
_atom_site_fract_z
S1 S 0.6621(1) 0.4138(1) 0.2190(10)
S2 S 0.7355(1) 0.3490(1) 0.2567(8)
N1 N 0.7904(3) 0.4015(3) 0.3172(20)
N2 N 0.7081(3) 0.4742(3) 0.2715(24)
C1 C 0.8133(4) 0.5137(3) 0.3635(20)
C2 C 0.7957(4) 0.5733(4) 0.4774(25)
C3 C 0.8350(5) 0.6232(4) 0.5231(28)
C4 C 0.8996(5) 0.6134(5) 0.4510(29)
C5 C 0.9204(4) 0.5550(5) 0.3300(23)
C6 C 0.8763(4) 0.5070(3) 0.2994(24)
C7 C 0.7679(4) 0.4614(3) 0.3202(23)
F1 F 0.7377(3) 0.5866(3) 0.5713(22)
F2 F 0.9816(3) 0.5436(4) 0.2451(25)
H2 H 0.8196(5) 0.6631(4) 0.6006(28)
H3 H 0.9287(5) 0.6468(5) 0.4853(29)
H5 H 0.8911(4) 0.4665(3) 0.2286(24)
F3? F 0.7992(10) 0.6733(7) 0.6235(60)
F4? F 0.8988(7) 0.4541(5) 0.1661(47)
H1? H 0.7524(4) 0.5801(4) 0.5281(25)
H4? H 0.9633(4) 0.5480(5) 0.2701(23)
loop_
_geom_bond_atom_site_label_1
_geom_bond_atom_site_label_2
_geom_bond_site_symmetry_1
_geom_bond_site_symmetry_2
S1 S2 1_555 1_555
S2 N1 1_555 1_555
N1 C7 1_555 1_555
N2 S1 1_555 1_555
C1 C2 1_555 1_555
C2 C3 1_555 1_555
C3 C4 1_555 1_555
C4 C5 1_555 1_555
C5 C6 1_555 1_555
C6 C1 1_555 1_555
C7 N2 1_555 1_555
F1 C2 1_555 1_555
F2 C5 1_555 1_555
H2 C3 1_555 1_555
H3 C4 1_555 1_555
H5 C6 1_555 1_555
C1 C7 1_555 1_555

#END
