
#######################################################################
#
#                 Cambridge Crystallographic Data Centre
#                                CCDC 
#
#######################################################################
#
# If this CIF has been generated from an entry in the Cambridge 
# Structural Database, then it will include bibliographic, chemical, 
# crystal, experimental, refinement or atomic coordinate data resulting 
# from the CCDC's data processing and validation procedures.
#
#######################################################################

data_NIHJUK
_chemical_formula_moiety         'C34 H9 B1 F15 N3 O1,1.62(H2 O1)'
_chemical_name_systematic        
'meso-methoxy(5,10,15-tris(pentafluorophenyl)(14)subporphyrinato(1.1.1))boron(iii) hydrate'
_symmetry_cell_setting           orthorhombic
_symmetry_space_group_name_H-M   'P b c n'
_symmetry_Int_Tables_number      60
_space_group_name_Hall           '-P 2n 2ab'
loop_
_symmetry_equiv_pos_site_id
_symmetry_equiv_pos_as_xyz
1 x,y,z
2 1/2-x,1/2-y,1/2+z
3 -x,y,1/2-z
4 1/2+x,1/2-y,-z
5 -x,-y,-z
6 1/2+x,1/2+y,1/2-z
7 x,-y,1/2+z
8 1/2-x,1/2+y,z
_cell_length_a                   25.096(3)
_cell_length_b                   18.170(2)
_cell_length_c                   14.3348(18)
_cell_angle_alpha                90
_cell_angle_beta                 90
_cell_angle_gamma                90
_cell_volume                     6536.59
_exptl_crystal_colour            yellow
_exptl_crystal_description       prism
_cell_formula_units_Z            8
loop_
_atom_site_label
_atom_site_type_symbol
_atom_site_fract_x
_atom_site_fract_y
_atom_site_fract_z
B1 B 0.20160(18) 0.2400(2) 0.4041(3)
C1 C 0.21917(17) 0.1200(2) 0.3212(3)
C2 C 0.25845(18) 0.0629(3) 0.3288(3)
H1 H 0.2627 0.0225 0.2875
C3 C 0.28871(18) 0.0772(3) 0.4063(3)
H2 H 0.3179 0.0486 0.4281
C4 C 0.26855(16) 0.1428(2) 0.4483(3)
C5 C 0.27455(15) 0.1751(2) 0.5379(3)
C6 C 0.23555(15) 0.2251(2) 0.5694(3)
C7 C 0.21920(16) 0.2522(2) 0.6596(3)
H3 H 0.2387 0.2479 0.7161
C8 C 0.17040(16) 0.2852(2) 0.6490(3)
H4 H 0.1499 0.3074 0.6971
C9 C 0.15560(16) 0.2803(2) 0.5518(3)
C10 C 0.10741(16) 0.2880(2) 0.5029(3)
C11 C 0.10196(16) 0.2548(2) 0.4145(3)
C12 C 0.05736(17) 0.2297(3) 0.3602(3)
H5 H 0.0211 0.2427 0.3698
C13 C 0.07618(17) 0.1839(3) 0.2924(3)
H6 H 0.0553 0.1598 0.2463
C14 C 0.13276(17) 0.1783(2) 0.3029(3)
C15 C 0.17081(16) 0.1270(2) 0.2712(3)
C16 C 0.31851(15) 0.1502(2) 0.5997(3)
C17 C 0.37136(17) 0.1634(3) 0.5755(3)
C18 C 0.41290(16) 0.1441(2) 0.6333(3)
C19 C 0.40268(16) 0.1110(2) 0.7173(3)
C20 C 0.35115(16) 0.0961(2) 0.7426(3)
C21 C 0.30989(15) 0.1148(2) 0.6827(3)
C22 C 0.06055(16) 0.3215(3) 0.5505(3)
C23 C 0.05499(18) 0.3971(3) 0.5568(3)
C24 C 0.0116(2) 0.4296(3) 0.6006(4)
C25 C -0.02627(19) 0.3851(3) 0.6400(4)
C26 C -0.02200(18) 0.3103(3) 0.6362(3)
C27 C 0.02113(18) 0.2792(3) 0.5909(3)
C28 C 0.1578(2) 0.0780(3) 0.1921(4)
C29 C 0.1472(2) 0.1055(3) 0.1027(4)
C30 C 0.1348(3) 0.0609(4) 0.0281(4)
C31 C 0.1339(3) -0.0132(4) 0.0397(5)
C32 C 0.1429(3) -0.0444(4) 0.1268(5)
C33 C 0.1547(2) 0.0022(3) 0.2012(4)
C34 C 0.2736(2) 0.3294(3) 0.3901(3)
H7 H 0.2692 0.3468 0.4543
H8 H 0.2855 0.3703 0.3506
H9 H 0.3003 0.2901 0.3886
F1 F 0.38290(10) 0.19558(16) 0.49381(19)
F2 F 0.46345(10) 0.15797(17) 0.6066(2)
F3 F 0.44275(10) 0.09322(15) 0.7744(2)
F4 F 0.34147(10) 0.06191(15) 0.82348(19)
F5 F 0.26013(9) 0.09535(13) 0.70628(17)
F6 F 0.09166(12) 0.44172(16) 0.5193(2)
F7 F 0.00760(14) 0.50273(19) 0.6047(3)
F8 F -0.06878(12) 0.4162(2) 0.6836(2)
F9 F -0.05905(12) 0.2675(2) 0.6765(2)
F10 F 0.02464(13) 0.20595(18) 0.5880(2)
F11 F 0.14820(15) 0.1790(2) 0.0880(2)
F12 F 0.1237(2) 0.0916(3) -0.0556(3)
F13 F 0.1229(2) -0.0579(3) -0.0318(3)
F14 F 0.14021(16) -0.1156(2) 0.1394(3)
F15 F 0.16192(14) -0.02774(18) 0.2848(3)
N1 N 0.19767(13) 0.24810(18) 0.5081(2)
N2 N 0.23009(13) 0.16846(19) 0.3907(2)
N3 N 0.14581(13) 0.22581(18) 0.3722(2)
O1 O 0.22396(12) 0.30189(16) 0.35609(19)
O2 O 0.0008(6) 0.0062(8) 0.3515(11)
C35? C 0.156(2) 0.059(3) 0.213(3)
C36? C 0.1784(14) 0.0514(19) 0.135(2)
C37? C 0.1683(15) -0.006(2) 0.075(3)
C38? C 0.1379(18) -0.049(3) 0.088(3)
C39? C 0.1134(16) -0.055(2) 0.178(3)
C40? C 0.1225(16) 0.002(2) 0.236(3)
F16? F 0.2189(8) 0.0954(11) 0.1161(14)
F17? F 0.1949(8) -0.0134(12) -0.0056(15)
F18? F 0.1260(7) -0.1120(9) 0.0330(12)
F19? F 0.0660(10) -0.1010(14) 0.1969(17)
F20? F 0.0813(9) 0.0144(13) 0.3117(16)
O3? O 0.0022(6) -0.0257(8) 0.4646(10)
O4? O 0.0000 -0.043(2) 0.2500
loop_
_geom_bond_atom_site_label_1
_geom_bond_atom_site_label_2
_geom_bond_site_symmetry_1
_geom_bond_site_symmetry_2
B1 N1 1_555 1_555
C1 C2 1_555 1_555
C2 H1 1_555 1_555
C3 C2 1_555 1_555
H2 C3 1_555 1_555
C4 C3 1_555 1_555
C5 C4 1_555 1_555
C6 C5 1_555 1_555
C7 C6 1_555 1_555
H3 C7 1_555 1_555
C8 C7 1_555 1_555
H4 C8 1_555 1_555
C9 C8 1_555 1_555
C10 C9 1_555 1_555
C11 C10 1_555 1_555
C12 C11 1_555 1_555
H5 C12 1_555 1_555
C13 C12 1_555 1_555
H6 C13 1_555 1_555
C14 C13 1_555 1_555
C15 C1 1_555 1_555
C16 C5 1_555 1_555
C17 C16 1_555 1_555
C18 C17 1_555 1_555
C19 C18 1_555 1_555
C20 C19 1_555 1_555
C21 C16 1_555 1_555
C22 C10 1_555 1_555
C23 C22 1_555 1_555
C24 C23 1_555 1_555
C25 C24 1_555 1_555
C26 C25 1_555 1_555
C27 C22 1_555 1_555
C28 C15 1_555 1_555
C29 C28 1_555 1_555
C30 C29 1_555 1_555
C31 C30 1_555 1_555
C32 C31 1_555 1_555
C33 C28 1_555 1_555
C34 H7 1_555 1_555
H8 C34 1_555 1_555
H9 C34 1_555 1_555
F1 C17 1_555 1_555
F2 C18 1_555 1_555
F3 C19 1_555 1_555
F4 C20 1_555 1_555
F5 C21 1_555 1_555
F6 C23 1_555 1_555
F7 C24 1_555 1_555
F8 C25 1_555 1_555
F9 C26 1_555 1_555
F10 C27 1_555 1_555
F11 C29 1_555 1_555
F12 C30 1_555 1_555
F13 C31 1_555 1_555
F14 C32 1_555 1_555
F15 C33 1_555 1_555
N1 C6 1_555 1_555
N2 B1 1_555 1_555
N3 B1 1_555 1_555
O1 B1 1_555 1_555
C1 N2 1_555 1_555
C4 N2 1_555 1_555
C9 N1 1_555 1_555
C11 N3 1_555 1_555
C14 C15 1_555 1_555
C14 N3 1_555 1_555
C20 C21 1_555 1_555
C26 C27 1_555 1_555
C32 C33 1_555 1_555
C34 O1 1_555 1_555

#END
