
#######################################################################
#
#                 Cambridge Crystallographic Data Centre
#                                CCDC 
#
#######################################################################
#
# If this CIF has been generated from an entry in the Cambridge 
# Structural Database, then it will include bibliographic, chemical, 
# crystal, experimental, refinement or atomic coordinate data resulting 
# from the CCDC's data processing and validation procedures.
#
#######################################################################

data_NIJLUQ
_chemical_formula_moiety         'C20 H15 N1,2(C10 H2 N4)'
_chemical_name_systematic        
'2-(4-methylphenyl)-3-(naphthalen-2-yl)prop-2-enenitrile bis(benzene-1,2,4,5-tetracarbonitrile)'
_symmetry_cell_setting           monoclinic
_symmetry_space_group_name_H-M   'P 21'
_symmetry_Int_Tables_number      4
_space_group_name_Hall           'P 2yb'
loop_
_symmetry_equiv_pos_site_id
_symmetry_equiv_pos_as_xyz
1 x,y,z
2 -x,1/2+y,-z
_cell_length_a                   7.3430(15)
_cell_length_b                   7.5600(15)
_cell_length_c                   29.249(6)
_cell_angle_alpha                90
_cell_angle_beta                 97.18(3)
_cell_angle_gamma                90
_cell_volume                     1610.97
_exptl_crystal_colour            yellow
_exptl_crystal_description       Rod
_cell_formula_units_Z            2
loop_
_atom_site_label
_atom_site_type_symbol
_atom_site_fract_x
_atom_site_fract_y
_atom_site_fract_z
N1 N 0.5536(6) -0.0520(7) 0.2321(3)
C1 C 0.6895(6) 0.2721(7) 0.1676(3)
H1 H 0.6640 0.1546 0.1738
C2 C 0.6616(6) 0.3394(7) 0.1232(3)
H2 H 0.6115 0.2644 0.0998
C3 C 0.7019(6) 0.5050(7) 0.1118(4)
C4 C 0.6732(6) 0.5604(7) 0.0652(4)
H3 H 0.6263 0.4823 0.0421
C5 C 0.7152(6) 0.7299(7) 0.0547(3)
H4 H 0.6972 0.7696 0.0244
C6 C 0.7863(6) 0.8437(8) 0.0905(4)
H5 H 0.8164 0.9587 0.0830
C7 C 0.8141(6) 0.7934(7) 0.1365(4)
H6 H 0.8600 0.8722 0.1595
C8 C 0.7722(6) 0.6285(6) 0.1461(3)
C9 C 0.7990(6) 0.5572(6) 0.1929(3)
H7 H 0.8467 0.6322 0.2166
C10 C 0.7595(6) 0.3921(6) 0.2037(3)
C11 C 0.7927(5) 0.3370(7) 0.2521(3)
H8 H 0.8598 0.4191 0.2710
C12 C 0.7471(5) 0.1952(6) 0.2745(3)
C13 C 0.6356(6) 0.0562(7) 0.2502(3)
C14 C 0.7904(5) 0.1617(7) 0.3265(3)
C15 C 0.8699(5) 0.2930(6) 0.3549(3)
H9 H 0.8991 0.4011 0.3425
C16 C 0.9067(5) 0.2641(6) 0.4021(3)
H10 H 0.9612 0.3517 0.4215
C17 C 0.8611(5) 0.1040(6) 0.4194(3)
C18 C 0.7853(5) -0.0240(7) 0.3899(3)
H11 H 0.7603 -0.1340 0.4019
C19 C 0.7435(4) 0.0030(6) 0.3424(3)
H12 H 0.6868 -0.0835 0.3229
C20 C 0.8968(5) 0.0730(7) 0.4695(3)
H13 H 0.9499 0.1773 0.4845
H14 H 0.7835 0.0461 0.4812
H15 H 0.9802 -0.0244 0.4755
N2 N 0.5532(5) 0.4359(6) 0.4748(3)
N3 N 0.5190(4) 0.6039(6) 0.3481(2)
N4 N 0.0838(5) -0.1744(6) 0.2754(3)
N5 N 0.1490(5) -0.3299(6) 0.4070(3)
C21 C 0.4118(5) 0.2434(6) 0.4083(3)
C22 C 0.3944(4) 0.3022(5) 0.3636(2)
C23 C 0.3157(4) 0.1915(5) 0.3285(2)
H16 H 0.3086 0.2282 0.2980
C24 C 0.2472(4) 0.0253(5) 0.3388(3)
C25 C 0.2674(5) -0.0338(6) 0.3845(3)
C26 C 0.3476(5) 0.0791(6) 0.4189(3)
H17 H 0.3579 0.0430 0.4495
C27 C 0.4931(5) 0.3508(6) 0.4455(3)
C28 C 0.4635(6) 0.4701(6) 0.3539(3)
C29 C 0.1578(6) -0.0859(7) 0.3022(3)
C30 C 0.2023(6) -0.2004(7) 0.3953(3)
N6 N 0.3306(5) 1.0542(6) 0.0648(3)
N7 N 0.1268(5) 0.6844(7) -0.0164(3)
N8 N 0.1351(6) 0.1240(6) 0.1688(3)
N9 N 0.3253(7) 0.4796(7) 0.2493(3)
C31 C 0.2698(5) 0.7588(7) 0.0999(3)
C32 C 0.3059(5) 0.7244(6) 0.1454(3)
H18 H 0.3589 0.8128 0.1648
C33 C 0.2672(4) 0.5627(5) 0.1645(3)
C34 C 0.1950(5) 0.4252(6) 0.1335(3)
C35 C 0.1586(5) 0.4577(6) 0.0881(3)
H19 H 0.1080 0.3691 0.0685
C36 C 0.1944(4) 0.6178(6) 0.0708(2)
C37 C 0.3034(6) 0.9226(6) 0.0813(3)
C38 C 0.1565(6) 0.6526(6) 0.0227(3)
C39 C 0.1589(6) 0.2566(7) 0.1519(3)
C40 C 0.3020(6) 0.5203(7) 0.2114(3)
loop_
_geom_bond_atom_site_label_1
_geom_bond_atom_site_label_2
_geom_bond_site_symmetry_1
_geom_bond_site_symmetry_2
N1 C13 1_555 1_555
C1 H1 1_555 1_555
C2 C1 1_555 1_555
H2 C2 1_555 1_555
C3 C2 1_555 1_555
C4 C3 1_555 1_555
H3 C4 1_555 1_555
C5 C4 1_555 1_555
H4 C5 1_555 1_555
C6 C5 1_555 1_555
H5 C6 1_555 1_555
C7 C6 1_555 1_555
H6 C7 1_555 1_555
C8 C3 1_555 1_555
C9 C8 1_555 1_555
H7 C9 1_555 1_555
C10 C1 1_555 1_555
C11 C10 1_555 1_555
H8 C11 1_555 1_555
C12 C11 1_555 1_555
C13 C12 1_555 1_555
C14 C12 1_555 1_555
C15 C14 1_555 1_555
H9 C15 1_555 1_555
C16 C15 1_555 1_555
H10 C16 1_555 1_555
C17 C16 1_555 1_555
C18 C17 1_555 1_555
H11 C18 1_555 1_555
C19 C14 1_555 1_555
H12 C19 1_555 1_555
C20 C17 1_555 1_555
H13 C20 1_555 1_555
H14 C20 1_555 1_555
H15 C20 1_555 1_555
N2 C27 1_555 1_555
N3 C28 1_555 1_555
N4 C29 1_555 1_555
N5 C30 1_555 1_555
C21 C22 1_555 1_555
C22 C23 1_555 1_555
C23 H16 1_555 1_555
C24 C23 1_555 1_555
C25 C24 1_555 1_555
C26 C21 1_555 1_555
H17 C26 1_555 1_555
C27 C21 1_555 1_555
C28 C22 1_555 1_555
C29 C24 1_555 1_555
C30 C25 1_555 1_555
N6 C37 1_555 1_555
N7 C38 1_555 1_555
N8 C39 1_555 1_555
N9 C40 1_555 1_555
C31 C32 1_555 1_555
C32 H18 1_555 1_555
C33 C32 1_555 1_555
C34 C33 1_555 1_555
C35 C34 1_555 1_555
H19 C35 1_555 1_555
C36 C31 1_555 1_555
C37 C31 1_555 1_555
C38 C36 1_555 1_555
C39 C34 1_555 1_555
C40 C33 1_555 1_555
C7 C8 1_555 1_555
C9 C10 1_555 1_555
C18 C19 1_555 1_555
C25 C26 1_555 1_555
C35 C36 1_555 1_555

#END
