
#######################################################################
#
#                 Cambridge Crystallographic Data Centre
#                                CCDC 
#
#######################################################################
#
# If this CIF has been generated from an entry in the Cambridge 
# Structural Database, then it will include bibliographic, chemical, 
# crystal, experimental, refinement or atomic coordinate data resulting 
# from the CCDC's data processing and validation procedures.
#
#######################################################################

data_NIJLEA
_chemical_formula_moiety         'C11 H15 O2 1-,C5 H11 N2 O1 1+'
_chemical_name_systematic        
'2-carbamoylpyrrolidin-1-ium 1-adamantanecarboxylate'
_symmetry_cell_setting           monoclinic
_symmetry_space_group_name_H-M   'P 21'
_symmetry_Int_Tables_number      4
_space_group_name_Hall           'P 2yb'
loop_
_symmetry_equiv_pos_site_id
_symmetry_equiv_pos_as_xyz
1 x,y,z
2 -x,1/2+y,-z
_cell_length_a                   6.8942(6)
_cell_length_b                   9.4055(7)
_cell_length_c                   12.7762(10)
_cell_angle_alpha                90
_cell_angle_beta                 102.530(2)
_cell_angle_gamma                90
_cell_volume                     808.721
_exptl_crystal_colour            'yellowish colorless'
_exptl_crystal_description       needle
_cell_formula_units_Z            2
loop_
_atom_site_label
_atom_site_type_symbol
_atom_site_fract_x
_atom_site_fract_y
_atom_site_fract_z
O1 O 0.9020(7) 0.5072(5) 0.4666(5)
N1 N 0.5047(7) 0.5265(6) 0.4330(4)
H1 H 0.5895(7) 0.5983(6) 0.4298(4)
H2 H 0.4809(7) 0.5239(6) 0.4995(4)
N2 N 0.9053(9) 0.2686(6) 0.4519(6)
H3 H 1.0324(9) 0.2638(6) 0.4724(6)
H4 H 0.8367(9) 0.1922(6) 0.4358(6)
C1 C 0.3174(11) 0.5481(9) 0.3531(6)
H5 H 0.2046(11) 0.5397(9) 0.3868(6)
H6 H 0.3151(11) 0.6419(9) 0.3213(6)
C2 C 0.3092(15) 0.4368(11) 0.2704(8)
H7 H 0.2108(15) 0.3655(11) 0.2767(8)
H8 H 0.2740(15) 0.4782(11) 0.1992(8)
C3 C 0.5139(11) 0.3711(9) 0.2892(6)
H9 H 0.5065(11) 0.2714(9) 0.2693(6)
H10 H 0.5972(11) 0.4204(9) 0.2488(6)
C4 C 0.5921(9) 0.3888(7) 0.4078(5)
H11 H 0.5399(9) 0.3120(7) 0.4456(5)
C5 C 0.8149(9) 0.3939(8) 0.4451(5)
O2 O 0.6041(7) 1.0340(5) 0.3798(4)
O3 O 0.6511(9) 0.8051(5) 0.4117(4)
C6 C 0.6536(9) 0.9114(7) 0.3542(5)
C7 C 0.7288(9) 0.8989(8) 0.2496(5)
C8 C 0.6570(19) 0.9282(17) 0.0483(9)
H12 H 0.5511(19) 0.9579(17) -0.0119(9)
C9 C 0.814(3) 1.0236(13) 0.0619(11)
H13 H 0.809(3) 1.1064(13) 0.0215(11)
C10 C 0.9809(18) 0.9858(16) 0.1412(11)
H14 H 1.0960(18) 1.0471(16) 0.1416(11)
C11 C 0.5874(19) 0.9532(17) 0.1615(8)
H15 H 0.4607(19) 0.9066(17) 0.1582(8)
H16 H 0.5696(19) 1.0541(17) 0.1718(8)
C12 C 1.031(2) 0.828(2) 0.1424(13)
H17 H 1.108(2) 0.811(2) 0.0883(13)
H18 H 1.115(2) 0.805(2) 0.2115(13)
C13 C 0.862(4) 0.7329(13) 0.1231(13)
H19 H 0.901(4) 0.6348(13) 0.1116(13)
C14 C 0.771(3) 0.7479(12) 0.2290(13)
H20 H 0.864(3) 0.7096(12) 0.2904(13)
H21 H 0.649(3) 0.6933(12) 0.2195(13)
C15 C 0.9127(17) 0.9824(18) 0.2596(9)
H22 H 0.8911(17) 1.0786(18) 0.2818(9)
H23 H 1.0176(17) 0.9401(18) 0.3136(9)
C16 C 0.701(3) 0.782(2) 0.0383(15)
H24 H 0.633(3) 0.724(2) -0.0166(15)
loop_
_geom_bond_atom_site_label_1
_geom_bond_atom_site_label_2
_geom_bond_site_symmetry_1
_geom_bond_site_symmetry_2
O1 C5 1_555 1_555
N1 H1 1_555 1_555
H2 N1 1_555 1_555
N2 H3 1_555 1_555
H4 N2 1_555 1_555
C1 N1 1_555 1_555
H5 C1 1_555 1_555
H6 C1 1_555 1_555
C2 C1 1_555 1_555
H7 C2 1_555 1_555
H8 C2 1_555 1_555
C3 C2 1_555 1_555
H9 C3 1_555 1_555
H10 C3 1_555 1_555
C4 N1 1_555 1_555
H11 C4 1_555 1_555
C5 N2 1_555 1_555
O2 C6 1_555 1_555
O3 C6 1_555 1_555
C6 C7 1_555 1_555
C7 C11 1_555 1_555
C8 H12 1_555 1_555
C9 C8 1_555 1_555
H13 C9 1_555 1_555
C10 C9 1_555 1_555
H14 C10 1_555 1_555
C11 C8 1_555 1_555
H15 C11 1_555 1_555
H16 C11 1_555 1_555
C12 C10 1_555 1_555
H17 C12 1_555 1_555
H18 C12 1_555 1_555
C13 C12 1_555 1_555
H19 C13 1_555 1_555
C14 C7 1_555 1_555
H20 C14 1_555 1_555
H21 C14 1_555 1_555
C15 C7 1_555 1_555
H22 C15 1_555 1_555
H23 C15 1_555 1_555
C16 C8 1_555 1_555
H24 C16 1_555 1_555
C3 C4 1_555 1_555
C4 C5 1_555 1_555
C10 C15 1_555 1_555
C13 C14 1_555 1_555
C13 C16 1_555 1_555

#END
