
#######################################################################
#
#                 Cambridge Crystallographic Data Centre
#                                CCDC 
#
#######################################################################
#
# If this CIF has been generated from an entry in the Cambridge 
# Structural Database, then it will include bibliographic, chemical, 
# crystal, experimental, refinement or atomic coordinate data resulting 
# from the CCDC's data processing and validation procedures.
#
#######################################################################

data_NIJWIO
_chemical_formula_moiety         'C17 H16 Br2 N2 O2'
_chemical_name_systematic        
2,2'-(Propane-1,3-diylbis(nitrilomethylylidene))bis(6-bromophenol)
_symmetry_cell_setting           monoclinic
_symmetry_space_group_name_H-M   'P 21/c'
_symmetry_Int_Tables_number      14
_space_group_name_Hall           '-P 2ybc'
loop_
_symmetry_equiv_pos_site_id
_symmetry_equiv_pos_as_xyz
1 x,y,z
2 -x,1/2+y,1/2-z
3 -x,-y,-z
4 x,1/2-y,1/2+z
_cell_length_a                   12.779(1)
_cell_length_b                   10.1894(8)
_cell_length_c                   14.3953(12)
_cell_angle_alpha                90
_cell_angle_beta                 113.744(2)
_cell_angle_gamma                90
_cell_volume                     1715.75
_exptl_crystal_colour            yellow
_exptl_crystal_description       block
_cell_formula_units_Z            4
loop_
_atom_site_label
_atom_site_type_symbol
_atom_site_fract_x
_atom_site_fract_y
_atom_site_fract_z
Br1 Br 0.30295(5) 0.46157(5) 0.10435(4)
Br2 Br -0.37545(5) 0.26857(7) 0.63883(5)
N1 N 0.0868(3) 0.1060(3) 0.2505(2)
N2 N -0.0781(3) 0.2245(4) 0.4529(3)
O1 O 0.1442(2) 0.2886(3) 0.1573(2)
H1 H 0.1017 0.2399 0.1714
O2 O -0.2045(3) 0.1922(3) 0.5504(3)
H2 H -0.1583 0.1739 0.5261
C1 C 0.2813(3) 0.1666(4) 0.2944(3)
C2 C 0.2528(3) 0.2639(4) 0.2194(3)
C3 C 0.3399(4) 0.3351(4) 0.2097(3)
C4 C 0.4525(4) 0.3144(5) 0.2741(4)
H3 H 0.5100 0.3641 0.2671
C5 C 0.4797(4) 0.2202(6) 0.3486(4)
H4 H 0.5556 0.2072 0.3927
C6 C 0.3956(4) 0.1454(5) 0.3583(4)
H5 H 0.4148 0.0803 0.4076
C7 C 0.1924(4) 0.0872(4) 0.3054(3)
H6 H 0.2132 0.0209 0.3539
C8 C 0.0013(4) 0.0262(4) 0.2677(4)
H7 H 0.0393 -0.0419 0.3168
H8 H -0.0477 -0.0159 0.2048
C9 C -0.0711(4) 0.1100(5) 0.3066(3)
H9 H -0.1066 0.1798 0.2585
H10 H -0.1315 0.0563 0.3112
C10 C -0.0019(4) 0.1693(6) 0.4094(3)
H11 H 0.0462 0.1024 0.4544
H12 H 0.0472 0.2378 0.4026
C11 C -0.1054(4) 0.3460(5) 0.4441(3)
H13 H -0.0739 0.4017 0.4111
C12 C -0.1838(3) 0.3993(4) 0.4838(3)
C13 C -0.2308(3) 0.3159(4) 0.5356(3)
C14 C -0.3080(4) 0.3746(5) 0.5709(3)
C15 C -0.3355(4) 0.5048(5) 0.5559(4)
H14 H -0.3870 0.5400 0.5799
C16 C -0.2879(5) 0.5853(5) 0.5054(4)
H15 H -0.3074 0.6737 0.4953
C17 C -0.2116(5) 0.5328(5) 0.4708(4)
H16 H -0.1779 0.5865 0.4383
loop_
_geom_bond_atom_site_label_1
_geom_bond_atom_site_label_2
_geom_bond_site_symmetry_1
_geom_bond_site_symmetry_2
Br1 C3 1_555 1_555
Br2 C14 1_555 1_555
N1 C7 1_555 1_555
N2 C10 1_555 1_555
O1 H1 1_555 1_555
O2 H2 1_555 1_555
C1 C2 1_555 1_555
C2 O1 1_555 1_555
C3 C2 1_555 1_555
C4 C3 1_555 1_555
H3 C4 1_555 1_555
C5 C4 1_555 1_555
H4 C5 1_555 1_555
C6 C1 1_555 1_555
H5 C6 1_555 1_555
C7 C1 1_555 1_555
H6 C7 1_555 1_555
C8 N1 1_555 1_555
H7 C8 1_555 1_555
H8 C8 1_555 1_555
C9 C8 1_555 1_555
H9 C9 1_555 1_555
H10 C9 1_555 1_555
C10 C9 1_555 1_555
H11 C10 1_555 1_555
H12 C10 1_555 1_555
C11 N2 1_555 1_555
H13 C11 1_555 1_555
C12 C11 1_555 1_555
C13 O2 1_555 1_555
C14 C13 1_555 1_555
C15 C14 1_555 1_555
H14 C15 1_555 1_555
C16 C15 1_555 1_555
H15 C16 1_555 1_555
C17 C12 1_555 1_555
H16 C17 1_555 1_555
C5 C6 1_555 1_555
C12 C13 1_555 1_555
C16 C17 1_555 1_555

#END
