
#######################################################################
#
#                 Cambridge Crystallographic Data Centre
#                                CCDC 
#
#######################################################################
#
# If this CIF has been generated from an entry in the Cambridge 
# Structural Database, then it will include bibliographic, chemical, 
# crystal, experimental, refinement or atomic coordinate data resulting 
# from the CCDC's data processing and validation procedures.
#
#######################################################################

data_NIKJOJ
_chemical_formula_moiety         'C7 H7 N1 O3'
_chemical_name_systematic        4-[(hydroxyimino)methyl]benzene-1,3-diol
_symmetry_cell_setting           monoclinic
_symmetry_space_group_name_H-M   'P 21/c'
_symmetry_Int_Tables_number      14
_space_group_name_Hall           '-P 2ybc'
loop_
_symmetry_equiv_pos_site_id
_symmetry_equiv_pos_as_xyz
1 x,y,z
2 -x,1/2+y,1/2-z
3 -x,-y,-z
4 x,1/2-y,1/2+z
_cell_length_a                   3.72410(10)
_cell_length_b                   8.6902(2)
_cell_length_c                   20.7570(5)
_cell_angle_alpha                90
_cell_angle_beta                 92.501(2)
_cell_angle_gamma                90
_cell_volume                     671.123
_exptl_crystal_colour            colorless
_exptl_crystal_description       block
_cell_formula_units_Z            4
loop_
_atom_site_label
_atom_site_type_symbol
_atom_site_fract_x
_atom_site_fract_y
_atom_site_fract_z
O1 O 0.6604(3) 0.13314(13) 0.28983(5)
H1 H 0.568(7) 0.056(3) 0.3130(12)
O2 O 1.0469(3) 0.64910(12) 0.32704(5)
H2 H 1.132(6) 0.639(3) 0.2893(11)
O3 O 0.2536(3) -0.13686(13) 0.41952(6)
H3 H 0.208(7) -0.200(3) 0.3880(12)
N1 N 0.3984(4) -0.01346(15) 0.38573(6)
C1 C 0.6052(4) 0.24418(16) 0.39524(7)
C2 C 0.7061(4) 0.25485(16) 0.33098(7)
C3 C 0.8530(4) 0.38889(17) 0.30720(7)
H4 H 0.9193 0.3946 0.2636
C4 C 0.9020(4) 0.51454(17) 0.34786(7)
C5 C 0.8047(4) 0.50773(17) 0.41191(7)
H5 H 0.8379 0.5943 0.4395
C6 C 0.6596(4) 0.37332(17) 0.43460(7)
H6 H 0.5947 0.3683 0.4783
C7 C 0.4474(4) 0.10553(17) 0.42134(7)
H7 H 0.3805 0.1034 0.4650
loop_
_geom_bond_atom_site_label_1
_geom_bond_atom_site_label_2
_geom_bond_site_symmetry_1
_geom_bond_site_symmetry_2
O1 H1 1_555 1_555
O2 H2 1_555 1_555
O3 H3 1_555 1_555
N1 O3 1_555 1_555
C1 C2 1_555 1_555
C2 O1 1_555 1_555
C3 C2 1_555 1_555
H4 C3 1_555 1_555
C4 O2 1_555 1_555
C5 C4 1_555 1_555
H5 C5 1_555 1_555
C6 C1 1_555 1_555
H6 C6 1_555 1_555
C7 N1 1_555 1_555
H7 C7 1_555 1_555
C1 C7 1_555 1_555
C3 C4 1_555 1_555
C5 C6 1_555 1_555

#END
