
#######################################################################
#
#                 Cambridge Crystallographic Data Centre
#                                CCDC 
#
#######################################################################
#
# If this CIF has been generated from an entry in the Cambridge 
# Structural Database, then it will include bibliographic, chemical, 
# crystal, experimental, refinement or atomic coordinate data resulting 
# from the CCDC's data processing and validation procedures.
#
#######################################################################

data_NIKLAX
_chemical_name_common            "3,3',4',5,5',7-hexahydroxyflavone monohydrate"
_chemical_formula_moiety         'C15 H10 O8,H2 O1'
_chemical_name_systematic        'myricetin monohydrate'
_chemical_properties_biological  
'myricetin has anti-inflammatory, anti-allergic, antiplatelet aggregation and antioxidant activity'
_symmetry_cell_setting           monoclinic
_symmetry_space_group_name_H-M   'P 21/c'
_symmetry_Int_Tables_number      14
_space_group_name_Hall           '-P 2ybc'
loop_
_symmetry_equiv_pos_site_id
_symmetry_equiv_pos_as_xyz
1 x,y,z
2 -x,1/2+y,1/2-z
3 -x,-y,-z
4 x,1/2-y,1/2+z
_cell_length_a                   6.760(2)
_cell_length_b                   14.758(4)
_cell_length_c                   13.179(4)
_cell_angle_alpha                90
_cell_angle_beta                 96.819(5)
_cell_angle_gamma                90
_cell_volume                     1305.49
_exptl_crystal_colour            colorless
_exptl_crystal_description       prism
_cell_formula_units_Z            4
loop_
_atom_site_label
_atom_site_type_symbol
_atom_site_fract_x
_atom_site_fract_y
_atom_site_fract_z
O1 O 0.3926(3) 0.65878(11) 0.76757(12)
H1 H 0.4064 0.6609 0.8317
O2 O 0.3729(3) 0.51949(12) 0.90726(12)
H2 H 0.3499 0.4729 0.9405
O3 O 0.2885(3) 0.34984(12) 0.84322(12)
H3 H 0.2405 0.3016 0.8168
O4 O 0.1362(3) 0.29702(11) 0.47969(12)
H4 H 0.0516 0.2662 0.4427
O5 O 0.1074(3) 0.30264(11) 0.27230(12)
O6 O 0.1042(3) 0.39621(12) 0.10222(12)
H5 H 0.0890 0.3506 0.1387
O7 O 0.2265(3) 0.71019(11) 0.13329(12)
H6 H 0.2604 0.7504 0.1770
O8 O 0.2499(3) 0.53257(11) 0.43362(12)
C1 C 0.3107(4) 0.55546(16) 0.63191(17)
H7 H 0.3193 0.6037 0.5849
C2 C 0.3471(4) 0.57208(16) 0.73622(18)
C3 C 0.3372(4) 0.50151(16) 0.80493(16)
C4 C 0.2902(4) 0.41462(16) 0.76947(16)
C5 C 0.2512(4) 0.39689(16) 0.66582(16)
H8 H 0.2180 0.3373 0.6425
C6 C 0.2611(4) 0.46785(16) 0.59544(16)
C7 C 0.2236(4) 0.45373(15) 0.48444(16)
C8 C 0.1695(4) 0.37715(16) 0.43123(17)
C9 C 0.1481(4) 0.37555(16) 0.32097(17)
C10 C 0.1714(4) 0.46040(16) 0.27079(16)
C11 C 0.1452(4) 0.46989(17) 0.16301(17)
C12 C 0.1627(4) 0.55380(16) 0.11886(17)
H9 H 0.1432 0.5605 0.0467
C13 C 0.2093(4) 0.62856(16) 0.18147(17)
C14 C 0.2395(4) 0.62267(16) 0.28693(16)
H10 H 0.2724 0.6745 0.3282
C15 C 0.2196(4) 0.53768(16) 0.32991(17)
O9 O 0.4598(4) 0.72248(14) 0.95776(15)
H11 H 0.396(7) 0.705(3) 1.005(3)
H12 H 0.577(8) 0.727(3) 0.986(3)
loop_
_geom_bond_atom_site_label_1
_geom_bond_atom_site_label_2
_geom_bond_site_symmetry_1
_geom_bond_site_symmetry_2
O1 H1 1_555 1_555
O2 H2 1_555 1_555
O3 H3 1_555 1_555
O4 H4 1_555 1_555
O5 C9 1_555 1_555
O6 H5 1_555 1_555
O7 H6 1_555 1_555
O8 C7 1_555 1_555
C1 H7 1_555 1_555
C2 O1 1_555 1_555
C3 O2 1_555 1_555
C4 O3 1_555 1_555
C5 C4 1_555 1_555
H8 C5 1_555 1_555
C6 C1 1_555 1_555
C7 C6 1_555 1_555
C8 O4 1_555 1_555
C9 C8 1_555 1_555
C10 C9 1_555 1_555
C11 O6 1_555 1_555
C12 C11 1_555 1_555
H9 C12 1_555 1_555
C13 O7 1_555 1_555
C14 C13 1_555 1_555
H10 C14 1_555 1_555
C15 O8 1_555 1_555
O9 H11 1_555 1_555
H12 O9 1_555 1_555
C1 C2 1_555 1_555
C2 C3 1_555 1_555
C3 C4 1_555 1_555
C5 C6 1_555 1_555
C7 C8 1_555 1_555
C10 C11 1_555 1_555
C10 C15 1_555 1_555
C12 C13 1_555 1_555
C14 C15 1_555 1_555

#END
