
#######################################################################
#
#                 Cambridge Crystallographic Data Centre
#                                CCDC 
#
#######################################################################
#
# If this CIF has been generated from an entry in the Cambridge 
# Structural Database, then it will include bibliographic, chemical, 
# crystal, experimental, refinement or atomic coordinate data resulting 
# from the CCDC's data processing and validation procedures.
#
#######################################################################

data_NIKMIG
_chemical_formula_moiety         'C25 H17 N1 O2'
_chemical_name_systematic        
2-(6-methyl-2-phenyl-4H-1-benzopyran-4-ylidene)-3-oxo-3-phenylpropanenitrile
_symmetry_cell_setting           triclinic
_symmetry_space_group_name_H-M   'P -1'
_symmetry_Int_Tables_number      2
_space_group_name_Hall           '-P 1'
loop_
_symmetry_equiv_pos_site_id
_symmetry_equiv_pos_as_xyz
1 x,y,z
2 -x,-y,-z
_cell_length_a                   8.4187(14)
_cell_length_b                   9.0328(14)
_cell_length_c                   13.363(2)
_cell_angle_alpha                104.129(2)
_cell_angle_beta                 99.655(2)
_cell_angle_gamma                103.737(2)
_cell_volume                     929.376
_exptl_crystal_colour            colorless
_exptl_crystal_description       block
_cell_formula_units_Z            2
loop_
_atom_site_label
_atom_site_type_symbol
_atom_site_fract_x
_atom_site_fract_y
_atom_site_fract_z
C1 C 0.1822(3) 0.4399(2) 0.46685(16)
C2 C 0.0482(3) 0.3032(3) 0.44178(19)
H1 H 0.0108 0.2662 0.4953
C3 C -0.0285(3) 0.2232(3) 0.33703(19)
H2 H -0.1210 0.1335 0.3199
C4 C 0.0295(3) 0.2737(3) 0.25578(18)
C5 C 0.1637(3) 0.4093(2) 0.28300(17)
H3 H 0.2052 0.4420 0.2292
C6 C 0.2400(2) 0.5001(2) 0.38911(16)
C7 C -0.0524(4) 0.1792(3) 0.1412(2)
H4 H -0.0331 0.2475 0.0968
H5 H -0.1713 0.1369 0.1330
H6 H -0.0049 0.0930 0.1208
C8 C 0.3795(2) 0.6483(2) 0.42281(16)
C9 C 0.4573(3) 0.7018(2) 0.53421(16)
H7 H 0.5576 0.7844 0.5588
C10 C 0.3927(3) 0.6390(2) 0.60476(17)
C11 C 0.4540(3) 0.6995(3) 0.72149(17)
C12 C 0.5606(4) 0.8511(3) 0.7700(2)
H8 H 0.5959 0.9158 0.7287
C13 C 0.6155(4) 0.9081(4) 0.8787(2)
H9 H 0.6879 1.0110 0.9101
C14 C 0.5655(4) 0.8159(4) 0.9415(2)
H10 H 0.6019 0.8555 1.0151
C15 C 0.4611(4) 0.6647(4) 0.8942(2)
H11 H 0.4275 0.6003 0.9360
C16 C 0.4045(4) 0.6061(3) 0.7849(2)
H12 H 0.3326 0.5030 0.7539
C17 C 0.5870(3) 0.8639(3) 0.39964(18)
C18 C 0.4363(3) 0.7337(2) 0.35680(16)
C19 C 0.3538(3) 0.7207(2) 0.24549(17)
C20 C 0.1778(3) 0.7286(2) 0.22268(16)
C21 C 0.1071(3) 0.7910(3) 0.30373(19)
H13 H 0.1689 0.8257 0.3740
C22 C -0.0551(3) 0.8016(3) 0.2802(2)
H14 H -0.1019 0.8444 0.3346
C23 C -0.1471(3) 0.7495(4) 0.1773(3)
H15 H -0.2571 0.7548 0.1621
C24 C -0.0780(3) 0.6893(4) 0.0963(2)
H16 H -0.1408 0.6549 0.0263
C25 C 0.0838(3) 0.6797(3) 0.11835(19)
H17 H 0.1308 0.6402 0.0631
N1 N 0.7052(3) 0.9709(3) 0.43444(17)
O1 O 0.25378(19) 0.51074(17) 0.57370(11)
O2 O 0.4337(2) 0.7174(2) 0.17741(14)
loop_
_geom_bond_atom_site_label_1
_geom_bond_atom_site_label_2
_geom_bond_site_symmetry_1
_geom_bond_site_symmetry_2
C1 C2 1_555 1_555
C2 H1 1_555 1_555
C3 C2 1_555 1_555
H2 C3 1_555 1_555
C4 C3 1_555 1_555
C5 C4 1_555 1_555
H3 C5 1_555 1_555
C6 C1 1_555 1_555
C7 C4 1_555 1_555
H4 C7 1_555 1_555
H5 C7 1_555 1_555
H6 C7 1_555 1_555
C8 C6 1_555 1_555
C9 C8 1_555 1_555
H7 C9 1_555 1_555
C10 C9 1_555 1_555
C11 C10 1_555 1_555
C12 C11 1_555 1_555
H8 C12 1_555 1_555
C13 C12 1_555 1_555
H9 C13 1_555 1_555
C14 C13 1_555 1_555
H10 C14 1_555 1_555
C15 C14 1_555 1_555
H11 C15 1_555 1_555
C16 C11 1_555 1_555
H12 C16 1_555 1_555
C17 C18 1_555 1_555
C18 C8 1_555 1_555
C19 C18 1_555 1_555
C20 C19 1_555 1_555
C21 C20 1_555 1_555
H13 C21 1_555 1_555
C22 C21 1_555 1_555
H14 C22 1_555 1_555
C23 C22 1_555 1_555
H15 C23 1_555 1_555
C24 C23 1_555 1_555
H16 C24 1_555 1_555
C25 C20 1_555 1_555
H17 C25 1_555 1_555
N1 C17 1_555 1_555
O1 C1 1_555 1_555
O2 C19 1_555 1_555
C5 C6 1_555 1_555
C10 O1 1_555 1_555
C15 C16 1_555 1_555
C24 C25 1_555 1_555

#END
