
#######################################################################
#
#                 Cambridge Crystallographic Data Centre
#                                CCDC 
#
#######################################################################
#
# If this CIF has been generated from an entry in the Cambridge 
# Structural Database, then it will include bibliographic, chemical, 
# crystal, experimental, refinement or atomic coordinate data resulting 
# from the CCDC's data processing and validation procedures.
#
#######################################################################

data_NILFUM
_chemical_formula_moiety         'C66 H92 B2 Na2 O4'
_chemical_name_systematic        
"(\m-8,8,8',8'-tetrakis(2,4,6-trimethylphenyl)-8,8'-dibora[7,7'-bi(bicyclo[4.2.0]octane)]-1,1',3,3',5,5',7(7')-heptaene-8,8'-diido)-tetrakis(diethyl ether)-di-sodium"
_symmetry_cell_setting           monoclinic
_symmetry_space_group_name_H-M   'P 21/n'
_symmetry_Int_Tables_number      14
_space_group_name_Hall           '-P 2yn'
loop_
_symmetry_equiv_pos_site_id
_symmetry_equiv_pos_as_xyz
1 x,y,z
2 1/2-x,1/2+y,1/2-z
3 -x,-y,-z
4 1/2+x,1/2-y,1/2+z
_cell_length_a                   12.9332(7)
_cell_length_b                   13.5515(6)
_cell_length_c                   17.5249(7)
_cell_angle_alpha                90
_cell_angle_beta                 104.416(4)
_cell_angle_gamma                90
_cell_volume                     2974.78
_exptl_crystal_colour            yellow
_exptl_crystal_description       needle
_cell_formula_units_Z            2
loop_
_atom_site_label
_atom_site_type_symbol
_atom_site_fract_x
_atom_site_fract_y
_atom_site_fract_z
Na1 Na 0.31780(10) 0.23716(10) 0.06249(6)
O1 O 0.18887(17) 0.11293(16) 0.01341(12)
C1 C 0.4559(2) 0.4718(2) -0.00537(14)
C2 C 0.4421(2) 0.3702(2) -0.03668(14)
C3 C 0.5032(2) 0.2885(2) -0.04679(17)
H1 H 0.5773 0.2900 -0.0301
C4 C 0.4500(2) 0.2045(2) -0.08268(16)
H2 H 0.4891 0.1493 -0.0900
C5 C 0.3395(2) 0.2025(2) -0.10750(16)
H3 H 0.3054 0.1462 -0.1319
C6 C 0.3293(2) 0.3674(2) -0.05955(14)
C7 C 0.2790(2) 0.2832(2) -0.09645(15)
H4 H 0.2050 0.2811 -0.1137
C8 C 0.2584(2) 0.5727(2) -0.05884(14)
C9 C 0.2359(2) 0.5841(2) -0.14212(15)
C10 C 0.1826(2) 0.6667(2) -0.17930(16)
H5 H 0.1694 0.6707 -0.2338
C11 C 0.1480(2) 0.7432(2) -0.13996(16)
C12 C 0.1701(2) 0.7334(2) -0.05851(16)
H6 H 0.1491 0.7836 -0.0294
C13 C 0.2223(2) 0.6518(2) -0.01865(15)
C14 C 0.2405(2) 0.6538(2) 0.07053(15)
H7 H 0.1895 0.6116 0.0857
H8 H 0.2321 0.7201 0.0874
H9 H 0.3114 0.6311 0.0947
C15 C 0.2691(2) 0.5070(2) -0.19383(15)
H10 H 0.3414 0.4871 -0.1707
H11 H 0.2642 0.5343 -0.2452
H12 H 0.2229 0.4508 -0.1984
C16 C 0.0927(3) 0.8323(2) -0.18266(18)
H13 H 0.1413 0.8871 -0.1744
H14 H 0.0319 0.8484 -0.1629
H15 H 0.0696 0.8183 -0.2380
C17 C 0.2762(2) 0.4407(2) 0.06254(14)
C18 C 0.1666(2) 0.4138(2) 0.04830(15)
C19 C 0.1208(2) 0.3857(2) 0.10954(15)
H16 H 0.0486 0.3699 0.0980
C20 C 0.1810(2) 0.3809(2) 0.18721(16)
C21 C 0.2878(2) 0.4030(2) 0.20119(15)
H17 H 0.3295 0.3985 0.2526
C22 C 0.3368(2) 0.4318(2) 0.14239(14)
C23 C 0.4530(2) 0.4595(3) 0.16765(15)
H18 H 0.4773 0.4547 0.2239
H19 H 0.4620 0.5260 0.1515
H20 H 0.4937 0.4155 0.1436
C24 C 0.0915(2) 0.4208(2) -0.03287(14)
H21 H 0.1281 0.4007 -0.0717
H22 H 0.0675 0.4877 -0.0429
H23 H 0.0311 0.3785 -0.0356
C25 C 0.1299(3) 0.3565(3) 0.25441(17)
H24 H 0.0645 0.3928 0.2477
H25 H 0.1779 0.3744 0.3037
H26 H 0.1152 0.2871 0.2542
C26 C 0.0783(2) 0.1390(3) -0.00123(18)
H27 H 0.0731 0.2058 0.0173
H28 H 0.0444 0.0956 0.0293
C27 C 0.0180(3) 0.1330(3) -0.08633(19)
H29 H 0.0558 0.1691 -0.1180
H30 H -0.0519 0.1609 -0.0926
H31 H 0.0115 0.0653 -0.1027
C28 C 0.2045(3) 0.0105(3) 0.0023(2)
H32 H 0.1746 -0.0068 -0.0525
H33 H 0.1676 -0.0277 0.0342
C29 C 0.3199(3) -0.0141(3) 0.0248(2)
H34 H 0.3565 0.0242 -0.0065
H35 H 0.3292 -0.0831 0.0157
H36 H 0.3488 0.0006 0.0795
B1 B 0.3218(3) 0.4756(3) -0.01380(17)
C30 C 0.2322(4) 0.1248(3) 0.2079(2)
H37 H 0.2244 0.0674 0.1748
H38 H 0.2024 0.1810 0.1769
H39 H 0.1955 0.1144 0.2485
C31 C 0.3521(10) 0.1432(11) 0.2458(7)
H40 H 0.3611 0.2003 0.2802
H41 H 0.3836 0.0863 0.2766
O2 O 0.4024(3) 0.1600(3) 0.18216(19)
C32 C 0.5148(4) 0.1679(5) 0.2131(3)
H42 H 0.5405 0.1115 0.2466
H43 H 0.5310 0.2271 0.2449
C33 C 0.5705(6) 0.1718(7) 0.1476(6)
H44 H 0.5515 0.2317 0.1182
H45 H 0.5492 0.1162 0.1133
H46 H 0.6463 0.1700 0.1693
C1B C 0.5441(2) 0.5282(2) 0.00537(14)
C2B C 0.5579(2) 0.6298(2) 0.03668(14)
C3B C 0.4968(2) 0.7115(2) 0.04679(17)
H1B H 0.4227 0.7100 0.0301
C4B C 0.5500(2) 0.7955(2) 0.08268(16)
H2B H 0.5109 0.8507 0.0900
C5B C 0.6605(2) 0.7975(2) 0.10750(16)
H3B H 0.6946 0.8538 0.1319
C6B C 0.6707(2) 0.6326(2) 0.05955(14)
C7B C 0.7210(2) 0.7168(2) 0.09645(15)
H4B H 0.7950 0.7189 0.1137
C8B C 0.7416(2) 0.4273(2) 0.05884(14)
C9B C 0.7641(2) 0.4159(2) 0.14212(15)
C10B C 0.8174(2) 0.3333(2) 0.17930(16)
H5B H 0.8306 0.3293 0.2338
C11B C 0.8520(2) 0.2568(2) 0.13996(16)
C12B C 0.8299(2) 0.2666(2) 0.05851(16)
H6B H 0.8509 0.2164 0.0294
C13B C 0.7777(2) 0.3482(2) 0.01865(15)
C14B C 0.7595(2) 0.3462(2) -0.07053(15)
H7B H 0.8105 0.3884 -0.0857
H8B H 0.7679 0.2799 -0.0874
H9B H 0.6886 0.3689 -0.0947
C15B C 0.7309(2) 0.4930(2) 0.19383(15)
H10B H 0.6586 0.5129 0.1707
H11B H 0.7358 0.4657 0.2452
H12B H 0.7771 0.5492 0.1984
C16B C 0.9073(3) 0.1677(2) 0.18266(18)
H13B H 0.8587 0.1129 0.1744
H14B H 0.9681 0.1516 0.1629
H15B H 0.9304 0.1817 0.2380
C17B C 0.7238(2) 0.5593(2) -0.06254(14)
C18B C 0.8334(2) 0.5862(2) -0.04830(15)
C19B C 0.8792(2) 0.6143(2) -0.10954(15)
H16B H 0.9514 0.6301 -0.0980
C20B C 0.8190(2) 0.6191(2) -0.18721(16)
C21B C 0.7122(2) 0.5970(2) -0.20119(15)
H17B H 0.6705 0.6015 -0.2526
C22B C 0.6632(2) 0.5682(2) -0.14239(14)
C23B C 0.5470(2) 0.5405(3) -0.16765(15)
H18B H 0.5227 0.5453 -0.2239
H19B H 0.5380 0.4740 -0.1515
H20B H 0.5063 0.5845 -0.1436
C24B C 0.9085(2) 0.5792(2) 0.03287(14)
H21B H 0.8719 0.5993 0.0717
H22B H 0.9325 0.5123 0.0429
H23B H 0.9689 0.6215 0.0356
C25B C 0.8701(3) 0.6435(3) -0.25441(17)
H24B H 0.9355 0.6072 -0.2477
H25B H 0.8221 0.6256 -0.3037
H26B H 0.8848 0.7129 -0.2542
B1B B 0.6782(3) 0.5244(3) 0.01380(17)
Na1B Na 0.68220(10) 0.76284(10) -0.06249(6)
O1B O 0.81113(17) 0.88707(16) -0.01341(12)
C26B C 0.9217(2) 0.8610(3) 0.00123(18)
H27B H 0.9269 0.7942 -0.0173
H28B H 0.9556 0.9044 -0.0293
C27B C 0.9820(3) 0.8670(3) 0.08633(19)
H29B H 0.9442 0.8309 0.1180
H30B H 1.0519 0.8391 0.0926
H31B H 0.9885 0.9347 0.1027
C28B C 0.7955(3) 0.9895(3) -0.0023(2)
H32B H 0.8254 1.0068 0.0525
H33B H 0.8324 1.0277 -0.0342
C29B C 0.6801(3) 1.0141(3) -0.0248(2)
H34B H 0.6435 0.9758 0.0065
H35B H 0.6708 1.0831 -0.0157
H36B H 0.6512 0.9994 -0.0795
C30B C 0.7678(4) 0.8752(3) -0.2079(2)
H37B H 0.7756 0.9326 -0.1748
H38B H 0.7976 0.8190 -0.1769
H39B H 0.8045 0.8856 -0.2485
C31B C 0.6479(10) 0.8568(11) -0.2458(7)
H40B H 0.6389 0.7997 -0.2802
H41B H 0.6164 0.9137 -0.2766
O2B O 0.5976(3) 0.8400(3) -0.18216(19)
C32B C 0.4852(4) 0.8321(5) -0.2131(3)
H42B H 0.4595 0.8885 -0.2466
H43B H 0.4690 0.7729 -0.2449
C33B C 0.4295(6) 0.8282(7) -0.1476(6)
H44B H 0.4485 0.7683 -0.1182
H45B H 0.4508 0.8838 -0.1133
H46B H 0.3537 0.8300 -0.1693
C34? C 0.451(3) 0.136(2) 0.2334(17)
H47? H 0.4954 0.1662 0.2807
H48? H 0.4747 0.0689 0.2294
C35? C 0.563(2) 0.203(2) 0.161(3)
H49? H 0.6091 0.2159 0.2129
H50? H 0.5685 0.2593 0.1274
O3? O 0.4553(14) 0.1915(11) 0.1658(9)
C36? C 0.599(2) 0.108(2) 0.1262(12)
H51? H 0.5515 0.0948 0.0758
H52? H 0.5977 0.0539 0.1612
H53? H 0.6703 0.1166 0.1201
C37? C 0.327(4) 0.140(4) 0.233(3)
H54? H 0.2854 0.1111 0.1857
H55? H 0.3059 0.2078 0.2363
H56? H 0.3162 0.1045 0.2779
loop_
_geom_bond_atom_site_label_1
_geom_bond_atom_site_label_2
_geom_bond_site_symmetry_1
_geom_bond_site_symmetry_2
Na1 O1 1_555 1_555
O1 C26 1_555 1_555
C1 C2 1_555 1_555
C2 C3 1_555 1_555
C3 H1 1_555 1_555
C4 C3 1_555 1_555
H2 C4 1_555 1_555
C5 C4 1_555 1_555
H3 C5 1_555 1_555
C6 Na1 1_555 1_555
C7 Na1 1_555 1_555
H4 C7 1_555 1_555
C8 C9 1_555 1_555
C9 C10 1_555 1_555
C10 H5 1_555 1_555
C11 C10 1_555 1_555
C12 C11 1_555 1_555
H6 C12 1_555 1_555
C13 C8 1_555 1_555
C14 C13 1_555 1_555
H7 C14 1_555 1_555
H8 C14 1_555 1_555
H9 C14 1_555 1_555
C15 C9 1_555 1_555
H10 C15 1_555 1_555
H11 C15 1_555 1_555
H12 C15 1_555 1_555
C16 C11 1_555 1_555
H13 C16 1_555 1_555
H14 C16 1_555 1_555
H15 C16 1_555 1_555
C17 Na1 1_555 1_555
C18 C17 1_555 1_555
C19 C18 1_555 1_555
H16 C19 1_555 1_555
C20 C19 1_555 1_555
C21 C20 1_555 1_555
H17 C21 1_555 1_555
C22 Na1 1_555 1_555
C23 C22 1_555 1_555
H18 C23 1_555 1_555
H19 C23 1_555 1_555
H20 C23 1_555 1_555
C24 C18 1_555 1_555
H21 C24 1_555 1_555
H22 C24 1_555 1_555
H23 C24 1_555 1_555
C25 C20 1_555 1_555
H24 C25 1_555 1_555
H25 C25 1_555 1_555
H26 C25 1_555 1_555
C26 H27 1_555 1_555
H28 C26 1_555 1_555
C27 C26 1_555 1_555
H29 C27 1_555 1_555
H30 C27 1_555 1_555
H31 C27 1_555 1_555
C28 O1 1_555 1_555
H32 C28 1_555 1_555
H33 C28 1_555 1_555
C29 C28 1_555 1_555
H34 C29 1_555 1_555
H35 C29 1_555 1_555
H36 C29 1_555 1_555
B1 C1 1_555 1_555
C30 H37 1_555 1_555
H38 C30 1_555 1_555
H39 C30 1_555 1_555
C31 C30 1_555 1_555
H40 C31 1_555 1_555
H41 C31 1_555 1_555
O2 Na1 1_555 1_555
C32 O2 1_555 1_555
H42 C32 1_555 1_555
H43 C32 1_555 1_555
C33 C32 1_555 1_555
H44 C33 1_555 1_555
H45 C33 1_555 1_555
H46 C33 1_555 1_555
C1B C1 1_555 1_555
C2B C1B 1_555 1_555
C3B C2B 1_555 1_555
H1B C3B 1_555 1_555
C4B C3B 1_555 1_555
H2B C4B 1_555 1_555
C5B C4B 1_555 1_555
H3B C5B 1_555 1_555
C6B C2B 1_555 1_555
C7B C5B 1_555 1_555
H4B C7B 1_555 1_555
C8B C9B 1_555 1_555
C9B C10B 1_555 1_555
C10B H5B 1_555 1_555
C11B C10B 1_555 1_555
C12B C11B 1_555 1_555
H6B C12B 1_555 1_555
C13B C8B 1_555 1_555
C14B C13B 1_555 1_555
H7B C14B 1_555 1_555
H8B C14B 1_555 1_555
H9B C14B 1_555 1_555
C15B C9B 1_555 1_555
H10B C15B 1_555 1_555
H11B C15B 1_555 1_555
H12B C15B 1_555 1_555
C16B C11B 1_555 1_555
H13B C16B 1_555 1_555
H14B C16B 1_555 1_555
H15B C16B 1_555 1_555
C17B C18B 1_555 1_555
C18B C19B 1_555 1_555
C19B H16B 1_555 1_555
C20B C19B 1_555 1_555
C21B C20B 1_555 1_555
H17B C21B 1_555 1_555
C22B C17B 1_555 1_555
C23B C22B 1_555 1_555
H18B C23B 1_555 1_555
H19B C23B 1_555 1_555
H20B C23B 1_555 1_555
C24B C18B 1_555 1_555
H21B C24B 1_555 1_555
H22B C24B 1_555 1_555
H23B C24B 1_555 1_555
C25B C20B 1_555 1_555
H24B C25B 1_555 1_555
H25B C25B 1_555 1_555
H26B C25B 1_555 1_555
B1B C1B 1_555 1_555
Na1B C6B 1_555 1_555
O1B Na1B 1_555 1_555
C26B O1B 1_555 1_555
H27B C26B 1_555 1_555
H28B C26B 1_555 1_555
C27B C26B 1_555 1_555
H29B C27B 1_555 1_555
H30B C27B 1_555 1_555
H31B C27B 1_555 1_555
C28B O1B 1_555 1_555
H32B C28B 1_555 1_555
H33B C28B 1_555 1_555
C29B C28B 1_555 1_555
H34B C29B 1_555 1_555
H35B C29B 1_555 1_555
H36B C29B 1_555 1_555
C30B H37B 1_555 1_555
H38B C30B 1_555 1_555
H39B C30B 1_555 1_555
C31B C30B 1_555 1_555
H40B C31B 1_555 1_555
H41B C31B 1_555 1_555
O2B Na1B 1_555 1_555
C32B O2B 1_555 1_555
H42B C32B 1_555 1_555
H43B C32B 1_555 1_555
C33B C32B 1_555 1_555
H44B C33B 1_555 1_555
H45B C33B 1_555 1_555
H46B C33B 1_555 1_555
C2 C6 1_555 1_555
C5 C7 1_555 1_555
C6 C7 1_555 1_555
C6 B1 1_555 1_555
C8 B1 1_555 1_555
C12 C13 1_555 1_555
C17 C22 1_555 1_555
C17 B1 1_555 1_555
C21 C22 1_555 1_555
C31 O2 1_555 1_555
C6B C7B 1_555 1_555
C6B B1B 1_555 1_555
C7B Na1B 1_555 1_555
C8B B1B 1_555 1_555
C12B C13B 1_555 1_555
C17B B1B 1_555 1_555
C17B Na1B 1_555 1_555
C21B C22B 1_555 1_555
C22B Na1B 1_555 1_555
C31B O2B 1_555 1_555

#END
