
#######################################################################
#
#                 Cambridge Crystallographic Data Centre
#                                CCDC 
#
#######################################################################
#
# If this CIF has been generated from an entry in the Cambridge 
# Structural Database, then it will include bibliographic, chemical, 
# crystal, experimental, refinement or atomic coordinate data resulting 
# from the CCDC's data processing and validation procedures.
#
#######################################################################

data_NILSUY
_chemical_formula_moiety         'C42 H50 Mg1 N2 O3,2(C4 H8 O1)'
_chemical_name_systematic        
"(N,N'-bis(2,6-Dimethylphenyl)phenanthrene-9,10-diaminato)-tris(tetrahydrofuran)-magnesium tetrahydrofuran solvate"
_symmetry_cell_setting           monoclinic
_symmetry_space_group_name_H-M   'C 2/c'
_symmetry_Int_Tables_number      15
_space_group_name_Hall           '-C 2yn'
loop_
_symmetry_equiv_pos_site_id
_symmetry_equiv_pos_as_xyz
1 x,y,z
2 -x,y,1/2-z
3 1/2+x,1/2+y,z
4 1/2-x,1/2+y,1/2-z
5 -x,-y,-z
6 x,-y,1/2+z
7 1/2-x,1/2-y,-z
8 1/2+x,1/2-y,1/2+z
_cell_length_a                   28.1821(19)
_cell_length_b                   19.0727(12)
_cell_length_c                   19.5506(13)
_cell_angle_alpha                90
_cell_angle_beta                 120.5220(10)
_cell_angle_gamma                90
_cell_volume                     9052.48
_exptl_crystal_colour            red
_exptl_crystal_description       block
_cell_formula_units_Z            8
loop_
_atom_site_label
_atom_site_type_symbol
_atom_site_fract_x
_atom_site_fract_y
_atom_site_fract_z
C1 C 0.18028(17) 1.0436(2) 0.1371(2)
C2 C 0.15757(18) 1.1076(2) 0.0910(2)
C3 C 0.10164(19) 1.1273(2) 0.0577(3)
H1 H 0.0777 1.0972 0.0650
C4 C 0.0807(2) 1.1879(2) 0.0155(3)
H2 H 0.0430 1.1993 -0.0054
C5 C 0.1147(2) 1.2329(2) 0.0029(3)
H3 H 0.1009 1.2763 -0.0238
C6 C 0.1677(2) 1.2137(2) 0.0297(3)
H4 H 0.1901 1.2436 0.0189
C7 C 0.19128(18) 1.1513(2) 0.0727(2)
C8 C 0.24659(18) 1.1305(2) 0.0974(2)
C9 C 0.28420(19) 1.1743(2) 0.0906(3)
H5 H 0.2721 1.2192 0.0669
C10 C 0.3374(2) 1.1549(2) 0.1169(3)
H6 H 0.3616 1.1858 0.1113
C11 C 0.3558(2) 1.0890(2) 0.1523(3)
H7 H 0.3929 1.0753 0.1715
C12 C 0.32039(18) 1.0446(2) 0.1592(3)
H8 H 0.3333 0.9997 0.1824
C13 C 0.26486(17) 1.0631(2) 0.1328(2)
C14 C 0.22986(17) 1.0177(2) 0.1460(2)
C15 C 0.10554(18) 1.0177(2) 0.1649(3)
C16 C 0.05879(19) 0.9755(2) 0.1193(3)
C17 C 0.0107(2) 0.9882(3) 0.1193(3)
H9 H -0.0205 0.9594 0.0882
C18 C 0.0070(2) 1.0419(3) 0.1634(3)
H10 H -0.0264 1.0503 0.1627
C19 C 0.0528(2) 1.0834(3) 0.2089(3)
H11 H 0.0503 1.1206 0.2393
C20 C 0.1022(2) 1.0720(2) 0.2111(3)
C21 C 0.0600(2) 0.9193(2) 0.0667(3)
H12 H 0.0852 0.8819 0.0995
H13 H 0.0727 0.9392 0.0326
H14 H 0.0229 0.9000 0.0337
C22 C 0.26751(19) 0.9062(2) 0.1403(3)
C23 C 0.3140(2) 0.8638(2) 0.1883(3)
C24 C 0.3329(2) 0.8174(3) 0.1527(4)
H15 H 0.3639 0.7889 0.1853
C25 C 0.3080(3) 0.8118(3) 0.0715(4)
H16 H 0.3219 0.7801 0.0484
C26 C 0.2626(3) 0.8529(3) 0.0243(4)
H17 H 0.2453 0.8490 -0.0318
C27 C 0.2415(2) 0.8996(2) 0.0565(3)
C28 C 0.3443(2) 0.8712(3) 0.2773(3)
H18 H 0.3617 0.9176 0.2922
H19 H 0.3727 0.8348 0.3013
H20 H 0.3183 0.8662 0.2963
C29 C 0.1889(2) 0.9373(3) 0.0014(3)
H21 H 0.1713 0.9151 -0.0511
H22 H 0.1970 0.9865 -0.0034
H23 H 0.1640 0.9350 0.0225
C30 C 0.2931(2) 1.0140(2) 0.3563(3)
H24 H 0.2689 1.0539 0.3508
H25 H 0.3042 1.0188 0.3159
C31 C 0.3424(3) 1.0125(3) 0.4374(4)
H26 H 0.3753 1.0290 0.4364
H27 H 0.3368 1.0429 0.4737
C32 C 0.3494(3) 0.9392(4) 0.4637(4)
H28 H 0.3747 0.9143 0.4509
H29 H 0.3644 0.9365 0.5217
C33 C 0.2943(2) 0.9089(3) 0.4203(3)
H30 H 0.2963 0.8586 0.4095
H31 H 0.2756 0.9134 0.4514
C34 C 0.1556(3) 0.9259(3) 0.3468(3)
H32 H 0.1602 0.9765 0.3405
H33 H 0.1851 0.9111 0.4003
C35 C 0.1017(3) 0.9127(3) 0.3374(4)
H34 H 0.0755 0.9504 0.3059
H35 H 0.1043 0.9100 0.3898
C36 C 0.0836(3) 0.8447(4) 0.2954(5)
H36 H 0.0873 0.8071 0.3328
H37 H 0.0446 0.8473 0.2524
C37 C 0.1193(2) 0.8299(3) 0.2622(3)
H38 H 0.1384 0.7845 0.2825
H39 H 0.0969 0.8274 0.2036
C38 C 0.2336(2) 0.7580(2) 0.2631(3)
H40 H 0.2270 0.7602 0.3082
H41 H 0.2737 0.7629 0.2839
C39 C 0.2128(2) 0.6907(2) 0.2193(3)
H42 H 0.1795 0.6745 0.2193
H43 H 0.2413 0.6536 0.2420
C40 C 0.1997(3) 0.7114(3) 0.1360(3)
H44 H 0.2333 0.7117 0.1320
H45 H 0.1724 0.6791 0.0954
C41 C 0.1767(2) 0.7830(2) 0.1268(3)
H46 H 0.1846 0.8115 0.0915
H47 H 0.1363 0.7810 0.1039
C42 C 0.1510(2) 1.1185(3) 0.2610(3)
H48 H 0.1842 1.0896 0.2902
H49 H 0.1447 1.1447 0.2988
H50 H 0.1560 1.1513 0.2266
Mg1 Mg 0.20438(6) 0.91866(7) 0.23141(8)
N1 N 0.15471(14) 1.00065(17) 0.1665(2)
N2 N 0.24668(14) 0.95002(17) 0.1767(2)
O1 O 0.26474(13) 0.94787(15) 0.34652(17)
O2 O 0.15865(13) 0.88591(15) 0.28622(18)
O3 O 0.20333(13) 0.81306(14) 0.20604(17)
O4 O 0.4810(4) 0.8831(7) 0.6416(7)
C43 C 0.4997(6) 0.9521(9) 0.6415(10)
H51 H 0.5219 0.9714 0.6958
H52 H 0.4690 0.9844 0.6082
C44 C 0.5330(10) 0.9361(13) 0.6061(14)
H53 H 0.5096 0.9372 0.5475
H54 H 0.5621 0.9721 0.6221
C45 C 0.5583(7) 0.8680(15) 0.6307(12)
H55 H 0.5965 0.8713 0.6759
H56 H 0.5580 0.8424 0.5864
C46 C 0.5209(6) 0.8344(7) 0.6547(9)
H57 H 0.5038 0.7917 0.6228
H58 H 0.5419 0.8211 0.7115
O5 O 0.0429(6) 0.7664(7) 0.9167(10)
C47 C 0.0609(7) 0.7115(9) 0.9672(6)
H59 H 0.0392 0.7068 0.9940
H60 H 0.1002 0.7173 1.0080
C48 C 0.0527(7) 0.6487(7) 0.9157(12)
H61 H 0.0741 0.6511 0.8884
H62 H 0.0593 0.6035 0.9441
C49 C -0.0026(6) 0.6639(9) 0.8665(13)
H63 H -0.0236 0.6563 0.8939
H64 H -0.0190 0.6352 0.8175
C50 C -0.0012(9) 0.7376(8) 0.8490(10)
H65 H 0.0040 0.7431 0.8029
H66 H -0.0361 0.7610 0.8368
loop_
_geom_bond_atom_site_label_1
_geom_bond_atom_site_label_2
_geom_bond_site_symmetry_1
_geom_bond_site_symmetry_2
C1 C2 1_555 1_555
C2 C3 1_555 1_555
C3 H1 1_555 1_555
C4 C3 1_555 1_555
H2 C4 1_555 1_555
C5 C4 1_555 1_555
H3 C5 1_555 1_555
C6 C5 1_555 1_555
H4 C6 1_555 1_555
C7 C2 1_555 1_555
C8 C7 1_555 1_555
C9 C8 1_555 1_555
H5 C9 1_555 1_555
C10 C9 1_555 1_555
H6 C10 1_555 1_555
C11 C10 1_555 1_555
H7 C11 1_555 1_555
C12 C11 1_555 1_555
H8 C12 1_555 1_555
C13 C8 1_555 1_555
C14 C1 1_555 1_555
C15 C16 1_555 1_555
C16 C17 1_555 1_555
C17 H9 1_555 1_555
C18 C17 1_555 1_555
H10 C18 1_555 1_555
C19 C18 1_555 1_555
H11 C19 1_555 1_555
C20 C15 1_555 1_555
C21 C16 1_555 1_555
H12 C21 1_555 1_555
H13 C21 1_555 1_555
H14 C21 1_555 1_555
C22 C23 1_555 1_555
C23 C24 1_555 1_555
C24 H15 1_555 1_555
C25 C24 1_555 1_555
H16 C25 1_555 1_555
C26 C25 1_555 1_555
H17 C26 1_555 1_555
C27 C22 1_555 1_555
C28 C23 1_555 1_555
H18 C28 1_555 1_555
H19 C28 1_555 1_555
H20 C28 1_555 1_555
C29 C27 1_555 1_555
H21 C29 1_555 1_555
H22 C29 1_555 1_555
H23 C29 1_555 1_555
C30 H24 1_555 1_555
H25 C30 1_555 1_555
C31 C30 1_555 1_555
H26 C31 1_555 1_555
H27 C31 1_555 1_555
C32 C31 1_555 1_555
H28 C32 1_555 1_555
H29 C32 1_555 1_555
C33 C32 1_555 1_555
H30 C33 1_555 1_555
H31 C33 1_555 1_555
C34 H32 1_555 1_555
H33 C34 1_555 1_555
C35 C34 1_555 1_555
H34 C35 1_555 1_555
H35 C35 1_555 1_555
C36 C35 1_555 1_555
H36 C36 1_555 1_555
H37 C36 1_555 1_555
C37 C36 1_555 1_555
H38 C37 1_555 1_555
H39 C37 1_555 1_555
C38 H40 1_555 1_555
H41 C38 1_555 1_555
C39 C38 1_555 1_555
H42 C39 1_555 1_555
H43 C39 1_555 1_555
C40 C39 1_555 1_555
H44 C40 1_555 1_555
H45 C40 1_555 1_555
C41 C40 1_555 1_555
H46 C41 1_555 1_555
H47 C41 1_555 1_555
C42 C20 1_555 1_555
H48 C42 1_555 1_555
H49 C42 1_555 1_555
H50 C42 1_555 1_555
Mg1 N1 1_555 1_555
N1 C1 1_555 1_555
N2 C14 1_555 1_555
O1 C30 1_555 1_555
O2 C34 1_555 1_555
O3 C38 1_555 1_555
O4 C43 1_555 1_555
C43 H51 1_555 1_555
H52 C43 1_555 1_555
C44 C43 1_555 1_555
H53 C44 1_555 1_555
H54 C44 1_555 1_555
C45 C44 1_555 1_555
H55 C45 1_555 1_555
H56 C45 1_555 1_555
C46 O4 1_555 1_555
H57 C46 1_555 1_555
H58 C46 1_555 1_555
O5 C47 1_555 1_555
C47 H59 1_555 1_555
H60 C47 1_555 1_555
C48 C47 1_555 1_555
H61 C48 1_555 1_555
H62 C48 1_555 1_555
C49 C48 1_555 1_555
H63 C49 1_555 1_555
H64 C49 1_555 1_555
C50 O5 1_555 1_555
H65 C50 1_555 1_555
H66 C50 1_555 1_555
C6 C7 1_555 1_555
C12 C13 1_555 1_555
C13 C14 1_555 1_555
C15 N1 1_555 1_555
C19 C20 1_555 1_555
C22 N2 1_555 1_555
C26 C27 1_555 1_555
C33 O1 1_555 1_555
C37 O2 1_555 1_555
C41 O3 1_555 1_555
Mg1 N2 1_555 1_555
Mg1 O1 1_555 1_555
Mg1 O2 1_555 1_555
Mg1 O3 1_555 1_555
C45 C46 1_555 1_555
C49 C50 1_555 1_555

#END
