
#######################################################################
#
#                 Cambridge Crystallographic Data Centre
#                                CCDC 
#
#######################################################################
#
# If this CIF has been generated from an entry in the Cambridge 
# Structural Database, then it will include bibliographic, chemical, 
# crystal, experimental, refinement or atomic coordinate data resulting 
# from the CCDC's data processing and validation procedures.
#
#######################################################################

data_NIMCUJ
_chemical_formula_moiety         'C58 H70 N2 O4 Si2'
_chemical_name_systematic        
2,9-Dicyclohexyl-5,12-bis((tri-isopropylsilyl)ethynyl)isoquinolino[4',5',6':6,5,10]anthra[2,1,9-def]isoquinoline-1,3,8,10(2H,9H)-tetrone
_symmetry_cell_setting           monoclinic
_symmetry_space_group_name_H-M   'P 21/n'
_symmetry_Int_Tables_number      14
_space_group_name_Hall           '-P 2yn'
loop_
_symmetry_equiv_pos_site_id
_symmetry_equiv_pos_as_xyz
1 x,y,z
2 1/2-x,1/2+y,1/2-z
3 -x,-y,-z
4 1/2+x,1/2-y,1/2+z
_cell_length_a                   17.734(8)
_cell_length_b                   12.986(5)
_cell_length_c                   23.8022(10)
_cell_angle_alpha                90
_cell_angle_beta                 111.456(7)
_cell_angle_gamma                90
_cell_volume                     5101.62
_exptl_crystal_colour            red
_exptl_crystal_description       Block
_cell_formula_units_Z            4
loop_
_atom_site_label
_atom_site_type_symbol
_atom_site_fract_x
_atom_site_fract_y
_atom_site_fract_z
C1 C 0.3478(4) 0.4192(5) 0.8976(3)
C2 C 0.2719(4) 0.4648(5) 0.8680(3)
H1 H 0.2247 0.4294 0.8673
C3 C 0.2634(4) 0.5588(6) 0.8401(3)
C4 C 0.3225(5) 0.7022(5) 0.8068(3)
C5 C 0.3908(5) 0.7520(6) 0.8060(3)
H2 H 0.3856 0.8174 0.7871
C6 C 0.4654(5) 0.7092(5) 0.8318(3)
H3 H 0.5108 0.7461 0.8302
C7 C 0.6268(4) 0.5978(5) 0.8710(3)
C8 C 0.7045(5) 0.5531(6) 0.9012(3)
H4 H 0.7491 0.5748 0.8911
C9 C 0.7155(4) 0.4805(6) 0.9438(3)
C10 C 0.6612(4) 0.3638(5) 1.0002(3)
C11 C 0.5957(4) 0.3233(5) 1.0111(3)
H5 H 0.6044 0.2708 1.0405
C12 C 0.5173(4) 0.3579(5) 0.9799(2)
H6 H 0.4735 0.3280 0.9880
C13 C 0.5020(4) 0.4360(4) 0.9367(2)
C14 C 0.4202(4) 0.4689(4) 0.9010(2)
C15 C 0.4114(4) 0.5634(4) 0.8656(2)
C16 C 0.3321(4) 0.6081(5) 0.8376(3)
C17 C 0.4783(4) 0.6145(5) 0.8603(2)
C18 C 0.5592(4) 0.5671(5) 0.8869(3)
C19 C 0.5693(4) 0.4837(4) 0.9270(3)
C20 C 0.6477(4) 0.4421(5) 0.9578(3)
C21 C 0.1819(5) 0.6032(7) 0.8118(3)
O1 O 0.1236(3) 0.5646(5) 0.8179(3)
N1 N 0.1747(4) 0.6941(5) 0.7816(3)
C22 C 0.2419(5) 0.7459(6) 0.7764(3)
O2 O 0.2326(4) 0.8286(5) 0.7483(2)
C23 C 0.7966(4) 0.4334(6) 0.9721(3)
O3 O 0.8513(3) 0.4556(5) 0.9544(2)
N2 N 0.8083(3) 0.3633(5) 1.0197(2)
C24 C 0.7446(4) 0.3235(5) 1.0339(3)
O4 O 0.7560(3) 0.2579(4) 1.0724(2)
C25 C 0.8919(5) 0.3241(6) 1.0523(3)
C26 C 0.9532(5) 0.4099(8) 1.0760(4)
H7 H 0.9349 0.4581 1.1006
H8 H 0.9584 0.4489 1.0418
C27 C 1.0362(5) 0.3628(10) 1.1150(5)
H9 H 1.0772 0.4182 1.1291
H10 H 1.0318 0.3289 1.1509
C28 C 1.0626(7) 0.2866(10) 1.0797(6)
H11 H 1.1150 0.2566 1.1059
H12 H 1.0713 0.3222 1.0458
C29 C 1.0030(6) 0.2019(9) 1.0551(5)
H13 H 0.9989 0.1607 1.0888
H14 H 1.0222 0.1560 1.0299
C30 C 0.9175(6) 0.2453(8) 1.0161(4)
H15 H 0.9195 0.2776 0.9790
H16 H 0.8776 0.1884 1.0041
C31 C 0.0993(8) 0.7553(11) 0.7394(6)
C32 C 0.0299(8) 0.6902(11) 0.6989(7)
H17 H 0.0170 0.6331 0.7214
H18 H 0.0416 0.6618 0.6643
C33 C -0.0397(9) 0.7715(13) 0.6779(8)
H19 H -0.0457 0.7904 0.6362
H20 H -0.0897 0.7338 0.6746
C34 C -0.0428(12) 0.8694(13) 0.7085(6)
H21 H -0.1005 0.8868 0.6992
H22 H -0.0198 0.9240 0.6906
C35 C -0.0007(8) 0.8732(12) 0.7747(7)
H23 H -0.0353 0.8444 0.7954
H24 H 0.0139 0.9449 0.7885
C36 C 0.0765(9) 0.8066(16) 0.7876(7)
H25 H 0.1229 0.8508 0.8108
H26 H 0.0737 0.7513 0.8154
C37 C 0.3441(4) 0.3175(5) 0.9209(3)
C38 C 0.3277(4) 0.2342(5) 0.9360(4)
Si1 Si 0.30042(12) 0.10624(16) 0.95556(10)
C39 C 0.3943(5) 0.0431(6) 1.0047(4)
H27 H 0.4282 0.0299 0.9798
C40 C 0.3749(7) -0.0644(7) 1.0269(6)
H28 H 0.3427 -0.1059 0.9920
H29 H 0.3442 -0.0540 1.0533
H30 H 0.4256 -0.1003 1.0492
C41 C 0.4468(7) 0.1102(7) 1.0611(5)
H31 H 0.4539 0.1796 1.0475
H32 H 0.5000 0.0779 1.0806
H33 H 0.4191 0.1145 1.0898
C42 C 0.2131(7) 0.1281(9) 0.9762(7)
H34 H 0.1738 0.1563 0.9375
C43 C 0.1661(9) 0.0341(11) 0.9848(8)
H35 H 0.1596 -0.0156 0.9524
H36 H 0.1126 0.0560 0.9836
H37 H 0.1960 0.0020 1.0239
C44 C 0.2264(13) 0.2215(13) 1.0164(9)
H38 H 0.2568 0.2735 1.0035
H39 H 0.2571 0.2017 1.0583
H40 H 0.1738 0.2500 1.0133
C45 C 0.2605(5) 0.0333(7) 0.8821(4)
H41 H 0.2460 -0.0376 0.8910
C46 C 0.1804(6) 0.0855(9) 0.8361(5)
H42 H 0.1402 0.0915 0.8552
H43 H 0.1585 0.0430 0.7997
H44 H 0.1934 0.1542 0.8251
C47 C 0.3261(7) 0.0227(10) 0.8529(6)
H45 H 0.3755 -0.0074 0.8823
H46 H 0.3384 0.0908 0.8408
H47 H 0.3056 -0.0220 0.8174
C48 C 0.6236(5) 0.6671(6) 0.8235(3)
C49 C 0.6308(6) 0.7202(7) 0.7847(4)
Si2 Si 0.63734(19) 0.8000(2) 0.72207(12)
C50 C 0.6417(9) 0.7222(11) 0.6601(6)
H48 H 0.6111 0.7697 0.6265
C51 C 0.5812(11) 0.6333(14) 0.6436(9)
H49 H 0.5335 0.6524 0.6528
H50 H 0.6066 0.5721 0.6669
H51 H 0.5646 0.6184 0.6004
C52 C 0.7203(9) 0.7163(16) 0.6472(9)
H52 H 0.7519 0.7792 0.6617
H53 H 0.7071 0.7094 0.6037
H54 H 0.7520 0.6565 0.6680
C53 C 0.5545(7) 0.8925(10) 0.7063(7)
H55 H 0.5599 0.9412 0.6754
C54 C 0.4718(7) 0.8282(10) 0.6731(6)
H56 H 0.4759 0.7905 0.6387
H57 H 0.4258 0.8759 0.6588
H58 H 0.4635 0.7794 0.7017
C55 C 0.5604(9) 0.9561(12) 0.7597(7)
H59 H 0.6139 0.9888 0.7759
H60 H 0.5530 0.9121 0.7907
H61 H 0.5183 1.0093 0.7477
C56 C 0.7379(8) 0.8696(11) 0.7557(6)
H62 H 0.7795 0.8201 0.7529
C57 C 0.7399(9) 0.9627(11) 0.7143(6)
H63 H 0.7165 0.9416 0.6719
H64 H 0.7960 0.9848 0.7239
H65 H 0.7083 1.0199 0.7212
C58 C 0.7675(12) 0.9026(14) 0.8235(6)
H66 H 0.7647 0.8435 0.8483
H67 H 0.7328 0.9580 0.8284
H68 H 0.8235 0.9272 0.8365
C59? C 0.0859(9) 0.7293(10) 0.7674(5)
C60? C 0.0542(8) 0.7344(13) 0.6992(5)
H69? H 0.0714 0.6715 0.6837
H70? H 0.0792 0.7941 0.6869
C61? C -0.0398(8) 0.7441(19) 0.6693(8)
H71? H -0.0554 0.7729 0.6281
H72? H -0.0656 0.6757 0.6666
C62? C -0.0658(10) 0.8141(18) 0.7083(9)
H73? H -0.1112 0.8572 0.6822
H74? H -0.0863 0.7720 0.7343
C63? C -0.0006(10) 0.8826(13) 0.7471(11)
H75? H -0.0237 0.9232 0.7721
H76? H 0.0123 0.9319 0.7201
C64? C 0.0814(9) 0.8368(12) 0.7905(7)
H77? H 0.1274 0.8791 0.7897
H78? H 0.0827 0.8343 0.8324
C65? C 0.7379(8) 0.8696(11) 0.7557(6)
H79? H 0.7416 0.8981 0.7957
C66? C 0.7399(9) 0.9627(11) 0.7143(6)
H80? H 0.6954 1.0101 0.7109
H81? H 0.7338 0.9373 0.6741
H82? H 0.7917 0.9990 0.7320
C67? C 0.802(2) 0.789(2) 0.7672(16)
H83? H 0.7949 0.7358 0.7941
H84? H 0.8559 0.8205 0.7862
H85? H 0.7985 0.7570 0.7289
loop_
_geom_bond_atom_site_label_1
_geom_bond_atom_site_label_2
_geom_bond_site_symmetry_1
_geom_bond_site_symmetry_2
C1 C2 1_555 1_555
C2 H1 1_555 1_555
C3 C2 1_555 1_555
C4 C5 1_555 1_555
C5 H2 1_555 1_555
C6 C5 1_555 1_555
H3 C6 1_555 1_555
C7 C8 1_555 1_555
C8 H4 1_555 1_555
C9 C8 1_555 1_555
C10 C11 1_555 1_555
C11 H5 1_555 1_555
C12 C11 1_555 1_555
H6 C12 1_555 1_555
C13 C12 1_555 1_555
C14 C1 1_555 1_555
C15 C14 1_555 1_555
C16 C3 1_555 1_555
C17 C6 1_555 1_555
C18 C7 1_555 1_555
C19 C13 1_555 1_555
C20 C9 1_555 1_555
C21 C3 1_555 1_555
O1 C21 1_555 1_555
N1 C21 1_555 1_555
C22 C4 1_555 1_555
O2 C22 1_555 1_555
C23 C9 1_555 1_555
O3 C23 1_555 1_555
N2 C23 1_555 1_555
C24 C10 1_555 1_555
O4 C24 1_555 1_555
C25 N2 1_555 1_555
C26 C25 1_555 1_555
H7 C26 1_555 1_555
H8 C26 1_555 1_555
C27 C26 1_555 1_555
H9 C27 1_555 1_555
H10 C27 1_555 1_555
C28 C27 1_555 1_555
H11 C28 1_555 1_555
H12 C28 1_555 1_555
C29 C28 1_555 1_555
H13 C29 1_555 1_555
H14 C29 1_555 1_555
C30 C25 1_555 1_555
H15 C30 1_555 1_555
H16 C30 1_555 1_555
C31 N1 1_555 1_555
C32 C31 1_555 1_555
H17 C32 1_555 1_555
H18 C32 1_555 1_555
C33 C32 1_555 1_555
H19 C33 1_555 1_555
H20 C33 1_555 1_555
C34 C33 1_555 1_555
H21 C34 1_555 1_555
H22 C34 1_555 1_555
C35 C34 1_555 1_555
H23 C35 1_555 1_555
H24 C35 1_555 1_555
C36 C31 1_555 1_555
H25 C36 1_555 1_555
H26 C36 1_555 1_555
C37 C1 1_555 1_555
C38 C37 1_555 1_555
Si1 C38 1_555 1_555
C39 Si1 1_555 1_555
H27 C39 1_555 1_555
C40 C39 1_555 1_555
H28 C40 1_555 1_555
H29 C40 1_555 1_555
H30 C40 1_555 1_555
C41 C39 1_555 1_555
H31 C41 1_555 1_555
H32 C41 1_555 1_555
H33 C41 1_555 1_555
C42 Si1 1_555 1_555
H34 C42 1_555 1_555
C43 C42 1_555 1_555
H35 C43 1_555 1_555
H36 C43 1_555 1_555
H37 C43 1_555 1_555
C44 C42 1_555 1_555
H38 C44 1_555 1_555
H39 C44 1_555 1_555
H40 C44 1_555 1_555
C45 Si1 1_555 1_555
H41 C45 1_555 1_555
C46 C45 1_555 1_555
H42 C46 1_555 1_555
H43 C46 1_555 1_555
H44 C46 1_555 1_555
C47 C45 1_555 1_555
H45 C47 1_555 1_555
H46 C47 1_555 1_555
H47 C47 1_555 1_555
C48 C7 1_555 1_555
C49 C48 1_555 1_555
Si2 C49 1_555 1_555
C50 Si2 1_555 1_555
H48 C50 1_555 1_555
C51 C50 1_555 1_555
H49 C51 1_555 1_555
H50 C51 1_555 1_555
H51 C51 1_555 1_555
C52 C50 1_555 1_555
H52 C52 1_555 1_555
H53 C52 1_555 1_555
H54 C52 1_555 1_555
C53 Si2 1_555 1_555
H55 C53 1_555 1_555
C54 C53 1_555 1_555
H56 C54 1_555 1_555
H57 C54 1_555 1_555
H58 C54 1_555 1_555
C55 C53 1_555 1_555
H59 C55 1_555 1_555
H60 C55 1_555 1_555
H61 C55 1_555 1_555
C56 Si2 1_555 1_555
H62 C56 1_555 1_555
C57 C56 1_555 1_555
H63 C57 1_555 1_555
H64 C57 1_555 1_555
H65 C57 1_555 1_555
C58 C56 1_555 1_555
H66 C58 1_555 1_555
H67 C58 1_555 1_555
H68 C58 1_555 1_555
C4 C16 1_555 1_555
C10 C20 1_555 1_555
C13 C14 1_555 1_555
C15 C16 1_555 1_555
C15 C17 1_555 1_555
C17 C18 1_555 1_555
C18 C19 1_555 1_555
C19 C20 1_555 1_555
N1 C22 1_555 1_555
N2 C24 1_555 1_555
C29 C30 1_555 1_555
C35 C36 1_555 1_555

#END
