
#######################################################################
#
#                 Cambridge Crystallographic Data Centre
#                                CCDC 
#
#######################################################################
#
# If this CIF has been generated from an entry in the Cambridge 
# Structural Database, then it will include bibliographic, chemical, 
# crystal, experimental, refinement or atomic coordinate data resulting 
# from the CCDC's data processing and validation procedures.
#
#######################################################################

data_NIMFIY
_chemical_formula_moiety         'C20 H16 Cl4'
_chemical_name_systematic        
13,14-Benzo-3,4,5,6-tetrachlorotetracyclo(6.4.2.2^9,12^.0^2,7^)hexadeca-2(7),3,5-triene
_symmetry_cell_setting           triclinic
_symmetry_space_group_name_H-M   'P -1'
_symmetry_Int_Tables_number      2
_space_group_name_Hall           '-P 1'
loop_
_symmetry_equiv_pos_site_id
_symmetry_equiv_pos_as_xyz
1 x,y,z
2 -x,-y,-z
_cell_length_a                   7.0543(7)
_cell_length_b                   8.8125(9)
_cell_length_c                   15.016(1)
_cell_angle_alpha                72.980(3)
_cell_angle_beta                 77.562(3)
_cell_angle_gamma                69.707(3)
_cell_volume                     830.423
_exptl_crystal_colour            colorless
_exptl_crystal_description       rectangular
_cell_formula_units_Z            2
loop_
_atom_site_label
_atom_site_type_symbol
_atom_site_fract_x
_atom_site_fract_y
_atom_site_fract_z
Cl1 Cl 0.26784(9) 0.97594(7) 0.49716(4)
Cl2 Cl 0.64330(10) 0.70741(8) 0.42565(4)
Cl3 Cl 0.83007(10) 0.36987(8) 0.56570(5)
Cl4 Cl 0.62906(10) 0.30062(7) 0.77281(5)
C1 C 0.1333(4) 0.9043(3) 0.7117(2)
C2 C 0.3040(4) 0.7722(3) 0.6705(2)
C3 C 0.3816(4) 0.7960(3) 0.5757(2)
C4 C 0.5449(4) 0.6730(3) 0.5430(2)
C5 C 0.6274(4) 0.5228(3) 0.6047(2)
C6 C 0.5403(4) 0.4956(3) 0.6986(2)
C7 C 0.3826(4) 0.6199(3) 0.7323(2)
C8 C 0.2807(4) 0.5988(3) 0.8334(2)
C9 C 0.2643(4) 0.7532(3) 0.8642(2)
C10 C 0.3176(4) 0.7471(3) 0.9492(2)
C11 C 0.3047(4) 0.8933(4) 0.9710(2)
C12 C 0.2379(4) 1.0448(4) 0.9090(2)
C13 C 0.1809(4) 1.0528(3) 0.8241(2)
C14 C 0.1935(4) 0.9066(3) 0.8020(2)
C15 C -0.0831(4) 0.8747(3) 0.7256(2)
C16 C -0.1909(4) 0.8562(3) 0.8274(2)
C17 C -0.1105(4) 0.6828(3) 0.8926(2)
C18 C 0.0703(4) 0.5632(3) 0.8449(2)
C19 C 0.0093(4) 0.5556(3) 0.7545(2)
C20 C -0.0807(4) 0.7285(3) 0.6896(2)
H1 H 0.1149(54) 1.0129(47) 0.6690(25)
H2 H 0.3670(56) 0.5065(46) 0.8720(25)
H3 H 0.3657(54) 0.6414(46) 0.9921(25)
H4 H 0.3515(56) 0.8891(45) 1.0241(27)
H5 H 0.2326(54) 1.1422(46) 0.9236(25)
H6 H 0.1390(55) 1.1554(47) 0.7815(26)
H7 H -0.1671(55) 0.9779(46) 0.6877(25)
H8 H -0.3359(59) 0.8769(44) 0.8249(25)
H9 H -0.1831(54) 0.9438(46) 0.8545(25)
H10 H -0.2262(57) 0.6296(44) 0.9135(25)
H11 H -0.0651(54) 0.6919(44) 0.9510(26)
H12 H 0.0939(54) 0.4547(47) 0.8855(25)
H13 H -0.0955(57) 0.4948(44) 0.7733(25)
H14 H 0.1283(57) 0.4866(45) 0.7176(25)
H15 H -0.2196(59) 0.7387(44) 0.6848(25)
H16 H -0.0180(55) 0.7364(44) 0.6257(27)
loop_
_geom_bond_atom_site_label_1
_geom_bond_atom_site_label_2
_geom_bond_site_symmetry_1
_geom_bond_site_symmetry_2
Cl1 C3 1_555 1_555
Cl2 C4 1_555 1_555
Cl3 C5 1_555 1_555
Cl4 C6 1_555 1_555
C1 C2 1_555 1_555
C2 C3 1_555 1_555
C3 C4 1_555 1_555
C4 C5 1_555 1_555
C5 C6 1_555 1_555
C6 C7 1_555 1_555
C7 C2 1_555 1_555
C8 C7 1_555 1_555
C9 C8 1_555 1_555
C10 C9 1_555 1_555
C11 C10 1_555 1_555
C12 C11 1_555 1_555
C13 C12 1_555 1_555
C14 C1 1_555 1_555
C15 C1 1_555 1_555
C16 C15 1_555 1_555
C17 C16 1_555 1_555
C18 C8 1_555 1_555
C19 C18 1_555 1_555
C20 C15 1_555 1_555
H1 C1 1_555 1_555
H2 C8 1_555 1_555
H3 C10 1_555 1_555
H4 C11 1_555 1_555
H5 C12 1_555 1_555
H6 C13 1_555 1_555
H7 C15 1_555 1_555
H8 C16 1_555 1_555
H9 C16 1_555 1_555
H10 C17 1_555 1_555
H11 C17 1_555 1_555
H12 C18 1_555 1_555
H13 C19 1_555 1_555
H14 C19 1_555 1_555
H15 C20 1_555 1_555
H16 C20 1_555 1_555
C9 C14 1_555 1_555
C13 C14 1_555 1_555
C17 C18 1_555 1_555
C19 C20 1_555 1_555

#END
