
#######################################################################
#
#                 Cambridge Crystallographic Data Centre
#                                CCDC 
#
#######################################################################
#
# If this CIF has been generated from an entry in the Cambridge 
# Structural Database, then it will include bibliographic, chemical, 
# crystal, experimental, refinement or atomic coordinate data resulting 
# from the CCDC's data processing and validation procedures.
#
#######################################################################

data_NIMMII
_chemical_formula_moiety         
'C60 H40 N7 O6 1+,C1 H4 O1,1.5(C1 D1 Cl3),Cl1 1-'
_chemical_name_systematic        
'2,18,32,48,56,57-hexaoxo-22,28,51-tris(pyridin-2,6-diyl)-1,19,25,31-tetraazapentadecacyclo[23.23.5.16,44.113,17.116,19.131,34.133,37.03,47.05,45.07,43.08,12.09,41.010,14.036,40.038,42]octapentaconta-3(47),4,7(43),8,13(58),14,16,33(55),34,36,41,45-dodecaen-25-ium chloride deuterochloroform  unknown solvate'
_symmetry_cell_setting           monoclinic
_symmetry_space_group_name_H-M   'P 21/n'
_symmetry_Int_Tables_number      14
_space_group_name_Hall           '-P 2yn'
loop_
_symmetry_equiv_pos_site_id
_symmetry_equiv_pos_as_xyz
1 x,y,z
2 1/2-x,1/2+y,1/2-z
3 -x,-y,-z
4 1/2+x,1/2-y,1/2+z
_cell_length_a                   18.4626(7)
_cell_length_b                   19.0335(8)
_cell_length_c                   19.1173(8)
_cell_angle_alpha                90
_cell_angle_beta                 100.614(2)
_cell_angle_gamma                90
_cell_volume                     6603.03
_exptl_crystal_colour            colorless
_exptl_crystal_description       plate
_cell_formula_units_Z            4
loop_
_atom_site_label
_atom_site_type_symbol
_atom_site_fract_x
_atom_site_fract_y
_atom_site_fract_z
O1 O 0.5477(2) 0.4339(2) 0.2691(3)
O2 O 0.48373(18) 0.66483(19) 0.28088(18)
O3 O 0.75283(18) 0.85431(18) 0.41560(18)
O4 O 0.99309(18) 0.78613(17) 0.45474(19)
O5 O 1.03355(16) 0.50190(16) 0.42004(17)
O6 O 0.87608(17) 0.32502(15) 0.33080(16)
N1 N 0.5007(2) 0.5446(2) 0.2834(2)
N2 N 0.5771(2) 0.5754(2) 0.4147(2)
N3 N 0.8755(2) 0.82929(19) 0.4509(2)
N4 N 0.8521(2) 0.71098(19) 0.52120(19)
N5 N 0.95820(18) 0.40493(18) 0.39181(18)
N6 N 0.84349(18) 0.42996(17) 0.46182(18)
N7 N 0.74717(18) 0.56362(18) 0.50180(19)
C1 C 0.7558(2) 0.5942(2) 0.0732(2)
C2 C 0.7376(2) 0.6657(2) 0.0826(2)
C3 C 0.7918(2) 0.7129(2) 0.1085(2)
C4 C 0.8665(2) 0.6909(2) 0.1227(2)
C5 C 0.8842(2) 0.6225(2) 0.1126(2)
C6 C 0.8277(3) 0.5727(2) 0.0877(2)
C7 C 0.6823(3) 0.5564(3) 0.0463(3)
H1 H 0.6849 0.5093 0.0237
C8 C 0.6387(2) 0.5612(2) 0.1066(3)
C9 C 0.6209(2) 0.6330(2) 0.1131(2)
C10 C 0.6546(2) 0.6727(2) 0.0581(2)
H2 H 0.6351 0.7209 0.0452
C11 C 0.6428(3) 0.6165(3) -0.0022(3)
H3 H 0.6682 0.6284 -0.042
H4 H 0.5901 0.6064 -0.0205
C12 C 0.6163(3) 0.5107(2) 0.1504(3)
H5 H 0.6289 0.4626 0.1473
C13 C 0.5744(3) 0.5344(2) 0.1989(3)
C14 C 0.5565(2) 0.6051(2) 0.2043(3)
C15 C 0.5800(2) 0.6567(2) 0.1616(2)
H6 H 0.5685 0.705 0.1657
C16 C 0.5417(3) 0.4955(3) 0.2527(3)
C17 C 0.5100(2) 0.6127(3) 0.2596(2)
C18 C 0.4650(3) 0.5309(4) 0.3434(3)
H7 H 0.4617 0.4795 0.3501
H8 H 0.4142 0.5498 0.333
C19 C 0.5053(3) 0.5632(3) 0.4107(3)
C20 C 0.4686(3) 0.5794(4) 0.4654(4)
H9 H 0.4173 0.5705 0.4609
C21 C 0.5080(4) 0.6088(4) 0.5267(4)
H10 H 0.4841 0.6201 0.5653
C22 C 0.5826(3) 0.6219(3) 0.5317(3)
H11 H 0.6108 0.6422 0.5734
C23 C 0.6150(3) 0.6046(3) 0.4741(3)
C24 C 0.7916(2) 0.7909(2) 0.1290(2)
H12 H 0.7462 0.8186 0.1099
C25 C 0.8195(2) 0.7932(2) 0.2095(2)
C26 C 0.8942(2) 0.7717(2) 0.2214(2)
C27 C 0.9124(2) 0.7562(2) 0.1493(3)
H13 H 0.9659 0.7549 0.146
C28 C 0.8645(3) 0.8136(3) 0.1050(3)
H14 H 0.8624 0.8083 0.0531
H15 H 0.88 0.8619 0.1203
C29 C 0.7850(2) 0.8124(2) 0.2647(2)
H16 H 0.7344 0.8251 0.2569
C30 C 0.8282(2) 0.8122(2) 0.3323(2)
C31 C 0.9018(2) 0.7913(2) 0.3443(2)
C32 C 0.9367(2) 0.7699(2) 0.2892(2)
H17 H 0.9866 0.7549 0.2976
C33 C 0.8101(3) 0.8343(2) 0.4013(2)
C34 C 0.9322(2) 0.8000(2) 0.4212(3)
C35 C 0.8801(3) 0.8361(2) 0.5274(3)
H18 H 0.84 0.8673 0.5366
H19 H 0.9276 0.8584 0.5483
C36 C 0.8741(2) 0.7668(2) 0.5632(2)
C37 C 0.8907(3) 0.7616(3) 0.6363(3)
H20 H 0.9055 0.8021 0.6644
C38 C 0.8858(3) 0.6974(3) 0.6685(3)
H21 H 0.8976 0.6929 0.7188
C39 C 0.8632(2) 0.6396(3) 0.6260(3)
H22 H 0.8591 0.5946 0.6465
C40 C 0.8468(2) 0.6487(2) 0.5526(2)
C41 C 0.9567(3) 0.5820(3) 0.1243(3)
H23 H 1.0029 0.6103 0.1273
C42 C 0.9520(2) 0.5331(2) 0.1866(2)
C43 C 0.8973(2) 0.4825(2) 0.1609(2)
C44 C 0.8670(3) 0.5024(3) 0.0834(2)
H24 H 0.8391 0.4652 0.0526
C45 C 0.9391(3) 0.5290(3) 0.0623(3)
H25 H 0.9768 0.4917 0.0646
H26 H 0.9308 0.5519 0.015
C46 C 0.9873(2) 0.5337(2) 0.2569(2)
H27 H 1.0228 0.5683 0.2752
C47 C 0.9673(2) 0.4803(2) 0.2992(2)
C48 C 0.9166(2) 0.4289(2) 0.2729(2)
C49 C 0.8791(2) 0.4291(2) 0.2022(2)
H28 H 0.8433 0.3946 0.1843
C50 C 0.9922(2) 0.4670(2) 0.3769(2)
C51 C 0.9117(2) 0.3789(2) 0.3315(2)
C52 C 0.9628(2) 0.3745(2) 0.4618(2)
H29 H 1.0024 0.3985 0.4953
H30 H 0.9764 0.3244 0.46
C53 C 0.8915(2) 0.3803(2) 0.4897(2)
C54 C 0.8798(3) 0.3362(2) 0.5446(2)
H31 H 0.9148 0.3011 0.5629
C55 C 0.8163(3) 0.3444(3) 0.5718(3)
H32 H 0.8066 0.3148 0.609
C56 C 0.7667(3) 0.3964(3) 0.5444(3)
H33 H 0.7228 0.4034 0.5628
C57 C 0.7824(2) 0.4380(2) 0.4897(2)
C58 C 0.6939(2) 0.6216(2) 0.4729(3)
H34 H 0.7076 0.6647 0.5012
H35 H 0.699 0.6317 0.4232
C59 C 0.8250(2) 0.5879(2) 0.5033(2)
H36 H 0.859 0.5482 0.5182
H37 H 0.8303 0.6017 0.4546
C60 C 0.7317(2) 0.4970(2) 0.4590(2)
H38 H 0.7379 0.5061 0.4094
H39 H 0.68 0.4826 0.4579
H40 H 0.7397 0.5578 0.5487
Cl1 Cl 0.71694(7) 0.53026(8) 0.64976(7)
O7 O 0.7932(6) 0.6020(5) 0.2779(5)
C61 C 0.7462(7) 0.6128(8) 0.3155(5)
C62 C 0.6896(5) 0.6816(6) 0.7277(6)
D1 D 0.71 0.6402 0.7056
Cl2 Cl 0.6067(2) 0.6564(3) 0.7519(4)
Cl3 Cl 0.6741(5) 0.7495(4) 0.6640(6)
Cl4 Cl 0.7545(3) 0.7077(5) 0.8025(4)
C63 C 0.4971(5) 0.7882(4) 0.4061(5)
D2 D 0.4858 0.7439 0.3781
Cl5 Cl 0.4525(4) 0.78410(18) 0.4772(3)
Cl6 Cl 0.45837(17) 0.85903(18) 0.35144(13)
Cl7 Cl 0.5921(2) 0.7961(2) 0.4277(2)
loop_
_geom_bond_atom_site_label_1
_geom_bond_atom_site_label_2
_geom_bond_site_symmetry_1
_geom_bond_site_symmetry_2
O1 C16 1_555 1_555
O2 C17 1_555 1_555
O3 C33 1_555 1_555
O4 C34 1_555 1_555
O5 C50 1_555 1_555
O6 C51 1_555 1_555
N1 C16 1_555 1_555
N2 C19 1_555 1_555
N3 C33 1_555 1_555
N4 C36 1_555 1_555
N5 C50 1_555 1_555
N6 C53 1_555 1_555
N7 C58 1_555 1_555
C1 C2 1_555 1_555
C2 C3 1_555 1_555
C3 C4 1_555 1_555
C4 C5 1_555 1_555
C5 C6 1_555 1_555
C6 C1 1_555 1_555
C7 C1 1_555 1_555
H1 C7 1_555 1_555
C8 C7 1_555 1_555
C9 C8 1_555 1_555
C10 C2 1_555 1_555
H2 C10 1_555 1_555
C11 C7 1_555 1_555
H3 C11 1_555 1_555
H4 C11 1_555 1_555
C12 C8 1_555 1_555
H5 C12 1_555 1_555
C13 C12 1_555 1_555
C14 C13 1_555 1_555
C15 C9 1_555 1_555
H6 C15 1_555 1_555
C16 C13 1_555 1_555
C17 N1 1_555 1_555
C18 N1 1_555 1_555
H7 C18 1_555 1_555
H8 C18 1_555 1_555
C19 C18 1_555 1_555
C20 C19 1_555 1_555
H9 C20 1_555 1_555
C21 C20 1_555 1_555
H10 C21 1_555 1_555
C22 C21 1_555 1_555
H11 C22 1_555 1_555
C23 N2 1_555 1_555
C24 C3 1_555 1_555
H12 C24 1_555 1_555
C25 C24 1_555 1_555
C26 C25 1_555 1_555
C27 C4 1_555 1_555
H13 C27 1_555 1_555
C28 C24 1_555 1_555
H14 C28 1_555 1_555
H15 C28 1_555 1_555
C29 C25 1_555 1_555
H16 C29 1_555 1_555
C30 C29 1_555 1_555
C31 C30 1_555 1_555
C32 C26 1_555 1_555
H17 C32 1_555 1_555
C33 C30 1_555 1_555
C34 N3 1_555 1_555
C35 N3 1_555 1_555
H18 C35 1_555 1_555
H19 C35 1_555 1_555
C36 C35 1_555 1_555
C37 C36 1_555 1_555
H20 C37 1_555 1_555
C38 C37 1_555 1_555
H21 C38 1_555 1_555
C39 C38 1_555 1_555
H22 C39 1_555 1_555
C40 N4 1_555 1_555
C41 C5 1_555 1_555
H23 C41 1_555 1_555
C42 C41 1_555 1_555
C43 C42 1_555 1_555
C44 C6 1_555 1_555
H24 C44 1_555 1_555
C45 C41 1_555 1_555
H25 C45 1_555 1_555
H26 C45 1_555 1_555
C46 C42 1_555 1_555
H27 C46 1_555 1_555
C47 C46 1_555 1_555
C48 C47 1_555 1_555
C49 C43 1_555 1_555
H28 C49 1_555 1_555
C50 C47 1_555 1_555
C51 N5 1_555 1_555
C52 N5 1_555 1_555
H29 C52 1_555 1_555
H30 C52 1_555 1_555
C53 C52 1_555 1_555
C54 C53 1_555 1_555
H31 C54 1_555 1_555
C55 C54 1_555 1_555
H32 C55 1_555 1_555
C56 C55 1_555 1_555
H33 C56 1_555 1_555
C57 N6 1_555 1_555
C58 C23 1_555 1_555
H34 C58 1_555 1_555
H35 C58 1_555 1_555
C59 N7 1_555 1_555
H36 C59 1_555 1_555
H37 C59 1_555 1_555
C60 N7 1_555 1_555
H38 C60 1_555 1_555
H39 C60 1_555 1_555
H40 N7 1_555 1_555
O7 C61 1_555 1_555
C62 D1 1_555 1_555
Cl2 C62 1_555 1_555
Cl3 C62 1_555 1_555
Cl4 C62 1_555 1_555
C63 D2 1_555 1_555
Cl5 C63 1_555 1_555
Cl6 C63 1_555 1_555
Cl7 C63 1_555 1_555
C9 C10 1_555 1_555
C10 C11 1_555 1_555
C14 C15 1_555 1_555
C14 C17 1_555 1_555
C22 C23 1_555 1_555
C26 C27 1_555 1_555
C27 C28 1_555 1_555
C31 C32 1_555 1_555
C31 C34 1_555 1_555
C39 C40 1_555 1_555
C40 C59 1_555 1_555
C43 C44 1_555 1_555
C44 C45 1_555 1_555
C48 C49 1_555 1_555
C48 C51 1_555 1_555
C56 C57 1_555 1_555
C57 C60 1_555 1_555

#END
