
#######################################################################
#
#                 Cambridge Crystallographic Data Centre
#                                CCDC 
#
#######################################################################
#
# If this CIF has been generated from an entry in the Cambridge 
# Structural Database, then it will include bibliographic, chemical, 
# crystal, experimental, refinement or atomic coordinate data resulting 
# from the CCDC's data processing and validation procedures.
#
#######################################################################

data_NIMTUB
_chemical_formula_moiety         'C114 H108 N16 O12'
_chemical_name_systematic        
'3^4^,13^6^,15^4^,25^6^,28^4^,38^6^,40^4^,50^6^,51^6^,56^4^,61^6^,70^4^-dodecahydroxy-5,8,11,17,20,23,30,33,36,42,45,48,53,58,63,68-hexadeca-aza-3,13,15,25,28,38,40,50,51,56,61,70(1,3)-dodecabenzenahexacyclo(31.17.5.5^2,20^.5^8,26^.5^27,45^.0^14,39^)heptacontaphane-1,4,11,14(39),16,23,26,29,36,41,48,52,58,62,68-pentadecaene unknown solvate'
_symmetry_cell_setting           monoclinic
_symmetry_space_group_name_H-M   'P 2/c'
_symmetry_Int_Tables_number      13
_space_group_name_Hall           '-P 2yc'
loop_
_symmetry_equiv_pos_site_id
_symmetry_equiv_pos_as_xyz
1 x,y,z
2 -x,y,1/2-z
3 -x,-y,-z
4 x,-y,1/2+z
_cell_length_a                   26.0567(5)
_cell_length_b                   14.2086(3)
_cell_length_c                   28.6868(6)
_cell_angle_alpha                90
_cell_angle_beta                 94.091(2)
_cell_angle_gamma                90
_cell_volume                     10593.6
_exptl_crystal_colour            'dark red'
_exptl_crystal_description       prism
_cell_formula_units_Z            4
_exptl_crystal_recrystallization_method 'slow evaporation'
loop_
_atom_site_label
_atom_site_type_symbol
_atom_site_fract_x
_atom_site_fract_y
_atom_site_fract_z
O1 O 0.15853(8) 0.34526(15) 0.16493(6)
H1 H 0.1806 0.3040 0.1663
O2 O 0.31001(8) -0.23508(14) 0.55010(7)
H2 H 0.2850 -0.2488 0.5324
O3 O 0.23205(8) -0.08622(14) 0.29371(7)
H3 H 0.2590 -0.0877 0.2806
O4 O 0.15403(8) 0.77349(13) 0.33122(8)
H4 H 0.1845 0.7665 0.3267
O5 O 0.24738(9) 0.58722(14) 0.55406(7)
H5 H 0.2518 0.5684 0.5811
O6 O 0.32905(9) 0.44546(17) 0.25918(7)
H6 H 0.3555 0.4756 0.2653
O7 O -0.03311(8) 0.00334(15) 0.38173(8)
H7 H -0.0152 -0.0240 0.4021
O8 O 0.00524(9) 0.37100(17) 0.54730(7)
H8 H 0.0302 0.3817 0.5655
O9 O 0.11782(9) 0.10902(16) 0.58005(8)
H9 H 0.1210 0.0530 0.5865
O10 O 0.50157(8) 0.49709(15) 0.43749(8)
H10 H 0.4801 0.5393 0.4354
O11 O 0.48862(8) 0.04302(18) 0.30858(8)
H11 H 0.4757 0.0812 0.2898
N1 N 0.24284(8) -0.21560(16) 0.47729(8)
O12 O 0.35827(11) 0.2425(2) 0.69332(8)
H12 H 0.3290 0.2240 0.6969
N2 N 0.24062(9) 0.68251(17) 0.32473(8)
N3 N 0.13033(9) -0.18947(16) 0.50569(8)
N4 N 0.04029(8) -0.01342(17) 0.44942(8)
N5 N 0.32317(9) -0.03545(16) 0.27338(8)
N6 N 0.21152(9) 0.20175(17) 0.20090(8)
N7 N 0.09925(9) 0.42492(17) 0.57384(8)
N8 N 0.16176(10) -0.05689(17) 0.58054(8)
N9 N 0.37734(9) 0.69009(17) 0.36897(9)
N10 N 0.27136(10) 0.47292(18) 0.62002(8)
N11 N 0.34830(9) 0.12596(19) 0.21021(8)
N12 N 0.43623(9) 0.18714(19) 0.28027(9)
N13 N 0.41952(10) 0.58433(18) 0.45655(9)
C1 C 0.28068(10) 0.32104(17) 0.37984(8)
N14 N 0.40137(9) 0.52837(18) 0.31191(9)
N15 N 0.19727(11) 0.3510(2) 0.66765(8)
C2 C 0.25989(9) 0.28869(17) 0.42436(8)
C3 C 0.23920(9) 0.12492(17) 0.39522(8)
C4 C 0.08067(9) 0.34752(18) 0.28702(8)
C5 C 0.11486(10) 0.27672(19) 0.27861(8)
H13 H 0.1199 0.2287 0.3005
C6 C 0.26038(9) 0.36543(17) 0.46029(8)
C7 C 0.32605(10) 0.37236(17) 0.38082(8)
H14 H 0.3456 0.3782 0.4091
C8 C 0.13655(10) 0.51854(18) 0.34199(8)
H15 H 0.1552 0.4631 0.3399
C9 C 0.03314(9) 0.11890(18) 0.39706(9)
C10 C 0.28022(10) 0.03397(18) 0.33582(8)
C11 C 0.23870(9) 0.20301(17) 0.43046(8)
C12 C 0.20931(9) 0.18071(17) 0.47207(8)
C13 C 0.14236(10) 0.27422(18) 0.23850(8)
C14 C 0.07181(10) 0.41657(18) 0.25253(9)
H16 H 0.0488 0.4651 0.2572
C15 C 0.16099(10) 0.60436(18) 0.33546(8)
C16 C 0.28129(10) 0.10468(17) 0.37025(8)
H17 H 0.3114 0.1390 0.3764
C17 C 0.13303(10) 0.34388(19) 0.20455(8)
C18 C 0.08502(10) 0.51376(18) 0.35151(8)
C19 C 0.31577(10) -0.11384(18) 0.49161(9)
C20 C 0.04125(10) 0.41727(18) 0.41025(9)
C21 C 0.09682(10) 0.41352(19) 0.21158(9)
H18 H 0.0893 0.4585 0.1885
C22 C 0.05695(9) 0.34835(18) 0.33299(8)
C23 C 0.34368(10) 0.41556(18) 0.34137(9)
C24 C 0.26884(10) -0.14508(19) 0.46483(9)
H19 H 0.2577 -0.1124 0.4379
C25 C 0.05445(9) 0.20453(18) 0.38473(9)
H20 H 0.0829 0.2277 0.4026
N16 N 0.26745(12) 0.1840(2) 0.66863(9)
C26 C 0.23511(11) -0.01892(18) 0.32689(9)
C27 C 0.05925(10) 0.42295(19) 0.36174(9)
C28 C 0.19524(10) 0.06934(19) 0.38589(9)
H21 H 0.1665 0.0807 0.4024
C29 C 0.18783(11) 0.07005(19) 0.53265(9)
C30 C 0.26923(10) 0.42591(19) 0.54025(9)
C31 C 0.03449(9) 0.25617(18) 0.34660(9)
C32 C 0.27241(10) 0.35276(18) 0.50770(9)
H22 H 0.2830 0.2936 0.5184
C33 C 0.21713(10) 0.09687(18) 0.49587(9)
H23 H 0.2429 0.0566 0.4871
C34 C 0.06553(10) 0.42489(18) 0.49373(9)
C35 C 0.25272(10) 0.31151(18) 0.33617(9)
H24 H 0.2223 0.2771 0.3342
C36 C 0.07644(10) 0.43932(18) 0.44731(9)
H25 H 0.1082 0.4644 0.4410
C37 C 0.26940(11) 0.3518(2) 0.29639(9)
H26 H 0.2503 0.3438 0.2680
C38 C 0.38446(10) 0.00157(19) 0.50292(10)
C39 C 0.31451(11) 0.4044(2) 0.29801(9)
C40 C 0.21561(10) 0.6062(2) 0.32847(8)
H27 H 0.2330 0.5494 0.3266
C41 C 0.16981(10) 0.23953(18) 0.48603(9)
H28 H 0.1634 0.2961 0.4704
C42 C 0.34212(10) -0.03632(18) 0.47722(9)
H29 H 0.3311 -0.0080 0.4490
C43 C 0.42830(10) 0.0781(2) 0.43789(10)
C44 C 0.41809(10) 0.14396(19) 0.40254(10)
H30 H 0.3980 0.1962 0.4083
C45 C 0.45774(10) -0.0007(2) 0.42764(11)
H31 H 0.4638 -0.0468 0.4504
C46 C 0.33339(10) -0.15877(19) 0.53360(9)
C47 C 0.14869(11) 0.1309(2) 0.54625(9)
C48 C 0.32389(10) 0.02197(19) 0.30772(10)
H32 H 0.3534 0.0573 0.3149
C49 C 0.05691(10) 0.06658(19) 0.43661(9)
H33 H 0.0854 0.0925 0.4533
C50 C 0.13243(11) 0.68880(18) 0.33783(9)
C51 C 0.24633(10) 0.45677(19) 0.44574(9)
H34 H 0.2388 0.4682 0.4141
C52 C 0.18222(10) 0.2034(2) 0.23466(9)
H35 H 0.1865 0.1576 0.2577
C53 C -0.00761(10) 0.21901(19) 0.32029(9)
H36 H -0.0206 0.2510 0.2937
C54 C 0.10563(11) 0.44220(19) 0.53074(9)
H37 H 0.1370 0.4666 0.5229
C55 C 0.41002(10) 0.0879(2) 0.48568(10)
C56 C -0.00710(10) 0.38520(19) 0.42051(10)
H38 H -0.0318 0.3725 0.3963
C57 C 0.19322(11) -0.00172(19) 0.35295(9)
H39 H 0.1637 -0.0382 0.3482
C58 C -0.01031(10) 0.0850(2) 0.37090(10)
C59 C 0.01746(11) 0.38899(19) 0.50308(9)
C60 C 0.19273(11) -0.0246(2) 0.55153(9)
H40 H 0.2191 -0.0630 0.5423
C61 C 0.25345(11) 0.51560(19) 0.52456(9)
C62 C 0.38753(10) 0.4784(2) 0.34601(10)
H41 H 0.4063 0.4827 0.3748
C63 C 0.05788(11) 0.5984(2) 0.35416(10)
H42 H 0.0235 0.5970 0.3609
C64 C 0.27911(11) 0.4084(2) 0.59015(9)
H43 H 0.2911 0.3498 0.6004
C65 C 0.37698(11) -0.1235(2) 0.55901(10)
H44 H 0.3897 -0.1540 0.5861
C66 C 0.43715(10) 0.1338(2) 0.35879(10)
C67 C 0.34962(11) 0.1597(2) 0.57190(10)
H45 H 0.3259 0.1325 0.5502
C68 C 0.15469(11) -0.26962(19) 0.48424(10)
H46 H 0.1285 -0.3071 0.4672
H47 H 0.1712 -0.3088 0.5086
C69 C -0.01885(10) 0.3719(2) 0.46651(10)
H48 H -0.0515 0.3512 0.4728
C70 C 0.19450(10) -0.2393(2) 0.45101(10)
H49 H 0.2002 -0.2899 0.4293
H50 H 0.1819 -0.1850 0.4332
C71 C 0.40104(11) -0.0449(2) 0.54442(10)
H51 H 0.4292 -0.0214 0.5625
C72 C 0.48832(11) 0.2544(2) 0.47478(11)
H52 H 0.5073 0.1990 0.4751
C73 C 0.44014(11) 0.2544(2) 0.49276(10)
C74 C 0.41567(11) 0.1678(2) 0.51095(10)
C75 C 0.46879(10) 0.0551(2) 0.35003(11)
C76 C 0.08114(11) 0.6842(2) 0.34703(11)
H53 H 0.0621 0.7393 0.3484
C77 C -0.03050(10) 0.1361(2) 0.33251(10)
H54 H -0.0595 0.1142 0.3151
C78 C 0.08638(11) -0.1559(2) 0.47508(10)
H55 H 0.0581 -0.2000 0.4764
H56 H 0.0961 -0.1539 0.4431
C79 C 0.48064(11) 0.4193(2) 0.45592(10)
C80 C 0.47804(11) -0.0120(2) 0.38471(11)
H57 H 0.4979 -0.0646 0.3791
C81 C 0.11991(11) -0.2024(2) 0.55505(10)
H58 H 0.1181 -0.2692 0.5618
H59 H 0.0868 -0.1749 0.5604
C82 C 0.39811(12) 0.1802(2) 0.55887(10)
C83 C 0.50859(11) 0.3351(2) 0.45655(11)
H60 H 0.5409 0.3335 0.4447
C84 C 0.41340(11) 0.3397(2) 0.49294(10)
H61 H 0.3817 0.3415 0.5059
C85 C 0.43248(11) 0.4219(2) 0.47448(10)
C86 C 0.14032(11) 0.21580(19) 0.52218(10)
H62 H 0.1146 0.2565 0.5307
C87 C 0.06860(12) -0.0592(2) 0.48908(10)
H63 H 0.0466 -0.0648 0.5148
H64 H 0.0982 -0.0211 0.4994
C88 C 0.33487(12) 0.1786(2) 0.61691(10)
C89 C 0.42072(11) 0.1975(2) 0.32097(10)
H65 H 0.3985 0.2467 0.3267
C90 C 0.32538(11) 0.7271(2) 0.35963(11)
H66 H 0.3274 0.7934 0.3519
H67 H 0.3068 0.7215 0.3876
C91 C 0.29566(11) 0.6751(2) 0.31946(11)
H68 H 0.3037 0.7023 0.2898
H69 H 0.3058 0.6094 0.3196
C92 C 0.24331(12) 0.52970(19) 0.47670(10)
H70 H 0.2344 0.5894 0.4656
C93 C 0.16137(13) -0.1572(2) 0.58832(10)
H71 H 0.1543 -0.1702 0.6204
H72 H 0.1948 -0.1835 0.5829
C94 C 0.40220(12) 0.5094(2) 0.47438(11)
H73 H 0.3705 0.5101 0.4873
C95 C 0.28180(14) 0.1649(2) 0.62766(11)
H74 H 0.2579 0.1421 0.6047
C96 C 0.25234(12) 0.1309(2) 0.20221(11)
H75 H 0.2428 0.0809 0.1803
H76 H 0.2567 0.1037 0.2332
C97 C 0.30279(12) 0.1753(2) 0.18967(10)
H77 H 0.3039 0.1758 0.1559
H78 H 0.3038 0.2402 0.2003
C98 C 0.38966(12) 0.6720(2) 0.45529(12)
H79 H 0.3983 0.7082 0.4834
H80 H 0.3532 0.6575 0.4540
C99 C 0.14438(13) 0.4380(2) 0.60632(10)
H81 H 0.1434 0.5000 0.6203
H82 H 0.1753 0.4337 0.5895
C100 C 0.37109(15) 0.2198(2) 0.65014(11)
C101 C 0.36620(12) -0.0328(2) 0.24305(11)
H83 H 0.3750 -0.0962 0.2341
H84 H 0.3961 -0.0049 0.2598
C102 C 0.14583(13) 0.3630(2) 0.64470(10)
H85 H 0.1222 0.3807 0.6679
H86 H 0.1343 0.3034 0.6311
C103 C 0.40148(12) 0.7290(2) 0.41278(12)
H87 H 0.3895 0.7930 0.4166
H88 H 0.4385 0.7312 0.4107
C104 C 0.35076(13) 0.0256(2) 0.19925(11)
H89 H 0.3756 0.0156 0.1761
H90 H 0.3174 0.0047 0.1860
C105 C 0.39558(12) 0.1770(3) 0.20172(11)
H91 H 0.3897 0.2135 0.1732
H92 H 0.4225 0.1317 0.1968
C106 C 0.43885(12) 0.6039(2) 0.32250(13)
H93 H 0.4611 0.6107 0.2970
H94 H 0.4600 0.5888 0.3507
C107 C 0.41422(13) 0.2427(2) 0.24104(11)
H95 H 0.4400 0.2852 0.2303
H96 H 0.3857 0.2799 0.2508
C108 C 0.43299(13) 0.2217(3) 0.59299(12)
H97 H 0.4658 0.2373 0.5848
C109 C 0.40947(12) 0.6960(2) 0.32927(13)
H98 H 0.4339 0.7471 0.3344
H99 H 0.3879 0.7098 0.3011
C110 C 0.22186(14) 0.4375(3) 0.68664(10)
H100 H 0.2242 0.4346 0.7205
H101 H 0.2006 0.4913 0.6772
C111 C 0.42010(15) 0.2396(3) 0.63729(12)
H102 H 0.4444 0.2652 0.6590
C112 C 0.27532(13) 0.4511(3) 0.66983(10)
H103 H 0.2927 0.5021 0.6870
H104 H 0.2954 0.3942 0.6754
C113 C 0.21348(15) 0.1800(3) 0.67869(11)
H105 H 0.2080 0.1283 0.6999
H106 H 0.1922 0.1694 0.6500
C114 C 0.19888(16) 0.2719(3) 0.70064(10)
H107 H 0.1653 0.2651 0.7129
H108 H 0.2235 0.2859 0.7267
loop_
_geom_bond_atom_site_label_1
_geom_bond_atom_site_label_2
_geom_bond_site_symmetry_1
_geom_bond_site_symmetry_2
O1 H1 1_555 1_555
O2 H2 1_555 1_555
O3 H3 1_555 1_555
O4 H4 1_555 1_555
O5 H5 1_555 1_555
O6 H6 1_555 1_555
O7 H7 1_555 1_555
O8 H8 1_555 1_555
O9 H9 1_555 1_555
O10 H10 1_555 1_555
O11 H11 1_555 1_555
N1 C24 1_555 1_555
O12 H12 1_555 1_555
N2 C40 1_555 1_555
N3 C68 1_555 1_555
N4 C49 1_555 1_555
N5 C48 1_555 1_555
N6 C52 1_555 1_555
N7 C54 1_555 1_555
N8 C60 1_555 1_555
N9 C90 1_555 1_555
N10 C64 1_555 1_555
N11 C97 1_555 1_555
N12 C89 1_555 1_555
N13 C94 1_555 1_555
C1 C2 1_555 1_555
N14 C62 1_555 1_555
N15 C102 1_555 1_555
C2 C6 1_555 1_555
C3 C11 1_555 1_555
C4 C5 1_555 1_555
C5 H13 1_555 1_555
C6 C32 1_555 1_555
C7 C1 1_555 1_555
H14 C7 1_555 1_555
C8 H15 1_555 1_555
C9 C25 1_555 1_555
C10 C16 1_555 1_555
C11 C2 1_555 1_555
C12 C11 1_555 1_555
C13 C5 1_555 1_555
C14 C4 1_555 1_555
H16 C14 1_555 1_555
C15 C8 1_555 1_555
C16 C3 1_555 1_555
H17 C16 1_555 1_555
C17 O1 1_555 1_555
C18 C8 1_555 1_555
C19 C24 1_555 1_555
C20 C27 1_555 1_555
C21 C14 1_555 1_555
H18 C21 1_555 1_555
C22 C4 1_555 1_555
C23 C7 1_555 1_555
C24 H19 1_555 1_555
C25 H20 1_555 1_555
N16 C95 1_555 1_555
C26 O3 1_555 1_555
C27 C18 1_555 1_555
C28 C3 1_555 1_555
H21 C28 1_555 1_555
C29 C33 1_555 1_555
C30 C32 1_555 1_555
C31 C22 1_555 1_555
C32 H22 1_555 1_555
C33 C12 1_555 1_555
H23 C33 1_555 1_555
C34 C36 1_555 1_555
C35 C1 1_555 1_555
H24 C35 1_555 1_555
C36 C20 1_555 1_555
H25 C36 1_555 1_555
C37 C35 1_555 1_555
H26 C37 1_555 1_555
C38 C42 1_555 1_555
C39 O6 1_555 1_555
C40 C15 1_555 1_555
H27 C40 1_555 1_555
C41 C12 1_555 1_555
H28 C41 1_555 1_555
C42 C19 1_555 1_555
H29 C42 1_555 1_555
C43 C44 1_555 1_555
C44 H30 1_555 1_555
C45 C43 1_555 1_555
H31 C45 1_555 1_555
C46 O2 1_555 1_555
C47 O9 1_555 1_555
C48 C10 1_555 1_555
H32 C48 1_555 1_555
C49 C9 1_555 1_555
H33 C49 1_555 1_555
C50 O4 1_555 1_555
C51 C6 1_555 1_555
H34 C51 1_555 1_555
C52 C13 1_555 1_555
H35 C52 1_555 1_555
C53 C31 1_555 1_555
H36 C53 1_555 1_555
C54 C34 1_555 1_555
H37 C54 1_555 1_555
C55 C38 1_555 1_555
C56 C20 1_555 1_555
H38 C56 1_555 1_555
C57 C26 1_555 1_555
H39 C57 1_555 1_555
C58 O7 1_555 1_555
C59 O8 1_555 1_555
C60 C29 1_555 1_555
H40 C60 1_555 1_555
C61 O5 1_555 1_555
C62 C23 1_555 1_555
H41 C62 1_555 1_555
C63 C18 1_555 1_555
H42 C63 1_555 1_555
C64 C30 1_555 1_555
H43 C64 1_555 1_555
C65 C46 1_555 1_555
H44 C65 1_555 1_555
C66 C44 1_555 1_555
C67 H45 1_555 1_555
C68 H46 1_555 1_555
H47 C68 1_555 1_555
C69 C56 1_555 1_555
H48 C69 1_555 1_555
C70 N1 1_555 1_555
H49 C70 1_555 1_555
H50 C70 1_555 1_555
C71 C38 1_555 1_555
H51 C71 1_555 1_555
C72 H52 1_555 1_555
C73 C72 1_555 1_555
C74 C55 1_555 1_555
C75 O11 1_555 1_555
C76 C50 1_555 1_555
H53 C76 1_555 1_555
C77 C53 1_555 1_555
H54 C77 1_555 1_555
C78 N3 1_555 1_555
H55 C78 1_555 1_555
H56 C78 1_555 1_555
C79 O10 1_555 1_555
C80 C45 1_555 1_555
H57 C80 1_555 1_555
C81 N3 1_555 1_555
H58 C81 1_555 1_555
H59 C81 1_555 1_555
C82 C67 1_555 1_555
C83 C72 1_555 1_555
H60 C83 1_555 1_555
C84 C73 1_555 1_555
H61 C84 1_555 1_555
C85 C79 1_555 1_555
C86 C41 1_555 1_555
H62 C86 1_555 1_555
C87 N4 1_555 1_555
H63 C87 1_555 1_555
H64 C87 1_555 1_555
C88 C67 1_555 1_555
C89 C66 1_555 1_555
H65 C89 1_555 1_555
C90 H66 1_555 1_555
H67 C90 1_555 1_555
C91 N2 1_555 1_555
H68 C91 1_555 1_555
H69 C91 1_555 1_555
C92 C51 1_555 1_555
H70 C92 1_555 1_555
C93 N8 1_555 1_555
H71 C93 1_555 1_555
H72 C93 1_555 1_555
C94 C85 1_555 1_555
H73 C94 1_555 1_555
C95 C88 1_555 1_555
H74 C95 1_555 1_555
C96 N6 1_555 1_555
H75 C96 1_555 1_555
H76 C96 1_555 1_555
C97 C96 1_555 1_555
H77 C97 1_555 1_555
H78 C97 1_555 1_555
C98 N13 1_555 1_555
H79 C98 1_555 1_555
H80 C98 1_555 1_555
C99 N7 1_555 1_555
H81 C99 1_555 1_555
H82 C99 1_555 1_555
C100 O12 1_555 1_555
C101 N5 1_555 1_555
H83 C101 1_555 1_555
H84 C101 1_555 1_555
C102 C99 1_555 1_555
H85 C102 1_555 1_555
H86 C102 1_555 1_555
C103 N9 1_555 1_555
H87 C103 1_555 1_555
H88 C103 1_555 1_555
C104 N11 1_555 1_555
H89 C104 1_555 1_555
H90 C104 1_555 1_555
C105 N11 1_555 1_555
H91 C105 1_555 1_555
H92 C105 1_555 1_555
C106 N14 1_555 1_555
H93 C106 1_555 1_555
H94 C106 1_555 1_555
C107 N12 1_555 1_555
H95 C107 1_555 1_555
H96 C107 1_555 1_555
C108 C82 1_555 1_555
H97 C108 1_555 1_555
C109 N9 1_555 1_555
H98 C109 1_555 1_555
H99 C109 1_555 1_555
C110 N15 1_555 1_555
H100 C110 1_555 1_555
H101 C110 1_555 1_555
C111 C100 1_555 1_555
H102 C111 1_555 1_555
C112 N10 1_555 1_555
H103 C112 1_555 1_555
H104 C112 1_555 1_555
C113 N16 1_555 1_555
H105 C113 1_555 1_555
H106 C113 1_555 1_555
C114 N15 1_555 1_555
H107 C114 1_555 1_555
H108 C114 1_555 1_555
C9 C58 1_555 1_555
C10 C26 1_555 1_555
C13 C17 1_555 1_555
C15 C50 1_555 1_555
C17 C21 1_555 1_555
C19 C46 1_555 1_555
C22 C27 1_555 1_555
C23 C39 1_555 1_555
C25 C31 1_555 1_555
C28 C57 1_555 1_555
C29 C47 1_555 1_555
C30 C61 1_555 1_555
C34 C59 1_555 1_555
C37 C39 1_555 1_555
C43 C55 1_555 1_555
C47 C86 1_555 1_555
C58 C77 1_555 1_555
C59 C69 1_555 1_555
C61 C92 1_555 1_555
C63 C76 1_555 1_555
C65 C71 1_555 1_555
C66 C75 1_555 1_555
C68 C70 1_555 1_555
C73 C74 1_555 1_555
C74 C82 1_555 1_555
C75 C80 1_555 1_555
C78 C87 1_555 1_555
C79 C83 1_555 1_555
C81 C93 1_555 1_555
C84 C85 1_555 1_555
C88 C100 1_555 1_555
C90 C91 1_555 1_555
C98 C103 1_555 1_555
C101 C104 1_555 1_555
C105 C107 1_555 1_555
C106 C109 1_555 1_555
C108 C111 1_555 1_555
C110 C112 1_555 1_555
C113 C114 1_555 1_555

#END
