
#######################################################################
#
#                 Cambridge Crystallographic Data Centre
#                                CCDC 
#
#######################################################################
#
# If this CIF has been generated from an entry in the Cambridge 
# Structural Database, then it will include bibliographic, chemical, 
# crystal, experimental, refinement or atomic coordinate data resulting 
# from the CCDC's data processing and validation procedures.
#
#######################################################################

data_NIPGOJ
_chemical_formula_moiety         'C60 H60 N20,2(C3 H6 O1)'
_chemical_name_systematic        
'2,8,14,20,26,32,38,44,50,56-Decamethyl-2,8,14,20,26,32,38,44,50,56-deca-aza-(2,6-pyridino)calix(10)arene acetone solvate'
_symmetry_cell_setting           monoclinic
_symmetry_space_group_name_H-M   'P 21/c'
_symmetry_Int_Tables_number      14
_space_group_name_Hall           '-P 2ybc'
loop_
_symmetry_equiv_pos_site_id
_symmetry_equiv_pos_as_xyz
1 x,y,z
2 -x,1/2+y,1/2-z
3 -x,-y,-z
4 x,1/2-y,1/2+z
_cell_length_a                   17.920(4)
_cell_length_b                   8.3524(17)
_cell_length_c                   27.638(9)
_cell_angle_alpha                90
_cell_angle_beta                 124.47(2)
_cell_angle_gamma                90
_cell_volume                     3410.4
_exptl_crystal_colour            yellow
_exptl_crystal_description       block
_chemical_melting_point          '188-190 deg.C'
_cell_formula_units_Z            2
loop_
_atom_site_label
_atom_site_type_symbol
_atom_site_fract_x
_atom_site_fract_y
_atom_site_fract_z
N1 N 0.5139(2) -0.1355(5) 0.36403(17)
N2 N 0.3831(3) -0.0243(5) 0.34621(18)
N3 N 0.2765(2) 0.1335(4) 0.34704(16)
N4 N 0.1764(2) 0.3074(4) 0.34652(18)
N5 N 0.0757(2) 0.4832(4) 0.34520(16)
N6 N -0.0153(3) 0.6750(5) 0.34698(18)
N7 N 0.0387(2) 0.8831(5) 0.41254(17)
N8 N 0.0730(2) 1.1065(5) 0.47039(18)
N9 N 0.2153(3) 1.1830(5) 0.54934(18)
N10 N 0.6385(3) -0.2457(7) 0.37305(19)
C1 C 0.5960(3) -0.1980(6) 0.4007(2)
C2 C 0.6341(3) -0.2191(7) 0.4588(2)
H1 H 0.6925 -0.2596 0.4832
C3 C 0.5836(3) -0.1784(8) 0.4810(3)
H2 H 0.6075 -0.1931 0.5206
C4 C 0.4982(3) -0.1163(7) 0.4441(2)
H3 H 0.4636 -0.0886 0.4581
C5 C 0.4649(3) -0.0959(6) 0.3858(2)
C6 C 0.3698(4) 0.0541(9) 0.2962(3)
H4 H 0.4183 0.1283 0.3085
H5 H 0.3133 0.1109 0.2761
H6 H 0.3688 -0.0239 0.2704
C7 C 0.3154(3) -0.0104(5) 0.3582(2)
C8 C 0.2908(3) -0.1373(5) 0.3775(2)
H7 H 0.3197 -0.2358 0.3852
C9 C 0.2221(3) -0.1152(6) 0.3852(2)
H8 H 0.2030 -0.2002 0.3973
C10 C 0.1821(3) 0.0307(6) 0.3750(2)
H9 H 0.1366 0.0478 0.3811
C11 C 0.2107(3) 0.1525(5) 0.35556(19)
C12 C 0.2372(4) 0.4389(6) 0.3607(4)
H10 H 0.2646 0.4698 0.4008
H11 H 0.2042 0.5278 0.3354
H12 H 0.2834 0.4068 0.3552
C13 C 0.0879(3) 0.3397(5) 0.3278(2)
C14 C 0.0151(3) 0.2402(6) 0.2905(2)
H13 H 0.0235 0.1421 0.2784
C15 C -0.0685(3) 0.2912(7) 0.2726(2)
H14 H -0.1184 0.2278 0.2470
C16 C -0.0814(3) 0.4343(7) 0.2912(2)
H15 H -0.1388 0.4664 0.2799
C17 C -0.0081(3) 0.5274(6) 0.3266(2)
C18 C -0.0937(4) 0.7736(7) 0.3077(2)
H16 H -0.0742 0.8782 0.3050
H17 H -0.1306 0.7827 0.3227
H18 H -0.1284 0.7253 0.2695
C19 C 0.0470(3) 0.7306(5) 0.4042(2)
C20 C 0.1095(3) 0.6307(6) 0.4490(2)
H19 H 0.1143 0.5232 0.4424
C21 C 0.1641(3) 0.6978(6) 0.5039(2)
H20 H 0.2069 0.6346 0.5352
C22 C 0.1565(4) 0.8564(7) 0.5131(2)
H21 H 0.1942 0.9023 0.5501
C23 C 0.0918(3) 0.9450(5) 0.4662(2)
C24 C -0.0134(4) 1.1726(7) 0.4233(2)
H22 H -0.0147 1.2853 0.4297
H23 H -0.0615 1.1203 0.4228
H24 H -0.0209 1.1559 0.3864
C25 C 0.1253(3) 1.1979(6) 0.5207(2)
C26 C 0.0860(3) 1.3023(6) 0.5383(2)
H25 H 0.0234 1.3121 0.5174
C27 C 0.1419(4) 1.3915(7) 0.5875(3)
H26 H 0.1171 1.4623 0.6007
C28 C 0.2345(4) 1.3779(7) 0.6178(2)
H27 H 0.2727 1.4398 0.6509
C29 C 0.7312(3) -0.2705(7) 0.4023(2)
C30 C 0.5811(5) -0.2832(15) 0.3106(3)
H28 H 0.5577 -0.3899 0.3054
H29 H 0.5318 -0.2086 0.2911
H30 H 0.6161 -0.2760 0.2943
N1B N 0.4861(2) 1.1355(5) 0.63597(17)
N2B N 0.6169(3) 1.0243(5) 0.65379(18)
N3B N 0.7235(2) 0.8665(4) 0.65296(16)
N4B N 0.8236(2) 0.6926(4) 0.65348(18)
N5B N 0.9243(2) 0.5168(4) 0.65480(16)
N6B N 1.0153(3) 0.3250(5) 0.65302(18)
N7B N 0.9613(2) 0.1169(5) 0.58746(17)
N8B N 0.9270(2) -0.1065(5) 0.52961(18)
N9B N 0.7847(3) -0.1830(5) 0.45066(18)
N10B N 0.3615(3) 1.2457(7) 0.62695(19)
C1B C 0.4040(3) 1.1980(6) 0.5993(2)
C2B C 0.3659(3) 1.2191(7) 0.5412(2)
H1B H 0.3075 1.2596 0.5168
C3B C 0.4164(3) 1.1784(8) 0.5190(3)
H2B H 0.3925 1.1931 0.4794
C4B C 0.5018(3) 1.1163(7) 0.5559(2)
H3B H 0.5364 1.0886 0.5419
C5B C 0.5351(3) 1.0959(6) 0.6142(2)
C6B C 0.6302(4) 0.9459(9) 0.7038(3)
H4B H 0.5817 0.8717 0.6915
H5B H 0.6867 0.8891 0.7239
H6B H 0.6312 1.0239 0.7296
C7B C 0.6846(3) 1.0104(5) 0.6418(2)
C8B C 0.7092(3) 1.1373(5) 0.6225(2)
H7B H 0.6803 1.2358 0.6148
C9B C 0.7779(3) 1.1152(6) 0.6148(2)
H8B H 0.7970 1.2002 0.6027
C10B C 0.8179(3) 0.9693(6) 0.6250(2)
H9B H 0.8634 0.9522 0.6189
C11B C 0.7893(3) 0.8475(5) 0.64444(19)
C12B C 0.7628(4) 0.5611(6) 0.6393(4)
H10B H 0.7354 0.5302 0.5992
H11B H 0.7958 0.4722 0.6646
H12B H 0.7166 0.5932 0.6448
C13B C 0.9121(3) 0.6603(5) 0.6722(2)
C14B C 0.9849(3) 0.7598(6) 0.7095(2)
H13B H 0.9765 0.8579 0.7216
C15B C 1.0685(3) 0.7088(7) 0.7274(2)
H14B H 1.1184 0.7722 0.7530
C16B C 1.0814(3) 0.5657(7) 0.7088(2)
H15B H 1.1388 0.5336 0.7201
C17B C 1.0081(3) 0.4726(6) 0.6734(2)
C18B C 1.0937(4) 0.2264(7) 0.6923(2)
H16B H 1.0742 0.1218 0.6950
H17B H 1.1306 0.2173 0.6773
H18B H 1.1284 0.2747 0.7305
C19B C 0.9530(3) 0.2694(5) 0.5958(2)
C20B C 0.8905(3) 0.3693(6) 0.5510(2)
H19B H 0.8857 0.4768 0.5576
C21B C 0.8359(3) 0.3022(6) 0.4961(2)
H20B H 0.7931 0.3654 0.4648
C22B C 0.8435(4) 0.1436(7) 0.4869(2)
H21B H 0.8058 0.0977 0.4499
C23B C 0.9082(3) 0.0550(5) 0.5338(2)
C24B C 1.0134(4) -0.1726(7) 0.5767(2)
H22B H 1.0147 -0.2853 0.5703
H23B H 1.0615 -0.1203 0.5772
H24B H 1.0209 -0.1559 0.6136
C25B C 0.8747(3) -0.1979(6) 0.4793(2)
C26B C 0.9140(3) -0.3023(6) 0.4617(2)
H25B H 0.9766 -0.3121 0.4826
C27B C 0.8581(4) -0.3915(7) 0.4125(3)
H26B H 0.8829 -0.4623 0.3993
C28B C 0.7655(4) -0.3779(7) 0.3822(2)
H27B H 0.7273 -0.4398 0.3491
C29B C 0.2688(3) 1.2705(7) 0.5977(2)
C30B C 0.4189(5) 1.2832(15) 0.6894(3)
H28B H 0.4423 1.3899 0.6946
H29B H 0.4682 1.2086 0.7089
H30B H 0.3839 1.2760 0.7057
O2 O 0.7621(9) 0.2433(16) 0.8084(6)
C34 C 0.6875(14) 0.472(2) 0.7500(9)
H37 H 0.7030 0.4281 0.7246
H38 H 0.7257 0.5621 0.7708
H39 H 0.6254 0.5055 0.7270
C35 C 0.7011(8) 0.3447(17) 0.7938(5)
C36 C 0.6448(8) 0.3387(18) 0.8189(5)
H40 H 0.6627 0.2480 0.8446
H41 H 0.5819 0.3293 0.7875
H42 H 0.6541 0.4351 0.8406
O1? O 0.5710(11) 0.151(2) 0.8736(7)
C31? C 0.6136(13) 0.231(3) 0.9684(8)
H31? H 0.6572 0.2933 0.9670
H32? H 0.6444 0.1525 0.9991
H33? H 0.5784 0.2993 0.9760
C32? C 0.5525(9) 0.1475(14) 0.9109(7)
C33? C 0.4700(11) 0.061(2) 0.8987(9)
H34? H 0.4312 0.0362 0.8576
H35? H 0.4381 0.1285 0.9094
H36? H 0.4879 -0.0358 0.9212
loop_
_geom_bond_atom_site_label_1
_geom_bond_atom_site_label_2
_geom_bond_site_symmetry_1
_geom_bond_site_symmetry_2
N1 C1 1_555 1_555
N2 C5 1_555 1_555
N3 C7 1_555 1_555
N4 C11 1_555 1_555
N5 C13 1_555 1_555
N6 C17 1_555 1_555
N7 C19 1_555 1_555
N8 C23 1_555 1_555
N9 C25 1_555 1_555
N10 C1 1_555 1_555
C1 C2 1_555 1_555
C2 H1 1_555 1_555
C3 C2 1_555 1_555
H2 C3 1_555 1_555
C4 C3 1_555 1_555
H3 C4 1_555 1_555
C5 N1 1_555 1_555
C6 N2 1_555 1_555
H4 C6 1_555 1_555
H5 C6 1_555 1_555
H6 C6 1_555 1_555
C7 N2 1_555 1_555
C8 C7 1_555 1_555
H7 C8 1_555 1_555
C9 C8 1_555 1_555
H8 C9 1_555 1_555
C10 C9 1_555 1_555
H9 C10 1_555 1_555
C11 N3 1_555 1_555
C12 N4 1_555 1_555
H10 C12 1_555 1_555
H11 C12 1_555 1_555
H12 C12 1_555 1_555
C13 N4 1_555 1_555
C14 C13 1_555 1_555
H13 C14 1_555 1_555
C15 C14 1_555 1_555
H14 C15 1_555 1_555
C16 C15 1_555 1_555
H15 C16 1_555 1_555
C17 N5 1_555 1_555
C18 N6 1_555 1_555
H16 C18 1_555 1_555
H17 C18 1_555 1_555
H18 C18 1_555 1_555
C19 N6 1_555 1_555
C20 C19 1_555 1_555
H19 C20 1_555 1_555
C21 C20 1_555 1_555
H20 C21 1_555 1_555
C22 C21 1_555 1_555
H21 C22 1_555 1_555
C23 N7 1_555 1_555
C24 N8 1_555 1_555
H22 C24 1_555 1_555
H23 C24 1_555 1_555
H24 C24 1_555 1_555
C25 N8 1_555 1_555
C26 C25 1_555 1_555
H25 C26 1_555 1_555
C27 C26 1_555 1_555
H26 C27 1_555 1_555
C28 C27 1_555 1_555
H27 C28 1_555 1_555
C29 N10 1_555 1_555
C30 N10 1_555 1_555
H28 C30 1_555 1_555
H29 C30 1_555 1_555
H30 C30 1_555 1_555
O2 C35 1_555 1_555
C34 H37 1_555 1_555
H38 C34 1_555 1_555
H39 C34 1_555 1_555
C35 C34 1_555 1_555
C36 C35 1_555 1_555
H40 C36 1_555 1_555
H41 C36 1_555 1_555
H42 C36 1_555 1_555
N1B C1B 1_555 1_555
N2B C5B 1_555 1_555
N3B C7B 1_555 1_555
N4B C11B 1_555 1_555
N5B C13B 1_555 1_555
N6B C17B 1_555 1_555
N7B C19B 1_555 1_555
N8B C23B 1_555 1_555
N9B C29 1_555 1_555
N10B C1B 1_555 1_555
C1B C2B 1_555 1_555
C2B H1B 1_555 1_555
C3B C2B 1_555 1_555
H2B C3B 1_555 1_555
C4B C3B 1_555 1_555
H3B C4B 1_555 1_555
C5B N1B 1_555 1_555
C6B N2B 1_555 1_555
H4B C6B 1_555 1_555
H5B C6B 1_555 1_555
H6B C6B 1_555 1_555
C7B N2B 1_555 1_555
C8B C7B 1_555 1_555
H7B C8B 1_555 1_555
C9B C8B 1_555 1_555
H8B C9B 1_555 1_555
C10B C9B 1_555 1_555
H9B C10B 1_555 1_555
C11B N3B 1_555 1_555
C12B N4B 1_555 1_555
H10B C12B 1_555 1_555
H11B C12B 1_555 1_555
H12B C12B 1_555 1_555
C13B N4B 1_555 1_555
C14B C13B 1_555 1_555
H13B C14B 1_555 1_555
C15B C14B 1_555 1_555
H14B C15B 1_555 1_555
C16B C15B 1_555 1_555
H15B C16B 1_555 1_555
C17B N5B 1_555 1_555
C18B N6B 1_555 1_555
H16B C18B 1_555 1_555
H17B C18B 1_555 1_555
H18B C18B 1_555 1_555
C19B N6B 1_555 1_555
C20B C19B 1_555 1_555
H19B C20B 1_555 1_555
C21B C20B 1_555 1_555
H20B C21B 1_555 1_555
C22B C21B 1_555 1_555
H21B C22B 1_555 1_555
C23B N7B 1_555 1_555
C24B N8B 1_555 1_555
H22B C24B 1_555 1_555
H23B C24B 1_555 1_555
H24B C24B 1_555 1_555
C25B N8B 1_555 1_555
C26B C25B 1_555 1_555
H25B C26B 1_555 1_555
C27B C26B 1_555 1_555
H26B C27B 1_555 1_555
C28B C29 1_555 1_555
H27B C28B 1_555 1_555
C29B N9 1_555 1_555
C30B N10B 1_555 1_555
H28B C30B 1_555 1_555
H29B C30B 1_555 1_555
H30B C30B 1_555 1_555
C4 C5 1_555 1_555
C10 C11 1_555 1_555
C16 C17 1_555 1_555
C22 C23 1_555 1_555
C28 C29B 1_555 1_555
N9B C25B 1_555 1_555
N10B C29B 1_555 1_555
C4B C5B 1_555 1_555
C10B C11B 1_555 1_555
C16B C17B 1_555 1_555
C22B C23B 1_555 1_555
C27B C28B 1_555 1_555

#END
