
#######################################################################
#
#                 Cambridge Crystallographic Data Centre
#                                CCDC 
#
#######################################################################
#
# If this CIF has been generated from an entry in the Cambridge 
# Structural Database, then it will include bibliographic, chemical, 
# crystal, experimental, refinement or atomic coordinate data resulting 
# from the CCDC's data processing and validation procedures.
#
#######################################################################

data_NIPWIV
_chemical_formula_moiety         'C20 H16 N8 P1 1+,Cl6 P1 1-,C1 H2 Cl2'
_chemical_name_systematic        
"(R)-2,2'-di(pyridin-2-yl)-2H,2'H-3,3'-spirobi[[1,2,4,3]triazaphospholo[4,5-a]pyridin]-3-ium hexachlorophosphate dichloromethane solvate"
_symmetry_cell_setting           monoclinic
_symmetry_space_group_name_H-M   'P 2/n'
_symmetry_Int_Tables_number      13
_space_group_name_Hall           '-P 2yac'
loop_
_symmetry_equiv_pos_site_id
_symmetry_equiv_pos_as_xyz
1 x,y,z
2 1/2-x,y,1/2-z
3 -x,-y,-z
4 1/2+x,-y,1/2+z
_cell_length_a                   9.8515(4)
_cell_length_b                   11.6103(5)
_cell_length_c                   12.8984(6)
_cell_angle_alpha                90
_cell_angle_beta                 104.4523(7)
_cell_angle_gamma                90
_cell_volume                     1428.62
_exptl_crystal_colour            yellow
_exptl_crystal_description       parallelepiped
_cell_formula_units_Z            2
loop_
_atom_site_label
_atom_site_type_symbol
_atom_site_fract_x
_atom_site_fract_y
_atom_site_fract_z
P1 P 0.7500 0.37272(5) 0.7500
N1 N 0.50627(15) 0.41886(13) 0.62656(11)
N2 N 0.59759(15) 0.43783(13) 0.72762(11)
N3 N 0.69317(15) 0.29520(13) 0.64071(11)
N4 N 0.67183(16) 0.52500(13) 0.88934(12)
C1 C 0.56377(18) 0.33881(15) 0.58097(14)
C2 C 0.50887(19) 0.29152(16) 0.47619(14)
H1 H 0.4238 0.3202 0.4317
C3 C 0.57896(19) 0.20592(17) 0.44118(15)
H2 H 0.5415 0.1741 0.3721
C4 C 0.7094(2) 0.16169(16) 0.50623(15)
H3 H 0.7555 0.1001 0.4805
C5 C 0.76575(19) 0.20726(15) 0.60276(14)
H4 H 0.8534 0.1805 0.6448
C6 C 0.56553(18) 0.51509(15) 0.80277(14)
C7 C 0.43643(19) 0.56884(16) 0.78671(15)
H5 H 0.3650 0.5590 0.7225
C8 C 0.4174(2) 0.63797(16) 0.86975(16)
H6 H 0.3313 0.6777 0.8633
C9 C 0.5245(2) 0.64886(16) 0.96221(15)
H7 H 0.5122 0.6946 1.0203
C10 C 0.6503(2) 0.59170(15) 0.96843(15)
H8 H 0.7240 0.6003 1.0314
N1A N 0.99373(15) 0.41886(13) 0.87344(11)
N2A N 0.90241(15) 0.43783(13) 0.77238(11)
N3A N 0.80683(15) 0.29520(13) 0.85929(11)
N4A N 0.82817(16) 0.52500(13) 0.61066(12)
C1A C 0.93623(18) 0.33881(15) 0.91903(14)
C2A C 0.99113(19) 0.29152(16) 1.02381(14)
H1A H 1.0762 0.3202 1.0683
C3A C 0.92104(19) 0.20592(17) 1.05882(15)
H2A H 0.9585 0.1741 1.1279
C4A C 0.7906(2) 0.16169(16) 0.99377(15)
H3A H 0.7445 0.1001 1.0195
C5A C 0.73425(19) 0.20726(15) 0.89724(14)
H4A H 0.6466 0.1805 0.8552
C6A C 0.93447(18) 0.51509(15) 0.69723(14)
C7A C 1.06357(19) 0.56884(16) 0.71329(15)
H5A H 1.1350 0.5590 0.7775
C8A C 1.0826(2) 0.63797(16) 0.63025(16)
H6A H 1.1687 0.6777 0.6367
C9A C 0.9755(2) 0.64886(16) 0.53779(15)
H7A H 0.9878 0.6946 0.4797
C10A C 0.8497(2) 0.59170(15) 0.53157(15)
H8A H 0.7760 0.6003 0.4686
P2 P 0.7500 -0.09044(5) 0.2500
Cl1 Cl 0.7500 -0.27496(6) 0.2500
Cl2 Cl 0.91528(5) -0.09192(4) 0.16754(4)
Cl3 Cl 0.90102(5) -0.08749(4) 0.39999(4)
Cl4 Cl 0.7500 0.09412(5) 0.2500
Cl2A Cl 0.58472(5) -0.09192(4) 0.33246(4)
Cl3A Cl 0.59898(5) -0.08749(4) 0.10001(4)
C11 C 0.7500 0.9364(3) 0.7500
Cl5 Cl 0.67333(6) 0.85190(6) 0.83324(5)
H9 H 0.818(3) 0.983(3) 0.792(2)
Cl5A Cl 0.82667(6) 0.85190(6) 0.66676(5)
H9A H 0.682(3) 0.983(3) 0.708(2)
loop_
_geom_bond_atom_site_label_1
_geom_bond_atom_site_label_2
_geom_bond_site_symmetry_1
_geom_bond_site_symmetry_2
P1 N2 1_555 1_555
N1 N2 1_555 1_555
N2 C6 1_555 1_555
N3 P1 1_555 1_555
N4 C6 1_555 1_555
C1 N1 1_555 1_555
C2 C1 1_555 1_555
H1 C2 1_555 1_555
C3 C2 1_555 1_555
H2 C3 1_555 1_555
C4 C3 1_555 1_555
H3 C4 1_555 1_555
C5 N3 1_555 1_555
H4 C5 1_555 1_555
C6 C7 1_555 1_555
C7 H5 1_555 1_555
C8 C7 1_555 1_555
H6 C8 1_555 1_555
C9 C8 1_555 1_555
H7 C9 1_555 1_555
C10 N4 1_555 1_555
H8 C10 1_555 1_555
P2 Cl1 1_555 1_555
Cl2 P2 1_555 1_555
Cl3 P2 1_555 1_555
Cl4 P2 1_555 1_555
C11 Cl5 1_555 1_555
H9 C11 1_555 1_555
N1A N2A 1_555 1_555
N2A P1 1_555 1_555
N3A P1 1_555 1_555
N4A C6A 1_555 1_555
C1A N1A 1_555 1_555
C2A C1A 1_555 1_555
H1A C2A 1_555 1_555
C3A C2A 1_555 1_555
H2A C3A 1_555 1_555
C4A C3A 1_555 1_555
H3A C4A 1_555 1_555
C5A N3A 1_555 1_555
H4A C5A 1_555 1_555
C6A N2A 1_555 1_555
C7A C6A 1_555 1_555
H5A C7A 1_555 1_555
C8A C7A 1_555 1_555
H6A C8A 1_555 1_555
C9A C8A 1_555 1_555
H7A C9A 1_555 1_555
C10A N4A 1_555 1_555
H8A C10A 1_555 1_555
Cl2A P2 1_555 1_555
Cl3A P2 1_555 1_555
Cl5A C11 1_555 1_555
H9A C11 1_555 1_555
N3 C1 1_555 1_555
C4 C5 1_555 1_555
C9 C10 1_555 1_555
N3A C1A 1_555 1_555
C4A C5A 1_555 1_555
C9A C10A 1_555 1_555

#END
