
#######################################################################
#
#                 Cambridge Crystallographic Data Centre
#                                CCDC 
#
#######################################################################
#
# If this CIF has been generated from an entry in the Cambridge 
# Structural Database, then it will include bibliographic, chemical, 
# crystal, experimental, refinement or atomic coordinate data resulting 
# from the CCDC's data processing and validation procedures.
#
#######################################################################

data_NIQBAR01
_chemical_formula_moiety         'C13 H14 N2 O2'
_chemical_name_systematic        
5,5'-Propane-2,2-diylbis(1H-pyrrole-2-carbaldehyde)
_symmetry_cell_setting           orthorhombic
_symmetry_space_group_name_H-M   'P c a 21'
_symmetry_Int_Tables_number      29
_space_group_name_Hall           'P 2c -2ac'
loop_
_symmetry_equiv_pos_site_id
_symmetry_equiv_pos_as_xyz
1 x,y,z
2 -x,-y,1/2+z
3 1/2+x,-y,z
4 1/2-x,y,1/2+z
_cell_length_a                   16.7103(15)
_cell_length_b                   11.6052(10)
_cell_length_c                   12.5938(11)
_cell_angle_alpha                90
_cell_angle_beta                 90
_cell_angle_gamma                90
_cell_volume                     2442.27
_exptl_crystal_colour            colorless
_exptl_crystal_description       block
_cell_formula_units_Z            8
loop_
_atom_site_label
_atom_site_type_symbol
_atom_site_fract_x
_atom_site_fract_y
_atom_site_fract_z
N1 N 0.11683(10) 0.36435(15) 0.72538(16)
C1 C 0.17057(12) 0.31281(18) 0.79008(17)
O1 O -0.00804(10) 0.51417(15) 0.64501(15)
N2 N 0.08369(11) 0.09809(14) 0.73541(17)
C2 C 0.04700(13) 0.02258(18) 0.6674(2)
C3 C 0.08975(13) 0.46471(18) 0.77085(18)
O2 O -0.07859(11) 0.01953(16) 0.75136(19)
C4 C 0.02895(15) 0.5344(2) 0.7255(2)
C5 C 0.21330(12) 0.20255(18) 0.75952(18)
C6 C 0.15830(12) 0.12308(17) 0.70001(17)
C7 C 0.17806(15) 0.3812(2) 0.87942(19)
H1 H 0.2109 0.3666 0.9375
C8 C 0.16930(15) 0.0619(2) 0.60750(19)
H2 H 0.2153 0.0621 0.5659
C9 C 0.24322(17) 0.1416(2) 0.8606(2)
H3 H 0.1986 0.1246 0.9059
H4 H 0.2800 0.1909 0.8974
H5 H 0.2697 0.0712 0.8414
C10 C 0.10011(16) -0.0002(2) 0.5868(2)
H6 H 0.0913 -0.0484 0.5290
C11 C 0.12835(16) 0.4748(2) 0.8671(2)
H7 H 0.1219 0.5347 0.9155
C12 C -0.03391(16) -0.0134(2) 0.6806(3)
C13 C 0.28562(14) 0.2328(2) 0.6888(3)
H8 H 0.3127 0.1634 0.6682
H9 H 0.3218 0.2814 0.7276
H10 H 0.2674 0.2726 0.6265
H11 H 0.0640(11) 0.1205(17) 0.7939(17)
H12 H 0.1050(12) 0.3425(18) 0.664(2)
H13 H 0.0206(15) 0.604(2) 0.766(2)
H14 H -0.0571(15) -0.066(2) 0.623(2)
N3 N 0.90523(11) 0.26188(17) 0.81582(16)
O3 O 1.09608(11) 0.30639(16) 0.49699(15)
O4 O 1.03431(11) 0.16466(14) 0.94374(13)
C14 C 0.85314(13) 0.33765(19) 0.77239(18)
C15 C 0.93814(14) 0.30764(19) 0.90711(18)
N4 N 0.93294(12) 0.29212(18) 0.57033(15)
C16 C 1.04641(17) 0.2437(2) 0.4551(2)
C17 C 1.00034(15) 0.2551(2) 0.9659(2)
C18 C 0.80576(13) 0.3121(2) 0.6732(2)
C19 C 0.85744(14) 0.25672(19) 0.5895(2)
C20 C 0.96571(15) 0.2312(2) 0.48758(19)
C21 C 0.90477(15) 0.4146(2) 0.9209(2)
H15 H 0.9153 0.4651 0.9765
C22 C 0.90779(18) 0.1557(3) 0.4537(2)
H16 H 0.9126 0.1035 0.3980
C23 C 0.85252(15) 0.4339(2) 0.8371(2)
H17 H 0.8223 0.5002 0.8263
C24 C 0.77291(16) 0.4263(2) 0.6279(2)
H18 H 0.8167 0.4770 0.6117
H19 H 0.7386 0.4620 0.6794
H20 H 0.7430 0.4109 0.5643
C25 C 0.84066(18) 0.1710(3) 0.5173(2)
H21 H 0.7928 0.1305 0.5120
C26 C 0.73583(18) 0.2313(3) 0.7018(3)
H22 H 0.7023 0.2206 0.6406
H23 H 0.7050 0.2647 0.7582
H24 H 0.7566 0.1581 0.7243
H25 H 0.9157(14) 0.197(2) 0.790(2)
H26 H 1.0127(13) 0.297(2) 1.030(2)
H27 H 1.0615(16) 0.189(2) 0.400(3)
H28 H 0.9570(14) 0.350(2) 0.6008(19)
loop_
_geom_bond_atom_site_label_1
_geom_bond_atom_site_label_2
_geom_bond_site_symmetry_1
_geom_bond_site_symmetry_2
N1 C1 1_555 1_555
C1 C5 1_555 1_555
O1 C4 1_555 1_555
N2 C2 1_555 1_555
C2 C10 1_555 1_555
C3 N1 1_555 1_555
O2 C12 1_555 1_555
C4 C3 1_555 1_555
C5 C6 1_555 1_555
C6 N2 1_555 1_555
C7 C1 1_555 1_555
H1 C7 1_555 1_555
C8 C6 1_555 1_555
H2 C8 1_555 1_555
C9 C5 1_555 1_555
H3 C9 1_555 1_555
H4 C9 1_555 1_555
H5 C9 1_555 1_555
C10 C8 1_555 1_555
H6 C10 1_555 1_555
C11 C3 1_555 1_555
H7 C11 1_555 1_555
C12 C2 1_555 1_555
C13 C5 1_555 1_555
H8 C13 1_555 1_555
H9 C13 1_555 1_555
H10 C13 1_555 1_555
H11 N2 1_555 1_555
H12 N1 1_555 1_555
H13 C4 1_555 1_555
H14 C12 1_555 1_555
N3 C14 1_555 1_555
O3 C16 1_555 1_555
O4 C17 1_555 1_555
C14 C18 1_555 1_555
C15 N3 1_555 1_555
N4 C19 1_555 1_555
C16 C20 1_555 1_555
C17 C15 1_555 1_555
C18 C19 1_555 1_555
C19 C25 1_555 1_555
C20 N4 1_555 1_555
C21 C15 1_555 1_555
H15 C21 1_555 1_555
C22 C20 1_555 1_555
H16 C22 1_555 1_555
C23 C14 1_555 1_555
H17 C23 1_555 1_555
C24 C18 1_555 1_555
H18 C24 1_555 1_555
H19 C24 1_555 1_555
H20 C24 1_555 1_555
C25 C22 1_555 1_555
H21 C25 1_555 1_555
C26 C18 1_555 1_555
H22 C26 1_555 1_555
H23 C26 1_555 1_555
H24 C26 1_555 1_555
H25 N3 1_555 1_555
H26 C17 1_555 1_555
H27 C16 1_555 1_555
H28 N4 1_555 1_555
C7 C11 1_555 1_555
C21 C23 1_555 1_555

#END
