
#######################################################################
#
#                 Cambridge Crystallographic Data Centre
#                                CCDC 
#
#######################################################################
#
# If this CIF has been generated from an entry in the Cambridge 
# Structural Database, then it will include bibliographic, chemical, 
# crystal, experimental, refinement or atomic coordinate data resulting 
# from the CCDC's data processing and validation procedures.
#
#######################################################################

data_NIQDUP
_chemical_formula_moiety         'C25 H23 Br1 N2'
_chemical_name_systematic        
2''-bromo-4-methyl-5'-(piperidin-1-yl)-[1,1':3',1''-terphenyl]-4'-carbonitrile
_symmetry_cell_setting           monoclinic
_symmetry_space_group_name_H-M   'P 21/n'
_symmetry_Int_Tables_number      14
_space_group_name_Hall           '-P 2yn'
loop_
_symmetry_equiv_pos_site_id
_symmetry_equiv_pos_as_xyz
1 x,y,z
2 1/2-x,1/2+y,1/2-z
3 -x,-y,-z
4 1/2+x,1/2-y,1/2+z
_cell_length_a                   8.4375(6)
_cell_length_b                   19.2059(12)
_cell_length_c                   13.8112(10)
_cell_angle_alpha                90
_cell_angle_beta                 105.900(7)
_cell_angle_gamma                90
_cell_volume                     2152.48
_exptl_crystal_colour            'light white'
_exptl_crystal_description       needle
_cell_formula_units_Z            4
_exptl_crystal_recrystallization_method hexane/dichloromethane
loop_
_atom_site_label
_atom_site_type_symbol
_atom_site_fract_x
_atom_site_fract_y
_atom_site_fract_z
Br1 Br 0.81742(6) 0.03240(3) 0.76240(4)
N1 N 1.3389(4) -0.08372(15) 0.6286(2)
C1 C 1.2793(4) -0.01865(18) 0.6439(3)
C2 C 1.1359(4) 0.14869(19) 0.4996(3)
C3 C 1.1546(4) 0.21911(19) 0.5205(3)
H1 H 1.1863(4) 0.23408(19) 0.5870(3)
C4 C 1.2392(5) 0.03178(17) 0.5683(3)
H2 H 1.2582(5) 0.02222(17) 0.5065(3)
C5 C 1.1717(4) 0.09584(18) 0.5823(3)
C6 C 1.1801(4) 0.0621(2) 0.7516(2)
C7 C 1.1422(4) 0.11022(19) 0.6748(3)
H3 H 1.0965(4) 0.15279(19) 0.6847(3)
N2 N 1.2828(5) -0.0951(2) 0.8757(3)
C8 C 1.0825(4) 0.1281(2) 0.3993(3)
H4 H 1.0667(4) 0.0811(2) 0.3832(3)
C9 C 1.2476(5) -0.00264(19) 0.7371(3)
C10 C 1.1467(5) 0.07788(18) 0.8505(3)
C11 C 0.9932(5) 0.06887(19) 0.8662(3)
C12 C 1.0774(4) 0.2476(2) 0.3440(3)
C13 C 1.2699(5) -0.0543(2) 0.8145(3)
C14 C 1.1266(4) 0.2676(2) 0.4434(3)
H5 H 1.1414(4) 0.3147(2) 0.4592(3)
C15 C 1.3155(5) -0.1882(2) 0.5279(3)
H6 H 1.2218(5) -0.2050(2) 0.5491(3)
H7 H 1.3048(5) -0.2055(2) 0.4605(3)
C16 C 1.0529(4) 0.1777(2) 0.3231(3)
H8 H 1.0157(4) 0.1633(2) 0.2565(3)
C17 C 1.4959(5) -0.1070(2) 0.6953(3)
H9 H 1.5855(5) -0.0907(2) 0.6697(3)
H10 H 1.5103(5) -0.0873(2) 0.7618(3)
C18 C 1.3131(5) -0.1099(2) 0.5260(3)
H11 H 1.2080(5) -0.0935(2) 0.4839(3)
H12 H 1.3993(5) -0.0927(2) 0.4981(3)
C19 C 1.4721(5) -0.2166(2) 0.5982(4)
H13 H 1.4641(5) -0.2668(2) 0.6025(4)
H14 H 1.5646(5) -0.2059(2) 0.5718(4)
C20 C 1.5015(6) -0.1852(2) 0.7024(4)
H15 H 1.6082(6) -0.1999(2) 0.7445(4)
H16 H 1.4177(6) -0.2015(2) 0.7331(4)
C21 C 0.9661(6) 0.0846(2) 0.9588(3)
H17 H 0.8624(6) 0.0781(2) 0.9687(3)
C22 C 1.2745(6) 0.1025(2) 0.9302(3)
H18 H 1.3796(6) 0.1078(2) 0.9220(3)
C23 C 1.0545(6) 0.3008(3) 0.2598(4)
H19 H 0.981(3) 0.3368(10) 0.2691(15)
H20 H 1.1592(9) 0.3208(13) 0.2610(17)
H21 H 1.009(4) 0.2783(4) 0.1962(4)
C24 C 1.0924(9) 0.1096(3) 1.0349(3)
H22 H 1.0742(9) 0.1203(3) 1.0967(3)
C25 C 1.2455(8) 0.1190(3) 1.0215(3)
H23 H 1.3304(8) 0.1365(3) 1.0738(3)
loop_
_geom_bond_atom_site_label_1
_geom_bond_atom_site_label_2
_geom_bond_site_symmetry_1
_geom_bond_site_symmetry_2
Br1 C11 1_555 1_555
N1 C1 1_555 1_555
C1 C4 1_555 1_555
C2 C3 1_555 1_555
C3 H1 1_555 1_555
C4 H2 1_555 1_555
C5 C2 1_555 1_555
C6 C7 1_555 1_555
C7 C5 1_555 1_555
H3 C7 1_555 1_555
N2 C13 1_555 1_555
C8 C2 1_555 1_555
H4 C8 1_555 1_555
C9 C1 1_555 1_555
C10 C6 1_555 1_555
C11 C10 1_555 1_555
C12 C14 1_555 1_555
C13 C9 1_555 1_555
C14 C3 1_555 1_555
H5 C14 1_555 1_555
C15 H6 1_555 1_555
H7 C15 1_555 1_555
C16 C8 1_555 1_555
H8 C16 1_555 1_555
C17 N1 1_555 1_555
H9 C17 1_555 1_555
H10 C17 1_555 1_555
C18 N1 1_555 1_555
H11 C18 1_555 1_555
H12 C18 1_555 1_555
C19 C15 1_555 1_555
H13 C19 1_555 1_555
H14 C19 1_555 1_555
C20 C17 1_555 1_555
H15 C20 1_555 1_555
H16 C20 1_555 1_555
C21 C11 1_555 1_555
H17 C21 1_555 1_555
C22 C10 1_555 1_555
H18 C22 1_555 1_555
C23 C12 1_555 1_555
H19 C23 1_555 1_555
H20 C23 1_555 1_555
H21 C23 1_555 1_555
C24 C21 1_555 1_555
H22 C24 1_555 1_555
C25 C22 1_555 1_555
H23 C25 1_555 1_555
C4 C5 1_555 1_555
C6 C9 1_555 1_555
C12 C16 1_555 1_555
C15 C18 1_555 1_555
C19 C20 1_555 1_555
C24 C25 1_555 1_555

#END
