
#######################################################################
#
#                 Cambridge Crystallographic Data Centre
#                                CCDC 
#
#######################################################################
#
# If this CIF has been generated from an entry in the Cambridge 
# Structural Database, then it will include bibliographic, chemical, 
# crystal, experimental, refinement or atomic coordinate data resulting 
# from the CCDC's data processing and validation procedures.
#
#######################################################################

data_NIQQIQ
_chemical_formula_moiety         'C32 H42 B1 N1'
_chemical_name_systematic        
6-isopropyl-12-[2,4,6-triisopropylphenyl]-7,12-dihydro-5H-[2,1]benzazaborolo[1,2-a][2,1]benzazaborol-6-ium-12-ide
_symmetry_cell_setting           triclinic
_symmetry_space_group_name_H-M   'P -1'
_symmetry_Int_Tables_number      2
_space_group_name_Hall           '-P 1'
loop_
_symmetry_equiv_pos_site_id
_symmetry_equiv_pos_as_xyz
1 x,y,z
2 -x,-y,-z
_cell_length_a                   9.620(7)
_cell_length_b                   10.245(7)
_cell_length_c                   14.633(10)
_cell_angle_alpha                95.34(2)
_cell_angle_beta                 107.09(2)
_cell_angle_gamma                101.27(2)
_cell_volume                     1334.38
_exptl_crystal_colour            yellow
_exptl_crystal_description       Block
_cell_formula_units_Z            2
loop_
_atom_site_label
_atom_site_type_symbol
_atom_site_fract_x
_atom_site_fract_y
_atom_site_fract_z
N1 N 0.6735(2) 0.83735(19) 0.29308(14)
C1 C 0.6774(2) 0.7081(2) 0.42909(16)
C2 C 0.6531(3) 0.6604(3) 0.51081(17)
H1 H 0.5561 0.6111 0.5062
C3 C 0.7670(3) 0.6832(3) 0.59814(19)
H2 H 0.7479 0.6499 0.6528
C4 C 0.9090(3) 0.7546(3) 0.60592(19)
H3 H 0.9880 0.7681 0.6654
C5 C 0.9356(3) 0.8064(3) 0.52714(19)
H4 H 1.0324 0.8570 0.5325
C6 C 0.8209(3) 0.7840(2) 0.44077(17)
C7 C 0.8298(3) 0.8344(3) 0.34842(18)
H5 H 0.8965 0.9257 0.3629
H6 H 0.8685 0.7730 0.3110
C8 C 0.4395(2) 0.7791(2) 0.34501(16)
C9 C 0.3102(3) 0.7295(3) 0.36779(17)
H7 H 0.2776 0.6354 0.3665
C10 C 0.2295(3) 0.8167(3) 0.39225(19)
H8 H 0.1413 0.7819 0.4074
C11 C 0.2747(3) 0.9533(3) 0.39505(19)
H9 H 0.2167 1.0118 0.4105
C12 C 0.4050(3) 1.0054(3) 0.37538(18)
H10 H 0.4382 1.0998 0.3782
C13 C 0.4856(3) 0.9173(2) 0.35161(17)
C14 C 0.6358(3) 0.9600(2) 0.33826(19)
H11 H 0.7129 0.9989 0.4016
H12 H 0.6337 1.0296 0.2956
C15 C 0.6549(3) 0.8456(3) 0.18673(18)
H13 H 0.5483 0.8473 0.1540
C16 C 0.7534(4) 0.9730(3) 0.1724(2)
H14 H 0.8585 0.9766 0.2068
H15 H 0.7258 1.0524 0.1981
H16 H 0.7391 0.9717 0.1032
C17 C 0.6865(3) 0.7241(3) 0.1350(2)
H17 H 0.6329 0.6411 0.1494
H18 H 0.7942 0.7289 0.1574
H19 H 0.6528 0.7242 0.0650
C18 C 0.4887(2) 0.5592(2) 0.24927(16)
C19 C 0.5534(3) 0.4470(2) 0.26147(17)
C20 C 0.4723(3) 0.3180(3) 0.21379(18)
H20 H 0.5176 0.2442 0.2263
C21 C 0.3294(3) 0.2928(3) 0.14941(17)
C22 C 0.2722(3) 0.4037(3) 0.12960(18)
H21 H 0.1768 0.3902 0.0820
C23 C 0.3466(3) 0.5348(2) 0.17556(17)
C24 C 0.7166(3) 0.4587(3) 0.31822(18)
H22 H 0.7613 0.5558 0.3471
C25 C 0.7390(3) 0.3778(3) 0.40170(19)
H23 H 0.6833 0.4032 0.4441
H24 H 0.8457 0.3968 0.4388
H25 H 0.7025 0.2813 0.3758
C26 C 0.8023(3) 0.4205(3) 0.2502(2)
H26 H 0.9093 0.4395 0.2864
H27 H 0.7864 0.4733 0.1971
H28 H 0.7658 0.3242 0.2236
C27 C 0.2373(3) 0.1531(3) 0.09891(19)
H29 H 0.1912 0.1595 0.0292
C28 C 0.1095(4) 0.1094(3) 0.1394(2)
H30 H 0.0486 0.1763 0.1331
H31 H 0.1506 0.1020 0.2079
H32 H 0.0473 0.0217 0.1033
C29 C 0.3266(4) 0.0473(3) 0.1020(2)
H33 H 0.3632 0.0300 0.1686
H34 H 0.4118 0.0792 0.0795
H35 H 0.2630 -0.0361 0.0599
C30 C 0.2752(3) 0.6453(3) 0.13402(18)
H36 H 0.3363 0.7336 0.1742
C31 C 0.2781(3) 0.6488(3) 0.02936(19)
H37 H 0.3815 0.6620 0.0288
H38 H 0.2365 0.7233 0.0045
H39 H 0.2182 0.5634 -0.0117
C32 C 0.1135(3) 0.6314(3) 0.1346(2)
H40 H 0.1109 0.6301 0.2010
H41 H 0.0503 0.5473 0.0933
H42 H 0.0763 0.7080 0.1100
B1 B 0.5582(3) 0.7025(3) 0.32401(19)
loop_
_geom_bond_atom_site_label_1
_geom_bond_atom_site_label_2
_geom_bond_site_symmetry_1
_geom_bond_site_symmetry_2
N1 C7 1_555 1_555
C1 C2 1_555 1_555
C2 H1 1_555 1_555
C3 C2 1_555 1_555
H2 C3 1_555 1_555
C4 C3 1_555 1_555
H3 C4 1_555 1_555
C5 C4 1_555 1_555
H4 C5 1_555 1_555
C6 C1 1_555 1_555
C7 C6 1_555 1_555
H5 C7 1_555 1_555
H6 C7 1_555 1_555
C8 C9 1_555 1_555
C9 H7 1_555 1_555
C10 C9 1_555 1_555
H8 C10 1_555 1_555
C11 C10 1_555 1_555
H9 C11 1_555 1_555
C12 C11 1_555 1_555
H10 C12 1_555 1_555
C13 C8 1_555 1_555
C14 N1 1_555 1_555
H11 C14 1_555 1_555
H12 C14 1_555 1_555
C15 N1 1_555 1_555
H13 C15 1_555 1_555
C16 C15 1_555 1_555
H14 C16 1_555 1_555
H15 C16 1_555 1_555
H16 C16 1_555 1_555
C17 C15 1_555 1_555
H17 C17 1_555 1_555
H18 C17 1_555 1_555
H19 C17 1_555 1_555
C18 C19 1_555 1_555
C19 C20 1_555 1_555
C20 H20 1_555 1_555
C21 C20 1_555 1_555
C22 C21 1_555 1_555
H21 C22 1_555 1_555
C23 C18 1_555 1_555
C24 C19 1_555 1_555
H22 C24 1_555 1_555
C25 C24 1_555 1_555
H23 C25 1_555 1_555
H24 C25 1_555 1_555
H25 C25 1_555 1_555
C26 C24 1_555 1_555
H26 C26 1_555 1_555
H27 C26 1_555 1_555
H28 C26 1_555 1_555
C27 C21 1_555 1_555
H29 C27 1_555 1_555
C28 C27 1_555 1_555
H30 C28 1_555 1_555
H31 C28 1_555 1_555
H32 C28 1_555 1_555
C29 C27 1_555 1_555
H33 C29 1_555 1_555
H34 C29 1_555 1_555
H35 C29 1_555 1_555
C30 C23 1_555 1_555
H36 C30 1_555 1_555
C31 C30 1_555 1_555
H37 C31 1_555 1_555
H38 C31 1_555 1_555
H39 C31 1_555 1_555
C32 C30 1_555 1_555
H40 C32 1_555 1_555
H41 C32 1_555 1_555
H42 C32 1_555 1_555
B1 N1 1_555 1_555
C1 B1 1_555 1_555
C5 C6 1_555 1_555
C8 B1 1_555 1_555
C12 C13 1_555 1_555
C13 C14 1_555 1_555
C18 B1 1_555 1_555
C22 C23 1_555 1_555

#END
