
#######################################################################
#
#                 Cambridge Crystallographic Data Centre
#                                CCDC 
#
#######################################################################
#
# If this CIF has been generated from an entry in the Cambridge 
# Structural Database, then it will include bibliographic, chemical, 
# crystal, experimental, refinement or atomic coordinate data resulting 
# from the CCDC's data processing and validation procedures.
#
#######################################################################

data_NIQQEM01
_chemical_formula_moiety         'C35 H40 B1 N1'
_chemical_name_systematic        
6-phenyl-12-[2,4,6-triisopropylphenyl]-7,12-dihydro-5H-[2,1]benzazaborolo[1,2-a][2,1]benzazaborol-6-ium-12-ide
_symmetry_cell_setting           orthorhombic
_symmetry_space_group_name_H-M   'P b c a'
_symmetry_Int_Tables_number      61
_space_group_name_Hall           '-P 2ac 2ab'
loop_
_symmetry_equiv_pos_site_id
_symmetry_equiv_pos_as_xyz
1 x,y,z
2 1/2-x,-y,1/2+z
3 -x,1/2+y,1/2-z
4 1/2+x,1/2-y,-z
5 -x,-y,-z
6 1/2+x,y,1/2-z
7 x,1/2-y,1/2+z
8 1/2-x,1/2+y,z
_cell_length_a                   15.7665(9)
_cell_length_b                   18.6290(10)
_cell_length_c                   19.4352(11)
_cell_angle_alpha                90
_cell_angle_beta                 90
_cell_angle_gamma                90
_cell_volume                     5708.39
_exptl_crystal_colour            colorless
_exptl_crystal_description       Block
_cell_formula_units_Z            8
loop_
_atom_site_label
_atom_site_type_symbol
_atom_site_fract_x
_atom_site_fract_y
_atom_site_fract_z
N1 N 0.50462(10) 0.34143(9) 0.28360(9)
C1 C 0.49069(13) 0.31228(12) 0.41125(12)
C2 C 0.47364(15) 0.30096(13) 0.48077(13)
H1 H 0.4420 0.3346 0.5051
C3 C 0.50324(18) 0.24024(16) 0.51401(15)
H2 H 0.4910 0.2332 0.5603
C4 C 0.55059(19) 0.19042(16) 0.47906(18)
H3 H 0.5688 0.1491 0.5015
C5 C 0.57134(16) 0.20125(13) 0.41082(17)
H4 H 0.6047 0.1681 0.3874
C6 C 0.54169(13) 0.26210(12) 0.37783(13)
C7 C 0.56725(14) 0.28508(13) 0.30744(13)
H5 H 0.5666 0.2444 0.2763
H6 H 0.6242 0.3049 0.3082
C8 C 0.54991(12) 0.43306(11) 0.37002(11)
C9 C 0.58121(14) 0.46712(12) 0.42821(12)
H7 H 0.5524 0.4625 0.4697
C10 C 0.65467(16) 0.50791(14) 0.42552(15)
H8 H 0.6743 0.5311 0.4648
C11 C 0.69847(16) 0.51397(16) 0.36431(16)
H9 H 0.7473 0.5419 0.3625
C12 C 0.67109(15) 0.47959(14) 0.30630(15)
H10 H 0.7016 0.4830 0.2655
C13 C 0.59664(13) 0.43925(12) 0.30942(12)
C14 C 0.55571(15) 0.40058(13) 0.25066(12)
H11 H 0.5982 0.3809 0.2199
H12 H 0.5193 0.4327 0.2248
C15 C 0.43819(14) 0.31226(13) 0.23808(12)
C16 C 0.38841(17) 0.35780(16) 0.19921(14)
H13 H 0.3959 0.4072 0.2026
C17 C 0.32750(19) 0.3305(2) 0.15525(15)
H14 H 0.2954 0.3618 0.1286
C18 C 0.3139(2) 0.2585(2) 0.15046(16)
H15 H 0.2740 0.2403 0.1198
C19 C 0.3601(2) 0.21324(19) 0.19162(18)
H16 H 0.3499 0.1641 0.1900
C20 C 0.42199(17) 0.23973(15) 0.23563(15)
H17 H 0.4525 0.2084 0.2635
C21 C 0.37313(12) 0.41366(11) 0.36476(10)
C22 C 0.30199(13) 0.37159(11) 0.38488(10)
C23 C 0.22489(13) 0.40383(12) 0.40100(12)
H18 H 0.1802 0.3747 0.4149
C24 C 0.21153(14) 0.47659(13) 0.39733(12)
C25 C 0.27791(14) 0.51703(12) 0.37304(12)
H19 H 0.2701 0.5662 0.3680
C26 C 0.35627(13) 0.48796(11) 0.35558(11)
C27 C 0.29939(14) 0.28955(11) 0.38540(12)
H20 H 0.3561 0.2719 0.3734
C28 C 0.27511(16) 0.25762(14) 0.45512(14)
H21 H 0.2798 0.2063 0.4532
H22 H 0.2178 0.2707 0.4660
H23 H 0.3125 0.2759 0.4899
C29 C 0.23713(16) 0.26267(14) 0.33066(15)
H24 H 0.2479 0.2869 0.2880
H25 H 0.1801 0.2723 0.3453
H26 H 0.2444 0.2119 0.3244
C30 C 0.12666(16) 0.50913(15) 0.41840(15)
H27 H 0.0853 0.4700 0.4160
C31 C 0.1286(2) 0.5325(2) 0.49216(17)
H28 H 0.1717 0.5684 0.4982
H29 H 0.1410 0.4920 0.5210
H30 H 0.0745 0.5522 0.5046
C32 C 0.0951(2) 0.56610(18) 0.37014(17)
H31 H 0.0966 0.5483 0.3238
H32 H 0.1307 0.6078 0.3737
H33 H 0.0380 0.5787 0.3821
C33 C 0.41790(14) 0.54141(11) 0.32330(12)
H34 H 0.4704 0.5154 0.3129
C34 C 0.44058(17) 0.60312(14) 0.37181(14)
H35 H 0.4816 0.6337 0.3501
H36 H 0.4639 0.5841 0.4136
H37 H 0.3905 0.6303 0.3822
C35 C 0.38346(16) 0.57089(14) 0.25557(13)
H38 H 0.4258 0.6003 0.2341
H39 H 0.3337 0.5991 0.2644
H40 H 0.3692 0.5317 0.2256
B1 B 0.46953(15) 0.38006(13) 0.36404(12)
loop_
_geom_bond_atom_site_label_1
_geom_bond_atom_site_label_2
_geom_bond_site_symmetry_1
_geom_bond_site_symmetry_2
N1 C7 1_555 1_555
C1 C2 1_555 1_555
C2 H1 1_555 1_555
C3 C2 1_555 1_555
H2 C3 1_555 1_555
C4 C3 1_555 1_555
H3 C4 1_555 1_555
C5 C4 1_555 1_555
H4 C5 1_555 1_555
C6 C1 1_555 1_555
C7 C6 1_555 1_555
H5 C7 1_555 1_555
H6 C7 1_555 1_555
C8 C9 1_555 1_555
C9 H7 1_555 1_555
C10 C9 1_555 1_555
H8 C10 1_555 1_555
C11 C10 1_555 1_555
H9 C11 1_555 1_555
C12 C11 1_555 1_555
H10 C12 1_555 1_555
C13 C8 1_555 1_555
C14 N1 1_555 1_555
H11 C14 1_555 1_555
H12 C14 1_555 1_555
C15 N1 1_555 1_555
C16 C15 1_555 1_555
H13 C16 1_555 1_555
C17 C16 1_555 1_555
H14 C17 1_555 1_555
C18 C17 1_555 1_555
H15 C18 1_555 1_555
C19 C18 1_555 1_555
H16 C19 1_555 1_555
C20 C15 1_555 1_555
H17 C20 1_555 1_555
C21 C22 1_555 1_555
C22 C23 1_555 1_555
C23 H18 1_555 1_555
C24 C23 1_555 1_555
C25 C24 1_555 1_555
H19 C25 1_555 1_555
C26 C21 1_555 1_555
C27 C22 1_555 1_555
H20 C27 1_555 1_555
C28 C27 1_555 1_555
H21 C28 1_555 1_555
H22 C28 1_555 1_555
H23 C28 1_555 1_555
C29 C27 1_555 1_555
H24 C29 1_555 1_555
H25 C29 1_555 1_555
H26 C29 1_555 1_555
C30 C24 1_555 1_555
H27 C30 1_555 1_555
C31 C30 1_555 1_555
H28 C31 1_555 1_555
H29 C31 1_555 1_555
H30 C31 1_555 1_555
C32 C30 1_555 1_555
H31 C32 1_555 1_555
H32 C32 1_555 1_555
H33 C32 1_555 1_555
C33 C26 1_555 1_555
H34 C33 1_555 1_555
C34 C33 1_555 1_555
H35 C34 1_555 1_555
H36 C34 1_555 1_555
H37 C34 1_555 1_555
C35 C33 1_555 1_555
H38 C35 1_555 1_555
H39 C35 1_555 1_555
H40 C35 1_555 1_555
B1 N1 1_555 1_555
C1 B1 1_555 1_555
C5 C6 1_555 1_555
C8 B1 1_555 1_555
C12 C13 1_555 1_555
C13 C14 1_555 1_555
C19 C20 1_555 1_555
C21 B1 1_555 1_555
C25 C26 1_555 1_555

#END
