
#######################################################################
#
#                 Cambridge Crystallographic Data Centre
#                                CCDC 
#
#######################################################################
#
# If this CIF has been generated from an entry in the Cambridge 
# Structural Database, then it will include bibliographic, chemical, 
# crystal, experimental, refinement or atomic coordinate data resulting 
# from the CCDC's data processing and validation procedures.
#
#######################################################################

data_NIQWAO
_chemical_formula_moiety         'C16 H27 B1 O3'
_chemical_name_systematic        
2-methyl-5-(prop-1-en-2-yl)-3-(4,4,5,5-tetramethyl-1,3,2-dioxaborolan-2-yl)cyclohexan-1-one
_symmetry_cell_setting           monoclinic
_symmetry_space_group_name_H-M   'P 21'
_symmetry_Int_Tables_number      4
_space_group_name_Hall           'P 2yb'
loop_
_symmetry_equiv_pos_site_id
_symmetry_equiv_pos_as_xyz
1 x,y,z
2 -x,1/2+y,-z
_cell_length_a                   6.2578(5)
_cell_length_b                   13.1115(6)
_cell_length_c                   10.1534(4)
_cell_angle_alpha                90
_cell_angle_beta                 96.245(5)
_cell_angle_gamma                90
_cell_volume                     828.134
_exptl_crystal_description       block
_cell_formula_units_Z            2
loop_
_atom_site_label
_atom_site_type_symbol
_atom_site_fract_x
_atom_site_fract_y
_atom_site_fract_z
C1 C 0.1711(7) 0.2344(3) 0.9833(3)
H1 H 0.2252 0.2636 0.9045
O1 O 0.0002(5) 0.2917(2) 0.6649(2)
O2 O -0.1754(5) 0.4306(2) 0.7295(3)
C2 C -0.0365(7) 0.0990(3) 0.8440(3)
C3 C -0.0455(6) 0.2856(3) 0.9970(3)
H2 H -0.0230 0.3580 1.0127
H3 H -0.1061 0.2572 1.0730
C4 C -0.2455(6) 0.1562(3) 0.8451(3)
H4 H -0.3128 0.1299 0.9210
C5 C -0.2059(6) 0.2706(3) 0.8720(3)
H5 H -0.3430 0.3009 0.8899
C6 C 0.1355(7) 0.1202(3) 0.9560(4)
H6 H 0.2694 0.0901 0.9353
H7 H 0.0964 0.0876 1.0357
O3 O -0.0091(6) 0.0351(3) 0.7607(3)
C7 C 0.3382(7) 0.2572(3) 1.1001(3)
B1 B -0.1249(7) 0.3311(3) 0.7519(4)
C8 C -0.4053(8) 0.1365(4) 0.7235(4)
H8 H -0.5341 0.1750 0.7304
H9 H -0.4394 0.0652 0.7181
H10 H -0.3430 0.1570 0.6453
C9 C 0.0125(7) 0.3674(3) 0.5591(3)
C10 C -0.1509(9) 0.3358(4) 0.4451(4)
H11 H -0.1189 0.2681 0.4172
H12 H -0.1449 0.3823 0.3726
H13 H -0.2923 0.3371 0.4735
C11 C -0.0470(8) 0.4676(3) 0.6287(4)
C12 C 0.4009(9) 0.3665(4) 1.1185(5)
H14 H 0.5312 0.3712 1.1775
H15 H 0.2884 0.4030 1.1554
H16 H 0.4234 0.3957 1.0344
C13 C 0.2349(9) 0.3634(4) 0.5155(5)
H17 H 0.2530 0.3004 0.4699
H18 H 0.3397 0.3677 0.5917
H19 H 0.2536 0.4195 0.4572
C14 C 0.4240(11) 0.1859(5) 1.1815(5)
C15 C 0.1473(12) 0.5205(5) 0.7014(6)
H20 H 0.1001 0.5740 0.7560
H21 H 0.2339 0.5491 0.6382
H22 H 0.2307 0.4720 0.7559
C16 C -0.1824(12) 0.5414(4) 0.5398(5)
H23 H -0.3082 0.5069 0.4994
H24 H -0.0999 0.5662 0.4721
H25 H -0.2248 0.5976 0.5916
H26 H 0.370(10) 0.113(5) 1.180(6)
H27 H 0.535(13) 0.196(6) 1.251(7)
loop_
_geom_bond_atom_site_label_1
_geom_bond_atom_site_label_2
_geom_bond_site_symmetry_1
_geom_bond_site_symmetry_2
C1 H1 1_555 1_555
O1 B1 1_555 1_555
O2 B1 1_555 1_555
C2 C4 1_555 1_555
C3 C1 1_555 1_555
H2 C3 1_555 1_555
H3 C3 1_555 1_555
C4 H4 1_555 1_555
C5 C3 1_555 1_555
H5 C5 1_555 1_555
C6 C1 1_555 1_555
H6 C6 1_555 1_555
H7 C6 1_555 1_555
O3 C2 1_555 1_555
C7 C1 1_555 1_555
B1 C5 1_555 1_555
C8 C4 1_555 1_555
H8 C8 1_555 1_555
H9 C8 1_555 1_555
H10 C8 1_555 1_555
C9 O1 1_555 1_555
C10 C9 1_555 1_555
H11 C10 1_555 1_555
H12 C10 1_555 1_555
H13 C10 1_555 1_555
C11 O2 1_555 1_555
C12 C7 1_555 1_555
H14 C12 1_555 1_555
H15 C12 1_555 1_555
H16 C12 1_555 1_555
C13 C9 1_555 1_555
H17 C13 1_555 1_555
H18 C13 1_555 1_555
H19 C13 1_555 1_555
C14 C7 1_555 1_555
C15 C11 1_555 1_555
H20 C15 1_555 1_555
H21 C15 1_555 1_555
H22 C15 1_555 1_555
C16 C11 1_555 1_555
H23 C16 1_555 1_555
H24 C16 1_555 1_555
H25 C16 1_555 1_555
H26 C14 1_555 1_555
H27 C14 1_555 1_555
C2 C6 1_555 1_555
C4 C5 1_555 1_555
C9 C11 1_555 1_555

#END
