
#######################################################################
#
#                 Cambridge Crystallographic Data Centre
#                                CCDC 
#
#######################################################################
#
# If this CIF has been generated from an entry in the Cambridge 
# Structural Database, then it will include bibliographic, chemical, 
# crystal, experimental, refinement or atomic coordinate data resulting 
# from the CCDC's data processing and validation procedures.
#
#######################################################################

data_NIRFIG
_chemical_formula_moiety         'C11 H10 Cl1 N1 O1'
_chemical_name_systematic        5-[chloro(phenyl)methylidene]pyrrolidin-2-one
_symmetry_cell_setting           monoclinic
_symmetry_space_group_name_H-M   'P 21/c'
_symmetry_Int_Tables_number      14
_space_group_name_Hall           '-P 2ybc'
loop_
_symmetry_equiv_pos_site_id
_symmetry_equiv_pos_as_xyz
1 x,y,z
2 -x,1/2+y,1/2-z
3 -x,-y,-z
4 x,1/2-y,1/2+z
_cell_length_a                   7.1224(8)
_cell_length_b                   7.4835(8)
_cell_length_c                   37.037(4)
_cell_angle_alpha                90
_cell_angle_beta                 94.938(3)
_cell_angle_gamma                90
_cell_volume                     1966.76
_exptl_crystal_colour            colorless
_exptl_crystal_description       plate
_cell_formula_units_Z            8
loop_
_atom_site_label
_atom_site_type_symbol
_atom_site_fract_x
_atom_site_fract_y
_atom_site_fract_z
Cl1 Cl 0.92667(14) -0.21333(13) 0.59843(3)
O1 O 0.9619(5) 0.2274(4) 0.49189(8)
N1 N 0.9788(5) 0.0880(4) 0.54724(9)
H1 H 0.985(8) -0.052(8) 0.5350(15)
C1 C 0.9645(6) 0.2333(5) 0.52500(11)
C2 C 0.9464(7) 0.3988(5) 0.54785(11)
H2 H 0.817020 0.447830 0.544517
H3 H 1.036581 0.492063 0.541545
C3 C 0.9927(6) 0.3329(5) 0.58707(10)
H4 H 1.121163 0.369826 0.596492
H5 H 0.900880 0.379943 0.603285
C4 C 0.9786(5) 0.1319(5) 0.58388(10)
C5 C 0.9624(5) 0.0122(5) 0.61077(9)
C6 C 0.9693(5) 0.0514(5) 0.64975(10)
C7 C 1.0961(6) 0.1783(6) 0.66540(11)
H6 H 1.181711 0.234978 0.650775
C8 C 1.0993(7) 0.2227(7) 0.70170(12)
H7 H 1.184322 0.311250 0.711604
C9 C 0.9771(7) 0.1369(7) 0.72391(11)
H8 H 0.978965 0.166973 0.748860
C10 C 0.8537(7) 0.0081(7) 0.70915(11)
H9 H 0.771194 -0.051131 0.724072
C11 C 0.8500(6) -0.0353(6) 0.67234(11)
H10 H 0.765604 -0.124583 0.662533
Cl2 Cl 0.49167(14) 0.71387(12) 0.40016(3)
O2 O 0.5084(6) 0.2723(4) 0.50717(8)
N2 N 0.5388(5) 0.4112(4) 0.45281(9)
H11 H 0.531(8) 0.532(8) 0.4628(15)
C12 C 0.5226(6) 0.2660(5) 0.47451(11)
C13 C 0.5221(6) 0.1003(5) 0.45134(11)
H12 H 0.397853 0.040356 0.450189
H13 H 0.620077 0.015088 0.461096
C14 C 0.5649(6) 0.1682(5) 0.41352(10)
H14 H 0.694631 0.136245 0.408264
H15 H 0.474706 0.117849 0.394348
C15 C 0.5421(5) 0.3694(5) 0.41629(10)
C16 C 0.5245(5) 0.4885(5) 0.38890(10)
C17 C 0.5200(5) 0.4485(5) 0.34990(10)
C18 C 0.6444(6) 0.3215(6) 0.33695(11)
H16 H 0.734542 0.264341 0.353487
C19 C 0.6367(7) 0.2788(7) 0.30019(11)
H17 H 0.721208 0.193037 0.291816
C20 C 0.5054(7) 0.3620(6) 0.27586(11)
H18 H 0.497933 0.331684 0.250870
C21 C 0.3849(7) 0.4897(6) 0.28831(12)
H19 H 0.296285 0.547857 0.271614
C22 C 0.3924(6) 0.5335(5) 0.32489(10)
H20 H 0.309790 0.621940 0.332903
loop_
_geom_bond_atom_site_label_1
_geom_bond_atom_site_label_2
_geom_bond_site_symmetry_1
_geom_bond_site_symmetry_2
Cl1 C5 1_555 1_555
O1 C1 1_555 1_555
N1 H1 1_555 1_555
C1 N1 1_555 1_555
C2 C1 1_555 1_555
H2 C2 1_555 1_555
H3 C2 1_555 1_555
C3 C2 1_555 1_555
H4 C3 1_555 1_555
H5 C3 1_555 1_555
C4 N1 1_555 1_555
C5 C4 1_555 1_555
C6 C5 1_555 1_555
C7 C6 1_555 1_555
H6 C7 1_555 1_555
C8 C7 1_555 1_555
H7 C8 1_555 1_555
C9 C8 1_555 1_555
H8 C9 1_555 1_555
C10 C9 1_555 1_555
H9 C10 1_555 1_555
C11 C6 1_555 1_555
H10 C11 1_555 1_555
Cl2 C16 1_555 1_555
O2 C12 1_555 1_555
N2 H11 1_555 1_555
C12 N2 1_555 1_555
C13 C12 1_555 1_555
H12 C13 1_555 1_555
H13 C13 1_555 1_555
C14 C13 1_555 1_555
H14 C14 1_555 1_555
H15 C14 1_555 1_555
C15 N2 1_555 1_555
C16 C15 1_555 1_555
C17 C16 1_555 1_555
C18 C17 1_555 1_555
H16 C18 1_555 1_555
C19 C18 1_555 1_555
H17 C19 1_555 1_555
C20 C19 1_555 1_555
H18 C20 1_555 1_555
C21 C20 1_555 1_555
H19 C21 1_555 1_555
C22 C17 1_555 1_555
H20 C22 1_555 1_555
C3 C4 1_555 1_555
C10 C11 1_555 1_555
C14 C15 1_555 1_555
C21 C22 1_555 1_555

#END
