
#######################################################################
#
#                 Cambridge Crystallographic Data Centre
#                                CCDC 
#
#######################################################################
#
# If this CIF has been generated from an entry in the Cambridge 
# Structural Database, then it will include bibliographic, chemical, 
# crystal, experimental, refinement or atomic coordinate data resulting 
# from the CCDC's data processing and validation procedures.
#
#######################################################################

data_NIRFUS
_chemical_formula_moiety         'C28 H28 Cl1 N1 O2'
_chemical_name_systematic        
3-{chloro[3-methoxyestra-1,3,5(10),16-tetraen-17-yl]methylidene}-2,3-dihydro-1H-isoindol-1-one
_symmetry_cell_setting           monoclinic
_symmetry_space_group_name_H-M   'C 2'
_symmetry_Int_Tables_number      5
_space_group_name_Hall           'C 2y'
loop_
_symmetry_equiv_pos_site_id
_symmetry_equiv_pos_as_xyz
1 x,y,z
2 -x,y,-z
3 1/2+x,1/2+y,z
4 1/2-x,1/2+y,-z
_cell_length_a                   37.321(7)
_cell_length_b                   7.4490(15)
_cell_length_c                   16.822(3)
_cell_angle_alpha                90
_cell_angle_beta                 101.13(3)
_cell_angle_gamma                90
_cell_volume                     4588.63
_exptl_crystal_colour            colorless
_exptl_crystal_description       needle
_cell_formula_units_Z            8
loop_
_atom_site_label
_atom_site_type_symbol
_atom_site_fract_x
_atom_site_fract_y
_atom_site_fract_z
Cl1 Cl 0.30942(2) 0.53524(11) 0.40880(5)
C1 C 0.30443(8) 0.3612(4) 0.33765(18)
C2 C 0.27642(7) 0.3730(4) 0.27409(18)
C3 C 0.26426(8) 0.2485(4) 0.20511(18)
C4 C 0.27606(8) 0.0800(5) 0.1852(2)
H1 H 0.296441 0.023456 0.218315
C5 C 0.25721(9) -0.0035(5) 0.1156(2)
H2 H 0.264860 -0.118869 0.101504
C6 C 0.22741(9) 0.0777(5) 0.0659(2)
H3 H 0.215158 0.017071 0.018694
C7 C 0.21541(9) 0.2466(5) 0.08458(19)
H4 H 0.195132 0.303019 0.051083
C8 C 0.23435(8) 0.3296(4) 0.15444(18)
O1 O 0.20434(6) 0.6185(3) 0.16159(15)
C9 C 0.22734(8) 0.5052(4) 0.18963(18)
N1 N 0.25229(6) 0.5196(4) 0.26078(16)
H5 H 0.253099 0.610678 0.294405
C10 C 0.33289(7) 0.2239(4) 0.35262(17)
C11 C 0.32794(7) 0.0490(4) 0.36407(19)
H6 H 0.305360 -0.002395 0.370409
C12 C 0.36255(7) -0.0576(4) 0.3657(2)
H7 H 0.362666 -0.116750 0.313087
H8 H 0.366138 -0.149075 0.409260
C13 C 0.39141(7) 0.0918(4) 0.38308(17)
H9 H 0.394787 0.115956 0.442540
C14 C 0.37219(7) 0.2595(4) 0.34118(17)
C15 C 0.37018(8) 0.2640(5) 0.24892(18)
H10 H 0.394566 0.286962 0.237605
H11 H 0.353511 0.359733 0.225007
H12 H 0.361193 0.148338 0.225438
C16 C 0.39318(8) 0.4231(4) 0.3808(2)
H13 H 0.391229 0.429199 0.438570
H14 H 0.382363 0.533955 0.353784
C17 C 0.43400(8) 0.4103(4) 0.3738(2)
H15 H 0.435912 0.429838 0.316578
H16 H 0.447623 0.508052 0.406282
C18 C 0.45211(7) 0.2319(4) 0.40202(18)
H17 H 0.453469 0.226593 0.461924
C19 C 0.42957(7) 0.0668(4) 0.36607(17)
H18 H 0.428474 0.061758 0.306243
C20 C 0.44807(7) -0.1011(4) 0.40561(19)
H19 H 0.432998 -0.207288 0.385868
H20 H 0.449842 -0.093356 0.464996
C21 C 0.48641(8) -0.1251(4) 0.38692(18)
H21 H 0.500570 -0.205275 0.428370
H22 H 0.484163 -0.185632 0.333801
C22 C 0.50768(7) 0.0477(4) 0.38474(16)
C23 C 0.49128(7) 0.2173(4) 0.38877(17)
C24 C 0.51276(8) 0.3691(4) 0.38465(19)
H23 H 0.502096 0.484192 0.387466
C25 C 0.54942(8) 0.3591(4) 0.37652(19)
H24 H 0.563252 0.465193 0.373819
C26 C 0.56509(8) 0.1912(4) 0.37249(17)
C27 C 0.54410(7) 0.0362(4) 0.37688(16)
H25 H 0.554936 -0.078612 0.374435
C28 C 0.62220(9) 0.3176(6) 0.3577(3)
H26 H 0.610638 0.389382 0.310889
H27 H 0.646563 0.280089 0.350617
H28 H 0.624335 0.389649 0.407095
O2 O 0.60031(6) 0.1617(4) 0.36411(16)
O3 O 0.24401(6) -0.1400(3) 0.33866(15)
Cl2 Cl 0.13745(2) -0.05552(10) 0.09368(4)
C29 C 0.13997(7) 0.1065(4) 0.17008(17)
C30 C 0.16686(7) 0.0870(4) 0.23561(17)
C31 C 0.17576(7) 0.1962(4) 0.30989(17)
C32 C 0.15834(9) 0.3403(5) 0.33996(19)
H29 H 0.136541 0.390468 0.309560
C33 C 0.17405(9) 0.4081(5) 0.4161(2)
H30 H 0.162355 0.504449 0.437906
C34 C 0.20640(9) 0.3386(5) 0.46108(19)
H31 H 0.216642 0.390053 0.512088
C35 C 0.22378(8) 0.1947(5) 0.43187(18)
H32 H 0.245843 0.146723 0.462087
C36 C 0.20784(8) 0.1235(4) 0.35709(18)
C37 C 0.21836(7) -0.0372(4) 0.31558(17)
N2 N 0.19293(6) -0.0515(4) 0.24477(15)
H33 H 0.192981 -0.137886 0.209122
C38 C 0.11392(7) 0.2554(4) 0.15353(17)
C39 C 0.12361(8) 0.4269(4) 0.14432(19)
H34 H 0.148154 0.465785 0.148715
C40 C 0.09102(7) 0.5503(4) 0.12621(19)
H35 H 0.084272 0.578229 0.067697
H36 H 0.095334 0.663412 0.157476
C41 C 0.06209(7) 0.4334(4) 0.15460(16)
H37 H 0.067079 0.443344 0.215020
C42 C 0.07212(7) 0.2384(4) 0.13593(16)
C43 C 0.05988(8) 0.1880(5) 0.04562(17)
H38 H 0.067692 0.065094 0.036947
H39 H 0.070973 0.271006 0.012170
H40 H 0.033223 0.195826 0.030489
C44 C 0.05416(8) 0.1164(4) 0.18996(18)
H41 H 0.064310 0.142787 0.247590
H42 H 0.059533 -0.010613 0.179508
C45 C 0.01244(8) 0.1462(4) 0.17283(19)
H43 H 0.001788 0.077401 0.212968
H44 H 0.002033 0.097719 0.118484
C46 C 0.00102(7) 0.3457(4) 0.17621(17)
H45 H 0.008402 0.383103 0.234146
C47 C 0.02170(7) 0.4705(4) 0.12761(16)
H46 H 0.014386 0.440554 0.068755
C48 C 0.01084(8) 0.6647(4) 0.14048(19)
H47 H 0.014837 0.691198 0.199204
H48 H 0.026234 0.747383 0.115459
C49 C -0.02918(8) 0.6934(4) 0.1025(2)
H49 H -0.037660 0.806306 0.123896
H50 H -0.031455 0.707508 0.043247
C50 C -0.05361(8) 0.5416(4) 0.11876(17)
C51 C -0.04013(7) 0.3775(4) 0.15328(17)
C52 C -0.06568(8) 0.2468(5) 0.16573(18)
H51 H -0.057164 0.136224 0.190576
C53 C -0.10311(8) 0.2751(5) 0.1426(2)
H52 H -0.119811 0.184898 0.151893
C54 C -0.11599(8) 0.4362(5) 0.10578(18)
C55 C -0.09143(8) 0.5689(4) 0.09494(18)
H53 H -0.100252 0.679897 0.071090
O4 O -0.15328(6) 0.4536(4) 0.08340(15)
C56 C -0.16624(9) 0.6115(5) 0.0389(2)
H54 H -0.160300 0.717068 0.073716
H55 H -0.192771 0.603512 0.020755
H56 H -0.154554 0.622247 -0.008268
loop_
_geom_bond_atom_site_label_1
_geom_bond_atom_site_label_2
_geom_bond_site_symmetry_1
_geom_bond_site_symmetry_2
Cl1 C1 1_555 1_555
C1 C2 1_555 1_555
C2 C3 1_555 1_555
C3 C4 1_555 1_555
C4 H1 1_555 1_555
C5 C4 1_555 1_555
H2 C5 1_555 1_555
C6 C5 1_555 1_555
H3 C6 1_555 1_555
C7 C6 1_555 1_555
H4 C7 1_555 1_555
C8 C3 1_555 1_555
O1 C9 1_555 1_555
C9 C8 1_555 1_555
N1 C2 1_555 1_555
H5 N1 1_555 1_555
C10 C1 1_555 1_555
C11 C10 1_555 1_555
H6 C11 1_555 1_555
C12 C11 1_555 1_555
H7 C12 1_555 1_555
H8 C12 1_555 1_555
C13 C12 1_555 1_555
H9 C13 1_555 1_555
C14 C10 1_555 1_555
C15 C14 1_555 1_555
H10 C15 1_555 1_555
H11 C15 1_555 1_555
H12 C15 1_555 1_555
C16 C14 1_555 1_555
H13 C16 1_555 1_555
H14 C16 1_555 1_555
C17 C16 1_555 1_555
H15 C17 1_555 1_555
H16 C17 1_555 1_555
C18 C17 1_555 1_555
H17 C18 1_555 1_555
C19 C13 1_555 1_555
H18 C19 1_555 1_555
C20 C19 1_555 1_555
H19 C20 1_555 1_555
H20 C20 1_555 1_555
C21 C20 1_555 1_555
H21 C21 1_555 1_555
H22 C21 1_555 1_555
C22 C21 1_555 1_555
C23 C18 1_555 1_555
C24 C23 1_555 1_555
H23 C24 1_555 1_555
C25 C24 1_555 1_555
H24 C25 1_555 1_555
C26 C25 1_555 1_555
C27 C22 1_555 1_555
H25 C27 1_555 1_555
C28 H26 1_555 1_555
H27 C28 1_555 1_555
H28 C28 1_555 1_555
O2 C26 1_555 1_555
O3 C37 1_555 1_555
Cl2 C29 1_555 1_555
C29 C30 1_555 1_555
C30 C31 1_555 1_555
C31 C32 1_555 1_555
C32 H29 1_555 1_555
C33 C32 1_555 1_555
H30 C33 1_555 1_555
C34 C33 1_555 1_555
H31 C34 1_555 1_555
C35 C34 1_555 1_555
H32 C35 1_555 1_555
C36 C31 1_555 1_555
C37 C36 1_555 1_555
N2 C30 1_555 1_555
H33 N2 1_555 1_555
C38 C29 1_555 1_555
C39 C38 1_555 1_555
H34 C39 1_555 1_555
C40 C39 1_555 1_555
H35 C40 1_555 1_555
H36 C40 1_555 1_555
C41 C40 1_555 1_555
H37 C41 1_555 1_555
C42 C38 1_555 1_555
C43 C42 1_555 1_555
H38 C43 1_555 1_555
H39 C43 1_555 1_555
H40 C43 1_555 1_555
C44 C42 1_555 1_555
H41 C44 1_555 1_555
H42 C44 1_555 1_555
C45 C44 1_555 1_555
H43 C45 1_555 1_555
H44 C45 1_555 1_555
C46 C45 1_555 1_555
H45 C46 1_555 1_555
C47 C41 1_555 1_555
H46 C47 1_555 1_555
C48 C47 1_555 1_555
H47 C48 1_555 1_555
H48 C48 1_555 1_555
C49 C48 1_555 1_555
H49 C49 1_555 1_555
H50 C49 1_555 1_555
C50 C49 1_555 1_555
C51 C46 1_555 1_555
C52 C51 1_555 1_555
H51 C52 1_555 1_555
C53 C52 1_555 1_555
H52 C53 1_555 1_555
C54 C53 1_555 1_555
C55 C50 1_555 1_555
H53 C55 1_555 1_555
O4 C54 1_555 1_555
C56 O4 1_555 1_555
H54 C56 1_555 1_555
H55 C56 1_555 1_555
H56 C56 1_555 1_555
C7 C8 1_555 1_555
C9 N1 1_555 1_555
C13 C14 1_555 1_555
C18 C19 1_555 1_555
C22 C23 1_555 1_555
C26 C27 1_555 1_555
C28 O2 1_555 1_555
C35 C36 1_555 1_555
C37 N2 1_555 1_555
C41 C42 1_555 1_555
C46 C47 1_555 1_555
C50 C51 1_555 1_555
C54 C55 1_555 1_555

#END
