
#######################################################################
#
#                 Cambridge Crystallographic Data Centre
#                                CCDC 
#
#######################################################################
#
# If this CIF has been generated from an entry in the Cambridge 
# Structural Database, then it will include bibliographic, chemical, 
# crystal, experimental, refinement or atomic coordinate data resulting 
# from the CCDC's data processing and validation procedures.
#
#######################################################################

data_NIRSUE01
_chemical_formula_moiety         'C4 H11 Cl1 P1 1+,Cl1 1-'
_chemical_name_systematic        '(chloromethyl)(trimethyl)phosphonium chloride'
_symmetry_cell_setting           orthorhombic
_symmetry_space_group_name_H-M   'P b c a'
_symmetry_Int_Tables_number      61
_space_group_name_Hall           '-P 2ac 2ab'
loop_
_symmetry_equiv_pos_site_id
_symmetry_equiv_pos_as_xyz
1 x,y,z
2 1/2-x,-y,1/2+z
3 -x,1/2+y,1/2-z
4 1/2+x,1/2-y,-z
5 -x,-y,-z
6 1/2+x,y,1/2-z
7 x,1/2-y,1/2+z
8 1/2-x,1/2+y,z
_cell_length_a                   12.0362(7)
_cell_length_b                   10.1916(7)
_cell_length_c                   12.9734(7)
_cell_angle_alpha                90
_cell_angle_beta                 90
_cell_angle_gamma                90
_cell_volume                     1591.42
_exptl_crystal_colour            colorless
_exptl_crystal_description       column
_cell_formula_units_Z            8
loop_
_atom_site_label
_atom_site_type_symbol
_atom_site_fract_x
_atom_site_fract_y
_atom_site_fract_z
P1 P 0.09722(4) 0.19978(6) 0.36875(4)
Cl1 Cl 0.19290(5) 0.04056(7) 0.20019(5)
C1 C 0.17550(16) 0.1183(3) 0.46558(16)
H1 H 0.139473 0.130593 0.532628
H2 H 0.250733 0.154953 0.467858
H3 H 0.179473 0.024424 0.449664
C2 C -0.03193(16) 0.1188(3) 0.35078(17)
H4 H -0.019224 0.024317 0.343204
H5 H -0.068116 0.152722 0.288580
H6 H -0.079735 0.134680 0.410643
C3 C 0.0765(2) 0.3685(3) 0.4007(2)
H7 H 0.038875 0.374870 0.467457
H8 H 0.030772 0.410262 0.347512
H9 H 0.148631 0.412914 0.404572
C4 C 0.17269(18) 0.2007(3) 0.24913(17)
H10 H 0.131317 0.253464 0.197819
H11 H 0.245868 0.242854 0.259974
Cl2 Cl -0.07573(4) 0.28505(6) 0.11420(4)
loop_
_geom_bond_atom_site_label_1
_geom_bond_atom_site_label_2
_geom_bond_site_symmetry_1
_geom_bond_site_symmetry_2
P1 C1 1_555 1_555
Cl1 C4 1_555 1_555
C1 H1 1_555 1_555
H2 C1 1_555 1_555
H3 C1 1_555 1_555
C2 P1 1_555 1_555
H4 C2 1_555 1_555
H5 C2 1_555 1_555
H6 C2 1_555 1_555
C3 P1 1_555 1_555
H7 C3 1_555 1_555
H8 C3 1_555 1_555
H9 C3 1_555 1_555
C4 P1 1_555 1_555
H10 C4 1_555 1_555
H11 C4 1_555 1_555

#END
