
#######################################################################
#
#                 Cambridge Crystallographic Data Centre
#                                CCDC 
#
#######################################################################
#
# If this CIF has been generated from an entry in the Cambridge 
# Structural Database, then it will include bibliographic, chemical, 
# crystal, experimental, refinement or atomic coordinate data resulting 
# from the CCDC's data processing and validation procedures.
#
#######################################################################

data_NIRZOG
_chemical_formula_moiety         'C38 H32 B2 F2,C7 H8'
_chemical_name_systematic        
'2,3-difluoro-5,14-bis(2,4,6-trimethylphenyl)-5,14-dihydronaphtho[2,3-b]boranthrene toluene solvate'
_symmetry_cell_setting           monoclinic
_symmetry_space_group_name_H-M   'P 21/c'
_symmetry_Int_Tables_number      14
_space_group_name_Hall           '-P 2ybc'
loop_
_symmetry_equiv_pos_site_id
_symmetry_equiv_pos_as_xyz
1 x,y,z
2 -x,1/2+y,1/2-z
3 -x,-y,-z
4 x,1/2-y,1/2+z
_cell_length_a                   20.3634(14)
_cell_length_b                   7.6539(4)
_cell_length_c                   24.5216(16)
_cell_angle_alpha                90
_cell_angle_beta                 108.846(5)
_cell_angle_gamma                90
_cell_volume                     3617.03
_exptl_crystal_colour            yellow
_exptl_crystal_description       needle
_cell_formula_units_Z            4
loop_
_atom_site_label
_atom_site_type_symbol
_atom_site_fract_x
_atom_site_fract_y
_atom_site_fract_z
B1 B 0.71022(13) 0.3827(3) 0.74332(10)
B2 B 0.67612(13) 0.5633(3) 0.62715(10)
F1 F 0.45277(7) 0.7383(2) 0.64894(6)
F2 F 0.48164(7) 0.5704(2) 0.74989(6)
C1 C 0.63920(11) 0.4778(3) 0.71561(9)
C2 C 0.62422(11) 0.5659(3) 0.66198(9)
C3 C 0.56057(11) 0.6545(3) 0.63995(9)
H1 H 0.549540 0.714459 0.604201
C4 C 0.51456(12) 0.6541(3) 0.67014(10)
C5 C 0.52904(12) 0.5680(3) 0.72183(10)
C6 C 0.59034(11) 0.4802(3) 0.74490(9)
H2 H 0.599768 0.421041 0.780665
C7 C 0.76477(11) 0.3904(3) 0.71122(9)
C8 C 0.74853(11) 0.4775(3) 0.65545(9)
C9 C 0.79931(11) 0.4907(3) 0.62997(9)
H3 H 0.787958 0.543022 0.592942
C10 C 0.86849(10) 0.4291(3) 0.65683(8)
C11 C 0.92163(11) 0.4590(3) 0.63379(9)
H4 H 0.910960 0.510325 0.596670
C12 C 0.99055(11) 0.4148(3) 0.66425(9)
C13 C 1.04648(11) 0.4541(3) 0.64301(10)
H5 H 1.036946 0.507092 0.606228
C14 C 1.11318(12) 0.4166(3) 0.67472(10)
H6 H 1.149799 0.444269 0.660092
C15 C 1.12825(12) 0.3367(3) 0.72934(10)
H7 H 1.175074 0.311692 0.751165
C16 C 1.07695(11) 0.2953(3) 0.75104(9)
H8 H 1.088179 0.240598 0.787690
C17 C 1.00626(11) 0.3328(3) 0.71950(9)
C18 C 0.95243(11) 0.2959(3) 0.74144(9)
H9 H 0.962523 0.236237 0.777181
C19 C 0.88427(11) 0.3447(3) 0.71198(9)
C20 C 0.83005(11) 0.3247(3) 0.73650(9)
H10 H 0.839642 0.263187 0.771864
C21 C 0.72660(10) 0.2944(3) 0.80437(9)
C22 C 0.75807(12) 0.3931(3) 0.85455(9)
C23 C 0.77020(12) 0.3179(3) 0.90859(10)
H11 H 0.791411 0.386149 0.942012
C24 C 0.75234(11) 0.1470(3) 0.91506(10)
C25 C 0.72115(11) 0.0503(3) 0.86563(10)
H12 H 0.708074 -0.067089 0.869361
C26 C 0.70840(10) 0.1199(3) 0.81066(9)
C27 C 0.77925(15) 0.5801(3) 0.84975(11)
H13 H 0.791690 0.636125 0.887671
H14 H 0.740507 0.643344 0.822599
H15 H 0.819291 0.582260 0.835864
C28 C 0.76731(14) 0.0689(4) 0.97475(11)
H16 H 0.817601 0.060709 0.993573
H17 H 0.746765 -0.047958 0.971491
H18 H 0.747232 0.143668 0.997722
C29 C 0.67634(13) 0.0093(3) 0.75810(11)
H19 H 0.640068 0.076272 0.729713
H20 H 0.655936 -0.095640 0.768961
H21 H 0.712107 -0.024775 0.741354
C30 C 0.65530(11) 0.6446(3) 0.56462(9)
C31 C 0.67474(13) 0.8148(3) 0.55471(10)
C32 C 0.65640(15) 0.8797(4) 0.49852(11)
H22 H 0.670709 0.994179 0.492424
C33 C 0.61816(15) 0.7826(4) 0.45166(11)
C34 C 0.59848(13) 0.6154(4) 0.46184(10)
H23 H 0.572135 0.546545 0.430080
C35 C 0.61612(11) 0.5452(3) 0.51723(10)
C36 C 0.71454(17) 0.9292(4) 0.60486(12)
H24 H 0.685668 0.953281 0.629144
H25 H 0.726723 1.039538 0.590225
H26 H 0.756993 0.868995 0.627665
C37 C 0.5980(2) 0.8546(5) 0.39078(12)
H27 H 0.551461 0.906025 0.380391
H28 H 0.598022 0.759860 0.363920
H29 H 0.631362 0.944498 0.388716
C38 C 0.59391(14) 0.3619(4) 0.52535(11)
H30 H 0.632189 0.301037 0.553814
H31 H 0.581435 0.299300 0.488548
H32 H 0.553681 0.366204 0.538959
C39 C 0.00895(15) 0.3091(3) 0.96304(11)
C40 C 0.07962(16) 0.2967(4) 0.98712(12)
H33 H 0.098777 0.239392 1.023152
C41 C 0.12380(19) 0.3666(5) 0.95976(18)
H34 H 0.172652 0.355613 0.976736
C42 C 0.0959(3) 0.4527(5) 0.9073(2)
H35 H 0.125377 0.502911 0.888402
C43 C 0.0250(3) 0.4639(4) 0.88329(15)
H36 H 0.005286 0.521283 0.847337
C44 C -0.0176(2) 0.3929(4) 0.91082(12)
H37 H -0.066490 0.401753 0.893491
C45 C -0.03932(17) 0.2335(4) 0.99247(13)
H38 H -0.062888 0.328582 1.005453
H39 H -0.012536 0.163741 1.025736
H40 H -0.073868 0.159021 0.965310
loop_
_geom_bond_atom_site_label_1
_geom_bond_atom_site_label_2
_geom_bond_site_symmetry_1
_geom_bond_site_symmetry_2
B1 C1 1_555 1_555
B2 C2 1_555 1_555
F1 C4 1_555 1_555
F2 C5 1_555 1_555
C1 C2 1_555 1_555
C2 C3 1_555 1_555
C3 H1 1_555 1_555
C4 C3 1_555 1_555
C5 C4 1_555 1_555
C6 C1 1_555 1_555
H2 C6 1_555 1_555
C7 B1 1_555 1_555
C8 B2 1_555 1_555
C9 C8 1_555 1_555
H3 C9 1_555 1_555
C10 C9 1_555 1_555
C11 C10 1_555 1_555
H4 C11 1_555 1_555
C12 C11 1_555 1_555
C13 C12 1_555 1_555
H5 C13 1_555 1_555
C14 C13 1_555 1_555
H6 C14 1_555 1_555
C15 C14 1_555 1_555
H7 C15 1_555 1_555
C16 C15 1_555 1_555
H8 C16 1_555 1_555
C17 C12 1_555 1_555
C18 C17 1_555 1_555
H9 C18 1_555 1_555
C19 C10 1_555 1_555
C20 C7 1_555 1_555
H10 C20 1_555 1_555
C21 B1 1_555 1_555
C22 C21 1_555 1_555
C23 C22 1_555 1_555
H11 C23 1_555 1_555
C24 C23 1_555 1_555
C25 C24 1_555 1_555
H12 C25 1_555 1_555
C26 C21 1_555 1_555
C27 C22 1_555 1_555
H13 C27 1_555 1_555
H14 C27 1_555 1_555
H15 C27 1_555 1_555
C28 C24 1_555 1_555
H16 C28 1_555 1_555
H17 C28 1_555 1_555
H18 C28 1_555 1_555
C29 C26 1_555 1_555
H19 C29 1_555 1_555
H20 C29 1_555 1_555
H21 C29 1_555 1_555
C30 B2 1_555 1_555
C31 C30 1_555 1_555
C32 C31 1_555 1_555
H22 C32 1_555 1_555
C33 C32 1_555 1_555
C34 C33 1_555 1_555
H23 C34 1_555 1_555
C35 C30 1_555 1_555
C36 C31 1_555 1_555
H24 C36 1_555 1_555
H25 C36 1_555 1_555
H26 C36 1_555 1_555
C37 C33 1_555 1_555
H27 C37 1_555 1_555
H28 C37 1_555 1_555
H29 C37 1_555 1_555
C38 C35 1_555 1_555
H30 C38 1_555 1_555
H31 C38 1_555 1_555
H32 C38 1_555 1_555
C39 C40 1_555 1_555
C40 H33 1_555 1_555
C41 C40 1_555 1_555
H34 C41 1_555 1_555
C42 C41 1_555 1_555
H35 C42 1_555 1_555
C43 C42 1_555 1_555
H36 C43 1_555 1_555
C44 C39 1_555 1_555
H37 C44 1_555 1_555
C45 C39 1_555 1_555
H38 C45 1_555 1_555
H39 C45 1_555 1_555
H40 C45 1_555 1_555
C5 C6 1_555 1_555
C7 C8 1_555 1_555
C16 C17 1_555 1_555
C18 C19 1_555 1_555
C19 C20 1_555 1_555
C25 C26 1_555 1_555
C34 C35 1_555 1_555
C43 C44 1_555 1_555

#END
