
#######################################################################
#
#                 Cambridge Crystallographic Data Centre
#                                CCDC 
#
#######################################################################
#
# If this CIF has been generated from an entry in the Cambridge 
# Structural Database, then it will include bibliographic, chemical, 
# crystal, experimental, refinement or atomic coordinate data resulting 
# from the CCDC's data processing and validation procedures.
#
#######################################################################

data_NIRZEU
_chemical_formula_moiety         'C18 H17 Cl1 N2 O3'
_chemical_name_systematic        
"Methyl 6'-chloro-3-cyano-2,2-dimethyl-4-methylene-2'-oxospiro(cyclopentane-1,3'-indole)-1'(2'H)-carboxylate"
_symmetry_cell_setting           monoclinic
_symmetry_space_group_name_H-M   'P 21'
_symmetry_Int_Tables_number      4
_space_group_name_Hall           'P 2yb'
loop_
_symmetry_equiv_pos_site_id
_symmetry_equiv_pos_as_xyz
1 x,y,z
2 -x,1/2+y,-z
_cell_length_a                   6.7910(7)
_cell_length_b                   13.8156(13)
_cell_length_c                   8.8180(9)
_cell_angle_alpha                90
_cell_angle_beta                 95.531(2)
_cell_angle_gamma                90
_cell_volume                     823.468
_exptl_crystal_colour            colorless
_exptl_crystal_description       Block
_cell_formula_units_Z            2
loop_
_atom_site_label
_atom_site_type_symbol
_atom_site_fract_x
_atom_site_fract_y
_atom_site_fract_z
Cl1 Cl 0.11588(6) 0.21079(3) 0.07512(5)
O1 O 0.90722(15) 0.57012(8) 0.28118(13)
O2 O 0.68814(19) 0.40408(10) -0.09639(14)
O3 O 0.95424(14) 0.48266(8) 0.01175(12)
N1 N 0.68785(16) 0.46376(8) 0.14491(13)
N2 N 0.1947(2) 0.82874(11) 0.4836(2)
C1 C 0.57119(19) 0.54705(10) 0.35527(15)
C2 C 0.47058(19) 0.64853(9) 0.31042(15)
C3 C 0.3327(2) 0.65601(10) 0.44139(16)
H1 H 0.2167 0.6126 0.4153
C4 C 0.4524(2) 0.61419(10) 0.58161(17)
C5 C 0.6217(2) 0.55521(11) 0.52862(16)
H2 H 0.6285 0.4904 0.5769
H3 H 0.7498 0.5887 0.5531
C6 C 0.7490(2) 0.53113(10) 0.26253(16)
C7 C 0.5065(2) 0.41934(10) 0.17681(15)
C8 C 0.43976(19) 0.46266(9) 0.30549(15)
C9 C 0.2760(2) 0.42467(11) 0.36682(16)
H4 H 0.2317 0.4520 0.4563
C10 C 0.1768(2) 0.34606(11) 0.29623(17)
H5 H 0.0640 0.3194 0.3368
C11 C 0.2446(2) 0.30737(10) 0.16668(17)
C12 C 0.4118(2) 0.34106(10) 0.10357(17)
H6 H 0.4580 0.3122 0.0159
C13 C 0.6205(2) 0.73174(10) 0.32140(16)
H7 H 0.5504 0.7935 0.3067
H8 H 0.7115 0.7240 0.2425
H9 H 0.6956 0.7309 0.4220
C14 C 0.3515(2) 0.64879(11) 0.15426(15)
H10 H 0.2882 0.7121 0.1363
H11 H 0.2497 0.5983 0.1512
H12 H 0.4400 0.6362 0.0751
C15 C 0.2570(2) 0.75375(11) 0.46431(18)
C16 C 0.4133(3) 0.62618(13) 0.72365(19)
H13 H 0.4947 0.5965 0.8041
H14 H 0.3035 0.6646 0.7457
C17 C 0.7740(2) 0.44629(10) 0.00921(17)
C18 C 1.0468(2) 0.46700(13) -0.12858(18)
H15 H 1.1831 0.4912 -0.1160
H16 H 0.9721 0.5016 -0.2124
H17 H 1.0476 0.3976 -0.1517
loop_
_geom_bond_atom_site_label_1
_geom_bond_atom_site_label_2
_geom_bond_site_symmetry_1
_geom_bond_site_symmetry_2
Cl1 C11 1_555 1_555
O1 C6 1_555 1_555
O2 C17 1_555 1_555
O3 C17 1_555 1_555
N1 C6 1_555 1_555
N2 C15 1_555 1_555
C1 C2 1_555 1_555
C2 C3 1_555 1_555
C3 H1 1_555 1_555
C4 C3 1_555 1_555
C5 C1 1_555 1_555
H2 C5 1_555 1_555
H3 C5 1_555 1_555
C6 C1 1_555 1_555
C7 N1 1_555 1_555
C8 C1 1_555 1_555
C9 C8 1_555 1_555
H4 C9 1_555 1_555
C10 C9 1_555 1_555
H5 C10 1_555 1_555
C11 C10 1_555 1_555
C12 C7 1_555 1_555
H6 C12 1_555 1_555
C13 C2 1_555 1_555
H7 C13 1_555 1_555
H8 C13 1_555 1_555
H9 C13 1_555 1_555
C14 C2 1_555 1_555
H10 C14 1_555 1_555
H11 C14 1_555 1_555
H12 C14 1_555 1_555
C15 C3 1_555 1_555
C16 C4 1_555 1_555
H13 C16 1_555 1_555
H14 C16 1_555 1_555
C17 N1 1_555 1_555
C18 O3 1_555 1_555
H15 C18 1_555 1_555
H16 C18 1_555 1_555
H17 C18 1_555 1_555
C4 C5 1_555 1_555
C7 C8 1_555 1_555
C11 C12 1_555 1_555

#END
