
#######################################################################
#
#                 Cambridge Crystallographic Data Centre
#                                CCDC 
#
#######################################################################
#
# If this CIF has been generated from an entry in the Cambridge 
# Structural Database, then it will include bibliographic, chemical, 
# crystal, experimental, refinement or atomic coordinate data resulting 
# from the CCDC's data processing and validation procedures.
#
#######################################################################

data_NISVUH
_chemical_formula_moiety         'C16 H16 N2 O1,C1 H4 O1'
_chemical_name_systematic        
'2-(1-Isopropyl-1H-benzimidazol-2-yl)phenol methanol solvate'
_symmetry_cell_setting           orthorhombic
_symmetry_space_group_name_H-M   'P 21 21 21'
_symmetry_Int_Tables_number      19
_space_group_name_Hall           'P 2ac 2ab'
loop_
_symmetry_equiv_pos_site_id
_symmetry_equiv_pos_as_xyz
1 x,y,z
2 1/2-x,-y,1/2+z
3 -x,1/2+y,1/2-z
4 1/2+x,1/2-y,-z
_cell_length_a                   10.430(2)
_cell_length_b                   12.033(2)
_cell_length_c                   12.468(3)
_cell_angle_alpha                90
_cell_angle_beta                 90
_cell_angle_gamma                90
_cell_volume                     1564.79
_exptl_crystal_colour            colorless
_exptl_crystal_description       block
_cell_formula_units_Z            4
loop_
_atom_site_label
_atom_site_type_symbol
_atom_site_fract_x
_atom_site_fract_y
_atom_site_fract_z
O1 O 0.00042(18) 0.32991(14) 0.24461(14)
H1 H -0.0049 0.2954 0.3011
N1 N 0.00184(18) 0.34538(16) -0.00690(16)
N2 N 0.03983(18) 0.52770(16) 0.01128(15)
C1 C -0.1035(2) 0.3962(2) 0.23334(19)
C2 C -0.1917(3) 0.4120(2) 0.3142(2)
H2 H -0.1816 0.3755 0.3794
C3 C -0.2937(3) 0.4809(3) 0.2989(2)
H3 H -0.3530 0.4907 0.3538
C4 C -0.3104(3) 0.5369(3) 0.2018(2)
H4 H -0.3802 0.5837 0.1913
C5 C -0.2214(3) 0.5213(2) 0.1226(2)
H5 H -0.2310 0.5593 0.0581
C6 C -0.1176(2) 0.4509(2) 0.13553(18)
C7 C -0.0241(2) 0.4406(2) 0.04759(19)
C8 C 0.1119(2) 0.4865(2) -0.07437(19)
C9 C 0.1946(3) 0.5426(2) -0.1427(2)
H6 H 0.2099 0.6184 -0.1350
C10 C 0.2528(3) 0.4819(3) -0.2221(2)
H7 H 0.3086 0.5174 -0.2691
C11 C 0.2307(2) 0.3690(2) -0.2339(2)
H8 H 0.2725 0.3308 -0.2885
C12 C 0.1485(2) 0.3114(2) -0.1673(2)
H9 H 0.1335 0.2357 -0.1756
C13 C 0.0891(2) 0.3733(2) -0.0865(2)
C14 C -0.0593(3) 0.2364(2) 0.0104(2)
H10 H -0.1222 0.2458 0.0682
C15 C -0.1333(3) 0.2010(2) -0.0894(2)
H11 H -0.1920 0.2588 -0.1094
H12 H -0.1801 0.1341 -0.0745
H13 H -0.0742 0.1879 -0.1471
C16 C 0.0354(3) 0.1491(2) 0.0474(3)
H14 H 0.0795 0.1753 0.1101
H15 H 0.0964 0.1351 -0.0087
H16 H -0.0095 0.0817 0.0642
O2 O -0.0049(3) 0.24349(16) 0.43940(17)
H17 H -0.0110 0.1761 0.4478
C17 C 0.0599(4) 0.2899(3) 0.5268(3)
H18 H 0.0228 0.2629 0.5923
H19 H 0.0527 0.3693 0.5242
H20 H 0.1487 0.2691 0.5239
loop_
_geom_bond_atom_site_label_1
_geom_bond_atom_site_label_2
_geom_bond_site_symmetry_1
_geom_bond_site_symmetry_2
O1 H1 1_555 1_555
N1 C7 1_555 1_555
N2 C7 1_555 1_555
C1 O1 1_555 1_555
C2 C1 1_555 1_555
H2 C2 1_555 1_555
C3 C2 1_555 1_555
H3 C3 1_555 1_555
C4 C3 1_555 1_555
H4 C4 1_555 1_555
C5 C4 1_555 1_555
H5 C5 1_555 1_555
C6 C1 1_555 1_555
C7 C6 1_555 1_555
C8 N2 1_555 1_555
C9 C8 1_555 1_555
H6 C9 1_555 1_555
C10 C9 1_555 1_555
H7 C10 1_555 1_555
C11 C10 1_555 1_555
H8 C11 1_555 1_555
C12 C11 1_555 1_555
H9 C12 1_555 1_555
C13 N1 1_555 1_555
C14 N1 1_555 1_555
H10 C14 1_555 1_555
C15 C14 1_555 1_555
H11 C15 1_555 1_555
H12 C15 1_555 1_555
H13 C15 1_555 1_555
C16 C14 1_555 1_555
H14 C16 1_555 1_555
H15 C16 1_555 1_555
H16 C16 1_555 1_555
O2 H17 1_555 1_555
C17 O2 1_555 1_555
H18 C17 1_555 1_555
H19 C17 1_555 1_555
H20 C17 1_555 1_555
C5 C6 1_555 1_555
C8 C13 1_555 1_555
C12 C13 1_555 1_555

#END
