
#######################################################################
#
#                 Cambridge Crystallographic Data Centre
#                                CCDC 
#
#######################################################################
#
# If this CIF has been generated from an entry in the Cambridge 
# Structural Database, then it will include bibliographic, chemical, 
# crystal, experimental, refinement or atomic coordinate data resulting 
# from the CCDC's data processing and validation procedures.
#
#######################################################################

data_NITFEB
_chemical_formula_moiety         'C20 H32 O5'
_chemical_name_systematic        
8-Hydroxy-16-hydroxymethyl-5,5,7,9-tetramethyl-1-oxahexadeca-3,13-diene-2,6-dione
_symmetry_cell_setting           orthorhombic
_symmetry_space_group_name_H-M   'P 21 21 21'
_symmetry_Int_Tables_number      19
_space_group_name_Hall           'P 2ac 2ab'
loop_
_symmetry_equiv_pos_site_id
_symmetry_equiv_pos_as_xyz
1 x,y,z
2 1/2-x,-y,1/2+z
3 1/2+x,1/2-y,-z
4 -x,1/2+y,1/2-z
_cell_length_a                   11.239(2)
_cell_length_b                   13.333(3)
_cell_length_c                   13.463(3)
_cell_angle_alpha                90
_cell_angle_beta                 90
_cell_angle_gamma                90
_cell_volume                     2017.42
_exptl_crystal_colour            colorless
_exptl_crystal_description       parallelepiped
_chemical_melting_point          128-129deg.C
_cell_formula_units_Z            4
loop_
_atom_site_label
_atom_site_type_symbol
_atom_site_fract_x
_atom_site_fract_y
_atom_site_fract_z
O1 O 0.2833(2) -0.0418(1) 0.6581(2)
O2 O 0.7500(2) 0.1939(2) 0.5876(2)
O3 O 0.5889(2) 0.3794(1) 0.6716(1)
O4 O 0.1489(1) 0.0553(1) 0.5810(1)
O5 O 0.0111(2) -0.0481(2) 0.4430(2)
C1 C 0.2605(2) 0.0276(2) 0.6041(2)
C2 C 0.3489(2) 0.0925(2) 0.5548(2)
C3 C 0.4625(2) 0.0743(2) 0.5682(2)
C4 C 0.5699(2) 0.1252(2) 0.5244(2)
C5 C 0.6477(2) 0.1756(2) 0.6061(2)
C6 C 0.5930(2) 0.2003(2) 0.7065(2)
C7 C 0.5146(2) 0.2952(2) 0.6953(2)
C8 C 0.4311(3) 0.3187(2) 0.7826(2)
C9 C 0.3488(3) 0.2309(2) 0.8070(2)
C10 C 0.2672(3) 0.2473(3) 0.8962(2)
C11 C 0.1843(4) 0.1612(3) 0.9161(2)
C12 C 0.0978(3) 0.1432(3) 0.8347(3)
C13 C 0.0803(3) 0.0556(3) 0.7906(2)
C14 C -0.0036(3) 0.0378(3) 0.7091(2)
C15 C 0.0516(2) -0.0073(2) 0.6157(2)
C16 C -0.0370(2) -0.0094(2) 0.5315(2)
C17 C 0.5380(3) 0.2042(2) 0.4467(2)
C18 C 0.6460(2) 0.0432(2) 0.4748(2)
C19 C 0.6869(3) 0.2095(2) 0.7879(2)
C20 C 0.3574(3) 0.4114(2) 0.7567(2)
H1 H 0.6289(24) 0.3945(17) 0.7202(9)
H2 H 0.0386(30) -0.0022(4) 0.4097(13)
H3 H 0.3244(2) 0.1455(2) 0.5149(2)
H4 H 0.4793(2) 0.0218(2) 0.6114(2)
H5 H 0.5404(2) 0.1445(2) 0.7245(2)
H6 H 0.4636(2) 0.2838(2) 0.6373(2)
H7 H 0.4795(3) 0.3337(2) 0.8413(2)
H8 H 0.2999(3) 0.2169(2) 0.7493(2)
H9 H 0.3972(3) 0.1720(2) 0.8195(2)
H10 H 0.3158(3) 0.2586(3) 0.9547(2)
H11 H 0.2204(3) 0.3074(3) 0.8851(2)
H12 H 0.2310(4) 0.1008(3) 0.9263(2)
H13 H 0.1408(4) 0.1744(3) 0.9770(2)
H14 H 0.0526(3) 0.1973(3) 0.8130(3)
H15 H 0.1246(3) 0.0013(3) 0.8132(2)
H16 H -0.0408(3) 0.1011(3) 0.6916(2)
H17 H -0.0657(3) -0.0068(3) 0.7325(2)
H18 H 0.0804(2) -0.0753(2) 0.6295(2)
H19 H -0.1047(2) -0.0499(2) 0.5509(2)
H20 H -0.0653(2) 0.0583(2) 0.5194(2)
H21 H 0.4907(16) 0.2558(8) 0.4769(4)
H22 H 0.4937(16) 0.1734(4) 0.3939(8)
H23 H 0.6096(3) 0.2331(11) 0.4203(11)
H24 H 0.6015(8) 0.0125(11) 0.4221(11)
H25 H 0.6668(16) -0.0067(9) 0.5232(4)
H26 H 0.7172(9) 0.0726(3) 0.4483(14)
H27 H 0.7277(13) 0.1466(5) 0.7952(11)
H28 H 0.6491(4) 0.2268(15) 0.8495(4)
H29 H 0.7430(11) 0.2607(11) 0.7702(8)
H30 H 0.4094(3) 0.4644(5) 0.7354(14)
H31 H 0.3137(14) 0.4328(9) 0.8141(5)
H32 H 0.3029(13) 0.3953(5) 0.7041(11)
loop_
_geom_bond_atom_site_label_1
_geom_bond_atom_site_label_2
_geom_bond_site_symmetry_1
_geom_bond_site_symmetry_2
O1 C1 1_555 1_555
O2 C5 1_555 1_555
O3 C7 1_555 1_555
O4 C1 1_555 1_555
O5 C16 1_555 1_555
C1 C2 1_555 1_555
C2 C3 1_555 1_555
C3 C4 1_555 1_555
C4 C5 1_555 1_555
C5 C6 1_555 1_555
C6 C7 1_555 1_555
C7 C8 1_555 1_555
C8 C9 1_555 1_555
C9 C10 1_555 1_555
C10 C11 1_555 1_555
C11 C12 1_555 1_555
C12 C13 1_555 1_555
C13 C14 1_555 1_555
C14 C15 1_555 1_555
C15 O4 1_555 1_555
C16 C15 1_555 1_555
C17 C4 1_555 1_555
C18 C4 1_555 1_555
C19 C6 1_555 1_555
C20 C8 1_555 1_555
H1 O3 1_555 1_555
H2 O5 1_555 1_555
H3 C2 1_555 1_555
H4 C3 1_555 1_555
H5 C6 1_555 1_555
H6 C7 1_555 1_555
H7 C8 1_555 1_555
H8 C9 1_555 1_555
H9 C9 1_555 1_555
H10 C10 1_555 1_555
H11 C10 1_555 1_555
H12 C11 1_555 1_555
H13 C11 1_555 1_555
H14 C12 1_555 1_555
H15 C13 1_555 1_555
H16 C14 1_555 1_555
H17 C14 1_555 1_555
H18 C15 1_555 1_555
H19 C16 1_555 1_555
H20 C16 1_555 1_555
H21 C17 1_555 1_555
H22 C17 1_555 1_555
H23 C17 1_555 1_555
H24 C18 1_555 1_555
H25 C18 1_555 1_555
H26 C18 1_555 1_555
H27 C19 1_555 1_555
H28 C19 1_555 1_555
H29 C19 1_555 1_555
H30 C20 1_555 1_555
H31 C20 1_555 1_555
H32 C20 1_555 1_555

#END
