
#######################################################################
#
#                 Cambridge Crystallographic Data Centre
#                                CCDC 
#
#######################################################################
#
# If this CIF has been generated from an entry in the Cambridge 
# Structural Database, then it will include bibliographic, chemical, 
# crystal, experimental, refinement or atomic coordinate data resulting 
# from the CCDC's data processing and validation procedures.
#
#######################################################################

data_NITQOW
_chemical_formula_moiety         'C27 H22 N2 O1 S1'
_chemical_name_systematic        
6-Benzoyl-4,5-dimethyl-3,7-diphenyl-4H,5H-pyrrolo(3,2-b)-1,4-thiazine
_symmetry_cell_setting           triclinic
_symmetry_space_group_name_H-M   'P -1'
_symmetry_Int_Tables_number      2
_space_group_name_Hall           '-P 1'
loop_
_symmetry_equiv_pos_site_id
_symmetry_equiv_pos_as_xyz
1 x,y,z
2 -x,-y,-z
_cell_length_a                   6.873(2)
_cell_length_b                   11.680(7)
_cell_length_c                   14.647(7)
_cell_angle_alpha                73.85(4)
_cell_angle_beta                 83.45(3)
_cell_angle_gamma                72.75(4)
_cell_volume                     1077.97
_exptl_crystal_colour            orange
_chemical_melting_point          166-168deg.C
_cell_formula_units_Z            2
loop_
_atom_site_label
_atom_site_type_symbol
_atom_site_fract_x
_atom_site_fract_y
_atom_site_fract_z
S1 S 0.2557(1) 0.0730(1) 0.4476(1)
O1 O -0.5831(3) 0.3390(2) 0.2543(2)
N1 N -0.1034(3) 0.2669(2) 0.5302(1)
N2 N -0.2838(3) 0.3007(2) 0.3882(2)
C1 C 0.2590(4) 0.1552(3) 0.5305(2)
C2 C 0.0990(4) 0.2338(2) 0.5624(2)
C3 C -0.1183(4) 0.2420(2) 0.4437(2)
C4 C 0.0235(4) 0.1659(2) 0.3971(2)
C5 C -0.0539(4) 0.1763(2) 0.3101(2)
C6 C -0.2473(4) 0.2618(2) 0.3044(2)
C7 C -0.2538(4) 0.2345(3) 0.6060(2)
C8 C -0.4494(4) 0.4037(3) 0.4070(2)
C9 C 0.1242(4) 0.2979(2) 0.6325(2)
C10 C 0.0076(4) 0.4180(2) 0.6309(2)
C11 C 0.0333(4) 0.4777(3) 0.6959(2)
C12 C 0.1787(5) 0.4175(3) 0.7637(2)
C13 C 0.2955(5) 0.2989(3) 0.7668(2)
C14 C 0.2679(4) 0.2385(3) 0.7028(2)
C15 C 0.0439(4) 0.1017(2) 0.2415(2)
C16 C -0.0597(5) 0.0376(3) 0.2079
C17 C 0.0314(6) -0.0283(3) 0.1423(2)
C18 C 0.2278(6) -0.0326(3) 0.1102(2)
C19 C 0.3347(5) 0.0273(3) 0.1447(2)
C20 C 0.2442(4) 0.0941(3) 0.2104(2)
C21 C -0.4001(4) 0.3085(2) 0.2323(2)
C22 C -0.3365(4) 0.3226(2) 0.1299(2)
C23 C -0.4749(5) 0.3232(3) 0.0672(2)
C24 C -0.4242(6) 0.3407(3) -0.0285(2)
C25 C -0.2402(7) 0.3587(4) -0.0630(2)
C26 C -0.1039(6) 0.3610(3) -0.0025(2)
C27 C -0.1506(5) 0.3430(2) 0.0938(2)
loop_
_geom_bond_atom_site_label_1
_geom_bond_atom_site_label_2
_geom_bond_site_symmetry_1
_geom_bond_site_symmetry_2
S1 C1 1_555 1_555
O1 C21 1_555 1_555
N1 C2 1_555 1_555
N2 C3 1_555 1_555
C1 C2 1_555 1_555
C2 C9 1_555 1_555
C3 N1 1_555 1_555
C4 S1 1_555 1_555
C5 C4 1_555 1_555
C6 N2 1_555 1_555
C7 N1 1_555 1_555
C8 N2 1_555 1_555
C9 C10 1_555 1_555
C10 C11 1_555 1_555
C11 C12 1_555 1_555
C12 C13 1_555 1_555
C13 C14 1_555 1_555
C14 C9 1_555 1_555
C15 C5 1_555 1_555
C16 C15 1_555 1_555
C17 C16 1_555 1_555
C18 C17 1_555 1_555
C19 C18 1_555 1_555
C20 C15 1_555 1_555
C21 C6 1_555 1_555
C22 C21 1_555 1_555
C23 C22 1_555 1_555
C24 C23 1_555 1_555
C25 C24 1_555 1_555
C26 C25 1_555 1_555
C27 C22 1_555 1_555
C3 C4 1_555 1_555
C5 C6 1_555 1_555
C19 C20 1_555 1_555
C26 C27 1_555 1_555

#END
