
#######################################################################
#
#                 Cambridge Crystallographic Data Centre
#                                CCDC 
#
#######################################################################
#
# If this CIF has been generated from an entry in the Cambridge 
# Structural Database, then it will include bibliographic, chemical, 
# crystal, experimental, refinement or atomic coordinate data resulting 
# from the CCDC's data processing and validation procedures.
#
#######################################################################

data_NITSAL
_chemical_compound_source        'root of Cudrania tricuspidata'
_chemical_formula_moiety         'C24 H26 O6,0.5(H2 O1)'
_chemical_name_systematic        'Cudratricusxanthone F hemihydrate'
_chemical_properties_biological  
'potent alpha,alpha-glucosidase inhibition properties'
_symmetry_cell_setting           monoclinic
_symmetry_space_group_name_H-M   'P 21/c'
_symmetry_Int_Tables_number      14
_space_group_name_Hall           '-P 2ybc'
loop_
_symmetry_equiv_pos_site_id
_symmetry_equiv_pos_as_xyz
1 x,y,z
2 -x,1/2+y,1/2-z
3 -x,-y,-z
4 x,1/2-y,1/2+z
_cell_length_a                   6.8981(5)
_cell_length_b                   20.1090(14)
_cell_length_c                   30.740(2)
_cell_angle_alpha                90
_cell_angle_beta                 91.210(2)
_cell_angle_gamma                90
_cell_volume                     4263.11
_exptl_crystal_colour            yellow
_exptl_crystal_description       block
_cell_formula_units_Z            8
loop_
_atom_site_label
_atom_site_type_symbol
_atom_site_fract_x
_atom_site_fract_y
_atom_site_fract_z
O1 O -0.1433(6) 0.84824(19) 0.78474(11)
O2 O -0.2084(6) 0.72106(17) 0.91369(12)
H1 H -0.2238 0.7264 0.9405
O3 O -0.2588(6) 0.78484(18) 0.98449(12)
O4 O -0.3206(6) 0.98396(19) 1.09380(12)
H2 H -0.3142 1.0247 1.0998
O5 O -0.2566(6) 1.08896(18) 1.04683(12)
H3 H -0.2377 1.1211 1.0300
O6 O -0.1963(6) 0.95944(17) 0.91866(11)
C1 C -0.1946(8) 0.9011(3) 0.89574(17)
C2 C -0.1759(8) 0.9071(3) 0.85067(18)
C3 C -0.1648(8) 0.8450(3) 0.82910(17)
C4 C -0.1735(8) 0.7840(3) 0.85017(18)
H4 H -0.1615 0.7441 0.8340
C5 C -0.1991(8) 0.7812(3) 0.89394(18)
C6 C -0.2123(8) 0.8408(3) 0.91845(17)
C7 C -0.2432(8) 0.8398(3) 0.96500(18)
C8 C -0.2562(8) 0.9035(3) 0.98733(17)
C9 C -0.2918(8) 0.9118(3) 1.03272(17)
C10 C -0.2876(8) 0.9748(3) 1.04967(18)
C11 C -0.2548(8) 1.0312(3) 1.02380(18)
C12 C -0.2269(8) 1.0243(3) 0.98032(18)
H5 H -0.2078 1.0621 0.9624
C13 C -0.2270(8) 0.9603(3) 0.96275(18)
C14 C -0.1702(9) 0.9731(3) 0.82446(18)
C15 C -0.3232(16) 0.9720(4) 0.7882(3)
H6 H -0.2842 0.9568 0.7604
C16 C -0.485(2) 0.9882(8) 0.7916(5)
H10 H -0.5300 1.0036 0.8188
H11 H -0.5715 0.9859 0.7672
C18 C -0.1936(14) 1.0376(4) 0.8512(2)
H14 H -0.3194 1.0372 0.8654
H15 H -0.1868 1.0761 0.8318
H16 H -0.0895 1.0404 0.8733
C19 C 0.0339(12) 0.9810(3) 0.8039(2)
H18 H 0.1337 0.9821 0.8270
H19 H 0.0379 1.0226 0.7873
H20 H 0.0580 0.9434 0.7845
C20 C -0.1427(11) 0.7879(3) 0.7609(2)
H21 H -0.1267 0.7976 0.7300
H22 H -0.2657 0.7646 0.7649
H23 H -0.0353 0.7599 0.7714
C21 C -0.3405(9) 0.8549(3) 1.06302(18)
H24 H -0.4152 0.8723 1.0877
H25 H -0.4232 0.8223 1.0472
C22 C -0.1602(10) 0.8201(3) 1.08045(19)
H26 H -0.0656 0.8086 1.0597
C23 C -0.1201(12) 0.8039(3) 1.1216(2)
C24 C -0.2522(14) 0.8220(4) 1.1593(2)
H27 H -0.1949 0.8056 1.1867
H28 H -0.3799 0.8017 1.1545
H29 H -0.2662 0.8705 1.1608
C25 C 0.0595(15) 0.7661(4) 1.1346(3)
H30 H 0.0625 0.7593 1.1661
H31 H 0.1742 0.7914 1.1261
H32 H 0.0591 0.7228 1.1199
O7 O 0.3304(6) 0.74840(17) 0.83329(12)
O8 O 0.2372(6) 0.78631(18) 0.98501(12)
H33 H 0.2342 0.8259 0.9762
O9 O 0.2325(6) 0.68924(19) 1.03402(12)
O10 O 0.1638(6) 0.4400(2) 1.08419(12)
H34 H 0.1762 0.3991 1.0794
O11 O 0.2510(6) 0.37151(18) 1.01412(13)
H35 H 0.2781 0.3536 0.9903
O12 O 0.3150(5) 0.56681(17) 0.93012(11)
C26 C 0.2985(8) 0.6337(3) 0.92227(17)
C27 C 0.3147(8) 0.6556(2) 0.87915(17)
C28 C 0.3109(8) 0.7262(3) 0.87497(17)
C29 C 0.2854(8) 0.7696(3) 0.90911(18)
H36 H 0.2812 0.8163 0.9042
C30 C 0.2664(8) 0.7444(3) 0.95034(18)
C31 C 0.2676(8) 0.6757(3) 0.95848(17)
C32 C 0.2437(8) 0.6490(3) 1.00200(18)
C33 C 0.2360(8) 0.5776(3) 1.00713(17)
C34 C 0.1935(8) 0.5430(3) 1.04648(17)
C35 C 0.2042(8) 0.4754(3) 1.04655(18)
C36 C 0.2506(8) 0.4391(3) 1.00936(18)
C37 C 0.2899(8) 0.4712(3) 0.97071(18)
H37 H 0.3230 0.4470 0.9454
C38 C 0.2793(8) 0.5390(3) 0.97039(17)
C39 C 0.3345(9) 0.6106(3) 0.83885(18)
C40 C 0.1587(12) 0.6241(3) 0.8082(2)
H38 H 0.0318 0.6220 0.8196
C41 C 0.180(3) 0.6387(7) 0.7660(6)
H42 H 0.3064 0.6410 0.7542
H43 H 0.0695 0.6468 0.7479
C43 C 0.5325(11) 0.6244(3) 0.8176(2)
H46 H 0.5459 0.5959 0.7920
H47 H 0.6376 0.6147 0.8386
H48 H 0.5390 0.6712 0.8088
C44 C 0.3341(12) 0.5352(3) 0.8468(2)
H50 H 0.3472 0.5119 0.8190
H51 H 0.2120 0.5222 0.8601
H52 H 0.4429 0.5234 0.8663
C45 C 0.3370(9) 0.8192(3) 0.82576(19)
H53 H 0.3505 0.8277 0.7946
H54 H 0.4479 0.8383 0.8418
H55 H 0.2169 0.8396 0.8358
C46 C 0.1270(9) 0.5783(3) 1.08707(18)
H56 H 0.0432 0.5478 1.1036
H57 H 0.0476 0.6173 1.0783
C47 C 0.2925(9) 0.6017(3) 1.11682(19)
H58 H 0.4054 0.6174 1.1029
C48 C 0.2968(11) 0.6028(3) 1.1597(2)
C49 C 0.4684(12) 0.6317(4) 1.1843(2)
H59 H 0.4469 0.6283 1.2157
H60 H 0.4839 0.6786 1.1764
H61 H 0.5859 0.6071 1.1770
C50 C 0.1417(14) 0.5764(5) 1.1874(2)
H62 H 0.1782 0.5828 1.2181
H63 H 0.1239 0.5289 1.1815
H64 H 0.0203 0.6001 1.1809
O13 O 0.3541(7) 0.3162(2) 0.93893(14)
H7? H -0.4518 0.9670 0.8007
H8? H -0.2984 0.9345 0.7687
H9? H -0.3180 1.0137 0.7718
C17? C -0.242(4) 1.0848(12) 0.8530(8)
H12? H -0.3058 1.1047 0.8287
H13? H -0.2228 1.1094 0.8792
H17? H -0.1354 1.0284 0.8788
H39? H 0.0387 0.6145 0.8236
H40? H 0.1664 0.5955 0.7825
H41? H 0.1593 0.6708 0.7992
C42? C 0.546(3) 0.6368(8) 0.7722(6)
H44? H 0.4327 0.6367 0.7542
H45? H 0.6692 0.6451 0.7599
H49? H 0.6470 0.6245 0.8353
loop_
_geom_bond_atom_site_label_1
_geom_bond_atom_site_label_2
_geom_bond_site_symmetry_1
_geom_bond_site_symmetry_2
O1 C3 1_555 1_555
O2 H1 1_555 1_555
O3 C7 1_555 1_555
O4 H2 1_555 1_555
O5 H3 1_555 1_555
O6 C1 1_555 1_555
C1 C2 1_555 1_555
C2 C3 1_555 1_555
C3 C4 1_555 1_555
C4 H4 1_555 1_555
C5 O2 1_555 1_555
C6 C1 1_555 1_555
C7 C6 1_555 1_555
C8 C7 1_555 1_555
C9 C8 1_555 1_555
C10 O4 1_555 1_555
C11 O5 1_555 1_555
C12 C11 1_555 1_555
H5 C12 1_555 1_555
C13 O6 1_555 1_555
C14 C2 1_555 1_555
C15 C14 1_555 1_555
H6 C15 1_555 1_555
C16 C15 1_555 1_555
H10 C16 1_555 1_555
H11 C16 1_555 1_555
C18 C14 1_555 1_555
H14 C18 1_555 1_555
H15 C18 1_555 1_555
H16 C18 1_555 1_555
C19 C14 1_555 1_555
H18 C19 1_555 1_555
H19 C19 1_555 1_555
H20 C19 1_555 1_555
C20 O1 1_555 1_555
H21 C20 1_555 1_555
H22 C20 1_555 1_555
H23 C20 1_555 1_555
C21 C9 1_555 1_555
H24 C21 1_555 1_555
H25 C21 1_555 1_555
C22 C21 1_555 1_555
H26 C22 1_555 1_555
C23 C22 1_555 1_555
C24 C23 1_555 1_555
H27 C24 1_555 1_555
H28 C24 1_555 1_555
H29 C24 1_555 1_555
C25 C23 1_555 1_555
H30 C25 1_555 1_555
H31 C25 1_555 1_555
H32 C25 1_555 1_555
O7 C28 1_555 1_555
O8 H33 1_555 1_555
O9 C32 1_555 1_555
O10 H34 1_555 1_555
O11 H35 1_555 1_555
O12 C26 1_555 1_555
C26 C27 1_555 1_555
C27 C28 1_555 1_555
C28 C29 1_555 1_555
C29 H36 1_555 1_555
C30 O8 1_555 1_555
C31 C26 1_555 1_555
C32 C31 1_555 1_555
C33 C32 1_555 1_555
C34 C33 1_555 1_555
C35 O10 1_555 1_555
C36 O11 1_555 1_555
C37 C36 1_555 1_555
H37 C37 1_555 1_555
C38 O12 1_555 1_555
C39 C27 1_555 1_555
C40 C39 1_555 1_555
H38 C40 1_555 1_555
C41 C40 1_555 1_555
H42 C41 1_555 1_555
H43 C41 1_555 1_555
C43 C39 1_555 1_555
H46 C43 1_555 1_555
H47 C43 1_555 1_555
H48 C43 1_555 1_555
C44 C39 1_555 1_555
H50 C44 1_555 1_555
H51 C44 1_555 1_555
H52 C44 1_555 1_555
C45 O7 1_555 1_555
H53 C45 1_555 1_555
H54 C45 1_555 1_555
H55 C45 1_555 1_555
C46 C34 1_555 1_555
H56 C46 1_555 1_555
H57 C46 1_555 1_555
C47 C46 1_555 1_555
H58 C47 1_555 1_555
C48 C47 1_555 1_555
C49 C48 1_555 1_555
H59 C49 1_555 1_555
H60 C49 1_555 1_555
H61 C49 1_555 1_555
C50 C48 1_555 1_555
H62 C50 1_555 1_555
H63 C50 1_555 1_555
H64 C50 1_555 1_555
C4 C5 1_555 1_555
C5 C6 1_555 1_555
C8 C13 1_555 1_555
C9 C10 1_555 1_555
C10 C11 1_555 1_555
C12 C13 1_555 1_555
C29 C30 1_555 1_555
C30 C31 1_555 1_555
C33 C38 1_555 1_555
C34 C35 1_555 1_555
C35 C36 1_555 1_555
C37 C38 1_555 1_555

#END
