
#######################################################################
#
#                 Cambridge Crystallographic Data Centre
#                                CCDC 
#
#######################################################################
#
# If this CIF has been generated from an entry in the Cambridge 
# Structural Database, then it will include bibliographic, chemical, 
# crystal, experimental, refinement or atomic coordinate data resulting 
# from the CCDC's data processing and validation procedures.
#
#######################################################################

data_NITTEQ
_chemical_compound_source        
'roots and aerial parts of Senecio nemorensis L.(Compositae)'
_chemical_formula_moiety         'C16 H24 O5'
_chemical_name_systematic        
1\b,10\b-Epoxy-7\b-hydroxy-8\a-methoxyeremophil-11\aH-12,8\b-olide
_chemical_properties_biological  
'no significant antimicrobial activity against Staphylococcus aureus and Candida albicans'
_symmetry_cell_setting           orthorhombic
_symmetry_space_group_name_H-M   'P 21 21 21'
_symmetry_Int_Tables_number      19
_space_group_name_Hall           'P 2ac 2ab'
loop_
_symmetry_equiv_pos_site_id
_symmetry_equiv_pos_as_xyz
1 x,y,z
2 1/2-x,-y,1/2+z
3 -x,1/2+y,1/2-z
4 1/2+x,1/2-y,-z
_cell_length_a                   6.6535(2)
_cell_length_b                   9.5993(3)
_cell_length_c                   24.9354(8)
_cell_angle_alpha                90
_cell_angle_beta                 90
_cell_angle_gamma                90
_cell_volume                     1592.6
_exptl_crystal_colour            colorless
_chemical_melting_point          189-191deg.C
_cell_formula_units_Z            4
loop_
_atom_site_label
_atom_site_type_symbol
_atom_site_fract_x
_atom_site_fract_y
_atom_site_fract_z
O1 O 1.0049(3) 0.1673(2) 0.81473(7)
H1 H 1.0621 0.1052 0.7981
O2 O 0.4950(3) 0.2351(2) 0.84942(7)
O3 O 0.8460(3) 0.1040(3) 0.98096(7)
O4 O 0.7413(3) 0.38553(19) 0.81921(8)
C1 C 0.7029(4) 0.2566(3) 0.84889(10)
C2 C 0.7803(4) -0.0207(3) 0.89395(10)
C3 C 0.7335(4) 0.0049(3) 0.83311(10)
H2 H 0.8025 -0.0655 0.8121
H3 H 0.5904 -0.0072 0.8274
C4 C 0.7934(4) 0.1457(3) 0.81256(10)
C5 C 0.7955(4) 0.2535(3) 0.90323(9)
H4 H 0.7396 0.3271 0.9253
H5 H 0.9395 0.2677 0.9005
C6 C 0.7517(4) 0.1123(3) 0.92820(9)
C7 C 0.6289(5) 0.1106(4) 0.97773(11)
H6 H 0.5681 0.1997 0.9880
C8 C 0.7434(4) 0.3525(3) 0.76630(13)
O5 O 0.7649(4) 0.4411(3) 0.73227(9)
C9 C 0.7188(5) 0.1966(3) 0.75792(10)
H7 H 0.5752 0.1754 0.7548
C10 C 1.0013(4) -0.0667(4) 0.90084(12)
H8 H 1.0292 -0.1430 0.8771
H9 H 1.0234 -0.0956 0.9372
H10 H 1.0886 0.0099 0.8925
C11 C 0.6153(5) -0.1459(4) 0.97358(13)
H11 H 0.5331 -0.2258 0.9829
H12 H 0.7477 -0.1597 0.9889
C12 C 0.6326(5) -0.1356(3) 0.91299(12)
H13 H 0.4994 -0.1080 0.9000
C13 C 0.8263(6) 0.1404(4) 0.70876(11)
H14 H 0.9665 0.1633 0.7108
H15 H 0.7694 0.1814 0.6771
H16 H 0.8108 0.0411 0.7073
C14 C 0.5228(6) -0.0158(4) 0.99664(13)
H17 H 0.3826 -0.0108 0.9862
H18 H 0.5286 -0.0198 1.0355
C15 C 0.6758(7) -0.2789(4) 0.88836(15)
H19 H 0.5715 -0.3428 0.8984
H20 H 0.8028 -0.3126 0.9012
H21 H 0.6802 -0.2709 0.8500
C16 C 0.3805(5) 0.3345(4) 0.87941(13)
H22 H 0.4401 0.4251 0.8757
H23 H 0.3796 0.3083 0.9166
H24 H 0.2452 0.3367 0.8661
loop_
_geom_bond_atom_site_label_1
_geom_bond_atom_site_label_2
_geom_bond_site_symmetry_1
_geom_bond_site_symmetry_2
O1 H1 1_555 1_555
O2 C1 1_555 1_555
O3 C6 1_555 1_555
O4 C1 1_555 1_555
C1 C4 1_555 1_555
C2 C3 1_555 1_555
C3 H2 1_555 1_555
H3 C3 1_555 1_555
C4 O1 1_555 1_555
C5 C1 1_555 1_555
H4 C5 1_555 1_555
H5 C5 1_555 1_555
C6 C2 1_555 1_555
C7 O3 1_555 1_555
H6 C7 1_555 1_555
C8 O4 1_555 1_555
O5 C8 1_555 1_555
C9 C4 1_555 1_555
H7 C9 1_555 1_555
C10 C2 1_555 1_555
H8 C10 1_555 1_555
H9 C10 1_555 1_555
H10 C10 1_555 1_555
C11 H11 1_555 1_555
H12 C11 1_555 1_555
C12 C2 1_555 1_555
H13 C12 1_555 1_555
C13 C9 1_555 1_555
H14 C13 1_555 1_555
H15 C13 1_555 1_555
H16 C13 1_555 1_555
C14 C7 1_555 1_555
H17 C14 1_555 1_555
H18 C14 1_555 1_555
C15 C12 1_555 1_555
H19 C15 1_555 1_555
H20 C15 1_555 1_555
H21 C15 1_555 1_555
C16 O2 1_555 1_555
H22 C16 1_555 1_555
H23 C16 1_555 1_555
H24 C16 1_555 1_555
C3 C4 1_555 1_555
C5 C6 1_555 1_555
C6 C7 1_555 1_555
C8 C9 1_555 1_555
C11 C12 1_555 1_555
C11 C14 1_555 1_555

#END
