
#######################################################################
#
#                 Cambridge Crystallographic Data Centre
#                                CCDC 
#
#######################################################################
#
# If this CIF has been generated from an entry in the Cambridge 
# Structural Database, then it will include bibliographic, chemical, 
# crystal, experimental, refinement or atomic coordinate data resulting 
# from the CCDC's data processing and validation procedures.
#
#######################################################################

data_NIVRAN
_chemical_formula_moiety         'C20 H20 O8,C1 H4 O1'
_chemical_name_systematic        
'20,22-Dihydroxy-2,10-dimethyl-5,11,15,19-tetraoxahexacyclo[11.7.1.1^1,9^.0^3,8^.0^3,12^.0^17,21^]docosa-7,13(21),17-triene-4,16-dione methanol solvate'
_symmetry_cell_setting           monoclinic
_symmetry_space_group_name_H-M   'P 21/c'
_symmetry_Int_Tables_number      14
_space_group_name_Hall           '-P 2ybc'
loop_
_symmetry_equiv_pos_site_id
_symmetry_equiv_pos_as_xyz
1 x,y,z
2 -x,1/2+y,1/2-z
3 -x,-y,-z
4 x,1/2-y,1/2+z
_cell_length_a                   12.7431(4)
_cell_length_b                   11.7643(4)
_cell_length_c                   12.0525(4)
_cell_angle_alpha                90
_cell_angle_beta                 90.7990(10)
_cell_angle_gamma                90
_cell_volume                     1806.66
_exptl_crystal_colour            colorless
_exptl_crystal_description       prism
_cell_formula_units_Z            4
loop_
_atom_site_label
_atom_site_type_symbol
_atom_site_fract_x
_atom_site_fract_y
_atom_site_fract_z
O1 O 0.42012(14) 0.64060(15) 0.24648(14)
O2 O 0.86070(13) 0.49138(14) 0.60435(14)
O3 O 0.92052(13) 0.60524(14) 0.21593(14)
H1 H 0.9242 0.5477 0.2571
O4 O 0.66117(13) 0.42364(13) 0.31291(13)
O5 O 0.81192(14) 0.88075(15) 0.42512(13)
H2 H 0.8407 0.9450 0.4262
O6 O 0.96242(13) 0.79378(14) 0.36459(13)
O7 O 0.46081(14) 0.65751(16) 0.42241(14)
O8 O 1.01492(14) 0.57231(15) 0.62799(14)
C1 C 0.4476(2) 0.6424(2) 0.1302(2)
H3 H 0.4391 0.7210 0.1020
H4 H 0.3975 0.5936 0.0885
C2 C 0.4918(2) 0.6438(2) 0.3291(2)
C3 C 0.60654(18) 0.6239(2) 0.30477(19)
C4 C 0.64527(18) 0.5224(2) 0.38084(18)
H5 H 0.5875 0.5044 0.4334
C5 C 0.74210(18) 0.5475(2) 0.44907(19)
C6 C 0.76813(19) 0.4651(2) 0.5392(2)
H6 H 0.7076 0.4605 0.5897
H7 H 0.7773 0.3891 0.5056
C7 C 0.93364(19) 0.5689(2) 0.57453(19)
C8 C 0.5553(2) 0.6039(2) 0.1068(2)
H8 H 0.5733 0.5862 0.0326
C9 C 0.62777(19) 0.59306(19) 0.18611(19)
C10 C 0.90715(19) 0.64402(19) 0.48164(19)
C11 C 0.80890(19) 0.6303(2) 0.42286(19)
C12 C 0.78639(18) 0.7075(2) 0.32538(18)
C13 C 0.66779(18) 0.73693(19) 0.3289(2)
H9 H 0.6515 0.7608 0.4064
C14 C 0.6326(2) 0.8335(2) 0.2507(2)
H10 H 0.6651 0.9050 0.2748
H11 H 0.5560 0.8409 0.2526
H12 H 0.6542 0.8160 0.1748
C15 C 0.81573(19) 0.64748(19) 0.21431(19)
H13 H 0.8134 0.7079 0.1559
C16 C 0.73855(19) 0.5540(2) 0.17489(19)
H14 H 0.7512 0.5403 0.0943
C17 C 0.74671(19) 0.43714(19) 0.2357(2)
H15 H 0.8157 0.4308 0.2757
C18 C 0.7348(2) 0.3417(2) 0.1522(2)
H16 H 0.7379 0.2685 0.1908
H17 H 0.7916 0.3460 0.0984
H18 H 0.6670 0.3489 0.1133
C19 C 0.85278(18) 0.8166(2) 0.33974(19)
H19 H 0.8480 0.8618 0.2696
C20 C 0.98007(19) 0.7193(2) 0.44737(19)
H20 H 1.0468 0.7196 0.4835
O9 O 0.09321(14) 0.58378(14) 0.08345(14)
H21 H 0.0356 0.5705 0.1138
C21 C 0.1548(2) 0.6572(2) 0.1530(2)
H22 H 0.1094 0.7148 0.1860
H23 H 0.2086 0.6946 0.1085
H24 H 0.1887 0.6125 0.2120
loop_
_geom_bond_atom_site_label_1
_geom_bond_atom_site_label_2
_geom_bond_site_symmetry_1
_geom_bond_site_symmetry_2
O1 C1 1_555 1_555
O2 C6 1_555 1_555
O3 H1 1_555 1_555
O4 C4 1_555 1_555
O5 H2 1_555 1_555
O6 C19 1_555 1_555
O7 C2 1_555 1_555
O8 C7 1_555 1_555
C1 H3 1_555 1_555
H4 C1 1_555 1_555
C2 O1 1_555 1_555
C3 C2 1_555 1_555
C4 C3 1_555 1_555
H5 C4 1_555 1_555
C5 C4 1_555 1_555
C6 C5 1_555 1_555
H6 C6 1_555 1_555
H7 C6 1_555 1_555
C7 O2 1_555 1_555
C8 C1 1_555 1_555
H8 C8 1_555 1_555
C9 C3 1_555 1_555
C10 C7 1_555 1_555
C11 C5 1_555 1_555
C12 C11 1_555 1_555
C13 C3 1_555 1_555
H9 C13 1_555 1_555
C14 C13 1_555 1_555
H10 C14 1_555 1_555
H11 C14 1_555 1_555
H12 C14 1_555 1_555
C15 O3 1_555 1_555
H13 C15 1_555 1_555
C16 C9 1_555 1_555
H14 C16 1_555 1_555
C17 O4 1_555 1_555
H15 C17 1_555 1_555
C18 C17 1_555 1_555
H16 C18 1_555 1_555
H17 C18 1_555 1_555
H18 C18 1_555 1_555
C19 O5 1_555 1_555
H19 C19 1_555 1_555
C20 O6 1_555 1_555
H20 C20 1_555 1_555
O9 H21 1_555 1_555
C21 O9 1_555 1_555
H22 C21 1_555 1_555
H23 C21 1_555 1_555
H24 C21 1_555 1_555
C8 C9 1_555 1_555
C10 C11 1_555 1_555
C10 C20 1_555 1_555
C12 C13 1_555 1_555
C12 C15 1_555 1_555
C12 C19 1_555 1_555
C15 C16 1_555 1_555
C16 C17 1_555 1_555

#END
