
#######################################################################
#
#                 Cambridge Crystallographic Data Centre
#                                CCDC 
#
#######################################################################
#
# If this CIF has been generated from an entry in the Cambridge 
# Structural Database, then it will include bibliographic, chemical, 
# crystal, experimental, refinement or atomic coordinate data resulting 
# from the CCDC's data processing and validation procedures.
#
#######################################################################

data_NIVROB
_chemical_formula_moiety         'C29 H31 B1 N2'
_chemical_name_systematic        
6,6-Dimesityl-5,6-dihydro-7\l^5^,6\l^5^-dipyrido[3,2-d:2',1'-f][1,2]azaborinine
_symmetry_cell_setting           monoclinic
_symmetry_space_group_name_H-M   'P 21/c'
_symmetry_Int_Tables_number      14
_space_group_name_Hall           '-P 2ybc'
loop_
_symmetry_equiv_pos_site_id
_symmetry_equiv_pos_as_xyz
1 x,y,z
2 -x,1/2+y,1/2-z
3 -x,-y,-z
4 x,1/2-y,1/2+z
_cell_length_a                   10.065(2)
_cell_length_b                   15.889(3)
_cell_length_c                   15.467(3)
_cell_angle_alpha                90
_cell_angle_beta                 106.885(3)
_cell_angle_gamma                90
_cell_volume                     2366.89
_exptl_crystal_colour            colorless
_exptl_crystal_description       plate
_cell_formula_units_Z            4
loop_
_atom_site_label
_atom_site_type_symbol
_atom_site_fract_x
_atom_site_fract_y
_atom_site_fract_z
B1 B 0.8001(2) 0.16708(16) 0.05680(17)
N1 N 0.65813(17) 0.14970(11) 0.08960(11)
N2 N 0.38898(18) 0.15371(13) -0.12287(13)
C1 C 0.7708(2) 0.10662(15) -0.03338(15)
H1 H 0.8455 0.1150 -0.0623
H2 H 0.7723 0.0469 -0.0150
C2 C 0.6333(2) 0.12626(13) -0.10005(15)
C3 C 0.6107(2) 0.12860(15) -0.19305(16)
H3 H 0.6859 0.1205 -0.2177
C4 C 0.4788(2) 0.14272(16) -0.24950(16)
H4 H 0.4618 0.1442 -0.3132
C5 C 0.3716(2) 0.15467(17) -0.21138(16)
H5 H 0.2809 0.1641 -0.2506
C6 C 0.5181(2) 0.13946(14) -0.06899(15)
C7 C 0.5311(2) 0.13614(14) 0.02904(15)
C8 C 0.4150(2) 0.12253(15) 0.05835(17)
H6 H 0.3271 0.1137 0.0154
C9 C 0.4261(3) 0.12168(17) 0.14920(17)
H7 H 0.3468 0.1121 0.1693
C10 C 0.5548(3) 0.13497(16) 0.21045(16)
H8 H 0.5653 0.1349 0.2735
C11 C 0.6671(2) 0.14824(14) 0.17891(15)
H9 H 0.7554 0.1568 0.2216
C12 C 0.8069(2) 0.26333(14) 0.01710(14)
C13 C 0.7090(2) 0.32941(13) 0.00775(14)
C14 C 0.7215(2) 0.40386(14) -0.03791(15)
H10 H 0.6528 0.4462 -0.0438
C15 C 0.8286(2) 0.41843(15) -0.07461(15)
C16 C 0.9275(2) 0.35614(15) -0.06285(16)
H11 H 1.0039 0.3647 -0.0863
C17 C 0.9200(2) 0.28100(15) -0.01792(15)
C18 C 1.0462(2) 0.22371(17) -0.00430(19)
H12 H 1.0662 0.2158 -0.0621
H13 H 1.0269 0.1690 0.0188
H14 H 1.1267 0.2496 0.0392
C19 C 0.8399(3) 0.50004(16) -0.12302(19)
H15 H 0.7670 0.5389 -0.1178
H16 H 0.8289 0.4884 -0.1869
H17 H 0.9311 0.5255 -0.0955
C20 C 0.5902(2) 0.32879(14) 0.04982(16)
H18 H 0.5580 0.3865 0.0534
H19 H 0.6223 0.3047 0.1107
H20 H 0.5137 0.2948 0.0125
C21 C 0.9320(2) 0.14155(13) 0.14464(14)
C22 C 0.9787(2) 0.05738(14) 0.16441(15)
C23 C 1.0991(2) 0.03899(16) 0.23333(17)
H21 H 1.1277 -0.0181 0.2430
C24 C 1.1780(2) 0.09934(17) 0.28762(16)
C25 C 1.1279(2) 0.18075(16) 0.27459(15)
H22 H 1.1768 0.2237 0.3138
C26 C 1.0082(2) 0.20240(14) 0.20604(15)
C27 C 0.9620(3) 0.29332(15) 0.20606(17)
H23 H 1.0000 0.3172 0.2667
H24 H 0.8603 0.2957 0.1888
H25 H 0.9956 0.3258 0.1628
C28 C 1.3072(3) 0.0786(2) 0.3626(2)
H26 H 1.3558 0.0316 0.3441
H27 H 1.2816 0.0628 0.4169
H28 H 1.3682 0.1279 0.3757
C29 C 0.8978(3) -0.01887(16) 0.1176(2)
H29 H 0.9239 -0.0683 0.1569
H30 H 0.9191 -0.0292 0.0607
H31 H 0.7981 -0.0083 0.1053
loop_
_geom_bond_atom_site_label_1
_geom_bond_atom_site_label_2
_geom_bond_site_symmetry_1
_geom_bond_site_symmetry_2
B1 N1 1_555 1_555
N1 C7 1_555 1_555
N2 C5 1_555 1_555
C1 B1 1_555 1_555
H1 C1 1_555 1_555
H2 C1 1_555 1_555
C2 C1 1_555 1_555
C3 C2 1_555 1_555
H3 C3 1_555 1_555
C4 C3 1_555 1_555
H4 C4 1_555 1_555
C5 C4 1_555 1_555
H5 C5 1_555 1_555
C6 N2 1_555 1_555
C7 C6 1_555 1_555
C8 C7 1_555 1_555
H6 C8 1_555 1_555
C9 C8 1_555 1_555
H7 C9 1_555 1_555
C10 C9 1_555 1_555
H8 C10 1_555 1_555
C11 N1 1_555 1_555
H9 C11 1_555 1_555
C12 B1 1_555 1_555
C13 C12 1_555 1_555
C14 C13 1_555 1_555
H10 C14 1_555 1_555
C15 C14 1_555 1_555
C16 C15 1_555 1_555
H11 C16 1_555 1_555
C17 C12 1_555 1_555
C18 C17 1_555 1_555
H12 C18 1_555 1_555
H13 C18 1_555 1_555
H14 C18 1_555 1_555
C19 C15 1_555 1_555
H15 C19 1_555 1_555
H16 C19 1_555 1_555
H17 C19 1_555 1_555
C20 C13 1_555 1_555
H18 C20 1_555 1_555
H19 C20 1_555 1_555
H20 C20 1_555 1_555
C21 B1 1_555 1_555
C22 C21 1_555 1_555
C23 C22 1_555 1_555
H21 C23 1_555 1_555
C24 C23 1_555 1_555
C25 C24 1_555 1_555
H22 C25 1_555 1_555
C26 C21 1_555 1_555
C27 C26 1_555 1_555
H23 C27 1_555 1_555
H24 C27 1_555 1_555
H25 C27 1_555 1_555
C28 C24 1_555 1_555
H26 C28 1_555 1_555
H27 C28 1_555 1_555
H28 C28 1_555 1_555
C29 C22 1_555 1_555
H29 C29 1_555 1_555
H30 C29 1_555 1_555
H31 C29 1_555 1_555
C2 C6 1_555 1_555
C10 C11 1_555 1_555
C16 C17 1_555 1_555
C25 C26 1_555 1_555

#END
