
#######################################################################
#
#                 Cambridge Crystallographic Data Centre
#                                CCDC 
#
#######################################################################
#
# If this CIF has been generated from an entry in the Cambridge 
# Structural Database, then it will include bibliographic, chemical, 
# crystal, experimental, refinement or atomic coordinate data resulting 
# from the CCDC's data processing and validation procedures.
#
#######################################################################

data_NIVVIZ
_chemical_formula_moiety         'C19 H16 N2 O2'
_chemical_name_systematic        
4-(4-Methoxyphenyl)-1-(quinolin-8-yl)azetidin-2-one
_symmetry_cell_setting           monoclinic
_symmetry_space_group_name_H-M   'P 21/c'
_symmetry_Int_Tables_number      14
_space_group_name_Hall           '-P 2ybc'
loop_
_symmetry_equiv_pos_site_id
_symmetry_equiv_pos_as_xyz
1 x,y,z
2 -x,1/2+y,1/2-z
3 -x,-y,-z
4 x,1/2-y,1/2+z
_cell_length_a                   13.6518(17)
_cell_length_b                   9.8120(12)
_cell_length_c                   12.3174(15)
_cell_angle_alpha                90
_cell_angle_beta                 112.549(2)
_cell_angle_gamma                90
_cell_volume                     1523.8
_exptl_crystal_colour            brown
_exptl_crystal_description       piece
_cell_formula_units_Z            4
loop_
_atom_site_label
_atom_site_type_symbol
_atom_site_fract_x
_atom_site_fract_y
_atom_site_fract_z
O1 O 0.14704(8) 1.13720(9) 1.15533(7)
O2 O 0.18693(7) 1.00883(9) 0.51761(7)
N1 N 0.23893(7) 0.92178(10) 0.71006(8)
N2 N 0.35157(8) 0.74359(10) 0.89084(8)
C1 C 0.15177(13) 1.05622(14) 1.25396(11)
H1 H 0.0891 0.9973 1.2311
H2 H 0.1535 1.1161 1.3184
H3 H 0.2159 0.9999 1.2799
C2 C 0.14602(9) 1.06791(12) 1.05873(10)
C3 C 0.14787(10) 0.92649(12) 1.05094(10)
H4 H 0.1477 0.8715 1.1144
C4 C 0.14995(9) 0.86609(12) 0.94942(10)
H5 H 0.1518 0.7695 0.9447
C5 C 0.14932(9) 0.94365(11) 0.85525(9)
C6 C 0.15280(8) 0.87437(12) 0.74821(9)
H6 H 0.1535 0.7730 0.7565
C7 C 0.34977(9) 0.93517(11) 0.76809(9)
C8 C 0.40653(9) 0.84396(11) 0.86151(9)
C9 C 0.40545(10) 0.66324(12) 0.97956(10)
H7 H 0.3676 0.5942 1.0012
C10 C 0.51578(10) 0.67342(13) 1.04434(11)
H8 H 0.5504 0.6135 1.1082
C11 C 0.14526(9) 1.14786(12) 0.96445(10)
H9 H 0.1438 1.2444 0.9692
C12 C 0.14664(9) 1.08564(12) 0.86394(10)
H10 H 0.1458 1.1404 0.7999
C13 C 0.07357(9) 0.92040(13) 0.62471(10)
H11 H 0.0319 0.8452 0.5746
H12 H 0.0274 0.9975 0.6264
C14 C 0.17096(9) 0.96181(11) 0.60032(10)
C15 C 0.40296(10) 1.03586(12) 0.73464(10)
H13 H 0.3647 1.0962 0.6725
C16 C 0.51380(10) 1.04986(13) 0.79217(11)
H14 H 0.5496 1.1187 0.7674
C17 C 0.57056(9) 0.96550(12) 0.88339(11)
H15 H 0.6451 0.9770 0.9222
C18 C 0.51801(9) 0.86114(12) 0.91975(10)
C19 C 0.57175(9) 0.77085(13) 1.01361(10)
H16 H 0.6463 0.7781 1.0549
loop_
_geom_bond_atom_site_label_1
_geom_bond_atom_site_label_2
_geom_bond_site_symmetry_1
_geom_bond_site_symmetry_2
O1 C1 1_555 1_555
O2 C14 1_555 1_555
N1 C6 1_555 1_555
N2 C8 1_555 1_555
C1 H1 1_555 1_555
H2 C1 1_555 1_555
H3 C1 1_555 1_555
C2 O1 1_555 1_555
C3 C2 1_555 1_555
H4 C3 1_555 1_555
C4 C3 1_555 1_555
H5 C4 1_555 1_555
C5 C4 1_555 1_555
C6 C5 1_555 1_555
H6 C6 1_555 1_555
C7 N1 1_555 1_555
C8 C7 1_555 1_555
C9 N2 1_555 1_555
H7 C9 1_555 1_555
C10 C9 1_555 1_555
H8 C10 1_555 1_555
C11 C2 1_555 1_555
H9 C11 1_555 1_555
C12 C5 1_555 1_555
H10 C12 1_555 1_555
C13 C6 1_555 1_555
H11 C13 1_555 1_555
H12 C13 1_555 1_555
C14 N1 1_555 1_555
C15 C7 1_555 1_555
H13 C15 1_555 1_555
C16 C15 1_555 1_555
H14 C16 1_555 1_555
C17 C16 1_555 1_555
H15 C17 1_555 1_555
C18 C8 1_555 1_555
C19 C10 1_555 1_555
H16 C19 1_555 1_555
C11 C12 1_555 1_555
C13 C14 1_555 1_555
C17 C18 1_555 1_555
C18 C19 1_555 1_555

#END
