
#######################################################################
#
#                 Cambridge Crystallographic Data Centre
#                                CCDC 
#
#######################################################################
#
# If this CIF has been generated from an entry in the Cambridge 
# Structural Database, then it will include bibliographic, chemical, 
# crystal, experimental, refinement or atomic coordinate data resulting 
# from the CCDC's data processing and validation procedures.
#
#######################################################################

data_NIWLEM
_chemical_formula_moiety         'C22 H20 Ca1 Cl2 N8,C4 H10 O1'
_chemical_name_systematic        
'Dichloro-bis(2-((2-(pyridin-2-yl)hydrazono)methyl)pyridine)-calcium diethyl ether solvate'
_symmetry_cell_setting           monoclinic
_symmetry_space_group_name_H-M   'P 21/c'
_symmetry_Int_Tables_number      14
_space_group_name_Hall           '-P 2ybc'
loop_
_symmetry_equiv_pos_site_id
_symmetry_equiv_pos_as_xyz
1 x,y,z
2 -x,1/2+y,1/2-z
3 -x,-y,-z
4 x,1/2-y,1/2+z
_cell_length_a                   13.9231(9)
_cell_length_b                   13.4981(9)
_cell_length_c                   15.7366(7)
_cell_angle_alpha                90
_cell_angle_beta                 104.682(3)
_cell_angle_gamma                90
_cell_volume                     2860.9
_exptl_crystal_colour            colorless
_exptl_crystal_description       block
_cell_formula_units_Z            4
loop_
_atom_site_label
_atom_site_type_symbol
_atom_site_fract_x
_atom_site_fract_y
_atom_site_fract_z
C1 C 0.0467(2) 0.3968(3) 0.9256(2)
H1 H 0.0321 0.3756 0.9786
C2 C -0.0210(3) 0.4570(3) 0.8708(2)
H2 H -0.0806 0.4768 0.8850
C3 C 0.0013(3) 0.4879(3) 0.7934(2)
H3 H -0.0441 0.5287 0.7530
C4 C 0.0874(3) 0.4599(3) 0.7760(2)
H4 H 0.1038 0.4816 0.7240
C5 C 0.1512(2) 0.3990(3) 0.83532(19)
C6 C 0.3817(2) 0.2831(2) 0.85124(18)
H5 H 0.3933 0.3040 0.7970
C7 C 0.4518(2) 0.2190(3) 0.9096(2)
C8 C 0.5385(3) 0.1884(3) 0.8861(2)
H6 H 0.5510 0.2093 0.8322
C9 C 0.6046(3) 0.1276(3) 0.9426(3)
H7 H 0.6631 0.1051 0.9281
C10 C 0.5846(3) 0.1003(3) 1.0202(3)
H8 H 0.6295 0.0592 1.0607
C11 C 0.4979(2) 0.1334(3) 1.0386(2)
H9 H 0.4848 0.1138 1.0925
C12 C 0.4305(2) 0.4113(3) 1.0763(2)
H10 H 0.4473 0.3930 1.0236
C13 C 0.4910(3) 0.4764(3) 1.1309(2)
H11 H 0.5479 0.5031 1.1163
C14 C 0.4675(3) 0.5029(3) 1.2083(2)
H12 H 0.5094 0.5468 1.2483
C15 C 0.3852(3) 0.4661(3) 1.2264(2)
H13 H 0.3675 0.4842 1.2788
C16 C 0.3263(2) 0.4005(2) 1.16625(18)
C17 C 0.1034(2) 0.2695(3) 1.14444(19)
H14 H 0.0890 0.2862 1.1985
C18 C 0.0376(2) 0.2056(2) 1.0824(2)
C19 C -0.0540(2) 0.1770(3) 1.0971(2)
H15 H -0.0719 0.1973 1.1489
C20 C -0.1173(3) 0.1192(3) 1.0354(3)
H16 H -0.1788 0.0979 1.0447
C21 C -0.0908(2) 0.0928(3) 0.9605(3)
H17 H -0.1340 0.0544 0.9163
C22 C 0.0014(2) 0.1240(3) 0.9508(2)
H18 H 0.0200 0.1052 0.8990
N1 N 0.13230(18) 0.3655(2) 0.90978(15)
N2 N 0.2400(2) 0.3701(2) 0.81738(17)
N3 N 0.30318(18) 0.3116(2) 0.87375(14)
N4 N 0.43178(18) 0.1913(2) 0.98477(16)
N5 N 0.34867(18) 0.37136(19) 1.09234(15)
N6 N 0.2417(2) 0.3641(2) 1.18408(16)
N7 N 0.18209(17) 0.30350(19) 1.12555(14)
N8 N 0.06520(17) 0.1787(2) 1.01040(16)
Cl1 Cl 0.20842(5) 0.08800(6) 0.87069(4)
Cl2 Cl 0.30193(6) 0.09345(7) 1.13682(4)
Ca1 Ca 0.24720(4) 0.22947(5) 1.00095(3)
H19 H 0.254(2) 0.384(2) 0.763(2)
H20 H 0.230(2) 0.377(2) 1.236(2)
C23 C 0.7644(4) 0.2191(5) 0.2654(3)
H21 H 0.7657 0.1558 0.2353
H22 H 0.7297 0.2107 0.3119
H23 H 0.8326 0.2413 0.2913
C24 C 0.7118(4) 0.2941(5) 0.2014(3)
H24 H 0.6427 0.2722 0.1755
H25 H 0.7094 0.3579 0.2318
C25 C 0.7148(3) 0.3715(4) 0.0665(3)
H26 H 0.7060 0.4370 0.0917
H27 H 0.6482 0.3453 0.0373
C26 C 0.7727(3) 0.3831(4) 0.0013(3)
H28 H 0.8414 0.3999 0.0311
H29 H 0.7439 0.4362 -0.0397
H30 H 0.7715 0.3210 -0.0312
O1 O 0.7614(2) 0.3072(2) 0.13402(17)
loop_
_geom_bond_atom_site_label_1
_geom_bond_atom_site_label_2
_geom_bond_site_symmetry_1
_geom_bond_site_symmetry_2
C1 H1 1_555 1_555
C2 C1 1_555 1_555
H2 C2 1_555 1_555
C3 C2 1_555 1_555
H3 C3 1_555 1_555
C4 C3 1_555 1_555
H4 C4 1_555 1_555
C5 C4 1_555 1_555
C6 H5 1_555 1_555
C7 C6 1_555 1_555
C8 C7 1_555 1_555
H6 C8 1_555 1_555
C9 C8 1_555 1_555
H7 C9 1_555 1_555
C10 C9 1_555 1_555
H8 C10 1_555 1_555
C11 C10 1_555 1_555
H9 C11 1_555 1_555
C12 H10 1_555 1_555
C13 C12 1_555 1_555
H11 C13 1_555 1_555
C14 C13 1_555 1_555
H12 C14 1_555 1_555
C15 C14 1_555 1_555
H13 C15 1_555 1_555
C16 C15 1_555 1_555
C17 H14 1_555 1_555
C18 C17 1_555 1_555
C19 C18 1_555 1_555
H15 C19 1_555 1_555
C20 C19 1_555 1_555
H16 C20 1_555 1_555
C21 C20 1_555 1_555
H17 C21 1_555 1_555
C22 C21 1_555 1_555
H18 C22 1_555 1_555
N1 C1 1_555 1_555
N2 C5 1_555 1_555
N3 C6 1_555 1_555
N4 C7 1_555 1_555
N5 C12 1_555 1_555
N6 C16 1_555 1_555
N7 C17 1_555 1_555
N8 C18 1_555 1_555
Cl1 Ca1 1_555 1_555
Cl2 Ca1 1_555 1_555
Ca1 N1 1_555 1_555
H19 N2 1_555 1_555
H20 N6 1_555 1_555
C23 H21 1_555 1_555
H22 C23 1_555 1_555
H23 C23 1_555 1_555
C24 C23 1_555 1_555
H24 C24 1_555 1_555
H25 C24 1_555 1_555
C25 H26 1_555 1_555
H27 C25 1_555 1_555
C26 C25 1_555 1_555
H28 C26 1_555 1_555
H29 C26 1_555 1_555
H30 C26 1_555 1_555
O1 C24 1_555 1_555
C5 N1 1_555 1_555
C11 N4 1_555 1_555
C16 N5 1_555 1_555
C22 N8 1_555 1_555
N2 N3 1_555 1_555
N3 Ca1 1_555 1_555
N4 Ca1 1_555 1_555
N5 Ca1 1_555 1_555
N6 N7 1_555 1_555
N7 Ca1 1_555 1_555
N8 Ca1 1_555 1_555
C25 O1 1_555 1_555

#END
