
#######################################################################
#
#                 Cambridge Crystallographic Data Centre
#                                CCDC 
#
#######################################################################
#
# If this CIF has been generated from an entry in the Cambridge 
# Structural Database, then it will include bibliographic, chemical, 
# crystal, experimental, refinement or atomic coordinate data resulting 
# from the CCDC's data processing and validation procedures.
#
#######################################################################

data_NIWZOJ
_chemical_compound_source        'Fijian echinoderm Cormanthus parvicirrus'
_chemical_formula_moiety         'C18 H18 O6,1.5(H2 O1)'
_chemical_name_systematic        '6-Methoxycomaparvin sesquihydrate'
_chemical_properties_biological  
'tumour necrosis factor-alpha-induced nuclear factor-kappaB activation by inhibition of the enzymatic activity of the kinase IKKbeta'
_symmetry_cell_setting           monoclinic
_symmetry_space_group_name_H-M   'P 21/c'
_symmetry_Int_Tables_number      14
_space_group_name_Hall           '-P 2ybc'
loop_
_symmetry_equiv_pos_site_id
_symmetry_equiv_pos_as_xyz
1 x,y,z
2 -x,1/2+y,1/2-z
3 -x,-y,-z
4 x,1/2-y,1/2+z
_cell_length_a                   22.1769(10)
_cell_length_b                   7.2797(2)
_cell_length_c                   21.9466(9)
_cell_angle_alpha                90
_cell_angle_beta                 109.8017(17)
_cell_angle_gamma                90
_cell_volume                     3333.58
_exptl_crystal_colour            'pale yellow'
_exptl_crystal_description       slab
_cell_formula_units_Z            8
loop_
_atom_site_label
_atom_site_type_symbol
_atom_site_fract_x
_atom_site_fract_y
_atom_site_fract_z
C1 C 0.39722(11) 0.3475(3) 0.03167(11)
C2 C 0.35364(11) 0.3718(3) -0.02757(11)
H1 H 0.3112 0.4067 -0.0317
C3 C 0.37022(11) 0.3458(3) -0.08429(11)
C4 C 0.43562(11) 0.2954(3) -0.07467(10)
C5 C 0.45800(11) 0.2665(3) -0.12823(10)
C6 C 0.51910(11) 0.2111(3) -0.11750(11)
C7 C 0.56313(11) 0.1848(3) -0.05364(10)
C8 C 0.62650(11) 0.1311(3) -0.04410(11)
H2 H 0.6395 0.1090 -0.0805
C9 C 0.66967(11) 0.1105(3) 0.01706(11)
C10 C 0.65174(11) 0.1439(3) 0.07183(11)
H3 H 0.6822 0.1295 0.1141
C11 C 0.59033(11) 0.1973(3) 0.06424(11)
C12 C 0.54354(11) 0.2198(3) 0.00130(10)
C13 C 0.47847(11) 0.2717(3) -0.01211(10)
C14 C 0.38767(11) 0.3670(3) 0.09530(11)
H4 H 0.4199 0.4547 0.1221
H5 H 0.3961 0.2466 0.1176
C15 C 0.32172(11) 0.4321(3) 0.09224(11)
H6 H 0.2891 0.3417 0.0680
H7 H 0.3120 0.5508 0.0689
C16 C 0.31877(12) 0.4554(4) 0.16012(11)
H8 H 0.2760 0.4987 0.1572
H9 H 0.3510 0.5452 0.1841
H10 H 0.3274 0.3371 0.1828
C17 C 0.51291(12) 0.0400(4) -0.21171(11)
H11 H 0.5391 0.0102 -0.2385
H12 H 0.4700 0.0775 -0.2396
H13 H 0.5095 -0.0684 -0.1866
C18 C 0.61763(11) 0.2150(4) 0.17908(10)
H14 H 0.5986 0.2514 0.2116
H15 H 0.6545 0.2941 0.1828
H16 H 0.6318 0.0868 0.1863
O1 O 0.45867(7) 0.2989(2) 0.03991(7)
O2 O 0.32943(8) 0.3643(2) -0.14130(7)
O3 O 0.41715(8) 0.2949(2) -0.18984(7)
H17 H 0.3778(12) 0.316(3) -0.1852(11)
O4 O 0.54240(8) 0.1875(2) -0.16837(7)
O5 O 0.73017(8) 0.0575(3) 0.02401(8)
H18 H 0.7496(13) 0.064(4) 0.0608(13)
O6 O 0.57092(7) 0.2337(2) 0.11569(7)
C19 C 0.12630(11) 0.1097(3) 0.05385(11)
C20 C 0.12942(11) 0.0812(3) -0.00524(11)
H19 H 0.1672 0.0305 -0.0096
C21 C 0.07623(11) 0.1263(3) -0.06205(10)
C22 C 0.02034(11) 0.2028(3) -0.05160(10)
C23 C -0.03561(11) 0.2505(3) -0.10454(10)
C24 C -0.08714(10) 0.3266(3) -0.09372(10)
C25 C -0.08747(10) 0.3561(3) -0.02970(10)
C26 C -0.14119(11) 0.4360(3) -0.01987(11)
H20 H -0.1768 0.4730 -0.0560
C27 C -0.14232(11) 0.4607(3) 0.04165(11)
C28 C -0.09102(11) 0.4013(3) 0.09595(11)
H21 H -0.0931 0.4159 0.1382
C29 C -0.03797(11) 0.3223(3) 0.08801(10)
C30 C -0.03298(10) 0.3014(3) 0.02501(10)
C31 C 0.02024(10) 0.2283(3) 0.01111(10)
C32 C 0.17686(11) 0.0734(3) 0.11748(11)
H22 H 0.1576 0.0001 0.1442
H23 H 0.1903 0.1925 0.1397
C33 C 0.23611(11) -0.0258(3) 0.11542(11)
H24 H 0.2579 0.0500 0.0917
H25 H 0.2235 -0.1434 0.0918
C34 C 0.28207(12) -0.0638(4) 0.18344(12)
H26 H 0.3221 -0.1147 0.1810
H27 H 0.2626 -0.1522 0.2049
H28 H 0.2911 0.0509 0.2082
C35 C -0.14057(12) 0.5037(3) -0.18865(11)
H29 H -0.1837 0.5282 -0.2191
H30 H -0.1128 0.4646 -0.2127
H31 H -0.1232 0.6157 -0.1642
C36 C 0.00695(12) 0.2667(4) 0.20152(11)
H32 H 0.0453 0.2128 0.2332
H33 H -0.0311 0.1992 0.2021
H34 H 0.0033 0.3957 0.2125
O7 O 0.07338(7) 0.1825(2) 0.06272(7)
O8 O 0.07736(7) 0.1012(2) -0.11891(7)
O9 O -0.03741(8) 0.2168(2) -0.16639(7)
H35 H 0.0012(12) 0.164(3) -0.1611(11)
O10 O -0.14359(8) 0.3604(2) -0.14443(7)
O11 O -0.19445(8) 0.5441(2) 0.04850(8)
H36 H -0.1888(12) 0.568(3) 0.0863(12)
O12 O 0.01191(7) 0.2558(2) 0.13853(7)
O13 O -0.20227(9) 0.6643(3) 0.16424(8)
H37 H -0.1946(12) 0.781(4) 0.1658(12)
H38 H -0.2436(13) 0.649(3) 0.1558(12)
O14 O 0.18104(8) 0.5365(3) 0.35578(8)
H39 H 0.1466(13) 0.508(3) 0.3612(12)
H40 H 0.1719(12) 0.636(4) 0.3310(12)
O15 O 0.14895(10) 0.8444(3) 0.27904(9)
H41 H 0.1236(14) 0.837(4) 0.2415(14)
H42 H 0.1657(14) 0.961(4) 0.2883(13)
loop_
_geom_bond_atom_site_label_1
_geom_bond_atom_site_label_2
_geom_bond_site_symmetry_1
_geom_bond_site_symmetry_2
C1 C2 1_555 1_555
C2 H1 1_555 1_555
C3 C2 1_555 1_555
C4 C3 1_555 1_555
C5 C4 1_555 1_555
C6 C5 1_555 1_555
C7 C6 1_555 1_555
C8 C7 1_555 1_555
H2 C8 1_555 1_555
C9 C8 1_555 1_555
C10 C9 1_555 1_555
H3 C10 1_555 1_555
C11 C10 1_555 1_555
C12 C7 1_555 1_555
C13 C4 1_555 1_555
C14 C1 1_555 1_555
H4 C14 1_555 1_555
H5 C14 1_555 1_555
C15 C14 1_555 1_555
H6 C15 1_555 1_555
H7 C15 1_555 1_555
C16 C15 1_555 1_555
H8 C16 1_555 1_555
H9 C16 1_555 1_555
H10 C16 1_555 1_555
C17 H11 1_555 1_555
H12 C17 1_555 1_555
H13 C17 1_555 1_555
C18 H14 1_555 1_555
H15 C18 1_555 1_555
H16 C18 1_555 1_555
O1 C1 1_555 1_555
O2 C3 1_555 1_555
O3 C5 1_555 1_555
H17 O3 1_555 1_555
O4 C6 1_555 1_555
O5 C9 1_555 1_555
H18 O5 1_555 1_555
O6 C11 1_555 1_555
C19 C20 1_555 1_555
C20 H19 1_555 1_555
C21 C20 1_555 1_555
C22 C21 1_555 1_555
C23 C22 1_555 1_555
C24 C23 1_555 1_555
C25 C24 1_555 1_555
C26 C25 1_555 1_555
H20 C26 1_555 1_555
C27 C26 1_555 1_555
C28 C27 1_555 1_555
H21 C28 1_555 1_555
C29 C28 1_555 1_555
C30 C25 1_555 1_555
C31 C22 1_555 1_555
C32 C19 1_555 1_555
H22 C32 1_555 1_555
H23 C32 1_555 1_555
C33 C32 1_555 1_555
H24 C33 1_555 1_555
H25 C33 1_555 1_555
C34 C33 1_555 1_555
H26 C34 1_555 1_555
H27 C34 1_555 1_555
H28 C34 1_555 1_555
C35 H29 1_555 1_555
H30 C35 1_555 1_555
H31 C35 1_555 1_555
C36 H32 1_555 1_555
H33 C36 1_555 1_555
H34 C36 1_555 1_555
O7 C19 1_555 1_555
O8 C21 1_555 1_555
O9 C23 1_555 1_555
H35 O9 1_555 1_555
O10 C24 1_555 1_555
O11 C27 1_555 1_555
H36 O11 1_555 1_555
O12 C29 1_555 1_555
O13 H37 1_555 1_555
H38 O13 1_555 1_555
O14 H39 1_555 1_555
H40 O14 1_555 1_555
O15 H41 1_555 1_555
H42 O15 1_555 1_555
C11 C12 1_555 1_555
C12 C13 1_555 1_555
C13 O1 1_555 1_555
C17 O4 1_555 1_555
C18 O6 1_555 1_555
C29 C30 1_555 1_555
C30 C31 1_555 1_555
C31 O7 1_555 1_555
C35 O10 1_555 1_555
C36 O12 1_555 1_555

#END
