
#######################################################################
#
#                 Cambridge Crystallographic Data Centre
#                                CCDC 
#
#######################################################################
#
# If this CIF has been generated from an entry in the Cambridge 
# Structural Database, then it will include bibliographic, chemical, 
# crystal, experimental, refinement or atomic coordinate data resulting 
# from the CCDC's data processing and validation procedures.
#
#######################################################################

data_NIXLOW
_chemical_formula_moiety         'C23 H28 O10 P2,H2 O1'
_chemical_name_systematic        
'tetraethyl 2-phenyl-4-oxo-4H-chromene-5,7-diyl bis(phosphate) monohydrate'
_symmetry_cell_setting           monoclinic
_symmetry_space_group_name_H-M   'P 21/n'
_symmetry_Int_Tables_number      14
_space_group_name_Hall           '-P 2yn'
loop_
_symmetry_equiv_pos_site_id
_symmetry_equiv_pos_as_xyz
1 x,y,z
2 1/2-x,1/2+y,1/2-z
3 -x,-y,-z
4 1/2+x,1/2-y,1/2+z
_cell_length_a                   7.8919(16)
_cell_length_b                   14.421(3)
_cell_length_c                   23.706(5)
_cell_angle_alpha                90
_cell_angle_beta                 96.36(3)
_cell_angle_gamma                90
_cell_volume                     2681.35
_chemical_melting_point          '83-84 deg.C'
_cell_formula_units_Z            4
loop_
_atom_site_label
_atom_site_type_symbol
_atom_site_fract_x
_atom_site_fract_y
_atom_site_fract_z
P1 P 0.97950(18) 0.70519(10) 0.14171(6)
P2 P 0.90746(19) 0.26063(10) 0.12140(6)
O1 O 0.6843(3) 0.5308(2) -0.06306(12)
O2 O 0.5613(5) 0.2831(2) 0.00410(15)
O3 O 1.0321(4) 0.6270(2) 0.09999(13)
O4 O 0.8014(5) 0.7313(3) 0.1310(2)
O5 O 1.1167(4) 0.7797(2) 0.13571(15)
O6 O 1.0028(7) 0.6725(4) 0.20282(19)
O7 O 0.7581(4) 0.3313(2) 0.10144(13)
O8 O 1.0443(6) 0.2613(3) 0.08515(18)
O9 O 0.9726(4) 0.2879(3) 0.18356(14)
O10 O 0.8092(6) 0.1693(3) 0.12834(15)
C1 C 0.6242(6) 0.5777(3) -0.1730(2)
H1 H 0.6974 0.6129 -0.1481
C2 C 0.5924(7) 0.6037(4) -0.2296(2)
H2 H 0.6456 0.6561 -0.2424
C3 C 0.4843(7) 0.5536(4) -0.2666(2)
H3 H 0.4650 0.5711 -0.3045
C4 C 0.4031(7) 0.4764(4) -0.2475(2)
H4 H 0.3276 0.4427 -0.2725
C5 C 0.4336(6) 0.4493(4) -0.1916(2)
H5 H 0.3784 0.3974 -0.1791
C6 C 0.5464(5) 0.4987(3) -0.15356(18)
C7 C 0.5880(5) 0.4664(3) -0.09484(18)
C8 C 0.5445(5) 0.3858(3) -0.07263(18)
H6 H 0.4747 0.3456 -0.0954
C9 C 0.6005(5) 0.3581(3) -0.01529(19)
C10 C 0.7119(5) 0.4256(3) 0.01725(18)
C11 C 0.7469(5) 0.5101(3) -0.00824(17)
C12 C 0.8477(5) 0.5789(3) 0.01871(19)
H7 H 0.8665 0.6345 0.0006
C13 C 0.9190(5) 0.5619(3) 0.07313(19)
C14 C 0.8899(5) 0.4803(3) 0.10101(19)
H8 H 0.9384 0.4706 0.1381
C15 C 0.7886(5) 0.4138(3) 0.07332(19)
C16 C 1.1202(9) 0.8292(5) 0.0822(3)
H9 H 1.1529 0.7867 0.0536
H10 H 1.0070 0.8524 0.0696
C17 C 1.2381(13) 0.9051(7) 0.0882(4)
H11 H 1.2379 0.9363 0.0524
H12 H 1.3505 0.8820 0.1001
H13 H 1.2048 0.9477 0.1161
C18 C 1.1433(9) 0.6337(7) 0.2258(4)
H14 H 1.2403 0.6709 0.2179
H15 H 1.1551 0.5728 0.2093
C19 C 1.1423(11) 0.6237(6) 0.2925(3)
H16 H 1.2463 0.5949 0.3084
H17 H 1.0471 0.5863 0.3003
H18 H 1.1329 0.6840 0.3090
C20 C 0.8609(7) 0.2972(4) 0.2277(2)
H19 H 0.8168 0.2367 0.2365
H20 H 0.7651 0.3365 0.2144
C21 C 0.9516(8) 0.3369(5) 0.2785(2)
H21 H 0.8756 0.3424 0.3073
H22 H 0.9937 0.3972 0.2700
H23 H 1.0455 0.2975 0.2920
C22 C 0.7506(14) 0.1126(6) 0.0779(3)
H24 H 0.6647 0.1472 0.0542
H25 H 0.8461 0.1027 0.0562
C23 C 0.6845(14) 0.0288(7) 0.0898(4)
H26 H 0.6497 -0.0035 0.0550
H27 H 0.5876 0.0376 0.1104
H28 H 0.7693 -0.0070 0.1123
O11 O 1.2648(10) 0.1541(5) 0.0200(4)
H29 H 1.357(7) 0.181(4) 0.073(2)
H30 H 1.142(11) 0.111(7) 0.021(4)
loop_
_geom_bond_atom_site_label_1
_geom_bond_atom_site_label_2
_geom_bond_site_symmetry_1
_geom_bond_site_symmetry_2
P1 O3 1_555 1_555
P2 O7 1_555 1_555
O1 C7 1_555 1_555
O2 C9 1_555 1_555
O3 C13 1_555 1_555
O4 P1 1_555 1_555
O5 P1 1_555 1_555
O6 P1 1_555 1_555
O7 C15 1_555 1_555
O8 P2 1_555 1_555
O9 P2 1_555 1_555
O10 P2 1_555 1_555
O11 H29 1_555 1_555
C1 H1 1_555 1_555
C2 C1 1_555 1_555
H2 C2 1_555 1_555
C3 C2 1_555 1_555
H3 C3 1_555 1_555
C4 C3 1_555 1_555
H4 C4 1_555 1_555
C5 C4 1_555 1_555
H5 C5 1_555 1_555
C6 C1 1_555 1_555
C7 C6 1_555 1_555
C8 C7 1_555 1_555
H6 C8 1_555 1_555
C9 C8 1_555 1_555
C10 C9 1_555 1_555
C11 O1 1_555 1_555
C12 C11 1_555 1_555
H7 C12 1_555 1_555
C13 C12 1_555 1_555
C14 C13 1_555 1_555
H8 C14 1_555 1_555
C15 C10 1_555 1_555
C16 O5 1_555 1_555
H9 C16 1_555 1_555
H10 C16 1_555 1_555
C17 C16 1_555 1_555
H11 C17 1_555 1_555
H12 C17 1_555 1_555
H13 C17 1_555 1_555
C18 O6 1_555 1_555
H14 C18 1_555 1_555
H15 C18 1_555 1_555
C19 C18 1_555 1_555
H16 C19 1_555 1_555
H17 C19 1_555 1_555
H18 C19 1_555 1_555
C20 O9 1_555 1_555
H19 C20 1_555 1_555
H20 C20 1_555 1_555
C21 C20 1_555 1_555
H21 C21 1_555 1_555
H22 C21 1_555 1_555
H23 C21 1_555 1_555
C22 O10 1_555 1_555
H24 C22 1_555 1_555
H25 C22 1_555 1_555
C23 C22 1_555 1_555
H26 C23 1_555 1_555
H27 C23 1_555 1_555
H28 C23 1_555 1_555
H30 O11 1_555 1_555
C5 C6 1_555 1_555
C10 C11 1_555 1_555
C14 C15 1_555 1_555

#END
