
#######################################################################
#
#                 Cambridge Crystallographic Data Centre
#                                CCDC 
#
#######################################################################
#
# If this CIF has been generated from an entry in the Cambridge 
# Structural Database, then it will include bibliographic, chemical, 
# crystal, experimental, refinement or atomic coordinate data resulting 
# from the CCDC's data processing and validation procedures.
#
#######################################################################

data_NIXMAI
_chemical_formula_moiety         'C17 H15 N1 O3 S1'
_chemical_name_systematic        
'3(S)-N-Acryloyl-3-benzyl-1,2-benzisothiazoline 1,1-dioxide'
_symmetry_cell_setting           tetragonal
_symmetry_space_group_name_H-M   'P 43 21 2'
_symmetry_Int_Tables_number      96
_space_group_name_Hall           'P 4nw 2abw'
loop_
_symmetry_equiv_pos_site_id
_symmetry_equiv_pos_as_xyz
1 x,y,z
2 1/2-y,1/2+x,3/4+z
3 1/2+x,1/2-y,1/4-z
4 -x,-y,1/2+z
5 y,x,-z
6 1/2+y,1/2-x,1/4+z
7 1/2-x,1/2+y,3/4-z
8 -y,-x,1/2-z
_cell_length_a                   10.294(2)
_cell_length_b                   10.294(2)
_cell_length_c                   29.570(6)
_cell_angle_alpha                90
_cell_angle_beta                 90
_cell_angle_gamma                90
_cell_volume                     3133.43
_cell_formula_units_Z            8
loop_
_atom_site_label
_atom_site_type_symbol
_atom_site_fract_x
_atom_site_fract_y
_atom_site_fract_z
S1 S 0.8850(2) 0.5763(3) -0.0057(1)
O1 O 0.9631(6) 0.4646(6) -0.0150(2)
O2 O 0.7891(6) 0.6106(7) -0.0388(2)
O3 O 0.6518(8) 0.5005(9) 0.0918(2)
N1 N 0.8146(8) 0.5629(9) 0.0458(2)
C1 C 1.0357(12) 0.4943(16) 0.1087(3)
C2 C 1.1632(12) 0.5352(13) 0.1047(4)
C3 C 1.2642(13) 0.4529(17) 0.0936(4)
C4 C 1.2333(16) 0.3255(17) 0.0866(5)
C5 C 1.1084(18) 0.2794(14) 0.0907(5)
C6 C 1.0115(14) 0.3655(18) 0.1021(5)
C7 C 0.9295(11) 0.5843(13) 0.1211(3)
C8 C 0.8661(13) 0.6529(13) 0.0805(3)
C9 C 0.9566(13) 0.7373(13) 0.0558(4)
C10 C 0.9765(10) 0.7084(10) 0.0109(3)
C11 C 1.0610(12) 0.7763(12) -0.0178(4)
C12 C 1.1341(13) 0.8772(13) 0.0014(6)
C13 C 1.1140(18) 0.9088(16) 0.0462(7)
C14 C 1.0308(15) 0.8412(15) 0.0732(6)
C15 C 0.7028(12) 0.4916(12) 0.0544(4)
C16 C 0.6551(14) 0.4024(13) 0.0202(4)
C17 C 0.5671(14) 0.3175(14) 0.0284(5)
H1 H 1.1824(12) 0.6252(13) 0.1098(4)
H2 H 1.3519(13) 0.4837(17) 0.0910(4)
H3 H 1.3012(16) 0.2660(17) 0.0785(5)
H4 H 1.0892(18) 0.1893(14) 0.0857(5)
H5 H 0.9243(14) 0.3339(18) 0.1054(5)
H6 H 0.9633(11) 0.6490(13) 0.1413(3)
H7 H 0.8639(11) 0.5366(13) 0.1371(3)
H8 H 0.7957(13) 0.7053(13) 0.0915(3)
H9 H 1.0686(12) 0.7545(12) -0.0492(4)
H10 H 1.1969(13) 0.9235(13) -0.0164(6)
H11 H 1.1605(18) 0.9812(16) 0.0588(7)
H12 H 1.0225(15) 0.8646(15) 0.1045(6)
H13 H 0.6910(14) 0.4071(13) -0.0097(4)
H14 H 0.5299(14) 0.3112(14) 0.0581(5)
H15 H 0.5383(14) 0.2603(14) 0.0048(5)
loop_
_geom_bond_atom_site_label_1
_geom_bond_atom_site_label_2
_geom_bond_site_symmetry_1
_geom_bond_site_symmetry_2
S1 O1 1_555 1_555
O2 S1 1_555 1_555
O3 C15 1_555 1_555
N1 S1 1_555 1_555
C1 C2 1_555 1_555
C2 C3 1_555 1_555
C3 C4 1_555 1_555
C4 C5 1_555 1_555
C5 C6 1_555 1_555
C6 C1 1_555 1_555
C7 C1 1_555 1_555
C8 N1 1_555 1_555
C9 C8 1_555 1_555
C10 S1 1_555 1_555
C11 C10 1_555 1_555
C12 C11 1_555 1_555
C13 C12 1_555 1_555
C14 C9 1_555 1_555
C15 N1 1_555 1_555
C16 C15 1_555 1_555
C17 C16 1_555 1_555
H1 C2 1_555 1_555
H2 C3 1_555 1_555
H3 C4 1_555 1_555
H4 C5 1_555 1_555
H5 C6 1_555 1_555
H6 C7 1_555 1_555
H7 C7 1_555 1_555
H8 C8 1_555 1_555
H9 C11 1_555 1_555
H10 C12 1_555 1_555
H11 C13 1_555 1_555
H12 C14 1_555 1_555
H13 C16 1_555 1_555
H14 C17 1_555 1_555
H15 C17 1_555 1_555
C7 C8 1_555 1_555
C9 C10 1_555 1_555
C13 C14 1_555 1_555

#END
