
#######################################################################
#
#                 Cambridge Crystallographic Data Centre
#                                CCDC 
#
#######################################################################
#
# If this CIF has been generated from an entry in the Cambridge 
# Structural Database, then it will include bibliographic, chemical, 
# crystal, experimental, refinement or atomic coordinate data resulting 
# from the CCDC's data processing and validation procedures.
#
#######################################################################

data_NIXWIC
_chemical_formula_moiety         'C32 H22 Cl4 N2 O4'
_chemical_name_systematic        
2,9-Di-n-butyl-5,6,12,13-tetrachloroisoquinolino[4',5',6':6,5,10]anthra[2,1,9-def]isoquinoline-1,3,8,10(2H,9H)-tetrone
_symmetry_cell_setting           monoclinic
_symmetry_space_group_name_H-M   'C 2/c'
_symmetry_Int_Tables_number      15
_space_group_name_Hall           '-C 2yn'
loop_
_symmetry_equiv_pos_site_id
_symmetry_equiv_pos_as_xyz
1 x,y,z
2 -x,y,1/2-z
3 1/2+x,1/2+y,z
4 1/2-x,1/2+y,1/2-z
5 -x,-y,-z
6 x,-y,1/2+z
7 1/2-x,1/2-y,-z
8 1/2+x,1/2-y,1/2+z
_cell_length_a                   19.123(4)
_cell_length_b                   14.721(3)
_cell_length_c                   12.535(3)
_cell_angle_alpha                90
_cell_angle_beta                 129.20(3)
_cell_angle_gamma                90
_cell_volume                     2734.57
_exptl_crystal_colour            red
_exptl_crystal_description       rod
_cell_formula_units_Z            4
loop_
_atom_site_label
_atom_site_type_symbol
_atom_site_fract_x
_atom_site_fract_y
_atom_site_fract_z
Cl1 Cl 0.09797(4) 0.32077(3) 0.38795(6)
Cl2 Cl -0.03503(4) -0.17816(3) 0.10113(6)
O1 O 0.30117(12) 0.21919(12) 0.25869(19)
O2 O 0.22022(13) -0.06743(11) 0.0867(2)
N1 N 0.26417(13) 0.07401(13) 0.1801(2)
C1 C 0.4044(3) 0.0383(3) 0.0021(5)
H1 H 0.3655 -0.0144 -0.0488
H2 H 0.4457 0.0245 0.1008
H3 H 0.4393 0.0521 -0.0286
C2 C 0.3465(3) 0.1197(3) -0.0243(5)
H4 H 0.3868 0.1705 0.0349
H5 H 0.3124 0.1390 -0.1212
C3 C 0.2799(3) 0.1035(3) 0.0017(5)
H6 H 0.2445 0.1596 -0.0203
H7 H 0.2374 0.0549 -0.0604
C4 C 0.3263(4) 0.0767(6) 0.1492(6)
H8 H 0.3542 0.0160 0.1670
H9 H 0.3752 0.1206 0.2117
C5 C 0.25448(15) 0.15337(15) 0.2312(2)
C6 C 0.18526(14) 0.15188(14) 0.2496(2)
C7 C 0.17340(14) 0.22634(14) 0.3026(2)
H10 H 0.2132 0.2767 0.3356
C8 C 0.10260(14) 0.22781(13) 0.3079(2)
C9 C 0.04223(13) 0.15556(13) 0.2604(2)
C10 C 0.06709(14) 0.07253(13) 0.2338(2)
C11 C 0.02489(14) -0.01129(13) 0.2235(2)
C12 C 0.03400(15) -0.08330(14) 0.1608(2)
C13 C 0.09335(15) -0.08082(14) 0.1318(2)
H11 H 0.0979 -0.1316 0.0898
C14 C 0.14528(15) -0.00497(14) 0.1638(2)
C15 C 0.21118(16) -0.00378(15) 0.1391(2)
C16 C 0.13301(14) 0.07311(13) 0.2162(2)
Cl1A Cl -0.09797(4) 0.32077(3) 0.11205(6)
Cl2A Cl 0.03503(4) -0.17816(3) 0.39887(6)
O1A O -0.30117(12) 0.21919(12) 0.24131(19)
O2A O -0.22022(13) -0.06743(11) 0.4133(2)
N1A N -0.26417(13) 0.07401(13) 0.3199(2)
C1A C -0.4044(3) 0.0383(3) 0.4979(5)
H1A H -0.3655 -0.0144 0.5488
H2A H -0.4457 0.0245 0.3992
H3A H -0.4393 0.0521 0.5286
C2A C -0.3465(3) 0.1197(3) 0.5243(5)
H4A H -0.3868 0.1705 0.4651
H5A H -0.3124 0.1390 0.6212
C3A C -0.2799(3) 0.1035(3) 0.4983(5)
H6A H -0.2445 0.1596 0.5203
H7A H -0.2374 0.0549 0.5604
C4A C -0.3263(4) 0.0767(6) 0.3508(6)
H8A H -0.3542 0.0160 0.3330
H9A H -0.3752 0.1206 0.2883
C5A C -0.25448(15) 0.15337(15) 0.2688(2)
C6A C -0.18526(14) 0.15188(14) 0.2504(2)
C7A C -0.17340(14) 0.22634(14) 0.1974(2)
H10A H -0.2132 0.2767 0.1644
C8A C -0.10260(14) 0.22781(13) 0.1921(2)
C9A C -0.04223(13) 0.15556(13) 0.2396(2)
C10A C -0.06709(14) 0.07253(13) 0.2662(2)
C11A C -0.02489(14) -0.01129(13) 0.2765(2)
C12A C -0.03400(15) -0.08330(14) 0.3392(2)
C13A C -0.09335(15) -0.08082(14) 0.3682(2)
H11A H -0.0979 -0.1316 0.4102
C14A C -0.14528(15) -0.00497(14) 0.3362(2)
C15A C -0.21118(16) -0.00378(15) 0.3609(2)
C16A C -0.13301(14) 0.07311(13) 0.2838(2)
C17? C 0.3472(8) 0.0673(11) 0.1909(12)
H12? H 0.3722 0.0051 0.2207
H13? H 0.3934 0.1100 0.2626
C18? C 0.3294(6) 0.0883(5) 0.0568(9)
H14? H 0.3025 0.1496 0.0241
H15? H 0.2861 0.0436 -0.0144
C19? C 0.4186(5) 0.0841(5) 0.0799(8)
H16? H 0.4608 0.1299 0.1500
H17? H 0.4462 0.0235 0.1166
C20? C 0.4070(6) 0.1009(6) -0.0462(9)
H18? H 0.3662 0.1525 -0.0961
H19? H 0.3813 0.0467 -0.1048
H20? H 0.4657 0.1145 -0.0218
loop_
_geom_bond_atom_site_label_1
_geom_bond_atom_site_label_2
_geom_bond_site_symmetry_1
_geom_bond_site_symmetry_2
Cl1 C8 1_555 1_555
Cl2 C12 1_555 1_555
O1 C5 1_555 1_555
O2 C15 1_555 1_555
N1 C4 1_555 1_555
C1 H1 1_555 1_555
H2 C1 1_555 1_555
H3 C1 1_555 1_555
C2 C1 1_555 1_555
H4 C2 1_555 1_555
H5 C2 1_555 1_555
C3 C2 1_555 1_555
H6 C3 1_555 1_555
H7 C3 1_555 1_555
C4 C3 1_555 1_555
H8 C4 1_555 1_555
H9 C4 1_555 1_555
C5 N1 1_555 1_555
C6 C5 1_555 1_555
C7 C6 1_555 1_555
H10 C7 1_555 1_555
C8 C7 1_555 1_555
C9 C8 1_555 1_555
C10 C9 1_555 1_555
C11 C10 1_555 1_555
C12 C11 1_555 1_555
C13 C12 1_555 1_555
H11 C13 1_555 1_555
C14 C13 1_555 1_555
C15 N1 1_555 1_555
C16 C6 1_555 1_555
Cl1A C8A 1_555 1_555
Cl2A C12A 1_555 1_555
O1A C5A 1_555 1_555
O2A C15A 1_555 1_555
N1A C4A 1_555 1_555
C1A H1A 1_555 1_555
H2A C1A 1_555 1_555
H3A C1A 1_555 1_555
C2A C1A 1_555 1_555
H4A C2A 1_555 1_555
H5A C2A 1_555 1_555
C3A C2A 1_555 1_555
H6A C3A 1_555 1_555
H7A C3A 1_555 1_555
C4A C3A 1_555 1_555
H8A C4A 1_555 1_555
H9A C4A 1_555 1_555
C5A N1A 1_555 1_555
C6A C5A 1_555 1_555
C7A C6A 1_555 1_555
H10A C7A 1_555 1_555
C8A C7A 1_555 1_555
C9A C9 1_555 1_555
C10A C9A 1_555 1_555
C11A C11 1_555 1_555
C12A C11A 1_555 1_555
C13A C12A 1_555 1_555
H11A C13A 1_555 1_555
C14A C13A 1_555 1_555
C15A N1A 1_555 1_555
C16A C6A 1_555 1_555
C10 C16 1_555 1_555
C14 C15 1_555 1_555
C14 C16 1_555 1_555
C8A C9A 1_555 1_555
C10A C11A 1_555 1_555
C10A C16A 1_555 1_555
C14A C15A 1_555 1_555
C14A C16A 1_555 1_555

#END
