
#######################################################################
#
#                 Cambridge Crystallographic Data Centre
#                                CCDC 
#
#######################################################################
#
# If this CIF has been generated from an entry in the Cambridge 
# Structural Database, then it will include bibliographic, chemical, 
# crystal, experimental, refinement or atomic coordinate data resulting 
# from the CCDC's data processing and validation procedures.
#
#######################################################################

data_NIXXOJ
_chemical_formula_moiety         'C19 H17 N1 O1'
_chemical_name_systematic        
1-(3-Methyl-2,5-diphenyl-1H-pyrrol-1-yl)ethanone
_symmetry_cell_setting           monoclinic
_symmetry_space_group_name_H-M   'C 2/c'
_symmetry_Int_Tables_number      15
_space_group_name_Hall           '-C 2yn'
loop_
_symmetry_equiv_pos_site_id
_symmetry_equiv_pos_as_xyz
1 x,y,z
2 -x,y,1/2-z
3 1/2+x,1/2+y,z
4 1/2-x,1/2+y,1/2-z
5 -x,-y,-z
6 x,-y,1/2+z
7 1/2-x,1/2-y,-z
8 1/2+x,1/2-y,1/2+z
_cell_length_a                   19.819(7)
_cell_length_b                   5.930(2)
_cell_length_c                   26.889(10)
_cell_angle_alpha                90
_cell_angle_beta                 102.577(14)
_cell_angle_gamma                90
_cell_volume                     3084.34
_cell_formula_units_Z            8
loop_
_atom_site_label
_atom_site_type_symbol
_atom_site_fract_x
_atom_site_fract_y
_atom_site_fract_z
N1 N 0.5353(2) 1.0481(7) 0.12230(15)
O1 O 0.4674(2) 0.8966(7) 0.05090(13)
C1 C 0.3957(3) 0.8209(10) 0.13700(19)
H1 H 0.3871 0.9614 0.1215
C2 C 0.3412(3) 0.6812(12) 0.1378(2)
H2 H 0.2964 0.7263 0.1227
C3 C 0.3525(4) 0.4754(12) 0.1608(2)
H3 H 0.3155 0.3793 0.1610
C4 C 0.4187(4) 0.4096(10) 0.1836(2)
H4 H 0.4259 0.2711 0.2001
C5 C 0.4745(3) 0.5478(10) 0.18214(18)
H5 H 0.5191 0.4999 0.1968
C6 C 0.4639(3) 0.7613(9) 0.15846(17)
C7 C 0.5234(3) 0.9030(9) 0.1605(2)
C8 C 0.5769(3) 0.9429(9) 0.20128(19)
H6 H 0.5824 0.8722 0.2328
C9 C 0.6223(3) 1.1056(10) 0.1890(2)
C10 C 0.5957(3) 1.1710(9) 0.1399(2)
C11 C 0.6287(3) 1.3107(9) 0.1070(2)
C12 C 0.6550(3) 1.5239(12) 0.1235(3)
H7 H 0.6495 1.5788 0.1548
C13 C 0.6893(4) 1.6547(13) 0.0938(4)
H8 H 0.7072 1.7952 0.1051
C14 C 0.6960(4) 1.5726(19) 0.0480(4)
H9 H 0.7186 1.6594 0.0279
C15 C 0.6704(4) 1.3655(15) 0.0306(3)
H10 H 0.6758 1.3137 -0.0010
C16 C 0.6373(3) 1.2365(10) 0.0594(2)
H11 H 0.6200 1.0964 0.0474
C17 C 0.4903(3) 1.0671(11) 0.07187(19)
C18 C 0.4722(3) 1.2983(9) 0.05244(19)
H12 H 0.4717 1.3038 0.0167
H13 H 0.5059 1.4030 0.0703
H14 H 0.4274 1.3378 0.0578
C19 C 0.6880(3) 1.1793(11) 0.2232(2)
H15 H 0.7241 1.1816 0.2045
H16 H 0.7000 1.0761 0.2513
H17 H 0.6822 1.3277 0.2359
loop_
_geom_bond_atom_site_label_1
_geom_bond_atom_site_label_2
_geom_bond_site_symmetry_1
_geom_bond_site_symmetry_2
N1 C7 1_555 1_555
O1 C17 1_555 1_555
C1 H1 1_555 1_555
C2 C1 1_555 1_555
H2 C2 1_555 1_555
C3 C2 1_555 1_555
H3 C3 1_555 1_555
C4 C3 1_555 1_555
H4 C4 1_555 1_555
C5 C4 1_555 1_555
H5 C5 1_555 1_555
C6 C1 1_555 1_555
C7 C6 1_555 1_555
C8 C7 1_555 1_555
H6 C8 1_555 1_555
C9 C8 1_555 1_555
C10 N1 1_555 1_555
C11 C10 1_555 1_555
C12 C11 1_555 1_555
H7 C12 1_555 1_555
C13 C12 1_555 1_555
H8 C13 1_555 1_555
C14 C13 1_555 1_555
H9 C14 1_555 1_555
C15 C14 1_555 1_555
H10 C15 1_555 1_555
C16 C11 1_555 1_555
H11 C16 1_555 1_555
C17 N1 1_555 1_555
C18 C17 1_555 1_555
H12 C18 1_555 1_555
H13 C18 1_555 1_555
H14 C18 1_555 1_555
C19 C9 1_555 1_555
H15 C19 1_555 1_555
H16 C19 1_555 1_555
H17 C19 1_555 1_555
C5 C6 1_555 1_555
C9 C10 1_555 1_555
C15 C16 1_555 1_555

#END
