
#######################################################################
#
#                 Cambridge Crystallographic Data Centre
#                                CCDC 
#
#######################################################################
#
# If this CIF has been generated from an entry in the Cambridge 
# Structural Database, then it will include bibliographic, chemical, 
# crystal, experimental, refinement or atomic coordinate data resulting 
# from the CCDC's data processing and validation procedures.
#
#######################################################################

data_NIXXUP
_chemical_formula_moiety         'C21 H19 N1 O3'
_chemical_name_systematic        
'Ethyl 1-acetyl-2,5-diphenyl-1H-pyrrole-3-carboxylate'
_symmetry_cell_setting           monoclinic
_symmetry_space_group_name_H-M   'P 21/n'
_symmetry_Int_Tables_number      14
_space_group_name_Hall           '-P 2yn'
loop_
_symmetry_equiv_pos_site_id
_symmetry_equiv_pos_as_xyz
1 x,y,z
2 1/2-x,1/2+y,1/2-z
3 -x,-y,-z
4 1/2+x,1/2-y,1/2+z
_cell_length_a                   13.262(4)
_cell_length_b                   9.481(3)
_cell_length_c                   14.406(5)
_cell_angle_alpha                90
_cell_angle_beta                 100.905(5)
_cell_angle_gamma                90
_cell_volume                     1778.66
_cell_formula_units_Z            4
loop_
_atom_site_label
_atom_site_type_symbol
_atom_site_fract_x
_atom_site_fract_y
_atom_site_fract_z
N1 N 0.96480(12) 0.08424(17) 0.84001(11)
O1 O 0.88911(14) 0.3761(2) 1.06717(15)
O2 O 0.75187(12) 0.26676(18) 0.98751(12)
O3 O 0.99743(13) 0.0364(2) 0.69422(11)
C1 C 0.5824(2) 0.2880(4) 1.0141(2)
H1 H 0.5567 0.3111 0.9490
H2 H 0.5394 0.3305 1.0529
H3 H 0.5823 0.1875 1.0219
C2 C 0.68768(19) 0.3415(3) 1.0421(2)
H4 H 0.6895 0.4420 1.0299
H5 H 0.7123 0.3259 1.1091
C3 C 0.85174(17) 0.2936(3) 1.00773(17)
C4 C 0.91136(15) 0.2147(2) 0.94937(15)
C5 C 1.01685(16) 0.2430(2) 0.95082(15)
H6 H 1.0574 0.3056 0.9915
C6 C 1.04877(15) 0.1647(2) 0.88362(15)
C7 C 0.88034(15) 0.1156(2) 0.87997(14)
C8 C 0.77896(15) 0.0527(2) 0.84173(15)
C9 C 0.73438(18) 0.0677(2) 0.74742(17)
H7 H 0.7675 0.1202 0.7076
C10 C 0.6409(2) 0.0054(3) 0.7119(2)
H8 H 0.6116 0.0157 0.6483
C11 C 0.5913(2) -0.0714(3) 0.7699(3)
H9 H 0.5283 -0.1130 0.7456
C12 C 0.6339(2) -0.0872(3) 0.8629(2)
H10 H 0.6001 -0.1397 0.9022
C13 C 0.72725(18) -0.0254(3) 0.89887(18)
H11 H 0.7558 -0.0363 0.9626
C14 C 1.15268(15) 0.1543(2) 0.86245(15)
C15 C 1.21307(17) 0.2751(3) 0.87026(18)
H12 H 1.1856 0.3609 0.8844
C16 C 1.31340(18) 0.2690(3) 0.8572(2)
H13 H 1.3533 0.3504 0.8637
C17 C 1.35486(19) 0.1438(3) 0.8346(2)
H14 H 1.4223 0.1404 0.8251
C18 C 1.29597(18) 0.0237(3) 0.82599(18)
H15 H 1.3236 -0.0613 0.8106
C19 C 1.19618(17) 0.0285(3) 0.84005(17)
H16 H 1.1573 -0.0537 0.8345
C20 C 0.96410(16) -0.0065(2) 0.75995(16)
C21 C 0.92806(19) -0.1533(2) 0.76910(19)
H17 H 0.8924 -0.1860 0.7087
H18 H 0.8825 -0.1555 0.8136
H19 H 0.9860 -0.2133 0.7910
loop_
_geom_bond_atom_site_label_1
_geom_bond_atom_site_label_2
_geom_bond_site_symmetry_1
_geom_bond_site_symmetry_2
N1 C6 1_555 1_555
O1 C3 1_555 1_555
O2 C2 1_555 1_555
O3 C20 1_555 1_555
C1 H1 1_555 1_555
H2 C1 1_555 1_555
H3 C1 1_555 1_555
C2 C1 1_555 1_555
H4 C2 1_555 1_555
H5 C2 1_555 1_555
C3 O2 1_555 1_555
C4 C3 1_555 1_555
C5 C4 1_555 1_555
H6 C5 1_555 1_555
C6 C5 1_555 1_555
C7 N1 1_555 1_555
C8 C7 1_555 1_555
C9 C8 1_555 1_555
H7 C9 1_555 1_555
C10 C9 1_555 1_555
H8 C10 1_555 1_555
C11 C10 1_555 1_555
H9 C11 1_555 1_555
C12 C11 1_555 1_555
H10 C12 1_555 1_555
C13 C8 1_555 1_555
H11 C13 1_555 1_555
C14 C6 1_555 1_555
C15 C14 1_555 1_555
H12 C15 1_555 1_555
C16 C15 1_555 1_555
H13 C16 1_555 1_555
C17 C16 1_555 1_555
H14 C17 1_555 1_555
C18 C17 1_555 1_555
H15 C18 1_555 1_555
C19 C14 1_555 1_555
H16 C19 1_555 1_555
C20 N1 1_555 1_555
C21 C20 1_555 1_555
H17 C21 1_555 1_555
H18 C21 1_555 1_555
H19 C21 1_555 1_555
C4 C7 1_555 1_555
C12 C13 1_555 1_555
C18 C19 1_555 1_555

#END
