
#######################################################################
#
#                 Cambridge Crystallographic Data Centre
#                                CCDC 
#
#######################################################################
#
# If this CIF has been generated from an entry in the Cambridge 
# Structural Database, then it will include bibliographic, chemical, 
# crystal, experimental, refinement or atomic coordinate data resulting 
# from the CCDC's data processing and validation procedures.
#
#######################################################################

data_NIZGAG
_chemical_formula_moiety         'C24 H19 Br1 F6 N2 O1'
_chemical_name_systematic        
4-(3-(3-Bromophenyl)hexahydro[1,3]oxazolo[3,4-a]pyridin-1-yl)-2,8-bis(trifluoromethyl)quinoline
_symmetry_cell_setting           triclinic
_symmetry_space_group_name_H-M   'P -1'
_symmetry_Int_Tables_number      2
_space_group_name_Hall           '-P 1'
loop_
_symmetry_equiv_pos_site_id
_symmetry_equiv_pos_as_xyz
1 x,y,z
2 -x,-y,-z
_cell_length_a                   9.6035(12)
_cell_length_b                   10.1657(12)
_cell_length_c                   12.6662(15)
_cell_angle_alpha                91.737(6)
_cell_angle_beta                 104.017(6)
_cell_angle_gamma                111.488(6)
_cell_volume                     1106.6
_exptl_crystal_colour            colorless
_exptl_crystal_description       BLOCK
_cell_formula_units_Z            2
loop_
_atom_site_label
_atom_site_type_symbol
_atom_site_fract_x
_atom_site_fract_y
_atom_site_fract_z
Br1 Br 0.78392(5) 0.52165(5) 1.15000(3)
F1 F 0.1805(3) 0.7691(2) 0.5825(2)
F2 F 0.3735(3) 0.8631(2) 0.51425(17)
O1 O 0.5778(3) 0.2412(3) 0.6962(2)
N1 N 0.4323(3) 0.6649(3) 0.6519(2)
F3 F 0.1415(3) 0.7792(2) 0.4091(2)
F4 F 0.6681(3) 0.6771(3) 0.9127(2)
F5 F 0.5557(3) 0.8155(3) 0.85407(19)
C1 C 0.5273(4) 0.4866(4) 0.7227(3)
H1 H 0.5942 0.4633 0.7807
C2 C 0.3365(4) 0.4285(4) 0.5473(3)
N2 N 0.3941(3) 0.1501(3) 0.7866(2)
C3 C 0.2382(4) 0.3366(4) 0.4506(3)
H2 H 0.2363 0.2431 0.4398
C4 C 0.4338(4) 0.2400(4) 0.6268(3)
H3 H 0.4215 0.2047 0.5492
C5 C 0.7923(5) 0.3849(4) 1.0488(3)
F6 F 0.7536(3) 0.8223(3) 0.8029(2)
C6 C 0.5213(4) 0.6236(4) 0.7275(3)
C7 C 0.3401(4) 0.5690(4) 0.5620(3)
C8 C 0.1456(4) 0.5187(4) 0.3872(3)
H4 H 0.0791 0.5476 0.3330
C9 C 0.3084(4) 0.1316(4) 0.6712(3)
H5 H 0.2874 0.0337 0.6375
C10 C 0.6664(4) 0.3186(4) 0.9599(3)
H6 H 0.5757 0.3393 0.9500
C11 C 0.6736(4) 0.2203(4) 0.8843(3)
C12 C 0.2402(4) 0.6101(4) 0.4787(3)
C13 C 0.4353(4) 0.3887(4) 0.6333(3)
C14 C 0.8066(5) 0.1908(4) 0.9009(3)
H7 H 0.8112 0.1228 0.8501
C15 C 0.2352(5) 0.7543(4) 0.4962(3)
C16 C 0.1542(4) 0.1457(4) 0.6602(3)
H8 H 0.0957 0.1288 0.5817
H9 H 0.1720 0.2432 0.6905
C17 C 0.9286(5) 0.3595(4) 1.0653(3)
H10 H 1.0162 0.4093 1.1258
C18 C 0.1461(4) 0.3803(4) 0.3726(3)
H11 H 0.0813 0.3173 0.3076
C19 C 0.6234(5) 0.7344(4) 0.8236(3)
C20 C 0.3111(5) 0.0392(4) 0.8459(3)
H12 H 0.3730 0.0533 0.9232
H13 H 0.2942 -0.0562 0.8116
C21 C 0.5433(4) 0.1538(4) 0.7813(3)
H14 H 0.5350 0.0554 0.7591
C22 C 0.1552(5) 0.0497(4) 0.8409(3)
H15 H 0.0955 -0.0269 0.8780
H16 H 0.1736 0.1425 0.8806
C23 C 0.9323(5) 0.2590(4) 0.9902(3)
H17 H 1.0223 0.2372 1.0006
C24 C 0.0605(5) 0.0362(4) 0.7228(3)
H18 H -0.0358 0.0512 0.7224
H19 H 0.0304 -0.0611 0.6857
loop_
_geom_bond_atom_site_label_1
_geom_bond_atom_site_label_2
_geom_bond_site_symmetry_1
_geom_bond_site_symmetry_2
Br1 C5 1_555 1_555
F1 C15 1_555 1_555
F2 C15 1_555 1_555
O1 C4 1_555 1_555
N1 C6 1_555 1_555
F3 C15 1_555 1_555
F4 C19 1_555 1_555
F5 C19 1_555 1_555
C1 H1 1_555 1_555
C2 C3 1_555 1_555
N2 C9 1_555 1_555
C3 H2 1_555 1_555
C4 H3 1_555 1_555
C5 C10 1_555 1_555
F6 C19 1_555 1_555
C6 C1 1_555 1_555
C7 N1 1_555 1_555
C8 H4 1_555 1_555
C9 C4 1_555 1_555
H5 C9 1_555 1_555
C10 H6 1_555 1_555
C11 C10 1_555 1_555
C12 C7 1_555 1_555
C13 C1 1_555 1_555
C14 C11 1_555 1_555
H7 C14 1_555 1_555
C15 C12 1_555 1_555
C16 C9 1_555 1_555
H8 C16 1_555 1_555
H9 C16 1_555 1_555
C17 C5 1_555 1_555
H10 C17 1_555 1_555
C18 C3 1_555 1_555
H11 C18 1_555 1_555
C19 C6 1_555 1_555
C20 N2 1_555 1_555
H12 C20 1_555 1_555
H13 C20 1_555 1_555
C21 O1 1_555 1_555
H14 C21 1_555 1_555
C22 C20 1_555 1_555
H15 C22 1_555 1_555
H16 C22 1_555 1_555
C23 C14 1_555 1_555
H17 C23 1_555 1_555
C24 C16 1_555 1_555
H18 C24 1_555 1_555
H19 C24 1_555 1_555
C2 C7 1_555 1_555
C2 C13 1_555 1_555
N2 C21 1_555 1_555
C4 C13 1_555 1_555
C8 C12 1_555 1_555
C8 C18 1_555 1_555
C11 C21 1_555 1_555
C17 C23 1_555 1_555
C22 C24 1_555 1_555

#END
