
#######################################################################
#
#                 Cambridge Crystallographic Data Centre
#                                CCDC 
#
#######################################################################
#
# If this CIF has been generated from an entry in the Cambridge 
# Structural Database, then it will include bibliographic, chemical, 
# crystal, experimental, refinement or atomic coordinate data resulting 
# from the CCDC's data processing and validation procedures.
#
#######################################################################

data_NIZGEK
_chemical_formula_moiety         'C24 H19 Cl1 F6 N2 O1'
_chemical_name_systematic        
4-(3-(4-Chlorophenyl)hexahydro[1,3]oxazolo[3,4-a]pyridin-1-yl)-2,8-bis(trifluoromethyl)quinoline
_symmetry_cell_setting           triclinic
_symmetry_space_group_name_H-M   'P -1'
_symmetry_Int_Tables_number      2
_space_group_name_Hall           '-P 1'
loop_
_symmetry_equiv_pos_site_id
_symmetry_equiv_pos_as_xyz
1 x,y,z
2 -x,-y,-z
_cell_length_a                   8.1477(2)
_cell_length_b                   11.2664(2)
_cell_length_c                   13.4177(4)
_cell_angle_alpha                69.1360(10)
_cell_angle_beta                 79.4180(10)
_cell_angle_gamma                71.1510(10)
_cell_volume                     1085.92
_exptl_crystal_colour            colorless
_exptl_crystal_description       block
_cell_formula_units_Z            2
loop_
_atom_site_label
_atom_site_type_symbol
_atom_site_fract_x
_atom_site_fract_y
_atom_site_fract_z
Cl1 Cl 0.50518(7) 0.71489(6) 0.20417(4)
F1 F -0.53310(13) 1.63190(11) -0.30978(9)
F2 F -0.34995(14) 1.74678(10) -0.37597(9)
F3 F 0.05307(18) 1.29460(12) -0.04553(9)
F4 F -0.54650(15) 1.76469(11) -0.47121(10)
O1 O 0.28118(15) 1.06171(11) -0.29204(10)
N1 N -0.17846(18) 1.47617(14) -0.27485(11)
F5 F 0.0378(2) 1.49635(13) -0.13357(11)
C1 C 0.0342(2) 1.25487(16) -0.33523(13)
C2 C 0.0477(2) 1.26870(16) -0.23977(13)
H1 H 0.1287 1.2033 -0.1914
C3 C -0.1912(2) 1.46554(16) -0.37111(13)
C4 C -0.0844(2) 1.35854(15) -0.40668(13)
F6 F -0.19434(17) 1.44028(16) -0.06089(11)
N2 N 0.08809(18) 0.94110(14) -0.24411(11)
C5 C -0.0605(2) 1.38135(16) -0.21496(13)
C6 C -0.3160(2) 1.56770(16) -0.43878(14)
C7 C -0.0986(2) 1.36264(16) -0.51212(13)
H2 H -0.0245 1.2938 -0.5383
C8 C -0.3287(2) 1.56662(17) -0.53872(14)
H3 H -0.4130 1.6354 -0.5830
C9 C 0.1453(2) 1.13303(16) -0.36373(13)
H4 H 0.1985 1.1608 -0.4387
C10 C -0.4355(2) 1.67678(17) -0.39866(14)
C11 C -0.2171(2) 1.46385(17) -0.57635(14)
H5 H -0.2243 1.4650 -0.6466
C12 C 0.0476(2) 0.81637(17) -0.22281(15)
H6 H 0.0810 0.7560 -0.1508
H7 H 0.1139 0.7728 -0.2761
C13 C -0.0426(2) 1.40328(18) -0.11303(15)
C14 C 0.0497(2) 1.02957(16) -0.35219(13)
H8 H 0.1096 0.9801 -0.4036
C15 C 0.3271(2) 0.87472(17) -0.12913(14)
C16 C 0.2880(3) 0.88305(19) 0.05148(15)
H9 H 0.2256 0.9225 0.1042
C17 C -0.1451(2) 1.07094(16) -0.36244(15)
H10 H -0.1715 1.1292 -0.4362
H11 H -0.2074 1.1207 -0.3125
C18 C -0.1465(2) 0.84512(18) -0.22933(15)
H12 H -0.2114 0.8790 -0.1705
H13 H -0.1734 0.7621 -0.2203
C19 C 0.2694(2) 0.92820(16) -0.24091(14)
H14 H 0.3433 0.8705 -0.2837
C20 C 0.2345(2) 0.93129(18) -0.05138(15)
H15 H 0.1333 1.0039 -0.0690
C21 C 0.4701(2) 0.76529(18) -0.10149(15)
H16 H 0.5312 0.7242 -0.1535
C22 C -0.2053(2) 0.94666(18) -0.33624(15)
H17 H -0.3338 0.9723 -0.3341
H18 H -0.1579 0.9061 -0.3937
C23 C 0.4351(2) 0.77546(19) 0.07560(15)
C24 C 0.5254(2) 0.7148(2) 0.00126(16)
H19 H 0.6236 0.6398 0.0198
loop_
_geom_bond_atom_site_label_1
_geom_bond_atom_site_label_2
_geom_bond_site_symmetry_1
_geom_bond_site_symmetry_2
Cl1 C23 1_555 1_555
F1 C10 1_555 1_555
F2 C10 1_555 1_555
F3 C13 1_555 1_555
F4 C10 1_555 1_555
O1 C9 1_555 1_555
N1 C3 1_555 1_555
F5 C13 1_555 1_555
C1 C2 1_555 1_555
C2 H1 1_555 1_555
C3 C4 1_555 1_555
C4 C1 1_555 1_555
F6 C13 1_555 1_555
N2 C12 1_555 1_555
C5 N1 1_555 1_555
C6 C3 1_555 1_555
C7 C4 1_555 1_555
H2 C7 1_555 1_555
C8 C6 1_555 1_555
H3 C8 1_555 1_555
C9 C1 1_555 1_555
H4 C9 1_555 1_555
C10 C6 1_555 1_555
C11 C7 1_555 1_555
H5 C11 1_555 1_555
C12 H6 1_555 1_555
H7 C12 1_555 1_555
C13 C5 1_555 1_555
C14 N2 1_555 1_555
H8 C14 1_555 1_555
C15 C19 1_555 1_555
C16 H9 1_555 1_555
C17 C14 1_555 1_555
H10 C17 1_555 1_555
H11 C17 1_555 1_555
C18 C12 1_555 1_555
H12 C18 1_555 1_555
H13 C18 1_555 1_555
C19 O1 1_555 1_555
H14 C19 1_555 1_555
C20 C15 1_555 1_555
H15 C20 1_555 1_555
C21 C15 1_555 1_555
H16 C21 1_555 1_555
C22 C17 1_555 1_555
H17 C22 1_555 1_555
H18 C22 1_555 1_555
C23 C16 1_555 1_555
C24 C21 1_555 1_555
H19 C24 1_555 1_555
C2 C5 1_555 1_555
N2 C19 1_555 1_555
C8 C11 1_555 1_555
C9 C14 1_555 1_555
C16 C20 1_555 1_555
C18 C22 1_555 1_555
C23 C24 1_555 1_555

#END
