
#######################################################################
#
#                 Cambridge Crystallographic Data Centre
#                                CCDC 
#
#######################################################################
#
# If this CIF has been generated from an entry in the Cambridge 
# Structural Database, then it will include bibliographic, chemical, 
# crystal, experimental, refinement or atomic coordinate data resulting 
# from the CCDC's data processing and validation procedures.
#
#######################################################################

data_NIZJUD
_chemical_formula_moiety         'C24 H22 B1 N1 O2'
_chemical_name_systematic        
6-(4,4,5,5-Tetramethyl-1,3,2-dioxaborolan-2-yl)indolo[3,2,1-jk]carbazole
_symmetry_cell_setting           rhombohedral
_symmetry_space_group_name_H-M   'R -3'
_symmetry_Int_Tables_number      148
_space_group_name_Hall           '-R 3'
loop_
_symmetry_equiv_pos_site_id
_symmetry_equiv_pos_as_xyz
1 x,y,z
2 -y,x-y,z
3 -x+y,-x,z
4 2/3+x,1/3+y,1/3+z
5 2/3-y,1/3+x-y,1/3+z
6 2/3-x+y,1/3-x,1/3+z
7 1/3+x,2/3+y,2/3+z
8 1/3-y,2/3+x-y,2/3+z
9 1/3-x+y,2/3-x,2/3+z
10 -x,-y,-z
11 y,-x+y,-z
12 x-y,x,-z
13 1/3-x,2/3-y,2/3-z
14 1/3+y,2/3-x+y,2/3-z
15 1/3+x-y,2/3+x,2/3-z
16 2/3-x,1/3-y,1/3-z
17 2/3+y,1/3-x+y,1/3-z
18 2/3+x-y,1/3+x,1/3-z
_cell_length_a                   30.3853(6)
_cell_length_b                   30.3853(6)
_cell_length_c                   10.5350(2)
_cell_angle_alpha                90
_cell_angle_beta                 90
_cell_angle_gamma                120
_cell_volume                     8423.49
_exptl_crystal_colour            colorless
_exptl_crystal_description       pinacoid
_cell_formula_units_Z            18
loop_
_atom_site_label
_atom_site_type_symbol
_atom_site_fract_x
_atom_site_fract_y
_atom_site_fract_z
N1 N 0.152941(19) 0.30110(2) 0.13260(5)
O1 O 0.038354(18) 0.162402(19) 0.60821(4)
O2 O 0.119023(18) 0.182624(18) 0.66624(4)
C1 C 0.10885(2) 0.29567(2) 0.07506(5)
C2 C 0.06612(2) 0.25860(2) 0.14611(5)
C3 C 0.01742(2) 0.24632(3) 0.10765(6)
C4 C 0.01156(3) 0.27009(3) 0.00100(6)
C5 C 0.05385(3) 0.30646(3) -0.06625(6)
C6 C 0.10320(3) 0.31997(2) -0.03025(6)
C7 C 0.20610(2) 0.32984(2) 0.13647(5)
C8 C 0.23968(2) 0.36618(2) 0.05202(6)
C9 C 0.29125(2) 0.38947(2) 0.07981(6)
C10 C 0.30853(2) 0.37630(2) 0.18861(6)
C11 C 0.27485(2) 0.33937(2) 0.27221(6)
C12 C 0.22289(2) 0.31520(2) 0.24769(5)
C13 C 0.13781(2) 0.27046(2) 0.23711(5)
C14 C 0.17731(2) 0.27618(2) 0.31394(5)
C15 C 0.16084(2) 0.24697(2) 0.42525(5)
C16 C 0.10792(2) 0.21613(2) 0.44855(5)
C17 C 0.07032(2) 0.21366(2) 0.36417(6)
C18 C 0.08575(2) 0.24260(2) 0.25309(5)
C19 C 0.03199(2) 0.13197(2) 0.72028(6)
C20 C 0.08707(2) 0.15785(2) 0.77724(5)
C21 C -0.00790(3) 0.13298(3) 0.80499(7)
C22 C 0.01311(3) 0.07816(3) 0.67239(7)
C23 C 0.09739(3) 0.19936(3) 0.87313(6)
C24 C 0.10235(3) 0.12107(3) 0.83102(7)
B1 B 0.08890(3) 0.18668(3) 0.57558(6)
H1 H -0.01179 0.22175 0.154073
H2 H -0.021946 0.261374 -0.026593
H3 H 0.04881 0.322502 -0.138896
H4 H 0.132149 0.345082 -0.076432
H5 H 0.227735 0.37493 -0.022888
H6 H 0.315378 0.414974 0.023515
H7 H 0.344328 0.393098 0.205854
H8 H 0.28731 0.330613 0.346157
H9 H 0.185099 0.247828 0.485046
H10 H 0.034868 0.19245 0.383157
H11 H -0.010586 0.115221 0.882557
H12 H 0.001763 0.167575 0.823801
H13 H -0.040111 0.116794 0.762204
H14 H 0.005483 0.055677 0.74339
H15 H -0.017008 0.067303 0.622414
H16 H 0.03895 0.077584 0.62119
H17 H 0.079834 0.18418 0.950842
H18 H 0.13324 0.219044 0.889243
H19 H 0.085612 0.221049 0.839804
H20 H 0.078948 0.101033 0.896664
H21 H 0.101759 0.099117 0.764679
H22 H 0.136013 0.139787 0.865732
loop_
_geom_bond_atom_site_label_1
_geom_bond_atom_site_label_2
_geom_bond_site_symmetry_1
_geom_bond_site_symmetry_2
N1 C1 1_555 1_555
O1 C19 1_555 1_555
O2 C20 1_555 1_555
C1 C2 1_555 1_555
C2 C3 1_555 1_555
C3 C4 1_555 1_555
C4 C5 1_555 1_555
C5 C6 1_555 1_555
C6 C1 1_555 1_555
C7 N1 1_555 1_555
C8 C7 1_555 1_555
C9 C8 1_555 1_555
C10 C9 1_555 1_555
C11 C10 1_555 1_555
C12 C7 1_555 1_555
C13 N1 1_555 1_555
C14 C12 1_555 1_555
C15 C14 1_555 1_555
C16 C15 1_555 1_555
C17 C16 1_555 1_555
C18 C2 1_555 1_555
C19 C20 1_555 1_555
C20 C23 1_555 1_555
C21 C19 1_555 1_555
C22 C19 1_555 1_555
C23 H17 1_555 1_555
C24 C20 1_555 1_555
B1 O1 1_555 1_555
H1 C3 1_555 1_555
H2 C4 1_555 1_555
H3 C5 1_555 1_555
H4 C6 1_555 1_555
H5 C8 1_555 1_555
H6 C9 1_555 1_555
H7 C10 1_555 1_555
H8 C11 1_555 1_555
H9 C15 1_555 1_555
H10 C17 1_555 1_555
H11 C21 1_555 1_555
H12 C21 1_555 1_555
H13 C21 1_555 1_555
H14 C22 1_555 1_555
H15 C22 1_555 1_555
H16 C22 1_555 1_555
H18 C23 1_555 1_555
H19 C23 1_555 1_555
H20 C24 1_555 1_555
H21 C24 1_555 1_555
H22 C24 1_555 1_555
O2 B1 1_555 1_555
C11 C12 1_555 1_555
C13 C14 1_555 1_555
C13 C18 1_555 1_555
C16 B1 1_555 1_555
C17 C18 1_555 1_555

#END
