
#######################################################################
#
#                 Cambridge Crystallographic Data Centre
#                                CCDC 
#
#######################################################################
#
# If this CIF has been generated from an entry in the Cambridge 
# Structural Database, then it will include bibliographic, chemical, 
# crystal, experimental, refinement or atomic coordinate data resulting 
# from the CCDC's data processing and validation procedures.
#
#######################################################################

data_NOCZUB01
_chemical_formula_moiety         'C20 H19 Cl2 N1 O1'
_chemical_name_systematic        
2,4-bis(4-Chlorophenyl)-3-azabicyclo(3.3.1)nonan-9-one
_symmetry_cell_setting           monoclinic
_symmetry_space_group_name_H-M   'P 21/n'
_symmetry_Int_Tables_number      14
_space_group_name_Hall           '-P 2yn'
loop_
_symmetry_equiv_pos_site_id
_symmetry_equiv_pos_as_xyz
1 x,y,z
2 1/2-x,1/2+y,1/2-z
3 -x,-y,-z
4 1/2+x,1/2-y,1/2+z
_cell_length_a                   16.2589(4)
_cell_length_b                   6.8983(2)
_cell_length_c                   18.1291(5)
_cell_angle_alpha                90
_cell_angle_beta                 116.149(1)
_cell_angle_gamma                90
_cell_volume                     1825.23
_exptl_crystal_colour            colorless
_exptl_crystal_description       rectangular
_cell_formula_units_Z            4
_exptl_crystal_recrystallization_method ethanol
loop_
_atom_site_label
_atom_site_type_symbol
_atom_site_fract_x
_atom_site_fract_y
_atom_site_fract_z
C1 C 0.33305(11) 0.1260(2) 0.01759(10)
H1 H 0.3907 0.1019 0.0665
C2 C 0.29289(11) -0.0738(2) -0.02171(10)
H2 H 0.3380 -0.1414 -0.0345
C3 C 0.20110(12) -0.0678(3) -0.09929(11)
H3 H 0.2079 0.0135 -0.1399
H4 H 0.1864 -0.1977 -0.1219
C4 C 0.12129(12) 0.0082(3) -0.08496(12)
H5 H 0.1268 0.1478 -0.0779
H6 H 0.0643 -0.0190 -0.1330
C5 C 0.11811(12) -0.0827(3) -0.00979(12)
H7 H 0.0944 -0.2136 -0.0235
H8 H 0.0756 -0.0096 0.0037
C6 C 0.21147(11) -0.0905(2) 0.06658(11)
H9 H 0.2052 -0.1688 0.1090
C7 C 0.25223(11) 0.1109(2) 0.10384(10)
H10 H 0.3106 0.0893 0.1524
C8 C 0.27891(11) -0.1870(2) 0.04285(10)
C9 C 0.35398(11) 0.2533(2) -0.03978(10)
C10 C 0.29057(13) 0.3777(3) -0.09592(12)
H11 H 0.2316 0.3836 -0.1000
C11 C 0.31400(15) 0.4943(3) -0.14645(12)
H12 H 0.2710 0.5776 -0.1841
C12 C 0.40091(16) 0.4852(3) -0.14022(12)
C13 C 0.46439(15) 0.3618(3) -0.08633(14)
H13 H 0.5228 0.3545 -0.0835
C14 C 0.44093(13) 0.2474(3) -0.03588(13)
H14 H 0.4845 0.1646 0.0015
C15 C 0.18866(11) 0.2164(2) 0.13081(10)
C16 C 0.17785(12) 0.1464(3) 0.19803(11)
H15 H 0.2125 0.0407 0.2271
C17 C 0.11692(13) 0.2301(3) 0.22247(11)
H16 H 0.1097 0.1804 0.2670
C18 C 0.06701(12) 0.3877(3) 0.18023(12)
C19 C 0.07748(13) 0.4646(3) 0.11480(12)
H17 H 0.0446 0.5740 0.0877
C20 C 0.13769(12) 0.3765(2) 0.08997(11)
H18 H 0.1440 0.4259 0.0450
Cl1 Cl -0.01108(4) 0.49239(10) 0.21027(4)
Cl2 Cl 0.43337(5) 0.64178(11) -0.19813(4)
N1 N 0.27045(9) 0.2229(2) 0.04419(9)
O1 O 0.31840(9) -0.33704(16) 0.07301(8)
H19 H 0.2917(13) 0.334(3) 0.0645(12)
loop_
_geom_bond_atom_site_label_1
_geom_bond_atom_site_label_2
_geom_bond_site_symmetry_1
_geom_bond_site_symmetry_2
C1 H1 1_555 1_555
C2 C1 1_555 1_555
H2 C2 1_555 1_555
C3 C2 1_555 1_555
H3 C3 1_555 1_555
H4 C3 1_555 1_555
C4 C3 1_555 1_555
H5 C4 1_555 1_555
H6 C4 1_555 1_555
C5 C4 1_555 1_555
H7 C5 1_555 1_555
H8 C5 1_555 1_555
C6 C5 1_555 1_555
H9 C6 1_555 1_555
C7 C6 1_555 1_555
H10 C7 1_555 1_555
C8 C2 1_555 1_555
C9 C1 1_555 1_555
C10 C9 1_555 1_555
H11 C10 1_555 1_555
C11 C10 1_555 1_555
H12 C11 1_555 1_555
C12 C11 1_555 1_555
C13 C12 1_555 1_555
H13 C13 1_555 1_555
C14 C9 1_555 1_555
H14 C14 1_555 1_555
C15 C7 1_555 1_555
C16 C15 1_555 1_555
H15 C16 1_555 1_555
C17 C16 1_555 1_555
H16 C17 1_555 1_555
C18 C17 1_555 1_555
C19 C18 1_555 1_555
H17 C19 1_555 1_555
C20 C15 1_555 1_555
H18 C20 1_555 1_555
Cl1 C18 1_555 1_555
Cl2 C12 1_555 1_555
N1 C1 1_555 1_555
O1 C8 1_555 1_555
H19 N1 1_555 1_555
C6 C8 1_555 1_555
C7 N1 1_555 1_555
C13 C14 1_555 1_555
C19 C20 1_555 1_555

#END
