
#######################################################################
#
#                 Cambridge Crystallographic Data Centre
#                                CCDC 
#
#######################################################################
#
# If this CIF has been generated from an entry in the Cambridge 
# Structural Database, then it will include bibliographic, chemical, 
# crystal, experimental, refinement or atomic coordinate data resulting 
# from the CCDC's data processing and validation procedures.
#
#######################################################################

data_NODPUS
_chemical_formula_moiety         'C30 H22 N2 S1'
_chemical_name_systematic        
5,6-bis(p-Tolyl)di-indolo(3,2-b:4,5-b')thiophene
_symmetry_cell_setting           monoclinic
_symmetry_space_group_name_H-M   'P 21/c'
_symmetry_Int_Tables_number      14
_space_group_name_Hall           '-P 2ybc'
loop_
_symmetry_equiv_pos_site_id
_symmetry_equiv_pos_as_xyz
1 x,y,z
2 -x,1/2+y,1/2-z
3 -x,-y,-z
4 x,1/2-y,1/2+z
_cell_length_a                   9.913(2)
_cell_length_b                   23.138(5)
_cell_length_c                   9.828(2)
_cell_angle_alpha                90
_cell_angle_beta                 95.88(3)
_cell_angle_gamma                90
_cell_volume                     2242.36
_exptl_crystal_colour            colorless
_exptl_crystal_description       block
_cell_formula_units_Z            4
_exptl_crystal_recrystallization_method hexane/sublimation
loop_
_atom_site_label
_atom_site_type_symbol
_atom_site_fract_x
_atom_site_fract_y
_atom_site_fract_z
S1 S 0.44570(5) 0.44419(2) 0.87647(5)
N1 N 0.29130(15) 0.29307(7) 0.79525(15)
N2 N 0.64089(15) 0.29983(7) 0.92112(15)
C1 C 0.17205(18) 0.32341(8) 0.75474(18)
C2 C 0.04664(18) 0.30130(9) 0.70244(18)
H1 H 0.0324 0.2617 0.6933
C3 C -0.0565(2) 0.34055(9) 0.66435(19)
H2 H -0.1409 0.3270 0.6279
C4 C -0.0355(2) 0.40018(9) 0.68000(19)
H3 H -0.1066 0.4254 0.6543
C5 C 0.08858(19) 0.42226(9) 0.73290(19)
H4 H 0.1013 0.4619 0.7432
C6 C 0.19445(18) 0.38373(8) 0.77059(18)
C7 C 0.33418(19) 0.38867(8) 0.82410(18)
C8 C 0.39054(18) 0.33371(8) 0.83832(18)
C9 C 0.52957(18) 0.33646(8) 0.89289(18)
C10 C 0.57123(19) 0.39321(8) 0.91785(18)
C11 C 0.71361(19) 0.39327(8) 0.96441(18)
C12 C 0.80973(19) 0.43568(9) 1.00684(19)
H5 H 0.7855 0.4745 1.0077
C13 C 0.9414(2) 0.41858(9) 1.04734(19)
H6 H 1.0060 0.4463 1.0766
C14 C 0.9794(2) 0.36001(9) 1.04505(19)
H7 H 1.0688 0.3497 1.0725
C15 C 0.88617(19) 0.31742(9) 1.00271(18)
H8 H 0.9116 0.2788 1.0006
C16 C 0.75302(18) 0.33446(8) 0.96337(18)
C17 C 0.29337(18) 0.23115(8) 0.80193(18)
C18 C 0.2247(2) 0.20321(9) 0.89940(19)
H9 H 0.1845 0.2248 0.9642
C19 C 0.2159(2) 0.14360(9) 0.9007(2)
H10 H 0.1685 0.1256 0.9658
C20 C 0.2770(2) 0.10993(9) 0.80598(19)
C21 C 0.3474(2) 0.13844(9) 0.71046(19)
H11 H 0.3910 0.1170 0.6480
C22 C 0.35370(19) 0.19824(8) 0.70688(19)
H12 H 0.3987 0.2164 0.6403
C23 C 0.2671(2) 0.04515(10) 0.8065(2)
H13 H 0.3533 0.0290 0.8402
H14 H 0.2418 0.0316 0.7151
H15 H 0.1998 0.0334 0.8645
C24 C 0.64683(18) 0.23793(8) 0.91265(18)
C25 C 0.58326(19) 0.20305(8) 1.00127(19)
H16 H 0.5346 0.2197 1.0672
C26 C 0.5917(2) 0.14356(9) 0.9922(2)
H17 H 0.5461 0.1207 1.0504
C27 C 0.6670(2) 0.11731(9) 0.8979(2)
C28 C 0.7347(2) 0.15299(9) 0.8119(2)
H18 H 0.7880 0.1364 0.7497
C29 C 0.72340(19) 0.21247(9) 0.81808(19)
H19 H 0.7672 0.2355 0.7587
C30 C 0.6765(3) 0.05292(10) 0.8846(2)
H20 H 0.6137 0.0349 0.9394
H21 H 0.7670 0.0406 0.9152
H22 H 0.6549 0.0421 0.7906
loop_
_geom_bond_atom_site_label_1
_geom_bond_atom_site_label_2
_geom_bond_site_symmetry_1
_geom_bond_site_symmetry_2
S1 C7 1_555 1_555
N1 C1 1_555 1_555
N2 C9 1_555 1_555
C1 C2 1_555 1_555
C2 H1 1_555 1_555
C3 C2 1_555 1_555
H2 C3 1_555 1_555
C4 C3 1_555 1_555
H3 C4 1_555 1_555
C5 C4 1_555 1_555
H4 C5 1_555 1_555
C6 C1 1_555 1_555
C7 C6 1_555 1_555
C8 N1 1_555 1_555
C9 C8 1_555 1_555
C10 S1 1_555 1_555
C11 C10 1_555 1_555
C12 C11 1_555 1_555
H5 C12 1_555 1_555
C13 C12 1_555 1_555
H6 C13 1_555 1_555
C14 C13 1_555 1_555
H7 C14 1_555 1_555
C15 C14 1_555 1_555
H8 C15 1_555 1_555
C16 N2 1_555 1_555
C17 N1 1_555 1_555
C18 C17 1_555 1_555
H9 C18 1_555 1_555
C19 C18 1_555 1_555
H10 C19 1_555 1_555
C20 C19 1_555 1_555
C21 C20 1_555 1_555
H11 C21 1_555 1_555
C22 C17 1_555 1_555
H12 C22 1_555 1_555
C23 C20 1_555 1_555
H13 C23 1_555 1_555
H14 C23 1_555 1_555
H15 C23 1_555 1_555
C24 N2 1_555 1_555
C25 C24 1_555 1_555
H16 C25 1_555 1_555
C26 C25 1_555 1_555
H17 C26 1_555 1_555
C27 C26 1_555 1_555
C28 C27 1_555 1_555
H18 C28 1_555 1_555
C29 C24 1_555 1_555
H19 C29 1_555 1_555
C30 C27 1_555 1_555
H20 C30 1_555 1_555
H21 C30 1_555 1_555
H22 C30 1_555 1_555
C5 C6 1_555 1_555
C7 C8 1_555 1_555
C9 C10 1_555 1_555
C11 C16 1_555 1_555
C15 C16 1_555 1_555
C21 C22 1_555 1_555
C28 C29 1_555 1_555

#END
