
#######################################################################
#
#                 Cambridge Crystallographic Data Centre
#                                CCDC 
#
#######################################################################
#
# If this CIF has been generated from an entry in the Cambridge 
# Structural Database, then it will include bibliographic, chemical, 
# crystal, experimental, refinement or atomic coordinate data resulting 
# from the CCDC's data processing and validation procedures.
#
#######################################################################

data_NODXUA
_chemical_name_common            
N-((R)-2,2,2-trifluoro-1-(1H-indol-3-yl)ethyl)-3,4,5-trimethoxybenzenamine
_chemical_formula_moiety         'C19 H19 F3 N2 O3'
_chemical_name_systematic        
(R)-3,4,5-Trimethoxy-N-(2,2,2-trifluoro-1-(1H-indol-3-yl)ethyl)aniline
_symmetry_cell_setting           orthorhombic
_symmetry_space_group_name_H-M   'P 21 21 21'
_symmetry_Int_Tables_number      19
_space_group_name_Hall           'P 2ac 2ab'
loop_
_symmetry_equiv_pos_site_id
_symmetry_equiv_pos_as_xyz
1 x,y,z
2 1/2+x,1/2-y,-z
3 -x,1/2+y,1/2-z
4 1/2-x,-y,1/2+z
_cell_length_a                   4.8996(14)
_cell_length_b                   16.602(5)
_cell_length_c                   21.827(6)
_cell_angle_alpha                90
_cell_angle_beta                 90
_cell_angle_gamma                90
_cell_volume                     1775.48
_exptl_crystal_colour            orange
_exptl_crystal_description       prism
_chemical_melting_point          139-141deg.C
_cell_formula_units_Z            4
loop_
_atom_site_label
_atom_site_type_symbol
_atom_site_fract_x
_atom_site_fract_y
_atom_site_fract_z
C1 C 0.6670(4) 0.20815(10) 0.19824(7)
C2 C 0.5651(4) 0.18313(11) 0.14166(8)
H1 H 0.6349 0.2045 0.1045
C3 C 0.3598(4) 0.12635(11) 0.14151(8)
H2 H 0.2894 0.1077 0.1035
C4 C 0.2525(4) 0.09550(11) 0.19651(8)
H3 H 0.1107 0.0565 0.1950
C5 C 0.3497(4) 0.12085(10) 0.25269(8)
H4 H 0.2743 0.1003 0.2896
C6 C 0.5634(4) 0.17799(10) 0.25426(7)
C7 C 0.7196(4) 0.21561(10) 0.30202(7)
C8 C 0.9045(4) 0.26513(10) 0.27409(7)
H5 H 1.0360 0.2972 0.2948
C9 C 0.6871(4) 0.20074(10) 0.36979(7)
H6 H 0.5368 0.1606 0.3752
C10 C 0.6057(4) 0.27679(11) 0.40359(8)
C11 C 0.9753(4) 0.08518(10) 0.40305(7)
C12 C 0.8409(4) 0.03295(11) 0.36341(7)
H7 H 0.7185 0.0531 0.3333
C13 C 0.8894(4) -0.04985(10) 0.36872(7)
C14 C 1.0686(4) -0.08021(10) 0.41243(7)
C15 C 1.2080(4) -0.02667(11) 0.45051(7)
C16 C 1.1628(4) 0.05620(10) 0.44594(7)
H8 H 1.2588 0.0925 0.4718
C17 C 0.5883(4) -0.07978(11) 0.28508(8)
H9 H 0.4332 -0.0515 0.3035
H10 H 0.5219 -0.1261 0.2616
H11 H 0.6867 -0.0430 0.2577
C18 C 0.9097(4) -0.19865(11) 0.45751(9)
H12 H 0.9363 -0.1780 0.4991
H13 H 0.9336 -0.2572 0.4574
H14 H 0.7251 -0.1854 0.4435
C19 C 1.5415(4) -0.00954(11) 0.52947(9)
H15 H 1.6485 0.0265 0.5033
H16 H 1.6650 -0.0418 0.5549
H17 H 1.4216 0.0225 0.5559
F1 F 0.3963(2) 0.31529(7) 0.37681(5)
F2 F 0.5241(3) 0.26026(7) 0.46137(5)
F3 F 0.8088(2) 0.33003(7) 0.40841(5)
N1 N 0.8719(3) 0.26152(9) 0.21179(6)
N2 N 0.9299(4) 0.16873(9) 0.39999(6)
O1 O 0.7679(3) -0.10699(7) 0.33228(6)
O2 O 1.1066(3) -0.16246(7) 0.41707(5)
O3 O 1.3800(3) -0.06174(7) 0.49206(5)
H18 H 0.966(5) 0.2922(12) 0.1850(8)
H19 H 0.988(5) 0.1959(12) 0.4324(7)
loop_
_geom_bond_atom_site_label_1
_geom_bond_atom_site_label_2
_geom_bond_site_symmetry_1
_geom_bond_site_symmetry_2
C1 C2 1_555 1_555
C2 H1 1_555 1_555
C3 C2 1_555 1_555
H2 C3 1_555 1_555
C4 C3 1_555 1_555
H3 C4 1_555 1_555
C5 C4 1_555 1_555
H4 C5 1_555 1_555
C6 C1 1_555 1_555
C7 C6 1_555 1_555
C8 C7 1_555 1_555
H5 C8 1_555 1_555
C9 C7 1_555 1_555
H6 C9 1_555 1_555
C10 C9 1_555 1_555
C11 C12 1_555 1_555
C12 H7 1_555 1_555
C13 C12 1_555 1_555
C14 C13 1_555 1_555
C15 C14 1_555 1_555
C16 C11 1_555 1_555
H8 C16 1_555 1_555
C17 H9 1_555 1_555
H10 C17 1_555 1_555
H11 C17 1_555 1_555
C18 H12 1_555 1_555
H13 C18 1_555 1_555
H14 C18 1_555 1_555
C19 H15 1_555 1_555
H16 C19 1_555 1_555
H17 C19 1_555 1_555
F1 C10 1_555 1_555
F2 C10 1_555 1_555
F3 C10 1_555 1_555
N1 C1 1_555 1_555
N2 C9 1_555 1_555
O1 C13 1_555 1_555
O2 C14 1_555 1_555
O3 C15 1_555 1_555
H18 N1 1_555 1_555
H19 N2 1_555 1_555
C5 C6 1_555 1_555
C8 N1 1_555 1_555
C11 N2 1_555 1_555
C15 C16 1_555 1_555
C17 O1 1_555 1_555
C18 O2 1_555 1_555
C19 O3 1_555 1_555

#END
