
#######################################################################
#
#                 Cambridge Crystallographic Data Centre
#                                CCDC 
#
#######################################################################
#
# If this CIF has been generated from an entry in the Cambridge 
# Structural Database, then it will include bibliographic, chemical, 
# crystal, experimental, refinement or atomic coordinate data resulting 
# from the CCDC's data processing and validation procedures.
#
#######################################################################

data_NOFHOH
_chemical_formula_moiety         'C24 H30 N4'
_chemical_name_systematic        
1,1',8,8'-tetramethyl-2,2',3,3',8,8',8a,8a'-octahydro-1H,1'H-3a,3a'-bipyrrolo[2,3-b]indole
_symmetry_cell_setting           monoclinic
_symmetry_space_group_name_H-M   'P 21'
_symmetry_Int_Tables_number      4
_space_group_name_Hall           'P 2yb'
loop_
_symmetry_equiv_pos_site_id
_symmetry_equiv_pos_as_xyz
1 x,y,z
2 -x,1/2+y,-z
_cell_length_a                   9.5071(7)
_cell_length_b                   8.7846(5)
_cell_length_c                   13.1634(11)
_cell_angle_alpha                90
_cell_angle_beta                 106.996(8)
_cell_angle_gamma                90
_cell_volume                     1051.34
_exptl_crystal_colour            'light colorless'
_exptl_crystal_description       block
_cell_formula_units_Z            2
loop_
_atom_site_label
_atom_site_type_symbol
_atom_site_fract_x
_atom_site_fract_y
_atom_site_fract_z
N1 N -0.6031(3) 0.1825(3) -0.65202(18)
N2 N -0.6460(2) -0.0812(2) -0.71479(19)
N3 N -0.1354(3) 0.0981(3) -0.84214(18)
N4 N -0.2449(3) -0.1595(3) -0.8597(2)
C1 C -0.4765(2) 0.0748(3) -0.77061(18)
C2 C -0.5015(3) 0.2446(3) -0.78500(19)
C3 C -0.4629(3) 0.3444(3) -0.8531(2)
H1 H -0.4161 0.3092 -0.9015
C4 C -0.4949(4) 0.4990(4) -0.8486(3)
H2 H -0.4676 0.5677 -0.8932
C5 C -0.5667(4) 0.5498(3) -0.7781(3)
H3 H -0.5883 0.6528 -0.7764
C6 C -0.6075(4) 0.4517(3) -0.7100(3)
H4 H -0.6566 0.4871 -0.6631
C7 C -0.5733(3) 0.2986(3) -0.7133(2)
C8 C -0.5401(3) 0.0391(3) -0.67555(19)
H5 H -0.4618 0.0043 -0.6135
C9 C -0.7140(3) -0.0487(3) -0.8266(2)
H6 H -0.7791 0.0385 -0.8362
H7 H -0.7685 -0.1358 -0.8634
C10 C -0.5806(3) -0.0151(3) -0.86416(19)
H8 H -0.6076 0.0456 -0.9285
H9 H -0.5346 -0.1086 -0.8775
C11 C -0.6121(4) 0.2116(5) -0.5457(3)
H10 H -0.5837 0.1218 -0.5031
H11 H -0.7113 0.2383 -0.5491
H12 H -0.5474 0.2939 -0.5146
C12 C -0.7507(4) -0.1089(4) -0.6556(3)
H13 H -0.8127 -0.0214 -0.6605
H14 H -0.6985 -0.1278 -0.5824
H15 H -0.8099 -0.1959 -0.6847
C13 C -0.3115(2) 0.0261(3) -0.74937(18)
C14 C -0.2036(3) 0.1452(3) -0.69075(19)
C15 C -0.1901(3) 0.2161(4) -0.5951(2)
H16 H -0.2497 0.1868 -0.5537
C16 C -0.0870(4) 0.3317(5) -0.5604(3)
H17 H -0.0782 0.3806 -0.4962
C17 C 0.0018(4) 0.3732(5) -0.6215(3)
H18 H 0.0685 0.4524 -0.5988
C18 C -0.0059(3) 0.2997(4) -0.7164(3)
H19 H 0.0566 0.3265 -0.7562
C19 C -0.1095(3) 0.1853(3) -0.7502(2)
C20 C -0.2678(3) 0.0035(3) -0.85418(19)
H20 H -0.3477 0.0373 -0.9157
C21 C -0.1830(3) -0.2113(4) -0.7506(3)
H21 H -0.0811 -0.1801 -0.7221
H22 H -0.1892 -0.3211 -0.7455
C22 C -0.2800(3) -0.1324(3) -0.6944(2)
H23 H -0.2299 -0.1216 -0.6192
H24 H -0.3706 -0.1887 -0.7031
C23 C -0.1130(4) 0.1676(5) -0.9362(3)
H25 H -0.1611 0.2649 -0.9482
H26 H -0.1535 0.1030 -0.9965
H27 H -0.0096 0.1809 -0.9262
C24 C -0.1654(4) -0.2081(5) -0.9331(3)
H28 H -0.0678 -0.1666 -0.9112
H29 H -0.2159 -0.1727 -1.0033
H30 H -0.1601 -0.3173 -0.9332
loop_
_geom_bond_atom_site_label_1
_geom_bond_atom_site_label_2
_geom_bond_site_symmetry_1
_geom_bond_site_symmetry_2
N1 C7 1_555 1_555
N2 C8 1_555 1_555
N3 C19 1_555 1_555
N4 C20 1_555 1_555
C1 C2 1_555 1_555
C2 C3 1_555 1_555
C3 H1 1_555 1_555
C4 C3 1_555 1_555
H2 C4 1_555 1_555
C5 C4 1_555 1_555
H3 C5 1_555 1_555
C6 C5 1_555 1_555
H4 C6 1_555 1_555
C7 C2 1_555 1_555
C8 N1 1_555 1_555
H5 C8 1_555 1_555
C9 N2 1_555 1_555
H6 C9 1_555 1_555
H7 C9 1_555 1_555
C10 C1 1_555 1_555
H8 C10 1_555 1_555
H9 C10 1_555 1_555
C11 N1 1_555 1_555
H10 C11 1_555 1_555
H11 C11 1_555 1_555
H12 C11 1_555 1_555
C12 N2 1_555 1_555
H13 C12 1_555 1_555
H14 C12 1_555 1_555
H15 C12 1_555 1_555
C13 C1 1_555 1_555
C14 C13 1_555 1_555
C15 C14 1_555 1_555
H16 C15 1_555 1_555
C16 C15 1_555 1_555
H17 C16 1_555 1_555
C17 C16 1_555 1_555
H18 C17 1_555 1_555
C18 C17 1_555 1_555
H19 C18 1_555 1_555
C19 C14 1_555 1_555
C20 N3 1_555 1_555
H20 C20 1_555 1_555
C21 N4 1_555 1_555
H21 C21 1_555 1_555
H22 C21 1_555 1_555
C22 C13 1_555 1_555
H23 C22 1_555 1_555
H24 C22 1_555 1_555
C23 N3 1_555 1_555
H25 C23 1_555 1_555
H26 C23 1_555 1_555
H27 C23 1_555 1_555
C24 N4 1_555 1_555
H28 C24 1_555 1_555
H29 C24 1_555 1_555
H30 C24 1_555 1_555
C1 C8 1_555 1_555
C6 C7 1_555 1_555
C9 C10 1_555 1_555
C13 C20 1_555 1_555
C18 C19 1_555 1_555
C21 C22 1_555 1_555

#END
