
#######################################################################
#
#                 Cambridge Crystallographic Data Centre
#                                CCDC 
#
#######################################################################
#
# If this CIF has been generated from an entry in the Cambridge 
# Structural Database, then it will include bibliographic, chemical, 
# crystal, experimental, refinement or atomic coordinate data resulting 
# from the CCDC's data processing and validation procedures.
#
#######################################################################

data_NOGJAW
_chemical_formula_moiety         'C22 H17 N3 O1'
_chemical_name_systematic        2-cyano-3-(4-(diphenylamino)phenyl)acrylamide
_symmetry_cell_setting           monoclinic
_symmetry_space_group_name_H-M   'P 21/c'
_symmetry_Int_Tables_number      14
_space_group_name_Hall           '-P 2ybc'
loop_
_symmetry_equiv_pos_site_id
_symmetry_equiv_pos_as_xyz
1 x,y,z
2 -x,1/2+y,1/2-z
3 -x,-y,-z
4 x,1/2-y,1/2+z
_cell_length_a                   12.6536(4)
_cell_length_b                   9.8423(3)
_cell_length_c                   14.0963(4)
_cell_angle_alpha                90
_cell_angle_beta                 98.699(3)
_cell_angle_gamma                90
_cell_volume                     1735.37
_cell_formula_units_Z            4
loop_
_atom_site_label
_atom_site_type_symbol
_atom_site_fract_x
_atom_site_fract_y
_atom_site_fract_z
O1 O -0.02957(9) 0.20848(10) -0.27440(7)
C1 C 0.18383(11) 0.46623(13) 0.16118(9)
H1 H 0.1638 0.4274 0.2159
N1 N 0.02407(11) 0.41972(13) -0.30763(8)
C2 C 0.26196(10) 0.56799(12) 0.17084(8)
C3 C 0.11961(10) 0.43906(13) -0.10898(9)
H2 H 0.1437 0.4910 -0.1565
N2 N 0.30902(10) 0.61061(11) 0.26208(7)
C4 C 0.16541(10) 0.47674(12) -0.01206(9)
C5 C 0.00415(11) 0.24763(13) -0.08190(9)
C6 C 0.24463(10) 0.57738(13) -0.00150(9)
H3 H 0.2661 0.6144 -0.0562
C7 C 0.13617(11) 0.42256(13) 0.07236(9)
H4 H 0.0836 0.3559 0.0681
C8 C 0.30533(11) 0.52347(13) 0.34333(9)
C9 C 0.29165(10) 0.62316(13) 0.08703(9)
H5 H 0.3433 0.6910 0.0913
C10 C 0.01042(10) 0.31851(12) -0.24722(9)
C11 C 0.44094(13) 0.99944(16) 0.31709(11)
H6 H 0.4713 1.0851 0.3286
C12 C 0.35258(11) 0.74294(13) 0.27962(9)
C13 C 0.04827(10) 0.34216(12) -0.14264(8)
C14 C 0.44513(11) 0.75933(15) 0.34557(10)
H7 H 0.4781 0.6841 0.3771
C15 C 0.24532(11) 0.56085(14) 0.41316(10)
H8 H 0.2078 0.6425 0.4080
C16 C 0.29665(14) 0.35561(16) 0.49905(11)
H9 H 0.2940 0.2991 0.5515
C17 C 0.30317(12) 0.85625(14) 0.23428(10)
H10 H 0.2399 0.8467 0.1916
C18 C 0.24128(13) 0.47602(16) 0.49100(10)
H11 H 0.2008 0.5008 0.5381
C19 C 0.48818(12) 0.88744(16) 0.36428(11)
H12 H 0.5496 0.8980 0.4091
C20 C 0.34801(14) 0.98374(15) 0.25249(11)
H13 H 0.3154 1.0593 0.2210
C21 C 0.35586(17) 0.31898(17) 0.42943(12)
H14 H 0.3929 0.2370 0.4346
C22 C 0.36111(15) 0.40269(17) 0.35149(11)
H15 H 0.4021 0.3776 0.3048
N3 N -0.03125(12) 0.17166(14) -0.03389(9)
H16 H 0.0352(15) 0.505(2) -0.2852(13)
H17 H 0.0027(14) 0.4050(18) -0.3698(13)
loop_
_geom_bond_atom_site_label_1
_geom_bond_atom_site_label_2
_geom_bond_site_symmetry_1
_geom_bond_site_symmetry_2
O1 C10 1_555 1_555
C1 H1 1_555 1_555
N1 C10 1_555 1_555
C2 C1 1_555 1_555
C3 H2 1_555 1_555
N2 C2 1_555 1_555
C4 C3 1_555 1_555
C5 C13 1_555 1_555
C6 C4 1_555 1_555
H3 C6 1_555 1_555
C7 C1 1_555 1_555
H4 C7 1_555 1_555
C8 N2 1_555 1_555
C9 C2 1_555 1_555
H5 C9 1_555 1_555
C10 C13 1_555 1_555
C11 H6 1_555 1_555
C12 N2 1_555 1_555
C13 C3 1_555 1_555
C14 C12 1_555 1_555
H7 C14 1_555 1_555
C15 C8 1_555 1_555
H8 C15 1_555 1_555
C16 H9 1_555 1_555
C17 C12 1_555 1_555
H10 C17 1_555 1_555
C18 C15 1_555 1_555
H11 C18 1_555 1_555
C19 C11 1_555 1_555
H12 C19 1_555 1_555
C20 C11 1_555 1_555
H13 C20 1_555 1_555
C21 C16 1_555 1_555
H14 C21 1_555 1_555
C22 C8 1_555 1_555
H15 C22 1_555 1_555
N3 C5 1_555 1_555
H16 N1 1_555 1_555
H17 N1 1_555 1_555
C4 C7 1_555 1_555
C6 C9 1_555 1_555
C14 C19 1_555 1_555
C16 C18 1_555 1_555
C17 C20 1_555 1_555
C21 C22 1_555 1_555

#END
