
#######################################################################
#
#                 Cambridge Crystallographic Data Centre
#                                CCDC 
#
#######################################################################
#
# If this CIF has been generated from an entry in the Cambridge 
# Structural Database, then it will include bibliographic, chemical, 
# crystal, experimental, refinement or atomic coordinate data resulting 
# from the CCDC's data processing and validation procedures.
#
#######################################################################

data_NOGKAV
_chemical_formula_moiety         'C1 H6 N3 1+,C6 H4 N1 O5 S1 1-'
_chemical_name_systematic        'Guanidinium 3-nitrobenzenesulfonate'
_symmetry_cell_setting           triclinic
_symmetry_space_group_name_H-M   'P -1'
_symmetry_Int_Tables_number      2
_space_group_name_Hall           '-P 1'
loop_
_symmetry_equiv_pos_site_id
_symmetry_equiv_pos_as_xyz
1 x,y,z
2 -x,-y,-z
_cell_length_a                   7.196(8)
_cell_length_b                   7.628(6)
_cell_length_c                   11.694(5)
_cell_angle_alpha                76.45(5)
_cell_angle_beta                 78.32(8)
_cell_angle_gamma                62.94(9)
_cell_volume                     552.3
_chemical_melting_point          185-190deg.C
_cell_formula_units_Z            2
loop_
_atom_site_label
_atom_site_type_symbol
_atom_site_fract_x
_atom_site_fract_y
_atom_site_fract_z
N1 N 0.6716(3) -0.1430(3) 0.8718(2)
N2 N 0.3601(3) -0.1490(3) 0.8631(2)
N3 N 0.6598(3) -0.4410(3) 0.8806(2)
C1 C 0.5639(3) -0.2434(3) 0.8725(2)
H1 H 0.618(4) -0.024(4) 0.871(2)
H2 H 0.291(3) -0.010(4) 0.855(2)
H3 H 0.286(4) -0.207(4) 0.858(2)
H4 H 0.600(4) -0.497(4) 0.870(2)
H5 H 0.796(4) -0.501(4) 0.885(2)
H6 H 0.795(4) -0.195(4) 0.883(2)
S1 S 0.24515(6) 0.41157(7) 0.81508(4)
O1 O 0.4648(2) 0.3068(2) 0.8362(1)
O2 O 0.1312(2) 0.2899(2) 0.8607(1)
O3 O 0.1395(2) 0.6059(2) 0.8531(1)
O4 O -0.1896(2) 0.9689(2) 0.4877(2)
O5 O -0.0087(3) 0.9082(3) 0.3186(2)
N4 N -0.0405(3) 0.8635(2) 0.4250(2)
C2 C 0.2449(2) 0.4592(2) 0.6594(2)
C3 C 0.1027(2) 0.6403(3) 0.6057(2)
C4 C 0.1079(3) 0.6712(3) 0.4842(2)
C5 C 0.2456(3) 0.5316(3) 0.4150(2)
C6 C 0.3833(3) 0.3498(3) 0.4703(2)
C7 C 0.3844(3) 0.3129(3) 0.5917(2)
H7 H 0.0049 0.7396 0.6511
H8 H 0.2458 0.5594 0.3314
H9 H 0.4778 0.2496 0.4246
H10 H 0.4800 0.1878 0.6292
loop_
_geom_bond_atom_site_label_1
_geom_bond_atom_site_label_2
_geom_bond_site_symmetry_1
_geom_bond_site_symmetry_2
N1 C1 1_555 1_555
N2 C1 1_555 1_555
N3 C1 1_555 1_555
H1 N1 1_555 1_555
H2 N2 1_555 1_555
H3 N2 1_555 1_555
H4 N3 1_555 1_555
H5 N3 1_555 1_555
H6 N1 1_555 1_555
S1 O1 1_555 1_555
O2 S1 1_555 1_555
O3 S1 1_555 1_555
O4 N4 1_555 1_555
O5 N4 1_555 1_555
N4 C4 1_555 1_555
C2 S1 1_555 1_555
C3 C2 1_555 1_555
C4 C3 1_555 1_555
C5 C4 1_555 1_555
C6 C5 1_555 1_555
C7 C2 1_555 1_555
H7 C3 1_555 1_555
H8 C5 1_555 1_555
H9 C6 1_555 1_555
H10 C7 1_555 1_555
C6 C7 1_555 1_555

#END
