
#######################################################################
#
#                 Cambridge Crystallographic Data Centre
#                                CCDC 
#
#######################################################################
#
# If this CIF has been generated from an entry in the Cambridge 
# Structural Database, then it will include bibliographic, chemical, 
# crystal, experimental, refinement or atomic coordinate data resulting 
# from the CCDC's data processing and validation procedures.
#
#######################################################################

data_NOHSEK
_chemical_formula_moiety         'C13 H14 F3 N3'
_chemical_name_systematic        
(1-Azido-2-(trifluoromethyl)cyclohexyl)benzene
_symmetry_cell_setting           monoclinic
_symmetry_space_group_name_H-M   'P 21'
_symmetry_Int_Tables_number      4
_space_group_name_Hall           'P 2yb'
loop_
_symmetry_equiv_pos_site_id
_symmetry_equiv_pos_as_xyz
1 x,y,z
2 -x,1/2+y,-z
_cell_length_a                   7.6180(16)
_cell_length_b                   5.9682(12)
_cell_length_c                   14.103(3)
_cell_angle_alpha                90
_cell_angle_beta                 90.846(4)
_cell_angle_gamma                90
_cell_volume                     641.134
_exptl_crystal_colour            colorless
_exptl_crystal_description       prismatic
_cell_formula_units_Z            2
loop_
_atom_site_label
_atom_site_type_symbol
_atom_site_fract_x
_atom_site_fract_y
_atom_site_fract_z
C1 C 0.6945(3) 0.2802(4) 0.26913(16)
C2 C 0.5788(3) 0.0846(4) 0.30092(17)
H1 H 0.4650 0.0971 0.2697
H2 H 0.6318 -0.0547 0.2805
C3 C 0.7166(3) 0.2946(4) 0.16225(17)
N1 N 0.6139(3) 0.4968(3) 0.30316(17)
C4 C 0.8721(3) 0.2807(4) 0.32616(17)
H3 H 0.9256 0.4276 0.3153
C5 C 0.5525(4) 0.0748(5) 0.40756(19)
H4 H 0.4865 0.2052 0.4274
H5 H 0.4847 -0.0575 0.4230
C6 C 0.7943(4) 0.4811(5) 0.1226(2)
H6 H 0.8333 0.5965 0.1620
F1 F 1.1443(2) 0.1055(4) 0.34999(14)
N2 N 0.4627(3) 0.5302(4) 0.27508(15)
C7 C 0.6579(4) 0.1280(5) 0.10136(18)
H7 H 0.6034 0.0019 0.1261
C8 C 0.8414(4) 0.2643(6) 0.43335(19)
H8 H 0.9540 0.2506 0.4658
H9 H 0.7870 0.4020 0.4547
C9 C 1.0036(3) 0.1089(6) 0.2933(2)
F2 F 1.0653(3) 0.1498(5) 0.20792(13)
C10 C 0.7263(4) 0.0679(6) 0.4610(2)
H10 H 0.7863 -0.0713 0.4471
H11 H 0.7054 0.0728 0.5287
F3 F 0.9437(2) -0.0999(3) 0.2914(2)
C11 C 0.6789(4) 0.1457(6) 0.0043(2)
H12 H 0.6390 0.0319 -0.0355
C12 C 0.8150(4) 0.4996(6) 0.0256(2)
H13 H 0.8674 0.6266 0.0004
C13 C 0.7587(4) 0.3313(7) -0.0330(2)
H14 H 0.7744 0.3425 -0.0981
N3 N 0.3264(4) 0.5785(6) 0.2555(2)
loop_
_geom_bond_atom_site_label_1
_geom_bond_atom_site_label_2
_geom_bond_site_symmetry_1
_geom_bond_site_symmetry_2
C1 C2 1_555 1_555
C2 H1 1_555 1_555
H2 C2 1_555 1_555
C3 C1 1_555 1_555
N1 C1 1_555 1_555
C4 C1 1_555 1_555
H3 C4 1_555 1_555
C5 C2 1_555 1_555
H4 C5 1_555 1_555
H5 C5 1_555 1_555
C6 C3 1_555 1_555
H6 C6 1_555 1_555
F1 C9 1_555 1_555
N2 N1 1_555 1_555
C7 C3 1_555 1_555
H7 C7 1_555 1_555
C8 C4 1_555 1_555
H8 C8 1_555 1_555
H9 C8 1_555 1_555
C9 C4 1_555 1_555
F2 C9 1_555 1_555
C10 C5 1_555 1_555
H10 C10 1_555 1_555
H11 C10 1_555 1_555
F3 C9 1_555 1_555
C11 C7 1_555 1_555
H12 C11 1_555 1_555
C12 C6 1_555 1_555
H13 C12 1_555 1_555
C13 C11 1_555 1_555
H14 C13 1_555 1_555
N3 N2 1_555 1_555
C8 C10 1_555 1_555
C12 C13 1_555 1_555

#END
