
#######################################################################
#
#                 Cambridge Crystallographic Data Centre
#                                CCDC 
#
#######################################################################
#
# If this CIF has been generated from an entry in the Cambridge 
# Structural Database, then it will include bibliographic, chemical, 
# crystal, experimental, refinement or atomic coordinate data resulting 
# from the CCDC's data processing and validation procedures.
#
#######################################################################

data_NOJJEC
_chemical_formula_moiety         'C25 H35 N3 O2'
_chemical_name_systematic        
N,N'-Dicyclohexyl-N-(4-(3-indolyl)butanoyl)urea
_symmetry_cell_setting           triclinic
_symmetry_space_group_name_H-M   'P -1'
_symmetry_Int_Tables_number      2
_space_group_name_Hall           '-P 1'
loop_
_symmetry_equiv_pos_site_id
_symmetry_equiv_pos_as_xyz
1 x,y,z
2 -x,-y,-z
_cell_length_a                   8.4655(7)
_cell_length_b                   11.5938(9)
_cell_length_c                   13.0982(11)
_cell_angle_alpha                68.331(2)
_cell_angle_beta                 86.7520(10)
_cell_angle_gamma                72.2890(10)
_cell_volume                     1135.83
_exptl_crystal_colour            colorless
_exptl_crystal_description       block
_chemical_melting_point          '413 K'
_cell_formula_units_Z            2
_exptl_crystal_recrystallization_method acetone/n-hexane
loop_
_atom_site_label
_atom_site_type_symbol
_atom_site_fract_x
_atom_site_fract_y
_atom_site_fract_z
O1 O 0.46970(10) 0.40940(8) 0.39264(7)
O2 O -0.02178(10) 0.65370(8) 0.44285(7)
N1 N 0.46151(13) -0.19498(10) 0.68549(9)
H1 H 0.4614 -0.2460 0.6517
N2 N 0.25306(12) 0.56892(9) 0.41176(8)
N3 N 0.17745(12) 0.63397(9) 0.56124(8)
H2 H 0.2826 0.6136 0.5752
C1 C 0.41375(15) -0.06110(12) 0.63934(10)
H3 H 0.3765 -0.0120 0.5661
C2 C 0.42849(15) -0.01030(11) 0.71572(10)
C3 C 0.49092(15) -0.11970(12) 0.81647(10)
C4 C 0.53703(17) -0.13322(13) 0.92224(10)
H4 H 0.5269 -0.0600 0.9389
C5 C 0.59778(18) -0.25669(14) 1.00158(11)
H5 H 0.6305 -0.2663 1.0716
C6 C 0.61094(18) -0.36767(14) 0.97820(11)
H6 H 0.6500 -0.4496 1.0335
C7 C 0.56720(17) -0.35791(12) 0.87491(11)
H7 H 0.5760 -0.4317 0.8596
C8 C 0.50931(15) -0.23345(12) 0.79426(10)
C9 C 0.38931(16) 0.13055(11) 0.70049(10)
H8 H 0.4632 0.1379 0.7501
H9 H 0.2765 0.1611 0.7206
C10 C 0.40633(15) 0.21820(11) 0.58325(10)
H10 H 0.3329 0.2111 0.5331
H11 H 0.5194 0.1890 0.5631
C11 C 0.36372(15) 0.36064(11) 0.57134(9)
H12 H 0.2544 0.3877 0.5976
H13 H 0.4434 0.3692 0.6163
C12 C 0.36598(14) 0.44786(11) 0.45300(9)
C13 C 0.12317(15) 0.62095(11) 0.47405(10)
C14 C 0.06158(15) 0.68236(12) 0.63386(10)
H14 H -0.0396 0.6590 0.6310
C15 C 0.13548(16) 0.61625(13) 0.75172(10)
H15 H 0.2397 0.6334 0.7558
H16 H 0.1582 0.5228 0.7749
C16 C 0.01619(18) 0.66623(15) 0.82867(12)
H17 H -0.0833 0.6408 0.8304
H18 H 0.0682 0.6267 0.9027
C17 C -0.0312(2) 0.81350(16) 0.79137(13)
H19 H 0.0666 0.8384 0.7968
H20 H -0.1115 0.8428 0.8393
C18 C -0.10490(18) 0.87921(14) 0.67331(13)
H21 H -0.1284 0.9728 0.6503
H22 H -0.2089 0.8617 0.6694
C19 C 0.01359(16) 0.83037(12) 0.59550(11)
H23 H -0.0394 0.8695 0.5218
H24 H 0.1128 0.8564 0.5930
C20 C 0.24074(15) 0.64481(11) 0.29129(9)
H25 H 0.3520 0.6200 0.2649
C21 C 0.19018(16) 0.79118(11) 0.26505(10)
H26 H 0.2665 0.8106 0.3041
H27 H 0.0795 0.8202 0.2888
C22 C 0.19298(18) 0.86247(12) 0.14122(10)
H28 H 0.1582 0.9557 0.1242
H29 H 0.3055 0.8373 0.1188
C23 C 0.07809(19) 0.83058(13) 0.07728(11)
H30 H -0.0359 0.8635 0.0944
H31 H 0.0863 0.8737 -0.0010
C24 C 0.12252(19) 0.68423(13) 0.10556(10)
H32 H 0.2307 0.6534 0.0793
H33 H 0.0418 0.6667 0.0684
C25 C 0.12569(17) 0.61045(12) 0.22938(10)
H34 H 0.1637 0.5174 0.2453
H35 H 0.0142 0.6325 0.2541
loop_
_geom_bond_atom_site_label_1
_geom_bond_atom_site_label_2
_geom_bond_site_symmetry_1
_geom_bond_site_symmetry_2
O1 C12 1_555 1_555
O2 C13 1_555 1_555
N1 H1 1_555 1_555
N2 C12 1_555 1_555
N3 H2 1_555 1_555
C1 N1 1_555 1_555
H3 C1 1_555 1_555
C2 C1 1_555 1_555
C3 C2 1_555 1_555
C4 C3 1_555 1_555
H4 C4 1_555 1_555
C5 C4 1_555 1_555
H5 C5 1_555 1_555
C6 C5 1_555 1_555
H6 C6 1_555 1_555
C7 C6 1_555 1_555
H7 C7 1_555 1_555
C8 N1 1_555 1_555
C9 C2 1_555 1_555
H8 C9 1_555 1_555
H9 C9 1_555 1_555
C10 C9 1_555 1_555
H10 C10 1_555 1_555
H11 C10 1_555 1_555
C11 C10 1_555 1_555
H12 C11 1_555 1_555
H13 C11 1_555 1_555
C12 C11 1_555 1_555
C13 N2 1_555 1_555
C14 N3 1_555 1_555
H14 C14 1_555 1_555
C15 C14 1_555 1_555
H15 C15 1_555 1_555
H16 C15 1_555 1_555
C16 C15 1_555 1_555
H17 C16 1_555 1_555
H18 C16 1_555 1_555
C17 C16 1_555 1_555
H19 C17 1_555 1_555
H20 C17 1_555 1_555
C18 C17 1_555 1_555
H21 C18 1_555 1_555
H22 C18 1_555 1_555
C19 C14 1_555 1_555
H23 C19 1_555 1_555
H24 C19 1_555 1_555
C20 N2 1_555 1_555
H25 C20 1_555 1_555
C21 C20 1_555 1_555
H26 C21 1_555 1_555
H27 C21 1_555 1_555
C22 C21 1_555 1_555
H28 C22 1_555 1_555
H29 C22 1_555 1_555
C23 C22 1_555 1_555
H30 C23 1_555 1_555
H31 C23 1_555 1_555
C24 C23 1_555 1_555
H32 C24 1_555 1_555
H33 C24 1_555 1_555
C25 C20 1_555 1_555
H34 C25 1_555 1_555
H35 C25 1_555 1_555
N3 C13 1_555 1_555
C3 C8 1_555 1_555
C7 C8 1_555 1_555
C18 C19 1_555 1_555
C24 C25 1_555 1_555

#END
