
#######################################################################
#
#                 Cambridge Crystallographic Data Centre
#                                CCDC 
#
#######################################################################
#
# If this CIF has been generated from an entry in the Cambridge 
# Structural Database, then it will include bibliographic, chemical, 
# crystal, experimental, refinement or atomic coordinate data resulting 
# from the CCDC's data processing and validation procedures.
#
#######################################################################

data_NOKPIN
_chemical_formula_moiety         'C16 H19 N1 O5 S1'
_chemical_name_systematic        
4-(2-buten-1-yloxy)-3-((4-methylphenyl)sulfonyl)-4-vinyl-1,3-oxazolidin-2-one
_symmetry_cell_setting           triclinic
_symmetry_space_group_name_H-M   'P -1'
_symmetry_Int_Tables_number      2
_space_group_name_Hall           '-P 1'
loop_
_symmetry_equiv_pos_site_id
_symmetry_equiv_pos_as_xyz
1 x,y,z
2 -x,-y,-z
_cell_length_a                   7.6397(9)
_cell_length_b                   10.614(1)
_cell_length_c                   10.778(1)
_cell_angle_alpha                83.827(8)
_cell_angle_beta                 80.863(9)
_cell_angle_gamma                79.643(9)
_cell_volume                     846.004
_exptl_crystal_colour            colorless
_exptl_crystal_description       prism
_cell_formula_units_Z            2
loop_
_atom_site_label
_atom_site_type_symbol
_atom_site_fract_x
_atom_site_fract_y
_atom_site_fract_z
S1 S 0.71183(8) 0.28102(7) 0.19518(8)
O1 O 0.3039(3) 0.3893(2) 0.0217(2)
O2 O 0.5794(3) 0.2999(2) -0.0609(2)
O3 O 0.2896(2) 0.2563(1) 0.3016(2)
O4 O 0.8434(2) 0.3161(2) 0.0933(2)
O5 O 0.7046(3) 0.3232(2) 0.3162(2)
N1 N 0.5113(2) 0.3422(2) 0.1505(2)
C1 C 0.2216(3) 0.4365(2) 0.1400(3)
C2 C 0.4777(3) 0.3395(2) 0.0274(3)
C3 C 0.3402(3) 0.3698(2) 0.2383(2)
C4 C 0.3461(4) 0.4601(3) 0.3339(3)
C5 C 0.2487(6) 0.4615(3) 0.4430(3)
C6 C 0.7273(3) 0.1135(2) 0.2084(2)
C7 C 0.6926(4) 0.0496(3) 0.3266(3)
C8 C 0.7162(4) -0.0831(3) 0.3370(3)
C9 C 0.7718(4) -0.1534(3) 0.2328(3)
C10 C 0.8015(4) -0.0863(3) 0.1158(3)
C11 C 0.7814(4) 0.0453(3) 0.1033(3)
C12 C 0.7987(6) -0.2976(3) 0.2436(4)
C13 C 0.2478(3) 0.1654(2) 0.2251(3)
C14 C 0.1969(3) 0.0536(2) 0.3054(3)
C15 C 0.2656(4) -0.0656(3) 0.2875(3)
C16 C 0.2158(5) -0.1817(3) 0.3614(3)
H1 H 0.1036 0.4162 0.1610
H2 H 0.2155 0.5270 0.1361
H3 H 0.4265 0.5206 0.3129
H4 H 0.2598 0.5208 0.5005
H5 H 0.1685 0.4016 0.4674
H6 H 0.6538 0.0965 0.3991
H7 H 0.6937 -0.1275 0.4178
H8 H 0.8365 -0.1330 0.0425
H9 H 0.8053 0.0894 0.0224
H10 H 0.7212 -0.3252 0.1952
H11 H 0.7715 -0.3278 0.3294
H12 H 0.9200 -0.3303 0.2130
H13 H 0.1506 0.2050 0.1817
H14 H 0.3499 0.1381 0.1660
H15 H 0.1062 0.0694 0.3763
H16 H 0.3590 -0.0788 0.2181
H17 H 0.1238 -0.1578 0.4288
H18 H 0.1736 -0.2325 0.3086
H19 H 0.3181 -0.2300 0.3941
loop_
_geom_bond_atom_site_label_1
_geom_bond_atom_site_label_2
_geom_bond_site_symmetry_1
_geom_bond_site_symmetry_2
S1 O4 1_555 1_555
O1 C1 1_555 1_555
O2 C2 1_555 1_555
O3 C3 1_555 1_555
O5 S1 1_555 1_555
N1 S1 1_555 1_555
C1 C3 1_555 1_555
C2 O1 1_555 1_555
C3 N1 1_555 1_555
C4 C3 1_555 1_555
C5 C4 1_555 1_555
C6 S1 1_555 1_555
C7 C6 1_555 1_555
C8 C7 1_555 1_555
C9 C8 1_555 1_555
C10 C9 1_555 1_555
C11 C6 1_555 1_555
C12 C9 1_555 1_555
C13 O3 1_555 1_555
C14 C13 1_555 1_555
C15 C14 1_555 1_555
C16 C15 1_555 1_555
H1 C1 1_555 1_555
H2 C1 1_555 1_555
H3 C4 1_555 1_555
H4 C5 1_555 1_555
H5 C5 1_555 1_555
H6 C7 1_555 1_555
H7 C8 1_555 1_555
H8 C10 1_555 1_555
H9 C11 1_555 1_555
H10 C12 1_555 1_555
H11 C12 1_555 1_555
H12 C12 1_555 1_555
H13 C13 1_555 1_555
H14 C13 1_555 1_555
H15 C14 1_555 1_555
H16 C15 1_555 1_555
H17 C16 1_555 1_555
H18 C16 1_555 1_555
H19 C16 1_555 1_555
N1 C2 1_555 1_555
C10 C11 1_555 1_555

#END
