
#######################################################################
#
#                 Cambridge Crystallographic Data Centre
#                                CCDC 
#
#######################################################################
#
# If this CIF has been generated from an entry in the Cambridge 
# Structural Database, then it will include bibliographic, chemical, 
# crystal, experimental, refinement or atomic coordinate data resulting 
# from the CCDC's data processing and validation procedures.
#
#######################################################################

data_NOLCOH
_chemical_formula_moiety         'C15 H16 Cl1 N3 O1'
_chemical_name_systematic        
6-Chloro-2-ethyl-N-isopropyl[1,3]oxazolo[4,5-c]quinolin-4-amine
_symmetry_cell_setting           monoclinic
_symmetry_space_group_name_H-M   'P 21/c'
_symmetry_Int_Tables_number      14
_space_group_name_Hall           '-P 2ybc'
loop_
_symmetry_equiv_pos_site_id
_symmetry_equiv_pos_as_xyz
1 x,y,z
2 -x,1/2+y,1/2-z
3 -x,-y,-z
4 x,1/2-y,1/2+z
_cell_length_a                   11.4614(4)
_cell_length_b                   7.9067(3)
_cell_length_c                   16.7618(5)
_cell_angle_alpha                90
_cell_angle_beta                 106.785(2)
_cell_angle_gamma                90
_cell_volume                     1454.27
_exptl_crystal_colour            colorless
_exptl_crystal_description       block
_chemical_melting_point          '128.0-129.0 deg.C'
_cell_formula_units_Z            4
loop_
_atom_site_label
_atom_site_type_symbol
_atom_site_fract_x
_atom_site_fract_y
_atom_site_fract_z
Cl1 Cl 0.90668(8) -0.05338(14) 0.24613(6)
O1 O 0.38459(17) 0.2471(2) 0.04865(12)
C1 C 0.3728(3) 0.3062(4) -0.03142(17)
N1 N 0.4680(2) 0.2899(3) -0.05570(14)
C2 C 0.5525(2) 0.2135(4) 0.01195(16)
C3 C 0.6747(3) 0.1592(4) 0.02246(17)
N2 N 0.7397(2) 0.0915(3) 0.09343(14)
C4 C 0.6863(3) 0.0715(3) 0.15703(17)
C5 C 0.7561(3) 0.0004(4) 0.23370(18)
C6 C 0.7078(3) -0.0249(4) 0.29841(19)
H1 H 0.7555 -0.0732 0.3476
C7 C 0.5877(3) 0.0210(4) 0.29141(19)
H2 H 0.5559 0.0034 0.3359
C8 C 0.5167(3) 0.0915(4) 0.21934(19)
H3 H 0.4368 0.1226 0.2149
C9 C 0.5643(3) 0.1171(3) 0.15229(16)
C10 C 0.5019(2) 0.1887(3) 0.07472(17)
C11 C 0.2520(3) 0.3768(5) -0.0764(2)
H4 H 0.2299 0.4622 -0.0418
H5 H 0.1916 0.2874 -0.0856
C12 C 0.2494(3) 0.4550(5) -0.1595(2)
H6 H 0.1692 0.4982 -0.1861
H7 H 0.2698 0.3707 -0.1945
H8 H 0.3074 0.5457 -0.1507
N3 N 0.7239(2) 0.1789(3) -0.04157(15)
H9 H 0.6794 0.2237 -0.0870
C13 C 0.8475(3) 0.1286(4) -0.03772(19)
H10 H 0.8692 0.0302 -0.0009
C14 C 0.9367(3) 0.2682(5) -0.0018(3)
H11 H 0.9318 0.2966 0.0528
H12 H 0.9173 0.3659 -0.0372
H13 H 1.0178 0.2309 0.0019
C15 C 0.8508(4) 0.0761(6) -0.1237(2)
H14 H 0.7929 -0.0131 -0.1439
H15 H 0.9310 0.0368 -0.1211
H16 H 0.8304 0.1712 -0.1607
loop_
_geom_bond_atom_site_label_1
_geom_bond_atom_site_label_2
_geom_bond_site_symmetry_1
_geom_bond_site_symmetry_2
Cl1 C5 1_555 1_555
O1 C1 1_555 1_555
C1 N1 1_555 1_555
N1 C2 1_555 1_555
C2 C3 1_555 1_555
C3 N2 1_555 1_555
N2 C4 1_555 1_555
C4 C5 1_555 1_555
C5 C6 1_555 1_555
C6 H1 1_555 1_555
C7 C6 1_555 1_555
H2 C7 1_555 1_555
C8 C7 1_555 1_555
H3 C8 1_555 1_555
C9 C4 1_555 1_555
C10 O1 1_555 1_555
C11 C1 1_555 1_555
H4 C11 1_555 1_555
H5 C11 1_555 1_555
C12 C11 1_555 1_555
H6 C12 1_555 1_555
H7 C12 1_555 1_555
H8 C12 1_555 1_555
N3 C3 1_555 1_555
H9 N3 1_555 1_555
C13 N3 1_555 1_555
H10 C13 1_555 1_555
C14 C13 1_555 1_555
H11 C14 1_555 1_555
H12 C14 1_555 1_555
H13 C14 1_555 1_555
C15 C13 1_555 1_555
H14 C15 1_555 1_555
H15 C15 1_555 1_555
H16 C15 1_555 1_555
C2 C10 1_555 1_555
C8 C9 1_555 1_555
C9 C10 1_555 1_555

#END
