
#######################################################################
#
#                 Cambridge Crystallographic Data Centre
#                                CCDC 
#
#######################################################################
#
# If this CIF has been generated from an entry in the Cambridge 
# Structural Database, then it will include bibliographic, chemical, 
# crystal, experimental, refinement or atomic coordinate data resulting 
# from the CCDC's data processing and validation procedures.
#
#######################################################################

data_NOLDEY
_chemical_formula_moiety         'C23 H29 O2 P1'
_chemical_name_systematic        
(di-n-butylphosphoryl)(2-(phenylethynyl)phenyl)methanol
_symmetry_cell_setting           triclinic
_symmetry_space_group_name_H-M   'P -1'
_symmetry_Int_Tables_number      2
_space_group_name_Hall           '-P 1'
loop_
_symmetry_equiv_pos_site_id
_symmetry_equiv_pos_as_xyz
1 x,y,z
2 -x,-y,-z
_cell_length_a                   16.0384(3)
_cell_length_b                   16.5568(9)
_cell_length_c                   17.18740(10)
_cell_angle_alpha                74.923(14)
_cell_angle_beta                 74.172(14)
_cell_angle_gamma                79.585(17)
_cell_volume                     4210.09
_exptl_crystal_colour            colorless
_exptl_crystal_description       prism
_chemical_melting_point          '130.0-131.0 deg.C'
_cell_formula_units_Z            8
_exptl_crystal_recrystallization_method 'ethyl acetate'
loop_
_atom_site_label
_atom_site_type_symbol
_atom_site_fract_x
_atom_site_fract_y
_atom_site_fract_z
P1 P 0.80505(12) 0.30047(10) 0.20787(9)
O1 O 0.7200(3) 0.3124(3) 0.1837(2)
O2 O 0.9522(3) 0.1992(3) 0.2131(3)
H1 H 0.9568 0.1525 0.2467
C1 C 0.8772(4) 0.2063(4) 0.1810(4)
H5 H 0.8459 0.1557 0.2100
C2 C 0.8989(5) 0.2114(4) 0.0888(4)
C3 C 0.9709(5) 0.2494(4) 0.0370(4)
H6 H 1.0090 0.2684 0.0603
C4 C 0.9875(5) 0.2598(4) -0.0479(4)
H7 H 1.0372 0.2857 -0.0824
C5 C 0.9327(5) 0.2329(4) -0.0838(4)
H8 H 0.9434 0.2425 -0.1424
C6 C 0.8626(5) 0.1922(4) -0.0336(4)
H9 H 0.8258 0.1722 -0.0576
C7 C 0.8457(5) 0.1804(4) 0.0531(4)
C8 C 0.7744(5) 0.1347(4) 0.1052(4)
C9 C 0.7173(5) 0.0944(4) 0.1501(4)
C10 C 0.6483(5) 0.0488(4) 0.2075(4)
C11 C 0.6274(6) -0.0248(5) 0.1937(5)
H10 H 0.6581 -0.0447 0.1453
C12 C 0.5628(6) -0.0676(5) 0.2503(6)
H11 H 0.5518 -0.1193 0.2429
C13 C 0.5125(6) -0.0356(6) 0.3192(6)
H12 H 0.4655 -0.0633 0.3570
C14 C 0.5338(6) 0.0373(5) 0.3299(5)
H13 H 0.5016 0.0583 0.3772
C15 C 0.5994(6) 0.0810(5) 0.2754(4)
H14 H 0.6110 0.1319 0.2839
C16 C 0.8699(6) 0.3849(4) 0.1574(4)
H15 H 0.9280 0.3679 0.1701
H16 H 0.8786 0.3928 0.0967
C17 C 0.8330(6) 0.4701(4) 0.1806(4)
H17 H 0.7734 0.4860 0.1713
H18 H 0.8286 0.4639 0.2404
C18 C 0.8885(6) 0.5407(4) 0.1310(4)
H19 H 0.9496 0.5222 0.1352
H20 H 0.8675 0.5905 0.1560
C19 C 0.8865(8) 0.5669(6) 0.0389(6)
H21 H 0.9028 0.5172 0.0147
H22 H 0.9278 0.6081 0.0095
H23 H 0.8275 0.5921 0.0338
C20 C 0.7911(5) 0.2856(4) 0.3186(3)
H24 H 0.8487 0.2842 0.3302
H25 H 0.7529 0.3345 0.3371
C21 C 0.7517(5) 0.2048(4) 0.3691(4)
H26 H 0.6983 0.2020 0.3519
H27 H 0.7939 0.1554 0.3571
C22 C 0.7286(5) 0.2006(4) 0.4623(3)
H28 H 0.7815 0.2054 0.4791
H29 H 0.6848 0.2488 0.4745
C23 C 0.6923(6) 0.1188(5) 0.5127(4)
H30 H 0.6411 0.1129 0.4948
H31 H 0.6754 0.1200 0.5717
H32 H 0.7371 0.0711 0.5039
P2 P -0.05199(13) 0.96500(10) 0.27398(10)
O3 O -0.0611(3) 1.0449(3) 0.3045(3)
O4 O 0.0311(3) 0.8110(3) 0.2832(3)
H2 H 0.0812 0.7954 0.2567
C24 C 0.0336(5) 0.8857(4) 0.3110(4)
H33 H 0.0915 0.9068 0.2832
C25 C 0.0226(5) 0.8682(4) 0.4044(4)
C26 C -0.0297(5) 0.8102(4) 0.4577(4)
H34 H -0.0590 0.7795 0.4358
C27 C -0.0407(5) 0.7953(5) 0.5438(4)
H35 H -0.0774 0.7550 0.5798
C28 C 0.0021(5) 0.8395(4) 0.5761(4)
H36 H -0.0050 0.8295 0.6344
C29 C 0.0553(5) 0.8986(4) 0.5231(4)
H37 H 0.0842 0.9290 0.5456
C30 C 0.0669(4) 0.9137(4) 0.4368(4)
C31 C 0.1220(4) 0.9754(4) 0.3835(4)
C32 C 0.1667(5) 1.0286(4) 0.3398(4)
C33 C 0.2174(5) 1.0944(4) 0.2878(4)
C34 C 0.2976(5) 1.1013(5) 0.3014(5)
H38 H 0.3190 1.0616 0.3445
C35 C 0.3462(6) 1.1654(5) 0.2528(5)
H39 H 0.4000 1.1700 0.2635
C36 C 0.3168(6) 1.2231(5) 0.1885(5)
H40 H 0.3500 1.2672 0.1550
C37 C 0.2392(6) 1.2152(5) 0.1742(5)
H41 H 0.2189 1.2541 0.1299
C38 C 0.1904(6) 1.1529(5) 0.2219(4)
H42 H 0.1368 1.1491 0.2102
C39 C -0.0203(5) 0.9808(4) 0.1623(4)
H43 H -0.0182 0.9265 0.1473
H44 H -0.0657 1.0208 0.1387
C40 C 0.0672(5) 1.0141(5) 0.1229(4)
H45 H 0.1141 0.9711 0.1403
H46 H 0.0681 1.0650 0.1426
C41 C 0.0851(5) 1.0363(4) 0.0276(4)
H47 H 0.0835 0.9856 0.0079
H48 H 0.0387 1.0798 0.0102
C42 C 0.1732(6) 1.0686(6) -0.0122(5)
H49 H 0.1768 1.1162 0.0104
H50 H 0.1799 1.0872 -0.0724
H51 H 0.2197 1.0234 -0.0004
C43 C -0.1525(5) 0.9172(4) 0.3053(4)
H52 H -0.1844 0.9390 0.2609
H53 H -0.1375 0.8557 0.3099
C44 C -0.2130(6) 0.9314(5) 0.3860(4)
H54 H -0.2352 0.9920 0.3798
H55 H -0.1802 0.9157 0.4299
C45 C -0.2903(6) 0.8798(5) 0.4124(5)
H56 H -0.3217 0.8938 0.3674
H57 H -0.2682 0.8191 0.4208
C46 C -0.3533(7) 0.8966(6) 0.4915(5)
H58 H -0.3252 0.8748 0.5380
H59 H -0.4055 0.8686 0.5021
H60 H -0.3701 0.9575 0.4856
P3 P 0.27357(13) 0.77164(10) 0.24390(10)
O5 O 0.1968(3) 0.7940(3) 0.2052(3)
O6 O 0.4287(3) 0.6808(3) 0.2367(3)
H3 H 0.4544 0.7240 0.2143
C47 C 0.3541(5) 0.6874(4) 0.2043(4)
H61 H 0.3281 0.6331 0.2276
C48 C 0.3765(5) 0.7022(4) 0.1099(4)
C49 C 0.4428(5) 0.7489(4) 0.0628(4)
H62 H 0.4753 0.7713 0.0892
C50 C 0.4628(5) 0.7639(4) -0.0242(4)
H63 H 0.5102 0.7943 -0.0566
C51 C 0.4124(5) 0.7336(4) -0.0629(4)
H64 H 0.4238 0.7466 -0.1217
C52 C 0.3467(5) 0.6855(4) -0.0171(4)
H65 H 0.3147 0.6633 -0.0442
C53 C 0.3269(5) 0.6690(4) 0.0707(4)
C54 C 0.2594(5) 0.6178(4) 0.1182(4)
C55 C 0.2029(6) 0.5734(5) 0.1577(4)
C56 C 0.1336(5) 0.5230(5) 0.2071(4)
C57 C 0.0682(5) 0.5509(5) 0.2701(4)
H66 H 0.0669 0.6051 0.2798
C58 C 0.0057(6) 0.4998(5) 0.3184(5)
H67 H -0.0389 0.5198 0.3606
C59 C 0.0061(6) 0.4203(5) 0.3070(5)
H68 H -0.0366 0.3852 0.3418
C60 C 0.0706(6) 0.3922(5) 0.2432(5)
H69 H 0.0713 0.3379 0.2341
C61 C 0.1328(5) 0.4428(5) 0.1937(4)
H70 H 0.1756 0.4235 0.1500
C62 C 0.3322(5) 0.8603(4) 0.2266(4)
H71 H 0.3082 0.8882 0.2738
H72 H 0.3940 0.8391 0.2264
C63 C 0.3291(6) 0.9266(4) 0.1460(4)
H73 H 0.3369 0.8975 0.1004
H74 H 0.2708 0.9600 0.1524
C64 C 0.3985(6) 0.9860(5) 0.1222(5)
H75 H 0.4569 0.9529 0.1135
H76 H 0.3922 1.0135 0.1686
C65 C 0.3925(7) 1.0541(5) 0.0434(5)
H77 H 0.3974 1.0273 -0.0025
H78 H 0.4400 1.0890 0.0293
H79 H 0.3363 1.0894 0.0529
C66 C 0.2430(5) 0.7298(4) 0.3559(4)
H80 H 0.2964 0.7063 0.3763
H81 H 0.2131 0.7762 0.3836
C67 C 0.1821(5) 0.6603(4) 0.3792(4)
H82 H 0.1328 0.6816 0.3522
H83 H 0.2148 0.6109 0.3575
C68 C 0.1459(5) 0.6324(5) 0.4731(4)
H84 H 0.1167 0.6828 0.4949
H85 H 0.1009 0.5947 0.4830
C69 C 0.2117(5) 0.5880(4) 0.5213(4)
H86 H 0.2448 0.5407 0.4974
H87 H 0.1819 0.5668 0.5792
H88 H 0.2517 0.6273 0.5190
P4 P 0.45315(13) 0.44487(11) 0.27803(10)
O7 O 0.4318(3) 0.5224(3) 0.3134(3)
O8 O 0.5582(3) 0.3024(3) 0.2752(3)
H4 H 0.6103 0.2934 0.2491
C70 C 0.5475(5) 0.3765(4) 0.3079(4)
H89 H 0.6004 0.4065 0.2810
C71 C 0.5377(4) 0.3547(4) 0.4017(4)
C72 C 0.4989(5) 0.2850(4) 0.4510(4)
H90 H 0.4797 0.2489 0.4262
C73 C 0.4875(5) 0.2668(4) 0.5369(4)
H91 H 0.4607 0.2188 0.5708
C74 C 0.5163(5) 0.3210(4) 0.5725(4)
H92 H 0.5078 0.3095 0.6311
C75 C 0.5561(5) 0.3894(4) 0.5249(4)
H93 H 0.5755 0.4244 0.5507
C76 C 0.5689(4) 0.4088(4) 0.4379(4)
C77 C 0.6098(5) 0.4801(4) 0.3888(4)
C78 C 0.6478(5) 0.5399(4) 0.3475(4)
C79 C 0.6927(5) 0.6115(4) 0.3011(4)
C80 C 0.7636(6) 0.6284(4) 0.3241(5)
H94 H 0.7816 0.5926 0.3710
C81 C 0.8077(7) 0.6961(5) 0.2797(5)
H95 H 0.8559 0.7064 0.2964
C82 C 0.7836(7) 0.7490(5) 0.2119(5)
H96 H 0.8149 0.7955 0.1817
C83 C 0.7123(6) 0.7344(5) 0.1870(5)
H97 H 0.6945 0.7709 0.1402
C84 C 0.6683(6) 0.6658(4) 0.2317(4)
H98 H 0.6203 0.6554 0.2148
C85 C 0.3619(5) 0.3836(5) 0.3094(5)
H99 H 0.3306 0.3982 0.2643
H100 H 0.3848 0.3231 0.3163
C86 C 0.2972(6) 0.3969(5) 0.3895(5)
H101 H 0.2837 0.4581 0.3874
H102 H 0.3246 0.3708 0.4366
C87 C 0.2120(5) 0.3598(5) 0.4049(5)
H103 H 0.1857 0.3831 0.3567
H104 H 0.2242 0.2979 0.4114
C88 C 0.1490(7) 0.3800(5) 0.4818(5)
H105 H 0.1730 0.3527 0.5302
H106 H 0.0933 0.3595 0.4886
H107 H 0.1397 0.4412 0.4766
C89 C 0.4811(5) 0.4680(4) 0.1658(4)
H108 H 0.4893 0.4148 0.1471
H109 H 0.4318 0.5045 0.1455
C90 C 0.5631(5) 0.5114(5) 0.1270(4)
H110 H 0.6142 0.4718 0.1400
H111 H 0.5588 0.5604 0.1515
C91 C 0.5772(5) 0.5418(5) 0.0314(4)
H112 H 0.5774 0.4934 0.0074
H113 H 0.5279 0.5842 0.0186
C92 C 0.6623(7) 0.5800(6) -0.0086(6)
H114 H 0.6602 0.6309 0.0112
H115 H 0.6705 0.5946 -0.0690
H116 H 0.7110 0.5392 0.0062
loop_
_geom_bond_atom_site_label_1
_geom_bond_atom_site_label_2
_geom_bond_site_symmetry_1
_geom_bond_site_symmetry_2
P1 O1 1_555 1_555
P2 O3 1_555 1_555
P3 O5 1_555 1_555
P4 O7 1_555 1_555
O2 H1 1_555 1_555
O4 H2 1_555 1_555
O6 H3 1_555 1_555
O8 H4 1_555 1_555
C1 P1 1_555 1_555
H5 C1 1_555 1_555
C2 C1 1_555 1_555
C3 C2 1_555 1_555
H6 C3 1_555 1_555
C4 C3 1_555 1_555
H7 C4 1_555 1_555
C5 C4 1_555 1_555
H8 C5 1_555 1_555
C6 C5 1_555 1_555
H9 C6 1_555 1_555
C7 C2 1_555 1_555
C8 C7 1_555 1_555
C9 C8 1_555 1_555
C10 C9 1_555 1_555
C11 C10 1_555 1_555
H10 C11 1_555 1_555
C12 C11 1_555 1_555
H11 C12 1_555 1_555
C13 C12 1_555 1_555
H12 C13 1_555 1_555
C14 C13 1_555 1_555
H13 C14 1_555 1_555
C15 C10 1_555 1_555
H14 C15 1_555 1_555
C16 P1 1_555 1_555
H15 C16 1_555 1_555
H16 C16 1_555 1_555
C17 C16 1_555 1_555
H17 C17 1_555 1_555
H18 C17 1_555 1_555
C18 C17 1_555 1_555
H19 C18 1_555 1_555
H20 C18 1_555 1_555
C19 C18 1_555 1_555
H21 C19 1_555 1_555
H22 C19 1_555 1_555
H23 C19 1_555 1_555
C20 P1 1_555 1_555
H24 C20 1_555 1_555
H25 C20 1_555 1_555
C21 C20 1_555 1_555
H26 C21 1_555 1_555
H27 C21 1_555 1_555
C22 C21 1_555 1_555
H28 C22 1_555 1_555
H29 C22 1_555 1_555
C23 C22 1_555 1_555
H30 C23 1_555 1_555
H31 C23 1_555 1_555
H32 C23 1_555 1_555
C24 P2 1_555 1_555
H33 C24 1_555 1_555
C25 C24 1_555 1_555
C26 C25 1_555 1_555
H34 C26 1_555 1_555
C27 C26 1_555 1_555
H35 C27 1_555 1_555
C28 C27 1_555 1_555
H36 C28 1_555 1_555
C29 C28 1_555 1_555
H37 C29 1_555 1_555
C30 C25 1_555 1_555
C31 C30 1_555 1_555
C32 C31 1_555 1_555
C33 C32 1_555 1_555
C34 C33 1_555 1_555
H38 C34 1_555 1_555
C35 C34 1_555 1_555
H39 C35 1_555 1_555
C36 C35 1_555 1_555
H40 C36 1_555 1_555
C37 C36 1_555 1_555
H41 C37 1_555 1_555
C38 C33 1_555 1_555
H42 C38 1_555 1_555
C39 P2 1_555 1_555
H43 C39 1_555 1_555
H44 C39 1_555 1_555
C40 C39 1_555 1_555
H45 C40 1_555 1_555
H46 C40 1_555 1_555
C41 C40 1_555 1_555
H47 C41 1_555 1_555
H48 C41 1_555 1_555
C42 C41 1_555 1_555
H49 C42 1_555 1_555
H50 C42 1_555 1_555
H51 C42 1_555 1_555
C43 P2 1_555 1_555
H52 C43 1_555 1_555
H53 C43 1_555 1_555
C44 C43 1_555 1_555
H54 C44 1_555 1_555
H55 C44 1_555 1_555
C45 C44 1_555 1_555
H56 C45 1_555 1_555
H57 C45 1_555 1_555
C46 C45 1_555 1_555
H58 C46 1_555 1_555
H59 C46 1_555 1_555
H60 C46 1_555 1_555
C47 P3 1_555 1_555
H61 C47 1_555 1_555
C48 C47 1_555 1_555
C49 C48 1_555 1_555
H62 C49 1_555 1_555
C50 C49 1_555 1_555
H63 C50 1_555 1_555
C51 C50 1_555 1_555
H64 C51 1_555 1_555
C52 C51 1_555 1_555
H65 C52 1_555 1_555
C53 C48 1_555 1_555
C54 C53 1_555 1_555
C55 C54 1_555 1_555
C56 C55 1_555 1_555
C57 C56 1_555 1_555
H66 C57 1_555 1_555
C58 C57 1_555 1_555
H67 C58 1_555 1_555
C59 C58 1_555 1_555
H68 C59 1_555 1_555
C60 C59 1_555 1_555
H69 C60 1_555 1_555
C61 C56 1_555 1_555
H70 C61 1_555 1_555
C62 P3 1_555 1_555
H71 C62 1_555 1_555
H72 C62 1_555 1_555
C63 C62 1_555 1_555
H73 C63 1_555 1_555
H74 C63 1_555 1_555
C64 C63 1_555 1_555
H75 C64 1_555 1_555
H76 C64 1_555 1_555
C65 C64 1_555 1_555
H77 C65 1_555 1_555
H78 C65 1_555 1_555
H79 C65 1_555 1_555
C66 P3 1_555 1_555
H80 C66 1_555 1_555
H81 C66 1_555 1_555
C67 C66 1_555 1_555
H82 C67 1_555 1_555
H83 C67 1_555 1_555
C68 C67 1_555 1_555
H84 C68 1_555 1_555
H85 C68 1_555 1_555
C69 C68 1_555 1_555
H86 C69 1_555 1_555
H87 C69 1_555 1_555
H88 C69 1_555 1_555
C70 P4 1_555 1_555
H89 C70 1_555 1_555
C71 C70 1_555 1_555
C72 C71 1_555 1_555
H90 C72 1_555 1_555
C73 C72 1_555 1_555
H91 C73 1_555 1_555
C74 C73 1_555 1_555
H92 C74 1_555 1_555
C75 C74 1_555 1_555
H93 C75 1_555 1_555
C76 C71 1_555 1_555
C77 C76 1_555 1_555
C78 C77 1_555 1_555
C79 C78 1_555 1_555
C80 C79 1_555 1_555
H94 C80 1_555 1_555
C81 C80 1_555 1_555
H95 C81 1_555 1_555
C82 C81 1_555 1_555
H96 C82 1_555 1_555
C83 C82 1_555 1_555
H97 C83 1_555 1_555
C84 C79 1_555 1_555
H98 C84 1_555 1_555
C85 P4 1_555 1_555
H99 C85 1_555 1_555
H100 C85 1_555 1_555
C86 C85 1_555 1_555
H101 C86 1_555 1_555
H102 C86 1_555 1_555
C87 C86 1_555 1_555
H103 C87 1_555 1_555
H104 C87 1_555 1_555
C88 C87 1_555 1_555
H105 C88 1_555 1_555
H106 C88 1_555 1_555
H107 C88 1_555 1_555
C89 P4 1_555 1_555
H108 C89 1_555 1_555
H109 C89 1_555 1_555
C90 C89 1_555 1_555
H110 C90 1_555 1_555
H111 C90 1_555 1_555
C91 C90 1_555 1_555
H112 C91 1_555 1_555
H113 C91 1_555 1_555
C92 C91 1_555 1_555
H114 C92 1_555 1_555
H115 C92 1_555 1_555
H116 C92 1_555 1_555
O2 C1 1_555 1_555
O4 C24 1_555 1_555
O6 C47 1_555 1_555
O8 C70 1_555 1_555
C6 C7 1_555 1_555
C14 C15 1_555 1_555
C29 C30 1_555 1_555
C37 C38 1_555 1_555
C52 C53 1_555 1_555
C60 C61 1_555 1_555
C75 C76 1_555 1_555
C83 C84 1_555 1_555

#END
