
#######################################################################
#
#                 Cambridge Crystallographic Data Centre
#                                CCDC 
#
#######################################################################
#
# If this CIF has been generated from an entry in the Cambridge 
# Structural Database, then it will include bibliographic, chemical, 
# crystal, experimental, refinement or atomic coordinate data resulting 
# from the CCDC's data processing and validation procedures.
#
#######################################################################

data_NOLDAU
_chemical_formula_moiety         'C17 H17 O4 P1'
_chemical_name_systematic        
'dimethyl (hydroxy(2-(phenylethynyl)phenyl)methyl)phosphonate'
_symmetry_cell_setting           monoclinic
_symmetry_space_group_name_H-M   'P 21/c'
_symmetry_Int_Tables_number      14
_space_group_name_Hall           '-P 2ybc'
loop_
_symmetry_equiv_pos_site_id
_symmetry_equiv_pos_as_xyz
1 x,y,z
2 -x,1/2+y,1/2-z
3 -x,-y,-z
4 x,1/2-y,1/2+z
_cell_length_a                   7.599(4)
_cell_length_b                   7.866(4)
_cell_length_c                   29.288(16)
_cell_angle_alpha                90
_cell_angle_beta                 93.847(9)
_cell_angle_gamma                90
_cell_volume                     1746.71
_exptl_crystal_colour            colorless
_chemical_melting_point          '124.0-125.0 deg.C'
_cell_formula_units_Z            4
_exptl_crystal_recrystallization_method 'ethyl acetate'
loop_
_atom_site_label
_atom_site_type_symbol
_atom_site_fract_x
_atom_site_fract_y
_atom_site_fract_z
P1 P 0.08827(10) 0.77556(9) 0.06323(2)
O1 O 0.0013(3) 0.6621(2) 0.10008(7)
O2 O 0.2901(3) 0.7245(3) 0.06723(7)
O3 O 0.0070(3) 0.7648(2) 0.01584(6)
O4 O 0.1699(2) 1.1070(2) 0.06190(6)
H1 H 0.1059 1.1228 0.0386
C2 C -0.011(3) 0.4791(9) 0.0968(6)
H5 H -0.0696 0.4358 0.1225
H6 H 0.1054 0.4314 0.0970
H7 H -0.0768 0.4485 0.0689
C3 C 0.3623(19) 0.609(2) 0.0355(3)
H8 H 0.4860 0.5933 0.0433
H9 H 0.3458 0.6538 0.0050
H10 H 0.3032 0.5009 0.0368
C5 C 0.0882(3) 0.9861(3) 0.09074(8)
H14 H 0.1644 0.9773 0.1190
C6 C -0.0926(3) 1.0414(3) 0.10455(8)
C7 C -0.2365(3) 1.0495(3) 0.07190(9)
H15 H -0.2211 1.0166 0.0419
C8 C -0.4016(4) 1.1058(4) 0.08332(12)
H16 H -0.4957 1.1083 0.0613
C9 C -0.4248(4) 1.1580(4) 0.12770(13)
H17 H -0.5345 1.1974 0.1353
C10 C -0.2859(4) 1.1521(4) 0.16104(11)
H18 H -0.3036 1.1880 0.1906
C11 C -0.1177(3) 1.0922(3) 0.15047(9)
C12 C 0.0245(4) 1.0852(3) 0.18636(9)
C13 C 0.1356(4) 1.0819(3) 0.21787(9)
C14 C 0.2732(4) 1.0812(3) 0.25502(8)
C15 C 0.2456(4) 1.1660(4) 0.29670(9)
H19 H 0.1378 1.2176 0.3010
C16 C 0.3815(5) 1.1715(4) 0.33136(10)
H20 H 0.3635 1.2281 0.3585
C17 C 0.5418(5) 1.0941(4) 0.32585(11)
H21 H 0.6311 1.0991 0.3491
C18 C 0.5694(5) 1.0084(4) 0.28521(11)
H22 H 0.6770 0.9557 0.2814
C19 C 0.4345(4) 1.0017(4) 0.25004(10)
H23 H 0.4532 0.9436 0.2231
C1? C -0.083(4) 0.496(2) 0.0902(7)
H2? H -0.1290 0.4519 0.1175
H3? H 0.0021 0.4183 0.0794
H4? H -0.1780 0.5100 0.0671
C4? C 0.419(2) 0.696(4) 0.0336(4)
H11? H 0.5312 0.6696 0.0490
H12? H 0.4294 0.7962 0.0154
H13? H 0.3814 0.6023 0.0143
loop_
_geom_bond_atom_site_label_1
_geom_bond_atom_site_label_2
_geom_bond_site_symmetry_1
_geom_bond_site_symmetry_2
P1 O1 1_555 1_555
O1 C2 1_555 1_555
O2 P1 1_555 1_555
O3 P1 1_555 1_555
O4 H1 1_555 1_555
C2 H5 1_555 1_555
H6 C2 1_555 1_555
H7 C2 1_555 1_555
C3 O2 1_555 1_555
H8 C3 1_555 1_555
H9 C3 1_555 1_555
H10 C3 1_555 1_555
C5 P1 1_555 1_555
H14 C5 1_555 1_555
C6 C5 1_555 1_555
C7 C6 1_555 1_555
H15 C7 1_555 1_555
C8 C7 1_555 1_555
H16 C8 1_555 1_555
C9 C8 1_555 1_555
H17 C9 1_555 1_555
C10 C9 1_555 1_555
H18 C10 1_555 1_555
C11 C6 1_555 1_555
C12 C11 1_555 1_555
C13 C12 1_555 1_555
C14 C13 1_555 1_555
C15 C14 1_555 1_555
H19 C15 1_555 1_555
C16 C15 1_555 1_555
H20 C16 1_555 1_555
C17 C16 1_555 1_555
H21 C17 1_555 1_555
C18 C17 1_555 1_555
H22 C18 1_555 1_555
C19 C14 1_555 1_555
H23 C19 1_555 1_555
O4 C5 1_555 1_555
C10 C11 1_555 1_555
C18 C19 1_555 1_555

#END
