
#######################################################################
#
#                 Cambridge Crystallographic Data Centre
#                                CCDC 
#
#######################################################################
#
# If this CIF has been generated from an entry in the Cambridge 
# Structural Database, then it will include bibliographic, chemical, 
# crystal, experimental, refinement or atomic coordinate data resulting 
# from the CCDC's data processing and validation procedures.
#
#######################################################################

data_NOLMUY
_chemical_formula_moiety         'C24 H21 Cl2 N1 O5'
_chemical_name_systematic        
3,3'-(((2-(4-hydroxyphenyl)ethyl)imino)bis(methylene))bis(5-chloro-2-hydroxybenzaldehyde)
_symmetry_cell_setting           triclinic
_symmetry_space_group_name_H-M   'P -1'
_symmetry_Int_Tables_number      2
_space_group_name_Hall           '-P 1'
loop_
_symmetry_equiv_pos_site_id
_symmetry_equiv_pos_as_xyz
1 x,y,z
2 -x,-y,-z
_cell_length_a                   9.1529(6)
_cell_length_b                   9.5172(7)
_cell_length_c                   13.2454(10)
_cell_angle_alpha                84.3590(10)
_cell_angle_beta                 86.9020(10)
_cell_angle_gamma                71.9780(10)
_cell_volume                     1091.54
_exptl_crystal_colour            yellow
_exptl_crystal_description       block
_cell_formula_units_Z            2
loop_
_atom_site_label
_atom_site_type_symbol
_atom_site_fract_x
_atom_site_fract_y
_atom_site_fract_z
C1 C 0.1963(3) 0.4882(3) 0.6139(2)
H1 H 0.1617 0.4835 0.6811
C2 C 0.2762(3) 0.5983(3) 0.58104(19)
C3 C 0.3188(3) 0.6204(3) 0.4794(2)
H2 H 0.2959 0.5663 0.4311
C4 C 0.3944(3) 0.7219(3) 0.45118(19)
C5 C 0.4325(3) 0.8020(3) 0.52168(19)
H3 H 0.4859 0.8690 0.5010
C6 C 0.3914(3) 0.7827(3) 0.62278(19)
C7 C 0.3122(3) 0.6803(3) 0.65241(19)
C8 C 0.4341(3) 0.8644(3) 0.70353(19)
H4 H 0.5158 0.7965 0.7441
H5 H 0.4715 0.9432 0.6715
C9 C 0.3481(3) 0.9724(3) 0.86317(19)
H6 H 0.2587 1.0377 0.8956
H7 H 0.4188 1.0287 0.8441
C10 C 0.4243(3) 0.8464(3) 0.93924(18)
C11 C 0.5781(3) 0.8088(3) 0.95891(19)
H8 H 0.6383 0.8596 0.9221
C12 C 0.6455(3) 0.6965(3) 1.0328(2)
C13 C 0.5596(3) 0.6209(3) 1.08851(19)
H9 H 0.6053 0.5460 1.1379
C14 C 0.4030(3) 0.6566(3) 1.07094(19)
C15 C 0.3354(3) 0.7694(3) 0.99642(19)
C16 C 0.3095(4) 0.5754(3) 1.1325(2)
H10 H 0.3577 0.5023 1.1823
C17 C 0.1880(3) 1.0559(3) 0.7162(2)
H11 H 0.1933 1.0407 0.6446
H12 H 0.2175 1.1440 0.7230
C18 C 0.0228(3) 1.0827(3) 0.7547(2)
H13 H 0.0195 1.0845 0.8279
H14 H -0.0394 1.1791 0.7262
C19 C -0.0458(3) 0.9658(3) 0.7277(2)
C20 C -0.0705(3) 0.8586(4) 0.7982(2)
H15 H -0.0514 0.8617 0.8661
C21 C -0.1230(3) 0.7465(4) 0.7708(2)
H16 H -0.1375 0.6747 0.8198
C22 C -0.1535(3) 0.7416(3) 0.6718(2)
C23 C -0.1338(3) 0.8494(4) 0.6000(2)
H17 H -0.1565 0.8478 0.5327
C24 C -0.0806(3) 0.9594(3) 0.6283(2)
H18 H -0.0675 1.0316 0.5791
Cl1 Cl 0.44571(10) 0.75071(9) 0.32354(5)
Cl2 Cl 0.84100(9) 0.65220(9) 1.05586(6)
N1 N 0.2990(2) 0.9279(2) 0.76978(15)
O1 O 0.2719(2) 0.65868(19) 0.75087(13)
H19 H 0.2657 0.7327 0.7798
O2 O 0.1732(3) 0.4039(2) 0.55896(17)
O3 O 0.1848(2) 0.8082(2) 0.97815(16)
H20 H 0.1448 0.7562 1.0159
O4 O 0.1764(3) 0.5996(3) 1.12103(17)
O5 O -0.2062(3) 0.6286(3) 0.64769(17)
H21 H -0.1966 0.6216 0.5863
loop_
_geom_bond_atom_site_label_1
_geom_bond_atom_site_label_2
_geom_bond_site_symmetry_1
_geom_bond_site_symmetry_2
C1 H1 1_555 1_555
C2 C1 1_555 1_555
C3 C2 1_555 1_555
H2 C3 1_555 1_555
C4 C3 1_555 1_555
C5 C4 1_555 1_555
H3 C5 1_555 1_555
C6 C5 1_555 1_555
C7 C2 1_555 1_555
C8 C6 1_555 1_555
H4 C8 1_555 1_555
H5 C8 1_555 1_555
C9 H6 1_555 1_555
H7 C9 1_555 1_555
C10 C9 1_555 1_555
C11 C10 1_555 1_555
H8 C11 1_555 1_555
C12 C11 1_555 1_555
C13 C12 1_555 1_555
H9 C13 1_555 1_555
C14 C13 1_555 1_555
C15 C10 1_555 1_555
C16 C14 1_555 1_555
H10 C16 1_555 1_555
C17 H11 1_555 1_555
H12 C17 1_555 1_555
C18 C17 1_555 1_555
H13 C18 1_555 1_555
H14 C18 1_555 1_555
C19 C18 1_555 1_555
C20 C19 1_555 1_555
H15 C20 1_555 1_555
C21 C20 1_555 1_555
H16 C21 1_555 1_555
C22 C21 1_555 1_555
C23 C22 1_555 1_555
H17 C23 1_555 1_555
C24 C19 1_555 1_555
H18 C24 1_555 1_555
Cl1 C4 1_555 1_555
Cl2 C12 1_555 1_555
N1 C8 1_555 1_555
O1 C7 1_555 1_555
H19 O1 1_555 1_555
O2 C1 1_555 1_555
O3 C15 1_555 1_555
H20 O3 1_555 1_555
O4 C16 1_555 1_555
O5 C22 1_555 1_555
H21 O5 1_555 1_555
C6 C7 1_555 1_555
C9 N1 1_555 1_555
C14 C15 1_555 1_555
C17 N1 1_555 1_555
C23 C24 1_555 1_555

#END
