
#######################################################################
#
#                 Cambridge Crystallographic Data Centre
#                                CCDC 
#
#######################################################################
#
# If this CIF has been generated from an entry in the Cambridge 
# Structural Database, then it will include bibliographic, chemical, 
# crystal, experimental, refinement or atomic coordinate data resulting 
# from the CCDC's data processing and validation procedures.
#
#######################################################################

data_NOPKUZ
_chemical_formula_moiety         'C15 H15 Br1 N2 O2 S1'
_chemical_name_systematic        
2-(4-Bromophenyl)-N-(p-toluenesulfonyl)acetamidine
_symmetry_cell_setting           monoclinic
_symmetry_space_group_name_H-M   'P 21/c'
_symmetry_Int_Tables_number      14
_space_group_name_Hall           '-P 2ybc'
loop_
_symmetry_equiv_pos_site_id
_symmetry_equiv_pos_as_xyz
1 x,y,z
2 -x,1/2+y,1/2-z
3 -x,-y,-z
4 x,1/2-y,1/2+z
_cell_length_a                   18.515(2)
_cell_length_b                   11.0857(12)
_cell_length_c                   7.8824(9)
_cell_angle_alpha                90
_cell_angle_beta                 95.619(6)
_cell_angle_gamma                90
_cell_volume                     1610.1
_exptl_crystal_colour            white
_exptl_crystal_description       block
_cell_formula_units_Z            4
loop_
_atom_site_label
_atom_site_type_symbol
_atom_site_fract_x
_atom_site_fract_y
_atom_site_fract_z
Br1 Br 0.08294(5) 1.10035(12) 1.03240(16)
C1 C 0.1840(4) 1.1171(7) 1.0248(9)
C2 C 0.2283(4) 1.0302(6) 1.0998(8)
H1 H 0.2089 0.9657 1.1558
C3 C 0.3024(4) 1.0388(6) 1.0920(8)
H2 H 0.3327 0.9791 1.1421
C4 C 0.3320(4) 1.1344(6) 1.0112(8)
C5 C 0.2864(4) 1.2215(6) 0.9390(8)
H3 H 0.3056 1.2872 0.8854
C6 C 0.2121(5) 1.2130(6) 0.9450(9)
H4 H 0.1815 1.2723 0.8949
C7 C 0.4126(4) 1.1402(7) 0.9907(9)
H5 H 0.4276 1.2239 0.9861
H6 H 0.4396 1.1029 1.0885
C8 C 0.4298(3) 1.0763(6) 0.8296(8)
N1 N 0.4863(3) 1.1156(5) 0.7623(7)
H7 H 0.4991 1.0828 0.6711
H8 H 0.5110 1.1747 0.8088
N2 N 0.3872(3) 0.9879(5) 0.7736(6)
S1 S 0.38862(8) 0.92535(15) 0.5925(2)
O1 O 0.4118(2) 1.0056(4) 0.4637(5)
O2 O 0.4267(3) 0.8128(4) 0.6064(7)
C9 C 0.2960(3) 0.8935(5) 0.5435(7)
C10 C 0.2435(3) 0.9738(6) 0.5854(8)
H9 H 0.2568 1.0437 0.6458
C11 C 0.1711(4) 0.9497(7) 0.5369(9)
H10 H 0.1360 1.0044 0.5644
C12 C 0.1498(4) 0.8463(9) 0.4487(10)
C13 C 0.2022(5) 0.7679(7) 0.4080(9)
H11 H 0.1885 0.6979 0.3484
C14 C 0.2757(4) 0.7898(5) 0.4534(8)
H12 H 0.3106 0.7355 0.4236
C15 C 0.0701(4) 0.8187(10) 0.3973(12)
H13 H 0.0567 0.8485 0.2843
H14 H 0.0409 0.8571 0.4757
H15 H 0.0625 0.7330 0.3997
loop_
_geom_bond_atom_site_label_1
_geom_bond_atom_site_label_2
_geom_bond_site_symmetry_1
_geom_bond_site_symmetry_2
Br1 C1 1_555 1_555
C1 C2 1_555 1_555
C2 H1 1_555 1_555
C3 C2 1_555 1_555
H2 C3 1_555 1_555
C4 C3 1_555 1_555
C5 C4 1_555 1_555
H3 C5 1_555 1_555
C6 C1 1_555 1_555
H4 C6 1_555 1_555
C7 C4 1_555 1_555
H5 C7 1_555 1_555
H6 C7 1_555 1_555
C8 C7 1_555 1_555
N1 C8 1_555 1_555
H7 N1 1_555 1_555
H8 N1 1_555 1_555
N2 C8 1_555 1_555
S1 N2 1_555 1_555
O1 S1 1_555 1_555
O2 S1 1_555 1_555
C9 S1 1_555 1_555
C10 C9 1_555 1_555
H9 C10 1_555 1_555
C11 C10 1_555 1_555
H10 C11 1_555 1_555
C12 C11 1_555 1_555
C13 C12 1_555 1_555
H11 C13 1_555 1_555
C14 C9 1_555 1_555
H12 C14 1_555 1_555
C15 C12 1_555 1_555
H13 C15 1_555 1_555
H14 C15 1_555 1_555
H15 C15 1_555 1_555
C5 C6 1_555 1_555
C13 C14 1_555 1_555

#END
