
#######################################################################
#
#                 Cambridge Crystallographic Data Centre
#                                CCDC 
#
#######################################################################
#
# If this CIF has been generated from an entry in the Cambridge 
# Structural Database, then it will include bibliographic, chemical, 
# crystal, experimental, refinement or atomic coordinate data resulting 
# from the CCDC's data processing and validation procedures.
#
#######################################################################

data_NOQDAY
_chemical_formula_moiety         'C27 H35 N2 O4 S1 1+,Cl1 O4 1-'
_chemical_name_systematic        
'2-(2-(4-(13-Aza-1,4,7,10-tetraoxa-13-cyclopentadecyl)phenyl)ethenyl)-3-ethylbenzothiazolium perchlorate'
_symmetry_cell_setting           triclinic
_symmetry_space_group_name_H-M   'P -1'
_symmetry_Int_Tables_number      2
_space_group_name_Hall           '-P 1'
loop_
_symmetry_equiv_pos_site_id
_symmetry_equiv_pos_as_xyz
1 x,y,z
2 -x,-y,-z
_cell_length_a                   9.2021(1)
_cell_length_b                   9.8491(2)
_cell_length_c                   16.3792
_cell_angle_alpha                106.503(1)
_cell_angle_beta                 98.009(1)
_cell_angle_gamma                98.217(1)
_cell_volume                     1383.17
_exptl_crystal_colour            red
_exptl_crystal_description       plate
_chemical_melting_point          237-239deg.C
_cell_formula_units_Z            2
loop_
_atom_site_label
_atom_site_type_symbol
_atom_site_fract_x
_atom_site_fract_y
_atom_site_fract_z
Cl1 Cl 0.8716(1) 0.1557(1) -0.1320(1)
O1 O 0.8411(2) 0.1055(2) -0.0606(1)
O2 O 0.9975(2) 0.1023(2) -0.1634(1)
O3 O 0.9043(2) 0.3120(2) -0.1030(1)
O4 O 0.7405(2) 0.1051(2) -0.1997(1)
S1 S 0.6411(1) 0.3310(1) 0.0389(1)
N1 N 0.1769(2) -0.4898(2) -0.3421(1)
N2 N 0.3812(2) 0.3762(2) 0.0641(1)
O5 O 0.3879(2) -0.6691(2) -0.5044(1)
O6 O 0.0713(2) -0.8175(2) -0.5815(1)
O7 O -0.1841(2) -0.8421(2) -0.4922(1)
O8 O -0.2233(2) -0.6023(2) -0.3374(1)
C1 C 0.2646(2) -0.5933(2) -0.3836(1)
C2 C 0.3123(2) -0.5602(2) -0.4624(1)
C3 C 0.3267(2) -0.7404(2) -0.5937(1)
C4 C 0.2018(3) -0.8662(2) -0.6087(2)
C5 C -0.0508(3) -0.9362(2) -0.6059(2)
C6 C -0.1909(3) -0.8856(3) -0.5834(1)
C7 C -0.3209(2) -0.8012(2) -0.4726(1)
C8 C -0.3121(2) -0.7435(2) -0.3762(2)
C9 C -0.0660(2) -0.5957(2) -0.3155(1)
C10 C 0.0151(2) -0.5280(2) -0.3737(1)
C11 C 0.4487(2) 0.2751(2) 0.0189(1)
C12 C 0.3725(2) 0.1388(2) -0.0398(1)
C13 C 0.4438(2) 0.0459(2) -0.0899(1)
C14 C 0.3736(2) -0.0885(2) -0.1549(1)
C15 C 0.4623(2) -0.1808(2) -0.1980(1)
C16 C 0.4000(2) -0.3131(2) -0.2583(1)
C17 C 0.2423(2) -0.3605(2) -0.2812(1)
C18 C 0.1535(2) -0.2657(2) -0.2391(1)
C19 C 0.2171(2) -0.1353(2) -0.1779(1)
C20 C 0.4795(2) 0.5019(2) 0.1177(1)
C21 C 0.4421(2) 0.6245(2) 0.1714(1)
C22 C 0.5578(2) 0.7397(2) 0.2159(1)
C23 C 0.7064(2) 0.7337(2) 0.2080(1)
C24 C 0.7442(2) 0.6114(2) 0.1554(1)
C25 C 0.6285(2) 0.4950(2) 0.1106(1)
C26 C 0.2165(2) 0.3608(2) 0.0560(1)
C27 C 0.1579(3) 0.2916(3) 0.1196(2)
H1 H 0.3521(26) -0.5941(24) -0.3418(15)
H2 H 0.2012(25) -0.6908(25) -0.4032(14)
H3 H 0.2226(26) -0.5539(24) -0.5023(15)
H4 H 0.3846(24) -0.4646(23) -0.4446(14)
H5 H 0.4111(27) -0.7784(26) -0.6217(16)
H6 H 0.2930(27) -0.6694(26) -0.6227(16)
H7 H 0.2312(33) -0.9313(31) -0.5768(19)
H8 H 0.1785(27) -0.9216(26) -0.6711(17)
H9 H -0.0315(27) -1.0139(26) -0.5799(16)
H10 H -0.0654(27) -0.9813(26) -0.6695(17)
H11 H -0.2056(28) -0.8060(27) -0.6075(16)
H12 H -0.2764(30) -0.9660(28) -0.6114(17)
H13 H -0.3477(27) -0.7285(26) -0.4999(16)
H14 H -0.4045(27) -0.8850(25) -0.4965(15)
H15 H -0.4133(26) -0.7340(24) -0.3656(15)
H16 H -0.2778(26) -0.8104(25) -0.3457(15)
H17 H -0.0298(26) -0.5322(25) -0.2537(16)
H18 H -0.0434(25) -0.6937(24) -0.3204(14)
H19 H -0.0222(26) -0.4410(25) -0.3777(15)
H20 H -0.0038(26) -0.5945(25) -0.4320(16)
H21 H 0.2710(25) 0.1189(22) -0.0429(14)
H22 H 0.5496(24) 0.0702(22) -0.0839(13)
H23 H 0.5701(26) -0.1460(24) -0.1846(15)
H24 H 0.4657(26) -0.3729(25) -0.2840(15)
H25 H 0.0476(26) -0.2915(24) -0.2532(14)
H26 H 0.1512(26) -0.0749(25) -0.1510(15)
H27 H 0.3394(27) 0.6312(24) 0.1768(15)
H28 H 0.5340(26) 0.8260(25) 0.2516(15)
H29 H 0.7814(27) 0.8153(26) 0.2394(15)
H30 H 0.8447(27) 0.6070(24) 0.1482(15)
H31 H 0.1755(25) 0.3050(24) -0.0026(15)
H32 H 0.1949(27) 0.4576(27) 0.0654(15)
H33 H 0.1750(30) 0.1932(30) 0.1074(17)
H34 H 0.0473(31) 0.2870(28) 0.1115(17)
H35 H 0.2033(28) 0.3524(27) 0.1802(17)
loop_
_geom_bond_atom_site_label_1
_geom_bond_atom_site_label_2
_geom_bond_site_symmetry_1
_geom_bond_site_symmetry_2
Cl1 O1 1_555 1_555
O2 Cl1 1_555 1_555
O3 Cl1 1_555 1_555
O4 Cl1 1_555 1_555
S1 C11 1_555 1_555
N1 C1 1_555 1_555
N2 C11 1_555 1_555
O5 C2 1_555 1_555
O6 C4 1_555 1_555
O7 C6 1_555 1_555
O8 C8 1_555 1_555
C1 C2 1_555 1_555
C2 H3 1_555 1_555
C3 O5 1_555 1_555
C4 C3 1_555 1_555
C5 O6 1_555 1_555
C6 C5 1_555 1_555
C7 O7 1_555 1_555
C8 C7 1_555 1_555
C9 O8 1_555 1_555
C10 N1 1_555 1_555
C11 C12 1_555 1_555
C12 C13 1_555 1_555
C13 C14 1_555 1_555
C14 C15 1_555 1_555
C15 C16 1_555 1_555
C16 C17 1_555 1_555
C17 N1 1_555 1_555
C18 C17 1_555 1_555
C19 C14 1_555 1_555
C20 N2 1_555 1_555
C21 C20 1_555 1_555
C22 C21 1_555 1_555
C23 C22 1_555 1_555
C24 C23 1_555 1_555
C25 S1 1_555 1_555
C26 N2 1_555 1_555
C27 C26 1_555 1_555
H1 C1 1_555 1_555
H2 C1 1_555 1_555
H4 C2 1_555 1_555
H5 C3 1_555 1_555
H6 C3 1_555 1_555
H7 C4 1_555 1_555
H8 C4 1_555 1_555
H9 C5 1_555 1_555
H10 C5 1_555 1_555
H11 C6 1_555 1_555
H12 C6 1_555 1_555
H13 C7 1_555 1_555
H14 C7 1_555 1_555
H15 C8 1_555 1_555
H16 C8 1_555 1_555
H17 C9 1_555 1_555
H18 C9 1_555 1_555
H19 C10 1_555 1_555
H20 C10 1_555 1_555
H21 C12 1_555 1_555
H22 C13 1_555 1_555
H23 C15 1_555 1_555
H24 C16 1_555 1_555
H25 C18 1_555 1_555
H26 C19 1_555 1_555
H27 C21 1_555 1_555
H28 C22 1_555 1_555
H29 C23 1_555 1_555
H30 C24 1_555 1_555
H31 C26 1_555 1_555
H32 C26 1_555 1_555
H33 C27 1_555 1_555
H34 C27 1_555 1_555
H35 C27 1_555 1_555
C9 C10 1_555 1_555
C18 C19 1_555 1_555
C20 C25 1_555 1_555
C24 C25 1_555 1_555

#END
