
#######################################################################
#
#                 Cambridge Crystallographic Data Centre
#                                CCDC 
#
#######################################################################
#
# If this CIF has been generated from an entry in the Cambridge 
# Structural Database, then it will include bibliographic, chemical, 
# crystal, experimental, refinement or atomic coordinate data resulting 
# from the CCDC's data processing and validation procedures.
#
#######################################################################

data_NOQVOF
_chemical_formula_moiety         'C7 H7 Cl1 O2 S1'
_chemical_name_systematic        
2-Chloromethyl-2,3-dihydrothieno[3,4-b][1,4]dioxine
_symmetry_cell_setting           monoclinic
_symmetry_space_group_name_H-M   'P 21/n'
_symmetry_Int_Tables_number      14
_space_group_name_Hall           '-P 2yn'
loop_
_symmetry_equiv_pos_site_id
_symmetry_equiv_pos_as_xyz
1 x,y,z
2 1/2-x,1/2+y,1/2-z
3 -x,-y,-z
4 1/2+x,1/2-y,1/2+z
_cell_length_a                   10.227(2)
_cell_length_b                   5.7500(12)
_cell_length_c                   14.376(3)
_cell_angle_alpha                90
_cell_angle_beta                 105.55(3)
_cell_angle_gamma                90
_cell_volume                     814.441
_exptl_crystal_colour            colorless
_exptl_crystal_description       block
_cell_formula_units_Z            4
_exptl_crystal_recrystallization_method hexane
loop_
_atom_site_label
_atom_site_type_symbol
_atom_site_fract_x
_atom_site_fract_y
_atom_site_fract_z
Cl1 Cl -0.37084(12) 0.1937(2) 0.51615(9)
S1 S 0.12047(12) 0.1840(2) 0.27636(9)
O1 O -0.1425(3) 0.6480(5) 0.29741(19)
O2 O -0.1277(2) 0.2762(4) 0.43358(19)
C1 C -0.2959(4) 0.4560(8) 0.4923(3)
H1 H -0.3636 0.5786 0.4805
H2 H -0.2238 0.4991 0.5486
C2 C -0.2397(4) 0.4363(7) 0.4079(3)
H3 H -0.3096 0.3729 0.3531
C3 C -0.1903(4) 0.6650(6) 0.3787(3)
H4 H -0.2641 0.7765 0.3663
H5 H -0.1181 0.7236 0.4320
C4 C -0.0539(4) 0.4634(7) 0.3034(3)
C5 C -0.0507(4) 0.2828(6) 0.3683(3)
C6 C 0.0309(4) 0.4363(8) 0.2481(3)
H6 H 0.0400 0.5405 0.2008
C7 C 0.0424(4) 0.1179(7) 0.3626(3)
H7 H 0.0605 -0.0143 0.4012
loop_
_geom_bond_atom_site_label_1
_geom_bond_atom_site_label_2
_geom_bond_site_symmetry_1
_geom_bond_site_symmetry_2
Cl1 C1 1_555 1_555
S1 C6 1_555 1_555
O1 C3 1_555 1_555
O2 C2 1_555 1_555
C1 H1 1_555 1_555
H2 C1 1_555 1_555
C2 C1 1_555 1_555
H3 C2 1_555 1_555
C3 C2 1_555 1_555
H4 C3 1_555 1_555
H5 C3 1_555 1_555
C4 O1 1_555 1_555
C5 O2 1_555 1_555
C6 C4 1_555 1_555
H6 C6 1_555 1_555
C7 S1 1_555 1_555
H7 C7 1_555 1_555
C4 C5 1_555 1_555
C5 C7 1_555 1_555

#END
