
#######################################################################
#
#                 Cambridge Crystallographic Data Centre
#                                CCDC 
#
#######################################################################
#
# If this CIF has been generated from an entry in the Cambridge 
# Structural Database, then it will include bibliographic, chemical, 
# crystal, experimental, refinement or atomic coordinate data resulting 
# from the CCDC's data processing and validation procedures.
#
#######################################################################

data_NOSFAE
_chemical_name_common            
'Thiaplakortone A propylamide dimethyl sulfoxide solvate'
_chemical_formula_moiety         'C15 H15 N3 O5 S1,C2 H6 O1 S1'
_chemical_name_systematic        
'N-(2-(1,1-Dioxido-5,9-dioxo-4,5,6,9-tetrahydro[1,4]thiazino[2,3-f]indol-8-yl)ethyl)propanamide dimethyl sulfoxide solvate'
_chemical_properties_biological  'antimalarial activity'
_symmetry_cell_setting           monoclinic
_symmetry_space_group_name_H-M   'P 21/c'
_symmetry_Int_Tables_number      14
_space_group_name_Hall           '-P 2ybc'
loop_
_symmetry_equiv_pos_site_id
_symmetry_equiv_pos_as_xyz
1 x,y,z
2 -x,1/2+y,1/2-z
3 -x,-y,-z
4 x,1/2-y,1/2+z
_cell_length_a                   10.0722(6)
_cell_length_b                   24.9481(18)
_cell_length_c                   7.5588(5)
_cell_angle_alpha                90
_cell_angle_beta                 99.053(6)
_cell_angle_gamma                90
_cell_volume                     1875.73
_exptl_crystal_colour            orange
_exptl_crystal_description       plate
_chemical_melting_point          'decomposes above 280 deg.C'
_cell_formula_units_Z            4
_exptl_crystal_recrystallization_method 'dimethyl sulfoxide'
loop_
_atom_site_label
_atom_site_type_symbol
_atom_site_fract_x
_atom_site_fract_y
_atom_site_fract_z
S1 S 0.07104(7) 0.07943(3) 0.46170(9)
O1 O 0.41226(19) 0.21948(9) 0.7295(3)
O2 O -0.07420(18) 0.17657(8) 0.3439(3)
O3 O 0.0345(2) 0.06972(8) 0.2722(3)
O4 O -0.0323(2) 0.06909(9) 0.5679(3)
O5 O -0.3725(2) 0.41101(9) 0.2923(3)
N1 N 0.3442(2) 0.11754(10) 0.6653(3)
N2 N 0.2248(2) 0.30671(10) 0.5797(3)
N3 N -0.1943(2) 0.37953(10) 0.4822(3)
C1 C 0.2128(3) 0.04252(12) 0.5425(4)
C2 C 0.3252(3) 0.06394(12) 0.6305(4)
C3 C 0.2544(3) 0.15515(11) 0.5979(3)
C4 C 0.3031(3) 0.21226(12) 0.6392(3)
C5 C 0.2079(3) 0.25253(11) 0.5657(4)
C6 C 0.1149(3) 0.33074(12) 0.4910(4)
C7 C 0.0209(3) 0.29264(11) 0.4175(3)
C8 C 0.0832(3) 0.24270(11) 0.4658(3)
C9 C 0.0357(3) 0.18775(11) 0.4287(3)
C10 C 0.1310(3) 0.14479(11) 0.5004(3)
C11 C -0.1157(3) 0.30340(11) 0.3155(4)
C12 C -0.2167(3) 0.32348(11) 0.4339(4)
C13 C -0.2684(3) 0.41926(12) 0.4001(4)
C14 C -0.2161(3) 0.47521(12) 0.4430(4)
C15 C -0.3214(3) 0.51853(13) 0.4042(5)
H1 H 0.20970 0.00490 0.52320
H2 H 0.39730 0.04010 0.67150
H3 H 0.41720 0.12770 0.73320
H4 H 0.29540 0.32310 0.63700
H5 H 0.10170 0.36850 0.47970
H6 H -0.10840 0.33000 0.22780
H7 H -0.15030 0.27130 0.25900
H8 H -0.30500 0.31980 0.37000
H9 H -0.20720 0.30260 0.54000
H10 H -0.13010 0.38750 0.56890
H11 H -0.18070 0.47680 0.56740
H12 H -0.14680 0.48240 0.37500
H13 H -0.28410 0.55270 0.43790
H14 H -0.39450 0.51180 0.46770
H15 H -0.35610 0.51910 0.27830
S2 S -0.43807(7) 0.14992(3) 0.26435(10)
O6 O -0.5829(2) 0.13919(9) 0.2843(3)
C16 C -0.3743(3) 0.19210(13) 0.4453(4)
C17 C -0.3511(3) 0.09055(14) 0.3417(4)
H16 H -0.42190 0.22530 0.43790
H17 H -0.28110 0.19950 0.44510
H18 H -0.38300 0.17530 0.55700
H19 H -0.25630 0.09600 0.35080
H20 H -0.37190 0.08050 0.45440
H21 H -0.37630 0.06200 0.25750
loop_
_geom_bond_atom_site_label_1
_geom_bond_atom_site_label_2
_geom_bond_site_symmetry_1
_geom_bond_site_symmetry_2
S1 O3 1_555 1_555
O1 C4 1_555 1_555
O2 C9 1_555 1_555
O4 S1 1_555 1_555
O5 C13 1_555 1_555
N1 C2 1_555 1_555
N2 C5 1_555 1_555
N3 C12 1_555 1_555
C1 S1 1_555 1_555
C2 C1 1_555 1_555
C3 N1 1_555 1_555
C4 C3 1_555 1_555
C5 C4 1_555 1_555
C6 N2 1_555 1_555
C7 C6 1_555 1_555
C8 C5 1_555 1_555
C9 C8 1_555 1_555
C10 S1 1_555 1_555
C11 C7 1_555 1_555
C12 C11 1_555 1_555
C13 N3 1_555 1_555
C14 C13 1_555 1_555
C15 C14 1_555 1_555
H1 C1 1_555 1_555
H2 C2 1_555 1_555
H3 N1 1_555 1_555
H4 N2 1_555 1_555
H5 C6 1_555 1_555
H6 C11 1_555 1_555
H7 C11 1_555 1_555
H8 C12 1_555 1_555
H9 C12 1_555 1_555
H10 N3 1_555 1_555
H11 C14 1_555 1_555
H12 C14 1_555 1_555
H13 C15 1_555 1_555
H14 C15 1_555 1_555
H15 C15 1_555 1_555
S2 O6 1_555 1_555
C16 S2 1_555 1_555
C17 S2 1_555 1_555
H16 C16 1_555 1_555
H17 C16 1_555 1_555
H18 C16 1_555 1_555
H19 C17 1_555 1_555
H20 C17 1_555 1_555
H21 C17 1_555 1_555
C3 C10 1_555 1_555
C7 C8 1_555 1_555
C9 C10 1_555 1_555

#END
