
#######################################################################
#
#                 Cambridge Crystallographic Data Centre
#                                CCDC 
#
#######################################################################
#
# If this CIF has been generated from an entry in the Cambridge 
# Structural Database, then it will include bibliographic, chemical, 
# crystal, experimental, refinement or atomic coordinate data resulting 
# from the CCDC's data processing and validation procedures.
#
#######################################################################

data_NOTHNL
_chemical_formula_moiety         'C8 H4 N2 O4 S2'
_chemical_name_systematic        5,5'-Dinitro-2,2'-bithienyl
_symmetry_cell_setting           monoclinic
_symmetry_space_group_name_H-M   'P 21/n'
_symmetry_Int_Tables_number      14
_space_group_name_Hall           '-P 2yn'
loop_
_symmetry_equiv_pos_site_id
_symmetry_equiv_pos_as_xyz
1 x,y,z
2 1/2-x,1/2+y,1/2-z
3 -x,-y,-z
4 1/2+x,1/2-y,1/2+z
_cell_length_a                   5.823(7)
_cell_length_b                   5.228(5)
_cell_length_c                   15.570(10)
_cell_angle_alpha                90
_cell_angle_beta                 96.3(1)
_cell_angle_gamma                90
_cell_volume                     471.13
_cell_formula_units_Z            2
loop_
_atom_site_label
_atom_site_type_symbol
_atom_site_fract_x
_atom_site_fract_y
_atom_site_fract_z
S1 S -0.23170 0.20470 0.03920
C1 C 0.00100 0.40830 0.03470
C2 C 0.17000 0.36530 0.10260
C3 C 0.11600 0.16550 0.15710
C4 C -0.09510 0.06900 0.13050
N1 N -0.20500 -0.13940 0.17000
O1 O -0.40100 -0.19700 0.13900
O2 O -0.10090 -0.24070 0.23370
H1 H 0.29100 0.44720 0.11410
H2 H 0.20800 0.11700 0.20600
C1B C -0.00100 0.59170 -0.03470
S1B S 0.23170 0.79530 -0.03920
C4B C 0.09510 0.93100 -0.13050
C3B C -0.11600 0.83450 -0.15710
C2B C -0.17000 0.63470 -0.10260
H1B H -0.29100 0.55280 -0.11410
H2B H -0.20800 0.88300 -0.20600
N1B N 0.20500 1.13940 -0.17000
O1B O 0.40100 1.19700 -0.13900
O2B O 0.10090 1.24070 -0.23370
loop_
_geom_bond_atom_site_label_1
_geom_bond_atom_site_label_2
_geom_bond_site_symmetry_1
_geom_bond_site_symmetry_2
S1 C1 1_555 1_555
C1 C2 1_555 1_555
C2 C3 1_555 1_555
C3 C4 1_555 1_555
C4 S1 1_555 1_555
N1 C4 1_555 1_555
O1 N1 1_555 1_555
O2 N1 1_555 1_555
H1 C2 1_555 1_555
H2 C3 1_555 1_555
C1B C1 1_555 1_555
S1B C1B 1_555 1_555
C4B S1B 1_555 1_555
C3B C4B 1_555 1_555
C2B C1B 1_555 1_555
H1B C2B 1_555 1_555
H2B C3B 1_555 1_555
N1B C4B 1_555 1_555
O1B N1B 1_555 1_555
O2B N1B 1_555 1_555
C3B C2B 1_555 1_555

#END
