
#######################################################################
#
#                 Cambridge Crystallographic Data Centre
#                                CCDC 
#
#######################################################################
#
# If this CIF has been generated from an entry in the Cambridge 
# Structural Database, then it will include bibliographic, chemical, 
# crystal, experimental, refinement or atomic coordinate data resulting 
# from the CCDC's data processing and validation procedures.
#
#######################################################################

data_NOTMOY
_chemical_formula_moiety         'C22 H38 N2 O7 Si2'
_chemical_name_systematic        
\a-6-(1-Oxymethyl)-3',5'-O-(tetraisopropyldisiloxan-1,3-diyl)-2'-deoxyuridine
_symmetry_cell_setting           orthorhombic
_symmetry_space_group_name_H-M   'P 21 21 21'
_symmetry_Int_Tables_number      19
_space_group_name_Hall           'P 2ac 2ab'
loop_
_symmetry_equiv_pos_site_id
_symmetry_equiv_pos_as_xyz
1 x,y,z
2 1/2-x,-y,1/2+z
3 1/2+x,1/2-y,-z
4 -x,1/2+y,1/2-z
_cell_length_a                   13.568(3)
_cell_length_b                   26.312(2)
_cell_length_c                   7.538(3)
_cell_angle_alpha                90
_cell_angle_beta                 90
_cell_angle_gamma                90
_cell_volume                     2691.08
_exptl_crystal_colour            colorless
_exptl_crystal_description       prism
_cell_formula_units_Z            4
loop_
_atom_site_label
_atom_site_type_symbol
_atom_site_fract_x
_atom_site_fract_y
_atom_site_fract_z
Si1 Si -0.6403(2) -0.12352(8) -0.0969(3)
Si2 Si -0.8606(2) -0.15432(8) -0.1659(3)
O1 O -0.8461(4) -0.2138(2) -0.0974(6)
O2 O -0.8244(5) -0.2857(2) 0.4434(7)
O3 O -0.7858(4) -0.3712(2) -0.0190(6)
O4 O -0.6056(4) -0.1807(2) -0.0417(7)
O5 O -0.7070(4) -0.2816(2) 0.2251(7)
O6 O -0.7541(6) -0.5026(2) 0.3658(8)
O7 O -0.7571(4) -0.1228(2) -0.1449(8)
N1 N -0.7712(5) -0.4366(2) 0.1767(8)
N2 N -0.7979(5) -0.3548(2) 0.2767(8)
C1 C -0.8171(6) -0.2285(2) 0.073(1)
C2 C -0.8716(6) -0.2748(3) 0.140(1)
C3 C -0.8883(7) -0.1592(3) -0.407(1)
C4 C -0.6297(7) -0.2084(3) 0.113(1)
C5 C -0.6205(7) -0.0777(3) 0.087(1)
C6 C -0.7879(7) -0.3724(3) 0.450(1)
C7 C -0.7725(7) -0.4205(3) 0.4865(10)
C8 C -0.9501(7) -0.1191(3) -0.025(1)
C9 C -0.7847(6) -0.3863(3) 0.133(1)
C10 C -0.7929(8) -0.3255(3) 0.561(1)
C11 C -0.7102(6) -0.2473(3) 0.079(1)
C12 C -0.5111(7) -0.0651(4) 0.117(1)
C13 C -0.6844(7) -0.0304(3) 0.079(2)
C14 C -0.9810(7) -0.1867(3) -0.440(1)
C15 C -0.8008(7) -0.2991(3) 0.269(1)
C16 C -1.0338(7) -0.1511(3) 0.035(1)
C17 C -0.5746(8) -0.1500(3) -0.441(1)
C18 C -0.8855(9) -0.1085(3) -0.511(1)
C19 C -0.5646(7) -0.1090(3) -0.303(1)
C20 C -0.5858(9) -0.0572(3) -0.377(1)
C21 C -0.7654(7) -0.4566(3) 0.348(1)
C22 C -0.9772(7) -0.0675(3) -0.093(2)
H1 H -0.7676 -0.4576 0.0687
H2 H -0.8104 -0.1993 0.1547
H3 H -0.8768 -0.2982 0.0421
H4 H -0.9354 -0.2660 0.1953
H5 H -0.8444 -0.1865 -0.4563
H6 H -0.6533 -0.1862 0.2081
H7 H -0.5669 -0.2261 0.1215
H8 H -0.6462 -0.0920 0.2015
H9 H -0.7885 -0.4392 0.5978
H10 H -0.9215 -0.1185 0.0982
H11 H -0.8323 -0.3293 0.6626
H12 H -0.6921 -0.2649 -0.0292
H13 H -0.4861 -0.0534 0.2286
H14 H -0.4968 -0.0475 0.0006
H15 H -0.6751 -0.0079 0.1773
H16 H -0.7529 -0.0407 0.0729
H17 H -1.0743 -0.1376 0.1347
H18 H -1.0325 -0.1875 0.0815
H19 H -1.0797 -0.1555 -0.0586
H20 H -0.6294 -0.1347 -0.4973
H21 H -0.5666 -0.1863 -0.4183
H22 H -0.6138 -0.0328 -0.2935
H23 H -1.0130 -0.0525 0.0144
H24 H -1.0182 -0.0755 -0.1968
H25 H -0.9934 -0.1872 -0.5661
H26 H -0.9967 -0.2232 -0.4133
H27 H -1.0432 -0.1693 -0.4070
H28 H -0.8167 -0.0930 -0.4597
H29 H -0.4937 -0.1092 -0.2771
H30 H -0.5473 -0.0407 -0.4736
H31 H -0.7248 -0.3172 0.6071
loop_
_geom_bond_atom_site_label_1
_geom_bond_atom_site_label_2
_geom_bond_site_symmetry_1
_geom_bond_site_symmetry_2
Si1 O4 1_555 1_555
Si2 O1 1_555 1_555
O1 C1 1_555 1_555
O2 C10 1_555 1_555
O3 C9 1_555 1_555
O4 C4 1_555 1_555
O5 C11 1_555 1_555
O6 C21 1_555 1_555
O7 Si1 1_555 1_555
N1 C9 1_555 1_555
N2 C6 1_555 1_555
C1 C2 1_555 1_555
C2 C15 1_555 1_555
C3 Si2 1_555 1_555
C4 C11 1_555 1_555
C5 Si1 1_555 1_555
C6 C7 1_555 1_555
C7 C21 1_555 1_555
C8 Si2 1_555 1_555
C9 N2 1_555 1_555
C10 C6 1_555 1_555
C11 C1 1_555 1_555
C12 C5 1_555 1_555
C13 C5 1_555 1_555
C14 C3 1_555 1_555
C15 O2 1_555 1_555
C16 C8 1_555 1_555
C17 C19 1_555 1_555
C18 C3 1_555 1_555
C19 Si1 1_555 1_555
C20 C19 1_555 1_555
C21 N1 1_555 1_555
C22 C8 1_555 1_555
H1 N1 1_555 1_555
H2 C1 1_555 1_555
H3 C2 1_555 1_555
H4 C2 1_555 1_555
H5 C3 1_555 1_555
H6 C4 1_555 1_555
H7 C4 1_555 1_555
H8 C5 1_555 1_555
H9 C7 1_555 1_555
H10 C8 1_555 1_555
H11 C10 1_555 1_555
H12 C11 1_555 1_555
H13 C12 1_555 1_555
H14 C12 1_555 1_555
H15 C13 1_555 1_555
H16 C13 1_555 1_555
H17 C16 1_555 1_555
H18 C16 1_555 1_555
H19 C16 1_555 1_555
H20 C17 1_555 1_555
H21 C17 1_555 1_555
H22 C20 1_555 1_555
H23 C22 1_555 1_555
H24 C22 1_555 1_555
H25 C14 1_555 1_555
H26 C14 1_555 1_555
H27 C14 1_555 1_555
H28 C18 1_555 1_555
H29 C19 1_555 1_555
H30 C20 1_555 1_555
H31 C10 1_555 1_555
Si2 O7 1_555 1_555
O5 C15 1_555 1_555
N2 C15 1_555 1_555

#END
