
#######################################################################
#
#                 Cambridge Crystallographic Data Centre
#                                CCDC 
#
#######################################################################
#
# If this CIF has been generated from an entry in the Cambridge 
# Structural Database, then it will include bibliographic, chemical, 
# crystal, experimental, refinement or atomic coordinate data resulting 
# from the CCDC's data processing and validation procedures.
#
#######################################################################

data_NOVVEB
_chemical_formula_moiety         'C28 H22 Br1 N1 O3'
_chemical_name_systematic        
2-Bromo-N-((2R,3R,4S)-1',3'-dioxo-2-phenyl-4-vinyl-1',3'-dihydrospiro[cyclopentane-1,2'-inden]-3-yl)benzamide
_symmetry_cell_setting           orthorhombic
_symmetry_space_group_name_H-M   'P 21 21 21'
_symmetry_Int_Tables_number      19
_space_group_name_Hall           'P 2ac 2ab'
loop_
_symmetry_equiv_pos_site_id
_symmetry_equiv_pos_as_xyz
1 x,y,z
2 1/2-x,-y,1/2+z
3 1/2+x,1/2-y,-z
4 -x,1/2+y,1/2-z
_cell_length_a                   12.309(3)
_cell_length_b                   18.087(4)
_cell_length_c                   31.535(7)
_cell_angle_alpha                90
_cell_angle_beta                 90
_cell_angle_gamma                90
_cell_volume                     7020.73
_exptl_crystal_colour            colorless
_exptl_crystal_description       plate
_chemical_melting_point          '170-173 deg.C'
_cell_formula_units_Z            12
loop_
_atom_site_label
_atom_site_type_symbol
_atom_site_fract_x
_atom_site_fract_y
_atom_site_fract_z
Br1 Br 0.34617(9) 0.65215(5) 0.40140(3)
O1 O 0.0674(5) 0.3478(4) 0.31371(17)
O2 O -0.1044(5) 0.4197(3) 0.44149(17)
O3 O 0.3232(5) 0.4750(4) 0.48843(17)
N1 N 0.2864(5) 0.4772(4) 0.41833(19)
H1 H 0.3061 0.4926 0.3937
C1 C 0.0268(5) 0.3848(4) 0.3865(2)
C2 C 0.1040(6) 0.4528(4) 0.3876(2)
H2 H 0.1436 0.4526 0.3607
C3 C 0.1868(6) 0.4336(5) 0.4219(2)
H3 H 0.1539 0.4440 0.4496
C4 C 0.2043(6) 0.3492(5) 0.4183(3)
H4 H 0.2334 0.3297 0.4450
C5 C 0.0874(6) 0.3228(4) 0.4120(2)
H5 H 0.0525 0.3149 0.4392
H6 H 0.0863 0.2767 0.3963
C6 C 0.0005(6) 0.3591(4) 0.3410(2)
C7 C -0.1185(6) 0.3501(4) 0.3373(2)
C8 C -0.1763(7) 0.3247(5) 0.3025(3)
H7 H -0.1415 0.3115 0.2774
C9 C -0.2887(7) 0.3200(5) 0.3067(3)
H8 H -0.3304 0.3022 0.2843
C10 C -0.3389(7) 0.3417(5) 0.3441(3)
H9 H -0.4143 0.3391 0.3458
C11 C -0.2815(6) 0.3668(5) 0.3787(3)
H10 H -0.3163 0.3803 0.4037
C12 C -0.1681(6) 0.3712(4) 0.3746(2)
C13 C -0.0871(6) 0.3965(4) 0.4063(2)
C14 C 0.0506(6) 0.5275(4) 0.3910(2)
C15 C -0.0212(6) 0.5500(4) 0.3583(2)
H11 H -0.0348 0.5183 0.3357
C16 C -0.0718(7) 0.6188(5) 0.3596(3)
H12 H -0.1181 0.6332 0.3379
C17 C -0.0525(7) 0.6661(5) 0.3938(3)
H13 H -0.0863 0.7120 0.3949
C18 C 0.0167(7) 0.6445(5) 0.4258(3)
H14 H 0.0289 0.6758 0.4487
C19 C 0.0685(7) 0.5757(4) 0.4240(2)
H15 H 0.1161 0.5623 0.4456
C20 C 0.3482(6) 0.4940(4) 0.4521(2)
C21 C 0.4542(6) 0.5314(4) 0.4431(2)
C22 C 0.5488(7) 0.4938(6) 0.4597(3)
H16 H 0.5418 0.4513 0.4761
C23 C 0.6498(8) 0.5227(6) 0.4504(3)
H17 H 0.7116 0.4981 0.4599
C24 C 0.6616(8) 0.5882(7) 0.4272(3)
H18 H 0.7306 0.6064 0.4214
C25 C 0.5707(8) 0.6259(6) 0.4128(3)
H19 H 0.5781 0.6703 0.3982
C26 C 0.4679(7) 0.5960(5) 0.4206(2)
C27 C 0.2770(7) 0.3285(5) 0.3822(3)
H20 H 0.2511 0.3357 0.3549
C28 C 0.3754(7) 0.3006(6) 0.3866(4)
H21 H 0.4038 0.2926 0.4135
H22 H 0.4163 0.2889 0.3627
Br2 Br 0.06508(8) 0.28906(5) 0.20591(3)
O4 O 0.4035(4) 0.6540(3) 0.20803(18)
O5 O 0.3237(5) 0.5127(4) 0.32926(17)
O6 O -0.0668(4) 0.4789(3) 0.26190(16)
N2 N 0.0794(5) 0.4676(3) 0.21897(18)
H23 H 0.1051 0.4501 0.1957
C29 C 0.3173(6) 0.5746(4) 0.2607(2)
C30 C 0.2668(5) 0.5120(4) 0.2322(2)
H24 H 0.2682 0.5297 0.2028
C31 C 0.1483(6) 0.5122(4) 0.2466(2)
H25 H 0.1451 0.4910 0.2752
C32 C 0.1186(6) 0.5948(4) 0.2497(2)
H26 H 0.0557 0.6009 0.2684
C33 C 0.2211(6) 0.6269(5) 0.2715(3)
H27 H 0.2105 0.6292 0.3020
H28 H 0.2357 0.6764 0.2612
C34 C 0.4124(6) 0.6115(4) 0.2378(2)
C35 C 0.5142(6) 0.5883(4) 0.2587(2)
C36 C 0.6213(6) 0.6000(5) 0.2462(3)
H29 H 0.6373 0.6270 0.2219
C37 C 0.7021(7) 0.5708(6) 0.2706(3)
H30 H 0.7740 0.5780 0.2627
C38 C 0.6791(7) 0.5300(6) 0.3076(3)
H31 H 0.7357 0.5109 0.3238
C39 C 0.5737(7) 0.5184(5) 0.3198(3)
H32 H 0.5577 0.4917 0.3442
C40 C 0.4914(6) 0.5473(4) 0.2949(2)
C41 C 0.3724(6) 0.5406(4) 0.2997(2)
C42 C 0.3263(6) 0.4379(4) 0.2332(2)
C43 C 0.4205(6) 0.4283(4) 0.2093(3)
H33 H 0.4454 0.4666 0.1922
C44 C 0.4768(7) 0.3628(5) 0.2107(3)
H34 H 0.5390 0.3573 0.1942
C45 C 0.4430(7) 0.3051(5) 0.2360(3)
H35 H 0.4824 0.2613 0.2372
C46 C 0.3490(7) 0.3139(5) 0.2597(3)
H36 H 0.3243 0.2752 0.2766
C47 C 0.2919(6) 0.3795(5) 0.2585(3)
H37 H 0.2294 0.3846 0.2748
C48 C -0.0240(6) 0.4538(4) 0.2300(2)
C49 C -0.0897(6) 0.4076(5) 0.2000(2)
C50 C -0.1961(9) 0.4416(6) 0.1848(3)
H38 H -0.2177 0.4890 0.1925
C51 C -0.2565(7) 0.3986(5) 0.1595(3)
H39 H -0.3214 0.4179 0.1493
C52 C -0.2287(7) 0.3271(5) 0.1476(3)
H40 H -0.2748 0.3007 0.1298
C53 C -0.1349(8) 0.2949(5) 0.1615(3)
H41 H -0.1179 0.2465 0.1539
C54 C -0.0642(7) 0.3362(5) 0.1875(2)
C55 C 0.0949(7) 0.6291(5) 0.2075(3)
H42 H 0.1525 0.6338 0.1887
C56 C 0.0001(8) 0.6529(6) 0.1950(4)
H43 H -0.0597 0.6492 0.2129
H44 H -0.0077 0.6736 0.1682
Br3 Br 0.24992(8) 0.32723(6) 0.03226(4)
O7 O 0.4986(4) 0.6907(3) 0.01488(17)
O8 O 0.5793(5) 0.5598(3) 0.14042(16)
O9 O 0.1889(5) 0.4473(4) 0.13789(17)
N3 N 0.2344(5) 0.5002(3) 0.07548(18)
H45 H 0.2189 0.5034 0.0489
C57 C 0.4907(6) 0.6131(4) 0.0781(2)
C58 C 0.4207(5) 0.5461(4) 0.0621(2)
H46 H 0.3938 0.5588 0.0338
C59 C 0.3231(5) 0.5454(4) 0.0919(2)
H47 H 0.3462 0.5250 0.1192
C60 C 0.2958(6) 0.6287(4) 0.0982(2)
H48 H 0.2557 0.6349 0.1248
C61 C 0.4090(5) 0.6628(4) 0.1029(2)
H49 H 0.4291 0.6650 0.1326
H50 H 0.4095 0.7126 0.0915
C62 C 0.5450(6) 0.6540(4) 0.0416(2)
C63 C 0.6645(6) 0.6439(4) 0.0447(2)
C64 C 0.7465(6) 0.6685(5) 0.0181(3)
H51 H 0.7307 0.6929 -0.0071
C65 C 0.8525(6) 0.6555(5) 0.0303(3)
H52 H 0.9089 0.6731 0.0135
C66 C 0.8768(7) 0.6167(5) 0.0671(3)
H53 H 0.9490 0.6072 0.0738
C67 C 0.7954(6) 0.5917(5) 0.0941(3)
H54 H 0.8119 0.5661 0.1189
C68 C 0.6887(6) 0.6063(4) 0.0827(3)
C69 C 0.5864(6) 0.5885(4) 0.1055(2)
C70 C 0.4822(5) 0.4730(4) 0.0583(2)
C71 C 0.5527(6) 0.4636(4) 0.0239(2)
H55 H 0.5600 0.5010 0.0039
C72 C 0.6123(6) 0.3980(5) 0.0195(2)
H56 H 0.6593 0.3922 -0.0034
C73 C 0.6017(6) 0.3419(5) 0.0489(3)
H57 H 0.6418 0.2987 0.0460
C74 C 0.5307(6) 0.3506(5) 0.0827(3)
H58 H 0.5222 0.3126 0.1023
C75 C 0.4725(6) 0.4157(5) 0.0875(2)
H59 H 0.4262 0.4211 0.1106
C76 C 0.1758(6) 0.4540(4) 0.0994(2)
C77 C 0.0876(6) 0.4139(4) 0.0754(2)
C78 C -0.0193(6) 0.4320(5) 0.0847(2)
H60 H -0.0339 0.4657 0.1062
C79 C -0.1039(7) 0.4011(5) 0.0626(3)
H61 H -0.1748 0.4164 0.0678
C80 C -0.0836(7) 0.3471(5) 0.0325(3)
H62 H -0.1412 0.3248 0.0183
C81 C 0.0209(7) 0.3263(5) 0.0234(2)
H63 H 0.0345 0.2901 0.0031
C82 C 0.1054(6) 0.3596(4) 0.0446(2)
C83 C 0.2311(6) 0.6612(4) 0.0626(2)
H64 H 0.2566 0.6550 0.0350
C84 C 0.1409(7) 0.6978(5) 0.0680(3)
H65 H 0.1135 0.7048 0.0952
H66 H 0.1039 0.7168 0.0447
loop_
_geom_bond_atom_site_label_1
_geom_bond_atom_site_label_2
_geom_bond_site_symmetry_1
_geom_bond_site_symmetry_2
Br1 C26 1_555 1_555
O1 C6 1_555 1_555
O2 C13 1_555 1_555
O3 C20 1_555 1_555
N1 H1 1_555 1_555
C1 C2 1_555 1_555
C2 H2 1_555 1_555
C3 N1 1_555 1_555
H3 C3 1_555 1_555
C4 C3 1_555 1_555
H4 C4 1_555 1_555
C5 C1 1_555 1_555
H5 C5 1_555 1_555
H6 C5 1_555 1_555
C6 C1 1_555 1_555
C7 C6 1_555 1_555
C8 C7 1_555 1_555
H7 C8 1_555 1_555
C9 C8 1_555 1_555
H8 C9 1_555 1_555
C10 C9 1_555 1_555
H9 C10 1_555 1_555
C11 C10 1_555 1_555
H10 C11 1_555 1_555
C12 C7 1_555 1_555
C13 C1 1_555 1_555
C14 C2 1_555 1_555
C15 C14 1_555 1_555
H11 C15 1_555 1_555
C16 C15 1_555 1_555
H12 C16 1_555 1_555
C17 C16 1_555 1_555
H13 C17 1_555 1_555
C18 C17 1_555 1_555
H14 C18 1_555 1_555
C19 C14 1_555 1_555
H15 C19 1_555 1_555
C20 N1 1_555 1_555
C21 C20 1_555 1_555
C22 C21 1_555 1_555
H16 C22 1_555 1_555
C23 C22 1_555 1_555
H17 C23 1_555 1_555
C24 C23 1_555 1_555
H18 C24 1_555 1_555
C25 C24 1_555 1_555
H19 C25 1_555 1_555
C26 C21 1_555 1_555
C27 C4 1_555 1_555
H20 C27 1_555 1_555
C28 C27 1_555 1_555
H21 C28 1_555 1_555
H22 C28 1_555 1_555
Br2 C54 1_555 1_555
O4 C34 1_555 1_555
O5 C41 1_555 1_555
O6 C48 1_555 1_555
N2 H23 1_555 1_555
C29 C30 1_555 1_555
C30 H24 1_555 1_555
C31 N2 1_555 1_555
H25 C31 1_555 1_555
C32 C31 1_555 1_555
H26 C32 1_555 1_555
C33 C29 1_555 1_555
H27 C33 1_555 1_555
H28 C33 1_555 1_555
C34 C29 1_555 1_555
C35 C34 1_555 1_555
C36 C35 1_555 1_555
H29 C36 1_555 1_555
C37 C36 1_555 1_555
H30 C37 1_555 1_555
C38 C37 1_555 1_555
H31 C38 1_555 1_555
C39 C38 1_555 1_555
H32 C39 1_555 1_555
C40 C35 1_555 1_555
C41 C29 1_555 1_555
C42 C30 1_555 1_555
C43 C42 1_555 1_555
H33 C43 1_555 1_555
C44 C43 1_555 1_555
H34 C44 1_555 1_555
C45 C44 1_555 1_555
H35 C45 1_555 1_555
C46 C45 1_555 1_555
H36 C46 1_555 1_555
C47 C42 1_555 1_555
H37 C47 1_555 1_555
C48 N2 1_555 1_555
C49 C48 1_555 1_555
C50 C49 1_555 1_555
H38 C50 1_555 1_555
C51 C50 1_555 1_555
H39 C51 1_555 1_555
C52 C51 1_555 1_555
H40 C52 1_555 1_555
C53 C52 1_555 1_555
H41 C53 1_555 1_555
C54 C49 1_555 1_555
C55 C32 1_555 1_555
H42 C55 1_555 1_555
C56 C55 1_555 1_555
H43 C56 1_555 1_555
H44 C56 1_555 1_555
Br3 C82 1_555 1_555
O7 C62 1_555 1_555
O8 C69 1_555 1_555
O9 C76 1_555 1_555
N3 H45 1_555 1_555
C57 C58 1_555 1_555
C58 H46 1_555 1_555
C59 N3 1_555 1_555
H47 C59 1_555 1_555
C60 C59 1_555 1_555
H48 C60 1_555 1_555
C61 C57 1_555 1_555
H49 C61 1_555 1_555
H50 C61 1_555 1_555
C62 C57 1_555 1_555
C63 C62 1_555 1_555
C64 C63 1_555 1_555
H51 C64 1_555 1_555
C65 C64 1_555 1_555
H52 C65 1_555 1_555
C66 C65 1_555 1_555
H53 C66 1_555 1_555
C67 C66 1_555 1_555
H54 C67 1_555 1_555
C68 C63 1_555 1_555
C69 C57 1_555 1_555
C70 C58 1_555 1_555
C71 C70 1_555 1_555
H55 C71 1_555 1_555
C72 C71 1_555 1_555
H56 C72 1_555 1_555
C73 C72 1_555 1_555
H57 C73 1_555 1_555
C74 C73 1_555 1_555
H58 C74 1_555 1_555
C75 C70 1_555 1_555
H59 C75 1_555 1_555
C76 N3 1_555 1_555
C77 C76 1_555 1_555
C78 C77 1_555 1_555
H60 C78 1_555 1_555
C79 C78 1_555 1_555
H61 C79 1_555 1_555
C80 C79 1_555 1_555
H62 C80 1_555 1_555
C81 C80 1_555 1_555
H63 C81 1_555 1_555
C82 C77 1_555 1_555
C83 C60 1_555 1_555
H64 C83 1_555 1_555
C84 C83 1_555 1_555
H65 C84 1_555 1_555
H66 C84 1_555 1_555
C2 C3 1_555 1_555
C4 C5 1_555 1_555
C11 C12 1_555 1_555
C12 C13 1_555 1_555
C18 C19 1_555 1_555
C25 C26 1_555 1_555
C30 C31 1_555 1_555
C32 C33 1_555 1_555
C39 C40 1_555 1_555
C40 C41 1_555 1_555
C46 C47 1_555 1_555
C53 C54 1_555 1_555
C58 C59 1_555 1_555
C60 C61 1_555 1_555
C67 C68 1_555 1_555
C68 C69 1_555 1_555
C74 C75 1_555 1_555
C81 C82 1_555 1_555

#END
