
#######################################################################
#
#                 Cambridge Crystallographic Data Centre
#                                CCDC 
#
#######################################################################
#
# If this CIF has been generated from an entry in the Cambridge 
# Structural Database, then it will include bibliographic, chemical, 
# crystal, experimental, refinement or atomic coordinate data resulting 
# from the CCDC's data processing and validation procedures.
#
#######################################################################

data_NOXDUB
_chemical_formula_moiety         'C21 H26 O6'
_chemical_name_systematic        
"6-Hydroxy-5,5,9'-trimethyl-5',10'-dioxo-4'-oxaspiro[cyclohexane-1,2'-tricyclo[6.2.2.0^1,6^]dodecane]-3,11'-dien-9'-yl acetate"
_symmetry_cell_setting           monoclinic
_symmetry_space_group_name_H-M   'P 21/c'
_symmetry_Int_Tables_number      14
_space_group_name_Hall           '-P 2ybc'
loop_
_symmetry_equiv_pos_site_id
_symmetry_equiv_pos_as_xyz
1 x,y,z
2 -x,1/2+y,1/2-z
3 -x,-y,-z
4 x,1/2-y,1/2+z
_cell_length_a                   11.013(2)
_cell_length_b                   12.922(3)
_cell_length_c                   13.698(3)
_cell_angle_alpha                90
_cell_angle_beta                 103.71(3)
_cell_angle_gamma                90
_cell_volume                     1893.82
_cell_formula_units_Z            4
loop_
_atom_site_label
_atom_site_type_symbol
_atom_site_fract_x
_atom_site_fract_y
_atom_site_fract_z
C1 C 0.90325(17) 0.04620(18) 1.19411(14)
C2 C 0.84044(14) 0.18095(16) 1.06538(12)
C3 C 0.85436(15) 0.11788(16) 0.97302(13)
H1 H 0.9360 0.0837 0.9853
C4 C 0.74707(15) 0.03928(16) 0.94205(14)
H2 H 0.7566 -0.0158 0.9914
H3 H 0.7482 0.0089 0.8775
C5 C 0.62245(14) 0.09685(14) 0.93519(12)
H4 H 0.5995 0.0826 0.9988
C6 C 0.63880(14) 0.21739(14) 0.93182(11)
C7 C 0.72943(17) 0.24142(16) 0.86514(13)
H5 H 0.7090 0.2875 0.8116
C8 C 0.83806(16) 0.19284(17) 0.88820(13)
H6 H 0.9001 0.2046 0.8538
C9 C 0.71660(15) 0.24256(14) 1.03753(12)
C10 C 0.94873(16) 0.25431(19) 1.10534(16)
H7 H 0.9347 0.2904 1.1630
H8 H 0.9548 0.3034 1.0541
H9 H 1.0250 0.2155 1.1242
C11 C 0.51684(16) 0.05439(16) 0.85426(12)
C12 C 0.45809(17) 0.22974(15) 0.79089(12)
H10 H 0.3776 0.2616 0.7631
H11 H 0.5133 0.2484 0.7481
C13 C 0.51120(14) 0.27389(14) 0.89579(11)
C14 C 0.42199(14) 0.26216(14) 0.96818(12)
H12 H 0.4662 0.2901 1.0334
C15 C 0.29551(15) 0.32112(16) 0.93657(13)
C16 C 0.25230(18) 0.34318(19) 1.03394(15)
H13 H 0.3128 0.3863 1.0775
H14 H 0.2443 0.2791 1.0673
H15 H 0.1730 0.3779 1.0175
C17 C 0.19179(17) 0.25737(19) 0.86730(16)
H16 H 0.1160 0.2971 0.8511
H17 H 0.1780 0.1949 0.9010
H18 H 0.2167 0.2404 0.8067
C18 C 0.31226(18) 0.42321(17) 0.88907(14)
H19 H 0.2437 0.4674 0.8733
C19 C 0.41701(19) 0.45487(17) 0.86805(14)
H20 H 0.4184 0.5206 0.8408
C20 C 0.53316(16) 0.39177(15) 0.88536(13)
H21 H 0.5907 0.4160 0.9461
H22 H 0.5724 0.4026 0.8298
C21 C 0.8632(2) -0.00053(19) 1.28052(16)
H23 H 0.9119 -0.0615 1.3024
H24 H 0.7764 -0.0188 1.2603
H25 H 0.8755 0.0485 1.3347
O1 O 0.44240(11) 0.11773(11) 0.78850(9)
O2 O 0.49433(12) -0.03758(11) 0.84682(9)
O3 O 0.68809(11) 0.30189(11) 1.09630(9)
O4 O 0.81779(10) 0.11582(10) 1.14746(8)
O5 O 0.99718(14) 0.02612(15) 1.16828(12)
O6 O 0.39490(11) 0.15629(11) 0.98396(9)
H26 H 0.4266 0.1403 1.0424
loop_
_geom_bond_atom_site_label_1
_geom_bond_atom_site_label_2
_geom_bond_site_symmetry_1
_geom_bond_site_symmetry_2
C1 C21 1_555 1_555
C2 C3 1_555 1_555
C3 H1 1_555 1_555
C4 C3 1_555 1_555
H2 C4 1_555 1_555
H3 C4 1_555 1_555
C5 C4 1_555 1_555
H4 C5 1_555 1_555
C6 C5 1_555 1_555
C7 C6 1_555 1_555
H5 C7 1_555 1_555
C8 C3 1_555 1_555
H6 C8 1_555 1_555
C9 C2 1_555 1_555
C10 C2 1_555 1_555
H7 C10 1_555 1_555
H8 C10 1_555 1_555
H9 C10 1_555 1_555
C11 C5 1_555 1_555
C12 H10 1_555 1_555
H11 C12 1_555 1_555
C13 C6 1_555 1_555
C14 C13 1_555 1_555
H12 C14 1_555 1_555
C15 C14 1_555 1_555
C16 C15 1_555 1_555
H13 C16 1_555 1_555
H14 C16 1_555 1_555
H15 C16 1_555 1_555
C17 C15 1_555 1_555
H16 C17 1_555 1_555
H17 C17 1_555 1_555
H18 C17 1_555 1_555
C18 C15 1_555 1_555
H19 C18 1_555 1_555
C19 C18 1_555 1_555
H20 C19 1_555 1_555
C20 C13 1_555 1_555
H21 C20 1_555 1_555
H22 C20 1_555 1_555
C21 H23 1_555 1_555
H24 C21 1_555 1_555
H25 C21 1_555 1_555
O1 C11 1_555 1_555
O2 C11 1_555 1_555
O3 C9 1_555 1_555
O4 C1 1_555 1_555
O5 C1 1_555 1_555
O6 C14 1_555 1_555
H26 O6 1_555 1_555
C2 O4 1_555 1_555
C6 C9 1_555 1_555
C7 C8 1_555 1_555
C12 C13 1_555 1_555
C12 O1 1_555 1_555
C19 C20 1_555 1_555

#END
