
#######################################################################
#
#                 Cambridge Crystallographic Data Centre
#                                CCDC 
#
#######################################################################
#
# If this CIF has been generated from an entry in the Cambridge 
# Structural Database, then it will include bibliographic, chemical, 
# crystal, experimental, refinement or atomic coordinate data resulting 
# from the CCDC's data processing and validation procedures.
#
#######################################################################

data_NOXTEB
_chemical_formula_moiety         'C19 H18 N4 O2'
_chemical_name_systematic        
'Ethyl 2-methyl-4-(pyridin-3-yl)-1,4-dihydropyrimido[1,2-a]benzimidazole-3-carboxylate'
_symmetry_cell_setting           monoclinic
_symmetry_space_group_name_H-M   'P 21/c'
_symmetry_Int_Tables_number      14
_space_group_name_Hall           '-P 2ybc'
loop_
_symmetry_equiv_pos_site_id
_symmetry_equiv_pos_as_xyz
1 x,y,z
2 -x,1/2+y,1/2-z
3 -x,-y,-z
4 x,1/2-y,1/2+z
_cell_length_a                   8.7473(2)
_cell_length_b                   21.0776(5)
_cell_length_c                   9.2495(2)
_cell_angle_alpha                90
_cell_angle_beta                 105.2510(10)
_cell_angle_gamma                90
_cell_volume                     1645.29
_exptl_crystal_colour            'pale yellow'
_exptl_crystal_description       block
_cell_formula_units_Z            4
loop_
_atom_site_label
_atom_site_type_symbol
_atom_site_fract_x
_atom_site_fract_y
_atom_site_fract_z
O1 O 0.24697(16) -0.01717(7) -0.32099(16)
O2 O 0.06985(15) -0.00923(7) -0.18752(15)
N1 N 0.56785(17) 0.17067(7) 0.20498(18)
N2 N 0.34755(15) 0.11258(7) 0.11588(16)
N3 N 0.52756(16) 0.11838(7) -0.03202(18)
H1 H 0.6092 0.1356 -0.0511
N4 N -0.17645(17) 0.16468(9) -0.0962(2)
C1 C 0.48578(18) 0.13558(8) 0.0952(2)
C2 C 0.4753(2) 0.17203(8) 0.3070(2)
C3 C 0.5005(3) 0.20168(9) 0.4457(2)
H2 H 0.5901 0.2265 0.4834
C4 C 0.3896(3) 0.19340(10) 0.5259(2)
H3 H 0.4052 0.2130 0.6188
C5 C 0.2547(3) 0.15641(11) 0.4714(2)
H4 H 0.1827 0.1516 0.5288
C6 C 0.2259(2) 0.12665(9) 0.3330(2)
H5 H 0.1360 0.1019 0.2958
C7 C 0.3372(2) 0.13561(8) 0.25334(19)
C8 C 0.22261(18) 0.08273(8) -0.00110(18)
H6 H 0.1761 0.0483 0.0444
C9 C 0.29744(18) 0.05425(8) -0.11668(19)
C10 C 0.44201(19) 0.07410(8) -0.1302(2)
C11 C 0.5250(2) 0.05203(10) -0.2434(3)
H7 H 0.4601 0.0214 -0.3086
H8 H 0.6243 0.0329 -0.1929
H9 H 0.5437 0.0876 -0.3013
C12 C 0.09230(18) 0.13066(8) -0.06819(18)
C13 C 0.1171(2) 0.18128(9) -0.1541(2)
H10 H 0.2153 0.1874 -0.1733
C14 C -0.0065(2) 0.22278(10) -0.2111(3)
H11 H 0.0069 0.2569 -0.2704
C15 C -0.1499(2) 0.21292(10) -0.1790(2)
H12 H -0.2319 0.2414 -0.2170
C16 C -0.0560(2) 0.12438(9) -0.0435(2)
H13 H -0.0735 0.0900 0.0133
C17 C 0.1951(2) 0.00693(8) -0.20950(19)
C18 C 0.1495(3) -0.06563(10) -0.4119(2)
H14 H 0.1572 -0.1051 -0.3564
H15 H 0.0394 -0.0524 -0.4412
C19 C 0.2088(4) -0.07391(15) -0.5428(3)
H16 H 0.1475 -0.1058 -0.6066
H17 H 0.3178 -0.0869 -0.5121
H18 H 0.2005 -0.0345 -0.5965
loop_
_geom_bond_atom_site_label_1
_geom_bond_atom_site_label_2
_geom_bond_site_symmetry_1
_geom_bond_site_symmetry_2
O1 C17 1_555 1_555
O2 C17 1_555 1_555
N1 C1 1_555 1_555
N2 C1 1_555 1_555
N3 H1 1_555 1_555
N4 C15 1_555 1_555
C1 N3 1_555 1_555
C2 N1 1_555 1_555
C3 C2 1_555 1_555
H2 C3 1_555 1_555
C4 C3 1_555 1_555
H3 C4 1_555 1_555
C5 C4 1_555 1_555
H4 C5 1_555 1_555
C6 C5 1_555 1_555
H5 C6 1_555 1_555
C7 N2 1_555 1_555
C8 N2 1_555 1_555
H6 C8 1_555 1_555
C9 C8 1_555 1_555
C10 N3 1_555 1_555
C11 C10 1_555 1_555
H7 C11 1_555 1_555
H8 C11 1_555 1_555
H9 C11 1_555 1_555
C12 C8 1_555 1_555
C13 C12 1_555 1_555
H10 C13 1_555 1_555
C14 C13 1_555 1_555
H11 C14 1_555 1_555
C15 C14 1_555 1_555
H12 C15 1_555 1_555
C16 N4 1_555 1_555
H13 C16 1_555 1_555
C17 C9 1_555 1_555
C18 O1 1_555 1_555
H14 C18 1_555 1_555
H15 C18 1_555 1_555
C19 C18 1_555 1_555
H16 C19 1_555 1_555
H17 C19 1_555 1_555
H18 C19 1_555 1_555
C2 C7 1_555 1_555
C6 C7 1_555 1_555
C9 C10 1_555 1_555
C12 C16 1_555 1_555

#END
