
#######################################################################
#
#                 Cambridge Crystallographic Data Centre
#                                CCDC 
#
#######################################################################
#
# If this CIF has been generated from an entry in the Cambridge 
# Structural Database, then it will include bibliographic, chemical, 
# crystal, experimental, refinement or atomic coordinate data resulting 
# from the CCDC's data processing and validation procedures.
#
#######################################################################

data_NOXZUX
_chemical_formula_moiety         'C27 H36 O9,C4 H8 O2'
_chemical_name_systematic        
'2,6,9,13,14-Pentahydroxy-13-(hydroxymethyl)-3,7-dimethyl-9-(prop-1-en-2-yl)-15-oxatetracyclo[10.2.1.0^1,5^.0^6,11^]pentadec-10-yl benzoate ethyl acetate solvate'
_symmetry_cell_setting           orthorhombic
_symmetry_space_group_name_H-M   'P 21 21 21'
_symmetry_Int_Tables_number      19
_space_group_name_Hall           'P 2ac 2ab'
loop_
_symmetry_equiv_pos_site_id
_symmetry_equiv_pos_as_xyz
1 x,y,z
2 1/2-x,-y,1/2+z
3 -x,1/2+y,1/2-z
4 1/2+x,1/2-y,-z
_cell_length_a                   11.7035(7)
_cell_length_b                   12.7664(9)
_cell_length_c                   21.1157(14)
_cell_angle_alpha                90
_cell_angle_beta                 90
_cell_angle_gamma                90
_cell_volume                     3154.93
_exptl_crystal_colour            colorless
_exptl_crystal_description       plane
_cell_formula_units_Z            4
loop_
_atom_site_label
_atom_site_type_symbol
_atom_site_fract_x
_atom_site_fract_y
_atom_site_fract_z
O1 O 0.32389(12) 0.11618(13) -0.08564(7)
O2 O 0.23378(18) 0.11689(19) -0.21091(8)
H1 H 0.2183 0.1794 -0.2086
O3 O 0.14984(14) 0.27879(16) -0.13382(9)
H2 H 0.0832 0.2823 -0.1456
O4 O 0.19715(14) 0.29422(14) 0.02628(9)
H3 H 0.1609 0.2472 0.0435
O5 O 0.10956(13) 0.10274(14) 0.04511(8)
H4 H 0.0457 0.0953 0.0298
O6 O 0.37207(17) 0.00251(18) 0.19161(8)
H5 H 0.3426 -0.0420 0.2143
O7 O 0.27590(12) 0.15796(14) 0.12601(7)
O8 O 0.42259(14) 0.24557(17) 0.17000(10)
O9 O 0.39044(14) 0.38837(16) -0.01133(11)
H6 H 0.3610 0.3883 0.0239
C1 C 0.2084(2) -0.0823(2) -0.08692(12)
H7 H 0.1599 -0.1429 -0.0803
H8 H 0.2841 -0.0980 -0.0707
C2 C 0.2142(3) -0.0543(2) -0.15844(13)
H9 H 0.1573 -0.0960 -0.1813
C3 C 0.1786(2) 0.0621(2) -0.16076(11)
H10 H 0.0960 0.0651 -0.1681
C4 C 0.20219(19) 0.1050(2) -0.09477(11)
C5 C 0.15676(19) 0.2140(2) -0.07872(12)
H11 H 0.0816 0.2086 -0.0585
C6 C 0.24556(18) 0.25618(18) -0.03101(11)
C7 C 0.33011(18) 0.16245(18) -0.02400(10)
H12 H 0.4074 0.1897 -0.0171
C8 C 0.30695(18) 0.07271(18) 0.02373(10)
H13 H 0.3552 0.0157 0.0078
C9 C 0.18599(19) 0.02746(19) 0.01797(11)
C10 C 0.1585(2) 0.0141(2) -0.05336(11)
H14 H 0.0752 0.0113 -0.0578
C11 C 0.1766(2) -0.0755(2) 0.05490(12)
H15 H 0.2229 -0.1279 0.0328
C12 C 0.2247(2) -0.0640(2) 0.12205(12)
H16 H 0.1739 -0.0189 0.1460
H17 H 0.2240 -0.1323 0.1421
C13 C 0.3456(2) -0.0195(2) 0.12652(11)
C14 C 0.34861(19) 0.08669(19) 0.09155(10)
H18 H 0.4270 0.1137 0.0912
C15 C 0.3315(3) -0.0757(3) -0.18651(14)
H19 H 0.3313 -0.0574 -0.2306
H20 H 0.3494 -0.1487 -0.1820
H21 H 0.3877 -0.0345 -0.1647
C16 C 0.3107(2) 0.3497(2) -0.05653(14)
H22 H 0.3510 0.3295 -0.0948
H23 H 0.2572 0.4048 -0.0675
C17 C 0.0539(3) -0.1170(3) 0.05804(15)
H24 H 0.0241 -0.1240 0.0159
H25 H 0.0073 -0.0688 0.0816
H26 H 0.0534 -0.1840 0.0786
C18 C 0.4405(2) -0.0913(2) 0.10258(12)
C19 C 0.4237(3) -0.1892(3) 0.08503(19)
H27 H 0.4856 -0.2309 0.0737
H28 H 0.3501 -0.2165 0.0840
C20 C 0.5587(3) -0.0475(3) 0.1042(2)
H29 H 0.6115 -0.0986 0.0883
H30 H 0.5785 -0.0300 0.1471
H31 H 0.5621 0.0144 0.0784
C21 C 0.3219(2) 0.2282(2) 0.16445(11)
C22 C 0.2325(2) 0.2854(2) 0.20056(11)
C23 C 0.2646(3) 0.3519(3) 0.24891(15)
H32 H 0.3415 0.3597 0.2589
C24 C 0.1839(4) 0.4066(4) 0.2824(2)
H33 H 0.2061 0.4502 0.3154
C25 C 0.0718(3) 0.3971(4) 0.26735(18)
H34 H 0.0176 0.4351 0.2899
C26 C 0.0377(3) 0.3328(3) 0.21965(16)
H35 H -0.0394 0.3272 0.2095
C27 C 0.1175(2) 0.2758(3) 0.18645(14)
H36 H 0.0941 0.2306 0.1544
O10 O 0.3833(4) 0.5062(4) 0.1147(3)
O11 O 0.2426(3) 0.5919(3) 0.14869(18)
C28 C 0.3944(5) 0.6187(6) 0.2107(3)
H37 H 0.3376 0.6608 0.2315
H38 H 0.4570 0.6624 0.1977
H39 H 0.4217 0.5661 0.2395
C29 C 0.3445(6) 0.5687(5) 0.1556(3)
C30 C 0.1802(16) 0.5424(7) 0.0925(5)
H40 H 0.2393 0.5150 0.0648
H41 H 0.1400 0.4821 0.1093
C31 C 0.1251(18) 0.5790(12) 0.0646(7)
H42 H 0.0988 0.5317 0.0324
H43 H 0.1619 0.6380 0.0451
H44 H 0.0613 0.6028 0.0893
loop_
_geom_bond_atom_site_label_1
_geom_bond_atom_site_label_2
_geom_bond_site_symmetry_1
_geom_bond_site_symmetry_2
O1 C4 1_555 1_555
O2 H1 1_555 1_555
O3 H2 1_555 1_555
O4 H3 1_555 1_555
O5 H4 1_555 1_555
O6 H5 1_555 1_555
O7 C14 1_555 1_555
O8 C21 1_555 1_555
O9 H6 1_555 1_555
C1 H7 1_555 1_555
H8 C1 1_555 1_555
C2 C1 1_555 1_555
H9 C2 1_555 1_555
C3 O2 1_555 1_555
H10 C3 1_555 1_555
C4 C3 1_555 1_555
C5 O3 1_555 1_555
H11 C5 1_555 1_555
C6 O4 1_555 1_555
C7 O1 1_555 1_555
H12 C7 1_555 1_555
C8 C7 1_555 1_555
H13 C8 1_555 1_555
C9 O5 1_555 1_555
C10 C1 1_555 1_555
H14 C10 1_555 1_555
C11 C9 1_555 1_555
H15 C11 1_555 1_555
C12 C11 1_555 1_555
H16 C12 1_555 1_555
H17 C12 1_555 1_555
C13 O6 1_555 1_555
C14 C8 1_555 1_555
H18 C14 1_555 1_555
C15 C2 1_555 1_555
H19 C15 1_555 1_555
H20 C15 1_555 1_555
H21 C15 1_555 1_555
C16 O9 1_555 1_555
H22 C16 1_555 1_555
H23 C16 1_555 1_555
C17 C11 1_555 1_555
H24 C17 1_555 1_555
H25 C17 1_555 1_555
H26 C17 1_555 1_555
C18 C13 1_555 1_555
C19 C18 1_555 1_555
H27 C19 1_555 1_555
H28 C19 1_555 1_555
C20 C18 1_555 1_555
H29 C20 1_555 1_555
H30 C20 1_555 1_555
H31 C20 1_555 1_555
C21 O7 1_555 1_555
C22 C21 1_555 1_555
C23 C22 1_555 1_555
H32 C23 1_555 1_555
C24 C23 1_555 1_555
H33 C24 1_555 1_555
C25 C24 1_555 1_555
H34 C25 1_555 1_555
C26 C25 1_555 1_555
H35 C26 1_555 1_555
C27 C22 1_555 1_555
H36 C27 1_555 1_555
O10 C29 1_555 1_555
O11 C29 1_555 1_555
C28 H37 1_555 1_555
H38 C28 1_555 1_555
H39 C28 1_555 1_555
C29 C28 1_555 1_555
C30 O11 1_555 1_555
H40 C30 1_555 1_555
H41 C30 1_555 1_555
C31 C30 1_555 1_555
H42 C31 1_555 1_555
H43 C31 1_555 1_555
H44 C31 1_555 1_555
C2 C3 1_555 1_555
C4 C5 1_555 1_555
C4 C10 1_555 1_555
C5 C6 1_555 1_555
C6 C7 1_555 1_555
C6 C16 1_555 1_555
C8 C9 1_555 1_555
C9 C10 1_555 1_555
C12 C13 1_555 1_555
C13 C14 1_555 1_555
C26 C27 1_555 1_555

#END
