
#######################################################################
#
#                 Cambridge Crystallographic Data Centre
#                                CCDC 
#
#######################################################################
#
# If this CIF has been generated from an entry in the Cambridge 
# Structural Database, then it will include bibliographic, chemical, 
# crystal, experimental, refinement or atomic coordinate data resulting 
# from the CCDC's data processing and validation procedures.
#
#######################################################################

data_NOZCAG
_chemical_formula_moiety         'C16 H22 N2 O6 S1'
_chemical_name_systematic        
2,3-Aziridino-2,3-dideoxy-5,6-O-isopropylidene-N-tosyl-D-idonamide
_symmetry_cell_setting           monoclinic
_symmetry_space_group_name_H-M   'P 21'
_symmetry_Int_Tables_number      4
_space_group_name_Hall           'P 2yb'
loop_
_symmetry_equiv_pos_site_id
_symmetry_equiv_pos_as_xyz
1 x,y,z
2 -x,1/2+y,-z
_cell_length_a                   5.918(3)
_cell_length_b                   26.801(2)
_cell_length_c                   5.908(2)
_cell_angle_alpha                90
_cell_angle_beta                 96.856
_cell_angle_gamma                90
_cell_volume                     930.357
_exptl_crystal_colour            white
_chemical_melting_point          171deg.C
_cell_formula_units_Z            2
_exptl_crystal_recrystallization_method 'ethyl acetate'
loop_
_atom_site_label
_atom_site_type_symbol
_atom_site_fract_x
_atom_site_fract_y
_atom_site_fract_z
N1 N 0.5129(7) 0.3122(2) 0.0044(8)
O1 O 0.3332(6) 0.3632(2) 0.2237(6)
C1 C 0.4865(8) 0.3339(2) 0.1971(10)
C2 C 0.6605(7) 0.3233(2) 0.3967(9)
C3 C 0.8812(7) 0.3500(2) 0.4204(8)
C4 C 0.9903(8) 0.3697(2) 0.6462(9)
O2 O 1.2286(6) 0.3688(2) 0.6541(6)
C5 C 0.9009(9) 0.4225(2) 0.6773(9)
O3 O 0.9449(6) 0.45315(15) 0.4891(7)
C6 C 1.0163(11) 0.4499(2) 0.8839(11)
O4 O 1.0266(7) 0.5000(2) 0.8056(8)
C7 C 1.0612(9) 0.4978(2) 0.5747(11)
C8 C 0.9459(12) 0.5415(3) 0.4557(14)
C9 C 1.3059(10) 0.4937(3) 0.5425(15)
N2 N 0.8691(7) 0.2970(2) 0.3562(8)
S1 S 0.9659(2) 0.25191(6) 0.5360(2)
O5 O 1.2077(5) 0.2509(2) 0.5367(7)
O6 O 0.8750(6) 0.2556(2) 0.7495(6)
C10 C 0.8425(9) 0.2012(2) 0.3838(10)
C11 C 0.9327(10) 0.1835(2) 0.1936(11)
C12 C 0.8242(13) 0.1460(3) 0.0662(12)
C13 C 0.6268(13) 0.1256(2) 0.1218(14)
C14 C 0.5367(11) 0.1426(3) 0.3099(14)
C15 C 0.6415(10) 0.1808(2) 0.4443(12)
C16 C 0.4916(52) 0.0839(10) -0.0075(64)
H1 H 0.4188(7) 0.3182(2) -0.1150(8)
H2 H 0.6245(7) 0.2920(2) -0.0032(8)
H3 H 0.6002(7) 0.3151(2) 0.5396(9)
H4 H 0.8990(7) 0.3723(2) 0.2922(8)
H5 H 0.9458(8) 0.3484(2) 0.7682(9)
H6 H 1.278(10) 0.3721(26) 0.543(10)
H7 H 0.7366(9) 0.4211(2) 0.6855(9)
H8 H 0.9276(11) 0.4475(2) 1.0113(11)
H9 H 1.1675(11) 0.4367(2) 0.9297(11)
H10 H 0.9326(12) 0.5362(3) 0.2940(14)
H11 H 1.0338(12) 0.5710(3) 0.4940(14)
H12 H 0.7970(12) 0.5453(3) 0.5025(14)
H13 H 1.3820(10) 0.5244(3) 0.5876(15)
H14 H 1.3195(10) 0.4872(3) 0.3849(15)
H15 H 1.3742(10) 0.4669(3) 0.6342(15)
H16 H 1.0667(10) 0.1970(2) 0.1526(11)
H17 H 0.8863(13) 0.1341(3) -0.0609(12)
H18 H 0.4030(11) 0.1285(3) 0.3487(14)
H19 H 0.5789(10) 0.1923(2) 0.5716(12)
H20 H 0.3643(52) 0.0751(10) 0.0709(64)
H21 H 0.5878(52) 0.0552(10) -0.0160(64)
H22 H 0.4377(52) 0.0950(10) -0.1588(64)
C17? C 0.548(13) 0.0885(25) -0.084(11)
H23? H 0.395(13) 0.0774(25) -0.073(11)
H24? H 0.648(13) 0.0601(25) -0.076(11)
H25? H 0.553(13) 0.1055(25) -0.226(11)
loop_
_geom_bond_atom_site_label_1
_geom_bond_atom_site_label_2
_geom_bond_site_symmetry_1
_geom_bond_site_symmetry_2
N1 C1 1_555 1_555
O1 C1 1_555 1_555
C1 C2 1_555 1_555
C2 C3 1_555 1_555
C3 C4 1_555 1_555
C4 O2 1_555 1_555
O2 H6 1_555 1_555
C5 C4 1_555 1_555
O3 C5 1_555 1_555
C6 C5 1_555 1_555
O4 C6 1_555 1_555
C7 O3 1_555 1_555
C8 C7 1_555 1_555
C9 C7 1_555 1_555
N2 C2 1_555 1_555
S1 N2 1_555 1_555
O5 S1 1_555 1_555
O6 S1 1_555 1_555
C10 S1 1_555 1_555
C11 C10 1_555 1_555
C12 C11 1_555 1_555
C13 C12 1_555 1_555
C14 C13 1_555 1_555
C15 C10 1_555 1_555
C16 C13 1_555 1_555
H1 N1 1_555 1_555
H2 N1 1_555 1_555
H3 C2 1_555 1_555
H4 C3 1_555 1_555
H5 C4 1_555 1_555
H7 C5 1_555 1_555
H8 C6 1_555 1_555
H9 C6 1_555 1_555
H10 C8 1_555 1_555
H11 C8 1_555 1_555
H12 C8 1_555 1_555
H13 C9 1_555 1_555
H14 C9 1_555 1_555
H15 C9 1_555 1_555
H16 C11 1_555 1_555
H17 C12 1_555 1_555
H18 C14 1_555 1_555
H19 C15 1_555 1_555
H20 C16 1_555 1_555
H21 C16 1_555 1_555
H22 C16 1_555 1_555
C3 N2 1_555 1_555
O4 C7 1_555 1_555
C14 C15 1_555 1_555

#END
