
#######################################################################
#
#                 Cambridge Crystallographic Data Centre
#                                CCDC 
#
#######################################################################
#
# If this CIF has been generated from an entry in the Cambridge 
# Structural Database, then it will include bibliographic, chemical, 
# crystal, experimental, refinement or atomic coordinate data resulting 
# from the CCDC's data processing and validation procedures.
#
#######################################################################

data_NTRANT01
_chemical_formula_moiety         'C14 H9 N1 O2'
_chemical_name_systematic        9-Nitroanthracene
_symmetry_cell_setting           monoclinic
_symmetry_space_group_name_H-M   'P 21/c'
_symmetry_Int_Tables_number      14
_space_group_name_Hall           '-P 2ybc'
loop_
_symmetry_equiv_pos_site_id
_symmetry_equiv_pos_as_xyz
1 x,y,z
2 x,1/2-y,1/2+z
3 -x,-y,-z
4 -x,1/2+y,1/2-z
_cell_length_a                   10.5117(7)
_cell_length_b                   13.5401(9)
_cell_length_c                   7.4285(5)
_cell_angle_alpha                90
_cell_angle_beta                 103.1970(10)
_cell_angle_gamma                90
_cell_volume                     1029.37
_exptl_crystal_colour            yellow
_exptl_crystal_description       needle
_chemical_melting_point          '417.5 K'
_cell_formula_units_Z            4
_exptl_crystal_recrystallization_method 'glacial acetic acid'
loop_
_atom_site_label
_atom_site_type_symbol
_atom_site_fract_x
_atom_site_fract_y
_atom_site_fract_z
N1 N 0.24090(8) 0.46836(7) 0.10102(11)
O1 O 0.23713(11) 0.50593(6) -0.04888(11)
O2 O 0.22982(9) 0.51554(6) 0.23658(11)
C1 C 0.26010(10) 0.36082(7) 0.12056(13)
C2 C 0.37933(9) 0.32746(7) 0.22736(12)
C3 C 0.48392(10) 0.39049(8) 0.31617(14)
H1 H 0.4737 0.4601 0.3066
C4 C 0.59801(10) 0.35137(8) 0.41437(14)
H2 H 0.6673 0.3942 0.4708
C5 C 0.61518(10) 0.24761(9) 0.43381(14)
H3 H 0.6950 0.2216 0.5044
C6 C 0.51759(10) 0.18554(8) 0.35158(13)
H4 H 0.5298 0.1162 0.3660
C7 C 0.39697(9) 0.22272(7) 0.24383(13)
C8 C 0.29670(9) 0.15963(7) 0.15600(13)
H5 H 0.3098 0.0903 0.1674
C9 C 0.17801(10) 0.19513(8) 0.05222(13)
C10 C 0.07487(10) 0.13035(8) -0.03400(14)
H6 H 0.0871 0.0609 -0.0219
C11 C -0.04046(10) 0.16643(9) -0.13311(14)
H7 H -0.1079 0.1222 -0.1899
C12 C -0.06078(10) 0.27020(9) -0.15234(14)
H8 H -0.1421 0.2946 -0.2213
C13 C 0.03475(9) 0.33483(8) -0.07323(13)
H9 H 0.0198 0.4039 -0.0879
C14 C 0.15751(9) 0.29959(8) 0.03180(13)
loop_
_geom_bond_atom_site_label_1
_geom_bond_atom_site_label_2
_geom_bond_site_symmetry_1
_geom_bond_site_symmetry_2
N1 O1 1_555 1_555
O2 N1 1_555 1_555
C1 N1 1_555 1_555
C2 C1 1_555 1_555
C3 C2 1_555 1_555
H1 C3 1_555 1_555
C4 C3 1_555 1_555
H2 C4 1_555 1_555
C5 C4 1_555 1_555
H3 C5 1_555 1_555
C6 C5 1_555 1_555
H4 C6 1_555 1_555
C7 C2 1_555 1_555
C8 C7 1_555 1_555
H5 C8 1_555 1_555
C9 C8 1_555 1_555
C10 C9 1_555 1_555
H6 C10 1_555 1_555
C11 C10 1_555 1_555
H7 C11 1_555 1_555
C12 C11 1_555 1_555
H8 C12 1_555 1_555
C13 C12 1_555 1_555
H9 C13 1_555 1_555
C14 C1 1_555 1_555
C6 C7 1_555 1_555
C9 C14 1_555 1_555
C13 C14 1_555 1_555

#END
