
#######################################################################
#
#                 Cambridge Crystallographic Data Centre
#                                CCDC 
#
#######################################################################
#
# If this CIF has been generated from an entry in the Cambridge 
# Structural Database, then it will include bibliographic, chemical, 
# crystal, experimental, refinement or atomic coordinate data resulting 
# from the CCDC's data processing and validation procedures.
#
#######################################################################

data_NUBYAL
_chemical_formula_moiety         'C27 H20 O2'
_chemical_name_systematic        
3-Benzoyl-1-(cyclobutenyl)-1-phenylnaphthalen-2(1H)-one
_symmetry_cell_setting           monoclinic
_symmetry_space_group_name_H-M   'P 21/n'
_symmetry_Int_Tables_number      14
_space_group_name_Hall           '-P 2yn'
loop_
_symmetry_equiv_pos_site_id
_symmetry_equiv_pos_as_xyz
1 x,y,z
2 1/2-x,1/2+y,1/2-z
3 -x,-y,-z
4 1/2+x,1/2-y,1/2+z
_cell_length_a                   11.6887(3)
_cell_length_b                   14.2784(4)
_cell_length_c                   12.0651(3)
_cell_angle_alpha                90
_cell_angle_beta                 105.363(1)
_cell_angle_gamma                90
_cell_volume                     1941.66
_exptl_crystal_colour            'light yellow'
_exptl_crystal_description       block
_chemical_melting_point          '141-143 deg.C'
_cell_formula_units_Z            4
loop_
_atom_site_label
_atom_site_type_symbol
_atom_site_fract_x
_atom_site_fract_y
_atom_site_fract_z
O1 O 0.24843(8) 0.12916(7) 0.33252(8)
O2 O 0.11229(8) 0.34420(7) 0.40472(8)
C1 C 0.46374(11) 0.11089(9) 0.27202(12)
C2 C 0.50340(12) 0.03979(10) 0.21306(14)
H1 H 0.4704 0.0329 0.1326
C3 C 0.59168(13) -0.02163(11) 0.27172(16)
H2 H 0.6188 -0.0700 0.2310
C4 C 0.63963(13) -0.01237(12) 0.38846(15)
H3 H 0.6985 -0.0551 0.4285
C5 C 0.60201(13) 0.05885(12) 0.44678(14)
H4 H 0.6359 0.0659 0.5271
C6 C 0.51540(12) 0.12005(10) 0.38931(13)
H5 H 0.4906 0.1693 0.4305
C7 C 0.52577(12) 0.27125(10) 0.14578(12)
H6 H 0.5600 0.2128 0.1349
C8 C 0.57508(13) 0.35327(10) 0.11854(13)
H7 H 0.6429 0.3506 0.0894
C9 C 0.52643(13) 0.43903(10) 0.13340(12)
H8 H 0.5611 0.4952 0.1152
C10 C 0.42700(12) 0.44271(10) 0.17482(12)
H9 H 0.3929 0.5016 0.1843
C11 C 0.37631(11) 0.36011(9) 0.20291(11)
C12 C 0.42691(11) 0.27327(9) 0.18882(11)
C13 C 0.36967(11) 0.18179(9) 0.21215(11)
C14 C 0.27814(11) 0.19485(9) 0.28200(11)
C15 C 0.22249(11) 0.28762(9) 0.27997(11)
C16 C 0.27136(11) 0.36381(9) 0.24575(11)
H10 H 0.2355 0.4230 0.2498
C17 C 0.00853(11) 0.23749(9) 0.26329(11)
C18 C -0.00605(12) 0.20701(10) 0.15088(12)
H11 H 0.0538 0.2192 0.1127
C19 C -0.10770(13) 0.15897(11) 0.09451(12)
H12 H -0.1181 0.1392 0.0173
C20 C -0.19406(12) 0.13972(10) 0.15031(12)
H13 H -0.2635 0.1064 0.1116
C21 C -0.17951(12) 0.16899(10) 0.26240(12)
H14 H -0.2386 0.1552 0.3009
C22 C -0.07914(12) 0.21834(10) 0.31855(12)
H15 H -0.0701 0.2392 0.3952
C23 C 0.28927(11) 0.14851(9) 0.09782(11)
C24 C 0.21477(13) 0.06045(10) 0.06300(12)
H16 H 0.1541 0.0503 0.1055
H17 H 0.2614 0.0029 0.0609
C25 C 0.16732(14) 0.10975(11) -0.05614(12)
H18 H 0.1901 0.0784 -0.1204
H19 H 0.0815 0.1245 -0.0765
C26 C 0.24691(12) 0.19045(10) -0.00308(12)
H20 H 0.2615 0.2500 -0.0317
C27 C 0.11398(11) 0.29350(9) 0.32393(11)
loop_
_geom_bond_atom_site_label_1
_geom_bond_atom_site_label_2
_geom_bond_site_symmetry_1
_geom_bond_site_symmetry_2
O1 C14 1_555 1_555
O2 C27 1_555 1_555
C1 C2 1_555 1_555
C2 H1 1_555 1_555
C3 C2 1_555 1_555
H2 C3 1_555 1_555
C4 C3 1_555 1_555
H3 C4 1_555 1_555
C5 C4 1_555 1_555
H4 C5 1_555 1_555
C6 C1 1_555 1_555
H5 C6 1_555 1_555
C7 H6 1_555 1_555
C8 C7 1_555 1_555
H7 C8 1_555 1_555
C9 C8 1_555 1_555
H8 C9 1_555 1_555
C10 C9 1_555 1_555
H9 C10 1_555 1_555
C11 C10 1_555 1_555
C12 C7 1_555 1_555
C13 C1 1_555 1_555
C14 C13 1_555 1_555
C15 C14 1_555 1_555
C16 C11 1_555 1_555
H10 C16 1_555 1_555
C17 C18 1_555 1_555
C18 H11 1_555 1_555
C19 C18 1_555 1_555
H12 C19 1_555 1_555
C20 C19 1_555 1_555
H13 C20 1_555 1_555
C21 C20 1_555 1_555
H14 C21 1_555 1_555
C22 C17 1_555 1_555
H15 C22 1_555 1_555
C23 C13 1_555 1_555
C24 C23 1_555 1_555
H16 C24 1_555 1_555
H17 C24 1_555 1_555
C25 C24 1_555 1_555
H18 C25 1_555 1_555
H19 C25 1_555 1_555
C26 C23 1_555 1_555
H20 C26 1_555 1_555
C27 C15 1_555 1_555
C5 C6 1_555 1_555
C11 C12 1_555 1_555
C12 C13 1_555 1_555
C15 C16 1_555 1_555
C17 C27 1_555 1_555
C21 C22 1_555 1_555
C25 C26 1_555 1_555

#END
