
#######################################################################
#
#                 Cambridge Crystallographic Data Centre
#                                CCDC 
#
#######################################################################
#
# If this CIF has been generated from an entry in the Cambridge 
# Structural Database, then it will include bibliographic, chemical, 
# crystal, experimental, refinement or atomic coordinate data resulting 
# from the CCDC's data processing and validation procedures.
#
#######################################################################

data_NUCFUO
_chemical_name_common            
8-t-butyl-6b2-azapentabenzo[bc,ef,hi,kl,no]corannulene
_chemical_formula_moiety         'C38 H23 N1'
_chemical_name_systematic        
2-t-butyl-15d-azabenzo[5,6]acenaphtho[4,3,2,1,8,7-pqrstuv]dibenzo[fg,ij]pentaphene
_symmetry_cell_setting           orthorhombic
_symmetry_space_group_name_H-M   'P b c a'
_symmetry_Int_Tables_number      61
_space_group_name_Hall           '-P 2ac 2ab'
loop_
_symmetry_equiv_pos_site_id
_symmetry_equiv_pos_as_xyz
1 x,y,z
2 1/2-x,-y,1/2+z
3 1/2+x,1/2-y,-z
4 -x,1/2+y,1/2-z
5 -x,-y,-z
6 1/2+x,y,1/2-z
7 1/2-x,1/2+y,z
8 x,1/2-y,1/2+z
_cell_length_a                   7.389(2)
_cell_length_b                   24.932(8)
_cell_length_c                   24.944(8)
_cell_angle_alpha                90
_cell_angle_beta                 90
_cell_angle_gamma                90
_cell_volume                     4595.25
_exptl_crystal_colour            yellow
_exptl_crystal_description       Platelet
_chemical_melting_point          '553-555 K'
_cell_formula_units_Z            8
_exptl_crystal_recrystallization_method 'dichloromethane/diethyl ether'
loop_
_atom_site_label
_atom_site_type_symbol
_atom_site_fract_x
_atom_site_fract_y
_atom_site_fract_z
N1 N 0.3912(6) 0.53062(17) 0.28524(18)
C1 C 0.3918(6) 0.4766(2) 0.2953(2)
C2 C 0.3839(7) 0.4888(2) 0.2064(2)
C3 C 0.3906(7) 0.5378(2) 0.2299(2)
C4 C 0.3836(7) 0.4501(2) 0.2475(2)
C5 C 0.5055(7) 0.5491(2) 0.3729(2)
C6 C 0.5123(7) 0.4897(2) 0.3843(2)
C7 C 0.4632(7) 0.5838(2) 0.2073(2)
C8 C 0.5646(7) 0.5887(2) 0.4091(2)
H1 H 0.5895 0.5790 0.4452
C9 C 0.6271(7) 0.6858(2) 0.43487(19)
C10 C 0.5099(7) 0.6274(2) 0.2412(2)
C11 C 0.6096(7) 0.6718(2) 0.1604(2)
H2 H 0.6489 0.7037 0.1432
C12 C 0.4622(7) 0.4541(2) 0.3422(2)
C13 C 0.4543(7) 0.3986(2) 0.2402(2)
C14 C 0.4638(7) 0.5668(2) 0.3205(2)
C15 C 0.6009(7) 0.2994(2) 0.2263(2)
H3 H 0.6374 0.2632 0.2212
C16 C 0.5019(7) 0.3834(2) 0.1866(2)
C17 C 0.5878(7) 0.6428(2) 0.3931(2)
C18 C 0.5795(7) 0.3776(2) 0.3880(2)
H4 H 0.6061 0.3404 0.3904
C19 C 0.5769(7) 0.4177(2) 0.0916(2)
H5 H 0.6082 0.3827 0.0799
C20 C 0.4559(7) 0.4795(2) 0.1559(2)
C21 C 0.5880(7) 0.4664(2) 0.4301(2)
H6 H 0.6224 0.4882 0.4596
C22 C 0.5067(7) 0.6184(2) 0.3005(2)
C23 C 0.5792(7) 0.5146(2) 0.0737(2)
H7 H 0.6086 0.5433 0.0502
C24 C 0.5073(7) 0.3985(2) 0.3400(2)
C25 C 0.5681(7) 0.6556(2) 0.3384(2)
H8 H 0.5976 0.6908 0.3267
C26 C 0.5065(7) 0.3697(2) 0.2871(2)
C27 C 0.5814(7) 0.6730(2) 0.2155(2)
H9 H 0.6100 0.7043 0.2356
C28 C 0.5830(7) 0.6257(2) 0.1289(2)
H10 H 0.6148 0.6263 0.0920
C29 C 0.5741(7) 0.3317(2) 0.1808(2)
H11 H 0.6049 0.3186 0.1462
C30 C 0.5027(6) 0.4252(2) 0.1432(2)
C31 C 0.6126(7) 0.4110(2) 0.4321(2)
H12 H 0.6534 0.3953 0.4646
C32 C 0.6049(7) 0.4618(2) 0.0574(2)
H13 H 0.6431 0.4553 0.0216
C33 C 0.5762(7) 0.3180(2) 0.2783(2)
H14 H 0.6065 0.2957 0.3079
C34 C 0.7223(8) 0.7350(2) 0.4117(2)
H15 H 0.8362 0.7240 0.3948
H16 H 0.7476 0.7607 0.4405
H17 H 0.6442 0.7519 0.3848
C35 C 0.5095(7) 0.5254(2) 0.1251(2)
C36 C 0.5097(7) 0.5789(2) 0.1516(2)
C37 C 0.7426(8) 0.6638(2) 0.4813(2)
H18 H 0.6741 0.6361 0.5005
H19 H 0.7729 0.6930 0.5060
H20 H 0.8541 0.6481 0.4669
C38 C 0.4462(7) 0.7048(2) 0.4582(2)
H21 H 0.3741 0.7217 0.4299
H22 H 0.4687 0.7308 0.4869
H23 H 0.3802 0.6740 0.4728
loop_
_geom_bond_atom_site_label_1
_geom_bond_atom_site_label_2
_geom_bond_site_symmetry_1
_geom_bond_site_symmetry_2
N1 C1 1_555 1_555
C1 C4 1_555 1_555
C2 C3 1_555 1_555
C3 N1 1_555 1_555
C4 C2 1_555 1_555
C5 C6 1_555 1_555
C6 C12 1_555 1_555
C7 C3 1_555 1_555
C8 C5 1_555 1_555
H1 C8 1_555 1_555
C9 C17 1_555 1_555
C10 C7 1_555 1_555
C11 H2 1_555 1_555
C12 C1 1_555 1_555
C13 C4 1_555 1_555
C14 N1 1_555 1_555
C15 H3 1_555 1_555
C16 C13 1_555 1_555
C17 C8 1_555 1_555
C18 H4 1_555 1_555
C19 H5 1_555 1_555
C20 C2 1_555 1_555
C21 C6 1_555 1_555
H6 C21 1_555 1_555
C22 C10 1_555 1_555
C23 H7 1_555 1_555
C24 C12 1_555 1_555
C25 C17 1_555 1_555
H8 C25 1_555 1_555
C26 C13 1_555 1_555
C27 C10 1_555 1_555
H9 C27 1_555 1_555
C28 C11 1_555 1_555
H10 C28 1_555 1_555
C29 C15 1_555 1_555
H11 C29 1_555 1_555
C30 C16 1_555 1_555
C31 C18 1_555 1_555
H12 C31 1_555 1_555
C32 C19 1_555 1_555
H13 C32 1_555 1_555
C33 C15 1_555 1_555
H14 C33 1_555 1_555
C34 C9 1_555 1_555
H15 C34 1_555 1_555
H16 C34 1_555 1_555
H17 C34 1_555 1_555
C35 C20 1_555 1_555
C36 C7 1_555 1_555
C37 C9 1_555 1_555
H18 C37 1_555 1_555
H19 C37 1_555 1_555
H20 C37 1_555 1_555
C38 C9 1_555 1_555
H21 C38 1_555 1_555
H22 C38 1_555 1_555
H23 C38 1_555 1_555
C5 C14 1_555 1_555
C11 C27 1_555 1_555
C14 C22 1_555 1_555
C16 C29 1_555 1_555
C18 C24 1_555 1_555
C19 C30 1_555 1_555
C20 C30 1_555 1_555
C21 C31 1_555 1_555
C22 C25 1_555 1_555
C23 C32 1_555 1_555
C23 C35 1_555 1_555
C24 C26 1_555 1_555
C26 C33 1_555 1_555
C28 C36 1_555 1_555
C35 C36 1_555 1_555

#END
