
#######################################################################
#
#                 Cambridge Crystallographic Data Centre
#                                CCDC 
#
#######################################################################
#
# If this CIF has been generated from an entry in the Cambridge 
# Structural Database, then it will include bibliographic, chemical, 
# crystal, experimental, refinement or atomic coordinate data resulting 
# from the CCDC's data processing and validation procedures.
#
#######################################################################

data_NUCJUR
_chemical_name_common            
'Methyl 2-((4-acetamido-2-hydroxy-6,8-dioxabicyclo[3.2.1]oct-3-yl)oxy)propanoate'
_chemical_formula_moiety         'C12 H19 N1 O7'
_chemical_name_systematic        
2-Acetamido-1,6-anhydro-2-deoxy-3-O-((1R)-1-(methoxycarbonyl)ethyl)-\b-D-glucopyranose
_symmetry_cell_setting           monoclinic
_symmetry_space_group_name_H-M   'P 21'
_symmetry_Int_Tables_number      4
_space_group_name_Hall           'P 2yb'
loop_
_symmetry_equiv_pos_site_id
_symmetry_equiv_pos_as_xyz
1 x,y,z
2 -x,1/2+y,-z
_cell_length_a                   6.3338(1)
_cell_length_b                   15.4559(3)
_cell_length_c                   7.2741(2)
_cell_angle_alpha                90
_cell_angle_beta                 108.775(1)
_cell_angle_gamma                90
_cell_volume                     674.204
_exptl_crystal_colour            colorless
_exptl_crystal_description       parallelepiped
_cell_formula_units_Z            2
_exptl_crystal_recrystallization_method 'diethyl ether/hexanes'
loop_
_atom_site_label
_atom_site_type_symbol
_atom_site_fract_x
_atom_site_fract_y
_atom_site_fract_z
N1 N 0.4101(2) 0.15649(10) 0.62816(19)
H1 H 0.321(3) 0.1212(15) 0.559(3)
O1 O 0.6058(2) 0.30142(8) 0.31291(17)
O2 O 0.25177(19) 0.37266(8) 0.43915(17)
O3 O 0.00526(19) 0.16533(8) 0.25847(15)
H2 H -0.0997 0.1542 0.1564
O4 O 0.44649(19) 0.16888(8) 0.25046(15)
O5 O 0.7037(2) 0.17385(9) 0.89828(16)
O6 O 0.1305(3) 0.39132(12) 0.7676(2)
O7 O -0.1779(2) 0.46326(8) 0.60113(17)
C1 C 0.5733(3) 0.22332(11) 0.4015(2)
H3 H 0.7203 0.1958 0.4709
C2 C 0.4424(3) 0.23929(11) 0.5436(2)
H4 H 0.5315 0.2784 0.6499
C3 C 0.2148(3) 0.28158(11) 0.4413(2)
H5 H 0.1135 0.2699 0.5193
C4 C 0.1072(3) 0.24479(11) 0.2354(2)
H6 H -0.0086 0.2858 0.1562
C5 C 0.2821(3) 0.22832(11) 0.1345(2)
H7 H 0.2108 0.2051 0.0004
C6 C 0.4266(3) 0.30741(12) 0.1316(2)
H8 H 0.4839 0.3050 0.0201
H9 H 0.3413 0.3617 0.1243
C7 C 0.4906(3) 0.04346(12) 0.8701(2)
H10 H 0.3706 0.0508 0.9265
H11 H 0.6230 0.0201 0.9686
H12 H 0.4421 0.0033 0.7602
C8 C 0.5461(3) 0.12966(12) 0.8009(2)
C9 C 0.0628(3) 0.42382(11) 0.4279(2)
H13 H -0.0695 0.4018 0.3214
C10 C 0.1173(3) 0.51527(12) 0.3808(3)
H14 H 0.1256 0.5170 0.2487
H15 H 0.2610 0.5330 0.4731
H16 H 0.0005 0.5549 0.3904
C11 C 0.0134(3) 0.42256(11) 0.6200(2)
C12 C -0.2463(3) 0.46620(13) 0.7724(3)
H17 H -0.1437 0.5032 0.8705
H18 H -0.2441 0.4076 0.8245
H19 H -0.3977 0.4898 0.7382
loop_
_geom_bond_atom_site_label_1
_geom_bond_atom_site_label_2
_geom_bond_site_symmetry_1
_geom_bond_site_symmetry_2
N1 H1 1_555 1_555
O1 C1 1_555 1_555
O2 C3 1_555 1_555
O3 H2 1_555 1_555
O4 C1 1_555 1_555
O5 C8 1_555 1_555
O6 C11 1_555 1_555
O7 C11 1_555 1_555
C1 H3 1_555 1_555
C2 N1 1_555 1_555
H4 C2 1_555 1_555
C3 C2 1_555 1_555
H5 C3 1_555 1_555
C4 O3 1_555 1_555
H6 C4 1_555 1_555
C5 O4 1_555 1_555
H7 C5 1_555 1_555
C6 O1 1_555 1_555
H8 C6 1_555 1_555
H9 C6 1_555 1_555
C7 H10 1_555 1_555
H11 C7 1_555 1_555
H12 C7 1_555 1_555
C8 N1 1_555 1_555
C9 O2 1_555 1_555
H13 C9 1_555 1_555
C10 C9 1_555 1_555
H14 C10 1_555 1_555
H15 C10 1_555 1_555
H16 C10 1_555 1_555
C11 C9 1_555 1_555
C12 O7 1_555 1_555
H17 C12 1_555 1_555
H18 C12 1_555 1_555
H19 C12 1_555 1_555
C1 C2 1_555 1_555
C3 C4 1_555 1_555
C4 C5 1_555 1_555
C5 C6 1_555 1_555
C7 C8 1_555 1_555

#END
