
#######################################################################
#
#                 Cambridge Crystallographic Data Centre
#                                CCDC 
#
#######################################################################
#
# If this CIF has been generated from an entry in the Cambridge 
# Structural Database, then it will include bibliographic, chemical, 
# crystal, experimental, refinement or atomic coordinate data resulting 
# from the CCDC's data processing and validation procedures.
#
#######################################################################

data_NUCPOR
_chemical_formula_moiety         'C30 H16 F9 N1'
_chemical_name_systematic        
(Z)-2-(3',5'-bis(Trifluoromethyl)biphenyl-4-yl)-3-(4'-(trifluoromethyl)biphenyl-4-yl)acrylonitrile
_symmetry_cell_setting           triclinic
_symmetry_space_group_name_H-M   'P -1'
_symmetry_Int_Tables_number      2
_space_group_name_Hall           '-P 1'
loop_
_symmetry_equiv_pos_site_id
_symmetry_equiv_pos_as_xyz
1 x,y,z
2 -x,-y,-z
_cell_length_a                   8.6260(16)
_cell_length_b                   10.283(2)
_cell_length_c                   15.342(4)
_cell_angle_alpha                75.91(2)
_cell_angle_beta                 79.12(2)
_cell_angle_gamma                82.830(17)
_cell_volume                     1291.73
_exptl_crystal_colour            colorless
_exptl_crystal_description       block
_cell_formula_units_Z            2
_chemical_properties_physical    light-sensitive
_exptl_crystal_recrystallization_method methanol/tetrahydrofuran
_exptl_crystal_preparation       'photochromic; fluorescent'
loop_
_atom_site_label
_atom_site_type_symbol
_atom_site_fract_x
_atom_site_fract_y
_atom_site_fract_z
F1 F 0.9822(10) 1.2164(9) 0.8786(5)
F2 F 1.1398(15) 1.0624(7) 0.8856(8)
F3 F 1.1626(11) 1.2274(11) 0.7804(5)
F4 F -0.1843(5) 0.3412(9) 0.0423(4)
F5 F -0.2548(4) 0.3062(5) 0.1848(3)
F6 F -0.2282(4) 0.4954(5) 0.1074(4)
F7 F 0.4800(10) 0.2531(7) -0.0287(5)
F8 F 0.3424(6) 0.0951(8) 0.0139(6)
F9 F 0.5052(6) 0.1218(6) 0.0850(4)
N1 N 0.2158(6) 0.6285(7) 0.6091(4)
C1 C 1.0724(12) 1.1453(7) 0.8261(6)
C2 C 0.9891(8) 1.0802(5) 0.7745(4)
C3 C 0.8344(10) 1.1173(6) 0.7674(5)
H1 H 0.7799 1.1831 0.7964
C4 C 0.7569(8) 1.0585(5) 0.7176(4)
H2 H 0.6498 1.0827 0.7157
C5 C 0.8365(7) 0.9633(4) 0.6702(3)
C6 C 0.9945(7) 0.9227(5) 0.6801(4)
H3 H 1.0498 0.8557 0.6524
C7 C 1.0687(7) 0.9830(6) 0.7315(4)
H4 H 1.1743 0.9568 0.7368
C8 C 0.7581(6) 0.9006(4) 0.6137(3)
C9 C 0.5948(7) 0.8807(6) 0.6361(4)
H5 H 0.5349 0.9060 0.6873
C10 C 0.5232(6) 0.8242(5) 0.5825(4)
H6 H 0.4158 0.8114 0.5986
C11 C 0.6088(6) 0.7855(5) 0.5043(3)
C12 C 0.7680(7) 0.8069(6) 0.4827(3)
H7 H 0.8275 0.7832 0.4309
C13 C 0.8411(7) 0.8626(6) 0.5363(3)
H8 H 0.9486 0.8747 0.5198
C14 C 0.5437(6) 0.7232(5) 0.4440(3)
H9 H 0.6065 0.7262 0.3873
C15 C 0.4093(5) 0.6626(4) 0.4563(3)
C16 C 0.3029(6) 0.6461(5) 0.5424(3)
C17 C 0.3584(5) 0.6023(4) 0.3883(3)
C18 C 0.2088(6) 0.5546(5) 0.4031(3)
H10 H 0.1391 0.5624 0.4561
C19 C 0.1608(5) 0.4959(5) 0.3413(3)
H11 H 0.0603 0.4650 0.3540
C20 C 0.2598(4) 0.4825(4) 0.2610(3)
C21 C 0.4081(5) 0.5329(4) 0.2440(3)
H12 H 0.4765 0.5265 0.1903
C22 C 0.4552(5) 0.5921(5) 0.3054(3)
H13 H 0.5541 0.6262 0.2914
C23 C 0.2112(5) 0.4140(4) 0.1957(3)
C24 C 0.0539(5) 0.4232(4) 0.1843(3)
H14 H -0.0221 0.4744 0.2162
C25 C 0.0097(5) 0.3560(4) 0.1257(3)
C26 C 0.1193(5) 0.2767(4) 0.0785(3)
H15 H 0.0885 0.2301 0.0405
C27 C 0.2760(5) 0.2688(5) 0.0895(3)
C28 C 0.3222(5) 0.3358(4) 0.1475(3)
H16 H 0.4280 0.3284 0.1542
C29 C -0.1615(5) 0.3681(6) 0.1137(3)
C30 C 0.3990(7) 0.1824(7) 0.0402(4)
loop_
_geom_bond_atom_site_label_1
_geom_bond_atom_site_label_2
_geom_bond_site_symmetry_1
_geom_bond_site_symmetry_2
F1 C1 1_555 1_555
F2 C1 1_555 1_555
F3 C1 1_555 1_555
F4 C29 1_555 1_555
F5 C29 1_555 1_555
F6 C29 1_555 1_555
F7 C30 1_555 1_555
F8 C30 1_555 1_555
F9 C30 1_555 1_555
N1 C16 1_555 1_555
C1 C2 1_555 1_555
C2 C3 1_555 1_555
C3 H1 1_555 1_555
C4 C3 1_555 1_555
H2 C4 1_555 1_555
C5 C4 1_555 1_555
C6 C5 1_555 1_555
H3 C6 1_555 1_555
C7 C2 1_555 1_555
H4 C7 1_555 1_555
C8 C5 1_555 1_555
C9 C8 1_555 1_555
H5 C9 1_555 1_555
C10 C9 1_555 1_555
H6 C10 1_555 1_555
C11 C10 1_555 1_555
C12 C11 1_555 1_555
H7 C12 1_555 1_555
C13 C8 1_555 1_555
H8 C13 1_555 1_555
C14 C11 1_555 1_555
H9 C14 1_555 1_555
C15 C14 1_555 1_555
C16 C15 1_555 1_555
C17 C15 1_555 1_555
C18 C17 1_555 1_555
H10 C18 1_555 1_555
C19 C18 1_555 1_555
H11 C19 1_555 1_555
C20 C19 1_555 1_555
C21 C20 1_555 1_555
H12 C21 1_555 1_555
C22 C17 1_555 1_555
H13 C22 1_555 1_555
C23 C20 1_555 1_555
C24 C23 1_555 1_555
H14 C24 1_555 1_555
C25 C24 1_555 1_555
C26 C25 1_555 1_555
H15 C26 1_555 1_555
C27 C26 1_555 1_555
C28 C23 1_555 1_555
H16 C28 1_555 1_555
C29 C25 1_555 1_555
C30 C27 1_555 1_555
C6 C7 1_555 1_555
C12 C13 1_555 1_555
C21 C22 1_555 1_555
C27 C28 1_555 1_555

#END
