
#######################################################################
#
#                 Cambridge Crystallographic Data Centre
#                                CCDC 
#
#######################################################################
#
# If this CIF has been generated from an entry in the Cambridge 
# Structural Database, then it will include bibliographic, chemical, 
# crystal, experimental, refinement or atomic coordinate data resulting 
# from the CCDC's data processing and validation procedures.
#
#######################################################################

data_NUDCIZ
_chemical_formula_moiety         'C35 H27 Br2 N3 O3,C1 H1 Cl3'
_chemical_name_systematic        
'(1RS,2SR,3RS,4RS,5RS)-(2,6-bis(4-Bromophenyl)-4-hydroxy-4-(pyridin-2-yl)cyclohexane-1,3-diyl)bis(pyridin-2-ylmethanone) chloroform solvate'
_symmetry_cell_setting           orthorhombic
_symmetry_space_group_name_H-M   'F d d 2'
_symmetry_Int_Tables_number      43
_space_group_name_Hall           'F 2 -2d'
loop_
_symmetry_equiv_pos_site_id
_symmetry_equiv_pos_as_xyz
1 x,y,z
2 x,1/2+y,1/2+z
3 1/2+x,y,1/2+z
4 1/2+x,1/2+y,z
5 1/4-x,1/4+y,1/4+z
6 1/4-x,3/4+y,3/4+z
7 3/4-x,1/4+y,3/4+z
8 3/4-x,3/4+y,1/4+z
9 1/4+x,1/4-y,1/4+z
10 1/4+x,3/4-y,3/4+z
11 3/4+x,1/4-y,3/4+z
12 3/4+x,3/4-y,1/4+z
13 1/2-x,-y,1/2+z
14 1/2-x,1/2-y,z
15 -x,-y,z
16 -x,1/2-y,1/2+z
_cell_length_a                   16.8561(4)
_cell_length_b                   53.1999(16)
_cell_length_c                   15.4900(5)
_cell_angle_alpha                90
_cell_angle_beta                 90
_cell_angle_gamma                90
_cell_volume                     13890.5
_exptl_crystal_colour            colorless
_exptl_crystal_description       plate
_cell_formula_units_Z            16
_exptl_crystal_recrystallization_method chloroform/methanol
loop_
_atom_site_label
_atom_site_type_symbol
_atom_site_fract_x
_atom_site_fract_y
_atom_site_fract_z
Br1 Br 0.20063(2) 0.512909(6) 0.33173(5)
Br2 Br 0.38475(2) 0.747844(5) 0.25672(5)
O1 O 0.45814(11) 0.60767(3) -0.03783(11)
O2 O 0.42139(12) 0.55391(3) 0.01074(13)
O3 O 0.46693(10) 0.61827(4) 0.27485(11)
N1 N 0.59902(15) 0.58983(4) -0.06046(15)
N2 N 0.56641(14) 0.54806(5) 0.17034(16)
N3 N 0.26546(12) 0.63528(4) 0.29632(14)
C1 C 0.50257(14) 0.60641(4) 0.03979(14)
C2 C 0.46443(13) 0.58712(4) 0.10344(13)
C3 C 0.37826(13) 0.59454(4) 0.12245(13)
C4 C 0.37096(13) 0.62142(4) 0.16035(14)
C5 C 0.41559(14) 0.64066(4) 0.10225(14)
C6 C 0.50040(13) 0.63257(4) 0.08148(16)
C7 C 0.58733(14) 0.59819(4) 0.01996(15)
C8 C 0.64666(15) 0.59831(5) 0.08130(19)
C9 C 0.72063(18) 0.58873(6) 0.0596(2)
C10 C 0.7324(2) 0.57944(6) -0.0231(2)
C11 C 0.6715(2) 0.58068(6) -0.0792(2)
C12 C 0.46859(14) 0.56100(4) 0.06410(15)
C13 C 0.53523(14) 0.54404(4) 0.09184(16)
C14 C 0.5615(2) 0.52539(5) 0.0368(2)
C15 C 0.6217(2) 0.50964(6) 0.0637(2)
C16 C 0.6541(2) 0.51350(6) 0.1445(2)
C17 C 0.62505(19) 0.53274(7) 0.1955(2)
C18 C 0.33556(14) 0.57516(4) 0.17690(15)
C19 C 0.37288(15) 0.56192(5) 0.24341(17)
C20 C 0.33292(17) 0.54357(5) 0.29020(17)
C21 C 0.25569(16) 0.53838(4) 0.27016(16)
C22 C 0.21623(16) 0.55115(5) 0.20469(18)
C23 C 0.25676(14) 0.56938(5) 0.15927(16)
C24 C 0.39909(12) 0.62275(4) 0.25357(14)
C25 C 0.33964(13) 0.63058(4) 0.32167(15)
C26 C 0.36455(15) 0.63289(5) 0.40648(15)
C27 C 0.30978(18) 0.64132(5) 0.46749(17)
C28 C 0.23415(18) 0.64661(6) 0.44161(19)
C29 C 0.21463(17) 0.64287(6) 0.35586(19)
C30 C 0.41037(15) 0.66712(4) 0.13969(15)
C31 C 0.33655(17) 0.67875(5) 0.14376(18)
C32 C 0.32815(18) 0.70273(5) 0.1778(2)
C33 C 0.39530(18) 0.71512(4) 0.20821(17)
C34 C 0.46850(17) 0.70418(5) 0.20449(18)
C35 C 0.47564(16) 0.68011(5) 0.16994(17)
H1 H 0.4943 0.5874 0.1594
H2 H 0.3510 0.5948 0.0667
H3 H 0.3138 0.6258 0.1604
H4 H 0.3852 0.6413 0.0474
H5 H 0.5258 0.6451 0.0439
H6 H 0.5315 0.6316 0.1356
H7 H 0.6357 0.6047 0.1376
H8 H 0.7623 0.5886 0.1005
H9 H 0.7807 0.5719 -0.0402
H10 H 0.6797 0.5751 -0.1349
H11 H 0.5370 0.5233 -0.0189
H12 H 0.6401 0.4967 0.0280
H13 H 0.6952 0.5032 0.1668
H14 H 0.6481 0.5352 0.2516
H15 H 0.4263 0.5654 0.2565
H16 H 0.3585 0.5348 0.3363
H17 H 0.1628 0.5474 0.1905
H18 H 0.2292 0.5783 0.1151
H19 H 0.4179 0.6294 0.4226
H20 H 0.3240 0.6434 0.5267
H21 H 0.1960 0.6523 0.4808
H22 H 0.1630 0.6457 0.3389
H23 H 0.2918 0.6697 0.1230
H24 H 0.2782 0.7103 0.1794
H25 H 0.5134 0.7130 0.2255
H26 H 0.5260 0.6729 0.1666
H28 H 0.4829 0.5989 -0.0751
C36 C 0.57914(18) 0.46813(6) 0.71610(18)
Cl1 Cl 0.66227(7) 0.45244(3) 0.67967(12)
Cl2 Cl 0.55990(12) 0.45935(3) 0.82292(9)
Cl3 Cl 0.49962(8) 0.46422(3) 0.64892(11)
H27 H 0.5942 0.4863 0.7122
Cl4? Cl 0.5408(6) 0.45449(12) 0.6162(3)
Cl5? Cl 0.6547(3) 0.44748(10) 0.7485(5)
Cl6? Cl 0.5018(4) 0.4651(2) 0.7914(5)
loop_
_geom_bond_atom_site_label_1
_geom_bond_atom_site_label_2
_geom_bond_site_symmetry_1
_geom_bond_site_symmetry_2
Br1 C21 1_555 1_555
Br2 C33 1_555 1_555
O1 C1 1_555 1_555
O2 C12 1_555 1_555
O3 C24 1_555 1_555
N1 C7 1_555 1_555
N2 C13 1_555 1_555
N3 C25 1_555 1_555
C1 C2 1_555 1_555
C2 C3 1_555 1_555
C3 C4 1_555 1_555
C4 C5 1_555 1_555
C5 C6 1_555 1_555
C6 C1 1_555 1_555
C7 C1 1_555 1_555
C8 C7 1_555 1_555
C9 C8 1_555 1_555
C10 C9 1_555 1_555
C11 N1 1_555 1_555
C12 C2 1_555 1_555
C13 C12 1_555 1_555
C14 C13 1_555 1_555
C15 C14 1_555 1_555
C16 C15 1_555 1_555
C17 N2 1_555 1_555
C18 C3 1_555 1_555
C19 C18 1_555 1_555
C20 C19 1_555 1_555
C21 C20 1_555 1_555
C22 C21 1_555 1_555
C23 C18 1_555 1_555
C24 C4 1_555 1_555
C25 C24 1_555 1_555
C26 C25 1_555 1_555
C27 C26 1_555 1_555
C28 C27 1_555 1_555
C29 N3 1_555 1_555
C30 C5 1_555 1_555
C31 C30 1_555 1_555
C32 C31 1_555 1_555
C33 C32 1_555 1_555
C34 C33 1_555 1_555
C35 C30 1_555 1_555
C36 Cl1 1_555 1_555
Cl2 C36 1_555 1_555
Cl3 C36 1_555 1_555
H1 C2 1_555 1_555
H2 C3 1_555 1_555
H3 C4 1_555 1_555
H4 C5 1_555 1_555
H5 C6 1_555 1_555
H6 C6 1_555 1_555
H7 C8 1_555 1_555
H8 C9 1_555 1_555
H9 C10 1_555 1_555
H10 C11 1_555 1_555
H11 C14 1_555 1_555
H12 C15 1_555 1_555
H13 C16 1_555 1_555
H14 C17 1_555 1_555
H15 C19 1_555 1_555
H16 C20 1_555 1_555
H17 C22 1_555 1_555
H18 C23 1_555 1_555
H19 C26 1_555 1_555
H20 C27 1_555 1_555
H21 C28 1_555 1_555
H22 C29 1_555 1_555
H23 C31 1_555 1_555
H24 C32 1_555 1_555
H25 C34 1_555 1_555
H26 C35 1_555 1_555
H27 C36 1_555 1_555
H28 O1 1_555 1_555
C10 C11 1_555 1_555
C16 C17 1_555 1_555
C22 C23 1_555 1_555
C28 C29 1_555 1_555
C34 C35 1_555 1_555

#END
