
#######################################################################
#
#                 Cambridge Crystallographic Data Centre
#                                CCDC 
#
#######################################################################
#
# If this CIF has been generated from an entry in the Cambridge 
# Structural Database, then it will include bibliographic, chemical, 
# crystal, experimental, refinement or atomic coordinate data resulting 
# from the CCDC's data processing and validation procedures.
#
#######################################################################

data_NUDSOW
_chemical_formula_moiety         'C48 H54 Ba1 N2 O2 P2 Se2'
_chemical_name_systematic        
'bis((R)-P,P-diphenyl-N-(1-phenylethyl)phosphinoselenoic amidato)-bis(tetrahydrofuran)-barium'
_symmetry_cell_setting           monoclinic
_symmetry_space_group_name_H-M   'P 21'
_symmetry_Int_Tables_number      4
_space_group_name_Hall           'P 2yb'
loop_
_symmetry_equiv_pos_site_id
_symmetry_equiv_pos_as_xyz
1 x,y,z
2 -x,1/2+y,-z
_cell_length_a                   12.5451(2)
_cell_length_b                   14.6496(3)
_cell_length_c                   14.0905(2)
_cell_angle_alpha                90
_cell_angle_beta                 115.323(2)
_cell_angle_gamma                90
_cell_volume                     2340.73
_exptl_crystal_colour            colorless
_exptl_crystal_description       block
_cell_formula_units_Z            2
loop_
_atom_site_label
_atom_site_type_symbol
_atom_site_fract_x
_atom_site_fract_y
_atom_site_fract_z
Ba1 Ba 0.19803(2) 0.309674(19) 0.29004(2)
Se1 Se 0.03342(5) 0.42896(5) 0.38123(5)
Se2 Se 0.37717(5) 0.16866(4) 0.24347(5)
P1 P 0.20526(12) 0.48753(11) 0.46858(11)
P2 P 0.36018(11) 0.27745(10) 0.13607(10)
C1 C 0.5059(4) 0.3191(4) 0.1555(4)
C2 C 0.2599(5) 0.4418(4) 0.0860(4)
H1 H 0.2738 0.4285 0.0240
C3 C 0.5994(5) 0.3192(5) 0.2556(4)
H2 H 0.5909 0.2901 0.3106
C4 C 0.2396(5) 0.4947(4) 0.6074(4)
C5 C 0.5204(5) 0.3642(4) 0.0746(5)
H3 H 0.4592 0.3645 0.0073
C6 C 0.1997(5) 0.6072(4) 0.4312(4)
C7 C 0.4288(5) 0.4388(5) 0.5160(5)
H4 H 0.4472 0.5026 0.5378
C8 C 0.2466(8) 0.4270(6) 0.7666(6)
H5 H 0.2267 0.3794 0.7996
C9 C 0.4670(5) 0.3786(5) 0.6124(5)
C10 C 0.7044(5) 0.3623(5) 0.2739(5)
H6 H 0.7670 0.3604 0.3404
C11 C 0.1288(5) 0.6694(5) 0.4519(5)
H7 H 0.0851 0.6504 0.4875
C12 C 0.1927(8) 0.1617(6) -0.1998(6)
H8 H 0.1574 0.1378 -0.2674
C13 C 0.5367(7) 0.4121(6) 0.7107(6)
H9 H 0.5608 0.4727 0.7172
C14 C 0.2079(7) 0.4255(5) 0.6581(6)
H10 H 0.1604 0.3777 0.6191
C15 C 0.2566(10) 0.7267(7) 0.3450(7)
H11 H 0.2993 0.7458 0.3086
C16 C 0.5353(8) 0.2704(8) 0.7937(7)
H12 H 0.5559 0.2348 0.8536
C17 C 0.2984(5) 0.2332(4) 0.0015(4)
C18 C 0.3093(5) 0.5656(5) 0.6694(5)
H13 H 0.3316 0.6129 0.6377
C19 C 0.7165(6) 0.4081(5) 0.1933(6)
H14 H 0.7865 0.4387 0.2065
N1 N 0.3010(4) 0.4303(4) 0.4457(3)
C20 C 0.5727(10) 0.3588(8) 0.8010(7)
H15 H 0.6220 0.3833 0.8660
C21 C 0.6260(6) 0.4091(5) 0.0937(6)
H16 H 0.6351 0.4393 0.0396
C22 C 0.3454(6) 0.5668(5) 0.7760(5)
H17 H 0.3920 0.6146 0.8156
C23 C -0.0469(8) 0.2390(7) 0.0561(7)
H18 H -0.0300 0.1836 0.0274
H19 H -0.0080 0.2899 0.0399
C24 C 0.0537(6) 0.4681(5) -0.0558(6)
H20 H 0.0807 0.4523 -0.1057
N2 N 0.2798(4) 0.3568(3) 0.1485(3)
C25 C 0.3131(7) 0.4973(5) 0.8249(5)
H21 H 0.3367 0.4988 0.8971
C26 C 0.1223(7) 0.7603(5) 0.4198(6)
H22 H 0.0759 0.8019 0.4352
C27 C 0.0883(6) 0.4947(4) 0.1211(6)
H23 H 0.1391 0.4977 0.1922
O1 O -0.0089(4) 0.2309(5) 0.1666(4)
C28 C -0.2117(6) 0.1977(7) 0.0804(7)
H24 H -0.2290 0.1359 0.0534
H25 H -0.2807 0.2227 0.0854
C29 C 0.1324(5) 0.4696(4) 0.0493(5)
C30 C -0.1070(7) 0.5128(6) -0.0164(8)
H26 H -0.1864 0.5263 -0.0381
C31 C 0.3450(6) 0.5175(5) 0.1491(6)
H27 H 0.3289 0.5343 0.2076
H28 H 0.3347 0.5697 0.1049
H29 H 0.4247 0.4959 0.1745
C32 C -0.0301(7) 0.5154(5) 0.0881(7)
H30 H -0.0578 0.5313 0.1374
C33 C 0.4335(7) 0.2868(7) 0.6080(7)
H31 H 0.3873 0.2602 0.5434
C34 C 0.4959(6) 0.4101(7) 0.4518(5)
H32 H 0.4828 0.3464 0.4349
H33 H 0.5787 0.4208 0.4921
H34 H 0.4682 0.4451 0.3881
C35 C 0.3637(6) 0.1829(5) -0.0377(5)
H35 H 0.4436 0.1733 0.0034
C36 C 0.3107(8) 0.1470(6) -0.1380(6)
H36 H 0.3549 0.1127 -0.1638
O2 O 0.1967(5) 0.1653(4) 0.4108(4)
C37 C 0.1261(7) 0.2126(6) -0.1610(5)
H37 H 0.0465 0.2233 -0.2026
C38 C 0.1794(6) 0.2468(5) -0.0602(5)
H38 H 0.1348 0.2795 -0.0334
C39 C -0.1061(7) 0.1996(6) 0.1855(7)
H39 H -0.1200 0.2406 0.2331
H40 H -0.0903 0.1391 0.2164
C40 C 0.2646(7) 0.6379(6) 0.3783(6)
H41 H 0.3142 0.5976 0.3654
C41 C -0.0642(7) 0.4897(7) -0.0885(7)
H42 H -0.1150 0.4887 -0.1597
C42 C 0.1850(8) 0.7877(6) 0.3655(6)
H43 H 0.1793 0.8477 0.3423
C43 C -0.1763(7) 0.2549(7) 0.0129(8)
H44 H -0.1937 0.3187 0.0179
H45 H -0.2157 0.2358 -0.0599
C44 C 0.4681(9) 0.2358(9) 0.6981(8)
H46 H 0.4443 0.1752 0.6928
C45 C 0.1754(11) 0.0849(9) 0.5413(10)
H47 H 0.2089 0.0932 0.6168
H48 H 0.1010 0.0531 0.5204
C46 C 0.111(3) 0.146(2) 0.445(2)
H49 H 0.0454 0.1141 0.3912
H50 H 0.0829 0.2014 0.4640
C47 C 0.1988(18) 0.0742(13) 0.3857(15)
H51 H 0.2778 0.0568 0.3966
H52 H 0.1459 0.0639 0.3125
C48 C 0.1604(15) 0.0179(12) 0.4549(13)
H53 H 0.2103 -0.0353 0.4822
H54 H 0.0790 -0.0015 0.4177
C49? C 0.1527(14) 0.1723(9) 0.4927(12)
H55? H 0.1944 0.2196 0.5431
H56? H 0.0690 0.1858 0.4617
C50? C 0.2722(14) 0.0822(11) 0.4371(12)
H57? H 0.3550 0.0985 0.4647
H58? H 0.2522 0.0440 0.3756
C51? C 0.246(2) 0.0341(17) 0.5189(19)
H59? H 0.2092 -0.0244 0.4923
H60? H 0.3183 0.0236 0.5814
loop_
_geom_bond_atom_site_label_1
_geom_bond_atom_site_label_2
_geom_bond_site_symmetry_1
_geom_bond_site_symmetry_2
Ba1 Se1 1_555 1_555
Se1 P1 1_555 1_555
Se2 Ba1 1_555 1_555
P1 C4 1_555 1_555
P2 Se2 1_555 1_555
C1 P2 1_555 1_555
C2 H1 1_555 1_555
C3 C1 1_555 1_555
H2 C3 1_555 1_555
C4 C14 1_555 1_555
C5 C1 1_555 1_555
H3 C5 1_555 1_555
C6 P1 1_555 1_555
C7 H4 1_555 1_555
C8 H5 1_555 1_555
C9 C7 1_555 1_555
C10 C3 1_555 1_555
H6 C10 1_555 1_555
C11 C6 1_555 1_555
H7 C11 1_555 1_555
C12 H8 1_555 1_555
C13 C9 1_555 1_555
H9 C13 1_555 1_555
C14 C8 1_555 1_555
H10 C14 1_555 1_555
C15 H11 1_555 1_555
C16 H12 1_555 1_555
C17 P2 1_555 1_555
C18 C4 1_555 1_555
H13 C18 1_555 1_555
C19 C10 1_555 1_555
H14 C19 1_555 1_555
N1 Ba1 1_555 1_555
C20 C13 1_555 1_555
H15 C20 1_555 1_555
C21 C5 1_555 1_555
H16 C21 1_555 1_555
C22 C18 1_555 1_555
H17 C22 1_555 1_555
C23 H18 1_555 1_555
H19 C23 1_555 1_555
C24 H20 1_555 1_555
N2 Ba1 1_555 1_555
C25 C8 1_555 1_555
H21 C25 1_555 1_555
C26 C11 1_555 1_555
H22 C26 1_555 1_555
C27 H23 1_555 1_555
O1 Ba1 1_555 1_555
C28 H24 1_555 1_555
H25 C28 1_555 1_555
C29 C2 1_555 1_555
C30 H26 1_555 1_555
C31 C2 1_555 1_555
H27 C31 1_555 1_555
H28 C31 1_555 1_555
H29 C31 1_555 1_555
C32 C27 1_555 1_555
H30 C32 1_555 1_555
C33 C9 1_555 1_555
H31 C33 1_555 1_555
C34 C7 1_555 1_555
H32 C34 1_555 1_555
H33 C34 1_555 1_555
H34 C34 1_555 1_555
C35 C17 1_555 1_555
H35 C35 1_555 1_555
C36 C12 1_555 1_555
H36 C36 1_555 1_555
O2 Ba1 1_555 1_555
C37 C12 1_555 1_555
H37 C37 1_555 1_555
C38 C17 1_555 1_555
H38 C38 1_555 1_555
C39 O1 1_555 1_555
H39 C39 1_555 1_555
H40 C39 1_555 1_555
C40 C6 1_555 1_555
H41 C40 1_555 1_555
C41 C24 1_555 1_555
H42 C41 1_555 1_555
C42 C15 1_555 1_555
H43 C42 1_555 1_555
C43 C23 1_555 1_555
H44 C43 1_555 1_555
H45 C43 1_555 1_555
C44 C16 1_555 1_555
H46 C44 1_555 1_555
C45 H47 1_555 1_555
H48 C45 1_555 1_555
C46 O2 1_555 1_555
H49 C46 1_555 1_555
H50 C46 1_555 1_555
C47 O2 1_555 1_555
H51 C47 1_555 1_555
H52 C47 1_555 1_555
C48 C45 1_555 1_555
H53 C48 1_555 1_555
H54 C48 1_555 1_555
P1 N1 1_555 1_555
P2 N2 1_555 1_555
C2 N2 1_555 1_555
C7 N1 1_555 1_555
C15 C40 1_555 1_555
C16 C20 1_555 1_555
C19 C21 1_555 1_555
C22 C25 1_555 1_555
C23 O1 1_555 1_555
C24 C29 1_555 1_555
C26 C42 1_555 1_555
C27 C29 1_555 1_555
C28 C39 1_555 1_555
C28 C43 1_555 1_555
C30 C32 1_555 1_555
C30 C41 1_555 1_555
C33 C44 1_555 1_555
C35 C36 1_555 1_555
C37 C38 1_555 1_555
C45 C46 1_555 1_555
C47 C48 1_555 1_555

#END
