
#######################################################################
#
#                 Cambridge Crystallographic Data Centre
#                                CCDC 
#
#######################################################################
#
# If this CIF has been generated from an entry in the Cambridge 
# Structural Database, then it will include bibliographic, chemical, 
# crystal, experimental, refinement or atomic coordinate data resulting 
# from the CCDC's data processing and validation procedures.
#
#######################################################################

data_NUDTAJ
_chemical_formula_moiety         'C20 H23 B1 N1 P1'
_chemical_name_systematic        
(R)-N-(borane(diphenyl)phosphoranyl)-1-phenylethanamine
_symmetry_cell_setting           monoclinic
_symmetry_space_group_name_H-M   'P 21'
_symmetry_Int_Tables_number      4
_space_group_name_Hall           'P 2yb'
loop_
_symmetry_equiv_pos_site_id
_symmetry_equiv_pos_as_xyz
1 x,y,z
2 -x,1/2+y,-z
_cell_length_a                   11.3581(10)
_cell_length_b                   6.1729(5)
_cell_length_c                   13.3347(12)
_cell_angle_alpha                90
_cell_angle_beta                 90.752(8)
_cell_angle_gamma                90
_cell_volume                     934.848
_exptl_crystal_colour            colorless
_exptl_crystal_description       block
_cell_formula_units_Z            2
loop_
_atom_site_label
_atom_site_type_symbol
_atom_site_fract_x
_atom_site_fract_y
_atom_site_fract_z
P1 P 0.77757(7) 0.11525(17) 0.81488(6)
N1 N 0.8874(2) 0.2849(5) 0.8030(2)
H1 H 0.8700 0.4186 0.7925
B1 B 0.8199(5) -0.1809(8) 0.7926(3)
H2 H 0.8553 -0.1948 0.7279
H3 H 0.7506 -0.2699 0.7951
H4 H 0.8749 -0.2267 0.8436
C1 C 1.0128(3) 0.2289(7) 0.8084(2)
H5 H 1.0187 0.0710 0.8143
C2 C 1.0675(4) 0.3279(9) 0.9035(3)
H6 H 1.0595 0.4826 0.9012
H7 H 1.1495 0.2904 0.9075
H8 H 1.0279 0.2726 0.9613
C3 C 1.0730(3) 0.2959(7) 0.7113(3)
C4 C 1.0674(4) 0.1629(8) 0.6302(3)
H9 H 1.0294 0.0301 0.6359
C5 C 1.1167(4) 0.2192(12) 0.5389(4)
H10 H 1.1116 0.1245 0.4848
C6 C 1.1716(4) 0.4109(13) 0.5290(4)
H11 H 1.2055 0.4483 0.4683
C7 C 1.1774(4) 0.5496(11) 0.6079(4)
H12 H 1.2142 0.6832 0.6011
C8 C 1.1277(4) 0.4909(8) 0.6994(3)
H13 H 1.1321 0.5865 0.7532
C9 C 0.7118(3) 0.1496(6) 0.9374(2)
C10 C 0.6406(3) -0.0117(8) 0.9764(3)
H14 H 0.6256 -0.1356 0.9387
C11 C 0.5916(4) 0.0088(10) 1.0707(3)
H15 H 0.5410 -0.0974 1.0944
C12 C 0.6178(4) 0.1851(9) 1.1283(3)
H16 H 0.5881 0.1957 1.1928
C13 C 0.6874(4) 0.3462(9) 1.0918(3)
H17 H 0.7037 0.4674 1.1310
C14 C 0.7345(4) 0.3303(8) 0.9957(3)
H18 H 0.7812 0.4415 0.9710
C15 C 0.6660(3) 0.2121(6) 0.7268(2)
C16 C 0.5500(3) 0.1614(8) 0.7362(3)
H19 H 0.5266 0.0766 0.7901
C17 C 0.4656(4) 0.2328(10) 0.6675(3)
H20 H 0.3870 0.1946 0.6747
C18 C 0.4992(4) 0.3577(9) 0.5907(3)
H21 H 0.4428 0.4092 0.5454
C19 C 0.6154(4) 0.4105(10) 0.5778(3)
H22 H 0.6380 0.4940 0.5233
C20 C 0.6988(4) 0.3382(9) 0.6467(3)
H23 H 0.7775 0.3751 0.6388
loop_
_geom_bond_atom_site_label_1
_geom_bond_atom_site_label_2
_geom_bond_site_symmetry_1
_geom_bond_site_symmetry_2
P1 N1 1_555 1_555
N1 H1 1_555 1_555
B1 P1 1_555 1_555
H2 B1 1_555 1_555
H3 B1 1_555 1_555
H4 B1 1_555 1_555
C1 N1 1_555 1_555
H5 C1 1_555 1_555
C2 C1 1_555 1_555
H6 C2 1_555 1_555
H7 C2 1_555 1_555
H8 C2 1_555 1_555
C3 C1 1_555 1_555
C4 C3 1_555 1_555
H9 C4 1_555 1_555
C5 C4 1_555 1_555
H10 C5 1_555 1_555
C6 C5 1_555 1_555
H11 C6 1_555 1_555
C7 C6 1_555 1_555
H12 C7 1_555 1_555
C8 C3 1_555 1_555
H13 C8 1_555 1_555
C9 P1 1_555 1_555
C10 C9 1_555 1_555
H14 C10 1_555 1_555
C11 C10 1_555 1_555
H15 C11 1_555 1_555
C12 C11 1_555 1_555
H16 C12 1_555 1_555
C13 C12 1_555 1_555
H17 C13 1_555 1_555
C14 C9 1_555 1_555
H18 C14 1_555 1_555
C15 P1 1_555 1_555
C16 C15 1_555 1_555
H19 C16 1_555 1_555
C17 C16 1_555 1_555
H20 C17 1_555 1_555
C18 C17 1_555 1_555
H21 C18 1_555 1_555
C19 C18 1_555 1_555
H22 C19 1_555 1_555
C20 C15 1_555 1_555
H23 C20 1_555 1_555
C7 C8 1_555 1_555
C13 C14 1_555 1_555
C19 C20 1_555 1_555

#END
