
#######################################################################
#
#                 Cambridge Crystallographic Data Centre
#                                CCDC 
#
#######################################################################
#
# If this CIF has been generated from an entry in the Cambridge 
# Structural Database, then it will include bibliographic, chemical, 
# crystal, experimental, refinement or atomic coordinate data resulting 
# from the CCDC's data processing and validation procedures.
#
#######################################################################

data_NUGCUP
_chemical_formula_moiety         'C46 H34 N2 S2'
_chemical_name_systematic        
4,4'-(ethene-1,2-diyldithiene-5,2-diyl)bis(N,N-diphenylaniline)
_symmetry_cell_setting           triclinic
_symmetry_space_group_name_H-M   'P -1'
_symmetry_Int_Tables_number      2
_space_group_name_Hall           '-P 1'
loop_
_symmetry_equiv_pos_site_id
_symmetry_equiv_pos_as_xyz
1 x,y,z
2 -x,-y,-z
_cell_length_a                   10.2645(16)
_cell_length_b                   13.271(2)
_cell_length_c                   13.542(2)
_cell_angle_alpha                100.730(2)
_cell_angle_beta                 95.538(3)
_cell_angle_gamma                101.685(3)
_cell_volume                     1757.53
_exptl_crystal_colour            yellow
_exptl_crystal_description       block
_cell_formula_units_Z            2
loop_
_atom_site_label
_atom_site_type_symbol
_atom_site_fract_x
_atom_site_fract_y
_atom_site_fract_z
C1 C 1.4496(4) 1.0346(3) 0.3465(4)
C2 C 1.5329(5) 1.0999(4) 0.4294(4)
H1 H 1.4977 1.1233 0.4880
C3 C 1.6703(6) 1.1312(5) 0.4255(5)
H2 H 1.7264 1.1753 0.4816
C4 C 1.7222(5) 1.0973(4) 0.3400(5)
H3 H 1.8137 1.1177 0.3371
C5 C 1.6381(5) 1.0331(4) 0.2590(4)
H4 H 1.6732 1.0092 0.2005
C6 C 1.5031(5) 1.0028(4) 0.2615(4)
H5 H 1.4475 0.9600 0.2045
C7 C 1.2430(5) 1.0883(4) 0.3897(4)
C8 C 1.2543(6) 1.1760(4) 0.3459(5)
H6 H 1.3044 1.1808 0.2925
C9 C 1.1922(6) 1.2556(5) 0.3807(5)
H7 H 1.2026 1.3146 0.3519
C10 C 1.1147(6) 1.2486(5) 0.4577(6)
H8 H 1.0724 1.3023 0.4814
C11 C 1.1015(6) 1.1614(5) 0.4983(5)
H9 H 1.0483 1.1555 0.5496
C12 C 1.1647(6) 1.0813(4) 0.4657(4)
H10 H 1.1542 1.0228 0.4952
C13 C 1.2325(5) 0.9043(3) 0.3087(4)
C14 C 1.0914(5) 0.8877(4) 0.2798(4)
H11 H 1.0501 0.9444 0.2891
C15 C 1.0166(5) 0.7885(4) 0.2382(4)
H12 H 0.9243 0.7791 0.2217
C16 C 1.0730(4) 0.7009(3) 0.2196(3)
C17 C 1.2109(5) 0.7175(3) 0.2497(4)
H13 H 1.2524 0.6610 0.2394
C18 C 1.2873(5) 0.8177(3) 0.2951(4)
H14 H 1.3784 0.8260 0.3168
C19 C 0.9892(5) 0.5977(3) 0.1670(4)
C20 C 0.8873(5) 0.4079(4) 0.0951(4)
C21 C 0.8168(5) 0.4729(4) 0.0610(4)
H15 H 0.7384 0.4488 0.0148
C22 C 0.8719(5) 0.5803(4) 0.1013(4)
H16 H 0.8334 0.6340 0.0854
C23 C 0.8526(5) 0.2945(4) 0.0688(4)
H17 H 0.7851 0.2642 0.0143
C24 C 0.9053(5) 0.2289(4) 0.1127(4)
H18 H 0.9708 0.2594 0.1686
C25 C 0.8737(5) 0.1148(4) 0.0849(4)
C26 C 0.7715(4) -0.0725(3) 0.0007(4)
C27 C 0.8795(5) -0.0593(4) 0.0739(4)
H19 H 0.9126 -0.1151 0.0906
C28 C 0.9347(5) 0.0451(4) 0.1207(4)
H20 H 1.0074 0.0654 0.1722
C29 C 0.6910(4) -0.1715(3) -0.0654(3)
C30 C 0.7450(4) -0.2597(3) -0.0870(3)
H21 H 0.8319 -0.2572 -0.0582
C31 C 0.6705(4) -0.3512(3) -0.1510(4)
H22 H 0.7091 -0.4089 -0.1659
C32 C 0.5406(4) -0.3587(3) -0.1930(3)
C33 C 0.4858(5) -0.2710(4) -0.1715(4)
H23 H 0.3985 -0.2739 -0.1999
C34 C 0.5601(5) -0.1795(3) -0.1083(4)
H24 H 0.5214 -0.1217 -0.0941
C35 C 0.4514(4) -0.5510(3) -0.2332(4)
C36 C 0.4862(5) -0.5612(4) -0.1354(4)
H25 H 0.5239 -0.5009 -0.0858
C37 C 0.4672(5) -0.6571(4) -0.1087(4)
H26 H 0.4928 -0.6610 -0.0420
C38 C 0.4099(5) -0.7488(4) -0.1808(5)
H27 H 0.3956 -0.8143 -0.1632
C39 C 0.3755(6) -0.7397(4) -0.2774(5)
H28 H 0.3366 -0.8002 -0.3263
C40 C 0.3785(5) -0.4414(3) -0.3437(4)
C41 C 0.4286(5) -0.4094(4) -0.4265(4)
H29 H 0.5206 -0.3968 -0.4287
C42 C 0.3448(6) -0.3960(5) -0.5052(4)
H30 H 0.3807 -0.3741 -0.5602
C43 C 0.2097(6) -0.4143(5) -0.5045(5)
H31 H 0.1527 -0.4053 -0.5582
C44 C 0.1595(6) -0.4466(5) -0.4214(5)
H32 H 0.0674 -0.4587 -0.4195
C45 C 0.2401(5) -0.4609(5) -0.3434(4)
H33 H 0.2033 -0.4838 -0.2891
C46 C 0.3961(5) -0.6440(4) -0.3053(4)
H34 H 0.3732 -0.6410 -0.3727
N1 N 1.3067(4) 1.0065(3) 0.3522(3)
N2 N 0.4660(4) -0.4528(3) -0.2613(3)
S1 S 1.02760(11) 0.48071(9) 0.17901(10)
S2 S 0.74241(12) 0.04750(9) -0.01163(10)
loop_
_geom_bond_atom_site_label_1
_geom_bond_atom_site_label_2
_geom_bond_site_symmetry_1
_geom_bond_site_symmetry_2
C1 C2 1_555 1_555
C2 H1 1_555 1_555
C3 C2 1_555 1_555
H2 C3 1_555 1_555
C4 C3 1_555 1_555
H3 C4 1_555 1_555
C5 C4 1_555 1_555
H4 C5 1_555 1_555
C6 C1 1_555 1_555
H5 C6 1_555 1_555
C7 C8 1_555 1_555
C8 H6 1_555 1_555
C9 C8 1_555 1_555
H7 C9 1_555 1_555
C10 C9 1_555 1_555
H8 C10 1_555 1_555
C11 C10 1_555 1_555
H9 C11 1_555 1_555
C12 C7 1_555 1_555
H10 C12 1_555 1_555
C13 C14 1_555 1_555
C14 H11 1_555 1_555
C15 C14 1_555 1_555
H12 C15 1_555 1_555
C16 C15 1_555 1_555
C17 C16 1_555 1_555
H13 C17 1_555 1_555
C18 C13 1_555 1_555
H14 C18 1_555 1_555
C19 C16 1_555 1_555
C20 C21 1_555 1_555
C21 H15 1_555 1_555
C22 C19 1_555 1_555
H16 C22 1_555 1_555
C23 C20 1_555 1_555
H17 C23 1_555 1_555
C24 C23 1_555 1_555
H18 C24 1_555 1_555
C25 C24 1_555 1_555
C26 C27 1_555 1_555
C27 H19 1_555 1_555
C28 C25 1_555 1_555
H20 C28 1_555 1_555
C29 C26 1_555 1_555
C30 C29 1_555 1_555
H21 C30 1_555 1_555
C31 C30 1_555 1_555
H22 C31 1_555 1_555
C32 C31 1_555 1_555
C33 C32 1_555 1_555
H23 C33 1_555 1_555
C34 C29 1_555 1_555
H24 C34 1_555 1_555
C35 C36 1_555 1_555
C36 H25 1_555 1_555
C37 C36 1_555 1_555
H26 C37 1_555 1_555
C38 C37 1_555 1_555
H27 C38 1_555 1_555
C39 C38 1_555 1_555
H28 C39 1_555 1_555
C40 C41 1_555 1_555
C41 H29 1_555 1_555
C42 C41 1_555 1_555
H30 C42 1_555 1_555
C43 C42 1_555 1_555
H31 C43 1_555 1_555
C44 C43 1_555 1_555
H32 C44 1_555 1_555
C45 C40 1_555 1_555
H33 C45 1_555 1_555
C46 C35 1_555 1_555
H34 C46 1_555 1_555
N1 C1 1_555 1_555
N2 C32 1_555 1_555
S1 C19 1_555 1_555
S2 C25 1_555 1_555
C5 C6 1_555 1_555
C7 N1 1_555 1_555
C11 C12 1_555 1_555
C13 N1 1_555 1_555
C17 C18 1_555 1_555
C20 S1 1_555 1_555
C21 C22 1_555 1_555
C26 S2 1_555 1_555
C27 C28 1_555 1_555
C33 C34 1_555 1_555
C35 N2 1_555 1_555
C39 C46 1_555 1_555
C40 N2 1_555 1_555
C44 C45 1_555 1_555

#END
