
#######################################################################
#
#                 Cambridge Crystallographic Data Centre
#                                CCDC 
#
#######################################################################
#
# If this CIF has been generated from an entry in the Cambridge 
# Structural Database, then it will include bibliographic, chemical, 
# crystal, experimental, refinement or atomic coordinate data resulting 
# from the CCDC's data processing and validation procedures.
#
#######################################################################

data_NUGDIE
_chemical_formula_moiety         'C19 H30 B1 N1 O4 S1'
_chemical_name_systematic        
N-Butyl-N-(2-phenyl-2-(4,4,5,5-tetramethyl-1,3,2-dioxaborolan-2-yl)vinyl)methanesulfonamide
_symmetry_cell_setting           monoclinic
_symmetry_space_group_name_H-M   'P 21/c'
_symmetry_Int_Tables_number      14
_space_group_name_Hall           '-P 2ybc'
loop_
_symmetry_equiv_pos_site_id
_symmetry_equiv_pos_as_xyz
1 x,y,z
2 -x,1/2+y,1/2-z
3 -x,-y,-z
4 x,1/2-y,1/2+z
_cell_length_a                   6.2003(2)
_cell_length_b                   22.5362(7)
_cell_length_c                   14.7942(5)
_cell_angle_alpha                90
_cell_angle_beta                 90.599(2)
_cell_angle_gamma                90
_cell_volume                     2067.1
_exptl_crystal_colour            colorless
_exptl_crystal_description       block
_cell_formula_units_Z            4
loop_
_atom_site_label
_atom_site_type_symbol
_atom_site_fract_x
_atom_site_fract_y
_atom_site_fract_z
S1 S 0.24217(13) 0.61528(3) 0.30976(5)
O1 O 0.0446(3) 0.64110(9) 0.33662(14)
O2 O 0.2505(4) 0.55406(8) 0.28629(14)
O3 O 0.0718(2) 0.82726(6) 0.23014(10)
O4 O 0.2600(2) 0.86335(6) 0.11114(10)
N1 N 0.3287(4) 0.65297(8) 0.22092(15)
B1 B 0.2134(4) 0.81509(9) 0.16273(15)
C1 C 0.5618(8) 0.63386(19) 0.1883(3)
H1 H 0.6415 0.6686 0.1689
H2 H 0.6407 0.6154 0.2378
C2 C 0.5391(10) 0.5907(2) 0.1109(4)
H3 H 0.4412 0.6067 0.0656
H4 H 0.4800 0.5536 0.1326
C3 C 0.7682(15) 0.5794(7) 0.0679(9)
H5 H 0.8271 0.6161 0.0442
H6 H 0.8678 0.5636 0.1127
C4 C 0.7312(14) 0.5348(3) -0.0081(5)
H7 H 0.8625 0.5295 -0.0410
H8 H 0.6204 0.5492 -0.0482
H9 H 0.6874 0.4975 0.0171
C5 C 0.4344(6) 0.62681(13) 0.3950(2)
H10 H 0.3923 0.6059 0.4485
H11 H 0.4447 0.6685 0.4080
H12 H 0.5719 0.6124 0.3754
C6 C 0.1842(5) 0.91344(13) 0.31182(18)
H13 H 0.1445 0.8934 0.3665
H14 H 0.1644 0.9554 0.3192
H15 H 0.3328 0.9054 0.2989
C7 C -0.0584(4) 0.91845(11) 0.06992(17)
H16 H 0.0023 0.9247 0.0113
H17 H -0.1485 0.9515 0.0852
H18 H -0.1430 0.8828 0.0692
C8 C 0.7933(4) 0.76172(11) -0.00785(18)
H19 H 0.9325 0.7771 -0.0060
C9 C 0.5107(4) 0.71360(11) -0.08748(16)
H20 H 0.4579 0.6958 -0.1399
C10 C 0.2553(4) 0.96883(10) 0.1396(2)
H21 H 0.3013 0.9773 0.0792
H22 H 0.3793 0.9635 0.1781
H23 H 0.1701 1.0012 0.1616
C11 C -0.1909(4) 0.90385(10) 0.25457(19)
H24 H -0.2252 0.8884 0.3131
H25 H -0.2803 0.8851 0.2096
H26 H -0.2159 0.9459 0.2537
C12 C 0.7176(4) 0.73496(11) -0.08506(17)
H27 H 0.8057 0.7313 -0.1353
C13 C 0.6638(4) 0.76600(10) 0.06738(15)
H28 H 0.7183 0.7839 0.1194
C14 C 0.3791(4) 0.71830(9) -0.01248(15)
H29 H 0.2387 0.7039 -0.0154
C15 C 0.2630(4) 0.71176(9) 0.21029(15)
H30 H 0.1683 0.7251 0.2542
C16 C 0.0439(3) 0.89159(8) 0.23450(14)
C17 C 0.4548(3) 0.74426(8) 0.06709(13)
C18 C 0.1214(3) 0.91264(8) 0.13933(15)
C19 C 0.3129(3) 0.75241(8) 0.14751(13)
C20? C 0.4011(12) 0.6152(3) 0.1418(4)
H31? H 0.3421 0.5754 0.1446
H32? H 0.3623 0.6331 0.0843
C21? C 0.6419(13) 0.6155(5) 0.1576(6)
H33? H 0.6828 0.5936 0.2116
H34? H 0.6996 0.6554 0.1608
C22? C 0.712(2) 0.5825(10) 0.0690(10)
H35? H 0.6552 0.5424 0.0677
H36? H 0.6605 0.6036 0.0158
C23? C 0.9532(17) 0.5820(6) 0.0730(8)
H37? H 1.0082 0.5651 0.0184
H38? H 1.0007 0.5588 0.1238
H39? H 1.0055 0.6219 0.0794
loop_
_geom_bond_atom_site_label_1
_geom_bond_atom_site_label_2
_geom_bond_site_symmetry_1
_geom_bond_site_symmetry_2
S1 O1 1_555 1_555
O2 S1 1_555 1_555
O3 B1 1_555 1_555
O4 B1 1_555 1_555
N1 S1 1_555 1_555
B1 C19 1_555 1_555
C1 N1 1_555 1_555
H1 C1 1_555 1_555
H2 C1 1_555 1_555
C2 C1 1_555 1_555
H3 C2 1_555 1_555
H4 C2 1_555 1_555
C3 C2 1_555 1_555
H5 C3 1_555 1_555
H6 C3 1_555 1_555
C4 C3 1_555 1_555
H7 C4 1_555 1_555
H8 C4 1_555 1_555
H9 C4 1_555 1_555
C5 S1 1_555 1_555
H10 C5 1_555 1_555
H11 C5 1_555 1_555
H12 C5 1_555 1_555
C6 H13 1_555 1_555
H14 C6 1_555 1_555
H15 C6 1_555 1_555
C7 H16 1_555 1_555
H17 C7 1_555 1_555
H18 C7 1_555 1_555
C8 H19 1_555 1_555
C9 H20 1_555 1_555
C10 H21 1_555 1_555
H22 C10 1_555 1_555
H23 C10 1_555 1_555
C11 H24 1_555 1_555
H25 C11 1_555 1_555
H26 C11 1_555 1_555
C12 C8 1_555 1_555
H27 C12 1_555 1_555
C13 C8 1_555 1_555
H28 C13 1_555 1_555
C14 C9 1_555 1_555
H29 C14 1_555 1_555
C15 N1 1_555 1_555
H30 C15 1_555 1_555
C16 O3 1_555 1_555
C17 C13 1_555 1_555
C18 O4 1_555 1_555
C19 C15 1_555 1_555
C6 C16 1_555 1_555
C7 C18 1_555 1_555
C9 C12 1_555 1_555
C10 C18 1_555 1_555
C11 C16 1_555 1_555
C14 C17 1_555 1_555
C16 C18 1_555 1_555
C17 C19 1_555 1_555

#END
