
#######################################################################
#
#                 Cambridge Crystallographic Data Centre
#                                CCDC 
#
#######################################################################
#
# If this CIF has been generated from an entry in the Cambridge 
# Structural Database, then it will include bibliographic, chemical, 
# crystal, experimental, refinement or atomic coordinate data resulting 
# from the CCDC's data processing and validation procedures.
#
#######################################################################

data_NUGPEM
_chemical_formula_moiety         'C17 H17 N5 O3 S1'
_chemical_name_systematic        
2-(Ethyl(4-((6-nitro-1,3-benzothiazol-2-yl)diazenyl)phenyl)amino)ethanol
_symmetry_cell_setting           triclinic
_symmetry_space_group_name_H-M   'P -1'
_symmetry_Int_Tables_number      2
_space_group_name_Hall           '-P 1'
loop_
_symmetry_equiv_pos_site_id
_symmetry_equiv_pos_as_xyz
1 x,y,z
2 -x,-y,-z
_cell_length_a                   12.5549(16)
_cell_length_b                   12.5615(16)
_cell_length_c                   13.2468(16)
_cell_angle_alpha                106.550(2)
_cell_angle_beta                 114.318(2)
_cell_angle_gamma                98.108(2)
_cell_volume                     1743.27
_exptl_crystal_colour            purple
_exptl_crystal_description       block
_cell_formula_units_Z            4
loop_
_atom_site_label
_atom_site_type_symbol
_atom_site_fract_x
_atom_site_fract_y
_atom_site_fract_z
C1 C -0.3740(4) 0.3777(4) 0.1466(4)
C2 C -0.2853(4) 0.3361(4) 0.2136(4)
H1 H -0.3052 0.2651 0.2203
C3 C -0.1648(4) 0.4057(4) 0.2703(3)
C4 C -0.1360(4) 0.5136(4) 0.2601(4)
C5 C -0.2302(5) 0.5510(4) 0.1920(4)
H2 H -0.2123 0.6222 0.1852
C6 C -0.3475(5) 0.4831(5) 0.1360(4)
H3 H -0.4104 0.5076 0.0904
C7 C 0.0505(4) 0.5141(4) 0.3733(4)
C8 C 0.3493(4) 0.5304(4) 0.5549(4)
C9 C 0.4072(4) 0.4650(4) 0.6165(4)
H4 H 0.3604 0.3969 0.6104
C10 C 0.5299(5) 0.4983(5) 0.6849(5)
H5 H 0.5652 0.4522 0.7248
C11 C 0.6052(5) 0.5990(5) 0.6977(5)
C12 C 0.5456(5) 0.6661(5) 0.6348(5)
H6 H 0.5924 0.7345 0.6414
C13 C 0.4233(5) 0.6331(4) 0.5662(4)
H7 H 0.3873 0.6786 0.5258
C14 C 0.8077(6) 0.7383(6) 0.7633(6)
H8 H 0.7667 0.7439 0.6857
H9 H 0.8781 0.7134 0.7659
C15 C 0.8215(6) 0.8444(7) 0.8508(7)
H10 H 0.8298 0.8339 0.9224
H11 H 0.7539 0.8746 0.8208
C16 C 0.8002(7) 0.5529(8) 0.8126(7)
H12 H 0.7582 0.4712 0.7631
H13 H 0.8828 0.5719 0.8234
C17 C 0.7980(6) 0.5841(8) 0.9193(7)
H14 H 0.8433 0.6649 0.9640
H15 H 0.8344 0.5392 0.9643
H16 H 0.7149 0.5733 0.9044
N1 N -0.5014(4) 0.3052(5) 0.0842(4)
N2 N -0.0135(3) 0.5721(3) 0.3180(3)
N3 N 0.1754(3) 0.5585(3) 0.4388(3)
N4 N 0.2243(3) 0.4913(3) 0.4886(3)
N5 N 0.7279(5) 0.6330(5) 0.7627(5)
O1 O -0.5239(4) 0.2173(4) 0.1023(4)
O2 O -0.5791(3) 0.3365(4) 0.0160(3)
O3 O 0.9243(7) 0.9129(6) 0.8707(7)
H17 H 0.9418 0.9797 0.9229
S1 S -0.03235(10) 0.38008(9) 0.35826(10)
C18 C 1.3336(4) 0.9432(4) 0.7264(5)
C19 C 1.2332(4) 0.8910(4) 0.6156(4)
H19 H 1.2403 0.8555 0.5477
C20 C 1.1200(4) 0.8933(4) 0.6086(4)
C21 C 1.1100(4) 0.9453(4) 0.7105(4)
C22 C 1.2166(5) 0.9967(5) 0.8218(5)
H20 H 1.2117 1.0326 0.8909
C23 C 1.3266(5) 0.9940(4) 0.8283(5)
H21 H 1.3972 1.0266 0.9021
C24 C 0.9161(4) 0.8899(4) 0.5774(4)
C25 C 0.6115(4) 0.8169(4) 0.3651(4)
C26 C 0.5430(5) 0.8474(5) 0.4231(4)
H22 H 0.5815 0.8790 0.5064
C27 C 0.4217(5) 0.8320(7) 0.3607(5)
H23 H 0.3778 0.8507 0.4018
C28 C 0.3597(5) 0.7877(7) 0.2329(4)
C29 C 0.4282(4) 0.7542(4) 0.1762(4)
H24 H 0.3899 0.7206 0.0931
C30 C 0.5493(4) 0.7694(4) 0.2396(4)
H25 H 0.5926 0.7478 0.1987
C31 C 0.1798(8) 0.8693(11) 0.2314(7)
H26 H 0.2433 0.9310 0.3048
H27 H 0.1349 0.9034 0.1764
C32 C 0.1076(6) 0.8066(6) 0.2602(6)
H28 H 0.0576 0.8513 0.2813
H29 H 0.0422 0.7282 0.1773
C33 C 0.1739(5) 0.7334(7) 0.0384(5)
H30 H 0.2030 0.6708 0.0072
H31 H 0.0876 0.7015 0.0118
C34 C 0.1880(6) 0.8235(7) -0.0085(5)
H32 H 0.1559 0.8834 0.0203
H33 H 0.1441 0.7901 -0.0945
H34 H 0.2731 0.8564 0.0177
N6 N 1.4543(4) 0.9433(5) 0.7346(6)
N7 N 0.9927(4) 0.9415(4) 0.6906(3)
N8 N 0.7923(4) 0.8785(4) 0.5340(3)
N9 N 0.7345(3) 0.8319(3) 0.4189(3)
N10 N 0.2438(6) 0.8068(7) 0.1744(5)
O5 O 1.5424(4) 0.9821(5) 0.8352(5)
O6 O 1.4611(4) 0.9070(5) 0.6428(5)
O7 O 0.1627(6) 0.7675(7) 0.3463(6)
H35 H 0.1375 0.6936 0.3167
S2 S 0.97692(11) 0.83884(10) 0.48333(10)
O4? O 0.9059(10) 0.8718(9) 0.9609(9)
H18? H 0.9047 0.9357 1.0043
C35? C 0.1482(11) 0.7112(10) 0.2195(11)
H36? H 0.0831 0.6429 0.1554
H37? H 0.1971 0.6912 0.2860
N11? N 0.2299(9) 0.7176(11) 0.1635(10)
O8? O 0.0382(9) 0.8408(9) 0.1672(7)
H38? H 0.0162 0.8977 0.1965
loop_
_geom_bond_atom_site_label_1
_geom_bond_atom_site_label_2
_geom_bond_site_symmetry_1
_geom_bond_site_symmetry_2
C1 C2 1_555 1_555
C2 H1 1_555 1_555
C3 C2 1_555 1_555
C4 C3 1_555 1_555
C5 C4 1_555 1_555
H2 C5 1_555 1_555
C6 C1 1_555 1_555
H3 C6 1_555 1_555
C7 N2 1_555 1_555
C8 C9 1_555 1_555
C9 H4 1_555 1_555
C10 C9 1_555 1_555
H5 C10 1_555 1_555
C11 C10 1_555 1_555
C12 C11 1_555 1_555
H6 C12 1_555 1_555
C13 C8 1_555 1_555
H7 C13 1_555 1_555
C14 H8 1_555 1_555
H9 C14 1_555 1_555
C15 C14 1_555 1_555
H10 C15 1_555 1_555
H11 C15 1_555 1_555
C16 H12 1_555 1_555
H13 C16 1_555 1_555
C17 C16 1_555 1_555
H14 C17 1_555 1_555
H15 C17 1_555 1_555
H16 C17 1_555 1_555
N1 C1 1_555 1_555
N2 C4 1_555 1_555
N3 C7 1_555 1_555
N4 C8 1_555 1_555
N5 C11 1_555 1_555
O1 N1 1_555 1_555
O2 N1 1_555 1_555
O3 C15 1_555 1_555
H17 O3 1_555 1_555
S1 C3 1_555 1_555
C18 C19 1_555 1_555
C19 H19 1_555 1_555
C20 C19 1_555 1_555
C21 C20 1_555 1_555
C22 C21 1_555 1_555
H20 C22 1_555 1_555
C23 C18 1_555 1_555
H21 C23 1_555 1_555
C24 N7 1_555 1_555
C25 C26 1_555 1_555
C26 H22 1_555 1_555
C27 C26 1_555 1_555
H23 C27 1_555 1_555
C28 C27 1_555 1_555
C29 C28 1_555 1_555
H24 C29 1_555 1_555
C30 C25 1_555 1_555
H25 C30 1_555 1_555
C31 H26 1_555 1_555
H27 C31 1_555 1_555
C32 C31 1_555 1_555
H28 C32 1_555 1_555
H29 C32 1_555 1_555
C33 H30 1_555 1_555
H31 C33 1_555 1_555
C34 C33 1_555 1_555
H32 C34 1_555 1_555
H33 C34 1_555 1_555
H34 C34 1_555 1_555
N6 C18 1_555 1_555
N7 C21 1_555 1_555
N8 C24 1_555 1_555
N9 C25 1_555 1_555
N10 C28 1_555 1_555
O5 N6 1_555 1_555
O6 N6 1_555 1_555
O7 C32 1_555 1_555
H35 O7 1_555 1_555
S2 C20 1_555 1_555
C5 C6 1_555 1_555
C7 S1 1_555 1_555
C12 C13 1_555 1_555
C14 N5 1_555 1_555
C16 N5 1_555 1_555
N3 N4 1_555 1_555
C22 C23 1_555 1_555
C24 S2 1_555 1_555
C29 C30 1_555 1_555
C31 N10 1_555 1_555
C33 N10 1_555 1_555
N8 N9 1_555 1_555

#END
