
#######################################################################
#
#                 Cambridge Crystallographic Data Centre
#                                CCDC 
#
#######################################################################
#
# If this CIF has been generated from an entry in the Cambridge 
# Structural Database, then it will include bibliographic, chemical, 
# crystal, experimental, refinement or atomic coordinate data resulting 
# from the CCDC's data processing and validation procedures.
#
#######################################################################

data_NUGPAI
_chemical_formula_moiety         'C17 H17 N5 O3 S1'
_chemical_name_systematic        
2-(Ethyl(4-((5-nitro-2,1-benzothiazol-3-yl)diazenyl)phenyl)amino)ethanol
_symmetry_cell_setting           triclinic
_symmetry_space_group_name_H-M   'P -1'
_symmetry_Int_Tables_number      2
_space_group_name_Hall           '-P 1'
loop_
_symmetry_equiv_pos_site_id
_symmetry_equiv_pos_as_xyz
1 x,y,z
2 -x,-y,-z
_cell_length_a                   8.1230(12)
_cell_length_b                   9.4647(14)
_cell_length_c                   11.9659(17)
_cell_angle_alpha                76.530(2)
_cell_angle_beta                 79.485(2)
_cell_angle_gamma                73.445(2)
_cell_volume                     850.887
_exptl_crystal_colour            blue
_exptl_crystal_description       block
_cell_formula_units_Z            2
loop_
_atom_site_label
_atom_site_type_symbol
_atom_site_fract_x
_atom_site_fract_y
_atom_site_fract_z
C1 C -0.1987(5) 1.0266(5) 0.9406(3)
C2 C -0.1038(5) 0.9726(4) 0.8458(3)
H1 H -0.1016 0.8783 0.8340
C3 C -0.0101(4) 1.0649(4) 0.7671(3)
C4 C -0.0164(5) 1.2091(4) 0.7877(3)
C5 C -0.1165(6) 1.2586(5) 0.8872(4)
H2 H -0.1208 1.3523 0.9012
C6 C -0.2052(6) 1.1690(5) 0.9611(4)
H3 H -0.2719 1.2010 1.0268
C7 C 0.0967(4) 1.0397(4) 0.6651(3)
C8 C 0.2846(4) 0.8086(4) 0.4648(3)
C9 C 0.2352(5) 0.6724(4) 0.5019(3)
H4 H 0.1613 0.6583 0.5704
C10 C 0.2935(5) 0.5617(4) 0.4395(3)
H5 H 0.2596 0.4726 0.4665
C11 C 0.4054(4) 0.5784(4) 0.3336(3)
C12 C 0.4533(5) 0.7149(4) 0.2970(3)
H6 H 0.5265 0.7301 0.2283
C13 C 0.3934(5) 0.8262(4) 0.3610(3)
H7 H 0.4264 0.9158 0.3345
C14 C 0.5672(5) 0.4913(5) 0.1586(3)
H8 H 0.5289 0.5947 0.1193
H9 H 0.5512 0.4269 0.1114
C15 C 0.7573(6) 0.4567(6) 0.1694(4)
H10 H 0.8225 0.4724 0.0941
H11 H 0.7729 0.5218 0.2147
H12 H 0.7963 0.3539 0.2072
C16 C 0.4210(6) 0.3224(5) 0.3103(4)
H13 H 0.4182 0.2941 0.3938
H14 H 0.5116 0.2472 0.2764
C17 C 0.2492(7) 0.3222(6) 0.2783(5)
H15 H 0.1584 0.3918 0.3161
H16 H 0.2306 0.2233 0.3033
N1 N -0.2938(5) 0.9332(5) 1.0252(3)
N2 N 0.0794(5) 1.2900(4) 0.7085(3)
N3 N 0.1349(4) 0.9129(3) 0.6173(2)
N4 N 0.2345(4) 0.9279(3) 0.5208(2)
N5 N 0.4625(4) 0.4685(4) 0.2708(3)
O1 O -0.2894(5) 0.8092(5) 1.0087(3)
O2 O -0.3748(5) 0.9805(5) 1.1108(3)
O3 O 0.245(3) 0.3525(19) 0.1587(9)
H17 H 0.1413 0.4257 0.1375
S1 S 0.17682(14) 1.19293(12) 0.60760(9)
C18? C 0.5672(5) 0.4913(5) 0.1586(3)
H18? H 0.5292 0.5938 0.1190
H19? H 0.5516 0.4260 0.1111
C19? C 0.7573(6) 0.4567(6) 0.1694(4)
H20? H 0.7962 0.3537 0.2069
H21? H 0.7727 0.5216 0.2144
O4? O 0.8587(10) 0.4739(10) 0.0647(6)
H22? H 0.9759 0.4336 0.0819
loop_
_geom_bond_atom_site_label_1
_geom_bond_atom_site_label_2
_geom_bond_site_symmetry_1
_geom_bond_site_symmetry_2
C1 C2 1_555 1_555
C2 H1 1_555 1_555
C3 C2 1_555 1_555
C4 C3 1_555 1_555
C5 C4 1_555 1_555
H2 C5 1_555 1_555
C6 C1 1_555 1_555
H3 C6 1_555 1_555
C7 C3 1_555 1_555
C8 C9 1_555 1_555
C9 H4 1_555 1_555
C10 C9 1_555 1_555
H5 C10 1_555 1_555
C11 C10 1_555 1_555
C12 C11 1_555 1_555
H6 C12 1_555 1_555
C13 C8 1_555 1_555
H7 C13 1_555 1_555
C14 H8 1_555 1_555
H9 C14 1_555 1_555
C15 C14 1_555 1_555
H10 C15 1_555 1_555
H11 C15 1_555 1_555
H12 C15 1_555 1_555
C16 H13 1_555 1_555
H14 C16 1_555 1_555
C17 C16 1_555 1_555
H15 C17 1_555 1_555
H16 C17 1_555 1_555
N1 C1 1_555 1_555
N2 C4 1_555 1_555
N3 C7 1_555 1_555
N4 C8 1_555 1_555
N5 C11 1_555 1_555
O1 N1 1_555 1_555
O2 N1 1_555 1_555
O3 C17 1_555 1_555
H17 O3 1_555 1_555
S1 C7 1_555 1_555
C5 C6 1_555 1_555
C12 C13 1_555 1_555
C14 N5 1_555 1_555
C16 N5 1_555 1_555
N2 S1 1_555 1_555
N3 N4 1_555 1_555

#END
