
#######################################################################
#
#                 Cambridge Crystallographic Data Centre
#                                CCDC 
#
#######################################################################
#
# If this CIF has been generated from an entry in the Cambridge 
# Structural Database, then it will include bibliographic, chemical, 
# crystal, experimental, refinement or atomic coordinate data resulting 
# from the CCDC's data processing and validation procedures.
#
#######################################################################

data_NUHCOJ
_chemical_formula_moiety         'C16 H14 O4,C4 H8 O1'
_chemical_name_systematic        
'(R,R)-2,3-Diphenylsuccinic acid tetrahydrofuran clathrate'
_symmetry_cell_setting           orthorhombic
_symmetry_space_group_name_H-M   'P 21 21 21'
_symmetry_Int_Tables_number      19
_space_group_name_Hall           'P 2ac 2ab'
loop_
_symmetry_equiv_pos_site_id
_symmetry_equiv_pos_as_xyz
1 x,y,z
2 1/2-x,-y,1/2+z
3 -x,1/2+y,1/2-z
4 1/2+x,1/2-y,-z
_cell_length_a                   9.5545(2)
_cell_length_b                   10.2040(2)
_cell_length_c                   36.9589(7)
_cell_angle_alpha                90
_cell_angle_beta                 90
_cell_angle_gamma                90
_cell_volume                     3603.28
_exptl_crystal_colour            colorless
_exptl_crystal_description       block
_cell_formula_units_Z            8
loop_
_atom_site_label
_atom_site_type_symbol
_atom_site_fract_x
_atom_site_fract_y
_atom_site_fract_z
C1 C 0.2500(3) 0.0512(3) 0.89192(7)
C2 C 0.2251(3) 0.0431(3) 0.93251(7)
H1 H 0.1300 0.0098 0.9363
C3 C 0.3268(3) -0.0580(3) 0.94762(7)
C4 C 0.4661(3) -0.0271(3) 0.95388(8)
H2 H 0.4978 0.0577 0.9496
C5 C 0.5582(4) -0.1214(3) 0.96646(9)
H3 H 0.6514 -0.0998 0.9706
C6 C 0.5119(4) -0.2478(3) 0.97295(8)
H4 H 0.5738 -0.3111 0.9814
C7 C 0.3735(4) -0.2795(3) 0.96683(7)
H5 H 0.3418 -0.3642 0.9713
C8 C 0.2820(3) -0.1854(3) 0.95405(7)
H6 H 0.1892 -0.2077 0.9497
C9 C 0.1421(3) 0.2776(3) 0.93430(7)
C10 C 0.2362(3) 0.1763(3) 0.95177(7)
H7 H 0.3331 0.2068 0.9499
C11 C 0.1979(3) 0.1665(3) 0.99203(7)
C12 C 0.0852(3) 0.0973(3) 1.00436(8)
H8 H 0.0324 0.0487 0.9880
C13 C 0.0478(4) 0.0978(3) 1.04053(8)
H9 H -0.0300 0.0507 1.0482
C14 C 0.1241(4) 0.1668(4) 1.06490(8)
H10 H 0.1000 0.1655 1.0893
C15 C 0.2377(4) 0.2389(6) 1.05326(9)
H11 H 0.2894 0.2881 1.0697
C16 C 0.2747(4) 0.2378(5) 1.01688(9)
H12 H 0.3520 0.2855 1.0092
O1 O 0.3258(2) 0.14002(19) 0.87906(5)
O2 O 0.1939(2) -0.0399(2) 0.87363(5)
O3 O 0.1753(2) 0.3977(2) 0.94518(6)
O4 O 0.0501(2) 0.2531(2) 0.91313(6)
H13 H 0.118(4) 0.458(4) 0.9377(9)
H14 H 0.230(6) -0.039(6) 0.8467(16)
C17 C 0.3056(3) 0.0480(2) 0.78971(6)
C18 C 0.3234(3) 0.0456(2) 0.74915(6)
H15 H 0.3470 -0.0443 0.7421
C19 C 0.1829(3) 0.0786(2) 0.73249(6)
C20 C 0.1016(3) -0.0216(3) 0.71762(7)
H16 H 0.1379 -0.1060 0.7162
C21 C -0.0329(3) 0.0027(3) 0.70483(7)
H17 H -0.0861 -0.0655 0.6953
C22 C -0.0875(3) 0.1281(3) 0.70620(7)
H18 H -0.1772 0.1449 0.6976
C23 C -0.0074(3) 0.2281(3) 0.72046(7)
H19 H -0.0434 0.3128 0.7214
C24 C 0.1264(3) 0.2036(3) 0.73346(7)
H20 H 0.1790 0.2722 0.7430
C25 C 0.5717(3) 0.1077(2) 0.76049(6)
C26 C 0.4447(3) 0.1350(2) 0.73701(6)
H21 H 0.4166 0.2266 0.7403
C27 C 0.4879(3) 0.1146(2) 0.69767(6)
C28 C 0.5293(3) -0.0087(3) 0.68530(7)
H22 H 0.5229 -0.0810 0.7005
C29 C 0.5801(3) -0.0240(3) 0.65020(7)
H23 H 0.6087 -0.1061 0.6422
C30 C 0.5882(3) 0.0829(3) 0.62737(7)
H24 H 0.6229 0.0728 0.6040
C31 C 0.5445(3) 0.2051(3) 0.63920(7)
H25 H 0.5480 0.2767 0.6236
O5 O 0.3424(2) 0.15075(18) 0.80706(5)
O6 O 0.2522(2) -0.05077(17) 0.80473(5)
O7 O 0.6489(2) 0.21290(17) 0.76601(5)
O8 O 0.5994(2) 0.00032(17) 0.77246(5)
C32 C 0.4954(3) 0.2208(3) 0.67436(7)
H26 H 0.4675 0.3032 0.6823
H27 H 0.325(6) 0.149(6) 0.8387(17)
H28 H 0.719(5) 0.188(4) 0.7819(11)
C33 C 0.8859(4) 0.6136(4) 0.93896(9)
H29 H 0.8904 0.6803 0.9576
H30 H 0.8502 0.5334 0.9496
C34 C 0.7936(4) 0.6576(4) 0.90845(8)
H31 H 0.7934 0.7523 0.9064
H32 H 0.6983 0.6272 0.9118
C35 C 0.8596(3) 0.5950(3) 0.87574(8)
H33 H 0.8299 0.5046 0.8730
H34 H 0.8376 0.6431 0.8538
C36 C 1.0122(4) 0.6038(4) 0.88467(8)
H35 H 1.0637 0.5336 0.8730
H36 H 1.0504 0.6870 0.8767
O9 O 1.0213(2) 0.59213(19) 0.92355(5)
O10 O 0.8345(2) 0.17584(18) 0.81618(5)
C37 C 0.7615(5) 0.1783(4) 0.85004(9)
H37 H 0.6657 0.2068 0.8465
H38 H 0.8068 0.2385 0.8666
C38 C 0.8496(4) -0.0345(4) 0.84139(10)
H39 H 0.7927 -0.0990 0.8289
H40 H 0.9208 -0.0796 0.8554
C39 C 0.9146(4) 0.0580(4) 0.81519(10)
H41 H 1.0109 0.0755 0.8219
H42 H 0.9134 0.0209 0.7910
C40 C 0.7641(9) 0.0473(5) 0.86454(14)
H43 H 0.6697 0.0125 0.8657
H44 H 0.8024 0.0483 0.8888
loop_
_geom_bond_atom_site_label_1
_geom_bond_atom_site_label_2
_geom_bond_site_symmetry_1
_geom_bond_site_symmetry_2
C1 C2 1_555 1_555
C2 H1 1_555 1_555
C3 C2 1_555 1_555
C4 C3 1_555 1_555
H2 C4 1_555 1_555
C5 C4 1_555 1_555
H3 C5 1_555 1_555
C6 C5 1_555 1_555
H4 C6 1_555 1_555
C7 C6 1_555 1_555
H5 C7 1_555 1_555
C8 C3 1_555 1_555
H6 C8 1_555 1_555
C9 C10 1_555 1_555
C10 C2 1_555 1_555
H7 C10 1_555 1_555
C11 C10 1_555 1_555
C12 C11 1_555 1_555
H8 C12 1_555 1_555
C13 C12 1_555 1_555
H9 C13 1_555 1_555
C14 C13 1_555 1_555
H10 C14 1_555 1_555
C15 C14 1_555 1_555
H11 C15 1_555 1_555
C16 C11 1_555 1_555
H12 C16 1_555 1_555
O1 C1 1_555 1_555
O2 C1 1_555 1_555
O3 C9 1_555 1_555
O4 C9 1_555 1_555
H13 O3 1_555 1_555
H14 O2 1_555 1_555
C17 C18 1_555 1_555
C18 H15 1_555 1_555
C19 C18 1_555 1_555
C20 C19 1_555 1_555
H16 C20 1_555 1_555
C21 C20 1_555 1_555
H17 C21 1_555 1_555
C22 C21 1_555 1_555
H18 C22 1_555 1_555
C23 C22 1_555 1_555
H19 C23 1_555 1_555
C24 C19 1_555 1_555
H20 C24 1_555 1_555
C25 C26 1_555 1_555
C26 C18 1_555 1_555
H21 C26 1_555 1_555
C27 C26 1_555 1_555
C28 C27 1_555 1_555
H22 C28 1_555 1_555
C29 C28 1_555 1_555
H23 C29 1_555 1_555
C30 C29 1_555 1_555
H24 C30 1_555 1_555
C31 C30 1_555 1_555
H25 C31 1_555 1_555
O5 C17 1_555 1_555
O6 C17 1_555 1_555
O7 C25 1_555 1_555
O8 C25 1_555 1_555
C32 C27 1_555 1_555
H26 C32 1_555 1_555
H27 O5 1_555 1_555
H28 O7 1_555 1_555
C33 H29 1_555 1_555
H30 C33 1_555 1_555
C34 C33 1_555 1_555
H31 C34 1_555 1_555
H32 C34 1_555 1_555
C35 C34 1_555 1_555
H33 C35 1_555 1_555
H34 C35 1_555 1_555
C36 C35 1_555 1_555
H35 C36 1_555 1_555
H36 C36 1_555 1_555
O9 C33 1_555 1_555
O10 C37 1_555 1_555
C37 H37 1_555 1_555
H38 C37 1_555 1_555
C38 H39 1_555 1_555
H40 C38 1_555 1_555
C39 O10 1_555 1_555
H41 C39 1_555 1_555
H42 C39 1_555 1_555
C40 C37 1_555 1_555
H43 C40 1_555 1_555
H44 C40 1_555 1_555
C7 C8 1_555 1_555
C15 C16 1_555 1_555
C23 C24 1_555 1_555
C31 C32 1_555 1_555
C36 O9 1_555 1_555
C38 C39 1_555 1_555
C38 C40 1_555 1_555

#END
