
#######################################################################
#
#                 Cambridge Crystallographic Data Centre
#                                CCDC 
#
#######################################################################
#
# If this CIF has been generated from an entry in the Cambridge 
# Structural Database, then it will include bibliographic, chemical, 
# crystal, experimental, refinement or atomic coordinate data resulting 
# from the CCDC's data processing and validation procedures.
#
#######################################################################

data_NUHCEZ
_chemical_formula_moiety         'C16 H14 O4,C4 H10 O1'
_chemical_name_systematic        
'(+-)-2,3-Diphenylsuccinic acid diethyl ether clathrate'
_symmetry_cell_setting           triclinic
_symmetry_space_group_name_H-M   'P -1'
_symmetry_Int_Tables_number      2
_space_group_name_Hall           '-P 1'
loop_
_symmetry_equiv_pos_site_id
_symmetry_equiv_pos_as_xyz
1 x,y,z
2 -x,-y,-z
_cell_length_a                   9.4617(7)
_cell_length_b                   10.3642(8)
_cell_length_c                   19.7932(15)
_cell_angle_alpha                91.369(2)
_cell_angle_beta                 94.8330(10)
_cell_angle_gamma                101.759(2)
_cell_volume                     1891.81
_exptl_crystal_colour            colorless
_exptl_crystal_description       block
_cell_formula_units_Z            4
loop_
_atom_site_label
_atom_site_type_symbol
_atom_site_fract_x
_atom_site_fract_y
_atom_site_fract_z
O1 O 1.0155(2) 0.66319(17) 0.49520(9)
O2 O 0.9309(2) 0.50988(19) 0.41286(10)
H1 H 0.949(3) 0.463(3) 0.4465(16)
O3 O 0.7943(2) 0.90602(19) 0.51505(9)
O4 O 0.7012(2) 0.71476(19) 0.45762(10)
H2 H 0.648(3) 0.704(3) 0.4888(16)
C1 C 0.9654(3) 0.6318(3) 0.43677(13)
C2 C 0.9380(3) 0.7303(2) 0.38392(13)
H5 H 0.8521 0.6879 0.3524
C3 C 1.0710(3) 0.7610(2) 0.34296(13)
C4 C 1.2060(3) 0.8203(3) 0.37352(14)
H6 H 1.2170 0.8466 0.4203
C5 C 1.3266(3) 0.8418(3) 0.33569(15)
H7 H 1.4198 0.8809 0.3570
C6 C 1.3097(3) 0.8062(3) 0.26762(15)
H8 H 1.3914 0.8201 0.2419
C7 C 1.1747(3) 0.7505(3) 0.23697(15)
H9 H 1.1631 0.7269 0.1898
C8 C 1.0556(3) 0.7284(3) 0.27427(13)
H10 H 0.9625 0.6906 0.2525
C9 C 0.7954(3) 0.8292(3) 0.46904(13)
C10 C 0.9060(3) 0.8552(2) 0.41638(12)
H11 H 0.9989 0.9058 0.4402
C11 C 0.8514(3) 0.9457(3) 0.36499(12)
C12 C 0.8937(3) 1.0803(3) 0.37662(14)
H12 H 0.9615 1.1144 0.4141
C13 C 0.8386(3) 1.1663(3) 0.33443(14)
H13 H 0.8675 1.2587 0.3438
C14 C 0.7420(3) 1.1191(3) 0.27894(14)
H14 H 0.7047 1.1784 0.2499
C15 C 0.7008(3) 0.9859(3) 0.26630(14)
H15 H 0.6356 0.9526 0.2278
C16 C 0.7534(3) 0.8985(3) 0.30931(14)
H16 H 0.7221 0.8061 0.3005
O5 O 0.4621(2) 0.66520(19) 0.02406(9)
O6 O 0.4982(3) 0.7909(2) 0.11968(10)
H3 H 0.543(4) 0.844(3) 0.0925(17)
O7 O 0.1358(2) 0.4030(2) -0.00843(10)
H4 H 0.062(4) 0.430(3) -0.0275(16)
O8 O 0.1125(2) 0.5564(2) 0.06868(9)
C17 C 0.4542(3) 0.6774(3) 0.08420(13)
C18 C 0.3978(3) 0.5652(2) 0.12907(12)
H17 H 0.3316 0.5955 0.1600
C19 C 0.5246(3) 0.5312(2) 0.17193(13)
C20 C 0.6400(3) 0.4982(3) 0.14140(15)
H18 H 0.6405 0.4982 0.0934
C21 C 0.7551(3) 0.4651(3) 0.18099(17)
H19 H 0.8348 0.4437 0.1602
C22 C 0.7528(4) 0.4637(3) 0.25081(17)
H20 H 0.8310 0.4406 0.2778
C23 C 0.6386(4) 0.4952(3) 0.28150(16)
H21 H 0.6374 0.4933 0.3294
C24 C 0.5250(3) 0.5297(3) 0.24197(13)
H22 H 0.4465 0.5526 0.2631
C25 C 0.1783(3) 0.4758(3) 0.04782(13)
C26 C 0.3116(3) 0.4442(3) 0.08596(12)
H23 H 0.3752 0.4191 0.0522
C27 C 0.2654(3) 0.3265(3) 0.12969(13)
C28 C 0.3275(4) 0.2171(3) 0.12493(17)
H24 H 0.3953 0.2138 0.0925
C29 C 0.2924(5) 0.1126(4) 0.1667(2)
H25 H 0.3371 0.0387 0.1634
C30 C 0.1931(5) 0.1157(4) 0.2129(2)
H26 H 0.1691 0.0439 0.2417
C31 C 0.1287(4) 0.2214(4) 0.21783(17)
H27 H 0.0585 0.2222 0.2493
C32 C 0.1655(3) 0.3282(3) 0.17676(15)
H28 H 0.1219 0.4025 0.1811
O9 O 0.5666(2) 0.67663(19) 0.57206(9)
C33 C 0.5209(4) 0.7916(3) 0.59552(16)
H29 H 0.6058 0.8650 0.6050
H30 H 0.4737 0.7735 0.6381
C34 C 0.4170(4) 0.8289(4) 0.54259(19)
H31 H 0.3854 0.9078 0.5584
H32 H 0.3327 0.7562 0.5337
H33 H 0.4645 0.8472 0.5007
C35 C 0.6751(4) 0.6400(3) 0.61808(16)
H34 H 0.6459 0.6416 0.6649
H35 H 0.7682 0.7037 0.6167
C36 C 0.6933(5) 0.5056(4) 0.5987(2)
H36 H 0.7679 0.4807 0.6302
H37 H 0.7229 0.5047 0.5525
H38 H 0.6013 0.4427 0.6007
O10 O 0.6991(3) -0.0366(2) 0.06224(14)
C37 C 0.8230(6) -0.0918(5) 0.0546(3)
H39 H 0.8993 -0.0237 0.0375
H40 H 0.7966 -0.1651 0.0199
C38 C 0.8821(5) -0.1409(5) 0.1161(2)
H41 H 0.9663 -0.1776 0.1066
H42 H 0.8082 -0.2098 0.1331
H43 H 0.9120 -0.0685 0.1504
C39 C 0.7234(11) 0.1026(9) 0.0792(8)
H44 H 0.7657 0.1153 0.1270
H45 H 0.6269 0.1259 0.0781
C40 C 0.815(2) 0.2024(14) 0.0398(11)
H46 H 0.9046 0.1733 0.0319
H47 H 0.8384 0.2872 0.0655
H48 H 0.7618 0.2123 -0.0038
C41? C 0.6937(9) 0.0783(7) 0.0321(7)
C42? C 0.789(2) 0.1902(11) 0.0639(10)
H49? H 0.5934 0.0930 0.0312
H50? H 0.7165 0.0699 -0.0155
H51? H 0.8711 0.1625 0.0891
H52? H 0.7377 0.2340 0.0954
H53? H 0.8256 0.2516 0.0294
loop_
_geom_bond_atom_site_label_1
_geom_bond_atom_site_label_2
_geom_bond_site_symmetry_1
_geom_bond_site_symmetry_2
O1 C1 1_555 1_555
O2 H1 1_555 1_555
O3 C9 1_555 1_555
O4 H2 1_555 1_555
O5 C17 1_555 1_555
O6 H3 1_555 1_555
O7 H4 1_555 1_555
O8 C25 1_555 1_555
C1 O2 1_555 1_555
C2 C1 1_555 1_555
H5 C2 1_555 1_555
C3 C2 1_555 1_555
C4 C3 1_555 1_555
H6 C4 1_555 1_555
C5 C4 1_555 1_555
H7 C5 1_555 1_555
C6 C5 1_555 1_555
H8 C6 1_555 1_555
C7 C6 1_555 1_555
H9 C7 1_555 1_555
C8 C3 1_555 1_555
H10 C8 1_555 1_555
C9 O4 1_555 1_555
C10 C2 1_555 1_555
H11 C10 1_555 1_555
C11 C10 1_555 1_555
C12 C11 1_555 1_555
H12 C12 1_555 1_555
C13 C12 1_555 1_555
H13 C13 1_555 1_555
C14 C13 1_555 1_555
H14 C14 1_555 1_555
C15 C14 1_555 1_555
H15 C15 1_555 1_555
C16 C11 1_555 1_555
H16 C16 1_555 1_555
C17 O6 1_555 1_555
C18 C17 1_555 1_555
H17 C18 1_555 1_555
C19 C18 1_555 1_555
C20 C19 1_555 1_555
H18 C20 1_555 1_555
C21 C20 1_555 1_555
H19 C21 1_555 1_555
C22 C21 1_555 1_555
H20 C22 1_555 1_555
C23 C22 1_555 1_555
H21 C23 1_555 1_555
C24 C19 1_555 1_555
H22 C24 1_555 1_555
C25 O7 1_555 1_555
C26 C18 1_555 1_555
H23 C26 1_555 1_555
C27 C26 1_555 1_555
C28 C27 1_555 1_555
H24 C28 1_555 1_555
C29 C28 1_555 1_555
H25 C29 1_555 1_555
C30 C29 1_555 1_555
H26 C30 1_555 1_555
C31 C30 1_555 1_555
H27 C31 1_555 1_555
C32 C27 1_555 1_555
H28 C32 1_555 1_555
O9 C33 1_555 1_555
C33 H29 1_555 1_555
H30 C33 1_555 1_555
C34 C33 1_555 1_555
H31 C34 1_555 1_555
H32 C34 1_555 1_555
H33 C34 1_555 1_555
C35 O9 1_555 1_555
H34 C35 1_555 1_555
H35 C35 1_555 1_555
C36 C35 1_555 1_555
H36 C36 1_555 1_555
H37 C36 1_555 1_555
H38 C36 1_555 1_555
O10 C37 1_555 1_555
C37 H39 1_555 1_555
H40 C37 1_555 1_555
C38 C37 1_555 1_555
H41 C38 1_555 1_555
H42 C38 1_555 1_555
H43 C38 1_555 1_555
C39 O10 1_555 1_555
H44 C39 1_555 1_555
H45 C39 1_555 1_555
C40 C39 1_555 1_555
H46 C40 1_555 1_555
H47 C40 1_555 1_555
H48 C40 1_555 1_555
C7 C8 1_555 1_555
C9 C10 1_555 1_555
C15 C16 1_555 1_555
C23 C24 1_555 1_555
C25 C26 1_555 1_555
C31 C32 1_555 1_555

#END
