
#######################################################################
#
#                 Cambridge Crystallographic Data Centre
#                                CCDC 
#
#######################################################################
#
# If this CIF has been generated from an entry in the Cambridge 
# Structural Database, then it will include bibliographic, chemical, 
# crystal, experimental, refinement or atomic coordinate data resulting 
# from the CCDC's data processing and validation procedures.
#
#######################################################################

data_NUJMAI
_chemical_formula_moiety         'C6 N14 O4 2-,2(H4 N1 1+),4(H2 O1)'
_chemical_name_systematic        
"bis(ammonium) 5,5'-(diazene-1,2-diyldi-1,2,5-oxadiazole-4,3-diyl)bis(1H-tetrazol-1-olate) tetrahydrate"
_symmetry_cell_setting           monoclinic
_symmetry_space_group_name_H-M   'P 21/c'
_symmetry_Int_Tables_number      14
_space_group_name_Hall           '-P 2ybc'
loop_
_symmetry_equiv_pos_site_id
_symmetry_equiv_pos_as_xyz
1 x,y,z
2 -x,1/2+y,1/2-z
3 -x,-y,-z
4 x,1/2-y,1/2+z
_cell_length_a                   9.0313(4)
_cell_length_b                   14.2222(7)
_cell_length_c                   6.9703(3)
_cell_angle_alpha                90
_cell_angle_beta                 91.761(2)
_cell_angle_gamma                90
_cell_volume                     894.877
_exptl_crystal_colour            yellow
_exptl_crystal_description       'square plate'
_cell_formula_units_Z            2
loop_
_atom_site_label
_atom_site_type_symbol
_atom_site_fract_x
_atom_site_fract_y
_atom_site_fract_z
O1 O 0.73503(11) 0.63519(7) 0.73192(14)
O2 O 0.65692(11) 0.93199(7) 0.74124(16)
N1 N 0.85132(12) 0.66239(8) 0.64110(16)
N2 N 0.95207(13) 0.60079(8) 0.58154(17)
N3 N 1.05618(13) 0.65080(8) 0.50200(18)
N4 N 1.02545(12) 0.74279(8) 0.51003(16)
N5 N 0.69112(13) 0.83725(8) 0.72186(18)
N6 N 0.76575(13) 0.98824(8) 0.67072(18)
N7 N 1.00170(12) 0.95864(8) 0.53071(16)
C1 C 0.89667(14) 0.74957(9) 0.59728(18)
C2 C 0.82009(14) 0.83603(9) 0.64167(18)
C3 C 0.86537(15) 0.93079(9) 0.60883(18)
O1B O 1.26497(11) 1.36481(7) 0.26808(14)
O2B O 1.34308(11) 1.06801(7) 0.25876(16)
N1B N 1.14868(12) 1.33761(8) 0.35890(16)
N2B N 1.04793(13) 1.39921(8) 0.41846(17)
N3B N 0.94382(13) 1.34920(8) 0.49800(18)
N4B N 0.97455(12) 1.25721(8) 0.48997(16)
N5B N 1.30888(13) 1.16275(8) 0.27814(18)
N6B N 1.23425(13) 1.01176(8) 0.32928(18)
N7B N 0.99830(12) 1.04136(8) 0.46929(16)
C1B C 1.10333(14) 1.25043(9) 0.40272(18)
C2B C 1.17991(14) 1.16397(9) 0.35833(18)
C3B C 1.13463(15) 1.06921(9) 0.39117(18)
N8 N 0.32417(15) 0.82625(9) 0.5102(2)
H1 H 0.367(2) 0.7769(17) 0.549(3)
H2 H 0.361(2) 0.8435(15) 0.403(4)
H3 H 0.330(2) 0.8702(17) 0.597(3)
H4 H 0.239(2) 0.8154(13) 0.500(3)
O3 O 0.44666(13) 0.65581(7) 0.63914(16)
H5 H 0.539(2) 0.6552(13) 0.653(3)
H6 H 0.416(3) 0.6113(18) 0.551(4)
O4 O 0.69386(12) 0.44341(8) 0.66179(15)
H7 H 0.776(2) 0.4207(13) 0.616(2)
H8 H 0.706(2) 0.5037(18) 0.680(3)
loop_
_geom_bond_atom_site_label_1
_geom_bond_atom_site_label_2
_geom_bond_site_symmetry_1
_geom_bond_site_symmetry_2
O1 N1 1_555 1_555
O2 N5 1_555 1_555
N1 N2 1_555 1_555
N2 N3 1_555 1_555
N3 N4 1_555 1_555
N4 C1 1_555 1_555
N5 C2 1_555 1_555
N6 O2 1_555 1_555
N7 C3 1_555 1_555
C1 N1 1_555 1_555
C2 C1 1_555 1_555
C3 N6 1_555 1_555
N8 H1 1_555 1_555
H2 N8 1_555 1_555
H3 N8 1_555 1_555
H4 N8 1_555 1_555
O3 H5 1_555 1_555
H6 O3 1_555 1_555
O4 H7 1_555 1_555
H8 O4 1_555 1_555
O1B N1B 1_555 1_555
O2B N5B 1_555 1_555
N1B N2B 1_555 1_555
N2B N3B 1_555 1_555
N3B N4B 1_555 1_555
N4B C1B 1_555 1_555
N5B C2B 1_555 1_555
N6B O2B 1_555 1_555
N7B N7 1_555 1_555
C1B N1B 1_555 1_555
C2B C1B 1_555 1_555
C3B N6B 1_555 1_555
C2 C3 1_555 1_555
N7B C3B 1_555 1_555
C2B C3B 1_555 1_555

#END
