
#######################################################################
#
#                 Cambridge Crystallographic Data Centre
#                                CCDC 
#
#######################################################################
#
# If this CIF has been generated from an entry in the Cambridge 
# Structural Database, then it will include bibliographic, chemical, 
# crystal, experimental, refinement or atomic coordinate data resulting 
# from the CCDC's data processing and validation procedures.
#
#######################################################################

data_NUMTUK
_chemical_name_common            Cedranediol
_chemical_formula_moiety         'C15 H26 O2'
_chemical_name_systematic        
(1R,2R,5S,7R,8R,9S)-2,6,6,8-Tetramethyltricyclo(5.3.1.0^1,5^)undecane-8,9-diol
_symmetry_cell_setting           trigonal
_symmetry_space_group_name_H-M   'P 31'
_symmetry_Int_Tables_number      144
_space_group_name_Hall           'P 31'
loop_
_symmetry_equiv_pos_site_id
_symmetry_equiv_pos_as_xyz
1 x,y,z
2 -y,x-y,1/3+z
3 -x+y,-x,2/3+z
_cell_length_a                   14.225(2)
_cell_length_b                   14.225(2)
_cell_length_c                   5.900(3)
_cell_angle_alpha                90
_cell_angle_beta                 90
_cell_angle_gamma                120
_cell_volume                     1033.92
_exptl_crystal_colour            colorless
_exptl_crystal_description       prismatic
_cell_formula_units_Z            3
loop_
_atom_site_label
_atom_site_type_symbol
_atom_site_fract_x
_atom_site_fract_y
_atom_site_fract_z
O1 O 0.4585(2) 0.6061(2) 0.5217
O2 O 0.3975(2) 0.6477(2) 0.0921
C1 C 0.6930(2) 0.7385(2) 0.1922(5)
C2 C 0.8012(2) 0.8478(3) 0.1720(6)
C3 C 0.8576(3) 0.8301(3) -0.0324(6)
C4 C 0.8271(2) 0.7119(3) -0.0139(6)
C5 C 0.7052(2) 0.6553(2) 0.0419(5)
C6 C 0.6485(2) 0.5451(2) 0.1716(5)
C7 C 0.5882(2) 0.5681(2) 0.3697(5)
C8 C 0.4787(2) 0.5618(2) 0.3196(5)
C9 C 0.4905(2) 0.6340(2) 0.1161(5)
C10 C 0.5928(2) 0.7450(2) 0.1219(5)
C11 C 0.6704(2) 0.6855(2) 0.4260(5)
C12 C 0.7929(3) 0.9501(3) 0.1603(8)
C13 C 0.7298(3) 0.5170(3) 0.2834(6)
C14 C 0.5797(3) 0.4512(3) 0.0115(6)
C15 C 0.3835(3) 0.4470(3) 0.2907(7)
H1 H 0.8423 0.8508 0.3139
H2 H 0.8246 0.8429 -0.1755
H3 H 0.9318 0.8800 -0.0202
H4 H 0.8651 0.7074 0.1132
H5 H 0.8333 0.6825 -0.1523
H6 H 0.6698 0.6444 -0.1029
H7 H 0.5759 0.5216 0.4947
H8 H 0.4932 0.6023 -0.0167
H9 H 0.5819 0.7867 0.2274
H10 H 0.6008 0.7769 -0.0375
H11 H 0.6477 0.7213 0.5416
H12 H 0.7350 0.6924 0.4811
H13 H 0.7479 0.9554 0.2843
H14 H 0.7632 0.9494 0.0074
H15 H 0.8621 1.0119 0.1701
H16 H 0.7809 0.5700 0.3969
H17 H 0.7823 0.5155 0.1541
H18 H 0.6863 0.4401 0.3696
H19 H 0.6224 0.4446 -0.1030
H20 H 0.5382 0.3817 0.1017
H21 H 0.5329 0.4631 -0.0728
H22 H 0.3903 0.4132 0.1525
H23 H 0.3789 0.4090 0.4096
H24 H 0.3185 0.4530 0.2806
H25 H 0.3959 0.5866 0.5228
H26 H 0.3945 0.6792 0.2085
loop_
_geom_bond_atom_site_label_1
_geom_bond_atom_site_label_2
_geom_bond_site_symmetry_1
_geom_bond_site_symmetry_2
O1 C8 1_555 1_555
O2 C9 1_555 1_555
C1 C2 1_555 1_555
C2 C3 1_555 1_555
C3 C4 1_555 1_555
C4 C5 1_555 1_555
C5 C1 1_555 1_555
C6 C5 1_555 1_555
C7 C6 1_555 1_555
C8 C7 1_555 1_555
C9 C8 1_555 1_555
C10 C1 1_555 1_555
C11 C1 1_555 1_555
C12 C2 1_555 1_555
C13 C6 1_555 1_555
C14 C6 1_555 1_555
C15 C8 1_555 1_555
H1 C2 1_555 1_555
H2 C3 1_555 1_555
H3 C3 1_555 1_555
H4 C4 1_555 1_555
H5 C4 1_555 1_555
H6 C5 1_555 1_555
H7 C7 1_555 1_555
H8 C9 1_555 1_555
H9 C10 1_555 1_555
H10 C10 1_555 1_555
H11 C11 1_555 1_555
H12 C11 1_555 1_555
H13 C12 1_555 1_555
H14 C12 1_555 1_555
H15 C12 1_555 1_555
H16 C13 1_555 1_555
H17 C13 1_555 1_555
H18 C13 1_555 1_555
H19 C14 1_555 1_555
H20 C14 1_555 1_555
H21 C14 1_555 1_555
H22 C15 1_555 1_555
H23 C15 1_555 1_555
H24 C15 1_555 1_555
H25 O1 1_555 1_555
H26 O2 1_555 1_555
C7 C11 1_555 1_555
C9 C10 1_555 1_555

#END
