
#######################################################################
#
#                 Cambridge Crystallographic Data Centre
#                                CCDC 
#
#######################################################################
#
# If this CIF has been generated from an entry in the Cambridge 
# Structural Database, then it will include bibliographic, chemical, 
# crystal, experimental, refinement or atomic coordinate data resulting 
# from the CCDC's data processing and validation procedures.
#
#######################################################################

data_NUMTOG
_chemical_formula_moiety         'C27 H28 Br1 N1 O1'
_chemical_name_systematic        
2-(1-Benzyl-4-(4-methylbenzylidene)pyrrolidin-3-yl)-1-(2-bromophenyl)ethanol
_symmetry_cell_setting           monoclinic
_symmetry_space_group_name_H-M   'P 21/c'
_symmetry_Int_Tables_number      14
_space_group_name_Hall           '-P 2ybc'
loop_
_symmetry_equiv_pos_site_id
_symmetry_equiv_pos_as_xyz
1 x,y,z
2 -x,1/2+y,1/2-z
3 -x,-y,-z
4 x,1/2-y,1/2+z
_cell_length_a                   10.2040(5)
_cell_length_b                   9.0787(4)
_cell_length_c                   24.4077(11)
_cell_angle_alpha                90
_cell_angle_beta                 99.257(2)
_cell_angle_gamma                90
_cell_volume                     2231.66
_exptl_crystal_colour            colorless
_exptl_crystal_description       prism
_cell_formula_units_Z            4
loop_
_atom_site_label
_atom_site_type_symbol
_atom_site_fract_x
_atom_site_fract_y
_atom_site_fract_z
Br1 Br 0.25911(2) 0.67660(3) 0.193613(12)
N1 N 0.43940(17) 0.64430(19) 0.35932(7)
C1 C 0.4821(2) 0.7803(2) 0.33405(10)
H1 H 0.4944 0.8619 0.3613
H2 H 0.4165 0.8106 0.3016
C2 C 0.6148(2) 0.7369(2) 0.31630(9)
H3 H 0.6753 0.8241 0.3197
C3 C 0.6685(2) 0.6224(2) 0.35989(9)
C4 C 0.5615(2) 0.5924(2) 0.39463(9)
H4 H 0.5559 0.4860 0.4028
H5 H 0.5782 0.6478 0.4300
C5 C 0.5976(2) 0.6764(2) 0.25662(9)
H6 H 0.6829 0.6335 0.2501
H7 H 0.5309 0.5964 0.2527
C6 C 0.5539(2) 0.7937(2) 0.21247(9)
H8 H 0.4786 0.8506 0.2237
C7 C 0.5071(2) 0.7255(2) 0.15601(9)
C8 C 0.3780(2) 0.6714(2) 0.14131(10)
C9 C 0.3323(3) 0.6170(3) 0.08889(12)
H9 H 0.2438 0.5820 0.0797
C10 C 0.4158(3) 0.6141(3) 0.05017(12)
H10 H 0.3848 0.5772 0.0140
C11 C 0.5451(3) 0.6645(3) 0.06343(12)
H11 H 0.6027 0.6613 0.0365
C12 C 0.5904(3) 0.7197(3) 0.11608(11)
H12 H 0.6793 0.7539 0.1250
C13 C 0.3326(2) 0.6709(3) 0.39225(10)
H13 H 0.3660 0.7378 0.4234
H14 H 0.3082 0.5765 0.4082
C14 C 0.2105(2) 0.7379(3) 0.35832(10)
C15 C 0.1361(2) 0.6608(3) 0.31489(10)
H15 H 0.1622 0.5641 0.3064
C16 C 0.0238(2) 0.7235(3) 0.28364(11)
H16 H -0.0251 0.6701 0.2536
C17 C -0.0167(2) 0.8631(3) 0.29613(11)
H17 H -0.0942 0.9053 0.2752
C18 C 0.0561(3) 0.9407(3) 0.33916(12)
H18 H 0.0285 1.0366 0.3480
C19 C 0.1698(2) 0.8792(3) 0.36972(11)
H19 H 0.2204 0.9346 0.3987
C20 C 0.7905(2) 0.5645(3) 0.36518(9)
H20 H 0.8409 0.5952 0.3377
C21 C 0.8596(2) 0.4611(2) 0.40645(9)
C22 C 0.8251(2) 0.4340(3) 0.45866(10)
H21 H 0.7497 0.4817 0.4688
C23 C 0.8993(2) 0.3386(3) 0.49599(10)
H22 H 0.8736 0.3223 0.5312
C24 C 1.0101(2) 0.2666(3) 0.48291(11)
C25 C 1.0448(2) 0.2929(3) 0.43117(11)
H23 H 1.1198 0.2441 0.4211
C26 C 0.9725(2) 0.3887(3) 0.39386(10)
H24 H 0.9999 0.4058 0.3590
C27 C 1.0942(3) 0.1670(3) 0.52403(12)
H25 H 1.1196 0.0793 0.5048
H26 H 1.0433 0.1372 0.5530
H27 H 1.1743 0.2198 0.5410
O1 O 0.66210(14) 0.89181(17) 0.21106(7)
H28 H 0.6350 0.9705 0.1916
loop_
_geom_bond_atom_site_label_1
_geom_bond_atom_site_label_2
_geom_bond_site_symmetry_1
_geom_bond_site_symmetry_2
Br1 C8 1_555 1_555
N1 C1 1_555 1_555
C1 H1 1_555 1_555
H2 C1 1_555 1_555
C2 C1 1_555 1_555
H3 C2 1_555 1_555
C3 C2 1_555 1_555
C4 N1 1_555 1_555
H4 C4 1_555 1_555
H5 C4 1_555 1_555
C5 C2 1_555 1_555
H6 C5 1_555 1_555
H7 C5 1_555 1_555
C6 C5 1_555 1_555
H8 C6 1_555 1_555
C7 C6 1_555 1_555
C8 C7 1_555 1_555
C9 C8 1_555 1_555
H9 C9 1_555 1_555
C10 C9 1_555 1_555
H10 C10 1_555 1_555
C11 C10 1_555 1_555
H11 C11 1_555 1_555
C12 C7 1_555 1_555
H12 C12 1_555 1_555
C13 N1 1_555 1_555
H13 C13 1_555 1_555
H14 C13 1_555 1_555
C14 C13 1_555 1_555
C15 C14 1_555 1_555
H15 C15 1_555 1_555
C16 C15 1_555 1_555
H16 C16 1_555 1_555
C17 C16 1_555 1_555
H17 C17 1_555 1_555
C18 C17 1_555 1_555
H18 C18 1_555 1_555
C19 C14 1_555 1_555
H19 C19 1_555 1_555
C20 C3 1_555 1_555
H20 C20 1_555 1_555
C21 C20 1_555 1_555
C22 C21 1_555 1_555
H21 C22 1_555 1_555
C23 C22 1_555 1_555
H22 C23 1_555 1_555
C24 C23 1_555 1_555
C25 C24 1_555 1_555
H23 C25 1_555 1_555
C26 C21 1_555 1_555
H24 C26 1_555 1_555
C27 C24 1_555 1_555
H25 C27 1_555 1_555
H26 C27 1_555 1_555
H27 C27 1_555 1_555
O1 C6 1_555 1_555
H28 O1 1_555 1_555
C3 C4 1_555 1_555
C11 C12 1_555 1_555
C18 C19 1_555 1_555
C25 C26 1_555 1_555

#END
