
#######################################################################
#
#                 Cambridge Crystallographic Data Centre
#                                CCDC 
#
#######################################################################
#
# If this CIF has been generated from an entry in the Cambridge 
# Structural Database, then it will include bibliographic, chemical, 
# crystal, experimental, refinement or atomic coordinate data resulting 
# from the CCDC's data processing and validation procedures.
#
#######################################################################

data_NUNDIL
_chemical_name_common            
'(23R,24S)-Hydroxyshengmanol-7(8)-en-15-one-3-O-beta-D-xylopyranoside pentahydrate'
_chemical_formula_moiety         'C35 H54 O10,5(H2 O1)'
_chemical_name_systematic        
'16,24,25-Trihydroxy-3-((3,4,5-trihydroxytetrahydro-2H-pyran-2-yl)oxy)-16,23-epoxy-9,19-cyclolanost-7-en-15-one pentahydrate'
_symmetry_cell_setting           monoclinic
_symmetry_space_group_name_H-M   'C 2'
_symmetry_Int_Tables_number      5
_space_group_name_Hall           'C 2y'
loop_
_symmetry_equiv_pos_site_id
_symmetry_equiv_pos_as_xyz
1 x,y,z
2 -x,y,-z
3 1/2+x,1/2+y,z
4 1/2-x,1/2+y,-z
_cell_length_a                   23.0996(7)
_cell_length_b                   7.7243(2)
_cell_length_c                   23.5092(10)
_cell_angle_alpha                90
_cell_angle_beta                 118.0040(10)
_cell_angle_gamma                90
_cell_volume                     3703.57
_exptl_crystal_colour            colorless
_exptl_crystal_description       prism
_cell_formula_units_Z            4
loop_
_atom_site_label
_atom_site_type_symbol
_atom_site_fract_x
_atom_site_fract_y
_atom_site_fract_z
O1 O 0.80850(15) 0.5072(4) 0.41176(15)
O2 O 0.83048(13) 0.3162(4) 1.32691(12)
H1 H 0.7982 0.2670 1.2968
O3 O 0.46715(13) 0.3788(3) 0.71722(11)
O4 O 0.49329(12) 0.2802(4) 0.64172(11)
O5 O 0.40138(15) 0.2531(4) 0.46571(12)
H2 H 0.3824 0.1576 0.4613
O6 O 0.68590(12) -0.0835(4) 1.23650(11)
H3 H 0.6904 -0.0058 1.2633
O7 O 0.65267(12) 0.2465(3) 1.16287(11)
O8 O 0.83086(13) -0.0260(4) 1.36832(12)
H4 H 0.8523 -0.0947 1.3988
C1 C 0.9304(2) 0.2461(6) 1.41867(18)
H5 H 0.9373 0.3711 1.4257
H6 H 0.9728 0.1879 1.4338
H7 H 0.9083 0.2021 1.4426
O9 O 0.33350(15) 0.4017(6) 0.62524(15)
H8 H 0.3375 0.4831 0.6505
O10 O 0.31202(15) 0.4436(6) 0.49503(14)
H9 H 0.2750 0.4006 0.4846
C2 C 0.88776(19) 0.2103(6) 1.34678(17)
C3 C 0.86867(17) 0.0172(6) 1.33634(16)
H10 H 0.9102 -0.0513 1.3574
C4 C 0.83222(16) -0.0402(5) 1.26593(16)
H11 H 0.8608 -0.0117 1.2458
O11 O 0.77221(11) 0.0627(3) 1.23273(11)
C5 C 0.71247(16) -0.0261(5) 1.19670(15)
C6 C 0.66401(16) 0.1077(5) 1.14739(16)
C7 C 0.63347(15) 0.0201(5) 1.08081(15)
C8 C 0.60850(15) 0.1313(4) 1.02056(15)
C9 C 0.61136(16) 0.0475(4) 0.96476(15)
C10 C 0.57147(16) 0.1318(5) 0.89839(15)
C11 C 0.54105(18) 0.0159(5) 0.83929(16)
H12 H 0.5002 -0.0365 0.8354
H13 H 0.5718 -0.0788 0.8438
C12 C 0.52568(17) 0.1215(5) 0.77900(15)
H14 H 0.5040 0.0467 0.7405
H15 H 0.5670 0.1655 0.7813
C13 C 0.48093(16) 0.2735(5) 0.77301(15)
H16 H 0.4385 0.2262 0.7681
C14 C 0.44134(17) 0.2951(5) 0.65819(16)
H17 H 0.4244 0.1781 0.6611
C15 C 0.47087(19) 0.2063(5) 0.57857(17)
H18 H 0.4522 0.0900 0.5770
H19 H 0.5083 0.1933 0.5694
C16 C 0.41947(19) 0.3214(5) 0.52839(17)
H20 H 0.4387 0.4392 0.5316
C17 C 0.57522(16) -0.0873(5) 1.07855(16)
H21 H 0.5373 -0.0114 1.0666
H22 H 0.5881 -0.1380 1.1210
H23 H 0.5637 -0.1799 1.0466
C18 C 0.69221(15) -0.0947(4) 1.08855(15)
C19 C 0.74578(15) 0.0242(5) 1.08880(15)
H24 H 0.7841 -0.0453 1.0961
H25 H 0.7584 0.1102 1.1233
H26 H 0.7289 0.0835 1.0472
C20 C 0.66987(17) -0.2250(5) 1.03313(16)
H27 H 0.6505 -0.3267 1.0434
H28 H 0.7086 -0.2652 1.0294
C21 C 0.61913(17) -0.1498(5) 0.96757(16)
H29 H 0.6317 -0.1855 0.9344
H30 H 0.5759 -0.2025 0.9560
C22 C 0.71559(16) -0.1783(5) 1.15558(15)
H31 H 0.6810 -0.2630 1.1513
C23 C 0.81935(17) -0.2333(5) 1.25827(16)
H32 H 0.7935 -0.2685 1.2801
H33 H 0.8614 -0.2973 1.2782
C24 C 0.78106(16) -0.2762(5) 1.18577(15)
H34 H 0.8074 -0.2342 1.1648
C25 C 0.77062(19) -0.4722(5) 1.17372(19)
H35 H 0.7470 -0.5178 1.1959
H36 H 0.8133 -0.5300 1.1902
H37 H 0.7450 -0.4939 1.1274
C26 C 0.9246(2) 0.2656(6) 1.31009(18)
H38 H 0.8977 0.2403 1.2641
H39 H 0.9660 0.2018 1.3267
H40 H 0.9336 0.3901 1.3159
C27 C 0.58325(16) 0.2884(5) 1.01606(14)
H41 H 0.5821 0.3360 1.0528
C28 C 0.55629(16) 0.3943(5) 0.95503(15)
H42 H 0.5917 0.4690 0.9562
H43 H 0.5213 0.4709 0.9536
C29 C 0.52837(15) 0.2852(4) 0.89333(14)
H44 H 0.4864 0.2353 0.8885
C30 C 0.50945(16) 0.3963(5) 0.83145(15)
C31 C 0.56947(17) 0.4892(5) 0.83377(16)
H45 H 0.5571 0.5447 0.7921
H46 H 0.6044 0.4048 0.8429
H47 H 0.5851 0.5773 0.8677
C32 C 0.45786(17) 0.5310(5) 0.82355(16)
H48 H 0.4435 0.5924 0.7826
H49 H 0.4767 0.6140 0.8592
H50 H 0.4202 0.4733 0.8237
C33 C 0.64557(16) 0.1493(4) 0.93283(15)
H51 H 0.6643 0.2638 0.9511
H52 H 0.6706 0.0827 0.9157
C34 C 0.38595(18) 0.4083(6) 0.60951(17)
H53 H 0.4014 0.5302 0.6118
C35 C 0.36124(18) 0.3367(6) 0.54148(18)
H54 H 0.3425 0.2187 0.5394
O12 O 0.70882(15) 0.1051(6) 0.34222(15)
O13 O 0.80321(19) 0.3106(7) 0.5082(2)
O14 O 0.8676(5) 0.3882(17) 0.6327(4)
O15 O 0.8057(2) 0.1770(9) 0.6712(3)
loop_
_geom_bond_atom_site_label_1
_geom_bond_atom_site_label_2
_geom_bond_site_symmetry_1
_geom_bond_site_symmetry_2
O2 H1 1_555 1_555
O3 C13 1_555 1_555
O4 C14 1_555 1_555
O5 H2 1_555 1_555
O6 H3 1_555 1_555
O7 C6 1_555 1_555
O8 H4 1_555 1_555
C1 H5 1_555 1_555
H6 C1 1_555 1_555
H7 C1 1_555 1_555
O9 H8 1_555 1_555
O10 H9 1_555 1_555
C2 O2 1_555 1_555
C3 O8 1_555 1_555
H10 C3 1_555 1_555
C4 C3 1_555 1_555
H11 C4 1_555 1_555
O11 C4 1_555 1_555
C5 O6 1_555 1_555
C6 C5 1_555 1_555
C7 C6 1_555 1_555
C8 C7 1_555 1_555
C9 C8 1_555 1_555
C10 C9 1_555 1_555
C11 C10 1_555 1_555
H12 C11 1_555 1_555
H13 C11 1_555 1_555
C12 C11 1_555 1_555
H14 C12 1_555 1_555
H15 C12 1_555 1_555
C13 C12 1_555 1_555
H16 C13 1_555 1_555
C14 O3 1_555 1_555
H17 C14 1_555 1_555
C15 O4 1_555 1_555
H18 C15 1_555 1_555
H19 C15 1_555 1_555
C16 O5 1_555 1_555
H20 C16 1_555 1_555
C17 C7 1_555 1_555
H21 C17 1_555 1_555
H22 C17 1_555 1_555
H23 C17 1_555 1_555
C18 C7 1_555 1_555
C19 C18 1_555 1_555
H24 C19 1_555 1_555
H25 C19 1_555 1_555
H26 C19 1_555 1_555
C20 C18 1_555 1_555
H27 C20 1_555 1_555
H28 C20 1_555 1_555
C21 C9 1_555 1_555
H29 C21 1_555 1_555
H30 C21 1_555 1_555
C22 C5 1_555 1_555
H31 C22 1_555 1_555
C23 C4 1_555 1_555
H32 C23 1_555 1_555
H33 C23 1_555 1_555
C24 C22 1_555 1_555
H34 C24 1_555 1_555
C25 C24 1_555 1_555
H35 C25 1_555 1_555
H36 C25 1_555 1_555
H37 C25 1_555 1_555
C26 C2 1_555 1_555
H38 C26 1_555 1_555
H39 C26 1_555 1_555
H40 C26 1_555 1_555
C27 C8 1_555 1_555
H41 C27 1_555 1_555
C28 C27 1_555 1_555
H42 C28 1_555 1_555
H43 C28 1_555 1_555
C29 C10 1_555 1_555
H44 C29 1_555 1_555
C30 C13 1_555 1_555
C31 C30 1_555 1_555
H45 C31 1_555 1_555
H46 C31 1_555 1_555
H47 C31 1_555 1_555
C32 C30 1_555 1_555
H48 C32 1_555 1_555
H49 C32 1_555 1_555
H50 C32 1_555 1_555
C33 C9 1_555 1_555
H51 C33 1_555 1_555
H52 C33 1_555 1_555
C34 O9 1_555 1_555
H53 C34 1_555 1_555
C35 O10 1_555 1_555
H54 C35 1_555 1_555
C1 C2 1_555 1_555
C2 C3 1_555 1_555
O11 C5 1_555 1_555
C10 C33 1_555 1_555
C14 C34 1_555 1_555
C15 C16 1_555 1_555
C16 C35 1_555 1_555
C18 C22 1_555 1_555
C20 C21 1_555 1_555
C23 C24 1_555 1_555
C28 C29 1_555 1_555
C29 C30 1_555 1_555
C34 C35 1_555 1_555

#END
