
#######################################################################
#
#                 Cambridge Crystallographic Data Centre
#                                CCDC 
#
#######################################################################
#
# If this CIF has been generated from an entry in the Cambridge 
# Structural Database, then it will include bibliographic, chemical, 
# crystal, experimental, refinement or atomic coordinate data resulting 
# from the CCDC's data processing and validation procedures.
#
#######################################################################

data_NUNHAG
_chemical_name_common            
'2-(3,4-Dimethoxyphenyl)ethanaminium 3,5-bis(ethoxycarbonyl)pyrazol-1-ide'
_chemical_formula_moiety         'C10 H16 N1 O2 1+,C9 H11 N2 O4 1-'
_chemical_name_systematic        
'Homoveratrylammonium 3,5-bis(ethoxycarbonyl)pyrazolate'
_chemical_properties_biological  
'Homoveratrylamine is a hallucinogenic compound'
_symmetry_cell_setting           monoclinic
_symmetry_space_group_name_H-M   'P 21/n'
_symmetry_Int_Tables_number      14
_space_group_name_Hall           '-P 2yn'
loop_
_symmetry_equiv_pos_site_id
_symmetry_equiv_pos_as_xyz
1 x,y,z
2 1/2-x,1/2+y,1/2-z
3 -x,-y,-z
4 1/2+x,1/2-y,1/2+z
_cell_length_a                   13.1760(5)
_cell_length_b                   5.4360(2)
_cell_length_c                   29.7130(10)
_cell_angle_alpha                90
_cell_angle_beta                 99.289(2)
_cell_angle_gamma                90
_cell_volume                     2100.28
_exptl_crystal_colour            colorless
_exptl_crystal_description       flat
_chemical_melting_point          '115-117 deg.C'
_cell_formula_units_Z            4
_exptl_crystal_recrystallization_method ethanol
loop_
_atom_site_label
_atom_site_type_symbol
_atom_site_fract_x
_atom_site_fract_y
_atom_site_fract_z
O1 O 0.14831(13) -0.0757(4) 0.19326(6)
O2 O 0.07698(15) -0.2143(4) 0.25157(8)
O3 O -0.09759(14) 0.6700(4) 0.11288(6)
O4 O -0.22781(16) 0.7110(4) 0.15260(7)
N1 N -0.08264(15) 0.1327(4) 0.22834(7)
N2 N -0.14352(15) 0.3140(4) 0.20854(7)
C1 C -0.09952(18) 0.4073(5) 0.17377(8)
C2 C -0.00923(18) 0.2823(5) 0.17128(8)
H4 H 0.0362 0.3079 0.1508
C3 C -0.00175(17) 0.1121(5) 0.20573(8)
C4 C 0.07608(19) -0.0758(6) 0.22000(10)
C5 C -0.1497(2) 0.6098(6) 0.14646(9)
C6 C 0.2299(2) -0.2587(7) 0.20361(12)
H5 H 0.2601 -0.2499 0.2356
H6 H 0.2022 -0.4227 0.1973
C7 C 0.3070(3) -0.2070(7) 0.17537(13)
H7 H 0.2766 -0.2174 0.1438
H8 H 0.3618 -0.3248 0.1817
H9 H 0.3339 -0.0445 0.1819
C8 C -0.1347(2) 0.8744(6) 0.08434(10)
H10 H -0.1427 1.0180 0.1028
H11 H -0.2009 0.8354 0.0664
C9 C -0.0577(3) 0.9236(9) 0.05393(13)
H12 H 0.0090 0.9437 0.0720
H13 H -0.0762 1.0710 0.0368
H14 H -0.0563 0.7878 0.0334
O5 O 0.29073(17) -0.1729(4) 0.00013(7)
O6 O 0.23013(17) 0.1825(5) 0.04566(8)
N3 N 0.65192(14) 0.2176(4) 0.22504(6)
H1 H 0.7124 0.2556 0.2172
H2 H 0.6615 0.1173 0.2490
H3 H 0.6209 0.3543 0.2321
C10 C 0.5671(2) 0.2549(6) 0.14567(10)
H15 H 0.6318 0.2942 0.1358
H16 H 0.5365 0.4075 0.1538
C11 C 0.58661(19) 0.0930(6) 0.18614(9)
H17 H 0.6206 -0.0559 0.1785
H18 H 0.5216 0.0465 0.1951
C12 C 0.3206(3) -0.3699(7) -0.02656(11)
H19 H 0.3833 -0.3276 -0.0372
H20 H 0.2675 -0.3989 -0.0522
H21 H 0.3310 -0.5160 -0.0082
C13 C 0.1904(3) 0.3712(8) 0.07066(14)
H22 H 0.1965 0.3233 0.1021
H23 H 0.1192 0.3981 0.0584
H24 H 0.2283 0.5202 0.0684
C14 C 0.4955(2) 0.1332(6) 0.10651(9)
C15 C 0.5253(2) -0.0658(7) 0.08317(12)
H25 H 0.5910 -0.1303 0.0916
C16 C 0.4591(3) -0.1727(6) 0.04720(11)
H26 H 0.4816 -0.3046 0.0315
C17 C 0.3621(2) -0.0859(6) 0.03494(9)
C18 C 0.3294(2) 0.1092(6) 0.05935(9)
C19 C 0.3959(2) 0.2183(6) 0.09423(9)
H27 H 0.3735 0.3511 0.1097
loop_
_geom_bond_atom_site_label_1
_geom_bond_atom_site_label_2
_geom_bond_site_symmetry_1
_geom_bond_site_symmetry_2
O1 C4 1_555 1_555
O2 C4 1_555 1_555
O3 C5 1_555 1_555
O4 C5 1_555 1_555
O5 C12 1_555 1_555
O6 C13 1_555 1_555
N1 N2 1_555 1_555
N2 C1 1_555 1_555
N3 H1 1_555 1_555
H2 N3 1_555 1_555
H3 N3 1_555 1_555
C1 C2 1_555 1_555
C2 H4 1_555 1_555
C3 N1 1_555 1_555
C4 C3 1_555 1_555
C5 C1 1_555 1_555
C6 O1 1_555 1_555
H5 C6 1_555 1_555
H6 C6 1_555 1_555
C7 C6 1_555 1_555
H7 C7 1_555 1_555
H8 C7 1_555 1_555
H9 C7 1_555 1_555
C8 O3 1_555 1_555
H10 C8 1_555 1_555
H11 C8 1_555 1_555
C9 C8 1_555 1_555
H12 C9 1_555 1_555
H13 C9 1_555 1_555
H14 C9 1_555 1_555
C10 H15 1_555 1_555
H16 C10 1_555 1_555
C11 N3 1_555 1_555
H17 C11 1_555 1_555
H18 C11 1_555 1_555
C12 H19 1_555 1_555
H20 C12 1_555 1_555
H21 C12 1_555 1_555
C13 H22 1_555 1_555
H23 C13 1_555 1_555
H24 C13 1_555 1_555
C14 C10 1_555 1_555
C15 C14 1_555 1_555
H25 C15 1_555 1_555
C16 C15 1_555 1_555
H26 C16 1_555 1_555
C17 O5 1_555 1_555
C18 O6 1_555 1_555
C19 C14 1_555 1_555
H27 C19 1_555 1_555
C2 C3 1_555 1_555
C10 C11 1_555 1_555
C16 C17 1_555 1_555
C17 C18 1_555 1_555
C18 C19 1_555 1_555

#END
