
#######################################################################
#
#                 Cambridge Crystallographic Data Centre
#                                CCDC 
#
#######################################################################
#
# If this CIF has been generated from an entry in the Cambridge 
# Structural Database, then it will include bibliographic, chemical, 
# crystal, experimental, refinement or atomic coordinate data resulting 
# from the CCDC's data processing and validation procedures.
#
#######################################################################

data_NUNKEO
_chemical_formula_moiety         'C60 H51 B3 N12'
_chemical_name_systematic        
"N-(6,8'-bis(4-methylphenyl)-2,2',4,4',6'-pentaphenyl-2',3-dihydro-2H,6'H-spiro[1,2,4,5,3-tetrazaborinine-3,1'-[1,2,4,3]triazaborolo[4,3-a][1,3,5,2,4,6]triazatriborinin]-3'(4'H)-yl)-1-(4-methylphenyl)-1-(phenyldiazenyl)methanimine unknown solvate"
_symmetry_cell_setting           monoclinic
_symmetry_space_group_name_H-M   'C 2/c'
_symmetry_Int_Tables_number      15
_space_group_name_Hall           '-C 2yn'
loop_
_symmetry_equiv_pos_site_id
_symmetry_equiv_pos_as_xyz
1 x,y,z
2 -x,y,1/2-z
3 1/2+x,1/2+y,z
4 1/2-x,1/2+y,1/2-z
5 -x,-y,-z
6 x,-y,1/2+z
7 1/2-x,1/2-y,-z
8 1/2+x,1/2-y,1/2+z
_cell_length_a                   32.1139(13)
_cell_length_b                   14.4081(7)
_cell_length_c                   25.2549(10)
_cell_angle_alpha                90
_cell_angle_beta                 109.612(2)
_cell_angle_gamma                90
_cell_volume                     11007.5
_exptl_crystal_colour            red
_exptl_crystal_description       platelet
_cell_formula_units_Z            8
loop_
_atom_site_label
_atom_site_type_symbol
_atom_site_fract_x
_atom_site_fract_y
_atom_site_fract_z
N1 N 0.45102(19) 0.2964(4) 0.3547(3)
N2 N 0.44428(19) 0.3723(4) 0.3752(3)
N3 N 0.36756(19) 0.3448(4) 0.3634(2)
N4 N 0.34353(16) 0.1819(3) 0.3530(2)
N5 N 0.29605(17) 0.0360(3) 0.3428(2)
N6 N 0.28441(18) -0.0044(3) 0.2932(2)
N7 N 0.38118(17) 0.2433(3) 0.4492(2)
N8 N 0.35653(16) 0.0776(3) 0.4345(2)
N9 N 0.36700(17) 0.0281(3) 0.5241(2)
N10 N 0.37812(16) 0.1227(3) 0.5260(2)
N11 N 0.37274(16) 0.0226(3) 0.3458(2)
N12 N 0.35883(17) -0.0145(3) 0.2953(2)
C1 C 0.5789(3) 0.1887(6) 0.4024(4)
H1 H 0.6077 0.1627 0.4126
C2 C 0.5698(3) 0.2496(6) 0.4389(4)
H2 H 0.5917 0.2646 0.4738
C3 C 0.5266(3) 0.2899(5) 0.4230(4)
H3 H 0.5191 0.3328 0.4469
C4 C 0.4967(2) 0.2646(5) 0.3726(3)
C5 C 0.3970(2) 0.3961(5) 0.3560(3)
C6 C 0.3147(2) -0.0182(4) 0.2687(3)
C7 C 0.2578(2) -0.0867(4) 0.1856(3)
H4 H 0.2397 -0.0974 0.2080
C8 C 0.2428(2) -0.1116(4) 0.1293(3)
H5 H 0.2145 -0.1397 0.1138
C9 C 0.2681(2) -0.0966(4) 0.0952(3)
C10 C 0.2519(3) -0.1194(5) 0.0344(3)
H6 H 0.2768 -0.1388 0.0229
H7 H 0.2379 -0.0645 0.0128
H8 H 0.2303 -0.1699 0.0274
C11 C 0.5478(3) 0.1631(6) 0.3506(4)
H9 H 0.5551 0.1209 0.3262
C12 C 0.5058(3) 0.2017(6) 0.3364(4)
H10 H 0.4836 0.1852 0.3021
C13 C 0.35405(19) 0.0051(4) 0.4703(3)
C14 C 0.3960(2) 0.1589(5) 0.5817(3)
C15 C 0.4187(2) 0.1009(5) 0.6263(3)
H11 H 0.4212 0.0365 0.6199
C16 C 0.4376(2) 0.1367(6) 0.6799(3)
H12 H 0.4528 0.0971 0.7104
C17 C 0.4341(3) 0.2311(6) 0.6890(3)
H13 H 0.4485 0.2566 0.7252
C18 C 0.4103(3) 0.2871(6) 0.6460(3)
H14 H 0.4070 0.3512 0.6527
C19 C 0.3905(2) 0.2501(5) 0.5920(3)
H15 H 0.3732 0.2890 0.5623
C20 C 0.3385(2) -0.0921(4) 0.4560(3)
C21 C 0.3144(2) -0.1327(5) 0.4861(3)
H16 H 0.3054 -0.0968 0.5119
C22 C 0.3034(2) -0.2259(5) 0.4784(3)
H17 H 0.2871 -0.2527 0.4997
C23 C 0.3153(2) -0.2823(5) 0.4405(3)
C24 C 0.3385(2) -0.2392(5) 0.4102(3)
H18 H 0.3466 -0.2739 0.3832
C25 C 0.3503(2) -0.1459(4) 0.4184(3)
H19 H 0.3668 -0.1187 0.3975
C26 C 0.3040(3) -0.3826(5) 0.4327(3)
H20 H 0.3216 -0.4121 0.4123
H21 H 0.2725 -0.3895 0.4111
H22 H 0.3105 -0.4123 0.4695
C27 C 0.2343(2) -0.0374(4) 0.3609(3)
H23 H 0.2417 -0.0946 0.3475
C28 C 0.1974(2) -0.0300(5) 0.3770(3)
H24 H 0.1794 -0.0829 0.3753
C29 C 0.1861(2) 0.0549(5) 0.3959(3)
H25 H 0.1603 0.0599 0.4062
C30 C 0.2131(2) 0.1318(4) 0.3993(3)
H26 H 0.2056 0.1895 0.4119
C31 C 0.2505(2) 0.1248(4) 0.3846(2)
H27 H 0.2693 0.1770 0.3878
C32 C 0.4197(2) 0.0056(4) 0.3744(3)
C33 C 0.4901(2) 0.0537(5) 0.4385(3)
H28 H 0.5080 0.0983 0.4637
C34 C 0.5083(2) -0.0278(5) 0.4295(3)
H29 H 0.5388 -0.0394 0.4484
C35 C 0.4826(2) -0.0942(5) 0.3931(3)
H30 H 0.4953 -0.1513 0.3875
C36 C 0.3247(2) -0.0310(4) 0.1760(3)
H31 H 0.3532 -0.0041 0.1921
C37 C 0.3096(2) -0.0541(4) 0.1201(3)
H32 H 0.3275 -0.0413 0.0977
C38 C 0.3575(2) 0.2017(4) 0.2630(3)
H33 H 0.3882 0.1944 0.2824
C39 C 0.3424(3) 0.2150(4) 0.2050(3)
H34 H 0.3628 0.2170 0.1852
C40 C 0.2978(3) 0.2255(4) 0.1763(3)
H35 H 0.2873 0.2341 0.1367
C41 C 0.2686(3) 0.2231(4) 0.2059(3)
H36 H 0.2378 0.2306 0.1863
C42 C 0.2833(2) 0.2100(4) 0.2642(3)
H37 H 0.2630 0.2086 0.2841
C43 C 0.4095(2) 0.3127(4) 0.4829(3)
C44 C 0.4532(2) 0.2912(5) 0.5136(3)
H38 H 0.4638 0.2299 0.5126
C45 C 0.4811(3) 0.3580(5) 0.5456(4)
H39 H 0.5110 0.3427 0.5662
C46 C 0.4661(3) 0.4465(5) 0.5480(4)
H40 H 0.4852 0.4921 0.5708
C47 C 0.4226(3) 0.4689(5) 0.5166(4)
H41 H 0.4123 0.5306 0.5170
C48 C 0.3945(3) 0.4021(5) 0.4852(3)
H42 H 0.3646 0.4174 0.4649
C49 C 0.3871(2) 0.4883(4) 0.3288(3)
C50 C 0.4175(3) 0.5584(5) 0.3387(3)
H43 H 0.4469 0.5479 0.3631
C51 C 0.4059(3) 0.6442(5) 0.3137(3)
H44 H 0.4272 0.6926 0.3219
C52 C 0.3632(2) 0.6606(4) 0.2764(3)
C53 C 0.3339(2) 0.5884(4) 0.2656(3)
H45 H 0.3050 0.5974 0.2397
C54 C 0.3450(2) 0.5030(5) 0.2909(3)
H46 H 0.3238 0.4543 0.2823
C55 C 0.3492(3) 0.7542(4) 0.2505(3)
H47 H 0.3314 0.7466 0.2108
H48 H 0.3754 0.7914 0.2536
H49 H 0.3316 0.7856 0.2702
C56 C 0.2605(2) 0.0410(4) 0.3649(2)
C57 C 0.2989(2) -0.0463(4) 0.2092(3)
C58 C 0.3287(2) 0.1990(4) 0.2925(3)
C59 C 0.4381(2) -0.0761(5) 0.3649(3)
H50 H 0.4204 -0.1202 0.3391
C60 C 0.4449(2) 0.0721(4) 0.4104(3)
H51 H 0.4320 0.1290 0.4161
B1 B 0.3431(2) 0.0824(5) 0.3716(3)
B2 B 0.3649(2) 0.2557(5) 0.3883(3)
B3 B 0.3726(2) 0.1567(5) 0.4707(3)
loop_
_geom_bond_atom_site_label_1
_geom_bond_atom_site_label_2
_geom_bond_site_symmetry_1
_geom_bond_site_symmetry_2
N1 N2 1_555 1_555
N2 C5 1_555 1_555
N3 C5 1_555 1_555
N4 C58 1_555 1_555
N5 N6 1_555 1_555
N6 C6 1_555 1_555
N7 C43 1_555 1_555
N8 C13 1_555 1_555
N9 N10 1_555 1_555
N10 C14 1_555 1_555
N11 N12 1_555 1_555
N12 C6 1_555 1_555
C1 H1 1_555 1_555
C2 C1 1_555 1_555
H2 C2 1_555 1_555
C3 C2 1_555 1_555
H3 C3 1_555 1_555
C4 N1 1_555 1_555
C5 C49 1_555 1_555
C6 C57 1_555 1_555
C7 H4 1_555 1_555
C8 C7 1_555 1_555
H5 C8 1_555 1_555
C9 C8 1_555 1_555
C10 C9 1_555 1_555
H6 C10 1_555 1_555
H7 C10 1_555 1_555
H8 C10 1_555 1_555
C11 C1 1_555 1_555
H9 C11 1_555 1_555
C12 C4 1_555 1_555
H10 C12 1_555 1_555
C13 N9 1_555 1_555
C14 C15 1_555 1_555
C15 H11 1_555 1_555
C16 C15 1_555 1_555
H12 C16 1_555 1_555
C17 C16 1_555 1_555
H13 C17 1_555 1_555
C18 C17 1_555 1_555
H14 C18 1_555 1_555
C19 C14 1_555 1_555
H15 C19 1_555 1_555
C20 C13 1_555 1_555
C21 C20 1_555 1_555
H16 C21 1_555 1_555
C22 C21 1_555 1_555
H17 C22 1_555 1_555
C23 C22 1_555 1_555
C24 C23 1_555 1_555
H18 C24 1_555 1_555
C25 C20 1_555 1_555
H19 C25 1_555 1_555
C26 C23 1_555 1_555
H20 C26 1_555 1_555
H21 C26 1_555 1_555
H22 C26 1_555 1_555
C27 H23 1_555 1_555
C28 C27 1_555 1_555
H24 C28 1_555 1_555
C29 C28 1_555 1_555
H25 C29 1_555 1_555
C30 C29 1_555 1_555
H26 C30 1_555 1_555
C31 C30 1_555 1_555
H27 C31 1_555 1_555
C32 N11 1_555 1_555
C33 H28 1_555 1_555
C34 C33 1_555 1_555
H29 C34 1_555 1_555
C35 C34 1_555 1_555
H30 C35 1_555 1_555
C36 H31 1_555 1_555
C37 C9 1_555 1_555
H32 C37 1_555 1_555
C38 H33 1_555 1_555
C39 C38 1_555 1_555
H34 C39 1_555 1_555
C40 C39 1_555 1_555
H35 C40 1_555 1_555
C41 C40 1_555 1_555
H36 C41 1_555 1_555
C42 C41 1_555 1_555
H37 C42 1_555 1_555
C43 C44 1_555 1_555
C44 H38 1_555 1_555
C45 C44 1_555 1_555
H39 C45 1_555 1_555
C46 C45 1_555 1_555
H40 C46 1_555 1_555
C47 C46 1_555 1_555
H41 C47 1_555 1_555
C48 C43 1_555 1_555
H42 C48 1_555 1_555
C49 C50 1_555 1_555
C50 H43 1_555 1_555
C51 C50 1_555 1_555
H44 C51 1_555 1_555
C52 C51 1_555 1_555
C53 C52 1_555 1_555
H45 C53 1_555 1_555
C54 C49 1_555 1_555
H46 C54 1_555 1_555
C55 C52 1_555 1_555
H47 C55 1_555 1_555
H48 C55 1_555 1_555
H49 C55 1_555 1_555
C56 N5 1_555 1_555
C57 C7 1_555 1_555
C58 C38 1_555 1_555
C59 C32 1_555 1_555
H50 C59 1_555 1_555
C60 C32 1_555 1_555
H51 C60 1_555 1_555
B1 N4 1_555 1_555
B2 N3 1_555 1_555
B3 N7 1_555 1_555
N4 B2 1_555 1_555
N5 B1 1_555 1_555
N7 B2 1_555 1_555
N8 B1 1_555 1_555
N8 B3 1_555 1_555
N10 B3 1_555 1_555
N11 B1 1_555 1_555
C3 C4 1_555 1_555
C11 C12 1_555 1_555
C18 C19 1_555 1_555
C24 C25 1_555 1_555
C27 C56 1_555 1_555
C31 C56 1_555 1_555
C33 C60 1_555 1_555
C35 C59 1_555 1_555
C36 C37 1_555 1_555
C36 C57 1_555 1_555
C42 C58 1_555 1_555
C47 C48 1_555 1_555
C53 C54 1_555 1_555

#END
