
#######################################################################
#
#                 Cambridge Crystallographic Data Centre
#                                CCDC 
#
#######################################################################
#
# If this CIF has been generated from an entry in the Cambridge 
# Structural Database, then it will include bibliographic, chemical, 
# crystal, experimental, refinement or atomic coordinate data resulting 
# from the CCDC's data processing and validation procedures.
#
#######################################################################

data_NUPKEQ
_chemical_formula_moiety         'C31 H23 N3 O5,0.5(H2 O1)'
_chemical_name_systematic        
"3',3'-Dimethyl-5'-(4-nitrophenyl)-3',4',5',11'-tetrahydrospiro[indene-2,6'-indolo[3,2-c]quinoline]-1,1',3(2'H)-trione hemihydrate"
_symmetry_cell_setting           monoclinic
_symmetry_space_group_name_H-M   'C 2/c'
_symmetry_Int_Tables_number      15
_space_group_name_Hall           '-C 2yn'
loop_
_symmetry_equiv_pos_site_id
_symmetry_equiv_pos_as_xyz
1 x,y,z
2 -x,y,1/2-z
3 1/2+x,1/2+y,z
4 1/2-x,1/2+y,1/2-z
5 -x,-y,-z
6 x,-y,1/2+z
7 1/2-x,1/2-y,-z
8 1/2+x,1/2-y,1/2+z
_cell_length_a                   15.715(2)
_cell_length_b                   22.582(3)
_cell_length_c                   16.682(2)
_cell_angle_alpha                90
_cell_angle_beta                 102.400(4)
_cell_angle_gamma                90
_cell_volume                     5781.94
_exptl_crystal_colour            black
_exptl_crystal_description       block
_cell_formula_units_Z            8
loop_
_atom_site_label
_atom_site_type_symbol
_atom_site_fract_x
_atom_site_fract_y
_atom_site_fract_z
O1 O 0.6659(2) 0.18150(12) -0.10553(17)
O2 O 0.6678(2) 0.02661(12) 0.08400(16)
O3 O 0.60625(17) 0.23678(14) 0.26702(16)
O4 O 1.0967(6) 0.0677(3) -0.0141(8)
O5 O 1.0755(6) 0.1549(3) -0.0813(8)
N1 N 0.50555(19) 0.19625(14) 0.11921(19)
H1 H 0.499(3) 0.2135(18) 0.158(3)
N2 N 0.73963(17) 0.14733(12) 0.06878(17)
N3 N 1.0530(3) 0.11580(17) -0.0391(3)
C1 C 0.6594(2) 0.12301(15) 0.0159(2)
C2 C 0.6573(2) 0.13365(15) -0.0757(2)
C3 C 0.6411(2) 0.07694(15) -0.1190(2)
C4 C 0.6280(3) 0.0658(2) -0.2025(2)
H2 H 0.6276 0.0965 -0.2399
C5 C 0.6156(3) 0.0078(2) -0.2284(3)
H3 H 0.6084 -0.0009 -0.2839
C6 C 0.6137(3) -0.0376(2) -0.1734(3)
H4 H 0.6044 -0.0762 -0.1926
C7 C 0.6251(3) -0.02667(18) -0.0911(3)
H5 H 0.6227 -0.0574 -0.0545
C8 C 0.6402(2) 0.03080(15) -0.0630(2)
C9 C 0.6568(2) 0.05397(15) 0.0209(2)
C10 C 0.5801(2) 0.14885(14) 0.0400(2)
C11 C 0.4899(2) 0.14628(15) 0.0002(2)
C12 C 0.4409(2) 0.12029(17) -0.0711(2)
H6 H 0.4681 0.0992 -0.1064
C13 C 0.3514(3) 0.12652(18) -0.0883(2)
H7 H 0.3184 0.1089 -0.1352
C14 C 0.3093(2) 0.15888(18) -0.0365(2)
H8 H 0.2490 0.1629 -0.0500
C15 C 0.3555(2) 0.18466(16) 0.0338(2)
H9 H 0.3276 0.2063 0.0681
C16 C 0.4456(2) 0.17733(15) 0.0522(2)
C17 C 0.5868(2) 0.17889(15) 0.1113(2)
C18 C 0.6686(2) 0.19216(15) 0.1671(2)
C19 C 0.6729(2) 0.22427(16) 0.2429(2)
C20 C 0.7609(2) 0.24372(19) 0.2883(2)
H10 H 0.7591 0.2503 0.3454
H11 H 0.7750 0.2812 0.2658
C21 C 0.8324(2) 0.19962(19) 0.2842(2)
C22 C 0.8321(2) 0.18685(16) 0.1940(2)
H12 H 0.8575 0.2204 0.1713
H13 H 0.8688 0.1527 0.1911
C23 C 0.7432(2) 0.17521(14) 0.1423(2)
C24 C 0.8165(3) 0.1414(2) 0.3285(3)
H14 H 0.8133 0.1501 0.3841
H15 H 0.8637 0.1144 0.3283
H16 H 0.7628 0.1238 0.3004
C25 C 0.9211(3) 0.2250(3) 0.3259(3)
H17 H 0.9310 0.2613 0.2994
H18 H 0.9660 0.1971 0.3218
H19 H 0.9219 0.2326 0.3827
C26 C 0.8184(2) 0.13822(15) 0.0395(2)
C27 C 0.8582(3) 0.08351(18) 0.0468(3)
H20 H 0.8333 0.0519 0.0692
C28 C 0.9353(3) 0.07571(19) 0.0206(3)
H21 H 0.9633 0.0392 0.0260
C29 C 0.9696(2) 0.12278(18) -0.0134(3)
C30 C 0.9317(3) 0.17738(18) -0.0204(3)
H22 H 0.9571 0.2089 -0.0424
C31 C 0.8550(2) 0.18480(16) 0.0059(2)
H23 H 0.8278 0.2216 0.0009
O8 O 0.5000 0.4450(7) 0.2500
O9 O 0.381(2) 0.4590(16) 0.248(2)
O6? O 1.0765(7) 0.0683(4) -0.0517(10)
O7? O 1.0926(7) 0.1613(4) -0.0498(9)
loop_
_geom_bond_atom_site_label_1
_geom_bond_atom_site_label_2
_geom_bond_site_symmetry_1
_geom_bond_site_symmetry_2
O1 C2 1_555 1_555
O2 C9 1_555 1_555
O3 C19 1_555 1_555
O4 N3 1_555 1_555
O5 N3 1_555 1_555
N1 H1 1_555 1_555
N2 C1 1_555 1_555
N3 C29 1_555 1_555
C1 C2 1_555 1_555
C2 C3 1_555 1_555
C3 C4 1_555 1_555
C4 H2 1_555 1_555
C5 C4 1_555 1_555
H3 C5 1_555 1_555
C6 C5 1_555 1_555
H4 C6 1_555 1_555
C7 C6 1_555 1_555
H5 C7 1_555 1_555
C8 C3 1_555 1_555
C9 C1 1_555 1_555
C10 C1 1_555 1_555
C11 C10 1_555 1_555
C12 C11 1_555 1_555
H6 C12 1_555 1_555
C13 C12 1_555 1_555
H7 C13 1_555 1_555
C14 C13 1_555 1_555
H8 C14 1_555 1_555
C15 C14 1_555 1_555
H9 C15 1_555 1_555
C16 N1 1_555 1_555
C17 N1 1_555 1_555
C18 C17 1_555 1_555
C19 C18 1_555 1_555
C20 C19 1_555 1_555
H10 C20 1_555 1_555
H11 C20 1_555 1_555
C21 C20 1_555 1_555
C22 C21 1_555 1_555
H12 C22 1_555 1_555
H13 C22 1_555 1_555
C23 N2 1_555 1_555
C24 C21 1_555 1_555
H14 C24 1_555 1_555
H15 C24 1_555 1_555
H16 C24 1_555 1_555
C25 C21 1_555 1_555
H17 C25 1_555 1_555
H18 C25 1_555 1_555
H19 C25 1_555 1_555
C26 N2 1_555 1_555
C27 C26 1_555 1_555
H20 C27 1_555 1_555
C28 C27 1_555 1_555
H21 C28 1_555 1_555
C29 C28 1_555 1_555
C30 C29 1_555 1_555
H22 C30 1_555 1_555
C31 C26 1_555 1_555
H23 C31 1_555 1_555
C7 C8 1_555 1_555
C8 C9 1_555 1_555
C10 C17 1_555 1_555
C11 C16 1_555 1_555
C15 C16 1_555 1_555
C18 C23 1_555 1_555
C22 C23 1_555 1_555
C30 C31 1_555 1_555

#END
