
#######################################################################
#
#                 Cambridge Crystallographic Data Centre
#                                CCDC 
#
#######################################################################
#
# If this CIF has been generated from an entry in the Cambridge 
# Structural Database, then it will include bibliographic, chemical, 
# crystal, experimental, refinement or atomic coordinate data resulting 
# from the CCDC's data processing and validation procedures.
#
#######################################################################

data_NUPQEV
_chemical_formula_moiety         'C15 H12 Br2'
_chemical_name_systematic        2,7-Dibromo-9,9-dimethyl-9H-fluorene
_symmetry_cell_setting           orthorhombic
_symmetry_space_group_name_H-M   'C m c m'
_symmetry_Int_Tables_number      63
_space_group_name_Hall           '-C 2n 2'
loop_
_symmetry_equiv_pos_site_id
_symmetry_equiv_pos_as_xyz
1 x,y,z
2 -x,-y,1/2+z
3 -x,y,1/2-z
4 x,-y,-z
5 1/2+x,1/2+y,z
6 1/2-x,1/2-y,1/2+z
7 1/2-x,1/2+y,1/2-z
8 1/2+x,1/2-y,-z
9 -x,-y,-z
10 x,y,1/2-z
11 x,-y,1/2+z
12 -x,y,z
13 1/2-x,1/2-y,-z
14 1/2+x,1/2+y,1/2-z
15 1/2+x,1/2-y,1/2+z
16 1/2-x,1/2+y,z
_cell_length_a                   17.097(4)
_cell_length_b                   11.161(3)
_cell_length_c                   6.9120(17)
_cell_angle_alpha                90
_cell_angle_beta                 90
_cell_angle_gamma                90
_cell_volume                     1318.95
_exptl_crystal_colour            colorless
_exptl_crystal_description       block
_cell_formula_units_Z            4
_exptl_crystal_recrystallization_method 'ethyl acetate/petroleum ether'
loop_
_atom_site_label
_atom_site_type_symbol
_atom_site_fract_x
_atom_site_fract_y
_atom_site_fract_z
Br1 Br 0.19165(3) 0.13056(5) 0.2500
C1 C 0.3008(3) 0.0990(4) 0.2500
C2 C 0.3248(3) -0.0185(4) 0.2500
H1 H 0.2883 -0.0804 0.2500
C3 C 0.4037(3) -0.0430(4) 0.2500
H2 H 0.4210 -0.1220 0.2500
C4 C 0.4574(3) 0.0500(3) 0.2500
C5 C 0.4314(3) 0.1684(4) 0.2500
C6 C 0.3527(3) 0.1946(4) 0.2500
H3 H 0.3350 0.2734 0.2500
C7 C 0.5000 0.2560(5) 0.2500
C8 C 0.5000 0.3344(4) 0.0682(8)
H4 H 0.5000 0.2845 -0.0442
H5 H 0.5481 0.3785 0.0613
Br1B Br 0.80835(3) 0.13056(5) 0.2500
C1B C 0.6992(3) 0.0990(4) 0.2500
C2B C 0.6752(3) -0.0185(4) 0.2500
H1B H 0.7117 -0.0804 0.2500
C3B C 0.5963(3) -0.0430(4) 0.2500
H2B H 0.5790 -0.1220 0.2500
C4B C 0.5426(3) 0.0500(3) 0.2500
C5B C 0.5686(3) 0.1684(4) 0.2500
C6B C 0.6473(3) 0.1946(4) 0.2500
H3B H 0.6650 0.2734 0.2500
C8B C 0.5000 0.3344(4) 0.4318(8)
H4B H 0.5000 0.2845 0.5442
H5B H 0.4519 0.3785 0.4387
H5I H 0.5481 0.3785 0.4387
H5K H 0.4519 0.3785 0.0613
H6? H 0.4569 0.3894 0.0736
loop_
_geom_bond_atom_site_label_1
_geom_bond_atom_site_label_2
_geom_bond_site_symmetry_1
_geom_bond_site_symmetry_2
Br1 C1 1_555 1_555
C1 C2 1_555 1_555
C2 H1 1_555 1_555
C3 C2 1_555 1_555
H2 C3 1_555 1_555
C4 C3 1_555 1_555
C5 C4 1_555 1_555
C6 C1 1_555 1_555
H3 C6 1_555 1_555
C7 C5 1_555 1_555
C8 C7 1_555 1_555
H4 C8 1_555 1_555
H5 C8 1_555 1_555
Br1B C1B 1_555 1_555
C1B C2B 1_555 1_555
C2B H1B 1_555 1_555
C3B C2B 1_555 1_555
H2B C3B 1_555 1_555
C4B C4 1_555 1_555
C5B C7 1_555 1_555
C6B C1B 1_555 1_555
H3B C6B 1_555 1_555
C8B C7 1_555 1_555
H4B C8B 1_555 1_555
H5B C8B 1_555 1_555
H5I C8B 1_555 1_555
H5K C8 1_555 1_555
C5 C6 1_555 1_555
C3B C4B 1_555 1_555
C4B C5B 1_555 1_555
C5B C6B 1_555 1_555

#END
