
#######################################################################
#
#                 Cambridge Crystallographic Data Centre
#                                CCDC 
#
#######################################################################
#
# If this CIF has been generated from an entry in the Cambridge 
# Structural Database, then it will include bibliographic, chemical, 
# crystal, experimental, refinement or atomic coordinate data resulting 
# from the CCDC's data processing and validation procedures.
#
#######################################################################

data_NUPQIA
_chemical_formula_moiety         'C30 H36 N8 O8,H2 O1'
_chemical_name_systematic        
"1,1'-(naphthalene-1,5-diylbis(oxyethane-2,1-diyloxyethane-2,1-diyl))bis(3-(6-methyl-4-oxo-1,4-dihydropyrimidin-2-yl)urea) monohydrate"
_symmetry_cell_setting           triclinic
_symmetry_space_group_name_H-M   'P -1'
_symmetry_Int_Tables_number      2
_space_group_name_Hall           '-P 1'
loop_
_symmetry_equiv_pos_site_id
_symmetry_equiv_pos_as_xyz
1 x,y,z
2 -x,-y,-z
_cell_length_a                   11.3045(12)
_cell_length_b                   12.4390(14)
_cell_length_c                   14.2130(15)
_cell_angle_alpha                72.0610(10)
_cell_angle_beta                 74.1310(10)
_cell_angle_gamma                73.0230(10)
_cell_volume                     1781.2
_exptl_crystal_colour            colorless
_exptl_crystal_description       block
_cell_formula_units_Z            2
loop_
_atom_site_label
_atom_site_type_symbol
_atom_site_fract_x
_atom_site_fract_y
_atom_site_fract_z
C1 C 1.0556(2) 0.4607(2) 0.37109(18)
C2 C 1.0629(3) 0.5717(2) 0.36643(19)
H1 H 1.1392 0.5855 0.3669
C3 C 0.9545(2) 0.6639(2) 0.36101(18)
H2 H 0.9611 0.7385 0.3555
C4 C 0.8413(3) 0.6452(2) 0.3638(2)
H3 H 0.7701 0.7060 0.3627
C5 C 0.8317(2) 0.5276(2) 0.36858(17)
C6 C 0.9403(2) 0.4418(2) 0.37378(17)
C7 C 0.9330(2) 0.3291(2) 0.37726(19)
H4 H 1.0047 0.2689 0.3784
C8 C 0.8166(2) 0.3089(2) 0.37894(17)
H5 H 0.8117 0.2344 0.3822
C9 C 0.7102(2) 0.3965(2) 0.37582(17)
H6 H 0.6335 0.3813 0.3781
C10 C 0.7171(2) 0.5064(2) 0.36934(19)
C11 C 1.2845(2) 0.3917(2) 0.36306(19)
H7 H 1.3088 0.4436 0.2982
H8 H 1.2855 0.4235 0.4171
C12 C 1.3618(2) 0.27289(19) 0.37114(17)
H9 H 1.3123 0.2174 0.4140
H10 H 1.4338 0.2627 0.4002
C13 C 1.3432(2) 0.1673(2) 0.25849(18)
H11 H 1.3933 0.0895 0.2793
H12 H 1.2607 0.1734 0.3028
C14 C 1.3307(2) 0.19079(19) 0.15439(17)
H13 H 1.4110 0.1996 0.1095
H14 H 1.3082 0.1257 0.1451
C15 C 1.1144(2) 0.2810(2) 0.14409(17)
C16 C 0.9044(2) 0.37683(19) 0.12599(18)
C17 C 0.6952(2) 0.4899(2) 0.11373(19)
C18 C 0.6581(2) 0.3883(2) 0.11662(17)
H15 H 0.5771 0.3920 0.1106
C19 C 0.7480(2) 0.2833(2) 0.12884(18)
C20 C 0.7106(2) 0.1756(2) 0.13739(18)
H16 H 0.7550 0.1457 0.0795
H17 H 0.6213 0.1923 0.1407
H18 H 0.7312 0.1190 0.1975
C21 C 0.4967(2) 0.5747(2) 0.35866(17)
H19 H 0.5093 0.5448 0.3003
H20 H 0.4728 0.5159 0.4187
C22 C 0.3969(2) 0.6791(2) 0.3532(2)
H21 H 0.3967 0.7207 0.4009
H22 H 0.3150 0.6608 0.3675
C23 C 0.4889(2) 0.8408(2) 0.24185(19)
H23 H 0.5499 0.8107 0.2855
H24 H 0.4266 0.9052 0.2639
C24 C 0.5556(2) 0.8822(2) 0.13191(19)
H25 H 0.4984 0.8982 0.0869
H26 H 0.5815 0.9530 0.1234
C25 C 0.7830(2) 0.8053(2) 0.11042(17)
C26 C 0.9907(2) 0.6965(2) 0.11052(18)
C27 C 1.2009(2) 0.5844(2) 0.11663(18)
C28 C 1.2369(3) 0.6795(2) 0.1209(2)
H27 H 1.3210 0.6728 0.1211
C29 C 1.1490(2) 0.7881(2) 0.12514(18)
C30 C 1.1877(2) 0.8950(2) 0.1304(2)
H28 H 1.1771 0.9555 0.0701
H29 H 1.2745 0.8740 0.1365
H30 H 1.1354 0.9222 0.1880
N1 N 1.23832(19) 0.29155(18) 0.13003(16)
H31 H 1.2570 0.3583 0.1070
N2 N 1.01685(17) 0.37742(17) 0.12771(14)
H32 H 1.0331 0.4439 0.1178
N3 N 0.81727(19) 0.48238(17) 0.11267(15)
N4 N 0.86907(18) 0.27716(17) 0.13495(14)
H33 H 0.9223 0.2113 0.1443
N5 N 0.66598(17) 0.79150(15) 0.10779(13)
H34 H 0.6591 0.7321 0.0926
N6 N 0.87283(18) 0.70660(17) 0.10228(14)
H35 H 0.8535 0.6500 0.0917
N7 N 1.07699(19) 0.59534(16) 0.10862(14)
N8 N 1.02550(18) 0.79203(16) 0.11884(13)
H36 H 0.9692 0.8556 0.1202
O1 O 1.16014(16) 0.36334(14) 0.37426(12)
O2 O 1.40625(15) 0.25424(13) 0.26426(12)
O3 O 1.10618(16) 0.17965(14) 0.15427(12)
O4 O 0.62207(15) 0.58747(14) 0.09374(11)
O5 O 0.61442(15) 0.59966(14) 0.36169(11)
O6 O 0.42650(13) 0.74867(12) 0.24799(11)
O7 O 0.80155(14) 0.89289(14) 0.12159(12)
O8 O 1.28872(17) 0.49771(16) 0.11374(13)
O9 O 0.8406(6) 0.9748(5) 0.4097(4)
H37 H 0.7651 0.9979 0.4004
H38 H 0.8417 0.9781 0.4683
O10 O 0.9359(5) 0.0722(4) 0.5007(4)
H39 H 0.8709 0.0514 0.5406
H40 H 1.0011 0.0337 0.5250
O11 O 0.6306(4) 0.0839(4) 0.3679(3)
H41 H 0.6908 0.0815 0.3942
H42 H 0.6283 0.0153 0.3707
loop_
_geom_bond_atom_site_label_1
_geom_bond_atom_site_label_2
_geom_bond_site_symmetry_1
_geom_bond_site_symmetry_2
C1 C2 1_555 1_555
C2 H1 1_555 1_555
C3 C2 1_555 1_555
H2 C3 1_555 1_555
C4 C3 1_555 1_555
H3 C4 1_555 1_555
C5 C4 1_555 1_555
C6 C1 1_555 1_555
C7 C6 1_555 1_555
H4 C7 1_555 1_555
C8 C7 1_555 1_555
H5 C8 1_555 1_555
C9 C8 1_555 1_555
H6 C9 1_555 1_555
C10 C5 1_555 1_555
C11 H7 1_555 1_555
H8 C11 1_555 1_555
C12 C11 1_555 1_555
H9 C12 1_555 1_555
H10 C12 1_555 1_555
C13 H11 1_555 1_555
H12 C13 1_555 1_555
C14 C13 1_555 1_555
H13 C14 1_555 1_555
H14 C14 1_555 1_555
C15 N1 1_555 1_555
C16 N2 1_555 1_555
C17 C18 1_555 1_555
C18 H15 1_555 1_555
C19 C18 1_555 1_555
C20 C19 1_555 1_555
H16 C20 1_555 1_555
H17 C20 1_555 1_555
H18 C20 1_555 1_555
C21 H19 1_555 1_555
H20 C21 1_555 1_555
C22 C21 1_555 1_555
H21 C22 1_555 1_555
H22 C22 1_555 1_555
C23 H23 1_555 1_555
H24 C23 1_555 1_555
C24 C23 1_555 1_555
H25 C24 1_555 1_555
H26 C24 1_555 1_555
C25 N5 1_555 1_555
C26 N6 1_555 1_555
C27 C28 1_555 1_555
C28 H27 1_555 1_555
C29 C28 1_555 1_555
C30 C29 1_555 1_555
H28 C30 1_555 1_555
H29 C30 1_555 1_555
H30 C30 1_555 1_555
N1 C14 1_555 1_555
H31 N1 1_555 1_555
N2 C15 1_555 1_555
H32 N2 1_555 1_555
N3 C16 1_555 1_555
N4 C16 1_555 1_555
H33 N4 1_555 1_555
N5 C24 1_555 1_555
H34 N5 1_555 1_555
N6 C25 1_555 1_555
H35 N6 1_555 1_555
N7 C26 1_555 1_555
N8 C26 1_555 1_555
H36 N8 1_555 1_555
O1 C1 1_555 1_555
O2 C12 1_555 1_555
O3 C15 1_555 1_555
O4 C17 1_555 1_555
O5 C10 1_555 1_555
O6 C22 1_555 1_555
O7 C25 1_555 1_555
O8 C27 1_555 1_555
O9 H37 1_555 1_555
H38 O9 1_555 1_555
O10 H39 1_555 1_555
H40 O10 1_555 1_555
O11 H41 1_555 1_555
H42 O11 1_555 1_555
C5 C6 1_555 1_555
C9 C10 1_555 1_555
C11 O1 1_555 1_555
C13 O2 1_555 1_555
C17 N3 1_555 1_555
C19 N4 1_555 1_555
C21 O5 1_555 1_555
C23 O6 1_555 1_555
C27 N7 1_555 1_555
C29 N8 1_555 1_555

#END
