
#######################################################################
#
#                 Cambridge Crystallographic Data Centre
#                                CCDC 
#
#######################################################################
#
# If this CIF has been generated from an entry in the Cambridge 
# Structural Database, then it will include bibliographic, chemical, 
# crystal, experimental, refinement or atomic coordinate data resulting 
# from the CCDC's data processing and validation procedures.
#
#######################################################################

data_NUQGUC
_chemical_formula_moiety         'C11 H9 Cl2 N3 O3'
_chemical_name_systematic        
'(1H-1,2,4-Triazol-1-yl)methyl 2-(2,4-dichlorophenoxy)acetate'
_symmetry_cell_setting           monoclinic
_symmetry_space_group_name_H-M   'P 21/c'
_symmetry_Int_Tables_number      14
_space_group_name_Hall           '-P 2ybc'
loop_
_symmetry_equiv_pos_site_id
_symmetry_equiv_pos_as_xyz
1 x,y,z
2 -x,1/2+y,1/2-z
3 -x,-y,-z
4 x,1/2-y,1/2+z
_cell_length_a                   10.814(2)
_cell_length_b                   6.4514(13)
_cell_length_c                   18.698(4)
_cell_angle_alpha                90
_cell_angle_beta                 101.05(3)
_cell_angle_gamma                90
_cell_volume                     1280.29
_exptl_crystal_colour            colorless
_exptl_crystal_description       'thin platelet'
_cell_formula_units_Z            4
_exptl_crystal_recrystallization_method 'ethyl acetate'
loop_
_atom_site_label
_atom_site_type_symbol
_atom_site_fract_x
_atom_site_fract_y
_atom_site_fract_z
Cl1 Cl 0.79559(6) 0.99712(12) 0.32117(3)
Cl2 Cl 1.04334(5) 0.97477(8) 0.09915(3)
O1 O 0.66872(11) 0.28902(19) -0.04910(7)
O2 O 0.66425(13) 0.6226(2) -0.01578(8)
N1 N 0.49666(14) 0.1167(2) -0.11561(8)
N2 N 0.52884(17) 0.0126(3) -0.17284(9)
N3 N 0.39084(16) -0.1726(3) -0.12151(9)
C1 C 0.87849(16) 0.6753(3) 0.12208(9)
C2 C 0.79694(17) 0.5867(3) 0.16172(10)
H1 H 0.7583 0.4613 0.1466
C3 C 0.82796(18) 0.8697(4) 0.24517(10)
C4 C 0.77190(18) 0.6821(4) 0.22373(10)
H2 H 0.7179 0.6202 0.2506
C5 C 0.91140(18) 0.9612(3) 0.20703(10)
H3 H 0.9496 1.0869 0.2223
C6 C 0.93678(16) 0.8624(3) 0.14596(9)
O3 O 0.90954(12) 0.5941(2) 0.06039(7)
C7 C 0.84682(18) 0.4108(3) 0.02987(11)
H4 H 0.8396 0.3144 0.0687
H5 H 0.8964 0.3449 -0.0018
C8 C 0.71716(17) 0.4595(3) -0.01307(9)
C9 C 0.54632(17) 0.3176(3) -0.09501(10)
H6 H 0.4909 0.3915 -0.0687
H7 H 0.5539 0.3974 -0.1379
C10 C 0.41456(18) 0.0036(3) -0.08681(11)
H8 H 0.3792 0.0446 -0.0475
C11 C 0.4627(2) -0.1587(3) -0.17314(11)
H9 H 0.4651 -0.2639 -0.2068
loop_
_geom_bond_atom_site_label_1
_geom_bond_atom_site_label_2
_geom_bond_site_symmetry_1
_geom_bond_site_symmetry_2
Cl1 C3 1_555 1_555
Cl2 C6 1_555 1_555
O1 C8 1_555 1_555
O2 C8 1_555 1_555
N1 N2 1_555 1_555
N2 C11 1_555 1_555
N3 C10 1_555 1_555
C1 C2 1_555 1_555
C2 H1 1_555 1_555
C3 C4 1_555 1_555
C4 C2 1_555 1_555
H2 C4 1_555 1_555
C5 C3 1_555 1_555
H3 C5 1_555 1_555
C6 C1 1_555 1_555
O3 C1 1_555 1_555
C7 O3 1_555 1_555
H4 C7 1_555 1_555
H5 C7 1_555 1_555
C8 C7 1_555 1_555
C9 O1 1_555 1_555
H6 C9 1_555 1_555
H7 C9 1_555 1_555
C10 N1 1_555 1_555
H8 C10 1_555 1_555
C11 N3 1_555 1_555
H9 C11 1_555 1_555
N1 C9 1_555 1_555
C5 C6 1_555 1_555

#END
