
#######################################################################
#
#                 Cambridge Crystallographic Data Centre
#                                CCDC 
#
#######################################################################
#
# If this CIF has been generated from an entry in the Cambridge 
# Structural Database, then it will include bibliographic, chemical, 
# crystal, experimental, refinement or atomic coordinate data resulting 
# from the CCDC's data processing and validation procedures.
#
#######################################################################

data_NUQLER
_chemical_formula_moiety         'C18 H11 Cl1 N2 O2'
_chemical_name_systematic        
1-[(2-Chloro-3-quinolyl)methyl]indoline-2,3-dione
_symmetry_cell_setting           monoclinic
_symmetry_space_group_name_H-M   'P 21/c'
_symmetry_Int_Tables_number      14
_space_group_name_Hall           '-P 2ybc'
loop_
_symmetry_equiv_pos_site_id
_symmetry_equiv_pos_as_xyz
1 x,y,z
2 -x,1/2+y,1/2-z
3 -x,-y,-z
4 x,1/2-y,1/2+z
_cell_length_a                   21.4984(8)
_cell_length_b                   5.3061(2)
_cell_length_c                   13.0356(4)
_cell_angle_alpha                90
_cell_angle_beta                 99.718(3)
_cell_angle_gamma                90
_cell_volume                     1465.67
_exptl_crystal_colour            orange
_exptl_crystal_description       block
_cell_formula_units_Z            4
_exptl_crystal_recrystallization_method dichloromethane
loop_
_atom_site_label
_atom_site_type_symbol
_atom_site_fract_x
_atom_site_fract_y
_atom_site_fract_z
Cl1 Cl 0.32510(3) 1.40527(10) 0.51979(4)
N1 N 0.38948(7) 1.0493(3) 0.45048(11)
C1 C 0.28707(8) 1.1294(3) 0.34507(13)
C2 C 0.29797(8) 0.9460(3) 0.27719(13)
H1 H 0.2675 0.9121 0.2192
N2 N 0.18214(7) 1.2157(3) 0.24049(11)
C3 C 0.10081(8) 1.0002(3) 0.13973(13)
C4 C 0.33623(9) 1.1692(3) 0.43088(13)
C5 C 0.13853(8) 1.0147(3) 0.23746(14)
C6 C 0.39988(8) 0.8632(3) 0.38138(14)
O1 O 0.20473(6) 1.5156(3) 0.12348(11)
C7 C 0.36754(9) 0.6131(3) 0.22547(15)
H2 H 0.3382 0.5751 0.1666
O2 O 0.10171(7) 1.2586(3) -0.01339(11)
C8 C 0.22789(9) 1.2877(3) 0.33140(14)
H3 H 0.2085 1.2717 0.3931
H4 H 0.2392 1.4632 0.3249
C9 C 0.35465(8) 0.8066(3) 0.29322(13)
C10 C 0.05482(9) 0.8170(4) 0.11805(15)
H5 H 0.0300 0.8064 0.0525
C11 C 0.12083(8) 1.1985(3) 0.07592(15)
C12 C 0.45672(9) 0.7252(4) 0.39988(16)
H6 H 0.4871 0.7616 0.4576
C13 C 0.42260(10) 0.4820(4) 0.24572(18)
H7 H 0.4306 0.3541 0.2010
C14 C 0.17522(9) 1.3370(4) 0.14680(15)
C15 C 0.46691(10) 0.5389(4) 0.33319(19)
H8 H 0.5043 0.4475 0.3463
C16 C 0.13105(9) 0.8492(4) 0.31574(15)
H9 H 0.1561 0.8586 0.3812
C17 C 0.04657(9) 0.6503(4) 0.19561(18)
H10 H 0.0156 0.5264 0.1829
C18 C 0.08426(10) 0.6670(4) 0.29230(18)
H11 H 0.0781 0.5524 0.3436
loop_
_geom_bond_atom_site_label_1
_geom_bond_atom_site_label_2
_geom_bond_site_symmetry_1
_geom_bond_site_symmetry_2
Cl1 C4 1_555 1_555
N1 C4 1_555 1_555
C1 C2 1_555 1_555
C2 H1 1_555 1_555
N2 C5 1_555 1_555
C3 C5 1_555 1_555
C4 C1 1_555 1_555
C5 C16 1_555 1_555
C6 N1 1_555 1_555
O1 C14 1_555 1_555
C7 H2 1_555 1_555
O2 C11 1_555 1_555
C8 C1 1_555 1_555
H3 C8 1_555 1_555
H4 C8 1_555 1_555
C9 C2 1_555 1_555
C10 C3 1_555 1_555
H5 C10 1_555 1_555
C11 C3 1_555 1_555
C12 C6 1_555 1_555
H6 C12 1_555 1_555
C13 C7 1_555 1_555
H7 C13 1_555 1_555
C14 N2 1_555 1_555
C15 C12 1_555 1_555
H8 C15 1_555 1_555
C16 H9 1_555 1_555
C17 C10 1_555 1_555
H10 C17 1_555 1_555
C18 C16 1_555 1_555
H11 C18 1_555 1_555
N2 C8 1_555 1_555
C6 C9 1_555 1_555
C7 C9 1_555 1_555
C11 C14 1_555 1_555
C13 C15 1_555 1_555
C17 C18 1_555 1_555

#END
