
#######################################################################
#
#                 Cambridge Crystallographic Data Centre
#                                CCDC 
#
#######################################################################
#
# If this CIF has been generated from an entry in the Cambridge 
# Structural Database, then it will include bibliographic, chemical, 
# crystal, experimental, refinement or atomic coordinate data resulting 
# from the CCDC's data processing and validation procedures.
#
#######################################################################

data_NUQSID
_chemical_formula_moiety         'C24 H20 S3'
_chemical_name_systematic        
2,6-bis(2-phenylethylidene)-2,3,6,7-tetrahydrobisthieno[2,3-b:2',3'-d]thiophene
_symmetry_cell_setting           monoclinic
_symmetry_space_group_name_H-M   'P 21/n'
_symmetry_Int_Tables_number      14
_space_group_name_Hall           '-P 2yn'
loop_
_symmetry_equiv_pos_site_id
_symmetry_equiv_pos_as_xyz
1 x,y,z
2 1/2-x,1/2+y,1/2-z
3 -x,-y,-z
4 1/2+x,1/2-y,1/2+z
_cell_length_a                   7.4707(12)
_cell_length_b                   5.9227(10)
_cell_length_c                   42.784(7)
_cell_angle_alpha                90
_cell_angle_beta                 92.760(3)
_cell_angle_gamma                90
_cell_volume                     1890.86
_exptl_crystal_colour            yellow
_exptl_crystal_description       block
_cell_formula_units_Z            4
loop_
_atom_site_label
_atom_site_type_symbol
_atom_site_fract_x
_atom_site_fract_y
_atom_site_fract_z
S1 S 0.89713(13) 1.07727(16) 0.24887(2)
C1 C 0.9261(2) 0.8796(3) 0.18251(4)
C2 C 1.0903(2) 0.5116(3) 0.29552(4)
S2 S 1.0674(2) 0.5106(3) 0.20270(4)
S3 S 0.9589(2) 0.8824(3) 0.31563(4)
C3 C 0.9942(7) 0.6549(12) 0.17666(11)
C4 C 1.0317(4) 0.6897(6) 0.23242(8)
C5 C 0.9547(5) 0.8870(6) 0.22036(8)
C6 C 1.0414(4) 0.6896(6) 0.26573(8)
C7 C 0.9701(5) 0.8887(6) 0.27770(8)
C8 C 1.0347(7) 0.6466(12) 0.32086(12)
C9 C 1.0751(10) 0.4825(14) 0.34726(19)
C10 C 1.0039(14) 0.5457(19) 0.3745(2)
C11 C 1.0305(6) 0.3995(8) 0.40323(9)
C12 C 1.1112(6) 0.1928(9) 0.41027(11)
H1 H 1.1595 0.1093 0.3943
C13 C 1.1211(7) 0.1094(8) 0.44024(12)
H2 H 1.1764 -0.0288 0.4444
C14 C 1.0503(6) 0.2279(9) 0.46388(10)
H3 H 1.0583 0.1721 0.4842
C15 C 0.9677(6) 0.4289(8) 0.45763(10)
H4 H 0.9188 0.5100 0.4738
C16 C 0.9562(6) 0.5127(7) 0.42760(10)
H5 H 0.8971 0.6487 0.4237
C17 C 0.9503(11) 0.6335(14) 0.1402(2)
C18 C 0.9928(14) 0.4365(18) 0.1281(2)
C19 C 0.9648(6) 0.4003(8) 0.09464(9)
C20 C 0.8841(6) 0.5185(8) 0.07010(10)
H6 H 0.8285 0.6552 0.0741
C21 C 0.8833(6) 0.4404(8) 0.03978(10)
H7 H 0.8287 0.5244 0.0236
C22 C 0.9635(7) 0.2376(9) 0.03350(10)
H8 H 0.9663 0.1855 0.0130
C23 C 1.0387(7) 0.1135(8) 0.05744(12)
H9 H 1.0898 -0.0258 0.0533
C24 C 1.0401(6) 0.1908(9) 0.08732(11)
H10 H 1.0922 0.1029 0.1033
S4? S 0.9261(2) 0.8796(3) 0.18251(4)
S5? S 1.0903(2) 0.5116(3) 0.29552(4)
C25? C 1.0674(2) 0.5106(3) 0.20270(4)
C26? C 0.9589(2) 0.8824(3) 0.31563(4)
C27? C 1.0034(12) 0.6332(16) 0.3579(2)
C28? C 1.0469(14) 0.4406(18) 0.3695(3)
C29? C 1.0287(12) 0.4765(15) 0.1502(2)
C30? C 0.9471(15) 0.5418(19) 0.1243(3)
loop_
_geom_bond_atom_site_label_1
_geom_bond_atom_site_label_2
_geom_bond_site_symmetry_1
_geom_bond_site_symmetry_2
S1 C5 1_555 1_555
C1 C3 1_555 1_555
C2 C6 1_555 1_555
S2 C3 1_555 1_555
S3 C7 1_555 1_555
C3 C17 1_555 1_555
C4 S2 1_555 1_555
C5 C1 1_555 1_555
C6 C4 1_555 1_555
C7 S1 1_555 1_555
C8 C2 1_555 1_555
C9 C8 1_555 1_555
C10 C9 1_555 1_555
C11 C10 1_555 1_555
C12 C11 1_555 1_555
H1 C12 1_555 1_555
C13 C12 1_555 1_555
H2 C13 1_555 1_555
C14 C13 1_555 1_555
H3 C14 1_555 1_555
C15 C14 1_555 1_555
H4 C15 1_555 1_555
C16 C11 1_555 1_555
H5 C16 1_555 1_555
C17 C18 1_555 1_555
C18 C19 1_555 1_555
C19 C20 1_555 1_555
C20 H6 1_555 1_555
C21 C20 1_555 1_555
H7 C21 1_555 1_555
C22 C21 1_555 1_555
H8 C22 1_555 1_555
C23 C22 1_555 1_555
H9 C23 1_555 1_555
C24 C19 1_555 1_555
H10 C24 1_555 1_555
S3 C8 1_555 1_555
C4 C5 1_555 1_555
C6 C7 1_555 1_555
C15 C16 1_555 1_555
C23 C24 1_555 1_555

#END
