
#######################################################################
#
#                 Cambridge Crystallographic Data Centre
#                                CCDC 
#
#######################################################################
#
# If this CIF has been generated from an entry in the Cambridge 
# Structural Database, then it will include bibliographic, chemical, 
# crystal, experimental, refinement or atomic coordinate data resulting 
# from the CCDC's data processing and validation procedures.
#
#######################################################################

data_NUQTUP
_chemical_formula_moiety         'C27 H24 O4'
_chemical_name_systematic        
3,9-Di-1-naphthyl-2,4,8,10-tetraoxaspiro[5.5]undecane
_symmetry_cell_setting           monoclinic
_symmetry_space_group_name_H-M   'P 21/c'
_symmetry_Int_Tables_number      14
_space_group_name_Hall           '-P 2ybc'
loop_
_symmetry_equiv_pos_site_id
_symmetry_equiv_pos_as_xyz
1 x,y,z
2 -x,1/2+y,1/2-z
3 -x,-y,-z
4 x,1/2-y,1/2+z
_cell_length_a                   14.9040(15)
_cell_length_b                   5.7761(6)
_cell_length_c                   24.238(2)
_cell_angle_alpha                90
_cell_angle_beta                 95.447(2)
_cell_angle_gamma                90
_cell_volume                     2077.15
_exptl_crystal_colour            colorless
_exptl_crystal_description       block
_chemical_melting_point          '445-446 K'
_cell_formula_units_Z            4
_exptl_crystal_recrystallization_method 'ethyl acetate'
loop_
_atom_site_label
_atom_site_type_symbol
_atom_site_fract_x
_atom_site_fract_y
_atom_site_fract_z
O1 O 0.13414(8) 0.84377(18) 0.45655(4)
O2 O 0.22638(8) 0.6064(2) 0.40974(4)
O3 O 0.26584(7) 0.18521(18) 0.56082(5)
O4 O 0.36401(8) 0.4833(2) 0.54471(5)
C1 C 0.34069(15) -0.1745(4) 0.71697(8)
H1 H 0.2942 -0.1732 0.7400
C2 C 0.40805(16) -0.3418(4) 0.72465(9)
H2 H 0.4063 -0.4513 0.7527
C3 C 0.47631(14) -0.3452(3) 0.69128(9)
H3 H 0.5207 -0.4584 0.6965
C4 C 0.48080(12) -0.1802(3) 0.64906(8)
C5 C 0.55262(13) -0.1798(4) 0.61468(9)
H4 H 0.5969 -0.2934 0.6193
C6 C 0.55731(14) -0.0168(4) 0.57552(10)
H5 H 0.6062 -0.0149 0.5543
C7 C 0.48923(13) 0.1507(4) 0.56622(9)
H6 H 0.4933 0.2611 0.5386
C8 C 0.41737(12) 0.1540(3) 0.59693(7)
C9 C 0.41222(11) -0.0103(3) 0.64054(7)
C10 C 0.34223(12) -0.0132(3) 0.67623(7)
H7 H 0.2966 0.0970 0.6717
C11 C 0.34087(11) 0.3197(3) 0.58327(7)
H8 H 0.3259 0.3980 0.6171
C12 C 0.18859(11) 0.3248(3) 0.54602(7)
H9 H 0.1679 0.3917 0.5793
H10 H 0.1406 0.2283 0.5288
C13 C 0.29204(12) 0.6434(3) 0.53143(7)
H11 H 0.3104 0.7575 0.5054
H12 H 0.2784 0.7239 0.5648
C14 C 0.20848(10) 0.5180(3) 0.50633(6)
C15 C 0.12684(12) 0.6778(3) 0.49917(7)
H13 H 0.0729 0.5857 0.4904
H14 H 0.1207 0.7576 0.5338
C16 C 0.22281(12) 0.4224(3) 0.44935(7)
H15 H 0.2787 0.3353 0.4515
H16 H 0.1739 0.3179 0.4373
C17 C 0.14617(11) 0.7325(3) 0.40554(6)
H17 H 0.0954 0.6281 0.3956
C18 C 0.14747(11) 0.9196(3) 0.36260(6)
C19 C 0.22421(13) 0.9714(3) 0.33883(7)
H18 H 0.2755 0.8813 0.3470
C20 C 0.22692(15) 1.1598(4) 0.30208(8)
H19 H 0.2796 1.1916 0.2858
C21 C 0.15360(16) 1.2942(4) 0.29038(7)
H20 H 0.1569 1.4206 0.2669
C22 C 0.07234(14) 1.2462(3) 0.31316(7)
C23 C 0.06793(12) 1.0532(3) 0.34917(6)
C24 C -0.01615(12) 1.0029(3) 0.36927(7)
H21 H -0.0207 0.8775 0.3929
C25 C -0.09045(14) 1.1344(4) 0.35467(8)
H22 H -0.1452 1.0951 0.3676
C26 C -0.08524(17) 1.3280(4) 0.32048(9)
H23 H -0.1359 1.4193 0.3114
C27 C -0.00558(17) 1.3820(4) 0.30050(8)
H24 H -0.0024 1.5114 0.2780
loop_
_geom_bond_atom_site_label_1
_geom_bond_atom_site_label_2
_geom_bond_site_symmetry_1
_geom_bond_site_symmetry_2
O1 C15 1_555 1_555
O2 C16 1_555 1_555
O3 C11 1_555 1_555
O4 C11 1_555 1_555
C1 H1 1_555 1_555
C2 C1 1_555 1_555
H2 C2 1_555 1_555
C3 C2 1_555 1_555
H3 C3 1_555 1_555
C4 C3 1_555 1_555
C5 C4 1_555 1_555
H4 C5 1_555 1_555
C6 C5 1_555 1_555
H5 C6 1_555 1_555
C7 C6 1_555 1_555
H6 C7 1_555 1_555
C8 C7 1_555 1_555
C9 C4 1_555 1_555
C10 C1 1_555 1_555
H7 C10 1_555 1_555
C11 C8 1_555 1_555
H8 C11 1_555 1_555
C12 O3 1_555 1_555
H9 C12 1_555 1_555
H10 C12 1_555 1_555
C13 O4 1_555 1_555
H11 C13 1_555 1_555
H12 C13 1_555 1_555
C14 C12 1_555 1_555
C15 C14 1_555 1_555
H13 C15 1_555 1_555
H14 C15 1_555 1_555
C16 C14 1_555 1_555
H15 C16 1_555 1_555
H16 C16 1_555 1_555
C17 O1 1_555 1_555
H17 C17 1_555 1_555
C18 C17 1_555 1_555
C19 C18 1_555 1_555
H18 C19 1_555 1_555
C20 C19 1_555 1_555
H19 C20 1_555 1_555
C21 C20 1_555 1_555
H20 C21 1_555 1_555
C22 C21 1_555 1_555
C23 C18 1_555 1_555
C24 C23 1_555 1_555
H21 C24 1_555 1_555
C25 C24 1_555 1_555
H22 C25 1_555 1_555
C26 C25 1_555 1_555
H23 C26 1_555 1_555
C27 C22 1_555 1_555
H24 C27 1_555 1_555
O2 C17 1_555 1_555
C8 C9 1_555 1_555
C9 C10 1_555 1_555
C13 C14 1_555 1_555
C22 C23 1_555 1_555
C26 C27 1_555 1_555

#END
