
#######################################################################
#
#                 Cambridge Crystallographic Data Centre
#                                CCDC 
#
#######################################################################
#
# If this CIF has been generated from an entry in the Cambridge 
# Structural Database, then it will include bibliographic, chemical, 
# crystal, experimental, refinement or atomic coordinate data resulting 
# from the CCDC's data processing and validation procedures.
#
#######################################################################

data_NUQYAA
_chemical_name_common            
9-(4-Chlorophenyl)-3,6-diphenyl-1,2,3,4,5,6,7,8-octahydro-9H-xanthene-1,8-dione
_chemical_formula_moiety         'C31 H25 Cl1 O3'
_chemical_name_systematic        
9-(4-Chlorophenyl)-3,6-diphenyl-3,4,5,6,7,9-hexahydro-1H-xanthene-1,8(2H)-dione
_symmetry_cell_setting           orthorhombic
_symmetry_space_group_name_H-M   'P b c a'
_symmetry_Int_Tables_number      61
_space_group_name_Hall           '-P 2ac 2ab'
loop_
_symmetry_equiv_pos_site_id
_symmetry_equiv_pos_as_xyz
1 x,y,z
2 1/2-x,-y,1/2+z
3 -x,1/2+y,1/2-z
4 1/2+x,1/2-y,-z
5 -x,-y,-z
6 1/2+x,y,1/2-z
7 x,1/2-y,1/2+z
8 1/2-x,1/2+y,z
_cell_length_a                   9.7591(14)
_cell_length_b                   22.133(3)
_cell_length_c                   22.290(3)
_cell_angle_alpha                90
_cell_angle_beta                 90
_cell_angle_gamma                90
_cell_volume                     4814.6
_exptl_crystal_colour            colorless
_exptl_crystal_description       block
_cell_formula_units_Z            8
loop_
_atom_site_label
_atom_site_type_symbol
_atom_site_fract_x
_atom_site_fract_y
_atom_site_fract_z
C1 C 0.5407(5) 0.39406(18) 0.3699(2)
C2 C 0.4287(5) 0.4129(2) 0.3377(2)
H1 H 0.3916 0.3870 0.3091
C3 C 0.3694(6) 0.4681(3) 0.3460(2)
H2 H 0.2936 0.4796 0.3235
C4 C 0.4240(7) 0.5065(2) 0.3883(3)
H3 H 0.3862 0.5446 0.3941
C5 C 0.5328(7) 0.4886(2) 0.4215(3)
H4 H 0.5676 0.5145 0.4506
C6 C 0.5935(5) 0.4326(2) 0.4132(2)
H5 H 0.6685 0.4210 0.4362
C7 C 0.6121(5) 0.33489(18) 0.3579(2)
H6 H 0.6891 0.3330 0.3860
C8 C 0.6723(5) 0.33250(17) 0.29750(19)
H7 H 0.7278 0.3683 0.2913
H8 H 0.5992 0.3329 0.2680
C9 C 0.7607(5) 0.27671(19) 0.28747(18)
C10 C 0.7150(4) 0.22155(18) 0.31741(17)
C11 C 0.6030(4) 0.22346(18) 0.35110(17)
C12 C 0.5260(4) 0.27893(17) 0.36980(17)
H9 H 0.5041 0.2765 0.4122
H10 H 0.4407 0.2815 0.3476
C13 C 0.7974(4) 0.16464(16) 0.31002(16)
H11 H 0.8289 0.1618 0.2684
C14 C 0.9226(4) 0.16727(16) 0.35157(17)
C15 C 0.9046(5) 0.16731(19) 0.41286(19)
H12 H 0.8165 0.1648 0.4285
C16 C 1.0139(5) 0.17096(19) 0.45124(19)
H13 H 1.0004 0.1697 0.4925
C17 C 1.1420(4) 0.17640(17) 0.42835(19)
C18 C 1.1638(4) 0.17601(18) 0.36775(19)
H14 H 1.2522 0.1791 0.3525
C19 C 1.0548(4) 0.17107(18) 0.33007(19)
H15 H 1.0698 0.1702 0.2889
C20 C 0.7059(4) 0.11157(18) 0.32342(17)
C21 C 0.7403(5) 0.05297(19) 0.29797(19)
C22 C 0.6491(5) 0.00033(18) 0.3145(2)
H16 H 0.5814 -0.0051 0.2831
H17 H 0.7045 -0.0360 0.3160
C23 C 0.5771(5) 0.00738(18) 0.3726(2)
H18 H 0.6491 0.0112 0.4030
C24 C 0.4988(4) 0.06699(16) 0.37386(18)
H19 H 0.4206 0.0646 0.3471
H20 H 0.4652 0.0746 0.4141
C25 C 0.5903(4) 0.11740(18) 0.35479(18)
C26 C 0.4916(5) -0.04687(19) 0.3914(2)
C27 C 0.4901(6) -0.1005(2) 0.3610(3)
H21 H 0.5363 -0.1036 0.3246
C28 C 0.4208(6) -0.1505(2) 0.3833(3)
H22 H 0.4232 -0.1866 0.3620
C29 C 0.3517(6) -0.1480(3) 0.4342(3)
H23 H 0.3090 -0.1824 0.4493
C30 C 0.3435(7) -0.0948(3) 0.4644(2)
H24 H 0.2902 -0.0917 0.4989
C31 C 0.4161(6) -0.0448(2) 0.4431(2)
H25 H 0.4129 -0.0089 0.4647
Cl1 Cl 1.28146(12) 0.18272(6) 0.47779(5)
O1 O 0.5432(3) 0.17227(11) 0.37532(11)
O2 O 0.8609(3) 0.27660(13) 0.25570(14)
O3 O 0.8359(3) 0.04721(13) 0.26316(14)
loop_
_geom_bond_atom_site_label_1
_geom_bond_atom_site_label_2
_geom_bond_site_symmetry_1
_geom_bond_site_symmetry_2
C1 C2 1_555 1_555
C2 H1 1_555 1_555
C3 C2 1_555 1_555
H2 C3 1_555 1_555
C4 C3 1_555 1_555
H3 C4 1_555 1_555
C5 C4 1_555 1_555
H4 C5 1_555 1_555
C6 C1 1_555 1_555
H5 C6 1_555 1_555
C7 C1 1_555 1_555
H6 C7 1_555 1_555
C8 C7 1_555 1_555
H7 C8 1_555 1_555
H8 C8 1_555 1_555
C9 C8 1_555 1_555
C10 C9 1_555 1_555
C11 C10 1_555 1_555
C12 C7 1_555 1_555
H9 C12 1_555 1_555
H10 C12 1_555 1_555
C13 C10 1_555 1_555
H11 C13 1_555 1_555
C14 C13 1_555 1_555
C15 C14 1_555 1_555
H12 C15 1_555 1_555
C16 C15 1_555 1_555
H13 C16 1_555 1_555
C17 C16 1_555 1_555
C18 C17 1_555 1_555
H14 C18 1_555 1_555
C19 C14 1_555 1_555
H15 C19 1_555 1_555
C20 C13 1_555 1_555
C21 C20 1_555 1_555
C22 C21 1_555 1_555
H16 C22 1_555 1_555
H17 C22 1_555 1_555
C23 C22 1_555 1_555
H18 C23 1_555 1_555
C24 C23 1_555 1_555
H19 C24 1_555 1_555
H20 C24 1_555 1_555
C25 C20 1_555 1_555
C26 C23 1_555 1_555
C27 C26 1_555 1_555
H21 C27 1_555 1_555
C28 C27 1_555 1_555
H22 C28 1_555 1_555
C29 C28 1_555 1_555
H23 C29 1_555 1_555
C30 C29 1_555 1_555
H24 C30 1_555 1_555
C31 C26 1_555 1_555
H25 C31 1_555 1_555
Cl1 C17 1_555 1_555
O1 C11 1_555 1_555
O2 C9 1_555 1_555
O3 C21 1_555 1_555
C5 C6 1_555 1_555
C11 C12 1_555 1_555
C18 C19 1_555 1_555
C24 C25 1_555 1_555
C25 O1 1_555 1_555
C30 C31 1_555 1_555

#END
