
#######################################################################
#
#                 Cambridge Crystallographic Data Centre
#                                CCDC 
#
#######################################################################
#
# If this CIF has been generated from an entry in the Cambridge 
# Structural Database, then it will include bibliographic, chemical, 
# crystal, experimental, refinement or atomic coordinate data resulting 
# from the CCDC's data processing and validation procedures.
#
#######################################################################

data_NUQZEG
_chemical_formula_moiety         'C21 H29 N1 O6'
_chemical_name_systematic        
'(+-)-(3R,9aR)-Ethyl 5-oxo-3-(2,4,6-trimethoxyphenyl)octahydro-1H-pyrrolo[1,2-a]azepine-9a-carboxylate'
_symmetry_cell_setting           monoclinic
_symmetry_space_group_name_H-M   'P 21/c'
_symmetry_Int_Tables_number      14
_space_group_name_Hall           '-P 2ybc'
loop_
_symmetry_equiv_pos_site_id
_symmetry_equiv_pos_as_xyz
1 x,y,z
2 -x,1/2+y,1/2-z
3 -x,-y,-z
4 x,1/2-y,1/2+z
_cell_length_a                   12.758(2)
_cell_length_b                   7.6243(12)
_cell_length_c                   20.431(3)
_cell_angle_alpha                90
_cell_angle_beta                 99.373(2)
_cell_angle_gamma                90
_cell_volume                     1960.81
_exptl_crystal_colour            colorless
_exptl_crystal_description       'Rectangular parallelepiped'
_cell_formula_units_Z            4
_exptl_crystal_recrystallization_method 'ethyl acetate/heptane'
loop_
_atom_site_label
_atom_site_type_symbol
_atom_site_fract_x
_atom_site_fract_y
_atom_site_fract_z
O1 O 0.24968(6) -0.08133(10) 0.04723(4)
O2 O 0.44688(6) 0.26626(10) 0.00299(4)
O3 O 0.71523(6) -0.03561(11) 0.15752(4)
O4 O 0.38517(6) 0.13485(12) 0.21712(4)
O5 O -0.02944(6) 0.36988(10) 0.12177(4)
O6 O 0.04410(6) 0.28715(11) 0.03401(4)
N1 N 0.21827(6) 0.14778(11) 0.11102(4)
C1 C 0.19395(8) -0.01366(13) 0.08428(5)
C2 C 0.09722(8) -0.11045(14) 0.10049(5)
H1 H 0.0995(11) -0.227(2) 0.0788(7)
H2 H 0.0330(12) -0.050(2) 0.0781(7)
C3 C 0.08932(9) -0.13454(14) 0.17392(5)
H3 H 0.0413(12) -0.235(2) 0.1772(7)
H4 H 0.1596(11) -0.1668(18) 0.2004(7)
C4 C 0.04783(8) 0.02601(14) 0.20607(5)
H5 H -0.0216(11) 0.0581(17) 0.1812(7)
H6 H 0.0380(11) -0.0021(19) 0.2508(7)
C5 C 0.12224(8) 0.18291(13) 0.20955(5)
H7 H 0.1926(11) 0.1580(18) 0.2350(7)
H8 H 0.0931(11) 0.2835(19) 0.2322(7)
C6 C 0.14743(7) 0.25669(13) 0.14412(5)
C7 C 0.21302(8) 0.42640(13) 0.15974(5)
H9 H 0.2594(11) 0.4092(18) 0.2029(7)
H10 H 0.1661(11) 0.5271(18) 0.1627(6)
C8 C 0.27955(8) 0.44201(14) 0.10452(5)
H11 H 0.2396(11) 0.5023(18) 0.0651(7)
H12 H 0.3459(12) 0.5082(19) 0.1194(7)
C9 C 0.30126(7) 0.25117(13) 0.08536(5)
H13 H 0.2883(10) 0.2390(16) 0.0371(6)
C10 C 0.41346(7) 0.18586(13) 0.10803(5)
C11 C 0.48473(8) 0.18886(13) 0.06257(5)
C12 C 0.58691(8) 0.11752(13) 0.07646(5)
H14 H 0.6295(11) 0.1150(19) 0.0435(7)
C13 C 0.61863(8) 0.04396(14) 0.13855(5)
C14 C 0.55319(8) 0.04803(15) 0.18695(5)
H15 H 0.5778(11) -0.0032(19) 0.2293(7)
C15 C 0.45241(8) 0.12021(14) 0.17148(5)
C16 C 0.04890(8) 0.30341(13) 0.09295(5)
C17 C -0.12457(8) 0.42300(15) 0.07601(5)
H16 H -0.1446(11) 0.3263(19) 0.0425(7)
H17 H -0.1063(11) 0.523(2) 0.0523(7)
C18 C -0.20960(9) 0.45972(16) 0.11744(6)
H18 H -0.1870(12) 0.554(2) 0.1492(8)
H19 H -0.2256(13) 0.358(2) 0.1406(9)
H20 H -0.2746(13) 0.492(2) 0.0874(8)
C19 C 0.52156(8) 0.29951(15) -0.04078(5)
H21 H 0.5457(11) 0.1915(19) -0.0599(7)
H22 H 0.5820(12) 0.3681(19) -0.0191(7)
H23 H 0.4831(11) 0.3660(18) -0.0780(7)
C20 C 0.77754(8) -0.06566(15) 0.10665(6)
H24 H 0.7357(13) -0.133(2) 0.0715(8)
H25 H 0.8022(12) 0.044(2) 0.0888(7)
H26 H 0.8388(12) -0.1360(19) 0.1279(7)
C21 C 0.42403(10) 0.07996(19) 0.28321(6)
H27 H 0.4348(13) -0.043(2) 0.2835(8)
H28 H 0.3691(12) 0.1107(19) 0.3101(7)
H29 H 0.4917(13) 0.145(2) 0.3010(8)
loop_
_geom_bond_atom_site_label_1
_geom_bond_atom_site_label_2
_geom_bond_site_symmetry_1
_geom_bond_site_symmetry_2
O1 C1 1_555 1_555
O2 C11 1_555 1_555
O3 C13 1_555 1_555
O4 C15 1_555 1_555
O5 C16 1_555 1_555
O6 C16 1_555 1_555
N1 C1 1_555 1_555
C1 C2 1_555 1_555
C2 H1 1_555 1_555
H2 C2 1_555 1_555
C3 C2 1_555 1_555
H3 C3 1_555 1_555
H4 C3 1_555 1_555
C4 C3 1_555 1_555
H5 C4 1_555 1_555
H6 C4 1_555 1_555
C5 C4 1_555 1_555
H7 C5 1_555 1_555
H8 C5 1_555 1_555
C6 N1 1_555 1_555
C7 C6 1_555 1_555
H9 C7 1_555 1_555
H10 C7 1_555 1_555
C8 C7 1_555 1_555
H11 C8 1_555 1_555
H12 C8 1_555 1_555
C9 N1 1_555 1_555
H13 C9 1_555 1_555
C10 C9 1_555 1_555
C11 C10 1_555 1_555
C12 C11 1_555 1_555
H14 C12 1_555 1_555
C13 C12 1_555 1_555
C14 C13 1_555 1_555
H15 C14 1_555 1_555
C15 C10 1_555 1_555
C16 C6 1_555 1_555
C17 O5 1_555 1_555
H16 C17 1_555 1_555
H17 C17 1_555 1_555
C18 C17 1_555 1_555
H18 C18 1_555 1_555
H19 C18 1_555 1_555
H20 C18 1_555 1_555
C19 O2 1_555 1_555
H21 C19 1_555 1_555
H22 C19 1_555 1_555
H23 C19 1_555 1_555
C20 O3 1_555 1_555
H24 C20 1_555 1_555
H25 C20 1_555 1_555
H26 C20 1_555 1_555
C21 O4 1_555 1_555
H27 C21 1_555 1_555
H28 C21 1_555 1_555
H29 C21 1_555 1_555
C5 C6 1_555 1_555
C8 C9 1_555 1_555
C14 C15 1_555 1_555

#END
