
#######################################################################
#
#                 Cambridge Crystallographic Data Centre
#                                CCDC 
#
#######################################################################
#
# If this CIF has been generated from an entry in the Cambridge 
# Structural Database, then it will include bibliographic, chemical, 
# crystal, experimental, refinement or atomic coordinate data resulting 
# from the CCDC's data processing and validation procedures.
#
#######################################################################

data_NURZUX
_chemical_formula_moiety         'C18 H22'
_chemical_name_systematic        4-n-hexylbiphenyl
_symmetry_cell_setting           monoclinic
_symmetry_space_group_name_H-M   'P 21/c'
_symmetry_Int_Tables_number      14
_space_group_name_Hall           '-P 2ybc'
loop_
_symmetry_equiv_pos_site_id
_symmetry_equiv_pos_as_xyz
1 x,y,z
2 -x,1/2+y,1/2-z
3 -x,-y,-z
4 x,1/2-y,1/2+z
_cell_length_a                   31.558(18)
_cell_length_b                   5.377(5)
_cell_length_c                   7.943(5)
_cell_angle_alpha                90
_cell_angle_beta                 93.216(19)
_cell_angle_gamma                90
_cell_volume                     1345.7
_exptl_crystal_colour            colorless
_exptl_crystal_description       Plate
_chemical_melting_point          '31 deg.C'
_cell_formula_units_Z            4
loop_
_atom_site_label
_atom_site_type_symbol
_atom_site_fract_x
_atom_site_fract_y
_atom_site_fract_z
C1 C 0.1715(2) 0.4995(18) 0.5639(8)
C2 C 0.1872(2) 0.310(2) 0.4692(10)
H1 H 0.1690 0.1785 0.4307
C3 C 0.2295(3) 0.309(2) 0.4296(11)
H2 H 0.2393 0.1811 0.3588
C4 C 0.2570(2) 0.4837(19) 0.4888(9)
C5 C 0.2412(2) 0.671(2) 0.5796(10)
H3 H 0.2597 0.7997 0.6187
C6 C 0.1992(2) 0.682(2) 0.6181(10)
H4 H 0.1894 0.8177 0.6824
C7 C 0.1259(2) 0.4991(17) 0.6072(8)
C8 C 0.0980(2) 0.321(2) 0.5494(9)
H5 H 0.1078 0.1920 0.4797
C9 C 0.0562(2) 0.324(2) 0.5892(10)
H6 H 0.0375 0.1978 0.5463
C10 C 0.0414(2) 0.5055(18) 0.6895(9)
H7 H 0.0126 0.5069 0.7182
C11 C 0.0689(2) 0.685(2) 0.7475(10)
H8 H 0.0589 0.8142 0.8166
C12 C 0.1107(2) 0.684(2) 0.7087(9)
H9 H 0.1293 0.8105 0.7517
C13 C 0.3030(3) 0.479(2) 0.4495(10)
H10 H 0.3192 0.5758 0.5375
H11 H 0.3059 0.5658 0.3409
C14 C 0.3235(3) 0.226(3) 0.4380(10)
H12 H 0.3204 0.1367 0.5457
H13 H 0.3080 0.1295 0.3478
C15 C 0.3698(3) 0.234(2) 0.4021(10)
H14 H 0.3728 0.3236 0.2946
H15 H 0.3851 0.3310 0.4923
C16 C 0.3906(2) -0.013(2) 0.3903(10)
H16 H 0.3752 -0.1115 0.3015
H17 H 0.3884 -0.1014 0.4986
C17 C 0.4372(3) 0.003(3) 0.3505(11)
H18 H 0.4395 0.0866 0.2403
H19 H 0.4526 0.1059 0.4374
C18 C 0.4582(3) -0.251(3) 0.3444(12)
H20 H 0.4878 -0.2316 0.3164
H21 H 0.4431 -0.3538 0.2584
H22 H 0.4571 -0.3321 0.4547
loop_
_geom_bond_atom_site_label_1
_geom_bond_atom_site_label_2
_geom_bond_site_symmetry_1
_geom_bond_site_symmetry_2
C1 C2 1_555 1_555
C2 H1 1_555 1_555
C3 C2 1_555 1_555
H2 C3 1_555 1_555
C4 C3 1_555 1_555
C5 C4 1_555 1_555
H3 C5 1_555 1_555
C6 C1 1_555 1_555
H4 C6 1_555 1_555
C7 C1 1_555 1_555
C8 C7 1_555 1_555
H5 C8 1_555 1_555
C9 C8 1_555 1_555
H6 C9 1_555 1_555
C10 C9 1_555 1_555
H7 C10 1_555 1_555
C11 C10 1_555 1_555
H8 C11 1_555 1_555
C12 C7 1_555 1_555
H9 C12 1_555 1_555
C13 C4 1_555 1_555
H10 C13 1_555 1_555
H11 C13 1_555 1_555
C14 C13 1_555 1_555
H12 C14 1_555 1_555
H13 C14 1_555 1_555
C15 C14 1_555 1_555
H14 C15 1_555 1_555
H15 C15 1_555 1_555
C16 C15 1_555 1_555
H16 C16 1_555 1_555
H17 C16 1_555 1_555
C17 C16 1_555 1_555
H18 C17 1_555 1_555
H19 C17 1_555 1_555
C18 C17 1_555 1_555
H20 C18 1_555 1_555
H21 C18 1_555 1_555
H22 C18 1_555 1_555
C5 C6 1_555 1_555
C11 C12 1_555 1_555

#END
