
#######################################################################
#
#                 Cambridge Crystallographic Data Centre
#                                CCDC 
#
#######################################################################
#
# If this CIF has been generated from an entry in the Cambridge 
# Structural Database, then it will include bibliographic, chemical, 
# crystal, experimental, refinement or atomic coordinate data resulting 
# from the CCDC's data processing and validation procedures.
#
#######################################################################

data_NUSFEN
_chemical_formula_moiety         'C20 H24 O5'
_chemical_name_systematic        
7,11-Dimethyl-4-(prop-1-en-2-yl)-15,17-dioxatricyclo[11.2.2.0^1,14^]heptadeca-7,10-diene-6,9,16-trione
_symmetry_cell_setting           triclinic
_symmetry_space_group_name_H-M   'P -1'
_symmetry_Int_Tables_number      2
_space_group_name_Hall           '-P 1'
loop_
_symmetry_equiv_pos_site_id
_symmetry_equiv_pos_as_xyz
1 x,y,z
2 -x,-y,-z
_cell_length_a                   6.2781(5)
_cell_length_b                   11.6000(7)
_cell_length_c                   12.4238(10)
_cell_angle_alpha                91.699(6)
_cell_angle_beta                 98.947(7)
_cell_angle_gamma                95.379(6)
_cell_volume                     888.93
_exptl_crystal_colour            colorless
_exptl_crystal_description       rod
_cell_formula_units_Z            2
loop_
_atom_site_label
_atom_site_type_symbol
_atom_site_fract_x
_atom_site_fract_y
_atom_site_fract_z
O1 O 0.01130(18) 0.35899(10) 0.47067(10)
O2 O -0.1965(2) 0.38470(11) 0.31154(11)
O3 O 0.31867(18) 0.49905(9) 0.38829(9)
O4 O 0.35512(19) 0.12034(10) 0.34383(9)
O5 O 0.32461(18) -0.01794(9) 0.11926(9)
C1 C -0.0184(3) 0.38149(14) 0.36315(16)
C2 C 0.1969(3) 0.39978(13) 0.32523(14)
C3 C 0.3575(3) 0.38318(13) 0.42062(13)
H1 H 0.4966 0.3511 0.4121
C4 C 0.2395(3) 0.34830(14) 0.51262(14)
H2 H 0.2899 0.4024 0.5776
C5 C 0.2609(3) 0.22332(14) 0.54421(14)
H3 H 0.1807 0.2068 0.6055
H4 H 0.1934 0.1705 0.4816
C6 C 0.4924(3) 0.19894(14) 0.57714(14)
C7 C 0.6084(3) 0.14947(14) 0.50991(14)
H5 H 0.7527 0.1376 0.5403
C8 C 0.5386(3) 0.11114(14) 0.39399(14)
C9 C 0.6989(3) 0.06134(13) 0.33731(14)
H6 H 0.8330 0.0462 0.3787
C10 C 0.6645(3) 0.03642(13) 0.23016(14)
C11 C 0.4613(3) 0.06102(14) 0.15530(13)
C12 C 0.4602(3) 0.18200(13) 0.11341(13)
H7 H 0.5518 0.1881 0.0554
H8 H 0.5280 0.2377 0.1737
C13 C 0.2365(3) 0.21848(13) 0.06774(13)
H9 H 0.1468 0.1465 0.0350
C14 C 0.1223(3) 0.26354(13) 0.15930(13)
H10 H 0.1304 0.2077 0.2182
H11 H -0.0327 0.2674 0.1300
C15 C 0.2210(3) 0.38402(13) 0.20793(13)
H12 H 0.3768 0.3940 0.2014
H13 H 0.1488 0.4444 0.1657
C16 C 0.5947(3) 0.23614(15) 0.69151(14)
H14 H 0.7453 0.2174 0.7039
H15 H 0.5144 0.1954 0.7430
H16 H 0.5912 0.3199 0.7025
C17 C 0.8230(3) -0.01992(15) 0.17266(15)
H17 H 0.9593 -0.0222 0.2228
H18 H 0.8500 0.0247 0.1095
H19 H 0.7634 -0.0991 0.1481
C18 C 0.2364(3) 0.30339(14) -0.02255(14)
C19 C 0.4119(3) 0.35978(15) -0.04850(15)
H20 H 0.3998 0.4134 -0.1049
H21 H 0.5506 0.3468 -0.0108
C20 C 0.0162(3) 0.32256(17) -0.08090(16)
H22 H -0.0577 0.3681 -0.0331
H23 H -0.0685 0.2476 -0.1008
H24 H 0.0307 0.3646 -0.1471
loop_
_geom_bond_atom_site_label_1
_geom_bond_atom_site_label_2
_geom_bond_site_symmetry_1
_geom_bond_site_symmetry_2
O1 C1 1_555 1_555
O2 C1 1_555 1_555
O3 C2 1_555 1_555
O4 C8 1_555 1_555
O5 C11 1_555 1_555
C1 C2 1_555 1_555
C2 C3 1_555 1_555
C3 O3 1_555 1_555
H1 C3 1_555 1_555
C4 O1 1_555 1_555
H2 C4 1_555 1_555
C5 C4 1_555 1_555
H3 C5 1_555 1_555
H4 C5 1_555 1_555
C6 C5 1_555 1_555
C7 C6 1_555 1_555
H5 C7 1_555 1_555
C8 C7 1_555 1_555
C9 C8 1_555 1_555
H6 C9 1_555 1_555
C10 C9 1_555 1_555
C11 C10 1_555 1_555
C12 C11 1_555 1_555
H7 C12 1_555 1_555
H8 C12 1_555 1_555
C13 C12 1_555 1_555
H9 C13 1_555 1_555
C14 C13 1_555 1_555
H10 C14 1_555 1_555
H11 C14 1_555 1_555
C15 C2 1_555 1_555
H12 C15 1_555 1_555
H13 C15 1_555 1_555
C16 C6 1_555 1_555
H14 C16 1_555 1_555
H15 C16 1_555 1_555
H16 C16 1_555 1_555
C17 C10 1_555 1_555
H17 C17 1_555 1_555
H18 C17 1_555 1_555
H19 C17 1_555 1_555
C18 C13 1_555 1_555
C19 C18 1_555 1_555
H20 C19 1_555 1_555
H21 C19 1_555 1_555
C20 C18 1_555 1_555
H22 C20 1_555 1_555
H23 C20 1_555 1_555
H24 C20 1_555 1_555
C3 C4 1_555 1_555
C14 C15 1_555 1_555

#END
