
#######################################################################
#
#                 Cambridge Crystallographic Data Centre
#                                CCDC 
#
#######################################################################
#
# If this CIF has been generated from an entry in the Cambridge 
# Structural Database, then it will include bibliographic, chemical, 
# crystal, experimental, refinement or atomic coordinate data resulting 
# from the CCDC's data processing and validation procedures.
#
#######################################################################

data_NUSRUQ
_chemical_formula_moiety         'C28 H19 Cl1 N4'
_chemical_name_systematic        
4-benzyl-6-(4-chlorophenyl)-2-imino-5-phenylcyclohex-3-ene-1,1,3-tricarbonitrile
_symmetry_cell_setting           monoclinic
_symmetry_space_group_name_H-M   'P 21/c'
_symmetry_Int_Tables_number      14
_space_group_name_Hall           '-P 2ybc'
loop_
_symmetry_equiv_pos_site_id
_symmetry_equiv_pos_as_xyz
1 x,y,z
2 -x,1/2+y,1/2-z
3 -x,-y,-z
4 x,1/2-y,1/2+z
_cell_length_a                   9.1603(19)
_cell_length_b                   18.484(4)
_cell_length_c                   14.556(3)
_cell_angle_alpha                90
_cell_angle_beta                 104.556(4)
_cell_angle_gamma                90
_cell_volume                     2385.5
_cell_formula_units_Z            4
loop_
_atom_site_label
_atom_site_type_symbol
_atom_site_fract_x
_atom_site_fract_y
_atom_site_fract_z
Cl1 Cl 0.38573(16) 0.33622(6) 0.56154(7)
N1 N 0.2734(4) 0.81259(17) 1.0350(2)
N2 N 0.5362(3) 0.67326(14) 1.03383(19)
N3 N 0.6737(3) 0.52063(15) 0.96201(19)
N4 N 0.5880(4) 0.69607(15) 0.7635(2)
C1 C 0.2980(3) 0.70912(13) 0.92130(19)
C2 C 0.4411(3) 0.66910(13) 0.95449(19)
C3 C 0.4771(3) 0.61780(13) 0.87989(17)
C4 C 0.3297(3) 0.57844(12) 0.82622(16)
H1 H 0.2879 0.5560 0.8750
C5 C 0.2120(3) 0.63438(13) 0.77491(17)
H2 H 0.2498 0.6553 0.7235
C6 C 0.1936(3) 0.69577(13) 0.83959(19)
C7 C 0.2797(4) 0.76726(17) 0.9830(2)
C8 C 0.5908(3) 0.56385(16) 0.92726(19)
C9 C 0.5422(3) 0.66158(15) 0.8139(2)
C10 C 0.0579(3) 0.74419(16) 0.8061(2)
H3 H -0.0330 0.7150 0.7913
H4 H 0.0515 0.7774 0.8565
C11 C 0.0677(4) 0.78664(16) 0.7193(2)
C12 C -0.0512(5) 0.7903(2) 0.6419(3)
H5 H -0.1392 0.7645 0.6395
C13 C -0.0376(7) 0.8354(3) 0.5628(3)
H6 H -0.1168 0.8389 0.5086
C14 C 0.0920(8) 0.8724(3) 0.5691(3)
H7 H 0.0981 0.9030 0.5195
C15 C 0.2109(6) 0.8669(2) 0.6430(3)
H8 H 0.3001 0.8912 0.6437
C16 C 0.1991(5) 0.82464(17) 0.7182(3)
H9 H 0.2816 0.8211 0.7704
C17 C 0.0663(3) 0.59506(14) 0.72944(18)
C18 C -0.0230(4) 0.56511(17) 0.7835(2)
H10 H 0.0021 0.5725 0.8488
C19 C -0.1484(4) 0.5246(2) 0.7419(3)
H11 H -0.2093 0.5062 0.7787
C20 C -0.1832(4) 0.5116(2) 0.6464(3)
H12 H -0.2653 0.4825 0.6187
C21 C -0.0977(4) 0.5412(2) 0.5918(3)
H13 H -0.1227 0.5328 0.5268
C22 C 0.0254(3) 0.58343(18) 0.6326(2)
H14 H 0.0816 0.6043 0.5945
C23 C 0.3537(3) 0.51789(13) 0.76150(16)
C24 C 0.3243(4) 0.44752(14) 0.78267(19)
H15 H 0.2962 0.4377 0.8385
C25 C 0.3360(4) 0.39127(16) 0.7222(2)
H16 H 0.3160 0.3440 0.7373
C26 C 0.3769(4) 0.40571(17) 0.6406(2)
C27 C 0.4086(3) 0.47492(18) 0.6183(2)
H17 H 0.4380 0.4841 0.5627
C28 C 0.3967(3) 0.53107(15) 0.67852(18)
H18 H 0.4178 0.5781 0.6632
H19 H 0.505(3) 0.7039(17) 1.072(2)
loop_
_geom_bond_atom_site_label_1
_geom_bond_atom_site_label_2
_geom_bond_site_symmetry_1
_geom_bond_site_symmetry_2
Cl1 C26 1_555 1_555
N1 C7 1_555 1_555
N2 C2 1_555 1_555
N3 C8 1_555 1_555
N4 C9 1_555 1_555
C1 C2 1_555 1_555
C2 C3 1_555 1_555
C3 C4 1_555 1_555
C4 H1 1_555 1_555
C5 C4 1_555 1_555
H2 C5 1_555 1_555
C6 C1 1_555 1_555
C7 C1 1_555 1_555
C8 C3 1_555 1_555
C9 C3 1_555 1_555
C10 C6 1_555 1_555
H3 C10 1_555 1_555
H4 C10 1_555 1_555
C11 C10 1_555 1_555
C12 C11 1_555 1_555
H5 C12 1_555 1_555
C13 C12 1_555 1_555
H6 C13 1_555 1_555
C14 C13 1_555 1_555
H7 C14 1_555 1_555
C15 C14 1_555 1_555
H8 C15 1_555 1_555
C16 C11 1_555 1_555
H9 C16 1_555 1_555
C17 C5 1_555 1_555
C18 C17 1_555 1_555
H10 C18 1_555 1_555
C19 C18 1_555 1_555
H11 C19 1_555 1_555
C20 C19 1_555 1_555
H12 C20 1_555 1_555
C21 C20 1_555 1_555
H13 C21 1_555 1_555
C22 C17 1_555 1_555
H14 C22 1_555 1_555
C23 C4 1_555 1_555
C24 C23 1_555 1_555
H15 C24 1_555 1_555
C25 C24 1_555 1_555
H16 C25 1_555 1_555
C26 C25 1_555 1_555
C27 C26 1_555 1_555
H17 C27 1_555 1_555
C28 C23 1_555 1_555
H18 C28 1_555 1_555
H19 N2 1_555 1_555
C5 C6 1_555 1_555
C15 C16 1_555 1_555
C21 C22 1_555 1_555
C27 C28 1_555 1_555

#END
