
#######################################################################
#
#                 Cambridge Crystallographic Data Centre
#                                CCDC 
#
#######################################################################
#
# If this CIF has been generated from an entry in the Cambridge 
# Structural Database, then it will include bibliographic, chemical, 
# crystal, experimental, refinement or atomic coordinate data resulting 
# from the CCDC's data processing and validation procedures.
#
#######################################################################

data_NUTROK
_chemical_formula_moiety         'C23 H20 Cl1 O3 P1'
_chemical_name_systematic        
'(R)-Methyl 2-((4-chlorophenyl)-(diphenylphosphoryl)methyl)acrylate'
_symmetry_cell_setting           monoclinic
_symmetry_space_group_name_H-M   'P 21'
_symmetry_Int_Tables_number      4
_space_group_name_Hall           'P 2yb'
loop_
_symmetry_equiv_pos_site_id
_symmetry_equiv_pos_as_xyz
1 x,y,z
2 -x,1/2+y,-z
_cell_length_a                   5.7884(6)
_cell_length_b                   19.672(2)
_cell_length_c                   9.4173(11)
_cell_angle_alpha                90
_cell_angle_beta                 103.446(6)
_cell_angle_gamma                90
_cell_volume                     1042.95
_exptl_crystal_colour            colorless
_exptl_crystal_description       block
_cell_formula_units_Z            2
loop_
_atom_site_label
_atom_site_type_symbol
_atom_site_fract_x
_atom_site_fract_y
_atom_site_fract_z
P1 P 0.11584(12) 0.39002(4) 0.29397(8)
C1 C 0.1850(6) 0.14734(16) 0.0772(4)
C2 C 0.0449(6) 0.15915(17) 0.1743(4)
H1 H -0.0782 0.1296 0.1799
C3 C 0.0907(5) 0.21570(16) 0.2634(3)
H2 H -0.0029 0.2241 0.3294
C4 C 0.2731(5) 0.26019(15) 0.2563(3)
C5 C 0.4078(6) 0.24702(17) 0.1558(4)
H3 H 0.5295 0.2766 0.1482
C6 C 0.3637(6) 0.19047(19) 0.0666(4)
H4 H 0.4558 0.1819 -0.0003
C7 C 0.3289(5) 0.32121(14) 0.3569(3)
H5 H 0.4851 0.3381 0.3496
C8 C 0.3495(5) 0.30214(16) 0.5152(3)
C9 C 0.1940(6) 0.3161(2) 0.5935(4)
H6 H 0.2194 0.3007 0.6893
H7 H 0.0588 0.3413 0.5529
C10 C 0.5673(7) 0.26179(19) 0.5787(4)
C11 C 0.7908(10) 0.2100(4) 0.7928(6)
H8 H 0.7483 0.1627 0.7876
H9 H 0.8396 0.2235 0.8933
H10 H 0.9190 0.2170 0.7456
C12 C 0.1376(5) 0.40904(14) 0.1095(3)
C13 C -0.0549(5) 0.39331(19) -0.0031(3)
H11 H -0.1867 0.3716 0.0167
C14 C -0.0510(7) 0.4099(2) -0.1452(4)
H12 H -0.1803 0.3990 -0.2208
C15 C 0.1408(7) 0.4421(2) -0.1756(4)
H13 H 0.1405 0.4539 -0.2713
C16 C 0.3325(7) 0.4571(2) -0.0658(4)
H14 H 0.4641 0.4784 -0.0868
C17 C 0.3319(6) 0.44054(19) 0.0784(4)
H15 H 0.4629 0.4508 0.1533
C18 C 0.2318(5) 0.46315(16) 0.4040(3)
C19 C 0.4652(6) 0.47099(18) 0.4804(4)
H16 H 0.5759 0.4373 0.4755
C20 C 0.5350(7) 0.5282(2) 0.5633(4)
H17 H 0.6920 0.5324 0.6152
C21 C 0.3781(7) 0.5787(2) 0.5707(4)
H18 H 0.4278 0.6172 0.6271
C22 C 0.1453(7) 0.5729(2) 0.4945(4)
H19 H 0.0377 0.6076 0.4977
C23 C 0.0721(6) 0.51474(17) 0.4128(4)
H20 H -0.0861 0.5103 0.3632
Cl1 Cl 0.1314(2) 0.07564(5) -0.03476(12)
O1 O -0.1328(3) 0.37458(11) 0.2990(2)
O2 O 0.7066(4) 0.24307(14) 0.5149(3)
O3 O 0.5875(6) 0.2501(2) 0.7204(3)
loop_
_geom_bond_atom_site_label_1
_geom_bond_atom_site_label_2
_geom_bond_site_symmetry_1
_geom_bond_site_symmetry_2
P1 C7 1_555 1_555
C1 C2 1_555 1_555
C2 H1 1_555 1_555
C3 C2 1_555 1_555
H2 C3 1_555 1_555
C4 C3 1_555 1_555
C5 C4 1_555 1_555
H3 C5 1_555 1_555
C6 C1 1_555 1_555
H4 C6 1_555 1_555
C7 C4 1_555 1_555
H5 C7 1_555 1_555
C8 C7 1_555 1_555
C9 C8 1_555 1_555
H6 C9 1_555 1_555
H7 C9 1_555 1_555
C10 C8 1_555 1_555
C11 H8 1_555 1_555
H9 C11 1_555 1_555
H10 C11 1_555 1_555
C12 P1 1_555 1_555
C13 C12 1_555 1_555
H11 C13 1_555 1_555
C14 C13 1_555 1_555
H12 C14 1_555 1_555
C15 C14 1_555 1_555
H13 C15 1_555 1_555
C16 C15 1_555 1_555
H14 C16 1_555 1_555
C17 C12 1_555 1_555
H15 C17 1_555 1_555
C18 P1 1_555 1_555
C19 C18 1_555 1_555
H16 C19 1_555 1_555
C20 C19 1_555 1_555
H17 C20 1_555 1_555
C21 C20 1_555 1_555
H18 C21 1_555 1_555
C22 C21 1_555 1_555
H19 C22 1_555 1_555
C23 C18 1_555 1_555
H20 C23 1_555 1_555
Cl1 C1 1_555 1_555
O1 P1 1_555 1_555
O2 C10 1_555 1_555
O3 C10 1_555 1_555
C5 C6 1_555 1_555
C11 O3 1_555 1_555
C16 C17 1_555 1_555
C22 C23 1_555 1_555

#END
