
#######################################################################
#
#                 Cambridge Crystallographic Data Centre
#                                CCDC 
#
#######################################################################
#
# If this CIF has been generated from an entry in the Cambridge 
# Structural Database, then it will include bibliographic, chemical, 
# crystal, experimental, refinement or atomic coordinate data resulting 
# from the CCDC's data processing and validation procedures.
#
#######################################################################

data_NUVCEO
_chemical_formula_moiety         'C16 H8 Br1 F3 O2 S1'
_chemical_name_systematic        
7-Bromo-4-phenyl-3-((trifluoromethyl)sulfanyl)-2H-chromen-2-one
_symmetry_cell_setting           monoclinic
_symmetry_space_group_name_H-M   'P 21/n'
_symmetry_Int_Tables_number      14
_space_group_name_Hall           '-P 2yn'
loop_
_symmetry_equiv_pos_site_id
_symmetry_equiv_pos_as_xyz
1 x,y,z
2 1/2-x,1/2+y,1/2-z
3 -x,-y,-z
4 1/2+x,1/2-y,1/2+z
_cell_length_a                   12.9202(2)
_cell_length_b                   7.94120(10)
_cell_length_c                   14.2105(2)
_cell_angle_alpha                90
_cell_angle_beta                 91.2584(11)
_cell_angle_gamma                90
_cell_volume                     1457.67
_cell_formula_units_Z            4
loop_
_atom_site_label
_atom_site_type_symbol
_atom_site_fract_x
_atom_site_fract_y
_atom_site_fract_z
Br1 Br 0.748267(19) 0.01605(4) 0.292355(17)
S1 S 1.31769(4) -0.33799(7) 0.54888(4)
F1 F 1.25577(12) -0.62013(19) 0.46755(11)
O1 O 1.01106(12) -0.2947(2) 0.50787(11)
F2 F 1.41130(13) -0.6172(2) 0.52765(11)
F3 F 1.37695(15) -0.4948(2) 0.39581(12)
O2 O 1.10648(14) -0.4405(2) 0.60858(11)
C1 C 0.8851(2) -0.0347(3) 0.33273(17)
C2 C 1.00059(18) -0.1858(3) 0.43357(15)
C3 C 1.28095(18) -0.0953(3) 0.37513(16)
C4 C 1.10597(18) -0.3446(3) 0.54337(15)
C5 C 1.18946(18) -0.1659(3) 0.42336(15)
C6 C 1.0673(2) -0.0006(3) 0.3172(2)
H1 H 1.1229 0.0495 0.2876
C7 C 1.3403(2) -0.5249(3) 0.48113(19)
C8 C 1.4524(2) 0.0349(3) 0.28397(19)
H2 H 1.5099 0.0777 0.2537
C9 C 1.29571(18) -0.1301(3) 0.27953(16)
H3 H 1.2482 -0.1964 0.2463
C10 C 0.89996(18) -0.1485(3) 0.40540(16)
H4 H 0.8440 -0.1985 0.4345
C11 C 1.19769(17) -0.2743(3) 0.49711(15)
C12 C 1.43766(19) 0.0707(3) 0.37785(18)
H5 H 1.4846 0.1390 0.4105
C13 C 0.9677(2) 0.0415(3) 0.28815(17)
H6 H 0.9563 0.1190 0.2400
C14 C 1.3525(2) 0.0048(3) 0.4238(2)
H7 H 1.3435 0.0278 0.4873
C15 C 1.08681(17) -0.1167(3) 0.38978(15)
C16 C 1.38147(19) -0.0653(4) 0.23463(16)
H8 H 1.3915 -0.0889 0.1714
loop_
_geom_bond_atom_site_label_1
_geom_bond_atom_site_label_2
_geom_bond_site_symmetry_1
_geom_bond_site_symmetry_2
Br1 C1 1_555 1_555
S1 C7 1_555 1_555
F1 C7 1_555 1_555
O1 C2 1_555 1_555
F2 C7 1_555 1_555
F3 C7 1_555 1_555
O2 C4 1_555 1_555
C1 C10 1_555 1_555
C2 C10 1_555 1_555
C3 C5 1_555 1_555
C4 O1 1_555 1_555
C5 C11 1_555 1_555
C6 H1 1_555 1_555
C8 H2 1_555 1_555
C9 C3 1_555 1_555
H3 C9 1_555 1_555
C10 H4 1_555 1_555
C11 S1 1_555 1_555
C12 C8 1_555 1_555
H5 C12 1_555 1_555
C13 C1 1_555 1_555
H6 C13 1_555 1_555
C14 C3 1_555 1_555
H7 C14 1_555 1_555
C15 C2 1_555 1_555
C16 C8 1_555 1_555
H8 C16 1_555 1_555
C4 C11 1_555 1_555
C5 C15 1_555 1_555
C6 C13 1_555 1_555
C6 C15 1_555 1_555
C9 C16 1_555 1_555
C12 C14 1_555 1_555

#END
