
#######################################################################
#
#                 Cambridge Crystallographic Data Centre
#                                CCDC 
#
#######################################################################
#
# If this CIF has been generated from an entry in the Cambridge 
# Structural Database, then it will include bibliographic, chemical, 
# crystal, experimental, refinement or atomic coordinate data resulting 
# from the CCDC's data processing and validation procedures.
#
#######################################################################

data_NUVDEP
_chemical_formula_moiety         'C23 H18 N3 1+,Cl1 1-'
_chemical_name_systematic        
'7-benzyl-6-phenylimidazo[1,2-a][1,8]naphthyridin-7-ium chloride unknown solvate'
_symmetry_cell_setting           monoclinic
_symmetry_space_group_name_H-M   'C 2/c'
_symmetry_Int_Tables_number      15
_space_group_name_Hall           '-C 2yn'
loop_
_symmetry_equiv_pos_site_id
_symmetry_equiv_pos_as_xyz
1 x,y,z
2 -x,y,1/2-z
3 1/2+x,1/2+y,z
4 1/2-x,1/2+y,1/2-z
5 -x,-y,-z
6 x,-y,1/2+z
7 1/2-x,1/2-y,-z
8 1/2+x,1/2-y,1/2+z
_cell_length_a                   15.156(3)
_cell_length_b                   11.359(3)
_cell_length_c                   21.942(4)
_cell_angle_alpha                90
_cell_angle_beta                 100.659(5)
_cell_angle_gamma                90
_cell_volume                     3712.29
_exptl_crystal_colour            colorless
_exptl_crystal_description       block
_cell_formula_units_Z            8
loop_
_atom_site_label
_atom_site_type_symbol
_atom_site_fract_x
_atom_site_fract_y
_atom_site_fract_z
N1 N 0.47747(13) 0.97305(17) 0.83937(9)
N2 N 0.28915(13) 1.13817(16) 0.68156(9)
C1 C 0.27739(16) 0.91365(19) 0.68326(11)
N3 N 0.37347(13) 1.04225(16) 0.75622(9)
C2 C 0.32046(16) 0.8211(2) 0.71503(11)
H1 H 0.3036 0.7437 0.7011
C3 C 0.38940(16) 0.8346(2) 0.76794(11)
C4 C 0.39222(17) 1.1613(2) 0.76624(12)
H2 H 0.4336 1.1952 0.7994
C5 C 0.33993(16) 1.2187(2) 0.71956(12)
H3 H 0.3383 1.3016 0.7137
C6 C 0.50037(17) 0.7637(2) 0.85198(11)
H4 H 0.5324 0.7011 0.8748
C7 C 0.43591(16) 0.7407(2) 0.80097(11)
H5 H 0.4227 0.6618 0.7880
C8 C 0.30862(16) 1.0285(2) 0.70442(11)
C9 C 0.11582(17) 0.9384(2) 0.63614(13)
H6 H 0.1088 0.9884 0.6696
C10 C 0.23502(17) 1.1720(2) 0.62134(11)
H7 H 0.2305 1.2589 0.6192
H8 H 0.1736 1.1402 0.6184
C11 C 0.19965(16) 0.8922(2) 0.63303(11)
C12 C 0.27332(17) 1.1282(2) 0.56707(11)
C13 C 0.51839(17) 0.8794(2) 0.86985(12)
H9 H 0.5624 0.8936 0.9059
C14 C 0.41510(16) 0.9474(2) 0.79006(11)
C15 C 0.20769(19) 0.8140(2) 0.58521(12)
H10 H 0.2640 0.7784 0.5838
C16 C 0.1340(2) 0.7884(3) 0.53991(13)
H11 H 0.1400 0.7359 0.5073
C17 C 0.36390(18) 1.1353(2) 0.56590(13)
H12 H 0.4038 1.1681 0.6002
C18 C 0.21656(19) 1.0813(2) 0.51621(12)
H13 H 0.1540 1.0764 0.5163
C19 C 0.0521(2) 0.8384(2) 0.54182(14)
H14 H 0.0022 0.8227 0.5097
C20 C 0.2492(2) 1.0416(3) 0.46546(13)
H15 H 0.2093 1.0097 0.4309
C21 C 0.3969(2) 1.0948(2) 0.51494(14)
H16 H 0.4594 1.0992 0.5146
C22 C 0.3396(2) 1.0482(3) 0.46483(14)
H17 H 0.3624 1.0206 0.4299
C23 C 0.04217(19) 0.9118(2) 0.59051(14)
H18 H -0.0150 0.9440 0.5927
Cl1 Cl 0.17587(4) 1.02144(5) 0.80850(3)
loop_
_geom_bond_atom_site_label_1
_geom_bond_atom_site_label_2
_geom_bond_site_symmetry_1
_geom_bond_site_symmetry_2
N1 C13 1_555 1_555
N2 C5 1_555 1_555
C1 C2 1_555 1_555
N3 C4 1_555 1_555
C2 H1 1_555 1_555
C3 C2 1_555 1_555
C4 H2 1_555 1_555
C5 C4 1_555 1_555
H3 C5 1_555 1_555
C6 H4 1_555 1_555
C7 C3 1_555 1_555
H5 C7 1_555 1_555
C8 N2 1_555 1_555
C9 H6 1_555 1_555
C10 N2 1_555 1_555
H7 C10 1_555 1_555
H8 C10 1_555 1_555
C11 C1 1_555 1_555
C12 C10 1_555 1_555
C13 C6 1_555 1_555
H9 C13 1_555 1_555
C14 N1 1_555 1_555
C15 C11 1_555 1_555
H10 C15 1_555 1_555
C16 C15 1_555 1_555
H11 C16 1_555 1_555
C17 C12 1_555 1_555
H12 C17 1_555 1_555
C18 C12 1_555 1_555
H13 C18 1_555 1_555
C19 C16 1_555 1_555
H14 C19 1_555 1_555
C20 C18 1_555 1_555
H15 C20 1_555 1_555
C21 C17 1_555 1_555
H16 C21 1_555 1_555
C22 C20 1_555 1_555
H17 C22 1_555 1_555
C23 C9 1_555 1_555
H18 C23 1_555 1_555
C1 C8 1_555 1_555
N3 C8 1_555 1_555
N3 C14 1_555 1_555
C3 C14 1_555 1_555
C6 C7 1_555 1_555
C9 C11 1_555 1_555
C19 C23 1_555 1_555
C21 C22 1_555 1_555

#END
