
#######################################################################
#
#                 Cambridge Crystallographic Data Centre
#                                CCDC 
#
#######################################################################
#
# If this CIF has been generated from an entry in the Cambridge 
# Structural Database, then it will include bibliographic, chemical, 
# crystal, experimental, refinement or atomic coordinate data resulting 
# from the CCDC's data processing and validation procedures.
#
#######################################################################

data_NUVVOR
_chemical_formula_moiety         'C16 H36 N1 1+,3(C2 I4),Br1 1-'
_chemical_name_systematic        
'N,N,N-tributylbutan-1-aminium bromide tetraiodoethene'
_symmetry_cell_setting           tetragonal
_symmetry_space_group_name_H-M   'I 4/m m m'
_symmetry_Int_Tables_number      139
_space_group_name_Hall           '-I 4 2'
loop_
_symmetry_equiv_pos_site_id
_symmetry_equiv_pos_as_xyz
1 x,y,z
2 -x,-y,z
3 -y,x,z
4 y,-x,z
5 -x,y,-z
6 x,-y,-z
7 y,x,-z
8 -y,-x,-z
9 1/2+x,1/2+y,1/2+z
10 1/2-x,1/2-y,1/2+z
11 1/2-y,1/2+x,1/2+z
12 1/2+y,1/2-x,1/2+z
13 1/2-x,1/2+y,1/2-z
14 1/2+x,1/2-y,1/2-z
15 1/2+y,1/2+x,1/2-z
16 1/2-y,1/2-x,1/2-z
17 -x,-y,-z
18 x,y,-z
19 y,-x,-z
20 -y,x,-z
21 x,-y,z
22 -x,y,z
23 -y,-x,z
24 y,x,z
25 1/2-x,1/2-y,1/2-z
26 1/2+x,1/2+y,1/2-z
27 1/2+y,1/2-x,1/2-z
28 1/2-y,1/2+x,1/2-z
29 1/2+x,1/2-y,1/2+z
30 1/2-x,1/2+y,1/2+z
31 1/2-y,1/2-x,1/2+z
32 1/2+y,1/2+x,1/2+z
_cell_length_a                   16.0167(7)
_cell_length_b                   16.0167(7)
_cell_length_c                   17.0905(15)
_cell_angle_alpha                90
_cell_angle_beta                 90
_cell_angle_gamma                90
_cell_volume                     4384.31
_cell_formula_units_Z            4
loop_
_atom_site_label
_atom_site_type_symbol
_atom_site_fract_x
_atom_site_fract_y
_atom_site_fract_z
C1 C 0.5000 0.0763(8) 0.1976(9)
H1 H 0.4501 0.0739 0.1634
C2 C 0.5000 0.1606(9) 0.2411(10)
H2 H 0.4500 0.1641 0.2750
C3 C 0.5000 0.2320(9) 0.1850(11)
H3 H 0.4501 0.2276 0.1511
C4 C 0.5000 0.3165(10) 0.2236(11)
N1 N 0.5000 0.0000 0.2500
C1A C 0.5000 -0.0763(8) 0.1976(9)
H1A H 0.5499 -0.0739 0.1634
C2A C 0.5000 -0.1606(9) 0.2411(10)
H2A H 0.5500 -0.1641 0.2750
C3A C 0.5000 -0.2320(9) 0.1850(11)
H3A H 0.5499 -0.2276 0.1511
C4A C 0.5000 -0.3165(10) 0.2236(11)
C1N C 0.5763(8) 0.0000 0.3024(9)
H1N H 0.5739 -0.0499 0.3366
C2N C 0.6606(9) 0.0000 0.2589(10)
H2N H 0.6641 -0.0500 0.2250
C3N C 0.7320(9) 0.0000 0.3150(11)
H3N H 0.7276 -0.0499 0.3489
C4N C 0.8165(10) 0.0000 0.2764(11)
C1O C 0.4237(8) 0.0000 0.3024(9)
H1O H 0.4261 0.0499 0.3366
C2O C 0.3394(9) 0.0000 0.2589(10)
H2O H 0.3359 0.0500 0.2250
C3O C 0.2680(9) 0.0000 0.3150(11)
H3O H 0.2724 0.0499 0.3489
C4O C 0.1835(10) 0.0000 0.2764(11)
H1T H 0.4501 -0.0739 0.1634
H2T H 0.4500 -0.1641 0.2750
H3T H 0.4501 -0.2276 0.1511
H1U H 0.5499 0.0739 0.1634
H2U H 0.5500 0.1641 0.2750
H3U H 0.5499 0.2276 0.1511
H1Z H 0.5739 0.0499 0.3366
H2Z H 0.6641 0.0500 0.2250
H3Z H 0.7276 0.0499 0.3489
H1AA H 0.4261 -0.0499 0.3366
H2AA H 0.3359 -0.0500 0.2250
H3AA H 0.2724 -0.0499 0.3489
C5 C 0.540(2) 0.5000 1.0000
I1 I 0.61130(6) 0.61130(6) 1.0000
C5A C 0.460(2) 0.5000 1.0000
I1A I 0.38870(6) 0.38870(6) 1.0000
C5B C 0.5000 0.540(2) 1.0000
I1B I 0.38870(6) 0.61130(6) 1.0000
C5C C 0.5000 0.460(2) 1.0000
I1C I 0.61130(6) 0.38870(6) 1.0000
C6 C 0.7437(11) 0.7814(10) 0.9720(12)
I2 I 0.64598(6) 0.87061(6) 1.0000
I3 I 0.76683(5) 0.76683(5) 0.85365(7)
C6F C 0.7814(10) 0.7437(11) 1.0280(12)
I2F I 0.87061(6) 0.64598(6) 1.0000
I3F I 0.76683(5) 0.76683(5) 1.14635(7)
C6Q C 0.7437(11) 0.7814(10) 1.0280(12)
C6W C 0.7814(10) 0.7437(11) 0.9720(12)
C7 C 0.970(2) 0.970(2) 1.0000
I4 I 1.0000 0.84340(10) 1.0000
C7A C 1.030(2) 1.030(2) 1.0000
I4A I 1.0000 1.15660(10) 1.0000
C7B C 1.030(2) 0.970(2) 1.0000
I4B I 1.15660(10) 1.0000 1.0000
C7C C 0.970(2) 1.030(2) 1.0000
I4C I 0.84340(10) 1.0000 1.0000
Br1 Br 0.0000 0.5000 0.5000
H4? H 0.4501 0.0739 0.1634
H5? H 0.4500 0.1641 0.2750
H6? H 0.4501 0.2276 0.1511
H7? H 0.5440 0.3184 0.2635
H8? H 0.4457 0.3263 0.2483
H9? H 0.5104 0.3597 0.1842
loop_
_geom_bond_atom_site_label_1
_geom_bond_atom_site_label_2
_geom_bond_site_symmetry_1
_geom_bond_site_symmetry_2
C1 H1 1_555 1_555
C2 C1 1_555 1_555
H2 C2 1_555 1_555
C3 C2 1_555 1_555
H3 C3 1_555 1_555
C4 C3 1_555 1_555
N1 C1 1_555 1_555
C5 I1 1_555 1_555
I1 C5B 1_555 1_555
C6 I2 1_555 1_555
I2 C6Q 1_555 1_555
I3 C6 1_555 1_555
C7 I4 1_555 1_555
I4 C7B 1_555 1_555
C1A N1 1_555 1_555
H1A C1A 1_555 1_555
C2A C1A 1_555 1_555
H2A C2A 1_555 1_555
C3A C2A 1_555 1_555
H3A C3A 1_555 1_555
C4A C3A 1_555 1_555
C1N N1 1_555 1_555
H1N C1N 1_555 1_555
C2N C1N 1_555 1_555
H2N C2N 1_555 1_555
C3N C2N 1_555 1_555
H3N C3N 1_555 1_555
C4N C3N 1_555 1_555
C1O N1 1_555 1_555
H1O C1O 1_555 1_555
C2O C1O 1_555 1_555
H2O C2O 1_555 1_555
C3O C2O 1_555 1_555
H3O C3O 1_555 1_555
C4O C3O 1_555 1_555
H1T C1A 1_555 1_555
H2T C2A 1_555 1_555
H3T C3A 1_555 1_555
H1U C1 1_555 1_555
H2U C2 1_555 1_555
H3U C3 1_555 1_555
H1Z C1N 1_555 1_555
H2Z C2N 1_555 1_555
H3Z C3N 1_555 1_555
H1AA C1O 1_555 1_555
H2AA C2O 1_555 1_555
H3AA C3O 1_555 1_555
C5A I1A 1_555 1_555
I1A C5C 1_555 1_555
C5B I1B 1_555 1_555
I1B C5A 1_555 1_555
C5C I1C 1_555 1_555
I1C C5 1_555 1_555
C6F I2F 1_555 1_555
I2F C6W 1_555 1_555
I3F C6F 1_555 1_555
C6Q I3F 1_555 1_555
C6W I3 1_555 1_555
C7A I4A 1_555 1_555
I4A C7C 1_555 1_555
C7B I4B 1_555 1_555
I4B C7A 1_555 1_555
C7C I4C 1_555 1_555
I4C C7 1_555 1_555

#END
