
#######################################################################
#
#                 Cambridge Crystallographic Data Centre
#                                CCDC 
#
#######################################################################
#
# If this CIF has been generated from an entry in the Cambridge 
# Structural Database, then it will include bibliographic, chemical, 
# crystal, experimental, refinement or atomic coordinate data resulting 
# from the CCDC's data processing and validation procedures.
#
#######################################################################

data_NUVXIM02
_chemical_formula_moiety         'C7 H9 N3 O1'
_chemical_name_systematic        4-aminobenzohydrazide
_symmetry_cell_setting           monoclinic
_symmetry_space_group_name_H-M   'P 21/n'
_symmetry_Int_Tables_number      14
_space_group_name_Hall           '-P 2yn'
loop_
_symmetry_equiv_pos_site_id
_symmetry_equiv_pos_as_xyz
1 x,y,z
2 1/2-x,1/2+y,1/2-z
3 -x,-y,-z
4 1/2+x,1/2-y,1/2+z
_cell_length_a                   5.4473(11)
_cell_length_b                   13.907(3)
_cell_length_c                   10.057(2)
_cell_angle_alpha                90
_cell_angle_beta                 102.69(2)
_cell_angle_gamma                90
_cell_volume                     743.264
_cell_formula_units_Z            4
loop_
_atom_site_label
_atom_site_type_symbol
_atom_site_fract_x
_atom_site_fract_y
_atom_site_fract_z
O1 O 0.1621(5) 0.50237(16) 0.2883(2)
N1 N 0.3173(5) 0.51365(18) 0.1022(3)
C1 C -0.2321(5) 0.8108(2) 0.0804(3)
N2 N 0.4695(5) 0.4314(2) 0.1337(3)
C2 C 0.1735(5) 0.5470(2) 0.1843(2)
C3 C 0.0355(5) 0.6372(2) 0.1434(3)
N3 N -0.3507(6) 0.8967(2) 0.0534(3)
C4 C 0.0808(5) 0.6976(2) 0.0409(3)
C5 C -0.1478(5) 0.6652(2) 0.2129(3)
C6 C -0.0485(5) 0.7826(2) 0.0098(3)
C7 C -0.2792(5) 0.7495(2) 0.1817(3)
H1 H -0.4018 0.7660 0.2290
H2 H 0.375(8) 0.379(3) 0.124(4)
H3 H -0.178(5) 0.624(2) 0.286(3)
H4 H -0.322(6) 0.934(2) -0.018(3)
H5 H -0.025(6) 0.823(2) -0.064(3)
H6 H 0.334(6) 0.550(2) 0.030(3)
H7 H 0.202(7) 0.675(3) -0.018(4)
H8 H 0.535(9) 0.433(3) 0.216(5)
H9 H -0.446(8) 0.922(3) 0.103(4)
loop_
_geom_bond_atom_site_label_1
_geom_bond_atom_site_label_2
_geom_bond_site_symmetry_1
_geom_bond_site_symmetry_2
O1 C2 1_555 1_555
N1 N2 1_555 1_555
C1 N3 1_555 1_555
N2 H2 1_555 1_555
C2 N1 1_555 1_555
C3 C2 1_555 1_555
N3 H4 1_555 1_555
C4 C3 1_555 1_555
C5 C3 1_555 1_555
C6 C1 1_555 1_555
C7 C1 1_555 1_555
H1 C7 1_555 1_555
H3 C5 1_555 1_555
H5 C6 1_555 1_555
H6 N1 1_555 1_555
H7 C4 1_555 1_555
H8 N2 1_555 1_555
H9 N3 1_555 1_555
C4 C6 1_555 1_555
C5 C7 1_555 1_555

#END
