
#######################################################################
#
#                 Cambridge Crystallographic Data Centre
#                                CCDC 
#
#######################################################################
#
# If this CIF has been generated from an entry in the Cambridge 
# Structural Database, then it will include bibliographic, chemical, 
# crystal, experimental, refinement or atomic coordinate data resulting 
# from the CCDC's data processing and validation procedures.
#
#######################################################################

data_NUWBAK
_chemical_formula_moiety         'C14 H11 N1 O2'
_chemical_name_systematic        2-(4-methoxyphenyl)-1,3-benzoxazole
_symmetry_cell_setting           monoclinic
_symmetry_space_group_name_H-M   'P 21/c'
_symmetry_Int_Tables_number      14
_space_group_name_Hall           '-P 2ybc'
loop_
_symmetry_equiv_pos_site_id
_symmetry_equiv_pos_as_xyz
1 x,y,z
2 -x,1/2+y,1/2-z
3 -x,-y,-z
4 x,1/2-y,1/2+z
_cell_length_a                   26.401(2)
_cell_length_b                   3.9063(3)
_cell_length_c                   21.6976(15)
_cell_angle_alpha                90
_cell_angle_beta                 105.161(4)
_cell_angle_gamma                90
_cell_volume                     2159.8
_exptl_crystal_colour            colorless
_exptl_crystal_description       needle
_cell_formula_units_Z            8
loop_
_atom_site_label
_atom_site_type_symbol
_atom_site_fract_x
_atom_site_fract_y
_atom_site_fract_z
C1 C 0.11664(11) 0.0252(7) 0.03643(12)
O1 O 0.0685(4) -0.133(5) 0.0176(6)
N1 N 0.1393(4) 0.096(3) -0.0085(4)
O2 O 0.21539(7) 0.3005(5) 0.29271(8)
C2 C 0.26817(10) 0.4341(8) 0.30964(12)
H1 H 0.2906 0.2885 0.2911
H2 H 0.2817 0.4369 0.3562
H3 H 0.2681 0.6675 0.2931
C3 C 0.19241(10) 0.2503(7) 0.22918(11)
C4 C 0.14396(10) 0.0862(7) 0.21402(12)
H4 H 0.1284 0.0225 0.2471
C5 C 0.11856(10) 0.0158(7) 0.15179(12)
H5 H 0.0855 -0.0964 0.1420
C6 C 0.14099(9) 0.1080(7) 0.10270(11)
C7 C 0.18884(10) 0.2777(7) 0.11811(12)
H6 H 0.2040 0.3471 0.0850
C8 C 0.21468(10) 0.3471(7) 0.18077(12)
H7 H 0.2476 0.4610 0.1907
C9 C 0.10004(11) -0.0396(7) -0.06564(13)
C10 C 0.05858(10) -0.1749(7) -0.04583(13)
C11 C 0.01523(11) -0.3204(8) -0.08675(14)
H8 H -0.0127 -0.4146 -0.0722
C12 C 0.01512(12) -0.3203(8) -0.15019(14)
H9 H -0.0142 -0.4138 -0.1807
C13 C 0.05662(13) -0.1873(8) -0.17080(13)
H10 H 0.0550 -0.1953 -0.2150
C14 C 0.10032(11) -0.0433(8) -0.12906(12)
H11 H 0.1287 0.0472 -0.1433
C15 C 0.38123(11) 0.6986(7) 0.20977(13)
O4 O 0.4314(3) 0.571(4) 0.2342(5)
N3 N 0.3590(5) 0.826(4) 0.2509(5)
O5 O 0.28101(7) 0.5476(5) -0.04989(8)
C16 C 0.22702(10) 0.6517(8) -0.07283(12)
H12 H 0.2059 0.5368 -0.0479
H13 H 0.2139 0.5890 -0.1179
H14 H 0.2245 0.9002 -0.0682
C17 C 0.30430(10) 0.6065(7) 0.01308(12)
C18 C 0.28040(10) 0.7765(7) 0.05382(12)
H15 H 0.2463 0.8704 0.0381
C19 C 0.30664(10) 0.8087(7) 0.11779(12)
H16 H 0.2900 0.9237 0.1458
C20 C 0.35669(10) 0.6762(7) 0.14173(12)
C21 C 0.38104(10) 0.5151(7) 0.09944(12)
H17 H 0.4157 0.4283 0.1147
C22 C 0.35529(10) 0.4818(7) 0.03618(12)
H18 H 0.3722 0.3732 0.0078
C23 C 0.44154(10) 0.6191(7) 0.29809(13)
C24 C 0.39863(11) 0.7768(7) 0.31087(13)
C25 C 0.39837(11) 0.8524(7) 0.37297(12)
H19 H 0.3689 0.9560 0.3828
C26 C 0.44270(11) 0.7710(8) 0.41991(13)
H20 H 0.4438 0.8215 0.4631
C27 C 0.48628(11) 0.6164(8) 0.40643(13)
H21 H 0.5163 0.5660 0.4403
C28 C 0.48628(10) 0.5358(8) 0.34435(13)
H22 H 0.5155 0.4291 0.3343
O3? O 0.1309(10) 0.061(8) -0.0203(10)
N2? N 0.0724(18) -0.145(18) 0.029(2)
O6? O 0.367(2) 0.817(16) 0.2633(16)
N4? N 0.4264(19) 0.55(2) 0.224(3)
loop_
_geom_bond_atom_site_label_1
_geom_bond_atom_site_label_2
_geom_bond_site_symmetry_1
_geom_bond_site_symmetry_2
C1 O1 1_555 1_555
O1 C10 1_555 1_555
N1 C1 1_555 1_555
O2 C2 1_555 1_555
C2 H1 1_555 1_555
H2 C2 1_555 1_555
H3 C2 1_555 1_555
C3 O2 1_555 1_555
C4 C3 1_555 1_555
H4 C4 1_555 1_555
C5 C4 1_555 1_555
H5 C5 1_555 1_555
C6 C1 1_555 1_555
C7 C6 1_555 1_555
H6 C7 1_555 1_555
C8 C3 1_555 1_555
H7 C8 1_555 1_555
C9 N1 1_555 1_555
C10 C9 1_555 1_555
C11 C10 1_555 1_555
H8 C11 1_555 1_555
C12 C11 1_555 1_555
H9 C12 1_555 1_555
C13 C12 1_555 1_555
H10 C13 1_555 1_555
C14 C9 1_555 1_555
H11 C14 1_555 1_555
C15 O4 1_555 1_555
O4 C23 1_555 1_555
N3 C15 1_555 1_555
O5 C16 1_555 1_555
C16 H12 1_555 1_555
H13 C16 1_555 1_555
H14 C16 1_555 1_555
C17 O5 1_555 1_555
C18 C17 1_555 1_555
H15 C18 1_555 1_555
C19 C18 1_555 1_555
H16 C19 1_555 1_555
C20 C15 1_555 1_555
C21 C20 1_555 1_555
H17 C21 1_555 1_555
C22 C17 1_555 1_555
H18 C22 1_555 1_555
C23 C24 1_555 1_555
C24 N3 1_555 1_555
C25 C24 1_555 1_555
H19 C25 1_555 1_555
C26 C25 1_555 1_555
H20 C26 1_555 1_555
C27 C26 1_555 1_555
H21 C27 1_555 1_555
C28 C23 1_555 1_555
H22 C28 1_555 1_555
C5 C6 1_555 1_555
C7 C8 1_555 1_555
C13 C14 1_555 1_555
C19 C20 1_555 1_555
C21 C22 1_555 1_555
C27 C28 1_555 1_555

#END
