
#######################################################################
#
#                 Cambridge Crystallographic Data Centre
#                                CCDC 
#
#######################################################################
#
# If this CIF has been generated from an entry in the Cambridge 
# Structural Database, then it will include bibliographic, chemical, 
# crystal, experimental, refinement or atomic coordinate data resulting 
# from the CCDC's data processing and validation procedures.
#
#######################################################################

data_NUXFOD
_chemical_formula_moiety         'C23 H24 Cl1 N1 O2'
_chemical_name_systematic        
(7-(4-chlorophenyl)-9-(hydroxymethyl)-8-azabicyclo[4.3.1]deca-2,4-dien-2-yl)(phenyl)methanol
_symmetry_cell_setting           monoclinic
_symmetry_space_group_name_H-M   'P 21'
_symmetry_Int_Tables_number      4
_space_group_name_Hall           'P 2yb'
loop_
_symmetry_equiv_pos_site_id
_symmetry_equiv_pos_as_xyz
1 x,y,z
2 -x,1/2+y,-z
_cell_length_a                   10.7267(11)
_cell_length_b                   8.0894(9)
_cell_length_c                   11.6346(13)
_cell_angle_alpha                90
_cell_angle_beta                 100.927(2)
_cell_angle_gamma                90
_cell_volume                     991.26
_exptl_crystal_description       block
_cell_formula_units_Z            2
loop_
_atom_site_label
_atom_site_type_symbol
_atom_site_fract_x
_atom_site_fract_y
_atom_site_fract_z
C1 C 1.44626(19) 0.3642(3) 0.40654(19)
C2 C 1.3555(2) 0.4319(3) 0.4606(2)
H1 H 1.3786 0.4938 0.5286
C3 C 1.22931(19) 0.4068(3) 0.41242(18)
H2 H 1.1676 0.4557 0.4476
C4 C 1.19180(17) 0.3114(2) 0.31358(15)
C5 C 1.28628(18) 0.2455(3) 0.26103(17)
H3 H 1.2639 0.1825 0.1934
C6 C 1.4137(2) 0.2717(3) 0.30747(19)
H4 H 1.4761 0.2267 0.2714
C7 C 1.05184(16) 0.2779(2) 0.27044(13)
H5 H 1.0083 0.3850 0.2645
C8 C 0.89514(15) 0.1706(2) 0.10571(14)
H6 H 0.8506 0.2769 0.1014
C9 C 0.83174(15) 0.0578(2) 0.18563(15)
H7 H 0.7401 0.0651 0.1557
C10 C 0.85432(18) 0.1363(3) 0.30769(16)
H8 H 0.8076 0.2395 0.3036
H9 H 0.8206 0.0633 0.3604
C11 C 0.99415(17) 0.1709(3) 0.35870(15)
H10 H 0.9965 0.2380 0.4292
C12 C 0.88614(16) 0.1121(2) -0.01969(15)
H11 H 0.8033 0.0638 -0.0480
H12 H 0.8967 0.2052 -0.0695
C13 C 1.07363(19) 0.0217(3) 0.39443(16)
H13 H 1.1428 0.0366 0.4551
C14 C 1.05793(19) -0.1301(3) 0.35031(18)
H14 H 1.1201 -0.2054 0.3830
C15 C 0.95965(18) -0.1972(3) 0.25954(18)
H15 H 0.9635 -0.3112 0.2504
C16 C 0.86435(15) -0.1239(2) 0.18671(16)
C17 C 0.77195(18) -0.2287(2) 0.09981(18)
H16 H 0.7718 -0.1867 0.0208
C18 C 0.63841(18) -0.2153(2) 0.12349(18)
C19 C 0.6111(2) -0.2747(3) 0.2269(2)
H17 H 0.6745 -0.3263 0.2804
C20 C 0.4914(3) -0.2588(4) 0.2522(3)
H18 H 0.4746 -0.2991 0.3225
C21 C 0.3979(2) -0.1842(4) 0.1746(4)
H19 H 0.3174 -0.1726 0.1922
C22 C 0.4214(2) -0.1265(4) 0.0717(3)
H20 H 0.3566 -0.0770 0.0183
C23 C 0.5433(2) -0.1412(3) 0.0452(2)
H21 H 0.5594 -0.1007 -0.0254
Cl1 Cl 1.60649(5) 0.39622(10) 0.46602(7)
N1 N 1.02936(12) 0.20586(16) 0.15306(11)
H22 H 1.0892 0.1860 0.1152
O1 O 0.80408(15) -0.39874(19) 0.10244(18)
H23 H 0.8688 -0.4114 0.0756
O2 O 0.98232(12) -0.00722(16) -0.02400(11)
H24 H 0.9506 -0.0893 -0.0593
loop_
_geom_bond_atom_site_label_1
_geom_bond_atom_site_label_2
_geom_bond_site_symmetry_1
_geom_bond_site_symmetry_2
C1 C2 1_555 1_555
C2 H1 1_555 1_555
C3 C2 1_555 1_555
H2 C3 1_555 1_555
C4 C3 1_555 1_555
C5 C4 1_555 1_555
H3 C5 1_555 1_555
C6 C1 1_555 1_555
H4 C6 1_555 1_555
C7 C4 1_555 1_555
H5 C7 1_555 1_555
C8 H6 1_555 1_555
C9 C8 1_555 1_555
H7 C9 1_555 1_555
C10 C9 1_555 1_555
H8 C10 1_555 1_555
H9 C10 1_555 1_555
C11 C7 1_555 1_555
H10 C11 1_555 1_555
C12 C8 1_555 1_555
H11 C12 1_555 1_555
H12 C12 1_555 1_555
C13 C11 1_555 1_555
H13 C13 1_555 1_555
C14 C13 1_555 1_555
H14 C14 1_555 1_555
C15 C14 1_555 1_555
H15 C15 1_555 1_555
C16 C9 1_555 1_555
C17 C16 1_555 1_555
H16 C17 1_555 1_555
C18 C17 1_555 1_555
C19 C18 1_555 1_555
H17 C19 1_555 1_555
C20 C19 1_555 1_555
H18 C20 1_555 1_555
C21 C20 1_555 1_555
H19 C21 1_555 1_555
C22 C21 1_555 1_555
H20 C22 1_555 1_555
C23 C18 1_555 1_555
H21 C23 1_555 1_555
Cl1 C1 1_555 1_555
N1 C7 1_555 1_555
H22 N1 1_555 1_555
O1 C17 1_555 1_555
H23 O1 1_555 1_555
O2 C12 1_555 1_555
H24 O2 1_555 1_555
C5 C6 1_555 1_555
C8 N1 1_555 1_555
C10 C11 1_555 1_555
C15 C16 1_555 1_555
C22 C23 1_555 1_555

#END
