
#######################################################################
#
#                 Cambridge Crystallographic Data Centre
#                                CCDC 
#
#######################################################################
#
# If this CIF has been generated from an entry in the Cambridge 
# Structural Database, then it will include bibliographic, chemical, 
# crystal, experimental, refinement or atomic coordinate data resulting 
# from the CCDC's data processing and validation procedures.
#
#######################################################################

data_NUZCIW
_chemical_name_common            '6-Gingerol oxime'
_chemical_formula_moiety         'C17 H27 N1 O4'
_chemical_name_systematic        
4-(5-Hydroxy-3-(hydroxyimino)decyl)-2-methoxyphenol
_symmetry_cell_setting           orthorhombic
_symmetry_space_group_name_H-M   'P 21 21 21'
_symmetry_Int_Tables_number      19
_space_group_name_Hall           'P 2ac 2ab'
loop_
_symmetry_equiv_pos_site_id
_symmetry_equiv_pos_as_xyz
1 x,y,z
2 1/2-x,-y,1/2+z
3 1/2+x,1/2-y,-z
4 -x,1/2+y,1/2-z
_cell_length_a                   5.24240(10)
_cell_length_b                   25.7792(4)
_cell_length_c                   25.9824(5)
_cell_angle_alpha                90
_cell_angle_beta                 90
_cell_angle_gamma                90
_cell_volume                     3511.39
_exptl_crystal_colour            colorless
_exptl_crystal_description       needle
_cell_formula_units_Z            8
loop_
_atom_site_label
_atom_site_type_symbol
_atom_site_fract_x
_atom_site_fract_y
_atom_site_fract_z
C1 C -0.4055(7) -0.67808(9) -0.54020(12)
C2 C -0.5687(6) -0.64027(9) -0.52128(11)
C3 C -0.5459(6) -0.58987(9) -0.53963(11)
H1 H -0.6541 -0.5644 -0.5268
C4 C -0.3670(5) -0.57639(9) -0.57649(11)
C5 C -0.2093(7) -0.61444(12) -0.59480(13)
H2 H -0.0877 -0.6064 -0.6196
C6 C -0.2296(7) -0.66562(12) -0.57634(14)
H3 H -0.1212 -0.6911 -0.5891
C7 C -0.3487(5) -0.52121(10) -0.59643(12)
H4 H -0.3756 -0.4973 -0.5681
H5 H -0.1785 -0.5153 -0.6098
C8 C -0.5410(5) -0.51015(9) -0.63812(10)
H6 H -0.5216 -0.5362 -0.6647
H7 H -0.7102 -0.5143 -0.6236
C9 C -0.5276(4) -0.45769(8) -0.66312(9)
C10 C -0.7210(4) -0.44296(8) -0.70279(8)
H8 H -0.7692 -0.4070 -0.6977
H9 H -0.8724 -0.4641 -0.6980
C11 C -0.6252(4) -0.44976(8) -0.75771(9)
H10 H -0.4646 -0.4306 -0.7610
C12 C -0.8117(6) -0.42802(10) -0.79731(10)
H11 H -0.7479 -0.4359 -0.8315
H12 H -0.9741 -0.4456 -0.7934
C13 C -0.8565(8) -0.36978(11) -0.79352(13)
H13 H -0.9308 -0.3620 -0.7602
H14 H -0.6933 -0.3522 -0.7954
C14 C -1.0293(8) -0.34855(12) -0.83506(14)
H15 H -1.1906 -0.3669 -0.8338
H16 H -0.9525 -0.3554 -0.8683
C15 C -1.0813(11) -0.29060(15) -0.83067(19)
H17 H -1.1611 -0.2836 -0.7977
H18 H -0.9205 -0.2720 -0.8317
C16 C -1.2502(11) -0.27094(17) -0.87275(19)
H19 H -1.2663 -0.2340 -0.8699
H20 H -1.4155 -0.2867 -0.8698
H21 H -1.1770 -0.2796 -0.9055
C17 C -0.9071(8) -0.62111(13) -0.46237(14)
H22 H -1.0199 -0.6387 -0.4391
H23 H -1.0048 -0.6049 -0.4891
H24 H -0.8127 -0.5952 -0.4439
N1 N -0.3455(3) -0.42771(6) -0.64902(7)
O1 O -0.4195(5) -0.72826(7) -0.52174(11)
H25 H -0.5696 -0.7368 -0.5189
O2 O -0.7358(5) -0.65728(7) -0.48435(10)
O3 O -0.3472(3) -0.37966(6) -0.67537(6)
H26 H -0.2319 -0.3612 -0.6644
O4 O -0.5730(4) -0.50348(6) -0.76781(7)
H27 H -0.7062 -0.5201 -0.7664
C18 C 0.1010(4) -0.10192(8) -0.70982(9)
C19 C 0.2739(4) -0.13790(8) -0.72956(9)
C20 C 0.2631(5) -0.18907(8) -0.71366(9)
H28 H 0.3791 -0.2130 -0.7267
C21 C 0.0790(5) -0.20522(8) -0.67802(9)
C22 C -0.0909(5) -0.16926(9) -0.65967(10)
H29 H -0.2159 -0.1795 -0.6364
C23 C -0.0797(5) -0.11778(9) -0.67522(10)
H30 H -0.1957 -0.0939 -0.6620
C24 C 0.0700(5) -0.26145(9) -0.66026(10)
H31 H -0.1025 -0.2698 -0.6496
H32 H 0.1134 -0.2838 -0.6890
C25 C 0.2496(4) -0.27220(8) -0.61635(9)
H33 H 0.2190 -0.2466 -0.5897
H34 H 0.4226 -0.2672 -0.6286
C26 C 0.2331(4) -0.32539(7) -0.59210(8)
C27 C 0.4227(4) -0.33953(7) -0.55093(8)
H35 H 0.5842 -0.3230 -0.5589
H36 H 0.4497 -0.3767 -0.5518
C28 C 0.3438(3) -0.32408(7) -0.49624(8)
H37 H 0.4832 -0.3335 -0.4729
C29 C 0.1034(4) -0.34978(8) -0.47684(8)
H38 H -0.0271 -0.3470 -0.5032
H39 H 0.0435 -0.3311 -0.4468
C30 C 0.1363(4) -0.40646(8) -0.46275(9)
H40 H 0.1947 -0.4253 -0.4928
H41 H 0.2668 -0.4094 -0.4364
C31 C -0.1068(5) -0.43111(10) -0.44322(12)
H42 H -0.1655 -0.4121 -0.4133
H43 H -0.2370 -0.4282 -0.4696
C32 C -0.0755(7) -0.48744(12) -0.42893(17)
H44 H -0.0146 -0.5062 -0.4589
H45 H 0.0544 -0.4901 -0.4025
C33 C -0.3140(8) -0.51321(14) -0.40979(19)
H46 H -0.3743 -0.4955 -0.3797
H47 H -0.2779 -0.5487 -0.4014
H48 H -0.4424 -0.5119 -0.4361
C34 C 0.6007(6) -0.15345(11) -0.79108(12)
H49 H 0.7059 -0.1717 -0.7668
H50 H 0.7070 -0.1350 -0.8149
H51 H 0.4965 -0.1778 -0.8095
N2 N 0.0588(3) -0.35558(6) -0.60944(6)
O5 O 0.0991(4) -0.05123(6) -0.72659(8)
H52 H 0.2440 -0.0426 -0.7348
O6 O 0.4429(4) -0.11796(6) -0.76455(8)
O7 O 0.0575(3) -0.40475(5) -0.58525(6)
H53 H -0.0604 -0.4222 -0.5967
O8 O 0.3062(3) -0.26904(5) -0.49261(6)
H54 H 0.4407 -0.2541 -0.4989
loop_
_geom_bond_atom_site_label_1
_geom_bond_atom_site_label_2
_geom_bond_site_symmetry_1
_geom_bond_site_symmetry_2
C1 C2 1_555 1_555
C2 C3 1_555 1_555
C3 H1 1_555 1_555
C4 C3 1_555 1_555
C5 C4 1_555 1_555
H2 C5 1_555 1_555
C6 C1 1_555 1_555
H3 C6 1_555 1_555
C7 C4 1_555 1_555
H4 C7 1_555 1_555
H5 C7 1_555 1_555
C8 C7 1_555 1_555
H6 C8 1_555 1_555
H7 C8 1_555 1_555
C9 C8 1_555 1_555
C10 C9 1_555 1_555
H8 C10 1_555 1_555
H9 C10 1_555 1_555
C11 C10 1_555 1_555
H10 C11 1_555 1_555
C12 C11 1_555 1_555
H11 C12 1_555 1_555
H12 C12 1_555 1_555
C13 C12 1_555 1_555
H13 C13 1_555 1_555
H14 C13 1_555 1_555
C14 C13 1_555 1_555
H15 C14 1_555 1_555
H16 C14 1_555 1_555
C15 C14 1_555 1_555
H17 C15 1_555 1_555
H18 C15 1_555 1_555
C16 C15 1_555 1_555
H19 C16 1_555 1_555
H20 C16 1_555 1_555
H21 C16 1_555 1_555
C17 H22 1_555 1_555
H23 C17 1_555 1_555
H24 C17 1_555 1_555
N1 C9 1_555 1_555
O1 C1 1_555 1_555
H25 O1 1_555 1_555
O2 C2 1_555 1_555
O3 N1 1_555 1_555
H26 O3 1_555 1_555
O4 C11 1_555 1_555
H27 O4 1_555 1_555
C18 C19 1_555 1_555
C19 C20 1_555 1_555
C20 H28 1_555 1_555
C21 C20 1_555 1_555
C22 C21 1_555 1_555
H29 C22 1_555 1_555
C23 C18 1_555 1_555
H30 C23 1_555 1_555
C24 C21 1_555 1_555
H31 C24 1_555 1_555
H32 C24 1_555 1_555
C25 C24 1_555 1_555
H33 C25 1_555 1_555
H34 C25 1_555 1_555
C26 C25 1_555 1_555
C27 C26 1_555 1_555
H35 C27 1_555 1_555
H36 C27 1_555 1_555
C28 C27 1_555 1_555
H37 C28 1_555 1_555
C29 C28 1_555 1_555
H38 C29 1_555 1_555
H39 C29 1_555 1_555
C30 C29 1_555 1_555
H40 C30 1_555 1_555
H41 C30 1_555 1_555
C31 C30 1_555 1_555
H42 C31 1_555 1_555
H43 C31 1_555 1_555
C32 C31 1_555 1_555
H44 C32 1_555 1_555
H45 C32 1_555 1_555
C33 C32 1_555 1_555
H46 C33 1_555 1_555
H47 C33 1_555 1_555
H48 C33 1_555 1_555
C34 H49 1_555 1_555
H50 C34 1_555 1_555
H51 C34 1_555 1_555
N2 C26 1_555 1_555
O5 C18 1_555 1_555
H52 O5 1_555 1_555
O6 C19 1_555 1_555
O7 N2 1_555 1_555
H53 O7 1_555 1_555
O8 C28 1_555 1_555
H54 O8 1_555 1_555
C5 C6 1_555 1_555
C17 O2 1_555 1_555
C22 C23 1_555 1_555
C34 O6 1_555 1_555

#END
