
#######################################################################
#
#                 Cambridge Crystallographic Data Centre
#                                CCDC 
#
#######################################################################
#
# If this CIF has been generated from an entry in the Cambridge 
# Structural Database, then it will include bibliographic, chemical, 
# crystal, experimental, refinement or atomic coordinate data resulting 
# from the CCDC's data processing and validation procedures.
#
#######################################################################

data_NUZKUQ
_chemical_formula_moiety         'C19 H16 Cl1 N1 O5'
_chemical_name_systematic        
'methyl 3-(2-chlorophenyl)-2-((2-(2-nitrovinyl)phenoxy)methyl)acrylate'
_symmetry_cell_setting           monoclinic
_symmetry_space_group_name_H-M   'P 21/n'
_symmetry_Int_Tables_number      14
_space_group_name_Hall           '-P 2yn'
loop_
_symmetry_equiv_pos_site_id
_symmetry_equiv_pos_as_xyz
1 x,y,z
2 1/2-x,1/2+y,1/2-z
3 -x,-y,-z
4 1/2+x,1/2-y,1/2+z
_cell_length_a                   9.0152(3)
_cell_length_b                   13.6579(4)
_cell_length_c                   14.6366(4)
_cell_angle_alpha                90
_cell_angle_beta                 102.1760(10)
_cell_angle_gamma                90
_cell_volume                     1761.64
_exptl_crystal_colour            colorless
_exptl_crystal_description       block
_cell_formula_units_Z            4
loop_
_atom_site_label
_atom_site_type_symbol
_atom_site_fract_x
_atom_site_fract_y
_atom_site_fract_z
Cl1 Cl 0.94245(6) 0.33362(3) 1.09845(3)
O1 O 1.02396(17) 0.69069(14) 0.66665(11)
O2 O 0.88624(18) 0.72882(13) 0.53405(12)
O3 O 0.63790(11) 0.47698(8) 0.70425(7)
O4 O 0.81629(15) 0.27705(11) 0.67330(8)
O5 O 1.02681(12) 0.29776(9) 0.78215(8)
N1 N 0.90607(17) 0.68625(11) 0.60846(11)
C1 C 0.78561(18) 0.62664(12) 0.63151(11)
H1 H 0.8059 0.5842 0.6823
C2 C 0.64741(18) 0.63313(11) 0.57985(10)
H2 H 0.6373 0.6754 0.5291
C3 C 0.50814(17) 0.58452(11) 0.58984(9)
C4 C 0.3720(2) 0.61704(14) 0.53395(11)
H3 H 0.3738 0.6682 0.4923
C5 C 0.2351(2) 0.57515(15) 0.53901(13)
H4 H 0.1456 0.5985 0.5018
C6 C 0.2317(2) 0.49857(15) 0.59942(13)
H5 H 0.1392 0.4702 0.6029
C7 C 0.36441(18) 0.46297(13) 0.65535(11)
H6 H 0.3610 0.4105 0.6953
C8 C 0.50191(17) 0.50605(11) 0.65131(9)
C9 C 0.64005(16) 0.39327(11) 0.76435(10)
H7 H 0.5931 0.3375 0.7285
H8 H 0.5844 0.4074 0.8127
C10 C 0.80192(16) 0.37129(10) 0.80709(9)
C11 C 0.88048(18) 0.31119(11) 0.74673(10)
C12 C 1.1079(2) 0.23635(15) 0.72892(14)
H9 H 1.2107 0.2281 0.7627
H10 H 1.1078 0.2666 0.6697
H11 H 1.0593 0.1736 0.7190
C13 C 0.87143(16) 0.39681(10) 0.89424(9)
H12 H 0.9701 0.3744 0.9152
C14 C 0.80700(16) 0.45658(11) 0.95956(10)
C15 C 0.72385(19) 0.54180(12) 0.93057(11)
H13 H 0.7068 0.5599 0.8680
C16 C 0.6666(2) 0.59956(14) 0.99228(13)
H14 H 0.6118 0.6558 0.9713
C17 C 0.6908(2) 0.57362(15) 1.08512(13)
H15 H 0.6509 0.6120 1.1266
C18 C 0.7739(2) 0.49116(14) 1.11704(11)
H16 H 0.7907 0.4740 1.1799
C19 C 0.83196(18) 0.43422(11) 1.05485(10)
loop_
_geom_bond_atom_site_label_1
_geom_bond_atom_site_label_2
_geom_bond_site_symmetry_1
_geom_bond_site_symmetry_2
Cl1 C19 1_555 1_555
O1 N1 1_555 1_555
O2 N1 1_555 1_555
O3 C8 1_555 1_555
O4 C11 1_555 1_555
O5 C11 1_555 1_555
N1 C1 1_555 1_555
C1 H1 1_555 1_555
C2 C1 1_555 1_555
H2 C2 1_555 1_555
C3 C2 1_555 1_555
C4 C3 1_555 1_555
H3 C4 1_555 1_555
C5 C4 1_555 1_555
H4 C5 1_555 1_555
C6 C5 1_555 1_555
H5 C6 1_555 1_555
C7 C6 1_555 1_555
H6 C7 1_555 1_555
C8 C3 1_555 1_555
C9 O3 1_555 1_555
H7 C9 1_555 1_555
H8 C9 1_555 1_555
C10 C9 1_555 1_555
C11 C10 1_555 1_555
C12 O5 1_555 1_555
H9 C12 1_555 1_555
H10 C12 1_555 1_555
H11 C12 1_555 1_555
C13 C10 1_555 1_555
H12 C13 1_555 1_555
C14 C13 1_555 1_555
C15 C14 1_555 1_555
H13 C15 1_555 1_555
C16 C15 1_555 1_555
H14 C16 1_555 1_555
C17 C16 1_555 1_555
H15 C17 1_555 1_555
C18 C17 1_555 1_555
H16 C18 1_555 1_555
C19 C14 1_555 1_555
C7 C8 1_555 1_555
C18 C19 1_555 1_555

#END
