
#######################################################################
#
#                 Cambridge Crystallographic Data Centre
#                                CCDC 
#
#######################################################################
#
# If this CIF has been generated from an entry in the Cambridge 
# Structural Database, then it will include bibliographic, chemical, 
# crystal, experimental, refinement or atomic coordinate data resulting 
# from the CCDC's data processing and validation procedures.
#
#######################################################################

data_NUZPON
_chemical_formula_moiety         'C18 H22 N2 O3'
_chemical_name_systematic        
N-(3-Morpholinopropyl)-3-hydroxy-2-naphthamide
_symmetry_cell_setting           orthorhombic
_symmetry_space_group_name_H-M   'P 21 21 21'
_symmetry_Int_Tables_number      19
_space_group_name_Hall           'P 2ac 2ab'
loop_
_symmetry_equiv_pos_site_id
_symmetry_equiv_pos_as_xyz
1 x,y,z
2 1/2-x,-y,1/2+z
3 1/2+x,1/2-y,-z
4 -x,1/2+y,1/2-z
_cell_length_a                   10.540(3)
_cell_length_b                   16.745(6)
_cell_length_c                   9.376(3)
_cell_angle_alpha                90
_cell_angle_beta                 90
_cell_angle_gamma                90
_cell_volume                     1654.79
_exptl_crystal_colour            'pale yellow'
_exptl_crystal_description       needle
_chemical_melting_point          '416-417 K'
_cell_formula_units_Z            4
_exptl_crystal_recrystallization_method toluene
loop_
_atom_site_label
_atom_site_type_symbol
_atom_site_fract_x
_atom_site_fract_y
_atom_site_fract_z
O1 O -0.5159(3) 0.0938(2) 0.2522(4)
O2 O -0.3627(3) 0.1955(2) 0.1483(4)
O3 O 0.1453(3) -0.0635(2) 0.2488(4)
N1 N -0.1633(3) 0.1564(2) 0.0963(5)
N2 N 0.0817(3) 0.0938(2) 0.1517(4)
C1 C -0.4417(3) 0.0360(3) 0.1978(4)
C2 C -0.4780(4) -0.0417(3) 0.2087(4)
C3 C -0.4067(4) -0.1043(3) 0.1469(4)
C4 C -0.4437(5) -0.1853(3) 0.1515(5)
C5 C -0.3765(5) -0.2423(3) 0.0859(6)
C6 C -0.2641(5) -0.2232(3) 0.0108(6)
C7 C -0.2235(4) -0.1462(3) 0.0063(6)
C8 C -0.2930(3) -0.0846(3) 0.0734(4)
C9 C -0.2557(4) -0.0046(3) 0.0664(4)
C10 C -0.3246(3) 0.0561(3) 0.1276(4)
C11 C -0.2849(4) 0.1416(3) 0.1238(5)
C12 C -0.1068(4) 0.2366(3) 0.0948(6)
C13 C 0.0134(5) 0.2371(3) 0.1842(6)
C14 C 0.1144(4) 0.1787(3) 0.1345(6)
C15 C 0.0748(5) 0.0706(3) 0.3021(5)
C16 C 0.0517(5) -0.0172(3) 0.3163(6)
C17 C 0.1499(5) -0.0426(3) 0.1024(6)
C18 C 0.1783(4) 0.0439(3) 0.0825(5)
H1 H -0.477(5) 0.143(3) 0.226(7)
H2 H -0.5552 -0.0545 0.2602
H3 H -0.5197 -0.2001 0.2034
H4 H -0.4050 -0.2974 0.0899
H5 H -0.2164 -0.2648 -0.0371
H6 H -0.1456 -0.1334 -0.0438
H7 H -0.1780 0.0087 0.0165
H8 H -0.113(4) 0.116(3) 0.087(5)
H9 H -0.0864 0.2514 -0.0025
H10 H -0.1670 0.2746 0.1339
H11 H 0.0490 0.2905 0.1814
H12 H -0.0093 0.2238 0.2817
H13 H 0.1912 0.1889 0.1885
H14 H 0.1303 0.1884 0.0341
H15 H 0.1542 0.0839 0.3486
H16 H 0.0059 0.0994 0.3476
H17 H -0.0299 -0.0297 0.2737
H18 H 0.0501 -0.0309 0.4167
H19 H 0.2156 -0.0738 0.0561
H20 H 0.0685 -0.0544 0.0591
H21 H 0.1800 0.0559 -0.0188
H22 H 0.2606 0.0558 0.1239
loop_
_geom_bond_atom_site_label_1
_geom_bond_atom_site_label_2
_geom_bond_site_symmetry_1
_geom_bond_site_symmetry_2
O1 C1 1_555 1_555
O2 C11 1_555 1_555
O3 C16 1_555 1_555
N1 C11 1_555 1_555
N2 C14 1_555 1_555
C1 C2 1_555 1_555
C2 C3 1_555 1_555
C3 C4 1_555 1_555
C4 C5 1_555 1_555
C5 C6 1_555 1_555
C6 C7 1_555 1_555
C7 C8 1_555 1_555
C8 C3 1_555 1_555
C9 C8 1_555 1_555
C10 C1 1_555 1_555
C11 C10 1_555 1_555
C12 N1 1_555 1_555
C13 C12 1_555 1_555
C14 C13 1_555 1_555
C15 N2 1_555 1_555
C16 C15 1_555 1_555
C17 O3 1_555 1_555
C18 N2 1_555 1_555
H1 O1 1_555 1_555
H2 C2 1_555 1_555
H3 C4 1_555 1_555
H4 C5 1_555 1_555
H5 C6 1_555 1_555
H6 C7 1_555 1_555
H7 C9 1_555 1_555
H8 N1 1_555 1_555
H9 C12 1_555 1_555
H10 C12 1_555 1_555
H11 C13 1_555 1_555
H12 C13 1_555 1_555
H13 C14 1_555 1_555
H14 C14 1_555 1_555
H15 C15 1_555 1_555
H16 C15 1_555 1_555
H17 C16 1_555 1_555
H18 C16 1_555 1_555
H19 C17 1_555 1_555
H20 C17 1_555 1_555
H21 C18 1_555 1_555
H22 C18 1_555 1_555
C9 C10 1_555 1_555
C17 C18 1_555 1_555

#END
