
#######################################################################
#
#                 Cambridge Crystallographic Data Centre
#                                CCDC 
#
#######################################################################
#
# If this CIF has been generated from an entry in the Cambridge 
# Structural Database, then it will include bibliographic, chemical, 
# crystal, experimental, refinement or atomic coordinate data resulting 
# from the CCDC's data processing and validation procedures.
#
#######################################################################

data_NUZWAH
_chemical_name_common            'Ligulactone B'
_chemical_formula_moiety         'C19 H24 O7'
_chemical_name_systematic        
"1,4a',5'-Trimethyl-2',3-dioxohexahydrospiro[4,6-dioxabicyclo[3.1.0]hexane-2,3'-indeno[3a,4-b]oxiren]-4'-yl 2-methylpropanoate"
_symmetry_cell_setting           orthorhombic
_symmetry_space_group_name_H-M   'P 21 21 21'
_symmetry_Int_Tables_number      19
_space_group_name_Hall           'P 2ac 2ab'
loop_
_symmetry_equiv_pos_site_id
_symmetry_equiv_pos_as_xyz
1 x,y,z
2 1/2-x,-y,1/2+z
3 -x,1/2+y,1/2-z
4 1/2+x,1/2-y,-z
_cell_length_a                   9.421(2)
_cell_length_b                   9.814(2)
_cell_length_c                   20.458(5)
_cell_angle_alpha                90
_cell_angle_beta                 90
_cell_angle_gamma                90
_cell_volume                     1891.5
_exptl_crystal_colour            colorless
_exptl_crystal_description       block
_cell_formula_units_Z            4
loop_
_atom_site_label
_atom_site_type_symbol
_atom_site_fract_x
_atom_site_fract_y
_atom_site_fract_z
C1 C 0.5866(3) 0.4149(3) 1.05676(12)
H1 H 0.5002 0.3602 1.0519
C2 C 0.6938(4) 0.3624(4) 1.10431(13)
H2 H 0.7042 0.2648 1.0984
H3 H 0.6597 0.3781 1.1484
C3 C 0.8376(4) 0.4299(4) 1.09618(11)
H4 H 0.9069 0.3833 1.1232
H5 H 0.8319 0.5238 1.1108
C4 C 0.8862(3) 0.4262(3) 1.02420(11)
H6 H 0.8716 0.3324 1.0092
C5 C 0.7889(2) 0.5169(2) 0.98143(9)
C6 C 0.7975(2) 0.4706(2) 0.90806(9)
H7 H 0.8256 0.3745 0.9067
C7 C 0.6485(2) 0.4848(2) 0.87661(9)
C8 C 0.6101(3) 0.3622(3) 0.83329(13)
C9 C 0.5463(3) 0.4847(3) 0.93604(11)
C10 C 0.6341(3) 0.4899(2) 0.99734(9)
C11 C 0.6171(3) 0.6065(3) 0.83179(11)
C12 C 0.5550(4) 0.5476(4) 0.77328(13)
H8 H 0.4810 0.5980 0.7499
C13 C 0.5932(4) 0.7459(3) 0.85574(14)
H9 H 0.5278 0.7438 0.8917
H10 H 0.5546 0.8007 0.8212
H11 H 0.6817 0.7842 0.8700
C14 C 0.8198(3) 0.6691(3) 0.99005(12)
H12 H 0.8179 0.6916 1.0357
H13 H 0.7492 0.7213 0.9674
H14 H 0.9119 0.6896 0.9725
C15 C 1.0441(3) 0.4550(4) 1.01665(16)
H15 H 1.0975 0.3893 1.0413
H16 H 1.0647 0.5448 1.0326
H17 H 1.0699 0.4490 0.9713
C16 C 0.9685(3) 0.4832(3) 0.82377(11)
C17 C 1.0638(3) 0.5785(3) 0.78635(14)
H18 H 0.9993 0.6443 0.7660
C18 C 1.1593(4) 0.6629(5) 0.82871(19)
H19 H 1.2202 0.7173 0.8017
H20 H 1.2159 0.6040 0.8556
H21 H 1.1028 0.7213 0.8560
C19 C 1.1346(4) 0.5070(5) 0.7299(2)
H22 H 1.0639 0.4630 0.7035
H23 H 1.1998 0.4400 0.7463
H24 H 1.1852 0.5723 0.7039
O1 O 0.5689(2) 0.5584(2) 1.05198(8)
O2 O 0.4197(2) 0.4805(3) 0.93256(9)
O3 O 0.90084(17) 0.54891(16) 0.87324(7)
O4 O 0.9489(3) 0.3666(2) 0.81217(12)
O5 O 0.6954(2) 0.5937(2) 0.77023(8)
O6 O 0.5460(3) 0.4054(3) 0.77731(9)
O7 O 0.6285(3) 0.2453(2) 0.84531(10)
loop_
_geom_bond_atom_site_label_1
_geom_bond_atom_site_label_2
_geom_bond_site_symmetry_1
_geom_bond_site_symmetry_2
C1 H1 1_555 1_555
C2 C1 1_555 1_555
H2 C2 1_555 1_555
H3 C2 1_555 1_555
C3 C2 1_555 1_555
H4 C3 1_555 1_555
H5 C3 1_555 1_555
C4 C3 1_555 1_555
H6 C4 1_555 1_555
C5 C4 1_555 1_555
C6 C5 1_555 1_555
H7 C6 1_555 1_555
C7 C6 1_555 1_555
C8 C7 1_555 1_555
C9 C7 1_555 1_555
C10 C1 1_555 1_555
C11 C7 1_555 1_555
C12 C11 1_555 1_555
H8 C12 1_555 1_555
C13 C11 1_555 1_555
H9 C13 1_555 1_555
H10 C13 1_555 1_555
H11 C13 1_555 1_555
C14 C5 1_555 1_555
H12 C14 1_555 1_555
H13 C14 1_555 1_555
H14 C14 1_555 1_555
C15 C4 1_555 1_555
H15 C15 1_555 1_555
H16 C15 1_555 1_555
H17 C15 1_555 1_555
C16 C17 1_555 1_555
C17 H18 1_555 1_555
C18 C17 1_555 1_555
H19 C18 1_555 1_555
H20 C18 1_555 1_555
H21 C18 1_555 1_555
C19 C17 1_555 1_555
H22 C19 1_555 1_555
H23 C19 1_555 1_555
H24 C19 1_555 1_555
O1 C1 1_555 1_555
O2 C9 1_555 1_555
O3 C6 1_555 1_555
O4 C16 1_555 1_555
O5 C11 1_555 1_555
O6 C8 1_555 1_555
O7 C8 1_555 1_555
C5 C10 1_555 1_555
C9 C10 1_555 1_555
C10 O1 1_555 1_555
C12 O5 1_555 1_555
C12 O6 1_555 1_555
C16 O3 1_555 1_555

#END
