
#######################################################################
#
#                 Cambridge Crystallographic Data Centre
#                                CCDC 
#
#######################################################################
#
# If this CIF has been generated from an entry in the Cambridge 
# Structural Database, then it will include bibliographic, chemical, 
# crystal, experimental, refinement or atomic coordinate data resulting 
# from the CCDC's data processing and validation procedures.
#
#######################################################################

data_OBAKOT
_chemical_formula_moiety         'C24 H26 N2 O5 S1'
_chemical_name_systematic        
"Methyl 5'-isopropyl-4'-methylene-1'-((4-methylphenyl)sulfonyl)-3-oxospiro[indole-2,3'-pyrrolidine]-1(3H)-carboxylate"
_symmetry_cell_setting           monoclinic
_symmetry_space_group_name_H-M   'P 21/n'
_symmetry_Int_Tables_number      14
_space_group_name_Hall           '-P 2yn'
loop_
_symmetry_equiv_pos_site_id
_symmetry_equiv_pos_as_xyz
1 x,y,z
2 1/2-x,1/2+y,1/2-z
3 -x,-y,-z
4 1/2+x,1/2-y,1/2+z
_cell_length_a                   6.5965(18)
_cell_length_b                   31.133(9)
_cell_length_c                   11.021(3)
_cell_angle_alpha                90
_cell_angle_beta                 100.454(2)
_cell_angle_gamma                90
_cell_volume                     2225.8
_exptl_crystal_colour            colorless
_exptl_crystal_description       block
_cell_formula_units_Z            4
loop_
_atom_site_label
_atom_site_type_symbol
_atom_site_fract_x
_atom_site_fract_y
_atom_site_fract_z
C1 C 0.3397(4) 0.18076(8) 0.5582(2)
C2 C 0.3067(4) 0.22653(8) 0.5708(2)
C3 C 0.1367(4) 0.25152(9) 0.5224(3)
H1 H 0.0216 0.2393 0.4732
C4 C 0.1424(5) 0.29454(9) 0.5487(3)
H2 H 0.0306 0.3119 0.5170
C5 C 0.3141(5) 0.31217(9) 0.6222(3)
H3 H 0.3150 0.3415 0.6386
C6 C 0.4847(5) 0.28808(8) 0.6726(3)
H4 H 0.5983 0.3005 0.7227
C7 C 0.4786(4) 0.24434(8) 0.6449(2)
C8 C 0.5583(4) 0.16988(7) 0.6302(2)
C9 C 0.6941(4) 0.15232(8) 0.5443(2)
C10 C 0.7929(4) 0.11025(8) 0.5932(2)
H5 H 0.9430 0.1138 0.6095
C11 C 0.5509(4) 0.13405(8) 0.7245(2)
H6 H 0.5690 0.1457 0.8074
H7 H 0.4201 0.1190 0.7069
C12 C 0.7367(5) 0.07161(10) 0.5061(3)
H8 H 0.7977 0.0474 0.5570
C13 C 0.5089(5) 0.06100(10) 0.4844(3)
H9 H 0.4311 0.0855 0.4491
H10 H 0.4692 0.0537 0.5614
H11 H 0.4820 0.0371 0.4287
C14 C 0.8201(4) 0.22160(8) 0.7505(2)
C15 C 1.1298(4) 0.19139(9) 0.8517(3)
H12 H 1.2079 0.2127 0.8171
H13 H 1.2032 0.1646 0.8589
H14 H 1.1098 0.2006 0.9318
C16 C 0.7196(4) 0.17166(9) 0.4428(3)
H15 H 0.6527 0.1975 0.4201
H16 H 0.8045 0.1596 0.3932
C17 C 0.9432(5) -0.00133(9) 0.8301(3)
H17 H 1.0754 0.0062 0.8199
C18 C 0.8904(5) -0.04435(10) 0.8400(3)
H18 H 0.9889 -0.0654 0.8362
C19 C 0.6983(5) -0.05623(9) 0.8550(3)
C20 C 0.5557(5) -0.02476(11) 0.8595(3)
H19 H 0.4233 -0.0324 0.8691
C21 C 0.6034(5) 0.01823(10) 0.8502(3)
H20 H 0.5041 0.0392 0.8538
C22 C 0.7982(4) 0.02975(8) 0.8357(2)
C23 C 0.6444(6) -0.10330(11) 0.8660(4)
H21 H 0.6074 -0.1155 0.7850
H22 H 0.5304 -0.1058 0.9087
H23 H 0.7614 -0.1183 0.9111
C24 C 0.8364(10) 0.0696(2) 0.4066(5)
H24 H 0.8235 0.0412 0.3724
H25 H 0.9796 0.0764 0.4331
H26 H 0.7754 0.0899 0.3451
N1 N 0.6282(3) 0.21251(6) 0.68406(19)
N2 N 0.7217(3) 0.10495(6) 0.71215(19)
O1 O 0.8775(3) 0.25680(6) 0.78528(18)
O2 O 0.9327(3) 0.18587(6) 0.77254(17)
O3 O 0.2246(3) 0.15421(6) 0.5037(2)
O4 O 0.8103(4) 0.10400(6) 0.93866(17)
O5 O 1.0772(3) 0.08586(6) 0.8152(2)
S1 S 0.86732(11) 0.08444(2) 0.83240(6)
C25? C 0.8927(14) 0.0361(2) 0.5158(8)
loop_
_geom_bond_atom_site_label_1
_geom_bond_atom_site_label_2
_geom_bond_site_symmetry_1
_geom_bond_site_symmetry_2
C1 C2 1_555 1_555
C2 C3 1_555 1_555
C3 H1 1_555 1_555
C4 C3 1_555 1_555
H2 C4 1_555 1_555
C5 C4 1_555 1_555
H3 C5 1_555 1_555
C6 C5 1_555 1_555
H4 C6 1_555 1_555
C7 C2 1_555 1_555
C8 C1 1_555 1_555
C9 C8 1_555 1_555
C10 C9 1_555 1_555
H5 C10 1_555 1_555
C11 C8 1_555 1_555
H6 C11 1_555 1_555
H7 C11 1_555 1_555
C12 C10 1_555 1_555
H8 C12 1_555 1_555
C13 C12 1_555 1_555
H9 C13 1_555 1_555
H10 C13 1_555 1_555
H11 C13 1_555 1_555
C14 N1 1_555 1_555
C15 H12 1_555 1_555
H13 C15 1_555 1_555
H14 C15 1_555 1_555
C16 C9 1_555 1_555
H15 C16 1_555 1_555
H16 C16 1_555 1_555
C17 H17 1_555 1_555
C18 C17 1_555 1_555
H18 C18 1_555 1_555
C19 C18 1_555 1_555
C20 C19 1_555 1_555
H19 C20 1_555 1_555
C21 C20 1_555 1_555
H20 C21 1_555 1_555
C22 C17 1_555 1_555
C23 C19 1_555 1_555
H21 C23 1_555 1_555
H22 C23 1_555 1_555
H23 C23 1_555 1_555
C24 C12 1_555 1_555
H24 C24 1_555 1_555
H25 C24 1_555 1_555
H26 C24 1_555 1_555
N1 C7 1_555 1_555
N2 C10 1_555 1_555
O1 C14 1_555 1_555
O2 C14 1_555 1_555
O3 C1 1_555 1_555
O4 S1 1_555 1_555
O5 S1 1_555 1_555
S1 C22 1_555 1_555
C6 C7 1_555 1_555
C8 N1 1_555 1_555
C11 N2 1_555 1_555
C15 O2 1_555 1_555
C21 C22 1_555 1_555
N2 S1 1_555 1_555

#END
