
#######################################################################
#
#                 Cambridge Crystallographic Data Centre
#                                CCDC 
#
#######################################################################
#
# If this CIF has been generated from an entry in the Cambridge 
# Structural Database, then it will include bibliographic, chemical, 
# crystal, experimental, refinement or atomic coordinate data resulting 
# from the CCDC's data processing and validation procedures.
#
#######################################################################

data_OBAMAI
_chemical_formula_moiety         'C29 H23 N1 O2 S1'
_chemical_name_systematic        
5-((4-methylphenyl)sulfonyl)-11-phenyl-6,6a-dihydro-5H-indeno[1,2-c]quinoline
_symmetry_cell_setting           monoclinic
_symmetry_space_group_name_H-M   'P 21/c'
_symmetry_Int_Tables_number      14
_space_group_name_Hall           '-P 2ybc'
loop_
_symmetry_equiv_pos_site_id
_symmetry_equiv_pos_as_xyz
1 x,y,z
2 -x,1/2+y,1/2-z
3 -x,-y,-z
4 x,1/2-y,1/2+z
_cell_length_a                   23.1379(13)
_cell_length_b                   7.9141(4)
_cell_length_c                   12.2028(7)
_cell_angle_alpha                90
_cell_angle_beta                 94.9356(19)
_cell_angle_gamma                90
_cell_volume                     2226.24
_exptl_crystal_colour            yellow
_exptl_crystal_description       parallelepiped
_cell_formula_units_Z            4
loop_
_atom_site_label
_atom_site_type_symbol
_atom_site_fract_x
_atom_site_fract_y
_atom_site_fract_z
S1 S 0.14018(3) 0.26049(9) 0.35517(7)
O1 O 0.15071(10) 0.3135(3) 0.46673(18)
O2 O 0.10200(10) 0.1216(3) 0.3298(2)
N1 N 0.20204(10) 0.2106(3) 0.3070(2)
C1 C 0.10506(13) 0.5875(4) 0.3282(3)
H1 H 0.1188 0.6030 0.4014
C2 C 0.07797(14) 0.7179(4) 0.2693(3)
H2 H 0.0727 0.8207 0.3039
C3 C 0.05852(13) 0.6988(4) 0.1598(3)
C4 C 0.06667(14) 0.5451(5) 0.1106(3)
H3 H 0.0544 0.5308 0.0366
C5 C 0.09254(13) 0.4125(4) 0.1686(3)
H4 H 0.0972 0.3089 0.1345
C6 C 0.11156(11) 0.4344(3) 0.2777(2)
C7 C 0.02931(17) 0.8438(6) 0.0965(4)
H5 H 0.0275 0.9399 0.1441
H6 H 0.0511 0.8725 0.0357
H7 H -0.0093 0.8111 0.0695
C8 C 0.25654(11) 0.2791(3) 0.3502(2)
C9 C 0.26046(13) 0.4393(4) 0.3968(2)
H8 H 0.2271 0.5043 0.3992
C10 C 0.31267(14) 0.5028(4) 0.4390(3)
H9 H 0.3144 0.6091 0.4716
C11 C 0.36253(14) 0.4099(4) 0.4335(3)
H10 H 0.3980 0.4529 0.4624
C12 C 0.35957(13) 0.2545(4) 0.3854(3)
H11 H 0.3936 0.1937 0.3806
C13 C 0.30702(12) 0.1832(3) 0.3431(2)
C14 C 0.30285(12) 0.0169(4) 0.2919(3)
C15 C 0.34238(11) -0.1013(3) 0.2697(2)
C16 C 0.31331(12) -0.2359(3) 0.2037(2)
C17 C 0.33484(13) -0.3849(3) 0.1638(2)
H12 H 0.3740 -0.4116 0.1764
C18 C 0.29718(14) -0.4928(4) 0.1050(2)
H13 H 0.3110 -0.5938 0.0785
C19 C 0.23929(14) -0.4534(4) 0.0850(2)
H14 H 0.2146 -0.5274 0.0444
C20 C 0.21743(13) -0.3051(4) 0.1245(3)
H15 H 0.1783 -0.2785 0.1109
C21 C 0.25459(12) -0.1975(4) 0.1842(3)
C22 C 0.24277(18) -0.0519(6) 0.2632(5)
H16 H 0.2260 -0.0946 0.3289
C23 C 0.2070(2) 0.0927(7) 0.2119(5)
H17 H 0.2266 0.1467 0.1540
H18 H 0.1691 0.0540 0.1819
C24 C 0.40548(11) -0.1117(3) 0.3033(2)
C25 C 0.42552(14) -0.1632(4) 0.4079(3)
H19 H 0.3993 -0.1838 0.4599
C26 C 0.48404(16) -0.1845(5) 0.4360(3)
H20 H 0.4969 -0.2202 0.5065
C27 C 0.52318(15) -0.1535(5) 0.3613(3)
H21 H 0.5626 -0.1692 0.3805
C28 C 0.50451(15) -0.0996(5) 0.2591(3)
H22 H 0.5312 -0.0752 0.2086
C29 C 0.44569(13) -0.0807(5) 0.2294(3)
H23 H 0.4333 -0.0465 0.1583
C30? C 0.2453(3) -0.0047(12) 0.2011(10)
H24? H 0.2440 0.0668 0.1354
C31? C 0.1975(4) 0.0162(12) 0.2745(10)
H25? H 0.2034 -0.0555 0.3389
H26? H 0.1601 -0.0095 0.2359
loop_
_geom_bond_atom_site_label_1
_geom_bond_atom_site_label_2
_geom_bond_site_symmetry_1
_geom_bond_site_symmetry_2
S1 O1 1_555 1_555
O2 S1 1_555 1_555
N1 S1 1_555 1_555
C1 H1 1_555 1_555
C2 C1 1_555 1_555
H2 C2 1_555 1_555
C3 C2 1_555 1_555
C4 C3 1_555 1_555
H3 C4 1_555 1_555
C5 C4 1_555 1_555
H4 C5 1_555 1_555
C6 S1 1_555 1_555
C7 C3 1_555 1_555
H5 C7 1_555 1_555
H6 C7 1_555 1_555
H7 C7 1_555 1_555
C8 N1 1_555 1_555
C9 C8 1_555 1_555
H8 C9 1_555 1_555
C10 C9 1_555 1_555
H9 C10 1_555 1_555
C11 C10 1_555 1_555
H10 C11 1_555 1_555
C12 C11 1_555 1_555
H11 C12 1_555 1_555
C13 C8 1_555 1_555
C14 C13 1_555 1_555
C15 C14 1_555 1_555
C16 C15 1_555 1_555
C17 C16 1_555 1_555
H12 C17 1_555 1_555
C18 C17 1_555 1_555
H13 C18 1_555 1_555
C19 C18 1_555 1_555
H14 C19 1_555 1_555
C20 C19 1_555 1_555
H15 C20 1_555 1_555
C21 C16 1_555 1_555
C22 C14 1_555 1_555
H16 C22 1_555 1_555
C23 N1 1_555 1_555
H17 C23 1_555 1_555
H18 C23 1_555 1_555
C24 C15 1_555 1_555
C25 C24 1_555 1_555
H19 C25 1_555 1_555
C26 C25 1_555 1_555
H20 C26 1_555 1_555
C27 C26 1_555 1_555
H21 C27 1_555 1_555
C28 C27 1_555 1_555
H22 C28 1_555 1_555
C29 C24 1_555 1_555
H23 C29 1_555 1_555
C1 C6 1_555 1_555
C5 C6 1_555 1_555
C12 C13 1_555 1_555
C20 C21 1_555 1_555
C21 C22 1_555 1_555
C22 C23 1_555 1_555
C28 C29 1_555 1_555

#END
