
#######################################################################
#
#                 Cambridge Crystallographic Data Centre
#                                CCDC 
#
#######################################################################
#
# If this CIF has been generated from an entry in the Cambridge 
# Structural Database, then it will include bibliographic, chemical, 
# crystal, experimental, refinement or atomic coordinate data resulting 
# from the CCDC's data processing and validation procedures.
#
#######################################################################

data_OBEHEK
_chemical_formula_moiety         'C14 H20 Br2 O2 S2'
_chemical_name_systematic        1,4-Dibromo-2,5-bis(butylsulfinyl)benzene
_symmetry_cell_setting           triclinic
_symmetry_space_group_name_H-M   'P -1'
_symmetry_Int_Tables_number      2
_space_group_name_Hall           '-P 1'
loop_
_symmetry_equiv_pos_site_id
_symmetry_equiv_pos_as_xyz
1 x,y,z
2 -x,-y,-z
_cell_length_a                   4.5351(4)
_cell_length_b                   9.136(1)
_cell_length_c                   10.423(1)
_cell_angle_alpha                82.24(1)
_cell_angle_beta                 84.55(1)
_cell_angle_gamma                82.20(1)
_cell_volume                     422.645
_exptl_crystal_colour            colorless
_exptl_crystal_description       splinter
_chemical_melting_point          '353 K'
_cell_formula_units_Z            1
loop_
_atom_site_label
_atom_site_type_symbol
_atom_site_fract_x
_atom_site_fract_y
_atom_site_fract_z
Br1 Br 0.28536(4) 0.151833(17) 0.061940(16)
S1 S 0.42463(8) 0.41026(4) 0.23247(4)
O1 O 0.4784(3) 0.55348(14) 0.27415(12)
C1 C 0.1191(3) 0.35299(16) 0.02674(14)
C2 C 0.1795(3) 0.45788(16) 0.10242(14)
C3 C 0.0619(3) 0.60643(17) 0.07523(14)
H1 H 0.102(5) 0.679(2) 0.126(2)
C4 C 0.1610(4) 0.33081(18) 0.35548(15)
H2 H 0.012(5) 0.410(2) 0.375(2)
H3 H 0.093(4) 0.254(2) 0.315(2)
C5 C 0.3266(4) 0.26676(19) 0.47583(15)
H4 H 0.407(5) 0.344(2) 0.513(2)
H5 H 0.495(4) 0.190(2) 0.449(2)
C6 C 0.1254(4) 0.1881(2) 0.58087(16)
H6 H -0.037(4) 0.267(2) 0.619(2)
H7 H 0.039(5) 0.113(2) 0.545(2)
C7 C 0.2969(5) 0.1108(2) 0.69507(18)
H8 H 0.459(5) 0.038(3) 0.669(2)
H9 H 0.169(5) 0.059(2) 0.756(2)
H10 H 0.386(5) 0.176(3) 0.731(2)
Br1A Br -0.28536(4) 0.848167(17) -0.061940(16)
S1A S -0.42463(8) 0.58974(4) -0.23247(4)
O1A O -0.4784(3) 0.44652(14) -0.27415(12)
C1A C -0.1191(3) 0.64701(16) -0.02674(14)
C2A C -0.1795(3) 0.54212(16) -0.10242(14)
C3A C -0.0619(3) 0.39357(17) -0.07523(14)
H1A H -0.102(5) 0.321(2) -0.126(2)
C4A C -0.1610(4) 0.66919(18) -0.35548(15)
H2A H -0.012(5) 0.590(2) -0.375(2)
H3A H -0.093(4) 0.746(2) -0.315(2)
C5A C -0.3266(4) 0.73324(19) -0.47583(15)
H4A H -0.407(5) 0.656(2) -0.513(2)
H5A H -0.495(4) 0.810(2) -0.449(2)
C6A C -0.1254(4) 0.8119(2) -0.58087(16)
H6A H 0.037(4) 0.733(2) -0.619(2)
H7A H -0.039(5) 0.887(2) -0.545(2)
C7A C -0.2969(5) 0.8892(2) -0.69507(18)
H8A H -0.459(5) 0.962(3) -0.669(2)
H9A H -0.169(5) 0.941(2) -0.756(2)
H10A H -0.386(5) 0.824(3) -0.731(2)
loop_
_geom_bond_atom_site_label_1
_geom_bond_atom_site_label_2
_geom_bond_site_symmetry_1
_geom_bond_site_symmetry_2
Br1 C1 1_555 1_555
S1 O1 1_555 1_555
C1 C2 1_555 1_555
C2 S1 1_555 1_555
C3 C2 1_555 1_555
H1 C3 1_555 1_555
C4 S1 1_555 1_555
H2 C4 1_555 1_555
H3 C4 1_555 1_555
C5 C4 1_555 1_555
H4 C5 1_555 1_555
H5 C5 1_555 1_555
C6 C5 1_555 1_555
H6 C6 1_555 1_555
H7 C6 1_555 1_555
C7 C6 1_555 1_555
H8 C7 1_555 1_555
H9 C7 1_555 1_555
H10 C7 1_555 1_555
Br1A C1A 1_555 1_555
S1A O1A 1_555 1_555
C1A C3 1_555 1_555
C2A S1A 1_555 1_555
C3A C1 1_555 1_555
H1A C3A 1_555 1_555
C4A S1A 1_555 1_555
H2A C4A 1_555 1_555
H3A C4A 1_555 1_555
C5A C4A 1_555 1_555
H4A C5A 1_555 1_555
H5A C5A 1_555 1_555
C6A C5A 1_555 1_555
H6A C6A 1_555 1_555
H7A C6A 1_555 1_555
C7A C6A 1_555 1_555
H8A C7A 1_555 1_555
H9A C7A 1_555 1_555
H10A C7A 1_555 1_555
C1A C2A 1_555 1_555
C2A C3A 1_555 1_555

#END
