
#######################################################################
#
#                 Cambridge Crystallographic Data Centre
#                                CCDC 
#
#######################################################################
#
# If this CIF has been generated from an entry in the Cambridge 
# Structural Database, then it will include bibliographic, chemical, 
# crystal, experimental, refinement or atomic coordinate data resulting 
# from the CCDC's data processing and validation procedures.
#
#######################################################################

data_OBEYEC
_chemical_formula_moiety         'C24 H16 O2 S2'
_chemical_name_systematic        
4-[4-(phenylsulfonyl)phenyl]dibenzo[b,d]thiophene
_symmetry_cell_setting           monoclinic
_symmetry_space_group_name_H-M   'P 21/n'
_symmetry_Int_Tables_number      14
_space_group_name_Hall           '-P 2yn'
loop_
_symmetry_equiv_pos_site_id
_symmetry_equiv_pos_as_xyz
1 x,y,z
2 1/2-x,1/2+y,1/2-z
3 -x,-y,-z
4 1/2+x,1/2-y,1/2+z
_cell_length_a                   9.6533(2)
_cell_length_b                   13.2733(3)
_cell_length_c                   15.1062(3)
_cell_angle_alpha                90
_cell_angle_beta                 90.485(2)
_cell_angle_gamma                90
_cell_volume                     1935.51
_exptl_crystal_colour            colorless
_exptl_crystal_description       block
_cell_formula_units_Z            4
loop_
_atom_site_label
_atom_site_type_symbol
_atom_site_fract_x
_atom_site_fract_y
_atom_site_fract_z
S1 S 0.16206(6) 0.32199(4) 0.31105(3)
S2 S 0.16361(7) 0.21935(5) -0.12906(4)
C1 C 0.1433(2) 0.35124(19) -0.13811(13)
C2 C 0.1347(2) 0.12017(16) 0.25903(13)
O1 O 0.3017(2) 0.19482(15) -0.15656(12)
C3 C 0.2587(2) 0.22126(18) 0.04074(15)
H1 H 0.3354 0.2545 0.0181
C4 C 0.1586(2) 0.34248(17) 0.42505(14)
C5 C 0.2522(2) 0.19980(18) 0.12940(14)
H2 H 0.3240 0.2198 0.1669
C6 C 0.1464(2) 0.19204(15) 0.32609(13)
C7 C 0.1406(2) 0.2589(2) 0.56588(15)
H3 H 0.1338 0.2004 0.5995
O2 O 0.0479(2) 0.17243(17) -0.17292(12)
C8 C 0.1279(2) 0.06410(17) 0.43869(15)
H4 H 0.1272 0.0447 0.4978
C9 C 0.1391(2) 0.14828(16) 0.16386(14)
C10 C 0.1413(2) 0.16583(16) 0.41609(13)
C11 C 0.1172(2) 0.02074(17) 0.28450(16)
H5 H 0.1061 -0.0286 0.2413
C12 C 0.1512(2) 0.19342(17) -0.01484(14)
C13 C 0.1476(2) 0.25274(17) 0.47345(13)
C14 C 0.1157(2) -0.00662(17) 0.37333(17)
H6 H 0.1064 -0.0742 0.3885
C15 C 0.2535(2) 0.40843(19) -0.16614(14)
H7 H 0.3395 0.3788 -0.1751
C16 C 0.0373(3) 0.1435(2) 0.01795(16)
H8 H -0.0357 0.1257 -0.0195
C17 C 0.0328(2) 0.12015(19) 0.10691(15)
H9 H -0.0428 0.0850 0.1289
C18 C 0.1633(3) 0.43576(19) 0.46728(17)
H10 H 0.1716 0.4949 0.4348
C19 C 0.2352(3) 0.5094(2) -0.18064(16)
H11 H 0.3087 0.5479 -0.2012
C20 C 0.1555(3) 0.4382(2) 0.55799(19)
H12 H 0.1581 0.5000 0.5871
C21 C 0.1120(3) 0.5538(3) -0.1656(2)
H13 H 0.1010 0.6224 -0.1759
C22 C 0.1438(3) 0.3506(2) 0.60669(18)
H14 H 0.1379 0.3542 0.6680
C23 C 0.0173(3) 0.3954(3) -0.1220(2)
H15 H -0.0570 0.3569 -0.1027
C24 C 0.0030(3) 0.4978(3) -0.1350(3)
H16 H -0.0810 0.5290 -0.1230
loop_
_geom_bond_atom_site_label_1
_geom_bond_atom_site_label_2
_geom_bond_site_symmetry_1
_geom_bond_site_symmetry_2
S1 C4 1_555 1_555
S2 C1 1_555 1_555
C1 C15 1_555 1_555
C2 C6 1_555 1_555
O1 S2 1_555 1_555
C3 H1 1_555 1_555
C4 C13 1_555 1_555
C5 C3 1_555 1_555
H2 C5 1_555 1_555
C6 S1 1_555 1_555
C7 H3 1_555 1_555
O2 S2 1_555 1_555
C8 H4 1_555 1_555
C9 C2 1_555 1_555
C10 C6 1_555 1_555
C11 C2 1_555 1_555
H5 C11 1_555 1_555
C12 S2 1_555 1_555
C13 C7 1_555 1_555
C14 C8 1_555 1_555
H6 C14 1_555 1_555
C15 H7 1_555 1_555
C16 C12 1_555 1_555
H8 C16 1_555 1_555
C17 C9 1_555 1_555
H9 C17 1_555 1_555
C18 C4 1_555 1_555
H10 C18 1_555 1_555
C19 C15 1_555 1_555
H11 C19 1_555 1_555
C20 C18 1_555 1_555
H12 C20 1_555 1_555
C21 C19 1_555 1_555
H13 C21 1_555 1_555
C22 C7 1_555 1_555
H14 C22 1_555 1_555
C23 C1 1_555 1_555
H15 C23 1_555 1_555
C24 C21 1_555 1_555
H16 C24 1_555 1_555
C3 C12 1_555 1_555
C5 C9 1_555 1_555
C8 C10 1_555 1_555
C10 C13 1_555 1_555
C11 C14 1_555 1_555
C16 C17 1_555 1_555
C20 C22 1_555 1_555
C23 C24 1_555 1_555

#END
