
#######################################################################
#
#                 Cambridge Crystallographic Data Centre
#                                CCDC 
#
#######################################################################
#
# If this CIF has been generated from an entry in the Cambridge 
# Structural Database, then it will include bibliographic, chemical, 
# crystal, experimental, refinement or atomic coordinate data resulting 
# from the CCDC's data processing and validation procedures.
#
#######################################################################

data_OBIREX
_chemical_compound_source        
'whole plant of Ligularia virgaurea spp. oligocephala'
_chemical_formula_moiety         'C15 H18 O5'
_chemical_name_systematic        'Ligulolide A'
_chemical_properties_biological  
'strong cytotoxic activity against tumour cells'
_symmetry_cell_setting           orthorhombic
_symmetry_space_group_name_H-M   'P 21 21 21'
_symmetry_Int_Tables_number      19
_space_group_name_Hall           'P 2ac 2ab'
loop_
_symmetry_equiv_pos_site_id
_symmetry_equiv_pos_as_xyz
1 x,y,z
2 1/2-x,-y,1/2+z
3 -x,1/2+y,1/2-z
4 1/2+x,1/2-y,-z
_cell_length_a                   6.286(1)
_cell_length_b                   14.650(3)
_cell_length_c                   14.890(3)
_cell_angle_alpha                90
_cell_angle_beta                 90
_cell_angle_gamma                90
_cell_volume                     1371.22
_chemical_melting_point          120deg.C
_cell_formula_units_Z            4
loop_
_atom_site_label
_atom_site_type_symbol
_atom_site_fract_x
_atom_site_fract_y
_atom_site_fract_z
O1 O 0.5699(4) 0.19618(16) 0.08435(13)
O2 O 0.1959(4) 0.20416(16) 0.09591(13)
O3 O 0.0899(3) 0.14547(14) 0.30283(14)
O4 O 0.7332(3) 0.10651(16) 0.18297(14)
O5 O 0.6164(4) 0.31321(13) 0.30635(15)
C1 C 0.5420(4) 0.17152(17) 0.38252(16)
C2 C 0.6767(5) 0.1816(2) 0.46547(18)
H1 H 0.6550 0.2416 0.4914
H2 H 0.8258 0.1757 0.4497
C3 C 0.6170(6) 0.1081(2) 0.53439(18)
H3 H 0.7294 0.1031 0.5787
H4 H 0.4878 0.1261 0.5652
C4 C 0.5834(6) 0.0166(2) 0.49046(19)
H5 H 0.5539 -0.0285 0.5365
H6 H 0.7133 -0.0014 0.4601
C5 C 0.3999(5) 0.01701(19) 0.42242(17)
H7 H 0.4158 -0.0369 0.3841
C6 C 0.4181(4) 0.09982(17) 0.36365(15)
C7 C 0.2956(4) 0.11215(17) 0.27690(16)
C8 C 0.4169(4) 0.19219(16) 0.23023(15)
C9 C 0.5369(5) 0.23758(18) 0.30969(18)
C10 C 0.2888(5) 0.25629(19) 0.17117(18)
C11 C 0.3876(6) 0.2519(2) 0.08409(19)
H8 H 0.3874 0.3067 0.0464
C12 C 0.5906(5) 0.15862(19) 0.16685(17)
C13 C 0.1825(5) 0.0117(3) 0.4671(2)
H9 H 0.1676 0.0610 0.5090
H10 H 0.1693 -0.0454 0.4982
H11 H 0.0735 0.0161 0.4221
C14 C 0.2717(6) 0.02569(18) 0.22168(19)
H12 H 0.1911 -0.0184 0.2551
H13 H 0.4099 0.0013 0.2084
H14 H 0.1991 0.0395 0.1666
C15 C 0.1598(6) 0.3339(2) 0.2057(2)
H15 H 0.2509 0.3763 0.2362
H16 H 0.0543 0.3114 0.2467
H17 H 0.0910 0.3641 0.1564
H18 H 0.005(8) 0.128(3) 0.267(3)
loop_
_geom_bond_atom_site_label_1
_geom_bond_atom_site_label_2
_geom_bond_site_symmetry_1
_geom_bond_site_symmetry_2
O1 C11 1_555 1_555
O2 C10 1_555 1_555
O3 C7 1_555 1_555
O4 C12 1_555 1_555
O5 C9 1_555 1_555
C1 C2 1_555 1_555
C2 H1 1_555 1_555
H2 C2 1_555 1_555
C3 C2 1_555 1_555
H3 C3 1_555 1_555
H4 C3 1_555 1_555
C4 C3 1_555 1_555
H5 C4 1_555 1_555
H6 C4 1_555 1_555
C5 C4 1_555 1_555
H7 C5 1_555 1_555
C6 C1 1_555 1_555
C7 C6 1_555 1_555
C8 C7 1_555 1_555
C9 C1 1_555 1_555
C10 C8 1_555 1_555
C11 O2 1_555 1_555
H8 C11 1_555 1_555
C12 O1 1_555 1_555
C13 C5 1_555 1_555
H9 C13 1_555 1_555
H10 C13 1_555 1_555
H11 C13 1_555 1_555
C14 C7 1_555 1_555
H12 C14 1_555 1_555
H13 C14 1_555 1_555
H14 C14 1_555 1_555
C15 C10 1_555 1_555
H15 C15 1_555 1_555
H16 C15 1_555 1_555
H17 C15 1_555 1_555
H18 O3 1_555 1_555
C5 C6 1_555 1_555
C8 C9 1_555 1_555
C8 C12 1_555 1_555
C10 C11 1_555 1_555

#END
