
#######################################################################
#
#                 Cambridge Crystallographic Data Centre
#                                CCDC 
#
#######################################################################
#
# If this CIF has been generated from an entry in the Cambridge 
# Structural Database, then it will include bibliographic, chemical, 
# crystal, experimental, refinement or atomic coordinate data resulting 
# from the CCDC's data processing and validation procedures.
#
#######################################################################

data_OBOXUA
_chemical_formula_moiety         'C13 H15 Br1 Cl1 N1 O1'
_chemical_name_systematic        
2-Bromo-4-chloro-6-((cyclohexylimino)methyl)phenol
_symmetry_cell_setting           monoclinic
_symmetry_space_group_name_H-M   'P 21/c'
_symmetry_Int_Tables_number      14
_space_group_name_Hall           '-P 2ybc'
loop_
_symmetry_equiv_pos_site_id
_symmetry_equiv_pos_as_xyz
1 x,y,z
2 -x,1/2+y,1/2-z
3 -x,-y,-z
4 x,1/2-y,1/2+z
_cell_length_a                   12.296(2)
_cell_length_b                   16.359(3)
_cell_length_c                   6.9690(10)
_cell_angle_alpha                90
_cell_angle_beta                 101.634(2)
_cell_angle_gamma                90
_cell_volume                     1373.02
_exptl_crystal_colour            yellow
_exptl_crystal_description       block
_cell_formula_units_Z            4
loop_
_atom_site_label
_atom_site_type_symbol
_atom_site_fract_x
_atom_site_fract_y
_atom_site_fract_z
Br1 Br 0.36373(6) 0.05122(4) -0.11130(11)
Cl1 Cl 0.09344(12) 0.31936(13) -0.2918(3)
N1 N 0.6092(4) 0.3288(3) 0.0492(7)
O1 O 0.5335(3) 0.1823(2) 0.0130(6)
C1 C 0.4189(4) 0.3005(3) -0.0749(6)
C2 C 0.4337(4) 0.2154(3) -0.0606(6)
C3 C 0.3424(4) 0.1648(3) -0.1214(7)
C4 C 0.2398(4) 0.1959(4) -0.1955(7)
H1 H 0.1801 0.1612 -0.2402
C5 C 0.2255(4) 0.2799(4) -0.2032(7)
C6 C 0.3129(4) 0.3316(3) -0.1472(7)
H2 H 0.3020 0.3878 -0.1572
C7 C 0.5119(4) 0.3548(3) -0.0185(7)
H3 H 0.5003 0.4109 -0.0322
C8 C 0.7014(4) 0.3862(3) 0.0990(8)
H4 H 0.6719 0.4419 0.0785
C9 C 0.7837(5) 0.3731(4) -0.0324(9)
H5 H 0.7478 0.3837 -0.1672
H6 H 0.8083 0.3167 -0.0231
C10 C 0.8835(6) 0.4293(5) 0.0252(12)
H7 H 0.9367 0.4179 -0.0569
H8 H 0.8598 0.4857 0.0036
C11 C 0.9385(5) 0.4176(4) 0.2383(11)
H9 H 0.9677 0.3625 0.2579
H10 H 1.0000 0.4555 0.2730
C12 C 0.8578(5) 0.4318(5) 0.3658(9)
H11 H 0.8343 0.4885 0.3550
H12 H 0.8937 0.4218 0.5010
C13 C 0.7562(5) 0.3768(4) 0.3122(8)
H13 H 0.7782 0.3203 0.3381
H14 H 0.7033 0.3907 0.3934
H15 H 0.576(4) 0.227(2) 0.035(9)
loop_
_geom_bond_atom_site_label_1
_geom_bond_atom_site_label_2
_geom_bond_site_symmetry_1
_geom_bond_site_symmetry_2
Br1 C3 1_555 1_555
Cl1 C5 1_555 1_555
N1 C7 1_555 1_555
O1 C2 1_555 1_555
C1 C2 1_555 1_555
C2 C3 1_555 1_555
C3 C4 1_555 1_555
C4 H1 1_555 1_555
C5 C4 1_555 1_555
C6 C1 1_555 1_555
H2 C6 1_555 1_555
C7 C1 1_555 1_555
H3 C7 1_555 1_555
C8 N1 1_555 1_555
H4 C8 1_555 1_555
C9 C8 1_555 1_555
H5 C9 1_555 1_555
H6 C9 1_555 1_555
C10 C9 1_555 1_555
H7 C10 1_555 1_555
H8 C10 1_555 1_555
C11 C10 1_555 1_555
H9 C11 1_555 1_555
H10 C11 1_555 1_555
C12 C11 1_555 1_555
H11 C12 1_555 1_555
H12 C12 1_555 1_555
C13 C8 1_555 1_555
H13 C13 1_555 1_555
H14 C13 1_555 1_555
H15 O1 1_555 1_555
C5 C6 1_555 1_555
C12 C13 1_555 1_555

#END
