
#######################################################################
#
#                 Cambridge Crystallographic Data Centre
#                                CCDC 
#
#######################################################################
#
# If this CIF has been generated from an entry in the Cambridge 
# Structural Database, then it will include bibliographic, chemical, 
# crystal, experimental, refinement or atomic coordinate data resulting 
# from the CCDC's data processing and validation procedures.
#
#######################################################################

data_OBUBEU
_chemical_formula_moiety         'C21 H16 Br1 N3 O2 S1'
_chemical_name_systematic        
'4-(4-Bromophenyl)-3-methyl-1-phenyl-6,7-dihydro-1H-pyrazolo[3,4-b]thieno[2,3-e]pyridine 5,5-dioxide'
_symmetry_cell_setting           triclinic
_symmetry_space_group_name_H-M   'P -1'
_symmetry_Int_Tables_number      2
_space_group_name_Hall           '-P 1'
loop_
_symmetry_equiv_pos_site_id
_symmetry_equiv_pos_as_xyz
1 x,y,z
2 -x,-y,-z
_cell_length_a                   9.881(3)
_cell_length_b                   9.904(3)
_cell_length_c                   11.333(4)
_cell_angle_alpha                108.6420(10)
_cell_angle_beta                 102.000(4)
_cell_angle_gamma                107.346(3)
_cell_volume                     945.035
_exptl_crystal_colour            colorless
_exptl_crystal_description       prism
_cell_formula_units_Z            2
_exptl_crystal_recrystallization_method 'dmf /ethanol'
loop_
_atom_site_label
_atom_site_type_symbol
_atom_site_fract_x
_atom_site_fract_y
_atom_site_fract_z
Br1 Br 1.02598(4) 0.80211(4) 1.16776(3)
S1 S 0.45768(7) 0.09317(7) 0.71274(6)
O1 O 0.4863(2) 0.1482(2) 0.85218(18)
O2 O 0.5755(2) 0.0686(2) 0.6663(2)
N1 N 0.1738(2) 0.1677(2) 0.4704(2)
N2 N 0.1926(2) 0.4054(2) 0.4460(2)
N3 N 0.2917(2) 0.5588(2) 0.5057(2)
C1 C 0.5936(3) 0.4707(3) 0.8034(2)
C2 C 0.7289(3) 0.4526(3) 0.8108(2)
H1 H 0.7331 0.3712 0.7411
C3 C 0.8563(3) 0.5509(3) 0.9177(2)
H2 H 0.9490 0.5395 0.9206
C4 C 0.8497(3) 0.6665(3) 1.0212(2)
C5 C 0.7152(3) 0.6852(3) 1.0175(3)
H3 H 0.7111 0.7644 1.0892
C6 C 0.5877(3) 0.5877(3) 0.9089(3)
H4 H 0.4954 0.6001 0.9057
C7 C 0.4559(3) 0.3682(3) 0.6872(2)
C8 C 0.3902(3) 0.2086(3) 0.6455(2)
C9 C 0.2875(3) -0.0719(3) 0.6279(3)
H5 H 0.3088 -0.1659 0.5938
H6 H 0.2307 -0.0839 0.6888
C10 C 0.1963(3) -0.0532(3) 0.5156(3)
H7 H 0.2062 -0.1134 0.4316
H8 H 0.0887 -0.0919 0.5076
C11 C 0.2532(3) 0.1152(3) 0.5425(2)
C12 C 0.2421(3) 0.3213(3) 0.5059(2)
C13 C 0.3777(3) 0.4255(3) 0.6098(2)
C14 C 0.4020(3) 0.5728(3) 0.6035(2)
C15 C 0.5315(3) 0.7246(3) 0.6841(3)
H9 H 0.5434 0.7867 0.6320
H10 H 0.6236 0.7069 0.7099
H11 H 0.5127 0.7800 0.7636
C16 C 0.0596(3) 0.3565(3) 0.3378(3)
C17 C -0.0100(3) 0.4602(4) 0.3356(3)
H12 H 0.0300 0.5609 0.4049
C18 C -0.1381(3) 0.4129(4) 0.2301(3)
H13 H -0.1857 0.4828 0.2273
C19 C -0.1981(3) 0.2683(4) 0.1296(3)
H14 H -0.2872 0.2380 0.0589
C20 C -0.1277(3) 0.1653(4) 0.1315(3)
H15 H -0.1680 0.0651 0.0616
C21 C 0.0016(3) 0.2105(3) 0.2362(3)
H16 H 0.0502 0.1412 0.2379
loop_
_geom_bond_atom_site_label_1
_geom_bond_atom_site_label_2
_geom_bond_site_symmetry_1
_geom_bond_site_symmetry_2
Br1 C4 1_555 1_555
S1 O1 1_555 1_555
O2 S1 1_555 1_555
N1 C11 1_555 1_555
N2 N3 1_555 1_555
N3 C14 1_555 1_555
C1 C2 1_555 1_555
C2 H1 1_555 1_555
C3 C2 1_555 1_555
H2 C3 1_555 1_555
C4 C3 1_555 1_555
C5 C4 1_555 1_555
H3 C5 1_555 1_555
C6 C1 1_555 1_555
H4 C6 1_555 1_555
C7 C1 1_555 1_555
C8 S1 1_555 1_555
C9 S1 1_555 1_555
H5 C9 1_555 1_555
H6 C9 1_555 1_555
C10 C9 1_555 1_555
H7 C10 1_555 1_555
H8 C10 1_555 1_555
C11 C8 1_555 1_555
C12 N1 1_555 1_555
C13 C7 1_555 1_555
C14 C13 1_555 1_555
C15 C14 1_555 1_555
H9 C15 1_555 1_555
H10 C15 1_555 1_555
H11 C15 1_555 1_555
C16 N2 1_555 1_555
C17 C16 1_555 1_555
H12 C17 1_555 1_555
C18 C17 1_555 1_555
H13 C18 1_555 1_555
C19 C18 1_555 1_555
H14 C19 1_555 1_555
C20 C19 1_555 1_555
H15 C20 1_555 1_555
C21 C16 1_555 1_555
H16 C21 1_555 1_555
N2 C12 1_555 1_555
C5 C6 1_555 1_555
C7 C8 1_555 1_555
C10 C11 1_555 1_555
C12 C13 1_555 1_555
C20 C21 1_555 1_555

#END
