
#######################################################################
#
#                 Cambridge Crystallographic Data Centre
#                                CCDC 
#
#######################################################################
#
# If this CIF has been generated from an entry in the Cambridge 
# Structural Database, then it will include bibliographic, chemical, 
# crystal, experimental, refinement or atomic coordinate data resulting 
# from the CCDC's data processing and validation procedures.
#
#######################################################################

data_OBUFUP
_chemical_formula_moiety         'C28 H30 B1 F2 N1 O2'
_chemical_name_systematic        
12,14-di-t-butyl-10,10-difluoro-3-methoxy-10H-9\l^5^,10\l^5^-[1,3,2]benzoxazaborinino[3,4-f]phenanthridine
_symmetry_cell_setting           triclinic
_symmetry_space_group_name_H-M   'P -1'
_symmetry_Int_Tables_number      2
_space_group_name_Hall           '-P 1'
loop_
_symmetry_equiv_pos_site_id
_symmetry_equiv_pos_as_xyz
1 x,y,z
2 -x,-y,-z
_cell_length_a                   10.9976(2)
_cell_length_b                   18.3282(4)
_cell_length_c                   20.2959(4)
_cell_angle_alpha                104.699(2)
_cell_angle_beta                 103.281(2)
_cell_angle_gamma                104.839(2)
_cell_volume                     3630.13
_exptl_crystal_colour            yellow
_exptl_crystal_description       needle
_cell_formula_units_Z            6
loop_
_atom_site_label
_atom_site_type_symbol
_atom_site_fract_x
_atom_site_fract_y
_atom_site_fract_z
B1 B 0.93688(15) 0.84490(9) 0.31777(8)
F1 F 0.88195(8) 0.84054(4) 0.37214(4)
F2 F 1.06451(8) 0.89927(4) 0.34367(4)
N1 N 0.94688(10) 0.75816(6) 0.28227(6)
C1 C 0.91037(12) 0.72931(8) 0.21087(7)
C2 C 0.87626(12) 0.64560(8) 0.17391(7)
C3 C 0.80717(12) 0.61091(8) 0.09923(7)
H1 H 0.7848 0.6439 0.0725
C4 C 0.77262(13) 0.53078(8) 0.06550(7)
H2 H 0.7252 0.5081 0.0156
C5 C 0.80714(12) 0.48144(8) 0.10445(7)
C6 C 0.86929(12) 0.51275(8) 0.17757(7)
H3 H 0.8893 0.4787 0.2037
C7 C 0.90312(12) 0.59520(8) 0.21362(7)
C8 C 0.96646(12) 0.63094(8) 0.29052(7)
C9 C 1.01169(12) 0.58849(8) 0.33433(7)
H4 H 0.9999 0.5336 0.3131
C10 C 1.07225(13) 0.62459(8) 0.40688(7)
H5 H 1.1006 0.5946 0.4355
C11 C 1.09211(13) 0.70570(8) 0.43859(7)
H6 H 1.1361 0.7310 0.4887
C12 C 1.04854(12) 0.74901(8) 0.39795(7)
H7 H 1.0619 0.8040 0.4200
C13 C 0.98405(12) 0.71200(8) 0.32362(7)
O1 O 0.77527(9) 0.40375(5) 0.06438(5)
C14 C 0.81368(16) 0.35149(8) 0.10030(8)
H8 H 0.7851 0.2974 0.0657
H9 H 0.9103 0.3710 0.1218
H10 H 0.7720 0.3503 0.1380
C15 C 0.91093(12) 0.78844(8) 0.17348(7)
C16 C 0.87789(12) 0.85560(8) 0.20248(7)
O2 O 0.84862(9) 0.86301(5) 0.26510(5)
C17 C 0.87507(12) 0.91296(8) 0.16816(7)
C18 C 0.92488(13) 0.90499(8) 0.11020(7)
H11 H 0.9261 0.9438 0.0867
C19 C 0.97300(13) 0.84338(8) 0.08469(7)
C20 C 0.96016(12) 0.78345(8) 0.11539(7)
H12 H 0.9851 0.7385 0.0967
C21 C 0.82260(13) 0.98134(8) 0.19487(7)
C22 C 1.04277(14) 0.84035(8) 0.02718(7)
C23 C 0.67895(13) 0.94619(8) 0.19352(7)
H13 H 0.6757 0.9123 0.2239
H14 H 0.6464 0.9898 0.2117
H15 H 0.6231 0.9141 0.1442
C24 C 0.90951(14) 1.03573(8) 0.27149(8)
H16 H 0.9114 1.0038 0.3036
H17 H 0.9998 1.0604 0.2715
H18 H 0.8726 1.0776 0.2882
C25 C 0.82255(15) 1.03372(8) 0.14680(8)
H19 H 0.9131 1.0571 0.1466
H20 H 0.7656 1.0009 0.0978
H21 H 0.7889 1.0767 0.1653
C26 C 1.18527(14) 0.84292(9) 0.06013(8)
H22 H 1.1828 0.7978 0.0780
H23 H 1.2300 0.8393 0.0234
H24 H 1.2337 0.8933 0.0999
C27 C 1.05142(15) 0.91156(9) 0.00008(9)
H25 H 1.0965 0.9072 -0.0364
H26 H 0.9619 0.9117 -0.0209
H27 H 1.1014 0.9614 0.0402
C28 C 0.96822(15) 0.76269(9) -0.03681(8)
H28 H 0.9621 0.7166 -0.0200
H29 H 0.8789 0.7622 -0.0592
H30 H 1.0162 0.7597 -0.0721
B2 B 0.44044(15) 0.40016(9) 0.11407(8)
F3 F 0.31780(7) 0.40888(4) 0.09231(4)
F4 F 0.50094(8) 0.39928(5) 0.06117(4)
N2 N 0.53230(10) 0.47688(6) 0.18476(6)
C29 C 0.59352(12) 0.46467(8) 0.24410(7)
C30 C 0.64118(12) 0.52630(7) 0.31274(7)
C31 C 0.67786(12) 0.50983(8) 0.37795(7)
H31 H 0.6638 0.4560 0.3765
C32 C 0.73280(12) 0.56996(8) 0.44225(7)
H32 H 0.7567 0.5580 0.4853
C33 C 0.75434(12) 0.65013(8) 0.44491(7)
C34 C 0.70754(12) 0.66742(8) 0.38361(7)
H33 H 0.7148 0.7210 0.3865
C35 C 0.64890(12) 0.60561(8) 0.31670(7)
C36 C 0.59765(12) 0.62004(8) 0.25028(7)
C37 C 0.60446(12) 0.69697(8) 0.24708(7)
H34 H 0.6430 0.7418 0.2900
C38 C 0.55644(13) 0.70833(8) 0.18313(7)
H35 H 0.5611 0.7605 0.1822
C39 C 0.50065(13) 0.64308(8) 0.11925(7)
H36 H 0.4691 0.6512 0.0749
C40 C 0.49148(12) 0.56751(8) 0.12052(7)
H37 H 0.4536 0.5235 0.0770
C41 C 0.53776(12) 0.55447(8) 0.18582(7)
O3 O 0.82109(9) 0.70527(5) 0.51097(5)
C42 C 0.84366(13) 0.78789(8) 0.51798(7)
H38 H 0.8925 0.8212 0.5680
H39 H 0.8955 0.8025 0.4871
H40 H 0.7584 0.7964 0.5036
C43 C 0.61665(12) 0.38749(8) 0.23407(7)
C44 C 0.53055(12) 0.32045(8) 0.17576(7)
O4 O 0.42343(8) 0.32854(5) 0.13323(5)
C45 C 0.55390(13) 0.24655(8) 0.16210(7)
C46 C 0.66628(13) 0.24459(8) 0.20879(7)
H41 H 0.6821 0.1950 0.2015
C47 C 0.75822(13) 0.31136(8) 0.26617(7)
C48 C 0.73194(12) 0.38235(8) 0.27745(7)
H42 H 0.7929 0.4288 0.3153
C49 C 0.46097(14) 0.17282(8) 0.09758(7)
C50 C 0.88220(13) 0.30341(8) 0.31313(7)
C51 C 0.32289(14) 0.14817(9) 0.10595(9)
H43 H 0.2890 0.1931 0.1099
H44 H 0.2629 0.1024 0.0640
H45 H 0.3284 0.1333 0.1494
C52 C 0.45221(17) 0.19128(9) 0.02701(8)
H46 H 0.5409 0.2070 0.0220
H47 H 0.3939 0.1435 -0.0136
H48 H 0.4162 0.2351 0.0277
C53 C 0.50975(16) 0.10083(9) 0.09166(8)
H49 H 0.5982 0.1148 0.0862
H50 H 0.5138 0.0863 0.1352
H51 H 0.4484 0.0554 0.0498
C54 C 0.97188(15) 0.38277(9) 0.37143(9)
H52 H 1.0009 0.4226 0.3490
H53 H 0.9227 0.4016 0.4028
H54 H 1.0495 0.3749 0.3998
C55 C 0.96282(14) 0.27403(10) 0.26622(9)
H55 H 0.9068 0.2232 0.2285
H56 H 0.9941 0.3139 0.2442
H57 H 1.0390 0.2663 0.2960
C56 C 0.83926(14) 0.24301(9) 0.35052(8)
H58 H 0.7816 0.1915 0.3144
H59 H 0.9178 0.2361 0.3791
H60 H 0.7910 0.2628 0.3821
B3 B 0.43258(15) 0.65365(9) 0.51025(8)
F5 F 0.54762(7) 0.63546(5) 0.52921(4)
F6 F 0.32853(7) 0.60281(5) 0.52150(4)
N3 N 0.39388(10) 0.64062(6) 0.42520(6)
C57 C 0.40051(12) 0.70424(8) 0.40369(7)
C58 C 0.33341(12) 0.69429(8) 0.33058(7)
C59 C 0.30338(12) 0.75779(8) 0.31021(7)
H61 H 0.3258 0.8083 0.3459
C60 C 0.24281(12) 0.74752(8) 0.24023(7)
H62 H 0.2230 0.7905 0.2273
C61 C 0.20978(12) 0.67269(8) 0.18720(7)
C62 C 0.23027(12) 0.60870(8) 0.20571(7)
H63 H 0.2042 0.5580 0.1697
C63 C 0.28970(12) 0.61798(8) 0.27786(7)
C64 C 0.30485(12) 0.55108(8) 0.30050(7)
C65 C 0.27378(12) 0.47388(8) 0.25146(7)
H64 H 0.2447 0.4652 0.2014
C66 C 0.28476(13) 0.41117(8) 0.27480(8)
H65 H 0.2640 0.3596 0.2411
C67 C 0.32663(13) 0.42331(8) 0.34838(8)
H66 H 0.3328 0.3796 0.3644
C68 C 0.35893(12) 0.49780(8) 0.39772(7)
H67 H 0.3876 0.5054 0.4476
C69 C 0.34959(12) 0.56310(8) 0.37454(7)
O5 O 0.15339(9) 0.66929(5) 0.11895(5)
C70 C 0.10916(14) 0.59313(8) 0.06373(7)
H68 H 0.0706 0.5984 0.0173
H69 H 0.1845 0.5742 0.0623
H70 H 0.0421 0.5546 0.0738
C71 C 0.48464(12) 0.78309(8) 0.45606(7)
C72 C 0.51098(12) 0.79520(8) 0.52955(7)
O6 O 0.44850(9) 0.73455(5) 0.54959(5)
C73 C 0.59806(12) 0.86856(8) 0.58124(7)
C74 C 0.65676(12) 0.92728(8) 0.55529(7)
H71 H 0.7155 0.9772 0.5892
C75 C 0.63440(12) 0.91717(8) 0.48196(7)
C76 C 0.55020(12) 0.84406(8) 0.43342(7)
H72 H 0.5361 0.8346 0.3836
C77 C 0.63002(13) 0.88200(8) 0.66229(7)
C78 C 0.70236(12) 0.98540(8) 0.45821(7)
C79 C 0.69992(14) 0.82344(9) 0.68093(7)
H73 H 0.6429 0.7684 0.6523
H74 H 0.7839 0.8345 0.6702
H75 H 0.7173 0.8303 0.7321
C80 C 0.50187(14) 0.86759(9) 0.68293(8)
H76 H 0.4414 0.8132 0.6548
H77 H 0.5233 0.8742 0.7342
H78 H 0.4593 0.9062 0.6730
C81 C 0.72091(15) 0.96761(9) 0.70759(7)
H79 H 0.8037 0.9787 0.6957
H80 H 0.6766 1.0055 0.6974
H81 H 0.7405 0.9734 0.7586
C82 C 0.85181(13) 1.00086(8) 0.48075(8)
H82 H 0.8860 1.0139 0.5329
H83 H 0.8692 0.9529 0.4567
H84 H 0.8959 1.0458 0.4672
C83 C 0.65223(14) 0.96530(8) 0.37669(7)
H85 H 0.5565 0.9552 0.3611
H86 H 0.6974 1.0104 0.3637
H87 H 0.6707 0.9175 0.3532
C84 C 0.67600(13) 1.06179(8) 0.49384(8)
H88 H 0.5803 1.0521 0.4795
H89 H 0.7110 1.0767 0.5461
H90 H 0.7199 1.1053 0.4786
loop_
_geom_bond_atom_site_label_1
_geom_bond_atom_site_label_2
_geom_bond_site_symmetry_1
_geom_bond_site_symmetry_2
B1 F1 1_555 1_555
F2 B1 1_555 1_555
N1 B1 1_555 1_555
C1 N1 1_555 1_555
C2 C1 1_555 1_555
C3 C2 1_555 1_555
H1 C3 1_555 1_555
C4 C3 1_555 1_555
H2 C4 1_555 1_555
C5 C4 1_555 1_555
C6 C5 1_555 1_555
H3 C6 1_555 1_555
C7 C2 1_555 1_555
C8 C7 1_555 1_555
C9 C8 1_555 1_555
H4 C9 1_555 1_555
C10 C9 1_555 1_555
H5 C10 1_555 1_555
C11 C10 1_555 1_555
H6 C11 1_555 1_555
C12 C11 1_555 1_555
H7 C12 1_555 1_555
C13 N1 1_555 1_555
O1 C5 1_555 1_555
C14 O1 1_555 1_555
H8 C14 1_555 1_555
H9 C14 1_555 1_555
H10 C14 1_555 1_555
C15 C1 1_555 1_555
C16 C15 1_555 1_555
O2 B1 1_555 1_555
C17 C16 1_555 1_555
C18 C17 1_555 1_555
H11 C18 1_555 1_555
C19 C18 1_555 1_555
C20 C15 1_555 1_555
H12 C20 1_555 1_555
C21 C17 1_555 1_555
C22 C19 1_555 1_555
C23 C21 1_555 1_555
H13 C23 1_555 1_555
H14 C23 1_555 1_555
H15 C23 1_555 1_555
C24 C21 1_555 1_555
H16 C24 1_555 1_555
H17 C24 1_555 1_555
H18 C24 1_555 1_555
C25 C21 1_555 1_555
H19 C25 1_555 1_555
H20 C25 1_555 1_555
H21 C25 1_555 1_555
C26 C22 1_555 1_555
H22 C26 1_555 1_555
H23 C26 1_555 1_555
H24 C26 1_555 1_555
C27 C22 1_555 1_555
H25 C27 1_555 1_555
H26 C27 1_555 1_555
H27 C27 1_555 1_555
C28 C22 1_555 1_555
H28 C28 1_555 1_555
H29 C28 1_555 1_555
H30 C28 1_555 1_555
B2 F3 1_555 1_555
F4 B2 1_555 1_555
N2 B2 1_555 1_555
C29 N2 1_555 1_555
C30 C29 1_555 1_555
C31 C30 1_555 1_555
H31 C31 1_555 1_555
C32 C31 1_555 1_555
H32 C32 1_555 1_555
C33 C32 1_555 1_555
C34 C33 1_555 1_555
H33 C34 1_555 1_555
C35 C30 1_555 1_555
C36 C35 1_555 1_555
C37 C36 1_555 1_555
H34 C37 1_555 1_555
C38 C37 1_555 1_555
H35 C38 1_555 1_555
C39 C38 1_555 1_555
H36 C39 1_555 1_555
C40 C39 1_555 1_555
H37 C40 1_555 1_555
C41 N2 1_555 1_555
O3 C33 1_555 1_555
C42 O3 1_555 1_555
H38 C42 1_555 1_555
H39 C42 1_555 1_555
H40 C42 1_555 1_555
C43 C29 1_555 1_555
C44 C43 1_555 1_555
O4 B2 1_555 1_555
C45 C44 1_555 1_555
C46 C45 1_555 1_555
H41 C46 1_555 1_555
C47 C46 1_555 1_555
C48 C43 1_555 1_555
H42 C48 1_555 1_555
C49 C45 1_555 1_555
C50 C47 1_555 1_555
C51 C49 1_555 1_555
H43 C51 1_555 1_555
H44 C51 1_555 1_555
H45 C51 1_555 1_555
C52 C49 1_555 1_555
H46 C52 1_555 1_555
H47 C52 1_555 1_555
H48 C52 1_555 1_555
C53 C49 1_555 1_555
H49 C53 1_555 1_555
H50 C53 1_555 1_555
H51 C53 1_555 1_555
C54 C50 1_555 1_555
H52 C54 1_555 1_555
H53 C54 1_555 1_555
H54 C54 1_555 1_555
C55 C50 1_555 1_555
H55 C55 1_555 1_555
H56 C55 1_555 1_555
H57 C55 1_555 1_555
C56 C50 1_555 1_555
H58 C56 1_555 1_555
H59 C56 1_555 1_555
H60 C56 1_555 1_555
B3 F5 1_555 1_555
F6 B3 1_555 1_555
N3 B3 1_555 1_555
C57 N3 1_555 1_555
C58 C57 1_555 1_555
C59 C58 1_555 1_555
H61 C59 1_555 1_555
C60 C59 1_555 1_555
H62 C60 1_555 1_555
C61 C60 1_555 1_555
C62 C61 1_555 1_555
H63 C62 1_555 1_555
C63 C58 1_555 1_555
C64 C63 1_555 1_555
C65 C64 1_555 1_555
H64 C65 1_555 1_555
C66 C65 1_555 1_555
H65 C66 1_555 1_555
C67 C66 1_555 1_555
H66 C67 1_555 1_555
C68 C67 1_555 1_555
H67 C68 1_555 1_555
C69 N3 1_555 1_555
O5 C61 1_555 1_555
C70 O5 1_555 1_555
H68 C70 1_555 1_555
H69 C70 1_555 1_555
H70 C70 1_555 1_555
C71 C57 1_555 1_555
C72 C71 1_555 1_555
O6 B3 1_555 1_555
C73 C72 1_555 1_555
C74 C73 1_555 1_555
H71 C74 1_555 1_555
C75 C74 1_555 1_555
C76 C71 1_555 1_555
H72 C76 1_555 1_555
C77 C73 1_555 1_555
C78 C75 1_555 1_555
C79 C77 1_555 1_555
H73 C79 1_555 1_555
H74 C79 1_555 1_555
H75 C79 1_555 1_555
C80 C77 1_555 1_555
H76 C80 1_555 1_555
H77 C80 1_555 1_555
H78 C80 1_555 1_555
C81 C77 1_555 1_555
H79 C81 1_555 1_555
H80 C81 1_555 1_555
H81 C81 1_555 1_555
C82 C78 1_555 1_555
H82 C82 1_555 1_555
H83 C82 1_555 1_555
H84 C82 1_555 1_555
C83 C78 1_555 1_555
H85 C83 1_555 1_555
H86 C83 1_555 1_555
H87 C83 1_555 1_555
C84 C78 1_555 1_555
H88 C84 1_555 1_555
H89 C84 1_555 1_555
H90 C84 1_555 1_555
C6 C7 1_555 1_555
C8 C13 1_555 1_555
C12 C13 1_555 1_555
C16 O2 1_555 1_555
C19 C20 1_555 1_555
C34 C35 1_555 1_555
C36 C41 1_555 1_555
C40 C41 1_555 1_555
C44 O4 1_555 1_555
C47 C48 1_555 1_555
C62 C63 1_555 1_555
C64 C69 1_555 1_555
C68 C69 1_555 1_555
C72 O6 1_555 1_555
C75 C76 1_555 1_555

#END
