
#######################################################################
#
#                 Cambridge Crystallographic Data Centre
#                                CCDC 
#
#######################################################################
#
# If this CIF has been generated from an entry in the Cambridge 
# Structural Database, then it will include bibliographic, chemical, 
# crystal, experimental, refinement or atomic coordinate data resulting 
# from the CCDC's data processing and validation procedures.
#
#######################################################################

data_OCAKEJ
_chemical_formula_moiety         'C7 H7 N2 1+,C18 H15 O10 1-'
_chemical_name_systematic        
'Benzimidazolium hydrogen bis(3-carboxyphenoxyacetate)'
_symmetry_cell_setting           monoclinic
_symmetry_space_group_name_H-M   'C 2/c'
_symmetry_Int_Tables_number      15
_space_group_name_Hall           '-C 2yn'
loop_
_symmetry_equiv_pos_site_id
_symmetry_equiv_pos_as_xyz
1 x,y,z
2 1/2+x,1/2+y,z
3 x,-y,1/2+z
4 1/2+x,1/2-y,1/2+z
5 -x,-y,-z
6 1/2-x,1/2-y,-z
7 -x,y,1/2-z
8 1/2-x,1/2+y,1/2-z
_cell_length_a                   11.255(2)
_cell_length_b                   14.108(3)
_cell_length_c                   14.576(3)
_cell_angle_alpha                90
_cell_angle_beta                 103.37(3)
_cell_angle_gamma                90
_cell_volume                     2251.73
_exptl_crystal_colour            colorless
_exptl_crystal_description       prism
_cell_formula_units_Z            4
_exptl_crystal_recrystallization_method ethanol-water
loop_
_atom_site_label
_atom_site_type_symbol
_atom_site_fract_x
_atom_site_fract_y
_atom_site_fract_z
O1 O 0.6565(2) 0.69554(15) 0.56875(16)
O2 O 0.5886(2) 0.54831(14) 0.54130(17)
H1 H 0.5000 0.5000 0.5000
O3 O 0.44548(19) 0.77155(13) 0.48555(15)
O4 O 0.3539(2) 1.10941(14) 0.44733(18)
H2 H 0.354(4) 1.1694(8) 0.441(3)
O5 O 0.1807(2) 1.12313(16) 0.3383(2)
C5 C 0.5760(3) 0.63918(19) 0.5344(2)
C6 C 0.4526(3) 0.67188(19) 0.4782(2)
H7 H 0.4422 0.6538 0.4126
H8 H 0.3883 0.6423 0.5024
C7 C 0.3508(2) 0.81817(19) 0.4274(2)
C8 C 0.3506(2) 0.91610(19) 0.4373(2)
H9 H 0.4111 0.9457 0.4824
C9 C 0.2600(2) 0.96936(19) 0.3796(2)
C10 C 0.1703(3) 0.9258(2) 0.3120(2)
H10 H 0.1099 0.9618 0.2728
C11 C 0.1711(3) 0.8284(2) 0.3029(3)
H11 H 0.1109 0.7990 0.2573
C12 C 0.2597(3) 0.7742(2) 0.3606(2)
H12 H 0.2584 0.7085 0.3548
C13 C 0.2603(3) 1.0752(2) 0.3861(2)
O2D O 0.4114(2) 0.45169(14) 0.45870(17)
C5D C 0.4240(3) 0.36082(19) 0.4656(2)
O1D O 0.3435(2) 0.30446(15) 0.43125(16)
C6D C 0.5474(3) 0.32812(19) 0.5218(2)
O3D O 0.55452(19) 0.22845(13) 0.51445(15)
C7D C 0.6492(2) 0.18183(19) 0.5726(2)
C8D C 0.6494(2) 0.08390(19) 0.5627(2)
H9D H 0.5889 0.0543 0.5176
C9D C 0.7400(2) 0.03064(19) 0.6204(2)
C10D C 0.8297(3) 0.0742(2) 0.6880(2)
H10D H 0.8901 0.0382 0.7272
C11D C 0.8289(3) 0.1716(2) 0.6971(3)
H11D H 0.8891 0.2010 0.7427
C12D C 0.7403(3) 0.2258(2) 0.6394(2)
H12D H 0.7416 0.2915 0.6452
C13D C 0.7397(3) -0.0752(2) 0.6139(2)
O4D O 0.6461(2) -0.10941(14) 0.55267(18)
H2D H 0.646(4) -0.1694(8) 0.559(3)
O5D O 0.8193(2) -0.12313(16) 0.6617(2)
H7D H 0.5578 0.3462 0.5874
H8D H 0.6117 0.3577 0.4976
N1 N 0.9161(2) 0.68530(17) 0.69609(18)
H3 H 0.851(2) 0.709(3) 0.662(3)
C1 C 1.0000 0.7393(3) 0.7500
H4 H 1.0000 0.8052 0.7500
C2 C 0.9459(2) 0.59206(18) 0.71532(19)
C3 C 0.8899(3) 0.5102(2) 0.6781(2)
H5 H 0.8180 0.5104 0.6314
C4 C 0.9468(4) 0.4273(2) 0.7143(4)
H6 H 0.9132 0.3697 0.6903
N1F N 1.0839(2) 0.68530(17) 0.80391(18)
H3F H 1.149(2) 0.709(3) 0.838(3)
C2F C 1.0541(2) 0.59206(18) 0.78468(19)
C4F C 1.0532(4) 0.4273(2) 0.7857(4)
C3F C 1.1101(3) 0.5102(2) 0.8219(2)
H5F H 1.1820 0.5104 0.8686
H6F H 1.0868 0.3697 0.8097
loop_
_geom_bond_atom_site_label_1
_geom_bond_atom_site_label_2
_geom_bond_site_symmetry_1
_geom_bond_site_symmetry_2
O1 C5 1_555 1_555
O2 H1 1_555 1_555
H1 O2D 1_555 1_555
O3 C6 1_555 1_555
O4 H2 1_555 1_555
O5 C13 1_555 1_555
N1 H3 1_555 1_555
C1 N1 1_555 1_555
H4 C1 1_555 1_555
C2 N1 1_555 1_555
C3 C2 1_555 1_555
H5 C3 1_555 1_555
C4 C3 1_555 1_555
H6 C4 1_555 1_555
C5 O2 1_555 1_555
C6 C5 1_555 1_555
H7 C6 1_555 1_555
H8 C6 1_555 1_555
C7 O3 1_555 1_555
C8 C7 1_555 1_555
H9 C8 1_555 1_555
C9 C8 1_555 1_555
C10 C9 1_555 1_555
H10 C10 1_555 1_555
C11 C10 1_555 1_555
H11 C11 1_555 1_555
C12 C7 1_555 1_555
H12 C12 1_555 1_555
C13 O4 1_555 1_555
O2D C5D 1_555 1_555
C5D O1D 1_555 1_555
C6D C5D 1_555 1_555
O3D C6D 1_555 1_555
C7D O3D 1_555 1_555
C8D C7D 1_555 1_555
H9D C8D 1_555 1_555
C9D C8D 1_555 1_555
C10D C9D 1_555 1_555
H10D C10D 1_555 1_555
C11D C10D 1_555 1_555
H11D C11D 1_555 1_555
C12D C7D 1_555 1_555
H12D C12D 1_555 1_555
C13D C9D 1_555 1_555
O4D C13D 1_555 1_555
H2D O4D 1_555 1_555
O5D C13D 1_555 1_555
H7D C6D 1_555 1_555
H8D C6D 1_555 1_555
N1F C1 1_555 1_555
H3F N1F 1_555 1_555
C2F C2 1_555 1_555
C4F C4 1_555 1_555
C3F C2F 1_555 1_555
H5F C3F 1_555 1_555
H6F C4F 1_555 1_555
C9 C13 1_555 1_555
C11 C12 1_555 1_555
C11D C12D 1_555 1_555
N1F C2F 1_555 1_555
C4F C3F 1_555 1_555

#END
