
#######################################################################
#
#                 Cambridge Crystallographic Data Centre
#                                CCDC 
#
#######################################################################
#
# If this CIF has been generated from an entry in the Cambridge 
# Structural Database, then it will include bibliographic, chemical, 
# crystal, experimental, refinement or atomic coordinate data resulting 
# from the CCDC's data processing and validation procedures.
#
#######################################################################

data_OCAXIZ
_chemical_formula_moiety         'C30 H28 N2 O4 S2'
_chemical_name_systematic        
2-(4-Methylbenzylidene)-1,4-bis(p-tosyl)-1,2,3,4-tetrahydroquinoxaline
_symmetry_cell_setting           monoclinic
_symmetry_space_group_name_H-M   'P 21/c'
_symmetry_Int_Tables_number      14
_space_group_name_Hall           '-P 2ybc'
loop_
_symmetry_equiv_pos_site_id
_symmetry_equiv_pos_as_xyz
1 x,y,z
2 x,1/2-y,1/2+z
3 -x,-y,-z
4 -x,1/2+y,1/2-z
_cell_length_a                   10.559(4)
_cell_length_b                   11.658(4)
_cell_length_c                   23.169(7)
_cell_angle_alpha                90
_cell_angle_beta                 100.54(3)
_cell_angle_gamma                90
_cell_volume                     2803.91
_exptl_crystal_colour            colorless
_exptl_crystal_description       block
_chemical_melting_point          '428 K'
_cell_formula_units_Z            4
_exptl_crystal_recrystallization_method 'chloroform/light petroleum'
loop_
_atom_site_label
_atom_site_type_symbol
_atom_site_fract_x
_atom_site_fract_y
_atom_site_fract_z
S1 S 0.30086(6) 0.25747(5) 0.15874(4)
N1 N 0.14136(17) 0.23239(15) 0.15816(9)
O1 O 0.30516(18) 0.33353(16) 0.11065(12)
O2 O 0.35635(19) 0.2907(2) 0.21676(11)
S2 S -0.18201(5) 0.01590(5) 0.11171(3)
N2 N -0.02264(16) 0.03468(14) 0.13007(8)
O3 O -0.21918(16) -0.05499(16) 0.15587(9)
O4 O -0.20392(16) -0.02169(14) 0.05199(8)
C1 C 0.1090(2) 0.1597(2) 0.20364(10)
C2 C 0.1501(3) 0.1889(3) 0.26257(13)
H1 H 0.1956 0.2566 0.2722
C3 C 0.1239(3) 0.1186(4) 0.30619(14)
H2 H 0.1504 0.1396 0.3453
C4 C 0.0584(3) 0.0169(4) 0.29266(14)
H3 H 0.0454 -0.0325 0.3225
C5 C 0.0122(3) -0.0115(3) 0.23484(12)
H4 H -0.0328 -0.0797 0.2259
C6 C 0.0326(2) 0.0615(2) 0.18956(10)
C7 C 0.0387(2) 0.09056(17) 0.08535(10)
H5 H -0.0179 0.0853 0.0474
H6 H 0.1183 0.0510 0.0827
C8 C 0.06717(19) 0.21462(17) 0.10031(10)
C9 C 0.0305(2) 0.30615(18) 0.06680(11)
H7 H 0.0497 0.3769 0.0848
C10 C -0.0360(2) 0.31014(18) 0.00546(11)
C11 C -0.0157(3) 0.2325(2) -0.03727(12)
H8 H 0.0436 0.1735 -0.0274
C12 C -0.0820(4) 0.2414(3) -0.09396(13)
H9 H -0.0670 0.1878 -0.1217
C13 C -0.1707(3) 0.3282(3) -0.11085(12)
C14 C -0.1890(3) 0.4070(2) -0.06887(13)
H10 H -0.2474 0.4666 -0.0791
C15 C -0.1227(2) 0.39927(19) -0.01235(12)
H11 H -0.1357 0.4547 0.0148
C16 C -0.2420(4) 0.3373(4) -0.17354(13)
H12 H -0.1909 0.3037 -0.1994
H13 H -0.2577 0.4165 -0.1836
H14 H -0.3226 0.2973 -0.1774
C17 C 0.36745(19) 0.12593(19) 0.14356(10)
C18 C 0.4110(2) 0.0497(2) 0.18827(11)
H15 H 0.4082 0.0689 0.2270
C19 C 0.4583(3) -0.0543(2) 0.17511(13)
H16 H 0.4873 -0.1056 0.2054
C20 C 0.4644(2) -0.0855(2) 0.11845(13)
C21 C 0.4215(2) -0.0086(2) 0.07457(12)
H17 H 0.4251 -0.0280 0.0360
C22 C 0.3731(2) 0.0970(2) 0.08624(11)
H18 H 0.3446 0.1483 0.0559
C23 C 0.5167(3) -0.2009(3) 0.10473(18)
H19 H 0.5571 -0.2373 0.1406
H20 H 0.5789 -0.1906 0.0797
H21 H 0.4475 -0.2481 0.0852
C24 C -0.25481(19) 0.15097(19) 0.11401(10)
C25 C -0.2946(2) 0.2117(2) 0.06328(11)
H22 H -0.2838 0.1819 0.0273
C26 C -0.3511(2) 0.3180(2) 0.06639(14)
H23 H -0.3788 0.3589 0.0319
C27 C -0.3675(2) 0.3649(2) 0.11888(16)
C28 C -0.3270(3) 0.3020(3) 0.16894(15)
H24 H -0.3367 0.3323 0.2050
C29 C -0.2722(3) 0.1950(3) 0.16707(12)
H25 H -0.2473 0.1530 0.2014
C30 C -0.4278(3) 0.4826(2) 0.1217(2)
H26 H -0.4716 0.5044 0.0832
H27 H -0.3617 0.5376 0.1357
H28 H -0.4883 0.4802 0.1480
loop_
_geom_bond_atom_site_label_1
_geom_bond_atom_site_label_2
_geom_bond_site_symmetry_1
_geom_bond_site_symmetry_2
S1 N1 1_555 1_555
N1 C1 1_555 1_555
O1 S1 1_555 1_555
O2 S1 1_555 1_555
S2 N2 1_555 1_555
N2 C6 1_555 1_555
O3 S2 1_555 1_555
O4 S2 1_555 1_555
C1 C2 1_555 1_555
C2 H1 1_555 1_555
C3 C2 1_555 1_555
H2 C3 1_555 1_555
C4 C3 1_555 1_555
H3 C4 1_555 1_555
C5 C4 1_555 1_555
H4 C5 1_555 1_555
C6 C1 1_555 1_555
C7 N2 1_555 1_555
H5 C7 1_555 1_555
H6 C7 1_555 1_555
C8 N1 1_555 1_555
C9 C8 1_555 1_555
H7 C9 1_555 1_555
C10 C9 1_555 1_555
C11 C10 1_555 1_555
H8 C11 1_555 1_555
C12 C11 1_555 1_555
H9 C12 1_555 1_555
C13 C12 1_555 1_555
C14 C13 1_555 1_555
H10 C14 1_555 1_555
C15 C10 1_555 1_555
H11 C15 1_555 1_555
C16 C13 1_555 1_555
H12 C16 1_555 1_555
H13 C16 1_555 1_555
H14 C16 1_555 1_555
C17 S1 1_555 1_555
C18 C17 1_555 1_555
H15 C18 1_555 1_555
C19 C18 1_555 1_555
H16 C19 1_555 1_555
C20 C19 1_555 1_555
C21 C20 1_555 1_555
H17 C21 1_555 1_555
C22 C17 1_555 1_555
H18 C22 1_555 1_555
C23 C20 1_555 1_555
H19 C23 1_555 1_555
H20 C23 1_555 1_555
H21 C23 1_555 1_555
C24 S2 1_555 1_555
C25 C24 1_555 1_555
H22 C25 1_555 1_555
C26 C25 1_555 1_555
H23 C26 1_555 1_555
C27 C26 1_555 1_555
C28 C27 1_555 1_555
H24 C28 1_555 1_555
C29 C24 1_555 1_555
H25 C29 1_555 1_555
C30 C27 1_555 1_555
H26 C30 1_555 1_555
H27 C30 1_555 1_555
H28 C30 1_555 1_555
C5 C6 1_555 1_555
C7 C8 1_555 1_555
C14 C15 1_555 1_555
C21 C22 1_555 1_555
C28 C29 1_555 1_555

#END
