
#######################################################################
#
#                 Cambridge Crystallographic Data Centre
#                                CCDC 
#
#######################################################################
#
# If this CIF has been generated from an entry in the Cambridge 
# Structural Database, then it will include bibliographic, chemical, 
# crystal, experimental, refinement or atomic coordinate data resulting 
# from the CCDC's data processing and validation procedures.
#
#######################################################################

data_OCAYUO
_chemical_formula_moiety         'C10 H7 Cl1 O3'
_chemical_name_systematic        3-(2-Chlorophenyl)-4-hydroxyfuran-2(5H)-one
_symmetry_cell_setting           monoclinic
_symmetry_space_group_name_H-M   'P 21/c'
_symmetry_Int_Tables_number      14
_space_group_name_Hall           '-P 2ybc'
loop_
_symmetry_equiv_pos_site_id
_symmetry_equiv_pos_as_xyz
1 x,y,z
2 -x,1/2+y,1/2-z
3 -x,-y,-z
4 x,1/2-y,1/2+z
_cell_length_a                   9.9699(15)
_cell_length_b                   11.8308(18)
_cell_length_c                   8.1562(12)
_cell_angle_alpha                90
_cell_angle_beta                 104.898(2)
_cell_angle_gamma                90
_cell_volume                     929.7
_exptl_crystal_colour            colorless
_exptl_crystal_description       block
_cell_formula_units_Z            4
_exptl_crystal_recrystallization_method ethanol/water
loop_
_atom_site_label
_atom_site_type_symbol
_atom_site_fract_x
_atom_site_fract_y
_atom_site_fract_z
C1 C 0.70093(13) 0.46964(11) 0.22948(16)
C2 C 0.62894(13) 0.38058(11) 0.13494(17)
C3 C 0.48970(15) 0.36149(14) 0.1245(2)
H1 H 0.4435 0.3010 0.0617
C4 C 0.42063(16) 0.43319(17) 0.2082(2)
H2 H 0.3274 0.4206 0.2022
C5 C 0.48850(17) 0.52330(17) 0.3006(2)
H3 H 0.4408 0.5719 0.3553
C6 C 0.62747(16) 0.54126(14) 0.3117(2)
H4 H 0.6729 0.6019 0.3748
C7 C 0.84833(13) 0.49225(10) 0.23989(17)
C8 C 0.96157(13) 0.41569(11) 0.31055(18)
C9 C 1.05960(15) 0.57272(12) 0.2315(2)
H5 H 1.0901 0.5790 0.1281
H6 H 1.1076 0.6290 0.3119
C10 C 0.90647(14) 0.58691(11) 0.19598(18)
Cl1 Cl 0.71082(4) 0.29321(3) 0.01933(5)
H7 H 0.897(3) 0.730(2) 0.125(3)
O1 O 0.95949(11) 0.32284(8) 0.37570(15)
O2 O 1.08432(10) 0.46088(9) 0.30186(16)
O3 O 0.84132(12) 0.67963(10) 0.12899(18)
loop_
_geom_bond_atom_site_label_1
_geom_bond_atom_site_label_2
_geom_bond_site_symmetry_1
_geom_bond_site_symmetry_2
C1 C2 1_555 1_555
C2 C3 1_555 1_555
C3 H1 1_555 1_555
C4 C3 1_555 1_555
H2 C4 1_555 1_555
C5 C4 1_555 1_555
H3 C5 1_555 1_555
C6 C1 1_555 1_555
H4 C6 1_555 1_555
C7 C1 1_555 1_555
C8 C7 1_555 1_555
C9 H5 1_555 1_555
H6 C9 1_555 1_555
C10 C7 1_555 1_555
Cl1 C2 1_555 1_555
H7 O3 1_555 1_555
O1 C8 1_555 1_555
O2 C8 1_555 1_555
O3 C10 1_555 1_555
C5 C6 1_555 1_555
C9 C10 1_555 1_555
C9 O2 1_555 1_555

#END
