
#######################################################################
#
#                 Cambridge Crystallographic Data Centre
#                                CCDC 
#
#######################################################################
#
# If this CIF has been generated from an entry in the Cambridge 
# Structural Database, then it will include bibliographic, chemical, 
# crystal, experimental, refinement or atomic coordinate data resulting 
# from the CCDC's data processing and validation procedures.
#
#######################################################################

data_OCENAN
_chemical_formula_moiety         'C14 H11 Cl1 N4 O4'
_chemical_name_systematic        
(E)-1-[1-(2-Chlorophenyl)ethylidene]-2-(2,4-dinitrophenyl)hydrazine
_symmetry_cell_setting           monoclinic
_symmetry_space_group_name_H-M   'C 2/c'
_symmetry_Int_Tables_number      15
_space_group_name_Hall           '-C 2yn'
loop_
_symmetry_equiv_pos_site_id
_symmetry_equiv_pos_as_xyz
1 x,y,z
2 -x,y,1/2-z
3 1/2+x,1/2+y,z
4 1/2-x,1/2+y,1/2-z
5 -x,-y,-z
6 x,-y,1/2+z
7 1/2-x,1/2-y,-z
8 1/2+x,1/2-y,1/2+z
_cell_length_a                   32.660(3)
_cell_length_b                   7.1435(7)
_cell_length_c                   13.4798(13)
_cell_angle_alpha                90
_cell_angle_beta                 112.215(2)
_cell_angle_gamma                90
_cell_volume                     2911.48
_exptl_crystal_colour            yellow
_exptl_crystal_description       block
_chemical_melting_point          '478-479 K'
_cell_formula_units_Z            8
_exptl_crystal_recrystallization_method ethanol
loop_
_atom_site_label
_atom_site_type_symbol
_atom_site_fract_x
_atom_site_fract_y
_atom_site_fract_z
Cl1 Cl 0.015926(14) 0.34149(7) 0.42093(4)
O1 O 0.06808(4) 0.2345(2) 0.95156(10)
O2 O 0.09965(5) 0.2876(2) 1.12043(10)
O3 O 0.24764(5) 0.5021(3) 1.28114(10)
O4 O 0.28607(4) 0.5486(3) 1.18505(11)
N1 N 0.11688(4) 0.28366(18) 0.72895(9)
N2 N 0.10981(4) 0.2894(2) 0.82297(10)
H1 H 0.0863(7) 0.249(3) 0.8280(15)
N3 N 0.10020(4) 0.2853(2) 1.03026(11)
N4 N 0.25170(5) 0.5037(2) 1.19483(11)
C1 C 0.14355(5) 0.3406(2) 0.91423(11)
C2 C 0.14038(4) 0.3427(2) 1.01624(11)
C3 C 0.17560(5) 0.3958(2) 1.10769(11)
H2 H 0.1729 0.3959 1.1739
C4 C 0.21443(5) 0.4482(2) 1.09923(11)
C5 C 0.21904(5) 0.4482(2) 1.00072(12)
H3 H 0.2457 0.4844 0.9964
C6 C 0.18447(5) 0.3951(2) 0.91068(11)
H4 H 0.1879 0.3947 0.8453
C7 C 0.08535(5) 0.2174(2) 0.64630(11)
C8 C 0.09681(5) 0.2063(2) 0.54960(11)
C9 C 0.06866(5) 0.2561(2) 0.44575(12)
C10 C 0.08208(6) 0.2441(3) 0.35979(13)
H5 H 0.0628 0.2781 0.2915
C11 C 0.12381(7) 0.1822(3) 0.37579(14)
H6 H 0.1329 0.1738 0.3183
C12 C 0.15241(6) 0.1321(3) 0.47736(15)
H7 H 0.1807 0.0900 0.4882
C13 C 0.13910(5) 0.1445(2) 0.56248(13)
H8 H 0.1588 0.1109 0.6304
C14 C 0.04246(5) 0.1437(3) 0.64700(14)
H9 H 0.0482 0.0642 0.7082
H10 H 0.0276 0.0732 0.5827
H11 H 0.0241 0.2465 0.6505
loop_
_geom_bond_atom_site_label_1
_geom_bond_atom_site_label_2
_geom_bond_site_symmetry_1
_geom_bond_site_symmetry_2
Cl1 C9 1_555 1_555
O1 N3 1_555 1_555
O2 N3 1_555 1_555
O3 N4 1_555 1_555
O4 N4 1_555 1_555
N1 N2 1_555 1_555
N2 H1 1_555 1_555
N3 C2 1_555 1_555
N4 C4 1_555 1_555
C1 N2 1_555 1_555
C2 C1 1_555 1_555
C3 C2 1_555 1_555
H2 C3 1_555 1_555
C4 C3 1_555 1_555
C5 C4 1_555 1_555
H3 C5 1_555 1_555
C6 C1 1_555 1_555
H4 C6 1_555 1_555
C7 N1 1_555 1_555
C8 C7 1_555 1_555
C9 C8 1_555 1_555
C10 C9 1_555 1_555
H5 C10 1_555 1_555
C11 C10 1_555 1_555
H6 C11 1_555 1_555
C12 C11 1_555 1_555
H7 C12 1_555 1_555
C13 C8 1_555 1_555
H8 C13 1_555 1_555
C14 C7 1_555 1_555
H9 C14 1_555 1_555
H10 C14 1_555 1_555
H11 C14 1_555 1_555
C5 C6 1_555 1_555
C12 C13 1_555 1_555

#END
