
#######################################################################
#
#                 Cambridge Crystallographic Data Centre
#                                CCDC 
#
#######################################################################
#
# If this CIF has been generated from an entry in the Cambridge 
# Structural Database, then it will include bibliographic, chemical, 
# crystal, experimental, refinement or atomic coordinate data resulting 
# from the CCDC's data processing and validation procedures.
#
#######################################################################

data_OCENUG
_chemical_formula_moiety         'C13 H23 Cl1 O1'
_chemical_name_systematic        
(1S,3R,6R,9R)-3-Chloro-5,5,9-trimethylbicyclo(4.4.0)decan-1-ol
_symmetry_cell_setting           orthorhombic
_symmetry_space_group_name_H-M   'P 21 21 21'
_symmetry_Int_Tables_number      19
_space_group_name_Hall           'P 2ac 2ab'
loop_
_symmetry_equiv_pos_site_id
_symmetry_equiv_pos_as_xyz
1 x,y,z
2 1/2-x,-y,1/2+z
3 -x,1/2+y,1/2-z
4 1/2+x,1/2-y,-z
_cell_length_a                   5.7016(9)
_cell_length_b                   13.263(2)
_cell_length_c                   17.305(3)
_cell_angle_alpha                90
_cell_angle_beta                 90
_cell_angle_gamma                90
_cell_volume                     1308.61
_exptl_crystal_colour            colorless
_exptl_crystal_description       columnar
_chemical_melting_point          '318 K'
_cell_formula_units_Z            4
loop_
_atom_site_label
_atom_site_type_symbol
_atom_site_fract_x
_atom_site_fract_y
_atom_site_fract_z
Cl1 Cl 0.18629(11) 0.39321(4) 0.37880(3)
O1 O 0.5548(2) 0.09361(10) 0.42825(6)
H1 H 0.5793 0.0999 0.4759
C1 C 0.3063(3) 0.08989(12) 0.41412(9)
C2 C 0.1867(4) 0.01835(12) 0.47091(10)
H2 H 0.0148 0.0255 0.4650
H3 H 0.2273 0.0397 0.5241
C3 C 0.2503(4) -0.09389(13) 0.46189(12)
H4 H 0.1348 -0.1332 0.4932
C4 C 0.2148(4) -0.12423(13) 0.37722(12)
H5 H 0.2693 -0.1945 0.3700
H6 H 0.0453 -0.1221 0.3650
C5 C 0.3458(4) -0.05590(13) 0.32142(11)
H7 H 0.3164 -0.0784 0.2677
H8 H 0.5164 -0.0608 0.3314
C6 C 0.2671(3) 0.05392(12) 0.33045(10)
H9 H 0.0931 0.0529 0.3233
C7 C 0.3616(3) 0.12711(13) 0.26740(9)
C8 C 0.2660(3) 0.23335(12) 0.28373(10)
H10 H 0.3393 0.2816 0.2473
H11 H 0.0948 0.2339 0.2742
C9 C 0.3122(3) 0.26838(11) 0.36600(9)
H12 H 0.4854 0.2721 0.3747
C10 C 0.2054(3) 0.19641(12) 0.42447(10)
H13 H 0.0331 0.1945 0.4177
H14 H 0.2391 0.2207 0.4774
C11 C 0.4954(4) -0.12172(15) 0.49136(13)
H15 H 0.5114 -0.1953 0.4929
H16 H 0.5175 -0.0943 0.5434
H17 H 0.6141 -0.0934 0.4566
C12 C 0.2666(3) 0.09567(16) 0.18740(10)
H18 H 0.3096 0.1467 0.1490
H19 H 0.0954 0.0897 0.1898
H20 H 0.3345 0.0306 0.1726
C13 C 0.6288(3) 0.12917(14) 0.26168(11)
H21 H 0.6761 0.1751 0.2201
H22 H 0.6869 0.0612 0.2505
H23 H 0.6949 0.1526 0.3108
loop_
_geom_bond_atom_site_label_1
_geom_bond_atom_site_label_2
_geom_bond_site_symmetry_1
_geom_bond_site_symmetry_2
Cl1 C9 1_555 1_555
O1 H1 1_555 1_555
C1 O1 1_555 1_555
C2 C1 1_555 1_555
H2 C2 1_555 1_555
H3 C2 1_555 1_555
C3 C2 1_555 1_555
H4 C3 1_555 1_555
C4 C3 1_555 1_555
H5 C4 1_555 1_555
H6 C4 1_555 1_555
C5 C4 1_555 1_555
H7 C5 1_555 1_555
H8 C5 1_555 1_555
C6 C1 1_555 1_555
H9 C6 1_555 1_555
C7 C6 1_555 1_555
C8 C7 1_555 1_555
H10 C8 1_555 1_555
H11 C8 1_555 1_555
C9 C8 1_555 1_555
H12 C9 1_555 1_555
C10 C1 1_555 1_555
H13 C10 1_555 1_555
H14 C10 1_555 1_555
C11 C3 1_555 1_555
H15 C11 1_555 1_555
H16 C11 1_555 1_555
H17 C11 1_555 1_555
C12 C7 1_555 1_555
H18 C12 1_555 1_555
H19 C12 1_555 1_555
H20 C12 1_555 1_555
C13 C7 1_555 1_555
H21 C13 1_555 1_555
H22 C13 1_555 1_555
H23 C13 1_555 1_555
C5 C6 1_555 1_555
C9 C10 1_555 1_555

#END
