
#######################################################################
#
#                 Cambridge Crystallographic Data Centre
#                                CCDC 
#
#######################################################################
#
# If this CIF has been generated from an entry in the Cambridge 
# Structural Database, then it will include bibliographic, chemical, 
# crystal, experimental, refinement or atomic coordinate data resulting 
# from the CCDC's data processing and validation procedures.
#
#######################################################################

data_OCETUO
_chemical_formula_moiety         'C30 H74 N2 O8 Si4 Sr2'
_chemical_name_systematic        
bis(\m-3-methoxy-2-((2-methoxyethoxy)methyl)-2-methylpropan-1-olato)-bis(bis(trimethylsilyl)amido)-di-strontium
_symmetry_cell_setting           monoclinic
_symmetry_space_group_name_H-M   'P 21/n'
_symmetry_Int_Tables_number      14
_space_group_name_Hall           '-P 2yn'
loop_
_symmetry_equiv_pos_site_id
_symmetry_equiv_pos_as_xyz
1 x,y,z
2 1/2-x,1/2+y,1/2-z
3 -x,-y,-z
4 1/2+x,1/2-y,1/2+z
_cell_length_a                   10.324(2)
_cell_length_b                   12.825(3)
_cell_length_c                   17.974(4)
_cell_angle_alpha                90
_cell_angle_beta                 99.67(3)
_cell_angle_gamma                90
_cell_volume                     2346.04
_exptl_crystal_colour            colorless
_exptl_crystal_description       block
_cell_formula_units_Z            2
_exptl_crystal_recrystallization_method Toluene
loop_
_atom_site_label
_atom_site_type_symbol
_atom_site_fract_x
_atom_site_fract_y
_atom_site_fract_z
Sr1 Sr 0.41710(4) 0.13260(3) 0.99600(2)
Si1 Si 0.27571(13) 0.35963(11) 1.07933(8)
Si2 Si 0.23115(12) 0.14778(11) 1.14370(7)
O1 O 0.6090(3) 0.2686(3) 0.9897(2)
O2 O 0.4702(3) 0.1781(3) 0.86518(19)
O3 O 0.2041(3) 0.1372(3) 0.89532(18)
O4 O 0.4157(3) -0.0283(3) 0.92650(16)
N1 N 0.2855(3) 0.2292(3) 1.0828(2)
C1 C 0.7099(6) 0.2726(6) 1.0542(4)
H1 H 0.7712 0.2146 1.0524
H2 H 0.6707 0.2670 1.1001
H3 H 0.7574 0.3388 1.0546
C2 C 0.6610(5) 0.2713(5) 0.9215(3)
H4 H 0.7202 0.2111 0.9192
H5 H 0.7122 0.3361 0.9190
C3 C 0.5502(6) 0.2673(5) 0.8571(3)
H6 H 0.4969 0.3316 0.8561
H7 H 0.5847 0.2627 0.8091
C4 C 0.4186(5) 0.1302(5) 0.7955(3)
H8 H 0.4916 0.0972 0.7748
H9 H 0.3802 0.1848 0.7595
C5 C 0.3143(4) 0.0483(4) 0.8008(3)
C6 C 0.1896(5) 0.0969(5) 0.8209(3)
H10 H 0.1608 0.1540 0.7849
H11 H 0.1193 0.0435 0.8145
C7 C 0.0814(5) 0.1762(5) 0.9108(4)
H12 H 0.0519 0.2340 0.8765
H13 H 0.0927 0.2009 0.9631
H14 H 0.0157 0.1204 0.9035
C8 C 0.3639(5) -0.0461(4) 0.8512(3)
H15 H 0.2897 -0.0954 0.8496
H16 H 0.4322 -0.0819 0.8279
C9 C 0.2744(6) 0.0047(5) 0.7201(3)
H17 H 0.2367 0.0609 0.6862
H18 H 0.2091 -0.0507 0.7203
H19 H 0.3521 -0.0236 0.7025
C10 C 0.3142(7) 0.4090(5) 0.9874(4)
H20 H 0.4035 0.3879 0.9822
H21 H 0.3080 0.4852 0.9862
H22 H 0.2514 0.3797 0.9457
C11 C 0.3951(6) 0.4264(5) 1.1558(4)
H23 H 0.3684 0.4140 1.2049
H24 H 0.3953 0.5015 1.1458
H25 H 0.4835 0.3982 1.1564
C12 C 0.1105(6) 0.4171(5) 1.0879(4)
H26 H 0.0424 0.3850 1.0504
H27 H 0.1120 0.4925 1.0792
H28 H 0.0914 0.4037 1.1387
C13 C 0.3179(5) 0.1615(5) 1.2441(3)
H29 H 0.4128 0.1533 1.2459
H30 H 0.2862 0.1078 1.2754
H31 H 0.2999 0.2307 1.2633
C14 C 0.0493(5) 0.1556(5) 1.1470(3)
H32 H 0.0266 0.2270 1.1593
H33 H 0.0278 0.1077 1.1856
H34 H -0.0007 0.1361 1.0977
C15 C 0.2546(5) 0.0085(4) 1.1147(3)
H35 H 0.2026 -0.0041 1.0646
H36 H 0.2256 -0.0389 1.1513
H37 H 0.3477 -0.0038 1.1129
Sr1B Sr 0.58290(4) -0.13260(3) 1.00400(2)
Si1B Si 0.72429(13) -0.35963(11) 0.92067(8)
Si2B Si 0.76885(12) -0.14778(11) 0.85630(7)
O1B O 0.3910(3) -0.2686(3) 1.0103(2)
O2B O 0.5298(3) -0.1781(3) 1.13482(19)
O3B O 0.7959(3) -0.1372(3) 1.10468(18)
O4B O 0.5843(3) 0.0283(3) 1.07350(16)
N1B N 0.7145(3) -0.2292(3) 0.9172(2)
C1B C 0.2901(6) -0.2726(6) 0.9458(4)
H1B H 0.2288 -0.2146 0.9476
H2B H 0.3293 -0.2670 0.8999
H3B H 0.2426 -0.3388 0.9454
C2B C 0.3390(5) -0.2713(5) 1.0785(3)
H4B H 0.2798 -0.2111 1.0808
H5B H 0.2878 -0.3361 1.0810
C3B C 0.4498(6) -0.2673(5) 1.1429(3)
H6B H 0.5031 -0.3316 1.1439
H7B H 0.4153 -0.2627 1.1909
C4B C 0.5814(5) -0.1302(5) 1.2045(3)
H8B H 0.5084 -0.0972 1.2252
H9B H 0.6198 -0.1848 1.2405
C5B C 0.6857(4) -0.0483(4) 1.1992(3)
C6B C 0.8104(5) -0.0969(5) 1.1791(3)
H10B H 0.8392 -0.1540 1.2151
H11B H 0.8807 -0.0435 1.1855
C7B C 0.9186(5) -0.1762(5) 1.0892(4)
H12B H 0.9481 -0.2340 1.1235
H13B H 0.9073 -0.2009 1.0369
H14B H 0.9843 -0.1204 1.0965
C8B C 0.6361(5) 0.0461(4) 1.1488(3)
H15B H 0.7103 0.0954 1.1504
H16B H 0.5678 0.0819 1.1721
C9B C 0.7256(6) -0.0047(5) 1.2799(3)
H17B H 0.7633 -0.0609 1.3138
H18B H 0.7909 0.0507 1.2797
H19B H 0.6479 0.0236 1.2975
C10B C 0.6858(7) -0.4090(5) 1.0126(4)
H20B H 0.5965 -0.3879 1.0178
H21B H 0.6920 -0.4852 1.0138
H22B H 0.7486 -0.3797 1.0543
C11B C 0.6049(6) -0.4264(5) 0.8442(4)
H23B H 0.6316 -0.4140 0.7951
H24B H 0.6047 -0.5015 0.8542
H25B H 0.5165 -0.3982 0.8436
C12B C 0.8895(6) -0.4171(5) 0.9121(4)
H26B H 0.9576 -0.3850 0.9496
H27B H 0.8880 -0.4925 0.9208
H28B H 0.9086 -0.4037 0.8613
C13B C 0.6821(5) -0.1615(5) 0.7559(3)
H29B H 0.5872 -0.1533 0.7541
H30B H 0.7138 -0.1078 0.7246
H31B H 0.7001 -0.2307 0.7367
C14B C 0.9507(5) -0.1556(5) 0.8530(3)
H32B H 0.9734 -0.2270 0.8407
H33B H 0.9722 -0.1077 0.8144
H34B H 1.0007 -0.1361 0.9023
C15B C 0.7454(5) -0.0085(4) 0.8853(3)
H35B H 0.7974 0.0041 0.9354
H36B H 0.7744 0.0389 0.8487
H37B H 0.6523 0.0038 0.8871
loop_
_geom_bond_atom_site_label_1
_geom_bond_atom_site_label_2
_geom_bond_site_symmetry_1
_geom_bond_site_symmetry_2
Sr1 O1 1_555 1_555
Si1 N1 1_555 1_555
Si2 N1 1_555 1_555
O1 C1 1_555 1_555
O2 Sr1 1_555 1_555
O3 Sr1 1_555 1_555
O4 Sr1 1_555 1_555
N1 Sr1 1_555 1_555
C1 H1 1_555 1_555
H2 C1 1_555 1_555
H3 C1 1_555 1_555
C2 O1 1_555 1_555
H4 C2 1_555 1_555
H5 C2 1_555 1_555
C3 O2 1_555 1_555
H6 C3 1_555 1_555
H7 C3 1_555 1_555
C4 O2 1_555 1_555
H8 C4 1_555 1_555
H9 C4 1_555 1_555
C5 C4 1_555 1_555
C6 O3 1_555 1_555
H10 C6 1_555 1_555
H11 C6 1_555 1_555
C7 O3 1_555 1_555
H12 C7 1_555 1_555
H13 C7 1_555 1_555
H14 C7 1_555 1_555
C8 O4 1_555 1_555
H15 C8 1_555 1_555
H16 C8 1_555 1_555
C9 C5 1_555 1_555
H17 C9 1_555 1_555
H18 C9 1_555 1_555
H19 C9 1_555 1_555
C10 Si1 1_555 1_555
H20 C10 1_555 1_555
H21 C10 1_555 1_555
H22 C10 1_555 1_555
C11 Si1 1_555 1_555
H23 C11 1_555 1_555
H24 C11 1_555 1_555
H25 C11 1_555 1_555
C12 Si1 1_555 1_555
H26 C12 1_555 1_555
H27 C12 1_555 1_555
H28 C12 1_555 1_555
C13 Si2 1_555 1_555
H29 C13 1_555 1_555
H30 C13 1_555 1_555
H31 C13 1_555 1_555
C14 Si2 1_555 1_555
H32 C14 1_555 1_555
H33 C14 1_555 1_555
H34 C14 1_555 1_555
C15 Si2 1_555 1_555
H35 C15 1_555 1_555
H36 C15 1_555 1_555
H37 C15 1_555 1_555
Sr1B O4 1_555 1_555
Si1B N1B 1_555 1_555
Si2B N1B 1_555 1_555
O1B Sr1B 1_555 1_555
O2B Sr1B 1_555 1_555
O3B Sr1B 1_555 1_555
O4B Sr1 1_555 1_555
N1B Sr1B 1_555 1_555
C1B O1B 1_555 1_555
H1B C1B 1_555 1_555
H2B C1B 1_555 1_555
H3B C1B 1_555 1_555
C2B O1B 1_555 1_555
H4B C2B 1_555 1_555
H5B C2B 1_555 1_555
C3B O2B 1_555 1_555
H6B C3B 1_555 1_555
H7B C3B 1_555 1_555
C4B O2B 1_555 1_555
H8B C4B 1_555 1_555
H9B C4B 1_555 1_555
C5B C4B 1_555 1_555
C6B O3B 1_555 1_555
H10B C6B 1_555 1_555
H11B C6B 1_555 1_555
C7B O3B 1_555 1_555
H12B C7B 1_555 1_555
H13B C7B 1_555 1_555
H14B C7B 1_555 1_555
C8B O4B 1_555 1_555
H15B C8B 1_555 1_555
H16B C8B 1_555 1_555
C9B C5B 1_555 1_555
H17B C9B 1_555 1_555
H18B C9B 1_555 1_555
H19B C9B 1_555 1_555
C10B Si1B 1_555 1_555
H20B C10B 1_555 1_555
H21B C10B 1_555 1_555
H22B C10B 1_555 1_555
C11B Si1B 1_555 1_555
H23B C11B 1_555 1_555
H24B C11B 1_555 1_555
H25B C11B 1_555 1_555
C12B Si1B 1_555 1_555
H26B C12B 1_555 1_555
H27B C12B 1_555 1_555
H28B C12B 1_555 1_555
C13B Si2B 1_555 1_555
H29B C13B 1_555 1_555
H30B C13B 1_555 1_555
H31B C13B 1_555 1_555
C14B Si2B 1_555 1_555
H32B C14B 1_555 1_555
H33B C14B 1_555 1_555
H34B C14B 1_555 1_555
C15B Si2B 1_555 1_555
H35B C15B 1_555 1_555
H36B C15B 1_555 1_555
H37B C15B 1_555 1_555
C2 C3 1_555 1_555
C5 C6 1_555 1_555
C5 C8 1_555 1_555
Sr1B O4B 1_555 1_555
C2B C3B 1_555 1_555
C5B C6B 1_555 1_555
C5B C8B 1_555 1_555

#END
