
#######################################################################
#
#                 Cambridge Crystallographic Data Centre
#                                CCDC 
#
#######################################################################
#
# If this CIF has been generated from an entry in the Cambridge 
# Structural Database, then it will include bibliographic, chemical, 
# crystal, experimental, refinement or atomic coordinate data resulting 
# from the CCDC's data processing and validation procedures.
#
#######################################################################

data_OCEVAV
_chemical_formula_moiety         'C15 H13 N1 O1 S1'
_chemical_name_systematic        10-Ethyl-10H-phenothiazine-3-carbaldehyde
_symmetry_cell_setting           orthorhombic
_symmetry_space_group_name_H-M   'P b c a'
_symmetry_Int_Tables_number      61
_space_group_name_Hall           '-P 2ac 2ab'
loop_
_symmetry_equiv_pos_site_id
_symmetry_equiv_pos_as_xyz
1 x,y,z
2 1/2-x,-y,1/2+z
3 -x,1/2+y,1/2-z
4 1/2+x,1/2-y,-z
5 -x,-y,-z
6 1/2+x,y,1/2-z
7 x,1/2-y,1/2+z
8 1/2-x,1/2+y,z
_cell_length_a                   8.08670(10)
_cell_length_b                   15.3271(3)
_cell_length_c                   20.3369(4)
_cell_angle_alpha                90
_cell_angle_beta                 90
_cell_angle_gamma                90
_cell_volume                     2520.67
_exptl_crystal_colour            yellow
_exptl_crystal_description       needle
_cell_formula_units_Z            8
loop_
_atom_site_label
_atom_site_type_symbol
_atom_site_fract_x
_atom_site_fract_y
_atom_site_fract_z
S1 S 0.24520(8) 0.67345(3) 0.06193(3)
C1 C 0.0560(2) 0.57828(11) 0.14810(8)
N1 N 0.13723(18) 0.50268(9) 0.12517(7)
C2 C 0.0870(2) 0.66009(11) 0.12020(9)
C3 C 0.1974(2) 0.49538(11) 0.06126(8)
O1 O 0.4535(2) 0.53800(12) -0.16387(7)
C4 C 0.3099(2) 0.56256(12) -0.03694(9)
H1 H 0.3371 0.6129 -0.0601
C5 C 0.3359(2) 0.48174(13) -0.06591(8)
C6 C 0.1335(2) 0.42393(12) 0.16677(10)
H2 H 0.1398 0.4419 0.2124
H3 H 0.2313 0.3894 0.1574
C7 C 0.2448(2) 0.56995(11) 0.02515(9)
C8 C 0.0052(3) 0.73369(13) 0.14222(10)
H4 H 0.0247 0.7871 0.1219
C9 C -0.0556(2) 0.57511(13) 0.20039(10)
H5 H -0.0786 0.5219 0.2204
C10 C 0.4132(3) 0.47568(17) -0.13082(10)
C11 C 0.2197(2) 0.41474(12) 0.03065(10)
H6 H 0.1869 0.3643 0.0525
C12 C 0.2888(2) 0.40786(13) -0.03095(10)
H7 H 0.3043 0.3530 -0.0495
C13 C -0.0183(3) 0.36605(15) 0.15823(12)
H8 H -0.1153 0.3976 0.1714
H9 H -0.0068 0.3148 0.1850
H10 H -0.0282 0.3492 0.1129
C14 C -0.1325(3) 0.64997(17) 0.22290(11)
H11 H -0.2044 0.6465 0.2585
C15 C -0.1046(3) 0.72895(16) 0.19376(11)
H12 H -0.1590 0.7787 0.2085
H13 H 0.429(4) 0.4148(18) -0.1460(14)
loop_
_geom_bond_atom_site_label_1
_geom_bond_atom_site_label_2
_geom_bond_site_symmetry_1
_geom_bond_site_symmetry_2
S1 C2 1_555 1_555
C1 N1 1_555 1_555
N1 C3 1_555 1_555
C2 C1 1_555 1_555
C3 C7 1_555 1_555
O1 C10 1_555 1_555
C4 H1 1_555 1_555
C5 C4 1_555 1_555
C6 N1 1_555 1_555
H2 C6 1_555 1_555
H3 C6 1_555 1_555
C7 S1 1_555 1_555
C8 C2 1_555 1_555
H4 C8 1_555 1_555
C9 C1 1_555 1_555
H5 C9 1_555 1_555
C10 C5 1_555 1_555
C11 C3 1_555 1_555
H6 C11 1_555 1_555
C12 C5 1_555 1_555
H7 C12 1_555 1_555
C13 C6 1_555 1_555
H8 C13 1_555 1_555
H9 C13 1_555 1_555
H10 C13 1_555 1_555
C14 C9 1_555 1_555
H11 C14 1_555 1_555
C15 C8 1_555 1_555
H12 C15 1_555 1_555
H13 C10 1_555 1_555
C4 C7 1_555 1_555
C11 C12 1_555 1_555
C14 C15 1_555 1_555

#END
