
#######################################################################
#
#                 Cambridge Crystallographic Data Centre
#                                CCDC 
#
#######################################################################
#
# If this CIF has been generated from an entry in the Cambridge 
# Structural Database, then it will include bibliographic, chemical, 
# crystal, experimental, refinement or atomic coordinate data resulting 
# from the CCDC's data processing and validation procedures.
#
#######################################################################

data_OCIDOV
_chemical_formula_moiety         'C16 H23 B10 Br1'
_chemical_name_systematic        
1-(4-Bromo-3,5-dimethylphenyl)-2-phenyl-1,2-dicarba-closo-dodecaborane(10)
_symmetry_cell_setting           monoclinic
_symmetry_space_group_name_H-M   'P 21/n'
_symmetry_Int_Tables_number      14
_space_group_name_Hall           '-P 2yn'
loop_
_symmetry_equiv_pos_site_id
_symmetry_equiv_pos_as_xyz
1 x,y,z
2 1/2-x,1/2+y,1/2-z
3 -x,-y,-z
4 1/2+x,1/2-y,1/2+z
_cell_length_a                   12.9548(7)
_cell_length_b                   11.2634(6)
_cell_length_c                   14.4557(7)
_cell_angle_alpha                90
_cell_angle_beta                 100.072(3)
_cell_angle_gamma                90
_cell_volume                     2076.8
_exptl_crystal_colour            colorless
_exptl_crystal_description       cubic
_cell_formula_units_Z            4
_exptl_crystal_recrystallization_method 'ethyl acetate/methanol'
loop_
_atom_site_label
_atom_site_type_symbol
_atom_site_fract_x
_atom_site_fract_y
_atom_site_fract_z
Br1 Br 0.10628(3) 1.14712(3) -0.19059(2)
C1 C 0.19606(17) 0.7991(2) -0.01987(15)
C2 C 0.19160(18) 0.8018(2) -0.11663(16)
H1 H 0.2063 0.7328 -0.1473
C3 C 0.16589(18) 0.9044(2) -0.16891(16)
C4 C 0.43034(18) 0.7566(2) 0.08924(17)
C5 C 0.14657(18) 1.0072(2) -0.02364(18)
C6 C 0.17330(18) 0.9025(2) 0.02523(17)
H2 H 0.1761 0.9013 0.0899
C7 C 0.34960(17) 0.66083(19) 0.08968(15)
C8 C 0.14293(17) 1.0051(2) -0.12055(18)
C9 C 0.22175(17) 0.6844(2) 0.03245(15)
B1 B 0.3803(2) 0.5134(2) 0.08335(19)
B2 B 0.1682(2) 0.5535(3) -0.0110(2)
C10 C 0.4526(2) 0.8341(3) 0.1646(2)
H3 H 0.4154 0.8286 0.2139
C11 C 0.4880(2) 0.7645(2) 0.0177(2)
H4 H 0.4747 0.7128 -0.0331
C12 C 0.1239(3) 1.1179(2) 0.0289(2)
H5 H 0.1269 1.0992 0.0941
H6 H 0.0554 1.1471 0.0029
H7 H 0.1753 1.1776 0.0229
C13 C 0.1680(3) 0.9027(3) -0.27280(18)
H8 H 0.1027 0.9326 -0.3065
H9 H 0.1781 0.8228 -0.2924
H10 H 0.2244 0.9517 -0.2857
B3 B 0.2949(3) 0.4368(3) 0.1458(2)
C14 C 0.5664(3) 0.8504(3) 0.0217(3)
H11 H 0.6059 0.8552 -0.0260
B4 B 0.1363(2) 0.6152(3) 0.0929(2)
B5 B 0.3019(2) 0.5859(2) -0.01289(19)
B6 B 0.2664(2) 0.4431(3) 0.0208(2)
B7 B 0.3485(3) 0.5758(3) 0.1872(2)
B8 B 0.1642(3) 0.4614(3) 0.0876(3)
B9 B 0.2504(2) 0.6860(3) 0.15363(19)
B10 B 0.2151(3) 0.5448(3) 0.1901(2)
C15 C 0.5291(3) 0.9190(3) 0.1671(3)
H12 H 0.5427 0.9711 0.2177
C16 C 0.5851(3) 0.9276(3) 0.0961(4)
H13 H 0.6362 0.9860 0.0981
H14 H 0.275(2) 0.369(2) -0.0265(19)
H15 H 0.3317(18) 0.611(2) -0.0723(17)
H16 H 0.2477(19) 0.768(2) 0.1900(17)
H17 H 0.110(2) 0.560(3) -0.0768(19)
H18 H 0.404(2) 0.598(3) 0.245(2)
H19 H 0.188(2) 0.533(3) 0.259(2)
H20 H 0.318(2) 0.357(3) 0.183(2)
H21 H 0.105(2) 0.394(3) 0.084(2)
H22 H 0.4658(18) 0.495(2) 0.0810(15)
H23 H 0.061(2) 0.659(2) 0.091(2)
loop_
_geom_bond_atom_site_label_1
_geom_bond_atom_site_label_2
_geom_bond_site_symmetry_1
_geom_bond_site_symmetry_2
Br1 C8 1_555 1_555
C1 C2 1_555 1_555
C2 H1 1_555 1_555
C3 C2 1_555 1_555
C4 C7 1_555 1_555
C5 C6 1_555 1_555
C6 C1 1_555 1_555
H2 C6 1_555 1_555
C7 C9 1_555 1_555
C8 C3 1_555 1_555
C9 C1 1_555 1_555
B1 C7 1_555 1_555
B2 C9 1_555 1_555
C10 C4 1_555 1_555
H3 C10 1_555 1_555
C11 C4 1_555 1_555
H4 C11 1_555 1_555
C12 C5 1_555 1_555
H5 C12 1_555 1_555
H6 C12 1_555 1_555
H7 C12 1_555 1_555
C13 C3 1_555 1_555
H8 C13 1_555 1_555
H9 C13 1_555 1_555
H10 C13 1_555 1_555
B3 B1 1_555 1_555
C14 C11 1_555 1_555
H11 C14 1_555 1_555
B4 C9 1_555 1_555
B5 C7 1_555 1_555
B6 B1 1_555 1_555
B7 C7 1_555 1_555
B8 B2 1_555 1_555
B9 C7 1_555 1_555
B10 B3 1_555 1_555
C15 C10 1_555 1_555
H12 C15 1_555 1_555
C16 C14 1_555 1_555
H13 C16 1_555 1_555
H14 B6 1_555 1_555
H15 B5 1_555 1_555
H16 B9 1_555 1_555
H17 B2 1_555 1_555
H18 B7 1_555 1_555
H19 B10 1_555 1_555
H20 B3 1_555 1_555
H21 B8 1_555 1_555
H22 B1 1_555 1_555
H23 B4 1_555 1_555
C5 C8 1_555 1_555
C9 B5 1_555 1_555
C9 B9 1_555 1_555
B1 B5 1_555 1_555
B1 B7 1_555 1_555
B2 B4 1_555 1_555
B2 B5 1_555 1_555
B2 B6 1_555 1_555
B3 B6 1_555 1_555
B3 B7 1_555 1_555
B3 B8 1_555 1_555
B4 B8 1_555 1_555
B4 B9 1_555 1_555
B4 B10 1_555 1_555
B5 B6 1_555 1_555
B6 B8 1_555 1_555
B7 B9 1_555 1_555
B7 B10 1_555 1_555
B8 B10 1_555 1_555
B9 B10 1_555 1_555
C15 C16 1_555 1_555

#END
