
#######################################################################
#
#                 Cambridge Crystallographic Data Centre
#                                CCDC 
#
#######################################################################
#
# If this CIF has been generated from an entry in the Cambridge 
# Structural Database, then it will include bibliographic, chemical, 
# crystal, experimental, refinement or atomic coordinate data resulting 
# from the CCDC's data processing and validation procedures.
#
#######################################################################

data_OCIVUS
_chemical_name_common            isoamarine
_chemical_formula_moiety         'C21 H18 N2'
_chemical_name_systematic        rac-2,4,5-triphenyl-4,5-dihydro-1H-imidazole
_symmetry_cell_setting           monoclinic
_symmetry_space_group_name_H-M   'P 21/c'
_symmetry_Int_Tables_number      14
_space_group_name_Hall           '-P 2ybc'
loop_
_symmetry_equiv_pos_site_id
_symmetry_equiv_pos_as_xyz
1 x,y,z
2 -x,1/2+y,1/2-z
3 -x,-y,-z
4 x,1/2-y,1/2+z
_cell_length_a                   12.1743(18)
_cell_length_b                   13.303(2)
_cell_length_c                   10.1640(16)
_cell_angle_alpha                90
_cell_angle_beta                 92.876(4)
_cell_angle_gamma                90
_cell_volume                     1644.03
_exptl_crystal_description       sheet
_cell_formula_units_Z            4
loop_
_atom_site_label
_atom_site_type_symbol
_atom_site_fract_x
_atom_site_fract_y
_atom_site_fract_z
N1 N 0.63296(10) 0.22957(9) 0.96635(11)
C1 C 0.73480(12) 0.17684(11) 1.00784(13)
H1 H 0.7962 0.2101 0.9669
C2 C 0.59722(12) 0.27372(11) 1.06849(13)
C3 C 0.74847(12) 0.19290(12) 1.16035(14)
H2 H 0.7353 0.1292 1.2054
N2 N 0.65957(11) 0.26118(13) 1.18173(12)
H3 H 0.6477 0.2899 1.2555
C4 C 0.73568(11) 0.06741(11) 0.97022(13)
C5 C 0.49618(12) 0.33509(11) 1.06644(14)
C6 C 0.44925(15) 0.36347(13) 1.18240(17)
H4 H 0.4818 0.3437 1.2630
C7 C 0.63985(13) 0.01356(12) 0.95205(18)
H5 H 0.5725 0.0459 0.9576
C8 C 0.85816(14) 0.23307(17) 1.20522(17)
C9 C 0.44693(16) 0.36617(13) 0.94780(17)
H6 H 0.4776 0.3481 0.8692
C10 C 0.83369(14) 0.01718(15) 0.9583(2)
H7 H 0.8996 0.0523 0.9685
C11 C 0.74051(18) -0.13697(14) 0.9159(2)
H8 H 0.7421 -0.2056 0.8990
C12 C 0.64252(17) -0.08833(13) 0.9255(2)
H9 H 0.5770 -0.1240 0.9141
C13 C 0.35494(17) 0.42063(16) 1.1792(2)
H10 H 0.3236 0.4389 1.2573
C14 C 0.30742(18) 0.45061(16) 1.0604(2)
H11 H 0.2439 0.4895 1.0583
C15 C 0.9282(2) 0.1770(3) 1.2845(3)
H12 H 0.9056 0.1138 1.3113
C16 C 0.83537(17) -0.08410(17) 0.9314(2)
H13 H 0.9024 -0.1166 0.9238
C17 C 0.35276(17) 0.42375(16) 0.9451(2)
H14 H 0.3200 0.4443 0.8649
C18 C 0.8919(3) 0.3253(3) 1.1653(4)
H15 H 0.8432 0.3649 1.1144
C19 C 1.0347(4) 0.2120(7) 1.3276(5)
H16 H 1.0833 0.1761 1.3833
C20 C 0.9968(6) 0.3623(6) 1.1980(7)
H17 H 1.0228 0.4230 1.1666
C21 C 1.0559(6) 0.3026(9) 1.2782(7)
H18 H 1.1245 0.3283 1.3048
loop_
_geom_bond_atom_site_label_1
_geom_bond_atom_site_label_2
_geom_bond_site_symmetry_1
_geom_bond_site_symmetry_2
N1 C1 1_555 1_555
C1 H1 1_555 1_555
C2 N1 1_555 1_555
C3 C1 1_555 1_555
H2 C3 1_555 1_555
N2 C2 1_555 1_555
H3 N2 1_555 1_555
C4 C1 1_555 1_555
C5 C2 1_555 1_555
C6 C5 1_555 1_555
H4 C6 1_555 1_555
C7 C4 1_555 1_555
H5 C7 1_555 1_555
C8 C3 1_555 1_555
C9 C5 1_555 1_555
H6 C9 1_555 1_555
C10 C4 1_555 1_555
H7 C10 1_555 1_555
C11 H8 1_555 1_555
C12 C7 1_555 1_555
H9 C12 1_555 1_555
C13 C6 1_555 1_555
H10 C13 1_555 1_555
C14 C13 1_555 1_555
H11 C14 1_555 1_555
C15 C8 1_555 1_555
H12 C15 1_555 1_555
C16 C10 1_555 1_555
H13 C16 1_555 1_555
C17 C9 1_555 1_555
H14 C17 1_555 1_555
C18 C8 1_555 1_555
H15 C18 1_555 1_555
C19 C15 1_555 1_555
H16 C19 1_555 1_555
C20 C18 1_555 1_555
H17 C20 1_555 1_555
C21 C19 1_555 1_555
H18 C21 1_555 1_555
C3 N2 1_555 1_555
C11 C12 1_555 1_555
C11 C16 1_555 1_555
C14 C17 1_555 1_555
C20 C21 1_555 1_555

#END
