
#######################################################################
#
#                 Cambridge Crystallographic Data Centre
#                                CCDC 
#
#######################################################################
#
# If this CIF has been generated from an entry in the Cambridge 
# Structural Database, then it will include bibliographic, chemical, 
# crystal, experimental, refinement or atomic coordinate data resulting 
# from the CCDC's data processing and validation procedures.
#
#######################################################################

data_OCIWIH
_chemical_name_common            '1,3-diallylamarinium hexafluorophosphate'
_chemical_formula_moiety         'C27 H27 N2 1+,F6 P1 1-'
_chemical_name_systematic        
'1,3-diallyl-2,4,5-triphenylimidazolidenium hexafluorophosphate'
_symmetry_cell_setting           monoclinic
_symmetry_space_group_name_H-M   'P 21/n'
_symmetry_Int_Tables_number      14
_space_group_name_Hall           '-P 2yn'
loop_
_symmetry_equiv_pos_site_id
_symmetry_equiv_pos_as_xyz
1 x,y,z
2 1/2-x,1/2+y,1/2-z
3 -x,-y,-z
4 1/2+x,1/2-y,1/2+z
_cell_length_a                   11.344(3)
_cell_length_b                   15.858(4)
_cell_length_c                   14.717(4)
_cell_angle_alpha                90.00
_cell_angle_beta                 90.494(5)
_cell_angle_gamma                90.00
_cell_volume                     2647.39
_exptl_crystal_colour            colorless
_exptl_crystal_description       block
_cell_formula_units_Z            4
loop_
_atom_site_label
_atom_site_type_symbol
_atom_site_fract_x
_atom_site_fract_y
_atom_site_fract_z
P1 P 0.21970(12) 0.18934(9) 0.57299(9)
F1 F 0.3161(4) 0.2541(3) 0.6035(3)
F2 F 0.1223(4) 0.1260(3) 0.5434(3)
F3 F 0.2492(6) 0.2016(6) 0.4769(3)
F4 F 0.3126(6) 0.1223(3) 0.5839(7)
F5 F 0.1305(6) 0.2556(3) 0.5640(8)
F6 F 0.1952(6) 0.1721(7) 0.6692(4)
N1 N 0.0342(3) -0.1695(2) 0.7070(2)
N2 N 0.1496(3) -0.0774(2) 0.7741(2)
C1 C -0.0199(3) 0.0077(2) 0.8229(3)
C2 C 0.1364(4) -0.1283(3) 0.7054(3)
C3 C 0.0437(3) -0.0758(2) 0.8303(3)
H1 H 0.0664 -0.0854 0.8939
C4 C -0.1565(4) -0.1447(3) 0.7859(3)
C5 C 0.2241(4) -0.1377(3) 0.6325(3)
C6 C -0.0249(3) -0.1547(2) 0.7940(3)
H2 H -0.0081 -0.2024 0.8344
C7 C -0.0841(4) 0.0357(3) 0.8953(3)
H3 H -0.0870 0.0033 0.9479
C8 C -0.2237(4) -0.1721(3) 0.8578(4)
H4 H -0.1880 -0.1987 0.9072
C9 C -0.0171(4) 0.0561(3) 0.7467(3)
H5 H 0.0250 0.0376 0.6966
C10 C 0.2496(4) -0.0211(3) 0.7926(3)
H6 H 0.2228 0.0370 0.7905
H7 H 0.3085 -0.0285 0.7459
C11 C -0.0757(5) 0.1322(3) 0.7427(4)
H8 H -0.0719 0.1650 0.6904
C12 C -0.1442(4) 0.1110(3) 0.8917(4)
H9 H -0.1881 0.1290 0.9411
C13 C -0.3458(5) -0.1596(4) 0.8560(5)
H10 H -0.3914 -0.1766 0.9050
C14 C 0.3029(4) -0.0382(4) 0.8819(4)
H11 H 0.3281 -0.0929 0.8935
C15 C -0.1386(4) 0.1592(3) 0.8144(5)
H12 H -0.1783 0.2105 0.8114
C16 C 0.0049(4) -0.2441(3) 0.6518(4)
H13 H 0.0488 -0.2425 0.5955
H14 H -0.0785 -0.2435 0.6366
C17 C 0.4050(5) -0.1898(5) 0.5758(5)
H15 H 0.4725 -0.2221 0.5845
C18 C -0.3321(5) -0.0971(4) 0.7103(5)
H16 H -0.3687 -0.0728 0.6599
C19 C -0.3976(5) -0.1225(4) 0.7824(6)
H17 H -0.4788 -0.1144 0.7814
C20 C -0.2106(4) -0.1076(3) 0.7119(4)
H18 H -0.1658 -0.0896 0.6630
C21 C 0.0342(5) -0.3228(4) 0.7027(5)
H19 H 0.1116 -0.3294 0.7227
C22 C 0.3209(5) -0.1873(4) 0.6431(4)
H20 H 0.3306 -0.2195 0.6955
C23 C 0.3913(7) -0.1470(5) 0.4991(5)
H21 H 0.4486 -0.1498 0.4545
C24 C 0.2103(7) -0.0935(5) 0.5534(5)
H22 H 0.1441 -0.0595 0.5456
C25 C 0.2913(9) -0.0980(6) 0.4855(5)
H23 H 0.2797 -0.0689 0.4314
C26 C -0.0382(8) -0.3820(5) 0.7211(7)
H24 H -0.1164 -0.3779 0.7023
H25 H -0.0126 -0.4291 0.7532
C27 C 0.3174(7) 0.0168(6) 0.9454(5)
H26 H 0.2932 0.0723 0.9363
H27 H 0.3520 0.0011 1.0003
loop_
_geom_bond_atom_site_label_1
_geom_bond_atom_site_label_2
_geom_bond_site_symmetry_1
_geom_bond_site_symmetry_2
P1 F1 1_555 1_555
N1 C2 1_555 1_555
N2 C2 1_555 1_555
C1 C3 1_555 1_555
C2 C5 1_555 1_555
C3 N2 1_555 1_555
H1 C3 1_555 1_555
C4 C6 1_555 1_555
C5 C22 1_555 1_555
C6 N1 1_555 1_555
H2 C6 1_555 1_555
C7 C1 1_555 1_555
H3 C7 1_555 1_555
C8 C4 1_555 1_555
H4 C8 1_555 1_555
C9 C1 1_555 1_555
H5 C9 1_555 1_555
C10 N2 1_555 1_555
H6 C10 1_555 1_555
H7 C10 1_555 1_555
C11 C9 1_555 1_555
H8 C11 1_555 1_555
C12 C7 1_555 1_555
H9 C12 1_555 1_555
C13 C8 1_555 1_555
H10 C13 1_555 1_555
C14 C10 1_555 1_555
H11 C14 1_555 1_555
C15 C11 1_555 1_555
H12 C15 1_555 1_555
C16 N1 1_555 1_555
H13 C16 1_555 1_555
H14 C16 1_555 1_555
C17 H15 1_555 1_555
C18 H16 1_555 1_555
C19 C13 1_555 1_555
H17 C19 1_555 1_555
C20 C4 1_555 1_555
H18 C20 1_555 1_555
C21 C16 1_555 1_555
H19 C21 1_555 1_555
C22 C17 1_555 1_555
H20 C22 1_555 1_555
C23 C17 1_555 1_555
H21 C23 1_555 1_555
C24 C5 1_555 1_555
H22 C24 1_555 1_555
C25 C23 1_555 1_555
H23 C25 1_555 1_555
C26 C21 1_555 1_555
H24 C26 1_555 1_555
H25 C26 1_555 1_555
C27 C14 1_555 1_555
H26 C27 1_555 1_555
H27 C27 1_555 1_555
F2 P1 1_555 1_555
F3 P1 1_555 1_555
F4 P1 1_555 1_555
F5 P1 1_555 1_555
F6 P1 1_555 1_555
C3 C6 1_555 1_555
C12 C15 1_555 1_555
C18 C19 1_555 1_555
C18 C20 1_555 1_555
C24 C25 1_555 1_555

#END
