
#######################################################################
#
#                 Cambridge Crystallographic Data Centre
#                                CCDC 
#
#######################################################################
#
# If this CIF has been generated from an entry in the Cambridge 
# Structural Database, then it will include bibliographic, chemical, 
# crystal, experimental, refinement or atomic coordinate data resulting 
# from the CCDC's data processing and validation procedures.
#
#######################################################################

data_OCIYEF01
_chemical_formula_moiety         'C48 H30 N4 O8,2(C6 H5 N1 O2)'
_chemical_name_systematic        
'5,10,15,20-tetrakis(4-Carboxyphenyl)porphyrin nitrobenzene solvate'
_symmetry_cell_setting           monoclinic
_symmetry_space_group_name_H-M   'P 21/c'
_symmetry_Int_Tables_number      14
_space_group_name_Hall           '-P 2ybc'
loop_
_symmetry_equiv_pos_site_id
_symmetry_equiv_pos_as_xyz
1 x,y,z
2 -x,1/2+y,1/2-z
3 -x,-y,-z
4 x,1/2-y,1/2+z
_cell_length_a                   14.4629(5)
_cell_length_b                   16.4777(8)
_cell_length_c                   10.6768(5)
_cell_angle_alpha                90
_cell_angle_beta                 108.359(3)
_cell_angle_gamma                90
_cell_volume                     2414.94
_exptl_crystal_colour            purple
_exptl_crystal_description       prism
_cell_formula_units_Z            2
loop_
_atom_site_label
_atom_site_type_symbol
_atom_site_fract_x
_atom_site_fract_y
_atom_site_fract_z
C1 C 0.0877(2) 0.66226(19) 0.4694(3)
C2 C 0.0636(2) 0.74039(19) 0.4046(3)
H1 H 0.1083 0.7816 0.3998
C3 C -0.0337(2) 0.74331(19) 0.3527(3)
H2 H -0.0712 0.7867 0.3035
C4 C -0.0705(2) 0.66739(18) 0.3863(3)
C5 C -0.1705(2) 0.64735(18) 0.3470(3)
C6 C -0.2084(2) 0.57149(19) 0.3628(3)
C7 C -0.3084(2) 0.54746(19) 0.3259(3)
H3 H -0.3632 0.5810 0.2858
C8 C -0.3109(2) 0.4681(2) 0.3586(3)
H4 H -0.3682 0.4364 0.3449
C9 C -0.2137(2) 0.43989(19) 0.4168(3)
C10 C 0.1840(2) 0.63693(18) 0.5331(3)
N1 N 0.00448(16) 0.61810(14) 0.4559(2)
N2 N -0.15386(16) 0.50461(15) 0.4183(2)
H5 H -0.0882 0.5083 0.4459
C11 C -0.24074(19) 0.71292(19) 0.2795(3)
C12 C -0.3004(2) 0.70444(19) 0.1487(3)
H6 H -0.3006 0.6548 0.1034
C13 C -0.3590(2) 0.7680(2) 0.0847(3)
H7 H -0.3982 0.7621 -0.0047
C14 C -0.3608(2) 0.84054(19) 0.1508(3)
C15 C -0.3046(2) 0.84888(19) 0.2829(3)
H8 H -0.3068 0.8977 0.3293
C16 C -0.2455(2) 0.78507(19) 0.3458(3)
H9 H -0.2075 0.7906 0.4359
C17 C -0.4208(2) 0.9101(2) 0.0829(3)
O1 O -0.47829(15) 0.89853(14) -0.0348(2)
H10 H -0.5164(19) 0.9443(13) -0.077(3)
O2 O -0.41220(17) 0.97738(14) 0.1411(2)
C18 C 0.2614(2) 0.69938(19) 0.5431(3)
C19 C 0.2697(2) 0.7657(2) 0.6276(3)
H11 H 0.2323 0.7676 0.6864
C20 C 0.3326(2) 0.8288(2) 0.6254(3)
H12 H 0.3387 0.8736 0.6834
C21 C 0.3867(2) 0.82688(19) 0.5389(3)
C22 C 0.3818(2) 0.75997(19) 0.4595(3)
H13 H 0.4209 0.7576 0.4028
C23 C 0.3199(2) 0.69613(19) 0.4623(3)
H14 H 0.3176 0.6498 0.4084
C24 C 0.4436(2) 0.8997(2) 0.5278(4)
O3 O 0.48270(15) 0.89973(14) 0.4350(3)
H15 H 0.511(2) 0.9513(11) 0.429(3)
O4 O 0.45042(16) 0.95849(15) 0.6051(2)
C1B C -0.0877(2) 0.33774(19) 0.5306(3)
C2B C -0.0636(2) 0.25961(19) 0.5954(3)
H1B H -0.1083 0.2184 0.6002
C3B C 0.0337(2) 0.25669(19) 0.6473(3)
H2B H 0.0712 0.2133 0.6965
C4B C 0.0705(2) 0.33261(18) 0.6137(3)
C5B C 0.1705(2) 0.35265(18) 0.6530(3)
C6B C 0.2084(2) 0.42851(19) 0.6372(3)
C7B C 0.3084(2) 0.45254(19) 0.6741(3)
H3B H 0.3632 0.4190 0.7142
C8B C 0.3109(2) 0.5319(2) 0.6414(3)
H4B H 0.3682 0.5636 0.6551
C9B C 0.2137(2) 0.56011(19) 0.5832(3)
C10B C -0.1840(2) 0.36307(18) 0.4669(3)
N1B N -0.00448(16) 0.38190(14) 0.5441(2)
N2B N 0.15386(16) 0.49539(15) 0.5817(2)
H5B H 0.0882 0.4917 0.5541
C11B C 0.24074(19) 0.28708(19) 0.7205(3)
C12B C 0.3004(2) 0.29556(19) 0.8513(3)
H6B H 0.3006 0.3452 0.8966
C13B C 0.3590(2) 0.2320(2) 0.9153(3)
H7B H 0.3982 0.2379 1.0047
C14B C 0.3608(2) 0.15946(19) 0.8492(3)
C15B C 0.3046(2) 0.15112(19) 0.7171(3)
H8B H 0.3068 0.1023 0.6707
C16B C 0.2455(2) 0.21493(19) 0.6542(3)
H9B H 0.2075 0.2094 0.5641
C17B C 0.4208(2) 0.0899(2) 0.9171(3)
O1B O 0.47829(15) 0.10147(14) 1.0348(2)
H10B H 0.5164(19) 0.0557(13) 1.077(3)
O2B O 0.41220(17) 0.02262(14) 0.8589(2)
C18B C -0.2614(2) 0.30062(19) 0.4569(3)
C19B C -0.2697(2) 0.2343(2) 0.3724(3)
H11B H -0.2323 0.2324 0.3136
C20B C -0.3326(2) 0.1712(2) 0.3746(3)
H12B H -0.3387 0.1264 0.3166
C21B C -0.3867(2) 0.17312(19) 0.4611(3)
C22B C -0.3818(2) 0.24003(19) 0.5405(3)
H13B H -0.4209 0.2424 0.5972
C23B C -0.3199(2) 0.30387(19) 0.5377(3)
H14B H -0.3176 0.3502 0.5916
C24B C -0.4436(2) 0.1003(2) 0.4722(4)
O3B O -0.48270(15) 0.10027(14) 0.5650(3)
H15B H -0.511(2) 0.0487(11) 0.571(3)
O4B O -0.45042(16) 0.04151(15) 0.3949(2)
C25 C 0.0232(3) 0.0703(2) 0.3889(4)
H16 H 0.0671 0.1085 0.4433
C26 C -0.0759(3) 0.0829(2) 0.3504(4)
H17 H -0.1009 0.1305 0.3782
C27 C -0.1395(3) 0.0273(3) 0.2720(4)
H18 H -0.2078 0.0358 0.2487
C28 C -0.1035(3) -0.0412(2) 0.2272(3)
H19 H -0.1473 -0.0787 0.1712
C29 C -0.0043(2) -0.0549(2) 0.2639(3)
H20 H 0.0211 -0.1013 0.2334
C30 C 0.0569(2) 0.0007(2) 0.3462(3)
N3 N 0.1618(2) -0.0159(2) 0.3909(3)
O5 O 0.19064(17) -0.08144(17) 0.3613(3)
O6 O 0.2165(2) 0.03657(18) 0.4579(3)
loop_
_geom_bond_atom_site_label_1
_geom_bond_atom_site_label_2
_geom_bond_site_symmetry_1
_geom_bond_site_symmetry_2
C1 C2 1_555 1_555
C2 H1 1_555 1_555
C3 C2 1_555 1_555
H2 C3 1_555 1_555
C4 C3 1_555 1_555
C5 C4 1_555 1_555
C6 C5 1_555 1_555
C7 C6 1_555 1_555
H3 C7 1_555 1_555
C8 C7 1_555 1_555
H4 C8 1_555 1_555
C9 C8 1_555 1_555
C10 C1 1_555 1_555
N1 C1 1_555 1_555
N2 C6 1_555 1_555
H5 N2 1_555 1_555
C11 C5 1_555 1_555
C12 C11 1_555 1_555
H6 C12 1_555 1_555
C13 C12 1_555 1_555
H7 C13 1_555 1_555
C14 C13 1_555 1_555
C15 C14 1_555 1_555
H8 C15 1_555 1_555
C16 C11 1_555 1_555
H9 C16 1_555 1_555
C17 C14 1_555 1_555
O1 C17 1_555 1_555
H10 O1 1_555 1_555
O2 C17 1_555 1_555
C18 C10 1_555 1_555
C19 C18 1_555 1_555
H11 C19 1_555 1_555
C20 C19 1_555 1_555
H12 C20 1_555 1_555
C21 C20 1_555 1_555
C22 C21 1_555 1_555
H13 C22 1_555 1_555
C23 C18 1_555 1_555
H14 C23 1_555 1_555
C24 C21 1_555 1_555
O3 C24 1_555 1_555
H15 O3 1_555 1_555
O4 C24 1_555 1_555
C25 H16 1_555 1_555
C26 C25 1_555 1_555
H17 C26 1_555 1_555
C27 C26 1_555 1_555
H18 C27 1_555 1_555
C28 C27 1_555 1_555
H19 C28 1_555 1_555
C29 C28 1_555 1_555
H20 C29 1_555 1_555
C30 C25 1_555 1_555
N3 C30 1_555 1_555
O5 N3 1_555 1_555
O6 N3 1_555 1_555
C1B C2B 1_555 1_555
C2B H1B 1_555 1_555
C3B C2B 1_555 1_555
H2B C3B 1_555 1_555
C4B C3B 1_555 1_555
C5B C4B 1_555 1_555
C6B C5B 1_555 1_555
C7B C6B 1_555 1_555
H3B C7B 1_555 1_555
C8B C7B 1_555 1_555
H4B C8B 1_555 1_555
C9B C10 1_555 1_555
C10B C9 1_555 1_555
N1B C1B 1_555 1_555
N2B C6B 1_555 1_555
H5B N2B 1_555 1_555
C11B C5B 1_555 1_555
C12B C11B 1_555 1_555
H6B C12B 1_555 1_555
C13B C12B 1_555 1_555
H7B C13B 1_555 1_555
C14B C13B 1_555 1_555
C15B C14B 1_555 1_555
H8B C15B 1_555 1_555
C16B C11B 1_555 1_555
H9B C16B 1_555 1_555
C17B C14B 1_555 1_555
O1B C17B 1_555 1_555
H10B O1B 1_555 1_555
O2B C17B 1_555 1_555
C18B C10B 1_555 1_555
C19B C18B 1_555 1_555
H11B C19B 1_555 1_555
C20B C19B 1_555 1_555
H12B C20B 1_555 1_555
C21B C20B 1_555 1_555
C22B C21B 1_555 1_555
H13B C22B 1_555 1_555
C23B C18B 1_555 1_555
H14B C23B 1_555 1_555
C24B C21B 1_555 1_555
O3B C24B 1_555 1_555
H15B O3B 1_555 1_555
O4B C24B 1_555 1_555
C4 N1 1_555 1_555
C9 N2 1_555 1_555
C15 C16 1_555 1_555
C22 C23 1_555 1_555
C29 C30 1_555 1_555
C1B C10B 1_555 1_555
C4B N1B 1_555 1_555
C8B C9B 1_555 1_555
C9B N2B 1_555 1_555
C15B C16B 1_555 1_555
C22B C23B 1_555 1_555

#END
