
#######################################################################
#
#                 Cambridge Crystallographic Data Centre
#                                CCDC 
#
#######################################################################
#
# If this CIF has been generated from an entry in the Cambridge 
# Structural Database, then it will include bibliographic, chemical, 
# crystal, experimental, refinement or atomic coordinate data resulting 
# from the CCDC's data processing and validation procedures.
#
#######################################################################

data_OCOBIS
_chemical_name_common            (R,R)-O,O'-di(t-butyldimethylsilyl)tartrate
_chemical_formula_moiety         'C18 H38 O6 Si2'
_chemical_name_systematic        
'dimethyl (R,R)-2,3-bis(dimethyl(t-butyl)siloxy)succinate'
_symmetry_cell_setting           monoclinic
_symmetry_space_group_name_H-M   'P 21'
_symmetry_Int_Tables_number      4
_space_group_name_Hall           'P 2yb'
loop_
_symmetry_equiv_pos_site_id
_symmetry_equiv_pos_as_xyz
1 x,y,z
2 -x,1/2+y,-z
_cell_length_a                   9.903(2)
_cell_length_b                   10.679(2)
_cell_length_c                   12.186(2)
_cell_angle_alpha                90
_cell_angle_beta                 103.52(3)
_cell_angle_gamma                90
_cell_volume                     1253.01
_exptl_crystal_colour            colorless
_exptl_crystal_description       planar
_cell_formula_units_Z            2
loop_
_atom_site_label
_atom_site_type_symbol
_atom_site_fract_x
_atom_site_fract_y
_atom_site_fract_z
Si1 Si -0.16172(12) -0.48518(11) -0.74245(9)
Si2 Si -0.35880(12) -0.58553(11) -1.25524(8)
O1 O -0.4643(3) -0.4480(3) -0.9185(3)
O2 O -0.5497(3) -0.6357(3) -0.9796(3)
O3 O -0.1979(3) -0.5435(2) -0.8722(2)
O4 O -0.3094(2) -0.5722(2) -1.11612(18)
O5 O -0.0575(3) -0.6892(3) -1.0687(3)
O6 O -0.1252(3) -0.8206(3) -0.9506(2)
C1 C -0.6897(4) -0.5895(6) -0.9901(4)
H1 H -0.7550 -0.6546 -1.0194
H2 H -0.7012 -0.5641 -0.9173
H3 H -0.7056 -0.5192 -1.0405
C2 C -0.4473(4) -0.5559(4) -0.9397(3)
C3 C -0.3078(4) -0.6213(4) -0.9230(3)
C4 C -0.2866(4) -0.6698(4) -1.0360(3)
C5 C -0.1421(4) -0.7247(4) -1.0221(3)
C6 C 0.0061(5) -0.8850(5) -0.9329(4)
H4 H 0.0102 -0.9532 -0.8810
H5 H 0.0184 -0.9164 -1.0038
H6 H 0.0783 -0.8259 -0.9028
C7 C -0.2940(5) -0.5339(5) -0.6638(3)
H7 H -0.3838 -0.5016 -0.7001
H8 H -0.2973 -0.6237 -0.6629
H9 H -0.2679 -0.5031 -0.5877
C8 C -0.1565(6) -0.3136(5) -0.7540(4)
H10 H -0.2465 -0.2823 -0.7908
H11 H -0.1289 -0.2785 -0.6795
H12 H -0.0904 -0.2903 -0.7968
C9 C 0.0130(5) -0.5487(5) -0.6705(4)
C10 C 0.0631(6) -0.4852(8) -0.5534(5)
H13 H 0.1526 -0.5171 -0.5159
H14 H 0.0689 -0.3962 -0.5627
H15 H -0.0027 -0.5033 -0.5089
C11 C 0.1184(5) -0.5233(6) -0.7417(5)
H16 H 0.2082 -0.5557 -0.7053
H17 H 0.0869 -0.5627 -0.8140
H18 H 0.1248 -0.4345 -0.7517
C12 C 0.0031(6) -0.6884(6) -0.6521(5)
H19 H 0.0929 -0.7204 -0.6154
H20 H -0.0613 -0.7043 -0.6058
H21 H -0.0286 -0.7290 -0.7237
C13 C -0.4516(6) -0.7357(5) -1.2906(4)
H22 H -0.5297 -0.7366 -1.2565
H23 H -0.4837 -0.7428 -1.3710
H24 H -0.3914 -0.8047 -1.2625
C14 C -0.2080(5) -0.5811(6) -1.3209(3)
H25 H -0.1589 -0.5036 -1.3022
H26 H -0.1471 -0.6498 -1.2929
H27 H -0.2395 -0.5879 -1.4014
C15 C -0.4739(5) -0.4469(5) -1.3033(4)
C16 C -0.5200(6) -0.4422(7) -1.4319(4)
H28 H -0.5786 -0.3709 -1.4557
H29 H -0.4413 -0.4386 -1.4653
H30 H -0.5715 -0.5176 -1.4556
C17 C -0.3983(7) -0.3267(5) -1.2591(6)
H31 H -0.4586 -0.2568 -1.2843
H32 H -0.3749 -0.3292 -1.1781
H33 H -0.3150 -0.3178 -1.2859
C18 C -0.6020(5) -0.4535(7) -1.2553(4)
H34 H -0.6596 -0.3818 -1.2804
H35 H -0.6528 -0.5285 -1.2817
H36 H -0.5754 -0.4542 -1.1744
H37 H -0.317(3) -0.695(3) -0.880(3)
H38 H -0.348(3) -0.738(3) -1.064(2)
loop_
_geom_bond_atom_site_label_1
_geom_bond_atom_site_label_2
_geom_bond_site_symmetry_1
_geom_bond_site_symmetry_2
Si1 O3 1_555 1_555
Si2 O4 1_555 1_555
O1 C2 1_555 1_555
O2 C1 1_555 1_555
O3 C3 1_555 1_555
O4 C4 1_555 1_555
O5 C5 1_555 1_555
O6 C5 1_555 1_555
C1 H1 1_555 1_555
H2 C1 1_555 1_555
H3 C1 1_555 1_555
C2 O2 1_555 1_555
C3 C2 1_555 1_555
C4 C3 1_555 1_555
C5 C4 1_555 1_555
C6 O6 1_555 1_555
H4 C6 1_555 1_555
H5 C6 1_555 1_555
H6 C6 1_555 1_555
C7 Si1 1_555 1_555
H7 C7 1_555 1_555
H8 C7 1_555 1_555
H9 C7 1_555 1_555
C8 Si1 1_555 1_555
H10 C8 1_555 1_555
H11 C8 1_555 1_555
H12 C8 1_555 1_555
C9 Si1 1_555 1_555
C10 C9 1_555 1_555
H13 C10 1_555 1_555
H14 C10 1_555 1_555
H15 C10 1_555 1_555
C11 C9 1_555 1_555
H16 C11 1_555 1_555
H17 C11 1_555 1_555
H18 C11 1_555 1_555
C12 C9 1_555 1_555
H19 C12 1_555 1_555
H20 C12 1_555 1_555
H21 C12 1_555 1_555
C13 Si2 1_555 1_555
H22 C13 1_555 1_555
H23 C13 1_555 1_555
H24 C13 1_555 1_555
C14 Si2 1_555 1_555
H25 C14 1_555 1_555
H26 C14 1_555 1_555
H27 C14 1_555 1_555
C15 Si2 1_555 1_555
C16 C15 1_555 1_555
H28 C16 1_555 1_555
H29 C16 1_555 1_555
H30 C16 1_555 1_555
C17 C15 1_555 1_555
H31 C17 1_555 1_555
H32 C17 1_555 1_555
H33 C17 1_555 1_555
C18 C15 1_555 1_555
H34 C18 1_555 1_555
H35 C18 1_555 1_555
H36 C18 1_555 1_555
H37 C3 1_555 1_555
H38 C4 1_555 1_555

#END
