
#######################################################################
#
#                 Cambridge Crystallographic Data Centre
#                                CCDC 
#
#######################################################################
#
# If this CIF has been generated from an entry in the Cambridge 
# Structural Database, then it will include bibliographic, chemical, 
# crystal, experimental, refinement or atomic coordinate data resulting 
# from the CCDC's data processing and validation procedures.
#
#######################################################################

data_OCOBOY
_chemical_name_common            "dimethyl (R,R)-O,O'-di-t-butyltartrate"
_chemical_formula_moiety         'C14 H26 O6'
_chemical_name_systematic        'dimethyl (R,R)-2,3-bis(t-butoxy)succinate'
_symmetry_cell_setting           tetragonal
_symmetry_space_group_name_H-M   'P 43 21 2'
_symmetry_Int_Tables_number      96
_space_group_name_Hall           'P 4nw 2abw'
loop_
_symmetry_equiv_pos_site_id
_symmetry_equiv_pos_as_xyz
1 x,y,z
2 -x,-y,1/2+z
3 1/2-y,1/2+x,3/4+z
4 1/2+y,1/2-x,1/4+z
5 1/2-x,1/2+y,3/4-z
6 1/2+x,1/2-y,1/4-z
7 y,x,-z
8 -y,-x,1/2-z
_cell_length_a                   9.6060(10)
_cell_length_b                   9.6060(10)
_cell_length_c                   17.610(4)
_cell_angle_alpha                90
_cell_angle_beta                 90
_cell_angle_gamma                90
_cell_volume                     1624.97
_exptl_crystal_colour            colorless
_exptl_crystal_description       prismatic
_cell_formula_units_Z            4
loop_
_atom_site_label
_atom_site_type_symbol
_atom_site_fract_x
_atom_site_fract_y
_atom_site_fract_z
O1 O 0.02740(14) 0.14468(16) 0.14732(7)
O2 O 0.19026(13) 0.00956(13) 0.04018(7)
O3 O -0.16268(13) 0.03442(14) 0.10371(6)
C1 C -0.02700(19) 0.06695(19) 0.10320(10)
C2 C 0.04529(18) -0.01049(18) 0.03818(9)
H1 H 0.0251 -0.1081 0.0424
C3 C -0.2460(2) 0.1033(2) 0.16159(11)
H2 H -0.2240 0.0631 0.2100
H3 H -0.3432 0.0909 0.1508
H4 H -0.2265 0.2013 0.1623
C4 C 0.27467(19) -0.09936(19) 0.07536(10)
C5 C 0.4185(2) -0.0347(2) 0.07579(13)
H5 H 0.4825 -0.0976 0.0998
H6 H 0.4160 0.0491 0.1054
H7 H 0.4521 -0.0131 0.0258
C6 C 0.2259(2) -0.1297(2) 0.15631(11)
H8 H 0.2849 -0.1962 0.1812
H9 H 0.1328 -0.1657 0.1541
H10 H 0.2240 -0.0454 0.1855
C7 C 0.2724(2) -0.2303(2) 0.02695(10)
H11 H 0.1817 -0.2723 0.0269
H12 H 0.3393 -0.2955 0.0463
H13 H 0.2985 -0.2069 -0.0241
O1F O 0.14468(16) 0.02740(14) -0.14732(7)
O2F O 0.00956(13) 0.19026(13) -0.04018(7)
O3F O 0.03442(14) -0.16268(13) -0.10371(6)
C1F C 0.06695(19) -0.02700(19) -0.10320(10)
C2F C -0.01049(18) 0.04529(18) -0.03818(9)
H1F H -0.1081 0.0251 -0.0424
C3F C 0.1033(2) -0.2460(2) -0.16159(11)
H2F H 0.0631 -0.2240 -0.2100
H3F H 0.0909 -0.3432 -0.1508
H4F H 0.2013 -0.2265 -0.1623
C4F C -0.09936(19) 0.27467(19) -0.07536(10)
C5F C -0.0347(2) 0.4185(2) -0.07579(13)
H5F H -0.0976 0.4825 -0.0998
H6F H 0.0491 0.4160 -0.1054
H7F H -0.0131 0.4521 -0.0258
C6F C -0.1297(2) 0.2259(2) -0.15631(11)
H8F H -0.1962 0.2849 -0.1812
H9F H -0.1657 0.1328 -0.1541
H10F H -0.0454 0.2240 -0.1855
C7F C -0.2303(2) 0.2724(2) -0.02695(10)
H11F H -0.2723 0.1817 -0.0269
H12F H -0.2955 0.3393 -0.0463
H13F H -0.2069 0.2985 0.0241
loop_
_geom_bond_atom_site_label_1
_geom_bond_atom_site_label_2
_geom_bond_site_symmetry_1
_geom_bond_site_symmetry_2
O1 C1 1_555 1_555
O2 C2 1_555 1_555
O3 C1 1_555 1_555
C1 C2 1_555 1_555
C2 H1 1_555 1_555
C3 O3 1_555 1_555
H2 C3 1_555 1_555
H3 C3 1_555 1_555
H4 C3 1_555 1_555
C4 O2 1_555 1_555
C5 C4 1_555 1_555
H5 C5 1_555 1_555
H6 C5 1_555 1_555
H7 C5 1_555 1_555
C6 C4 1_555 1_555
H8 C6 1_555 1_555
H9 C6 1_555 1_555
H10 C6 1_555 1_555
C7 C4 1_555 1_555
H11 C7 1_555 1_555
H12 C7 1_555 1_555
H13 C7 1_555 1_555
O1F C1F 1_555 1_555
O2F C2F 1_555 1_555
O3F C1F 1_555 1_555
C1F C2F 1_555 1_555
C2F C2 1_555 1_555
H1F C2F 1_555 1_555
C3F O3F 1_555 1_555
H2F C3F 1_555 1_555
H3F C3F 1_555 1_555
H4F C3F 1_555 1_555
C4F O2F 1_555 1_555
C5F C4F 1_555 1_555
H5F C5F 1_555 1_555
H6F C5F 1_555 1_555
H7F C5F 1_555 1_555
C6F C4F 1_555 1_555
H8F C6F 1_555 1_555
H9F C6F 1_555 1_555
H10F C6F 1_555 1_555
C7F C4F 1_555 1_555
H11F C7F 1_555 1_555
H12F C7F 1_555 1_555
H13F C7F 1_555 1_555

#END
