
#######################################################################
#
#                 Cambridge Crystallographic Data Centre
#                                CCDC 
#
#######################################################################
#
# If this CIF has been generated from an entry in the Cambridge 
# Structural Database, then it will include bibliographic, chemical, 
# crystal, experimental, refinement or atomic coordinate data resulting 
# from the CCDC's data processing and validation procedures.
#
#######################################################################

data_OCOJUN
_chemical_formula_moiety         'C20 H12 Cl2'
_chemical_name_systematic        
10-(3,4-dichlorophenymethylidyne)-9,10-dihydrofluorene
_symmetry_cell_setting           monoclinic
_symmetry_space_group_name_H-M   'P 21/c'
_symmetry_Int_Tables_number      14
_space_group_name_Hall           '-P 2ybc'
loop_
_symmetry_equiv_pos_site_id
_symmetry_equiv_pos_as_xyz
1 x,y,z
2 -x,1/2+y,1/2-z
3 -x,-y,-z
4 x,1/2-y,1/2+z
_cell_length_a                   12.8781(13)
_cell_length_b                   16.5067(16)
_cell_length_c                   7.4656(7)
_cell_angle_alpha                90
_cell_angle_beta                 103.567(2)
_cell_angle_gamma                90
_cell_volume                     1542.72
_exptl_crystal_colour            yellow
_exptl_crystal_description       block
_chemical_melting_point          121deg.C
_cell_formula_units_Z            4
loop_
_atom_site_label
_atom_site_type_symbol
_atom_site_fract_x
_atom_site_fract_y
_atom_site_fract_z
C1 C 0.71701(17) 1.01582(13) 0.6056(3)
C2 C 0.71560(16) 1.09814(12) 0.6490(3)
H1 H 0.6741 1.1338 0.5653
C3 C 0.77507(16) 1.12694(12) 0.8147(3)
C4 C 0.83633(17) 1.07426(13) 0.9420(3)
C5 C 0.8367(2) 0.99258(13) 0.9019(3)
H2 H 0.8770 0.9570 0.9872
C6 C 0.7776(2) 0.96373(13) 0.7362(3)
H3 H 0.7781 0.9086 0.7111
C7 C 0.65123(18) 0.98536(14) 0.4304(3)
H4 H 0.5819 1.0055 0.3966
C8 C 0.67823(16) 0.93236(12) 0.3130(3)
C9 C 0.60145(16) 0.89659(12) 0.1528(3)
C10 C 0.49255(18) 0.90848(15) 0.0874(3)
H5 H 0.4560 0.9452 0.1444
C11 C 0.4392(2) 0.86439(17) -0.0650(4)
H6 H 0.3662 0.8720 -0.1103
C12 C 0.4924(2) 0.80972(19) -0.1500(4)
H7 H 0.4550 0.7811 -0.2522
C13 C 0.6008(2) 0.79676(16) -0.0853(3)
H8 H 0.6366 0.7595 -0.1424
C14 C 0.65515(16) 0.84062(13) 0.0667(3)
C15 C 0.76820(16) 0.83998(12) 0.1634(3)
C16 C 0.78364(16) 0.89599(12) 0.3090(3)
C17 C 0.88697(17) 0.91182(14) 0.4100(3)
H9 H 0.8992 0.9503 0.5036
C18 C 0.97146(18) 0.86935(15) 0.3687(3)
H10 H 1.0407 0.8798 0.4354
C19 C 0.95478(18) 0.81198(15) 0.2309(3)
H11 H 1.0124 0.7831 0.2085
C20 C 0.85318(19) 0.79701(14) 0.1256(3)
H12 H 0.8420 0.7589 0.0313
Cl1 Cl 0.77323(5) 1.22948(3) 0.86255(8)
Cl2 Cl 0.91070(6) 1.10889(4) 1.15054(8)
loop_
_geom_bond_atom_site_label_1
_geom_bond_atom_site_label_2
_geom_bond_site_symmetry_1
_geom_bond_site_symmetry_2
C1 C2 1_555 1_555
C2 H1 1_555 1_555
C3 C2 1_555 1_555
C4 C3 1_555 1_555
C5 C4 1_555 1_555
H2 C5 1_555 1_555
C6 C1 1_555 1_555
H3 C6 1_555 1_555
C7 C1 1_555 1_555
H4 C7 1_555 1_555
C8 C7 1_555 1_555
C9 C8 1_555 1_555
C10 C9 1_555 1_555
H5 C10 1_555 1_555
C11 C10 1_555 1_555
H6 C11 1_555 1_555
C12 C11 1_555 1_555
H7 C12 1_555 1_555
C13 C12 1_555 1_555
H8 C13 1_555 1_555
C14 C9 1_555 1_555
C15 C14 1_555 1_555
C16 C8 1_555 1_555
C17 C16 1_555 1_555
H9 C17 1_555 1_555
C18 C17 1_555 1_555
H10 C18 1_555 1_555
C19 C18 1_555 1_555
H11 C19 1_555 1_555
C20 C15 1_555 1_555
H12 C20 1_555 1_555
Cl1 C3 1_555 1_555
Cl2 C4 1_555 1_555
C5 C6 1_555 1_555
C13 C14 1_555 1_555
C15 C16 1_555 1_555
C19 C20 1_555 1_555

#END
