
#######################################################################
#
#                 Cambridge Crystallographic Data Centre
#                                CCDC 
#
#######################################################################
#
# If this CIF has been generated from an entry in the Cambridge 
# Structural Database, then it will include bibliographic, chemical, 
# crystal, experimental, refinement or atomic coordinate data resulting 
# from the CCDC's data processing and validation procedures.
#
#######################################################################

data_OCUCEX
_chemical_formula_moiety         'C16 H28 N2 O3,C1 H4 O1'
_chemical_name_systematic        
'9-isopropyl-12-methyl-2,15-dioxa-4,7-diazadispiro[5.1.5^8^.3^6^]hexadecan-3-one methanol solvate'
_symmetry_cell_setting           monoclinic
_symmetry_space_group_name_H-M   'P 21'
_symmetry_Int_Tables_number      4
_space_group_name_Hall           'P 2yb'
loop_
_symmetry_equiv_pos_site_id
_symmetry_equiv_pos_as_xyz
1 x,y,z
2 -x,1/2+y,-z
_cell_length_a                   8.3182(2)
_cell_length_b                   9.6473(2)
_cell_length_c                   11.6026(3)
_cell_angle_alpha                90
_cell_angle_beta                 99.9790(10)
_cell_angle_gamma                90
_cell_volume                     917.001
_exptl_crystal_colour            colorless
_exptl_crystal_description       plate
_cell_formula_units_Z            2
loop_
_atom_site_label
_atom_site_type_symbol
_atom_site_fract_x
_atom_site_fract_y
_atom_site_fract_z
N1 N 0.35607(19) 0.43994(16) 0.74415(12)
H1 H 0.338(3) 0.388(3) 0.803(2)
N2 N 0.7110(2) 0.60534(17) 0.94059(13)
H2 H 0.815(3) 0.590(3) 0.9694(19)
O1 O 0.55683(17) 0.54663(14) 0.59816(10)
O2 O 0.48729(17) 0.74891(13) 0.92278(11)
O3 O 0.72103(17) 0.81556(13) 1.02790(10)
C1 C 0.5114(3) 0.63331(19) 0.68611(15)
H3 H 0.414 0.6881 0.6524
H4 H 0.6014 0.6988 0.7142
C2 C 0.4737(2) 0.54744(19) 0.78938(14)
C3 C 0.3844(2) 0.35606(19) 0.64323(15)
C4 C 0.4237(2) 0.4582(2) 0.55126(15)
H5 H 0.4516 0.4061 0.4839
H6 H 0.3262 0.5154 0.5226
C5 C 0.2291(2) 0.27002(19) 0.59637(16)
H7 H 0.2524 0.2218 0.5248
C6 C 0.2049(3) 0.15395(18) 0.68314(17)
H8 H 0.1825 0.1962 0.7565
H9 H 0.1087 0.0977 0.6494
C7 C 0.3540(2) 0.0591(2) 0.71155(16)
H10 H 0.3351 -0.0098 0.771
H11 H 0.3689 0.0082 0.6401
C8 C 0.5080(3) 0.1412(2) 0.75749(15)
H12 H 0.4928 0.1873 0.832
C9 C 0.5295(2) 0.25411(19) 0.66929(15)
H13 H 0.5452 0.2096 0.5951
H14 H 0.6298 0.3072 0.6995
C10 C 0.0695(3) 0.3541(2) 0.55592(19)
H15 H 0.1019 0.4435 0.5228
C11 C -0.0403(3) 0.2776(3) 0.4567(3)
H16 H -0.075(2) 0.1877(18) 0.4863(7)
H17 H 0.0210(14) 0.260(2) 0.3918(13)
H18 H -0.138(2) 0.3351(14) 0.4275(14)
C12 C -0.0272(3) 0.3906(3) 0.6517(2)
H19 H -0.123(2) 0.450(2) 0.6181(7)
H20 H 0.0449(15) 0.442(2) 0.7158(14)
H21 H -0.068(2) 0.3033(15) 0.6842(13)
C13 C 0.6589(3) 0.0494(2) 0.78375(16)
H22 H 0.6778(11) 0.0037(13) 0.7105(10)
H23 H 0.6422(8) -0.0224(14) 0.8419(12)
H24 H 0.7553(14) 0.1070(8) 0.8160(13)
C14 C 0.3874(2) 0.6355(2) 0.86827(16)
H25 H 0.2861 0.6737 0.8216
H26 H 0.3558 0.5759 0.9302
C15 C 0.6317(2) 0.49424(19) 0.86524(15)
H27 H 0.606 0.416 0.9142
H28 H 0.7069 0.46 0.8142
C16 C 0.6453(2) 0.72434(19) 0.96680(14)
H29 H -0.081(4) 0.911(3) 1.014(2)
O4 O 0.0011(2) 0.95075(18) 0.98994(14)
C17 C 0.0431(3) 0.8579(3) 0.9069(3)
H30 H 0.1423 0.8905 0.8805
H31 H -0.0464 0.8527 0.8399
H32 H 0.0626 0.7659 0.9423
loop_
_geom_bond_atom_site_label_1
_geom_bond_atom_site_label_2
_geom_bond_site_symmetry_1
_geom_bond_site_symmetry_2
N1 H1 1_555 1_555
N2 H2 1_555 1_555
O1 C1 1_555 1_555
O2 C14 1_555 1_555
O3 C16 1_555 1_555
C1 H3 1_555 1_555
H4 C1 1_555 1_555
C2 N1 1_555 1_555
C3 N1 1_555 1_555
C4 O1 1_555 1_555
H5 C4 1_555 1_555
H6 C4 1_555 1_555
C5 C3 1_555 1_555
H7 C5 1_555 1_555
C6 C5 1_555 1_555
H8 C6 1_555 1_555
H9 C6 1_555 1_555
C7 C6 1_555 1_555
H10 C7 1_555 1_555
H11 C7 1_555 1_555
C8 C7 1_555 1_555
H12 C8 1_555 1_555
C9 C3 1_555 1_555
H13 C9 1_555 1_555
H14 C9 1_555 1_555
C10 C5 1_555 1_555
H15 C10 1_555 1_555
C11 C10 1_555 1_555
H16 C11 1_555 1_555
H17 C11 1_555 1_555
H18 C11 1_555 1_555
C12 C10 1_555 1_555
H19 C12 1_555 1_555
H20 C12 1_555 1_555
H21 C12 1_555 1_555
C13 C8 1_555 1_555
H22 C13 1_555 1_555
H23 C13 1_555 1_555
H24 C13 1_555 1_555
C14 C2 1_555 1_555
H25 C14 1_555 1_555
H26 C14 1_555 1_555
C15 N2 1_555 1_555
H27 C15 1_555 1_555
H28 C15 1_555 1_555
C16 N2 1_555 1_555
H29 O4 1_555 1_555
O4 C17 1_555 1_555
C17 H30 1_555 1_555
H31 C17 1_555 1_555
H32 C17 1_555 1_555
O2 C16 1_555 1_555
C1 C2 1_555 1_555
C2 C15 1_555 1_555
C3 C4 1_555 1_555
C8 C9 1_555 1_555

#END
