
#######################################################################
#
#                 Cambridge Crystallographic Data Centre
#                                CCDC 
#
#######################################################################
#
# If this CIF has been generated from an entry in the Cambridge 
# Structural Database, then it will include bibliographic, chemical, 
# crystal, experimental, refinement or atomic coordinate data resulting 
# from the CCDC's data processing and validation procedures.
#
#######################################################################

data_OCUSIR
_chemical_formula_moiety         'C14 H22 O4,H2 O1'
_chemical_name_systematic        
'8a-hydroxy-5a-(hydroxymethyl)-6,8b-dimethyldecahydro-3H-indeno[4,5-c]furan-3-one monohydrate'
_symmetry_cell_setting           orthorhombic
_symmetry_space_group_name_H-M   'P 21 21 21'
_symmetry_Int_Tables_number      19
_space_group_name_Hall           'P 2ac 2ab'
loop_
_symmetry_equiv_pos_site_id
_symmetry_equiv_pos_as_xyz
1 x,y,z
2 1/2-x,-y,1/2+z
3 1/2+x,1/2-y,-z
4 -x,1/2+y,1/2-z
_cell_length_a                   7.4979(15)
_cell_length_b                   12.128(2)
_cell_length_c                   15.252(3)
_cell_angle_alpha                90
_cell_angle_beta                 90
_cell_angle_gamma                90
_cell_volume                     1386.93
_exptl_crystal_colour            colorless
_exptl_crystal_description       block
_cell_formula_units_Z            4
loop_
_atom_site_label
_atom_site_type_symbol
_atom_site_fract_x
_atom_site_fract_y
_atom_site_fract_z
O1 O -0.4890(4) -0.3900(2) -0.68497(18)
H1 H -0.5419 -0.4209 -0.7251
O2 O -0.3225(5) -0.2069(2) -0.6570(2)
H2 H -0.4068 -0.2362 -0.6820
O3 O -0.2086(5) -0.7944(2) -0.5804(2)
O4 O -0.4569(4) -0.7248(2) -0.63919(18)
C1 C -0.3555(5) -0.4639(3) -0.6491(2)
C2 C -0.4507(5) -0.5398(3) -0.5820(2)
C3 C -0.2053(5) -0.3903(3) -0.6072(2)
C4 C -0.2698(6) -0.2728(3) -0.5845(3)
H3 H -0.3700 -0.2787 -0.5445
H4 H -0.1747 -0.2350 -0.5537
C5 C -0.1360(6) -0.4345(4) -0.7603(3)
H5 H -0.1997 -0.3768 -0.7912
H6 H -0.0476 -0.4665 -0.7991
C6 C -0.3167(6) -0.7192(3) -0.5840(3)
C7 C -0.1362(6) -0.4395(3) -0.5201(3)
H7 H -0.0172 -0.4113 -0.5089
H8 H -0.2127 -0.4150 -0.4727
C8 C -0.3174(5) -0.6132(3) -0.5338(2)
H9 H -0.3672 -0.6288 -0.4757
C9 C -0.5673(5) -0.6280(3) -0.6287(3)
H10 H -0.6716 -0.6451 -0.5936
H11 H -0.6067 -0.6011 -0.6854
C10 C -0.0499(6) -0.3904(3) -0.6759(3)
H12 H 0.0340 -0.4474 -0.6566
C11 C -0.2634(5) -0.5219(3) -0.7254(2)
H13 H -0.1990 -0.5866 -0.7055
H14 H -0.3488 -0.5437 -0.7699
C12 C 0.0582(6) -0.2861(4) -0.6858(4)
H15 H -0.0158 -0.2288 -0.7095
H16 H 0.1565 -0.2994 -0.7248
H17 H 0.1028 -0.2639 -0.6296
C13 C -0.1300(6) -0.5646(3) -0.5199(3)
H18 H -0.0824 -0.5903 -0.4644
H19 H -0.0513 -0.5900 -0.5662
C14 C -0.5709(6) -0.4748(3) -0.5202(3)
H20 H -0.4994 -0.4268 -0.4845
H21 H -0.6354 -0.5250 -0.4832
H22 H -0.6537 -0.4317 -0.5538
O5 O -0.6672(6) -0.4809(3) -0.8207(2)
H23 H -0.6942 -0.5458 -0.8369
H24 H -0.7044 -0.4348 -0.8586
loop_
_geom_bond_atom_site_label_1
_geom_bond_atom_site_label_2
_geom_bond_site_symmetry_1
_geom_bond_site_symmetry_2
O1 H1 1_555 1_555
O2 H2 1_555 1_555
O3 C6 1_555 1_555
O4 C6 1_555 1_555
C1 O1 1_555 1_555
C2 C1 1_555 1_555
C3 C1 1_555 1_555
C4 O2 1_555 1_555
H3 C4 1_555 1_555
H4 C4 1_555 1_555
C5 H5 1_555 1_555
H6 C5 1_555 1_555
C6 C8 1_555 1_555
C7 C3 1_555 1_555
H7 C7 1_555 1_555
H8 C7 1_555 1_555
C8 C2 1_555 1_555
H9 C8 1_555 1_555
C9 O4 1_555 1_555
H10 C9 1_555 1_555
H11 C9 1_555 1_555
C10 C3 1_555 1_555
H12 C10 1_555 1_555
C11 C1 1_555 1_555
H13 C11 1_555 1_555
H14 C11 1_555 1_555
C12 C10 1_555 1_555
H15 C12 1_555 1_555
H16 C12 1_555 1_555
H17 C12 1_555 1_555
C13 C7 1_555 1_555
H18 C13 1_555 1_555
H19 C13 1_555 1_555
C14 C2 1_555 1_555
H20 C14 1_555 1_555
H21 C14 1_555 1_555
H22 C14 1_555 1_555
O5 H23 1_555 1_555
H24 O5 1_555 1_555
C2 C9 1_555 1_555
C3 C4 1_555 1_555
C5 C10 1_555 1_555
C5 C11 1_555 1_555
C8 C13 1_555 1_555

#END
