
#######################################################################
#
#                 Cambridge Crystallographic Data Centre
#                                CCDC 
#
#######################################################################
#
# If this CIF has been generated from an entry in the Cambridge 
# Structural Database, then it will include bibliographic, chemical, 
# crystal, experimental, refinement or atomic coordinate data resulting 
# from the CCDC's data processing and validation procedures.
#
#######################################################################

data_ODAJIM
_chemical_compound_source        'Aerial parts of Mikania micrantha'
_chemical_formula_moiety         'C18 H16 O7'
_chemical_name_systematic        Mikanin
_symmetry_cell_setting           triclinic
_symmetry_space_group_name_H-M   'P -1'
_symmetry_Int_Tables_number      2
_space_group_name_Hall           '-P 1'
loop_
_symmetry_equiv_pos_site_id
_symmetry_equiv_pos_as_xyz
1 x,y,z
2 -x,-y,-z
_cell_length_a                   7.6856(9)
_cell_length_b                   7.9835(10)
_cell_length_c                   13.1974(15)
_cell_angle_alpha                86.409(2)
_cell_angle_beta                 77.395(2)
_cell_angle_gamma                85.358(2)
_cell_volume                     786.814
_exptl_crystal_colour            yellow
_exptl_crystal_description       block
_cell_formula_units_Z            2
_exptl_crystal_recrystallization_method methanol
loop_
_atom_site_label
_atom_site_type_symbol
_atom_site_fract_x
_atom_site_fract_y
_atom_site_fract_z
O1 O 0.14495(14) 0.43811(12) 0.62358(8)
O2 O -0.16748(14) 0.38395(15) 0.97556(8)
O3 O -0.24783(15) 0.71319(17) 0.98171(9)
O4 O -0.14809(18) 0.91721(16) 0.80620(12)
H1 H -0.1122 0.9622 0.7486
O5 O 0.02161(17) 0.94097(14) 0.61195(10)
O6 O 0.20158(17) 0.79198(15) 0.43817(9)
H2 H 0.1463 0.8843 0.4438
O7 O 0.62744(16) 0.12699(15) 0.22593(8)
C1 C 0.20106(19) 0.53044(19) 0.53299(11)
C2 C 0.1542(2) 0.6982(2) 0.52762(12)
C3 C 0.0554(2) 0.7834(2) 0.61751(13)
C4 C -0.1033(2) 0.7501(2) 0.80307(13)
C5 C -0.1560(2) 0.6471(2) 0.88936(12)
C6 C -0.1090(2) 0.4728(2) 0.88584(12)
C7 C -0.0102(2) 0.4037(2) 0.79554(12)
H3 H 0.0194 0.2885 0.7928
C8 C 0.04315(19) 0.51009(19) 0.71000(11)
C9 C -0.0006(2) 0.68197(19) 0.70969(12)
C10 C -0.1251(2) 0.2064(2) 0.97790(13)
H4 H -0.1744 0.1588 1.0457
H5 H 0.0023 0.1841 0.9625
H6 H -0.1749 0.1569 0.9271
C11 C -0.4331(3) 0.7409(3) 0.99109(17)
H7 H -0.4858 0.7866 1.0573
H8 H -0.4833 0.6363 0.9859
H9 H -0.4570 0.8187 0.9365
C12 C 0.31008(19) 0.42545(19) 0.45230(11)
C13 C 0.3227(2) 0.25219(19) 0.46790(11)
H10 H 0.2593 0.2042 0.5296
C14 C 0.4266(2) 0.1481(2) 0.39487(12)
H11 H 0.4324 0.0321 0.4075
C15 C 0.5216(2) 0.2182(2) 0.30297(11)
C16 C 0.5114(2) 0.3911(2) 0.28553(12)
H12 H 0.5750 0.4386 0.2238
C17 C 0.40852(18) 0.49259(16) 0.35852(10)
H13 H 0.4038 0.6086 0.3456
C18 C 0.63043(18) -0.04994(16) 0.23771(10)
H14 H 0.7095 -0.0984 0.1785
H15 H 0.5121 -0.0852 0.2430
H16 H 0.6717 -0.0867 0.2996
loop_
_geom_bond_atom_site_label_1
_geom_bond_atom_site_label_2
_geom_bond_site_symmetry_1
_geom_bond_site_symmetry_2
O1 C1 1_555 1_555
O2 C6 1_555 1_555
O3 C5 1_555 1_555
O4 H1 1_555 1_555
O5 C3 1_555 1_555
O6 H2 1_555 1_555
O7 C15 1_555 1_555
C1 C2 1_555 1_555
C2 O6 1_555 1_555
C3 C2 1_555 1_555
C4 O4 1_555 1_555
C5 C4 1_555 1_555
C6 C5 1_555 1_555
C7 C6 1_555 1_555
H3 C7 1_555 1_555
C8 O1 1_555 1_555
C9 C3 1_555 1_555
C10 O2 1_555 1_555
H4 C10 1_555 1_555
H5 C10 1_555 1_555
H6 C10 1_555 1_555
C11 O3 1_555 1_555
H7 C11 1_555 1_555
H8 C11 1_555 1_555
H9 C11 1_555 1_555
C12 C1 1_555 1_555
C13 C12 1_555 1_555
H10 C13 1_555 1_555
C14 C13 1_555 1_555
H11 C14 1_555 1_555
C15 C14 1_555 1_555
C16 C15 1_555 1_555
H12 C16 1_555 1_555
C17 C12 1_555 1_555
H13 C17 1_555 1_555
C18 O7 1_555 1_555
H14 C18 1_555 1_555
H15 C18 1_555 1_555
H16 C18 1_555 1_555
C4 C9 1_555 1_555
C7 C8 1_555 1_555
C8 C9 1_555 1_555
C16 C17 1_555 1_555

#END
