
#######################################################################
#
#                 Cambridge Crystallographic Data Centre
#                                CCDC 
#
#######################################################################
#
# If this CIF has been generated from an entry in the Cambridge 
# Structural Database, then it will include bibliographic, chemical, 
# crystal, experimental, refinement or atomic coordinate data resulting 
# from the CCDC's data processing and validation procedures.
#
#######################################################################

data_ODANIR
_chemical_name_common            
'17-Acetyl-16-bromo-17-hydroxy-10,13-dimethyl-1,6,7,8,9,10,12,13,14,15,16,17-dodecahydro-2H-cyclopenta(a)phenanthrene-3,11-dione chloroform solvate'
_chemical_formula_moiety         'C21 H27 Br1 O4,C1 H1 Cl3'
_chemical_name_systematic        
'16\b-Bromo-17-hydroxypregn-4-ene-3,11,20-trione chloroform solvate'
_symmetry_cell_setting           orthorhombic
_symmetry_space_group_name_H-M   'P 21 21 21'
_symmetry_Int_Tables_number      19
_space_group_name_Hall           'P 2ac 2ab'
loop_
_symmetry_equiv_pos_site_id
_symmetry_equiv_pos_as_xyz
1 x,y,z
2 1/2-x,-y,1/2+z
3 -x,1/2+y,1/2-z
4 1/2+x,1/2-y,-z
_cell_length_a                   10.443(2)
_cell_length_b                   12.324(3)
_cell_length_c                   18.927(4)
_cell_angle_alpha                90
_cell_angle_beta                 90
_cell_angle_gamma                90
_cell_volume                     2435.9
_exptl_crystal_colour            colorless
_exptl_crystal_description       plate
_chemical_melting_point          '472.2 K'
_cell_formula_units_Z            4
loop_
_atom_site_label
_atom_site_type_symbol
_atom_site_fract_x
_atom_site_fract_y
_atom_site_fract_z
Br1 Br 0.01979(5) 0.98165(4) 0.191311(19)
C1 C 0.0966(4) 0.8674(4) -0.26704(17)
H1 H 0.1858 0.8491 -0.2593
H2 H 0.0463 0.8021 -0.2599
C2 C 0.0797(4) 0.9057(5) -0.34310(19)
H3 H 0.1372 0.9660 -0.3522
H4 H 0.1018 0.8473 -0.3752
C3 C -0.0539(5) 0.9403(6) -0.3562(2)
C4 C -0.1211(4) 0.9909(5) -0.29772(19)
H5 H -0.2028 1.0181 -0.3060
C5 C -0.0729(3) 1.0008(4) -0.23266(17)
C6 C -0.1443(4) 1.0646(4) -0.17798(19)
H6 H -0.2301 1.0791 -0.1951
H7 H -0.1018 1.1339 -0.1713
C7 C -0.1531(3) 1.0065(3) -0.10701(16)
H8 H -0.1894 1.0555 -0.0722
H9 H -0.2100 0.9447 -0.1114
C8 C -0.0225(3) 0.9679(3) -0.08164(15)
H10 H 0.0321 1.0314 -0.0736
C9 C 0.0406(3) 0.8955(3) -0.13884(15)
H11 H -0.0210 0.8369 -0.1472
C10 C 0.0554(3) 0.9534(3) -0.21207(16)
C11 C 0.1600(3) 0.8392(3) -0.11102(15)
C12 C 0.1470(3) 0.7815(3) -0.04081(15)
H12 H 0.2296 0.7537 -0.0259
H13 H 0.0884 0.7208 -0.0454
C13 C 0.0958(3) 0.8622(3) 0.01417(15)
C14 C -0.0329(3) 0.9039(3) -0.01293(14)
H14 H -0.0865 0.8403 -0.0225
C15 C -0.0904(4) 0.9619(3) 0.05090(16)
H15 H -0.1830 0.9644 0.0478
H16 H -0.0576 1.0353 0.0549
C16 C -0.0468(4) 0.8918(3) 0.11386(15)
H17 H -0.1213 0.8518 0.1315
C17 C 0.0509(3) 0.8087(3) 0.08501(15)
C18 C 0.1547(4) 0.7726(3) 0.13801(16)
C19 C 0.1094(4) 0.7143(4) 0.20317(18)
H18 H 0.1816 0.6962 0.2322
H19 H 0.0654 0.6490 0.1897
H20 H 0.0521 0.7603 0.2292
C20 C 0.1536(4) 1.0461(4) -0.2089(2)
H21 H 0.1271 1.0983 -0.1743
H22 H 0.1592 1.0804 -0.2543
H23 H 0.2359 1.0174 -0.1961
C21 C 0.1945(4) 0.9521(3) 0.02571(17)
H24 H 0.2193 0.9819 -0.0191
H25 H 0.2684 0.9226 0.0490
H26 H 0.1578 1.0082 0.0545
O1 O -0.0875(16) 0.9716(15) -0.4182(6)
O3 O 0.2625(2) 0.8404(2) -0.14253(11)
O4 O -0.0139(2) 0.71145(18) 0.06626(10)
H28 H -0.0772 0.7040 0.0914
O5 O 0.2681(3) 0.7823(2) 0.12630(13)
Cl1 Cl -0.0126(7) 0.4280(8) 0.1234(4)
Cl2 Cl 0.1017(4) 0.2558(4) 0.1122(2)
Cl3 Cl -0.1541(6) 0.2742(9) 0.0629(6)
C22 C -0.0018(4) 0.3354(3) 0.0564(2)
H27 H 0.0317 0.3501 0.0090
Cl4? Cl -0.0059(6) 0.4614(3) 0.0857(4)
Cl5? Cl 0.1164(6) 0.2499(5) 0.0692(9)
Cl6? Cl -0.1411(9) 0.2707(9) 0.0350(6)
O2? O -0.1131(13) 0.9001(12) -0.4106(6)
loop_
_geom_bond_atom_site_label_1
_geom_bond_atom_site_label_2
_geom_bond_site_symmetry_1
_geom_bond_site_symmetry_2
Br1 C16 1_555 1_555
Cl1 C22 1_555 1_555
Cl2 C22 1_555 1_555
Cl3 C22 1_555 1_555
C1 H1 1_555 1_555
H2 C1 1_555 1_555
C2 C1 1_555 1_555
H3 C2 1_555 1_555
H4 C2 1_555 1_555
C3 C2 1_555 1_555
C4 C3 1_555 1_555
H5 C4 1_555 1_555
C5 C4 1_555 1_555
C6 C5 1_555 1_555
H6 C6 1_555 1_555
H7 C6 1_555 1_555
C7 C6 1_555 1_555
H8 C7 1_555 1_555
H9 C7 1_555 1_555
C8 C7 1_555 1_555
H10 C8 1_555 1_555
C9 C8 1_555 1_555
H11 C9 1_555 1_555
C10 C1 1_555 1_555
C11 C9 1_555 1_555
C12 C11 1_555 1_555
H12 C12 1_555 1_555
H13 C12 1_555 1_555
C13 C12 1_555 1_555
C14 C8 1_555 1_555
H14 C14 1_555 1_555
C15 C14 1_555 1_555
H15 C15 1_555 1_555
H16 C15 1_555 1_555
C16 C15 1_555 1_555
H17 C16 1_555 1_555
C17 C13 1_555 1_555
C18 C17 1_555 1_555
C19 C18 1_555 1_555
H18 C19 1_555 1_555
H19 C19 1_555 1_555
H20 C19 1_555 1_555
C20 C10 1_555 1_555
H21 C20 1_555 1_555
H22 C20 1_555 1_555
H23 C20 1_555 1_555
C21 C13 1_555 1_555
H24 C21 1_555 1_555
H25 C21 1_555 1_555
H26 C21 1_555 1_555
C22 H27 1_555 1_555
O1 C3 1_555 1_555
O3 C11 1_555 1_555
O4 C17 1_555 1_555
H28 O4 1_555 1_555
O5 C18 1_555 1_555
C5 C10 1_555 1_555
C9 C10 1_555 1_555
C13 C14 1_555 1_555
C16 C17 1_555 1_555

#END
