
#######################################################################
#
#                 Cambridge Crystallographic Data Centre
#                                CCDC 
#
#######################################################################
#
# If this CIF has been generated from an entry in the Cambridge 
# Structural Database, then it will include bibliographic, chemical, 
# crystal, experimental, refinement or atomic coordinate data resulting 
# from the CCDC's data processing and validation procedures.
#
#######################################################################

data_ODAPIV
_chemical_formula_moiety         'C14 H13 N3 O3,C2 H6 O1 S1'
_chemical_name_systematic        
"2-ethyl-7-(hydroxycarbonoimidoyl)-1-methyl-3H-dipyrrolo[1,2-c:2',1'-f]pyrimidine-3,5-dione dimethyl sulfoxide solvate"
_symmetry_cell_setting           triclinic
_symmetry_space_group_name_H-M   'P -1'
_symmetry_Int_Tables_number      2
_space_group_name_Hall           '-P 1'
loop_
_symmetry_equiv_pos_site_id
_symmetry_equiv_pos_as_xyz
1 x,y,z
2 -x,-y,-z
_cell_length_a                   7.7579(2)
_cell_length_b                   9.4187(2)
_cell_length_c                   12.4097(3)
_cell_angle_alpha                105.6900(10)
_cell_angle_beta                 103.9550(10)
_cell_angle_gamma                97.825(2)
_cell_volume                     827.306
_exptl_crystal_colour            yellow
_exptl_crystal_description       block
_cell_formula_units_Z            2
loop_
_atom_site_label
_atom_site_type_symbol
_atom_site_fract_x
_atom_site_fract_y
_atom_site_fract_z
O1 O 0.1302(3) 1.5535(2) -0.29487(18)
O2 O 0.2110(3) 1.6500(2) -0.47919(19)
O3 O 0.3229(3) 1.8981(3) -0.7370(2)
H1 H 0.3291 1.9302 -0.7932
N1 N 0.2205(3) 1.4192(3) -0.4529(2)
N2 N 0.2991(3) 1.4712(3) -0.6093(2)
N3 N 0.3337(3) 1.7503(3) -0.7655(2)
C1 C 0.2111(4) 1.1974(3) -0.4075(3)
C2 C 0.1684(4) 1.2965(3) -0.3224(3)
C3 C 0.1682(4) 1.4396(3) -0.3484(3)
C4 C 0.2393(4) 1.5250(3) -0.5102(3)
C5 C 0.3340(4) 1.5477(4) -0.6871(3)
C6 C 0.3809(4) 1.4488(4) -0.7730(3)
H2 H 0.4126 1.4708 -0.8369
C7 C 0.3748(4) 1.3111(4) -0.7515(3)
H3 H 0.4015 1.2236 -0.7980
C8 C 0.3237(4) 1.3232(3) -0.6517(3)
C9 C 0.2955(4) 1.2225(3) -0.5884(3)
H4 H 0.3115 1.1220 -0.6146
C10 C 0.2459(4) 1.2705(3) -0.4907(3)
C11 C 0.3232(4) 1.7033(4) -0.6737(3)
H5 H 0.3095 1.7682 -0.6044
C12 C 0.1273(4) 1.2776(4) -0.2150(3)
H6 H 0.0775 1.1695 -0.2293
H7 H 0.0329 1.3342 -0.1986
C13 C 0.2949(4) 1.3334(4) -0.1080(3)
H8 H 0.2639 1.3097 -0.0419
H9 H 0.3363 1.4428 -0.0878
H10 H 0.3922 1.2833 -0.1258
C14 C 0.2267(4) 1.0381(3) -0.4201(3)
H11 H 0.1560 0.9976 -0.3753
H12 H 0.3547 1.0348 -0.3904
H13 H 0.1797 0.9772 -0.5028
S1 S 0.28960(11) 0.82632(9) -0.04388(7)
O4 O 0.3442(3) 0.9564(2) 0.06896(19)
C15 C 0.2033(5) 0.9045(4) -0.1555(3)
H14 H 0.2999 0.9819 -0.1572
H15 H 0.1021 0.9502 -0.1397
H16 H 0.1602 0.8246 -0.2314
C16 C 0.0808(4) 0.7193(4) -0.0463(3)
H17 H 0.1031 0.6713 0.0152
H18 H 0.0276 0.6413 -0.1227
H19 H -0.0035 0.7861 -0.0327
loop_
_geom_bond_atom_site_label_1
_geom_bond_atom_site_label_2
_geom_bond_site_symmetry_1
_geom_bond_site_symmetry_2
O1 C3 1_555 1_555
O2 C4 1_555 1_555
O3 H1 1_555 1_555
N1 C3 1_555 1_555
N2 C4 1_555 1_555
N3 O3 1_555 1_555
C1 C2 1_555 1_555
C2 C3 1_555 1_555
C4 N1 1_555 1_555
C5 N2 1_555 1_555
C6 C5 1_555 1_555
H2 C6 1_555 1_555
C7 C6 1_555 1_555
H3 C7 1_555 1_555
C8 N2 1_555 1_555
C9 C8 1_555 1_555
H4 C9 1_555 1_555
C10 N1 1_555 1_555
C11 N3 1_555 1_555
H5 C11 1_555 1_555
C12 C2 1_555 1_555
H6 C12 1_555 1_555
H7 C12 1_555 1_555
C13 C12 1_555 1_555
H8 C13 1_555 1_555
H9 C13 1_555 1_555
H10 C13 1_555 1_555
C14 C1 1_555 1_555
H11 C14 1_555 1_555
H12 C14 1_555 1_555
H13 C14 1_555 1_555
S1 O4 1_555 1_555
C15 S1 1_555 1_555
H14 C15 1_555 1_555
H15 C15 1_555 1_555
H16 C15 1_555 1_555
C16 S1 1_555 1_555
H17 C16 1_555 1_555
H18 C16 1_555 1_555
H19 C16 1_555 1_555
C1 C10 1_555 1_555
C5 C11 1_555 1_555
C7 C8 1_555 1_555
C9 C10 1_555 1_555

#END
