
#######################################################################
#
#                 Cambridge Crystallographic Data Centre
#                                CCDC 
#
#######################################################################
#
# If this CIF has been generated from an entry in the Cambridge 
# Structural Database, then it will include bibliographic, chemical, 
# crystal, experimental, refinement or atomic coordinate data resulting 
# from the CCDC's data processing and validation procedures.
#
#######################################################################

data_ODAQOC
_chemical_formula_moiety         'C44 H32 B2 N2 O4,C14 H10'
_chemical_name_systematic        
'(\m-1,2-bis(4-pyridinio)ethene)-diphenyl-bis(naphthalene-2,3-diolato)diborate anthracene'
_symmetry_cell_setting           monoclinic
_symmetry_space_group_name_H-M   'P 21/c'
_symmetry_Int_Tables_number      14
_space_group_name_Hall           '-P 2ybc'
loop_
_symmetry_equiv_pos_site_id
_symmetry_equiv_pos_as_xyz
1 x,y,z
2 -x,1/2+y,1/2-z
3 -x,-y,-z
4 x,1/2-y,1/2+z
_cell_length_a                   7.3455(3)
_cell_length_b                   20.4878(9)
_cell_length_c                   14.8292(7)
_cell_angle_alpha                90
_cell_angle_beta                 103.6060(10)
_cell_angle_gamma                90
_cell_volume                     2169.06
_exptl_crystal_colour            orange
_exptl_crystal_description       Prism
_cell_formula_units_Z            2
_exptl_crystal_recrystallization_method Chloroform
loop_
_atom_site_label
_atom_site_type_symbol
_atom_site_fract_x
_atom_site_fract_y
_atom_site_fract_z
O1 O 0.26103(19) 0.69482(6) 0.70610(9)
O2 O 0.0357(2) 0.73729(7) 0.78051(10)
N1 N 0.1741(2) 0.81252(8) 0.68056(11)
C1 C 0.1025(3) 0.80156(11) 0.59028(15)
H1 H 0.0870 0.7587 0.5692
C2 C 0.0512(3) 0.85129(11) 0.52777(15)
H2 H 0.0038 0.8415 0.4654
C3 C 0.0688(3) 0.91585(10) 0.55595(14)
C4 C 0.1492(3) 0.92604(11) 0.64867(16)
H3 H 0.1696 0.9684 0.6712
C5 C 0.1991(3) 0.87458(10) 0.70777(15)
H4 H 0.2531 0.8832 0.7699
C6 C 0.0045(3) 0.96878(10) 0.48962(15)
H5 H -0.0335 0.9574 0.4273
C7 C 0.3771(3) 0.77380(9) 0.84395(14)
C8 C 0.3418(3) 0.78966(10) 0.92915(15)
H6 H 0.2193 0.7878 0.9360
C9 C 0.4822(4) 0.80806(11) 1.00415(16)
H7 H 0.4538 0.8184 1.0603
C10 C 0.6633(4) 0.81101(11) 0.99552(17)
H8 H 0.7583 0.8240 1.0456
C11 C 0.7043(4) 0.79485(12) 0.91305(18)
H9 H 0.8276 0.7961 0.9073
C12 C 0.5630(3) 0.77674(11) 0.83833(16)
H10 H 0.5930 0.7662 0.7826
C13 C 0.1138(3) 0.65303(9) 0.69709(13)
C14 C -0.0205(3) 0.67817(10) 0.74194(13)
C15 C -0.1807(3) 0.64568(10) 0.74267(15)
H11 H -0.2660 0.6624 0.7742
C16 C -0.2153(3) 0.58555(11) 0.69418(15)
C17 C -0.0801(3) 0.55989(10) 0.64918(15)
C18 C 0.0882(3) 0.59521(10) 0.65182(14)
H12 H 0.1783 0.5789 0.6231
C19 C -0.1205(4) 0.50051(11) 0.59999(16)
H13 H -0.0316 0.4819 0.5724
C20 C -0.2900(5) 0.47010(13) 0.59260(19)
H14 H -0.3162 0.4318 0.5584
C21 C -0.4225(4) 0.49583(14) 0.6355(2)
H15 H -0.5370 0.4748 0.6296
C22 C -0.3861(3) 0.55150(12) 0.68593(17)
H16 H -0.4750 0.5676 0.7157
B1 B 0.2165(3) 0.75243(11) 0.75693(17)
O1B O -0.26103(19) 1.30518(6) 0.29390(9)
O2B O -0.0357(2) 1.26271(7) 0.21949(10)
N1B N -0.1741(2) 1.18748(8) 0.31944(11)
C1B C -0.1025(3) 1.19844(11) 0.40972(15)
H1B H -0.0870 1.2413 0.4308
C2B C -0.0512(3) 1.14871(11) 0.47223(15)
H2B H -0.0038 1.1585 0.5346
C3B C -0.0688(3) 1.08415(10) 0.44405(14)
C4B C -0.1492(3) 1.07396(11) 0.35133(16)
H3B H -0.1696 1.0316 0.3288
C5B C -0.1991(3) 1.12542(10) 0.29223(15)
H4B H -0.2531 1.1168 0.2301
C6B C -0.0045(3) 1.03122(10) 0.51038(15)
H5B H 0.0335 1.0426 0.5727
C7B C -0.3771(3) 1.22620(9) 0.15605(14)
C8B C -0.3418(3) 1.21034(10) 0.07085(15)
H6B H -0.2193 1.2122 0.0640
C9B C -0.4822(4) 1.19194(11) -0.00415(16)
H7B H -0.4538 1.1816 -0.0603
C10B C -0.6633(4) 1.18899(11) 0.00448(17)
H8B H -0.7583 1.1760 -0.0456
C11B C -0.7043(4) 1.20515(12) 0.08695(18)
H9B H -0.8276 1.2039 0.0927
C12B C -0.5630(3) 1.22326(11) 0.16167(16)
H10B H -0.5930 1.2338 0.2174
C13B C -0.1138(3) 1.34697(9) 0.30291(13)
C14B C 0.0205(3) 1.32183(10) 0.25806(13)
C15B C 0.1807(3) 1.35432(10) 0.25733(15)
H11B H 0.2660 1.3376 0.2258
C16B C 0.2153(3) 1.41445(11) 0.30582(15)
C17B C 0.0801(3) 1.44011(10) 0.35082(15)
C18B C -0.0882(3) 1.40479(10) 0.34818(14)
H12B H -0.1783 1.4211 0.3769
C19B C 0.1205(4) 1.49949(11) 0.40001(16)
H13B H 0.0316 1.5181 0.4276
C20B C 0.2900(5) 1.52990(13) 0.40740(19)
H14B H 0.3162 1.5682 0.4416
C21B C 0.4225(4) 1.50417(14) 0.3645(2)
H15B H 0.5370 1.5252 0.3704
C22B C 0.3861(3) 1.44850(12) 0.31407(17)
H16B H 0.4750 1.4324 0.2843
B1B B -0.2165(3) 1.24757(11) 0.24307(17)
C23 C 0.6885(4) 0.95897(15) 0.68000(19)
H17 H 0.7310 0.9894 0.7268
C24 C 0.5931(3) 0.98073(12) 0.59052(17)
C25 C 0.5323(3) 0.93283(12) 0.51975(18)
C26 C 0.5683(4) 0.86619(12) 0.5427(2)
H18 H 0.5295 0.8346 0.4972
C27 C 0.6569(4) 0.84761(14) 0.6285(2)
H19 H 0.6777 0.8035 0.6420
C28 C 0.7185(4) 0.89453(15) 0.6982(2)
H20 H 0.7806 0.8812 0.7574
C29 C 0.4416(3) 0.95354(12) 0.43172(18)
H21 H 0.4021 0.9224 0.3856
C23B C 0.3115(4) 1.04103(15) 0.32000(19)
H17B H 0.2690 1.0106 0.2732
C24B C 0.4069(3) 1.01927(12) 0.40948(17)
C25B C 0.4677(3) 1.06717(12) 0.48025(18)
C26B C 0.4317(4) 1.13381(12) 0.4573(2)
H18B H 0.4705 1.1654 0.5028
C27B C 0.3431(4) 1.15239(14) 0.3715(2)
H19B H 0.3223 1.1965 0.3580
C28B C 0.2815(4) 1.10547(15) 0.3018(2)
H20B H 0.2194 1.1188 0.2426
C29B C 0.5584(3) 1.04646(12) 0.56828(18)
H21B H 0.5979 1.0776 0.6144
loop_
_geom_bond_atom_site_label_1
_geom_bond_atom_site_label_2
_geom_bond_site_symmetry_1
_geom_bond_site_symmetry_2
O1 C13 1_555 1_555
O2 C14 1_555 1_555
N1 C1 1_555 1_555
C1 H1 1_555 1_555
C2 C1 1_555 1_555
H2 C2 1_555 1_555
C3 C2 1_555 1_555
C4 C3 1_555 1_555
H3 C4 1_555 1_555
C5 N1 1_555 1_555
H4 C5 1_555 1_555
C6 C3 1_555 1_555
H5 C6 1_555 1_555
C7 C8 1_555 1_555
C8 H6 1_555 1_555
C9 C8 1_555 1_555
H7 C9 1_555 1_555
C10 C9 1_555 1_555
H8 C10 1_555 1_555
C11 C10 1_555 1_555
H9 C11 1_555 1_555
C12 C7 1_555 1_555
H10 C12 1_555 1_555
C13 C14 1_555 1_555
C14 C15 1_555 1_555
C15 H11 1_555 1_555
C16 C15 1_555 1_555
C17 C16 1_555 1_555
C18 C13 1_555 1_555
H12 C18 1_555 1_555
C19 C17 1_555 1_555
H13 C19 1_555 1_555
C20 C19 1_555 1_555
H14 C20 1_555 1_555
C21 C20 1_555 1_555
H15 C21 1_555 1_555
C22 C16 1_555 1_555
H16 C22 1_555 1_555
B1 O1 1_555 1_555
C23 H17 1_555 1_555
C24 C23 1_555 1_555
C25 C24 1_555 1_555
C26 C25 1_555 1_555
H18 C26 1_555 1_555
C27 C26 1_555 1_555
H19 C27 1_555 1_555
C28 C23 1_555 1_555
H20 C28 1_555 1_555
C29 C25 1_555 1_555
H21 C29 1_555 1_555
O1B C13B 1_555 1_555
O2B C14B 1_555 1_555
N1B C1B 1_555 1_555
C1B H1B 1_555 1_555
C2B C1B 1_555 1_555
H2B C2B 1_555 1_555
C3B C2B 1_555 1_555
C4B C3B 1_555 1_555
H3B C4B 1_555 1_555
C5B N1B 1_555 1_555
H4B C5B 1_555 1_555
C6B C6 1_555 1_555
H5B C6B 1_555 1_555
C7B C8B 1_555 1_555
C8B H6B 1_555 1_555
C9B C8B 1_555 1_555
H7B C9B 1_555 1_555
C10B C9B 1_555 1_555
H8B C10B 1_555 1_555
C11B C10B 1_555 1_555
H9B C11B 1_555 1_555
C12B C7B 1_555 1_555
H10B C12B 1_555 1_555
C13B C14B 1_555 1_555
C14B C15B 1_555 1_555
C15B H11B 1_555 1_555
C16B C15B 1_555 1_555
C17B C16B 1_555 1_555
C18B C13B 1_555 1_555
H12B C18B 1_555 1_555
C19B C17B 1_555 1_555
H13B C19B 1_555 1_555
C20B C19B 1_555 1_555
H14B C20B 1_555 1_555
C21B C20B 1_555 1_555
H15B C21B 1_555 1_555
C22B C16B 1_555 1_555
H16B C22B 1_555 1_555
B1B O1B 1_555 1_555
C23B H17B 1_555 1_555
C24B C29 1_555 1_555
C25B C24B 1_555 1_555
C26B C25B 1_555 1_555
H18B C26B 1_555 1_555
C27B C26B 1_555 1_555
H19B C27B 1_555 1_555
C28B C23B 1_555 1_555
H20B C28B 1_555 1_555
C29B C24 1_555 1_555
H21B C29B 1_555 1_555
O2 B1 1_555 1_555
N1 B1 1_555 1_555
C4 C5 1_555 1_555
C7 B1 1_555 1_555
C11 C12 1_555 1_555
C17 C18 1_555 1_555
C21 C22 1_555 1_555
C27 C28 1_555 1_555
O2B B1B 1_555 1_555
N1B B1B 1_555 1_555
C3B C6B 1_555 1_555
C4B C5B 1_555 1_555
C7B B1B 1_555 1_555
C11B C12B 1_555 1_555
C17B C18B 1_555 1_555
C21B C22B 1_555 1_555
C23B C24B 1_555 1_555
C25B C29B 1_555 1_555
C27B C28B 1_555 1_555

#END
