
#######################################################################
#
#                 Cambridge Crystallographic Data Centre
#                                CCDC 
#
#######################################################################
#
# If this CIF has been generated from an entry in the Cambridge 
# Structural Database, then it will include bibliographic, chemical, 
# crystal, experimental, refinement or atomic coordinate data resulting 
# from the CCDC's data processing and validation procedures.
#
#######################################################################

data_ODAWOG
_chemical_formula_moiety         'C10 H9 F2 N3'
_chemical_name_systematic        
4-Difluoromethyl-1-(4-methylphenyl)-1H-1,2,3-triazole
_chemical_properties_biological  'inhibitory against Mycobacterium tuberculosis'
_symmetry_cell_setting           monoclinic
_symmetry_space_group_name_H-M   'P 21/n'
_symmetry_Int_Tables_number      14
_space_group_name_Hall           '-P 2yn'
loop_
_symmetry_equiv_pos_site_id
_symmetry_equiv_pos_as_xyz
1 x,y,z
2 1/2-x,1/2+y,1/2-z
3 -x,-y,-z
4 1/2+x,1/2-y,1/2+z
_cell_length_a                   4.6055(6)
_cell_length_b                   9.4285(9)
_cell_length_c                   21.459(3)
_cell_angle_alpha                90
_cell_angle_beta                 92.136(5)
_cell_angle_gamma                90
_cell_volume                     931.166
_exptl_crystal_colour            colorless
_exptl_crystal_description       'cut blade'
_chemical_melting_point          '351-352 K'
_cell_formula_units_Z            4
_exptl_crystal_recrystallization_method 'aqueous ethanol'
loop_
_atom_site_label
_atom_site_type_symbol
_atom_site_fract_x
_atom_site_fract_y
_atom_site_fract_z
N1 N 0.3195(5) 0.8343(2) 0.31724(10)
N2 N 0.3710(5) 0.9715(2) 0.30179(11)
N3 N 0.5439(5) 0.9707(2) 0.25457(10)
C1 C 0.6035(5) 0.8331(3) 0.24014(12)
C2 C 0.7803(6) 0.7957(3) 0.18634(13)
H1 H 0.8804 0.7028 0.1939
F1 F 0.9784(3) 0.89866(16) 0.17542(8)
F2 F 0.6082(3) 0.78929(19) 0.13270(8)
C3 C 0.4641(5) 0.7459(3) 0.27948(12)
H2 H 0.4614 0.6481 0.2836
C4 C 0.1326(5) 0.8032(3) 0.36744(12)
C5 C 0.0059(6) 0.9134(3) 0.39883(13)
H3 H 0.0411 1.0089 0.3872
C6 C -0.1735(6) 0.8830(3) 0.44753(13)
H4 H -0.2600 0.9591 0.4692
C7 C -0.2305(5) 0.7448(3) 0.46568(13)
C8 C -0.4185(6) 0.7151(3) 0.51982(14)
H5 H -0.3959 0.6157 0.5324
H6 H -0.6221 0.7335 0.5076
H7 H -0.3601 0.7768 0.5549
C9 C -0.1033(6) 0.6371(3) 0.43229(13)
H8 H -0.1404 0.5414 0.4433
C10 C 0.0768(6) 0.6648(3) 0.38327(12)
H9 H 0.1605 0.5890 0.3609
loop_
_geom_bond_atom_site_label_1
_geom_bond_atom_site_label_2
_geom_bond_site_symmetry_1
_geom_bond_site_symmetry_2
N1 N2 1_555 1_555
N2 N3 1_555 1_555
N3 C1 1_555 1_555
C1 C2 1_555 1_555
C2 H1 1_555 1_555
F1 C2 1_555 1_555
F2 C2 1_555 1_555
C3 N1 1_555 1_555
H2 C3 1_555 1_555
C4 N1 1_555 1_555
C5 C4 1_555 1_555
H3 C5 1_555 1_555
C6 C5 1_555 1_555
H4 C6 1_555 1_555
C7 C6 1_555 1_555
C8 C7 1_555 1_555
H5 C8 1_555 1_555
H6 C8 1_555 1_555
H7 C8 1_555 1_555
C9 C7 1_555 1_555
H8 C9 1_555 1_555
C10 C4 1_555 1_555
H9 C10 1_555 1_555
C1 C3 1_555 1_555
C9 C10 1_555 1_555

#END
