
#######################################################################
#
#                 Cambridge Crystallographic Data Centre
#                                CCDC 
#
#######################################################################
#
# If this CIF has been generated from an entry in the Cambridge 
# Structural Database, then it will include bibliographic, chemical, 
# crystal, experimental, refinement or atomic coordinate data resulting 
# from the CCDC's data processing and validation procedures.
#
#######################################################################

data_ODEJUD01
_chemical_formula_moiety         'C5 H6 N1 1+,C7 H4 N1 O3 S1 1-'
_chemical_name_systematic        'pyridinium saccharinate'
_symmetry_cell_setting           triclinic
_symmetry_space_group_name_H-M   'P -1'
_symmetry_Int_Tables_number      2
_space_group_name_Hall           '-P 1'
loop_
_symmetry_equiv_pos_site_id
_symmetry_equiv_pos_as_xyz
1 x,y,z
2 -x,-y,-z
_cell_length_a                   7.4613(15)
_cell_length_b                   12.954(3)
_cell_length_c                   14.179(3)
_cell_angle_alpha                65.251(2)
_cell_angle_beta                 74.747(3)
_cell_angle_gamma                78.160(3)
_cell_volume                     1193.65
_exptl_crystal_colour            colorless
_exptl_crystal_description       block
_chemical_melting_point          '221 deg.C'
_cell_formula_units_Z            4
loop_
_atom_site_label
_atom_site_type_symbol
_atom_site_fract_x
_atom_site_fract_y
_atom_site_fract_z
S1 S 0.97899(9) 0.82389(5) 0.38904(5)
O1 O 0.7346(3) 1.08312(15) 0.42450(14)
O2 O 0.8732(3) 0.74387(15) 0.38794(15)
O3 O 1.1547(3) 0.77562(16) 0.42173(15)
N1 N 0.8539(3) 0.89654(18) 0.45633(16)
C1 C 0.9128(3) 1.1390(2) 0.19531(19)
H1 H 0.8493 1.2047 0.2049
C2 C 1.0109(3) 0.9390(2) 0.26424(18)
C3 C 0.9172(3) 1.0355(2) 0.27978(18)
C4 C 1.1029(4) 0.9410(2) 0.1654(2)
H2 H 1.1644 0.8751 0.1555
C5 C 1.0049(4) 1.1429(2) 0.0964(2)
H3 H 1.0034 1.2121 0.0383
C6 C 0.8273(3) 1.0076(2) 0.39377(19)
C7 C 1.0989(4) 1.0461(3) 0.0821(2)
H4 H 1.1616 1.0514 0.0144
N2 N 0.3935(3) -0.0125(2) 0.36791(18)
C8 C 0.3657(4) 0.0971(3) 0.3061(2)
H5 H 0.3007 0.1495 0.3356
C9 C 0.4870(4) -0.0890(2) 0.3293(2)
H6 H 0.5054 -0.1651 0.3747
C10 C 0.4318(4) 0.1329(3) 0.2000(2)
H7 H 0.4125 0.2097 0.1564
C11 C 0.5568(4) -0.0573(3) 0.2234(2)
H8 H 0.6233 -0.1110 0.1960
C12 C 0.5272(4) 0.0550(3) 0.1580(2)
H9 H 0.5719 0.0782 0.0853
H10 H 0.351(4) -0.033(3) 0.435(2)
S2 S 0.58129(10) 0.68322(6) 0.11864(5)
O4 O 0.7221(3) 0.42448(15) 0.06432(15)
O5 O 0.4174(3) 0.75475(16) 0.08425(15)
O6 O 0.7169(3) 0.73946(16) 0.12937(15)
C13 C 0.5139(3) 0.5667(2) 0.23714(18)
N3 N 0.6762(3) 0.61200(18) 0.04539(16)
C14 C 0.5240(3) 0.3651(2) 0.2910(2)
H11 H 0.5565 0.2996 0.2758
C15 C 0.5630(3) 0.4707(2) 0.21393(18)
C16 C 0.4274(4) 0.5623(2) 0.3373(2)
H12 H 0.3960 0.6277 0.3525
C17 C 0.4355(4) 0.3592(3) 0.3912(2)
H13 H 0.4063 0.2889 0.4443
C18 C 0.6600(3) 0.5001(2) 0.10045(19)
C19 C 0.3898(4) 0.4557(3) 0.4140(2)
H14 H 0.3321 0.4491 0.4826
N4 N 0.1177(3) 0.4992(2) 0.13791(19)
C20 C 0.0809(4) 0.5717(2) 0.1855(2)
H15 H 0.1142 0.6457 0.1478
C21 C -0.0060(4) 0.5389(3) 0.2900(2)
H16 H -0.0341 0.5903 0.3234
C22 C -0.0098(4) 0.3552(2) 0.2936(2)
H17 H -0.0392 0.2803 0.3299
C23 C 0.0740(4) 0.3927(2) 0.1892(2)
H18 H 0.1007 0.3434 0.1537
C24 C -0.0504(4) 0.4293(3) 0.3442(2)
H19 H -0.1081 0.4050 0.4155
H20 H 0.179(4) 0.527(3) 0.069(2)
loop_
_geom_bond_atom_site_label_1
_geom_bond_atom_site_label_2
_geom_bond_site_symmetry_1
_geom_bond_site_symmetry_2
S1 O2 1_555 1_555
O1 C6 1_555 1_555
O3 S1 1_555 1_555
N1 S1 1_555 1_555
C1 H1 1_555 1_555
C2 S1 1_555 1_555
C3 C1 1_555 1_555
C4 C2 1_555 1_555
H2 C4 1_555 1_555
C5 C1 1_555 1_555
H3 C5 1_555 1_555
C6 N1 1_555 1_555
C7 C4 1_555 1_555
H4 C7 1_555 1_555
N2 C8 1_555 1_555
C8 H5 1_555 1_555
C9 N2 1_555 1_555
H6 C9 1_555 1_555
C10 C8 1_555 1_555
H7 C10 1_555 1_555
C11 C9 1_555 1_555
H8 C11 1_555 1_555
C12 C10 1_555 1_555
H9 C12 1_555 1_555
H10 N2 1_555 1_555
S2 O5 1_555 1_555
O4 C18 1_555 1_555
O6 S2 1_555 1_555
C13 S2 1_555 1_555
N3 S2 1_555 1_555
C14 H11 1_555 1_555
C15 C13 1_555 1_555
C16 C13 1_555 1_555
H12 C16 1_555 1_555
C17 C14 1_555 1_555
H13 C17 1_555 1_555
C18 N3 1_555 1_555
C19 C16 1_555 1_555
H14 C19 1_555 1_555
N4 C20 1_555 1_555
C20 H15 1_555 1_555
C21 C20 1_555 1_555
H16 C21 1_555 1_555
C22 H17 1_555 1_555
C23 N4 1_555 1_555
H18 C23 1_555 1_555
C24 C21 1_555 1_555
H19 C24 1_555 1_555
H20 N4 1_555 1_555
C2 C3 1_555 1_555
C3 C6 1_555 1_555
C5 C7 1_555 1_555
C11 C12 1_555 1_555
C14 C15 1_555 1_555
C15 C18 1_555 1_555
C17 C19 1_555 1_555
C22 C23 1_555 1_555
C22 C24 1_555 1_555

#END
