
#######################################################################
#
#                 Cambridge Crystallographic Data Centre
#                                CCDC 
#
#######################################################################
#
# If this CIF has been generated from an entry in the Cambridge 
# Structural Database, then it will include bibliographic, chemical, 
# crystal, experimental, refinement or atomic coordinate data resulting 
# from the CCDC's data processing and validation procedures.
#
#######################################################################

data_ODEJUD02
_chemical_formula_moiety         'C7 H4 N1 O3 S1 1-,C5 H6 N1 1+'
_chemical_name_systematic        'Pyridinium saccharinate'
_symmetry_cell_setting           triclinic
_symmetry_space_group_name_H-M   'P -1'
_symmetry_Int_Tables_number      2
_space_group_name_Hall           '-P 1'
loop_
_symmetry_equiv_pos_site_id
_symmetry_equiv_pos_as_xyz
1 x,y,z
2 -x,-y,-z
_cell_length_a                   7.3166(3)
_cell_length_b                   12.8620(5)
_cell_length_c                   14.0641(5)
_cell_angle_alpha                65.294(4)
_cell_angle_beta                 75.009(3)
_cell_angle_gamma                78.375(3)
_cell_volume                     1154.85
_exptl_crystal_colour            colorless
_exptl_crystal_description       prism
_cell_formula_units_Z            4
loop_
_atom_site_label
_atom_site_type_symbol
_atom_site_fract_x
_atom_site_fract_y
_atom_site_fract_z
S1 S 0.98692(6) 0.32622(3) 0.38827(3)
O1 O 0.72993(18) 0.58552(10) 0.42603(10)
O2 O 0.87981(17) 0.24369(10) 0.38746(10)
O3 O 1.16738(17) 0.27908(10) 0.42047(10)
N1 N 0.8585(2) 0.39848(12) 0.45732(12)
C1 C 0.8266(2) 0.50968(14) 0.39439(14)
C2 C 0.9044(2) 0.64365(14) 0.19390(14)
C3 C 0.9973(3) 0.64848(15) 0.09298(15)
C4 C 1.0966(3) 0.55056(16) 0.07774(15)
C5 C 1.1065(2) 0.44492(15) 0.16278(14)
C6 C 1.0146(2) 0.44214(14) 0.26271(14)
C7 C 0.9156(2) 0.53885(14) 0.27920(14)
H1 H 0.835(2) 0.7127(15) 0.2037(14)
H2 H 0.987(3) 0.7153(17) 0.0349(16)
H3 H 1.159(3) 0.5602(18) 0.0038(18)
H4 H 1.174(3) 0.3795(17) 0.1538(16)
S2 S 0.59124(6) 0.18174(3) 0.12240(3)
O4 O 0.71509(18) -0.07686(10) 0.06246(10)
O5 O 0.73530(18) 0.23469(10) 0.13403(10)
O6 O 0.42602(18) 0.25791(10) 0.08862(10)
N2 N 0.6816(2) 0.11069(12) 0.04648(12)
C8 C 0.6582(2) -0.00123(14) 0.10068(14)
C9 C 0.5152(2) -0.13838(14) 0.29156(14)
C10 C 0.4285(3) -0.14574(15) 0.39403(15)
C11 C 0.3896(3) -0.04876(16) 0.41926(15)
C12 C 0.4341(3) 0.05857(15) 0.34275(15)
C13 C 0.5191(2) 0.06390(14) 0.24111(14)
C14 C 0.5602(2) -0.03191(14) 0.21504(14)
H5 H 0.543(3) -0.2071(16) 0.2747(15)
H6 H 0.390(3) -0.2178(19) 0.4460(17)
H7 H 0.324(3) -0.0568(19) 0.4936(19)
H8 H 0.410(3) 0.1237(18) 0.3569(16)
N3 N 0.3961(2) 0.48706(12) 0.36646(12)
C15 C 0.4976(2) 0.41010(15) 0.32734(15)
C16 C 0.5671(3) 0.44219(15) 0.21987(15)
C17 C 0.5297(3) 0.55553(16) 0.15261(15)
C18 C 0.4253(3) 0.63425(15) 0.19508(15)
C19 C 0.3594(3) 0.59783(15) 0.30318(15)
H9 H 0.347(3) 0.4609(19) 0.4425(19)
H10 H 0.517(3) 0.3343(17) 0.3784(15)
H11 H 0.637(3) 0.3867(18) 0.1962(16)
H12 H 0.576(3) 0.5787(17) 0.0768(17)
H13 H 0.398(3) 0.7132(17) 0.1497(16)
H14 H 0.282(3) 0.6415(18) 0.3407(17)
N4 N 1.1213(2) -0.00296(12) 0.13994(13)
C20 C 1.0894(2) 0.06928(15) 0.18976(15)
C21 C 1.0006(3) 0.03537(15) 0.29527(15)
C22 C 0.9461(3) -0.07475(15) 0.34904(15)
C23 C 0.9803(3) -0.14871(15) 0.29564(15)
C24 C 1.0683(2) -0.11019(15) 0.19028(15)
H15 H 1.183(3) 0.0273(19) 0.0632(19)
H16 H 1.133(3) 0.1444(18) 0.1466(16)
H17 H 0.980(3) 0.0869(17) 0.3289(16)
H18 H 0.881(3) -0.1015(18) 0.4247(17)
H19 H 0.942(3) -0.2238(18) 0.3309(16)
H20 H 1.097(3) -0.1522(16) 0.1481(15)
loop_
_geom_bond_atom_site_label_1
_geom_bond_atom_site_label_2
_geom_bond_site_symmetry_1
_geom_bond_site_symmetry_2
S1 O2 1_555 1_555
O1 C1 1_555 1_555
O3 S1 1_555 1_555
N1 S1 1_555 1_555
C1 N1 1_555 1_555
C2 C3 1_555 1_555
C3 C4 1_555 1_555
C4 C5 1_555 1_555
C5 C6 1_555 1_555
C6 S1 1_555 1_555
C7 C1 1_555 1_555
H1 C2 1_555 1_555
H2 C3 1_555 1_555
H3 C4 1_555 1_555
H4 C5 1_555 1_555
S2 O5 1_555 1_555
O4 C8 1_555 1_555
O6 S2 1_555 1_555
N2 S2 1_555 1_555
C8 N2 1_555 1_555
C9 C10 1_555 1_555
C10 C11 1_555 1_555
C11 C12 1_555 1_555
C12 C13 1_555 1_555
C13 S2 1_555 1_555
C14 C8 1_555 1_555
H5 C9 1_555 1_555
H6 C10 1_555 1_555
H7 C11 1_555 1_555
H8 C12 1_555 1_555
N3 C15 1_555 1_555
C15 C16 1_555 1_555
C16 C17 1_555 1_555
C17 C18 1_555 1_555
C18 C19 1_555 1_555
C19 N3 1_555 1_555
H9 N3 1_555 1_555
H10 C15 1_555 1_555
H11 C16 1_555 1_555
H12 C17 1_555 1_555
H13 C18 1_555 1_555
H14 C19 1_555 1_555
N4 C20 1_555 1_555
C20 C21 1_555 1_555
C21 C22 1_555 1_555
C22 C23 1_555 1_555
C23 C24 1_555 1_555
C24 N4 1_555 1_555
H15 N4 1_555 1_555
H16 C20 1_555 1_555
H17 C21 1_555 1_555
H18 C22 1_555 1_555
H19 C23 1_555 1_555
H20 C24 1_555 1_555
C2 C7 1_555 1_555
C6 C7 1_555 1_555
C9 C14 1_555 1_555
C13 C14 1_555 1_555

#END
