
#######################################################################
#
#                 Cambridge Crystallographic Data Centre
#                                CCDC 
#
#######################################################################
#
# If this CIF has been generated from an entry in the Cambridge 
# Structural Database, then it will include bibliographic, chemical, 
# crystal, experimental, refinement or atomic coordinate data resulting 
# from the CCDC's data processing and validation procedures.
#
#######################################################################

data_ODEPAP
_chemical_formula_moiety         'C15 H22 O5'
_chemical_name_systematic        
'Di-isopropyl 3-methyl-5-oxocyclohex-3-ene-1,1-dicarboxylate'
_symmetry_cell_setting           monoclinic
_symmetry_space_group_name_H-M   'P 21/n'
_symmetry_Int_Tables_number      14
_space_group_name_Hall           '-P 2yn'
loop_
_symmetry_equiv_pos_site_id
_symmetry_equiv_pos_as_xyz
1 x,y,z
2 1/2-x,1/2+y,1/2-z
3 -x,-y,-z
4 1/2+x,1/2-y,1/2+z
_cell_length_a                   12.302(3)
_cell_length_b                   8.909(3)
_cell_length_c                   14.409(6)
_cell_angle_alpha                90
_cell_angle_beta                 96.859(14)
_cell_angle_gamma                90
_cell_volume                     1567.9
_exptl_crystal_colour            colorless
_exptl_crystal_description       block
_cell_formula_units_Z            4
_exptl_crystal_recrystallization_method 'diethyl ether/hexane'
loop_
_atom_site_label
_atom_site_type_symbol
_atom_site_fract_x
_atom_site_fract_y
_atom_site_fract_z
O1 O 0.81333(10) 0.99331(12) 0.68321(9)
O2 O 0.84308(6) 0.45934(11) 0.57521(8)
O3 O 0.67627(8) 0.37808(11) 0.59798(9)
O4 O 0.67440(8) 0.60283(11) 0.41615(6)
O5 O 0.76178(9) 0.81440(12) 0.46250(8)
C1 C 0.70689(10) 0.64352(13) 0.57863(9)
C2 C 0.78210(11) 0.73547(14) 0.64992(10)
C3 C 0.74691(12) 0.89631(16) 0.65636(10)
C4 C 0.63088(12) 0.92857(17) 0.63461(11)
C5 C 0.55626(11) 0.82376(16) 0.60862(10)
C6 C 0.58809(10) 0.66294(13) 0.59738(10)
C7 C 0.73776(10) 0.47728(14) 0.58521(9)
C8 C 0.88911(12) 0.30794(17) 0.58361(12)
C9 C 1.00390(16) 0.3266(2) 0.62810(16)
C10 C 0.88125(19) 0.2399(2) 0.48880(17)
C11 C 0.71947(10) 0.69858(14) 0.48006(9)
C12 C 0.67282(12) 0.64383(17) 0.31749(10)
C13 C 0.69216(19) 0.5012(2) 0.26693(13)
C14 C 0.56709(14) 0.7170(2) 0.28566(12)
C15 C 0.43618(12) 0.8564(2) 0.58951(13)
H1 H 0.6076 1.0273 0.6391
H2 H 0.8479 0.2470 0.6240
H3 H 0.7326 0.7142 0.3109
H4 H 0.8556 0.7336 0.6318
H5 H 0.7824 0.6894 0.7109
H6 H 0.5408 0.6203 0.5454
H7 H 0.5778 0.6093 0.6543
H8 H 1.0468 0.3727 0.5845
H9 H 1.0342 0.2301 0.6460
H10 H 1.0047 0.3890 0.6825
H11 H 0.8065 0.2419 0.4607
H12 H 0.9257 0.2960 0.4508
H13 H 0.9065 0.1379 0.4937
H14 H 0.6329 0.4329 0.2722
H15 H 0.6964 0.5227 0.2022
H16 H 0.7596 0.4565 0.2940
H17 H 0.5603 0.8071 0.3211
H18 H 0.5082 0.6499 0.2946
H19 H 0.5641 0.7417 0.2206
H20 H 0.4104 0.8301 0.5261
H21 H 0.3974 0.7987 0.6312
H22 H 0.4237 0.9614 0.5990
loop_
_geom_bond_atom_site_label_1
_geom_bond_atom_site_label_2
_geom_bond_site_symmetry_1
_geom_bond_site_symmetry_2
O1 C3 1_555 1_555
O2 C7 1_555 1_555
O3 C7 1_555 1_555
O4 C11 1_555 1_555
O5 C11 1_555 1_555
C1 C2 1_555 1_555
C2 C3 1_555 1_555
C3 C4 1_555 1_555
C4 C5 1_555 1_555
C5 C6 1_555 1_555
C6 C1 1_555 1_555
C7 C1 1_555 1_555
C8 O2 1_555 1_555
C9 C8 1_555 1_555
C10 C8 1_555 1_555
C11 C1 1_555 1_555
C12 O4 1_555 1_555
C13 C12 1_555 1_555
C14 C12 1_555 1_555
C15 C5 1_555 1_555
H1 C4 1_555 1_555
H2 C8 1_555 1_555
H3 C12 1_555 1_555
H4 C2 1_555 1_555
H5 C2 1_555 1_555
H6 C6 1_555 1_555
H7 C6 1_555 1_555
H8 C9 1_555 1_555
H9 C9 1_555 1_555
H10 C9 1_555 1_555
H11 C10 1_555 1_555
H12 C10 1_555 1_555
H13 C10 1_555 1_555
H14 C13 1_555 1_555
H15 C13 1_555 1_555
H16 C13 1_555 1_555
H17 C14 1_555 1_555
H18 C14 1_555 1_555
H19 C14 1_555 1_555
H20 C15 1_555 1_555
H21 C15 1_555 1_555
H22 C15 1_555 1_555

#END
