
#######################################################################
#
#                 Cambridge Crystallographic Data Centre
#                                CCDC 
#
#######################################################################
#
# If this CIF has been generated from an entry in the Cambridge 
# Structural Database, then it will include bibliographic, chemical, 
# crystal, experimental, refinement or atomic coordinate data resulting 
# from the CCDC's data processing and validation procedures.
#
#######################################################################

data_ODOGEV
_chemical_formula_moiety         'C33 H31 O4 P1'
_chemical_name_systematic        
'5-Ethyl 1-methyl 2-methylene-3-phenyl-4-(triphenylphosphoranylidene)pentanedioate'
_symmetry_cell_setting           orthorhombic
_symmetry_space_group_name_H-M   'P 21 21 21'
_symmetry_Int_Tables_number      19
_space_group_name_Hall           'P 2ac 2ab'
loop_
_symmetry_equiv_pos_site_id
_symmetry_equiv_pos_as_xyz
1 x,y,z
2 1/2-x,-y,1/2+z
3 -x,1/2+y,1/2-z
4 1/2+x,1/2-y,-z
_cell_length_a                   9.739(3)
_cell_length_b                   9.905(3)
_cell_length_c                   28.557(7)
_cell_angle_alpha                90
_cell_angle_beta                 90
_cell_angle_gamma                90
_cell_volume                     2754.75
_cell_formula_units_Z            4
loop_
_atom_site_label
_atom_site_type_symbol
_atom_site_fract_x
_atom_site_fract_y
_atom_site_fract_z
C1 C 1.1386(3) 0.5442(3) 0.92465(10)
C2 C 1.2625(4) 0.4934(4) 0.93957(14)
H1 H 1.2974 0.4148 0.9263
C3 C 1.3347(5) 0.5589(5) 0.97409(18)
H2 H 1.4173 0.5230 0.9848
C4 C 1.2858(5) 0.6771(5) 0.99294(16)
H3 H 1.3349 0.7208 1.0164
C5 C 1.1645(4) 0.7305(4) 0.97723(15)
H4 H 1.1310 0.8104 0.9900
C6 C 1.0927(4) 0.6657(4) 0.94265(13)
H5 H 1.0122 0.7038 0.9311
C7 C 1.0935(3) 0.2877(3) 0.87750(11)
C8 C 1.2103(4) 0.2577(4) 0.85207(14)
H6 H 1.2605 0.3261 0.8378
C9 C 1.2519(5) 0.1242(4) 0.84814(16)
H7 H 1.3286 0.1030 0.8302
C10 C 1.1820(5) 0.0244(4) 0.87015(17)
H8 H 1.2124 -0.0644 0.8679
C11 C 1.0685(5) 0.0535(4) 0.89528(17)
H9 H 1.0208 -0.0155 0.9102
C12 C 1.0226(4) 0.1849(3) 0.89903(12)
H10 H 0.9437 0.2040 0.9161
C13 C 1.0790(3) 0.5302(3) 0.82533(11)
C14 C 1.1549(4) 0.6466(4) 0.82102(14)
H11 H 1.1878 0.6904 0.8476
C15 C 1.1824(6) 0.6985(5) 0.77675(19)
H12 H 1.2342 0.7769 0.7739
C16 C 1.1348(5) 0.6367(5) 0.73754(16)
H13 H 1.1523 0.6737 0.7082
C17 C 1.0628(5) 0.5227(5) 0.74125(14)
H14 H 1.0316 0.4798 0.7143
C18 C 1.0341(4) 0.4673(4) 0.78463(11)
H15 H 0.9843 0.3874 0.7866
C19 C 0.8622(3) 0.4845(3) 0.89090(10)
C20 C 0.8104(3) 0.4619(3) 0.93658(10)
C21 C 0.8754(4) 0.3868(5) 1.01295(12)
H16 H 0.7908 0.3356 1.0154
H17 H 0.8629 0.4725 1.0289
C22 C 0.9895(5) 0.3114(5) 1.03417(14)
H18 H 1.0021 0.2278 1.0177
H19 H 0.9689 0.2931 1.0664
H20 H 1.0721 0.3640 1.0322
C23 C 0.7662(3) 0.5314(3) 0.85281(10)
H21 H 0.8246 0.5517 0.8258
C24 C 0.6943(3) 0.6624(3) 0.86477(10)
C25 C 0.5602(4) 0.6675(4) 0.88029(13)
H22 H 0.5095 0.5885 0.8835
C26 C 0.5017(5) 0.7911(5) 0.89101(14)
H23 H 0.4114 0.7947 0.9015
C27 C 0.5756(6) 0.9084(4) 0.88635(15)
H24 H 0.5359 0.9911 0.8938
C28 C 0.7079(5) 0.9026(4) 0.87064(17)
H25 H 0.7583 0.9815 0.8668
C29 C 0.7655(4) 0.7811(3) 0.86071(13)
H26 H 0.8565 0.7783 0.8508
C30 C 0.6653(3) 0.4218(3) 0.83610(12)
C31 C 0.6464(4) 0.3058(4) 0.85687(14)
H27 H 0.5899 0.2410 0.8432
H28 H 0.6892 0.2879 0.8853
C32 C 0.5972(4) 0.4485(4) 0.79138(12)
C33 C 0.4249(5) 0.3832(6) 0.73938(16)
H29 H 0.4069 0.4764 0.7326
H30 H 0.3400 0.3340 0.7397
H31 H 0.4843 0.3464 0.7158
O1 O 0.6961(2) 0.4827(3) 0.95149(8)
O2 O 0.9090(2) 0.4086(2) 0.96545(8)
O3 O 0.6372(3) 0.5279(4) 0.76351(10)
O4 O 0.4891(3) 0.3723(3) 0.78371(9)
P1 P 1.03333(8) 0.46109(7) 0.88119(3)
loop_
_geom_bond_atom_site_label_1
_geom_bond_atom_site_label_2
_geom_bond_site_symmetry_1
_geom_bond_site_symmetry_2
C1 C2 1_555 1_555
C2 H1 1_555 1_555
C3 C2 1_555 1_555
H2 C3 1_555 1_555
C4 C3 1_555 1_555
H3 C4 1_555 1_555
C5 C4 1_555 1_555
H4 C5 1_555 1_555
C6 C1 1_555 1_555
H5 C6 1_555 1_555
C7 C8 1_555 1_555
C8 H6 1_555 1_555
C9 C8 1_555 1_555
H7 C9 1_555 1_555
C10 C9 1_555 1_555
H8 C10 1_555 1_555
C11 C10 1_555 1_555
H9 C11 1_555 1_555
C12 C7 1_555 1_555
H10 C12 1_555 1_555
C13 C14 1_555 1_555
C14 H11 1_555 1_555
C15 C14 1_555 1_555
H12 C15 1_555 1_555
C16 C15 1_555 1_555
H13 C16 1_555 1_555
C17 C16 1_555 1_555
H14 C17 1_555 1_555
C18 C13 1_555 1_555
H15 C18 1_555 1_555
C19 C20 1_555 1_555
C20 O1 1_555 1_555
C21 H16 1_555 1_555
H17 C21 1_555 1_555
C22 C21 1_555 1_555
H18 C22 1_555 1_555
H19 C22 1_555 1_555
H20 C22 1_555 1_555
C23 C19 1_555 1_555
H21 C23 1_555 1_555
C24 C23 1_555 1_555
C25 C24 1_555 1_555
H22 C25 1_555 1_555
C26 C25 1_555 1_555
H23 C26 1_555 1_555
C27 C26 1_555 1_555
H24 C27 1_555 1_555
C28 C27 1_555 1_555
H25 C28 1_555 1_555
C29 C24 1_555 1_555
H26 C29 1_555 1_555
C30 C23 1_555 1_555
C31 C30 1_555 1_555
H27 C31 1_555 1_555
H28 C31 1_555 1_555
C32 C30 1_555 1_555
C33 H29 1_555 1_555
H30 C33 1_555 1_555
H31 C33 1_555 1_555
O2 C20 1_555 1_555
O3 C32 1_555 1_555
O4 C32 1_555 1_555
P1 C1 1_555 1_555
C5 C6 1_555 1_555
C7 P1 1_555 1_555
C11 C12 1_555 1_555
C13 P1 1_555 1_555
C17 C18 1_555 1_555
C19 P1 1_555 1_555
C21 O2 1_555 1_555
C28 C29 1_555 1_555
C33 O4 1_555 1_555

#END
