
#######################################################################
#
#                 Cambridge Crystallographic Data Centre
#                                CCDC 
#
#######################################################################
#
# If this CIF has been generated from an entry in the Cambridge 
# Structural Database, then it will include bibliographic, chemical, 
# crystal, experimental, refinement or atomic coordinate data resulting 
# from the CCDC's data processing and validation procedures.
#
#######################################################################

data_ODOKOJ
_chemical_formula_moiety         'C23 H17 N4 O1 1+,C1 H4 O1,N1 O3 1-'
_chemical_name_systematic        
'6-(8-Hydroxyquinolin-2-yl)-5,6-dihydrobenzimidazo[1,2-c]quinazolin-12-ium nitrate methanol solvate'
_symmetry_cell_setting           monoclinic
_symmetry_space_group_name_H-M   'P 21/c'
_symmetry_Int_Tables_number      14
_space_group_name_Hall           '-P 2ybc'
loop_
_symmetry_equiv_pos_site_id
_symmetry_equiv_pos_as_xyz
1 x,y,z
2 -x,1/2+y,1/2-z
3 -x,-y,-z
4 x,1/2-y,1/2+z
_cell_length_a                   12.4864(7)
_cell_length_b                   17.5092(11)
_cell_length_c                   10.6207(5)
_cell_angle_alpha                90
_cell_angle_beta                 108.458(2)
_cell_angle_gamma                90
_cell_volume                     2202.52
_cell_formula_units_Z            4
loop_
_atom_site_label
_atom_site_type_symbol
_atom_site_fract_x
_atom_site_fract_y
_atom_site_fract_z
C1 C 0.0795(2) 0.33797(17) 0.8754(3)
C2 C 0.0092(3) 0.2840(2) 0.7998(3)
H1 H -0.04 0.297 0.7168
C3 C 0.0106(3) 0.2092(2) 0.8463(3)
H2 H -0.0381 0.1732 0.7937
C4 C 0.0819(3) 0.18827(18) 0.9670(3)
H3 H 0.082 0.1382 0.9963
C5 C 0.1554(2) 0.24253(16) 1.0472(3)
C6 C 0.1541(2) 0.31858(15) 1.0012(2)
C7 C 0.2321(2) 0.22680(17) 1.1743(3)
H4 H 0.2355 0.178 1.2099
C8 C 0.3005(2) 0.28232(16) 1.2445(3)
H5 H 0.3518 0.2718 1.3276
C9 C 0.2932(2) 0.35638(15) 1.1906(2)
C10 C 0.3711(2) 0.42046(16) 1.2602(2)
H6 H 0.3443 0.4681 1.212
C11 C 0.5593(2) 0.36416(16) 1.3650(3)
C12 C 0.6524(3) 0.32899(17) 1.3470(3)
H7 H 0.6665 0.3345 1.2666
C13 C 0.7234(3) 0.28653(19) 1.4449(3)
H8 H 0.7844 0.2623 1.4296
C14 C 0.7068(3) 0.27845(19) 1.5687(3)
H9 H 0.7561 0.2493 1.6354
C15 C 0.6161(2) 0.31462(18) 1.5896(3)
H10 H 0.6036 0.3104 1.6712
C16 C 0.5430(2) 0.35769(16) 1.4880(3)
C17 C 0.4476(2) 0.39889(15) 1.5027(2)
C18 C 0.3201(2) 0.45487(15) 1.5772(3)
C19 C 0.2579(2) 0.48323(17) 1.6523(3)
H11 H 0.2805 0.4767 1.7439
C20 C 0.1615(3) 0.52144(17) 1.5862(3)
H12 H 0.1173 0.5412 1.6344
C21 C 0.1267(3) 0.53201(17) 1.4498(3)
H13 H 0.0601 0.5585 1.4094
C22 C 0.1887(2) 0.50399(17) 1.3723(3)
H14 H 0.1659 0.5107 1.2807
C23 C 0.2875(2) 0.46507(15) 1.4406(3)
N1 N 0.22263(17) 0.37475(12) 1.07386(19)
N2 N 0.37029(18) 0.42994(13) 1.3980(2)
N3 N 0.4869(2) 0.40936(15) 1.2674(2)
H15 H 0.501(2) 0.4107(17) 1.189(2)
N4 N 0.42018(19) 0.41280(14) 1.6116(2)
H16 H 0.469(2) 0.4032(16) 1.692(2)
O1 O 0.07707(19) 0.40964(13) 0.8266(2)
H17 H 0.120(3) 0.4402(17) 0.875(3)
C24 C 0.1191(4) 0.5872(3) 0.9882(4)
H18 H 0.1721 0.5984 1.0738
H19 H 0.0607 0.5545 0.9986
H20 H 0.0863 0.6339 0.946
O2 O 0.1739(2) 0.55114(18) 0.9113(3)
H21 H 0.2437(18) 0.558(3) 0.945(4)
N5 N 0.5390(2) 0.40054(15) 0.9456(3)
O3 O 0.4413(2) 0.3791(2) 0.9190(3)
O4 O 0.5943(2) 0.41766(16) 1.0597(2)
O5 O 0.5843(2) 0.40559(15) 0.8575(2)
loop_
_geom_bond_atom_site_label_1
_geom_bond_atom_site_label_2
_geom_bond_site_symmetry_1
_geom_bond_site_symmetry_2
C1 C2 1_555 1_555
C2 H1 1_555 1_555
C3 C2 1_555 1_555
H2 C3 1_555 1_555
C4 C3 1_555 1_555
H3 C4 1_555 1_555
C5 C4 1_555 1_555
C6 C1 1_555 1_555
C7 C5 1_555 1_555
H4 C7 1_555 1_555
C8 C7 1_555 1_555
H5 C8 1_555 1_555
C9 C8 1_555 1_555
C10 C9 1_555 1_555
H6 C10 1_555 1_555
C11 C12 1_555 1_555
C12 H7 1_555 1_555
C13 C12 1_555 1_555
H8 C13 1_555 1_555
C14 C13 1_555 1_555
H9 C14 1_555 1_555
C15 C14 1_555 1_555
H10 C15 1_555 1_555
C16 C11 1_555 1_555
C17 C16 1_555 1_555
C18 C19 1_555 1_555
C19 H11 1_555 1_555
C20 C19 1_555 1_555
H12 C20 1_555 1_555
C21 C20 1_555 1_555
H13 C21 1_555 1_555
C22 C21 1_555 1_555
H14 C22 1_555 1_555
C23 C18 1_555 1_555
N1 C6 1_555 1_555
N2 C10 1_555 1_555
N3 C10 1_555 1_555
H15 N3 1_555 1_555
N4 C17 1_555 1_555
H16 N4 1_555 1_555
O1 C1 1_555 1_555
H17 O1 1_555 1_555
C24 H18 1_555 1_555
H19 C24 1_555 1_555
H20 C24 1_555 1_555
O2 C24 1_555 1_555
H21 O2 1_555 1_555
N5 O3 1_555 1_555
O4 N5 1_555 1_555
O5 N5 1_555 1_555
C5 C6 1_555 1_555
C9 N1 1_555 1_555
C11 N3 1_555 1_555
C15 C16 1_555 1_555
C17 N2 1_555 1_555
C18 N4 1_555 1_555
C22 C23 1_555 1_555
C23 N2 1_555 1_555

#END
