
#######################################################################
#
#                 Cambridge Crystallographic Data Centre
#                                CCDC 
#
#######################################################################
#
# If this CIF has been generated from an entry in the Cambridge 
# Structural Database, then it will include bibliographic, chemical, 
# crystal, experimental, refinement or atomic coordinate data resulting 
# from the CCDC's data processing and validation procedures.
#
#######################################################################

data_ODOPED
_chemical_formula_moiety         'C17 H13 Cl1 O3'
_chemical_name_systematic        
'Methyl 3-phenyl-2-chloroindan-1-one-2-carboxylate'
_symmetry_cell_setting           monoclinic
_symmetry_space_group_name_H-M   'P 21/c'
_symmetry_Int_Tables_number      14
_space_group_name_Hall           '-P 2ybc'
loop_
_symmetry_equiv_pos_site_id
_symmetry_equiv_pos_as_xyz
1 x,y,z
2 -x,1/2+y,1/2-z
3 -x,-y,-z
4 x,1/2-y,1/2+z
_cell_length_a                   16.228(4)
_cell_length_b                   8.599(2)
_cell_length_c                   10.594(3)
_cell_angle_alpha                90
_cell_angle_beta                 98.122(5)
_cell_angle_gamma                90
_cell_volume                     1463.51
_exptl_crystal_colour            colorless
_exptl_crystal_description       prism
_chemical_melting_point          132-134deg.C
_cell_formula_units_Z            4
loop_
_atom_site_label
_atom_site_type_symbol
_atom_site_fract_x
_atom_site_fract_y
_atom_site_fract_z
Cl1 Cl 0.16511(3) 1.21663(7) 0.18877(6)
O1 O 0.08171(8) 1.14031(17) -0.08646(15)
O2 O 0.31301(10) 1.23968(19) 0.06181(17)
O3 O 0.28240(8) 1.03888(17) -0.07074(14)
C1 C 0.19468(12) 1.0727(2) 0.08289(18)
C2 C 0.21110(11) 0.9137(2) 0.15320(19)
H1 H 0.1803 0.9170 0.2263
C3 C 0.30110(12) 0.8832(2) 0.2070(2)
C4 C 0.33134(13) 0.9429(3) 0.3261(2)
H2 H 0.2956 0.9963 0.3720
C5 C 0.41383(16) 0.9243(3) 0.3776(2)
H3 H 0.4335 0.9664 0.4570
C6 C 0.46662(15) 0.8438(3) 0.3114(3)
H4 H 0.5220 0.8302 0.3463
C7 C 0.43799(14) 0.7836(3) 0.1945(3)
H5 H 0.4742 0.7294 0.1497
C8 C 0.35524(13) 0.8023(3) 0.1414(2)
H6 H 0.3363 0.7604 0.0616
C9 C 0.16612(11) 0.7976(2) 0.06038(19)
C10 C 0.16549(13) 0.6365(3) 0.0679(2)
H7 H 0.1999 0.5851 0.1324
C11 C 0.11286(13) 0.5537(3) -0.0221(2)
H8 H 0.1117 0.4457 -0.0171
C12 C 0.06173(13) 0.6284(3) -0.1195(2)
H9 H 0.0272 0.5702 -0.1792
C13 C 0.06183(12) 0.7871(3) -0.1283(2)
H10 H 0.0276 0.8377 -0.1934
C14 C 0.11427(12) 0.8711(2) -0.0378(2)
C15 C 0.12222(12) 1.0399(3) -0.0260(2)
C16 C 0.27073(13) 1.1312(3) 0.0261(2)
C17 C 0.35530(14) 1.0712(3) -0.1325(2)
H11 H 0.3488 1.1703 -0.1744
H12 H 0.3611 0.9916 -0.1942
H13 H 0.4041 1.0730 -0.0696
loop_
_geom_bond_atom_site_label_1
_geom_bond_atom_site_label_2
_geom_bond_site_symmetry_1
_geom_bond_site_symmetry_2
Cl1 C1 1_555 1_555
O1 C15 1_555 1_555
O2 C16 1_555 1_555
O3 C16 1_555 1_555
C1 C2 1_555 1_555
C2 H1 1_555 1_555
C3 C2 1_555 1_555
C4 C3 1_555 1_555
H2 C4 1_555 1_555
C5 C4 1_555 1_555
H3 C5 1_555 1_555
C6 C5 1_555 1_555
H4 C6 1_555 1_555
C7 C6 1_555 1_555
H5 C7 1_555 1_555
C8 C3 1_555 1_555
H6 C8 1_555 1_555
C9 C2 1_555 1_555
C10 C9 1_555 1_555
H7 C10 1_555 1_555
C11 C10 1_555 1_555
H8 C11 1_555 1_555
C12 C11 1_555 1_555
H9 C12 1_555 1_555
C13 C12 1_555 1_555
H10 C13 1_555 1_555
C14 C9 1_555 1_555
C15 C1 1_555 1_555
C16 C1 1_555 1_555
C17 O3 1_555 1_555
H11 C17 1_555 1_555
H12 C17 1_555 1_555
H13 C17 1_555 1_555
C7 C8 1_555 1_555
C13 C14 1_555 1_555
C14 C15 1_555 1_555

#END
