
#######################################################################
#
#                 Cambridge Crystallographic Data Centre
#                                CCDC 
#
#######################################################################
#
# If this CIF has been generated from an entry in the Cambridge 
# Structural Database, then it will include bibliographic, chemical, 
# crystal, experimental, refinement or atomic coordinate data resulting 
# from the CCDC's data processing and validation procedures.
#
#######################################################################

data_ODOVIP
_chemical_formula_moiety         'C17 H18 Br1 N1 O4'
_chemical_name_systematic        
'(2-methoxy-3-oxo-2-azabicyclo[3.3.1]non-7-en-6-yl)methyl 4-bromobenzoate'
_symmetry_cell_setting           monoclinic
_symmetry_space_group_name_H-M   'C 2/c'
_symmetry_Int_Tables_number      15
_space_group_name_Hall           '-C 2yn'
loop_
_symmetry_equiv_pos_site_id
_symmetry_equiv_pos_as_xyz
1 x,y,z
2 -x,y,1/2-z
3 1/2+x,1/2+y,z
4 1/2-x,1/2+y,1/2-z
5 -x,-y,-z
6 x,-y,1/2+z
7 1/2-x,1/2-y,-z
8 1/2+x,1/2-y,1/2+z
_cell_length_a                   28.995(5)
_cell_length_b                   5.9217(10)
_cell_length_c                   20.894(4)
_cell_angle_alpha                90
_cell_angle_beta                 116.472(3)
_cell_angle_gamma                90
_cell_volume                     3211.35
_exptl_crystal_colour            colorless
_exptl_crystal_description       prismatic
_cell_formula_units_Z            8
loop_
_atom_site_label
_atom_site_type_symbol
_atom_site_fract_x
_atom_site_fract_y
_atom_site_fract_z
Br1 Br 1.18324(2) 0.12412(8) 1.19403(2)
N1 N 0.83089(11) 0.1140(4) 0.60027(14)
O1 O 0.76767(10) 0.0181(6) 0.63005(16)
O2 O 0.82315(9) -0.0882(4) 0.56240(12)
O3 O 1.02859(9) 0.7645(4) 0.90515(13)
O4 O 0.98745(9) 0.4338(4) 0.87794(11)
C1 C 0.80274(13) 0.1412(6) 0.63697(17)
C2 C 0.81475(12) 0.3533(6) 0.68140(19)
H1 H 0.8110 0.3192 0.7243
H2 H 0.7887 0.4646 0.6547
C3 C 0.86733(12) 0.4629(5) 0.70444(16)
H3 H 0.8644 0.6230 0.7140
C4 C 0.88181(15) 0.4473(5) 0.64349(18)
H4 H 0.8565 0.5255 0.6018
H5 H 0.9152 0.5164 0.6570
C5 C 0.88349(13) 0.2017(5) 0.62696(17)
H6 H 0.8947 0.1873 0.5893
C6 C 0.92049(13) 0.0786(5) 0.69179(19)
H7 H 0.9360 -0.0525 0.6861
C7 C 0.93192(13) 0.1497(5) 0.75684(19)
H8 H 0.9553 0.0656 0.7952
C8 C 0.90969(12) 0.3570(5) 0.77265(17)
H9 H 0.8939 0.3133 0.8037
C9 C 0.95041(12) 0.5313(5) 0.81190(17)
H10 H 0.9672 0.5771 0.7829
H11 H 0.9348 0.6636 0.8216
C10 C 1.02540(13) 0.5713(6) 0.92003(17)
C11 C 1.06254(11) 0.4576(5) 0.98564(16)
C12 C 1.05323(13) 0.2470(6) 1.00624(17)
H12 H 1.0226 0.1721 0.9781
C13 C 1.08890(15) 0.1480(6) 1.0679(2)
H13 H 1.0824 0.0079 1.0823
C14 C 1.13450(13) 0.2595(6) 1.10832(17)
C15 C 1.14510(13) 0.4643(7) 1.08846(19)
H14 H 1.1764 0.5356 1.1157
C16 C 1.10888(13) 0.5637(6) 1.02758(19)
H15 H 1.1155 0.7050 1.0142
C17 C 0.78966(16) -0.0472(7) 0.48932(18)
H16 H 0.7572 0.0073 0.4849
H17 H 0.7844 -0.1849 0.4627
H18 H 0.8047 0.0638 0.4709
loop_
_geom_bond_atom_site_label_1
_geom_bond_atom_site_label_2
_geom_bond_site_symmetry_1
_geom_bond_site_symmetry_2
Br1 C14 1_555 1_555
N1 O2 1_555 1_555
O1 C1 1_555 1_555
O2 C17 1_555 1_555
O3 C10 1_555 1_555
O4 C9 1_555 1_555
C1 N1 1_555 1_555
C2 C1 1_555 1_555
H1 C2 1_555 1_555
H2 C2 1_555 1_555
C3 C2 1_555 1_555
H3 C3 1_555 1_555
C4 C3 1_555 1_555
H4 C4 1_555 1_555
H5 C4 1_555 1_555
C5 N1 1_555 1_555
H6 C5 1_555 1_555
C6 C5 1_555 1_555
H7 C6 1_555 1_555
C7 C6 1_555 1_555
H8 C7 1_555 1_555
C8 C3 1_555 1_555
H9 C8 1_555 1_555
C9 C8 1_555 1_555
H10 C9 1_555 1_555
H11 C9 1_555 1_555
C10 O4 1_555 1_555
C11 C10 1_555 1_555
C12 C11 1_555 1_555
H12 C12 1_555 1_555
C13 C12 1_555 1_555
H13 C13 1_555 1_555
C14 C13 1_555 1_555
C15 C14 1_555 1_555
H14 C15 1_555 1_555
C16 C11 1_555 1_555
H15 C16 1_555 1_555
C17 H16 1_555 1_555
H17 C17 1_555 1_555
H18 C17 1_555 1_555
C4 C5 1_555 1_555
C7 C8 1_555 1_555
C15 C16 1_555 1_555

#END
