
#######################################################################
#
#                 Cambridge Crystallographic Data Centre
#                                CCDC 
#
#######################################################################
#
# If this CIF has been generated from an entry in the Cambridge 
# Structural Database, then it will include bibliographic, chemical, 
# crystal, experimental, refinement or atomic coordinate data resulting 
# from the CCDC's data processing and validation procedures.
#
#######################################################################

data_ODOYOX
_chemical_formula_moiety         'C30 H60 Li4 N8'
_chemical_name_systematic        
bis(\m~3~-\h^5^-2-[(t-butylazanidyl)methyl]-pyrrolato)-bis(N,N,N',N'-tetramethylethane-1,2-diamine)-tri-lithium
_symmetry_cell_setting           monoclinic
_symmetry_space_group_name_H-M   'C 2/c'
_symmetry_Int_Tables_number      15
_space_group_name_Hall           '-C 2yn'
loop_
_symmetry_equiv_pos_site_id
_symmetry_equiv_pos_as_xyz
1 x,y,z
2 -x,y,1/2-z
3 1/2+x,1/2+y,z
4 1/2-x,1/2+y,1/2-z
5 -x,-y,-z
6 x,-y,1/2+z
7 1/2-x,1/2-y,-z
8 1/2+x,1/2-y,1/2+z
_cell_length_a                   25.849(5)
_cell_length_b                   10.452(2)
_cell_length_c                   17.811(7)
_cell_angle_alpha                90
_cell_angle_beta                 128.923(3)
_cell_angle_gamma                90
_cell_volume                     3743.74
_cell_formula_units_Z            4
loop_
_atom_site_label
_atom_site_type_symbol
_atom_site_fract_x
_atom_site_fract_y
_atom_site_fract_z
Li1 Li 0.0706(3) 0.6981(6) 0.3112(5)
Li2 Li 0.1005(3) 0.7509(6) 0.2023(5)
N1 N 0.00690(13) 0.7702(3) 0.1663(2)
N2 N 0.09611(13) 0.5838(3) 0.2502(2)
N3 N 0.09757(16) 0.7870(3) 0.0834(2)
N4 N 0.15955(17) 0.9202(3) 0.2650(3)
C1 C -0.04631(17) 0.8518(4) 0.1154(3)
H1 H -0.0437 0.9454 0.1261
C2 C -0.10311(19) 0.7872(4) 0.0416(3)
H2 H -0.1467 0.8259 -0.0103
C3 C -0.08437(18) 0.6600(4) 0.0464(3)
H3 H -0.1120 0.5922 -0.0019
C4 C -0.01634(16) 0.6529(3) 0.1238(3)
C5 C 0.03140(18) 0.5431(3) 0.1630(3)
H4 H 0.0148 0.4714 0.1781
H5 H 0.0356 0.5142 0.1147
C6 C 0.14386(18) 0.4794(4) 0.3003(3)
C7 C 0.1250(3) 0.3857(5) 0.3457(4)
H6 H 0.1196 0.4320 0.3876
H7 H 0.1598 0.3222 0.3831
H8 H 0.0835 0.3434 0.2952
C8 C 0.1522(2) 0.4020(4) 0.2348(3)
H9 H 0.1105 0.3601 0.1846
H10 H 0.1866 0.3381 0.2730
H11 H 0.1646 0.4592 0.2056
C9 C 0.2099(2) 0.5392(5) 0.3794(4)
H12 H 0.2249 0.5907 0.3511
H13 H 0.2422 0.4725 0.4190
H14 H 0.2051 0.5930 0.4191
C10 C 0.1233(4) 0.9161(5) 0.1005(4)
H15 H 0.1464 0.9222 0.0731
H16 H 0.0851 0.9741 0.0631
C11 C 0.1651(3) 0.9622(6) 0.1916(4)
H17 H 0.1606 1.0556 0.1873
H18 H 0.2105 0.9430 0.2165
C12 C 0.1361(4) 0.6986(7) 0.0752(5)
H19 H 0.1151 0.6151 0.0572
H20 H 0.1805 0.6925 0.1367
H21 H 0.1388 0.7283 0.0262
C13 C 0.0295(3) 0.7822(7) -0.0058(4)
H22 H 0.0287 0.8014 -0.0598
H23 H 0.0029 0.8447 -0.0032
H24 H 0.0114 0.6973 -0.0139
C14 C 0.2269(3) 0.9026(7) 0.3534(5)
H25 H 0.2507 0.9831 0.3721
H26 H 0.2492 0.8391 0.3431
H27 H 0.2257 0.8737 0.4041
C15 C 0.1255(3) 1.0115(6) 0.2780(6)
H28 H 0.1501 1.0913 0.3006
H29 H 0.1214 0.9801 0.3253
H30 H 0.0815 1.0258 0.2172
Li1A Li -0.0706(3) 0.6981(6) 0.1888(5)
Li2A Li -0.1005(3) 0.7509(6) 0.2977(5)
N1A N -0.00690(13) 0.7702(3) 0.3337(2)
N2A N -0.09611(13) 0.5838(3) 0.2498(2)
N3A N -0.09757(16) 0.7870(3) 0.4166(2)
N4A N -0.15955(17) 0.9202(3) 0.2350(3)
C1A C 0.04631(17) 0.8518(4) 0.3846(3)
H1A H 0.0437 0.9454 0.3739
C2A C 0.10311(19) 0.7872(4) 0.4584(3)
H2A H 0.1467 0.8259 0.5103
C3A C 0.08437(18) 0.6600(4) 0.4536(3)
H3A H 0.1120 0.5922 0.5019
C4A C 0.01634(16) 0.6529(3) 0.3762(3)
C5A C -0.03140(18) 0.5431(3) 0.3370(3)
H4A H -0.0148 0.4714 0.3219
H5A H -0.0356 0.5142 0.3853
C6A C -0.14386(18) 0.4794(4) 0.1997(3)
C7A C -0.1250(3) 0.3857(5) 0.1543(4)
H6A H -0.1196 0.4320 0.1124
H7A H -0.1598 0.3222 0.1169
H8A H -0.0835 0.3434 0.2048
C8A C -0.1522(2) 0.4020(4) 0.2652(3)
H9A H -0.1105 0.3601 0.3154
H10A H -0.1866 0.3381 0.2270
H11A H -0.1646 0.4592 0.2944
C9A C -0.2099(2) 0.5392(5) 0.1206(4)
H12A H -0.2249 0.5907 0.1489
H13A H -0.2422 0.4725 0.0810
H14A H -0.2051 0.5930 0.0809
C10A C -0.1233(4) 0.9161(5) 0.3995(4)
H15A H -0.1464 0.9222 0.4269
H16A H -0.0851 0.9741 0.4369
C11A C -0.1651(3) 0.9622(6) 0.3084(4)
H17A H -0.1606 1.0556 0.3127
H18A H -0.2105 0.9430 0.2835
C12A C -0.1361(4) 0.6986(7) 0.4248(5)
H19A H -0.1151 0.6151 0.4428
H20A H -0.1805 0.6925 0.3633
H21A H -0.1388 0.7283 0.4738
C13A C -0.0295(3) 0.7822(7) 0.5058(4)
H22A H -0.0287 0.8014 0.5598
H23A H -0.0029 0.8447 0.5032
H24A H -0.0114 0.6973 0.5139
C14A C -0.2269(3) 0.9026(7) 0.1466(5)
H25A H -0.2507 0.9831 0.1279
H26A H -0.2492 0.8391 0.1569
H27A H -0.2257 0.8737 0.0959
C15A C -0.1255(3) 1.0115(6) 0.2220(6)
H28A H -0.1501 1.0913 0.1994
H29A H -0.1214 0.9801 0.1747
H30A H -0.0815 1.0258 0.2828
loop_
_geom_bond_atom_site_label_1
_geom_bond_atom_site_label_2
_geom_bond_site_symmetry_1
_geom_bond_site_symmetry_2
Li1 N1 1_555 1_555
Li2 N1 1_555 1_555
N1 C1 1_555 1_555
N2 Li1 1_555 1_555
N3 Li2 1_555 1_555
N4 Li2 1_555 1_555
C1 H1 1_555 1_555
C2 C1 1_555 1_555
H2 C2 1_555 1_555
C3 C2 1_555 1_555
H3 C3 1_555 1_555
C4 N1 1_555 1_555
C5 N2 1_555 1_555
H4 C5 1_555 1_555
H5 C5 1_555 1_555
C6 N2 1_555 1_555
C7 C6 1_555 1_555
H6 C7 1_555 1_555
H7 C7 1_555 1_555
H8 C7 1_555 1_555
C8 C6 1_555 1_555
H9 C8 1_555 1_555
H10 C8 1_555 1_555
H11 C8 1_555 1_555
C9 C6 1_555 1_555
H12 C9 1_555 1_555
H13 C9 1_555 1_555
H14 C9 1_555 1_555
C10 N3 1_555 1_555
H15 C10 1_555 1_555
H16 C10 1_555 1_555
C11 N4 1_555 1_555
H17 C11 1_555 1_555
H18 C11 1_555 1_555
C12 N3 1_555 1_555
H19 C12 1_555 1_555
H20 C12 1_555 1_555
H21 C12 1_555 1_555
C13 N3 1_555 1_555
H22 C13 1_555 1_555
H23 C13 1_555 1_555
H24 C13 1_555 1_555
C14 N4 1_555 1_555
H25 C14 1_555 1_555
H26 C14 1_555 1_555
H27 C14 1_555 1_555
C15 N4 1_555 1_555
H28 C15 1_555 1_555
H29 C15 1_555 1_555
H30 C15 1_555 1_555
Li1A N1 1_555 1_555
Li2A N1A 1_555 1_555
N1A Li1 1_555 1_555
N2A Li1A 1_555 1_555
N3A Li2A 1_555 1_555
N4A Li2A 1_555 1_555
C1A Li1 1_555 1_555
H1A C1A 1_555 1_555
C2A Li1 1_555 1_555
H2A C2A 1_555 1_555
C3A Li1 1_555 1_555
H3A C3A 1_555 1_555
C4A Li1 1_555 1_555
C5A N2A 1_555 1_555
H4A C5A 1_555 1_555
H5A C5A 1_555 1_555
C6A N2A 1_555 1_555
C7A C6A 1_555 1_555
H6A C7A 1_555 1_555
H7A C7A 1_555 1_555
H8A C7A 1_555 1_555
C8A C6A 1_555 1_555
H9A C8A 1_555 1_555
H10A C8A 1_555 1_555
H11A C8A 1_555 1_555
C9A C6A 1_555 1_555
H12A C9A 1_555 1_555
H13A C9A 1_555 1_555
H14A C9A 1_555 1_555
C10A N3A 1_555 1_555
H15A C10A 1_555 1_555
H16A C10A 1_555 1_555
C11A N4A 1_555 1_555
H17A C11A 1_555 1_555
H18A C11A 1_555 1_555
C12A N3A 1_555 1_555
H19A C12A 1_555 1_555
H20A C12A 1_555 1_555
H21A C12A 1_555 1_555
C13A N3A 1_555 1_555
H22A C13A 1_555 1_555
H23A C13A 1_555 1_555
H24A C13A 1_555 1_555
C14A N4A 1_555 1_555
H25A C14A 1_555 1_555
H26A C14A 1_555 1_555
H27A C14A 1_555 1_555
C15A N4A 1_555 1_555
H28A C15A 1_555 1_555
H29A C15A 1_555 1_555
H30A C15A 1_555 1_555
Li2 N2 1_555 1_555
C1 Li1A 1_555 1_555
C2 Li1A 1_555 1_555
C3 C4 1_555 1_555
C3 Li1A 1_555 1_555
C4 C5 1_555 1_555
C4 Li1A 1_555 1_555
C10 C11 1_555 1_555
Li1A N1A 1_555 1_555
Li2A N2A 1_555 1_555
N1A C1A 1_555 1_555
N1A C4A 1_555 1_555
C1A C2A 1_555 1_555
C2A C3A 1_555 1_555
C3A C4A 1_555 1_555
C4A C5A 1_555 1_555
C10A C11A 1_555 1_555

#END
