
#######################################################################
#
#                 Cambridge Crystallographic Data Centre
#                                CCDC 
#
#######################################################################
#
# If this CIF has been generated from an entry in the Cambridge 
# Structural Database, then it will include bibliographic, chemical, 
# crystal, experimental, refinement or atomic coordinate data resulting 
# from the CCDC's data processing and validation procedures.
#
#######################################################################

data_ODUKII
_chemical_formula_moiety         'C23 H30 F3 P1'
_chemical_name_systematic        
rac-(2,4,6-Tri-isopropylphenyl)-methyl-(4-(trifluoromethyl)phenyl)phosphine
_symmetry_cell_setting           triclinic
_symmetry_space_group_name_H-M   'P -1'
_symmetry_Int_Tables_number      2
_space_group_name_Hall           '-P 1'
loop_
_symmetry_equiv_pos_site_id
_symmetry_equiv_pos_as_xyz
1 x,y,z
2 -x,-y,-z
_cell_length_a                   9.5300(13)
_cell_length_b                   10.3374(15)
_cell_length_c                   11.8010(17)
_cell_angle_alpha                72.103(3)
_cell_angle_beta                 87.885(3)
_cell_angle_gamma                87.702(3)
_cell_volume                     1105.06
_exptl_crystal_colour            colorless
_exptl_crystal_description       slabs
_cell_formula_units_Z            2
loop_
_atom_site_label
_atom_site_type_symbol
_atom_site_fract_x
_atom_site_fract_y
_atom_site_fract_z
P1 P 0.34240(14) 0.49117(13) 0.40467(12)
F1 F 0.6076(5) -0.0379(5) 0.2407(6)
F2 F 0.7767(5) 0.0939(5) 0.1932(4)
F3 F 0.7564(5) -0.0379(4) 0.3651(4)
C1 C 0.1862(5) 0.5204(5) 0.3108(4)
C2 C 0.1671(6) 0.6507(5) 0.2295(5)
C3 C 0.0504(7) 0.6784(6) 0.1606(5)
H1 H 0.0384 0.7660 0.1065
C4 C -0.0498(7) 0.5848(7) 0.1666(6)
C5 C -0.0284(6) 0.4560(6) 0.2452(5)
H2 H -0.0952 0.3898 0.2503
C6 C 0.0867(5) 0.4210(5) 0.3160(5)
C7 C 0.2722(7) 0.7627(5) 0.2126(5)
H3 H 0.3270 0.7389 0.2862
C8 C 0.3718(9) 0.7673(10) 0.1155(10)
H4 H 0.4369 0.8396 0.1074
H5 H 0.3217 0.7844 0.0420
H6 H 0.4234 0.6810 0.1322
C9 C 0.2069(11) 0.8998(7) 0.1976(11)
H7 H 0.2800 0.9654 0.1874
H8 H 0.1495 0.8978 0.2677
H9 H 0.1487 0.9256 0.1280
C10 C -0.1770(11) 0.6203(10) 0.0873(11)
H10 H -0.1147 0.6482 0.0154
C11 C -0.2325(9) 0.7516(9) 0.0620(10)
H11 H -0.3143 0.7614 0.0131
H12 H -0.1625 0.8155 0.0193
H13 H -0.2597 0.7699 0.1357
C12 C -0.2305(9) 0.5185(10) 0.0489(8)
H14 H -0.3126 0.5537 0.0015
H15 H -0.2567 0.4428 0.1174
H16 H -0.1596 0.4879 0.0010
C13 C 0.1000(5) 0.2761(5) 0.3979(5)
H17 H 0.1898 0.2665 0.4398
C14 C 0.1047(7) 0.1737(6) 0.3283(6)
H18 H 0.1806 0.1948 0.2691
H19 H 0.0162 0.1783 0.2889
H20 H 0.1202 0.0828 0.3825
C15 C -0.0189(6) 0.2451(6) 0.4920(6)
H21 H -0.0203 0.3112 0.5353
H22 H -0.0039 0.1545 0.5470
H23 H -0.1079 0.2501 0.4534
C16 C 0.2772(6) 0.4220(6) 0.5576(5)
H24 H 0.3553 0.4045 0.6113
H25 H 0.2303 0.3377 0.5667
H26 H 0.2113 0.4869 0.5765
C17 C 0.4343(5) 0.3468(5) 0.3724(4)
C18 C 0.4413(5) 0.3409(6) 0.2575(5)
H27 H 0.3909 0.4062 0.1983
C19 C 0.5192(6) 0.2430(6) 0.2272(5)
H28 H 0.5206 0.2399 0.1484
C20 C 0.5964(5) 0.1479(5) 0.3127(5)
C21 C 0.5934(5) 0.1535(5) 0.4264(5)
H29 H 0.6464 0.0898 0.4847
C22 C 0.5132(5) 0.2522(5) 0.4562(5)
H30 H 0.5120 0.2552 0.5350
C23 C 0.6819(7) 0.0414(7) 0.2781(6)
loop_
_geom_bond_atom_site_label_1
_geom_bond_atom_site_label_2
_geom_bond_site_symmetry_1
_geom_bond_site_symmetry_2
P1 C1 1_555 1_555
F1 C23 1_555 1_555
F2 C23 1_555 1_555
F3 C23 1_555 1_555
C1 C2 1_555 1_555
C2 C3 1_555 1_555
C3 H1 1_555 1_555
C4 C3 1_555 1_555
C5 C4 1_555 1_555
H2 C5 1_555 1_555
C6 C1 1_555 1_555
C7 C2 1_555 1_555
H3 C7 1_555 1_555
C8 C7 1_555 1_555
H4 C8 1_555 1_555
H5 C8 1_555 1_555
H6 C8 1_555 1_555
C9 C7 1_555 1_555
H7 C9 1_555 1_555
H8 C9 1_555 1_555
H9 C9 1_555 1_555
C10 C4 1_555 1_555
H10 C10 1_555 1_555
C11 C10 1_555 1_555
H11 C11 1_555 1_555
H12 C11 1_555 1_555
H13 C11 1_555 1_555
C12 C10 1_555 1_555
H14 C12 1_555 1_555
H15 C12 1_555 1_555
H16 C12 1_555 1_555
C13 C6 1_555 1_555
H17 C13 1_555 1_555
C14 C13 1_555 1_555
H18 C14 1_555 1_555
H19 C14 1_555 1_555
H20 C14 1_555 1_555
C15 C13 1_555 1_555
H21 C15 1_555 1_555
H22 C15 1_555 1_555
H23 C15 1_555 1_555
C16 P1 1_555 1_555
H24 C16 1_555 1_555
H25 C16 1_555 1_555
H26 C16 1_555 1_555
C17 P1 1_555 1_555
C18 C17 1_555 1_555
H27 C18 1_555 1_555
C19 C18 1_555 1_555
H28 C19 1_555 1_555
C20 C19 1_555 1_555
C21 C20 1_555 1_555
H29 C21 1_555 1_555
C22 C17 1_555 1_555
H30 C22 1_555 1_555
C23 C20 1_555 1_555
C5 C6 1_555 1_555
C21 C22 1_555 1_555

#END
