
#######################################################################
#
#                 Cambridge Crystallographic Data Centre
#                                CCDC 
#
#######################################################################
#
# If this CIF has been generated from an entry in the Cambridge 
# Structural Database, then it will include bibliographic, chemical, 
# crystal, experimental, refinement or atomic coordinate data resulting 
# from the CCDC's data processing and validation procedures.
#
#######################################################################

data_ODUROW
_chemical_formula_moiety         'C26 H30 O6,0.5(H2 O1)'
_chemical_name_systematic        
'4-Acetoxy-12,13-epoxytrichothec-9-en-8-yl 3-phenylacrylate hemihydrate'
_symmetry_cell_setting           monoclinic
_symmetry_space_group_name_H-M   'C 2'
_symmetry_Int_Tables_number      5
_space_group_name_Hall           'C 2y'
loop_
_symmetry_equiv_pos_site_id
_symmetry_equiv_pos_as_xyz
1 x,y,z
2 -x,y,-z
3 1/2+x,1/2+y,z
4 1/2-x,1/2+y,-z
_cell_length_a                   23.2430(13)
_cell_length_b                   7.8970(7)
_cell_length_c                   14.2170(9)
_cell_angle_alpha                90
_cell_angle_beta                 99.233(2)
_cell_angle_gamma                90
_cell_volume                     2575.72
_exptl_crystal_colour            colorless
_exptl_crystal_description       chunk
_cell_formula_units_Z            4
loop_
_atom_site_label
_atom_site_type_symbol
_atom_site_fract_x
_atom_site_fract_y
_atom_site_fract_z
O1 O 0.5000 0.710(9) 0.0000
H1 H 0.5026 0.6470 0.0518
H1A H 0.4974 0.6470 -0.0518
O2 O 0.37189(13) 0.6836(5) 0.5233(2)
O3 O 0.25981(13) 0.7079(4) 0.2372(2)
O4 O 0.32998(14) 0.3391(5) 0.0319(2)
C1 C 0.42639(17) 0.1947(7) -0.2322(3)
C2 C 0.26493(18) 0.5317(5) 0.2640(3)
H2 H 0.2466 0.5155 0.3208
C3 C 0.32906(18) 0.4711(5) 0.2872(3)
C4 C 0.35851(19) 0.7733(6) 0.3040(3)
C5 C 0.35140(19) 0.4555(6) 0.1914(3)
H3 H 0.3478 0.5642 0.1592
H4 H 0.3923 0.4249 0.2029
O5 O 0.39893(16) 0.9053(5) 0.3401(3)
C6 C 0.36496(18) 0.6033(5) 0.3554(3)
O6 O 0.41115(19) 0.1805(7) 0.0685(2)
C7 C 0.3774(2) 0.2628(7) -0.0927(3)
H5 H 0.3453 0.3061 -0.1330
C8 C 0.2521(2) 0.3452(7) 0.1208(3)
C9 C 0.4230(2) 0.2099(8) -0.1291(3)
H6 H 0.4560 0.1794 -0.0863
C10 C 0.3178(2) 0.3243(7) 0.1283(3)
H7 H 0.3291 0.2112 0.1530
C11 C 0.3786(2) 0.2199(9) -0.3012(3)
H8 H 0.3434 0.2541 -0.2841
C12 C 0.33071(18) 0.6399(6) 0.4391(3)
H9 H 0.3079 0.5404 0.4516
O7 O 0.30366(19) 0.6286(9) 0.6138(3)
C13 C 0.3521(3) 0.6699(8) 0.6077(4)
C14 C 0.4782(2) 0.1481(8) -0.2608(4)
H10 H 0.5113 0.1331 -0.2152
C15 C 0.2900(2) 0.7896(7) 0.4063(4)
H11 H 0.2501 0.7626 0.4126
H12 H 0.3019 0.8900 0.4437
C16 C 0.2300(2) 0.4367(7) 0.1831(3)
H13 H 0.1896 0.4432 0.1766
C17 C 0.3763(2) 0.2544(7) 0.0102(3)
C18 C 0.3828(2) 0.1945(12) -0.3955(4)
H14 H 0.3502 0.2117 -0.4418
C19 C 0.3302(3) 0.2965(6) 0.3354(3)
H15 H 0.3010 0.2250 0.3000
H16 H 0.3223 0.3094 0.3992
H17 H 0.3679 0.2459 0.3370
C20 C 0.42795(19) 0.5503(8) 0.3884(4)
H18 H 0.4459 0.5231 0.3340
H19 H 0.4289 0.4529 0.4290
H20 H 0.4488 0.6417 0.4230
C21 C 0.4343(3) 0.1443(11) -0.4225(4)
H21 H 0.4365 0.1248 -0.4863
C22 C 0.4819(2) 0.1235(10) -0.3547(4)
H22 H 0.5173 0.0922 -0.3723
C23 C 0.2955(2) 0.8172(6) 0.3032(4)
H23 H 0.2882 0.9362 0.2855
C24 C 0.3958(2) 0.8448(8) 0.2442(4)
H24 H 0.3783 0.9186 0.1930
H25 H 0.4278 0.7759 0.2297
C25 C 0.2144(3) 0.2459(12) 0.0431(5)
H26 H 0.1741 0.2605 0.0489
H27 H 0.2244 0.1281 0.0492
H28 H 0.2208 0.2863 -0.0180
C26 C 0.3997(3) 0.7036(12) 0.6893(4)
H29 H 0.3882 0.6637 0.7473
H30 H 0.4072 0.8231 0.6942
H31 H 0.4345 0.6457 0.6790
loop_
_geom_bond_atom_site_label_1
_geom_bond_atom_site_label_2
_geom_bond_site_symmetry_1
_geom_bond_site_symmetry_2
O1 H1 1_555 1_555
O2 C12 1_555 1_555
O3 C2 1_555 1_555
O4 C10 1_555 1_555
C1 C9 1_555 1_555
C2 H2 1_555 1_555
C3 C2 1_555 1_555
C4 O5 1_555 1_555
C5 C3 1_555 1_555
H3 C5 1_555 1_555
H4 C5 1_555 1_555
O5 C24 1_555 1_555
C6 C3 1_555 1_555
O6 C17 1_555 1_555
C7 H5 1_555 1_555
C8 C10 1_555 1_555
C9 C7 1_555 1_555
H6 C9 1_555 1_555
C10 C5 1_555 1_555
H7 C10 1_555 1_555
C11 C1 1_555 1_555
H8 C11 1_555 1_555
C12 C6 1_555 1_555
H9 C12 1_555 1_555
O7 C13 1_555 1_555
C13 O2 1_555 1_555
C14 C1 1_555 1_555
H10 C14 1_555 1_555
C15 C12 1_555 1_555
H11 C15 1_555 1_555
H12 C15 1_555 1_555
C16 C2 1_555 1_555
H13 C16 1_555 1_555
C17 O4 1_555 1_555
C18 C11 1_555 1_555
H14 C18 1_555 1_555
C19 C3 1_555 1_555
H15 C19 1_555 1_555
H16 C19 1_555 1_555
H17 C19 1_555 1_555
C20 C6 1_555 1_555
H18 C20 1_555 1_555
H19 C20 1_555 1_555
H20 C20 1_555 1_555
C21 C18 1_555 1_555
H21 C21 1_555 1_555
C22 C14 1_555 1_555
H22 C22 1_555 1_555
C23 O3 1_555 1_555
H23 C23 1_555 1_555
C24 C4 1_555 1_555
H24 C24 1_555 1_555
H25 C24 1_555 1_555
C25 C8 1_555 1_555
H26 C25 1_555 1_555
H27 C25 1_555 1_555
H28 C25 1_555 1_555
C26 C13 1_555 1_555
H29 C26 1_555 1_555
H30 C26 1_555 1_555
H31 C26 1_555 1_555
H1A O1 1_555 1_555
C4 C6 1_555 1_555
C4 C23 1_555 1_555
C7 C17 1_555 1_555
C8 C16 1_555 1_555
C15 C23 1_555 1_555
C21 C22 1_555 1_555

#END
