
#######################################################################
#
#                 Cambridge Crystallographic Data Centre
#                                CCDC 
#
#######################################################################
#
# If this CIF has been generated from an entry in the Cambridge 
# Structural Database, then it will include bibliographic, chemical, 
# crystal, experimental, refinement or atomic coordinate data resulting 
# from the CCDC's data processing and validation procedures.
#
#######################################################################

data_ODUYOE
_chemical_formula_moiety         'C17 H12 F3 N3'
_chemical_name_systematic        
2-[(9-ethyl-9H-carbazol-3-yl)imino]-3,3,3-trifluoropropanenitrile
_symmetry_cell_setting           monoclinic
_symmetry_space_group_name_H-M   'P 21/c'
_symmetry_Int_Tables_number      14
_space_group_name_Hall           '-P 2ybc'
loop_
_symmetry_equiv_pos_site_id
_symmetry_equiv_pos_as_xyz
1 x,y,z
2 -x,1/2+y,1/2-z
3 -x,-y,-z
4 x,1/2-y,1/2+z
_cell_length_a                   12.9049(11)
_cell_length_b                   13.7987(12)
_cell_length_c                   8.6453(7)
_cell_angle_alpha                90
_cell_angle_beta                 103.359(3)
_cell_angle_gamma                90
_cell_volume                     1497.82
_exptl_crystal_colour            colorless
_exptl_crystal_description       prismatic
_cell_formula_units_Z            4
loop_
_atom_site_label
_atom_site_type_symbol
_atom_site_fract_x
_atom_site_fract_y
_atom_site_fract_z
N1 N 0.72076(16) 0.56953(16) 0.5433(3)
N2 N 0.29868(19) 0.64722(17) 0.2749(3)
N3 N 0.2976(3) 0.6231(2) -0.1347(4)
C1 C 0.6244(2) 0.63180(18) 0.7107(3)
C2 C 0.6103(2) 0.66474(18) 0.8570(3)
H1 H 0.5427 0.6876 0.8672
C3 C 0.6959(2) 0.6636(2) 0.9866(3)
H2 H 0.6868 0.6858 1.0867
C4 C 0.7956(2) 0.6305(2) 0.9729(4)
H3 H 0.8532 0.6306 1.0639
C5 C 0.8122(2) 0.5974(2) 0.8295(3)
H4 H 0.8801 0.5747 0.8207
C6 C 0.7260(2) 0.59854(19) 0.6985(3)
C7 C 0.6197(2) 0.58464(18) 0.4538(3)
C8 C 0.5558(2) 0.62315(18) 0.5529(3)
C9 C 0.4489(2) 0.64139(18) 0.4880(3)
H5 H 0.4045 0.6648 0.5534
C10 C 0.4069(2) 0.62530(19) 0.3267(3)
C11 C 0.4729(2) 0.58804(19) 0.2302(3)
H6 H 0.4435 0.5775 0.1202
C12 C 0.5781(2) 0.56698(19) 0.2923(3)
H7 H 0.6215 0.5411 0.2273
C13 C 0.8099(2) 0.5301(2) 0.4847(4)
H8 H 0.7816 0.4902 0.3891
H9 H 0.8530 0.4874 0.5670
C14 C 0.8805(3) 0.6088(3) 0.4433(5)
H10 H 0.8383 0.6510 0.3613
H11 H 0.9383 0.5792 0.4034
H12 H 0.9107 0.6471 0.5385
C15 C 0.2436(2) 0.6494(2) 0.1329(4)
C16 C 0.2757(3) 0.6337(2) -0.0151(4)
C17 C 0.1271(3) 0.6781(3) 0.1085(4)
F1 F 0.1154(3) 0.7719(3) 0.0813(5)
F2 F 0.0689(3) 0.6360(4) -0.0208(5)
F3 F 0.0881(3) 0.6546(3) 0.2295(5)
F4? F 0.0988(14) 0.7099(13) 0.234(3)
F5? F 0.0893(12) 0.7418(16) 0.009(2)
F6? F 0.0642(14) 0.6029(16) 0.051(2)
loop_
_geom_bond_atom_site_label_1
_geom_bond_atom_site_label_2
_geom_bond_site_symmetry_1
_geom_bond_site_symmetry_2
N1 C6 1_555 1_555
N2 C10 1_555 1_555
N3 C16 1_555 1_555
C1 C2 1_555 1_555
C2 H1 1_555 1_555
C3 C2 1_555 1_555
H2 C3 1_555 1_555
C4 C3 1_555 1_555
H3 C4 1_555 1_555
C5 C4 1_555 1_555
H4 C5 1_555 1_555
C6 C1 1_555 1_555
C7 N1 1_555 1_555
C8 C1 1_555 1_555
C9 C8 1_555 1_555
H5 C9 1_555 1_555
C10 C9 1_555 1_555
C11 C10 1_555 1_555
H6 C11 1_555 1_555
C12 C7 1_555 1_555
H7 C12 1_555 1_555
C13 N1 1_555 1_555
H8 C13 1_555 1_555
H9 C13 1_555 1_555
C14 C13 1_555 1_555
H10 C14 1_555 1_555
H11 C14 1_555 1_555
H12 C14 1_555 1_555
C15 N2 1_555 1_555
C16 C15 1_555 1_555
C17 C15 1_555 1_555
F1 C17 1_555 1_555
F2 C17 1_555 1_555
F3 C17 1_555 1_555
C5 C6 1_555 1_555
C7 C8 1_555 1_555
C11 C12 1_555 1_555

#END
