
#######################################################################
#
#                 Cambridge Crystallographic Data Centre
#                                CCDC 
#
#######################################################################
#
# If this CIF has been generated from an entry in the Cambridge 
# Structural Database, then it will include bibliographic, chemical, 
# crystal, experimental, refinement or atomic coordinate data resulting 
# from the CCDC's data processing and validation procedures.
#
#######################################################################

data_OFALOX
_chemical_name_common            
"5,5'-bis(Dimesitylboryl)-2,2'-bipyridine tetrahydrofuran solvate"
_chemical_formula_moiety         'C46 H50 B2 N2,2(C4 H8 O1)'
_chemical_name_systematic        
"5,5'-bis(bis(2,4,6-Trimethylphenyl)boryl)-2,2'-bipyridine tetrahydrofuran solvate"
_symmetry_cell_setting           monoclinic
_symmetry_space_group_name_H-M   'P 21/c'
_symmetry_Int_Tables_number      14
_space_group_name_Hall           '-P 2ybc'
loop_
_symmetry_equiv_pos_site_id
_symmetry_equiv_pos_as_xyz
1 x,y,z
2 -x,1/2+y,1/2-z
3 -x,-y,-z
4 x,1/2-y,1/2+z
_cell_length_a                   14.940(3)
_cell_length_b                   8.2549(18)
_cell_length_c                   20.299(4)
_cell_angle_alpha                90
_cell_angle_beta                 107.649(4)
_cell_angle_gamma                90
_cell_volume                     2385.61
_exptl_crystal_colour            colorless
_exptl_crystal_description       plate
_cell_formula_units_Z            2
loop_
_atom_site_label
_atom_site_type_symbol
_atom_site_fract_x
_atom_site_fract_y
_atom_site_fract_z
B1 B 0.2632(2) 0.3213(4) -0.04610(17)
C1 C 0.1930(6) 0.2104(10) -0.0263(5)
C2 C 0.1300(6) 0.1085(11) -0.0772(5)
H1 H 0.1386 0.0999 -0.1216
N1 N 0.0908(7) 0.1403(13) 0.0423(5)
C3 C 0.0589(6) 0.0246(9) -0.0648(4)
H2 H 0.0199 -0.0446 -0.0990
C4 C 0.0452(8) 0.0415(13) -0.0034(5)
C5 C 0.1739(8) 0.2105(14) 0.0378(7)
H3 H 0.2172 0.2579 0.0774
C6 C 0.30539(18) 0.2721(4) -0.10598(14)
C7 C 0.30377(19) 0.3796(4) -0.15979(16)
C8 C 0.3345(2) 0.3301(5) -0.21456(16)
H4 H 0.3316 0.4043 -0.2509
C9 C 0.3692(2) 0.1763(5) -0.21785(16)
C10 C 0.37379(19) 0.0707(4) -0.16409(17)
H5 H 0.3989 -0.0347 -0.1649
C11 C 0.34215(18) 0.1156(4) -0.10832(15)
C12 C 0.2659(2) 0.5501(4) -0.16243(15)
H6 H 0.2893 0.6156 -0.1940
H7 H 0.2867 0.5978 -0.1161
H8 H 0.1971 0.5473 -0.1790
C13 C 0.4003(2) 0.1224(4) -0.27983(15)
H9 H 0.4474 0.0364 -0.2654
H10 H 0.4275 0.2148 -0.2973
H11 H 0.3459 0.0816 -0.3164
C14 C 0.35324(18) -0.0099(3) -0.05111(14)
H12 H 0.3560 0.0452 -0.0078
H13 H 0.4113 -0.0712 -0.0451
H14 H 0.2995 -0.0841 -0.0638
C15 C 0.2914(2) 0.4772(3) -0.00076(14)
C16 C 0.2235(2) 0.5955(4) -0.00009(15)
C17 C 0.2492(2) 0.7283(4) 0.04399(16)
H15 H 0.2028 0.8067 0.0444
C18 C 0.3392(2) 0.7496(4) 0.08688(15)
C19 C 0.40617(19) 0.6338(4) 0.08690(14)
H16 H 0.4686 0.6468 0.1165
C20 C 0.3833(2) 0.4990(4) 0.04419(15)
C21 C 0.45784(16) 0.3705(3) 0.05072(13)
H17 H 0.4607 0.3411 0.0046
H18 H 0.4421 0.2744 0.0733
H19 H 0.5190 0.4127 0.0784
C22 C 0.12278(18) 0.5863(3) -0.04517(15)
H20 H 0.0980 0.6961 -0.0567
H21 H 0.0853 0.5294 -0.0203
H22 H 0.1195 0.5274 -0.0877
C23 C 0.36419(19) 0.8949(3) 0.13529(15)
H23 H 0.4244 0.9403 0.1342
H24 H 0.3692 0.8605 0.1825
H25 H 0.3151 0.9775 0.1203
B1B B -0.2632(2) -0.3213(4) 0.04610(17)
C1B C -0.1930(6) -0.2104(10) 0.0263(5)
C2B C -0.1300(6) -0.1085(11) 0.0772(5)
H1B H -0.1386 -0.0999 0.1216
N1B N -0.0908(7) -0.1403(13) -0.0423(5)
C3B C -0.0589(6) -0.0246(9) 0.0648(4)
H2B H -0.0199 0.0446 0.0990
C4B C -0.0452(8) -0.0415(13) 0.0034(5)
C5B C -0.1739(8) -0.2105(14) -0.0378(7)
H3B H -0.2172 -0.2579 -0.0774
C6B C -0.30539(18) -0.2721(4) 0.10598(14)
C7B C -0.30377(19) -0.3796(4) 0.15979(16)
C8B C -0.3345(2) -0.3301(5) 0.21456(16)
H4B H -0.3316 -0.4043 0.2509
C9B C -0.3692(2) -0.1763(5) 0.21785(16)
C10B C -0.37379(19) -0.0707(4) 0.16409(17)
H5B H -0.3989 0.0347 0.1649
C11B C -0.34215(18) -0.1156(4) 0.10832(15)
C12B C -0.2659(2) -0.5501(4) 0.16243(15)
H6B H -0.2893 -0.6156 0.1940
H7B H -0.2867 -0.5978 0.1161
H8B H -0.1971 -0.5473 0.1790
C13B C -0.4003(2) -0.1224(4) 0.27983(15)
H9B H -0.4474 -0.0364 0.2654
H10B H -0.4275 -0.2148 0.2973
H11B H -0.3459 -0.0816 0.3164
C14B C -0.35324(18) 0.0099(3) 0.05111(14)
H12B H -0.3560 -0.0452 0.0078
H13B H -0.4113 0.0712 0.0451
H14B H -0.2995 0.0841 0.0638
C15B C -0.2914(2) -0.4772(3) 0.00076(14)
C16B C -0.2235(2) -0.5955(4) 0.00009(15)
C17B C -0.2492(2) -0.7283(4) -0.04399(16)
H15B H -0.2028 -0.8067 -0.0444
C18B C -0.3392(2) -0.7496(4) -0.08688(15)
C19B C -0.40617(19) -0.6338(4) -0.08690(14)
H16B H -0.4686 -0.6468 -0.1165
C20B C -0.3833(2) -0.4990(4) -0.04419(15)
C21B C -0.45784(16) -0.3705(3) -0.05072(13)
H17B H -0.4607 -0.3411 -0.0046
H18B H -0.4421 -0.2744 -0.0733
H19B H -0.5190 -0.4127 -0.0784
C22B C -0.12278(18) -0.5863(3) 0.04517(15)
H20B H -0.0980 -0.6961 0.0567
H21B H -0.0853 -0.5294 0.0203
H22B H -0.1195 -0.5274 0.0877
C23B C -0.36419(19) -0.8949(3) -0.13529(15)
H23B H -0.4244 -0.9403 -0.1342
H24B H -0.3692 -0.8605 -0.1825
H25B H -0.3151 -0.9775 -0.1203
C24? C 0.1746(8) 0.2166(14) -0.0411(6)
C25? C 0.1159(9) 0.1251(16) -0.0915(7)
H26? H 0.1259 0.1163 -0.1354
C26? C 0.1034(8) 0.1240(15) 0.0472(7)
H27? H 0.1078 0.1051 0.0943
N2? N 0.0421(7) 0.0451(13) -0.0788(5)
C27? C 0.0299(11) 0.0468(18) -0.0126(8)
C28? C 0.1628(8) 0.2237(14) 0.0267(6)
H28? H 0.1980 0.3015 0.0586
loop_
_geom_bond_atom_site_label_1
_geom_bond_atom_site_label_2
_geom_bond_site_symmetry_1
_geom_bond_site_symmetry_2
B1 C1 1_555 1_555
C1 C2 1_555 1_555
C2 H1 1_555 1_555
N1 C4 1_555 1_555
C3 C2 1_555 1_555
H2 C3 1_555 1_555
C4 C3 1_555 1_555
C5 C1 1_555 1_555
H3 C5 1_555 1_555
C6 B1 1_555 1_555
C7 C6 1_555 1_555
C8 C7 1_555 1_555
H4 C8 1_555 1_555
C9 C8 1_555 1_555
C10 C9 1_555 1_555
H5 C10 1_555 1_555
C11 C6 1_555 1_555
C12 C7 1_555 1_555
H6 C12 1_555 1_555
H7 C12 1_555 1_555
H8 C12 1_555 1_555
C13 C9 1_555 1_555
H9 C13 1_555 1_555
H10 C13 1_555 1_555
H11 C13 1_555 1_555
C14 C11 1_555 1_555
H12 C14 1_555 1_555
H13 C14 1_555 1_555
H14 C14 1_555 1_555
C15 B1 1_555 1_555
C16 C15 1_555 1_555
C17 C16 1_555 1_555
H15 C17 1_555 1_555
C18 C17 1_555 1_555
C19 C18 1_555 1_555
H16 C19 1_555 1_555
C20 C15 1_555 1_555
C21 C20 1_555 1_555
H17 C21 1_555 1_555
H18 C21 1_555 1_555
H19 C21 1_555 1_555
C22 C16 1_555 1_555
H20 C22 1_555 1_555
H21 C22 1_555 1_555
H22 C22 1_555 1_555
C23 C18 1_555 1_555
H23 C23 1_555 1_555
H24 C23 1_555 1_555
H25 C23 1_555 1_555
B1B C1B 1_555 1_555
C1B C2B 1_555 1_555
C2B H1B 1_555 1_555
N1B C4B 1_555 1_555
C3B C2B 1_555 1_555
H2B C3B 1_555 1_555
C4B C4 1_555 1_555
C5B C1B 1_555 1_555
H3B C5B 1_555 1_555
C6B B1B 1_555 1_555
C7B C6B 1_555 1_555
C8B C7B 1_555 1_555
H4B C8B 1_555 1_555
C9B C8B 1_555 1_555
C10B C9B 1_555 1_555
H5B C10B 1_555 1_555
C11B C6B 1_555 1_555
C12B C7B 1_555 1_555
H6B C12B 1_555 1_555
H7B C12B 1_555 1_555
H8B C12B 1_555 1_555
C13B C9B 1_555 1_555
H9B C13B 1_555 1_555
H10B C13B 1_555 1_555
H11B C13B 1_555 1_555
C14B C11B 1_555 1_555
H12B C14B 1_555 1_555
H13B C14B 1_555 1_555
H14B C14B 1_555 1_555
C15B B1B 1_555 1_555
C16B C15B 1_555 1_555
C17B C16B 1_555 1_555
H15B C17B 1_555 1_555
C18B C17B 1_555 1_555
C19B C18B 1_555 1_555
H16B C19B 1_555 1_555
C20B C15B 1_555 1_555
C21B C20B 1_555 1_555
H17B C21B 1_555 1_555
H18B C21B 1_555 1_555
H19B C21B 1_555 1_555
C22B C16B 1_555 1_555
H20B C22B 1_555 1_555
H21B C22B 1_555 1_555
H22B C22B 1_555 1_555
C23B C18B 1_555 1_555
H23B C23B 1_555 1_555
H24B C23B 1_555 1_555
H25B C23B 1_555 1_555
N1 C5 1_555 1_555
C10 C11 1_555 1_555
C19 C20 1_555 1_555
N1B C5B 1_555 1_555
C3B C4B 1_555 1_555
C10B C11B 1_555 1_555
C19B C20B 1_555 1_555

#END
