
#######################################################################
#
#                 Cambridge Crystallographic Data Centre
#                                CCDC 
#
#######################################################################
#
# If this CIF has been generated from an entry in the Cambridge 
# Structural Database, then it will include bibliographic, chemical, 
# crystal, experimental, refinement or atomic coordinate data resulting 
# from the CCDC's data processing and validation procedures.
#
#######################################################################

data_OFAYEB
_chemical_name_common            1,2:3,4:8,9-tris(octafluorobutano)corannulene
_chemical_formula_moiety         'C32 H4 F24'
_chemical_name_systematic        
1,1,2,2,3,3,4,4,6,6,7,7,8,8,9,9,12,12,13,13,14,14,15,15-Tetracosafluoro-1,2,3,4,6,7,8,9,12,13,14,15-dodecahydrocyclohepta[5,6]acenaphtho[3,2,1,8-fghij]picene
_symmetry_cell_setting           monoclinic
_symmetry_space_group_name_H-M   'P 21/n'
_symmetry_Int_Tables_number      14
_space_group_name_Hall           '-P 2yn'
loop_
_symmetry_equiv_pos_site_id
_symmetry_equiv_pos_as_xyz
1 x,y,z
2 1/2-x,1/2+y,1/2-z
3 -x,-y,-z
4 1/2+x,1/2-y,1/2+z
_cell_length_a                   11.9944(9)
_cell_length_b                   9.8800(8)
_cell_length_c                   23.2268(19)
_cell_angle_alpha                90
_cell_angle_beta                 93.161(4)
_cell_angle_gamma                90
_cell_volume                     2748.3
_exptl_crystal_colour            'very pale pink'
_exptl_crystal_description       rod
_cell_formula_units_Z            4
loop_
_atom_site_label
_atom_site_type_symbol
_atom_site_fract_x
_atom_site_fract_y
_atom_site_fract_z
C3 C 0.1760(3) 0.4722(5) -0.18771(16)
C4 C 0.2778(4) 0.3923(5) -0.20525(19)
F5 F 0.2056(3) 0.6013(2) -0.17958(10)
F6 F 0.0955(6) 0.4706(5) -0.2297(3)
F7 F 0.3164(8) 0.4371(14) -0.2562(5)
F8 F 0.2467(3) 0.2616(2) -0.21310(10)
C5 C 0.27307(17) 0.3748(2) 0.01550(9)
C6 C 0.26325(17) 0.3214(2) 0.07149(8)
C7 C 0.37176(17) 0.2853(2) 0.09336(9)
C8 C 0.44844(17) 0.3160(2) 0.05138(8)
C9 C 0.38705(16) 0.3700(2) 0.00299(9)
C10 C 0.42307(17) 0.3659(2) -0.05187(9)
C11 C 0.33524(18) 0.3867(2) -0.09691(9)
C12 C 0.22363(17) 0.3934(2) -0.08404(9)
C13 C 0.18731(17) 0.3755(2) -0.02589(9)
C14 C 0.08060(18) 0.3369(2) -0.00492(10)
H1 H 0.0164 0.3493 -0.0286
C15 C 0.07133(18) 0.2823(2) 0.04922(10)
H2 H 0.0011 0.2577 0.0607
C16 C 0.16782(17) 0.2618(2) 0.08887(9)
C17 C 0.18496(18) 0.1723(2) 0.13835(9)
C18 C 0.29109(18) 0.1419(2) 0.16156(9)
C19 C 0.39154(18) 0.1903(2) 0.13539(9)
C20 C 0.50286(18) 0.1352(2) 0.13791(9)
H3 H 0.5249 0.0784 0.1684
C21 C 0.57807(17) 0.1641(2) 0.09650(9)
C22 C 0.55042(16) 0.2539(2) 0.04826(8)
C23 C 0.59915(17) 0.2745(2) -0.00741(9)
C24 C 0.53827(17) 0.3252(2) -0.05486(9)
H4 H 0.5724 0.3334 -0.0897
C25 C 0.0831(2) 0.1039(3) 0.16098(11)
C26 C 0.3096(2) 0.0508(3) 0.21330(10)
C27 C 0.2028(2) 0.0159(3) 0.24436(12)
C28 C 0.68508(18) 0.0820(2) 0.09916(10)
C29 C 0.70953(18) 0.0117(2) 0.04193(10)
C30 C 0.75742(18) 0.0974(2) -0.00714(10)
C31 C 0.72153(17) 0.2469(2) -0.01282(9)
C32 C 0.37226(19) 0.3993(2) -0.15785(9)
C33 C 0.13250(19) 0.4139(3) -0.13140(10)
C34 C 0.1091(2) -0.0161(3) 0.20141(12)
F9 F 0.06149(15) 0.51044(19) -0.11529(8)
F10 F 0.07223(15) 0.30146(19) -0.13925(8)
F11 F 0.43810(16) 0.29435(19) -0.17050(7)
F12 F 0.43495(16) 0.51062(19) -0.16222(7)
F13 F 0.75665(11) 0.28936(16) -0.06434(6)
F14 F 0.78151(11) 0.31785(14) 0.02815(6)
F15 F 0.86963(11) 0.09330(15) -0.00130(7)
F16 F 0.72647(13) 0.03553(15) -0.05715(6)
F17 F 0.78230(13) -0.08920(15) 0.05287(7)
F18 F 0.61261(12) -0.04452(14) 0.02113(6)
F19 F 0.67951(12) -0.01919(15) 0.13819(6)
F20 F 0.77604(11) 0.15711(15) 0.11586(6)
F21 F 0.36148(14) -0.06403(16) 0.19905(7)
F22 F 0.37878(13) 0.11401(18) 0.25300(6)
F23 F 0.22323(15) -0.08868(19) 0.28021(7)
F24 F 0.01881(13) 0.05160(18) 0.11615(7)
F25 F 0.01866(14) 0.19510(18) 0.18665(8)
F26 F 0.01695(13) -0.05274(18) 0.22795(7)
F27 F 0.14256(15) -0.12353(17) 0.16944(7)
F28 F 0.17150(16) 0.12505(19) 0.27549(7)
F1? F 0.2707(12) 0.5918(8) -0.1890(4)
F2? F 0.1812(10) 0.2566(10) -0.2042(3)
F3? F 0.093(2) 0.4214(18) -0.2305(11)
F4? F 0.299(3) 0.451(5) -0.2496(15)
C1? C 0.1723(10) 0.391(2) -0.1930(5)
C2? C 0.2793(16) 0.458(2) -0.1997(6)
loop_
_geom_bond_atom_site_label_1
_geom_bond_atom_site_label_2
_geom_bond_site_symmetry_1
_geom_bond_site_symmetry_2
C3 C4 1_555 1_555
C4 F7 1_555 1_555
F5 C3 1_555 1_555
F6 C3 1_555 1_555
F8 C4 1_555 1_555
C5 C6 1_555 1_555
C6 C7 1_555 1_555
C7 C8 1_555 1_555
C8 C9 1_555 1_555
C9 C5 1_555 1_555
C10 C9 1_555 1_555
C11 C10 1_555 1_555
C12 C11 1_555 1_555
C13 C5 1_555 1_555
C14 C13 1_555 1_555
H1 C14 1_555 1_555
C15 C14 1_555 1_555
H2 C15 1_555 1_555
C16 C6 1_555 1_555
C17 C16 1_555 1_555
C18 C17 1_555 1_555
C19 C7 1_555 1_555
C20 C19 1_555 1_555
H3 C20 1_555 1_555
C21 C20 1_555 1_555
C22 C8 1_555 1_555
C23 C22 1_555 1_555
C24 C10 1_555 1_555
H4 C24 1_555 1_555
C25 C17 1_555 1_555
C26 C18 1_555 1_555
C27 C26 1_555 1_555
C28 C21 1_555 1_555
C29 C28 1_555 1_555
C30 C29 1_555 1_555
C31 C23 1_555 1_555
C32 C4 1_555 1_555
C33 C3 1_555 1_555
C34 C25 1_555 1_555
F9 C33 1_555 1_555
F10 C33 1_555 1_555
F11 C32 1_555 1_555
F12 C32 1_555 1_555
F13 C31 1_555 1_555
F14 C31 1_555 1_555
F15 C30 1_555 1_555
F16 C30 1_555 1_555
F17 C29 1_555 1_555
F18 C29 1_555 1_555
F19 C28 1_555 1_555
F20 C28 1_555 1_555
F21 C26 1_555 1_555
F22 C26 1_555 1_555
F23 C27 1_555 1_555
F24 C25 1_555 1_555
F25 C25 1_555 1_555
F26 C34 1_555 1_555
F27 C34 1_555 1_555
F28 C27 1_555 1_555
C11 C32 1_555 1_555
C12 C13 1_555 1_555
C12 C33 1_555 1_555
C15 C16 1_555 1_555
C18 C19 1_555 1_555
C21 C22 1_555 1_555
C23 C24 1_555 1_555
C27 C34 1_555 1_555
C30 C31 1_555 1_555

#END
