
#######################################################################
#
#                 Cambridge Crystallographic Data Centre
#                                CCDC 
#
#######################################################################
#
# If this CIF has been generated from an entry in the Cambridge 
# Structural Database, then it will include bibliographic, chemical, 
# crystal, experimental, refinement or atomic coordinate data resulting 
# from the CCDC's data processing and validation procedures.
#
#######################################################################

data_OFEBIM
_chemical_formula_moiety         'C20 H20 Cl1 N1 O1'
_chemical_name_systematic        
1-(4-Chlorophenyl)-3-cyclohexylidene-2-(pyridin-2-yl)prop-2-en-1-ol
_symmetry_cell_setting           monoclinic
_symmetry_space_group_name_H-M   'P 21/n'
_symmetry_Int_Tables_number      14
_space_group_name_Hall           '-P 2yn'
loop_
_symmetry_equiv_pos_site_id
_symmetry_equiv_pos_as_xyz
1 x,y,z
2 1/2-x,1/2+y,1/2-z
3 -x,-y,-z
4 1/2+x,1/2-y,1/2+z
_cell_length_a                   10.9804(14)
_cell_length_b                   9.1245(11)
_cell_length_c                   17.616(2)
_cell_angle_alpha                90
_cell_angle_beta                 100.796(2)
_cell_angle_gamma                90
_cell_volume                     1733.72
_exptl_crystal_colour            colorless
_exptl_crystal_description       prismatic
_cell_formula_units_Z            4
loop_
_atom_site_label
_atom_site_type_symbol
_atom_site_fract_x
_atom_site_fract_y
_atom_site_fract_z
Cl1 Cl 0.74285(6) 0.91751(7) 1.04249(3)
N1 N 0.46137(14) 1.20471(17) 0.56732(9)
O1 O 0.53270(15) 1.27648(14) 0.71882(8)
H1 H 0.5028 1.3032 0.6748
C1 C 0.57511(16) 1.13035(18) 0.71690(9)
H2 H 0.6465 1.1297 0.6908
C2 C 0.47495(14) 1.03204(17) 0.67158(9)
C3 C 0.43853(15) 0.91234(18) 0.70196(9)
C4 C 0.40721(15) 0.79369(18) 0.73411(9)
C5 C 0.47428(19) 0.6504(2) 0.73074(10)
H3 H 0.5407 0.6635 0.7020
H4 H 0.4173 0.5779 0.7041
C6 C 0.52772(19) 0.5966(2) 0.81197(11)
H5 H 0.5629 0.4997 0.8090
H6 H 0.5938 0.6618 0.8356
C7 C 0.4295(2) 0.5903(2) 0.86168(12)
H7 H 0.4674 0.5611 0.9137
H8 H 0.3681 0.5171 0.8411
C8 C 0.3661(2) 0.7377(2) 0.86440(13)
H9 H 0.4261 0.8089 0.8894
H10 H 0.3015 0.7289 0.8949
C9 C 0.30982(18) 0.7913(2) 0.78389(13)
H11 H 0.2425 0.7269 0.7611
H12 H 0.2763 0.8890 0.7869
C10 C 0.42347(14) 1.07632(18) 0.59075(9)
C11 C 0.34111(18) 0.9886(2) 0.54189(10)
H13 H 0.3159 0.8990 0.5588
C12 C 0.2968(2) 1.0367(3) 0.46707(11)
H14 H 0.2405 0.9800 0.4333
C13 C 0.3364(2) 1.1681(3) 0.44345(12)
H15 H 0.3081 1.2022 0.3935
C14 C 0.4181(2) 1.2474(3) 0.49456(12)
H16 H 0.4456 1.3364 0.4782
C15 C 0.61779(15) 1.07813(18) 0.79862(9)
C16 C 0.71501(16) 0.9805(2) 0.81635(10)
H17 H 0.7554 0.9486 0.7774
C17 C 0.75352(17) 0.9293(2) 0.89095(11)
H18 H 0.8186 0.8629 0.9023
C18 C 0.69363(17) 0.9787(2) 0.94797(10)
C19 C 0.59686(18) 1.0760(2) 0.93201(11)
H19 H 0.5574 1.1085 0.9712
C20 C 0.55880(16) 1.1250(2) 0.85733(10)
H20 H 0.4928 1.1902 0.8462
loop_
_geom_bond_atom_site_label_1
_geom_bond_atom_site_label_2
_geom_bond_site_symmetry_1
_geom_bond_site_symmetry_2
Cl1 C18 1_555 1_555
N1 C10 1_555 1_555
O1 H1 1_555 1_555
C1 O1 1_555 1_555
H2 C1 1_555 1_555
C2 C1 1_555 1_555
C3 C2 1_555 1_555
C4 C3 1_555 1_555
C5 C4 1_555 1_555
H3 C5 1_555 1_555
H4 C5 1_555 1_555
C6 C5 1_555 1_555
H5 C6 1_555 1_555
H6 C6 1_555 1_555
C7 C6 1_555 1_555
H7 C7 1_555 1_555
H8 C7 1_555 1_555
C8 C7 1_555 1_555
H9 C8 1_555 1_555
H10 C8 1_555 1_555
C9 C4 1_555 1_555
H11 C9 1_555 1_555
H12 C9 1_555 1_555
C10 C2 1_555 1_555
C11 C10 1_555 1_555
H13 C11 1_555 1_555
C12 C11 1_555 1_555
H14 C12 1_555 1_555
C13 C12 1_555 1_555
H15 C13 1_555 1_555
C14 N1 1_555 1_555
H16 C14 1_555 1_555
C15 C1 1_555 1_555
C16 C15 1_555 1_555
H17 C16 1_555 1_555
C17 C16 1_555 1_555
H18 C17 1_555 1_555
C18 C17 1_555 1_555
C19 C18 1_555 1_555
H19 C19 1_555 1_555
C20 C15 1_555 1_555
H20 C20 1_555 1_555
C8 C9 1_555 1_555
C13 C14 1_555 1_555
C19 C20 1_555 1_555

#END
