
#######################################################################
#
#                 Cambridge Crystallographic Data Centre
#                                CCDC 
#
#######################################################################
#
# If this CIF has been generated from an entry in the Cambridge 
# Structural Database, then it will include bibliographic, chemical, 
# crystal, experimental, refinement or atomic coordinate data resulting 
# from the CCDC's data processing and validation procedures.
#
#######################################################################

data_OFEXAB
_chemical_formula_moiety         'C18 H21 N1 O5'
_chemical_name_systematic        
'1-t-butyl 4-ethyl 2-(2-oxo-1,2-dihydro-3H-indol-3-ylidene)butanedioate'
_symmetry_cell_setting           triclinic
_symmetry_space_group_name_H-M   'P -1'
_symmetry_Int_Tables_number      2
_space_group_name_Hall           '-P 1'
loop_
_symmetry_equiv_pos_site_id
_symmetry_equiv_pos_as_xyz
1 x,y,z
2 -x,-y,-z
_cell_length_a                   7.3616(12)
_cell_length_b                   8.1735(15)
_cell_length_c                   15.570(2)
_cell_angle_alpha                104.261(6)
_cell_angle_beta                 95.584(6)
_cell_angle_gamma                105.352(6)
_cell_volume                     862.238
_exptl_crystal_colour            yellow
_exptl_crystal_description       Block
_cell_formula_units_Z            2
loop_
_atom_site_label
_atom_site_type_symbol
_atom_site_fract_x
_atom_site_fract_y
_atom_site_fract_z
O1 O 0.59046(17) 0.19201(17) 0.25726(8)
O2 O 0.8862(2) 0.6216(2) 0.09533(10)
O3 O 0.9683(2) 0.85935(19) 0.38953(10)
O4 O 0.8775(2) 0.2013(2) 0.21674(12)
O5 O 0.6335(2) 0.4395(2) 0.12498(12)
N1 N 0.8619(2) 0.7718(2) 0.50867(11)
H1 H 0.885933 0.875304 0.545642
C1 C 0.8264(2) 0.5449(2) 0.38156(12)
C2 C 0.7612(2) 0.4716(2) 0.45473(12)
C3 C 0.8315(2) 0.4665(3) 0.29590(13)
C4 C 0.7698(3) 0.2714(3) 0.25325(13)
C5 C 0.7950(3) 0.5317(3) 0.14656(14)
C6 C 0.7835(2) 0.6142(3) 0.53000(13)
C7 C 0.6929(3) 0.3023(3) 0.46316(13)
H2 H 0.680474 0.204354 0.414917
C8 C 0.4969(3) 0.0034(3) 0.20670(14)
C9 C 0.8955(3) 0.7427(3) 0.42368(13)
C10 C 0.6432(3) 0.2800(3) 0.54385(14)
H3 H 0.597240 0.166331 0.549543
C11 C 0.9235(3) 0.5650(3) 0.23367(13)
H4 H 0.964158 0.690776 0.264126
H5 H 1.036868 0.530947 0.220894
C12 C 0.7334(3) 0.5930(3) 0.60995(14)
H6 H 0.747847 0.690350 0.658843
C13 C 0.6609(3) 0.4233(3) 0.61573(15)
H7 H 0.623387 0.405540 0.668892
C14 C 0.4953(4) -0.0173(3) 0.10765(15)
H8 H 0.415925 -0.133525 0.073688
H9 H 0.623325 -0.001426 0.095573
H10 H 0.445782 0.069742 0.090626
C15 C 0.7797(4) 0.6061(4) 0.00845(16)
H11 H 0.656192 0.623867 0.015473
H12 H 0.758862 0.489310 -0.032152
C16 C 0.2969(4) -0.0261(4) 0.2267(2)
H13 H 0.242333 0.057180 0.208551
H14 H 0.300259 -0.009920 0.290129
H15 H 0.220295 -0.144243 0.194310
C17 C 0.5970(5) -0.1126(3) 0.2419(2)
H16 H 0.526390 -0.234705 0.214254
H17 H 0.604557 -0.086274 0.305924
H18 H 0.723756 -0.090407 0.227710
C18 C 0.8934(4) 0.7426(4) -0.0281(2)
H19 H 1.017178 0.726774 -0.032414
H20 H 0.907967 0.857807 0.011147
H21 H 0.829017 0.732014 -0.086755
loop_
_geom_bond_atom_site_label_1
_geom_bond_atom_site_label_2
_geom_bond_site_symmetry_1
_geom_bond_site_symmetry_2
O1 C4 1_555 1_555
O2 C5 1_555 1_555
O3 C9 1_555 1_555
O4 C4 1_555 1_555
O5 C5 1_555 1_555
N1 H1 1_555 1_555
C1 C2 1_555 1_555
C2 C6 1_555 1_555
C3 C1 1_555 1_555
C4 C3 1_555 1_555
C5 C11 1_555 1_555
C6 N1 1_555 1_555
C7 C2 1_555 1_555
H2 C7 1_555 1_555
C8 O1 1_555 1_555
C9 N1 1_555 1_555
C10 C7 1_555 1_555
H3 C10 1_555 1_555
C11 C3 1_555 1_555
H4 C11 1_555 1_555
H5 C11 1_555 1_555
C12 C6 1_555 1_555
H6 C12 1_555 1_555
C13 C10 1_555 1_555
H7 C13 1_555 1_555
C14 C8 1_555 1_555
H8 C14 1_555 1_555
H9 C14 1_555 1_555
H10 C14 1_555 1_555
C15 O2 1_555 1_555
H11 C15 1_555 1_555
H12 C15 1_555 1_555
C16 C8 1_555 1_555
H13 C16 1_555 1_555
H14 C16 1_555 1_555
H15 C16 1_555 1_555
C17 C8 1_555 1_555
H16 C17 1_555 1_555
H17 C17 1_555 1_555
H18 C17 1_555 1_555
C18 C15 1_555 1_555
H19 C18 1_555 1_555
H20 C18 1_555 1_555
H21 C18 1_555 1_555
C1 C9 1_555 1_555
C12 C13 1_555 1_555

#END
