
#######################################################################
#
#                 Cambridge Crystallographic Data Centre
#                                CCDC 
#
#######################################################################
#
# If this CIF has been generated from an entry in the Cambridge 
# Structural Database, then it will include bibliographic, chemical, 
# crystal, experimental, refinement or atomic coordinate data resulting 
# from the CCDC's data processing and validation procedures.
#
#######################################################################

data_OFIFER
_chemical_formula_moiety         'C20 H21 Br1 N2 O1'
_chemical_name_systematic        
N-benzyl-2-bromo-\b-ethenylidene-N\a,N\a-dimethylphenylalaninamide
_symmetry_cell_setting           monoclinic
_symmetry_space_group_name_H-M   'P 21'
_symmetry_Int_Tables_number      4
_space_group_name_Hall           'P 2yb'
loop_
_symmetry_equiv_pos_site_id
_symmetry_equiv_pos_as_xyz
1 x,y,z
2 -x,1/2+y,-z
_cell_length_a                   8.7368(2)
_cell_length_b                   19.9238(6)
_cell_length_c                   10.3436(3)
_cell_angle_alpha                90
_cell_angle_beta                 90.0023(19)
_cell_angle_gamma                90
_cell_volume                     1800.51
_exptl_crystal_colour            colorless
_exptl_crystal_description       block
_cell_formula_units_Z            4
loop_
_atom_site_label
_atom_site_type_symbol
_atom_site_fract_x
_atom_site_fract_y
_atom_site_fract_z
Br1 Br 0.35373(13) 0.38089(4) 0.58587(11)
O1 O 0.7908(8) 0.6015(4) 0.5823(8)
N1 N 0.5476(11) 0.6353(5) 0.5453(8)
H1 H 0.472(14) 0.622(7) 0.523(12)
N2 N 0.6971(9) 0.5040(4) 0.3798(8)
C1 C 0.4122(11) 0.4333(5) 0.7313(10)
C2 C 0.3218(12) 0.4336(6) 0.8399(10)
H2 H 0.231599 0.407013 0.842499
C3 C 0.3605(15) 0.4716(5) 0.9433(10)
H3 H 0.296370 0.472744 1.017394
C4 C 0.4953(14) 0.5089(7) 0.9402(10)
H4 H 0.523795 0.534967 1.013299
C5 C 0.5882(12) 0.5084(6) 0.8316(10)
H5 H 0.679539 0.534251 0.830726
C6 C 0.5482(11) 0.4701(5) 0.7229(8)
C7 C 0.6515(12) 0.4698(5) 0.6098(8)
C8 C 0.7754(13) 0.4320(6) 0.6108(10)
C9 C 0.8936(14) 0.3932(8) 0.6150(13)
H6 H 0.982963 0.407831 0.591040
H7 H 0.883243 0.352001 0.641680
C10 C 0.6132(10) 0.5176(5) 0.4999(8)
H8 H 0.500652 0.516036 0.482377
C11 C 0.6582(12) 0.5889(5) 0.5462(8)
C12 C 0.5816(14) 0.7055(5) 0.5734(10)
H9 H 0.515575 0.733835 0.518024
H10 H 0.689064 0.714396 0.548225
C13 C 0.5609(11) 0.7274(5) 0.7107(9)
C14 C 0.4865(13) 0.6907(6) 0.8034(10)
H11 H 0.451032 0.646863 0.782963
C15 C 0.4617(12) 0.7163(6) 0.9273(11)
H12 H 0.409776 0.690043 0.990152
C16 C 0.5129(16) 0.7801(7) 0.9583(12)
H13 H 0.495157 0.797967 1.042126
C17 C 0.589(2) 0.8171(7) 0.8678(11)
H14 H 0.625612 0.860670 0.888844
C18 C 0.6134(16) 0.7909(5) 0.7440(13)
H15 H 0.666604 0.816999 0.681685
C19 C 0.6403(13) 0.4402(5) 0.3215(10)
H16 H 0.529853 0.443661 0.306224
H17 H 0.660807 0.402874 0.380595
H18 H 0.692891 0.432287 0.239199
C20 C 0.6789(12) 0.5568(6) 0.2851(9)
H19 H 0.737206 0.545526 0.207147
H20 H 0.716782 0.599192 0.320963
H21 H 0.570317 0.561488 0.263009
Br2 Br -0.15012(12) 0.74266(5) 0.25742(12)
O2 O 0.2890(8) 0.5268(4) 0.3024(7)
N3 N 0.0470(9) 0.4926(4) 0.3462(8)
H22 H -0.045921 0.504492 0.369833
N4 N 0.1979(9) 0.6256(4) 0.5056(8)
C21 C -0.0667(12) 0.6849(5) 0.1313(11)
C22 C -0.1453(15) 0.6783(6) 0.0129(11)
H23 H -0.239015 0.701292 -0.001178
C23 C -0.0840(14) 0.6377(6) -0.0825(11)
H24 H -0.136157 0.632375 -0.162422
C24 C 0.0546(13) 0.6047(6) -0.0612(10)
H25 H 0.097185 0.577006 -0.126709
C25 C 0.1296(14) 0.6125(6) 0.0550(9)
H26 H 0.224147 0.589882 0.067947
C26 C 0.0722(10) 0.6519(5) 0.1533(9)
C27 C 0.1600(12) 0.6586(4) 0.2762(7)
C28 C 0.2780(12) 0.6989(6) 0.2825(9)
C29 C 0.3895(12) 0.7424(9) 0.2827(10)
H27 H 0.470861 0.735347 0.329273
H28 H 0.382151 0.778597 0.236143
C30 C 0.1170(10) 0.6106(5) 0.3860(8)
H29 H 0.004169 0.613216 0.401624
C31 C 0.1586(12) 0.5394(5) 0.3396(7)
C32 C 0.0785(13) 0.4226(5) 0.3147(11)
H30 H 0.041865 0.393960 0.386596
H31 H 0.190628 0.416405 0.307701
C33 C 0.0053(11) 0.3994(5) 0.1918(9)
C34 C -0.0377(13) 0.3314(5) 0.1803(12)
H32 H -0.021872 0.301828 0.251074
C35 C -0.1024(14) 0.3073(6) 0.0679(14)
H33 H -0.130443 0.261353 0.061125
C36 C -0.1262(16) 0.3501(7) -0.0344(12)
H34 H -0.171419 0.333407 -0.111396
C37 C -0.0856(15) 0.4168(7) -0.0273(11)
H35 H -0.099333 0.445727 -0.099428
C38 C -0.0236(12) 0.4412(6) 0.0885(10)
H36 H -0.000885 0.487666 0.095997
C39 C 0.1368(14) 0.6880(6) 0.5636(10)
H37 H 0.133041 0.723362 0.497782
H38 H 0.203410 0.702281 0.634736
H39 H 0.033392 0.679789 0.596817
C40 C 0.1801(11) 0.5704(6) 0.6018(9)
H40 H 0.238003 0.581450 0.680173
H41 H 0.219135 0.528439 0.565033
H42 H 0.071646 0.565114 0.623574
loop_
_geom_bond_atom_site_label_1
_geom_bond_atom_site_label_2
_geom_bond_site_symmetry_1
_geom_bond_site_symmetry_2
Br1 C1 1_555 1_555
O1 C11 1_555 1_555
N1 H1 1_555 1_555
N2 C10 1_555 1_555
C1 C2 1_555 1_555
C2 H2 1_555 1_555
C3 C2 1_555 1_555
H3 C3 1_555 1_555
C4 C3 1_555 1_555
H4 C4 1_555 1_555
C5 C4 1_555 1_555
H5 C5 1_555 1_555
C6 C1 1_555 1_555
C7 C6 1_555 1_555
C8 C7 1_555 1_555
C9 C8 1_555 1_555
H6 C9 1_555 1_555
H7 C9 1_555 1_555
C10 C7 1_555 1_555
H8 C10 1_555 1_555
C11 N1 1_555 1_555
C12 N1 1_555 1_555
H9 C12 1_555 1_555
H10 C12 1_555 1_555
C13 C12 1_555 1_555
C14 C13 1_555 1_555
H11 C14 1_555 1_555
C15 C14 1_555 1_555
H12 C15 1_555 1_555
C16 C15 1_555 1_555
H13 C16 1_555 1_555
C17 C16 1_555 1_555
H14 C17 1_555 1_555
C18 C13 1_555 1_555
H15 C18 1_555 1_555
C19 N2 1_555 1_555
H16 C19 1_555 1_555
H17 C19 1_555 1_555
H18 C19 1_555 1_555
C20 N2 1_555 1_555
H19 C20 1_555 1_555
H20 C20 1_555 1_555
H21 C20 1_555 1_555
Br2 C21 1_555 1_555
O2 C31 1_555 1_555
N3 H22 1_555 1_555
N4 C30 1_555 1_555
C21 C22 1_555 1_555
C22 H23 1_555 1_555
C23 C22 1_555 1_555
H24 C23 1_555 1_555
C24 C23 1_555 1_555
H25 C24 1_555 1_555
C25 C24 1_555 1_555
H26 C25 1_555 1_555
C26 C21 1_555 1_555
C27 C26 1_555 1_555
C28 C27 1_555 1_555
C29 C28 1_555 1_555
H27 C29 1_555 1_555
H28 C29 1_555 1_555
C30 C27 1_555 1_555
H29 C30 1_555 1_555
C31 N3 1_555 1_555
C32 N3 1_555 1_555
H30 C32 1_555 1_555
H31 C32 1_555 1_555
C33 C32 1_555 1_555
C34 C33 1_555 1_555
H32 C34 1_555 1_555
C35 C34 1_555 1_555
H33 C35 1_555 1_555
C36 C35 1_555 1_555
H34 C36 1_555 1_555
C37 C36 1_555 1_555
H35 C37 1_555 1_555
C38 C33 1_555 1_555
H36 C38 1_555 1_555
C39 N4 1_555 1_555
H37 C39 1_555 1_555
H38 C39 1_555 1_555
H39 C39 1_555 1_555
C40 N4 1_555 1_555
H40 C40 1_555 1_555
H41 C40 1_555 1_555
H42 C40 1_555 1_555
C5 C6 1_555 1_555
C10 C11 1_555 1_555
C17 C18 1_555 1_555
C25 C26 1_555 1_555
C30 C31 1_555 1_555
C37 C38 1_555 1_555

#END
