
#######################################################################
#
#                 Cambridge Crystallographic Data Centre
#                                CCDC 
#
#######################################################################
#
# If this CIF has been generated from an entry in the Cambridge 
# Structural Database, then it will include bibliographic, chemical, 
# crystal, experimental, refinement or atomic coordinate data resulting 
# from the CCDC's data processing and validation procedures.
#
#######################################################################

data_OFIMEW01
_chemical_formula_moiety         'C25 H21 N5 O8'
_chemical_name_systematic        
'Ethyl (6-(6-(ethoxycarbonyl)picolinamidocarbonyl)-picolinamidocarbonyl)picolinate'
_symmetry_cell_setting           monoclinic
_symmetry_space_group_name_H-M   'P 21/c'
_symmetry_Int_Tables_number      14
_space_group_name_Hall           '-P 2ybc'
loop_
_symmetry_equiv_pos_site_id
_symmetry_equiv_pos_as_xyz
1 x,y,z
2 -x,1/2+y,1/2-z
3 -x,-y,-z
4 x,1/2-y,1/2+z
_cell_length_a                   7.4952(8)
_cell_length_b                   19.998(2)
_cell_length_c                   15.9966(17)
_cell_angle_alpha                90
_cell_angle_beta                 96.3760(10)
_cell_angle_gamma                90
_cell_volume                     2382.88
_exptl_crystal_colour            colorless
_exptl_crystal_description       prism
_cell_formula_units_Z            4
_exptl_crystal_recrystallization_method 'dmf/diethyl ether'
loop_
_atom_site_label
_atom_site_type_symbol
_atom_site_fract_x
_atom_site_fract_y
_atom_site_fract_z
O1 O -0.13320(11) 0.87694(4) 0.72665(5)
O2 O 0.06124(11) 0.85871(4) 0.63149(5)
O3 O -0.16781(12) 0.59423(4) 0.88294(6)
O4 O -0.33384(11) 0.65393(4) 1.02334(5)
O5 O -0.24510(13) 0.99672(4) 0.94666(5)
O6 O 0.08420(13) 1.00415(4) 0.86648(5)
O7 O 0.21781(10) 0.70449(4) 0.93765(4)
O8 O 0.37042(9) 0.67410(4) 0.82982(4)
N1 N -0.10247(10) 0.74283(4) 0.76977(5)
N2 N -0.21026(12) 0.70511(4) 0.91366(5)
N3 N -0.25843(11) 0.82284(4) 0.97648(5)
N4 N -0.04508(12) 0.91296(4) 0.92339(5)
N5 N 0.20551(11) 0.83332(4) 0.87730(5)
C1 C -0.04508(13) 0.83975(5) 0.68831(6)
C2 C -0.03851(12) 0.76501(5) 0.70001(6)
C3 C 0.02896(13) 0.72245(5) 0.64172(6)
H1 H 0.0764 0.7400 0.5936
C4 C 0.02507(13) 0.65399(5) 0.65576(6)
H2 H 0.0657 0.6237 0.6162
C5 C -0.03894(13) 0.63047(5) 0.72829(7)
H3 H -0.0419 0.5839 0.7398
C6 C -0.09874(12) 0.67674(5) 0.78370(6)
C7 C -0.16141(13) 0.65290(5) 0.86502(7)
C8 C -0.29462(13) 0.70359(5) 0.98611(6)
C9 C -0.34013(13) 0.77315(5) 1.01301(6)
C10 C -0.46393(14) 0.78407(7) 1.07012(7)
H4 H -0.5180 0.7478 1.0961
C11 C -0.50571(15) 0.84953(7) 1.08782(8)
H5 H -0.5904 0.8588 1.1263
C12 C -0.42408(15) 0.90164(6) 1.04950(7)
H6 H -0.4530 0.9468 1.0603
C13 C -0.29831(14) 0.88586(5) 0.99470(6)
C14 C -0.19693(15) 0.93888(5) 0.95273(6)
C15 C 0.08115(15) 0.94475(5) 0.88163(6)
C16 C 0.22015(13) 0.89727(5) 0.85479(6)
C17 C 0.35075(15) 0.92050(6) 0.80694(7)
H7 H 0.3587 0.9667 0.7939
C18 C 0.46885(15) 0.87489(6) 0.77877(8)
H8 H 0.5603 0.8892 0.7462
C19 C 0.45178(14) 0.80778(6) 0.79891(7)
H9 H 0.5286 0.7751 0.7788
C20 C 0.31961(12) 0.78940(5) 0.84913(6)
C21 C 0.29545(12) 0.71868(5) 0.87815(6)
C22 C 0.06263(18) 0.92999(5) 0.61175(7)
H10 H 0.0827 0.9568 0.6640
H11 H -0.0532 0.9435 0.5806
C23 C 0.2126(2) 0.94046(6) 0.55884(9)
H12 H 0.3267 0.9282 0.5912
H13 H 0.2163 0.9876 0.5423
H14 H 0.1931 0.9124 0.5084
C24 C 0.35652(15) 0.60428(5) 0.85650(7)
H15 H 0.2315 0.5941 0.8666
H16 H 0.4356 0.5965 0.9094
C25 C 0.41238(17) 0.56010(6) 0.78771(7)
H17 H 0.3290 0.5662 0.7366
H18 H 0.4104 0.5133 0.8056
H19 H 0.5341 0.5721 0.7762
H20 H -0.0313(18) 0.8692(7) 0.9284(8)
H21 H -0.1908(19) 0.7449(8) 0.8932(9)
loop_
_geom_bond_atom_site_label_1
_geom_bond_atom_site_label_2
_geom_bond_site_symmetry_1
_geom_bond_site_symmetry_2
O1 C1 1_555 1_555
O2 C1 1_555 1_555
O3 C7 1_555 1_555
O4 C8 1_555 1_555
O5 C14 1_555 1_555
O6 C15 1_555 1_555
O7 C21 1_555 1_555
O8 C21 1_555 1_555
N1 C2 1_555 1_555
N2 C7 1_555 1_555
N3 C9 1_555 1_555
N4 C14 1_555 1_555
N5 C16 1_555 1_555
C1 C2 1_555 1_555
C2 C3 1_555 1_555
C3 H1 1_555 1_555
C4 C3 1_555 1_555
H2 C4 1_555 1_555
C5 C4 1_555 1_555
H3 C5 1_555 1_555
C6 N1 1_555 1_555
C7 C6 1_555 1_555
C8 N2 1_555 1_555
C9 C8 1_555 1_555
C10 C9 1_555 1_555
H4 C10 1_555 1_555
C11 C10 1_555 1_555
H5 C11 1_555 1_555
C12 C11 1_555 1_555
H6 C12 1_555 1_555
C13 N3 1_555 1_555
C14 C13 1_555 1_555
C15 N4 1_555 1_555
C16 C15 1_555 1_555
C17 C16 1_555 1_555
H7 C17 1_555 1_555
C18 C17 1_555 1_555
H8 C18 1_555 1_555
C19 C18 1_555 1_555
H9 C19 1_555 1_555
C20 N5 1_555 1_555
C21 C20 1_555 1_555
C22 O2 1_555 1_555
H10 C22 1_555 1_555
H11 C22 1_555 1_555
C23 C22 1_555 1_555
H12 C23 1_555 1_555
H13 C23 1_555 1_555
H14 C23 1_555 1_555
C24 O8 1_555 1_555
H15 C24 1_555 1_555
H16 C24 1_555 1_555
C25 C24 1_555 1_555
H17 C25 1_555 1_555
H18 C25 1_555 1_555
H19 C25 1_555 1_555
H20 N4 1_555 1_555
H21 N2 1_555 1_555
C5 C6 1_555 1_555
C12 C13 1_555 1_555
C19 C20 1_555 1_555

#END
