
#######################################################################
#
#                 Cambridge Crystallographic Data Centre
#                                CCDC 
#
#######################################################################
#
# If this CIF has been generated from an entry in the Cambridge 
# Structural Database, then it will include bibliographic, chemical, 
# crystal, experimental, refinement or atomic coordinate data resulting 
# from the CCDC's data processing and validation procedures.
#
#######################################################################

data_OFITAB
_chemical_formula_moiety         'C32 H50 B2 N2 S2'
_chemical_name_systematic        
4,4,10,10-tetraethyl-3,9-dihexyl-4,10-dihydro-4,5,10,11-thieno[3',2':3,4][1,2]azaborolo[1,5-a]thieno[3',2':3,4][1,2]azaborolo[1,5-d]pyrazine
_symmetry_cell_setting           triclinic
_symmetry_space_group_name_H-M   'P -1'
_symmetry_Int_Tables_number      2
_space_group_name_Hall           '-P 1'
loop_
_symmetry_equiv_pos_site_id
_symmetry_equiv_pos_as_xyz
1 x,y,z
2 -x,-y,-z
_cell_length_a                   7.9581(11)
_cell_length_b                   8.6819(14)
_cell_length_c                   11.7951(11)
_cell_angle_alpha                95.620(11)
_cell_angle_beta                 94.068(9)
_cell_angle_gamma                95.384(14)
_cell_volume                     804.8
_cell_formula_units_Z            1
loop_
_atom_site_label
_atom_site_type_symbol
_atom_site_fract_x
_atom_site_fract_y
_atom_site_fract_z
S1 S 0.38501(11) 0.44035(8) 0.13775(6)
N1 N 0.4479(4) -0.0093(3) 0.10742(19)
C1 C 0.3606(4) 0.1893(4) 0.2415(2)
C2 C 0.3137(5) 0.3104(4) 0.3202(2)
C3 C 0.3236(5) 0.4498(4) 0.2746(3)
H1 H 0.2992 0.5418 0.3145
C4 C 0.4016(4) 0.2458(4) 0.1409(2)
C5 C 0.5183(5) -0.0489(4) 0.3259(2)
H2 H 0.4701 -0.0532 0.3990
H3 H 0.5389 -0.1541 0.2989
C6 C 0.2000(5) -0.1040(4) 0.2280(3)
H4 H 0.2224 -0.2095 0.2033
H5 H 0.1610 -0.1040 0.3041
C7 C 0.4526(4) 0.1294(4) 0.0599(2)
C8 C 0.4952(4) -0.1344(4) 0.0500(2)
H6 H 0.4935 -0.2271 0.0835
C9 C 0.6877(6) 0.0487(5) 0.3464(4)
H7 H 0.7380 0.0546 0.2751
H8 H 0.7610 0.0019 0.3982
H9 H 0.6714 0.1515 0.3788
C10 C 0.0565(5) -0.0613(5) 0.1483(4)
H10 H 0.0942 -0.0561 0.0731
H11 H 0.0234 0.0380 0.1764
H12 H -0.0384 -0.1389 0.1452
C11 C 0.2594(5) 0.2850(4) 0.4371(3)
H13 H 0.1525 0.2197 0.4279
H14 H 0.3422 0.2277 0.4746
C12 C 0.2384(5) 0.4285(4) 0.5150(2)
H15 H 0.1561 0.4871 0.4783
H16 H 0.3455 0.4935 0.5266
C13 C 0.1807(5) 0.3922(4) 0.6311(3)
H17 H 0.0711 0.3314 0.6196
H18 H 0.2602 0.3292 0.6661
C14 C 0.1675(5) 0.5359(4) 0.7117(2)
H19 H 0.0825 0.5953 0.6788
H20 H 0.2750 0.6002 0.7188
C15 C 0.1215(5) 0.5012(4) 0.8303(3)
H21 H 0.0161 0.4339 0.8233
H22 H 0.2089 0.4458 0.8647
C16 C 0.1024(6) 0.6462(5) 0.9079(3)
H23 H 0.0080 0.6957 0.8786
H24 H 0.2038 0.7164 0.9114
H25 H 0.0832 0.6189 0.9832
B1 B 0.3771(5) 0.0066(4) 0.2367(3)
S1A S 0.61499(11) -0.44035(8) -0.13775(6)
N1A N 0.5521(4) 0.0093(3) -0.10742(19)
C1A C 0.6394(4) -0.1893(4) -0.2415(2)
C2A C 0.6863(5) -0.3104(4) -0.3202(2)
C3A C 0.6764(5) -0.4498(4) -0.2746(3)
H1A H 0.7008 -0.5418 -0.3145
C4A C 0.5984(4) -0.2458(4) -0.1409(2)
C5A C 0.4817(5) 0.0489(4) -0.3259(2)
H2A H 0.5299 0.0532 -0.3990
H3A H 0.4611 0.1541 -0.2989
C6A C 0.8000(5) 0.1040(4) -0.2280(3)
H4A H 0.7776 0.2095 -0.2033
H5A H 0.8390 0.1040 -0.3041
C7A C 0.5474(4) -0.1294(4) -0.0599(2)
C8A C 0.5048(4) 0.1344(4) -0.0500(2)
H6A H 0.5065 0.2271 -0.0835
C9A C 0.3123(6) -0.0487(5) -0.3464(4)
H7A H 0.2620 -0.0546 -0.2751
H8A H 0.2390 -0.0019 -0.3982
H9A H 0.3286 -0.1515 -0.3788
C10A C 0.9435(5) 0.0613(5) -0.1483(4)
H10A H 0.9058 0.0561 -0.0731
H11A H 0.9766 -0.0380 -0.1764
H12A H 1.0384 0.1389 -0.1452
C11A C 0.7406(5) -0.2850(4) -0.4371(3)
H13A H 0.8475 -0.2197 -0.4279
H14A H 0.6578 -0.2277 -0.4746
C12A C 0.7616(5) -0.4285(4) -0.5150(2)
H15A H 0.8439 -0.4871 -0.4783
H16A H 0.6545 -0.4935 -0.5266
C13A C 0.8193(5) -0.3922(4) -0.6311(3)
H17A H 0.9289 -0.3314 -0.6196
H18A H 0.7398 -0.3292 -0.6661
C14A C 0.8325(5) -0.5359(4) -0.7117(2)
H19A H 0.9175 -0.5953 -0.6788
H20A H 0.7250 -0.6002 -0.7188
C15A C 0.8785(5) -0.5012(4) -0.8303(3)
H21A H 0.9839 -0.4339 -0.8233
H22A H 0.7911 -0.4458 -0.8647
C16A C 0.8976(6) -0.6462(5) -0.9079(3)
H23A H 0.9920 -0.6957 -0.8786
H24A H 0.7962 -0.7164 -0.9114
H25A H 0.9168 -0.6189 -0.9832
B1A B 0.6229(5) -0.0066(4) -0.2367(3)
loop_
_geom_bond_atom_site_label_1
_geom_bond_atom_site_label_2
_geom_bond_site_symmetry_1
_geom_bond_site_symmetry_2
S1 C3 1_555 1_555
N1 C7 1_555 1_555
C1 C2 1_555 1_555
C2 C3 1_555 1_555
C3 H1 1_555 1_555
C4 S1 1_555 1_555
C5 H2 1_555 1_555
H3 C5 1_555 1_555
C6 H4 1_555 1_555
H5 C6 1_555 1_555
C7 C4 1_555 1_555
C8 N1 1_555 1_555
H6 C8 1_555 1_555
C9 C5 1_555 1_555
H7 C9 1_555 1_555
H8 C9 1_555 1_555
H9 C9 1_555 1_555
C10 C6 1_555 1_555
H10 C10 1_555 1_555
H11 C10 1_555 1_555
H12 C10 1_555 1_555
C11 C2 1_555 1_555
H13 C11 1_555 1_555
H14 C11 1_555 1_555
C12 C11 1_555 1_555
H15 C12 1_555 1_555
H16 C12 1_555 1_555
C13 C12 1_555 1_555
H17 C13 1_555 1_555
H18 C13 1_555 1_555
C14 C13 1_555 1_555
H19 C14 1_555 1_555
H20 C14 1_555 1_555
C15 C14 1_555 1_555
H21 C15 1_555 1_555
H22 C15 1_555 1_555
C16 C15 1_555 1_555
H23 C16 1_555 1_555
H24 C16 1_555 1_555
H25 C16 1_555 1_555
B1 N1 1_555 1_555
S1A C3A 1_555 1_555
N1A C7A 1_555 1_555
C1A C2A 1_555 1_555
C2A C3A 1_555 1_555
C3A H1A 1_555 1_555
C4A S1A 1_555 1_555
C5A H2A 1_555 1_555
H3A C5A 1_555 1_555
C6A H4A 1_555 1_555
H5A C6A 1_555 1_555
C7A C8 1_555 1_555
C8A C7 1_555 1_555
H6A C8A 1_555 1_555
C9A C5A 1_555 1_555
H7A C9A 1_555 1_555
H8A C9A 1_555 1_555
H9A C9A 1_555 1_555
C10A C6A 1_555 1_555
H10A C10A 1_555 1_555
H11A C10A 1_555 1_555
H12A C10A 1_555 1_555
C11A C2A 1_555 1_555
H13A C11A 1_555 1_555
H14A C11A 1_555 1_555
C12A C11A 1_555 1_555
H15A C12A 1_555 1_555
H16A C12A 1_555 1_555
C13A C12A 1_555 1_555
H17A C13A 1_555 1_555
H18A C13A 1_555 1_555
C14A C13A 1_555 1_555
H19A C14A 1_555 1_555
H20A C14A 1_555 1_555
C15A C14A 1_555 1_555
H21A C15A 1_555 1_555
H22A C15A 1_555 1_555
C16A C15A 1_555 1_555
H23A C16A 1_555 1_555
H24A C16A 1_555 1_555
H25A C16A 1_555 1_555
B1A N1A 1_555 1_555
C1 C4 1_555 1_555
C1 B1 1_555 1_555
C5 B1 1_555 1_555
C6 B1 1_555 1_555
N1A C8A 1_555 1_555
C1A C4A 1_555 1_555
C1A B1A 1_555 1_555
C4A C7A 1_555 1_555
C5A B1A 1_555 1_555
C6A B1A 1_555 1_555

#END
