
#######################################################################
#
#                 Cambridge Crystallographic Data Centre
#                                CCDC 
#
#######################################################################
#
# If this CIF has been generated from an entry in the Cambridge 
# Structural Database, then it will include bibliographic, chemical, 
# crystal, experimental, refinement or atomic coordinate data resulting 
# from the CCDC's data processing and validation procedures.
#
#######################################################################

data_OFOGAR01
_chemical_compound_source        'fruit of Melicope elleryana'
_chemical_formula_moiety         'C22 H22 O7'
_chemical_name_systematic        
3',5-Dihydroxy-3,4'-dimethoxy-7-(3-methylbut-2-enyloxy)flavone
_symmetry_cell_setting           triclinic
_symmetry_space_group_name_H-M   'P -1'
_symmetry_Int_Tables_number      2
_space_group_name_Hall           '-P 1'
loop_
_symmetry_equiv_pos_site_id
_symmetry_equiv_pos_as_xyz
1 x,y,z
2 -x,-y,-z
_cell_length_a                   8.634(3)
_cell_length_b                   18.651(4)
_cell_length_c                   6.026(2)
_cell_angle_alpha                95.58(2)
_cell_angle_beta                 97.49(3)
_cell_angle_gamma                87.75(2)
_cell_volume                     957.197
_exptl_crystal_colour            yellow
_exptl_crystal_description       prismatic
_cell_formula_units_Z            2
loop_
_atom_site_label
_atom_site_type_symbol
_atom_site_fract_x
_atom_site_fract_y
_atom_site_fract_z
O1 O 0.8844(2) 0.25211(11) 0.2822(3)
O2 O 1.1667(3) 0.10337(12) 0.3167(4)
O3 O 1.2683(3) 0.17786(12) -0.0028(4)
O4 O 1.2245(3) 0.28240(14) -0.2677(4)
O5 O 0.7990(3) 0.44607(12) -0.1557(4)
O6 O 0.5576(3) 0.21086(14) 0.8413(4)
O7 O 0.6493(3) 0.08837(13) 1.0157(4)
C1 C 0.9633(3) 0.19174(15) 0.3535(5)
C2 C 1.0925(3) 0.16709(16) 0.2595(5)
C3 C 1.1501(3) 0.20167(16) 0.0836(5)
C4 C 1.0625(3) 0.26470(16) 0.0152(5)
C5 C 1.1015(4) 0.30335(17) -0.1586(5)
C6 C 1.0137(4) 0.36309(17) -0.2228(5)
C7 C 0.8881(3) 0.38606(17) -0.1109(5)
C8 C 0.8437(3) 0.34861(17) 0.0588(5)
C9 C 0.9309(3) 0.28888(16) 0.1176(5)
C10 C 0.8877(3) 0.16251(15) 0.5294(5)
C11 C 0.7573(3) 0.19856(16) 0.6048(5)
C12 C 0.6818(3) 0.17309(17) 0.7681(5)
C13 C 0.7350(3) 0.10887(17) 0.8581(5)
C14 C 0.8632(4) 0.07255(17) 0.7868(5)
C15 C 0.9405(4) 0.09910(17) 0.6237(5)
C16 C 1.3213(5) 0.1108(2) 0.4345(7)
C17 C 0.8461(4) 0.49243(18) -0.3128(6)
C18 C 0.7409(4) 0.55723(18) -0.3030(6)
C19 C 0.6433(4) 0.58178(18) -0.4670(6)
C20 C 0.6991(4) 0.0251(2) 1.1247(6)
C21 C 0.5410(5) 0.6476(2) -0.4214(8)
C22 C 0.6196(4) 0.5479(2) -0.7038(7)
H1 H 1.261(5) 0.244(2) -0.199(7)
H2 H 1.0388 0.3881 -0.3426
H3 H 0.7553 0.3640 0.1314
H4 H 0.7194 0.2418 0.5421
H5 H 0.514(5) 0.189(2) 0.957(7)
H6 H 0.8995 0.0291 0.8488
H7 H 1.0302 0.0739 0.5765
H8 H 0.7645 0.5789 -0.2073
H9 H 0.6888 0.0335 1.2799
H10 H 0.6364 -0.0140 1.0589
H11 H 0.8054 0.0140 1.1067
H12 H 1.3179 0.1098 0.5910
H13 H 1.3865 0.0722 0.3828
H14 H 1.3619 0.1553 0.4074
H15 H 0.9516 0.5057 -0.2703
H16 H 0.8349 0.4685 -0.4604
H17 H 0.5321 0.6549 -0.2656
H18 H 0.5865 0.6886 -0.4669
H19 H 0.4404 0.6410 -0.5041
H20 H 0.5876 0.4997 -0.7053
H21 H 0.5413 0.5745 -0.7897
H22 H 0.7147 0.5481 -0.7672
loop_
_geom_bond_atom_site_label_1
_geom_bond_atom_site_label_2
_geom_bond_site_symmetry_1
_geom_bond_site_symmetry_2
O1 C1 1_555 1_555
O2 C2 1_555 1_555
O3 C3 1_555 1_555
O4 C5 1_555 1_555
O5 C7 1_555 1_555
O6 C12 1_555 1_555
O7 C13 1_555 1_555
C1 C2 1_555 1_555
C2 C3 1_555 1_555
C3 C4 1_555 1_555
C4 C5 1_555 1_555
C5 C6 1_555 1_555
C6 C7 1_555 1_555
C7 C8 1_555 1_555
C8 C9 1_555 1_555
C9 O1 1_555 1_555
C10 C1 1_555 1_555
C11 C10 1_555 1_555
C12 C11 1_555 1_555
C13 C12 1_555 1_555
C14 C13 1_555 1_555
C15 C10 1_555 1_555
C16 O2 1_555 1_555
C17 O5 1_555 1_555
C18 C17 1_555 1_555
C19 C18 1_555 1_555
C20 O7 1_555 1_555
C21 C19 1_555 1_555
C22 C19 1_555 1_555
H1 O4 1_555 1_555
H2 C6 1_555 1_555
H3 C8 1_555 1_555
H4 C11 1_555 1_555
H5 O6 1_555 1_555
H6 C14 1_555 1_555
H7 C15 1_555 1_555
H8 C18 1_555 1_555
H9 C20 1_555 1_555
H10 C20 1_555 1_555
H11 C20 1_555 1_555
H12 C16 1_555 1_555
H13 C16 1_555 1_555
H14 C16 1_555 1_555
H15 C17 1_555 1_555
H16 C17 1_555 1_555
H17 C21 1_555 1_555
H18 C21 1_555 1_555
H19 C21 1_555 1_555
H20 C22 1_555 1_555
H21 C22 1_555 1_555
H22 C22 1_555 1_555
C4 C9 1_555 1_555
C14 C15 1_555 1_555

#END
