
#######################################################################
#
#                 Cambridge Crystallographic Data Centre
#                                CCDC 
#
#######################################################################
#
# If this CIF has been generated from an entry in the Cambridge 
# Structural Database, then it will include bibliographic, chemical, 
# crystal, experimental, refinement or atomic coordinate data resulting 
# from the CCDC's data processing and validation procedures.
#
#######################################################################

data_OFONUV
_chemical_formula_moiety         'C22 H16 N2 O2 S1'
_chemical_name_systematic        
'2-cyano-3-[5-(9-ethyl-9H-carbazol-3-yl)thiophen-2-yl]prop-2-enoic acid'
_symmetry_cell_setting           triclinic
_symmetry_space_group_name_H-M   'P -1'
_symmetry_Int_Tables_number      2
_space_group_name_Hall           '-P 1'
loop_
_symmetry_equiv_pos_site_id
_symmetry_equiv_pos_as_xyz
1 x,y,z
2 -x,-y,-z
_cell_length_a                   9.1603(4)
_cell_length_b                   9.6599(5)
_cell_length_c                   11.0662(7)
_cell_angle_alpha                73.620(5)
_cell_angle_beta                 69.365(5)
_cell_angle_gamma                78.751(4)
_cell_volume                     874.197
_exptl_crystal_colour            red
_exptl_crystal_description       needle
_cell_formula_units_Z            2
loop_
_atom_site_label
_atom_site_type_symbol
_atom_site_fract_x
_atom_site_fract_y
_atom_site_fract_z
S1 S 0.980954(15) 0.533523(17) 0.323130(17)
N1 N 0.56858(6) 1.13212(7) 0.08480(6)
C1 C 0.79127(6) 0.57129(7) 0.31646(6)
N2 N 1.34337(8) 0.51177(8) 0.29757(9)
O1 O 1.30116(6) 0.02394(6) 0.52164(6)
O2 O 1.48670(5) 0.17806(6) 0.41296(6)
H1 H 1.5452 0.1057 0.4386
C2 C 0.28919(8) 1.22316(9) 0.09160(8)
H2 H 0.3109 1.3167 0.0364
C3 C 0.80011(7) 0.96353(8) 0.12655(7)
H3 H 0.8749 1.0314 0.0791
C4 C 0.71308(7) 0.44753(8) 0.37139(7)
H4 H 0.6075 0.4461 0.3768
C5 C 0.80666(7) 0.32427(8) 0.41825(7)
H5 H 0.7703 0.2313 0.4585
C6 C 0.65068(9) 1.25590(9) -0.00336(8)
H6 H 0.5833 1.3191 -0.0546
H7 H 0.7475 1.2205 -0.0673
C7 C 0.10405(8) 1.04537(9) 0.22589(8)
H8 H -0.0013 1.0223 0.2619
C8 C 0.37838(6) 0.97897(7) 0.20288(6)
C9 C 1.07785(6) 0.24669(7) 0.43577(6)
H9 H 1.0482 0.1519 0.4799
C10 C 0.22412(7) 0.94159(8) 0.25441(7)
H10 H 0.2017 0.8474 0.3077
C11 C 0.69430(13) 1.34569(11) 0.07026(12)
H11 H 0.7489 1.4270 0.0061
H12 H 0.7631 1.2844 0.1196
H13 H 0.5988 1.3831 0.1323
C12 C 0.57600(6) 0.76071(7) 0.27141(6)
H14 H 0.5012 0.6931 0.3205
C13 C 1.23013(6) 0.26549(7) 0.41446(6)
C14 C 0.95804(6) 0.35210(7) 0.39977(6)
C15 C 0.73581(6) 0.71949(7) 0.25792(6)
C16 C 1.29221(7) 0.40151(8) 0.34946(7)
C17 C 0.40932(7) 1.11974(8) 0.12283(7)
C18 C 0.84482(6) 0.82323(8) 0.18618(7)
H15 H 0.9524 0.7952 0.1789
C19 C 1.34276(6) 0.14467(7) 0.45459(7)
C20 C 0.64128(7) 1.00232(7) 0.13828(6)
C21 C 0.52830(6) 0.90187(7) 0.21199(6)
C22 C 0.13750(8) 1.18353(9) 0.14450(8)
H16 H 0.0541 1.2517 0.1251
loop_
_geom_bond_atom_site_label_1
_geom_bond_atom_site_label_2
_geom_bond_site_symmetry_1
_geom_bond_site_symmetry_2
S1 C1 1_555 1_555
N1 C6 1_555 1_555
C1 C4 1_555 1_555
N2 C16 1_555 1_555
O1 C19 1_555 1_555
O2 H1 1_555 1_555
C2 H2 1_555 1_555
C3 H3 1_555 1_555
C4 H4 1_555 1_555
C5 C4 1_555 1_555
H5 C5 1_555 1_555
C6 H6 1_555 1_555
H7 C6 1_555 1_555
C7 H8 1_555 1_555
C8 C10 1_555 1_555
C9 H9 1_555 1_555
C10 C7 1_555 1_555
H10 C10 1_555 1_555
C11 C6 1_555 1_555
H11 C11 1_555 1_555
H12 C11 1_555 1_555
H13 C11 1_555 1_555
C12 H14 1_555 1_555
C13 C9 1_555 1_555
C14 S1 1_555 1_555
C15 C1 1_555 1_555
C16 C13 1_555 1_555
C17 N1 1_555 1_555
C18 C3 1_555 1_555
H15 C18 1_555 1_555
C19 O2 1_555 1_555
C20 N1 1_555 1_555
C21 C8 1_555 1_555
C22 C2 1_555 1_555
H16 C22 1_555 1_555
C2 C17 1_555 1_555
C3 C20 1_555 1_555
C5 C14 1_555 1_555
C7 C22 1_555 1_555
C8 C17 1_555 1_555
C9 C14 1_555 1_555
C12 C15 1_555 1_555
C12 C21 1_555 1_555
C13 C19 1_555 1_555
C15 C18 1_555 1_555
C20 C21 1_555 1_555

#END
