
#######################################################################
#
#                 Cambridge Crystallographic Data Centre
#                                CCDC 
#
#######################################################################
#
# If this CIF has been generated from an entry in the Cambridge 
# Structural Database, then it will include bibliographic, chemical, 
# crystal, experimental, refinement or atomic coordinate data resulting 
# from the CCDC's data processing and validation procedures.
#
#######################################################################

data_OFOZUE
_chemical_formula_moiety         'C23 H33 Mg1 N1 O2'
_chemical_name_systematic        
(Diphenylamido-N)-(isopropyl)-bis(tetrahydrofuran)-magnesium
_symmetry_cell_setting           monoclinic
_symmetry_space_group_name_H-M   'P 21/n'
_symmetry_Int_Tables_number      14
_space_group_name_Hall           '-P 2yn'
loop_
_symmetry_equiv_pos_site_id
_symmetry_equiv_pos_as_xyz
1 x,y,z
2 1/2+x,1/2-y,1/2+z
3 -x,-y,-z
4 1/2-x,1/2+y,1/2-z
_cell_length_a                   9.9886(14)
_cell_length_b                   15.0909(12)
_cell_length_c                   14.8518(19)
_cell_angle_alpha                90
_cell_angle_beta                 92.650(12)
_cell_angle_gamma                90
_cell_volume                     2236.32
_exptl_crystal_colour            colorless
_exptl_crystal_description       block
_chemical_melting_point          '133-135 deg.C'
_cell_formula_units_Z            4
loop_
_atom_site_label
_atom_site_type_symbol
_atom_site_fract_x
_atom_site_fract_y
_atom_site_fract_z
Mg1 Mg 0.63983(9) 0.02213(6) 0.78163(6)
O1 O 0.76552(20) 0.10575(14) 0.71721(12)
O2 O 0.50667(20) 0.12057(14) 0.80731(13)
N1 N 0.54489(20) -0.05299(15) 0.68424(14)
C1 C 0.7305(3) -0.03469(21) 0.90081(19)
C2 C 0.8510(4) -0.0898(3) 0.8819(3)
C3 C 0.7658(4) 0.0247(3) 0.98020(23)
C4 C 0.8557(4) 0.1638(3) 0.7669(3)
C5 C 0.9272(5) 0.2142(3) 0.7018(4)
C6 C 0.8803(6) 0.1851(4) 0.6133(4)
C7 C 0.7626(5) 0.1322(3) 0.62490(23)
C8 C 0.4434(4) 0.17524(25) 0.7384(3)
C9 C 0.3054(5) 0.1876(3) 0.7674(4)
C10 C 0.3191(5) 0.1899(4) 0.8657(4)
C11 C 0.4409(4) 0.1341(3) 0.88982(24)
C12 C 0.6067(3) -0.10569(18) 0.62290(17)
C13 C 0.5413(3) -0.16684(19) 0.56427(19)
C14 C 0.6117(3) -0.21939(20) 0.50694(20)
C15 C 0.7494(3) -0.21466(22) 0.50457(22)
C16 C 0.8159(3) -0.15669(22) 0.56253(23)
C17 C 0.7470(3) -0.10410(20) 0.61989(20)
C18 C 0.4037(3) -0.05210(18) 0.68362(18)
C19 C 0.3404(3) -0.07323(19) 0.76182(19)
C20 C 0.2018(3) -0.06773(22) 0.76614(22)
C21 C 0.1250(3) -0.04181(24) 0.6918(3)
C22 C 0.1858(3) -0.02059(24) 0.61399(23)
C23 C 0.3236(3) -0.02505(22) 0.60934(19)
H1 H 0.661 -0.075 0.920
H2 H 0.890 -0.116 0.936
H3 H 0.828 -0.138 0.841
H4 H 0.918 -0.055 0.855
H5 H 0.806 -0.008 1.030
H6 H 0.831 0.069 0.963
H7 H 0.690 0.056 1.000
H8 H 0.809 0.203 0.807
H9 H 0.918 0.130 0.807
H10 H 1.023 0.204 0.709
H11 H 0.914 0.277 0.709
H12 H 0.947 0.152 0.582
H13 H 0.859 0.237 0.574
H14 H 0.761 0.082 0.585
H15 H 0.682 0.166 0.609
H16 H 0.489 0.232 0.734
H17 H 0.447 0.148 0.679
H18 H 0.248 0.137 0.747
H19 H 0.262 0.240 0.742
H20 H 0.333 0.251 0.887
H21 H 0.240 0.169 0.895
H22 H 0.414 0.077 0.916
H23 H 0.500 0.162 0.935
H24 H 0.445 -0.172 0.565
H25 H 0.564 -0.260 0.467
H26 H 0.798 -0.251 0.463
H27 H 0.914 -0.152 0.562
H28 H 0.797 -0.064 0.660
H29 H 0.394 -0.093 0.815
H30 H 0.160 -0.081 0.822
H31 H 0.029 -0.039 0.695
H32 H 0.131 -0.002 0.561
H33 H 0.365 -0.009 0.553
loop_
_geom_bond_atom_site_label_1
_geom_bond_atom_site_label_2
_geom_bond_site_symmetry_1
_geom_bond_site_symmetry_2
Mg1 O1 1_555 1_555
O1 C4 1_555 1_555
O2 Mg1 1_555 1_555
N1 Mg1 1_555 1_555
C1 Mg1 1_555 1_555
C2 C1 1_555 1_555
C3 C1 1_555 1_555
C4 C5 1_555 1_555
C5 C6 1_555 1_555
C6 C7 1_555 1_555
C7 O1 1_555 1_555
C8 O2 1_555 1_555
C9 C8 1_555 1_555
C10 C9 1_555 1_555
C11 O2 1_555 1_555
C12 N1 1_555 1_555
C13 C12 1_555 1_555
C14 C13 1_555 1_555
C15 C14 1_555 1_555
C16 C15 1_555 1_555
C17 C12 1_555 1_555
C18 N1 1_555 1_555
C19 C18 1_555 1_555
C20 C19 1_555 1_555
C21 C20 1_555 1_555
C22 C21 1_555 1_555
C23 C18 1_555 1_555
H1 C1 1_555 1_555
H2 C2 1_555 1_555
H3 C2 1_555 1_555
H4 C2 1_555 1_555
H5 C3 1_555 1_555
H6 C3 1_555 1_555
H7 C3 1_555 1_555
H8 C4 1_555 1_555
H9 C4 1_555 1_555
H10 C5 1_555 1_555
H11 C5 1_555 1_555
H12 C6 1_555 1_555
H13 C6 1_555 1_555
H14 C7 1_555 1_555
H15 C7 1_555 1_555
H16 C8 1_555 1_555
H17 C8 1_555 1_555
H18 C9 1_555 1_555
H19 C9 1_555 1_555
H20 C10 1_555 1_555
H21 C10 1_555 1_555
H22 C11 1_555 1_555
H23 C11 1_555 1_555
H24 C13 1_555 1_555
H25 C14 1_555 1_555
H26 C15 1_555 1_555
H27 C16 1_555 1_555
H28 C17 1_555 1_555
H29 C19 1_555 1_555
H30 C20 1_555 1_555
H31 C21 1_555 1_555
H32 C22 1_555 1_555
H33 C23 1_555 1_555
C10 C11 1_555 1_555
C16 C17 1_555 1_555
C22 C23 1_555 1_555

#END
