
#######################################################################
#
#                 Cambridge Crystallographic Data Centre
#                                CCDC 
#
#######################################################################
#
# If this CIF has been generated from an entry in the Cambridge 
# Structural Database, then it will include bibliographic, chemical, 
# crystal, experimental, refinement or atomic coordinate data resulting 
# from the CCDC's data processing and validation procedures.
#
#######################################################################

data_OFUCIB
_chemical_formula_moiety         'C36 H54 Mg2 N2 O2'
_chemical_name_systematic        
bis(\m~2~-Di-isopropylamido-N,N)-bis(tetrahydrofuran)-bis(2-phenylethynyl)-di-magnesium
_symmetry_cell_setting           monoclinic
_symmetry_space_group_name_H-M   'P 21/c'
_symmetry_Int_Tables_number      14
_space_group_name_Hall           '-P 2ybc'
loop_
_symmetry_equiv_pos_site_id
_symmetry_equiv_pos_as_xyz
1 x,y,z
2 x,1/2-y,1/2+z
3 -x,-y,-z
4 -x,1/2+y,1/2-z
_cell_length_a                   8.851(2)
_cell_length_b                   11.048(2)
_cell_length_c                   19.149(1)
_cell_angle_alpha                90
_cell_angle_beta                 98.92(1)
_cell_angle_gamma                90
_cell_volume                     1849.85
_exptl_crystal_colour            colorless
_exptl_crystal_description       prism
_cell_formula_units_Z            2
loop_
_atom_site_label
_atom_site_type_symbol
_atom_site_fract_x
_atom_site_fract_y
_atom_site_fract_z
Mg1 Mg 0.0342(2) 0.4740(1) 0.92919(8)
O1 O -0.1003(3) 0.5052(3) 0.8310(1)
N1 N -0.0775(4) 0.3760(3) 1.0019(2)
C1 C 0.2064(5) 0.3854(4) 0.8813(2)
C2 C 0.2917(5) 0.3256(4) 0.8530(2)
C3 C 0.3937(5) 0.2520(5) 0.8182(3)
C4 C 0.4869(7) 0.1663(6) 0.8549(3)
C5 C 0.5822(7) 0.0937(6) 0.8208(4)
C6 C 0.5817(8) 0.1064(7) 0.7504(5)
C7 C 0.4900(8) 0.1899(7) 0.7124(3)
C8 C 0.3963(6) 0.2631(5) 0.7463(3)
C9 C -0.0324(6) 0.5738(5) 0.7795(3)
C10 C -0.0494(8) 0.4979(7) 0.7148(3)
C11 C -0.1737(9) 0.4139(7) 0.7210(3)
C12 C -0.1883(7) 0.4075(6) 0.7954(3)
C13 C -0.3277(6) 0.4680(6) 0.9552(3)
C14 C -0.2442(6) 0.3542(5) 0.9813(3)
C15 C -0.3254(7) 0.2999(6) 1.0392(3)
C16 C 0.117(1) 0.2429(8) 1.0668(5)
C17 C 0.0126(9) 0.2632(6) 1.0165(3)
C18 C -0.0207(8) 0.1650(5) 0.9588(3)
H1 H 0.4864 0.1562 0.9041
H2 H 0.6472 0.0356 0.8469
H3 H 0.6459 0.0565 0.7272
H4 H 0.4900 0.1980 0.6630
H5 H 0.3331 0.3217 0.7198
H6 H -0.0844 0.6487 0.7699
H7 H 0.0726 0.5888 0.7962
H8 H -0.0741 0.5467 0.6738
H9 H 0.0426 0.4548 0.7124
H10 H -0.2662 0.4426 0.6943
H11 H -0.1506 0.3362 0.7042
H12 H -0.1502 0.3321 0.8146
H13 H -0.2927 0.4156 0.8010
H14 H -0.3258 0.5235 0.9933
H15 H -0.2793 0.5038 0.9193
H16 H -0.4308 0.4492 0.9365
H17 H -0.2561 0.2984 0.9430
H18 H -0.3228 0.3563 1.0768
H19 H -0.4287 0.2823 1.0202
H20 H -0.2749 0.2275 1.0565
H21 H 0.0937 0.1718 1.0909
H22 H 0.2107 0.2320 1.0492
H23 H 0.1259 0.3096 1.0985
H24 H -0.0617 0.2301 1.0419
H25 H -0.0494 0.0919 0.9794
H26 H -0.1019 0.1912 0.9236
H27 H 0.0683 0.1514 0.9378
Mg1B Mg -0.0342(2) 0.5260(1) 1.07081(8)
O1B O 0.1003(3) 0.4948(3) 1.1690(1)
C9B C 0.0324(6) 0.4262(5) 1.2205(3)
C10B C 0.0494(8) 0.5021(7) 1.2852(3)
C11B C 0.1737(9) 0.5861(7) 1.2790(3)
C12B C 0.1883(7) 0.5925(6) 1.2046(3)
H12B H 0.1502 0.6679 1.1854
H13B H 0.2927 0.5844 1.1990
H10B H 0.2662 0.5574 1.3057
H11B H 0.1506 0.6638 1.2958
H8B H 0.0741 0.4533 1.3262
H9B H -0.0426 0.5452 1.2876
H6B H 0.0844 0.3513 1.2301
H7B H -0.0726 0.4112 1.2038
N1B N 0.0775(4) 0.6240(3) 0.9981(2)
C14B C 0.2442(6) 0.6458(5) 1.0187(3)
C13B C 0.3277(6) 0.5320(6) 1.0448(3)
H14B H 0.3258 0.4765 1.0067
H15B H 0.2793 0.4962 1.0807
H16B H 0.4308 0.5508 1.0635
C15B C 0.3254(7) 0.7001(6) 0.9608(3)
H18B H 0.3228 0.6437 0.9232
H19B H 0.4287 0.7177 0.9798
H20B H 0.2749 0.7725 0.9435
H17B H 0.2561 0.7016 1.0570
C17B C -0.0126(9) 0.7368(6) 0.9835(3)
C16B C -0.117(1) 0.7571(8) 0.9332(5)
H21B H -0.0937 0.8282 0.9091
H22B H -0.2107 0.7680 0.9508
H23B H -0.1259 0.6904 0.9015
C18B C 0.0207(8) 0.8350(5) 1.0412(3)
H25B H 0.0494 0.9081 1.0206
H26B H 0.1019 0.8088 1.0764
H27B H -0.0683 0.8486 1.0622
H24B H 0.0617 0.7699 0.9581
C1B C -0.2064(5) 0.6146(4) 1.1187(2)
C2B C -0.2917(5) 0.6744(4) 1.1470(2)
C3B C -0.3937(5) 0.7480(5) 1.1818(3)
C4B C -0.4869(7) 0.8337(6) 1.1451(3)
C5B C -0.5822(7) 0.9063(6) 1.1792(4)
C6B C -0.5817(8) 0.8936(7) 1.2496(5)
C7B C -0.4900(8) 0.8101(7) 1.2876(3)
C8B C -0.3963(6) 0.7369(5) 1.2537(3)
H5B H -0.3331 0.6783 1.2802
H4B H -0.4900 0.8020 1.3370
H3B H -0.6459 0.9435 1.2728
H2B H -0.6472 0.9644 1.1531
H1B H -0.4864 0.8438 1.0959
loop_
_geom_bond_atom_site_label_1
_geom_bond_atom_site_label_2
_geom_bond_site_symmetry_1
_geom_bond_site_symmetry_2
Mg1 O1 1_555 1_555
O1 C9 1_555 1_555
N1 Mg1 1_555 1_555
C1 Mg1 1_555 1_555
C2 C1 1_555 1_555
C3 C2 1_555 1_555
C4 C3 1_555 1_555
C5 C4 1_555 1_555
C6 C5 1_555 1_555
C7 C6 1_555 1_555
C8 C3 1_555 1_555
C9 C10 1_555 1_555
C10 C11 1_555 1_555
C11 C12 1_555 1_555
C12 O1 1_555 1_555
C13 C14 1_555 1_555
C14 N1 1_555 1_555
C15 C14 1_555 1_555
C16 C17 1_555 1_555
C17 N1 1_555 1_555
C18 C17 1_555 1_555
H1 C4 1_555 1_555
H2 C5 1_555 1_555
H3 C6 1_555 1_555
H4 C7 1_555 1_555
H5 C8 1_555 1_555
H6 C9 1_555 1_555
H7 C9 1_555 1_555
H8 C10 1_555 1_555
H9 C10 1_555 1_555
H10 C11 1_555 1_555
H11 C11 1_555 1_555
H12 C12 1_555 1_555
H13 C12 1_555 1_555
H14 C13 1_555 1_555
H15 C13 1_555 1_555
H16 C13 1_555 1_555
H17 C14 1_555 1_555
H18 C15 1_555 1_555
H19 C15 1_555 1_555
H20 C15 1_555 1_555
H21 C16 1_555 1_555
H22 C16 1_555 1_555
H23 C16 1_555 1_555
H24 C17 1_555 1_555
H25 C18 1_555 1_555
H26 C18 1_555 1_555
H27 C18 1_555 1_555
Mg1B N1 1_555 1_555
O1B Mg1B 1_555 1_555
C9B O1B 1_555 1_555
C10B C9B 1_555 1_555
C11B C10B 1_555 1_555
C12B O1B 1_555 1_555
H12B C12B 1_555 1_555
H13B C12B 1_555 1_555
H10B C11B 1_555 1_555
H11B C11B 1_555 1_555
H8B C10B 1_555 1_555
H9B C10B 1_555 1_555
H6B C9B 1_555 1_555
H7B C9B 1_555 1_555
N1B Mg1 1_555 1_555
C14B N1B 1_555 1_555
C13B C14B 1_555 1_555
H14B C13B 1_555 1_555
H15B C13B 1_555 1_555
H16B C13B 1_555 1_555
C15B C14B 1_555 1_555
H18B C15B 1_555 1_555
H19B C15B 1_555 1_555
H20B C15B 1_555 1_555
H17B C14B 1_555 1_555
C17B N1B 1_555 1_555
C16B C17B 1_555 1_555
H21B C16B 1_555 1_555
H22B C16B 1_555 1_555
H23B C16B 1_555 1_555
C18B C17B 1_555 1_555
H25B C18B 1_555 1_555
H26B C18B 1_555 1_555
H27B C18B 1_555 1_555
H24B C17B 1_555 1_555
C1B Mg1B 1_555 1_555
C2B C1B 1_555 1_555
C3B C2B 1_555 1_555
C4B C3B 1_555 1_555
C5B C4B 1_555 1_555
C6B C5B 1_555 1_555
C7B C6B 1_555 1_555
C8B C3B 1_555 1_555
H5B C8B 1_555 1_555
H4B C7B 1_555 1_555
H3B C6B 1_555 1_555
H2B C5B 1_555 1_555
H1B C4B 1_555 1_555
C7 C8 1_555 1_555
Mg1B N1B 1_555 1_555
C11B C12B 1_555 1_555
C7B C8B 1_555 1_555

#END
