
#######################################################################
#
#                 Cambridge Crystallographic Data Centre
#                                CCDC 
#
#######################################################################
#
# If this CIF has been generated from an entry in the Cambridge 
# Structural Database, then it will include bibliographic, chemical, 
# crystal, experimental, refinement or atomic coordinate data resulting 
# from the CCDC's data processing and validation procedures.
#
#######################################################################

data_OFUXES
_chemical_formula_moiety         'C29 H26 S16'
_chemical_name_systematic        
2,5,10-tris(4,5-bis(Methylsulfanyl)-1,3-dithiol-2-ylidene)-5,5a,6,9,9a,10-hexahydro-6,9-methano(1,3)dithiolo(4,5-b)naphtho(2,3-e)(1,4)dithiine
_symmetry_cell_setting           monoclinic
_symmetry_space_group_name_H-M   'P 21/m'
_symmetry_Int_Tables_number      11
_space_group_name_Hall           '-P 2yb'
loop_
_symmetry_equiv_pos_site_id
_symmetry_equiv_pos_as_xyz
1 x,y,z
2 -x,1/2+y,-z
3 -x,-y,-z
4 x,1/2-y,z
_cell_length_a                   6.4460(10)
_cell_length_b                   26.070(5)
_cell_length_c                   13.469(3)
_cell_angle_alpha                90
_cell_angle_beta                 95.60(3)
_cell_angle_gamma                90
_cell_volume                     2252.63
_exptl_crystal_colour            red
_chemical_melting_point          '150 deg.C.(dec.)'
_cell_formula_units_Z            2
loop_
_atom_site_label
_atom_site_type_symbol
_atom_site_fract_x
_atom_site_fract_y
_atom_site_fract_z
S1 S 0.20569(16) 0.30980(4) 0.26944(8)
S2 S 0.6120(2) 0.30681(5) 0.17041(9)
S3 S 0.3270(2) 0.38128(5) 0.61176(9)
S4 S 0.46015(18) 0.38666(4) 0.41080(9)
S5 S 0.9682(2) 0.30650(6) 0.01472(10)
S6 S 1.2088(3) 0.31472(7) -0.16379(12)
S7 S 0.7781(2) 0.46929(6) 0.46696(15)
S8 S 0.6279(3) 0.46121(6) 0.69651(14)
C1 C 0.8616(10) 0.2500 0.0591(5)
C2 C 0.3243(6) 0.35079(16) 0.4952(3)
C3 C 0.7137(10) 0.2500 0.1222(5)
C4 C 0.3937(6) 0.27538(17) 0.2114(3)
C5 C 0.2273(6) 0.30465(14) 0.4779(3)
C6 C 0.2214(6) 0.27553(15) 0.3843(3)
C7 C 0.1193(6) 0.28000(14) 0.5597(3)
H1 H 0.1870 0.2915 0.6223
C8 C 0.5931(7) 0.42601(17) 0.5025(4)
C9 C 0.5322(8) 0.42385(17) 0.5947(4)
C10 C -0.1902(11) 0.2500 0.6259(5)
H2 H -0.3372 0.2500 0.6324
H3 H -0.1123 0.2500 0.6904
C11 C -0.1189(7) 0.29318(17) 0.5579(3)
H4 H -0.1516 0.3276 0.5765
C12 C -0.2207(7) 0.2753(2) 0.4573(4)
H5 H -0.2736 0.2963 0.4050
C13 C 1.0984(9) 0.2756(2) -0.0770(4)
C14 C 0.8994(12) 0.4350(3) 0.3753(6)
H6 H 1.0057 0.4559 0.3506
H7 H 0.9611 0.4042 0.4039
H8 H 0.7969 0.4263 0.3214
C15 C 0.8191(16) 0.4165(4) 0.7560(7)
H9 H 0.8859 0.4325 0.8148
H10 H 0.7513 0.3856 0.7743
H11 H 0.9216 0.4083 0.7113
C16 C 1.411(5) 0.3335(19) -0.1085(14)
H12 H 1.4786 0.3567 -0.1503
H13 H 1.5007 0.3047 -0.0917
H14 H 1.3815 0.3509 -0.0487
S2C S 0.6120(2) 0.19319(5) 0.17041(9)
C4C C 0.3937(6) 0.22462(17) 0.2114(3)
S1C S 0.20569(16) 0.19020(4) 0.26944(8)
C6C C 0.2214(6) 0.22447(15) 0.3843(3)
C5C C 0.2273(6) 0.19535(14) 0.4779(3)
C2C C 0.3243(6) 0.14921(16) 0.4952(3)
S3C S 0.3270(2) 0.11872(5) 0.61176(9)
C9C C 0.5322(8) 0.07615(17) 0.5947(4)
S8C S 0.6279(3) 0.03879(6) 0.69651(14)
C15C C 0.8191(16) 0.0835(4) 0.7560(7)
H9C H 0.8859 0.0675 0.8148
H10C H 0.7513 0.1144 0.7743
H11C H 0.9216 0.0917 0.7113
C8C C 0.5931(7) 0.07399(17) 0.5025(4)
S4C S 0.46015(18) 0.11334(4) 0.41080(9)
S7C S 0.7781(2) 0.03071(6) 0.46696(15)
C14C C 0.8994(12) 0.0650(3) 0.3753(6)
H6C H 1.0057 0.0441 0.3506
H7C H 0.9611 0.0958 0.4039
H8C H 0.7969 0.0737 0.3214
C7C C 0.1193(6) 0.22000(14) 0.5597(3)
C11C C -0.1189(7) 0.20682(17) 0.5579(3)
H1C H 0.1870 0.2085 0.6223
H4C H -0.1516 0.1724 0.5765
C12C C -0.2207(7) 0.2247(2) 0.4573(4)
H5C H -0.2736 0.2037 0.4050
C13C C 1.0984(9) 0.2244(2) -0.0770(4)
S5C S 0.9682(2) 0.19350(6) 0.01472(10)
S6C S 1.2088(3) 0.18528(7) -0.16379(12)
C16C C 1.411(5) 0.1665(19) -0.1085(14)
H12C H 1.4786 0.1433 -0.1503
H13C H 1.5007 0.1953 -0.0917
H14C H 1.3815 0.1491 -0.0487
loop_
_geom_bond_atom_site_label_1
_geom_bond_atom_site_label_2
_geom_bond_site_symmetry_1
_geom_bond_site_symmetry_2
S1 C4 1_555 1_555
S2 C3 1_555 1_555
S3 C2 1_555 1_555
S4 C2 1_555 1_555
S5 C1 1_555 1_555
S6 C13 1_555 1_555
S7 C8 1_555 1_555
S8 C9 1_555 1_555
C1 C3 1_555 1_555
C2 C5 1_555 1_555
C3 S2C 1_555 1_555
C4 S2 1_555 1_555
C5 C6 1_555 1_555
C6 S1 1_555 1_555
C7 C5 1_555 1_555
H1 C7 1_555 1_555
C8 S4 1_555 1_555
C9 S3 1_555 1_555
C10 H2 1_555 1_555
H3 C10 1_555 1_555
C11 C7 1_555 1_555
H4 C11 1_555 1_555
C12 C11 1_555 1_555
H5 C12 1_555 1_555
C13 S5 1_555 1_555
C14 S7 1_555 1_555
H6 C14 1_555 1_555
H7 C14 1_555 1_555
H8 C14 1_555 1_555
C15 S8 1_555 1_555
H9 C15 1_555 1_555
H10 C15 1_555 1_555
H11 C15 1_555 1_555
C16 S6 1_555 1_555
H12 C16 1_555 1_555
H13 C16 1_555 1_555
H14 C16 1_555 1_555
S2C C4C 1_555 1_555
C4C C4 1_555 1_555
S1C C4C 1_555 1_555
C6C C6 1_555 1_555
C5C C6C 1_555 1_555
C2C C5C 1_555 1_555
S3C C2C 1_555 1_555
C9C S3C 1_555 1_555
S8C C9C 1_555 1_555
C15C S8C 1_555 1_555
H9C C15C 1_555 1_555
H10C C15C 1_555 1_555
H11C C15C 1_555 1_555
C8C C9C 1_555 1_555
S4C C2C 1_555 1_555
S7C C8C 1_555 1_555
C14C S7C 1_555 1_555
H6C C14C 1_555 1_555
H7C C14C 1_555 1_555
H8C C14C 1_555 1_555
C7C C7 1_555 1_555
C11C C10 1_555 1_555
H1C C7C 1_555 1_555
H4C C11C 1_555 1_555
C12C C12 1_555 1_555
H5C C12C 1_555 1_555
C13C C13 1_555 1_555
S5C C1 1_555 1_555
S6C C13C 1_555 1_555
C16C S6C 1_555 1_555
H12C C16C 1_555 1_555
H13C C16C 1_555 1_555
H14C C16C 1_555 1_555
C8 C9 1_555 1_555
C10 C11 1_555 1_555
S1C C6C 1_555 1_555
C5C C7C 1_555 1_555
C8C S4C 1_555 1_555
C7C C11C 1_555 1_555
C11C C12C 1_555 1_555
C13C S5C 1_555 1_555

#END
