
#######################################################################
#
#                 Cambridge Crystallographic Data Centre
#                                CCDC 
#
#######################################################################
#
# If this CIF has been generated from an entry in the Cambridge 
# Structural Database, then it will include bibliographic, chemical, 
# crystal, experimental, refinement or atomic coordinate data resulting 
# from the CCDC's data processing and validation procedures.
#
#######################################################################

data_OGABOP
_chemical_formula_moiety         'C20 H28 O2'
_chemical_name_systematic        
2-Hydroxy-4a,6a-dimethyl-2,3,4,4a,4b,5,6,6a,7a,8,8a,8b,8c,9-tetradecahydrocyclopropa[4,5]cyclopenta[1,2-a]phenanthren-7(1H)-one
_symmetry_cell_setting           monoclinic
_symmetry_space_group_name_H-M   'P 21'
_symmetry_Int_Tables_number      4
_space_group_name_Hall           'P 2yb'
loop_
_symmetry_equiv_pos_site_id
_symmetry_equiv_pos_as_xyz
1 x,y,z
2 -x,1/2+y,-z
_cell_length_a                   6.176(8)
_cell_length_b                   11.293(15)
_cell_length_c                   12.236(16)
_cell_angle_alpha                90
_cell_angle_beta                 90.00
_cell_angle_gamma                90
_cell_volume                     853.407
_cell_formula_units_Z            2
loop_
_atom_site_label
_atom_site_type_symbol
_atom_site_fract_x
_atom_site_fract_y
_atom_site_fract_z
C1 C 0.5086(16) 0.6270(7) 0.9429(7)
H1 H 0.4634 0.6186 1.0185
H2 H 0.6196 0.5715 0.9199
O1 O 0.2812(11) 0.5576(5) 0.6910(5)
C2 C 0.3377(14) 0.6612(6) 0.8600(6)
H3 H 0.1883 0.6736 0.8844
O2 O 0.9296(12) 1.4659(5) 0.8215(4)
H4 H 0.9443 1.4958 0.7609
C3 C 0.3795(13) 0.6332(7) 0.7447(6)
C4 C 0.5491(12) 0.7194(6) 0.6960(5)
C5 C 0.6884(15) 0.6666(8) 0.6038(6)
H5 H 0.7882 0.6103 0.6340
H6 H 0.7675 0.7289 0.5682
H7 H 0.5965 0.6278 0.5516
C6 C 0.4071(12) 0.8236(6) 0.6555(6)
H8 H 0.3346 0.8002 0.5886
H9 H 0.2965 0.8400 0.7097
C7 C 0.5350(14) 0.9360(6) 0.6343(6)
H10 H 0.4374 0.9967 0.6075
H11 H 0.6413 0.9207 0.5776
C8 C 0.6524(13) 0.9830(6) 0.7368(5)
H12 H 0.5402 1.0007 0.7910
C9 C 0.7785(12) 1.1006(6) 0.7165(5)
C10 C 0.9189(13) 1.0954(7) 0.6094(5)
H13 H 1.0045 1.0244 0.6095
H14 H 1.0127 1.1631 0.6066
H15 H 0.8254 1.0955 0.5467
C11 C 0.6107(14) 1.2041(6) 0.7071(7)
H16 H 0.5292 1.1940 0.6399
H17 H 0.5094 1.1980 0.7674
C12 C 0.7106(12) 1.3300(7) 0.7076(6)
H18 H 0.8007 1.3407 0.6435
H19 H 0.5963 1.3889 0.7057
C13 C 0.8455(14) 1.3461(7) 0.8098(6)
H20 H 0.7478 1.3332 0.8718
C14 C 1.0203(14) 1.2523(6) 0.8181(8)
H21 H 1.1234 1.2634 0.7592
H22 H 1.0972 1.2619 0.8866
C15 C 0.9298(11) 1.1289(6) 0.8121(7)
C16 C 0.9786(14) 1.0482(6) 0.8880(6)
H23 H 1.0702 1.0721 0.9441
C17 C 0.9000(13) 0.9230(6) 0.8913(5)
H24 H 0.7972 0.9147 0.9507
H25 H 1.0216 0.8712 0.9065
C18 C 0.7920(12) 0.8832(6) 0.7849(5)
H26 H 0.9101 0.8709 0.7326
C19 C 0.6810(14) 0.7620(6) 0.7977(6)
C20 C 0.5162(14) 0.7501(7) 0.8959(6)
H27 H 0.4799 0.8189 0.9411
H28 H 0.790(11) 0.695(6) 0.813(5)
loop_
_geom_bond_atom_site_label_1
_geom_bond_atom_site_label_2
_geom_bond_site_symmetry_1
_geom_bond_site_symmetry_2
C1 H1 1_555 1_555
H2 C1 1_555 1_555
O1 C3 1_555 1_555
C2 C1 1_555 1_555
H3 C2 1_555 1_555
O2 H4 1_555 1_555
C3 C2 1_555 1_555
C4 C3 1_555 1_555
C5 C4 1_555 1_555
H5 C5 1_555 1_555
H6 C5 1_555 1_555
H7 C5 1_555 1_555
C6 C4 1_555 1_555
H8 C6 1_555 1_555
H9 C6 1_555 1_555
C7 C6 1_555 1_555
H10 C7 1_555 1_555
H11 C7 1_555 1_555
C8 C7 1_555 1_555
H12 C8 1_555 1_555
C9 C8 1_555 1_555
C10 C9 1_555 1_555
H13 C10 1_555 1_555
H14 C10 1_555 1_555
H15 C10 1_555 1_555
C11 C9 1_555 1_555
H16 C11 1_555 1_555
H17 C11 1_555 1_555
C12 C11 1_555 1_555
H18 C12 1_555 1_555
H19 C12 1_555 1_555
C13 O2 1_555 1_555
H20 C13 1_555 1_555
C14 C13 1_555 1_555
H21 C14 1_555 1_555
H22 C14 1_555 1_555
C15 C9 1_555 1_555
C16 C15 1_555 1_555
H23 C16 1_555 1_555
C17 C16 1_555 1_555
H24 C17 1_555 1_555
H25 C17 1_555 1_555
C18 C8 1_555 1_555
H26 C18 1_555 1_555
C19 C4 1_555 1_555
C20 C1 1_555 1_555
H27 C20 1_555 1_555
H28 C19 1_555 1_555
C2 C20 1_555 1_555
C12 C13 1_555 1_555
C14 C15 1_555 1_555
C17 C18 1_555 1_555
C18 C19 1_555 1_555
C19 C20 1_555 1_555

#END
