
#######################################################################
#
#                 Cambridge Crystallographic Data Centre
#                                CCDC 
#
#######################################################################
#
# If this CIF has been generated from an entry in the Cambridge 
# Structural Database, then it will include bibliographic, chemical, 
# crystal, experimental, refinement or atomic coordinate data resulting 
# from the CCDC's data processing and validation procedures.
#
#######################################################################

data_OGABEF01
_chemical_formula_moiety         'C42 H52 S1 Si2'
_chemical_name_systematic        
(Anthra[2,3-b]benzo[d]thiene-7,12-diyldiethyne-2,1-diyl)bis(triisopropylsilane)
_symmetry_cell_setting           monoclinic
_symmetry_space_group_name_H-M   'P 21/c'
_symmetry_Int_Tables_number      14
_space_group_name_Hall           '-P 2ybc'
loop_
_symmetry_equiv_pos_site_id
_symmetry_equiv_pos_as_xyz
1 x,y,z
2 -x,1/2+y,1/2-z
3 -x,-y,-z
4 x,1/2-y,1/2+z
_cell_length_a                   8.545(2)
_cell_length_b                   17.738(4)
_cell_length_c                   25.019(6)
_cell_angle_alpha                90
_cell_angle_beta                 90.907(4)
_cell_angle_gamma                90
_cell_volume                     3791.68
_exptl_crystal_colour            yellow
_exptl_crystal_description       block
_cell_formula_units_Z            4
loop_
_atom_site_label
_atom_site_type_symbol
_atom_site_fract_x
_atom_site_fract_y
_atom_site_fract_z
S1 S 0.93422(11) 0.27450(6) 0.04704(4)
Si1 Si 0.52196(10) 0.70946(5) 0.16259(4)
Si2 Si 0.26003(10) 0.06176(5) 0.10735(4)
C1 C 1.0426(4) 0.3584(2) 0.04330(15)
C2 C 1.1909(4) 0.3654(3) 0.02189(16)
H1 H 1.2425 0.3230 0.0071
C3 C 1.2619(4) 0.4356(3) 0.02257(17)
H2 H 1.3628 0.4413 0.0077
C4 C 1.1883(4) 0.4976(3) 0.04458(16)
H3 H 1.2393 0.5452 0.0448
C5 C 1.0403(4) 0.4906(2) 0.06635(14)
H4 H 0.9907 0.5333 0.0816
C6 C 0.9658(4) 0.4216(2) 0.06581(13)
C7 C 0.8114(4) 0.40027(19) 0.08507(13)
C8 C 0.7784(4) 0.32199(19) 0.07769(13)
C9 C 0.6415(4) 0.28993(18) 0.09358(13)
H5 H 0.6236 0.2376 0.0884
C10 C 0.5257(4) 0.33567(17) 0.11803(12)
C11 C 0.3818(4) 0.30478(17) 0.13498(13)
C12 C 0.2694(4) 0.35047(17) 0.16090(12)
C13 C 0.1253(4) 0.32051(19) 0.17934(14)
H6 H 0.1041 0.2683 0.1751
C14 C 0.0177(4) 0.3655(2) 0.20287(15)
H7 H -0.0778 0.3445 0.2149
C15 C 0.0470(4) 0.4436(2) 0.20958(14)
H8 H -0.0290 0.4747 0.2260
C16 C 0.1828(4) 0.47433(19) 0.19273(14)
H9 H 0.2009 0.5267 0.1976
C17 C 0.2992(4) 0.42915(17) 0.16772(12)
C18 C 0.4395(4) 0.46077(17) 0.14893(12)
C19 C 0.5549(3) 0.41472(17) 0.12518(12)
C20 C 0.6999(4) 0.44538(18) 0.10819(13)
H10 H 0.7200 0.4977 0.1128
C21 C 0.4646(4) 0.54036(18) 0.15295(13)
C22 C 0.4821(4) 0.60763(18) 0.15639(14)
C23 C 0.7395(4) 0.7192(2) 0.15247(16)
H11 H 0.7613 0.7003 0.1157
C24 C 0.7940(5) 0.8019(2) 0.1545(2)
H12 H 0.7310 0.8319 0.1293
H13 H 0.9044 0.8047 0.1448
H14 H 0.7811 0.8216 0.1908
C25 C 0.8357(4) 0.6709(2) 0.1913(2)
H15 H 0.8205 0.6888 0.2279
H16 H 0.9468 0.6744 0.1824
H17 H 0.8017 0.6182 0.1885
C26 C 0.4630(4) 0.74156(18) 0.23137(14)
H18 H 0.5546 0.7319 0.2558
C27 C 0.3241(5) 0.6989(2) 0.25473(16)
H19 H 0.2293 0.7102 0.2337
H20 H 0.3093 0.7147 0.2919
H21 H 0.3448 0.6446 0.2536
C28 C 0.4315(5) 0.82691(19) 0.23309(15)
H22 H 0.5234 0.8541 0.2203
H23 H 0.4103 0.8422 0.2699
H24 H 0.3407 0.8388 0.2102
C29 C 0.4078(4) 0.75929(19) 0.10780(13)
H25 H 0.4259 0.8146 0.1125
C30 C 0.4646(5) 0.7381(2) 0.05194(15)
H26 H 0.4537 0.6836 0.0467
H27 H 0.5747 0.7525 0.0485
H28 H 0.4015 0.7648 0.0249
C31 C 0.2320(4) 0.7458(3) 0.11144(16)
H29 H 0.1779 0.7725 0.0822
H30 H 0.1947 0.7647 0.1458
H31 H 0.2104 0.6917 0.1086
C32 C 0.3471(4) 0.22644(18) 0.12629(13)
C33 C 0.3134(4) 0.16134(18) 0.11806(14)
C34 C 0.0464(4) 0.0486(2) 0.12046(17)
H32 H -0.0095 0.0576 0.0856
C35 C -0.0228(5) 0.1035(2) 0.1599(2)
H33 H -0.1343 0.0925 0.1642
H34 H -0.0103 0.1551 0.1466
H35 H 0.0315 0.0984 0.1945
C36 C 0.0088(4) -0.0334(2) 0.13670(18)
H36 H 0.0478 -0.0681 0.1094
H37 H -0.1047 -0.0395 0.1398
H38 H 0.0596 -0.0448 0.1712
C37 C 0.3028(5) 0.0397(2) 0.03470(15)
H39 H 0.4184 0.0450 0.0305
C38 C 0.2269(6) 0.0953(3) -0.00332(17)
H40 H 0.2557 0.0830 -0.0401
H41 H 0.2629 0.1463 0.0054
H42 H 0.1129 0.0927 0.0000
C39 C 0.2622(5) -0.0419(2) 0.02033(17)
H43 H 0.1495 -0.0499 0.0243
H44 H 0.3198 -0.0761 0.0442
H45 H 0.2914 -0.0518 -0.0167
C40 C 0.3887(4) 0.0043(2) 0.15286(15)
H46 H 0.3563 -0.0497 0.1490
C41 C 0.5601(5) 0.0096(3) 0.1384(2)
H47 H 0.5756 -0.0129 0.1031
H48 H 0.6236 -0.0176 0.1651
H49 H 0.5920 0.0626 0.1378
C42 C 0.3680(5) 0.0265(2) 0.21195(16)
H50 H 0.3911 0.0803 0.2164
H51 H 0.4399 -0.0031 0.2345
H52 H 0.2600 0.0166 0.2225
loop_
_geom_bond_atom_site_label_1
_geom_bond_atom_site_label_2
_geom_bond_site_symmetry_1
_geom_bond_site_symmetry_2
S1 C1 1_555 1_555
Si1 C22 1_555 1_555
Si2 C33 1_555 1_555
C1 C2 1_555 1_555
C2 H1 1_555 1_555
C3 C2 1_555 1_555
H2 C3 1_555 1_555
C4 C3 1_555 1_555
H3 C4 1_555 1_555
C5 C4 1_555 1_555
H4 C5 1_555 1_555
C6 C1 1_555 1_555
C7 C6 1_555 1_555
C8 S1 1_555 1_555
C9 C8 1_555 1_555
H5 C9 1_555 1_555
C10 C9 1_555 1_555
C11 C10 1_555 1_555
C12 C11 1_555 1_555
C13 C12 1_555 1_555
H6 C13 1_555 1_555
C14 C13 1_555 1_555
H7 C14 1_555 1_555
C15 C14 1_555 1_555
H8 C15 1_555 1_555
C16 C15 1_555 1_555
H9 C16 1_555 1_555
C17 C12 1_555 1_555
C18 C17 1_555 1_555
C19 C10 1_555 1_555
C20 C7 1_555 1_555
H10 C20 1_555 1_555
C21 C18 1_555 1_555
C22 C21 1_555 1_555
C23 Si1 1_555 1_555
H11 C23 1_555 1_555
C24 C23 1_555 1_555
H12 C24 1_555 1_555
H13 C24 1_555 1_555
H14 C24 1_555 1_555
C25 C23 1_555 1_555
H15 C25 1_555 1_555
H16 C25 1_555 1_555
H17 C25 1_555 1_555
C26 Si1 1_555 1_555
H18 C26 1_555 1_555
C27 C26 1_555 1_555
H19 C27 1_555 1_555
H20 C27 1_555 1_555
H21 C27 1_555 1_555
C28 C26 1_555 1_555
H22 C28 1_555 1_555
H23 C28 1_555 1_555
H24 C28 1_555 1_555
C29 Si1 1_555 1_555
H25 C29 1_555 1_555
C30 C29 1_555 1_555
H26 C30 1_555 1_555
H27 C30 1_555 1_555
H28 C30 1_555 1_555
C31 C29 1_555 1_555
H29 C31 1_555 1_555
H30 C31 1_555 1_555
H31 C31 1_555 1_555
C32 C11 1_555 1_555
C33 C32 1_555 1_555
C34 Si2 1_555 1_555
H32 C34 1_555 1_555
C35 C34 1_555 1_555
H33 C35 1_555 1_555
H34 C35 1_555 1_555
H35 C35 1_555 1_555
C36 C34 1_555 1_555
H36 C36 1_555 1_555
H37 C36 1_555 1_555
H38 C36 1_555 1_555
C37 Si2 1_555 1_555
H39 C37 1_555 1_555
C38 C37 1_555 1_555
H40 C38 1_555 1_555
H41 C38 1_555 1_555
H42 C38 1_555 1_555
C39 C37 1_555 1_555
H43 C39 1_555 1_555
H44 C39 1_555 1_555
H45 C39 1_555 1_555
C40 Si2 1_555 1_555
H46 C40 1_555 1_555
C41 C40 1_555 1_555
H47 C41 1_555 1_555
H48 C41 1_555 1_555
H49 C41 1_555 1_555
C42 C40 1_555 1_555
H50 C42 1_555 1_555
H51 C42 1_555 1_555
H52 C42 1_555 1_555
C5 C6 1_555 1_555
C7 C8 1_555 1_555
C16 C17 1_555 1_555
C18 C19 1_555 1_555
C19 C20 1_555 1_555

#END
