
#######################################################################
#
#                 Cambridge Crystallographic Data Centre
#                                CCDC 
#
#######################################################################
#
# If this CIF has been generated from an entry in the Cambridge 
# Structural Database, then it will include bibliographic, chemical, 
# crystal, experimental, refinement or atomic coordinate data resulting 
# from the CCDC's data processing and validation procedures.
#
#######################################################################

data_OGAGIO
_chemical_formula_moiety         'C20 H22 I1 N3 O1 Si1'
_chemical_name_systematic        
2-(1-(4-(Allyloxy)phenyl)-2-iodo-2-(trimethylsilyl)vinyl)-2H-benzotriazole
_symmetry_cell_setting           monoclinic
_symmetry_space_group_name_H-M   'P 21/c'
_symmetry_Int_Tables_number      14
_space_group_name_Hall           '-P 2ybc'
loop_
_symmetry_equiv_pos_site_id
_symmetry_equiv_pos_as_xyz
1 x,y,z
2 -x,1/2+y,1/2-z
3 -x,-y,-z
4 x,1/2-y,1/2+z
_cell_length_a                   8.3720(17)
_cell_length_b                   16.816(3)
_cell_length_c                   15.350(3)
_cell_angle_alpha                90
_cell_angle_beta                 94.16(3)
_cell_angle_gamma                90
_cell_volume                     2155.33
_cell_formula_units_Z            4
loop_
_atom_site_label
_atom_site_type_symbol
_atom_site_fract_x
_atom_site_fract_y
_atom_site_fract_z
I1 I 0.26632(7) 0.72667(3) 0.86551(4)
Si1 Si 0.5103(2) 0.74770(10) 0.70191(12)
O1 O 0.8164(6) 0.4245(3) 0.5576(3)
N1 N 0.1691(6) 0.5282(3) 0.8057(4)
C1 C 0.2771(9) 0.4125(4) 0.9972(4)
H1 H 0.3695 0.4034 1.0333
N2 N 0.3212(6) 0.5439(3) 0.8242(3)
C2 C 0.1381(10) 0.3779(4) 1.0113(4)
H2 H 0.1337 0.3440 1.0590
N3 N 0.3942(7) 0.5071(3) 0.8917(4)
C3 C 0.0010(10) 0.3902(4) 0.9583(5)
H3 H -0.0918 0.3639 0.9716
C4 C -0.0062(9) 0.4390(4) 0.8874(5)
H4 H -0.1007 0.4471 0.8529
C5 C 0.1373(8) 0.4762(4) 0.8695(4)
C6 C 0.2755(8) 0.4645(4) 0.9233(4)
C7 C 0.4175(7) 0.5937(3) 0.7702(4)
C8 C 0.5233(7) 0.5481(3) 0.7152(4)
C9 C 0.6854(8) 0.5543(3) 0.7319(4)
H5 H 0.7263 0.5860 0.7778
C10 C 0.7914(7) 0.5135(4) 0.6808(4)
H6 H 0.9016 0.5189 0.6915
C11 C 0.7288(8) 0.4659(3) 0.6151(4)
C12 C 0.5641(9) 0.4580(4) 0.5990(4)
H7 H 0.5223 0.4258 0.5537
C13 C 0.4635(8) 0.4981(4) 0.6508(4)
H8 H 0.3534 0.4910 0.6418
C14 C 0.9855(8) 0.4173(4) 0.5791(4)
H9 H 1.0053 0.3940 0.6367
H10 H 1.0357 0.4693 0.5792
C15 C 0.4062(7) 0.6733(3) 0.7723(4)
C16 C 0.6944(9) 0.7825(4) 0.7656(5)
H11 H 0.7497 0.8200 0.7314
H12 H 0.7630 0.7380 0.7799
H13 H 0.6657 0.8076 0.8184
C17 C 0.5564(8) 0.7050(4) 0.5963(4)
H14 H 0.6090 0.7442 0.5631
H15 H 0.4589 0.6886 0.5646
H16 H 0.6255 0.6598 0.6062
C18 C 0.3699(9) 0.8318(4) 0.6767(5)
H17 H 0.4199 0.8701 0.6410
H18 H 0.3434 0.8566 0.7301
H19 H 0.2741 0.8122 0.6458
C19 C 0.9760(12) 0.3342(5) 0.4456(7)
H20 H 0.8667 0.3431 0.4348
H21 H 1.0303 0.3026 0.4078
C20 C 1.0524(11) 0.3659(5) 0.5129(6)
H22 H 1.1614 0.3551 0.5205
loop_
_geom_bond_atom_site_label_1
_geom_bond_atom_site_label_2
_geom_bond_site_symmetry_1
_geom_bond_site_symmetry_2
I1 C15 1_555 1_555
Si1 C15 1_555 1_555
O1 C11 1_555 1_555
N1 N2 1_555 1_555
C1 H1 1_555 1_555
N2 N3 1_555 1_555
C2 C1 1_555 1_555
H2 C2 1_555 1_555
N3 C6 1_555 1_555
C3 C2 1_555 1_555
H3 C3 1_555 1_555
C4 C3 1_555 1_555
H4 C4 1_555 1_555
C5 N1 1_555 1_555
C6 C1 1_555 1_555
C7 N2 1_555 1_555
C8 C7 1_555 1_555
C9 C8 1_555 1_555
H5 C9 1_555 1_555
C10 C9 1_555 1_555
H6 C10 1_555 1_555
C11 C10 1_555 1_555
C12 C11 1_555 1_555
H7 C12 1_555 1_555
C13 C8 1_555 1_555
H8 C13 1_555 1_555
C14 O1 1_555 1_555
H9 C14 1_555 1_555
H10 C14 1_555 1_555
C15 C7 1_555 1_555
C16 Si1 1_555 1_555
H11 C16 1_555 1_555
H12 C16 1_555 1_555
H13 C16 1_555 1_555
C17 Si1 1_555 1_555
H14 C17 1_555 1_555
H15 C17 1_555 1_555
H16 C17 1_555 1_555
C18 Si1 1_555 1_555
H17 C18 1_555 1_555
H18 C18 1_555 1_555
H19 C18 1_555 1_555
C19 H20 1_555 1_555
H21 C19 1_555 1_555
C20 C14 1_555 1_555
H22 C20 1_555 1_555
C4 C5 1_555 1_555
C5 C6 1_555 1_555
C12 C13 1_555 1_555
C19 C20 1_555 1_555

#END
