
#######################################################################
#
#                 Cambridge Crystallographic Data Centre
#                                CCDC 
#
#######################################################################
#
# If this CIF has been generated from an entry in the Cambridge 
# Structural Database, then it will include bibliographic, chemical, 
# crystal, experimental, refinement or atomic coordinate data resulting 
# from the CCDC's data processing and validation procedures.
#
#######################################################################

data_OGAMUH
_chemical_formula_moiety         'C36 H32 N2 O8'
_chemical_name_systematic        
"diethyl 8,8'-bis(dimethylamino)-2,2'-dioxo-2H,2'H-[10,10'-binaphtho[2,3-b]pyran]-3,3'-dicarboxylate"
_symmetry_cell_setting           monoclinic
_symmetry_space_group_name_H-M   'C 2/c'
_symmetry_Int_Tables_number      15
_space_group_name_Hall           '-C 2yn'
loop_
_symmetry_equiv_pos_site_id
_symmetry_equiv_pos_as_xyz
1 x,y,z
2 -x,y,1/2-z
3 1/2+x,1/2+y,z
4 1/2-x,1/2+y,1/2-z
5 -x,-y,-z
6 x,-y,1/2+z
7 1/2-x,1/2-y,-z
8 1/2+x,1/2-y,1/2+z
_cell_length_a                   29.9695(15)
_cell_length_b                   8.1566(5)
_cell_length_c                   12.1516(7)
_cell_angle_alpha                90
_cell_angle_beta                 90.466(5)
_cell_angle_gamma                90
_cell_volume                     2970.35
_exptl_crystal_colour            orange
_exptl_crystal_description       block
_cell_formula_units_Z            4
loop_
_atom_site_label
_atom_site_type_symbol
_atom_site_fract_x
_atom_site_fract_y
_atom_site_fract_z
O1 O 0.43414(7) 0.5090(3) 0.71828(16)
O2 O 0.37965(8) 0.3389(3) 0.75739(18)
O3 O 0.31628(8) 0.2713(3) 0.59054(19)
O4 O 0.32650(8) 0.4181(3) 0.43674(19)
N1 N 0.63174(10) 0.9905(4) 0.6068(2)
C1 C 0.45894(10) 0.6022(4) 0.6457(2)
C2 C 0.44637(10) 0.6091(4) 0.5343(3)
C3 C 0.40619(10) 0.5290(4) 0.5010(2)
C4 C 0.49539(10) 0.6836(4) 0.6893(2)
C5 C 0.51119(10) 0.7769(4) 0.5001(3)
C6 C 0.52328(10) 0.7710(4) 0.6137(3)
C7 C 0.47265(10) 0.6981(4) 0.4625(2)
H1 H 0.464544 0.705434 0.388615
C8 C 0.59111(11) 0.9290(4) 0.5749(3)
C9 C 0.39625(10) 0.4222(4) 0.6863(3)
C10 C 0.56289(10) 0.8502(4) 0.6490(2)
H2 H 0.570335 0.849814 0.723405
C11 C 0.38107(10) 0.4429(4) 0.5725(3)
C12 C 0.33816(10) 0.3656(4) 0.5369(3)
C13 C 0.53888(11) 0.8673(4) 0.4272(3)
H3 H 0.530578 0.876591 0.353539
C14 C 0.57708(11) 0.9402(4) 0.4626(3)
H4 H 0.594400 0.998446 0.412930
C15 C 0.64887(12) 0.9667(5) 0.7180(3)
H5 H 0.636400 1.048150 0.765760
H6 H 0.680788 0.976784 0.718020
H7 H 0.640735 0.859526 0.743508
C16 C 0.65759(12) 1.0967(5) 0.5346(3)
H8 H 0.672581 1.031086 0.480664
H9 H 0.679246 1.156114 0.577391
H10 H 0.637954 1.172585 0.498133
C17 C 0.28395(11) 0.3589(5) 0.3948(3)
H11 H 0.259721 0.401260 0.438974
H12 H 0.283036 0.240109 0.397158
C18 C 0.27946(13) 0.4182(6) 0.2779(3)
H13 H 0.303769 0.376477 0.235197
H14 H 0.280011 0.535875 0.276707
H15 H 0.251732 0.380063 0.247130
H16 H 0.3970(11) 0.536(4) 0.432(3)
O1A O 0.56586(7) 0.5090(3) 0.78172(16)
O2A O 0.62035(8) 0.3389(3) 0.74261(18)
O3A O 0.68372(8) 0.2713(3) 0.90946(19)
O4A O 0.67350(8) 0.4181(3) 1.06326(19)
N1A N 0.36826(10) 0.9905(4) 0.8932(2)
C1A C 0.54106(10) 0.6022(4) 0.8543(2)
C2A C 0.55363(10) 0.6091(4) 0.9657(3)
C3A C 0.59381(10) 0.5290(4) 0.9990(2)
C4A C 0.50461(10) 0.6836(4) 0.8107(2)
C5A C 0.48881(10) 0.7769(4) 0.9999(3)
C6A C 0.47672(10) 0.7710(4) 0.8863(3)
C7A C 0.52735(10) 0.6981(4) 1.0375(2)
H1A H 0.535456 0.705434 1.111385
C8A C 0.40889(11) 0.9290(4) 0.9251(3)
C9A C 0.60375(10) 0.4222(4) 0.8137(3)
C10A C 0.43711(10) 0.8502(4) 0.8510(2)
H2A H 0.429665 0.849814 0.776595
C11A C 0.61893(10) 0.4429(4) 0.9275(3)
C12A C 0.66184(10) 0.3656(4) 0.9631(3)
C13A C 0.46112(11) 0.8673(4) 1.0728(3)
H3A H 0.469422 0.876591 1.146461
C14A C 0.42292(11) 0.9402(4) 1.0374(3)
H4A H 0.405600 0.998446 1.087070
C15A C 0.35113(12) 0.9667(5) 0.7820(3)
H5A H 0.363600 1.048150 0.734240
H6A H 0.319212 0.976784 0.781980
H7A H 0.359265 0.859526 0.756492
C16A C 0.34241(12) 1.0967(5) 0.9654(3)
H8A H 0.327419 1.031086 1.019336
H9A H 0.320754 1.156114 0.922609
H10A H 0.362046 1.172585 1.001867
C17A C 0.71605(11) 0.3589(5) 1.1052(3)
H11A H 0.740279 0.401260 1.061026
H12A H 0.716964 0.240109 1.102842
C18A C 0.72054(13) 0.4182(6) 1.2221(3)
H13A H 0.696231 0.376477 1.264803
H14A H 0.719989 0.535875 1.223293
H15A H 0.748268 0.380063 1.252870
H16A H 0.6030(11) 0.536(4) 1.068(3)
loop_
_geom_bond_atom_site_label_1
_geom_bond_atom_site_label_2
_geom_bond_site_symmetry_1
_geom_bond_site_symmetry_2
O1 C1 1_555 1_555
O2 C9 1_555 1_555
O3 C12 1_555 1_555
O4 C12 1_555 1_555
N1 C8 1_555 1_555
C1 C2 1_555 1_555
C2 C3 1_555 1_555
C3 C11 1_555 1_555
C4 C1 1_555 1_555
C5 C6 1_555 1_555
C6 C4 1_555 1_555
C7 C2 1_555 1_555
H1 C7 1_555 1_555
C8 C10 1_555 1_555
C9 O1 1_555 1_555
C10 C6 1_555 1_555
H2 C10 1_555 1_555
C11 C9 1_555 1_555
C12 C11 1_555 1_555
C13 C5 1_555 1_555
H3 C13 1_555 1_555
C14 C8 1_555 1_555
H4 C14 1_555 1_555
C15 N1 1_555 1_555
H5 C15 1_555 1_555
H6 C15 1_555 1_555
H7 C15 1_555 1_555
C16 N1 1_555 1_555
H8 C16 1_555 1_555
H9 C16 1_555 1_555
H10 C16 1_555 1_555
C17 O4 1_555 1_555
H11 C17 1_555 1_555
H12 C17 1_555 1_555
C18 C17 1_555 1_555
H13 C18 1_555 1_555
H14 C18 1_555 1_555
H15 C18 1_555 1_555
H16 C3 1_555 1_555
O1A C1A 1_555 1_555
O2A C9A 1_555 1_555
O3A C12A 1_555 1_555
O4A C12A 1_555 1_555
N1A C8A 1_555 1_555
C1A C2A 1_555 1_555
C2A C3A 1_555 1_555
C3A C11A 1_555 1_555
C4A C4 1_555 1_555
C5A C6A 1_555 1_555
C6A C4A 1_555 1_555
C7A C2A 1_555 1_555
H1A C7A 1_555 1_555
C8A C10A 1_555 1_555
C9A O1A 1_555 1_555
C10A C6A 1_555 1_555
H2A C10A 1_555 1_555
C11A C9A 1_555 1_555
C12A C11A 1_555 1_555
C13A C5A 1_555 1_555
H3A C13A 1_555 1_555
C14A C8A 1_555 1_555
H4A C14A 1_555 1_555
C15A N1A 1_555 1_555
H5A C15A 1_555 1_555
H6A C15A 1_555 1_555
H7A C15A 1_555 1_555
C16A N1A 1_555 1_555
H8A C16A 1_555 1_555
H9A C16A 1_555 1_555
H10A C16A 1_555 1_555
C17A O4A 1_555 1_555
H11A C17A 1_555 1_555
H12A C17A 1_555 1_555
C18A C17A 1_555 1_555
H13A C18A 1_555 1_555
H14A C18A 1_555 1_555
H15A C18A 1_555 1_555
H16A C3A 1_555 1_555
C5 C7 1_555 1_555
C13 C14 1_555 1_555
C1A C4A 1_555 1_555
C5A C7A 1_555 1_555
C13A C14A 1_555 1_555

#END
