
#######################################################################
#
#                 Cambridge Crystallographic Data Centre
#                                CCDC 
#
#######################################################################
#
# If this CIF has been generated from an entry in the Cambridge 
# Structural Database, then it will include bibliographic, chemical, 
# crystal, experimental, refinement or atomic coordinate data resulting 
# from the CCDC's data processing and validation procedures.
#
#######################################################################

data_OGARAR
_chemical_name_common            
4-(N-(4-(Dimethylamino)benzylidene)ethanehydrazonoyl)benzene-1,3-diol
_chemical_formula_moiety         'C17 H19 N3 O2'
_chemical_name_systematic        
'4-[(1E)-1-((2E)-[4-(dimethylamino) benzylidene] hydrazinylidene) ethyl] benezene-1,3-diol'
_symmetry_cell_setting           monoclinic
_symmetry_space_group_name_H-M   'P 21/n'
_symmetry_Int_Tables_number      14
_space_group_name_Hall           '-P 2yn'
loop_
_symmetry_equiv_pos_site_id
_symmetry_equiv_pos_as_xyz
1 x,y,z
2 1/2-x,1/2+y,1/2-z
3 -x,-y,-z
4 1/2+x,1/2-y,1/2+z
_cell_length_a                   11.8734(7)
_cell_length_b                   9.6194(6)
_cell_length_c                   27.2410(16)
_cell_angle_alpha                90
_cell_angle_beta                 96.435(3)
_cell_angle_gamma                90
_cell_volume                     3091.73
_exptl_crystal_colour            orange
_exptl_crystal_description       block
_cell_formula_units_Z            8
loop_
_atom_site_label
_atom_site_type_symbol
_atom_site_fract_x
_atom_site_fract_y
_atom_site_fract_z
O1 O 0.41962(12) 0.50880(15) 0.22220(5)
H1 H 0.4697 0.4794 0.2065
O2 O 0.33633(16) 0.7634(2) 0.07469(5)
H2 H 0.2993 0.8300 0.0631
N1 N -0.00963(18) 1.4855(2) -0.13452(7)
N2 N 0.13456(15) 1.06393(18) 0.04617(6)
N3 N 0.19627(15) 0.95962(18) 0.07264(6)
C1 C 0.0153(3) 1.4777(3) -0.18504(8)
H3 H 0.0956 1.4864 -0.1860
H4 H -0.0230 1.5516 -0.2038
H5 H -0.0100 1.3899 -0.1989
C2 C 0.03135(17) 1.3857(2) -0.10093(7)
C3 C 0.1197(2) 1.2968(2) -0.11074(7)
H6 H 0.1491 1.3024 -0.1409
C4 C 0.16298(19) 1.2021(2) -0.07628(8)
H7 H 0.2226 1.1458 -0.0835
C5 C 0.12162(17) 1.1865(2) -0.03111(7)
C6 C 0.16975(18) 1.0849(2) 0.00419(8)
H8 H 0.2301 1.0315 -0.0042
C7 C 0.17152(16) 0.9339(2) 0.11699(7)
C8 C 0.23652(15) 0.82412(19) 0.14418(7)
C9 C 0.31596(17) 0.7432(2) 0.12160(7)
C10 C 0.37638(17) 0.6388(2) 0.14764(7)
H9 H 0.4276 0.5859 0.1321
C11 C 0.36188(15) 0.6119(2) 0.19619(7)
C12 C -0.1061(2) 1.5689(3) -0.12533(10)
H10 H -0.1705 1.5097 -0.1234
H11 H -0.1225 1.6343 -0.1518
H12 H -0.0893 1.6181 -0.0947
C13 C -0.0106(2) 1.3714(2) -0.05534(8)
H13 H -0.0693 1.4285 -0.0476
C14 C 0.0337(2) 1.2737(2) -0.02161(8)
H14 H 0.0038 1.2660 0.0084
C15 C 0.0811(2) 1.0108(2) 0.13990(8)
H15 H 0.0432 1.0736 0.1161
H16 H 0.1147 1.0624 0.1680
H17 H 0.0273 0.9457 0.1503
C16 C 0.22483(17) 0.7938(2) 0.19339(7)
H18 H 0.1736 0.8455 0.2094
C17 C 0.28577(18) 0.6910(2) 0.21927(7)
H19 H 0.2760 0.6744 0.2522
O3 O 0.79277(14) 0.18645(15) 0.29599(5)
H20 H 0.8344 0.1184 0.2999
O4 O 0.59575(10) 0.45622(13) 0.17267(4)
H21 H 0.5925 0.4738 0.1431
N4 N 0.65998(13) 0.45581(16) 0.08581(5)
N5 N 0.65405(14) 0.51468(17) 0.03949(5)
N6 N 0.52288(16) 0.9209(2) -0.14495(6)
C18 C 0.77660(16) 0.21969(19) 0.24739(6)
C19 C 0.69321(16) 0.31434(19) 0.23293(6)
H22 H 0.6488 0.3486 0.2562
C20 C 0.67313(14) 0.36071(17) 0.18415(6)
C21 C 0.73998(15) 0.30440(18) 0.14848(6)
C22 C 0.73102(15) 0.35435(19) 0.09843(6)
C23 C 0.58764(17) 0.6196(2) 0.03341(7)
H23 H 0.5481 0.6476 0.0593
C24 C 0.57230(16) 0.69578(19) -0.01254(6)
C25 C 0.62816(17) 0.6592(2) -0.05314(7)
H24 H 0.6776 0.5839 -0.0507
C26 C 0.61125(18) 0.7322(2) -0.09646(7)
H25 H 0.6489 0.7047 -0.1230
C27 C 0.53864(17) 0.8475(2) -0.10185(7)
C28 C 0.4418(2) 1.0317(3) -0.15207(10)
H26 H 0.3670 0.9953 -0.1505
H27 H 0.4459 1.0737 -0.1838
H28 H 0.4583 1.1003 -0.1267
C29 C 0.84294(17) 0.1637(2) 0.21288(7)
H29 H 0.8996 0.0995 0.2226
C30 C 0.82289(17) 0.2052(2) 0.16474(7)
H30 H 0.8658 0.1662 0.1417
C31 C 0.5814(2) 0.8834(3) -0.18661(8)
H31 H 0.6603 0.8694 -0.1758
H32 H 0.5731 0.9566 -0.2107
H33 H 0.5496 0.7991 -0.2011
C32 C 0.48263(18) 0.8829(2) -0.06116(7)
H34 H 0.4329 0.9579 -0.0635
C33 C 0.49984(18) 0.8089(2) -0.01780(7)
H35 H 0.4618 0.8355 0.0087
C34 C 0.8018(2) 0.2999(2) 0.06082(8)
H36 H 0.7635 0.3154 0.0283
H37 H 0.8140 0.2020 0.0659
H38 H 0.8734 0.3472 0.0640
loop_
_geom_bond_atom_site_label_1
_geom_bond_atom_site_label_2
_geom_bond_site_symmetry_1
_geom_bond_site_symmetry_2
O1 H1 1_555 1_555
O2 H2 1_555 1_555
N1 C1 1_555 1_555
N2 N3 1_555 1_555
N3 C7 1_555 1_555
C1 H3 1_555 1_555
H4 C1 1_555 1_555
H5 C1 1_555 1_555
C2 N1 1_555 1_555
C3 C2 1_555 1_555
H6 C3 1_555 1_555
C4 C3 1_555 1_555
H7 C4 1_555 1_555
C5 C4 1_555 1_555
C6 N2 1_555 1_555
H8 C6 1_555 1_555
C7 C8 1_555 1_555
C8 C9 1_555 1_555
C9 O2 1_555 1_555
C10 C9 1_555 1_555
H9 C10 1_555 1_555
C11 O1 1_555 1_555
C12 N1 1_555 1_555
H10 C12 1_555 1_555
H11 C12 1_555 1_555
H12 C12 1_555 1_555
C13 C2 1_555 1_555
H13 C13 1_555 1_555
C14 C5 1_555 1_555
H14 C14 1_555 1_555
C15 C7 1_555 1_555
H15 C15 1_555 1_555
H16 C15 1_555 1_555
H17 C15 1_555 1_555
C16 C8 1_555 1_555
H18 C16 1_555 1_555
C17 C11 1_555 1_555
H19 C17 1_555 1_555
O3 H20 1_555 1_555
O4 H21 1_555 1_555
N4 N5 1_555 1_555
N5 C23 1_555 1_555
N6 C27 1_555 1_555
C18 O3 1_555 1_555
C19 C18 1_555 1_555
H22 C19 1_555 1_555
C20 O4 1_555 1_555
C21 C20 1_555 1_555
C22 N4 1_555 1_555
C23 H23 1_555 1_555
C24 C23 1_555 1_555
C25 C24 1_555 1_555
H24 C25 1_555 1_555
C26 C25 1_555 1_555
H25 C26 1_555 1_555
C27 C26 1_555 1_555
C28 N6 1_555 1_555
H26 C28 1_555 1_555
H27 C28 1_555 1_555
H28 C28 1_555 1_555
C29 C18 1_555 1_555
H29 C29 1_555 1_555
C30 C21 1_555 1_555
H30 C30 1_555 1_555
C31 N6 1_555 1_555
H31 C31 1_555 1_555
H32 C31 1_555 1_555
H33 C31 1_555 1_555
C32 C27 1_555 1_555
H34 C32 1_555 1_555
C33 C24 1_555 1_555
H35 C33 1_555 1_555
C34 C22 1_555 1_555
H36 C34 1_555 1_555
H37 C34 1_555 1_555
H38 C34 1_555 1_555
C5 C6 1_555 1_555
C10 C11 1_555 1_555
C13 C14 1_555 1_555
C16 C17 1_555 1_555
C19 C20 1_555 1_555
C21 C22 1_555 1_555
C29 C30 1_555 1_555
C32 C33 1_555 1_555

#END
