
#######################################################################
#
#                 Cambridge Crystallographic Data Centre
#                                CCDC 
#
#######################################################################
#
# If this CIF has been generated from an entry in the Cambridge 
# Structural Database, then it will include bibliographic, chemical, 
# crystal, experimental, refinement or atomic coordinate data resulting 
# from the CCDC's data processing and validation procedures.
#
#######################################################################

data_OGAYOL
_chemical_formula_moiety         'C76 H60 N16 O16'
_chemical_name_systematic        
"11,11':23,23'-bis(2,5-diazahexaene-2,5-diyl)-bis(5,17-benzyloxycarbonyl-2,8,14,20-tetraoxacalix(2)arene(2)triazine) unknown solvate"
_symmetry_cell_setting           triclinic
_symmetry_space_group_name_H-M   'P -1'
_symmetry_Int_Tables_number      2
_space_group_name_Hall           '-P 1'
loop_
_symmetry_equiv_pos_site_id
_symmetry_equiv_pos_as_xyz
1 x,y,z
2 -x,-y,-z
_cell_length_a                   14.117(5)
_cell_length_b                   15.736(5)
_cell_length_c                   20.905(5)
_cell_angle_alpha                101.255(5)
_cell_angle_beta                 98.513(5)
_cell_angle_gamma                96.039(5)
_cell_volume                     4461.2
_chemical_melting_point          'above 300 deg.C'
_cell_formula_units_Z            2
_exptl_crystal_recrystallization_method methanol/chloroform
loop_
_atom_site_label
_atom_site_type_symbol
_atom_site_fract_x
_atom_site_fract_y
_atom_site_fract_z
O1 O 0.8848(12) 0.7987(13) 0.6988(7)
O3 O 0.7715(3) 0.8492(2) 0.7522(3)
O4 O 1.1017(2) 0.71074(18) 1.00461(14)
O5 O 0.9809(3) 0.7199(2) 1.06132(18)
O6 O 0.81502(18) 0.47792(16) 0.65536(13)
O7 O 0.57846(16) 0.57490(17) 0.78396(15)
O8 O 0.73715(16) 0.45886(18) 0.94550(13)
O9 O 1.01089(16) 0.43299(17) 0.83661(13)
O10 O 0.37978(19) 0.12871(17) 0.62331(12)
O11 O 0.67976(16) 0.01744(17) 0.60411(12)
O12 O 0.72816(16) 0.05676(17) 0.82978(12)
O13 O 0.40079(19) 0.10422(16) 0.83916(13)
O14 O 0.2889(2) -0.1797(2) 0.4902(2)
O15 O 0.4307(2) -0.21824(18) 0.47222(14)
O16 O 0.5550(2) -0.2275(2) 0.85953(19)
O17 O 0.4018(2) -0.21358(17) 0.82649(18)
N1 N 0.90701(19) 0.45824(17) 0.74992(15)
N2 N 1.00748(19) 0.34632(18) 0.73799(15)
N3 N 0.9061(2) 0.37114(19) 0.64362(15)
N4 N 0.66529(19) 0.52101(19) 0.86354(16)
N5 N 0.49317(19) 0.50327(19) 0.84295(17)
N6 N 0.5762(2) 0.43771(19) 0.92417(16)
N7 N 0.41146(19) 0.42547(19) 0.90492(16)
N8 N 0.2779(2) 0.3328(2) 0.77145(17)
N9 N 0.9948(2) 0.2567(2) 0.63535(15)
N10 N 0.97643(19) 0.1240(2) 0.72814(15)
N11 N 0.3279(2) 0.22925(19) 0.69513(16)
N12 N 0.3368(2) 0.21642(18) 0.80738(16)
N13 N 0.3969(2) 0.11135(18) 0.73056(16)
N14 N 0.8501(2) 0.09285(19) 0.78048(15)
N15 N 0.69497(19) 0.03517(18) 0.71678(14)
N16 N 0.82648(19) 0.06903(18) 0.66273(14)
C1 C 1.0301(7) 0.8818(7) 0.6911(6)
C2 C 1.1049(8) 0.8734(8) 0.7399(5)
H1 H 1.0929 0.8708 0.7821
C3 C 1.1975(7) 0.8689(9) 0.7255(6)
H2 H 1.2475 0.8633 0.7581
C4 C 1.2154(8) 0.8728(9) 0.6625(7)
H3 H 1.2774 0.8698 0.6529
C5 C 1.1406(11) 0.8811(8) 0.6137(5)
H4 H 1.1526 0.8837 0.5715
C6 C 1.0480(9) 0.8857(8) 0.6281(6)
H5 H 0.9980 0.8913 0.5955
C13 C 0.9217(19) 0.887(2) 0.6946(14)
H11 H 0.9143 0.9296 0.7333
H13 H 0.8907 0.9040 0.6804
C15 C 0.8092(4) 0.7880(3) 0.7301(3)
C16 C 0.7751(3) 0.6960(2) 0.7301(2)
C17 C 0.8155(3) 0.6288(2) 0.6954(2)
H15 H 0.8659 0.6408 0.6731
C18 C 0.7794(3) 0.5442(2) 0.6948(2)
C19 C 0.7031(3) 0.5251(2) 0.7247(2)
H16 H 0.6785 0.4673 0.7226
C20 C 0.6630(2) 0.5923(2) 0.7581(2)
C21 C 0.6978(3) 0.6784(2) 0.7617(2)
H17 H 0.6703 0.7235 0.7847
C22 C 0.9675(2) 0.6011(2) 0.96959(18)
C23 C 1.0109(2) 0.5572(2) 0.92194(17)
H18 H 1.0732 0.5780 0.9175
C24 C 0.9618(2) 0.4817(2) 0.88032(17)
C25 C 0.8695(2) 0.4490(2) 0.88627(18)
H19 H 0.8370 0.3974 0.8586
C26 C 0.8278(2) 0.4950(2) 0.93406(18)
C27 C 0.8740(2) 0.5705(2) 0.97601(18)
H20 H 0.8437 0.6007 1.0082
C28 C 1.0157(3) 0.6833(3) 1.0169(2)
C29 C 1.1529(3) 0.7892(3) 1.0500(2)
H21 H 1.1654 0.7789 1.0945
H22 H 1.1142 0.8366 1.0501
C30 C 1.2456(2) 0.8125(2) 1.02778(15)
C31 C 1.3165(3) 0.75762(19) 1.02954(17)
H23 H 1.3042 0.7041 1.0415
C32 C 1.4059(3) 0.7827(3) 1.01348(19)
H24 H 1.4533 0.7460 1.0147
C33 C 1.4243(2) 0.8627(3) 0.99566(18)
H25 H 1.4841 0.8794 0.9849
C34 C 1.3534(3) 0.9175(2) 0.99390(17)
H26 H 1.3658 0.9710 0.9820
C35 C 1.2641(3) 0.8924(2) 1.00996(16)
H27 H 1.2166 0.9291 1.0088
C36 C 0.9720(2) 0.4116(2) 0.77143(18)
C37 C 0.9692(2) 0.3266(2) 0.67318(19)
C38 C 0.8787(2) 0.4339(2) 0.68492(19)
C39 C 0.5808(2) 0.5306(2) 0.8330(2)
C40 C 0.4955(2) 0.4560(2) 0.8905(2)
C41 C 0.6561(2) 0.4734(2) 0.90871(19)
C42 C 0.9527(4) 0.2295(3) 0.5645(2)
H28 H 0.9792 0.1788 0.5450
H29 H 0.9677 0.2762 0.5427
H30 H 0.8838 0.2156 0.5597
C43 C 1.0658(2) 0.2071(2) 0.6609(2)
H31 H 1.1008 0.2408 0.7033
H32 H 1.1118 0.1985 0.6309
C44 C 1.0233(3) 0.1189(2) 0.6700(2)
H33 H 0.9763 0.0907 0.6309
H34 H 1.0744 0.0826 0.6739
C45 C 1.0397(3) 0.1533(3) 0.7928(2)
H35 H 1.1040 0.1723 0.7866
H36 H 1.0410 0.1059 0.8155
H37 H 1.0156 0.2011 0.8186
C46 C 0.4091(3) 0.3742(3) 0.9537(2)
H38 H 0.3432 0.3578 0.9579
H39 H 0.4443 0.4076 0.9954
H40 H 0.4382 0.3225 0.9408
C47 C 0.3183(2) 0.4455(2) 0.8761(2)
H41 H 0.3293 0.4875 0.8487
H42 H 0.2872 0.4729 0.9115
C48 C 0.2505(2) 0.3667(2) 0.8345(2)
H43 H 0.2481 0.3208 0.8594
H44 H 0.1859 0.3827 0.8266
C49 C 0.2648(3) 0.3859(3) 0.7223(3)
H45 H 0.2379 0.4371 0.7401
H46 H 0.2217 0.3527 0.6836
H47 H 0.3262 0.4031 0.7107
C50 C 0.8821(2) 0.0949(2) 0.72334(19)
C51 C 0.7361(2) 0.0424(2) 0.66508(18)
C52 C 0.7584(2) 0.0615(2) 0.77241(17)
C53 C 0.3148(2) 0.2575(2) 0.7580(2)
C54 C 0.3683(2) 0.1574(2) 0.68617(18)
C55 C 0.3779(2) 0.1461(2) 0.7899(2)
C56 C 0.4309(3) -0.0833(2) 0.54363(17)
C57 C 0.3803(3) -0.0171(2) 0.56787(18)
H48 H 0.3132 -0.0238 0.5576
C58 C 0.4310(2) 0.0583(2) 0.60717(16)
C59 C 0.5295(2) 0.0708(2) 0.62364(17)
H49 H 0.5623 0.1224 0.6512
C60 C 0.5789(2) 0.0044(2) 0.59809(16)
C61 C 0.5312(3) -0.0725(2) 0.55838(17)
H50 H 0.5654 -0.1166 0.5416
C62 C 0.3738(4) -0.1650(3) 0.4995(2)
C63 C 0.3838(4) -0.3019(3) 0.4293(2)
H51 H 0.3204 -0.3167 0.4400
H52 H 0.4220 -0.3478 0.4368
C64 C 0.3737(3) -0.2955(2) 0.3580(2)
C65 C 0.2923(3) -0.2691(3) 0.3267(3)
H53 H 0.2442 -0.2531 0.3508
C66 C 0.2806(4) -0.2660(3) 0.2619(3)
H54 H 0.2247 -0.2488 0.2417
C67 C 0.3504(5) -0.2879(3) 0.2267(3)
H55 H 0.3416 -0.2860 0.1820
C68 C 0.4338(4) -0.3130(3) 0.2549(3)
H56 H 0.4816 -0.3273 0.2301
C69 C 0.4457(3) -0.3166(3) 0.3220(3)
H57 H 0.5019 -0.3332 0.3423
C70 C 0.5162(3) -0.0916(2) 0.83798(19)
C71 C 0.6104(3) -0.0608(2) 0.83350(18)
H58 H 0.6584 -0.0970 0.8343
C72 C 0.6308(2) 0.0242(2) 0.82792(17)
C73 C 0.5629(3) 0.0791(2) 0.82769(17)
H59 H 0.5788 0.1367 0.8243
C74 C 0.4461(3) -0.0372(2) 0.83735(18)
H60 H 0.3830 -0.0580 0.8402
C75 C 0.4696(3) 0.0478(2) 0.83257(17)
C76 C 0.4951(3) -0.1832(3) 0.8429(2)
C77 C 0.3756(3) -0.3037(3) 0.8297(3)
H61 H 0.3934 -0.3119 0.8745
H62 H 0.4077 -0.3422 0.8005
C78 C 0.2682(3) -0.3217(4) 0.8080(3)
C79 C 0.2128(4) -0.2766(4) 0.8492(3)
H63 H 0.2429 -0.2354 0.8868
C80 C 0.1125(4) -0.2932(5) 0.8341(4)
H64 H 0.0754 -0.2630 0.8616
C81 C 0.0675(3) -0.3549(7) 0.7778(5)
H65 H 0.0004 -0.3659 0.7677
C82 C 0.1229(6) -0.4000(6) 0.7367(4)
H66 H 0.0928 -0.4412 0.6990
C83 C 0.2232(5) -0.3834(5) 0.7518(4)
H67 H 0.2603 -0.4136 0.7242
O2? O 0.8986(16) 0.7957(15) 0.7184(11)
C7? C 1.0295(6) 0.8851(6) 0.6931(6)
C8? C 1.0992(8) 0.9353(5) 0.7443(5)
H6? H 1.0809 0.9659 0.7822
C9? C 1.1965(7) 0.9399(7) 0.7387(7)
H7? H 1.2432 0.9736 0.7730
C10? C 1.2240(8) 0.8943(9) 0.6821(8)
H8? H 1.2890 0.8974 0.6784
C11? C 1.1542(11) 0.8440(9) 0.6309(6)
H9? H 1.1726 0.8135 0.5930
C12? C 1.0570(10) 0.8394(8) 0.6365(5)
H10? H 1.0103 0.8058 0.6023
H12? H 0.8888 0.9026 0.6552
C14? C 0.9353(17) 0.8849(17) 0.7129(15)
H14? H 0.9403 0.9251 0.7552
C84? C 0.2746(6) -0.3312(9) 0.7979(7)
C85? C 0.1910(9) -0.3252(8) 0.8254(6)
H68? H 0.1952 -0.2988 0.8697
C86? C 0.1012(6) -0.3588(13) 0.7865(8)
H69? H 0.0453 -0.3548 0.8049
C87? C 0.0950(8) -0.3983(14) 0.7202(8)
H70? H 0.0350 -0.4207 0.6942
C88? C 0.1786(11) -0.4042(12) 0.6928(6)
H71? H 0.1744 -0.4307 0.6484
C89? C 0.2684(9) -0.3707(11) 0.7316(7)
H72? H 0.3243 -0.3747 0.7133
loop_
_geom_bond_atom_site_label_1
_geom_bond_atom_site_label_2
_geom_bond_site_symmetry_1
_geom_bond_site_symmetry_2
O1 C13 1_555 1_555
O3 C15 1_555 1_555
O4 C28 1_555 1_555
O5 C28 1_555 1_555
O6 C18 1_555 1_555
O7 C20 1_555 1_555
O8 C26 1_555 1_555
O9 C24 1_555 1_555
O10 C54 1_555 1_555
O11 C51 1_555 1_555
O12 C52 1_555 1_555
O13 C55 1_555 1_555
O14 C62 1_555 1_555
O15 C62 1_555 1_555
O16 C76 1_555 1_555
O17 C76 1_555 1_555
N1 C36 1_555 1_555
N2 C36 1_555 1_555
N3 C37 1_555 1_555
N4 C39 1_555 1_555
N5 C39 1_555 1_555
N6 C40 1_555 1_555
N7 C40 1_555 1_555
N8 C48 1_555 1_555
N9 C37 1_555 1_555
N10 C44 1_555 1_555
N11 C53 1_555 1_555
N12 C53 1_555 1_555
N13 C54 1_555 1_555
N14 C50 1_555 1_555
N15 C51 1_555 1_555
N16 C50 1_555 1_555
C1 C2 1_555 1_555
C2 H1 1_555 1_555
C3 C2 1_555 1_555
H2 C3 1_555 1_555
C4 C3 1_555 1_555
H3 C4 1_555 1_555
C5 C4 1_555 1_555
H4 C5 1_555 1_555
C6 C1 1_555 1_555
H5 C6 1_555 1_555
C13 C1 1_555 1_555
H11 C13 1_555 1_555
H13 C13 1_555 1_555
C15 O1 1_555 1_555
C16 C15 1_555 1_555
C17 C16 1_555 1_555
H15 C17 1_555 1_555
C18 C17 1_555 1_555
C19 C18 1_555 1_555
H16 C19 1_555 1_555
C20 C19 1_555 1_555
C21 C16 1_555 1_555
H17 C21 1_555 1_555
C22 C23 1_555 1_555
C23 H18 1_555 1_555
C24 C23 1_555 1_555
C25 C24 1_555 1_555
H19 C25 1_555 1_555
C26 C25 1_555 1_555
C27 C22 1_555 1_555
H20 C27 1_555 1_555
C28 C22 1_555 1_555
C29 O4 1_555 1_555
H21 C29 1_555 1_555
H22 C29 1_555 1_555
C30 C29 1_555 1_555
C31 C30 1_555 1_555
H23 C31 1_555 1_555
C32 C31 1_555 1_555
H24 C32 1_555 1_555
C33 C32 1_555 1_555
H25 C33 1_555 1_555
C34 C33 1_555 1_555
H26 C34 1_555 1_555
C35 C30 1_555 1_555
H27 C35 1_555 1_555
C36 O9 1_555 1_555
C37 N2 1_555 1_555
C38 O6 1_555 1_555
C39 O7 1_555 1_555
C40 N5 1_555 1_555
C41 O8 1_555 1_555
C42 N9 1_555 1_555
H28 C42 1_555 1_555
H29 C42 1_555 1_555
H30 C42 1_555 1_555
C43 N9 1_555 1_555
H31 C43 1_555 1_555
H32 C43 1_555 1_555
C44 C43 1_555 1_555
H33 C44 1_555 1_555
H34 C44 1_555 1_555
C45 N10 1_555 1_555
H35 C45 1_555 1_555
H36 C45 1_555 1_555
H37 C45 1_555 1_555
C46 N7 1_555 1_555
H38 C46 1_555 1_555
H39 C46 1_555 1_555
H40 C46 1_555 1_555
C47 N7 1_555 1_555
H41 C47 1_555 1_555
H42 C47 1_555 1_555
C48 C47 1_555 1_555
H43 C48 1_555 1_555
H44 C48 1_555 1_555
C49 N8 1_555 1_555
H45 C49 1_555 1_555
H46 C49 1_555 1_555
H47 C49 1_555 1_555
C50 N10 1_555 1_555
C51 N16 1_555 1_555
C52 N14 1_555 1_555
C53 N8 1_555 1_555
C54 N11 1_555 1_555
C55 N12 1_555 1_555
C56 C57 1_555 1_555
C57 H48 1_555 1_555
C58 O10 1_555 1_555
C59 C58 1_555 1_555
H49 C59 1_555 1_555
C60 O11 1_555 1_555
C61 C56 1_555 1_555
H50 C61 1_555 1_555
C62 C56 1_555 1_555
C63 O15 1_555 1_555
H51 C63 1_555 1_555
H52 C63 1_555 1_555
C64 C63 1_555 1_555
C65 C64 1_555 1_555
H53 C65 1_555 1_555
C66 C65 1_555 1_555
H54 C66 1_555 1_555
C67 C66 1_555 1_555
H55 C67 1_555 1_555
C68 C67 1_555 1_555
H56 C68 1_555 1_555
C69 C64 1_555 1_555
H57 C69 1_555 1_555
C70 C71 1_555 1_555
C71 H58 1_555 1_555
C72 O12 1_555 1_555
C73 C72 1_555 1_555
H59 C73 1_555 1_555
C74 C70 1_555 1_555
H60 C74 1_555 1_555
C75 O13 1_555 1_555
C76 C70 1_555 1_555
C77 O17 1_555 1_555
H61 C77 1_555 1_555
H62 C77 1_555 1_555
C78 C77 1_555 1_555
C79 C78 1_555 1_555
H63 C79 1_555 1_555
C80 C79 1_555 1_555
H64 C80 1_555 1_555
C81 C80 1_555 1_555
H65 C81 1_555 1_555
C82 C81 1_555 1_555
H66 C82 1_555 1_555
C83 C78 1_555 1_555
H67 C83 1_555 1_555
N1 C38 1_555 1_555
N3 C38 1_555 1_555
N4 C41 1_555 1_555
N6 C41 1_555 1_555
N13 C55 1_555 1_555
N15 C52 1_555 1_555
C5 C6 1_555 1_555
C20 C21 1_555 1_555
C26 C27 1_555 1_555
C34 C35 1_555 1_555
C57 C58 1_555 1_555
C59 C60 1_555 1_555
C60 C61 1_555 1_555
C68 C69 1_555 1_555
C71 C72 1_555 1_555
C73 C75 1_555 1_555
C74 C75 1_555 1_555
C82 C83 1_555 1_555

#END
