
#######################################################################
#
#                 Cambridge Crystallographic Data Centre
#                                CCDC 
#
#######################################################################
#
# If this CIF has been generated from an entry in the Cambridge 
# Structural Database, then it will include bibliographic, chemical, 
# crystal, experimental, refinement or atomic coordinate data resulting 
# from the CCDC's data processing and validation procedures.
#
#######################################################################

data_OGEFEM
_chemical_formula_moiety         'C19 H21 Br1 Cl1 N1 O1'
_chemical_name_systematic        
2-Bromo-4-chloro-6-((2,6-di-isopropylphenyl)iminomethyl)phenol
_symmetry_cell_setting           monoclinic
_symmetry_space_group_name_H-M   'P 21/n'
_symmetry_Int_Tables_number      14
_space_group_name_Hall           '-P 2yn'
loop_
_symmetry_equiv_pos_site_id
_symmetry_equiv_pos_as_xyz
1 x,y,z
2 1/2-x,1/2+y,1/2-z
3 -x,-y,-z
4 1/2+x,1/2-y,1/2+z
_cell_length_a                   11.356(2)
_cell_length_b                   15.045(3)
_cell_length_c                   22.660(5)
_cell_angle_alpha                90
_cell_angle_beta                 91.36(3)
_cell_angle_gamma                90
_cell_volume                     3870.39
_exptl_crystal_colour            colorless
_exptl_crystal_description       Block
_cell_formula_units_Z            8
_exptl_crystal_recrystallization_method ethanol
loop_
_atom_site_label
_atom_site_type_symbol
_atom_site_fract_x
_atom_site_fract_y
_atom_site_fract_z
Br1 Br 0.40344(6) 0.77524(4) 0.52632(2)
Cl1 Cl -0.06647(12) 0.75082(9) 0.58127(6)
O1 O 0.4129(2) 0.60711(19) 0.59597(13)
H1 H 0.4147 0.5609 0.6152
N1 N 0.3289(3) 0.4748(2) 0.65542(13)
C1 C 0.3129(4) 0.2336(3) 0.68334(19)
H3 H 0.2833 0.1820 0.6660
C2 C 0.3718(4) 0.2290(3) 0.7371(2)
H4 H 0.3799 0.1745 0.7561
C3 C 0.4184(4) 0.3039(3) 0.76285(19)
H5 H 0.4600 0.2991 0.7986
C4 C 0.4050(4) 0.3865(3) 0.73692(17)
C5 C 0.3417(3) 0.3900(3) 0.68311(16)
C6 C 0.2973(3) 0.3146(3) 0.65476(16)
C7 C 0.2381(4) 0.3171(3) 0.59384(19)
H6 H 0.2328 0.3797 0.5821
C8 C 0.3125(5) 0.2709(5) 0.5489(2)
H7 H 0.3185 0.2089 0.5585
H8 H 0.3897 0.2969 0.5493
H9 H 0.2766 0.2776 0.5104
C9 C 0.1148(5) 0.2808(6) 0.5929(3)
H10 H 0.1171 0.2179 0.5997
H11 H 0.0779 0.2925 0.5551
H12 H 0.0705 0.3090 0.6232
C10 C 0.4545(5) 0.4695(3) 0.7655(2)
H13 H 0.4494 0.5173 0.7363
C11 C 0.3828(7) 0.4963(6) 0.8163(4)
H14 H 0.3029 0.5062 0.8032
H15 H 0.4142 0.5500 0.8333
H16 H 0.3847 0.4500 0.8455
C12 C 0.5830(6) 0.4609(5) 0.7853(3)
H17 H 0.6164 0.5190 0.7906
H18 H 0.6256 0.4293 0.7559
H19 H 0.5879 0.4289 0.8220
C13 C 0.2279(4) 0.5113(3) 0.65150(15)
H20 H 0.1642 0.4836 0.6688
C14 C 0.2094(3) 0.5947(2) 0.62079(15)
C15 C 0.3027(4) 0.6388(2) 0.59373(16)
C16 C 0.2787(4) 0.7172(3) 0.56345(17)
C17 C 0.1650(5) 0.7516(3) 0.55948(18)
H21 H 0.1500 0.8044 0.5393
C18 C 0.0757(4) 0.7064(3) 0.58573(19)
C19 C 0.0958(4) 0.6301(3) 0.61582(17)
H22 H 0.0336 0.6010 0.6334
Br2 Br 0.84887(5) -0.02832(4) 0.51695(3)
Cl2 Cl 0.39884(10) 0.00891(9) 0.60014(6)
O2 O 0.8822(2) 0.14048(19) 0.58425(13)
H2 H 0.8905 0.1875 0.6022
N2 N 0.8189(3) 0.2768(2) 0.64732(14)
C20 C 0.8777(5) 0.5253(3) 0.7251(2)
H23 H 0.8885 0.5804 0.7430
C21 C 0.9117(4) 0.4493(4) 0.7540(2)
H24 H 0.9476 0.4540 0.7912
C22 C 0.8946(4) 0.3656(3) 0.72966(18)
C23 C 0.8386(3) 0.3623(3) 0.67371(17)
C24 C 0.8085(3) 0.4385(3) 0.64220(17)
C25 C 0.8273(4) 0.5199(3) 0.66907(18)
H25 H 0.8057 0.5717 0.6492
C26 C 0.7578(4) 0.4342(3) 0.57945(18)
H26 H 0.7622 0.3720 0.5668
C27 C 0.6302(5) 0.4608(5) 0.5760(3)
H27 H 0.5876 0.4291 0.6055
H28 H 0.5980 0.4467 0.5376
H29 H 0.6235 0.5235 0.5828
C28 C 0.8313(7) 0.4877(5) 0.5378(2)
H30 H 0.8103 0.4723 0.4978
H31 H 0.9132 0.4750 0.5451
H32 H 0.8172 0.5499 0.5439
C29 C 0.9318(5) 0.2826(4) 0.7619(2)
H33 H 0.9285 0.2336 0.7334
C30 C 0.8473(7) 0.2609(6) 0.8100(4)
H34 H 0.8482 0.3080 0.8386
H35 H 0.8707 0.2063 0.8288
H36 H 0.7693 0.2546 0.7933
C31 C 1.0574(6) 0.2868(5) 0.7873(3)
H37 H 1.0612 0.3293 0.8188
H38 H 1.1101 0.3043 0.7569
H39 H 1.0800 0.2293 0.8021
C32 C 0.7163(4) 0.2424(3) 0.64959(16)
H40 H 0.6581 0.2726 0.6696
C33 C 0.6875(3) 0.1580(3) 0.62199(15)
C34 C 0.7715(3) 0.1114(3) 0.58969(17)
C35 C 0.7374(4) 0.0327(3) 0.56155(18)
C36 C 0.6244(4) 0.0016(3) 0.56471(18)
H41 H 0.6026 -0.0508 0.5456
C37 C 0.5435(4) 0.0485(3) 0.59632(17)
C38 C 0.5731(3) 0.1258(3) 0.62503(16)
H42 H 0.5171 0.1564 0.6464
loop_
_geom_bond_atom_site_label_1
_geom_bond_atom_site_label_2
_geom_bond_site_symmetry_1
_geom_bond_site_symmetry_2
Br1 C16 1_555 1_555
Br2 C35 1_555 1_555
Cl1 C18 1_555 1_555
Cl2 C37 1_555 1_555
O1 H1 1_555 1_555
O2 H2 1_555 1_555
N1 C5 1_555 1_555
N2 C23 1_555 1_555
C1 H3 1_555 1_555
C2 C1 1_555 1_555
H4 C2 1_555 1_555
C3 C2 1_555 1_555
H5 C3 1_555 1_555
C4 C3 1_555 1_555
C5 C4 1_555 1_555
C6 C1 1_555 1_555
C7 C6 1_555 1_555
H6 C7 1_555 1_555
C8 C7 1_555 1_555
H7 C8 1_555 1_555
H8 C8 1_555 1_555
H9 C8 1_555 1_555
C9 C7 1_555 1_555
H10 C9 1_555 1_555
H11 C9 1_555 1_555
H12 C9 1_555 1_555
C10 C4 1_555 1_555
H13 C10 1_555 1_555
C11 C10 1_555 1_555
H14 C11 1_555 1_555
H15 C11 1_555 1_555
H16 C11 1_555 1_555
C12 C10 1_555 1_555
H17 C12 1_555 1_555
H18 C12 1_555 1_555
H19 C12 1_555 1_555
C13 N1 1_555 1_555
H20 C13 1_555 1_555
C14 C13 1_555 1_555
C15 O1 1_555 1_555
C16 C15 1_555 1_555
C17 C16 1_555 1_555
H21 C17 1_555 1_555
C18 C17 1_555 1_555
C19 C14 1_555 1_555
H22 C19 1_555 1_555
C20 H23 1_555 1_555
C21 C20 1_555 1_555
H24 C21 1_555 1_555
C22 C21 1_555 1_555
C23 C22 1_555 1_555
C24 C23 1_555 1_555
C25 C20 1_555 1_555
H25 C25 1_555 1_555
C26 C24 1_555 1_555
H26 C26 1_555 1_555
C27 C26 1_555 1_555
H27 C27 1_555 1_555
H28 C27 1_555 1_555
H29 C27 1_555 1_555
C28 C26 1_555 1_555
H30 C28 1_555 1_555
H31 C28 1_555 1_555
H32 C28 1_555 1_555
C29 C22 1_555 1_555
H33 C29 1_555 1_555
C30 C29 1_555 1_555
H34 C30 1_555 1_555
H35 C30 1_555 1_555
H36 C30 1_555 1_555
C31 C29 1_555 1_555
H37 C31 1_555 1_555
H38 C31 1_555 1_555
H39 C31 1_555 1_555
C32 N2 1_555 1_555
H40 C32 1_555 1_555
C33 C32 1_555 1_555
C34 O2 1_555 1_555
C35 C34 1_555 1_555
C36 C35 1_555 1_555
H41 C36 1_555 1_555
C37 C36 1_555 1_555
C38 C33 1_555 1_555
H42 C38 1_555 1_555
C5 C6 1_555 1_555
C14 C15 1_555 1_555
C18 C19 1_555 1_555
C24 C25 1_555 1_555
C33 C34 1_555 1_555
C37 C38 1_555 1_555

#END
