
#######################################################################
#
#                 Cambridge Crystallographic Data Centre
#                                CCDC 
#
#######################################################################
#
# If this CIF has been generated from an entry in the Cambridge 
# Structural Database, then it will include bibliographic, chemical, 
# crystal, experimental, refinement or atomic coordinate data resulting 
# from the CCDC's data processing and validation procedures.
#
#######################################################################

data_OGEPIA
_chemical_formula_moiety         'C13 H14 N2,2(C8 H6 O5)'
_chemical_name_systematic        
'1,3-Di-4-pyridylpropane 2-hydroxybenzene-1,4-dicarboxylic acid'
_symmetry_cell_setting           monoclinic
_symmetry_space_group_name_H-M   'C 2/c'
_symmetry_Int_Tables_number      15
_space_group_name_Hall           '-C 2yn'
loop_
_symmetry_equiv_pos_site_id
_symmetry_equiv_pos_as_xyz
1 x,y,z
2 1/2+x,1/2+y,z
3 -x,y,1/2-z
4 1/2-x,1/2+y,1/2-z
5 -x,-y,-z
6 1/2-x,1/2-y,-z
7 x,-y,1/2+z
8 1/2+x,1/2-y,1/2+z
_cell_length_a                   22.939(11)
_cell_length_b                   4.781(2)
_cell_length_c                   24.163(11)
_cell_angle_alpha                90
_cell_angle_beta                 96.542(6)
_cell_angle_gamma                90
_cell_volume                     2632.73
_exptl_crystal_colour            colorless
_exptl_crystal_description       block
_cell_formula_units_Z            4
loop_
_atom_site_label
_atom_site_type_symbol
_atom_site_fract_x
_atom_site_fract_y
_atom_site_fract_z
O1 O 0.38415(11) 1.0471(6) 0.32590(9)
H1 H 0.3557 0.9516 0.3141
O2 O 0.24082(9) 0.8169(5) 0.40221(9)
H2 H 0.2203 0.6976 0.3852
O3 O 0.29118(9) 0.7716(5) 0.32941(9)
O4 O 0.43663(9) 1.8252(5) 0.51792(9)
H3 H 0.4624 1.9400 0.5274
O5 O 0.48854(9) 1.7794(5) 0.44642(10)
C1 C 0.32537(12) 1.0947(6) 0.40090(12)
C2 C 0.37382(13) 1.1721(6) 0.37430(13)
C3 C 0.41262(13) 1.3722(6) 0.39812(13)
H4 H 0.4451 1.4215 0.3805
C4 C 0.40338(12) 1.4989(6) 0.44770(12)
C5 C 0.35515(13) 1.4263(6) 0.47459(13)
H5 H 0.3486 1.5125 0.5078
C6 C 0.31687(13) 1.2222(6) 0.45088(13)
H6 H 0.2849 1.1702 0.4690
C7 C 0.28337(13) 0.8782(6) 0.37506(14)
C8 C 0.44604(13) 1.7142(6) 0.47143(13)
N1 N 0.17662(11) 0.4242(5) 0.35544(11)
C9 C 0.18299(12) 0.3070(7) 0.30666(13)
H7 H 0.2147 0.3584 0.2881
C10 C 0.14366(12) 0.1103(6) 0.28276(12)
H8 H 0.1493 0.0298 0.2488
C11 C 0.09577(12) 0.0334(6) 0.30954(12)
C12 C 0.09152(13) 0.1551(7) 0.36110(13)
H9 H 0.0609 0.1056 0.3813
C13 C 0.13223(14) 0.3479(7) 0.38230(13)
H10 H 0.1285 0.4277 0.4168
C14 C 0.04828(11) -0.1557(6) 0.28235(12)
H11 H 0.0318 -0.2651 0.3106
H12 H 0.0648 -0.2837 0.2572
C15 C 0.0000 0.0194(8) 0.2500
H13 H 0.0176 0.1391 0.2241
H14 H -0.0176 0.1391 0.2759
N1B N -0.17662(11) 0.4242(5) 0.14456(11)
C9B C -0.18299(12) 0.3070(7) 0.19334(13)
H7B H -0.2147 0.3584 0.2119
C10B C -0.14366(12) 0.1103(6) 0.21724(12)
H8B H -0.1493 0.0298 0.2512
C11B C -0.09577(12) 0.0334(6) 0.19046(12)
C12B C -0.09152(13) 0.1551(7) 0.13890(13)
H9B H -0.0609 0.1056 0.1187
C13B C -0.13223(14) 0.3479(7) 0.11770(13)
H10B H -0.1285 0.4277 0.0832
C14B C -0.04828(11) -0.1557(6) 0.21765(12)
H11B H -0.0318 -0.2651 0.1894
H12B H -0.0648 -0.2837 0.2428
loop_
_geom_bond_atom_site_label_1
_geom_bond_atom_site_label_2
_geom_bond_site_symmetry_1
_geom_bond_site_symmetry_2
O1 H1 1_555 1_555
O2 H2 1_555 1_555
O3 C7 1_555 1_555
O4 H3 1_555 1_555
O5 C8 1_555 1_555
C1 C2 1_555 1_555
C2 O1 1_555 1_555
C3 C2 1_555 1_555
H4 C3 1_555 1_555
C4 C3 1_555 1_555
C5 C4 1_555 1_555
H5 C5 1_555 1_555
C6 C1 1_555 1_555
H6 C6 1_555 1_555
C7 O2 1_555 1_555
C8 O4 1_555 1_555
N1 C9 1_555 1_555
C9 H7 1_555 1_555
C10 C9 1_555 1_555
H8 C10 1_555 1_555
C11 C10 1_555 1_555
C12 C11 1_555 1_555
H9 C12 1_555 1_555
C13 N1 1_555 1_555
H10 C13 1_555 1_555
C14 C11 1_555 1_555
H11 C14 1_555 1_555
H12 C14 1_555 1_555
C15 C14 1_555 1_555
H13 C15 1_555 1_555
H14 C15 1_555 1_555
N1B C9B 1_555 1_555
C9B H7B 1_555 1_555
C10B C9B 1_555 1_555
H8B C10B 1_555 1_555
C11B C10B 1_555 1_555
C12B C11B 1_555 1_555
H9B C12B 1_555 1_555
C13B N1B 1_555 1_555
H10B C13B 1_555 1_555
C14B C15 1_555 1_555
H11B C14B 1_555 1_555
H12B C14B 1_555 1_555
C1 C7 1_555 1_555
C4 C8 1_555 1_555
C5 C6 1_555 1_555
C12 C13 1_555 1_555
C11B C14B 1_555 1_555
C12B C13B 1_555 1_555

#END
