
#######################################################################
#
#                 Cambridge Crystallographic Data Centre
#                                CCDC 
#
#######################################################################
#
# If this CIF has been generated from an entry in the Cambridge 
# Structural Database, then it will include bibliographic, chemical, 
# crystal, experimental, refinement or atomic coordinate data resulting 
# from the CCDC's data processing and validation procedures.
#
#######################################################################

data_OGESAV
_chemical_formula_moiety         'C4 H8 N2 O2'
_chemical_name_systematic        N-(2-Formamidoethyl)formamide
_symmetry_cell_setting           orthorhombic
_symmetry_space_group_name_H-M   'P b c a'
_symmetry_Int_Tables_number      61
_space_group_name_Hall           '-P 2ac 2ab'
loop_
_symmetry_equiv_pos_site_id
_symmetry_equiv_pos_as_xyz
1 x,y,z
2 1/2-x,-y,1/2+z
3 -x,1/2+y,1/2-z
4 1/2+x,1/2-y,-z
5 -x,-y,-z
6 1/2+x,y,1/2-z
7 x,1/2-y,1/2+z
8 1/2-x,1/2+y,z
_cell_length_a                   8.7138(17)
_cell_length_b                   6.6714(13)
_cell_length_c                   9.3162(19)
_cell_angle_alpha                90
_cell_angle_beta                 90
_cell_angle_gamma                90
_cell_volume                     541.581
_exptl_crystal_colour            colorless
_exptl_crystal_description       block
_chemical_melting_point          '381 K'
_cell_formula_units_Z            4
_exptl_crystal_recrystallization_method 'anhydrous methyl alcohol'
loop_
_atom_site_label
_atom_site_type_symbol
_atom_site_fract_x
_atom_site_fract_y
_atom_site_fract_z
C1 C 0.26367(12) 0.50564(15) 0.69236(11)
H1 H 0.1616 0.4744 0.7110
C2 C 0.45751(11) 0.59669(16) 0.51762(12)
H2 H 0.5102 0.6659 0.5948
H3 H 0.4575 0.6835 0.4341
N1 N 0.30073(10) 0.55554(13) 0.56027(10)
H4 H 0.2325(15) 0.5444(19) 0.4965(17)
O1 O 0.35499(8) 0.49743(11) 0.79307(8)
C1D C 0.73633(12) 0.49436(15) 0.30764(11)
H1D H 0.8384 0.5256 0.2890
C2D C 0.54249(11) 0.40331(16) 0.48238(12)
H2D H 0.4898 0.3341 0.4052
H3D H 0.5425 0.3165 0.5659
N1D N 0.69927(10) 0.44446(13) 0.43973(10)
H4D H 0.7675(15) 0.4556(19) 0.5035(17)
O1D O 0.64501(8) 0.50257(11) 0.20693(8)
loop_
_geom_bond_atom_site_label_1
_geom_bond_atom_site_label_2
_geom_bond_site_symmetry_1
_geom_bond_site_symmetry_2
C1 H1 1_555 1_555
C2 H2 1_555 1_555
H3 C2 1_555 1_555
N1 C1 1_555 1_555
H4 N1 1_555 1_555
O1 C1 1_555 1_555
C1D H1D 1_555 1_555
C2D C2 1_555 1_555
H2D C2D 1_555 1_555
H3D C2D 1_555 1_555
N1D C1D 1_555 1_555
H4D N1D 1_555 1_555
O1D C1D 1_555 1_555
C2 N1 1_555 1_555
C2D N1D 1_555 1_555

#END
