
#######################################################################
#
#                 Cambridge Crystallographic Data Centre
#                                CCDC 
#
#######################################################################
#
# If this CIF has been generated from an entry in the Cambridge 
# Structural Database, then it will include bibliographic, chemical, 
# crystal, experimental, refinement or atomic coordinate data resulting 
# from the CCDC's data processing and validation procedures.
#
#######################################################################

data_OGIQIG
_chemical_compound_source        'sedum (Sedum sarmentosum)'
_chemical_name_common            Taraxerone
_chemical_formula_moiety         'C30 H48 O1'
_chemical_name_systematic        D-friedoolean-13-en-3-one
_chemical_properties_biological  Antioxidant
_symmetry_cell_setting           monoclinic
_symmetry_space_group_name_H-M   'P 21'
_symmetry_Int_Tables_number      4
_space_group_name_Hall           'P 2yb'
loop_
_symmetry_equiv_pos_site_id
_symmetry_equiv_pos_as_xyz
1 x,y,z
2 -x,1/2+y,-z
_cell_length_a                   12.4896(9)
_cell_length_b                   7.2379(5)
_cell_length_c                   28.093(2)
_cell_angle_alpha                90
_cell_angle_beta                 90.560(2)
_cell_angle_gamma                90
_cell_volume                     2539.44
_exptl_crystal_colour            colorless
_exptl_crystal_description       block
_cell_formula_units_Z            4
loop_
_atom_site_label
_atom_site_type_symbol
_atom_site_fract_x
_atom_site_fract_y
_atom_site_fract_z
O1 O 0.13985(18) -0.0023(3) 0.23029(7)
C1 C 0.1840(2) 0.0790(4) 0.19804(9)
C2 C 0.1311(2) 0.2434(4) 0.17266(8)
C3 C 0.1773(2) 0.2623(4) 0.12134(8)
H1 H 0.2426 0.3363 0.125
C4 C 0.1044(2) 0.3746(4) 0.08817(8)
H2 H 0.0408 0.3031 0.0805
H3 H 0.082 0.4866 0.1042
C5 C 0.1623(2) 0.4251(3) 0.04233(8)
H4 H 0.2254 0.4975 0.0502
H5 H 0.1156 0.5008 0.0226
C6 C 0.19627(18) 0.2528(3) 0.01390(8)
C7 C 0.26881(19) 0.3136(3) -0.03000(8)
C8 C 0.2043(2) 0.4425(4) -0.06309(8)
H6 H 0.1316 0.3964 -0.0662
H7 H 0.2011 0.5647 -0.049
C9 C 0.2540(2) 0.4558(3) -0.11202(8)
H8 H 0.3265 0.5025 -0.1088
H9 H 0.2134 0.5434 -0.1311
C10 C 0.2566(2) 0.2704(4) -0.13770(8)
C11 C 0.3348(2) 0.2918(4) -0.17973(9)
H10 H 0.3031 0.3754 -0.2029
H11 H 0.4002 0.3487 -0.1679
C12 C 0.3637(2) 0.1122(4) -0.20491(9)
H12 H 0.4168 0.1377 -0.229
H13 H 0.3004 0.0634 -0.2208
C13 C 0.4078(2) -0.0327(4) -0.17045(9)
C14 C 0.3267(2) -0.0581(4) -0.13021(9)
H14 H 0.350(2) -0.142(4) -0.1088(9)
H15 H 0.255(2) -0.112(4) -0.1455(9)
C15 C 0.2978(2) 0.1181(3) -0.10411(8)
C16 C 0.30551(19) 0.1394(3) -0.05668(8)
C17 C 0.3593(2) -0.0006(4) -0.02393(9)
H16 H 0.378(2) -0.121(4) -0.0390(9)
H17 H 0.431(2) 0.056(4) -0.0152(9)
C18 C 0.2944(2) -0.0506(4) 0.02013(8)
H18 H 0.231 -0.1189 0.0105
H19 H 0.3371 -0.1297 0.0408
C19 C 0.26106(19) 0.1219(3) 0.04757(8)
H20 H 0.3282 0.1879 0.054
C20 C 0.21378(19) 0.0794(3) 0.09829(8)
C21 C 0.3068(2) -0.0014(4) 0.12921(8)
H21 H 0.3107 -0.1336 0.1237
H22 H 0.3737 0.0523 0.1187
C22 C 0.2955(2) 0.0328(5) 0.18284(9)
H23 H 0.3191 -0.0768 0.1998
H24 H 0.3427 0.1335 0.192
C23 C 0.1633(3) 0.4177(4) 0.20100(9)
H25 H 0.1344 0.4107 0.2325
H26 H 0.1356 0.5253 0.1851
H27 H 0.2399 0.4256 0.203
C24 C 0.0091(2) 0.2232(5) 0.17417(10)
H28 H -0.0134 0.2143 0.2067
H29 H -0.012 0.1136 0.1573
H30 H -0.0238 0.329 0.1595
C25 C 0.0947(2) 0.1558(4) -0.00555(9)
H31 H 0.0576 0.2371 -0.0271
H32 H 0.0487 0.1248 0.0204
H33 H 0.1147 0.0451 -0.0221
C26 C 0.3698(2) 0.4213(4) -0.01374(9)
H34 H 0.3487 0.5314 0.0027
H35 H 0.4113 0.454 -0.0411
H36 H 0.4121 0.3452 0.0072
C27 C 0.1438(2) 0.2202(4) -0.15654(9)
H37 H 0.1463 0.1028 -0.1724
H38 H 0.1199 0.3132 -0.1786
H39 H 0.095 0.2135 -0.1304
C28 C 0.5164(2) 0.0279(5) -0.14926(12)
H40 H 0.508 0.1434 -0.1329
H41 H 0.5673 0.0422 -0.1744
H42 H 0.5416 -0.0643 -0.1273
C29 C 0.4214(3) -0.2166(4) -0.19681(10)
H43 H 0.4711 -0.2009 -0.2224
H44 H 0.3535 -0.2557 -0.2095
H45 H 0.4482 -0.3084 -0.1751
C30 C 0.1235(2) -0.0657(4) 0.09790(9)
H46 H 0.0659 -0.024 0.0777
H47 H 0.0977 -0.0828 0.1297
H48 H 0.1506 -0.1808 0.0861
O2 O 0.36555(18) 0.2873(4) 0.28334(7)
C31 C 0.3204(2) 0.3728(4) 0.31465(9)
C32 C 0.3724(2) 0.5384(4) 0.33941(9)
C33 C 0.3220(2) 0.5665(4) 0.38984(8)
H49 H 0.2573 0.6404 0.3844
C34 C 0.3925(2) 0.6813(4) 0.42295(9)
H50 H 0.4149 0.7925 0.4066
H51 H 0.4561 0.6113 0.4314
C35 C 0.3331(2) 0.7342(4) 0.46818(8)
H52 H 0.2704 0.8065 0.4596
H53 H 0.3793 0.811 0.4879
C36 C 0.29790(19) 0.5643(3) 0.49715(8)
C37 C 0.22494(19) 0.6270(3) 0.54045(8)
C38 C 0.2891(2) 0.7551(4) 0.57416(8)
H54 H 0.3619 0.7096 0.577
H55 H 0.2919 0.878 0.5605
C39 C 0.2399(2) 0.7661(4) 0.62348(9)
H56 H 0.2811 0.8521 0.6428
H57 H 0.1676 0.814 0.6206
C40 C 0.2367(2) 0.5809(4) 0.64839(8)
C41 C 0.1582(3) 0.5983(4) 0.69046(9)
H58 H 0.1918 0.6749 0.7147
H59 H 0.095 0.6635 0.6791
C42 C 0.1225(3) 0.4241(5) 0.71351(10)
H60 H 0.0682 0.4527 0.7369
H61 H 0.1827 0.3684 0.7301
C43 C 0.0764(2) 0.2842(4) 0.67738(9)
C44 C 0.1635(2) 0.2559(4) 0.64002(8)
H62 H 0.142(2) 0.165(4) 0.6209(9)
H63 H 0.231(2) 0.211(4) 0.6568(9)
C45 C 0.19546(19) 0.4299(3) 0.61432(8)
C46 C 0.18616(18) 0.4546(3) 0.56710(8)
C47 C 0.1307(2) 0.3170(4) 0.53456(8)
H64 H 0.108(2) 0.198(4) 0.5505(9)
H65 H 0.065(2) 0.370(4) 0.5233(9)
C48 C 0.1972(2) 0.2629(4) 0.49092(8)
H66 H 0.2595 0.1931 0.5013
H67 H 0.1546 0.1844 0.4701
C49 C 0.23338(19) 0.4334(3) 0.46336(7)
H68 H 0.1673 0.5008 0.4558
C50 C 0.2833(2) 0.3853(3) 0.41377(8)
C51 C 0.1926(2) 0.3006(4) 0.38253(8)
H69 H 0.1884 0.1691 0.389
H70 H 0.1249 0.3554 0.3916
C52 C 0.2082(2) 0.3292(5) 0.32854(9)
H71 H 0.1856 0.218 0.312
H72 H 0.162 0.4291 0.318
C53 C 0.4942(2) 0.5178(4) 0.33977(9)
H73 H 0.5259 0.6211 0.356
H74 H 0.5195 0.5138 0.3076
H75 H 0.5137 0.4056 0.3559
C54 C 0.3434(3) 0.7080(5) 0.30767(10)
H76 H 0.3716 0.8184 0.322
H77 H 0.267 0.718 0.3048
H78 H 0.3737 0.6922 0.2767
C55 C 0.39812(19) 0.4652(4) 0.51731(8)
H79 H 0.3765 0.3591 0.5353
H80 H 0.4374 0.5484 0.5376
H81 H 0.4428 0.4265 0.4915
C56 C 0.1247(2) 0.7370(4) 0.52382(9)
H82 H 0.1468 0.8449 0.5066
H83 H 0.084 0.7735 0.5511
H84 H 0.0812 0.6605 0.5035
C57 C 0.3496(2) 0.5298(4) 0.66746(10)
H85 H 0.3468 0.4119 0.683
H86 H 0.3733 0.6221 0.6897
H87 H 0.3987 0.5238 0.6414
C58 C 0.0586(3) 0.1037(6) 0.70452(11)
H88 H 0.0041 0.1215 0.7279
H89 H 0.1241 0.0674 0.7201
H90 H 0.0366 0.0089 0.6826
C59 C -0.0272(3) 0.3429(5) 0.65379(13)
H91 H -0.0806 0.3622 0.6776
H92 H -0.0508 0.2482 0.6322
H93 H -0.016 0.4557 0.6366
C60 C 0.3735(2) 0.2399(4) 0.41568(9)
H94 H 0.348 0.1303 0.4311
H95 H 0.4336 0.2887 0.4332
H96 H 0.3952 0.2101 0.3839
loop_
_geom_bond_atom_site_label_1
_geom_bond_atom_site_label_2
_geom_bond_site_symmetry_1
_geom_bond_site_symmetry_2
O1 C1 1_555 1_555
C1 C2 1_555 1_555
C2 C3 1_555 1_555
C3 H1 1_555 1_555
C4 C3 1_555 1_555
H2 C4 1_555 1_555
H3 C4 1_555 1_555
C5 C4 1_555 1_555
H4 C5 1_555 1_555
H5 C5 1_555 1_555
C6 C5 1_555 1_555
C7 C6 1_555 1_555
C8 C7 1_555 1_555
H6 C8 1_555 1_555
H7 C8 1_555 1_555
C9 C8 1_555 1_555
H8 C9 1_555 1_555
H9 C9 1_555 1_555
C10 C9 1_555 1_555
C11 C10 1_555 1_555
H10 C11 1_555 1_555
H11 C11 1_555 1_555
C12 C11 1_555 1_555
H12 C12 1_555 1_555
H13 C12 1_555 1_555
C13 C12 1_555 1_555
C14 C13 1_555 1_555
H14 C14 1_555 1_555
H15 C14 1_555 1_555
C15 C10 1_555 1_555
C16 C7 1_555 1_555
C17 C16 1_555 1_555
H16 C17 1_555 1_555
H17 C17 1_555 1_555
C18 C17 1_555 1_555
H18 C18 1_555 1_555
H19 C18 1_555 1_555
C19 C6 1_555 1_555
H20 C19 1_555 1_555
C20 C3 1_555 1_555
C21 C20 1_555 1_555
H21 C21 1_555 1_555
H22 C21 1_555 1_555
C22 C1 1_555 1_555
H23 C22 1_555 1_555
H24 C22 1_555 1_555
C23 C2 1_555 1_555
H25 C23 1_555 1_555
H26 C23 1_555 1_555
H27 C23 1_555 1_555
C24 C2 1_555 1_555
H28 C24 1_555 1_555
H29 C24 1_555 1_555
H30 C24 1_555 1_555
C25 C6 1_555 1_555
H31 C25 1_555 1_555
H32 C25 1_555 1_555
H33 C25 1_555 1_555
C26 C7 1_555 1_555
H34 C26 1_555 1_555
H35 C26 1_555 1_555
H36 C26 1_555 1_555
C27 C10 1_555 1_555
H37 C27 1_555 1_555
H38 C27 1_555 1_555
H39 C27 1_555 1_555
C28 C13 1_555 1_555
H40 C28 1_555 1_555
H41 C28 1_555 1_555
H42 C28 1_555 1_555
C29 C13 1_555 1_555
H43 C29 1_555 1_555
H44 C29 1_555 1_555
H45 C29 1_555 1_555
C30 C20 1_555 1_555
H46 C30 1_555 1_555
H47 C30 1_555 1_555
H48 C30 1_555 1_555
O2 C31 1_555 1_555
C31 C32 1_555 1_555
C32 C33 1_555 1_555
C33 H49 1_555 1_555
C34 C33 1_555 1_555
H50 C34 1_555 1_555
H51 C34 1_555 1_555
C35 C34 1_555 1_555
H52 C35 1_555 1_555
H53 C35 1_555 1_555
C36 C35 1_555 1_555
C37 C36 1_555 1_555
C38 C37 1_555 1_555
H54 C38 1_555 1_555
H55 C38 1_555 1_555
C39 C38 1_555 1_555
H56 C39 1_555 1_555
H57 C39 1_555 1_555
C40 C39 1_555 1_555
C41 C40 1_555 1_555
H58 C41 1_555 1_555
H59 C41 1_555 1_555
C42 C41 1_555 1_555
H60 C42 1_555 1_555
H61 C42 1_555 1_555
C43 C42 1_555 1_555
C44 C43 1_555 1_555
H62 C44 1_555 1_555
H63 C44 1_555 1_555
C45 C40 1_555 1_555
C46 C37 1_555 1_555
C47 C46 1_555 1_555
H64 C47 1_555 1_555
H65 C47 1_555 1_555
C48 C47 1_555 1_555
H66 C48 1_555 1_555
H67 C48 1_555 1_555
C49 C36 1_555 1_555
H68 C49 1_555 1_555
C50 C33 1_555 1_555
C51 C50 1_555 1_555
H69 C51 1_555 1_555
H70 C51 1_555 1_555
C52 C31 1_555 1_555
H71 C52 1_555 1_555
H72 C52 1_555 1_555
C53 C32 1_555 1_555
H73 C53 1_555 1_555
H74 C53 1_555 1_555
H75 C53 1_555 1_555
C54 C32 1_555 1_555
H76 C54 1_555 1_555
H77 C54 1_555 1_555
H78 C54 1_555 1_555
C55 C36 1_555 1_555
H79 C55 1_555 1_555
H80 C55 1_555 1_555
H81 C55 1_555 1_555
C56 C37 1_555 1_555
H82 C56 1_555 1_555
H83 C56 1_555 1_555
H84 C56 1_555 1_555
C57 C40 1_555 1_555
H85 C57 1_555 1_555
H86 C57 1_555 1_555
H87 C57 1_555 1_555
C58 C43 1_555 1_555
H88 C58 1_555 1_555
H89 C58 1_555 1_555
H90 C58 1_555 1_555
C59 C43 1_555 1_555
H91 C59 1_555 1_555
H92 C59 1_555 1_555
H93 C59 1_555 1_555
C60 C50 1_555 1_555
H94 C60 1_555 1_555
H95 C60 1_555 1_555
H96 C60 1_555 1_555
C14 C15 1_555 1_555
C15 C16 1_555 1_555
C18 C19 1_555 1_555
C19 C20 1_555 1_555
C21 C22 1_555 1_555
C44 C45 1_555 1_555
C45 C46 1_555 1_555
C48 C49 1_555 1_555
C49 C50 1_555 1_555
C51 C52 1_555 1_555

#END
