
#######################################################################
#
#                 Cambridge Crystallographic Data Centre
#                                CCDC 
#
#######################################################################
#
# If this CIF has been generated from an entry in the Cambridge 
# Structural Database, then it will include bibliographic, chemical, 
# crystal, experimental, refinement or atomic coordinate data resulting 
# from the CCDC's data processing and validation procedures.
#
#######################################################################

data_OGOHIB
_chemical_formula_moiety         'C13 H17 N1 O3 S1'
_chemical_name_systematic        
'4-phenyl-3,4-dihydro-1,2,3-benzoxathiazine 2,2-dioxide'
_symmetry_cell_setting           triclinic
_symmetry_space_group_name_H-M   'P -1'
_symmetry_Int_Tables_number      2
_space_group_name_Hall           '-P 1'
loop_
_symmetry_equiv_pos_site_id
_symmetry_equiv_pos_as_xyz
1 x,y,z
2 -x,-y,-z
_cell_length_a                   9.754(2)
_cell_length_b                   10.032(2)
_cell_length_c                   15.156(3)
_cell_angle_alpha                107.86(3)
_cell_angle_beta                 91.65(3)
_cell_angle_gamma                108.85(3)
_cell_volume                     1322.34
_exptl_crystal_colour            colorless
_exptl_crystal_description       prism
_cell_formula_units_Z            4
loop_
_atom_site_label
_atom_site_type_symbol
_atom_site_fract_x
_atom_site_fract_y
_atom_site_fract_z
S1 S 0.90865(9) -0.06237(7) 0.12538(5)
O1 O 0.9237(3) -0.0760(2) 0.21536(14)
O2 O 0.9808(3) -0.1297(2) 0.05398(15)
O3 O 0.7409(2) -0.13192(19) 0.08430(12)
N1 N 0.9539(3) 0.1128(2) 0.13864(18)
C1 C 0.8578(3) 0.1870(3) 0.19295(18)
H1 H 0.8670 0.1808 0.2560
C2 C 0.6969(3) 0.1040(3) 0.14956(17)
H2 H 0.6871 0.1081 0.0860
C3 C 0.6476(3) -0.0592(3) 0.14233(18)
H3 H 0.6604 -0.0646 0.2054
C4 C 0.4928(4) -0.1492(3) 0.0985(2)
H4 H 0.4686 -0.2500 0.1001
H5 H 0.4809 -0.1547 0.0336
C5 C 0.3899(4) -0.0760(4) 0.1521(2)
H6 H 0.2906 -0.1292 0.1198
H7 H 0.3918 -0.0840 0.2143
C6 C 0.4331(4) 0.0867(4) 0.1605(2)
H8 H 0.3704 0.1306 0.1987
H9 H 0.4188 0.0941 0.0988
C7 C 0.5921(4) 0.1737(3) 0.2041(2)
H10 H 0.6039 0.1757 0.2683
H11 H 0.6174 0.2760 0.2051
C8 C 0.9161(3) 0.3506(3) 0.20254(19)
C9 C 0.9714(4) 0.4575(3) 0.2903(2)
H12 H 0.9687 0.4286 0.3431
C10 C 1.0308(4) 0.6077(4) 0.2994(3)
H13 H 1.0674 0.6791 0.3585
C11 C 1.0360(4) 0.6512(4) 0.2225(3)
H14 H 1.0780 0.7517 0.2288
C12 C 0.9788(4) 0.5459(4) 0.1354(3)
H15 H 0.9800 0.5761 0.0831
C13 C 0.9198(4) 0.3966(3) 0.1248(2)
H16 H 0.8823 0.3263 0.0655
H33 H 0.964(4) 0.117(4) 0.085(2)
S2 S 0.71945(9) 0.07518(8) 0.46576(5)
O4 O 0.8630(3) 0.1208(3) 0.44673(17)
O5 O 0.6414(3) 0.1755(2) 0.48740(17)
O6 O 0.7140(3) 0.0209(2) 0.55278(14)
N2 N 0.6224(4) -0.0726(3) 0.37976(17)
C14 C 0.6666(4) -0.2048(3) 0.36717(18)
H17 H 0.7668 -0.1777 0.3520
C15 C 0.6719(3) -0.2426(3) 0.45658(18)
H18 H 0.5711 -0.2725 0.4704
C16 C 0.7607(3) -0.1087(3) 0.54001(18)
H19 H 0.8632 -0.0796 0.5292
C17 C 0.7536(5) -0.1433(4) 0.6303(2)
H20 H 0.8164 -0.0564 0.6808
H21 H 0.6542 -0.1652 0.6447
C18 C 0.7996(5) -0.2708(4) 0.6242(2)
H22 H 0.7820 -0.2965 0.6806
H23 H 0.9041 -0.2413 0.6219
C19 C 0.7219(5) -0.4078(4) 0.5401(3)
H24 H 0.7690 -0.4811 0.5349
H25 H 0.6214 -0.4517 0.5492
C20 C 0.7234(5) -0.3718(4) 0.4504(2)
H26 H 0.6609 -0.4596 0.4002
H27 H 0.8221 -0.3478 0.4347
C21 C 0.5721(3) -0.3310(3) 0.28290(18)
C22 C 0.6371(4) -0.3901(3) 0.20800(19)
H28 H 0.7382 -0.3522 0.2106
C23 C 0.5533(5) -0.5049(3) 0.1294(2)
H29 H 0.5983 -0.5431 0.0793
C24 C 0.4048(5) -0.5626(3) 0.1247(2)
H30 H 0.3485 -0.6404 0.0719
C25 C 0.3396(4) -0.5049(4) 0.1985(2)
H31 H 0.2384 -0.5432 0.1952
C26 C 0.4223(4) -0.3903(3) 0.2779(2)
H32 H 0.3766 -0.3533 0.3279
H34 H 0.531(6) -0.088(6) 0.393(3)
loop_
_geom_bond_atom_site_label_1
_geom_bond_atom_site_label_2
_geom_bond_site_symmetry_1
_geom_bond_site_symmetry_2
S1 O1 1_555 1_555
S2 O4 1_555 1_555
O2 S1 1_555 1_555
O3 S1 1_555 1_555
O5 S2 1_555 1_555
O6 S2 1_555 1_555
N1 S1 1_555 1_555
N2 S2 1_555 1_555
C1 N1 1_555 1_555
H1 C1 1_555 1_555
C2 C1 1_555 1_555
H2 C2 1_555 1_555
C3 O3 1_555 1_555
H3 C3 1_555 1_555
C4 C3 1_555 1_555
H4 C4 1_555 1_555
H5 C4 1_555 1_555
C5 C4 1_555 1_555
H6 C5 1_555 1_555
H7 C5 1_555 1_555
C6 C5 1_555 1_555
H8 C6 1_555 1_555
H9 C6 1_555 1_555
C7 C2 1_555 1_555
H10 C7 1_555 1_555
H11 C7 1_555 1_555
C8 C1 1_555 1_555
C9 C8 1_555 1_555
H12 C9 1_555 1_555
C10 C9 1_555 1_555
H13 C10 1_555 1_555
C11 C10 1_555 1_555
H14 C11 1_555 1_555
C12 C11 1_555 1_555
H15 C12 1_555 1_555
C13 C8 1_555 1_555
H16 C13 1_555 1_555
C14 N2 1_555 1_555
H17 C14 1_555 1_555
C15 C14 1_555 1_555
H18 C15 1_555 1_555
C16 O6 1_555 1_555
H19 C16 1_555 1_555
C17 C16 1_555 1_555
H20 C17 1_555 1_555
H21 C17 1_555 1_555
C18 C17 1_555 1_555
H22 C18 1_555 1_555
H23 C18 1_555 1_555
C19 C18 1_555 1_555
H24 C19 1_555 1_555
H25 C19 1_555 1_555
C20 C15 1_555 1_555
H26 C20 1_555 1_555
H27 C20 1_555 1_555
C21 C14 1_555 1_555
C22 C21 1_555 1_555
H28 C22 1_555 1_555
C23 C22 1_555 1_555
H29 C23 1_555 1_555
C24 C23 1_555 1_555
H30 C24 1_555 1_555
C25 C24 1_555 1_555
H31 C25 1_555 1_555
C26 C21 1_555 1_555
H32 C26 1_555 1_555
H33 N1 1_555 1_555
H34 N2 1_555 1_555
C2 C3 1_555 1_555
C6 C7 1_555 1_555
C12 C13 1_555 1_555
C15 C16 1_555 1_555
C19 C20 1_555 1_555
C25 C26 1_555 1_555

#END
