
#######################################################################
#
#                 Cambridge Crystallographic Data Centre
#                                CCDC 
#
#######################################################################
#
# If this CIF has been generated from an entry in the Cambridge 
# Structural Database, then it will include bibliographic, chemical, 
# crystal, experimental, refinement or atomic coordinate data resulting 
# from the CCDC's data processing and validation procedures.
#
#######################################################################

data_OGOZAN
_chemical_formula_moiety         'C26 H21 N1 O4'
_chemical_name_systematic        
3'-(diethylamino)-3H-spiro[2-benzofuran-1,11'-[1]benzofuro[3,2-b]chromen]-3-one
_symmetry_cell_setting           orthorhombic
_symmetry_space_group_name_H-M   'P b c a'
_symmetry_Int_Tables_number      61
_space_group_name_Hall           '-P 2ac 2ab'
loop_
_symmetry_equiv_pos_site_id
_symmetry_equiv_pos_as_xyz
1 x,y,z
2 1/2-x,-y,1/2+z
3 -x,1/2+y,1/2-z
4 1/2+x,1/2-y,-z
5 -x,-y,-z
6 1/2+x,y,1/2-z
7 x,1/2-y,1/2+z
8 1/2-x,1/2+y,z
_cell_length_a                   9.0898(19)
_cell_length_b                   19.398(4)
_cell_length_c                   23.532(5)
_cell_angle_alpha                90
_cell_angle_beta                 90
_cell_angle_gamma                90
_cell_volume                     4149.25
_cell_formula_units_Z            8
loop_
_atom_site_label
_atom_site_type_symbol
_atom_site_fract_x
_atom_site_fract_y
_atom_site_fract_z
O1 O 0.1963(7) 0.0550(3) 0.4925(2)
O2 O 0.0596(6) 0.1481(3) 0.3560(2)
O3 O 0.1367(6) -0.0077(3) 0.3529(2)
C1 C 0.0912(10) 0.1065(4) 0.4966(3)
C2 C 0.1969(9) 0.0210(4) 0.4421(3)
C3 C -0.1371(9) 0.0725(4) 0.3652(3)
O4 O -0.0063(8) 0.2016(3) 0.2760(3)
C4 C 0.1113(8) 0.0363(4) 0.3983(3)
C5 C -0.2388(9) 0.0232(4) 0.3798(3)
H1 H -0.2330 0.0001 0.4143
C6 C 0.2840(8) -0.0374(4) 0.4267(4)
C7 C -0.0084(9) 0.1225(4) 0.4547(3)
C8 C 0.0037(8) 0.0929(4) 0.3950(3)
C9 C -0.1526(9) 0.1079(4) 0.3149(3)
C10 C -0.1089(9) 0.1752(4) 0.4670(4)
H2 H -0.1750 0.1892 0.4392
C11 C -0.2605(11) 0.0927(5) 0.2755(4)
H3 H -0.2658 0.1157 0.2409
C12 C -0.0290(9) 0.1576(4) 0.3106(3)
C13 C -0.1121(11) 0.2064(4) 0.5189(3)
H4 H -0.1833 0.2397 0.5261
C14 C -0.0115(11) 0.1897(5) 0.5615(4)
C15 C 0.0889(10) 0.1380(5) 0.5488(4)
H5 H 0.1562 0.1244 0.5764
C16 C 0.2412(8) -0.0522(4) 0.3723(3)
N1 N -0.0152(11) 0.2218(4) 0.6135(3)
C17 C -0.1118(11) 0.2783(5) 0.6256(4)
H6 H -0.1247 0.2815 0.6665
H7 H -0.2073 0.2688 0.6090
C18 C 0.4502(12) -0.1318(5) 0.4241(5)
H8 H 0.5190 -0.1602 0.4416
C19 C 0.3916(11) -0.0767(5) 0.4530(4)
H9 H 0.4236 -0.0660 0.4895
C20 C -0.3593(11) 0.0424(6) 0.2898(4)
H10 H -0.4332 0.0307 0.2642
C21 C 0.4057(11) -0.1450(5) 0.3682(6)
H11 H 0.4494 -0.1811 0.3484
C22 C -0.3520(9) 0.0088(5) 0.3409(4)
H12 H -0.4229 -0.0240 0.3499
C23 C 0.3000(10) -0.1064(6) 0.3418(5)
H13 H 0.2690 -0.1163 0.3050
C24 C -0.0575(13) 0.3464(5) 0.6038(6)
H14 H 0.0400 0.3547 0.6179
H15 H -0.1219 0.3824 0.6166
H16 H -0.0560 0.3456 0.5630
C25 C 0.145(2) 0.2167(7) 0.6546(7)
H17 H 0.2308 0.2028 0.6332
H18 H 0.1642 0.2582 0.6764
C26 C 0.089(2) 0.1688(9) 0.6836(8)
H19 H 0.0022 0.1854 0.7025
H20 H 0.1587 0.1532 0.7113
H21 H 0.0628 0.1312 0.6590
loop_
_geom_bond_atom_site_label_1
_geom_bond_atom_site_label_2
_geom_bond_site_symmetry_1
_geom_bond_site_symmetry_2
O1 C1 1_555 1_555
O2 C8 1_555 1_555
O3 C4 1_555 1_555
C1 C7 1_555 1_555
C2 O1 1_555 1_555
C3 C5 1_555 1_555
O4 C12 1_555 1_555
C4 C2 1_555 1_555
C5 H1 1_555 1_555
C6 C2 1_555 1_555
C7 C8 1_555 1_555
C8 C3 1_555 1_555
C9 C3 1_555 1_555
C10 C7 1_555 1_555
H2 C10 1_555 1_555
C11 C9 1_555 1_555
H3 C11 1_555 1_555
C12 O2 1_555 1_555
C13 C10 1_555 1_555
H4 C13 1_555 1_555
C14 C13 1_555 1_555
C15 C1 1_555 1_555
H5 C15 1_555 1_555
C16 O3 1_555 1_555
N1 C14 1_555 1_555
C17 N1 1_555 1_555
H6 C17 1_555 1_555
H7 C17 1_555 1_555
C18 H8 1_555 1_555
C19 C6 1_555 1_555
H9 C19 1_555 1_555
C20 C11 1_555 1_555
H10 C20 1_555 1_555
C21 C18 1_555 1_555
H11 C21 1_555 1_555
C22 C5 1_555 1_555
H12 C22 1_555 1_555
C23 C16 1_555 1_555
H13 C23 1_555 1_555
C24 C17 1_555 1_555
H14 C24 1_555 1_555
H15 C24 1_555 1_555
H16 C24 1_555 1_555
C25 N1 1_555 1_555
H17 C25 1_555 1_555
H18 C25 1_555 1_555
C26 C25 1_555 1_555
H19 C26 1_555 1_555
H20 C26 1_555 1_555
H21 C26 1_555 1_555
C4 C8 1_555 1_555
C6 C16 1_555 1_555
C9 C12 1_555 1_555
C14 C15 1_555 1_555
C18 C19 1_555 1_555
C20 C22 1_555 1_555
C21 C23 1_555 1_555

#END
