
#######################################################################
#
#                 Cambridge Crystallographic Data Centre
#                                CCDC 
#
#######################################################################
#
# If this CIF has been generated from an entry in the Cambridge 
# Structural Database, then it will include bibliographic, chemical, 
# crystal, experimental, refinement or atomic coordinate data resulting 
# from the CCDC's data processing and validation procedures.
#
#######################################################################

data_OGOZUG
_chemical_formula_moiety         'C36 H34 N2'
_chemical_name_systematic        
9-Benzyl-3-(1-benzyl-5-methyl-1H-indol-2-yl)-6-methyl-2,3,4,9-tetrahydro-1H-carbazole
_symmetry_cell_setting           triclinic
_symmetry_space_group_name_H-M   'P -1'
_symmetry_Int_Tables_number      2
_space_group_name_Hall           '-P 1'
loop_
_symmetry_equiv_pos_site_id
_symmetry_equiv_pos_as_xyz
1 x,y,z
2 -x,-y,-z
_cell_length_a                   10.4743(11)
_cell_length_b                   11.1831(12)
_cell_length_c                   13.1268(13)
_cell_angle_alpha                93.857(2)
_cell_angle_beta                 109.299(2)
_cell_angle_gamma                102.896(2)
_cell_volume                     1397.88
_exptl_crystal_colour            colorless
_exptl_crystal_description       block
_cell_formula_units_Z            2
loop_
_atom_site_label
_atom_site_type_symbol
_atom_site_fract_x
_atom_site_fract_y
_atom_site_fract_z
C1 C 0.6320(3) 0.2462(2) 0.3711(2)
C2 C 0.6340(3) 0.2496(3) 0.2663(2)
H1 H 0.6875 0.2078 0.2407
C3 C 0.5541(4) 0.3170(3) 0.2017(3)
H2 H 0.5552 0.3213 0.1315
C4 C 0.4709(3) 0.3797(3) 0.2372(3)
C5 C 0.4719(3) 0.3757(3) 0.3415(3)
H3 H 0.4178 0.4174 0.3664
C6 C 0.5527(3) 0.3101(2) 0.4110(2)
C7 C 0.3820(4) 0.4496(3) 0.1598(3)
H4 H 0.2914 0.4345 0.1664
H5 H 0.3716 0.4215 0.0861
H6 H 0.4270 0.5369 0.1782
C8 C 0.5783(3) 0.2880(2) 0.5210(2)
H7 H 0.5404 0.3196 0.5684
C9 C 0.6666(3) 0.2138(2) 0.5450(2)
C10 C 0.8000(3) 0.1188(2) 0.4445(2)
H8 H 0.7665 0.0735 0.3711
H9 H 0.8048 0.0584 0.4945
C11 C 0.9458(3) 0.2000(2) 0.46897(19)
C12 C 1.0427(3) 0.1521(2) 0.4403(2)
H10 H 1.0167 0.0705 0.4056
C13 C 1.1770(3) 0.2237(3) 0.4626(2)
H11 H 1.2410 0.1900 0.4436
C14 C 1.2168(3) 0.3451(3) 0.5131(2)
H12 H 1.3071 0.3937 0.5274
C15 C 1.1226(3) 0.3934(3) 0.5422(2)
H13 H 1.1490 0.4751 0.5768
C16 C 0.9877(3) 0.3210(2) 0.5202(2)
H14 H 0.9246 0.3548 0.5403
C17 C 0.7263(3) 0.1634(2) 0.6488(2)
H15 H 0.8231 0.1634 0.6582
C18 C 0.6455(3) 0.0289(2) 0.6448(2)
H16 H 0.5520 0.0280 0.6431
H17 H 0.6363 -0.0208 0.5781
C19 C 0.7178(3) -0.0293(2) 0.7426(2)
H18 H 0.6530 -0.1035 0.7478
H19 H 0.7973 -0.0529 0.7330
C20 C 0.7660(3) 0.0613(2) 0.8442(2)
C21 C 0.7745(3) 0.1846(2) 0.8479(2)
C22 C 0.7296(3) 0.2442(2) 0.7473(2)
H20 H 0.7943 0.3248 0.7576
H21 H 0.6372 0.2564 0.7352
C23 C 0.8279(3) 0.2395(2) 0.9603(2)
C24 C 0.8549(3) 0.3597(3) 1.0143(2)
H22 H 0.8376 0.4236 0.9744
C25 C 0.9070(3) 0.3831(3) 1.1266(3)
C26 C 0.9372(3) 0.2870(3) 1.1853(2)
H23 H 0.9770 0.3046 1.2611
C27 C 0.9104(3) 0.1673(3) 1.1353(2)
H24 H 0.9306 0.1046 1.1760
C28 C 0.8521(3) 0.1430(2) 1.0218(2)
C29 C 0.9276(4) 0.5097(3) 1.1862(3)
H25 H 0.9474 0.5717 1.1424
H26 H 1.0045 0.5247 1.2544
H27 H 0.8439 0.5136 1.1998
C30 C 0.8206(3) -0.0882(3) 0.9789(2)
H28 H 0.9183 -0.0897 1.0062
H29 H 0.7729 -0.1499 0.9138
C31 C 0.7573(3) -0.1233(2) 1.0642(2)
C32 C 0.8302(4) -0.1729(3) 1.1516(3)
H30 H 0.9167 -0.1854 1.1564
C33 C 0.7771(5) -0.2042(3) 1.2316(3)
H31 H 0.8276 -0.2376 1.2900
C34 C 0.6505(5) -0.1863(3) 1.2253(3)
H32 H 0.6152 -0.2066 1.2800
C35 C 0.5746(4) -0.1384(3) 1.1388(3)
H33 H 0.4873 -0.1278 1.1338
C36 C 0.6302(3) -0.1057(3) 1.0583(3)
H34 H 0.5803 -0.0716 1.0002
N1 N 0.6991(2) 0.18516(18) 0.45320(17)
N2 N 0.8121(2) 0.0337(2) 0.94953(18)
loop_
_geom_bond_atom_site_label_1
_geom_bond_atom_site_label_2
_geom_bond_site_symmetry_1
_geom_bond_site_symmetry_2
C1 C2 1_555 1_555
C2 H1 1_555 1_555
C3 C2 1_555 1_555
H2 C3 1_555 1_555
C4 C3 1_555 1_555
C5 C4 1_555 1_555
H3 C5 1_555 1_555
C6 C1 1_555 1_555
C7 C4 1_555 1_555
H4 C7 1_555 1_555
H5 C7 1_555 1_555
H6 C7 1_555 1_555
C8 C6 1_555 1_555
H7 C8 1_555 1_555
C9 C8 1_555 1_555
C10 H8 1_555 1_555
H9 C10 1_555 1_555
C11 C10 1_555 1_555
C12 C11 1_555 1_555
H10 C12 1_555 1_555
C13 C12 1_555 1_555
H11 C13 1_555 1_555
C14 C13 1_555 1_555
H12 C14 1_555 1_555
C15 C14 1_555 1_555
H13 C15 1_555 1_555
C16 C11 1_555 1_555
H14 C16 1_555 1_555
C17 C9 1_555 1_555
H15 C17 1_555 1_555
C18 C17 1_555 1_555
H16 C18 1_555 1_555
H17 C18 1_555 1_555
C19 C18 1_555 1_555
H18 C19 1_555 1_555
H19 C19 1_555 1_555
C20 C19 1_555 1_555
C21 C20 1_555 1_555
C22 C17 1_555 1_555
H20 C22 1_555 1_555
H21 C22 1_555 1_555
C23 C21 1_555 1_555
C24 C23 1_555 1_555
H22 C24 1_555 1_555
C25 C24 1_555 1_555
C26 C25 1_555 1_555
H23 C26 1_555 1_555
C27 C26 1_555 1_555
H24 C27 1_555 1_555
C28 C23 1_555 1_555
C29 C25 1_555 1_555
H25 C29 1_555 1_555
H26 C29 1_555 1_555
H27 C29 1_555 1_555
C30 H28 1_555 1_555
H29 C30 1_555 1_555
C31 C30 1_555 1_555
C32 C31 1_555 1_555
H30 C32 1_555 1_555
C33 C32 1_555 1_555
H31 C33 1_555 1_555
C34 C33 1_555 1_555
H32 C34 1_555 1_555
C35 C34 1_555 1_555
H33 C35 1_555 1_555
C36 C31 1_555 1_555
H34 C36 1_555 1_555
N1 C1 1_555 1_555
N2 C20 1_555 1_555
C5 C6 1_555 1_555
C9 N1 1_555 1_555
C10 N1 1_555 1_555
C15 C16 1_555 1_555
C21 C22 1_555 1_555
C27 C28 1_555 1_555
C28 N2 1_555 1_555
C30 N2 1_555 1_555
C35 C36 1_555 1_555

#END
