
#######################################################################
#
#                 Cambridge Crystallographic Data Centre
#                                CCDC 
#
#######################################################################
#
# If this CIF has been generated from an entry in the Cambridge 
# Structural Database, then it will include bibliographic, chemical, 
# crystal, experimental, refinement or atomic coordinate data resulting 
# from the CCDC's data processing and validation procedures.
#
#######################################################################

data_OHAZEE
_chemical_formula_moiety         'C22 H29 N1 O6'
_chemical_name_systematic        
'9-t-butyl 4-methyl 2-isobutoxy-3,4-dihydropyrano[2,3-b]indole-4,9(2H)-dicarboxylate'
_symmetry_cell_setting           orthorhombic
_symmetry_space_group_name_H-M   'P 21 21 21'
_symmetry_Int_Tables_number      19
_space_group_name_Hall           'P 2ac 2ab'
loop_
_symmetry_equiv_pos_site_id
_symmetry_equiv_pos_as_xyz
1 x,y,z
2 1/2-x,-y,1/2+z
3 -x,1/2+y,1/2-z
4 1/2+x,1/2-y,-z
_cell_length_a                   8.41470(8)
_cell_length_b                   11.96874(11)
_cell_length_c                   21.5473(2)
_cell_angle_alpha                90
_cell_angle_beta                 90
_cell_angle_gamma                90
_cell_volume                     2170.1
_exptl_crystal_colour            colorless
_cell_formula_units_Z            4
loop_
_atom_site_label
_atom_site_type_symbol
_atom_site_fract_x
_atom_site_fract_y
_atom_site_fract_z
O1 O 0.71482(18) 0.68158(13) 0.36607(8)
O2 O 0.04523(19) 0.44736(13) 0.29869(7)
O3 O 0.21964(18) 0.55816(13) 0.37627(7)
O4 O 0.4244(2) 0.56703(14) 0.44967(8)
O5 O 0.1460(2) 0.40708(14) 0.20387(8)
O6 O 0.6449(2) 0.79737(16) 0.44271(9)
N1 N 0.2770(2) 0.52415(14) 0.26955(8)
C1 C 0.3010(3) 0.58499(17) 0.32459(10)
C2 C 0.1504(3) 0.45356(16) 0.25349(10)
C3 C 0.3837(2) 0.56989(18) 0.22517(10)
C4 C 0.6118(3) 0.74400(18) 0.39738(10)
C5 C 0.4682(2) 0.65619(17) 0.25444(10)
C6 C 0.4135(2) 0.66426(17) 0.31733(10)
C7 C 0.5804(3) 0.7171(2) 0.22057(11)
H1 H 0.6384 0.7742 0.2392
C8 C 0.4058(3) 0.54297(19) 0.16290(10)
H2 H 0.3483 0.4861 0.1440
C9 C 0.4477(3) 0.74727(17) 0.36771(10)
H3 H 0.4364 0.8215 0.3490
C10 C 0.6031(3) 0.6906(2) 0.15884(12)
H4 H 0.6771 0.7307 0.1358
C11 C 0.2832(3) 0.6153(2) 0.43080(10)
H5 H 0.2057 0.6104 0.4647
C12 C -0.0968(3) 0.37375(19) 0.29149(12)
C13 C 0.5177(3) 0.6050(2) 0.13038(12)
H6 H 0.5360 0.5891 0.0887
C14 C 0.3162(3) 0.7373(2) 0.41687(11)
H7 H 0.3490 0.7752 0.4546
H8 H 0.2201 0.7730 0.4018
C15 C 0.8751(3) 0.6844(2) 0.38985(13)
H9 H 0.9431 0.6412 0.3634
H10 H 0.8769 0.6537 0.4310
H11 H 0.9119 0.7603 0.3910
C16 C -0.0424(3) 0.2536(2) 0.28368(14)
H12 H 0.0098 0.2454 0.2443
H13 H -0.1328 0.2048 0.2854
H14 H 0.0302 0.2348 0.3164
C17 C -0.1986(3) 0.4159(2) 0.23849(14)
H15 H -0.2175 0.4945 0.2436
H16 H -0.2982 0.3768 0.2384
H17 H -0.1446 0.4033 0.1999
C18 C 0.5562(4) 0.4216(2) 0.50546(12)
H18 H 0.6517 0.4451 0.4830
C19 C -0.1827(3) 0.3896(3) 0.35267(13)
H19 H -0.1100 0.3772 0.3863
H20 H -0.2689 0.3373 0.3554
H21 H -0.2235 0.4644 0.3550
C20 C 0.4148(5) 0.4520(3) 0.46686(15)
H22 H 0.4118 0.4058 0.4299
H23 H 0.3181 0.4389 0.4903
C21 C 0.5529(5) 0.4831(3) 0.56687(16)
H24 H 0.5484 0.5621 0.5594
H25 H 0.6473 0.4658 0.5900
H26 H 0.4611 0.4605 0.5901
C22 C 0.5661(7) 0.2961(3) 0.5151(2)
H27 H 0.4713 0.2705 0.5354
H28 H 0.6568 0.2789 0.5403
H29 H 0.5763 0.2597 0.4756
loop_
_geom_bond_atom_site_label_1
_geom_bond_atom_site_label_2
_geom_bond_site_symmetry_1
_geom_bond_site_symmetry_2
O1 C4 1_555 1_555
O2 C2 1_555 1_555
O3 C1 1_555 1_555
O4 C11 1_555 1_555
O5 C2 1_555 1_555
O6 C4 1_555 1_555
N1 C1 1_555 1_555
C1 C6 1_555 1_555
C2 N1 1_555 1_555
C3 N1 1_555 1_555
C4 C9 1_555 1_555
C5 C3 1_555 1_555
C6 C5 1_555 1_555
C7 C5 1_555 1_555
H1 C7 1_555 1_555
C8 C3 1_555 1_555
H2 C8 1_555 1_555
C9 C6 1_555 1_555
H3 C9 1_555 1_555
C10 C7 1_555 1_555
H4 C10 1_555 1_555
C11 O3 1_555 1_555
H5 C11 1_555 1_555
C12 O2 1_555 1_555
C13 C8 1_555 1_555
H6 C13 1_555 1_555
C14 C9 1_555 1_555
H7 C14 1_555 1_555
H8 C14 1_555 1_555
C15 O1 1_555 1_555
H9 C15 1_555 1_555
H10 C15 1_555 1_555
H11 C15 1_555 1_555
C16 C12 1_555 1_555
H12 C16 1_555 1_555
H13 C16 1_555 1_555
H14 C16 1_555 1_555
C17 C12 1_555 1_555
H15 C17 1_555 1_555
H16 C17 1_555 1_555
H17 C17 1_555 1_555
C18 H18 1_555 1_555
C19 C12 1_555 1_555
H19 C19 1_555 1_555
H20 C19 1_555 1_555
H21 C19 1_555 1_555
C20 O4 1_555 1_555
H22 C20 1_555 1_555
H23 C20 1_555 1_555
C21 C18 1_555 1_555
H24 C21 1_555 1_555
H25 C21 1_555 1_555
H26 C21 1_555 1_555
C22 C18 1_555 1_555
H27 C22 1_555 1_555
H28 C22 1_555 1_555
H29 C22 1_555 1_555
C10 C13 1_555 1_555
C11 C14 1_555 1_555
C18 C20 1_555 1_555

#END
