
#######################################################################
#
#                 Cambridge Crystallographic Data Centre
#                                CCDC 
#
#######################################################################
#
# If this CIF has been generated from an entry in the Cambridge 
# Structural Database, then it will include bibliographic, chemical, 
# crystal, experimental, refinement or atomic coordinate data resulting 
# from the CCDC's data processing and validation procedures.
#
#######################################################################

data_OHOSOV
_chemical_formula_moiety         'C37 H27 Br1 O5'
_chemical_name_systematic        
5-(4-bromophenyl)-6a-hydroxy-3-phenyl-1,2,3,4,4a,5-hexahydrospiro[benzo[1,2]fluoreno[1,9a-b]oxirene-6,2'-indene]-1',3',11(6aH)-trione
_symmetry_cell_setting           orthorhombic
_symmetry_space_group_name_H-M   'P 21 21 21'
_symmetry_Int_Tables_number      19
_space_group_name_Hall           'P 2ac 2ab'
loop_
_symmetry_equiv_pos_site_id
_symmetry_equiv_pos_as_xyz
1 x,y,z
2 1/2-x,-y,1/2+z
3 -x,1/2+y,1/2-z
4 1/2+x,1/2-y,-z
_cell_length_a                   9.778(8)
_cell_length_b                   13.486(11)
_cell_length_c                   22.436(19)
_cell_angle_alpha                90
_cell_angle_beta                 90
_cell_angle_gamma                90
_cell_volume                     2958.55
_exptl_crystal_colour            colorless
_exptl_crystal_description       prism
_cell_formula_units_Z            4
loop_
_atom_site_label
_atom_site_type_symbol
_atom_site_fract_x
_atom_site_fract_y
_atom_site_fract_z
C1 C 0.7235(9) 0.3279(7) 0.0798(3)
C2 C 0.6903(8) 0.4034(7) 0.1185(3)
H1 H 0.6163 0.4471 0.1105
C3 C 0.7682(9) 0.4130(7) 0.1690(3)
H2 H 0.7488 0.4659 0.1956
C4 C 0.8759(9) 0.3475(6) 0.1829(3)
C5 C 0.9001(8) 0.2702(6) 0.1440(3)
H3 H 0.9694 0.2234 0.1533
C6 C 0.8263(9) 0.2585(6) 0.0916(4)
H4 H 0.8449 0.2056 0.0649
C7 C 0.9688(8) 0.3624(6) 0.2353(3)
H5 H 1.0082 0.2961 0.2455
C8 C 0.8917(8) 0.3984(5) 0.2903(3)
H6 H 0.8392 0.4586 0.2780
C9 C 0.7879(7) 0.3244(6) 0.3153(3)
H7 H 0.7238 0.3047 0.2833
H8 H 0.8367 0.2641 0.3288
C10 C 0.7068(8) 0.3668(6) 0.3673(3)
H9 H 0.6501 0.4230 0.3520
C11 C 0.6107(9) 0.2889(7) 0.3930(3)
C12 C 0.4702(9) 0.3021(7) 0.3868(3)
H10 H 0.4383 0.3590 0.3660
C13 C 0.3769(10) 0.2378(8) 0.4089(4)
H11 H 0.2820 0.2509 0.4042
C14 C 0.4178(10) 0.1556(8) 0.4376(3)
H12 H 0.3533 0.1094 0.4529
C15 C 0.5598(11) 0.1397(6) 0.4444(3)
H13 H 0.5914 0.0824 0.4648
C16 C 0.6529(8) 0.2067(8) 0.4219(3)
H14 H 0.7480 0.1948 0.4267
C17 C 0.7997(8) 0.4067(6) 0.4163(3)
H15 H 0.8464 0.3506 0.4361
H16 H 0.7434 0.4412 0.4465
C18 C 0.9080(8) 0.4792(6) 0.3917(3)
H17 H 0.8630 0.5402 0.3770
H18 H 0.9727 0.4979 0.4237
C19 C 0.9848(9) 0.4295(6) 0.3411(3)
C20 C 1.1329(8) 0.4402(6) 0.3320(3)
C21 C 1.2261(8) 0.5044(6) 0.3672(4)
C22 C 1.3240(8) 0.5495(6) 0.3242(4)
C23 C 1.4266(9) 0.6183(7) 0.3365(4)
H19 H 1.4400 0.6436 0.3756
C24 C 1.5084(9) 0.6485(7) 0.2892(5)
H20 H 1.5773 0.6970 0.2957
C25 C 1.4912(10) 0.6091(8) 0.2329(4)
H21 H 1.5490 0.6292 0.2011
C26 C 1.3889(9) 0.5401(7) 0.2234(4)
H22 H 1.3744 0.5149 0.1844
C27 C 1.3082(8) 0.5075(7) 0.2691(4)
C28 C 1.1983(8) 0.4285(7) 0.2707(3)
C29 C 1.0923(8) 0.4325(6) 0.2206(3)
C30 C 1.1519(8) 0.4063(7) 0.1591(3)
C31 C 1.1016(8) 0.4797(6) 0.1141(3)
C32 C 1.1100(8) 0.4769(6) 0.0519(3)
H23 H 1.1553 0.4241 0.0320
C33 C 1.0511(8) 0.5526(7) 0.0204(3)
H24 H 1.0568 0.5533 -0.0219
C34 C 0.9840(8) 0.6273(7) 0.0494(4)
H25 H 0.9427 0.6783 0.0264
C35 C 0.9738(7) 0.6317(6) 0.1100(4)
H26 H 0.9275 0.6847 0.1292
C36 C 1.0336(8) 0.5556(7) 0.1424(4)
C37 C 1.0370(7) 0.5388(7) 0.2078(3)
O1 O 1.0793(5) 0.3536(4) 0.36082(19)
O2 O 1.2197(5) 0.5190(4) 0.4212(2)
O3 O 1.2646(5) 0.3339(4) 0.26993(19)
H27 H 1.2053 0.2888 0.2708
O4 O 1.2276(6) 0.3360(5) 0.1497(2)
O5 O 1.0033(5) 0.5982(4) 0.2457(2)
Br1 Br 0.62010(14) 0.30984(9) 0.00775(4)
loop_
_geom_bond_atom_site_label_1
_geom_bond_atom_site_label_2
_geom_bond_site_symmetry_1
_geom_bond_site_symmetry_2
C1 C2 1_555 1_555
C2 H1 1_555 1_555
C3 C2 1_555 1_555
H2 C3 1_555 1_555
C4 C3 1_555 1_555
C5 C4 1_555 1_555
H3 C5 1_555 1_555
C6 C1 1_555 1_555
H4 C6 1_555 1_555
C7 C4 1_555 1_555
H5 C7 1_555 1_555
C8 C7 1_555 1_555
H6 C8 1_555 1_555
C9 C8 1_555 1_555
H7 C9 1_555 1_555
H8 C9 1_555 1_555
C10 C9 1_555 1_555
H9 C10 1_555 1_555
C11 C10 1_555 1_555
C12 C11 1_555 1_555
H10 C12 1_555 1_555
C13 C12 1_555 1_555
H11 C13 1_555 1_555
C14 C13 1_555 1_555
H12 C14 1_555 1_555
C15 C14 1_555 1_555
H13 C15 1_555 1_555
C16 C11 1_555 1_555
H14 C16 1_555 1_555
C17 C10 1_555 1_555
H15 C17 1_555 1_555
H16 C17 1_555 1_555
C18 C17 1_555 1_555
H17 C18 1_555 1_555
H18 C18 1_555 1_555
C19 C8 1_555 1_555
C20 C19 1_555 1_555
C21 C20 1_555 1_555
C22 C21 1_555 1_555
C23 C22 1_555 1_555
H19 C23 1_555 1_555
C24 C23 1_555 1_555
H20 C24 1_555 1_555
C25 C24 1_555 1_555
H21 C25 1_555 1_555
C26 C25 1_555 1_555
H22 C26 1_555 1_555
C27 C22 1_555 1_555
C28 C20 1_555 1_555
C29 C7 1_555 1_555
C30 C29 1_555 1_555
C31 C30 1_555 1_555
C32 C31 1_555 1_555
H23 C32 1_555 1_555
C33 C32 1_555 1_555
H24 C33 1_555 1_555
C34 C33 1_555 1_555
H25 C34 1_555 1_555
C35 C34 1_555 1_555
H26 C35 1_555 1_555
C36 C31 1_555 1_555
C37 C29 1_555 1_555
O1 C19 1_555 1_555
O2 C21 1_555 1_555
O3 C28 1_555 1_555
H27 O3 1_555 1_555
O4 C30 1_555 1_555
O5 C37 1_555 1_555
Br1 C1 1_555 1_555
C5 C6 1_555 1_555
C15 C16 1_555 1_555
C18 C19 1_555 1_555
C20 O1 1_555 1_555
C26 C27 1_555 1_555
C27 C28 1_555 1_555
C28 C29 1_555 1_555
C35 C36 1_555 1_555
C36 C37 1_555 1_555

#END
