
#######################################################################
#
#                 Cambridge Crystallographic Data Centre
#                                CCDC 
#
#######################################################################
#
# If this CIF has been generated from an entry in the Cambridge 
# Structural Database, then it will include bibliographic, chemical, 
# crystal, experimental, refinement or atomic coordinate data resulting 
# from the CCDC's data processing and validation procedures.
#
#######################################################################

data_OHOYUH
_chemical_formula_moiety         'C2 N5 O4 1-,C1 H7 N4 1+'
_chemical_name_systematic        
'amino(hydrazino)methaniminium 4,5-dinitro-1,2,3-triazol-1-ide'
_symmetry_cell_setting           monoclinic
_symmetry_space_group_name_H-M   'P 21/c'
_symmetry_Int_Tables_number      14
_space_group_name_Hall           '-P 2ybc'
loop_
_symmetry_equiv_pos_site_id
_symmetry_equiv_pos_as_xyz
1 x,y,z
2 -x,1/2+y,1/2-z
3 -x,-y,-z
4 x,1/2-y,1/2+z
_cell_length_a                   7.304(2)
_cell_length_b                   6.3952(18)
_cell_length_c                   18.719(5)
_cell_angle_alpha                90
_cell_angle_beta                 90.354(4)
_cell_angle_gamma                90
_cell_volume                     874.358
_exptl_crystal_colour            yellow
_exptl_crystal_description       Chunk
_cell_formula_units_Z            4
loop_
_atom_site_label
_atom_site_type_symbol
_atom_site_fract_x
_atom_site_fract_y
_atom_site_fract_z
C3 C 0.34079(13) 0.23726(15) 0.02833(5)
N6 N 0.03240(12) 0.20167(16) 0.06267(5)
N7 N 0.21928(12) 0.21280(14) 0.08080(5)
N8 N 0.28309(12) 0.26939(15) -0.03787(5)
N9 N 0.51875(12) 0.23111(17) 0.04439(5)
H1 H 0.600(2) 0.242(2) 0.0107(9)
H2 H 0.259(2) 0.183(3) 0.1235(9)
H3 H -0.031(2) 0.296(3) 0.0894(9)
H4 H 0.362(2) 0.281(2) -0.0713(8)
H5 H 0.554(2) 0.198(3) 0.0885(9)
H6 H 0.168(2) 0.281(2) -0.0455(8)
H7 H -0.011(2) 0.075(3) 0.0747(9)
O1 O 0.48710(10) 0.22026(13) 0.21875(4)
O2 O 0.72627(10) 0.04605(13) 0.18475(4)
O3 O 1.07895(10) 0.16707(14) 0.22272(4)
O4 O 1.18998(10) 0.02255(12) 0.31885(4)
C1 C 0.71890(12) 0.16917(15) 0.29969(5)
C2 C 0.89970(12) 0.15387(14) 0.32253(5)
N1 N 0.61571(11) 0.21073(14) 0.35682(4)
N2 N 0.73161(11) 0.22230(14) 0.41256(4)
N3 N 0.90532(11) 0.18833(13) 0.39282(4)
N4 N 0.63842(11) 0.14289(13) 0.22979(4)
N5 N 1.06781(10) 0.11183(13) 0.28533(4)
loop_
_geom_bond_atom_site_label_1
_geom_bond_atom_site_label_2
_geom_bond_site_symmetry_1
_geom_bond_site_symmetry_2
O1 N4 1_555 1_555
O2 N4 1_555 1_555
O3 N5 1_555 1_555
O4 N5 1_555 1_555
C1 C2 1_555 1_555
C2 N3 1_555 1_555
N1 C1 1_555 1_555
N2 N1 1_555 1_555
N3 N2 1_555 1_555
N4 C1 1_555 1_555
N5 C2 1_555 1_555
C3 N7 1_555 1_555
N6 N7 1_555 1_555
N7 H2 1_555 1_555
N8 C3 1_555 1_555
N9 C3 1_555 1_555
H1 N9 1_555 1_555
H3 N6 1_555 1_555
H4 N8 1_555 1_555
H5 N9 1_555 1_555
H6 N8 1_555 1_555
H7 N6 1_555 1_555

#END
