
#######################################################################
#
#                 Cambridge Crystallographic Data Centre
#                                CCDC 
#
#######################################################################
#
# If this CIF has been generated from an entry in the Cambridge 
# Structural Database, then it will include bibliographic, chemical, 
# crystal, experimental, refinement or atomic coordinate data resulting 
# from the CCDC's data processing and validation procedures.
#
#######################################################################

data_OHOYAN01
_chemical_formula_moiety         'C8 H18 N2 2+,2(Cl1 O4 1-)'
_chemical_name_systematic        
'1,4-dimethyl-1,4-diazoniabicyclo[2.2.2]octane diperchlorate'
_symmetry_cell_setting           monoclinic
_symmetry_space_group_name_H-M   'P 21/n'
_symmetry_Int_Tables_number      14
_space_group_name_Hall           '-P 2yn'
loop_
_symmetry_equiv_pos_site_id
_symmetry_equiv_pos_as_xyz
1 x,y,z
2 1/2-x,1/2+y,1/2-z
3 -x,-y,-z
4 1/2+x,1/2-y,1/2+z
_cell_length_a                   13.331(3)
_cell_length_b                   15.185(4)
_cell_length_c                   20.477(5)
_cell_angle_alpha                90
_cell_angle_beta                 90.895(3)
_cell_angle_gamma                90
_cell_volume                     4144.68
_cell_formula_units_Z            12
loop_
_atom_site_label
_atom_site_type_symbol
_atom_site_fract_x
_atom_site_fract_y
_atom_site_fract_z
C1 C 0.1859(7) 0.0476(5) -0.0258(4)
H1 H 0.2101 0.0313 -0.0686
H2 H 0.1245 0.0812 -0.0316
C2 C 0.1652(5) -0.0369(4) 0.0155(3)
H3 H 0.1061 -0.0287 0.0417
H4 H 0.1540 -0.0870 -0.0131
C3 C 0.2467(7) 0.1078(4) 0.0802(3)
H5 H 0.1801 0.1305 0.0885
H6 H 0.2953 0.1483 0.0992
C4 C 0.2589(5) 0.0165(4) 0.1117(3)
H7 H 0.3221 0.0136 0.1357
H8 H 0.2051 0.0063 0.1421
C5 C 0.3648(6) 0.0561(5) 0.0032(4)
H9 H 0.4127 0.0817 0.0338
H10 H 0.3901 0.0630 -0.0407
C6 C 0.3485(5) -0.0424(4) 0.0188(3)
H11 H 0.3408 -0.0754 -0.0216
H12 H 0.4064 -0.0654 0.0424
C7 C 0.2685(6) 0.1919(4) -0.0213(3)
H13 H 0.2069 0.2230 -0.0144
H14 H 0.2796 0.1862 -0.0673
H15 H 0.3231 0.2238 -0.0014
C8 C 0.2533(5) -0.1438(4) 0.0885(3)
H16 H 0.2585 -0.1870 0.0545
H17 H 0.1911 -0.1517 0.1108
H18 H 0.3082 -0.1507 0.1190
N1 N 0.2620(4) 0.1012(3) 0.0092(2)
N2 N 0.2565(4) -0.0531(3) 0.0592(2)
C9 C 0.1927(5) 0.5821(4) 0.0851(3)
H19 H 0.1792 0.5809 0.0384
H20 H 0.1537 0.6293 0.1040
C10 C 0.3031(5) 0.5983(5) 0.0978(4)
H21 H 0.3116 0.6416 0.1323
H22 H 0.3337 0.6212 0.0586
C11 C 0.2127(5) 0.4222(4) 0.0771(3)
H23 H 0.1807 0.4167 0.0345
H24 H 0.2054 0.3667 0.1000
C12 C 0.3235(5) 0.4434(6) 0.0694(4)
H25 H 0.3632 0.3907 0.0766
H26 H 0.3354 0.4643 0.0255
C13 C 0.2039(5) 0.4928(4) 0.1834(3)
H27 H 0.1775 0.4419 0.2059
H28 H 0.1824 0.5451 0.2064
C14 C 0.3174(5) 0.4887(4) 0.1841(3)
H29 H 0.3445 0.5294 0.2163
H30 H 0.3396 0.4297 0.1956
C15 C 0.0529(5) 0.4840(5) 0.1127(4)
H31 H 0.0356 0.4273 0.1299
H32 H 0.0295 0.4884 0.0683
H33 H 0.0223 0.5292 0.1384
C16 C 0.4648(5) 0.5241(6) 0.1193(4)
H34 H 0.4875 0.5380 0.0762
H35 H 0.4961 0.4707 0.1341
H36 H 0.4822 0.5713 0.1486
N3 N 0.1631(4) 0.4949(3) 0.1152(3)
N4 N 0.3538(4) 0.5125(4) 0.1177(3)
C17 C 0.6758(5) 0.3346(4) 0.1965(3)
H37 H 0.6458 0.3868 0.2152
H38 H 0.6485 0.3267 0.1527
C18 C 0.7894(5) 0.3453(4) 0.1941(3)
H39 H 0.8090 0.3605 0.1501
H40 H 0.8104 0.3927 0.2230
C19 C 0.6849(5) 0.1733(4) 0.2019(3)
H41 H 0.6391 0.1618 0.1656
H42 H 0.6837 0.1229 0.2310
C20 C 0.7905(5) 0.1867(4) 0.1767(4)
H43 H 0.8290 0.1328 0.1818
H44 H 0.7878 0.2016 0.1306
C21 C 0.7129(5) 0.2622(4) 0.3008(3)
H45 H 0.6891 0.2195 0.3322
H46 H 0.7051 0.3206 0.3194
C22 C 0.8235(5) 0.2451(4) 0.2862(3)
H47 H 0.8656 0.2844 0.3119
H48 H 0.8409 0.1849 0.2976
C23 C 0.9504(5) 0.2647(5) 0.2022(4)
H49 H 0.9778 0.3171 0.2217
H50 H 0.9611 0.2660 0.1560
H51 H 0.9830 0.2140 0.2208
C24 C 0.5429(5) 0.2485(5) 0.2521(4)
H52 H 0.5050 0.2509 0.2119
H53 H 0.5237 0.2967 0.2796
H54 H 0.5297 0.1939 0.2738
N5 N 0.6523(4) 0.2550(3) 0.2380(3)
N6 N 0.8403(4) 0.2602(3) 0.2149(3)
Cl1 Cl 0.25239(12) 0.23586(9) 0.23786(7)
O1 O 0.3212(4) 0.2214(3) 0.2928(2)
O2 O 0.2055(4) 0.1541(3) 0.2200(3)
O3 O 0.1793(4) 0.3003(4) 0.2559(3)
O4 O 0.3089(4) 0.2688(3) 0.1829(3)
Cl2 Cl 0.54413(11) 0.97675(9) 0.16980(8)
O9 O 0.5151(5) 1.0027(5) 0.2324(3)
O10 O 0.5188(4) 1.0431(3) 0.1222(3)
O11 O 0.4948(4) 0.8956(3) 0.1518(3)
O12 O 0.6505(4) 0.9633(3) 0.1702(3)
Cl3 Cl 0.97777(11) 0.99692(9) 0.17231(8)
O13 O 0.9831(5) 1.0551(4) 0.2276(3)
O14 O 0.8822(4) 0.9541(4) 0.1713(3)
O15 O 0.9874(4) 1.0467(3) 0.1130(2)
O16 O 1.0568(4) 0.9326(3) 0.1784(3)
Cl4 Cl 0.75883(13) 0.54831(9) 0.11054(7)
O17 O 0.7258(5) 0.6260(3) 0.0765(2)
O18 O 0.7918(7) 0.4804(5) 0.0686(3)
O19 O 0.8480(5) 0.5730(5) 0.1515(4)
O20 O 0.6863(6) 0.5230(5) 0.1566(4)
Cl5 Cl 0.54410(12) 0.27162(10) 0.03092(7)
O24 O 0.6437(4) 0.2426(4) 0.0490(3)
O25 O 0.5182(5) 0.2357(5) -0.0307(3)
O26 O 0.4748(4) 0.2507(4) 0.0812(3)
O27 O 0.5467(6) 0.3657(4) 0.0245(4)
Cl6 Cl 0.98772(12) 0.26739(10) 0.00564(8)
O28 O 1.0091(4) 0.3516(4) -0.0219(3)
O29 O 0.9979(5) 0.1993(4) -0.0420(3)
O30 O 1.0577(4) 0.2521(3) 0.0597(3)
O31 O 0.8870(4) 0.2668(4) 0.0291(3)
O5? O 0.175(3) 0.219(2) 0.2923(18)
O6? O 0.311(3) 0.302(2) 0.2556(18)
O7? O 0.288(3) 0.151(2) 0.2229(18)
O8? O 0.179(2) 0.258(2) 0.1820(15)
O21? O 0.6831(18) 0.4771(15) 0.0746(11)
O22? O 0.845(3) 0.523(2) 0.0881(18)
O23? O 0.736(2) 0.5417(17) 0.1723(13)
loop_
_geom_bond_atom_site_label_1
_geom_bond_atom_site_label_2
_geom_bond_site_symmetry_1
_geom_bond_site_symmetry_2
C1 H1 1_555 1_555
H2 C1 1_555 1_555
C2 C1 1_555 1_555
H3 C2 1_555 1_555
H4 C2 1_555 1_555
C3 H5 1_555 1_555
H6 C3 1_555 1_555
C4 C3 1_555 1_555
H7 C4 1_555 1_555
H8 C4 1_555 1_555
C5 H9 1_555 1_555
H10 C5 1_555 1_555
C6 C5 1_555 1_555
H11 C6 1_555 1_555
H12 C6 1_555 1_555
C7 H13 1_555 1_555
H14 C7 1_555 1_555
H15 C7 1_555 1_555
C8 H16 1_555 1_555
H17 C8 1_555 1_555
H18 C8 1_555 1_555
N1 C1 1_555 1_555
N2 C2 1_555 1_555
C9 H19 1_555 1_555
H20 C9 1_555 1_555
C10 C9 1_555 1_555
H21 C10 1_555 1_555
H22 C10 1_555 1_555
C11 H23 1_555 1_555
H24 C11 1_555 1_555
C12 C11 1_555 1_555
H25 C12 1_555 1_555
H26 C12 1_555 1_555
C13 H27 1_555 1_555
H28 C13 1_555 1_555
C14 C13 1_555 1_555
H29 C14 1_555 1_555
H30 C14 1_555 1_555
C15 H31 1_555 1_555
H32 C15 1_555 1_555
H33 C15 1_555 1_555
C16 H34 1_555 1_555
H35 C16 1_555 1_555
H36 C16 1_555 1_555
N3 C9 1_555 1_555
N4 C10 1_555 1_555
C17 H37 1_555 1_555
H38 C17 1_555 1_555
C18 C17 1_555 1_555
H39 C18 1_555 1_555
H40 C18 1_555 1_555
C19 H41 1_555 1_555
H42 C19 1_555 1_555
C20 C19 1_555 1_555
H43 C20 1_555 1_555
H44 C20 1_555 1_555
C21 H45 1_555 1_555
H46 C21 1_555 1_555
C22 C21 1_555 1_555
H47 C22 1_555 1_555
H48 C22 1_555 1_555
C23 H49 1_555 1_555
H50 C23 1_555 1_555
H51 C23 1_555 1_555
C24 H52 1_555 1_555
H53 C24 1_555 1_555
H54 C24 1_555 1_555
N5 C17 1_555 1_555
N6 C18 1_555 1_555
Cl1 O1 1_555 1_555
O2 Cl1 1_555 1_555
O3 Cl1 1_555 1_555
O4 Cl1 1_555 1_555
Cl2 O9 1_555 1_555
O10 Cl2 1_555 1_555
O11 Cl2 1_555 1_555
O12 Cl2 1_555 1_555
Cl3 O13 1_555 1_555
O14 Cl3 1_555 1_555
O15 Cl3 1_555 1_555
O16 Cl3 1_555 1_555
Cl4 O17 1_555 1_555
O18 Cl4 1_555 1_555
O19 Cl4 1_555 1_555
O20 Cl4 1_555 1_555
Cl5 O24 1_555 1_555
O25 Cl5 1_555 1_555
O26 Cl5 1_555 1_555
O27 Cl5 1_555 1_555
Cl6 O28 1_555 1_555
O29 Cl6 1_555 1_555
O30 Cl6 1_555 1_555
O31 Cl6 1_555 1_555
C3 N1 1_555 1_555
C4 N2 1_555 1_555
C5 N1 1_555 1_555
C6 N2 1_555 1_555
C7 N1 1_555 1_555
C8 N2 1_555 1_555
C11 N3 1_555 1_555
C12 N4 1_555 1_555
C13 N3 1_555 1_555
C14 N4 1_555 1_555
C15 N3 1_555 1_555
C16 N4 1_555 1_555
C19 N5 1_555 1_555
C20 N6 1_555 1_555
C21 N5 1_555 1_555
C22 N6 1_555 1_555
C23 N6 1_555 1_555
C24 N5 1_555 1_555

#END
