
#######################################################################
#
#                 Cambridge Crystallographic Data Centre
#                                CCDC 
#
#######################################################################
#
# If this CIF has been generated from an entry in the Cambridge 
# Structural Database, then it will include bibliographic, chemical, 
# crystal, experimental, refinement or atomic coordinate data resulting 
# from the CCDC's data processing and validation procedures.
#
#######################################################################

data_OHOYAN
_chemical_formula_moiety         'C8 H18 N2 2+,2(Cl1 O4 1-)'
_chemical_name_systematic        
'1,4-dimethyl-1,4-diazoniabicyclo[2.2.2]octane diperchlorate'
_symmetry_cell_setting           orthorhombic
_symmetry_space_group_name_H-M   'P n m a'
_symmetry_Int_Tables_number      62
_space_group_name_Hall           '-P 2ac 2n'
loop_
_symmetry_equiv_pos_site_id
_symmetry_equiv_pos_as_xyz
1 x,y,z
2 1/2-x,-y,1/2+z
3 1/2+x,1/2-y,1/2-z
4 -x,1/2+y,-z
5 -x,-y,-z
6 1/2+x,y,1/2-z
7 1/2-x,1/2+y,1/2+z
8 x,1/2-y,z
_cell_length_a                   15.5417(14)
_cell_length_b                   13.3677(12)
_cell_length_c                   20.7728(19)
_cell_angle_alpha                90
_cell_angle_beta                 90
_cell_angle_gamma                90
_cell_volume                     4315.69
_cell_formula_units_Z            12
loop_
_atom_site_label
_atom_site_type_symbol
_atom_site_fract_x
_atom_site_fract_y
_atom_site_fract_z
Cl2 Cl 0.48709(9) 0.46638(10) 0.67244(6)
O5 O 0.4066(6) 0.5031(10) 0.6485(6)
O6 O 0.4777(8) 0.3612(8) 0.6814(6)
O7 O 0.5343(9) 0.4722(11) 0.6138(6)
O8 O 0.5445(11) 0.5050(12) 0.7200(7)
Cl3 Cl 0.05490(11) 0.2500 0.61051(9)
O9 O -0.0097(14) 0.1838(15) 0.5721(10)
O10 O 0.0467(10) 0.2500 0.6752(7)
O11 O 0.1283(8) 0.2500 0.5750(7)
O9G O -0.0097(14) 0.3162(15) 0.5721(10)
Cl4 Cl 0.76080(11) 0.2500 0.23581(9)
O12 O 0.6926(19) 0.2015(19) 0.2645(12)
O13 O 0.8388(5) 0.2049(7) 0.2233(4)
O14 O 0.7328(6) 0.3095(7) 0.1814(5)
O12G O 0.6926(19) 0.2985(19) 0.2645(12)
O13G O 0.8388(5) 0.2951(7) 0.2233(4)
O14G O 0.7328(6) 0.1905(7) 0.1814(5)
N1 N 0.3961(3) 0.2500 0.4911(2)
N2 N 0.5448(3) 0.2500 0.4403(2)
C1 C 0.3071(5) 0.2500 0.5217(5)
H1 H 0.2820 0.1846 0.5178
H2 H 0.2713 0.2980 0.5001
H3 H 0.3117 0.2674 0.5664
C2 C 0.3881(5) 0.2500 0.4217(4)
H4 H 0.3562 0.3087 0.4082
C3 C 0.4490(7) 0.3167(9) 0.5244(5)
H5 H 0.4660 0.2880 0.5654
H6 H 0.4178 0.3782 0.5327
C4 C 0.4397(7) 0.3595(7) 0.4950(5)
H7 H 0.4154 0.4035 0.4626
H8 H 0.4314 0.3893 0.5371
C5 C 0.4750(5) 0.2500 0.3895(3)
H9 H 0.4807 0.3088 0.3625
C6 C 0.5330(3) 0.3410(4) 0.4813(3)
H10 H 0.5238 0.3998 0.4550
H11 H 0.5830 0.3520 0.5085
H12 H 0.5572 0.3986 0.4595
H13 H 0.5637 0.3321 0.5216
C7 C 0.6325(5) 0.2500 0.4098(4)
H14 H 0.6401 0.3099 0.3850
H15 H 0.6752 0.2500 0.4431
H1G H 0.2820 0.3154 0.5178
H2G H 0.2713 0.2020 0.5001
H3G H 0.3117 0.2326 0.5664
H4G H 0.3562 0.1913 0.4082
C3G C 0.4490(7) 0.1833(9) 0.5244(5)
H5G H 0.4660 0.2120 0.5654
H6G H 0.4178 0.1218 0.5327
C4G C 0.4397(7) 0.1405(7) 0.4950(5)
H7G H 0.4154 0.0965 0.4626
H8G H 0.4314 0.1107 0.5371
H9G H 0.4807 0.1912 0.3625
C6G C 0.5330(3) 0.1590(4) 0.4813(3)
H10G H 0.5238 0.1002 0.4550
H11G H 0.5830 0.1480 0.5085
H12G H 0.5572 0.1014 0.4595
H13G H 0.5637 0.1679 0.5216
H14G H 0.6401 0.1901 0.3850
N3 N 0.2603(3) 0.3439(3) 0.7768(3)
C8 C 0.2601(4) 0.3043(5) 0.7100(3)
H16 H 0.2096 0.3285 0.6875
H17 H 0.3106 0.3285 0.6873
C9 C 0.1821(3) 0.3047(4) 0.8100(4)
H18 H 0.1809 0.3290 0.8540
H19 H 0.1310 0.3290 0.7883
C10 C 0.3390(3) 0.3070(4) 0.8104(3)
H20 H 0.3398 0.3316 0.8544
H21 H 0.3900 0.3316 0.7887
C11 C 0.2595(5) 0.4574(5) 0.7763(5)
H22 H 0.2096 0.4807 0.7536
H23 H 0.3104 0.4816 0.7552
H24 H 0.2581 0.4818 0.8197
N3G N 0.2603(3) 0.1561(3) 0.7768(3)
C8G C 0.2601(4) 0.1957(5) 0.7100(3)
H16G H 0.2096 0.1715 0.6875
H17G H 0.3106 0.1715 0.6873
C9G C 0.1821(3) 0.1953(4) 0.8100(4)
H18G H 0.1809 0.1710 0.8540
H19G H 0.1310 0.1710 0.7883
C10G C 0.3390(3) 0.1930(4) 0.8104(3)
H20G H 0.3398 0.1684 0.8544
H21G H 0.3900 0.1684 0.7887
C11G C 0.2595(5) 0.0426(5) 0.7763(5)
H22G H 0.2096 0.0193 0.7536
H23G H 0.3104 0.0184 0.7552
H24G H 0.2581 0.0182 0.8197
N4 N 0.9922(3) 0.1555(3) 0.38352(18)
C12 C 1.0034(6) 0.1952(7) 0.3159(4)
H25 H 1.0572 0.1710 0.2982
H26 H 0.9570 0.1710 0.2889
C13 C 0.9128(6) 0.1963(7) 0.4107(6)
H27 H 0.8642 0.1724 0.3858
H28 H 0.9062 0.1724 0.4545
C14 C 1.0699(7) 0.1967(6) 0.4213(5)
H29 H 1.0677 0.1726 0.4653
H30 H 1.1228 0.1726 0.4020
C15 C 0.9913(5) 0.0431(4) 0.3836(4)
H31 H 0.9815 0.0193 0.4265
H32 H 1.0456 0.0185 0.3683
H33 H 0.9461 0.0196 0.3559
N4G N 0.9922(3) 0.3445(3) 0.38352(18)
C12G C 1.0034(6) 0.3048(7) 0.3159(4)
H25G H 1.0572 0.3290 0.2982
H26G H 0.9570 0.3290 0.2889
C13G C 0.9128(6) 0.3037(7) 0.4107(6)
H27G H 0.8642 0.3276 0.3858
H28G H 0.9062 0.3276 0.4545
C14G C 1.0699(7) 0.3033(6) 0.4213(5)
H29G H 1.0677 0.3274 0.4653
H30G H 1.1228 0.3274 0.4020
C15G C 0.9913(5) 0.4569(4) 0.3836(4)
H31G H 0.9815 0.4807 0.4265
H32G H 1.0456 0.4815 0.3683
H33G H 0.9461 0.4804 0.3559
Cl1 Cl 0.23163(9) 0.53421(13) 0.48008(9)
O1 O 0.1498(8) 0.5090(11) 0.4960(7)
O2 O 0.2430(5) 0.4609(6) 0.4297(4)
O3 O 0.2353(8) 0.6353(9) 0.4717(6)
O4 O 0.2767(9) 0.5150(9) 0.5328(6)
O15? O 0.1435(10) 0.5605(14) 0.4694(8)
O16? O 0.3146(15) 0.5034(18) 0.4761(12)
O17? O 0.2751(10) 0.6221(12) 0.4486(7)
O18? O 0.2282(15) 0.5162(17) 0.5502(8)
O19? O 0.4302(8) 0.5497(9) 0.6843(7)
O20? O 0.4473(13) 0.3735(16) 0.6635(9)
O21? O 0.5526(10) 0.4906(12) 0.6293(8)
O22? O 0.5093(11) 0.4596(13) 0.7342(7)
O23? O 0.0260(17) 0.1607(19) 0.6036(13)
O24? O 0.0480(10) 0.1826(11) 0.6668(8)
O25? O 0.1173(12) 0.1854(13) 0.5831(9)
O26? O 0.0864(15) 0.1576(16) 0.6412(11)
O27? O -0.0231(10) 0.2249(13) 0.5819(8)
O28? O 0.698(2) 0.177(2) 0.2414(14)
O29? O 0.7714(8) 0.1803(8) 0.2890(5)
H34? H 0.6384 0.1928 0.3822
H35? H 0.3562 0.3087 0.4082
H36? H 0.4807 0.3088 0.3625
C16? C 0.8985(16) 0.189(2) 0.3727(16)
H37? H 0.8619 0.1635 0.4068
H38? H 0.8774 0.1635 0.3319
C17? C 1.0171(19) 0.1891(16) 0.4470(11)
H39? H 1.0740 0.1642 0.4575
H40? H 0.9769 0.1642 0.4789
C18? C 1.039(2) 0.190(2) 0.3323(15)
H41? H 1.0144 0.1658 0.2924
H42? H 1.0978 0.1658 0.3352
loop_
_geom_bond_atom_site_label_1
_geom_bond_atom_site_label_2
_geom_bond_site_symmetry_1
_geom_bond_site_symmetry_2
Cl1 O1 1_555 1_555
O2 Cl1 1_555 1_555
O3 Cl1 1_555 1_555
O4 Cl1 1_555 1_555
Cl2 O5 1_555 1_555
O6 Cl2 1_555 1_555
O7 Cl2 1_555 1_555
O8 Cl2 1_555 1_555
Cl3 O9 1_555 1_555
O9 O9G 1_555 1_555
O10 Cl3 1_555 1_555
O11 Cl3 1_555 1_555
Cl4 O12 1_555 1_555
O12 O12G 1_555 1_555
O13 Cl4 1_555 1_555
O14 Cl4 1_555 1_555
N1 C1 1_555 1_555
N2 C5 1_555 1_555
C1 H1 1_555 1_555
H2 C1 1_555 1_555
H3 C1 1_555 1_555
C2 N1 1_555 1_555
H4 C2 1_555 1_555
C3 N1 1_555 1_555
H5 C3 1_555 1_555
H6 C3 1_555 1_555
C4 N1 1_555 1_555
H7 C4 1_555 1_555
H8 C3 1_555 1_555
C5 C2 1_555 1_555
H9 C5 1_555 1_555
C6 N2 1_555 1_555
H10 C6 1_555 1_555
H11 C6 1_555 1_555
H12 C6 1_555 1_555
H13 C6 1_555 1_555
C7 N2 1_555 1_555
H14 C7 1_555 1_555
H15 C7 1_555 1_555
N3 C8 1_555 1_555
C8 H16 1_555 1_555
H17 C8 1_555 1_555
C9 N3 1_555 1_555
H18 C9 1_555 1_555
H19 C9 1_555 1_555
C10 N3 1_555 1_555
H20 C10 1_555 1_555
H21 C10 1_555 1_555
C11 N3 1_555 1_555
H22 C11 1_555 1_555
H23 C11 1_555 1_555
H24 C11 1_555 1_555
N4 C12 1_555 1_555
C12 H25 1_555 1_555
H26 C12 1_555 1_555
C13 N4 1_555 1_555
H27 C13 1_555 1_555
H28 C13 1_555 1_555
C14 N4 1_555 1_555
H29 C14 1_555 1_555
H30 C14 1_555 1_555
C15 N4 1_555 1_555
H31 C15 1_555 1_555
H32 C15 1_555 1_555
H33 C15 1_555 1_555
O9G Cl3 1_555 1_555
O12G Cl4 1_555 1_555
O13G Cl4 1_555 1_555
O14G Cl4 1_555 1_555
H1G C1 1_555 1_555
H2G C1 1_555 1_555
H3G C1 1_555 1_555
H4G C2 1_555 1_555
C3G N1 1_555 1_555
H5G C3G 1_555 1_555
H6G C3G 1_555 1_555
C4G N1 1_555 1_555
H7G C4G 1_555 1_555
H8G C3G 1_555 1_555
H9G C5 1_555 1_555
C6G N2 1_555 1_555
H10G C6G 1_555 1_555
H11G C6G 1_555 1_555
H12G C6G 1_555 1_555
H13G C6G 1_555 1_555
H14G C7 1_555 1_555
N3G C8G 1_555 1_555
C8G C8 1_555 1_555
H16G C8G 1_555 1_555
H17G C8G 1_555 1_555
C9G C9 1_555 1_555
H18G C9G 1_555 1_555
H19G C9G 1_555 1_555
C10G C10 1_555 1_555
H20G C10G 1_555 1_555
H21G C10G 1_555 1_555
C11G N3G 1_555 1_555
H22G C11G 1_555 1_555
H23G C11G 1_555 1_555
H24G C11G 1_555 1_555
N4G C12G 1_555 1_555
C12G C12 1_555 1_555
H25G C12G 1_555 1_555
H26G C12G 1_555 1_555
C13G C13 1_555 1_555
H27G C13G 1_555 1_555
H28G C13G 1_555 1_555
C14G C14 1_555 1_555
H29G C14G 1_555 1_555
H30G C14G 1_555 1_555
C15G N4G 1_555 1_555
H31G C15G 1_555 1_555
H32G C15G 1_555 1_555
H33G C15G 1_555 1_555
O13 O13G 1_555 1_555
O14 O14G 1_555 1_555
C3 C4 1_555 1_555
C3 C6 1_555 1_555
C3 C3G 1_555 1_555
H6 C4 1_555 1_555
C4 H8 1_555 1_555
C4 C6 1_555 1_555
C3G C4G 1_555 1_555
C3G C6G 1_555 1_555
H6G C4G 1_555 1_555
C4G H8G 1_555 1_555
C4G C6G 1_555 1_555
N3G C9G 1_555 1_555
N3G C10G 1_555 1_555
N4G C13G 1_555 1_555
N4G C14G 1_555 1_555

#END
