
#######################################################################
#
#                 Cambridge Crystallographic Data Centre
#                                CCDC 
#
#######################################################################
#
# If this CIF has been generated from an entry in the Cambridge 
# Structural Database, then it will include bibliographic, chemical, 
# crystal, experimental, refinement or atomic coordinate data resulting 
# from the CCDC's data processing and validation procedures.
#
#######################################################################

data_OHUNAH
_chemical_formula_moiety         'C18 H21 Br1 O2'
_chemical_name_systematic        
3-(4-Bromophenyl)-9,9-dimethylspiro[4.5]decane-1,7-dione
_symmetry_cell_setting           monoclinic
_symmetry_space_group_name_H-M   'P 21'
_symmetry_Int_Tables_number      4
_space_group_name_Hall           'P 2yb'
loop_
_symmetry_equiv_pos_site_id
_symmetry_equiv_pos_as_xyz
1 x,y,z
2 -x,1/2+y,-z
_cell_length_a                   11.662(6)
_cell_length_b                   6.404(3)
_cell_length_c                   21.730(10)
_cell_angle_alpha                90
_cell_angle_beta                 97.407(8)
_cell_angle_gamma                90
_cell_volume                     1609.33
_exptl_crystal_colour            colorless
_exptl_crystal_description       block
_cell_formula_units_Z            4
loop_
_atom_site_label
_atom_site_type_symbol
_atom_site_fract_x
_atom_site_fract_y
_atom_site_fract_z
Br1 Br 0.41146(6) -0.10322(13) 0.79977(3)
C1 C 0.3540(5) 0.3698(12) 0.6727(3)
H1 H 0.3835 0.5028 0.6677
C2 C 0.3535(5) 0.0620(13) 0.7307(2)
C3 C 0.2292(5) 0.1008(11) 0.6374(3)
H2 H 0.1723 0.0450 0.6081
C4 C 0.3979(5) 0.2562(11) 0.7239(3)
H3 H 0.4560 0.3099 0.7529
C5 C 0.2694(5) 0.2973(9) 0.6288(2)
C6 C 0.2978(4) 0.4022(10) 0.5198(2)
H4 H 0.3182 0.2567 0.5153
H5 H 0.3682 0.4841 0.5268
C7 C 0.2269(5) 0.4296(10) 0.5733(2)
H6 H 0.2314 0.5764 0.5861
C8 C 0.1017(5) 0.4171(10) 0.4762(3)
C9 C 0.2198(4) 0.4797(8) 0.4615(2)
C10 C 0.1042(5) 0.3858(16) 0.5435(3)
H7 H 0.0825 0.2436 0.5521
H8 H 0.0505 0.4802 0.5598
O1 O 0.0170(3) 0.4013(9) 0.44071(19)
C11 C 0.2398(5) 0.3817(10) 0.4003(2)
H9 H 0.2514 0.2330 0.4071
H10 H 0.1697 0.3984 0.3715
O2 O 0.3899(4) 0.9155(8) 0.4530(2)
C12 C 0.3397(6) 0.4636(10) 0.3692(3)
C13 C 0.3216(6) 0.7933(10) 0.4275(3)
C14 C 0.2211(5) 0.7180(9) 0.4562(3)
H11 H 0.1505 0.7641 0.4314
H12 H 0.2232 0.7786 0.4972
C15 C 0.3343(6) 0.7028(11) 0.3666(3)
H13 H 0.4045 0.7560 0.3526
H14 H 0.2695 0.7453 0.3367
C33 C 0.4557(5) 0.4079(12) 0.4049(3)
H33 H 0.4615 0.4669 0.4458
H34 H 0.5164 0.4627 0.3837
H35 H 0.4628 0.2588 0.4079
C34 C 0.3304(6) 0.3717(14) 0.3048(3)
H36 H 0.3377 0.2226 0.3076
H37 H 0.3909 0.4271 0.2835
H38 H 0.2567 0.4071 0.2823
C35 C 0.2706(6) -0.0168(10) 0.6884(3)
H39 H 0.2415 -0.1499 0.6936
Br2 Br 0.00982(7) 0.57139(13) 0.69346(3)
C16 C 0.1217(5) 0.0916(10) 0.8494(2)
C17 C 0.0561(6) 0.3738(12) 0.7563(3)
C18 C 0.1500(5) 0.4142(11) 0.7982(3)
H15 H 0.1921 0.5366 0.7957
C19 C 0.1820(5) 0.2722(10) 0.8444(3)
H16 H 0.2465 0.2995 0.8731
C20 C 0.0282(6) 0.0587(14) 0.8065(3)
H17 H -0.0146 -0.0632 0.8082
C21 C 0.1606(5) -0.0689(9) 0.8980(2)
H18 H 0.2225 -0.1502 0.8830
C22 C 0.2076(5) 0.0137(8) 0.9625(2)
H19 H 0.2833 0.0758 0.9621
H20 H 0.1560 0.1181 0.9760
C23 C 0.1208(5) -0.3145(10) 0.9736(3)
C24 C 0.0691(5) -0.2226(9) 0.9133(3)
H21 H -0.0031 -0.1519 0.9175
H22 H 0.0550 -0.3293 0.8816
C25 C -0.0041(7) 0.1992(15) 0.7611(3)
H23 H -0.0694 0.1734 0.7328
O3 O 0.0903(4) -0.4770(7) 0.99537(19)
C26 C 0.1930(5) -0.1368(11) 1.0711(3)
H24 H 0.1746 -0.2699 1.0888
H25 H 0.1252 -0.0486 1.0703
C27 C 0.2910(6) -0.0368(10) 1.1142(3)
C28 C 0.3292(5) -0.2936(10) 1.0044(3)
H26 H 0.3181 -0.4378 1.0159
H27 H 0.3501 -0.2926 0.9626
C29 C 0.2149(4) -0.1738(8) 1.0050(3)
C30 C 0.3104(7) 0.1892(10) 1.0972(3)
H28 H 0.3489 0.1942 1.0608
H29 H 0.3572 0.2570 1.1309
H30 H 0.2372 0.2592 1.0891
C31 C 0.4009(6) -0.1619(12) 1.1109(4)
H31 H 0.4658 -0.0865 1.1329
H32 H 0.3946 -0.2943 1.1319
C32 C 0.4250(7) -0.2027(10) 1.0473(5)
O4 O 0.5196(5) -0.1727(8) 1.0326(3)
C36 C 0.2598(8) -0.0459(15) 1.1794(3)
H40 H 0.1927 0.0388 1.1822
H41 H 0.3233 0.0055 1.2079
H42 H 0.2436 -0.1878 1.1897
loop_
_geom_bond_atom_site_label_1
_geom_bond_atom_site_label_2
_geom_bond_site_symmetry_1
_geom_bond_site_symmetry_2
Br1 C2 1_555 1_555
Br2 C17 1_555 1_555
C1 H1 1_555 1_555
C2 C4 1_555 1_555
C3 H2 1_555 1_555
C4 C1 1_555 1_555
H3 C4 1_555 1_555
C5 C1 1_555 1_555
C6 H4 1_555 1_555
H5 C6 1_555 1_555
C7 C5 1_555 1_555
H6 C7 1_555 1_555
C8 C9 1_555 1_555
C9 C6 1_555 1_555
C10 C7 1_555 1_555
H7 C10 1_555 1_555
H8 C10 1_555 1_555
O1 C8 1_555 1_555
C11 C9 1_555 1_555
H9 C11 1_555 1_555
H10 C11 1_555 1_555
O2 C13 1_555 1_555
C12 C11 1_555 1_555
C13 C14 1_555 1_555
C14 C9 1_555 1_555
H11 C14 1_555 1_555
H12 C14 1_555 1_555
C15 C12 1_555 1_555
H13 C15 1_555 1_555
H14 C15 1_555 1_555
C16 C19 1_555 1_555
C17 C18 1_555 1_555
C18 H15 1_555 1_555
C19 C18 1_555 1_555
H16 C19 1_555 1_555
C20 C16 1_555 1_555
H17 C20 1_555 1_555
C21 C16 1_555 1_555
H18 C21 1_555 1_555
C22 C21 1_555 1_555
H19 C22 1_555 1_555
H20 C22 1_555 1_555
C23 C24 1_555 1_555
C24 C21 1_555 1_555
H21 C24 1_555 1_555
H22 C24 1_555 1_555
C25 C17 1_555 1_555
H23 C25 1_555 1_555
O3 C23 1_555 1_555
C26 H24 1_555 1_555
H25 C26 1_555 1_555
C27 C26 1_555 1_555
C28 H26 1_555 1_555
H27 C28 1_555 1_555
C29 C22 1_555 1_555
C30 C27 1_555 1_555
H28 C30 1_555 1_555
H29 C30 1_555 1_555
H30 C30 1_555 1_555
C31 C27 1_555 1_555
H31 C31 1_555 1_555
H32 C31 1_555 1_555
C32 C28 1_555 1_555
C33 C12 1_555 1_555
H33 C33 1_555 1_555
H34 C33 1_555 1_555
H35 C33 1_555 1_555
C34 C12 1_555 1_555
H36 C34 1_555 1_555
H37 C34 1_555 1_555
H38 C34 1_555 1_555
C35 C2 1_555 1_555
H39 C35 1_555 1_555
O4 C32 1_555 1_555
C36 C27 1_555 1_555
H40 C36 1_555 1_555
H41 C36 1_555 1_555
H42 C36 1_555 1_555
C3 C5 1_555 1_555
C3 C35 1_555 1_555
C6 C7 1_555 1_555
C8 C10 1_555 1_555
C13 C15 1_555 1_555
C20 C25 1_555 1_555
C23 C29 1_555 1_555
C26 C29 1_555 1_555
C28 C29 1_555 1_555
C31 C32 1_555 1_555

#END
