
#######################################################################
#
#                 Cambridge Crystallographic Data Centre
#                                CCDC 
#
#######################################################################
#
# If this CIF has been generated from an entry in the Cambridge 
# Structural Database, then it will include bibliographic, chemical, 
# crystal, experimental, refinement or atomic coordinate data resulting 
# from the CCDC's data processing and validation procedures.
#
#######################################################################

data_OHUROA
_chemical_formula_moiety         'C35 H29 Cl1 N4 O5'
_chemical_name_systematic        
"dimethyl 6'-(2-(3-chlorophenyl)vinyl)-5',5'-dicyano-2-oxo-1'-phenyl-1-propyl-1,2,5',6'-tetrahydro-1'H-spiro[indole-3,4'-pyridine]-2',3'-dicarboxylate"
_symmetry_cell_setting           monoclinic
_symmetry_space_group_name_H-M   'P 21/c'
_symmetry_Int_Tables_number      14
_space_group_name_Hall           '-P 2ybc'
loop_
_symmetry_equiv_pos_site_id
_symmetry_equiv_pos_as_xyz
1 x,y,z
2 -x,1/2+y,1/2-z
3 -x,-y,-z
4 x,1/2-y,1/2+z
_cell_length_a                   8.2071(13)
_cell_length_b                   27.176(4)
_cell_length_c                   14.260(2)
_cell_angle_alpha                90
_cell_angle_beta                 103.488(5)
_cell_angle_gamma                90
_cell_volume                     3092.77
_exptl_crystal_colour            colorless
_exptl_crystal_description       block
_cell_formula_units_Z            4
loop_
_atom_site_label
_atom_site_type_symbol
_atom_site_fract_x
_atom_site_fract_y
_atom_site_fract_z
C1 C 0.4993(5) 0.27124(11) 0.4305(2)
H1 H 0.5614 0.2837 0.4914
H2 H 0.4403 0.2978 0.3928
H3 H 0.5749 0.2565 0.3966
C2 C 0.3758(4) 0.23337(8) 0.44727(19)
H4 H 0.3108 0.2216 0.3856
H5 H 0.2991 0.2485 0.4812
C3 C 0.4624(3) 0.19034(7) 0.50537(15)
H6 H 0.5276 0.1728 0.4675
H7 H 0.5393 0.2027 0.5628
C4 C 0.3077(2) 0.15600(6) 0.62142(13)
C5 C 0.1603(2) 0.11984(6) 0.61738(12)
C6 C 0.1423(2) 0.09733(6) 0.51736(12)
C7 C 0.0441(3) 0.05970(7) 0.47112(15)
H8 H -0.0304 0.0435 0.5007
C8 C 0.0580(3) 0.04614(7) 0.37924(15)
H9 H -0.0061 0.0202 0.3478
C9 C 0.1647(3) 0.07052(8) 0.33468(15)
H10 H 0.1698 0.0615 0.2725
C10 C 0.2655(3) 0.10838(7) 0.38072(14)
H11 H 0.3394 0.1247 0.3510
C11 C 0.2520(2) 0.12081(6) 0.47178(13)
C12 C 0.0007(2) 0.15183(6) 0.61952(12)
C13 C -0.0117(3) 0.19420(7) 0.55337(14)
C14 C -0.1514(3) 0.12180(7) 0.58741(14)
C15 C -0.3958(3) 0.28487(7) 0.71475(13)
H12 H -0.4384 0.2532 0.7024
C16 C -0.5021(3) 0.32428(8) 0.70388(14)
C17 C -0.4462(3) 0.37169(8) 0.72302(16)
H13 H -0.5208 0.3980 0.7144
C18 C -0.2786(3) 0.37909(7) 0.75499(18)
H14 H -0.2380 0.4108 0.7698
C19 C -0.1684(3) 0.34026(7) 0.76572(16)
H15 H -0.0542 0.3462 0.7877
C20 C -0.2243(3) 0.29235(6) 0.74432(13)
C21 C -0.1020(2) 0.25287(6) 0.74925(14)
H16 H 0.0098 0.2620 0.7703
C22 C -0.1297(2) 0.20577(6) 0.72763(13)
H17 H -0.2394 0.1943 0.7137
C23 C 0.0075(2) 0.17050(6) 0.72466(13)
H18 H 0.1149 0.1872 0.7489
C24 C -0.0970(3) 0.12494(7) 0.85357(13)
C25 C -0.0351(3) 0.14351(9) 0.94370(16)
H19 H 0.0704 0.1581 0.9592
C26 C -0.1295(4) 0.14058(11) 1.01141(19)
H20 H -0.0871 0.1528 1.0732
C27 C -0.2840(4) 0.12003(10) 0.9885(2)
H21 H -0.3472 0.1181 1.0347
C28 C -0.3465(3) 0.10238(10) 0.8991(2)
H22 H -0.4532 0.0886 0.8835
C29 C -0.2527(3) 0.10467(9) 0.83041(17)
H23 H -0.2957 0.0924 0.7687
C30 C 0.1043(2) 0.08781(6) 0.77291(13)
C31 C 0.1134(3) 0.04825(7) 0.84874(14)
C32 C 0.2546(5) 0.02333(13) 1.0039(2)
H24 H 0.1620 0.0263 1.0340
H25 H 0.3572 0.0302 1.0503
H26 H 0.2582 -0.0095 0.9795
C33 C 0.1868(2) 0.08384(6) 0.70101(13)
C34 C 0.3063(3) 0.04346(6) 0.70634(14)
C35 C 0.5141(3) 0.00819(9) 0.6397(2)
H27 H 0.5838 0.0028 0.7030
H28 H 0.5832 0.0161 0.5959
H29 H 0.4508 -0.0210 0.6181
Cl1 Cl -0.71641(8) 0.31399(3) 0.66403(5)
N1 N 0.3460(2) 0.15617(5) 0.53388(11)
N2 N -0.0214(3) 0.22676(7) 0.50337(15)
N3 N -0.2689(3) 0.09887(7) 0.56429(15)
N4 N 0.0039(2) 0.12641(5) 0.78303(10)
O1 O 0.37273(18) 0.18089(5) 0.69062(10)
O2 O 0.0176(2) 0.01473(5) 0.84053(11)
O3 O 0.2342(2) 0.05821(6) 0.92486(10)
O4 O 0.3222(2) 0.00955(5) 0.76190(12)
O5 O 0.40116(18) 0.04842(5) 0.64295(11)
loop_
_geom_bond_atom_site_label_1
_geom_bond_atom_site_label_2
_geom_bond_site_symmetry_1
_geom_bond_site_symmetry_2
C1 H1 1_555 1_555
H2 C1 1_555 1_555
H3 C1 1_555 1_555
C2 C1 1_555 1_555
H4 C2 1_555 1_555
H5 C2 1_555 1_555
C3 C2 1_555 1_555
H6 C3 1_555 1_555
H7 C3 1_555 1_555
C4 C5 1_555 1_555
C5 C6 1_555 1_555
C6 C7 1_555 1_555
C7 H8 1_555 1_555
C8 C7 1_555 1_555
H9 C8 1_555 1_555
C9 C8 1_555 1_555
H10 C9 1_555 1_555
C10 C9 1_555 1_555
H11 C10 1_555 1_555
C11 C6 1_555 1_555
C12 C5 1_555 1_555
C13 C12 1_555 1_555
C14 C12 1_555 1_555
C15 H12 1_555 1_555
C16 C15 1_555 1_555
C17 C16 1_555 1_555
H13 C17 1_555 1_555
C18 C17 1_555 1_555
H14 C18 1_555 1_555
C19 C18 1_555 1_555
H15 C19 1_555 1_555
C20 C15 1_555 1_555
C21 C20 1_555 1_555
H16 C21 1_555 1_555
C22 C21 1_555 1_555
H17 C22 1_555 1_555
C23 C12 1_555 1_555
H18 C23 1_555 1_555
C24 C25 1_555 1_555
C25 H19 1_555 1_555
C26 C25 1_555 1_555
H20 C26 1_555 1_555
C27 C26 1_555 1_555
H21 C27 1_555 1_555
C28 C27 1_555 1_555
H22 C28 1_555 1_555
C29 C24 1_555 1_555
H23 C29 1_555 1_555
C30 C31 1_555 1_555
C31 O2 1_555 1_555
C32 H24 1_555 1_555
H25 C32 1_555 1_555
H26 C32 1_555 1_555
C33 C5 1_555 1_555
C34 C33 1_555 1_555
C35 H27 1_555 1_555
H28 C35 1_555 1_555
H29 C35 1_555 1_555
Cl1 C16 1_555 1_555
N1 C3 1_555 1_555
N2 C13 1_555 1_555
N3 C14 1_555 1_555
N4 C23 1_555 1_555
O1 C4 1_555 1_555
O3 C31 1_555 1_555
O4 C34 1_555 1_555
O5 C34 1_555 1_555
C4 N1 1_555 1_555
C10 C11 1_555 1_555
C11 N1 1_555 1_555
C19 C20 1_555 1_555
C22 C23 1_555 1_555
C24 N4 1_555 1_555
C28 C29 1_555 1_555
C30 C33 1_555 1_555
C30 N4 1_555 1_555
C32 O3 1_555 1_555
C35 O5 1_555 1_555

#END
