
#######################################################################
#
#                 Cambridge Crystallographic Data Centre
#                                CCDC 
#
#######################################################################
#
# If this CIF has been generated from an entry in the Cambridge 
# Structural Database, then it will include bibliographic, chemical, 
# crystal, experimental, refinement or atomic coordinate data resulting 
# from the CCDC's data processing and validation procedures.
#
#######################################################################

data_OJAPAR
_chemical_formula_moiety         'C24 H24 N2 O1'
_chemical_name_systematic        
3-(4-t-Butylphenyl)-5-(6-methoxy-2-naphthyl)-1H-pyrazole
_symmetry_cell_setting           monoclinic
_symmetry_space_group_name_H-M   'C 2/c'
_symmetry_Int_Tables_number      15
_space_group_name_Hall           '-C 2yn'
loop_
_symmetry_equiv_pos_site_id
_symmetry_equiv_pos_as_xyz
1 x,y,z
2 -x,y,1/2-z
3 1/2+x,1/2+y,z
4 1/2-x,1/2+y,1/2-z
5 -x,-y,-z
6 x,-y,1/2+z
7 1/2-x,1/2-y,-z
8 1/2+x,1/2-y,1/2+z
_cell_length_a                   34.9071(10)
_cell_length_b                   6.15110(10)
_cell_length_c                   21.7645(4)
_cell_angle_alpha                90
_cell_angle_beta                 123.620(2)
_cell_angle_gamma                90
_cell_volume                     3891.51
_exptl_crystal_colour            colorless
_exptl_crystal_description       block
_chemical_melting_point          '244 deg.C'
_cell_formula_units_Z            8
loop_
_atom_site_label
_atom_site_type_symbol
_atom_site_fract_x
_atom_site_fract_y
_atom_site_fract_z
C1 C 0.10904(8) 0.7881(3) -0.03229(11)
H1 H 0.0989 0.9084 -0.0167
H2 H 0.0895 0.7745 -0.0850
H3 H 0.1402 0.8128 -0.0177
C2 C 0.13234(6) 0.5876(3) 0.07633(9)
C3 C 0.12712(6) 0.3920(3) 0.10510(10)
H4 H 0.1076 0.2839 0.0731
C4 C 0.15032(6) 0.3611(3) 0.17882(9)
H5 H 0.1463 0.2323 0.1970
C5 C 0.18069(5) 0.5224(2) 0.22898(8)
C6 C 0.18565(5) 0.7182(2) 0.19970(9)
C7 C 0.16088(5) 0.7468(3) 0.12238(9)
H6 H 0.1641 0.8749 0.1030
C8 C 0.20707(6) 0.4916(3) 0.30611(9)
H7 H 0.2037 0.3629 0.3252
C9 C 0.23740(5) 0.6451(2) 0.35380(8)
C10 C 0.24143(6) 0.8410(3) 0.32387(9)
H8 H 0.2614 0.9483 0.3555
C11 C 0.21673(5) 0.8762(2) 0.24985(9)
H9 H 0.2203 1.0063 0.2318
C12 C 0.26614(5) 0.6108(2) 0.43383(9)
C13 C 0.30221(5) 0.7249(3) 0.49005(8)
H10 H 0.3147 0.8530 0.4857
C14 C 0.31672(6) 0.6131(2) 0.55505(8)
C15 C 0.35524(5) 0.6616(3) 0.63090(8)
C16 C 0.37587(7) 0.8612(3) 0.64977(10)
H11 H 0.3647 0.9695 0.6140
C17 C 0.41293(7) 0.9071(3) 0.72048(10)
H12 H 0.4259 1.0452 0.7309
C18 C 0.43109(6) 0.7535(3) 0.77595(9)
C19 C 0.40946(7) 0.5562(3) 0.75659(11)
H13 H 0.4202 0.4482 0.7924
C20 C 0.37238(7) 0.5102(3) 0.68637(11)
H14 H 0.3587 0.3737 0.6764
C21 C 0.47380(6) 0.7964(3) 0.85344(9)
C22 C 0.51520(8) 0.7001(5) 0.85775(14)
H15 H 0.5088 0.5522 0.8409
H16 H 0.5413 0.7042 0.9079
H17 H 0.5217 0.7829 0.8272
C23 C 0.46900(11) 0.6860(5) 0.91215(12)
H18 H 0.4398 0.7230 0.9039
H19 H 0.4932 0.7348 0.9603
H20 H 0.4710 0.5312 0.9090
C24 C 0.48160(9) 1.0353(3) 0.87228(12)
H21 H 0.4869 1.1087 0.8387
H22 H 0.5079 1.0532 0.9218
H23 H 0.4550 1.0959 0.8683
N1 N 0.26081(5) 0.4371(2) 0.46612(7)
H24 H 0.2404 0.3382 0.4421
N2 N 0.29107(5) 0.4346(2) 0.54033(7)
O1 O 0.10692(4) 0.5950(2) 0.00082(6)
loop_
_geom_bond_atom_site_label_1
_geom_bond_atom_site_label_2
_geom_bond_site_symmetry_1
_geom_bond_site_symmetry_2
C1 H1 1_555 1_555
H2 C1 1_555 1_555
H3 C1 1_555 1_555
C2 C3 1_555 1_555
C3 H4 1_555 1_555
C4 C3 1_555 1_555
H5 C4 1_555 1_555
C5 C4 1_555 1_555
C6 C5 1_555 1_555
C7 C2 1_555 1_555
H6 C7 1_555 1_555
C8 C5 1_555 1_555
H7 C8 1_555 1_555
C9 C8 1_555 1_555
C10 C9 1_555 1_555
H8 C10 1_555 1_555
C11 C6 1_555 1_555
H9 C11 1_555 1_555
C12 C9 1_555 1_555
C13 C12 1_555 1_555
H10 C13 1_555 1_555
C14 C13 1_555 1_555
C15 C14 1_555 1_555
C16 C15 1_555 1_555
H11 C16 1_555 1_555
C17 C16 1_555 1_555
H12 C17 1_555 1_555
C18 C17 1_555 1_555
C19 C18 1_555 1_555
H13 C19 1_555 1_555
C20 C15 1_555 1_555
H14 C20 1_555 1_555
C21 C18 1_555 1_555
C22 C21 1_555 1_555
H15 C22 1_555 1_555
H16 C22 1_555 1_555
H17 C22 1_555 1_555
C23 C21 1_555 1_555
H18 C23 1_555 1_555
H19 C23 1_555 1_555
H20 C23 1_555 1_555
C24 C21 1_555 1_555
H21 C24 1_555 1_555
H22 C24 1_555 1_555
H23 C24 1_555 1_555
N1 C12 1_555 1_555
H24 N1 1_555 1_555
N2 C14 1_555 1_555
O1 C1 1_555 1_555
C2 O1 1_555 1_555
C6 C7 1_555 1_555
C10 C11 1_555 1_555
C19 C20 1_555 1_555
N1 N2 1_555 1_555

#END
