
#######################################################################
#
#                 Cambridge Crystallographic Data Centre
#                                CCDC 
#
#######################################################################
#
# If this CIF has been generated from an entry in the Cambridge 
# Structural Database, then it will include bibliographic, chemical, 
# crystal, experimental, refinement or atomic coordinate data resulting 
# from the CCDC's data processing and validation procedures.
#
#######################################################################

data_OJAQIB01
_chemical_formula_moiety         'C32 H24 B2 F4 N8'
_chemical_name_systematic        
3,3'-(1,3-phenylene)bis(6,6-difluoro-1,5-diphenyl-5,6-dihydro-1,2,4,5-tetrazin-1-ium-6-borate)
_symmetry_cell_setting           monoclinic
_symmetry_space_group_name_H-M   'C 2/c'
_symmetry_Int_Tables_number      15
_space_group_name_Hall           '-C 2yn'
loop_
_symmetry_equiv_pos_site_id
_symmetry_equiv_pos_as_xyz
1 x,y,z
2 -x,y,1/2-z
3 1/2+x,1/2+y,z
4 1/2-x,1/2+y,1/2-z
5 -x,-y,-z
6 x,-y,1/2+z
7 1/2-x,1/2-y,-z
8 1/2+x,1/2-y,1/2+z
_cell_length_a                   18.4424(8)
_cell_length_b                   17.9458(8)
_cell_length_c                   18.5978(8)
_cell_angle_alpha                90
_cell_angle_beta                 110.9447(14)
_cell_angle_gamma                90
_cell_volume                     5748.5
_exptl_crystal_colour            red
_exptl_crystal_description       needle
_cell_formula_units_Z            8
loop_
_atom_site_label
_atom_site_type_symbol
_atom_site_fract_x
_atom_site_fract_y
_atom_site_fract_z
N1 N 0.28702(7) 0.47949(7) 0.77872(7)
N2 N 0.23831(7) 0.54275(7) 0.86417(7)
N3 N 0.12728(7) 0.42109(7) 1.02109(7)
N4 N 0.09961(7) 0.29220(7) 1.08650(7)
N5 N 0.32220(7) 0.54051(6) 0.76929(7)
N6 N 0.27171(7) 0.60480(7) 0.85646(6)
N7 N 0.11961(7) 0.28829(7) 1.02588(7)
N8 N 0.10491(7) 0.42941(7) 1.07993(7)
B1 B 0.34518(10) 0.60123(10) 0.83346(9)
B2 B 0.10478(10) 0.36434(9) 1.13525(9)
F1 F 0.04123(5) 0.36776(5) 1.15729(5)
F2 F 0.17364(5) 0.36539(5) 1.19764(5)
F3 F 0.36087(6) 0.66838(5) 0.80756(5)
F4 F 0.40731(5) 0.57551(5) 0.89567(5)
C1 C 0.13839(8) 0.35222(8) 0.99939(8)
C2 C 0.25582(8) 0.48035(8) 0.83372(8)
C3 C 0.33745(8) 0.54240(8) 0.69906(8)
C4 C 0.23399(8) 0.34167(8) 0.82080(8)
H1 H 0.2554 0.3398 0.7814
C5 C 0.17801(9) 0.27862(8) 0.90364(9)
H2 H 0.1624 0.2337 0.9210
C6 C 0.31110(9) 0.49757(9) 0.57039(8)
H3 H 0.2824 0.4664 0.5287
C7 C 0.01257(9) 0.10393(8) 1.07363(9)
H4 H -0.0140 0.0682 1.0357
C8 C 0.27933(9) 0.73499(8) 0.89636(8)
H5 H 0.3325 0.7362 0.9017
C9 C 0.08728(8) 0.50492(8) 1.09329(8)
C10 C 0.16962(8) 0.34668(8) 0.93620(8)
C11 C 0.19374(8) 0.41140(8) 0.91070(8)
H6 H 0.1874 0.4579 0.9322
C12 C 0.06715(8) 0.14088(8) 1.20635(9)
H7 H 0.0784 0.1300 1.2592
C13 C 0.22707(8) 0.40956(8) 0.85415(8)
C14 C 0.07371(8) 0.22322(8) 1.10756(8)
C15 C 0.07883(8) 0.55942(8) 1.03724(9)
H8 H 0.0833 0.5466 0.9894
C16 C 0.29494(8) 0.49714(8) 0.63769(8)
H9 H 0.2550 0.4660 0.6419
C17 C 0.03514(8) 0.17132(8) 1.05150(8)
H10 H 0.0243 0.1818 0.9986
C18 C 0.24393(9) 0.79759(8) 0.91279(9)
H11 H 0.2732 0.8421 0.9289
C19 C 0.08101(9) 0.52400(9) 1.16361(9)
H12 H 0.0872 0.4871 1.2020
C20 C 0.06390(9) 0.63247(9) 1.05212(9)
H13 H 0.0585 0.6698 1.0143
C21 C 0.12376(9) 0.73166(9) 0.88138(9)
H14 H 0.0706 0.7308 0.8763
C22 C 0.20928(9) 0.27672(8) 0.84574(9)
H15 H 0.2138 0.2304 0.8230
C23 C 0.02879(9) 0.08874(8) 1.15100(9)
H16 H 0.0135 0.0425 1.1660
C24 C 0.41154(9) 0.58793(9) 0.62497(9)
H17 H 0.4516 0.6188 0.6206
C25 C 0.16682(9) 0.79628(9) 0.90606(9)
H18 H 0.1435 0.8393 0.9182
C26 C 0.39624(9) 0.58794(9) 0.69287(9)
H19 H 0.4256 0.6187 0.7347
C27 C 0.23580(8) 0.67059(8) 0.87202(8)
C28 C 0.08922(8) 0.20863(8) 1.18546(8)
H20 H 0.1146 0.2448 1.2235
C29 C 0.06557(9) 0.59749(9) 1.17699(10)
H21 H 0.0610 0.6107 1.2247
C30 C 0.36911(10) 0.54339(9) 0.56369(9)
H22 H 0.3796 0.5441 0.5172
C31 C 0.15738(8) 0.66846(8) 0.86412(8)
H23 H 0.1277 0.6243 0.8472
C32 C 0.05678(9) 0.65159(9) 1.12156(10)
H24 H 0.0459 0.7016 1.1310
loop_
_geom_bond_atom_site_label_1
_geom_bond_atom_site_label_2
_geom_bond_site_symmetry_1
_geom_bond_site_symmetry_2
N1 N5 1_555 1_555
N2 N6 1_555 1_555
N3 N8 1_555 1_555
N4 N7 1_555 1_555
N5 B1 1_555 1_555
N6 B1 1_555 1_555
N7 C1 1_555 1_555
N8 B2 1_555 1_555
B1 F3 1_555 1_555
B2 N4 1_555 1_555
F1 B2 1_555 1_555
F2 B2 1_555 1_555
F4 B1 1_555 1_555
C1 N3 1_555 1_555
C2 N1 1_555 1_555
C3 N5 1_555 1_555
C4 H1 1_555 1_555
C5 H2 1_555 1_555
C6 H3 1_555 1_555
C7 H4 1_555 1_555
C8 H5 1_555 1_555
C9 N8 1_555 1_555
C10 C1 1_555 1_555
C11 C10 1_555 1_555
H6 C11 1_555 1_555
C12 H7 1_555 1_555
C13 C2 1_555 1_555
C14 N4 1_555 1_555
C15 C9 1_555 1_555
H8 C15 1_555 1_555
C16 C3 1_555 1_555
H9 C16 1_555 1_555
C17 C7 1_555 1_555
H10 C17 1_555 1_555
C18 C8 1_555 1_555
H11 C18 1_555 1_555
C19 C9 1_555 1_555
H12 C19 1_555 1_555
C20 C15 1_555 1_555
H13 C20 1_555 1_555
C21 H14 1_555 1_555
C22 C4 1_555 1_555
H15 C22 1_555 1_555
C23 C7 1_555 1_555
H16 C23 1_555 1_555
C24 H17 1_555 1_555
C25 C18 1_555 1_555
H18 C25 1_555 1_555
C26 C3 1_555 1_555
H19 C26 1_555 1_555
C27 N6 1_555 1_555
C28 C12 1_555 1_555
H20 C28 1_555 1_555
C29 C19 1_555 1_555
H21 C29 1_555 1_555
C30 C6 1_555 1_555
H22 C30 1_555 1_555
C31 C21 1_555 1_555
H23 C31 1_555 1_555
C32 C20 1_555 1_555
H24 C32 1_555 1_555
N2 C2 1_555 1_555
C4 C13 1_555 1_555
C5 C10 1_555 1_555
C5 C22 1_555 1_555
C6 C16 1_555 1_555
C8 C27 1_555 1_555
C11 C13 1_555 1_555
C12 C23 1_555 1_555
C14 C17 1_555 1_555
C14 C28 1_555 1_555
C21 C25 1_555 1_555
C24 C26 1_555 1_555
C24 C30 1_555 1_555
C27 C31 1_555 1_555
C29 C32 1_555 1_555

#END
