
#######################################################################
#
#                 Cambridge Crystallographic Data Centre
#                                CCDC 
#
#######################################################################
#
# If this CIF has been generated from an entry in the Cambridge 
# Structural Database, then it will include bibliographic, chemical, 
# crystal, experimental, refinement or atomic coordinate data resulting 
# from the CCDC's data processing and validation procedures.
#
#######################################################################

data_OJEHIW
_chemical_formula_moiety         '0.97(C44 H26 N4 O2),0.03(C44 H25 I1 N4 O2)'
_chemical_name_systematic        
'25,30-diphenyl-11,34,35,36-tetraazaoctacyclo[29.2.1.1^21,24^.1^26,29^.0^2,10^.0^3,8^.0^12,20^.0^14,19^]hexatriaconta-1,3,5,7,10,12(20),14,16,18,21,23,25,27,29(35),30,32-hexadecaene-9,13-dione 27-iodo-25,30-diphenyl-11,34,35,36-tetraazaoctacyclo[29.2.1.1^21,24^.1^26,29^.0^2,10^.0^3,8^.0^12,20^.0^14,19^]hexatriaconta-1,3,5,7,10,12(20),14,16,18,21,23,25,27,29(35),30,32-hexadecaene-9,13-dione'
_symmetry_cell_setting           triclinic
_symmetry_space_group_name_H-M   'P -1'
_symmetry_Int_Tables_number      2
_space_group_name_Hall           '-P 1'
loop_
_symmetry_equiv_pos_site_id
_symmetry_equiv_pos_as_xyz
1 x,y,z
2 -x,-y,-z
_cell_length_a                   8.8641(10)
_cell_length_b                   13.0336(15)
_cell_length_c                   14.1962(17)
_cell_angle_alpha                88.015(5)
_cell_angle_beta                 83.910(4)
_cell_angle_gamma                72.270(4)
_cell_volume                     1553.38
_exptl_crystal_colour            black
_exptl_crystal_description       rod
_cell_formula_units_Z            2
loop_
_atom_site_label
_atom_site_type_symbol
_atom_site_fract_x
_atom_site_fract_y
_atom_site_fract_z
C1 C 0.05935(15) 0.84157(10) 0.36605(9)
C2 C 0.11785(15) 0.73921(10) 0.30752(9)
C3 C 0.02515(15) 0.67225(10) 0.34090(9)
C4 C 0.03630(15) 0.57144(10) 0.30383(9)
C5 C -0.01929(16) 0.48703(11) 0.34580(9)
H1 H -0.0757 0.4887 0.4068
C6 C 0.02233(16) 0.40362(11) 0.28348(9)
H2 H 0.0019 0.3365 0.2942
C7 C 0.10184(15) 0.43389(10) 0.19945(9)
C8 C 0.14593(14) 0.37888(10) 0.11287(9)
C9 C 0.20164(14) 0.42215(10) 0.02797(9)
C10 C 0.21999(15) 0.37339(10) -0.06472(9)
H3 H 0.2034 0.3069 -0.0781
C11 C 0.26493(15) 0.44048(10) -0.12788(9)
I1 I 0.2968(3) 0.3968(2) -0.27042(19)
C12 C 0.28206(14) 0.52820(10) -0.07427(9)
C13 C 0.33610(14) 0.61184(10) -0.11522(9)
C14 C 0.36780(14) 0.69248(10) -0.06499(9)
C15 C 0.43390(15) 0.77355(10) -0.10218(9)
H4 H 0.4558 0.7879 -0.1674
C16 C 0.46067(15) 0.82735(10) -0.02803(9)
H5 H 0.5050 0.8854 -0.0328
C17 C 0.41105(14) 0.78182(10) 0.05732(9)
C18 C 0.42272(15) 0.80396(10) 0.15200(9)
C19 C 0.33786(15) 0.77516(10) 0.23197(9)
C20 C 0.40093(15) 0.80474(10) 0.31897(9)
C21 C -0.08161(16) 0.72418(10) 0.42526(9)
C22 C -0.05713(15) 0.82319(10) 0.44164(9)
C23 C -0.14157(16) 0.89177(11) 0.51421(9)
H6 H -0.1227 0.9585 0.5233
C24 C -0.25477(16) 0.86028(11) 0.57339(9)
H7 H -0.3127 0.9048 0.6249
C25 C -0.28317(17) 0.76366(11) 0.55723(10)
H8 H -0.3618 0.7434 0.5977
C26 C -0.19906(17) 0.69556(11) 0.48302(10)
H9 H -0.2218 0.6305 0.4722
C27 C 0.12649(15) 0.26874(10) 0.11249(9)
C28 C 0.20141(15) 0.19113(10) 0.17711(9)
H10 H 0.2661 0.2087 0.2193
C29 C 0.18300(15) 0.08914(10) 0.18073(10)
H11 H 0.2338 0.0378 0.2255
C30 C 0.09023(16) 0.06218(10) 0.11883(10)
H12 H 0.0782 -0.0079 0.1206
C31 C 0.01511(15) 0.13789(11) 0.05441(10)
H13 H -0.0486 0.1196 0.0120
C32 C 0.03238(15) 0.24066(10) 0.05130(9)
H14 H -0.0204 0.2921 0.0072
C33 C 0.36989(15) 0.61548(10) -0.22053(9)
C34 C 0.49169(17) 0.53394(11) -0.26754(10)
H15 H 0.5531 0.4756 -0.2324
C35 C 0.52426(19) 0.53702(12) -0.36528(10)
H16 H 0.6077 0.4811 -0.3967
C36 C 0.43483(19) 0.62186(13) -0.41695(10)
H17 H 0.4564 0.6237 -0.4839
C37 C 0.31389(18) 0.70410(12) -0.37103(10)
H18 H 0.2530 0.7623 -0.4065
C38 C 0.28155(16) 0.70145(11) -0.27297(10)
H19 H 0.1993 0.7582 -0.2416
C39 C 0.52773(15) 0.86281(10) 0.18374(9)
C40 C 0.51261(15) 0.86460(10) 0.28314(9)
C41 C 0.59541(16) 0.91395(11) 0.33394(10)
H20 H 0.5841 0.9132 0.4012
C42 C 0.69626(16) 0.96501(11) 0.28357(11)
H21 H 0.7515 1.0023 0.3165
C43 C 0.71573(16) 0.96119(11) 0.18536(11)
H22 H 0.7869 0.9947 0.1520
C44 C 0.63386(15) 0.90960(10) 0.13418(10)
H23 H 0.6503 0.9066 0.0670
N1 N 0.22862(13) 0.72225(8) 0.23341(7)
N2 N 0.11081(13) 0.53514(8) 0.21626(7)
H24 H 0.1579 0.5716 0.1763
N3 N 0.24052(12) 0.51623(8) 0.02090(7)
N4 N 0.35085(12) 0.70277(8) 0.03176(7)
H25 H 0.3075 0.6641 0.0717
O1 O 0.09010(11) 0.92523(7) 0.34730(7)
O2 O 0.37459(12) 0.77639(8) 0.39996(7)
I2? I 0.149(3) 0.251(2) -0.1282(19)
H26? H 0.2821 0.4320 -0.1947
loop_
_geom_bond_atom_site_label_1
_geom_bond_atom_site_label_2
_geom_bond_site_symmetry_1
_geom_bond_site_symmetry_2
C1 C2 1_555 1_555
C2 C3 1_555 1_555
C3 C4 1_555 1_555
C4 C5 1_555 1_555
C5 H1 1_555 1_555
C6 C5 1_555 1_555
H2 C6 1_555 1_555
C7 C6 1_555 1_555
C8 C7 1_555 1_555
C9 C8 1_555 1_555
C10 C9 1_555 1_555
H3 C10 1_555 1_555
C11 C10 1_555 1_555
I1 C11 1_555 1_555
C12 C11 1_555 1_555
C13 C12 1_555 1_555
C14 C13 1_555 1_555
C15 C14 1_555 1_555
H4 C15 1_555 1_555
C16 C15 1_555 1_555
H5 C16 1_555 1_555
C17 C16 1_555 1_555
C18 C17 1_555 1_555
C19 C18 1_555 1_555
C20 C19 1_555 1_555
C21 C3 1_555 1_555
C22 C1 1_555 1_555
C23 C22 1_555 1_555
H6 C23 1_555 1_555
C24 C23 1_555 1_555
H7 C24 1_555 1_555
C25 C24 1_555 1_555
H8 C25 1_555 1_555
C26 C21 1_555 1_555
H9 C26 1_555 1_555
C27 C8 1_555 1_555
C28 C27 1_555 1_555
H10 C28 1_555 1_555
C29 C28 1_555 1_555
H11 C29 1_555 1_555
C30 C29 1_555 1_555
H12 C30 1_555 1_555
C31 C30 1_555 1_555
H13 C31 1_555 1_555
C32 C27 1_555 1_555
H14 C32 1_555 1_555
C33 C13 1_555 1_555
C34 C33 1_555 1_555
H15 C34 1_555 1_555
C35 C34 1_555 1_555
H16 C35 1_555 1_555
C36 C35 1_555 1_555
H17 C36 1_555 1_555
C37 C36 1_555 1_555
H18 C37 1_555 1_555
C38 C33 1_555 1_555
H19 C38 1_555 1_555
C39 C18 1_555 1_555
C40 C20 1_555 1_555
C41 C40 1_555 1_555
H20 C41 1_555 1_555
C42 C41 1_555 1_555
H21 C42 1_555 1_555
C43 C42 1_555 1_555
H22 C43 1_555 1_555
C44 C39 1_555 1_555
H23 C44 1_555 1_555
N1 C2 1_555 1_555
N2 C4 1_555 1_555
H24 N2 1_555 1_555
N3 C9 1_555 1_555
N4 C14 1_555 1_555
H25 N4 1_555 1_555
O1 C1 1_555 1_555
O2 C20 1_555 1_555
C7 N2 1_555 1_555
C12 N3 1_555 1_555
C17 N4 1_555 1_555
C19 N1 1_555 1_555
C21 C22 1_555 1_555
C25 C26 1_555 1_555
C31 C32 1_555 1_555
C37 C38 1_555 1_555
C39 C40 1_555 1_555
C43 C44 1_555 1_555

#END
