
#######################################################################
#
#                 Cambridge Crystallographic Data Centre
#                                CCDC 
#
#######################################################################
#
# If this CIF has been generated from an entry in the Cambridge 
# Structural Database, then it will include bibliographic, chemical, 
# crystal, experimental, refinement or atomic coordinate data resulting 
# from the CCDC's data processing and validation procedures.
#
#######################################################################

data_OJEKOE
_chemical_formula_moiety         'C80 H130 K4 O8 P2'
_chemical_name_systematic        
bis(\m~3~-\h^6^-2,2'-(t-Butylphosphinediyl)bis(4,6-di-t-butylphenolato))-bis(\m~2~-tetrahydrofuran)-bis(tetrahydrofuran)-tetra-potassium
_symmetry_cell_setting           triclinic
_symmetry_space_group_name_H-M   'P -1'
_symmetry_Int_Tables_number      2
_space_group_name_Hall           '-P 1'
loop_
_symmetry_equiv_pos_site_id
_symmetry_equiv_pos_as_xyz
1 x,y,z
2 -x,-y,-z
_cell_length_a                   10.4726(10)
_cell_length_b                   11.4370(12)
_cell_length_c                   18.6001(18)
_cell_angle_alpha                80.021(3)
_cell_angle_beta                 83.945(3)
_cell_angle_gamma                86.286(3)
_cell_volume                     2179.42
_exptl_crystal_colour            colorless
_exptl_crystal_description       prism
_cell_formula_units_Z            1
loop_
_atom_site_label
_atom_site_type_symbol
_atom_site_fract_x
_atom_site_fract_y
_atom_site_fract_z
C1 C 0.1604(5) -0.1918(5) 0.1593(3)
C2 C 0.1834(6) -0.3277(5) 0.1638(4)
H1 H 0.1968 -0.3640 0.2144
H2 H 0.2595 -0.3444 0.1312
H3 H 0.1083 -0.3609 0.1489
C3 C 0.0414(5) -0.1622(5) 0.2081(4)
H4 H 0.0537 -0.1946 0.2593
H5 H -0.0333 -0.1971 0.1939
H6 H 0.0268 -0.0757 0.2025
C4 C 0.1392(6) -0.1405(6) 0.0798(3)
H7 H 0.2152 -0.1593 0.0476
H8 H 0.1246 -0.0541 0.0746
H9 H 0.0640 -0.1753 0.0661
C5 C 0.4678(5) -0.1284(4) 0.2835(3)
C6 C 0.5043(5) -0.1620(5) 0.3563(3)
C7 C 0.6304(6) -0.1200(5) 0.3771(3)
C8 C 0.6314(6) 0.0171(6) 0.3623(4)
H10 H 0.6190 0.0472 0.3108
H11 H 0.7139 0.0418 0.3735
H12 H 0.5616 0.0492 0.3938
C9 C 0.7455(6) -0.1707(6) 0.3307(4)
H13 H 0.7445 -0.2576 0.3391
H14 H 0.8260 -0.1466 0.3450
H15 H 0.7388 -0.1399 0.2786
C10 C 0.6499(7) -0.1603(7) 0.4587(4)
H16 H 0.5779 -0.1289 0.4890
H17 H 0.7304 -0.1304 0.4692
H18 H 0.6539 -0.2473 0.4699
C11 C 0.4267(5) -0.2342(5) 0.4075(3)
H19 H 0.4523 -0.2548 0.4558
C12 C 0.3132(6) -0.2788(5) 0.3930(3)
C13 C 0.2783(5) -0.2476(5) 0.3223(3)
H20 H 0.2024 -0.2781 0.3104
C14 C 0.3512(5) -0.1725(4) 0.2674(3)
C15 C 0.2579(4) 0.2317(4) 0.1028(3)
C16 C 0.2001(5) 0.2666(5) 0.1671(3)
H21 H 0.1770 0.3485 0.1663
C17 C 0.1742(5) 0.1888(5) 0.2323(3)
C18 C 0.2086(4) 0.0699(4) 0.2313(3)
H22 H 0.1904 0.0142 0.2749
C19 C 0.2687(4) 0.0280(4) 0.1695(3)
C20 C 0.2965(4) 0.1087(4) 0.1024(3)
C21 C 0.1131(5) 0.2295(5) 0.3031(3)
C22 C 0.2793(5) 0.3210(5) 0.0311(3)
C23 C 0.4229(5) 0.3269(6) 0.0057(3)
H23 H 0.4353 0.3842 -0.0399
H24 H 0.4574 0.2483 -0.0029
H25 H 0.4680 0.3521 0.0436
C24 C 0.2280(7) 0.4465(5) 0.0396(4)
H26 H 0.2439 0.5001 -0.0073
H27 H 0.2719 0.4741 0.0771
H28 H 0.1354 0.4458 0.0544
C25 C 0.2062(6) 0.2842(5) -0.0284(3)
H29 H 0.2200 0.3414 -0.0740
H30 H 0.1142 0.2830 -0.0121
H31 H 0.2379 0.2049 -0.0371
C26 C 0.2290(7) -0.3586(7) 0.4507(4)
C27 C 0.0586(7) 0.3558(6) 0.2908(4)
H32 H -0.0086 0.3632 0.2572
H33 H 0.1273 0.4093 0.2695
H34 H 0.0218 0.3771 0.3377
C28 C 0.0045(8) 0.1495(8) 0.3380(4)
H35 H -0.0620 0.1548 0.3041
H36 H -0.0328 0.1752 0.3837
H37 H 0.0385 0.0671 0.3488
C29 C 0.2138(8) 0.2210(8) 0.3563(4)
H38 H 0.2498 0.1392 0.3657
H39 H 0.1745 0.2435 0.4025
H40 H 0.2824 0.2747 0.3354
C30 C 0.0865(13) -0.2899(19) 0.4585(10)
H41 H 0.0952 -0.2121 0.4724
H42 H 0.0302 -0.3376 0.4963
H43 H 0.0492 -0.2789 0.4115
C31 C 0.216(3) -0.4747(16) 0.4300(11)
H44 H 0.1612 -0.5230 0.4683
H45 H 0.3010 -0.5150 0.4243
H46 H 0.1770 -0.4639 0.3836
C32 C 0.267(2) -0.366(3) 0.5308(10)
H47 H 0.2749 -0.2856 0.5409
H48 H 0.3500 -0.4107 0.5356
H49 H 0.2012 -0.4064 0.5658
C33 C 0.4846(9) 0.4897(8) 0.2252(5)
H50 H 0.4011 0.5059 0.2528
H51 H 0.4716 0.4988 0.1725
C34 C 0.5797(9) 0.5729(9) 0.2363(6)
H52 H 0.6399 0.5926 0.1917
H53 H 0.5368 0.6472 0.2492
C35 C 0.6439(13) 0.5109(12) 0.2943(8)
H54 H 0.6145 0.5422 0.3399
H55 H 0.7376 0.5206 0.2838
C36 C 0.6148(10) 0.3805(10) 0.3033(6)
H56 H 0.6947 0.3313 0.2954
H57 H 0.5731 0.3524 0.3530
C37 C 0.7293(5) 0.2744(5) 0.0944(3)
H58 H 0.6791 0.3356 0.1185
H59 H 0.7139 0.2883 0.0419
C38 C 0.8697(7) 0.2792(7) 0.1025(4)
H60 H 0.8827 0.3206 0.1435
H61 H 0.9151 0.3212 0.0568
C39 C 0.9177(6) 0.1515(6) 0.1178(4)
H62 H 0.9470 0.1210 0.0719
H63 H 0.9890 0.1411 0.1497
C40 C 0.8049(6) 0.0932(7) 0.1549(4)
H64 H 0.8067 0.0107 0.1451
H65 H 0.8035 0.0902 0.2085
O1 O 0.5344(3) -0.0596(3) 0.23131(18)
O2 O 0.3565(3) 0.0718(3) 0.04512(18)
O3 O 0.5326(5) 0.3740(4) 0.2506(3)
O4 O 0.6931(3) 0.1576(3) 0.1290(2)
P1 P 0.31771(12) -0.12935(12) 0.17251(7)
K1 K 0.57890(11) -0.03675(11) 0.08550(6)
K2 K 0.47173(11) 0.16552(11) 0.22168(7)
C1A C 0.8396(5) 0.1918(5) -0.1593(3)
C2A C 0.8166(6) 0.3277(5) -0.1638(4)
H1A H 0.8032 0.3640 -0.2144
H2A H 0.7405 0.3444 -0.1312
H3A H 0.8917 0.3609 -0.1489
C3A C 0.9586(5) 0.1622(5) -0.2081(4)
H4A H 0.9463 0.1946 -0.2593
H5A H 1.0333 0.1971 -0.1939
H6A H 0.9732 0.0757 -0.2025
C4A C 0.8608(6) 0.1405(6) -0.0798(3)
H7A H 0.7848 0.1593 -0.0476
H8A H 0.8754 0.0541 -0.0746
H9A H 0.9360 0.1753 -0.0661
C5A C 0.5322(5) 0.1284(4) -0.2835(3)
C6A C 0.4957(5) 0.1620(5) -0.3563(3)
C7A C 0.3696(6) 0.1200(5) -0.3771(3)
C8A C 0.3686(6) -0.0171(6) -0.3623(4)
H10A H 0.3810 -0.0472 -0.3108
H11A H 0.2861 -0.0418 -0.3735
H12A H 0.4384 -0.0492 -0.3938
C9A C 0.2545(6) 0.1707(6) -0.3307(4)
H13A H 0.2555 0.2576 -0.3391
H14A H 0.1740 0.1466 -0.3450
H15A H 0.2612 0.1399 -0.2786
C10A C 0.3501(7) 0.1603(7) -0.4587(4)
H16A H 0.4221 0.1289 -0.4890
H17A H 0.2696 0.1304 -0.4692
H18A H 0.3461 0.2473 -0.4699
C11A C 0.5733(5) 0.2342(5) -0.4075(3)
H19A H 0.5477 0.2548 -0.4558
C12A C 0.6868(6) 0.2788(5) -0.3930(3)
C13A C 0.7217(5) 0.2476(5) -0.3223(3)
H20A H 0.7976 0.2781 -0.3104
C14A C 0.6488(5) 0.1725(4) -0.2674(3)
C15A C 0.7421(4) -0.2317(4) -0.1028(3)
C16A C 0.7999(5) -0.2666(5) -0.1671(3)
H21A H 0.8230 -0.3485 -0.1663
C17A C 0.8258(5) -0.1888(5) -0.2323(3)
C18A C 0.7914(4) -0.0699(4) -0.2313(3)
H22A H 0.8096 -0.0142 -0.2749
C19A C 0.7313(4) -0.0280(4) -0.1695(3)
C20A C 0.7035(4) -0.1087(4) -0.1024(3)
C21A C 0.8869(5) -0.2295(5) -0.3031(3)
C22A C 0.7207(5) -0.3210(5) -0.0311(3)
C23A C 0.5771(5) -0.3269(6) -0.0057(3)
H23A H 0.5647 -0.3842 0.0399
H24A H 0.5426 -0.2483 0.0029
H25A H 0.5320 -0.3521 -0.0436
C24A C 0.7720(7) -0.4465(5) -0.0396(4)
H26A H 0.7561 -0.5001 0.0073
H27A H 0.7281 -0.4741 -0.0771
H28A H 0.8646 -0.4458 -0.0544
C25A C 0.7938(6) -0.2842(5) 0.0284(3)
H29A H 0.7800 -0.3414 0.0740
H30A H 0.8858 -0.2830 0.0121
H31A H 0.7621 -0.2049 0.0371
C26A C 0.7710(7) 0.3586(7) -0.4507(4)
C27A C 0.9414(7) -0.3558(6) -0.2908(4)
H32A H 1.0086 -0.3632 -0.2572
H33A H 0.8727 -0.4093 -0.2695
H34A H 0.9782 -0.3771 -0.3377
C28A C 0.9955(8) -0.1495(8) -0.3380(4)
H35A H 1.0620 -0.1548 -0.3041
H36A H 1.0328 -0.1752 -0.3837
H37A H 0.9615 -0.0671 -0.3488
C29A C 0.7862(8) -0.2210(8) -0.3563(4)
H38A H 0.7502 -0.1392 -0.3657
H39A H 0.8255 -0.2435 -0.4025
H40A H 0.7176 -0.2747 -0.3354
C30A C 0.9135(13) 0.2899(19) -0.4585(10)
H41A H 0.9048 0.2121 -0.4724
H42A H 0.9698 0.3376 -0.4963
H43A H 0.9508 0.2789 -0.4115
C31A C 0.784(3) 0.4747(16) -0.4300(11)
H44A H 0.8388 0.5230 -0.4683
H45A H 0.6990 0.5150 -0.4243
H46A H 0.8230 0.4639 -0.3836
C32A C 0.733(2) 0.366(3) -0.5308(10)
H47A H 0.7251 0.2856 -0.5409
H48A H 0.6500 0.4107 -0.5356
H49A H 0.7988 0.4064 -0.5658
C33A C 0.5154(9) -0.4897(8) -0.2252(5)
H50A H 0.5989 -0.5059 -0.2528
H51A H 0.5284 -0.4988 -0.1725
C34A C 0.4203(9) -0.5729(9) -0.2363(6)
H52A H 0.3601 -0.5926 -0.1917
H53A H 0.4632 -0.6472 -0.2492
C35A C 0.3561(13) -0.5109(12) -0.2943(8)
H54A H 0.3855 -0.5422 -0.3399
H55A H 0.2624 -0.5206 -0.2838
C36A C 0.3852(10) -0.3805(10) -0.3033(6)
H56A H 0.3053 -0.3313 -0.2954
H57A H 0.4269 -0.3524 -0.3530
C37A C 0.2707(5) -0.2744(5) -0.0944(3)
H58A H 0.3209 -0.3356 -0.1185
H59A H 0.2861 -0.2883 -0.0419
C38A C 0.1303(7) -0.2792(7) -0.1025(4)
H60A H 0.1173 -0.3206 -0.1435
H61A H 0.0849 -0.3212 -0.0568
C39A C 0.0823(6) -0.1515(6) -0.1178(4)
H62A H 0.0530 -0.1210 -0.0719
H63A H 0.0110 -0.1411 -0.1497
C40A C 0.1951(6) -0.0932(7) -0.1549(4)
H64A H 0.1933 -0.0107 -0.1451
H65A H 0.1965 -0.0902 -0.2085
O1A O 0.4656(3) 0.0596(3) -0.23131(18)
O2A O 0.6435(3) -0.0718(3) -0.04512(18)
O3A O 0.4674(5) -0.3740(4) -0.2506(3)
O4A O 0.3069(3) -0.1576(3) -0.1290(2)
P1A P 0.68229(12) 0.12935(12) -0.17251(7)
K1A K 0.42110(11) 0.03675(11) -0.08550(6)
K2A K 0.52827(11) -0.16552(11) -0.22168(7)
C41? C 0.121(3) -0.407(3) 0.4214(12)
C42? C 0.322(3) -0.4797(19) 0.4765(15)
C43? C 0.193(3) -0.305(2) 0.5105(13)
H66? H 0.1536 -0.4431 0.3787
H67? H 0.0578 -0.3423 0.4069
H68? H 0.0800 -0.4670 0.4594
H69? H 0.3477 -0.5196 0.4342
H70? H 0.2745 -0.5340 0.5150
H71? H 0.3992 -0.4565 0.4952
H72? H 0.1387 -0.3577 0.5466
H73? H 0.1444 -0.2302 0.4953
H74? H 0.2695 -0.2888 0.5324
loop_
_geom_bond_atom_site_label_1
_geom_bond_atom_site_label_2
_geom_bond_site_symmetry_1
_geom_bond_site_symmetry_2
C1 C2 1_555 1_555
C2 H1 1_555 1_555
H2 C2 1_555 1_555
H3 C2 1_555 1_555
C3 C1 1_555 1_555
H4 C3 1_555 1_555
H5 C3 1_555 1_555
H6 C3 1_555 1_555
C4 C1 1_555 1_555
H7 C4 1_555 1_555
H8 C4 1_555 1_555
H9 C4 1_555 1_555
C5 C6 1_555 1_555
C6 C7 1_555 1_555
C7 C8 1_555 1_555
C8 H10 1_555 1_555
H11 C8 1_555 1_555
H12 C8 1_555 1_555
C9 C7 1_555 1_555
H13 C9 1_555 1_555
H14 C9 1_555 1_555
H15 C9 1_555 1_555
C10 C7 1_555 1_555
H16 C10 1_555 1_555
H17 C10 1_555 1_555
H18 C10 1_555 1_555
C11 C6 1_555 1_555
H19 C11 1_555 1_555
C12 C11 1_555 1_555
C13 C12 1_555 1_555
H20 C13 1_555 1_555
C14 C5 1_555 1_555
C15 C16 1_555 1_555
C16 H21 1_555 1_555
C17 C16 1_555 1_555
C18 C17 1_555 1_555
H22 C18 1_555 1_555
C19 C18 1_555 1_555
C20 C15 1_555 1_555
C21 C17 1_555 1_555
C22 C15 1_555 1_555
C23 C22 1_555 1_555
H23 C23 1_555 1_555
H24 C23 1_555 1_555
H25 C23 1_555 1_555
C24 C22 1_555 1_555
H26 C24 1_555 1_555
H27 C24 1_555 1_555
H28 C24 1_555 1_555
C25 C22 1_555 1_555
H29 C25 1_555 1_555
H30 C25 1_555 1_555
H31 C25 1_555 1_555
C26 C12 1_555 1_555
C27 C21 1_555 1_555
H32 C27 1_555 1_555
H33 C27 1_555 1_555
H34 C27 1_555 1_555
C28 C21 1_555 1_555
H35 C28 1_555 1_555
H36 C28 1_555 1_555
H37 C28 1_555 1_555
C29 C21 1_555 1_555
H38 C29 1_555 1_555
H39 C29 1_555 1_555
H40 C29 1_555 1_555
C30 C26 1_555 1_555
H41 C30 1_555 1_555
H42 C30 1_555 1_555
H43 C30 1_555 1_555
C31 C26 1_555 1_555
H44 C31 1_555 1_555
H45 C31 1_555 1_555
H46 C31 1_555 1_555
C32 C26 1_555 1_555
H47 C32 1_555 1_555
H48 C32 1_555 1_555
H49 C32 1_555 1_555
C33 H50 1_555 1_555
H51 C33 1_555 1_555
C34 C33 1_555 1_555
H52 C34 1_555 1_555
H53 C34 1_555 1_555
C35 C34 1_555 1_555
H54 C35 1_555 1_555
H55 C35 1_555 1_555
C36 C35 1_555 1_555
H56 C36 1_555 1_555
H57 C36 1_555 1_555
C37 H58 1_555 1_555
H59 C37 1_555 1_555
C38 C37 1_555 1_555
H60 C38 1_555 1_555
H61 C38 1_555 1_555
C39 C38 1_555 1_555
H62 C39 1_555 1_555
H63 C39 1_555 1_555
C40 C39 1_555 1_555
H64 C40 1_555 1_555
H65 C40 1_555 1_555
O1 C5 1_555 1_555
O2 C20 1_555 1_555
O3 C33 1_555 1_555
O4 C37 1_555 1_555
P1 C1 1_555 1_555
K1 O1 1_555 1_555
K2 C15 1_555 1_555
C1A C2A 1_555 1_555
C2A H1A 1_555 1_555
H2A C2A 1_555 1_555
H3A C2A 1_555 1_555
C3A C1A 1_555 1_555
H4A C3A 1_555 1_555
H5A C3A 1_555 1_555
H6A C3A 1_555 1_555
C4A C1A 1_555 1_555
H7A C4A 1_555 1_555
H8A C4A 1_555 1_555
H9A C4A 1_555 1_555
C5A C6A 1_555 1_555
C6A C7A 1_555 1_555
C7A C8A 1_555 1_555
C8A H10A 1_555 1_555
H11A C8A 1_555 1_555
H12A C8A 1_555 1_555
C9A C7A 1_555 1_555
H13A C9A 1_555 1_555
H14A C9A 1_555 1_555
H15A C9A 1_555 1_555
C10A C7A 1_555 1_555
H16A C10A 1_555 1_555
H17A C10A 1_555 1_555
H18A C10A 1_555 1_555
C11A C6A 1_555 1_555
H19A C11A 1_555 1_555
C12A C11A 1_555 1_555
C13A C12A 1_555 1_555
H20A C13A 1_555 1_555
C14A C5A 1_555 1_555
C15A C16A 1_555 1_555
C16A H21A 1_555 1_555
C17A C16A 1_555 1_555
C18A C17A 1_555 1_555
H22A C18A 1_555 1_555
C19A C18A 1_555 1_555
C20A C15A 1_555 1_555
C21A C17A 1_555 1_555
C22A C15A 1_555 1_555
C23A C22A 1_555 1_555
H23A C23A 1_555 1_555
H24A C23A 1_555 1_555
H25A C23A 1_555 1_555
C24A C22A 1_555 1_555
H26A C24A 1_555 1_555
H27A C24A 1_555 1_555
H28A C24A 1_555 1_555
C25A C22A 1_555 1_555
H29A C25A 1_555 1_555
H30A C25A 1_555 1_555
H31A C25A 1_555 1_555
C26A C12A 1_555 1_555
C27A C21A 1_555 1_555
H32A C27A 1_555 1_555
H33A C27A 1_555 1_555
H34A C27A 1_555 1_555
C28A C21A 1_555 1_555
H35A C28A 1_555 1_555
H36A C28A 1_555 1_555
H37A C28A 1_555 1_555
C29A C21A 1_555 1_555
H38A C29A 1_555 1_555
H39A C29A 1_555 1_555
H40A C29A 1_555 1_555
C30A C26A 1_555 1_555
H41A C30A 1_555 1_555
H42A C30A 1_555 1_555
H43A C30A 1_555 1_555
C31A C26A 1_555 1_555
H44A C31A 1_555 1_555
H45A C31A 1_555 1_555
H46A C31A 1_555 1_555
C32A C26A 1_555 1_555
H47A C32A 1_555 1_555
H48A C32A 1_555 1_555
H49A C32A 1_555 1_555
C33A H50A 1_555 1_555
H51A C33A 1_555 1_555
C34A C33A 1_555 1_555
H52A C34A 1_555 1_555
H53A C34A 1_555 1_555
C35A C34A 1_555 1_555
H54A C35A 1_555 1_555
H55A C35A 1_555 1_555
C36A C35A 1_555 1_555
H56A C36A 1_555 1_555
H57A C36A 1_555 1_555
C37A H58A 1_555 1_555
H59A C37A 1_555 1_555
C38A C37A 1_555 1_555
H60A C38A 1_555 1_555
H61A C38A 1_555 1_555
C39A C38A 1_555 1_555
H62A C39A 1_555 1_555
H63A C39A 1_555 1_555
C40A C39A 1_555 1_555
H64A C40A 1_555 1_555
H65A C40A 1_555 1_555
O1A C5A 1_555 1_555
O2A K1 1_555 1_555
O3A C33A 1_555 1_555
O4A C37A 1_555 1_555
P1A C1A 1_555 1_555
K1A O2 1_555 1_555
K2A C15A 1_555 1_555
C13 C14 1_555 1_555
C14 P1 1_555 1_555
C16 K2 1_555 1_555
C17 K2 1_555 1_555
C18 K2 1_555 1_555
C19 C20 1_555 1_555
C19 P1 1_555 1_555
C19 K2 1_555 1_555
C20 K2 1_555 1_555
C36 O3 1_555 1_555
C40 O4 1_555 1_555
O1 K2 1_555 1_555
O2 K1 1_555 1_555
O3 K2 1_555 1_555
O4 K1 1_555 1_555
O4 K2 1_555 1_555
P1 K1 1_555 1_555
C13A C14A 1_555 1_555
C14A P1A 1_555 1_555
C16A K2A 1_555 1_555
C17A K2A 1_555 1_555
C18A K2A 1_555 1_555
C19A C20A 1_555 1_555
C19A P1A 1_555 1_555
C19A K2A 1_555 1_555
C20A O2A 1_555 1_555
C20A K2A 1_555 1_555
C36A O3A 1_555 1_555
C40A O4A 1_555 1_555
O1A K1A 1_555 1_555
O1A K2A 1_555 1_555
O2A K1A 1_555 1_555
O3A K2A 1_555 1_555
O4A K1A 1_555 1_555
O4A K2A 1_555 1_555
P1A K1A 1_555 1_555

#END
