
#######################################################################
#
#                 Cambridge Crystallographic Data Centre
#                                CCDC 
#
#######################################################################
#
# If this CIF has been generated from an entry in the Cambridge 
# Structural Database, then it will include bibliographic, chemical, 
# crystal, experimental, refinement or atomic coordinate data resulting 
# from the CCDC's data processing and validation procedures.
#
#######################################################################

data_OJEYIN
_chemical_formula_moiety         'C23 H12 Br2 N2 O1'
_chemical_name_systematic        
1',6'-dibromospiro[pyrido[3',2':4,5]cyclopenta[1,2-b]pyridine-5,9'-xanthene]
_symmetry_cell_setting           monoclinic
_symmetry_space_group_name_H-M   'P 21/c'
_symmetry_Int_Tables_number      14
_space_group_name_Hall           '-P 2ybc'
loop_
_symmetry_equiv_pos_site_id
_symmetry_equiv_pos_as_xyz
1 x,y,z
2 -x,1/2+y,1/2-z
3 -x,-y,-z
4 x,1/2-y,1/2+z
_cell_length_a                   16.6039(15)
_cell_length_b                   12.5136(11)
_cell_length_c                   9.0084(8)
_cell_angle_alpha                90
_cell_angle_beta                 101.1885(18)
_cell_angle_gamma                90
_cell_volume                     1836.14
_exptl_crystal_colour            colorless
_exptl_crystal_description       block
_cell_formula_units_Z            4
loop_
_atom_site_label
_atom_site_type_symbol
_atom_site_fract_x
_atom_site_fract_y
_atom_site_fract_z
Br1 Br 0.07164(2) 0.51420(4) 0.32009(5)
Br2 Br 0.57835(3) 0.31540(5) 0.06901(6)
O1 O 0.39365(19) 0.4390(3) 0.4366(4)
N1 N 0.0600(2) 0.3888(3) -0.0927(4)
N2 N 0.1284(2) 0.6148(3) -0.1024(4)
C1 C 0.0383(3) 0.2888(4) -0.0583(5)
H1 H -0.0072 0.2564 -0.1230
C2 C 0.0782(3) 0.2308(4) 0.0657(5)
H2 H 0.0589 0.1619 0.0856
C3 C 0.1472(3) 0.2743(4) 0.1614(5)
H3 H 0.1771 0.2351 0.2446
C4 C 0.1697(2) 0.3767(3) 0.1291(5)
C5 C 0.1240(2) 0.4297(4) 0.0030(5)
C6 C 0.1569(2) 0.5382(4) -0.0016(4)
C7 C 0.2232(2) 0.5508(4) 0.1194(5)
C8 C 0.2647(3) 0.6467(4) 0.1390(5)
H4 H 0.3104 0.6575 0.2193
C9 C 0.2363(3) 0.7269(4) 0.0349(6)
H5 H 0.2625 0.7947 0.0430
C10 C 0.1691(3) 0.7076(4) -0.0812(5)
H6 H 0.1510 0.7641 -0.1500
C11 C 0.2404(2) 0.4458(3) 0.2090(5)
C12 C 0.3220(2) 0.4013(4) 0.1808(5)
C13 C 0.3293(3) 0.3617(4) 0.0378(5)
H7 H 0.2811 0.3527 -0.0377
C14 C 0.4047(3) 0.3356(4) 0.0044(5)
H8 H 0.4087 0.3110 -0.0937
C15 C 0.4741(3) 0.3458(4) 0.1165(5)
C16 C 0.4703(3) 0.3799(4) 0.2610(5)
H9 H 0.5185 0.3848 0.3374
C17 C 0.3931(2) 0.4068(4) 0.2913(5)
C18 C 0.3197(3) 0.4577(4) 0.4805(5)
C19 C 0.2446(2) 0.4631(3) 0.3789(4)
C20 C 0.1761(2) 0.4908(3) 0.4432(5)
C21 C 0.1823(3) 0.5080(4) 0.5978(5)
H10 H 0.1348 0.5250 0.6373
C22 C 0.2584(3) 0.5002(4) 0.6936(5)
H11 H 0.2632 0.5125 0.7990
C23 C 0.3277(3) 0.4744(4) 0.6354(5)
H12 H 0.3798 0.4683 0.7006
loop_
_geom_bond_atom_site_label_1
_geom_bond_atom_site_label_2
_geom_bond_site_symmetry_1
_geom_bond_site_symmetry_2
Br1 C20 1_555 1_555
Br2 C15 1_555 1_555
O1 C17 1_555 1_555
N1 C1 1_555 1_555
N2 C6 1_555 1_555
C1 H1 1_555 1_555
C2 C1 1_555 1_555
H2 C2 1_555 1_555
C3 C2 1_555 1_555
H3 C3 1_555 1_555
C4 C3 1_555 1_555
C5 N1 1_555 1_555
C6 C5 1_555 1_555
C7 C6 1_555 1_555
C8 C7 1_555 1_555
H4 C8 1_555 1_555
C9 C8 1_555 1_555
H5 C9 1_555 1_555
C10 N2 1_555 1_555
H6 C10 1_555 1_555
C11 C4 1_555 1_555
C12 C11 1_555 1_555
C13 C12 1_555 1_555
H7 C13 1_555 1_555
C14 C13 1_555 1_555
H8 C14 1_555 1_555
C15 C14 1_555 1_555
C16 C15 1_555 1_555
H9 C16 1_555 1_555
C17 C12 1_555 1_555
C18 O1 1_555 1_555
C19 C11 1_555 1_555
C20 C19 1_555 1_555
C21 C20 1_555 1_555
H10 C21 1_555 1_555
C22 C21 1_555 1_555
H11 C22 1_555 1_555
C23 C18 1_555 1_555
H12 C23 1_555 1_555
C4 C5 1_555 1_555
C7 C11 1_555 1_555
C9 C10 1_555 1_555
C16 C17 1_555 1_555
C18 C19 1_555 1_555
C22 C23 1_555 1_555

#END
