
#######################################################################
#
#                 Cambridge Crystallographic Data Centre
#                                CCDC 
#
#######################################################################
#
# If this CIF has been generated from an entry in the Cambridge 
# Structural Database, then it will include bibliographic, chemical, 
# crystal, experimental, refinement or atomic coordinate data resulting 
# from the CCDC's data processing and validation procedures.
#
#######################################################################

data_OJICOB
_chemical_formula_moiety         'C19 H12 B1 F2 N5 S1,C2 H6 O1 S1'
_chemical_name_systematic        
"3-anilino-5-cyano-12,12-difluoro-12H-pyrimido[1',6':3,4][1,3,2]diazaborinino[6,1-b][1,3]benzothiazol-11-ium-12-ide dimethyl sulfoxide solvate"
_symmetry_cell_setting           triclinic
_symmetry_space_group_name_H-M   'P -1'
_symmetry_Int_Tables_number      2
_space_group_name_Hall           '-P 1'
loop_
_symmetry_equiv_pos_site_id
_symmetry_equiv_pos_as_xyz
1 x,y,z
2 -x,-y,-z
_cell_length_a                   9.9073(10)
_cell_length_b                   11.0350(15)
_cell_length_c                   11.0926(11)
_cell_angle_alpha                103.584(10)
_cell_angle_beta                 95.854(9)
_cell_angle_gamma                113.279(11)
_cell_volume                     1056.74
_exptl_crystal_colour            yellow
_exptl_crystal_description       block
_cell_formula_units_Z            2
loop_
_atom_site_label
_atom_site_type_symbol
_atom_site_fract_x
_atom_site_fract_y
_atom_site_fract_z
B1 B 0.8836(5) 0.2795(5) 0.3293(5)
F1 F 0.8416(3) 0.1520(2) 0.2420(2)
F2 F 0.7653(2) 0.2766(3) 0.3867(2)
N1 N 1.0255(3) 0.3177(3) 0.4277(3)
N2 N 0.9191(3) 0.3931(3) 0.2594(3)
N3 N 0.8059(4) 0.4703(3) 0.1140(3)
N4 N 1.4469(4) 0.6976(4) 0.3857(4)
N5 N 0.9559(3) 0.6665(3) 0.0589(3)
H1 H 1.0466 0.7271 0.0678
S1 S 1.30578(11) 0.42561(11) 0.53997(11)
C1 C 1.1772(4) 0.2906(4) 0.5846(4)
C2 C 1.2072(5) 0.2319(4) 0.6763(4)
H2 H 1.3045 0.2626 0.7223
C3 C 1.0866(5) 0.1265(4) 0.6962(4)
H3 H 1.1030 0.0856 0.7570
C4 C 0.9126(5) 0.1392(4) 0.5366(4)
H4 H 0.8150 0.1082 0.4911
C5 C 1.0325(4) 0.2454(4) 0.5155(4)
C6 C 1.1612(4) 0.4180(4) 0.4319(4)
C7 C 1.1828(4) 0.5056(4) 0.3563(4)
C8 C 1.3292(4) 0.6120(4) 0.3714(4)
C9 C 1.0597(4) 0.4979(4) 0.2716(3)
C10 C 1.0715(4) 0.5888(4) 0.2029(3)
H5 H 1.1650 0.6595 0.2084
C11 C 0.9436(4) 0.5755(4) 0.1248(4)
C12 C 0.8026(5) 0.3874(4) 0.1804(4)
H6 H 0.7091 0.3157 0.1726
C13 C 0.8467(4) 0.6798(4) -0.0218(4)
C14 C 0.6942(5) 0.5903(4) -0.0564(4)
H7 H 0.6564 0.5155 -0.0246
C15 C 0.8029(6) 0.8132(5) -0.1506(5)
H8 H 0.8399 0.8888 -0.1815
C16 C 0.9424(5) 0.0806(5) 0.6277(4)
H9 H 0.8635 0.0089 0.6429
C17 C 0.8996(5) 0.7918(4) -0.0681(4)
H10 H 1.0012 0.8534 -0.0437
C18 C 0.5993(5) 0.6137(5) -0.1389(4)
H11 H 0.4972 0.5538 -0.1620
C19 C 0.6520(5) 0.7232(5) -0.1874(4)
H12 H 0.5870 0.7363 -0.2441
O1 O 0.7396(4) 0.1322(4) 0.8982(3)
S2 S 0.57627(13) 0.03859(12) 0.84918(12)
C20 C 0.5448(6) -0.0014(5) 0.6811(5)
H13 H 0.5884 0.0825 0.6584
H14 H 0.4385 -0.0475 0.6454
H15 H 0.5905 -0.0608 0.6486
C21 C 0.4790(5) 0.1440(5) 0.8774(5)
H16 H 0.4912 0.1814 0.9673
H17 H 0.3739 0.0893 0.8390
H18 H 0.5192 0.2182 0.8411
loop_
_geom_bond_atom_site_label_1
_geom_bond_atom_site_label_2
_geom_bond_site_symmetry_1
_geom_bond_site_symmetry_2
B1 F1 1_555 1_555
F2 B1 1_555 1_555
N1 B1 1_555 1_555
N2 B1 1_555 1_555
N3 C11 1_555 1_555
N4 C8 1_555 1_555
N5 H1 1_555 1_555
S1 C1 1_555 1_555
C1 C2 1_555 1_555
C2 H2 1_555 1_555
C3 C2 1_555 1_555
H3 C3 1_555 1_555
C4 H4 1_555 1_555
C5 N1 1_555 1_555
C6 N1 1_555 1_555
C7 C6 1_555 1_555
C8 C7 1_555 1_555
C9 N2 1_555 1_555
C10 C9 1_555 1_555
H5 C10 1_555 1_555
C11 N5 1_555 1_555
C12 N2 1_555 1_555
H6 C12 1_555 1_555
C13 N5 1_555 1_555
C14 C13 1_555 1_555
H7 C14 1_555 1_555
C15 H8 1_555 1_555
C16 C3 1_555 1_555
H9 C16 1_555 1_555
C17 C13 1_555 1_555
H10 C17 1_555 1_555
C18 C14 1_555 1_555
H11 C18 1_555 1_555
C19 C15 1_555 1_555
H12 C19 1_555 1_555
O1 S2 1_555 1_555
S2 C20 1_555 1_555
C20 H13 1_555 1_555
H14 C20 1_555 1_555
H15 C20 1_555 1_555
C21 S2 1_555 1_555
H16 C21 1_555 1_555
H17 C21 1_555 1_555
H18 C21 1_555 1_555
N3 C12 1_555 1_555
S1 C6 1_555 1_555
C1 C5 1_555 1_555
C4 C5 1_555 1_555
C4 C16 1_555 1_555
C7 C9 1_555 1_555
C10 C11 1_555 1_555
C15 C17 1_555 1_555
C18 C19 1_555 1_555

#END
