
#######################################################################
#
#                 Cambridge Crystallographic Data Centre
#                                CCDC 
#
#######################################################################
#
# If this CIF has been generated from an entry in the Cambridge 
# Structural Database, then it will include bibliographic, chemical, 
# crystal, experimental, refinement or atomic coordinate data resulting 
# from the CCDC's data processing and validation procedures.
#
#######################################################################

data_OJIYIR
_chemical_formula_moiety         'C44 H34 N2 O2 P2,C1 H2 Cl2'
_chemical_name_systematic        
"N,N'-bis(4-(Diphenylphosphino)benzoyl)-1,4-phenylenediamine dichloromethane solvate"
_symmetry_cell_setting           triclinic
_symmetry_space_group_name_H-M   'P -1'
_symmetry_Int_Tables_number      2
_space_group_name_Hall           '-P 1'
loop_
_symmetry_equiv_pos_site_id
_symmetry_equiv_pos_as_xyz
1 x,y,z
2 -x,-y,-z
_cell_length_a                   5.1661(2)
_cell_length_b                   13.5030(6)
_cell_length_c                   14.6979(8)
_cell_angle_alpha                71.055(3)
_cell_angle_beta                 88.306(2)
_cell_angle_gamma                85.401(3)
_cell_volume                     966.625
_exptl_crystal_colour            colorless
_exptl_crystal_description       plate
_cell_formula_units_Z            1
loop_
_atom_site_label
_atom_site_type_symbol
_atom_site_fract_x
_atom_site_fract_y
_atom_site_fract_z
P1 P 0.0768(2) 0.22271(8) 0.11145(8)
C1 C -0.0481(5) 0.29796(19) 0.19019(17)
C2 C -0.2503(5) 0.26771(19) 0.2554(2)
H1 H -0.3361 0.2068 0.2594
C3 C -0.3271(5) 0.3266(2) 0.31481(18)
H2 H -0.4652 0.3060 0.3594
C4 C -0.2016(6) 0.4158(2) 0.30895(18)
H3 H -0.2541 0.4561 0.3495
C5 C 0.0006(5) 0.44608(19) 0.2437(2)
H4 H 0.0863 0.5070 0.2397
C6 C 0.0773(4) 0.3871(2) 0.18433(18)
H5 H 0.2155 0.4078 0.1397
C7 C -0.1442(4) 0.26983(19) 0.00773(15)
C8 C -0.1100(5) 0.22027(18) -0.06164(18)
H6 H 0.0219 0.1650 -0.0539
C9 C -0.2686(5) 0.2516(2) -0.14228(16)
H7 H -0.2452 0.2178 -0.1897
C10 C -0.4616(5) 0.3325(2) -0.15356(15)
H8 H -0.5700 0.3539 -0.2087
C11 C -0.4959(4) 0.38208(18) -0.08418(18)
H9 H -0.6277 0.4374 -0.0919
C12 C -0.3372(5) 0.35074(18) -0.00354(15)
H10 H -0.3606 0.3846 0.0439
C13 C -0.0301(7) 0.0927(3) 0.1773(3)
C14 C 0.1160(8) 0.0355(3) 0.2584(3)
H11 H 0.2549 0.0667 0.2770
C15 C 0.0621(8) -0.0664(3) 0.3127(3)
H12 H 0.1639 -0.1035 0.3678
C16 C -0.1377(7) -0.1138(3) 0.2871(3)
C17 C -0.2854(7) -0.0571(3) 0.2059(3)
H13 H -0.4249 -0.0883 0.1877
C18 C -0.2302(8) 0.0443(3) 0.1516(3)
H14 H -0.3308 0.0810 0.0961
C19 C -0.2029(8) -0.2226(3) 0.3438(3)
O1 O -0.4261(5) -0.2497(2) 0.35027(18)
N1 N 0.0044(5) -0.2882(2) 0.3860(2)
H15 H 0.1575 -0.2622 0.3770
C20 C -0.0055(7) -0.3949(3) 0.4431(2)
C21 C -0.2073(7) -0.4307(3) 0.5066(2)
H16 H -0.3495 -0.3834 0.5114
C22 C 0.2020(7) -0.4655(3) 0.4372(2)
H17 H 0.3410 -0.4415 0.3939
P1A P -0.0768(2) -1.22271(8) 0.88855(8)
C1A C 0.0481(5) -1.29796(19) 0.80981(17)
C2A C 0.2503(5) -1.26771(19) 0.7446(2)
H1A H 0.3361 -1.2068 0.7406
C3A C 0.3271(5) -1.3266(2) 0.68519(18)
H2A H 0.4652 -1.3060 0.6406
C4A C 0.2016(6) -1.4158(2) 0.69105(18)
H3A H 0.2541 -1.4561 0.6505
C5A C -0.0006(5) -1.44608(19) 0.7563(2)
H4A H -0.0863 -1.5070 0.7603
C6A C -0.0773(4) -1.3871(2) 0.81567(18)
H5A H -0.2155 -1.4078 0.8603
C7A C 0.1442(4) -1.26983(19) 0.99227(15)
C8A C 0.1100(5) -1.22027(18) 1.06164(18)
H6A H -0.0219 -1.1650 1.0539
C9A C 0.2686(5) -1.2516(2) 1.14228(16)
H7A H 0.2452 -1.2178 1.1897
C10A C 0.4616(5) -1.3325(2) 1.15356(15)
H8A H 0.5700 -1.3539 1.2087
C11A C 0.4959(4) -1.38208(18) 1.08418(18)
H9A H 0.6277 -1.4374 1.0919
C12A C 0.3372(5) -1.35074(18) 1.00354(15)
H10A H 0.3606 -1.3846 0.9561
C13A C 0.0301(7) -1.0927(3) 0.8227(3)
C14A C -0.1160(8) -1.0355(3) 0.7416(3)
H11A H -0.2549 -1.0667 0.7230
C15A C -0.0621(8) -0.9336(3) 0.6873(3)
H12A H -0.1639 -0.8965 0.6322
C16A C 0.1377(7) -0.8862(3) 0.7129(3)
C17A C 0.2854(7) -0.9429(3) 0.7941(3)
H13A H 0.4249 -0.9117 0.8123
C18A C 0.2302(8) -1.0443(3) 0.8484(3)
H14A H 0.3308 -1.0810 0.9039
C19A C 0.2029(8) -0.7774(3) 0.6562(3)
O1A O 0.4261(5) -0.7503(2) 0.64973(18)
N1A N -0.0044(5) -0.7118(2) 0.6140(2)
H15A H -0.1575 -0.7378 0.6230
C20A C 0.0055(7) -0.6051(3) 0.5569(2)
C21A C 0.2073(7) -0.5693(3) 0.4934(2)
H16A H 0.3495 -0.6166 0.4886
C22A C -0.2020(7) -0.5345(3) 0.5628(2)
H17A H -0.3410 -0.5585 0.6061
C23? C -0.664(5) -0.0137(18) 0.536(2)
H18? H -0.6562 -0.0163 0.6038
H19? H -0.8100 -0.0543 0.5294
Cl1? Cl -0.390(2) -0.0656(10) 0.5053(8)
Cl2? Cl -0.718(2) 0.1195(8) 0.4596(7)
C24? C -0.490(4) -0.0933(17) 0.528(2)
H20? H -0.5294 -0.0946 0.4628
H21? H -0.5943 -0.1464 0.5731
Cl3? Cl -0.1815(10) -0.1421(4) 0.5483(3)
Cl4? Cl -0.6126(13) 0.0159(7) 0.5316(6)
loop_
_geom_bond_atom_site_label_1
_geom_bond_atom_site_label_2
_geom_bond_site_symmetry_1
_geom_bond_site_symmetry_2
P1 C1 1_555 1_555
C1 C2 1_555 1_555
C2 H1 1_555 1_555
C3 C2 1_555 1_555
H2 C3 1_555 1_555
C4 C3 1_555 1_555
H3 C4 1_555 1_555
C5 C4 1_555 1_555
H4 C5 1_555 1_555
C6 C1 1_555 1_555
H5 C6 1_555 1_555
C7 P1 1_555 1_555
C8 C7 1_555 1_555
H6 C8 1_555 1_555
C9 C8 1_555 1_555
H7 C9 1_555 1_555
C10 C9 1_555 1_555
H8 C10 1_555 1_555
C11 C10 1_555 1_555
H9 C11 1_555 1_555
C12 C7 1_555 1_555
H10 C12 1_555 1_555
C13 P1 1_555 1_555
C14 C13 1_555 1_555
H11 C14 1_555 1_555
C15 C14 1_555 1_555
H12 C15 1_555 1_555
C16 C15 1_555 1_555
C17 C16 1_555 1_555
H13 C17 1_555 1_555
C18 C13 1_555 1_555
H14 C18 1_555 1_555
C19 C16 1_555 1_555
O1 C19 1_555 1_555
N1 C19 1_555 1_555
H15 N1 1_555 1_555
C20 N1 1_555 1_555
C21 C20 1_555 1_555
H16 C21 1_555 1_555
C22 C20 1_555 1_555
H17 C22 1_555 1_555
P1A C1A 1_555 1_555
C1A C2A 1_555 1_555
C2A H1A 1_555 1_555
C3A C2A 1_555 1_555
H2A C3A 1_555 1_555
C4A C3A 1_555 1_555
H3A C4A 1_555 1_555
C5A C4A 1_555 1_555
H4A C5A 1_555 1_555
C6A C1A 1_555 1_555
H5A C6A 1_555 1_555
C7A P1A 1_555 1_555
C8A C7A 1_555 1_555
H6A C8A 1_555 1_555
C9A C8A 1_555 1_555
H7A C9A 1_555 1_555
C10A C9A 1_555 1_555
H8A C10A 1_555 1_555
C11A C10A 1_555 1_555
H9A C11A 1_555 1_555
C12A C7A 1_555 1_555
H10A C12A 1_555 1_555
C13A P1A 1_555 1_555
C14A C13A 1_555 1_555
H11A C14A 1_555 1_555
C15A C14A 1_555 1_555
H12A C15A 1_555 1_555
C16A C15A 1_555 1_555
C17A C16A 1_555 1_555
H13A C17A 1_555 1_555
C18A C13A 1_555 1_555
H14A C18A 1_555 1_555
C19A C16A 1_555 1_555
O1A C19A 1_555 1_555
N1A C19A 1_555 1_555
H15A N1A 1_555 1_555
C20A N1A 1_555 1_555
C21A C22 1_555 1_555
H16A C21A 1_555 1_555
C22A C21 1_555 1_555
H17A C22A 1_555 1_555
C5 C6 1_555 1_555
C11 C12 1_555 1_555
C17 C18 1_555 1_555
C5A C6A 1_555 1_555
C11A C12A 1_555 1_555
C17A C18A 1_555 1_555
C20A C21A 1_555 1_555
C20A C22A 1_555 1_555

#END
