
#######################################################################
#
#                 Cambridge Crystallographic Data Centre
#                                CCDC 
#
#######################################################################
#
# If this CIF has been generated from an entry in the Cambridge 
# Structural Database, then it will include bibliographic, chemical, 
# crystal, experimental, refinement or atomic coordinate data resulting 
# from the CCDC's data processing and validation procedures.
#
#######################################################################

data_OJIYAJ
_chemical_name_common            
"N-(4-(chloromethyl)benzoyl)-N'-(1,3-benzothiazole-2-yl)thiourea methanol solvate"
_chemical_formula_moiety         'C16 H12 Cl1 N3 O1 S2,C1 H4 O1'
_chemical_name_systematic        
'N-(1,3-benzothiazol-2-ylcarbamothioyl)-4-(chloromethyl)benzamide methanol solvate'
_symmetry_cell_setting           triclinic
_symmetry_space_group_name_H-M   'P -1'
_symmetry_Int_Tables_number      2
_space_group_name_Hall           '-P 1'
loop_
_symmetry_equiv_pos_site_id
_symmetry_equiv_pos_as_xyz
1 x,y,z
2 -x,-y,-z
_cell_length_a                   4.5463(18)
_cell_length_b                   14.898(6)
_cell_length_c                   15.118(6)
_cell_angle_alpha                115.519(5)
_cell_angle_beta                 98.267(6)
_cell_angle_gamma                94.031(7)
_cell_volume                     904.376
_exptl_crystal_colour            'pale yellow'
_exptl_crystal_description       acicular
_cell_formula_units_Z            2
loop_
_atom_site_label
_atom_site_type_symbol
_atom_site_fract_x
_atom_site_fract_y
_atom_site_fract_z
Cl1 Cl -0.6622(4) 0.03088(11) -0.31451(10)
S1 S 0.7529(3) 0.33676(9) 0.29149(9)
S2 S 1.1845(3) 0.53410(8) 0.40721(7)
N1 N 0.3689(8) 0.3510(2) 0.1519(2)
H1 H 0.2902 0.2925 0.1423
N2 N 0.7285(8) 0.4904(2) 0.2458(2)
H2 H 0.6382 0.5114 0.2058
N3 N 1.0294(8) 0.6432(3) 0.3172(2)
O1 O 0.3252(8) 0.4695(2) 0.0977(2)
C1 C -0.7670(11) 0.1454(4) -0.2265(4)
H3 H -0.8351 0.1846 -0.2606
H4 H -0.9318 0.1292 -0.1991
C2 C -0.5063(9) 0.2063(3) -0.1434(3)
C3 C -0.4115(11) 0.1787(4) -0.0702(3)
H5 H -0.5116 0.1214 -0.0714
C4 C -0.1686(10) 0.2345(3) 0.0060(3)
H6 H -0.1056 0.2142 0.0550
C5 C -0.0209(9) 0.3197(3) 0.0094(3)
C6 C -0.1190(11) 0.3484(3) -0.0646(3)
H7 H -0.0235 0.4066 -0.0628
C7 C -0.3566(11) 0.2909(3) -0.1402(3)
H8 H -0.4173 0.3099 -0.1903
C8 C 0.2344(10) 0.3867(3) 0.0893(3)
C9 C 0.6174(10) 0.3974(3) 0.2295(3)
C10 C 0.9658(9) 0.5574(3) 0.3169(3)
C11 C 1.2718(10) 0.6997(3) 0.3938(3)
C12 C 1.4037(11) 0.7964(3) 0.4160(3)
H9 H 1.3286 0.8290 0.3791
C13 C 1.6492(11) 0.8428(4) 0.4941(3)
H10 H 1.7376 0.9074 0.5102
C14 C 1.7634(11) 0.7942(4) 0.5481(3)
H11 H 1.9286 0.8268 0.5999
C15 C 1.6395(11) 0.6993(4) 0.5273(3)
H12 H 1.7204 0.6668 0.5635
C16 C 1.3876(10) 0.6522(3) 0.4501(3)
O2 O 0.2726(18) 0.1327(5) 0.1273(6)
H13 H 0.2884 0.1033 0.0686
C17 C 0.070(3) 0.0756(7) 0.1470(9)
H14 H 0.1698 0.0304 0.1663
H15 H -0.0823 0.0376 0.0882
H16 H -0.0222 0.1185 0.2003
loop_
_geom_bond_atom_site_label_1
_geom_bond_atom_site_label_2
_geom_bond_site_symmetry_1
_geom_bond_site_symmetry_2
Cl1 C1 1_555 1_555
S1 C9 1_555 1_555
S2 C10 1_555 1_555
N1 H1 1_555 1_555
N2 H2 1_555 1_555
N3 C10 1_555 1_555
O1 C8 1_555 1_555
C1 H3 1_555 1_555
H4 C1 1_555 1_555
C2 C1 1_555 1_555
C3 C2 1_555 1_555
H5 C3 1_555 1_555
C4 C3 1_555 1_555
H6 C4 1_555 1_555
C5 C4 1_555 1_555
C6 C5 1_555 1_555
H7 C6 1_555 1_555
C7 C2 1_555 1_555
H8 C7 1_555 1_555
C8 N1 1_555 1_555
C9 N1 1_555 1_555
C10 N2 1_555 1_555
C11 N3 1_555 1_555
C12 C11 1_555 1_555
H9 C12 1_555 1_555
C13 C12 1_555 1_555
H10 C13 1_555 1_555
C14 C13 1_555 1_555
H11 C14 1_555 1_555
C15 C14 1_555 1_555
H12 C15 1_555 1_555
C16 S2 1_555 1_555
O2 H13 1_555 1_555
C17 O2 1_555 1_555
H14 C17 1_555 1_555
H15 C17 1_555 1_555
H16 C17 1_555 1_555
N2 C9 1_555 1_555
C5 C8 1_555 1_555
C6 C7 1_555 1_555
C11 C16 1_555 1_555
C15 C16 1_555 1_555

#END
