
#######################################################################
#
#                 Cambridge Crystallographic Data Centre
#                                CCDC 
#
#######################################################################
#
# If this CIF has been generated from an entry in the Cambridge 
# Structural Database, then it will include bibliographic, chemical, 
# crystal, experimental, refinement or atomic coordinate data resulting 
# from the CCDC's data processing and validation procedures.
#
#######################################################################

data_OJOPIN
_chemical_formula_moiety         'C12 H16 N2 O2'
_chemical_name_systematic        N^2^-(1-Phenylprop-2-en-1-yl)serinamide
_symmetry_cell_setting           orthorhombic
_symmetry_space_group_name_H-M   'P 21 21 21'
_symmetry_Int_Tables_number      19
_space_group_name_Hall           'P 2ac 2ab'
loop_
_symmetry_equiv_pos_site_id
_symmetry_equiv_pos_as_xyz
1 x,y,z
2 1/2-x,-y,1/2+z
3 1/2+x,1/2-y,-z
4 -x,1/2+y,1/2-z
_cell_length_a                   5.8703(5)
_cell_length_b                   8.0065(8)
_cell_length_c                   25.414(2)
_cell_angle_alpha                90
_cell_angle_beta                 90
_cell_angle_gamma                90
_cell_volume                     1194.47
_exptl_crystal_colour            colorless
_cell_formula_units_Z            4
loop_
_atom_site_label
_atom_site_type_symbol
_atom_site_fract_x
_atom_site_fract_y
_atom_site_fract_z
C1 C 0.6628(5) 1.0157(3) 0.85912(9)
H1 H 0.8117 1.0691 0.8500
N1 N 0.6545(3) 0.8532(2) 0.83061(7)
H2 H 0.507(6) 0.797(4) 0.8370(12)
C2 C 0.8268(4) 0.7287(3) 0.84611(8)
H3 H 0.8808 0.7571 0.8823
O1 O 1.2025(3) 0.6394(3) 0.81880(7)
N2 N 1.0257(4) 0.8377(3) 0.76815(8)
H4 H 1.1413 0.8461 0.7463
H5 H 0.9031 0.8991 0.7633
C3 C 1.0362(4) 0.7318(3) 0.80865(9)
O2 O 0.6333(3) 0.5040(2) 0.79729(6)
H6 H 0.4988 0.5390 0.7950
C4 C 0.7271(4) 0.5510(3) 0.84745(9)
H7 H 0.8483 0.4709 0.8573
H8 H 0.6063 0.5453 0.8746
C5 C 0.4766(5) 1.1254(3) 0.83557(9)
H9 H 0.4749 1.1354 0.7983
C6 C 0.3157(5) 1.2089(3) 0.86172(10)
H10 H 0.3096 1.2033 0.8990
H11 H 0.2073 1.2740 0.8430
C7 C 0.6538(4) 1.0027(3) 0.91956(8)
C8 C 0.4857(4) 0.9103(3) 0.94588(9)
H12 H 0.3729 0.8527 0.9262
C9 C 0.4825(5) 0.9021(3) 1.00127(9)
H13 H 0.3670 0.8399 1.0186
C10 C 0.6489(5) 0.9852(3) 1.03085(9)
H14 H 0.6472 0.9792 1.0682
C11 C 0.8165(5) 1.0766(4) 1.00500(10)
H15 H 0.9303 1.1331 1.0248
C12 C 0.8182(5) 1.0856(3) 0.94961(10)
H16 H 0.9329 1.1491 0.9324
loop_
_geom_bond_atom_site_label_1
_geom_bond_atom_site_label_2
_geom_bond_site_symmetry_1
_geom_bond_site_symmetry_2
C1 H1 1_555 1_555
N1 C1 1_555 1_555
H2 N1 1_555 1_555
C2 N1 1_555 1_555
H3 C2 1_555 1_555
O1 C3 1_555 1_555
N2 H4 1_555 1_555
H5 N2 1_555 1_555
C3 C2 1_555 1_555
O2 H6 1_555 1_555
C4 C2 1_555 1_555
H7 C4 1_555 1_555
H8 C4 1_555 1_555
C5 C1 1_555 1_555
H9 C5 1_555 1_555
C6 C5 1_555 1_555
H10 C6 1_555 1_555
H11 C6 1_555 1_555
C7 C1 1_555 1_555
C8 C7 1_555 1_555
H12 C8 1_555 1_555
C9 C8 1_555 1_555
H13 C9 1_555 1_555
C10 C9 1_555 1_555
H14 C10 1_555 1_555
C11 C10 1_555 1_555
H15 C11 1_555 1_555
C12 C7 1_555 1_555
H16 C12 1_555 1_555
N2 C3 1_555 1_555
O2 C4 1_555 1_555
C11 C12 1_555 1_555

#END
