
#######################################################################
#
#                 Cambridge Crystallographic Data Centre
#                                CCDC 
#
#######################################################################
#
# If this CIF has been generated from an entry in the Cambridge 
# Structural Database, then it will include bibliographic, chemical, 
# crystal, experimental, refinement or atomic coordinate data resulting 
# from the CCDC's data processing and validation procedures.
#
#######################################################################

data_OJOSIP
_chemical_formula_moiety         'C17 H16 O4'
_chemical_name_systematic        
2,2-Dimethyl-7-(3-methoxyphenyl)-2H,5H-pyrano(4,3-b)pyran-5-one
_symmetry_cell_setting           monoclinic
_symmetry_space_group_name_H-M   'P 21/n'
_symmetry_Int_Tables_number      14
_space_group_name_Hall           '-P 2yn'
loop_
_symmetry_equiv_pos_site_id
_symmetry_equiv_pos_as_xyz
1 x,y,z
2 1/2+x,1/2-y,1/2+z
3 -x,-y,-z
4 1/2-x,1/2+y,1/2-z
_cell_length_a                   10.86300(1)
_cell_length_b                   9.5456(2)
_cell_length_c                   14.1264(2)
_cell_angle_alpha                90
_cell_angle_beta                 106.430(1)
_cell_angle_gamma                90
_cell_volume                     1405.01
_exptl_crystal_colour            yellow
_exptl_crystal_description       block
_cell_formula_units_Z            4
loop_
_atom_site_label
_atom_site_type_symbol
_atom_site_fract_x
_atom_site_fract_y
_atom_site_fract_z
O1 O 0.21431(8) -0.09124(9) 0.42689(6)
O2 O 0.46702(8) 0.05210(9) 0.67941(6)
O3 O 0.33482(9) -0.27567(10) 0.41843(7)
O4 O -0.16662(9) 0.11021(10) 0.17035(7)
C1 C 0.32576(11) -0.17124(13) 0.46516(9)
C2 C 0.41450(12) -0.12176(13) 0.55379(9)
C3 C 0.54041(12) -0.18540(14) 0.59373(10)
C4 C 0.61517(13) -0.14131(14) 0.68016(10)
C5 C 0.56760(12) -0.03935(13) 0.74263(9)
C6 C 0.38621(11) -0.00266(13) 0.59777(9)
C7 C 0.27247(12) 0.07487(14) 0.55569(9)
C8 C 0.18952(12) 0.02855(13) 0.47152(9)
C9 C 0.50738(14) -0.1165(2) 0.81237(11)
C10 C 0.67155(14) 0.0613(2) 0.79675(11)
C11 C 0.06929(12) 0.09793(13) 0.41729(9)
C12 C 0.01007(12) 0.06451(14) 0.31793(9)
C13 C -0.10123(12) 0.13416(14) 0.26739(9)
C14 C -0.15367(12) 0.23636(15) 0.31466(10)
C15 C -0.09595(13) 0.2675(2) 0.41230(10)
C16 C 0.01508(12) 0.19895(14) 0.46413(10)
C17 C -0.1070(2) 0.0225(2) 0.11426(11)
H1 H 0.5666(13) -0.2546(15) 0.5533(10)
H2 H 0.6996(15) -0.1744(16) 0.7083(11)
H3 H 0.2591(12) 0.1601(15) 0.5866(10)
H4 H 0.5735(16) -0.1784(18) 0.8559(12)
H5 H 0.4749(16) -0.0502(18) 0.8512(12)
H6 H 0.4359(15) -0.1744(17) 0.7755(11)
H7 H 0.7059(14) 0.1123(17) 0.7491(12)
H8 H 0.6362(15) 0.1294(17) 0.8336(12)
H9 H 0.7398(15) 0.0068(17) 0.8440(11)
H10 H 0.0473(13) -0.0055(16) 0.2850(10)
H11 H -0.2290(14) 0.2848(15) 0.2788(10)
H12 H -0.1338(14) 0.3387(16) 0.4478(11)
H13 H 0.0529(14) 0.2227(15) 0.5327(11)
H14 H -0.0982(15) -0.0759(18) 0.1406(12)
H15 H -0.0216(16) 0.0605(16) 0.1174(11)
H16 H -0.1643(15) 0.0221(17) 0.0468(12)
loop_
_geom_bond_atom_site_label_1
_geom_bond_atom_site_label_2
_geom_bond_site_symmetry_1
_geom_bond_site_symmetry_2
O1 C1 1_555 1_555
O2 C5 1_555 1_555
O3 C1 1_555 1_555
O4 C13 1_555 1_555
C1 C2 1_555 1_555
C2 C3 1_555 1_555
C3 C4 1_555 1_555
C4 C5 1_555 1_555
C5 C9 1_555 1_555
C6 O2 1_555 1_555
C7 C6 1_555 1_555
C8 O1 1_555 1_555
C9 H4 1_555 1_555
C10 C5 1_555 1_555
C11 C8 1_555 1_555
C12 C11 1_555 1_555
C13 C12 1_555 1_555
C14 C13 1_555 1_555
C15 C14 1_555 1_555
C16 C11 1_555 1_555
C17 O4 1_555 1_555
H1 C3 1_555 1_555
H2 C4 1_555 1_555
H3 C7 1_555 1_555
H5 C9 1_555 1_555
H6 C9 1_555 1_555
H7 C10 1_555 1_555
H8 C10 1_555 1_555
H9 C10 1_555 1_555
H10 C12 1_555 1_555
H11 C14 1_555 1_555
H12 C15 1_555 1_555
H13 C16 1_555 1_555
H14 C17 1_555 1_555
H15 C17 1_555 1_555
H16 C17 1_555 1_555
C2 C6 1_555 1_555
C7 C8 1_555 1_555
C15 C16 1_555 1_555

#END
