
#######################################################################
#
#                 Cambridge Crystallographic Data Centre
#                                CCDC 
#
#######################################################################
#
# If this CIF has been generated from an entry in the Cambridge 
# Structural Database, then it will include bibliographic, chemical, 
# crystal, experimental, refinement or atomic coordinate data resulting 
# from the CCDC's data processing and validation procedures.
#
#######################################################################

data_OJOVIT
_chemical_name_common            'dimer of 2'
_chemical_formula_moiety         'C24 H6 Br4 F10 S2'
_chemical_name_systematic        
3,3'-(2,4-bis(pentafluorophenyl)cyclobutane-1,3-diyl)bis(2,5-dibromothiophene)
_symmetry_cell_setting           monoclinic
_symmetry_space_group_name_H-M   'P 21/c'
_symmetry_Int_Tables_number      14
_space_group_name_Hall           '-P 2ybc'
loop_
_symmetry_equiv_pos_site_id
_symmetry_equiv_pos_as_xyz
1 x,y,z
2 -x,1/2+y,1/2-z
3 -x,-y,-z
4 x,1/2-y,1/2+z
_cell_length_a                   13.8315(10)
_cell_length_b                   11.1491(8)
_cell_length_c                   17.5648(12)
_cell_angle_alpha                90
_cell_angle_beta                 109.2760(10)
_cell_angle_gamma                90
_cell_volume                     2556.8
_exptl_crystal_colour            colorless
_exptl_crystal_description       plate
_cell_formula_units_Z            4
loop_
_atom_site_label
_atom_site_type_symbol
_atom_site_fract_x
_atom_site_fract_y
_atom_site_fract_z
Br1 Br 0.081357(18) 0.58281(2) 0.125984(14)
Br2 Br 0.384860(18) 0.07833(2) -0.052976(14)
Br3 Br 0.17879(2) 0.81689(2) -0.149861(16)
Br4 Br 0.27375(2) -0.12094(2) 0.227154(16)
S1 S 0.34623(5) -0.08211(5) 0.07919(4)
S2 S 0.11012(4) 0.75609(5) -0.00293(4)
F1 F 0.30645(11) 0.46243(13) 0.26002(8)
F2 F 0.21509(11) 0.33126(13) -0.19023(8)
F3 F 0.41208(11) 0.49998(13) 0.03078(9)
F4 F 0.10281(10) 0.14553(12) 0.00775(8)
F5 F -0.02260(11) 0.00519(13) -0.10597(9)
F6 F -0.03407(11) 0.02860(14) -0.26258(9)
C1 C 0.34717(16) 0.05852(19) 0.03877(13)
F7 F 0.54013(12) 0.76129(13) 0.24916(10)
C2 C 0.16405(18) 0.7091(2) -0.07283(14)
C3 C 0.16552(16) 0.24316(18) -0.08607(13)
C4 C 0.17013(17) 0.53488(19) 0.00099(13)
F8 F 0.08449(12) 0.19650(14) -0.30372(8)
F9 F 0.53503(12) 0.67984(14) 0.10204(11)
C5 C 0.29041(17) 0.0997(2) 0.14506(13)
H1 H 0.2674 0.1463 0.1795
C6 C 0.15651(17) 0.25200(19) -0.16697(14)
C7 C 0.28108(16) 0.37290(19) 0.10407(13)
H2 H 0.2553 0.3347 0.1438
C8 C 0.35411(16) 0.47304(19) 0.14245(13)
C9 C 0.18987(17) 0.40597(18) 0.02548(13)
H3 H 0.1266 0.3695 0.0281
C10 C 0.19220(18) 0.59180(19) -0.06458(14)
H4 H 0.2224 0.5528 -0.0978
C11 C 0.30264(18) -0.0210(2) 0.15185(14)
C12 C 0.09012(18) 0.1829(2) -0.22656(14)
F10 F 0.42753(12) 0.64740(14) 0.32875(9)
C13 C 0.23673(16) 0.32417(19) -0.02484(13)
H5 H 0.2723 0.3753 -0.0525
C14 C 0.12630(17) 0.6148(2) 0.03871(14)
C15 C 0.03566(17) 0.08672(19) -0.12642(14)
C16 C 0.10187(17) 0.15836(19) -0.06851(13)
C17 C 0.48156(19) 0.6664(2) 0.21554(16)
C18 C 0.36210(18) 0.5148(2) 0.21908(14)
C19 C 0.31679(16) 0.14700(19) 0.07924(13)
C20 C 0.31816(16) 0.27664(19) 0.05571(13)
H6 H 0.3871 0.2976 0.0559
C21 C 0.02946(18) 0.0988(2) -0.20598(14)
C22 C 0.47793(19) 0.6268(2) 0.14055(16)
C23 C 0.42392(19) 0.6099(2) 0.25560(15)
C24 C 0.41411(18) 0.5320(2) 0.10501(14)
loop_
_geom_bond_atom_site_label_1
_geom_bond_atom_site_label_2
_geom_bond_site_symmetry_1
_geom_bond_site_symmetry_2
Br1 C14 1_555 1_555
Br2 C1 1_555 1_555
Br3 C2 1_555 1_555
Br4 C11 1_555 1_555
S1 C1 1_555 1_555
S2 C2 1_555 1_555
F1 C18 1_555 1_555
F2 C6 1_555 1_555
F3 C24 1_555 1_555
F4 C16 1_555 1_555
F5 C15 1_555 1_555
F6 C21 1_555 1_555
C1 C19 1_555 1_555
F7 C17 1_555 1_555
C2 C10 1_555 1_555
C3 C6 1_555 1_555
C4 C9 1_555 1_555
F8 C12 1_555 1_555
F9 C22 1_555 1_555
C5 H1 1_555 1_555
C6 C12 1_555 1_555
C7 H2 1_555 1_555
C8 C7 1_555 1_555
C9 C7 1_555 1_555
H3 C9 1_555 1_555
C10 C4 1_555 1_555
H4 C10 1_555 1_555
C11 S1 1_555 1_555
C12 C21 1_555 1_555
F10 C23 1_555 1_555
C13 C3 1_555 1_555
H5 C13 1_555 1_555
C14 S2 1_555 1_555
C15 C16 1_555 1_555
C16 C3 1_555 1_555
C17 C22 1_555 1_555
C18 C8 1_555 1_555
C19 C5 1_555 1_555
C20 C7 1_555 1_555
H6 C20 1_555 1_555
C21 C15 1_555 1_555
C22 C24 1_555 1_555
C23 C17 1_555 1_555
C24 C8 1_555 1_555
C4 C14 1_555 1_555
C5 C11 1_555 1_555
C9 C13 1_555 1_555
C13 C20 1_555 1_555
C18 C23 1_555 1_555
C19 C20 1_555 1_555

#END
