
#######################################################################
#
#                 Cambridge Crystallographic Data Centre
#                                CCDC 
#
#######################################################################
#
# If this CIF has been generated from an entry in the Cambridge 
# Structural Database, then it will include bibliographic, chemical, 
# crystal, experimental, refinement or atomic coordinate data resulting 
# from the CCDC's data processing and validation procedures.
#
#######################################################################

data_OJUDAA
_chemical_formula_moiety         'C23 H17 N3 O1'
_chemical_name_systematic        
4-(4-methoxyphenyl)-2-phenylpyrimido[1,2-b]indazole
_symmetry_cell_setting           monoclinic
_symmetry_space_group_name_H-M   'P 21/n'
_symmetry_Int_Tables_number      14
_space_group_name_Hall           '-P 2yn'
loop_
_symmetry_equiv_pos_site_id
_symmetry_equiv_pos_as_xyz
1 x,y,z
2 1/2-x,1/2+y,1/2-z
3 -x,-y,-z
4 1/2+x,1/2-y,1/2+z
_cell_length_a                   13.1285(4)
_cell_length_b                   7.3428(2)
_cell_length_c                   18.3797(6)
_cell_angle_alpha                90
_cell_angle_beta                 101.161(4)
_cell_angle_gamma                90
_cell_volume                     1738.29
_exptl_crystal_colour            yellow
_exptl_crystal_description       block
_chemical_melting_point          '443-445 K'
_cell_formula_units_Z            4
loop_
_atom_site_label
_atom_site_type_symbol
_atom_site_fract_x
_atom_site_fract_y
_atom_site_fract_z
C1 C 0.7193(2) 0.5628(6) 0.7926(2)
H1 H 0.7867 0.5541 0.7800
H2 H 0.7043 0.6880 0.8014
H3 H 0.7180 0.4928 0.8365
C2 C 0.5427(2) 0.4961(4) 0.74137(15)
C3 C 0.50988(19) 0.5572(4) 0.80353(14)
H4 H 0.5577 0.6017 0.8437
C4 C 0.40579(18) 0.5525(3) 0.80614(13)
H5 H 0.3841 0.5926 0.8487
C5 C 0.33282(17) 0.4895(3) 0.74718(12)
C6 C 0.3680(2) 0.4298(4) 0.68505(14)
H6 H 0.3206 0.3871 0.6444
C7 C 0.4712(2) 0.4324(4) 0.68249(15)
H7 H 0.4932 0.3907 0.6403
C8 C 0.22111(17) 0.4918(3) 0.74678(12)
C9 C 0.14834(18) 0.5388(3) 0.68672(13)
H8 H 0.1696 0.5704 0.6430
C10 C 0.04207(18) 0.5412(3) 0.68850(13)
C11 C -0.03499(19) 0.6053(3) 0.62442(13)
C12 C -0.0067(2) 0.7018(5) 0.56811(16)
H9 H 0.0634 0.7214 0.5683
C13 C -0.0802(3) 0.7705(6) 0.51098(18)
H10 H -0.0592 0.8363 0.4732
C14 C -0.1823(3) 0.7437(5) 0.50908(18)
H11 H -0.2316 0.7903 0.4703
C15 C -0.2121(3) 0.6475(5) 0.5647(2)
H12 H -0.2823 0.6277 0.5640
C16 C -0.1389(2) 0.5793(4) 0.62216(17)
H13 H -0.1603 0.5145 0.6600
C17 C 0.07748(17) 0.4411(3) 0.80739(13)
C18 C 0.06764(18) 0.3786(3) 0.87739(13)
C19 C -0.0157(2) 0.3345(4) 0.91106(15)
H14 H -0.0838 0.3497 0.8859
C20 C 0.0050(2) 0.2690(4) 0.98117(16)
H15 H -0.0496 0.2386 1.0044
C21 C 0.1073(2) 0.2461(5) 1.01934(16)
H16 H 0.1189 0.2014 1.0676
C22 C 0.1895(2) 0.2871(4) 0.98823(14)
H17 H 0.2571 0.2718 1.0143
C23 C 0.16993(18) 0.3530(3) 0.91558(13)
N1 N 0.00723(15) 0.4899(3) 0.74828(11)
N2 N 0.18385(14) 0.4464(2) 0.80913(10)
N3 N 0.24231(15) 0.3950(3) 0.87466(10)
O1 O 0.64356(15) 0.4944(3) 0.73328(12)
loop_
_geom_bond_atom_site_label_1
_geom_bond_atom_site_label_2
_geom_bond_site_symmetry_1
_geom_bond_site_symmetry_2
C1 H1 1_555 1_555
H2 C1 1_555 1_555
H3 C1 1_555 1_555
C2 C3 1_555 1_555
C3 H4 1_555 1_555
C4 C3 1_555 1_555
H5 C4 1_555 1_555
C5 C4 1_555 1_555
C6 C5 1_555 1_555
H6 C6 1_555 1_555
C7 C2 1_555 1_555
H7 C7 1_555 1_555
C8 C5 1_555 1_555
C9 C8 1_555 1_555
H8 C9 1_555 1_555
C10 C9 1_555 1_555
C11 C10 1_555 1_555
C12 C11 1_555 1_555
H9 C12 1_555 1_555
C13 C12 1_555 1_555
H10 C13 1_555 1_555
C14 C13 1_555 1_555
H11 C14 1_555 1_555
C15 C14 1_555 1_555
H12 C15 1_555 1_555
C16 C11 1_555 1_555
H13 C16 1_555 1_555
C17 C18 1_555 1_555
C18 C19 1_555 1_555
C19 H14 1_555 1_555
C20 C19 1_555 1_555
H15 C20 1_555 1_555
C21 C20 1_555 1_555
H16 C21 1_555 1_555
C22 C21 1_555 1_555
H17 C22 1_555 1_555
C23 C18 1_555 1_555
N1 C10 1_555 1_555
N2 C8 1_555 1_555
N3 C23 1_555 1_555
O1 C1 1_555 1_555
C2 O1 1_555 1_555
C6 C7 1_555 1_555
C15 C16 1_555 1_555
C17 N1 1_555 1_555
C17 N2 1_555 1_555
C22 C23 1_555 1_555
N2 N3 1_555 1_555

#END
