
#######################################################################
#
#                 Cambridge Crystallographic Data Centre
#                                CCDC 
#
#######################################################################
#
# If this CIF has been generated from an entry in the Cambridge 
# Structural Database, then it will include bibliographic, chemical, 
# crystal, experimental, refinement or atomic coordinate data resulting 
# from the CCDC's data processing and validation procedures.
#
#######################################################################

data_OJUNEO
_chemical_formula_moiety         'C98 Cl20,0.06(Cl2)'
_chemical_name_systematic        'icosachloroC98fullerene chlorine solvate'
_symmetry_cell_setting           triclinic
_symmetry_space_group_name_H-M   'P -1'
_symmetry_Int_Tables_number      2
_space_group_name_Hall           '-P 1'
loop_
_symmetry_equiv_pos_site_id
_symmetry_equiv_pos_as_xyz
1 x,y,z
2 -x,-y,-z
_cell_length_a                   10.8770(10)
_cell_length_b                   12.9520(10)
_cell_length_c                   24.248(2)
_cell_angle_alpha                87.558(6)
_cell_angle_beta                 82.886(6)
_cell_angle_gamma                83.870(9)
_cell_volume                     3368.86
_exptl_crystal_colour            orange
_exptl_crystal_description       plate
_cell_formula_units_Z            2
_exptl_crystal_recrystallization_method 'Vanadium tetrachloride'
loop_
_atom_site_label
_atom_site_type_symbol
_atom_site_fract_x
_atom_site_fract_y
_atom_site_fract_z
Cl21 Cl 0.427(3) -0.1180(14) -0.4518(8)
Cl1 Cl 0.74061(12) 0.58940(8) 0.01249(5)
Cl2 Cl 0.89280(13) 0.35893(9) 0.04904(5)
Cl3 Cl 0.56122(13) 0.71859(8) -0.05415(5)
Cl4 Cl 0.75526(13) 0.08153(9) 0.02653(5)
Cl5 Cl 1.04751(14) 0.76794(9) -0.24778(6)
Cl6 Cl 0.34052(13) 0.73047(9) -0.15476(5)
Cl7 Cl 0.45166(13) 0.08536(9) -0.05595(5)
Cl8 Cl 0.94829(13) -0.11691(8) -0.09090(5)
Cl9 Cl 1.27739(13) -0.02039(9) -0.17773(6)
Cl10 Cl 0.80046(14) 0.83894(9) -0.34258(5)
Cl11 Cl 0.44972(14) 0.81114(9) -0.29275(6)
Cl12 Cl 0.64177(13) -0.10525(8) -0.16821(5)
Cl13 Cl 1.29312(13) 0.03206(10) -0.31375(6)
Cl14 Cl 1.17815(14) 0.08587(10) -0.41830(6)
Cl15 Cl 0.79055(14) 0.66400(10) -0.47478(5)
Cl16 Cl 0.41359(14) 0.62126(11) -0.41537(6)
Cl17 Cl 0.55154(15) 0.08268(11) -0.40347(6)
Cl18 Cl 0.93157(14) 0.13390(10) -0.48652(5)
Cl19 Cl 0.85490(14) 0.40475(11) -0.52544(5)
Cl20 Cl 0.43009(15) 0.35099(12) -0.44862(6)
C1 C 0.8590(5) 0.5175(3) -0.0833(2)
C2 C 0.7291(5) 0.5340(3) -0.05364(19)
C3 C 0.6809(5) 0.4265(3) -0.04573(19)
C4 C 0.7529(5) 0.3353(3) -0.03545(19)
C5 C 0.8843(5) 0.3453(3) -0.02480(19)
C6 C 0.9347(5) 0.4331(3) -0.0636(2)
C7 C 1.0445(5) 0.3931(4) -0.0949(2)
C8 C 1.0832(5) 0.4345(4) -0.1478(2)
C9 C 1.0151(5) 0.5291(4) -0.1649(2)
C10 C 0.8994(5) 0.5674(3) -0.1342(2)
C11 C 0.8061(5) 0.6301(3) -0.1660(2)
C12 C 0.6779(5) 0.6328(3) -0.1468(2)
C13 C 0.6295(5) 0.6001(3) -0.0871(2)
C14 C 0.5328(5) 0.5261(4) -0.0910(2)
C15 C 0.5705(5) 0.4264(3) -0.06924(19)
C16 C 0.5340(5) 0.3336(3) -0.08807(19)
C17 C 0.6057(5) 0.2395(3) -0.07540(19)
C18 C 0.7117(5) 0.2389(3) -0.04846(19)
C19 C 0.7970(5) 0.1379(3) -0.04252(19)
C20 C 0.9301(5) 0.1566(3) -0.0524(2)
C21 C 0.9713(5) 0.2514(4) -0.0449(2)
C22 C 1.0716(5) 0.2841(4) -0.0805(2)
C23 C 1.1376(5) 0.2180(4) -0.1194(2)
C24 C 1.1776(5) 0.2585(4) -0.1743(2)
C25 C 1.1506(5) 0.3637(4) -0.1895(2)
C26 C 1.1449(5) 0.3870(4) -0.2469(2)
C27 C 1.0998(5) 0.4902(4) -0.2604(2)
C28 C 1.0445(5) 0.5604(4) -0.2213(2)
C29 C 0.9722(5) 0.6478(4) -0.2490(2)
C30 C 0.8409(5) 0.6640(3) -0.2217(2)
C31 C 0.7507(5) 0.6954(3) -0.2564(2)
C32 C 0.6265(5) 0.6891(3) -0.2385(2)
C33 C 0.5873(5) 0.6566(3) -0.1843(2)
C34 C 0.4570(5) 0.6235(3) -0.1732(2)
C35 C 0.4548(5) 0.5364(4) -0.1304(2)
C36 C 0.4219(5) 0.4443(4) -0.1531(2)
C37 C 0.4590(5) 0.3447(3) -0.1338(2)
C38 C 0.4732(5) 0.2618(3) -0.1734(2)
C39 C 0.5343(5) 0.1669(3) -0.1582(2)
C40 C 0.5750(5) 0.1417(3) -0.1012(2)
C41 C 0.6884(5) 0.0662(3) -0.1144(2)
C42 C 0.7871(5) 0.0643(3) -0.08798(19)
C43 C 0.9143(5) 0.0182(3) -0.1141(2)
C44 C 0.9985(5) 0.0889(3) -0.0929(2)
C45 C 1.1029(5) 0.1172(4) -0.1242(2)
C46 C 1.1482(5) 0.0787(4) -0.1817(2)
C47 C 1.1834(5) 0.1805(4) -0.2131(2)
C48 C 1.1702(5) 0.2036(4) -0.2686(2)
C49 C 1.1493(5) 0.3086(4) -0.2870(2)
C50 C 1.0953(5) 0.3347(4) -0.3399(2)
C51 C 1.0447(5) 0.4417(4) -0.3512(2)
C52 C 1.0551(5) 0.5183(4) -0.3134(2)
C53 C 0.9769(5) 0.6103(4) -0.3082(2)
C54 C 0.8813(6) 0.6307(4) -0.3419(2)
C55 C 0.7731(5) 0.7065(4) -0.3196(2)
C56 C 0.6504(5) 0.6781(4) -0.3352(2)
C57 C 0.5478(5) 0.6906(4) -0.2866(2)
C58 C 0.4728(5) 0.5976(4) -0.2791(2)
C59 C 0.4310(5) 0.5690(4) -0.2248(2)
C60 C 0.4094(5) 0.4657(4) -0.2106(2)
C61 C 0.4320(5) 0.3879(4) -0.2505(2)
C62 C 0.4653(5) 0.2827(4) -0.2313(2)
C63 C 0.5258(5) 0.2096(4) -0.2710(2)
C64 C 0.6043(5) 0.1218(3) -0.2542(2)
C65 C 0.6001(5) 0.1000(3) -0.1974(2)
C66 C 0.6935(5) 0.0242(3) -0.1717(2)
C67 C 0.8198(5) 0.0252(3) -0.2046(2)
C68 C 0.9266(5) 0.0228(3) -0.1776(2)
C69 C 1.0430(5) 0.0424(3) -0.2090(2)
C70 C 1.0493(5) 0.0560(3) -0.2653(2)
C71 C 1.1469(5) 0.1122(4) -0.3022(2)
C72 C 1.0860(5) 0.1411(4) -0.3578(2)
C73 C 1.0602(5) 0.2567(4) -0.3707(2)
C74 C 0.9725(5) 0.2832(4) -0.4091(2)
C75 C 0.9264(5) 0.3835(4) -0.4199(2)
C76 C 0.9554(5) 0.4675(4) -0.3894(2)
C77 C 0.8725(6) 0.5621(4) -0.3839(2)
C78 C 0.7599(5) 0.5759(4) -0.4147(2)
C79 C 0.6438(5) 0.6181(4) -0.3768(2)
C80 C 0.5375(6) 0.5530(4) -0.3790(2)
C81 C 0.4799(5) 0.5256(4) -0.3211(2)
C82 C 0.4595(5) 0.4201(4) -0.3071(2)
C83 C 0.5039(5) 0.3399(4) -0.3456(2)
C84 C 0.5386(5) 0.2404(4) -0.3278(2)
C85 C 0.6260(6) 0.1821(4) -0.3711(2)
C86 C 0.7373(5) 0.1274(4) -0.3457(2)
C87 C 0.7188(5) 0.0879(3) -0.2907(2)
C88 C 0.8241(5) 0.0466(3) -0.2634(2)
C89 C 0.9419(5) 0.0563(3) -0.2929(2)
C90 C 0.9601(5) 0.1009(4) -0.3464(2)
C91 C 0.8589(5) 0.1357(4) -0.3736(2)
C92 C 0.8827(5) 0.2076(4) -0.4242(2)
C93 C 0.7706(5) 0.2824(4) -0.4342(2)
C94 C 0.8138(6) 0.3889(4) -0.4506(2)
C95 C 0.7193(6) 0.4746(4) -0.4305(2)
C96 C 0.6033(5) 0.4621(4) -0.4105(2)
C97 C 0.5541(5) 0.3588(4) -0.4048(2)
C98 C 0.6561(6) 0.2691(4) -0.4124(2)
loop_
_geom_bond_atom_site_label_1
_geom_bond_atom_site_label_2
_geom_bond_site_symmetry_1
_geom_bond_site_symmetry_2
Cl1 C2 1_555 1_555
Cl2 C5 1_555 1_555
Cl3 C13 1_555 1_555
Cl4 C19 1_555 1_555
Cl5 C29 1_555 1_555
Cl6 C34 1_555 1_555
Cl7 C40 1_555 1_555
Cl8 C43 1_555 1_555
Cl9 C46 1_555 1_555
Cl10 C55 1_555 1_555
Cl11 C57 1_555 1_555
Cl12 C66 1_555 1_555
Cl13 C71 1_555 1_555
Cl14 C72 1_555 1_555
Cl15 C78 1_555 1_555
Cl16 C80 1_555 1_555
Cl17 C85 1_555 1_555
Cl18 C92 1_555 1_555
Cl19 C94 1_555 1_555
Cl20 C97 1_555 1_555
C1 C2 1_555 1_555
C2 C3 1_555 1_555
C3 C4 1_555 1_555
C4 C5 1_555 1_555
C5 C6 1_555 1_555
C6 C1 1_555 1_555
C7 C6 1_555 1_555
C8 C7 1_555 1_555
C9 C8 1_555 1_555
C10 C1 1_555 1_555
C11 C10 1_555 1_555
C12 C11 1_555 1_555
C13 C2 1_555 1_555
C14 C13 1_555 1_555
C15 C3 1_555 1_555
C16 C15 1_555 1_555
C17 C16 1_555 1_555
C18 C4 1_555 1_555
C19 C18 1_555 1_555
C20 C19 1_555 1_555
C21 C5 1_555 1_555
C22 C7 1_555 1_555
C23 C22 1_555 1_555
C24 C23 1_555 1_555
C25 C8 1_555 1_555
C26 C25 1_555 1_555
C27 C26 1_555 1_555
C28 C9 1_555 1_555
C29 C28 1_555 1_555
C30 C11 1_555 1_555
C31 C30 1_555 1_555
C32 C31 1_555 1_555
C33 C12 1_555 1_555
C34 C33 1_555 1_555
C35 C14 1_555 1_555
C36 C35 1_555 1_555
C37 C16 1_555 1_555
C38 C37 1_555 1_555
C39 C38 1_555 1_555
C40 C17 1_555 1_555
C41 C40 1_555 1_555
C42 C19 1_555 1_555
C43 C42 1_555 1_555
C44 C20 1_555 1_555
C45 C23 1_555 1_555
C46 C45 1_555 1_555
C47 C24 1_555 1_555
C48 C47 1_555 1_555
C49 C26 1_555 1_555
C50 C49 1_555 1_555
C51 C50 1_555 1_555
C52 C27 1_555 1_555
C53 C29 1_555 1_555
C54 C53 1_555 1_555
C55 C31 1_555 1_555
C56 C55 1_555 1_555
C57 C32 1_555 1_555
C58 C57 1_555 1_555
C59 C34 1_555 1_555
C60 C36 1_555 1_555
C61 C60 1_555 1_555
C62 C38 1_555 1_555
C63 C62 1_555 1_555
C64 C63 1_555 1_555
C65 C39 1_555 1_555
C66 C41 1_555 1_555
C67 C66 1_555 1_555
C68 C43 1_555 1_555
C69 C46 1_555 1_555
C70 C69 1_555 1_555
C71 C48 1_555 1_555
C72 C71 1_555 1_555
C73 C50 1_555 1_555
C74 C73 1_555 1_555
C75 C74 1_555 1_555
C76 C51 1_555 1_555
C77 C54 1_555 1_555
C78 C77 1_555 1_555
C79 C56 1_555 1_555
C80 C79 1_555 1_555
C81 C58 1_555 1_555
C82 C61 1_555 1_555
C83 C82 1_555 1_555
C84 C63 1_555 1_555
C85 C84 1_555 1_555
C86 C85 1_555 1_555
C87 C64 1_555 1_555
C88 C67 1_555 1_555
C89 C70 1_555 1_555
C90 C72 1_555 1_555
C91 C86 1_555 1_555
C92 C74 1_555 1_555
C93 C92 1_555 1_555
C94 C75 1_555 1_555
C95 C78 1_555 1_555
C96 C80 1_555 1_555
C97 C83 1_555 1_555
C98 C85 1_555 1_555
C9 C10 1_555 1_555
C12 C13 1_555 1_555
C14 C15 1_555 1_555
C17 C18 1_555 1_555
C20 C21 1_555 1_555
C21 C22 1_555 1_555
C24 C25 1_555 1_555
C27 C28 1_555 1_555
C29 C30 1_555 1_555
C32 C33 1_555 1_555
C34 C35 1_555 1_555
C36 C37 1_555 1_555
C39 C40 1_555 1_555
C41 C42 1_555 1_555
C43 C44 1_555 1_555
C44 C45 1_555 1_555
C46 C47 1_555 1_555
C48 C49 1_555 1_555
C51 C52 1_555 1_555
C52 C53 1_555 1_555
C54 C55 1_555 1_555
C56 C57 1_555 1_555
C58 C59 1_555 1_555
C59 C60 1_555 1_555
C61 C62 1_555 1_555
C64 C65 1_555 1_555
C65 C66 1_555 1_555
C67 C68 1_555 1_555
C68 C69 1_555 1_555
C70 C71 1_555 1_555
C72 C73 1_555 1_555
C75 C76 1_555 1_555
C76 C77 1_555 1_555
C78 C79 1_555 1_555
C80 C81 1_555 1_555
C81 C82 1_555 1_555
C83 C84 1_555 1_555
C86 C87 1_555 1_555
C87 C88 1_555 1_555
C88 C89 1_555 1_555
C89 C90 1_555 1_555
C90 C91 1_555 1_555
C91 C92 1_555 1_555
C93 C94 1_555 1_555
C93 C98 1_555 1_555
C94 C95 1_555 1_555
C95 C96 1_555 1_555
C96 C97 1_555 1_555
C97 C98 1_555 1_555

#END
