
#######################################################################
#
#                 Cambridge Crystallographic Data Centre
#                                CCDC 
#
#######################################################################
#
# If this CIF has been generated from an entry in the Cambridge 
# Structural Database, then it will include bibliographic, chemical, 
# crystal, experimental, refinement or atomic coordinate data resulting 
# from the CCDC's data processing and validation procedures.
#
#######################################################################

data_OKAHOX
_chemical_formula_moiety         'C13 H25 N1 O1'
_chemical_name_systematic        
1,2-Dimethyl-N,N-di-isopropylcyclobutane-1-carboxamide
_symmetry_cell_setting           orthorhombic
_symmetry_space_group_name_H-M   'P b c a'
_symmetry_Int_Tables_number      61
_space_group_name_Hall           '-P 2ac 2ab'
loop_
_symmetry_equiv_pos_site_id
_symmetry_equiv_pos_as_xyz
1 x,y,z
2 1/2+x,y,1/2-z
3 x,1/2-y,1/2+z
4 1/2-x,1/2+y,z
5 -x,-y,-z
6 1/2-x,-y,1/2+z
7 -x,1/2+y,1/2-z
8 1/2+x,1/2-y,-z
_cell_length_a                   8.6663(15)
_cell_length_b                   12.452(2)
_cell_length_c                   24.827(4)
_cell_angle_alpha                90
_cell_angle_beta                 90
_cell_angle_gamma                90
_cell_volume                     2679.15
_chemical_melting_point          '41-42 deg.C'
_cell_formula_units_Z            8
_exptl_crystal_recrystallization_method pentane
loop_
_atom_site_label
_atom_site_type_symbol
_atom_site_fract_x
_atom_site_fract_y
_atom_site_fract_z
C1 C -0.1162(7) 0.7081(5) 0.3615(4)
C2 C -0.0158(6) 0.7747(4) 0.3264(3)
C3 C 0.0575(10) 0.7111(6) 0.2793(3)
C4 C -0.0473(8) 0.9998(5) 0.3688(5)
C5 C 0.1361(11) 0.9820(7) 0.2902(4)
C6 C 0.0999(6) 0.9513(4) 0.3492(3)
C7 C 0.2092(5) 0.7804(3) 0.3831(2)
C8 C 0.3632(10) 0.8391(6) 0.4001(4)
C9 C 0.4347(10) 0.7646(5) 0.4494(4)
C10 C 0.3504(9) 0.9223(6) 0.4473(3)
C11 C 0.2020(10) 0.9047(7) 0.4778(3)
C12 C 0.5123(9) 0.8635(5) 0.4663(3)
C13 C 0.4783(7) 0.8795(6) 0.3555(2)
N1 N 0.1026(4) 0.8345(2) 0.35611(15)
O1 O 0.2111(4) 0.6813(2) 0.38375(17)
H1 H -0.0582 0.6456 0.3743
H2 H -0.2064 0.6840 0.3410
H3 H -0.1503 0.7509 0.3924
H4 H -0.0845 0.8297 0.3095
H5 H 0.1284 0.7579 0.2594
H6 H -0.0240 0.6858 0.2550
H7 H 0.1143 0.6493 0.2936
H8 H -0.1309 0.9817 0.3438
H9 H -0.0360 1.0780 0.3708
H10 H -0.0716 0.9714 0.4046
H11 H 0.2319 0.9467 0.2789
H12 H 0.1483 1.0600 0.2874
H13 H 0.0512 0.9586 0.2669
H14 H 0.1848 0.9813 0.3720
C14? C 0.4350(11) 0.9105(7) 0.4128(4)
C15? C 0.2965(14) 0.8391(7) 0.4314(5)
loop_
_geom_bond_atom_site_label_1
_geom_bond_atom_site_label_2
_geom_bond_site_symmetry_1
_geom_bond_site_symmetry_2
C1 C2 1_555 1_555
C2 C3 1_555 1_555
C3 H5 1_555 1_555
C4 C6 1_555 1_555
C5 C6 1_555 1_555
C6 N1 1_555 1_555
C7 C8 1_555 1_555
C8 C9 1_555 1_555
C9 C12 1_555 1_555
C10 C8 1_555 1_555
C11 C10 1_555 1_555
C12 C10 1_555 1_555
C13 C8 1_555 1_555
N1 C2 1_555 1_555
O1 C7 1_555 1_555
H1 C1 1_555 1_555
H2 C1 1_555 1_555
H3 C1 1_555 1_555
H4 C2 1_555 1_555
H6 C3 1_555 1_555
H7 C3 1_555 1_555
H8 C4 1_555 1_555
H9 C4 1_555 1_555
H10 C4 1_555 1_555
H11 C5 1_555 1_555
H12 C5 1_555 1_555
H13 C5 1_555 1_555
H14 C6 1_555 1_555
C7 N1 1_555 1_555

#END
