
#######################################################################
#
#                 Cambridge Crystallographic Data Centre
#                                CCDC 
#
#######################################################################
#
# If this CIF has been generated from an entry in the Cambridge 
# Structural Database, then it will include bibliographic, chemical, 
# crystal, experimental, refinement or atomic coordinate data resulting 
# from the CCDC's data processing and validation procedures.
#
#######################################################################

data_OKAVOM
_chemical_formula_moiety         'C12 H14 F3 N1 O2'
_chemical_name_systematic        
2-(4-Phenyl-2-(trifluoromethyl)-1,3-oxazolidin-2-yl)ethanol
_symmetry_cell_setting           orthorhombic
_symmetry_space_group_name_H-M   'P 21 21 21'
_symmetry_Int_Tables_number      19
_space_group_name_Hall           'P 2ac 2ab'
loop_
_symmetry_equiv_pos_site_id
_symmetry_equiv_pos_as_xyz
1 x,y,z
2 1/2-x,-y,1/2+z
3 -x,1/2+y,1/2-z
4 1/2+x,1/2-y,-z
_cell_length_a                   7.7302(9)
_cell_length_b                   9.7728(11)
_cell_length_c                   16.4696(19)
_cell_angle_alpha                90
_cell_angle_beta                 90
_cell_angle_gamma                90
_cell_volume                     1244.21
_exptl_crystal_colour            colorless
_exptl_crystal_description       prismatic
_cell_formula_units_Z            4
loop_
_atom_site_label
_atom_site_type_symbol
_atom_site_fract_x
_atom_site_fract_y
_atom_site_fract_z
F1 F 0.2816(3) 0.47544(17) 0.22006(9)
F2 F 0.1820(3) 0.2775(2) 0.19198(11)
F3 F 0.3700(3) 0.3016(2) 0.28507(8)
O1 O 0.6187(3) 0.3886(2) 0.18195(10)
O2 O 0.5938(3) 0.1600(2) 0.00229(12)
N1 N 0.4227(3) 0.3916(2) 0.07438(11)
C1 C 0.5105(4) 0.5258(2) 0.07795(13)
H1 H 0.4405 0.5876 0.1113
C2 C 0.6732(4) 0.4897(3) 0.12477(16)
H2 H 0.7612 0.4532 0.0888
H3 H 0.7194 0.5695 0.1523
C3 C 0.4692(4) 0.3229(2) 0.14990(13)
C4 C 0.3251(4) 0.3448(3) 0.21203(15)
C5 C 0.4985(5) 0.1689(3) 0.13944(15)
H4 H 0.5210 0.1290 0.1923
H5 H 0.3930 0.1280 0.1187
C6 C 0.6448(5) 0.1324(3) 0.08357(17)
H6 H 0.7465 0.1858 0.0972
H7 H 0.6733 0.0362 0.0894
C7 C 0.5405(3) 0.5923(2) -0.00306(14)
C8 C 0.5272(4) 0.7337(3) -0.00923(18)
H8 H 0.4938 0.7847 0.0358
C9 C 0.5630(4) 0.7993(3) -0.08163(19)
H9 H 0.5549 0.8941 -0.0849
C10 C 0.6102(4) 0.7255(3) -0.14825(17)
H10 H 0.6340 0.7702 -0.1968
C11 C 0.6226(5) 0.5862(3) -0.14403(16)
H11 H 0.6546 0.5357 -0.1895
C12 C 0.5869(4) 0.5209(3) -0.07101(15)
H12 H 0.5947 0.4260 -0.0683
H13 H 0.475(4) 0.342(2) 0.0370(15)
H14 H 0.678(3) 0.140(3) -0.0257(16)
loop_
_geom_bond_atom_site_label_1
_geom_bond_atom_site_label_2
_geom_bond_site_symmetry_1
_geom_bond_site_symmetry_2
F1 C4 1_555 1_555
F2 C4 1_555 1_555
F3 C4 1_555 1_555
O1 C2 1_555 1_555
O2 C6 1_555 1_555
N1 C1 1_555 1_555
C1 H1 1_555 1_555
C2 C1 1_555 1_555
H2 C2 1_555 1_555
H3 C2 1_555 1_555
C3 O1 1_555 1_555
C4 C3 1_555 1_555
C5 C3 1_555 1_555
H4 C5 1_555 1_555
H5 C5 1_555 1_555
C6 C5 1_555 1_555
H6 C6 1_555 1_555
H7 C6 1_555 1_555
C7 C1 1_555 1_555
C8 C7 1_555 1_555
H8 C8 1_555 1_555
C9 C8 1_555 1_555
H9 C9 1_555 1_555
C10 C9 1_555 1_555
H10 C10 1_555 1_555
C11 C10 1_555 1_555
H11 C11 1_555 1_555
C12 C7 1_555 1_555
H12 C12 1_555 1_555
H13 N1 1_555 1_555
H14 O2 1_555 1_555
N1 C3 1_555 1_555
C11 C12 1_555 1_555

#END
