
#######################################################################
#
#                 Cambridge Crystallographic Data Centre
#                                CCDC 
#
#######################################################################
#
# If this CIF has been generated from an entry in the Cambridge 
# Structural Database, then it will include bibliographic, chemical, 
# crystal, experimental, refinement or atomic coordinate data resulting 
# from the CCDC's data processing and validation procedures.
#
#######################################################################

data_OKAWUT
_chemical_compound_source        'bark of Calocedrus macrolepis var. formosana'
_chemical_formula_moiety         'C35 H52 O4'
_chemical_name_systematic        
'5-((5-Carboxy-5,8a-dimethyl-2-methylenedecahydronaphthalen-1-yl)methyl)-2,2,6-trimethyl-11-methylene-1,2,2a,3,4,5,8,8a,9,10,11,11a-dodecahydro-4aH-benzo[a]cyclobuta[e][9]annulene-4a-carboxylic acid'
_chemical_properties_biological  'cytotoxic activity'
_symmetry_cell_setting           orthorhombic
_symmetry_space_group_name_H-M   'P 21 21 2'
_symmetry_Int_Tables_number      18
_space_group_name_Hall           'P 2 2ab'
loop_
_symmetry_equiv_pos_site_id
_symmetry_equiv_pos_as_xyz
1 x,y,z
2 -x,-y,z
3 1/2-x,1/2+y,-z
4 1/2+x,1/2-y,-z
_cell_length_a                   22.0500(2)
_cell_length_b                   35.8880(4)
_cell_length_c                   9.0080(9)
_cell_angle_alpha                90
_cell_angle_beta                 90
_cell_angle_gamma                90
_cell_volume                     7128.3
_cell_formula_units_Z            8
loop_
_atom_site_label
_atom_site_type_symbol
_atom_site_fract_x
_atom_site_fract_y
_atom_site_fract_z
O1 O -0.1515(2) 0.09753(14) 0.5293(6)
O2 O -0.1563(2) 0.05863(13) 0.3397(5)
O3 O 0.1297(2) 0.16274(11) 0.0925(5)
O4 O 0.0795(2) 0.16854(11) -0.1193(5)
C1 C -0.0289(3) 0.1180(2) 0.1065(7)
H1 H 0.0151(3) 0.1182(2) 0.1090(7)
H2 H -0.0414(3) 0.1278(2) 0.0109(7)
C2 C -0.0508(3) 0.0773(2) 0.1188(9)
H3 H -0.0943(3) 0.0763(2) 0.1043(9)
H4 H -0.0317(3) 0.0624(2) 0.0420(9)
C3 C -0.0350(3) 0.0615(2) 0.2700(9)
H5 H 0.0088(3) 0.0594(2) 0.2775(9)
H6 H -0.0518(3) 0.0366(2) 0.2777(9)
C4 C -0.0581(2) 0.0849(2) 0.4010(8)
C5 C -0.0370(2) 0.1258(2) 0.3783(7)
H7 H 0.0073(2) 0.1242(2) 0.3783(7)
C6 C -0.0516(3) 0.1522(2) 0.5099(8)
H8 H -0.0948(3) 0.1570(2) 0.5132(8)
H9 H -0.0400(3) 0.1403(2) 0.6024(8)
C7 C -0.0176(4) 0.1886(2) 0.4927(9)
H10 H -0.0283(4) 0.2053(2) 0.5733(9)
H11 H 0.0257(4) 0.1840(2) 0.4973(9)
C8 C -0.0334(3) 0.2066(2) 0.3454(9)
C9 C -0.0175(2) 0.1821(2) 0.2142(7)
H12 H 0.0256(2) 0.1761(2) 0.2255(7)
C10 C -0.0523(2) 0.14363(15) 0.2270(7)
C11 C -0.0233(2) 0.20061(15) 0.0648(7)
H13 H -0.0520(2) 0.19258(15) -0.0037(7)
C12 C 0.0202(2) 0.23364(15) 0.0281(7)
H14 H 0.0148(2) 0.25113(15) 0.1106(7)
C13 C -0.0030(3) 0.2540(2) -0.1044(9)
C14 C 0.0298(4) 0.2595(2) -0.2233(10)
H15 H 0.0121(4) 0.2723(2) -0.3019(10)
C15 C 0.0941(3) 0.2465(2) -0.2418(8)
H16 H 0.1154(3) 0.2635(2) -0.3071(8)
H17 H 0.0942(3) 0.2221(2) -0.2882(8)
C16 C -0.0648(3) 0.2709(2) -0.0941(10)
H18 H -0.0828(3) 0.2643(2) -0.0007(10)
H19 H -0.0896(3) 0.2616(2) -0.1736(10)
H20 H -0.0616(3) 0.2975(2) -0.1014(10)
C17 C -0.0629(3) 0.2389(2) 0.3372(10)
H21 H -0.0674(3) 0.2491(2) 0.4350(10)
H22 H -0.1022(3) 0.2349(2) 0.2942(10)
C18 C -0.0311(3) 0.0692(2) 0.5475(9)
H24 H -0.0455(3) 0.0837(2) 0.6298(9)
H25 H 0.0123(3) 0.0704(2) 0.5435(9)
H26 H -0.0436(3) 0.0437(2) 0.5598(9)
C19 C -0.1272(3) 0.0798(2) 0.4203(9)
C20 C -0.1201(2) 0.1505(2) 0.2077(7)
H27 H -0.1342(2) 0.1668(2) 0.2846(7)
H28 H -0.1414(2) 0.1272(2) 0.2136(7)
H29 H -0.1274(2) 0.1617(2) 0.1126(7)
C21 C 0.2128(2) 0.2744(2) 0.2066(6)
H30 H 0.1823(2) 0.2938(2) 0.1902(6)
C22 C 0.1795(3) 0.2380(2) 0.2371(7)
H31 H 0.1805(3) 0.2335(2) 0.3432(7)
H32 H 0.2019(3) 0.2180(2) 0.1900(7)
C23 C 0.1133(2) 0.2354(2) 0.1858(7)
H33 H 0.0837(2) 0.2413(2) 0.2554(7)
C24 C 0.0910(2) 0.22376(14) 0.0298(6)
C25 C 0.1271(3) 0.2443(2) -0.0956(7)
H34 H 0.1321(3) 0.2701(2) -0.0618(7)
C26 C 0.1912(3) 0.2291(2) -0.1200(8)
H35 H 0.2066(3) 0.2197(2) -0.0264(8)
H36 H 0.1892(3) 0.2084(2) -0.1889(8)
C27 C 0.2345(3) 0.2576(2) -0.1793(7)
H37 H 0.2191(3) 0.2673(2) -0.2724(7)
H38 H 0.2733(3) 0.2458(2) -0.1990(7)
C28 C 0.2436(3) 0.2894(2) -0.0716(8)
C29 C 0.2615(3) 0.2783(2) 0.0841(8)
H39 H 0.2845(3) 0.2550(2) 0.0788(8)
C30 C 0.2954(3) 0.3053(2) 0.1890(8)
H40 H 0.3387(3) 0.3006(2) 0.1955(8)
H41 H 0.2873(3) 0.3314(2) 0.1693(8)
C31 C 0.2589(3) 0.2893(2) 0.3203(7)
C32 C 0.2947(3) 0.2588(2) 0.3987(9)
H42 H 0.3094(3) 0.2413(2) 0.3267(9)
H43 H 0.2688(3) 0.2462(2) 0.4682(9)
H44 H 0.3283(3) 0.2697(2) 0.4506(9)
C33 C 0.2357(3) 0.3170(2) 0.4320(9)
H45 H 0.2132(3) 0.3361(2) 0.3818(9)
H46 H 0.2694(3) 0.3280(2) 0.4835(9)
H47 H 0.2098(3) 0.3046(2) 0.5019(9)
C34 C 0.1003(3) 0.1821(2) 0.0026(8)
C35 C 0.2340(3) 0.3247(2) -0.1068(10)
H49 H 0.2702(3) 0.3389(2) -0.0890(10)
H50 H 0.2016(3) 0.3345(2) -0.0471(10)
O5 O 0.4074(2) 0.59594(11) 0.1561(5)
O6 O 0.3471(2) 0.59131(12) -0.0386(6)
O7 O 0.2361(2) 0.42022(11) 0.4196(5)
O8 O 0.2253(2) 0.45305(11) 0.6254(5)
C36 C 0.3121(2) 0.5187(2) 0.3937(8)
H51 H 0.2962(2) 0.5274(2) 0.4879(8)
H52 H 0.3118(2) 0.4916(2) 0.3954(8)
C37 C 0.3767(3) 0.5321(2) 0.3767(9)
H53 H 0.4013(3) 0.5214(2) 0.4553(9)
H54 H 0.3776(3) 0.5590(2) 0.3882(9)
C38 C 0.4043(3) 0.5220(2) 0.2290(9)
H55 H 0.4087(3) 0.4952(2) 0.2237(9)
H56 H 0.4445(3) 0.5328(2) 0.2229(9)
C39 C 0.3672(3) 0.5352(2) 0.0955(7)
C40 C 0.3004(2) 0.5217(2) 0.1167(7)
H57 H 0.3036(2) 0.4944(2) 0.1205(7)
C41 C 0.2585(3) 0.5292(2) -0.0154(7)
H58 H 0.2786(3) 0.5218(2) -0.1065(7)
H59 H 0.2501(3) 0.5557(2) -0.0215(7)
C42 C 0.1983(3) 0.5076(2) 0.0007(8)
H60 H 0.1712(3) 0.5137(2) -0.0807(8)
H61 H 0.2059(3) 0.4810(2) -0.0014(8)
C43 C 0.1697(3) 0.5184(2) 0.1465(8)
C44 C 0.2083(2) 0.5101(2) 0.2801(6)
H62 H 0.2188(2) 0.4836(2) 0.2743(6)
C45 C 0.2702(2) 0.5324(2) 0.2671(6)
C46 C 0.1765(2) 0.5156(2) 0.4277(7)
H63 H 0.1889(2) 0.5345(2) 0.4915(7)
C47 C 0.1230(2) 0.48963(15) 0.4720(7)
H64 H 0.0926(2) 0.49329(15) 0.3940(7)
C48 C 0.0939(2) 0.5048(2) 0.6106(8)
C49 C 0.0828(2) 0.4840(2) 0.7297(8)
H65 H 0.0648(2) 0.4953(2) 0.8113(8)
C50 C 0.0977(3) 0.4434(2) 0.7401(6)
H66 H 0.0672(3) 0.4311(2) 0.8003(6)
H67 H 0.1365(3) 0.4405(2) 0.7894(6)
C51 C 0.0743(3) 0.5448(2) 0.6115(9)
H68 H 0.0852(3) 0.5563(2) 0.5191(9)
H69 H 0.0940(3) 0.5577(2) 0.6917(9)
H70 H 0.0311(3) 0.5461(2) 0.6245(9)
C52 C 0.1163(3) 0.5348(2) 0.1468(9)
H71 H 0.1014(3) 0.5366(2) 0.0469(9)
H72 H 0.1200(3) 0.5593(2) 0.1886(9)
C53 C 0.3951(3) 0.5173(2) -0.0451(8)
H74 H 0.3920(3) 0.4907(2) -0.0384(8)
H75 H 0.4369(3) 0.5243(2) -0.0530(8)
H76 H 0.3735(3) 0.5258(2) -0.1313(8)
C54 C 0.3741(3) 0.5770(2) 0.0737(8)
C55 C 0.2585(3) 0.5741(2) 0.2829(7)
H77 H 0.2323(3) 0.5823(2) 0.2043(7)
H78 H 0.2963(3) 0.5873(2) 0.2776(7)
H79 H 0.2395(3) 0.5790(2) 0.3769(7)
C56 C 0.0210(3) 0.3935(2) 0.2713(6)
H80 H -0.0208(3) 0.4003(2) 0.2960(6)
C57 C 0.0564(2) 0.4302(2) 0.2659(7)
H81 H 0.0374(2) 0.4520(2) 0.2351(7)
C58 C 0.1227(2) 0.4306(2) 0.3115(6)
H82 H 0.1450(2) 0.4451(2) 0.2389(6)
H83 H 0.1379(2) 0.4053(2) 0.3067(6)
C59 C 0.1372(2) 0.44650(15) 0.4688(6)
C60 C 0.1004(2) 0.42460(15) 0.5885(6)
H84 H 0.0586(2) 0.42400(15) 0.5522(6)
C61 C 0.1196(3) 0.3839(2) 0.6043(7)
H85 H 0.1384(3) 0.3760(2) 0.5122(7)
H86 H 0.1500(3) 0.3822(2) 0.6817(7)
C62 C 0.0682(3) 0.3569(2) 0.6410(7)
H87 H 0.0847(3) 0.3319(2) 0.6488(7)
H88 H 0.0514(3) 0.3634(2) 0.7370(7)
C63 C 0.0179(3) 0.3568(2) 0.5275(6)
C64 C 0.0357(3) 0.35783(15) 0.3666(6)
H89 H 0.0792(3) 0.35257(15) 0.3589(6)
C65 C 0.0022(3) 0.3355(2) 0.2462(7)
H90 H -0.0407(3) 0.3323(2) 0.2657(7)
H91 H 0.0213(3) 0.3119(2) 0.2226(7)
C66 C 0.0165(3) 0.3669(2) 0.1328(6)
C67 C 0.0758(3) 0.3612(2) 0.0555(7)
H92 H 0.1065(3) 0.3553(2) 0.1273(7)
H93 H 0.0869(3) 0.3836(2) 0.0037(7)
H94 H 0.0722(3) 0.3411(2) -0.0140(7)
C68 C -0.0329(3) 0.3762(2) 0.0239(8)
H95 H -0.0704(3) 0.3798(2) 0.0762(8)
H96 H -0.0374(3) 0.3561(2) -0.0457(8)
H97 H -0.0226(3) 0.3987(2) -0.0283(8)
C69 C 0.2041(3) 0.4393(2) 0.5041(8)
C70 C -0.0397(3) 0.3557(2) 0.5667(7)
H98 H -0.0647(3) 0.3558(2) 0.4793(7)
H100 H -0.0473(3) 0.3335(2) 0.6227(7)
H23? H -0.0403(3) 0.2559(2) 0.2764(10)
H48? H 0.2232(3) 0.3265(2) -0.2098(10)
H73? H 0.0884(3) 0.5204(2) 0.2052(9)
H99? H -0.0491(3) 0.3771(2) 0.6264(7)
loop_
_geom_bond_atom_site_label_1
_geom_bond_atom_site_label_2
_geom_bond_site_symmetry_1
_geom_bond_site_symmetry_2
O1 C19 1_555 1_555
O2 C19 1_555 1_555
O3 C34 1_555 1_555
O4 C34 1_555 1_555
C1 H1 1_555 1_555
H2 C1 1_555 1_555
C2 C1 1_555 1_555
H3 C2 1_555 1_555
H4 C2 1_555 1_555
C3 C2 1_555 1_555
H5 C3 1_555 1_555
H6 C3 1_555 1_555
C4 C3 1_555 1_555
C5 C4 1_555 1_555
H7 C5 1_555 1_555
C6 C5 1_555 1_555
H8 C6 1_555 1_555
H9 C6 1_555 1_555
C7 C6 1_555 1_555
H10 C7 1_555 1_555
H11 C7 1_555 1_555
C8 C7 1_555 1_555
C9 C8 1_555 1_555
H12 C9 1_555 1_555
C10 C1 1_555 1_555
C11 C9 1_555 1_555
H13 C11 1_555 1_555
C12 C11 1_555 1_555
H14 C12 1_555 1_555
C13 C12 1_555 1_555
C14 C13 1_555 1_555
H15 C14 1_555 1_555
C15 C14 1_555 1_555
H16 C15 1_555 1_555
H17 C15 1_555 1_555
C16 C13 1_555 1_555
H18 C16 1_555 1_555
H19 C16 1_555 1_555
H20 C16 1_555 1_555
C17 C8 1_555 1_555
H21 C17 1_555 1_555
H22 C17 1_555 1_555
C18 C4 1_555 1_555
H24 C18 1_555 1_555
H25 C18 1_555 1_555
H26 C18 1_555 1_555
C19 C4 1_555 1_555
C20 C10 1_555 1_555
H27 C20 1_555 1_555
H28 C20 1_555 1_555
H29 C20 1_555 1_555
C21 H30 1_555 1_555
C22 C21 1_555 1_555
H31 C22 1_555 1_555
H32 C22 1_555 1_555
C23 C22 1_555 1_555
H33 C23 1_555 1_555
C24 C12 1_555 1_555
C25 C15 1_555 1_555
H34 C25 1_555 1_555
C26 C25 1_555 1_555
H35 C26 1_555 1_555
H36 C26 1_555 1_555
C27 C26 1_555 1_555
H37 C27 1_555 1_555
H38 C27 1_555 1_555
C28 C27 1_555 1_555
C29 C21 1_555 1_555
H39 C29 1_555 1_555
C30 C29 1_555 1_555
H40 C30 1_555 1_555
H41 C30 1_555 1_555
C31 C21 1_555 1_555
C32 C31 1_555 1_555
H42 C32 1_555 1_555
H43 C32 1_555 1_555
H44 C32 1_555 1_555
C33 C31 1_555 1_555
H45 C33 1_555 1_555
H46 C33 1_555 1_555
H47 C33 1_555 1_555
C34 C24 1_555 1_555
C35 C28 1_555 1_555
H49 C35 1_555 1_555
H50 C35 1_555 1_555
O5 C54 1_555 1_555
O6 C54 1_555 1_555
O7 C69 1_555 1_555
O8 C69 1_555 1_555
C36 H51 1_555 1_555
H52 C36 1_555 1_555
C37 C36 1_555 1_555
H53 C37 1_555 1_555
H54 C37 1_555 1_555
C38 C37 1_555 1_555
H55 C38 1_555 1_555
H56 C38 1_555 1_555
C39 C38 1_555 1_555
C40 C39 1_555 1_555
H57 C40 1_555 1_555
C41 C40 1_555 1_555
H58 C41 1_555 1_555
H59 C41 1_555 1_555
C42 C41 1_555 1_555
H60 C42 1_555 1_555
H61 C42 1_555 1_555
C43 C42 1_555 1_555
C44 C43 1_555 1_555
H62 C44 1_555 1_555
C45 C36 1_555 1_555
C46 C44 1_555 1_555
H63 C46 1_555 1_555
C47 C46 1_555 1_555
H64 C47 1_555 1_555
C48 C47 1_555 1_555
C49 C48 1_555 1_555
H65 C49 1_555 1_555
C50 C49 1_555 1_555
H66 C50 1_555 1_555
H67 C50 1_555 1_555
C51 C48 1_555 1_555
H68 C51 1_555 1_555
H69 C51 1_555 1_555
H70 C51 1_555 1_555
C52 C43 1_555 1_555
H71 C52 1_555 1_555
H72 C52 1_555 1_555
C53 C39 1_555 1_555
H74 C53 1_555 1_555
H75 C53 1_555 1_555
H76 C53 1_555 1_555
C54 C39 1_555 1_555
C55 C45 1_555 1_555
H77 C55 1_555 1_555
H78 C55 1_555 1_555
H79 C55 1_555 1_555
C56 H80 1_555 1_555
C57 C56 1_555 1_555
H81 C57 1_555 1_555
C58 C57 1_555 1_555
H82 C58 1_555 1_555
H83 C58 1_555 1_555
C59 C47 1_555 1_555
C60 C50 1_555 1_555
H84 C60 1_555 1_555
C61 C60 1_555 1_555
H85 C61 1_555 1_555
H86 C61 1_555 1_555
C62 C61 1_555 1_555
H87 C62 1_555 1_555
H88 C62 1_555 1_555
C63 C62 1_555 1_555
C64 C56 1_555 1_555
H89 C64 1_555 1_555
C65 C64 1_555 1_555
H90 C65 1_555 1_555
H91 C65 1_555 1_555
C66 C56 1_555 1_555
C67 C66 1_555 1_555
H92 C67 1_555 1_555
H93 C67 1_555 1_555
H94 C67 1_555 1_555
C68 C66 1_555 1_555
H95 C68 1_555 1_555
H96 C68 1_555 1_555
H97 C68 1_555 1_555
C69 C59 1_555 1_555
C70 C63 1_555 1_555
H98 C70 1_555 1_555
H100 C70 1_555 1_555
C5 C10 1_555 1_555
C9 C10 1_555 1_555
C23 C24 1_555 1_555
C24 C25 1_555 1_555
C28 C29 1_555 1_555
C30 C31 1_555 1_555
C40 C45 1_555 1_555
C44 C45 1_555 1_555
C58 C59 1_555 1_555
C59 C60 1_555 1_555
C63 C64 1_555 1_555
C65 C66 1_555 1_555

#END
