
#######################################################################
#
#                 Cambridge Crystallographic Data Centre
#                                CCDC 
#
#######################################################################
#
# If this CIF has been generated from an entry in the Cambridge 
# Structural Database, then it will include bibliographic, chemical, 
# crystal, experimental, refinement or atomic coordinate data resulting 
# from the CCDC's data processing and validation procedures.
#
#######################################################################

data_OKEBAJ
_chemical_formula_moiety         'C6 H1 N3 O8 2-,C2 H10 N2 2+'
_chemical_name_systematic        
'ethane-1,2-diaminium 2,4,6-trinitrobenzene-1,3-diolate'
_symmetry_cell_setting           monoclinic
_symmetry_space_group_name_H-M   'P 21/c'
_symmetry_Int_Tables_number      14
_space_group_name_Hall           '-P 2ybc'
loop_
_symmetry_equiv_pos_site_id
_symmetry_equiv_pos_as_xyz
1 x,y,z
2 -x,1/2+y,1/2-z
3 -x,-y,-z
4 x,1/2-y,1/2+z
_cell_length_a                   8.1156(3)
_cell_length_b                   8.0128(3)
_cell_length_c                   18.7733(7)
_cell_angle_alpha                90
_cell_angle_beta                 93.0810(10)
_cell_angle_gamma                90
_cell_volume                     1219.04
_exptl_crystal_colour            colorless
_exptl_crystal_description       block
_cell_formula_units_Z            4
loop_
_atom_site_label
_atom_site_type_symbol
_atom_site_fract_x
_atom_site_fract_y
_atom_site_fract_z
C1 C 0.8416(3) 0.1519(3) 0.40001(12)
C2 C 0.9891(3) 0.2437(3) 0.38557(12)
C3 C 1.0833(3) 0.2910(3) 0.44833(12)
C4 C 1.0437(3) 0.2652(3) 0.52013(12)
C5 C 0.8908(3) 0.1764(3) 0.52687(12)
C6 C 0.7955(3) 0.1228(3) 0.46844(13)
H1 H 0.6978 0.0657 0.4753
N1 N 0.7396(3) 0.0824(3) 0.34277(12)
N2 N 1.2333(3) 0.3808(3) 0.43693(12)
N3 N 0.8308(3) 0.1396(3) 0.59581(11)
O1 O 0.6266(3) -0.0076(4) 0.35565(14)
O2 O 0.7663(4) 0.1144(7) 0.28207(13)
O3 O 1.2257(3) 0.5017(3) 0.39502(16)
O4 O 1.3605(3) 0.3421(5) 0.46765(13)
O5 O 0.6839(3) 0.1016(3) 0.59915(12)
O6 O 0.9252(3) 0.1428(3) 0.64905(10)
O7 O 1.0329(2) 0.2773(2) 0.32390(9)
O8 O 1.1300(2) 0.3232(3) 0.57239(9)
C7 C 0.4126(4) 0.4762(4) 0.68333(16)
H2 H 0.3659 0.5816 0.6668
H3 H 0.5185 0.4993 0.7078
C8 C 0.3005(4) 0.3991(5) 0.73511(14)
H4 H 0.3275 0.2817 0.7402
H5 H 0.3210 0.4514 0.7814
N4 N 0.4388(3) 0.3683(3) 0.62073(12)
H6 H 0.4791 0.2702 0.6355
H7 H 0.5100 0.4172 0.5929
H8 H 0.3432 0.3527 0.5962
N5 N 0.1223(3) 0.4152(3) 0.71374(11)
H9 H 0.0948 0.5227 0.7118
H10 H 0.0629 0.3636 0.7456
H11 H 0.1025 0.3689 0.6710
loop_
_geom_bond_atom_site_label_1
_geom_bond_atom_site_label_2
_geom_bond_site_symmetry_1
_geom_bond_site_symmetry_2
C1 C2 1_555 1_555
C2 C3 1_555 1_555
C3 C4 1_555 1_555
C4 C5 1_555 1_555
C5 C6 1_555 1_555
C6 C1 1_555 1_555
H1 C6 1_555 1_555
N1 C1 1_555 1_555
N2 C3 1_555 1_555
N3 C5 1_555 1_555
O1 N1 1_555 1_555
O2 N1 1_555 1_555
O3 N2 1_555 1_555
O4 N2 1_555 1_555
O5 N3 1_555 1_555
O6 N3 1_555 1_555
O7 C2 1_555 1_555
O8 C4 1_555 1_555
C7 H2 1_555 1_555
H3 C7 1_555 1_555
C8 C7 1_555 1_555
H4 C8 1_555 1_555
H5 C8 1_555 1_555
N4 C7 1_555 1_555
H6 N4 1_555 1_555
H7 N4 1_555 1_555
H8 N4 1_555 1_555
N5 C8 1_555 1_555
H9 N5 1_555 1_555
H10 N5 1_555 1_555
H11 N5 1_555 1_555

#END
