
#######################################################################
#
#                 Cambridge Crystallographic Data Centre
#                                CCDC 
#
#######################################################################
#
# If this CIF has been generated from an entry in the Cambridge 
# Structural Database, then it will include bibliographic, chemical, 
# crystal, experimental, refinement or atomic coordinate data resulting 
# from the CCDC's data processing and validation procedures.
#
#######################################################################

data_OKEHAO
_chemical_formula_moiety         'C27 H26 F1 N1 O4 S1'
_chemical_name_systematic        
4-(1-Fluoro-2,2-bis(4-methoxyphenyl)vinyl)-1-(phenylsulfonyl)-1,2,3,6-tetrahydropyridine
_symmetry_cell_setting           monoclinic
_symmetry_space_group_name_H-M   'P 21/c'
_symmetry_Int_Tables_number      14
_space_group_name_Hall           '-P 2ybc'
loop_
_symmetry_equiv_pos_site_id
_symmetry_equiv_pos_as_xyz
1 x,y,z
2 -x,1/2+y,1/2-z
3 -x,-y,-z
4 x,1/2-y,1/2+z
_cell_length_a                   13.7496(4)
_cell_length_b                   15.9741(4)
_cell_length_c                   11.1119(3)
_cell_angle_alpha                90
_cell_angle_beta                 94.5770(10)
_cell_angle_gamma                90
_cell_volume                     2432.81
_exptl_crystal_colour            colorless
_exptl_crystal_description       tabular
_cell_formula_units_Z            4
loop_
_atom_site_label
_atom_site_type_symbol
_atom_site_fract_x
_atom_site_fract_y
_atom_site_fract_z
C1 C 0.80871(13) 0.20880(13) 0.09331(17)
H1 H 0.8554 0.1790 0.0482
H2 H 0.8314 0.2659 0.1050
C2 C 0.71156(13) 0.20890(11) 0.02345(16)
H3 H 0.7062 0.2385 -0.0488
C3 C 0.63149(12) 0.17011(10) 0.05567(14)
C4 C 0.63860(12) 0.11690(11) 0.16844(14)
H4 H 0.6135 0.1480 0.2343
H5 H 0.5990 0.0670 0.1548
C5 C 0.74293(12) 0.09208(11) 0.20247(16)
H6 H 0.7477 0.0630 0.2793
H7 H 0.7659 0.0549 0.1418
C6 C 0.54021(12) 0.17473(10) -0.02207(14)
C7 C 0.44937(12) 0.14748(10) -0.00890(14)
C8 C 0.37146(12) 0.15014(10) -0.11041(14)
C9 C 0.38512(12) 0.11939(11) -0.22448(15)
H8 H 0.4457 0.0976 -0.2396
C10 C 0.31076(13) 0.12021(11) -0.31676(16)
H9 H 0.3214 0.0988 -0.3924
C11 C 0.22104(13) 0.15309(12) -0.29511(16)
C12 C 0.20548(14) 0.18343(13) -0.18153(18)
H10 H 0.1449 0.2053 -0.1667
C13 C 0.27951(13) 0.18125(12) -0.09043(16)
H11 H 0.2679 0.2009 -0.0141
C14 C 0.42021(11) 0.11151(10) 0.10634(14)
C15 C 0.39060(12) 0.02884(11) 0.11093(15)
H12 H 0.3850 -0.0023 0.0400
C16 C 0.36918(14) -0.00876(12) 0.21733(17)
H13 H 0.3505 -0.0647 0.2182
C17 C 0.37575(15) 0.03757(13) 0.32245(17)
C18 C 0.39988(15) 0.12145(13) 0.31861(17)
H14 H 0.4016 0.1534 0.3887
C19 C 0.42140(13) 0.15799(11) 0.21214(15)
H15 H 0.4370 0.2146 0.2108
C20 C 0.15098(18) 0.11962(18) -0.4931(2)
H16 H 0.2017 0.1466 -0.5333
H17 H 0.0902 0.1250 -0.5413
H18 H 0.1665 0.0614 -0.4818
C21 C 0.3444(3) -0.0814(2) 0.4443(3)
H19 H 0.2855 -0.0969 0.3973
H20 H 0.3388 -0.0955 0.5274
H21 H 0.3985 -0.1110 0.4151
C22 C 0.98298(12) 0.09719(11) 0.23933(16)
C23 C 0.97779(16) 0.01367(13) 0.2652(2)
H22 H 0.9325 -0.0056 0.3165
C24 C 1.0398(2) -0.04197(17) 0.2151(3)
H23 H 1.0364 -0.0987 0.2329
C25 C 1.1049(2) -0.0141(2) 0.1407(3)
H24 H 1.1464 -0.0520 0.1070
C26 C 1.1112(2) 0.0690(3) 0.1136(3)
H25 H 1.1566 0.0873 0.0618
C27 C 1.04994(16) 0.12626(16) 0.1631(2)
H26 H 1.0539 0.1830 0.1454
F1 F 0.55575(8) 0.21236(7) -0.13013(9)
N1 N 0.80247(10) 0.16856(9) 0.21108(13)
O1 O 0.14290(11) 0.15788(10) -0.37918(13)
O2 O 0.35968(15) 0.00608(11) 0.43388(14)
O3 O 0.94259(11) 0.24889(9) 0.30101(15)
O4 O 0.87568(10) 0.13180(10) 0.41330(11)
S1 S 0.90202(3) 0.16684(3) 0.30226(4)
loop_
_geom_bond_atom_site_label_1
_geom_bond_atom_site_label_2
_geom_bond_site_symmetry_1
_geom_bond_site_symmetry_2
C1 H1 1_555 1_555
H2 C1 1_555 1_555
C2 C1 1_555 1_555
H3 C2 1_555 1_555
C3 C2 1_555 1_555
C4 C3 1_555 1_555
H4 C4 1_555 1_555
H5 C4 1_555 1_555
C5 C4 1_555 1_555
H6 C5 1_555 1_555
H7 C5 1_555 1_555
C6 C3 1_555 1_555
C7 C6 1_555 1_555
C8 C7 1_555 1_555
C9 C8 1_555 1_555
H8 C9 1_555 1_555
C10 C9 1_555 1_555
H9 C10 1_555 1_555
C11 C10 1_555 1_555
C12 C11 1_555 1_555
H10 C12 1_555 1_555
C13 C8 1_555 1_555
H11 C13 1_555 1_555
C14 C7 1_555 1_555
C15 C14 1_555 1_555
H12 C15 1_555 1_555
C16 C15 1_555 1_555
H13 C16 1_555 1_555
C17 C16 1_555 1_555
C18 C17 1_555 1_555
H14 C18 1_555 1_555
C19 C14 1_555 1_555
H15 C19 1_555 1_555
C20 H16 1_555 1_555
H17 C20 1_555 1_555
H18 C20 1_555 1_555
C21 H19 1_555 1_555
H20 C21 1_555 1_555
H21 C21 1_555 1_555
C22 C23 1_555 1_555
C23 H22 1_555 1_555
C24 C23 1_555 1_555
H23 C24 1_555 1_555
C25 C24 1_555 1_555
H24 C25 1_555 1_555
C26 C25 1_555 1_555
H25 C26 1_555 1_555
C27 C22 1_555 1_555
H26 C27 1_555 1_555
F1 C6 1_555 1_555
N1 C1 1_555 1_555
O1 C11 1_555 1_555
O2 C17 1_555 1_555
O3 S1 1_555 1_555
O4 S1 1_555 1_555
S1 C22 1_555 1_555
C5 N1 1_555 1_555
C12 C13 1_555 1_555
C18 C19 1_555 1_555
C20 O1 1_555 1_555
C21 O2 1_555 1_555
C26 C27 1_555 1_555
N1 S1 1_555 1_555

#END
