
#######################################################################
#
#                 Cambridge Crystallographic Data Centre
#                                CCDC 
#
#######################################################################
#
# If this CIF has been generated from an entry in the Cambridge 
# Structural Database, then it will include bibliographic, chemical, 
# crystal, experimental, refinement or atomic coordinate data resulting 
# from the CCDC's data processing and validation procedures.
#
#######################################################################

data_OKIDET01
_chemical_formula_moiety         'C26 H20'
_chemical_name_systematic        (M)-(triphenylvinyl)benzene
_symmetry_cell_setting           monoclinic
_symmetry_space_group_name_H-M   'P 21'
_symmetry_Int_Tables_number      4
_space_group_name_Hall           'P 2yb'
loop_
_symmetry_equiv_pos_site_id
_symmetry_equiv_pos_as_xyz
1 x,y,z
2 -x,1/2+y,-z
_cell_length_a                   9.790(2)
_cell_length_b                   9.1960(18)
_cell_length_c                   10.782(2)
_cell_angle_alpha                90
_cell_angle_beta                 107.98(3)
_cell_angle_gamma                90
_cell_volume                     923.287
_exptl_crystal_colour            colorless
_exptl_crystal_description       Block
_cell_formula_units_Z            2
loop_
_atom_site_label
_atom_site_type_symbol
_atom_site_fract_x
_atom_site_fract_y
_atom_site_fract_z
C1 C 0.02173(14) 0.49802(15) 0.29439(13)
H1 H -0.0092 0.5752 0.2336
C2 C -0.07196(14) 0.44150(16) 0.35642(14)
H2 H -0.1662 0.4799 0.3378
C3 C -0.02731(16) 0.32879(18) 0.44573(14)
H3 H -0.0905 0.2909 0.4892
C4 C 0.10999(16) 0.27182(17) 0.47120(14)
H4 H 0.1402 0.1942 0.5317
C5 C 0.20361(14) 0.32749(15) 0.40892(13)
H5 H 0.2970 0.2872 0.4266
C6 C 0.16106(13) 0.44247(14) 0.32039(12)
C7 C 0.25752(13) 0.50033(14) 0.24888(12)
C8 C 0.18969(13) 0.51913(14) 0.10530(12)
C9 C 0.21022(14) 0.64494(16) 0.04019(14)
H6 H 0.2663 0.7225 0.0882
C10 C 0.14912(16) 0.65758(18) -0.09443(15)
H7 H 0.1652 0.7429 -0.1377
C11 C 0.06509(16) 0.5464(2) -0.16558(14)
H8 H 0.0244 0.5550 -0.2574
C12 C 0.04069(16) 0.42237(18) -0.10182(15)
H9 H -0.0179 0.3465 -0.1501
C13 C 0.10209(15) 0.40884(16) 0.03309(14)
H10 H 0.0842 0.3241 0.0761
C14 C 0.41162(17) 0.59126(17) 0.53999(14)
H11 H 0.3194 0.6352 0.5098
C15 C 0.4870(2) 0.5911(2) 0.67332(15)
H12 H 0.4457 0.6351 0.7330
C16 C 0.6213(2) 0.5273(2) 0.71900(14)
H13 H 0.6723 0.5283 0.8096
C17 C 0.68109(17) 0.4620(2) 0.63204(15)
H14 H 0.7724 0.4164 0.6631
C18 C 0.60706(15) 0.46341(16) 0.49918(13)
H15 H 0.6497 0.4202 0.4401
C19 C 0.47099(13) 0.52722(14) 0.45086(12)
C20 C 0.39904(13) 0.52930(14) 0.30729(12)
C21 C 0.49645(13) 0.56335(14) 0.22826(12)
C22 C 0.57506(14) 0.69293(15) 0.24887(13)
H16 H 0.5689 0.7581 0.3153
C23 C 0.66242(15) 0.72700(17) 0.17255(14)
H17 H 0.7139 0.8162 0.1858
C24 C 0.67446(16) 0.63035(18) 0.07671(14)
H18 H 0.7338 0.6537 0.0245
C25 C 0.59907(16) 0.49933(17) 0.05780(13)
H19 H 0.6082 0.4326 -0.0065
C26 C 0.51058(14) 0.46631(15) 0.13292(12)
H20 H 0.4592 0.3771 0.1194
loop_
_geom_bond_atom_site_label_1
_geom_bond_atom_site_label_2
_geom_bond_site_symmetry_1
_geom_bond_site_symmetry_2
C1 H1 1_555 1_555
C2 C1 1_555 1_555
H2 C2 1_555 1_555
C3 C2 1_555 1_555
H3 C3 1_555 1_555
C4 C3 1_555 1_555
H4 C4 1_555 1_555
C5 C4 1_555 1_555
H5 C5 1_555 1_555
C6 C1 1_555 1_555
C7 C6 1_555 1_555
C8 C7 1_555 1_555
C9 C8 1_555 1_555
H6 C9 1_555 1_555
C10 C9 1_555 1_555
H7 C10 1_555 1_555
C11 C10 1_555 1_555
H8 C11 1_555 1_555
C12 C11 1_555 1_555
H9 C12 1_555 1_555
C13 C8 1_555 1_555
H10 C13 1_555 1_555
C14 H11 1_555 1_555
C15 C14 1_555 1_555
H12 C15 1_555 1_555
C16 C15 1_555 1_555
H13 C16 1_555 1_555
C17 C16 1_555 1_555
H14 C17 1_555 1_555
C18 C17 1_555 1_555
H15 C18 1_555 1_555
C19 C14 1_555 1_555
C20 C7 1_555 1_555
C21 C20 1_555 1_555
C22 C21 1_555 1_555
H16 C22 1_555 1_555
C23 C22 1_555 1_555
H17 C23 1_555 1_555
C24 C23 1_555 1_555
H18 C24 1_555 1_555
C25 C24 1_555 1_555
H19 C25 1_555 1_555
C26 C21 1_555 1_555
H20 C26 1_555 1_555
C5 C6 1_555 1_555
C12 C13 1_555 1_555
C18 C19 1_555 1_555
C19 C20 1_555 1_555
C25 C26 1_555 1_555

#END
