
#######################################################################
#
#                 Cambridge Crystallographic Data Centre
#                                CCDC 
#
#######################################################################
#
# If this CIF has been generated from an entry in the Cambridge 
# Structural Database, then it will include bibliographic, chemical, 
# crystal, experimental, refinement or atomic coordinate data resulting 
# from the CCDC's data processing and validation procedures.
#
#######################################################################

data_OKIKOK
_chemical_formula_moiety         'C15 H20 O4'
_chemical_name_systematic        
'4-(4-hydroxy-5,5-dimethyl-3-oxocyclopent-1-en-1-yl)-4-methylcyclohex-1-ene-1-carboxylic acid'
_symmetry_cell_setting           monoclinic
_symmetry_space_group_name_H-M   'P 21'
_symmetry_Int_Tables_number      4
_space_group_name_Hall           'P 2yb'
loop_
_symmetry_equiv_pos_site_id
_symmetry_equiv_pos_as_xyz
1 x,y,z
2 -x,1/2+y,-z
_cell_length_a                   6.66440(10)
_cell_length_b                   16.8342(3)
_cell_length_c                   12.1712(2)
_cell_angle_alpha                90
_cell_angle_beta                 94.3240(10)
_cell_angle_gamma                90
_cell_volume                     1361.6
_exptl_crystal_colour            colorless
_exptl_crystal_description       block
_cell_formula_units_Z            4
_exptl_crystal_recrystallization_method methanol/water
loop_
_atom_site_label
_atom_site_type_symbol
_atom_site_fract_x
_atom_site_fract_y
_atom_site_fract_z
O1 O 0.6483(5) 0.57881(19) -0.1012(2)
H1 H 0.6100 0.6260 -0.0953
O2 O 0.6576(4) 0.59348(15) 0.13616(18)
O3 O 0.5612(3) 0.21445(14) 0.0979(2)
O4 O 0.6713(4) 0.17605(17) -0.06290(19)
H2 H 0.5705 0.1460 -0.0641
C1 C 1.0065(4) 0.45589(17) 0.0518(2)
C2 C 0.9400(4) 0.49203(18) -0.0618(2)
C3 C 0.8212(5) 0.56605(19) -0.0304(3)
H3 H 0.9109 0.6133 -0.0356
C4 C 0.7825(5) 0.55488(19) 0.0888(2)
C5 C 0.9119(5) 0.4919(2) 0.1326(2)
H4 H 0.9284 0.4776 0.2082
C6 C 1.1617(4) 0.39023(18) 0.0736(2)
C7 C 1.1709(4) 0.3302(2) -0.0217(2)
H5 H 1.1766 0.3597 -0.0918
H6 H 1.2959 0.2986 -0.0101
C8 C 0.9947(4) 0.27523(18) -0.0311(2)
H7 H 0.9665 0.2476 -0.0986
C9 C 0.8748(4) 0.26269(17) 0.0500(2)
C10 C 0.9139(5) 0.29935(19) 0.1625(2)
H8 H 0.9088 0.2574 0.2192
H9 H 0.8068 0.3385 0.1745
C11 C 1.1178(4) 0.34052(19) 0.1753(2)
H10 H 1.2244 0.2999 0.1884
H11 H 1.1222 0.3756 0.2407
C12 C 1.1129(5) 0.5173(2) -0.1298(3)
H12 H 1.2064 0.5512 -0.0850
H13 H 1.0591 0.5468 -0.1949
H14 H 1.1842 0.4700 -0.1533
C13 C 0.7962(5) 0.4362(2) -0.1300(2)
H15 H 0.7350 0.4649 -0.1941
H16 H 0.6905 0.4177 -0.0844
H17 H 0.8717 0.3905 -0.1549
C14 C 1.3684(5) 0.4303(2) 0.0955(3)
H18 H 1.3998 0.4609 0.0304
H19 H 1.4717 0.3895 0.1109
H20 H 1.3654 0.4659 0.1590
C15 C 0.6886(5) 0.21534(18) 0.0312(2)
O5 O 0.8744(3) 0.35271(15) 0.63276(17)
H21 H 0.9196 0.3983 0.6213
O6 O 0.8159(3) 0.37725(14) 0.39697(18)
O7 O 0.9131(3) -0.00881(15) 0.40334(18)
O8 O 0.8387(4) -0.04678(17) 0.56992(19)
H22 H 0.9490 -0.0707 0.5682
C16 C 0.4881(4) 0.23598(17) 0.4916(2)
C17 C 0.5700(4) 0.26853(18) 0.6051(2)
C18 C 0.6888(4) 0.34312(18) 0.5729(2)
H23 H 0.6048 0.3907 0.5871
C19 C 0.7025(4) 0.33683(18) 0.4493(2)
C20 C 0.5667(4) 0.27558(18) 0.4092(2)
H24 H 0.5359 0.2643 0.3333
C21 C 0.3303(4) 0.17075(17) 0.4712(2)
C22 C 0.3332(4) 0.10646(18) 0.5609(2)
H25 H 0.3367 0.1325 0.6340
H26 H 0.2073 0.0752 0.5512
C23 C 0.5087(4) 0.05123(18) 0.5589(2)
H27 H 0.5452 0.0207 0.6230
C24 C 0.6168(4) 0.04263(18) 0.4714(2)
C25 C 0.5645(4) 0.08466(17) 0.3635(2)
H28 H 0.5609 0.0456 0.3026
H29 H 0.6701 0.1243 0.3508
C26 C 0.3613(4) 0.12636(18) 0.3628(2)
H30 H 0.2530 0.0865 0.3496
H31 H 0.3495 0.1648 0.3011
C27 C 0.4059(5) 0.2932(2) 0.6805(3)
H32 H 0.3313 0.2461 0.7014
H33 H 0.3133 0.3306 0.6413
H34 H 0.4684 0.3187 0.7469
C28 C 0.7134(4) 0.2092(2) 0.6667(2)
H35 H 0.7901 0.2364 0.7274
H36 H 0.8063 0.1875 0.6157
H37 H 0.6351 0.1659 0.6962
C29 C 0.1224(4) 0.2116(2) 0.4601(2)
H38 H 0.0964 0.2369 0.5301
H39 H 0.0180 0.1719 0.4410
H40 H 0.1207 0.2520 0.4020
C30 C 0.8013(4) -0.00678(18) 0.4775(2)
loop_
_geom_bond_atom_site_label_1
_geom_bond_atom_site_label_2
_geom_bond_site_symmetry_1
_geom_bond_site_symmetry_2
O1 H1 1_555 1_555
O2 C4 1_555 1_555
O3 C15 1_555 1_555
O4 H2 1_555 1_555
C1 C2 1_555 1_555
C2 C3 1_555 1_555
C3 O1 1_555 1_555
H3 C3 1_555 1_555
C4 C3 1_555 1_555
C5 C1 1_555 1_555
H4 C5 1_555 1_555
C6 C1 1_555 1_555
C7 C6 1_555 1_555
H5 C7 1_555 1_555
H6 C7 1_555 1_555
C8 C7 1_555 1_555
H7 C8 1_555 1_555
C9 C8 1_555 1_555
C10 C9 1_555 1_555
H8 C10 1_555 1_555
H9 C10 1_555 1_555
C11 C6 1_555 1_555
H10 C11 1_555 1_555
H11 C11 1_555 1_555
C12 C2 1_555 1_555
H12 C12 1_555 1_555
H13 C12 1_555 1_555
H14 C12 1_555 1_555
C13 C2 1_555 1_555
H15 C13 1_555 1_555
H16 C13 1_555 1_555
H17 C13 1_555 1_555
C14 C6 1_555 1_555
H18 C14 1_555 1_555
H19 C14 1_555 1_555
H20 C14 1_555 1_555
C15 O4 1_555 1_555
O5 H21 1_555 1_555
O6 C19 1_555 1_555
O7 C30 1_555 1_555
O8 H22 1_555 1_555
C16 C17 1_555 1_555
C17 C18 1_555 1_555
C18 O5 1_555 1_555
H23 C18 1_555 1_555
C19 C18 1_555 1_555
C20 C16 1_555 1_555
H24 C20 1_555 1_555
C21 C16 1_555 1_555
C22 C21 1_555 1_555
H25 C22 1_555 1_555
H26 C22 1_555 1_555
C23 C22 1_555 1_555
H27 C23 1_555 1_555
C24 C23 1_555 1_555
C25 C24 1_555 1_555
H28 C25 1_555 1_555
H29 C25 1_555 1_555
C26 C21 1_555 1_555
H30 C26 1_555 1_555
H31 C26 1_555 1_555
C27 C17 1_555 1_555
H32 C27 1_555 1_555
H33 C27 1_555 1_555
H34 C27 1_555 1_555
C28 C17 1_555 1_555
H35 C28 1_555 1_555
H36 C28 1_555 1_555
H37 C28 1_555 1_555
C29 C21 1_555 1_555
H38 C29 1_555 1_555
H39 C29 1_555 1_555
H40 C29 1_555 1_555
C30 O8 1_555 1_555
C4 C5 1_555 1_555
C9 C15 1_555 1_555
C10 C11 1_555 1_555
C19 C20 1_555 1_555
C24 C30 1_555 1_555
C25 C26 1_555 1_555

#END
