
#######################################################################
#
#                 Cambridge Crystallographic Data Centre
#                                CCDC 
#
#######################################################################
#
# If this CIF has been generated from an entry in the Cambridge 
# Structural Database, then it will include bibliographic, chemical, 
# crystal, experimental, refinement or atomic coordinate data resulting 
# from the CCDC's data processing and validation procedures.
#
#######################################################################

data_OKOMEH
_chemical_formula_moiety         'C16 H16 N2 O2'
_chemical_name_systematic        
8-Hydroxy-1,8-dimethyl-3-phenyl-1,4-diazaspiro[4.5]deca-3,6,9-trien-2-one
_symmetry_cell_setting           monoclinic
_symmetry_space_group_name_H-M   'P 21'
_symmetry_Int_Tables_number      4
_space_group_name_Hall           'P 2yb'
loop_
_symmetry_equiv_pos_site_id
_symmetry_equiv_pos_as_xyz
1 x,y,z
2 -x,1/2+y,-z
_cell_length_a                   12.95950(10)
_cell_length_b                   16.0569(2)
_cell_length_c                   13.3906(2)
_cell_angle_alpha                90
_cell_angle_beta                 92.7640(10)
_cell_angle_gamma                90
_cell_volume                     2783.2
_exptl_crystal_colour            colorless
_exptl_crystal_description       plate
_cell_formula_units_Z            8
loop_
_atom_site_label
_atom_site_type_symbol
_atom_site_fract_x
_atom_site_fract_y
_atom_site_fract_z
C1 C 0.12304(17) 0.35500(17) 1.35780(18)
H1 H 0.1146 0.3058 1.4000
H2 H 0.0588 0.3653 1.3181
H3 H 0.1393 0.4035 1.4001
C2 C 0.21120(16) 0.33993(15) 1.28781(16)
C3 C 0.21853(17) 0.41248(15) 1.21697(17)
H4 H 0.2409 0.4646 1.2437
C4 C 0.19558(17) 0.40771(15) 1.11951(17)
H5 H 0.2003 0.4569 1.0805
C5 C 0.16246(15) 0.32828(14) 1.06754(16)
C6 C 0.17214(16) 0.25358(14) 1.13513(17)
H6 H 0.1627 0.1998 1.1066
C7 C 0.19321(17) 0.25943(14) 1.23257(17)
H7 H 0.1972 0.2093 1.2702
C8 C -0.03410(17) 0.35057(18) 1.08274(19)
H8 H -0.0903 0.3724 1.0386
H9 H -0.0166 0.3914 1.1352
H10 H -0.0562 0.2985 1.1133
C9 C 0.05194(16) 0.32465(14) 0.92546(17)
C10 C 0.16388(15) 0.31287(13) 0.90087(16)
C11 C 0.19836(15) 0.30471(14) 0.79853(16)
C12 C 0.29610(16) 0.33361(15) 0.77600(17)
H11 H 0.3414 0.3551 0.8277
C13 C 0.32722(18) 0.33105(16) 0.67884(18)
H12 H 0.3934 0.3518 0.6639
C14 C 0.26276(18) 0.29854(17) 0.60305(18)
H13 H 0.2841 0.2977 0.5362
C15 C 0.16663(19) 0.26723(16) 0.62544(18)
H14 H 0.1233 0.2430 0.5741
C16 C 0.13363(18) 0.27122(15) 0.72228(17)
H15 H 0.0670 0.2512 0.7368
N1 N 0.22504(13) 0.31521(12) 0.97921(14)
N2 N 0.05586(13) 0.33498(13) 1.02511(14)
O1 O 0.30200(12) 0.33400(12) 1.35281(12)
H61 H 0.3539 0.3271 1.3185
O2 O -0.02455(12) 0.32635(11) 0.86770(12)
C17 C 0.36943(17) 0.0734(2) 0.69709(18)
H16 H 0.3725 0.0255 0.7425
H17 H 0.3058 0.0707 0.6546
H18 H 0.3702 0.1250 0.7362
C18 C 0.46306(16) 0.07182(17) 0.63134(16)
C19 C 0.46255(18) -0.00731(17) 0.57225(18)
H19 H 0.4776 -0.0578 0.6070
C20 C 0.44230(18) -0.01116(15) 0.47415(18)
H20 H 0.4418 -0.0641 0.4424
C21 C 0.42010(15) 0.06510(15) 0.41121(15)
C22 C 0.44054(16) 0.14522(15) 0.46689(17)
H21 H 0.4393 0.1961 0.4307
C23 C 0.46022(17) 0.14708(16) 0.56511(18)
H22 H 0.4734 0.1997 0.5955
C24 C 0.22275(16) 0.06529(17) 0.42993(17)
H23 H 0.1600 0.0625 0.3862
H24 H 0.2227 0.1171 0.4687
H25 H 0.2247 0.0176 0.4756
C25 C 0.30950(15) 0.06059(14) 0.26940(16)
C26 C 0.42212(15) 0.06154(14) 0.24415(15)
C27 C 0.45741(16) 0.05838(14) 0.14179(16)
C28 C 0.39820(18) 0.09229(15) 0.06220(17)
H26 H 0.3340 0.1183 0.0737
C29 C 0.4335(2) 0.08788(17) -0.03429(18)
H27 H 0.3937 0.1119 -0.0884
C30 C 0.5260(2) 0.04876(18) -0.05194(19)
H28 H 0.5490 0.0448 -0.1181
C31 C 0.5854(2) 0.01530(17) 0.02787(19)
H29 H 0.6491 -0.0113 0.0158
C32 C 0.55237(17) 0.02047(15) 0.12464(18)
H30 H 0.5938 -0.0015 0.1789
N3 N 0.48309(13) 0.06300(13) 0.32277(13)
N4 N 0.31269(12) 0.06340(13) 0.36972(13)
O3 O 0.55074(12) 0.07524(14) 0.70041(12)
H62 H 0.6048 0.0799 0.6687
O4 O 0.23335(11) 0.05692(11) 0.21128(12)
C33 C 0.59217(17) 0.3014(2) -0.20314(19)
H31 H 0.5925 0.3506 -0.2463
H32 H 0.5311 0.3028 -0.1628
H33 H 0.5904 0.2510 -0.2445
C34 C 0.69030(15) 0.30084(16) -0.13374(16)
C35 C 0.68965(17) 0.22498(15) -0.06842(18)
H34 H 0.6976 0.1722 -0.0993
C36 C 0.67872(17) 0.22657(14) 0.02951(18)
H35 H 0.6796 0.1753 0.0649
C37 C 0.66501(15) 0.30583(14) 0.08695(16)
C38 C 0.68223(16) 0.38234(14) 0.02496(17)
H36 H 0.6836 0.4351 0.0572
C39 C 0.69550(16) 0.37947(14) -0.07242(18)
H37 H 0.7092 0.4303 -0.1057
C40 C 0.46534(16) 0.30720(17) 0.06857(18)
H38 H 0.4070 0.3038 0.1124
H39 H 0.4638 0.2592 0.0232
H40 H 0.4603 0.3587 0.0294
C41 C 0.56857(16) 0.30575(15) 0.22919(17)
C42 C 0.68343(15) 0.30783(14) 0.25401(16)
C43 C 0.72950(16) 0.31419(14) 0.35640(16)
C44 C 0.82331(17) 0.35636(14) 0.37192(17)
H41 H 0.8561 0.3799 0.3166
C45 C 0.86853(18) 0.36401(16) 0.46677(19)
H42 H 0.9317 0.3936 0.4767
C46 C 0.8220(2) 0.32863(17) 0.54800(19)
H43 H 0.8532 0.3338 0.6134
C47 C 0.7291(2) 0.28548(16) 0.53284(19)
H44 H 0.6977 0.2603 0.5880
C48 C 0.68227(18) 0.27917(16) 0.43808(18)
H45 H 0.6181 0.2510 0.4286
N5 N 0.73648(13) 0.30760(13) 0.17605(14)
N6 N 0.56173(13) 0.30694(13) 0.12895(14)
O5 O 0.77390(12) 0.29741(13) -0.20012(12)
H63 H 0.8299 0.3067 -0.1678
O6 O 0.49785(12) 0.30457(12) 0.28710(12)
C49 C 0.84819(17) 0.05686(19) 0.14352(18)
H46 H 0.8452 0.1041 0.0971
H47 H 0.7866 0.0570 0.1832
H48 H 0.8509 0.0048 0.1056
C50 C 0.94492(15) 0.06423(16) 0.21323(16)
C51 C 0.95131(16) -0.01059(14) 0.28073(17)
H49 H 0.9665 -0.0630 0.2521
C52 C 0.93690(16) -0.00753(14) 0.37797(17)
H50 H 0.9393 -0.0582 0.4146
C53 C 0.91697(15) 0.07191(14) 0.43341(16)
C54 C 0.92951(17) 0.14822(14) 0.36938(18)
H51 H 0.9285 0.2015 0.4002
C55 C 0.94184(17) 0.14379(15) 0.27176(18)
H52 H 0.9492 0.1946 0.2364
C56 C 0.71819(16) 0.06220(18) 0.41209(18)
H53 H 0.6588 0.0654 0.4546
H54 H 0.7182 0.0081 0.3782
H55 H 0.7136 0.1068 0.3622
C57 C 0.81823(16) 0.07985(14) 0.57325(17)
C58 C 0.93312(15) 0.08273(14) 0.60063(16)
C59 C 0.97765(16) 0.08563(14) 0.70328(16)
C60 C 1.07850(17) 0.05651(15) 0.72278(17)
H56 H 1.1175 0.0365 0.6695
C61 C 1.12152(19) 0.05677(17) 0.81958(18)
H57 H 1.1896 0.0363 0.8327
C62 C 1.0650(2) 0.08696(17) 0.89769(18)
H58 H 1.0942 0.0866 0.9641
C63 C 0.9662(2) 0.11750(17) 0.87840(19)
H59 H 0.9284 0.1391 0.9317
C64 C 0.92158(18) 0.11694(16) 0.78169(18)
H60 H 0.8535 0.1377 0.7691
N7 N 0.98742(13) 0.07775(12) 0.52271(13)
N8 N 0.81321(13) 0.07141(13) 0.47350(14)
O7 O 1.02901(12) 0.06567(13) 0.14731(12)
H64 H 1.0851 0.0600 0.1808
O8 O 0.74595(12) 0.08236(11) 0.62964(13)
loop_
_geom_bond_atom_site_label_1
_geom_bond_atom_site_label_2
_geom_bond_site_symmetry_1
_geom_bond_site_symmetry_2
C1 H1 1_555 1_555
H2 C1 1_555 1_555
H3 C1 1_555 1_555
C2 C1 1_555 1_555
C3 C2 1_555 1_555
H4 C3 1_555 1_555
C4 C3 1_555 1_555
H5 C4 1_555 1_555
C5 C4 1_555 1_555
C6 C5 1_555 1_555
H6 C6 1_555 1_555
C7 C2 1_555 1_555
H7 C7 1_555 1_555
C8 H8 1_555 1_555
H9 C8 1_555 1_555
H10 C8 1_555 1_555
C9 C10 1_555 1_555
C10 C11 1_555 1_555
C11 C12 1_555 1_555
C12 H11 1_555 1_555
C13 C12 1_555 1_555
H12 C13 1_555 1_555
C14 C13 1_555 1_555
H13 C14 1_555 1_555
C15 C14 1_555 1_555
H14 C15 1_555 1_555
C16 C11 1_555 1_555
H15 C16 1_555 1_555
C17 H16 1_555 1_555
H17 C17 1_555 1_555
H18 C17 1_555 1_555
C18 C17 1_555 1_555
C19 C18 1_555 1_555
H19 C19 1_555 1_555
C20 C19 1_555 1_555
H20 C20 1_555 1_555
C21 C20 1_555 1_555
C22 C21 1_555 1_555
H21 C22 1_555 1_555
C23 C18 1_555 1_555
H22 C23 1_555 1_555
C24 H23 1_555 1_555
H24 C24 1_555 1_555
H25 C24 1_555 1_555
C25 C26 1_555 1_555
C26 C27 1_555 1_555
C27 C28 1_555 1_555
C28 H26 1_555 1_555
C29 C28 1_555 1_555
H27 C29 1_555 1_555
C30 C29 1_555 1_555
H28 C30 1_555 1_555
C31 C30 1_555 1_555
H29 C31 1_555 1_555
C32 C27 1_555 1_555
H30 C32 1_555 1_555
C33 H31 1_555 1_555
H32 C33 1_555 1_555
H33 C33 1_555 1_555
C34 C33 1_555 1_555
C35 C34 1_555 1_555
H34 C35 1_555 1_555
C36 C35 1_555 1_555
H35 C36 1_555 1_555
C37 C36 1_555 1_555
C38 C37 1_555 1_555
H36 C38 1_555 1_555
C39 C34 1_555 1_555
H37 C39 1_555 1_555
C40 H38 1_555 1_555
H39 C40 1_555 1_555
H40 C40 1_555 1_555
C41 C42 1_555 1_555
C42 C43 1_555 1_555
C43 C44 1_555 1_555
C44 H41 1_555 1_555
C45 C44 1_555 1_555
H42 C45 1_555 1_555
C46 C45 1_555 1_555
H43 C46 1_555 1_555
C47 C46 1_555 1_555
H44 C47 1_555 1_555
C48 C43 1_555 1_555
H45 C48 1_555 1_555
C49 H46 1_555 1_555
H47 C49 1_555 1_555
H48 C49 1_555 1_555
C50 C49 1_555 1_555
C51 C50 1_555 1_555
H49 C51 1_555 1_555
C52 C51 1_555 1_555
H50 C52 1_555 1_555
C53 C52 1_555 1_555
C54 C53 1_555 1_555
H51 C54 1_555 1_555
C55 C50 1_555 1_555
H52 C55 1_555 1_555
C56 H53 1_555 1_555
H54 C56 1_555 1_555
H55 C56 1_555 1_555
C57 C58 1_555 1_555
C58 C59 1_555 1_555
C59 C60 1_555 1_555
C60 H56 1_555 1_555
C61 C60 1_555 1_555
H57 C61 1_555 1_555
C62 C61 1_555 1_555
H58 C62 1_555 1_555
C63 C62 1_555 1_555
H59 C63 1_555 1_555
C64 C59 1_555 1_555
H60 C64 1_555 1_555
N1 C5 1_555 1_555
N2 C5 1_555 1_555
N3 C21 1_555 1_555
N4 C21 1_555 1_555
N5 C37 1_555 1_555
N6 C37 1_555 1_555
N7 C53 1_555 1_555
N8 C53 1_555 1_555
O1 C2 1_555 1_555
H61 O1 1_555 1_555
O2 C9 1_555 1_555
O3 C18 1_555 1_555
H62 O3 1_555 1_555
O4 C25 1_555 1_555
O5 C34 1_555 1_555
H63 O5 1_555 1_555
O6 C41 1_555 1_555
O7 C50 1_555 1_555
H64 O7 1_555 1_555
O8 C57 1_555 1_555
C6 C7 1_555 1_555
C8 N2 1_555 1_555
C9 N2 1_555 1_555
C10 N1 1_555 1_555
C15 C16 1_555 1_555
C22 C23 1_555 1_555
C24 N4 1_555 1_555
C25 N4 1_555 1_555
C26 N3 1_555 1_555
C31 C32 1_555 1_555
C38 C39 1_555 1_555
C40 N6 1_555 1_555
C41 N6 1_555 1_555
C42 N5 1_555 1_555
C47 C48 1_555 1_555
C54 C55 1_555 1_555
C56 N8 1_555 1_555
C57 N8 1_555 1_555
C58 N7 1_555 1_555
C63 C64 1_555 1_555

#END
