
#######################################################################
#
#                 Cambridge Crystallographic Data Centre
#                                CCDC 
#
#######################################################################
#
# If this CIF has been generated from an entry in the Cambridge 
# Structural Database, then it will include bibliographic, chemical, 
# crystal, experimental, refinement or atomic coordinate data resulting 
# from the CCDC's data processing and validation procedures.
#
#######################################################################

data_OKUSIY
_chemical_formula_moiety         'C16 H18 Cl1 N2 O3 P1 S1'
_chemical_name_systematic        
'diethyl (6-(4-chlorophenyl)-3-methylimidazo[2,1-b][1,3]thiazol-5-yl)phosphonate'
_symmetry_cell_setting           monoclinic
_symmetry_space_group_name_H-M   'P 21/c'
_symmetry_Int_Tables_number      14
_space_group_name_Hall           '-P 2ybc'
loop_
_symmetry_equiv_pos_site_id
_symmetry_equiv_pos_as_xyz
1 x,y,z
2 -x,1/2+y,1/2-z
3 -x,-y,-z
4 x,1/2-y,1/2+z
_cell_length_a                   11.988(8)
_cell_length_b                   18.230(13)
_cell_length_c                   8.621(6)
_cell_angle_alpha                90
_cell_angle_beta                 100.600(11)
_cell_angle_gamma                90
_cell_volume                     1851.89
_cell_formula_units_Z            4
loop_
_atom_site_label
_atom_site_type_symbol
_atom_site_fract_x
_atom_site_fract_y
_atom_site_fract_z
P1 P 0.76418(6) 0.10952(4) 0.21103(9)
S1 S 0.74985(7) -0.18149(4) 0.10517(11)
Cl1 Cl 1.38827(7) 0.14054(5) 0.39990(14)
O1 O 0.86854(15) 0.16279(9) 0.2135(2)
C1 C 0.8215(2) 0.01796(13) 0.2261(3)
N1 N 0.75184(17) -0.04441(11) 0.1828(2)
C2 C 1.0434(2) 0.02976(13) 0.2744(3)
C3 C 0.8237(2) -0.10054(13) 0.1615(3)
N2 N 0.93295(18) -0.08223(11) 0.1899(3)
C4 C 0.9325(2) -0.00865(13) 0.2307(3)
C5 C 1.0658(2) 0.07960(14) 0.4004(3)
H1 H 1.0097 0.0899 0.4586
C6 C 1.2557(2) 0.09750(16) 0.3528(4)
C7 C 1.1715(2) 0.11392(14) 0.4392(3)
H2 H 1.1854 0.1474 0.5219
C8 C 0.6358(2) -0.06517(15) 0.1642(4)
C9 C 1.1308(2) 0.01364(16) 0.1916(3)
H3 H 1.1177 -0.0202 0.1097
C10 C 1.2366(2) 0.04717(17) 0.2293(3)
H4 H 1.2935 0.0361 0.1730
O2 O 0.67246(19) 0.11802(13) 0.0744(4)
C11 C 0.9088(3) 0.17982(16) 0.0671(3)
H5 H 0.8461 0.1974 -0.0117
H6 H 0.9389 0.1358 0.0267
C12 C 0.5455(2) -0.01576(18) 0.2055(4)
H7 H 0.4736 -0.0404 0.1834
H8 H 0.5418 0.0283 0.1438
H9 H 0.5634 -0.0036 0.3156
C13 C 0.6232(3) -0.13630(17) 0.1198(4)
H10 H 0.5528 -0.1594 0.0988
C14 C 0.9984(3) 0.2367(2) 0.0980(4)
H11 H 1.0240 0.2481 0.0016
H12 H 1.0609 0.2187 0.1743
H13 H 0.9683 0.2801 0.1380
O3 O 0.7260(3) 0.12600(15) 0.3692(5)
C15 C 0.6817(4) 0.1599(3) 0.6163(5)
H14 H 0.7586 0.1574 0.6722
H15 H 0.6458 0.1131 0.6210
H16 H 0.6412 0.1965 0.6638
C16 C 0.6809(6) 0.1801(4) 0.4450(10)
H17 H 0.6034 0.1892 0.3922
H18 H 0.7240 0.2248 0.4407
C17? C 0.7559(6) 0.1178(4) 0.5013(10)
H19? H 0.8186 0.0890 0.5414
H20? H 0.8205 0.0879 0.5419
loop_
_geom_bond_atom_site_label_1
_geom_bond_atom_site_label_2
_geom_bond_site_symmetry_1
_geom_bond_site_symmetry_2
P1 O1 1_555 1_555
S1 C3 1_555 1_555
Cl1 C6 1_555 1_555
O1 C11 1_555 1_555
C1 P1 1_555 1_555
N1 C1 1_555 1_555
C2 C4 1_555 1_555
C3 N1 1_555 1_555
N2 C3 1_555 1_555
C4 C1 1_555 1_555
C5 C2 1_555 1_555
H1 C5 1_555 1_555
C6 C7 1_555 1_555
C7 C5 1_555 1_555
H2 C7 1_555 1_555
C8 N1 1_555 1_555
C9 C2 1_555 1_555
H3 C9 1_555 1_555
C10 C6 1_555 1_555
H4 C10 1_555 1_555
O2 P1 1_555 1_555
C11 H5 1_555 1_555
H6 C11 1_555 1_555
C12 C8 1_555 1_555
H7 C12 1_555 1_555
H8 C12 1_555 1_555
H9 C12 1_555 1_555
C13 S1 1_555 1_555
H10 C13 1_555 1_555
C14 C11 1_555 1_555
H11 C14 1_555 1_555
H12 C14 1_555 1_555
H13 C14 1_555 1_555
O3 P1 1_555 1_555
C15 H14 1_555 1_555
H15 C15 1_555 1_555
H16 C15 1_555 1_555
C16 O3 1_555 1_555
H17 C16 1_555 1_555
H18 C16 1_555 1_555
N2 C4 1_555 1_555
C8 C13 1_555 1_555
C9 C10 1_555 1_555
C15 C16 1_555 1_555

#END
