
#######################################################################
#
#                 Cambridge Crystallographic Data Centre
#                                CCDC 
#
#######################################################################
#
# If this CIF has been generated from an entry in the Cambridge 
# Structural Database, then it will include bibliographic, chemical, 
# crystal, experimental, refinement or atomic coordinate data resulting 
# from the CCDC's data processing and validation procedures.
#
#######################################################################

data_OLALAQ
_chemical_name_common            
'(1R)-1-C-Propyl-1,5,dideoxy-1,5-iminioxylitol chloride'
_chemical_formula_moiety         'C8 H18 N1 O3 1+,Cl1 1-'
_chemical_name_systematic        
'3,4,5-Trihydroxy-2-propylpiperidinium chloride'
_chemical_properties_biological  '-glucosidase inhibition activity'
_symmetry_cell_setting           monoclinic
_symmetry_space_group_name_H-M   'P 21'
_symmetry_Int_Tables_number      4
_space_group_name_Hall           'P 2yb'
loop_
_symmetry_equiv_pos_site_id
_symmetry_equiv_pos_as_xyz
1 x,y,z
2 -x,1/2+y,-z
_cell_length_a                   5.1904(5)
_cell_length_b                   6.9648(7)
_cell_length_c                   14.7221(13)
_cell_angle_alpha                90
_cell_angle_beta                 97.900(4)
_cell_angle_gamma                90
_cell_volume                     527.154
_exptl_crystal_colour            colorless
_exptl_crystal_description       block
_cell_formula_units_Z            2
loop_
_atom_site_label
_atom_site_type_symbol
_atom_site_fract_x
_atom_site_fract_y
_atom_site_fract_z
C1 C 0.7398(9) 0.7106(7) 0.2570(3)
H1 H 0.5467 0.6946 0.2449
C2 C 0.8641(9) 0.5255(7) 0.2289(3)
H2 H 0.7988 0.4161 0.2633
C3 C 0.7957(9) 0.4867(7) 0.1250(3)
H3 H 0.9019 0.3760 0.1078
C4 C 0.8447(9) 0.6617(6) 0.0654(3)
H4 H 0.7622 0.6357 0.0011
C5 C 0.7237(10) 0.8438(7) 0.0986(4)
H5 H 0.7739 0.9556 0.0633
H6 H 0.5318 0.8329 0.0882
C6 C 0.8122(9) 0.7658(7) 0.3575(3)
H7 H 0.7462 0.8966 0.3671
H8 H 1.0041 0.7687 0.3724
C7 C 0.7012(10) 0.6261(11) 0.4226(3)
H9 H 0.5096 0.6212 0.4070
H10 H 0.7700 0.4957 0.4140
C8 C 0.7697(13) 0.6843(9) 0.5220(4)
H11 H 0.6848 0.5970 0.5608
H12 H 0.7100 0.8159 0.5302
H13 H 0.9587 0.6778 0.5393
N1 N 0.8138(7) 0.8736(6) 0.1980(3)
H14 H 0.7441 0.9846 0.2163
H15 H 0.9899 0.8868 0.2067
O1 O 1.1358(6) 0.5421(5) 0.2547(2)
H16 H 1.2048 0.4332 0.2535
O2 O 0.5284(6) 0.4411(5) 0.1029(2)
H17 H 0.4879 0.3569 0.1393
O3 O 1.1127(6) 0.6998(5) 0.0639(2)
H18 H 1.2010 0.6045 0.0846
Cl1 Cl 0.34012(18) 0.12591(16) 0.22842(7)
loop_
_geom_bond_atom_site_label_1
_geom_bond_atom_site_label_2
_geom_bond_site_symmetry_1
_geom_bond_site_symmetry_2
C1 H1 1_555 1_555
C2 C1 1_555 1_555
H2 C2 1_555 1_555
C3 C2 1_555 1_555
H3 C3 1_555 1_555
C4 C3 1_555 1_555
H4 C4 1_555 1_555
C5 C4 1_555 1_555
H5 C5 1_555 1_555
H6 C5 1_555 1_555
C6 C1 1_555 1_555
H7 C6 1_555 1_555
H8 C6 1_555 1_555
C7 C6 1_555 1_555
H9 C7 1_555 1_555
H10 C7 1_555 1_555
C8 C7 1_555 1_555
H11 C8 1_555 1_555
H12 C8 1_555 1_555
H13 C8 1_555 1_555
N1 C1 1_555 1_555
H14 N1 1_555 1_555
H15 N1 1_555 1_555
O1 C2 1_555 1_555
H16 O1 1_555 1_555
O2 C3 1_555 1_555
H17 O2 1_555 1_555
O3 C4 1_555 1_555
H18 O3 1_555 1_555
C5 N1 1_555 1_555

#END
