
#######################################################################
#
#                 Cambridge Crystallographic Data Centre
#                                CCDC 
#
#######################################################################
#
# If this CIF has been generated from an entry in the Cambridge 
# Structural Database, then it will include bibliographic, chemical, 
# crystal, experimental, refinement or atomic coordinate data resulting 
# from the CCDC's data processing and validation procedures.
#
#######################################################################

data_OLAPAS
_chemical_formula_moiety         'C15 H20 N3 1+,C6 H2 N3 O7 1-'
_chemical_name_systematic        
'N-Methyl-N-(4-dimethylaminoacenaphth-5-enyl)hydrazinium picrate'
_symmetry_cell_setting           monoclinic
_symmetry_space_group_name_H-M   'P 21/n'
_symmetry_Int_Tables_number      14
_space_group_name_Hall           '-P 2yn'
loop_
_symmetry_equiv_pos_site_id
_symmetry_equiv_pos_as_xyz
1 x,y,z
2 1/2+x,1/2-y,1/2+z
3 -x,-y,-z
4 1/2-x,1/2+y,1/2-z
_cell_length_a                   14.552(2)
_cell_length_b                   7.9534(11)
_cell_length_c                   18.435(3)
_cell_angle_alpha                90
_cell_angle_beta                 105.131(3)
_cell_angle_gamma                90
_cell_volume                     2059.66
_exptl_crystal_colour            yellow
_exptl_crystal_description       prism
_chemical_melting_point          152deg.C
_cell_formula_units_Z            4
loop_
_atom_site_label
_atom_site_type_symbol
_atom_site_fract_x
_atom_site_fract_y
_atom_site_fract_z
N1 N -0.19230(15) 0.3418(3) 0.04186(11)
N2 N -0.00447(14) 0.1705(3) 0.08521(10)
N3 N -0.01588(16) 0.3244(3) 0.04088(12)
C1 C -0.17645(18) 0.3658(3) 0.12279(13)
C2 C -0.24254(18) 0.4538(3) 0.14945(14)
H1 H -0.2953 0.4985 0.1150
C3 C -0.23374(19) 0.4788(4) 0.22631(14)
H2 H -0.2792 0.5403 0.2423
C4 C -0.15707(18) 0.4110(3) 0.27731(13)
C5 C -0.12900(19) 0.4104(4) 0.36265(14)
H3 H -0.1792 0.3621 0.3818
H4 H -0.1163 0.5238 0.3821
C6 C -0.03822(19) 0.3017(4) 0.38502(13)
H5 H 0.0142 0.3651 0.4165
H6 H -0.0489 0.2023 0.4122
C7 C -0.01708(17) 0.2538(3) 0.31163(12)
C8 C 0.05436(17) 0.1634(3) 0.29608(13)
H7 H 0.1011 0.1147 0.3346
C9 C 0.05689(17) 0.1443(3) 0.22055(13)
H8 H 0.1082 0.0872 0.2109
C10 C -0.01259(17) 0.2056(3) 0.15978(12)
C11 C -0.09281(17) 0.2958(3) 0.17342(12)
C12 C -0.08911(17) 0.3203(3) 0.25070(13)
C13 C -0.2503(2) 0.4723(4) -0.00666(14)
H9 H -0.2251 0.5815 0.0096
H10 H -0.3149 0.4653 -0.0032
H11 H -0.2486 0.4546 -0.0578
C14 C -0.23157(19) 0.1731(4) 0.01636(14)
H12 H -0.1939 0.0882 0.0476
H13 H -0.2300 0.1559 -0.0349
H14 H -0.2961 0.1660 0.0199
C15 C 0.08097(18) 0.0801(4) 0.07943(13)
H15 H 0.0879 -0.0206 0.1090
H16 H 0.1358 0.1504 0.0976
H17 H 0.0753 0.0514 0.0279
H20 H -0.010(2) 0.297(4) -0.0009(17)
H21 H -0.107(2) 0.346(4) 0.0310(17)
H22 H 0.0316(19) 0.410(4) 0.0653(14)
N4 N 0.29040(15) -0.0548(3) 0.25993(11)
N5 N 0.44303(18) 0.2327(3) 0.09115(12)
N6 N 0.58606(15) 0.2910(3) 0.35795(11)
O1 O 0.42254(12) 0.1159(2) 0.38376(9)
O2 O 0.27622(17) -0.0776(3) 0.32139(11)
O3 O 0.24229(13) -0.1249(3) 0.20291(10)
O4 O 0.50543(16) 0.3270(3) 0.08084(11)
O5 O 0.38020(15) 0.1706(3) 0.03923(10)
O6 O 0.59501(14) 0.2488(3) 0.42371(10)
O7 O 0.64193(13) 0.3885(3) 0.33972(10)
C16 C 0.43175(17) 0.1301(3) 0.31813(13)
C17 C 0.36606(17) 0.0573(3) 0.25203(13)
C18 C 0.37090(17) 0.0891(3) 0.18006(13)
H18 H 0.3265 0.0416 0.1396
C19 C 0.44176(18) 0.1920(3) 0.16764(12)
C20 C 0.51188(18) 0.2567(3) 0.22666(13)
H19 H 0.5610 0.3213 0.2176
C21 C 0.50783(17) 0.2241(3) 0.29890(13)
loop_
_geom_bond_atom_site_label_1
_geom_bond_atom_site_label_2
_geom_bond_site_symmetry_1
_geom_bond_site_symmetry_2
N1 C1 1_555 1_555
N2 N3 1_555 1_555
N3 H20 1_555 1_555
N4 O2 1_555 1_555
N5 O4 1_555 1_555
N6 O6 1_555 1_555
O1 C16 1_555 1_555
O3 N4 1_555 1_555
O5 N5 1_555 1_555
O7 N6 1_555 1_555
C1 C2 1_555 1_555
C2 H1 1_555 1_555
C3 C2 1_555 1_555
H2 C3 1_555 1_555
C4 C3 1_555 1_555
C5 C4 1_555 1_555
H3 C5 1_555 1_555
H4 C5 1_555 1_555
C6 C5 1_555 1_555
H5 C6 1_555 1_555
H6 C6 1_555 1_555
C7 C6 1_555 1_555
C8 C7 1_555 1_555
H7 C8 1_555 1_555
C9 C8 1_555 1_555
H8 C9 1_555 1_555
C10 N2 1_555 1_555
C11 C1 1_555 1_555
C12 C4 1_555 1_555
C13 N1 1_555 1_555
H9 C13 1_555 1_555
H10 C13 1_555 1_555
H11 C13 1_555 1_555
C14 N1 1_555 1_555
H12 C14 1_555 1_555
H13 C14 1_555 1_555
H14 C14 1_555 1_555
C15 N2 1_555 1_555
H15 C15 1_555 1_555
H16 C15 1_555 1_555
H17 C15 1_555 1_555
C16 C17 1_555 1_555
C17 N4 1_555 1_555
C18 C17 1_555 1_555
H18 C18 1_555 1_555
C19 N5 1_555 1_555
C20 C19 1_555 1_555
H19 C20 1_555 1_555
C21 N6 1_555 1_555
H21 N3 1_555 1_555
H22 N3 1_555 1_555
C7 C12 1_555 1_555
C9 C10 1_555 1_555
C10 C11 1_555 1_555
C11 C12 1_555 1_555
C16 C21 1_555 1_555
C18 C19 1_555 1_555
C20 C21 1_555 1_555

#END
