
#######################################################################
#
#                 Cambridge Crystallographic Data Centre
#                                CCDC 
#
#######################################################################
#
# If this CIF has been generated from an entry in the Cambridge 
# Structural Database, then it will include bibliographic, chemical, 
# crystal, experimental, refinement or atomic coordinate data resulting 
# from the CCDC's data processing and validation procedures.
#
#######################################################################

data_OLERAZ
_chemical_formula_moiety         'C19 H19 N3 O3,0.5(C1 H2 Cl2)'
_chemical_name_systematic        
"2-(3-Methyloxazolidin-2-ylidene)-N,N'-diphenylmalonamide dichloromethane solvate"
_symmetry_cell_setting           monoclinic
_symmetry_space_group_name_H-M   'C 2/c'
_symmetry_Int_Tables_number      15
_space_group_name_Hall           '-C 2yn'
loop_
_symmetry_equiv_pos_site_id
_symmetry_equiv_pos_as_xyz
1 x,y,z
2 -x,y,1/2-z
3 1/2+x,1/2+y,z
4 1/2-x,1/2+y,1/2-z
5 -x,-y,-z
6 x,-y,1/2+z
7 1/2-x,1/2-y,-z
8 1/2+x,1/2-y,1/2+z
_cell_length_a                   22.876(7)
_cell_length_b                   7.804(3)
_cell_length_c                   20.979(7)
_cell_angle_alpha                90
_cell_angle_beta                 96.634(3)
_cell_angle_gamma                90
_cell_volume                     3720.18
_cell_formula_units_Z            8
loop_
_atom_site_label
_atom_site_type_symbol
_atom_site_fract_x
_atom_site_fract_y
_atom_site_fract_z
O1 O 0.24894(4) 0.66908(12) 0.15688(4)
O2 O 0.24787(4) 0.60414(12) 0.34343(4)
O3 O 0.39987(4) 0.74721(12) 0.26880(4)
N1 N 0.34388(5) 0.67923(15) 0.36761(5)
C1 C 0.39465(5) 0.92968(15) 0.14864(6)
C2 C 0.32037(7) 0.5333(2) 0.53144(7)
H1 H 0.2910 0.5375 0.5600
C3 C 0.49551(6) 0.94448(18) 0.12690(7)
H2 H 0.5356 0.9138 0.1377
C4 C 0.41628(7) 0.44792(19) 0.50901(7)
H3 H 0.4529 0.3937 0.5219
C6 C 0.37338(7) 0.4524(2) 0.55055(7)
H6 H 0.3803 0.4006 0.5917
N2 N 0.34839(5) 0.87900(14) 0.18360(5)
C7 C 0.19083(6) 0.67221(18) 0.11954(6)
H7 H 0.1838 0.5662 0.0939
H8 H 0.1868 0.7722 0.0903
C8 C 0.40603(6) 0.52240(18) 0.44843(6)
H9 H 0.4357 0.5189 0.4203
C9 C 0.42102(6) 1.08660(18) 0.05696(6)
H10 H 0.4097 1.1548 0.0201
C10 C 0.37874(6) 1.02869(17) 0.09392(6)
H11 H 0.3385 1.0565 0.0820
N3 N 0.18818(4) 0.74492(13) 0.22580(5)
C11 C 0.29520(5) 0.73843(15) 0.26156(6)
C12 C 0.29266(5) 0.67033(15) 0.32616(6)
C13 C 0.45372(6) 0.88685(17) 0.16505(7)
H12 H 0.4653 0.8190 0.2020
C14 C 0.35221(5) 0.60224(16) 0.42898(6)
C15 C 0.16492(6) 0.82861(17) 0.27948(7)
H13 H 0.1457 0.7434 0.3043
H14 H 0.1362 0.9160 0.2632
H15 H 0.1972 0.8828 0.3071
C16 C 0.24381(5) 0.72188(15) 0.21719(6)
C17 C 0.14870(6) 0.68522(18) 0.17008(7)
H16 H 0.1169 0.7689 0.1576
H17 H 0.1311 0.5726 0.1784
C18 C 0.30939(6) 0.60845(17) 0.47105(6)
H18 H 0.2728 0.6637 0.4586
C19 C 0.35131(5) 0.78552(15) 0.23862(6)
C20 C 0.47985(6) 1.04552(18) 0.07353(6)
H19 H 0.5090 1.0863 0.0485
H20 H 0.3758(8) 0.701(2) 0.3486(8)
H21 H 0.3135(8) 0.925(2) 0.1698(8)
Cl1 Cl 0.010231(19) 0.85607(7) 0.31991(2)
C5 C 0.0000 0.9818(2) 0.2500
H4 H 0.0348 1.0565 0.2483
Cl1A Cl -0.010231(19) 0.85607(7) 0.18009(2)
H4A H -0.0348 1.0565 0.2517
H5? H -0.0348 1.0565 0.2517
loop_
_geom_bond_atom_site_label_1
_geom_bond_atom_site_label_2
_geom_bond_site_symmetry_1
_geom_bond_site_symmetry_2
O1 C7 1_555 1_555
O2 C12 1_555 1_555
O3 C19 1_555 1_555
Cl1 C5 1_555 1_555
N1 C12 1_555 1_555
C1 N2 1_555 1_555
C2 H1 1_555 1_555
C3 H2 1_555 1_555
C4 H3 1_555 1_555
C5 H4 1_555 1_555
C6 C2 1_555 1_555
H6 C6 1_555 1_555
N2 C19 1_555 1_555
C7 H7 1_555 1_555
H8 C7 1_555 1_555
C8 C4 1_555 1_555
H9 C8 1_555 1_555
C9 H10 1_555 1_555
C10 C1 1_555 1_555
H11 C10 1_555 1_555
N3 C15 1_555 1_555
C11 C12 1_555 1_555
C13 C1 1_555 1_555
H12 C13 1_555 1_555
C14 N1 1_555 1_555
C15 H13 1_555 1_555
H14 C15 1_555 1_555
H15 C15 1_555 1_555
C16 O1 1_555 1_555
C17 C7 1_555 1_555
H16 C17 1_555 1_555
H17 C17 1_555 1_555
C18 C2 1_555 1_555
H18 C18 1_555 1_555
C19 C11 1_555 1_555
C20 C3 1_555 1_555
H19 C20 1_555 1_555
H20 N1 1_555 1_555
H21 N2 1_555 1_555
Cl1A C5 1_555 1_555
H4A C5 1_555 1_555
C3 C13 1_555 1_555
C4 C6 1_555 1_555
C8 C14 1_555 1_555
C9 C10 1_555 1_555
C9 C20 1_555 1_555
N3 C16 1_555 1_555
N3 C17 1_555 1_555
C11 C16 1_555 1_555
C14 C18 1_555 1_555

#END
