
#######################################################################
#
#                 Cambridge Crystallographic Data Centre
#                                CCDC 
#
#######################################################################
#
# If this CIF has been generated from an entry in the Cambridge 
# Structural Database, then it will include bibliographic, chemical, 
# crystal, experimental, refinement or atomic coordinate data resulting 
# from the CCDC's data processing and validation procedures.
#
#######################################################################

data_OLIFAQ
_chemical_formula_moiety         'C18 H24 O11'
_chemical_name_systematic        
ent-6,7-Diacetoxy-3-(1-(acetyl)methoxycarbonylmethyl)-4-methoxycarbonyl-1-methyl-2,8-dioxabicyclo(3.2.1^1,5^)octane
_symmetry_cell_setting           monoclinic
_symmetry_space_group_name_H-M   'P 21'
_symmetry_Int_Tables_number      4
_space_group_name_Hall           'P 2yb'
loop_
_symmetry_equiv_pos_site_id
_symmetry_equiv_pos_as_xyz
1 x,y,z
2 -x,1/2+y,-z
_cell_length_a                   10.097(2)
_cell_length_b                   8.184(2)
_cell_length_c                   12.817(2)
_cell_angle_alpha                90
_cell_angle_beta                 92.98(2)
_cell_angle_gamma                90
_cell_volume                     1057.69
_exptl_crystal_colour            colorless
_exptl_crystal_description       plate
_cell_formula_units_Z            2
loop_
_atom_site_label
_atom_site_type_symbol
_atom_site_fract_x
_atom_site_fract_y
_atom_site_fract_z
O1 O 0.8407(3) -0.0470(3) 0.1894(2)
C1 C 0.7474(4) 0.0794(5) 0.1999(3)
C2 C 0.8133(6) 0.2379(6) 0.1752(5)
H1 H 0.8899 0.2532 0.2218
H2 H 0.7522 0.3262 0.1836
H3 H 0.8400 0.2357 0.1044
C3 C 0.6157(4) 0.0478(5) 0.1375(3)
H4 H 0.5700 0.1521 0.1249
O2 O 0.6433(3) -0.0242(4) 0.03961(18)
C4 C 0.5669(5) 0.0192(7) -0.0450(3)
O3 O 0.4683(6) 0.0974(10) -0.0378(3)
C5 C 0.6188(6) -0.0435(8) -0.1422(3)
H5 H 0.6162 -0.1607 -0.1418
H6 H 0.7088 -0.0076 -0.1474
H7 H 0.5655 -0.0031 -0.2008
C6 C 0.5342(3) -0.0577(5) 0.2094(3)
H8 H 0.5180 -0.1671 0.1804
O4 O 0.4119(3) 0.0294(4) 0.2235(2)
C7 C 0.3202(4) -0.0509(6) 0.2772(3)
O5 O 0.3422(3) -0.1855(5) 0.3138(3)
C8 C 0.1990(4) 0.0435(7) 0.2840(4)
H9 H 0.1522 0.0458 0.2168
H10 H 0.2207 0.1530 0.3055
H11 H 0.1440 -0.0060 0.3341
C9 C 0.6237(4) -0.0631(5) 0.3099(3)
H12 H 0.5711 -0.0618 0.3720
C10 C 0.7193(4) -0.2047(5) 0.3128(2)
H13 H 0.7834 -0.1926 0.3725
O6 O 0.6541(3) -0.3601(3) 0.31824(17)
C11 C 0.6259(5) -0.4138(6) 0.4141(3)
O7 O 0.6487(5) -0.3328(5) 0.4910(2)
C12 C 0.5609(6) -0.5763(7) 0.4100(4)
H14 H 0.5845 -0.6355 0.4729
H15 H 0.5896 -0.6361 0.3509
H16 H 0.4664 -0.5624 0.4037
C13 C 0.7922(3) -0.2072(4) 0.2114(2)
H17 H 0.7295 -0.2400 0.1543
C14 C 0.9098(4) -0.3242(5) 0.2143(3)
H18 H 0.8757 -0.4360 0.2187
O8 O 0.9913(3) -0.2925(4) 0.3056(2)
C15 C 1.0609(7) -0.4204(10) 0.3462(6)
O9 O 1.0674(7) -0.5486(8) 0.2972(7)
C16 C 1.1282(7) -0.3794(13) 0.4483(5)
H19 H 1.0856 -0.4358 0.5030
H20 H 1.1232 -0.2637 0.4598
H21 H 1.2196 -0.4120 0.4483
C17 C 0.9854(4) -0.3099(6) 0.1146(3)
O10 O 1.0996(3) -0.2697(7) 0.1169(3)
C18 C 0.9086(5) -0.3513(9) 0.0157(4)
H22 H 0.8651 -0.2550 -0.0118
H23 H 0.8434 -0.4328 0.0295
H24 H 0.9677 -0.3928 -0.0342
O11 O 0.7041(3) 0.0817(4) 0.3043(2)
loop_
_geom_bond_atom_site_label_1
_geom_bond_atom_site_label_2
_geom_bond_site_symmetry_1
_geom_bond_site_symmetry_2
O1 C1 1_555 1_555
C1 C2 1_555 1_555
C2 H1 1_555 1_555
H2 C2 1_555 1_555
H3 C2 1_555 1_555
C3 C1 1_555 1_555
H4 C3 1_555 1_555
O2 C3 1_555 1_555
C4 O2 1_555 1_555
O3 C4 1_555 1_555
C5 C4 1_555 1_555
H5 C5 1_555 1_555
H6 C5 1_555 1_555
H7 C5 1_555 1_555
C6 C3 1_555 1_555
H8 C6 1_555 1_555
O4 C6 1_555 1_555
C7 O4 1_555 1_555
O5 C7 1_555 1_555
C8 C7 1_555 1_555
H9 C8 1_555 1_555
H10 C8 1_555 1_555
H11 C8 1_555 1_555
C9 C6 1_555 1_555
H12 C9 1_555 1_555
C10 C9 1_555 1_555
H13 C10 1_555 1_555
O6 C10 1_555 1_555
C11 O6 1_555 1_555
O7 C11 1_555 1_555
C12 C11 1_555 1_555
H14 C12 1_555 1_555
H15 C12 1_555 1_555
H16 C12 1_555 1_555
C13 O1 1_555 1_555
H17 C13 1_555 1_555
C14 C13 1_555 1_555
H18 C14 1_555 1_555
O8 C14 1_555 1_555
C15 O8 1_555 1_555
O9 C15 1_555 1_555
C16 C15 1_555 1_555
H19 C16 1_555 1_555
H20 C16 1_555 1_555
H21 C16 1_555 1_555
C17 C14 1_555 1_555
O10 C17 1_555 1_555
C18 C17 1_555 1_555
H22 C18 1_555 1_555
H23 C18 1_555 1_555
H24 C18 1_555 1_555
O11 C1 1_555 1_555
C9 O11 1_555 1_555
C10 C13 1_555 1_555

#END
