
#######################################################################
#
#                 Cambridge Crystallographic Data Centre
#                                CCDC 
#
#######################################################################
#
# If this CIF has been generated from an entry in the Cambridge 
# Structural Database, then it will include bibliographic, chemical, 
# crystal, experimental, refinement or atomic coordinate data resulting 
# from the CCDC's data processing and validation procedures.
#
#######################################################################

data_OLIVUC
_chemical_formula_moiety         'C26 H24 Cl2 O3,0.5(C6 H14)'
_chemical_name_systematic        
'3-(4-chlorobenzyl)-4-(2-(4-chlorophenyl)vinyl)-7,7-dimethyl-4,6,7,8-tetrahydro-2H-chromene-2,5(3H)-dione hexane solvate'
_symmetry_cell_setting           orthorhombic
_symmetry_space_group_name_H-M   'P 21 21 21'
_symmetry_Int_Tables_number      19
_space_group_name_Hall           'P 2ac 2ab'
loop_
_symmetry_equiv_pos_site_id
_symmetry_equiv_pos_as_xyz
1 x,y,z
2 1/2-x,-y,1/2+z
3 1/2+x,1/2-y,-z
4 -x,1/2+y,1/2-z
_cell_length_a                   6.0472(2)
_cell_length_b                   14.9417(4)
_cell_length_c                   26.7627(8)
_cell_angle_alpha                90
_cell_angle_beta                 90
_cell_angle_gamma                90
_cell_volume                     2418.16
_exptl_crystal_colour            colorless
_exptl_crystal_description       irregular
_cell_formula_units_Z            4
loop_
_atom_site_label
_atom_site_type_symbol
_atom_site_fract_x
_atom_site_fract_y
_atom_site_fract_z
Cl1 Cl -0.40728(12) 1.02525(6) 0.94006(3)
Cl2 Cl 0.73211(14) 0.49142(5) 0.95087(3)
C1 C 0.0950(5) 0.96380(18) 0.81905(10)
C2 C -0.2202(5) 0.68917(18) 0.62789(9)
C3 C -0.1727(5) 0.72028(17) 0.68124(10)
C4 C 0.0781(5) 0.81084(18) 0.74089(9)
C5 C -0.0293(5) 0.95074(19) 0.90470(11)
C6 C -0.2524(5) 1.03105(19) 0.84476(11)
C7 C 0.1339(5) 0.75731(18) 0.59883(10)
C8 C 0.2179(5) 0.74692(18) 0.77028(10)
C9 C 0.3041(5) 0.65590(18) 0.84625(10)
C10 C -0.0957(5) 1.01221(19) 0.80817(10)
C11 C -0.1126(5) 0.74391(18) 0.58598(9)
C12 C -0.2163(5) 0.9998(2) 0.89310(10)
C13 C 0.1228(5) 0.9332(2) 0.86776(10)
C14 C 0.2251(5) 0.6268(2) 0.89303(11)
C15 C 0.1980(5) 0.90105(18) 0.73296(10)
C16 C 0.1626(5) 0.79072(18) 0.65125(10)
C17 C 0.3524(5) 0.5754(2) 0.92447(10)
C18 C 0.6486(5) 0.5788(2) 0.86430(10)
C19 C -0.2250(5) 0.83520(19) 0.57959(10)
C20 C 0.0249(5) 0.77469(18) 0.68943(9)
C21 C 0.5643(5) 0.55197(18) 0.91020(10)
C22 C -0.1310(5) 0.6916(2) 0.53672(10)
C23 C 0.2729(5) 0.94846(19) 0.78084(10)
C24 C 0.1642(5) 0.71403(19) 0.81507(10)
O1 O 0.3585(3) 0.83666(13) 0.65669(6)
O2 O -0.2931(3) 0.69758(13) 0.71552(6)
O3 O 0.5805(3) 0.91389(13) 0.70603(7)
C25 C 0.3982(5) 0.88639(18) 0.69978(10)
C26 C 0.5188(5) 0.63029(19) 0.83264(10)
H1 H -0.088(6) 0.728(2) 0.5131(13)
H2 H -0.056(6) 0.819(2) 0.7569(11)
H3 H -0.167(5) 0.627(2) 0.6246(11)
H4 H 0.085(5) 0.940(2) 0.7134(10)
H5 H 0.203(6) 0.802(2) 0.5739(12)
H6 H 0.027(6) 0.723(2) 0.8297(11)
H7 H -0.010(8) 0.932(3) 0.9373(18)
H8 H 0.241(6) 0.901(2) 0.8736(12)
H9 H 0.349(6) 1.008(3) 0.7703(13)
H10 H 0.391(6) 0.915(2) 0.7950(11)
H11 H 0.219(5) 0.700(2) 0.5968(11)
H12 H -0.123(7) 1.035(3) 0.7752(15)
H13 H 0.099(8) 0.645(3) 0.9020(14)
H14 H -0.162(7) 0.871(3) 0.5516(16)
H15 H 0.586(7) 0.649(3) 0.7975(14)
H16 H -0.273(8) 0.681(3) 0.5264(14)
H17 H 0.348(6) 0.730(2) 0.7537(12)
H18 H 0.293(7) 0.559(3) 0.9556(16)
H19 H 0.799(5) 0.562(2) 0.8546(10)
H20 H -0.389(6) 1.064(3) 0.8370(12)
H21 H -0.057(6) 0.637(3) 0.5413(13)
H22 H -0.219(5) 0.868(2) 0.6109(11)
H23 H -0.366(6) 0.686(2) 0.6230(11)
H24 H -0.387(6) 0.822(2) 0.5714(12)
C27? C 0.463(3) 0.7346(8) 1.0132(4)
C28? C 0.578(3) 0.7781(15) 0.9736(5)
C29? C 0.260(2) 0.7576(17) 1.0083(6)
H25? H 0.256(4) 0.8411(17) 1.0066(9)
H26? H 0.219(3) 0.768(2) 0.9667(7)
H27? H 0.525(4) 0.7361(18) 1.0550(4)
H28? H 0.500(6) 0.6555(10) 1.0199(9)
H29? H 0.499(6) 0.8395(14) 0.9558(8)
H30? H 0.734(4) 0.805(3) 0.9763(10)
H31? H 0.589(4) 0.742(2) 0.9332(5)
loop_
_geom_bond_atom_site_label_1
_geom_bond_atom_site_label_2
_geom_bond_site_symmetry_1
_geom_bond_site_symmetry_2
Cl1 C12 1_555 1_555
Cl2 C21 1_555 1_555
C1 C10 1_555 1_555
C2 C3 1_555 1_555
C3 C20 1_555 1_555
C4 C8 1_555 1_555
C5 C12 1_555 1_555
C6 C10 1_555 1_555
C7 C11 1_555 1_555
C8 C24 1_555 1_555
C9 C14 1_555 1_555
C10 H12 1_555 1_555
C11 C2 1_555 1_555
C12 C6 1_555 1_555
C13 C1 1_555 1_555
C14 C17 1_555 1_555
C15 C4 1_555 1_555
C16 C7 1_555 1_555
C17 C21 1_555 1_555
C18 C21 1_555 1_555
C19 C11 1_555 1_555
C20 C4 1_555 1_555
C22 C11 1_555 1_555
C23 C1 1_555 1_555
C24 C9 1_555 1_555
O1 C16 1_555 1_555
O2 C3 1_555 1_555
O3 C25 1_555 1_555
C25 C15 1_555 1_555
C26 C9 1_555 1_555
H1 C22 1_555 1_555
H2 C4 1_555 1_555
H3 C2 1_555 1_555
H4 C15 1_555 1_555
H5 C7 1_555 1_555
H6 C24 1_555 1_555
H7 C5 1_555 1_555
H8 C13 1_555 1_555
H9 C23 1_555 1_555
H10 C23 1_555 1_555
H11 C7 1_555 1_555
H13 C14 1_555 1_555
H14 C19 1_555 1_555
H15 C26 1_555 1_555
H16 C22 1_555 1_555
H17 C8 1_555 1_555
H18 C17 1_555 1_555
H19 C18 1_555 1_555
H20 C6 1_555 1_555
H21 C22 1_555 1_555
H22 C19 1_555 1_555
H23 C2 1_555 1_555
H24 C19 1_555 1_555
C5 C13 1_555 1_555
C15 C23 1_555 1_555
C16 C20 1_555 1_555
C18 C26 1_555 1_555
O1 C25 1_555 1_555

#END
