
#######################################################################
#
#                 Cambridge Crystallographic Data Centre
#                                CCDC 
#
#######################################################################
#
# If this CIF has been generated from an entry in the Cambridge 
# Structural Database, then it will include bibliographic, chemical, 
# crystal, experimental, refinement or atomic coordinate data resulting 
# from the CCDC's data processing and validation procedures.
#
#######################################################################

data_OLOQOX
_chemical_formula_moiety         'C19 H15 Cl1 N2 O1'
_chemical_name_systematic        
1-(4-(4-chlorophenyl)-2-methyl-4H-3,1-benzoxazin-4-yl)cyclopropanecarbonitrile
_symmetry_cell_setting           orthorhombic
_symmetry_space_group_name_H-M   'P b c a'
_symmetry_Int_Tables_number      61
_space_group_name_Hall           '-P 2ac 2ab'
loop_
_symmetry_equiv_pos_site_id
_symmetry_equiv_pos_as_xyz
1 x,y,z
2 1/2+x,1/2-y,-z
3 -x,1/2+y,1/2-z
4 1/2-x,-y,1/2+z
5 -x,-y,-z
6 1/2-x,1/2+y,z
7 x,1/2-y,1/2+z
8 1/2+x,y,1/2-z
_cell_length_a                   13.6192(12)
_cell_length_b                   12.2471(11)
_cell_length_c                   18.6703(16)
_cell_angle_alpha                90
_cell_angle_beta                 90
_cell_angle_gamma                90
_cell_volume                     3114.13
_exptl_crystal_colour            colorless
_exptl_crystal_description       block
_cell_formula_units_Z            8
loop_
_atom_site_label
_atom_site_type_symbol
_atom_site_fract_x
_atom_site_fract_y
_atom_site_fract_z
Cl1 Cl -0.13921(3) 1.07392(3) 0.56321(2)
O1 O 0.22029(6) 0.72492(7) 0.62969(5)
N1 N 0.31580(8) 0.79632(9) 0.53646(6)
N2 N 0.35410(10) 0.67389(11) 0.78975(7)
C1 C 0.35801(9) 0.86818(10) 0.58694(7)
C2 C 0.44585(10) 0.91990(11) 0.56953(8)
H1 H 0.4764 0.9057 0.5247
C3 C 0.48885(10) 0.99193(12) 0.61728(8)
H2 H 0.5486 1.0274 0.6051
C4 C 0.44502(10) 1.01236(12) 0.68264(8)
H3 H 0.4744 1.0623 0.7151
C5 C 0.35821(10) 0.96005(11) 0.70090(8)
H4 H 0.3287 0.9735 0.7462
C6 C 0.31418(9) 0.88789(10) 0.65312(7)
C7 C 0.21836(9) 0.82899(10) 0.66757(6)
C8 C 0.21033(9) 0.79587(11) 0.74627(7)
C9 C 0.11252(11) 0.77556(13) 0.78275(8)
H5 H 0.0522 0.7849 0.7538
H6 H 0.1093 0.7166 0.8190
C10 C 0.16972(11) 0.87513(13) 0.80092(7)
H7 H 0.2019 0.8779 0.8484
H8 H 0.1448 0.9461 0.7833
C11 C 0.29110(10) 0.72791(11) 0.77016(7)
C12 C 0.25186(9) 0.72996(10) 0.56016(7)
C13 C 0.20482(11) 0.64520(12) 0.51486(8)
H9 H 0.1353 0.6630 0.5082
H10 H 0.2107 0.5739 0.5383
H11 H 0.2375 0.6427 0.4681
C14 C 0.12854(9) 0.89196(10) 0.64126(6)
C15 C 0.04552(9) 0.83543(11) 0.61809(7)
H12 H 0.0453 0.7579 0.6191
C16 C -0.03674(10) 0.89081(12) 0.59365(8)
H13 H -0.0927 0.8518 0.5774
C17 C -0.03603(9) 1.00386(11) 0.59336(7)
C18 C 0.04504(10) 1.06214(11) 0.61627(7)
H14 H 0.0446 1.1397 0.6157
C19 C 0.12732(9) 1.00542(10) 0.64021(7)
H15 H 0.1834 1.0448 0.6560
loop_
_geom_bond_atom_site_label_1
_geom_bond_atom_site_label_2
_geom_bond_site_symmetry_1
_geom_bond_site_symmetry_2
Cl1 C17 1_555 1_555
O1 C7 1_555 1_555
N1 C1 1_555 1_555
N2 C11 1_555 1_555
C1 C2 1_555 1_555
C2 H1 1_555 1_555
C3 C2 1_555 1_555
H2 C3 1_555 1_555
C4 C3 1_555 1_555
H3 C4 1_555 1_555
C5 C4 1_555 1_555
H4 C5 1_555 1_555
C6 C1 1_555 1_555
C7 C6 1_555 1_555
C8 C7 1_555 1_555
C9 C8 1_555 1_555
H5 C9 1_555 1_555
H6 C9 1_555 1_555
C10 C8 1_555 1_555
H7 C10 1_555 1_555
H8 C10 1_555 1_555
C11 C8 1_555 1_555
C12 O1 1_555 1_555
C13 C12 1_555 1_555
H9 C13 1_555 1_555
H10 C13 1_555 1_555
H11 C13 1_555 1_555
C14 C7 1_555 1_555
C15 C14 1_555 1_555
H12 C15 1_555 1_555
C16 C15 1_555 1_555
H13 C16 1_555 1_555
C17 C16 1_555 1_555
C18 C17 1_555 1_555
H14 C18 1_555 1_555
C19 C14 1_555 1_555
H15 C19 1_555 1_555
N1 C12 1_555 1_555
C5 C6 1_555 1_555
C9 C10 1_555 1_555
C18 C19 1_555 1_555

#END
