
#######################################################################
#
#                 Cambridge Crystallographic Data Centre
#                                CCDC 
#
#######################################################################
#
# If this CIF has been generated from an entry in the Cambridge 
# Structural Database, then it will include bibliographic, chemical, 
# crystal, experimental, refinement or atomic coordinate data resulting 
# from the CCDC's data processing and validation procedures.
#
#######################################################################

data_OLORUC
_chemical_name_common            1,3,4,6-Tetramethyl-7,8-diphenylglycoluril
_chemical_formula_moiety         'C20 H22 N4 O2'
_chemical_name_systematic        
1,3,4,6-Tetramethyl-3a,6a-diphenyl-tetrahydroimidazo(4,5-d)imidazole-2,5(1H,3H)-dione
_symmetry_cell_setting           triclinic
_symmetry_space_group_name_H-M   'P -1'
_symmetry_Int_Tables_number      2
_space_group_name_Hall           '-P 1'
loop_
_symmetry_equiv_pos_site_id
_symmetry_equiv_pos_as_xyz
1 x,y,z
2 -x,-y,-z
_cell_length_a                   8.7863(6)
_cell_length_b                   8.9879(6)
_cell_length_c                   12.6434(9)
_cell_angle_alpha                96.4150(10)
_cell_angle_beta                 90.7830(10)
_cell_angle_gamma                108.9400(10)
_cell_volume                     937.159
_exptl_crystal_colour            colorless
_exptl_crystal_description       block
_cell_formula_units_Z            2
_exptl_crystal_recrystallization_method hexane/benzene
loop_
_atom_site_label
_atom_site_type_symbol
_atom_site_fract_x
_atom_site_fract_y
_atom_site_fract_z
N1 N 0.27278(18) 0.11861(18) 0.63673(12)
O1 O 0.08781(18) -0.12861(17) 0.64201(12)
N2 N 0.25937(18) 0.00685(18) 0.78549(12)
N3 N 0.36725(19) 0.2567(2) 0.89999(12)
C1 C 0.5324(2) 0.3363(2) 0.66695(14)
C2 C 0.39346(19) 0.1551(2) 0.81026(13)
C3 C 0.37421(19) 0.24637(19) 0.71261(13)
C4 C 0.5556(2) 0.1289(2) 0.81943(14)
N4 N 0.29131(19) 0.35058(19) 0.76093(14)
C5 C 0.1951(2) -0.0122(2) 0.68429(15)
O2 O 0.2465(2) 0.4487(2) 0.92935(15)
C6 C 0.6007(2) 0.2645(2) 0.58754(16)
H1 H 0.5445 0.1622 0.5561
C7 C 0.2959(2) 0.3602(2) 0.86875(19)
C8 C 0.6860(2) 0.2452(3) 0.87609(17)
H2 H 0.6705 0.3328 0.9150
C9 C 0.6191(2) 0.4889(2) 0.71153(17)
H3 H 0.5754 0.5399 0.7649
C10 C 0.7701(3) 0.5662(2) 0.6775(2)
H4 H 0.8271 0.6684 0.7087
C11 C 0.5805(3) -0.0004(3) 0.76242(17)
H5 H 0.4946 -0.0792 0.7248
C12 C 0.8360(3) 0.4949(3) 0.5993(2)
H6 H 0.9371 0.5483 0.5764
C13 C 0.7524(3) 0.3434(3) 0.55423(19)
H7 H 0.7976 0.2934 0.5012
C14 C 0.2104(3) -0.1170(3) 0.8540(2)
H8 H 0.1201 -0.2024 0.8205
H9 H 0.1803 -0.0754 0.9208
H10 H 0.2983 -0.1554 0.8664
C15 C 0.2124(3) 0.1423(3) 0.53480(18)
H11 H 0.1488 0.0418 0.4974
H12 H 0.3014 0.1915 0.4933
H13 H 0.1469 0.2093 0.5463
C16 C 0.8612(4) 0.1022(5) 0.8177(3)
H14 H 0.9634 0.0926 0.8171
C17 C 0.8376(3) 0.2311(4) 0.8748(2)
H15 H 0.9240 0.3090 0.9126
C18 C 0.7341(4) -0.0132(4) 0.7611(2)
H16 H 0.7509 -0.0999 0.7220
C19 C 0.2355(4) 0.4567(3) 0.7043(3)
H17 H 0.1849 0.5138 0.7526
H18 H 0.1593 0.3961 0.6476
H19 H 0.3256 0.5302 0.6751
C20 C 0.3705(3) 0.2276(4) 1.01042(17)
H20 H 0.3496 0.3118 1.0550
H21 H 0.4745 0.2231 1.0305
H22 H 0.2893 0.1287 1.0188
loop_
_geom_bond_atom_site_label_1
_geom_bond_atom_site_label_2
_geom_bond_site_symmetry_1
_geom_bond_site_symmetry_2
N1 C3 1_555 1_555
O1 C5 1_555 1_555
N2 C2 1_555 1_555
N3 C2 1_555 1_555
C1 C3 1_555 1_555
C2 C3 1_555 1_555
C3 N4 1_555 1_555
C4 C2 1_555 1_555
N4 C7 1_555 1_555
C5 N1 1_555 1_555
O2 C7 1_555 1_555
C6 C1 1_555 1_555
H1 C6 1_555 1_555
C7 N3 1_555 1_555
C8 C4 1_555 1_555
H2 C8 1_555 1_555
C9 C1 1_555 1_555
H3 C9 1_555 1_555
C10 C9 1_555 1_555
H4 C10 1_555 1_555
C11 C4 1_555 1_555
H5 C11 1_555 1_555
C12 C10 1_555 1_555
H6 C12 1_555 1_555
C13 C6 1_555 1_555
H7 C13 1_555 1_555
C14 N2 1_555 1_555
H8 C14 1_555 1_555
H9 C14 1_555 1_555
H10 C14 1_555 1_555
C15 N1 1_555 1_555
H11 C15 1_555 1_555
H12 C15 1_555 1_555
H13 C15 1_555 1_555
C16 H14 1_555 1_555
C17 C8 1_555 1_555
H15 C17 1_555 1_555
C18 C11 1_555 1_555
H16 C18 1_555 1_555
C19 N4 1_555 1_555
H17 C19 1_555 1_555
H18 C19 1_555 1_555
H19 C19 1_555 1_555
C20 N3 1_555 1_555
H20 C20 1_555 1_555
H21 C20 1_555 1_555
H22 C20 1_555 1_555
N2 C5 1_555 1_555
C12 C13 1_555 1_555
C16 C17 1_555 1_555
C16 C18 1_555 1_555

#END
