
#######################################################################
#
#                 Cambridge Crystallographic Data Centre
#                                CCDC 
#
#######################################################################
#
# If this CIF has been generated from an entry in the Cambridge 
# Structural Database, then it will include bibliographic, chemical, 
# crystal, experimental, refinement or atomic coordinate data resulting 
# from the CCDC's data processing and validation procedures.
#
#######################################################################

data_OLOVIW
_chemical_formula_moiety         'C19 H16 N2 O1'
_chemical_name_systematic        
1-(4-phenyl-2,3-dihydro-1H-pyrrolo[2,3-b]quinolin-1-yl)ethanone
_symmetry_cell_setting           monoclinic
_symmetry_space_group_name_H-M   'P 21/c'
_symmetry_Int_Tables_number      14
_space_group_name_Hall           '-P 2ybc'
loop_
_symmetry_equiv_pos_site_id
_symmetry_equiv_pos_as_xyz
1 x,y,z
2 -x,1/2+y,1/2-z
3 -x,-y,-z
4 x,1/2-y,1/2+z
_cell_length_a                   18.420(3)
_cell_length_b                   16.371(2)
_cell_length_c                   9.8957(14)
_cell_angle_alpha                90
_cell_angle_beta                 99.184(3)
_cell_angle_gamma                90
_cell_volume                     2945.83
_exptl_crystal_colour            yellow
_exptl_crystal_description       prismatic
_cell_formula_units_Z            8
loop_
_atom_site_label
_atom_site_type_symbol
_atom_site_fract_x
_atom_site_fract_y
_atom_site_fract_z
N1 N 1.02916(8) 0.63200(8) 0.42664(16)
N2 N 0.91293(9) 0.70118(8) 0.41328(17)
O1 O 0.87646(9) 0.81619(9) 0.50115(18)
C1 C 1.06294(10) 0.56293(11) 0.38654(19)
C2 C 1.13931(11) 0.55494(12) 0.4282(2)
H1 H 1.1651 0.5961 0.4801
C3 C 1.17612(12) 0.48766(13) 0.3936(2)
H2 H 1.2265 0.4830 0.4229
C4 C 1.13856(12) 0.42637(13) 0.3149(2)
H3 H 1.1641 0.3808 0.2915
C5 C 1.06471(11) 0.43197(11) 0.2712(2)
H4 H 1.0405 0.3904 0.2179
C6 C 1.02457(10) 0.50008(10) 0.30588(18)
C7 C 0.94685(10) 0.50955(10) 0.26199(18)
C8 C 0.91491(10) 0.57833(10) 0.30326(19)
C9 C 0.95861(10) 0.63625(10) 0.38507(19)
C10 C 0.83605(11) 0.68647(12) 0.3493(2)
H5 H 0.8194 0.7289 0.2832
H6 H 0.8040 0.6856 0.4181
C11 C 0.83598(10) 0.60390(11) 0.2792(2)
H7 H 0.8058 0.5650 0.3192
H8 H 0.8176 0.6086 0.1821
C12 C 0.92755(12) 0.77027(11) 0.4918(2)
C13 C 1.00345(12) 0.78764(12) 0.5604(2)
H9 H 1.0081 0.8448 0.5821
H10 H 1.0376 0.7732 0.5005
H11 H 1.0139 0.7562 0.6431
C14 C 0.90130(10) 0.44870(10) 0.1740(2)
C15 C 0.88410(11) 0.37351(11) 0.2256(2)
H12 H 0.9027 0.3597 0.3156
C16 C 0.83957(13) 0.31912(12) 0.1440(2)
H13 H 0.8279 0.2692 0.1798
C17 C 0.81245(12) 0.33828(14) 0.0106(2)
H14 H 0.7828 0.3013 -0.0441
C18 C 0.82918(12) 0.41224(13) -0.0417(2)
H15 H 0.8109 0.4253 -0.1322
C19 C 0.87310(12) 0.46742(12) 0.0394(2)
H16 H 0.8838 0.5176 0.0032
N3 N 0.50508(8) 0.36543(8) 0.07968(15)
N4 N 0.38278(9) 0.31005(9) 0.04550(17)
O2 O 0.33517(9) 0.19288(9) -0.04402(19)
C20 C 0.54858(10) 0.42920(10) 0.13693(18)
C21 C 0.62389(11) 0.42710(11) 0.1286(2)
H17 H 0.6427 0.3837 0.0842
C22 C 0.66997(11) 0.48767(12) 0.1845(2)
H18 H 0.7197 0.4855 0.1778
C23 C 0.64263(11) 0.55283(12) 0.2517(2)
H19 H 0.6743 0.5939 0.2900
C24 C 0.56995(11) 0.55675(11) 0.2617(2)
H20 H 0.5526 0.6007 0.3067
C25 C 0.52037(10) 0.49561(10) 0.20517(18)
C26 C 0.44367(10) 0.49648(10) 0.21446(18)
C27 C 0.40188(10) 0.43244(10) 0.15874(19)
C28 C 0.43598(10) 0.36945(10) 0.09273(19)
C29 C 0.31181(12) 0.33108(13) 0.0863(3)
H21 H 0.2989 0.2916 0.1516
H22 H 0.2732 0.3319 0.0072
C30 C 0.32174(11) 0.41476(11) 0.1505(2)
H23 H 0.2924 0.4550 0.0942
H24 H 0.3077 0.4147 0.2409
C31 C 0.38867(12) 0.23768(13) -0.0221(2)
C32 C 0.45983(13) 0.21593(13) -0.0658(3)
H25 H 0.4576 0.1607 -0.0990
H26 H 0.4988 0.2208 0.0107
H27 H 0.4690 0.2522 -0.1374
C33 C 0.40951(10) 0.56406(10) 0.2837(2)
C34 C 0.40215(12) 0.64159(11) 0.2269(2)
H28 H 0.4203 0.6523 0.1462
C35 C 0.36815(13) 0.70279(12) 0.2889(2)
H29 H 0.3626 0.7544 0.2493
C36 C 0.34244(13) 0.68769(14) 0.4090(3)
H30 H 0.3195 0.7291 0.4507
C37 C 0.35040(13) 0.61191(14) 0.4676(3)
H31 H 0.3334 0.6020 0.5497
C38 C 0.38360(12) 0.55025(12) 0.4049(2)
H32 H 0.3886 0.4987 0.4449
loop_
_geom_bond_atom_site_label_1
_geom_bond_atom_site_label_2
_geom_bond_site_symmetry_1
_geom_bond_site_symmetry_2
N1 C1 1_555 1_555
N2 C9 1_555 1_555
O1 C12 1_555 1_555
C1 C2 1_555 1_555
C2 H1 1_555 1_555
C3 C2 1_555 1_555
H2 C3 1_555 1_555
C4 C3 1_555 1_555
H3 C4 1_555 1_555
C5 C4 1_555 1_555
H4 C5 1_555 1_555
C6 C1 1_555 1_555
C7 C6 1_555 1_555
C8 C7 1_555 1_555
C9 N1 1_555 1_555
C10 N2 1_555 1_555
H5 C10 1_555 1_555
H6 C10 1_555 1_555
C11 C8 1_555 1_555
H7 C11 1_555 1_555
H8 C11 1_555 1_555
C12 N2 1_555 1_555
C13 C12 1_555 1_555
H9 C13 1_555 1_555
H10 C13 1_555 1_555
H11 C13 1_555 1_555
C14 C7 1_555 1_555
C15 C14 1_555 1_555
H12 C15 1_555 1_555
C16 C15 1_555 1_555
H13 C16 1_555 1_555
C17 C16 1_555 1_555
H14 C17 1_555 1_555
C18 C17 1_555 1_555
H15 C18 1_555 1_555
C19 C14 1_555 1_555
H16 C19 1_555 1_555
N3 C20 1_555 1_555
N4 C28 1_555 1_555
O2 C31 1_555 1_555
C20 C21 1_555 1_555
C21 H17 1_555 1_555
C22 C21 1_555 1_555
H18 C22 1_555 1_555
C23 C22 1_555 1_555
H19 C23 1_555 1_555
C24 C23 1_555 1_555
H20 C24 1_555 1_555
C25 C20 1_555 1_555
C26 C25 1_555 1_555
C27 C26 1_555 1_555
C28 N3 1_555 1_555
C29 N4 1_555 1_555
H21 C29 1_555 1_555
H22 C29 1_555 1_555
C30 C27 1_555 1_555
H23 C30 1_555 1_555
H24 C30 1_555 1_555
C31 N4 1_555 1_555
C32 C31 1_555 1_555
H25 C32 1_555 1_555
H26 C32 1_555 1_555
H27 C32 1_555 1_555
C33 C26 1_555 1_555
C34 C33 1_555 1_555
H28 C34 1_555 1_555
C35 C34 1_555 1_555
H29 C35 1_555 1_555
C36 C35 1_555 1_555
H30 C36 1_555 1_555
C37 C36 1_555 1_555
H31 C37 1_555 1_555
C38 C33 1_555 1_555
H32 C38 1_555 1_555
C5 C6 1_555 1_555
C8 C9 1_555 1_555
C10 C11 1_555 1_555
C18 C19 1_555 1_555
C24 C25 1_555 1_555
C27 C28 1_555 1_555
C29 C30 1_555 1_555
C37 C38 1_555 1_555

#END
