
#######################################################################
#
#                 Cambridge Crystallographic Data Centre
#                                CCDC 
#
#######################################################################
#
# If this CIF has been generated from an entry in the Cambridge 
# Structural Database, then it will include bibliographic, chemical, 
# crystal, experimental, refinement or atomic coordinate data resulting 
# from the CCDC's data processing and validation procedures.
#
#######################################################################

data_OLUBEE
_chemical_formula_moiety         'C17 H15 F5 N2 O3'
_chemical_name_systematic        
5-(5-(2,3-dihydro-1H-pyrrolo[2,3-b]pyridin-1-yl)-1,1,1,2,2-pentafluoro-5-oxopentan-3-yl)-5-methylfuran-2(5H)-one
_symmetry_cell_setting           triclinic
_symmetry_space_group_name_H-M   'P -1'
_symmetry_Int_Tables_number      2
_space_group_name_Hall           '-P 1'
loop_
_symmetry_equiv_pos_site_id
_symmetry_equiv_pos_as_xyz
1 x,y,z
2 -x,-y,-z
_cell_length_a                   9.4480(5)
_cell_length_b                   9.6967(5)
_cell_length_c                   10.8758(6)
_cell_angle_alpha                115.700(8)
_cell_angle_beta                 110.177(8)
_cell_angle_gamma                92.473(7)
_cell_volume                     820.547
_exptl_crystal_colour            colorless
_exptl_crystal_description       block
_cell_formula_units_Z            2
loop_
_atom_site_label
_atom_site_type_symbol
_atom_site_fract_x
_atom_site_fract_y
_atom_site_fract_z
F1 F 0.85974(10) 0.08422(11) 0.48461(10)
F2 F 0.68326(10) -0.01392(10) 0.25958(9)
F3 F 0.75807(11) 0.23242(12) 0.23548(10)
F4 F 0.96653(11) 0.17779(12) 0.34422(11)
F5 F 0.89109(12) 0.37638(11) 0.47085(11)
O1 O 0.53447(12) 0.35326(11) 0.35957(11)
O2 O 0.59740(12) 0.17310(12) 0.70277(11)
O3 O 0.50223(13) 0.42851(13) 0.18575(12)
N1 N 0.74570(14) 0.41250(14) 0.87748(13)
N2 N 0.89498(14) 0.61172(14) 0.86577(14)
C1 C 0.83819(16) 0.56324(16) 0.93927(16)
C2 C 0.63368(17) 0.17822(17) 0.45893(15)
H1 H 0.5937 0.0903 0.4717
C3 C 0.68023(16) 0.29366(17) 0.73333(16)
C4 C 0.69582(17) 0.40126(17) 0.98828(16)
H2 H 0.7247 0.3107 1.0026
H3 H 0.5822 0.3884 0.9554
C5 C 0.86040(17) 0.65163(18) 1.08836(16)
C6 C 0.41370(17) 0.08967(18) 0.20087(16)
H4 H 0.3771 -0.0194 0.1638
C7 C 0.48953(17) 0.20957(16) 0.36297(16)
C8 C 0.98074(17) 0.76101(18) 0.94590(17)
H5 H 1.0240 0.8008 0.8976
C9 C 1.00941(17) 0.85889(18) 1.09279(17)
H6 H 1.0701 0.9631 1.1432
C10 C 0.40516(18) 0.15768(18) 0.11710(17)
H7 H 0.3575 0.1068 0.0112
C11 C 0.94799(17) 0.80300(17) 1.16688(16)
H8 H 0.9663 0.8677 1.2685
C12 C 0.84280(18) 0.23031(19) 0.36129(17)
C13 C 0.36928(18) 0.23399(18) 0.43122(17)
H9 H 0.3370 0.1389 0.4348
H10 H 0.4149 0.3230 0.5325
H11 H 0.2790 0.2557 0.3700
C14 C 0.48169(17) 0.32528(18) 0.21495(17)
C15 C 0.75050(17) 0.12147(17) 0.39127(16)
C16 C 0.78063(18) 0.55645(18) 1.13340(17)
H12 H 0.7065 0.6098 1.1721
H13 H 0.8566 0.5381 1.2108
C17 C 0.71599(17) 0.31805(17) 0.61811(15)
H14 H 0.8292 0.3352 0.6465
H15 H 0.6844 0.4141 0.6181
loop_
_geom_bond_atom_site_label_1
_geom_bond_atom_site_label_2
_geom_bond_site_symmetry_1
_geom_bond_site_symmetry_2
F1 C15 1_555 1_555
F2 C15 1_555 1_555
F3 C12 1_555 1_555
F4 C12 1_555 1_555
F5 C12 1_555 1_555
O1 C7 1_555 1_555
O2 C3 1_555 1_555
O3 C14 1_555 1_555
N1 C1 1_555 1_555
N2 C1 1_555 1_555
C1 C5 1_555 1_555
C2 H1 1_555 1_555
C3 N1 1_555 1_555
C4 N1 1_555 1_555
H2 C4 1_555 1_555
H3 C4 1_555 1_555
C5 C11 1_555 1_555
C6 H4 1_555 1_555
C7 C2 1_555 1_555
C8 N2 1_555 1_555
H5 C8 1_555 1_555
C9 C8 1_555 1_555
H6 C9 1_555 1_555
C10 C6 1_555 1_555
H7 C10 1_555 1_555
C11 C9 1_555 1_555
H8 C11 1_555 1_555
C12 C15 1_555 1_555
C13 C7 1_555 1_555
H9 C13 1_555 1_555
H10 C13 1_555 1_555
H11 C13 1_555 1_555
C14 O1 1_555 1_555
C15 C2 1_555 1_555
C16 C4 1_555 1_555
H12 C16 1_555 1_555
H13 C16 1_555 1_555
C17 C2 1_555 1_555
H14 C17 1_555 1_555
H15 C17 1_555 1_555
C3 C17 1_555 1_555
C5 C16 1_555 1_555
C6 C7 1_555 1_555
C10 C14 1_555 1_555

#END
