
#######################################################################
#
#                 Cambridge Crystallographic Data Centre
#                                CCDC 
#
#######################################################################
#
# If this CIF has been generated from an entry in the Cambridge 
# Structural Database, then it will include bibliographic, chemical, 
# crystal, experimental, refinement or atomic coordinate data resulting 
# from the CCDC's data processing and validation procedures.
#
#######################################################################

data_OLUSOF
_chemical_formula_moiety         
'C14 H13 N4 O7 1-,C8 H14 N3 O1 1+,C8 H13 N3 O1,H2 O1'
_chemical_name_systematic        
'6-amino-3-butyl-2-oxo-2,3-dihydropyrimidin-1-ium 1-butyl-5-(2,4-dinitrophenyl)-2,6-dioxo-1,2,3,6-tetrahydropyrimidin-4-olate 4-amino-1-butylpyrimidin-2(1H)-one monohydrate'
_symmetry_cell_setting           triclinic
_symmetry_space_group_name_H-M   'P -1'
_symmetry_Int_Tables_number      2
_space_group_name_Hall           '-P 1'
loop_
_symmetry_equiv_pos_site_id
_symmetry_equiv_pos_as_xyz
1 x,y,z
2 -x,-y,-z
_cell_length_a                   5.2302(6)
_cell_length_b                   16.3573(19)
_cell_length_c                   20.487(2)
_cell_angle_alpha                74.684(10)
_cell_angle_beta                 89.543(9)
_cell_angle_gamma                83.401(9)
_cell_volume                     1678.8
_exptl_crystal_colour            red
_exptl_crystal_description       plate
_cell_formula_units_Z            2
loop_
_atom_site_label
_atom_site_type_symbol
_atom_site_fract_x
_atom_site_fract_y
_atom_site_fract_z
C1 C -0.0294(13) 0.2422(4) 0.3169(3)
C2 C 0.1174(13) 0.2281(4) 0.2633(3)
H1 H 0.0780 0.2601 0.2191
C3 C 0.3233(12) 0.1651(4) 0.2778(3)
C4 C 0.3789(12) 0.1116(4) 0.3425(3)
C5 C 0.2248(13) 0.1298(4) 0.3941(3)
H2 H 0.2582 0.0967 0.4383
C6 C 0.0261(13) 0.1949(4) 0.3821(4)
H3 H -0.0696 0.2066 0.4177
C7 C 0.6101(13) -0.0169(4) 0.3140(3)
C8 C 0.5766(13) 0.0370(4) 0.3587(3)
C9 C 0.7325(13) 0.0184(4) 0.4175(3)
C10 C 0.9761(13) -0.0998(4) 0.3832(3)
C11 C 0.8763(13) -0.1315(4) 0.2776(3)
H4 H 1.0573 -0.1537 0.2825
H5 H 0.8485 -0.0934 0.2325
C12 C 0.7183(14) -0.2057(4) 0.2839(4)
H6 H 0.5372 -0.1841 0.2765
H7 H 0.7405 -0.2436 0.3292
C13 C 0.8031(15) -0.2549(5) 0.2321(4)
H8 H 0.8231 -0.2146 0.1887
H9 H 0.9695 -0.2875 0.2462
C14 C 0.6118(16) -0.3155(5) 0.2239(4)
H10 H 0.6734 -0.3448 0.1910
H11 H 0.4476 -0.2834 0.2090
H12 H 0.5940 -0.3563 0.2665
N1 N -0.2488(11) 0.3081(3) 0.3016(3)
N2 N 0.4861(11) 0.1622(3) 0.2196(3)
N3 N 0.8162(11) -0.0821(3) 0.3273(3)
N4 N 0.9311(10) -0.0487(3) 0.4259(2)
H13 H 1.0326 -0.0584 0.4606
O1 O -0.3253(10) 0.3375(3) 0.2423(3)
O2 O -0.3481(10) 0.3320(3) 0.3493(3)
O3 O 0.3866(9) 0.1870(3) 0.1620(2)
O4 O 0.7160(9) 0.1404(3) 0.2285(2)
O5 O 0.4688(9) -0.0100(3) 0.2636(2)
O6 O 0.7189(8) 0.0584(3) 0.4631(2)
O7 O 1.1548(9) -0.1582(3) 0.3941(2)
C15 C 0.8119(13) 0.3750(4) 0.5176(4)
C16 C 1.0427(14) 0.3349(4) 0.4956(4)
H14 H 1.1139 0.2807 0.5198
C17 C 1.1524(14) 0.3764(4) 0.4401(4)
H15 H 1.3003 0.3497 0.4255
C18 C 0.8351(13) 0.4966(4) 0.4235(4)
C19 C 1.1791(14) 0.4986(4) 0.3408(3)
H16 H 1.3646 0.4861 0.3465
H17 H 1.1362 0.5599 0.3323
C20 C 1.0941(14) 0.4712(4) 0.2801(3)
H18 H 0.9086 0.4841 0.2743
H19 H 1.1356 0.4098 0.2888
C21 C 1.2197(15) 0.5145(4) 0.2150(3)
H20 H 1.4053 0.5052 0.2217
H21 H 1.1674 0.5755 0.2042
C22 C 1.1465(18) 0.4807(5) 0.1554(4)
H22 H 1.2287 0.5099 0.1153
H23 H 0.9631 0.4905 0.1482
H24 H 1.2019 0.4206 0.1654
N5 N 0.6953(12) 0.3400(4) 0.5724(3)
N6 N 0.7197(11) 0.4555(3) 0.4803(3)
H25 H 0.5836 0.4809 0.4934
N7 N 1.0585(11) 0.4560(3) 0.4035(3)
O8 O 0.7423(9) 0.5686(3) 0.3893(2)
H26 H 0.520(7) 0.351(5) 0.589(3)
H27 H 0.711(15) 0.289(4) 0.612(3)
C15A C 0.1881(13) 0.6250(4) 0.4824(4)
C16A C -0.0427(14) 0.6651(4) 0.5044(4)
H14A H -0.1139 0.7193 0.4802
C17A C -0.1524(14) 0.6236(4) 0.5599(4)
H15A H -0.3003 0.6503 0.5745
C18A C 0.1649(13) 0.5034(4) 0.5765(4)
C19A C -0.1791(14) 0.5014(4) 0.6592(3)
H16A H -0.3646 0.5139 0.6535
H17A H -0.1362 0.4401 0.6677
C20A C -0.0941(14) 0.5288(4) 0.7199(3)
H18A H 0.0914 0.5159 0.7257
H19A H -0.1356 0.5902 0.7112
C21A C -0.2197(15) 0.4855(4) 0.7850(3)
H20A H -0.4053 0.4948 0.7783
H21A H -0.1674 0.4245 0.7958
C22A C -0.1465(18) 0.5193(5) 0.8446(4)
H22A H -0.2287 0.4901 0.8847
H23A H 0.0369 0.5095 0.8518
H24A H -0.2019 0.5794 0.8346
N5A N 0.3047(12) 0.6600(4) 0.4276(3)
N6A N 0.2803(11) 0.5445(3) 0.5197(3)
H25A H 0.4164 0.5191 0.5066
N7A N -0.0585(11) 0.5440(3) 0.5965(3)
O8A O 0.2577(9) 0.4314(3) 0.6107(2)
H26A H 0.480(7) 0.649(5) 0.411(3)
H27A H 0.289(15) 0.711(4) 0.388(3)
C23 C 0.7238(13) 0.9824(4) -0.0994(3)
C24 C 0.9320(13) 0.9411(4) -0.1282(3)
H28 H 0.9474 0.9523 -0.1749
C25 C 1.1035(13) 0.8862(4) -0.0866(3)
H29 H 1.2398 0.8587 -0.1050
C26 C 0.8868(14) 0.9087(4) 0.0106(3)
C27 C 1.2678(15) 0.8020(5) 0.0267(4)
H30 H 1.3114 0.8210 0.0657
H31 H 1.4252 0.7934 0.0027
C28 C 1.1554(16) 0.7171(5) 0.0507(4)
H32 H 1.2799 0.6766 0.0812
H33 H 1.0029 0.7258 0.0765
C29 C 1.0835(17) 0.6779(5) -0.0048(4)
H34 H 0.9870 0.6304 0.0148
H35 H 0.9710 0.7200 -0.0376
C30 C 1.311(2) 0.6462(6) -0.0416(5)
H36 H 1.2497 0.6221 -0.0756
H37 H 1.4217 0.6034 -0.0098
H38 H 1.4045 0.6930 -0.0626
N8 N 0.5442(12) 1.0370(4) -0.1367(3)
N9 N 0.7112(11) 0.9639(3) -0.0310(3)
N10 N 1.0882(11) 0.8686(3) -0.0181(3)
O9 O 0.8697(9) 0.8921(3) 0.0727(2)
H39 H 0.566(13) 1.051(4) -0.1904(12)
H40 H 0.359(5) 1.049(10) -0.149(4)
O10 O 0.4832(12) 0.1986(4) 0.5015(3)
H41 H 0.600(17) 0.156(8) 0.484(6)
H42 H 0.645(9) 0.190(5) 0.530(3)
H43? H 0.5850 0.9886 -0.0135
loop_
_geom_bond_atom_site_label_1
_geom_bond_atom_site_label_2
_geom_bond_site_symmetry_1
_geom_bond_site_symmetry_2
C1 C2 1_555 1_555
C2 H1 1_555 1_555
C3 C2 1_555 1_555
C4 C3 1_555 1_555
C5 C4 1_555 1_555
H2 C5 1_555 1_555
C6 C1 1_555 1_555
H3 C6 1_555 1_555
C7 C8 1_555 1_555
C8 C4 1_555 1_555
C9 C8 1_555 1_555
C10 N3 1_555 1_555
C11 H4 1_555 1_555
H5 C11 1_555 1_555
C12 C11 1_555 1_555
H6 C12 1_555 1_555
H7 C12 1_555 1_555
C13 C12 1_555 1_555
H8 C13 1_555 1_555
H9 C13 1_555 1_555
C14 C13 1_555 1_555
H10 C14 1_555 1_555
H11 C14 1_555 1_555
H12 C14 1_555 1_555
N1 C1 1_555 1_555
N2 C3 1_555 1_555
N3 C7 1_555 1_555
N4 C9 1_555 1_555
H13 N4 1_555 1_555
O1 N1 1_555 1_555
O2 N1 1_555 1_555
O3 N2 1_555 1_555
O4 N2 1_555 1_555
O5 C7 1_555 1_555
O6 C9 1_555 1_555
O7 C10 1_555 1_555
C15 C16 1_555 1_555
C16 H14 1_555 1_555
C17 C16 1_555 1_555
H15 C17 1_555 1_555
C18 N6 1_555 1_555
C19 H16 1_555 1_555
H17 C19 1_555 1_555
C20 C19 1_555 1_555
H18 C20 1_555 1_555
H19 C20 1_555 1_555
C21 C20 1_555 1_555
H20 C21 1_555 1_555
H21 C21 1_555 1_555
C22 C21 1_555 1_555
H22 C22 1_555 1_555
H23 C22 1_555 1_555
H24 C22 1_555 1_555
N5 C15 1_555 1_555
N6 C15 1_555 1_555
H25 N6 1_555 1_555
N7 C17 1_555 1_555
O8 C18 1_555 1_555
H26 N5 1_555 1_555
H27 N5 1_555 1_555
C23 C24 1_555 1_555
C24 H28 1_555 1_555
C25 C24 1_555 1_555
H29 C25 1_555 1_555
C26 N9 1_555 1_555
C27 H30 1_555 1_555
H31 C27 1_555 1_555
C28 C27 1_555 1_555
H32 C28 1_555 1_555
H33 C28 1_555 1_555
C29 C28 1_555 1_555
H34 C29 1_555 1_555
H35 C29 1_555 1_555
C30 C29 1_555 1_555
H36 C30 1_555 1_555
H37 C30 1_555 1_555
H38 C30 1_555 1_555
N8 C23 1_555 1_555
N9 C23 1_555 1_555
N10 C25 1_555 1_555
O9 C26 1_555 1_555
H39 N8 1_555 1_555
H40 N8 1_555 1_555
O10 H41 1_555 1_555
H42 O10 1_555 1_555
C15A C16A 1_555 1_555
C16A H14A 1_555 1_555
C17A C16A 1_555 1_555
H15A C17A 1_555 1_555
C18A N6A 1_555 1_555
C19A H16A 1_555 1_555
H17A C19A 1_555 1_555
C20A C19A 1_555 1_555
H18A C20A 1_555 1_555
H19A C20A 1_555 1_555
C21A C20A 1_555 1_555
H20A C21A 1_555 1_555
H21A C21A 1_555 1_555
C22A C21A 1_555 1_555
H22A C22A 1_555 1_555
H23A C22A 1_555 1_555
H24A C22A 1_555 1_555
N5A C15A 1_555 1_555
N6A C15A 1_555 1_555
H25A N6A 1_555 1_555
N7A C17A 1_555 1_555
O8A C18A 1_555 1_555
H26A N5A 1_555 1_555
H27A N5A 1_555 1_555
C5 C6 1_555 1_555
C10 N4 1_555 1_555
C11 N3 1_555 1_555
C18 N7 1_555 1_555
C19 N7 1_555 1_555
C26 N10 1_555 1_555
C27 N10 1_555 1_555
C18A N7A 1_555 1_555
C19A N7A 1_555 1_555

#END
