
#######################################################################
#
#                 Cambridge Crystallographic Data Centre
#                                CCDC 
#
#######################################################################
#
# If this CIF has been generated from an entry in the Cambridge 
# Structural Database, then it will include bibliographic, chemical, 
# crystal, experimental, refinement or atomic coordinate data resulting 
# from the CCDC's data processing and validation procedures.
#
#######################################################################

data_OMERII
_chemical_formula_moiety         'C26 H15 N5'
_chemical_name_systematic        
2-(4-(Diphenylamino)phenyl)buta-1,3-diene-1,1,4,4-tetracarbonitrile
_symmetry_cell_setting           monoclinic
_symmetry_space_group_name_H-M   'P 21/c'
_symmetry_Int_Tables_number      14
_space_group_name_Hall           '-P 2ybc'
loop_
_symmetry_equiv_pos_site_id
_symmetry_equiv_pos_as_xyz
1 x,y,z
2 -x,1/2+y,1/2-z
3 -x,-y,-z
4 x,1/2-y,1/2+z
_cell_length_a                   13.5051(4)
_cell_length_b                   13.3289(4)
_cell_length_c                   13.1464(4)
_cell_angle_alpha                90
_cell_angle_beta                 113.5500(10)
_cell_angle_gamma                90
_cell_volume                     2169.36
_exptl_crystal_colour            'dark blue'
_exptl_crystal_description       plate
_cell_formula_units_Z            4
loop_
_atom_site_label
_atom_site_type_symbol
_atom_site_fract_x
_atom_site_fract_y
_atom_site_fract_z
N1 N 0.68690(15) 0.06378(15) 0.85376(15)
N2 N 1.3303(2) 0.21549(19) 0.8297(2)
N3 N 1.14275(18) 0.3179(2) 1.0061(2)
N4 N 1.13220(19) -0.1083(2) 0.54139(18)
N5 N 1.0105(2) -0.15382(19) 0.79668(18)
C1 C 0.67624(17) 0.08917(18) 0.95521(18)
C2 C 0.6960(2) 0.1853(2) 0.9971(2)
H1 H 0.7196 0.2357 0.9607
C3 C 0.6813(3) 0.2078(2) 1.0927(3)
H2 H 0.6944 0.2741 1.1215
C4 C 0.6479(2) 0.1355(3) 1.1468(2)
H3 H 0.6382 0.1518 1.2126
C5 C 0.6288(2) 0.0402(2) 1.1054(2)
H4 H 0.6057 -0.0099 1.1424
C6 C 0.64312(19) 0.0166(2) 1.00935(19)
H5 H 0.6300 -0.0498 0.9809
C7 C 0.58990(18) 0.03137(19) 0.76352(18)
C8 C 0.5020(2) 0.0942(2) 0.7232(2)
H6 H 0.5056 0.1596 0.7533
C9 C 0.4073(2) 0.0610(3) 0.6377(2)
H7 H 0.3456 0.1033 0.6103
C10 C 0.4032(2) -0.0329(3) 0.5930(2)
H8 H 0.3389 -0.0548 0.5340
C11 C 0.4907(2) -0.0948(3) 0.6326(2)
H9 H 0.4875 -0.1595 0.6011
C12 C 0.5845(2) -0.0632(2) 0.7189(2)
H10 H 0.6451 -0.1068 0.7475
C13 C 0.78335(17) 0.07478(18) 0.84240(18)
C14 C 0.78993(18) 0.0632(2) 0.73939(19)
H11 H 0.7272 0.0454 0.6761
C15 C 0.88618(18) 0.0773(2) 0.72902(18)
H12 H 0.8886 0.0689 0.6583
C16 C 0.98084(17) 0.10389(18) 0.81951(17)
C17 C 0.97410(18) 0.11288(18) 0.92293(17)
H13 H 1.0371 0.1297 0.9864
C18 C 0.87906(18) 0.09807(19) 0.93448(18)
H14 H 0.8775 0.1036 1.0059
C19 C 1.08001(18) 0.12323(17) 0.80433(17)
C20 C 1.15688(18) 0.19207(18) 0.86364(19)
C21 C 1.2538(2) 0.20490(19) 0.8454(2)
C22 C 1.14688(18) 0.2598(2) 0.9435(2)
C23 C 1.10058(18) 0.06906(18) 0.71746(18)
H15 H 1.1291 0.1069 0.6741
C24 C 1.08291(17) -0.02837(18) 0.69381(17)
C25 C 1.11001(19) -0.0731(2) 0.6082(2)
C26 C 1.0419(2) -0.0968(2) 0.75219(19)
loop_
_geom_bond_atom_site_label_1
_geom_bond_atom_site_label_2
_geom_bond_site_symmetry_1
_geom_bond_site_symmetry_2
N1 C1 1_555 1_555
N2 C21 1_555 1_555
N3 C22 1_555 1_555
N4 C25 1_555 1_555
N5 C26 1_555 1_555
C1 C2 1_555 1_555
C2 H1 1_555 1_555
C3 C2 1_555 1_555
H2 C3 1_555 1_555
C4 C3 1_555 1_555
H3 C4 1_555 1_555
C5 C4 1_555 1_555
H4 C5 1_555 1_555
C6 C1 1_555 1_555
H5 C6 1_555 1_555
C7 N1 1_555 1_555
C8 C7 1_555 1_555
H6 C8 1_555 1_555
C9 C8 1_555 1_555
H7 C9 1_555 1_555
C10 C9 1_555 1_555
H8 C10 1_555 1_555
C11 C10 1_555 1_555
H9 C11 1_555 1_555
C12 C7 1_555 1_555
H10 C12 1_555 1_555
C13 N1 1_555 1_555
C14 C13 1_555 1_555
H11 C14 1_555 1_555
C15 C14 1_555 1_555
H12 C15 1_555 1_555
C16 C15 1_555 1_555
C17 C16 1_555 1_555
H13 C17 1_555 1_555
C18 C13 1_555 1_555
H14 C18 1_555 1_555
C19 C16 1_555 1_555
C20 C19 1_555 1_555
C21 C20 1_555 1_555
C22 C20 1_555 1_555
C23 C19 1_555 1_555
H15 C23 1_555 1_555
C24 C23 1_555 1_555
C25 C24 1_555 1_555
C26 C24 1_555 1_555
C5 C6 1_555 1_555
C11 C12 1_555 1_555
C17 C18 1_555 1_555

#END
