
#######################################################################
#
#                 Cambridge Crystallographic Data Centre
#                                CCDC 
#
#######################################################################
#
# If this CIF has been generated from an entry in the Cambridge 
# Structural Database, then it will include bibliographic, chemical, 
# crystal, experimental, refinement or atomic coordinate data resulting 
# from the CCDC's data processing and validation procedures.
#
#######################################################################

data_OMESOP
_chemical_formula_moiety         'C12 H9 N3,0.5(C8 H6 O4)'
_chemical_name_systematic        
'hemikis(Terephthalic acid) 2-(pyridin-4-yl)-1H-benzimidazole'
_symmetry_cell_setting           orthorhombic
_symmetry_space_group_name_H-M   'P b c a'
_symmetry_Int_Tables_number      61
_space_group_name_Hall           '-P 2ac 2ab'
loop_
_symmetry_equiv_pos_site_id
_symmetry_equiv_pos_as_xyz
1 x,y,z
2 1/2-x,-y,1/2+z
3 -x,1/2+y,1/2-z
4 1/2+x,1/2-y,-z
5 -x,-y,-z
6 1/2+x,y,1/2-z
7 x,1/2-y,1/2+z
8 1/2-x,1/2+y,z
_cell_length_a                   7.4475(3)
_cell_length_b                   10.2079(5)
_cell_length_c                   35.2470(18)
_cell_angle_alpha                90
_cell_angle_beta                 90
_cell_angle_gamma                90
_cell_volume                     2679.59
_exptl_crystal_colour            white
_exptl_crystal_description       prism
_cell_formula_units_Z            8
loop_
_atom_site_label
_atom_site_type_symbol
_atom_site_fract_x
_atom_site_fract_y
_atom_site_fract_z
C1 C 0.7647(2) 0.54682(16) 0.10859(5)
H1 H 0.8630 0.6024 0.1110
C2 C 0.6124(2) 0.57382(15) 0.12941(5)
H2 H 0.6076 0.6472 0.1450
C3 C 0.46616(19) 0.48996(13) 0.12672(4)
C4 C 0.4797(2) 0.38228(14) 0.10277(4)
H3 H 0.3854 0.3230 0.1006
C5 C 0.6362(2) 0.36502(15) 0.08227(5)
H4 H 0.6431 0.2944 0.0657
C6 C 0.30427(19) 0.51379(13) 0.14939(4)
C7 C 0.10256(19) 0.60304(13) 0.18440(4)
C8 C -0.0029(2) 0.68674(15) 0.20646(4)
H5 H 0.0200 0.7762 0.2074
C9 C -0.1417(2) 0.63190(18) 0.22665(5)
H6 H -0.2120 0.6854 0.2420
C10 C -0.1805(2) 0.49781(19) 0.22481(5)
H7 H -0.2762 0.4646 0.2388
C11 C -0.0798(2) 0.41407(17) 0.20277(5)
H8 H -0.1058 0.3251 0.2013
C12 C 0.06252(19) 0.46886(14) 0.18283(4)
N1 N 0.77764(18) 0.44444(13) 0.08509(4)
N2 N 0.25557(17) 0.62900(11) 0.16316(3)
N3 N 0.19210(16) 0.41466(11) 0.15994(3)
H9 H 0.2008 0.3336 0.1535
C13 C 0.1727(2) 0.52422(14) 0.04323(4)
C14 C 0.3401(2) 0.51094(13) 0.02020(4)
C15 C 0.3733(2) 0.40029(14) -0.00176(4)
H10 H 0.2886 0.3334 -0.0029
C16 C 0.4674(2) 0.61022(14) 0.02188(4)
H11 H 0.4456 0.6842 0.0366
O1 O 0.06505(17) 0.42303(12) 0.04099(4)
H12 H -0.043(4) 0.438(3) 0.0583(8)
O2 O 0.14115(18) 0.61913(12) 0.06262(4)
C13D C 0.8273(2) 0.47578(14) -0.04323(4)
C14D C 0.6599(2) 0.48906(13) -0.02020(4)
C15D C 0.6267(2) 0.59971(14) 0.00176(4)
H10D H 0.7114 0.6666 0.0029
C16D C 0.5326(2) 0.38978(14) -0.02188(4)
H11D H 0.5544 0.3158 -0.0366
O1D O 0.93495(17) 0.57697(12) -0.04099(4)
H12D H 1.043(4) 0.562(3) -0.0583(8)
O2D O 0.85885(18) 0.38087(12) -0.06262(4)
loop_
_geom_bond_atom_site_label_1
_geom_bond_atom_site_label_2
_geom_bond_site_symmetry_1
_geom_bond_site_symmetry_2
C1 H1 1_555 1_555
C2 C1 1_555 1_555
H2 C2 1_555 1_555
C3 C2 1_555 1_555
C4 C3 1_555 1_555
H3 C4 1_555 1_555
C5 C4 1_555 1_555
H4 C5 1_555 1_555
C6 C3 1_555 1_555
C7 C8 1_555 1_555
C8 H5 1_555 1_555
C9 C8 1_555 1_555
H6 C9 1_555 1_555
C10 C9 1_555 1_555
H7 C10 1_555 1_555
C11 C10 1_555 1_555
H8 C11 1_555 1_555
C12 C7 1_555 1_555
N1 C1 1_555 1_555
N2 C6 1_555 1_555
N3 C6 1_555 1_555
H9 N3 1_555 1_555
C13 C14 1_555 1_555
C14 C15 1_555 1_555
C15 H10 1_555 1_555
C16 C14 1_555 1_555
H11 C16 1_555 1_555
O1 C13 1_555 1_555
H12 O1 1_555 1_555
O2 C13 1_555 1_555
C13D C14D 1_555 1_555
C14D C15D 1_555 1_555
C15D C16 1_555 1_555
H10D C15D 1_555 1_555
C16D C15 1_555 1_555
H11D C16D 1_555 1_555
O1D C13D 1_555 1_555
H12D O1D 1_555 1_555
O2D C13D 1_555 1_555
C5 N1 1_555 1_555
C7 N2 1_555 1_555
C11 C12 1_555 1_555
C12 N3 1_555 1_555
C14D C16D 1_555 1_555

#END
