
#######################################################################
#
#                 Cambridge Crystallographic Data Centre
#                                CCDC 
#
#######################################################################
#
# If this CIF has been generated from an entry in the Cambridge 
# Structural Database, then it will include bibliographic, chemical, 
# crystal, experimental, refinement or atomic coordinate data resulting 
# from the CCDC's data processing and validation procedures.
#
#######################################################################

data_OMESAB
_chemical_formula_moiety         'C22 H25 Br1 N2 O2'
_chemical_name_systematic        
'(1R,2R)-t-Butyl (2-((4-bromophenyl)methylamino)-1,2-dihydronaphthalen-1-yl)carbamate'
_symmetry_cell_setting           monoclinic
_symmetry_space_group_name_H-M   'P 21/c'
_symmetry_Int_Tables_number      14
_space_group_name_Hall           '-P 2ybc'
loop_
_symmetry_equiv_pos_site_id
_symmetry_equiv_pos_as_xyz
1 x,y,z
2 -x,1/2+y,1/2-z
3 -x,-y,-z
4 x,1/2-y,1/2+z
_cell_length_a                   11.3635(7)
_cell_length_b                   18.3224(11)
_cell_length_c                   10.5427(6)
_cell_angle_alpha                90
_cell_angle_beta                 106.890(4)
_cell_angle_gamma                90
_cell_volume                     2100.37
_exptl_crystal_colour            colorless
_exptl_crystal_description       block
_cell_formula_units_Z            4
loop_
_atom_site_label
_atom_site_type_symbol
_atom_site_fract_x
_atom_site_fract_y
_atom_site_fract_z
Br1 Br 0.09025(6) 1.08356(4) 0.66898(8)
C1 C 0.3522(4) 0.7106(2) 0.9121(4)
H1 H 0.3736 0.7119 1.0091
C2 C 0.2756(5) 0.5835(3) 0.8373(5)
H2 H 0.1967 0.5983 0.8347
C3 C 0.3715(4) 0.6325(3) 0.8723(4)
C4 C 0.4377(4) 0.7648(3) 0.8705(4)
H3 H 0.4082 0.7698 0.7738
C5 C 0.4887(5) 0.6092(3) 0.8771(4)
C6 C 0.5659(4) 0.7334(4) 0.9054(5)
H4 H 0.6325 0.7653 0.9259
C7 C 0.5079(6) 0.5365(4) 0.8466(5)
H5 H 0.5868 0.5208 0.8509
C8 C 0.2964(7) 0.5120(3) 0.8058(5)
H6 H 0.2306 0.4796 0.7811
C9 C 0.4117(8) 0.4882(4) 0.8105(6)
H7 H 0.4247 0.4401 0.7895
C10 C 0.5875(5) 0.6621(4) 0.9080(5)
H8 H 0.6684 0.6457 0.9303
C11 C 0.3540(5) 0.8912(3) 0.8667(5)
C12 C 0.1953(5) 1.0052(3) 0.7481(6)
C13 C 0.2613(6) 1.0091(3) 0.8774(7)
H9 H 0.2534 1.0501 0.9265
C14 C 0.2060(5) 0.9444(3) 0.6769(5)
H10 H 0.1603 0.9410 0.5883
C15 C 0.2827(5) 0.8888(3) 0.7341(5)
H11 H 0.2879 0.8480 0.6834
C16 C 0.3401(5) 0.9538(3) 0.9382(5)
H12 H 0.3843 0.9580 1.0272
N1 N 0.4370(4) 0.8370(2) 0.9276(4)
C17 C 0.4912(5) 0.8404(3) 1.0722(5)
H13 H 0.5407 0.8836 1.0951
H14 H 0.5416 0.7981 1.1017
H15 H 0.4267 0.8417 1.1142
N2 N 0.2246(3) 0.73342(19) 0.8612(3)
C18 C 0.1620(4) 0.7618(2) 0.9416(5)
O1 O 0.2012(3) 0.76984(16) 1.0607(3)
O2 O 0.0480(3) 0.77890(16) 0.8649(3)
C19 C -0.0384(4) 0.8200(2) 0.9184(5)
C20 C -0.1507(4) 0.8252(3) 0.7965(5)
H16 H -0.1282 0.8494 0.7262
H17 H -0.2143 0.8523 0.8183
H18 H -0.1800 0.7770 0.7682
C21 C -0.0715(4) 0.7770(3) 1.0251(5)
H19 H -0.0944 0.7283 0.9941
H20 H -0.1392 0.8001 1.0464
H21 H -0.0019 0.7752 1.1029
C22 C 0.0142(5) 0.8942(3) 0.9648(6)
H22 H 0.0836 0.8888 1.0421
H23 H -0.0474 0.9235 0.9861
H24 H 0.0400 0.9174 0.8957
loop_
_geom_bond_atom_site_label_1
_geom_bond_atom_site_label_2
_geom_bond_site_symmetry_1
_geom_bond_site_symmetry_2
Br1 C12 1_555 1_555
C1 H1 1_555 1_555
C2 H2 1_555 1_555
C3 C1 1_555 1_555
C4 C1 1_555 1_555
H3 C4 1_555 1_555
C5 C3 1_555 1_555
C6 C4 1_555 1_555
H4 C6 1_555 1_555
C7 C5 1_555 1_555
H5 C7 1_555 1_555
C8 C2 1_555 1_555
H6 C8 1_555 1_555
C9 C7 1_555 1_555
H7 C9 1_555 1_555
C10 C5 1_555 1_555
H8 C10 1_555 1_555
C11 C15 1_555 1_555
C12 C13 1_555 1_555
C13 H9 1_555 1_555
C14 C12 1_555 1_555
H10 C14 1_555 1_555
C15 C14 1_555 1_555
H11 C15 1_555 1_555
C16 C11 1_555 1_555
H12 C16 1_555 1_555
N1 C4 1_555 1_555
C17 N1 1_555 1_555
H13 C17 1_555 1_555
H14 C17 1_555 1_555
H15 C17 1_555 1_555
N2 C1 1_555 1_555
C18 N2 1_555 1_555
O1 C18 1_555 1_555
O2 C18 1_555 1_555
C19 O2 1_555 1_555
C20 C19 1_555 1_555
H16 C20 1_555 1_555
H17 C20 1_555 1_555
H18 C20 1_555 1_555
C21 C19 1_555 1_555
H19 C21 1_555 1_555
H20 C21 1_555 1_555
H21 C21 1_555 1_555
C22 C19 1_555 1_555
H22 C22 1_555 1_555
H23 C22 1_555 1_555
H24 C22 1_555 1_555
C2 C3 1_555 1_555
C6 C10 1_555 1_555
C8 C9 1_555 1_555
C11 N1 1_555 1_555
C13 C16 1_555 1_555

#END
