
#######################################################################
#
#                 Cambridge Crystallographic Data Centre
#                                CCDC 
#
#######################################################################
#
# If this CIF has been generated from an entry in the Cambridge 
# Structural Database, then it will include bibliographic, chemical, 
# crystal, experimental, refinement or atomic coordinate data resulting 
# from the CCDC's data processing and validation procedures.
#
#######################################################################

data_OMEVIN
_chemical_formula_moiety         'C25 H17 Br1 F1 N1 O5'
_chemical_name_systematic        
'Ethyl 4-(4-bromobenzoyl)-3-(4-fluoro-3-phenoxyphenyl)-1,2-oxazole-5-carboxylate'
_symmetry_cell_setting           triclinic
_symmetry_space_group_name_H-M   'P -1'
_symmetry_Int_Tables_number      2
_space_group_name_Hall           '-P 1'
loop_
_symmetry_equiv_pos_site_id
_symmetry_equiv_pos_as_xyz
1 x,y,z
2 -x,-y,-z
_cell_length_a                   7.8939(9)
_cell_length_b                   12.3661(14)
_cell_length_c                   12.9702(14)
_cell_angle_alpha                62.779(3)
_cell_angle_beta                 77.131(3)
_cell_angle_gamma                86.646(3)
_cell_volume                     1096.23
_exptl_crystal_colour            yellow
_exptl_crystal_description       block
_cell_formula_units_Z            2
loop_
_atom_site_label
_atom_site_type_symbol
_atom_site_fract_x
_atom_site_fract_y
_atom_site_fract_z
Br1 Br 1.53173(4) 0.79898(3) 0.54089(3)
C1 C 0.7320(5) 0.5748(3) 0.8438(3)
H1 H 0.7154 0.6252 0.7658
O1 O 0.7245(2) 0.94721(17) 0.75236(16)
F1 F 0.4115(2) 0.58088(15) 1.30733(13)
O2 O 1.0666(2) 1.21555(16) 0.58988(15)
O3 O 0.6467(3) 0.55950(15) 1.14038(15)
C2 C 1.0216(3) 0.8773(2) 0.63267(19)
H2 H 0.9145 0.8727 0.6127
C3 C 1.1702(3) 0.8410(2) 0.5816(2)
H3 H 1.1670 0.8126 0.5252
O4 O 0.9169(2) 1.17958(14) 0.88060(13)
N1 N 0.8193(2) 1.08627(17) 0.98282(16)
C4 C 1.2110(4) 1.5347(2) 0.5826(3)
H4 H 1.0922 1.5611 0.5962
H5 H 1.2820 1.5993 0.5106
H6 H 1.2612 1.5176 0.6509
C5 C 1.3332(3) 0.8859(2) 0.6948(2)
H7 H 1.4400 0.8873 0.7165
C6 C 0.6940(3) 0.88839(19) 1.04697(18)
C7 C 0.8793(2) 1.03159(19) 0.83440(18)
C8 C 0.8673(3) 0.96416(19) 0.76421(18)
C9 C 1.3246(3) 0.8461(2) 0.6130(2)
C10 C 0.9508(3) 1.1444(2) 0.79414(19)
O5 O 1.1055(2) 1.32923(15) 0.67797(14)
C11 C 0.8371(4) 0.3947(3) 0.9801(3)
H8 H 0.8912 0.3195 0.9971
C12 C 0.7854(4) 0.4292(3) 1.0679(3)
H9 H 0.8042 0.3791 1.1454
C13 C 0.7053(3) 0.5380(2) 1.0425(2)
C14 C 0.6250(3) 0.6740(2) 1.1303(2)
C15 C 0.7209(3) 0.7774(2) 1.04379(19)
H10 H 0.8062 0.7732 0.9814
C16 C 0.7951(3) 0.99915(19) 0.95525(18)
C17 C 1.0269(3) 0.92126(18) 0.71408(17)
C18 C 0.8123(4) 0.4660(3) 0.8690(3)
H11 H 0.8500 0.4412 0.8085
C19 C 0.6755(4) 0.6107(2) 0.9325(2)
H12 H 0.6174 0.6843 0.9166
C20 C 0.5046(3) 0.6829(2) 1.2213(2)
C21 C 0.4790(3) 0.7899(2) 1.2283(2)
H13 H 0.3976 0.7924 1.2932
C22 C 0.5723(3) 0.8936(2) 1.14056(19)
H14 H 0.5541 0.9689 1.1436
C23 C 1.0480(3) 1.2323(2) 0.6754(2)
C24 C 1.2074(4) 1.4223(2) 0.5677(2)
H15 H 1.1536 1.4376 0.5005
H16 H 1.3271 1.3960 0.5514
C25 C 1.1833(3) 0.9238(2) 0.74481(19)
H17 H 1.1876 0.9521 0.8011
loop_
_geom_bond_atom_site_label_1
_geom_bond_atom_site_label_2
_geom_bond_site_symmetry_1
_geom_bond_site_symmetry_2
Br1 C9 1_555 1_555
C1 H1 1_555 1_555
O1 C8 1_555 1_555
F1 C20 1_555 1_555
O2 C23 1_555 1_555
O3 C13 1_555 1_555
C2 H2 1_555 1_555
C3 C2 1_555 1_555
H3 C3 1_555 1_555
O4 N1 1_555 1_555
N1 C16 1_555 1_555
C4 H4 1_555 1_555
H5 C4 1_555 1_555
H6 C4 1_555 1_555
C5 H7 1_555 1_555
C6 C15 1_555 1_555
C7 C8 1_555 1_555
C8 C17 1_555 1_555
C9 C3 1_555 1_555
C10 O4 1_555 1_555
O5 C23 1_555 1_555
C11 H8 1_555 1_555
C12 C11 1_555 1_555
H9 C12 1_555 1_555
C13 C12 1_555 1_555
C14 O3 1_555 1_555
C15 C14 1_555 1_555
H10 C15 1_555 1_555
C16 C6 1_555 1_555
C17 C2 1_555 1_555
C18 C1 1_555 1_555
H11 C18 1_555 1_555
C19 C1 1_555 1_555
H12 C19 1_555 1_555
C20 C14 1_555 1_555
C21 C20 1_555 1_555
H13 C21 1_555 1_555
C22 C6 1_555 1_555
H14 C22 1_555 1_555
C23 C10 1_555 1_555
C24 C4 1_555 1_555
H15 C24 1_555 1_555
H16 C24 1_555 1_555
C25 C5 1_555 1_555
H17 C25 1_555 1_555
C5 C9 1_555 1_555
C7 C10 1_555 1_555
C7 C16 1_555 1_555
O5 C24 1_555 1_555
C11 C18 1_555 1_555
C13 C19 1_555 1_555
C17 C25 1_555 1_555
C21 C22 1_555 1_555

#END
