
#######################################################################
#
#                 Cambridge Crystallographic Data Centre
#                                CCDC 
#
#######################################################################
#
# If this CIF has been generated from an entry in the Cambridge 
# Structural Database, then it will include bibliographic, chemical, 
# crystal, experimental, refinement or atomic coordinate data resulting 
# from the CCDC's data processing and validation procedures.
#
#######################################################################

data_OMIYUE
_chemical_formula_moiety         'C5 H3 Br1 O1 S1'
_chemical_name_systematic        4-Bromothiophene-2-carboxaldehyde
_symmetry_cell_setting           monoclinic
_symmetry_space_group_name_H-M   'P 21/c'
_symmetry_Int_Tables_number      14
_space_group_name_Hall           '-P 2ybc'
loop_
_symmetry_equiv_pos_site_id
_symmetry_equiv_pos_as_xyz
1 x,y,z
2 x,1/2-y,1/2+z
3 -x,-y,-z
4 -x,1/2+y,1/2-z
_cell_length_a                   4.1169(4)
_cell_length_b                   8.4929(8)
_cell_length_c                   17.1626(16)
_cell_angle_alpha                90
_cell_angle_beta                 90.788(2)
_cell_angle_gamma                90
_cell_volume                     600.024
_exptl_crystal_colour            colorless
_exptl_crystal_description       needle
_chemical_melting_point          '318 K'
_cell_formula_units_Z            4
_exptl_crystal_recrystallization_method '95% ethanol'
loop_
_atom_site_label
_atom_site_type_symbol
_atom_site_fract_x
_atom_site_fract_y
_atom_site_fract_z
Br1 Br 0.56152(4) 0.61751(2) 0.386801(10)
C1 C 0.7032(4) 0.3447(2) 0.29427(10)
H1 H 0.5908 0.3882 0.2506
C2 C 0.7335(4) 0.4173(2) 0.36537(10)
C3 C 0.9122(4) 0.3287(2) 0.42095(10)
H2 H 0.9551 0.3617 0.4730
C4 C 1.0159(4) 0.1885(2) 0.39000(10)
S1 S 0.89385(11) 0.16559(5) 0.29431(2)
O1 O 1.3051(3) -0.05117(17) 0.40139(8)
C5 C 1.2162(4) 0.0717(2) 0.43016(11)
H3 H 1.2817 0.0932 0.4824
loop_
_geom_bond_atom_site_label_1
_geom_bond_atom_site_label_2
_geom_bond_site_symmetry_1
_geom_bond_site_symmetry_2
Br1 C2 1_555 1_555
C1 H1 1_555 1_555
C2 C1 1_555 1_555
C3 C2 1_555 1_555
H2 C3 1_555 1_555
C4 C3 1_555 1_555
S1 C1 1_555 1_555
O1 C5 1_555 1_555
C5 C4 1_555 1_555
H3 C5 1_555 1_555
C4 S1 1_555 1_555

#END
