
#######################################################################
#
#                 Cambridge Crystallographic Data Centre
#                                CCDC 
#
#######################################################################
#
# If this CIF has been generated from an entry in the Cambridge 
# Structural Database, then it will include bibliographic, chemical, 
# crystal, experimental, refinement or atomic coordinate data resulting 
# from the CCDC's data processing and validation procedures.
#
#######################################################################

data_OMIYOY
_chemical_formula_moiety         'C21 H15 Cl2 N5 O2 S1'
_chemical_name_systematic        
1'-Methyl-4'-(2,4-dichlorophenyl)-1H-indole-3-spiro-2'-pyrrolidine-3'-spiro-5''-(thiazolo(3,2-b)(1,2,4)triazole)-2,6''(3H,5''H)-dione
_symmetry_cell_setting           monoclinic
_symmetry_space_group_name_H-M   'P 21/c'
_symmetry_Int_Tables_number      14
_space_group_name_Hall           '-P 2ybc'
loop_
_symmetry_equiv_pos_site_id
_symmetry_equiv_pos_as_xyz
1 x,y,z
2 x,1/2-y,1/2+z
3 -x,-y,-z
4 -x,1/2+y,1/2-z
_cell_length_a                   20.130(6)
_cell_length_b                   6.357(2)
_cell_length_c                   17.394(5)
_cell_angle_alpha                90
_cell_angle_beta                 108.369(5)
_cell_angle_gamma                90
_cell_volume                     2112.43
_exptl_crystal_colour            colorless
_exptl_crystal_description       block
_chemical_melting_point          '495-496 K'
_cell_formula_units_Z            4
_exptl_crystal_recrystallization_method dioxane
loop_
_atom_site_label
_atom_site_type_symbol
_atom_site_fract_x
_atom_site_fract_y
_atom_site_fract_z
S1 S 0.23947(4) 0.90593(9) 0.43845(4)
N1 N 0.12918(11) 0.6723(3) 0.38539(12)
N2 N 0.06533(13) 0.6393(4) 0.32744(14)
N3 N 0.11655(15) 0.9474(4) 0.30607(14)
N4 N 0.25902(10) 0.5539(3) 0.63284(11)
N5 N 0.21438(11) 1.0824(3) 0.62151(12)
H1 H 0.2231 1.2112 0.6364
C1 C 0.23347(12) 0.6694(3) 0.49798(14)
C2 C 0.16842(13) 0.5466(4) 0.44840(14)
C3 C 0.06130(19) 0.8070(6) 0.28353(19)
H2 H 0.0225 0.8319 0.2384
C4 C 0.15774(14) 0.8550(4) 0.37074(15)
C5 C 0.22482(12) 0.7318(3) 0.58196(13)
C6 C 0.26197(13) 0.9492(3) 0.60941(15)
C7 C 0.14864(13) 0.9865(3) 0.60700(14)
C8 C 0.08830(15) 1.0707(4) 0.61679(17)
H3 H 0.0869 1.2089 0.6337
C9 C 0.03044(15) 0.9419(5) 0.60047(17)
H4 H -0.0113 0.9962 0.6044
C10 C 0.03293(14) 0.7356(4) 0.57859(16)
H5 H -0.0067 0.6515 0.5690
C11 C 0.09377(13) 0.6513(4) 0.57072(14)
H6 H 0.0956 0.5107 0.5568
C12 C 0.15160(12) 0.7784(3) 0.58369(13)
C13 C 0.32372(12) 0.5151(4) 0.61328(15)
H7 H 0.3435 0.3790 0.6333
H8 H 0.3583 0.6234 0.6361
O1 O 0.15312(10) 0.3721(3) 0.46249(11)
O2 O 0.32307(9) 0.9875(3) 0.61800(13)
Cl1 Cl 0.2553(3) 0.3761(7) 0.3403(3)
Cl2 Cl 0.4976(3) 0.6964(15) 0.3305(4)
C14 C 0.29955(13) 0.5216(4) 0.52101(15)
H9 H 0.2805 0.3809 0.5045
C15 C 0.3480(3) 0.5637(10) 0.4698(4)
C16 C 0.3331(3) 0.4959(9) 0.3902(3)
C17 C 0.3802(4) 0.5349(10) 0.3481(3)
H10 H 0.3702 0.4896 0.2948
C18 C 0.4422(3) 0.6416(12) 0.3857(4)
C19 C 0.4571(2) 0.7093(11) 0.4653(4)
H11 H 0.4986 0.7807 0.4905
C20 C 0.4100(3) 0.6704(11) 0.5074(4)
H12 H 0.4200 0.7157 0.5607
C28 C 0.27025(16) 0.5846(4) 0.71935(15)
H17 H 0.2992 0.7060 0.7379
H18 H 0.2929 0.4628 0.7487
H19 H 0.2260 0.6051 0.7282
Cl3? Cl 0.2834(4) 0.4032(10) 0.3523(4)
Cl4? Cl 0.5225(3) 0.8059(8) 0.3775(6)
C21? C 0.29955(13) 0.5216(4) 0.52101(15)
H13? H 0.2849 0.3801 0.5002
C22? C 0.3623(3) 0.5917(12) 0.4919(5)
C23? C 0.3559(3) 0.5355(11) 0.4126(4)
C24? C 0.4057(4) 0.6016(11) 0.3778(5)
H14? H 0.4014 0.5640 0.3247
C25? C 0.4619(3) 0.7239(11) 0.4222(5)
C26? C 0.4684(3) 0.7801(10) 0.5014(5)
H15? H 0.5060 0.8619 0.5311
C27? C 0.4186(4) 0.7140(12) 0.5363(4)
H16? H 0.4229 0.7516 0.5893
loop_
_geom_bond_atom_site_label_1
_geom_bond_atom_site_label_2
_geom_bond_site_symmetry_1
_geom_bond_site_symmetry_2
S1 C1 1_555 1_555
N1 N2 1_555 1_555
N2 C3 1_555 1_555
N3 C3 1_555 1_555
N4 C5 1_555 1_555
N5 H1 1_555 1_555
C1 C2 1_555 1_555
C2 N1 1_555 1_555
C3 H2 1_555 1_555
C4 S1 1_555 1_555
C5 C1 1_555 1_555
C6 N5 1_555 1_555
C7 N5 1_555 1_555
C8 C7 1_555 1_555
H3 C8 1_555 1_555
C9 C8 1_555 1_555
H4 C9 1_555 1_555
C10 C9 1_555 1_555
H5 C10 1_555 1_555
C11 C10 1_555 1_555
H6 C11 1_555 1_555
C12 C5 1_555 1_555
C13 N4 1_555 1_555
H7 C13 1_555 1_555
H8 C13 1_555 1_555
O1 C2 1_555 1_555
O2 C6 1_555 1_555
Cl1 C16 1_555 1_555
Cl2 C18 1_555 1_555
C14 C1 1_555 1_555
H9 C14 1_555 1_555
C15 C14 1_555 1_555
C16 C15 1_555 1_555
C17 C16 1_555 1_555
H10 C17 1_555 1_555
C18 C17 1_555 1_555
C19 C18 1_555 1_555
H11 C19 1_555 1_555
C20 C15 1_555 1_555
H12 C20 1_555 1_555
C28 N4 1_555 1_555
H17 C28 1_555 1_555
H18 C28 1_555 1_555
H19 C28 1_555 1_555
N1 C4 1_555 1_555
N3 C4 1_555 1_555
C5 C6 1_555 1_555
C7 C12 1_555 1_555
C11 C12 1_555 1_555
C13 C14 1_555 1_555
C19 C20 1_555 1_555

#END
