
#######################################################################
#
#                 Cambridge Crystallographic Data Centre
#                                CCDC 
#
#######################################################################
#
# If this CIF has been generated from an entry in the Cambridge 
# Structural Database, then it will include bibliographic, chemical, 
# crystal, experimental, refinement or atomic coordinate data resulting 
# from the CCDC's data processing and validation procedures.
#
#######################################################################

data_OMOCUO
_chemical_formula_moiety         'C35 H26 Cl4 N2 O3'
_chemical_name_systematic        
3,10-bis(2,6-Dichlorophenyl)-4,11-diphenyl-1,8-dioxa-2,9-diazadispiro(4.1.4.4)pentadeca-2,9-dien-6-one
_symmetry_cell_setting           triclinic
_symmetry_space_group_name_H-M   'P -1'
_symmetry_Int_Tables_number      2
_space_group_name_Hall           '-P 1'
loop_
_symmetry_equiv_pos_site_id
_symmetry_equiv_pos_as_xyz
1 x,y,z
2 -x,-y,-z
_cell_length_a                   9.095(3)
_cell_length_b                   13.010(4)
_cell_length_c                   14.078(4)
_cell_angle_alpha                79.674(5)
_cell_angle_beta                 86.207(5)
_cell_angle_gamma                72.793(4)
_cell_volume                     1565.31
_exptl_crystal_colour            colorless
_exptl_crystal_description       block
_chemical_melting_point          '517-518 K'
_cell_formula_units_Z            2
_exptl_crystal_recrystallization_method chloroform
loop_
_atom_site_label
_atom_site_type_symbol
_atom_site_fract_x
_atom_site_fract_y
_atom_site_fract_z
Cl1 Cl 0.42632(10) 0.59153(6) 0.13737(6)
Cl2 Cl 0.64533(10) 0.14932(6) 0.15517(7)
Cl3 Cl 0.17323(12) 0.84830(7) 0.10099(8)
Cl4 Cl -0.11427(15) 0.88297(7) 0.45068(6)
N1 N 0.3125(3) 0.31528(17) 0.15098(16)
N2 N 0.0929(3) 0.68577(17) 0.36639(17)
O1 O 0.0394(2) 0.51545(15) 0.13853(13)
O2 O 0.1793(2) 0.31318(14) 0.20849(14)
O3 O 0.0686(2) 0.58362(13) 0.36510(12)
C1 C 0.0587(3) 0.4997(2) 0.22420(19)
C2 C 0.1601(3) 0.3887(2) 0.27619(19)
C3 C 0.0841(3) 0.3445(2) 0.3675(2)
H1 H 0.1054 0.3765 0.4203
H2 H 0.1317 0.2663 0.3827
C4 C -0.0897(3) 0.3656(2) 0.3627(2)
H3 H -0.1191 0.3079 0.4061
H4 H -0.1160 0.3628 0.2977
C5 C -0.1818(3) 0.4757(2) 0.3895(2)
H5 H -0.2878 0.4750 0.4014
H6 H -0.1423 0.4825 0.4497
C6 C -0.1812(3) 0.5769(2) 0.3161(2)
H7 H -0.2377 0.6405 0.3439
H8 H -0.2374 0.5765 0.2600
C7 C -0.0241(3) 0.59084(19) 0.28147(18)
C8 C 0.3254(3) 0.3963(2) 0.28570(19)
H9 H 0.3225 0.4722 0.2854
C9 C 0.3921(3) 0.36186(19) 0.19081(18)
C10 C 0.5422(3) 0.3712(2) 0.14744(19)
C11 C 0.5705(3) 0.4728(2) 0.12245(19)
C12 C 0.7092(4) 0.4845(3) 0.0827(2)
H10 H 0.7233 0.5534 0.0657
C13 C 0.8255(4) 0.3931(3) 0.0688(2)
H11 H 0.9199 0.3999 0.0437
C14 C 0.8031(4) 0.2917(3) 0.0916(2)
H12 H 0.8820 0.2302 0.0813
C15 C 0.6635(3) 0.2806(2) 0.1299(2)
C16 C 0.4175(3) 0.3229(2) 0.3711(2)
C17 C 0.4635(4) 0.2099(3) 0.3781(3)
H13 H 0.4364 0.1775 0.3308
C18 C 0.5507(5) 0.1458(4) 0.4567(3)
H14 H 0.5837 0.0703 0.4613
C19 C 0.5884(5) 0.1939(5) 0.5276(3)
H15 H 0.6454 0.1507 0.5803
C20 C 0.5427(5) 0.3032(4) 0.5207(3)
H16 H 0.5697 0.3349 0.5685
C21 C 0.4563(4) 0.3691(3) 0.4437(2)
H17 H 0.4241 0.4444 0.4405
C22 C -0.0316(3) 0.70456(19) 0.22034(19)
H18 H 0.0412 0.6927 0.1661
C23 C 0.0366(3) 0.7520(2) 0.2906(2)
C24 C 0.0399(3) 0.8676(2) 0.2784(2)
C25 C 0.1017(4) 0.9181(2) 0.1963(2)
C26 C 0.1108(4) 1.0239(3) 0.1866(3)
H19 H 0.1555 1.0545 0.1317
C27 C 0.0526(5) 1.0833(3) 0.2594(3)
H20 H 0.0591 1.1542 0.2538
C28 C -0.0143(5) 1.0392(3) 0.3398(3)
H21 H -0.0555 1.0802 0.3881
C29 C -0.0200(4) 0.9327(2) 0.3486(2)
C30 C -0.1860(3) 0.7744(2) 0.17947(19)
C31 C -0.2190(4) 0.7715(2) 0.0853(2)
H22 H -0.1457 0.7282 0.0486
C32 C -0.3594(5) 0.8320(3) 0.0455(3)
H23 H -0.3807 0.8288 -0.0175
C33 C -0.4668(4) 0.8964(3) 0.0985(3)
H24 H -0.5611 0.9374 0.0715
C34 C -0.4366(4) 0.9010(3) 0.1915(3)
H25 H -0.5101 0.9454 0.2273
C35 C -0.2958(4) 0.8394(2) 0.2326(2)
H26 H -0.2760 0.8421 0.2959
loop_
_geom_bond_atom_site_label_1
_geom_bond_atom_site_label_2
_geom_bond_site_symmetry_1
_geom_bond_site_symmetry_2
Cl1 C11 1_555 1_555
Cl2 C15 1_555 1_555
Cl3 C25 1_555 1_555
Cl4 C29 1_555 1_555
N1 O2 1_555 1_555
N2 O3 1_555 1_555
O1 C1 1_555 1_555
O2 C2 1_555 1_555
O3 C7 1_555 1_555
C1 C2 1_555 1_555
C2 C3 1_555 1_555
C3 H1 1_555 1_555
H2 C3 1_555 1_555
C4 C3 1_555 1_555
H3 C4 1_555 1_555
H4 C4 1_555 1_555
C5 C4 1_555 1_555
H5 C5 1_555 1_555
H6 C5 1_555 1_555
C6 C5 1_555 1_555
H7 C6 1_555 1_555
H8 C6 1_555 1_555
C7 C1 1_555 1_555
C8 C2 1_555 1_555
H9 C8 1_555 1_555
C9 N1 1_555 1_555
C10 C9 1_555 1_555
C11 C10 1_555 1_555
C12 C11 1_555 1_555
H10 C12 1_555 1_555
C13 C12 1_555 1_555
H11 C13 1_555 1_555
C14 C13 1_555 1_555
H12 C14 1_555 1_555
C15 C10 1_555 1_555
C16 C8 1_555 1_555
C17 C16 1_555 1_555
H13 C17 1_555 1_555
C18 C17 1_555 1_555
H14 C18 1_555 1_555
C19 C18 1_555 1_555
H15 C19 1_555 1_555
C20 C19 1_555 1_555
H16 C20 1_555 1_555
C21 C16 1_555 1_555
H17 C21 1_555 1_555
C22 C7 1_555 1_555
H18 C22 1_555 1_555
C23 N2 1_555 1_555
C24 C23 1_555 1_555
C25 C24 1_555 1_555
C26 C25 1_555 1_555
H19 C26 1_555 1_555
C27 C26 1_555 1_555
H20 C27 1_555 1_555
C28 C27 1_555 1_555
H21 C28 1_555 1_555
C29 C24 1_555 1_555
C30 C22 1_555 1_555
C31 C30 1_555 1_555
H22 C31 1_555 1_555
C32 C31 1_555 1_555
H23 C32 1_555 1_555
C33 C32 1_555 1_555
H24 C33 1_555 1_555
C34 C33 1_555 1_555
H25 C34 1_555 1_555
C35 C30 1_555 1_555
H26 C35 1_555 1_555
C6 C7 1_555 1_555
C8 C9 1_555 1_555
C14 C15 1_555 1_555
C20 C21 1_555 1_555
C22 C23 1_555 1_555
C28 C29 1_555 1_555
C34 C35 1_555 1_555

#END
