
#######################################################################
#
#                 Cambridge Crystallographic Data Centre
#                                CCDC 
#
#######################################################################
#
# If this CIF has been generated from an entry in the Cambridge 
# Structural Database, then it will include bibliographic, chemical, 
# crystal, experimental, refinement or atomic coordinate data resulting 
# from the CCDC's data processing and validation procedures.
#
#######################################################################

data_OMOHAA
_chemical_formula_moiety         'C24 H64 Li2 N4 P2 S2 Si4'
_chemical_name_systematic        
bis(\m~2~-N,N'-bis(Trimethylsilyl)-S-(1-(diethylphosphino)ethyl)diimidosulfinato-N,N,N',P)-di-lithium
_symmetry_cell_setting           triclinic
_symmetry_space_group_name_H-M   'P -1'
_symmetry_Int_Tables_number      2
_space_group_name_Hall           '-P 1'
loop_
_symmetry_equiv_pos_site_id
_symmetry_equiv_pos_as_xyz
1 x,y,z
2 -x,-y,-z
_cell_length_a                   10.6002(6)
_cell_length_b                   10.635(1)
_cell_length_c                   10.7744(6)
_cell_angle_alpha                100.785(1)
_cell_angle_beta                 117.366(1)
_cell_angle_gamma                103.446(1)
_cell_volume                     986.483
_exptl_crystal_colour            colorless
_exptl_crystal_description       plate
_chemical_melting_point          '138.9 deg.C (dec.)'
_cell_formula_units_Z            1
loop_
_atom_site_label
_atom_site_type_symbol
_atom_site_fract_x
_atom_site_fract_y
_atom_site_fract_z
C1 C 0.03063(16) 0.53036(15) 0.25222(17)
H1 H 0.0014 0.5787 0.1805
H2 H -0.0577 0.4858 0.2578
H3 H 0.0660 0.4606 0.2203
C2 C 0.10781(17) 0.77313(16) 0.50719(18)
H4 H 0.1870 0.8373 0.6074
H5 H 0.0213 0.7183 0.5096
H6 H 0.0734 0.8249 0.4400
C3 C 0.25392(18) 0.55830(15) 0.56846(18)
H7 H 0.2921 0.4945 0.5312
H8 H 0.1686 0.5064 0.5743
H9 H 0.3359 0.6227 0.6676
C4 C 0.89791(17) 0.84578(17) 0.72055(17)
H10 H 0.8420 0.7462 0.6787
H11 H 0.9907 0.8686 0.8169
H12 H 0.9256 0.8756 0.6527
C5 C 0.71900(17) 0.87026(15) 0.87042(15)
H13 H 0.6386 0.9012 0.8697
H14 H 0.8080 0.9059 0.9719
H15 H 0.6812 0.7695 0.8347
C6 C 0.88623(15) 1.12360(14) 0.83362(15)
H16 H 0.9523 1.1491 0.7949
H17 H 0.9490 1.1472 0.9416
H18 H 0.8161 1.1736 0.8106
C7 C 0.48478(15) 1.31168(12) 0.66175(14)
H19 H 0.3825 1.3204 0.6201
C8 C 0.60191(18) 1.45721(14) 0.75513(17)
H20 H 0.5950 1.5125 0.6907
H21 H 0.5815 1.4986 0.8298
H22 H 0.7046 1.4540 0.8049
C9 C 0.64150(15) 1.27415(14) 0.94794(14)
H23 H 0.6323 1.3612 0.9873
H24 H 0.7377 1.2975 0.9483
C10 C 0.6483(2) 1.18960(17) 1.04908(16)
H25 H 0.6503 1.1006 1.0068
H26 H 0.7408 1.2390 1.1477
H27 H 0.5583 1.1748 1.0577
C11 C 0.31350(15) 1.17693(14) 0.77184(16)
H28 H 0.3020 1.1122 0.8244
H29 H 0.2218 1.1381 0.6702
C12 C 0.31405(18) 1.31219(16) 0.85096(18)
H30 H 0.3222 1.3773 0.7991
H31 H 0.2191 1.2955 0.8509
H32 H 0.4012 1.3506 0.9537
Li1 Li 0.4151(2) 0.9641(2) 0.5438(2)
N1 N 0.33293(11) 0.75951(10) 0.43262(11)
N2 N 0.61443(11) 0.90764(10) 0.57732(11)
P1 P 0.47975(4) 1.18142(3) 0.75583(3)
S1 S 0.49701(3) 0.74885(3) 0.49762(3)
Si1 Si 0.18756(4) 0.65625(3) 0.43937(4)
Si2 Si 0.77471(4) 0.93548(3) 0.74601(4)
C1A C 0.96937(16) 1.46964(15) 0.74778(17)
H1A H 0.9986 1.4213 0.8195
H2A H 1.0577 1.5142 0.7422
H3A H 0.9340 1.5394 0.7797
C2A C 0.89219(17) 1.22687(16) 0.49281(18)
H4A H 0.8130 1.1627 0.3926
H5A H 0.9787 1.2817 0.4904
H6A H 0.9266 1.1751 0.5600
C3A C 0.74608(18) 1.44170(15) 0.43154(18)
H7A H 0.7079 1.5055 0.4688
H8A H 0.8314 1.4936 0.4257
H9A H 0.6641 1.3773 0.3324
C4A C 0.10209(17) 1.15422(17) 0.27945(17)
H10A H 0.1580 1.2538 0.3213
H11A H 0.0093 1.1314 0.1831
H12A H 0.0744 1.1244 0.3473
C5A C 0.28100(17) 1.12974(15) 0.12958(15)
H13A H 0.3614 1.0988 0.1303
H14A H 0.1920 1.0941 0.0281
H15A H 0.3188 1.2305 0.1653
C6A C 0.11377(15) 0.87640(14) 0.16638(15)
H16A H 0.0477 0.8509 0.2051
H17A H 0.0510 0.8528 0.0584
H18A H 0.1839 0.8264 0.1894
C7A C 0.51522(15) 0.68832(12) 0.33825(14)
H19A H 0.6175 0.6796 0.3799
C8A C 0.39809(18) 0.54279(14) 0.24487(17)
H20A H 0.4050 0.4875 0.3093
H21A H 0.4185 0.5014 0.1702
H22A H 0.2954 0.5460 0.1951
C9A C 0.35850(15) 0.72585(14) 0.05206(14)
H23A H 0.3677 0.6388 0.0127
H24A H 0.2623 0.7025 0.0517
C10A C 0.3517(2) 0.81040(17) -0.04908(16)
H25A H 0.3497 0.8994 -0.0068
H26A H 0.2592 0.7610 -0.1477
H27A H 0.4417 0.8252 -0.0577
C11A C 0.68650(15) 0.82307(14) 0.22816(16)
H28A H 0.6980 0.8878 0.1756
H29A H 0.7782 0.8619 0.3298
C12A C 0.68595(18) 0.68781(16) 0.14904(18)
H30A H 0.6778 0.6227 0.2009
H31A H 0.7809 0.7045 0.1491
H32A H 0.5988 0.6494 0.0463
Li1A Li 0.5849(2) 1.0359(2) 0.4562(2)
N1A N 0.66707(11) 1.24049(10) 0.56738(11)
N2A N 0.38557(11) 1.09236(10) 0.42268(11)
P1A P 0.52025(4) 0.81858(3) 0.24417(3)
S1A S 0.50299(3) 1.25115(3) 0.50238(3)
Si1A Si 0.81244(4) 1.34375(3) 0.56063(4)
Si2A Si 0.22529(4) 1.06452(3) 0.25399(4)
loop_
_geom_bond_atom_site_label_1
_geom_bond_atom_site_label_2
_geom_bond_site_symmetry_1
_geom_bond_site_symmetry_2
C1 H1 1_555 1_555
H2 C1 1_555 1_555
H3 C1 1_555 1_555
C2 H4 1_555 1_555
H5 C2 1_555 1_555
H6 C2 1_555 1_555
C3 H7 1_555 1_555
H8 C3 1_555 1_555
H9 C3 1_555 1_555
C4 H10 1_555 1_555
H11 C4 1_555 1_555
H12 C4 1_555 1_555
C5 H13 1_555 1_555
H14 C5 1_555 1_555
H15 C5 1_555 1_555
C6 H16 1_555 1_555
H17 C6 1_555 1_555
H18 C6 1_555 1_555
C7 H19 1_555 1_555
C8 C7 1_555 1_555
H20 C8 1_555 1_555
H21 C8 1_555 1_555
H22 C8 1_555 1_555
C9 H23 1_555 1_555
H24 C9 1_555 1_555
C10 C9 1_555 1_555
H25 C10 1_555 1_555
H26 C10 1_555 1_555
H27 C10 1_555 1_555
C11 H28 1_555 1_555
H29 C11 1_555 1_555
C12 C11 1_555 1_555
H30 C12 1_555 1_555
H31 C12 1_555 1_555
H32 C12 1_555 1_555
Li1 N1 1_555 1_555
N1 S1 1_555 1_555
N2 Li1 1_555 1_555
P1 C7 1_555 1_555
S1 N2 1_555 1_555
Si1 C1 1_555 1_555
Si2 C4 1_555 1_555
C1A H1A 1_555 1_555
H2A C1A 1_555 1_555
H3A C1A 1_555 1_555
C2A H4A 1_555 1_555
H5A C2A 1_555 1_555
H6A C2A 1_555 1_555
C3A H7A 1_555 1_555
H8A C3A 1_555 1_555
H9A C3A 1_555 1_555
C4A H10A 1_555 1_555
H11A C4A 1_555 1_555
H12A C4A 1_555 1_555
C5A H13A 1_555 1_555
H14A C5A 1_555 1_555
H15A C5A 1_555 1_555
C6A H16A 1_555 1_555
H17A C6A 1_555 1_555
H18A C6A 1_555 1_555
C7A S1 1_555 1_555
H19A C7A 1_555 1_555
C8A C7A 1_555 1_555
H20A C8A 1_555 1_555
H21A C8A 1_555 1_555
H22A C8A 1_555 1_555
C9A H23A 1_555 1_555
H24A C9A 1_555 1_555
C10A C9A 1_555 1_555
H25A C10A 1_555 1_555
H26A C10A 1_555 1_555
H27A C10A 1_555 1_555
C11A H28A 1_555 1_555
H29A C11A 1_555 1_555
C12A C11A 1_555 1_555
H30A C12A 1_555 1_555
H31A C12A 1_555 1_555
H32A C12A 1_555 1_555
Li1A N2 1_555 1_555
N1A Li1A 1_555 1_555
N2A Li1 1_555 1_555
P1A C7A 1_555 1_555
S1A C7 1_555 1_555
Si1A C1A 1_555 1_555
Si2A C4A 1_555 1_555
C2 Si1 1_555 1_555
C3 Si1 1_555 1_555
C5 Si2 1_555 1_555
C6 Si2 1_555 1_555
C9 P1 1_555 1_555
C11 P1 1_555 1_555
Li1 P1 1_555 1_555
N1 Si1 1_555 1_555
N2 Si2 1_555 1_555
C2A Si1A 1_555 1_555
C3A Si1A 1_555 1_555
C5A Si2A 1_555 1_555
C6A Si2A 1_555 1_555
C9A P1A 1_555 1_555
C11A P1A 1_555 1_555
Li1A N2A 1_555 1_555
Li1A P1A 1_555 1_555
N1A S1A 1_555 1_555
N1A Si1A 1_555 1_555
N2A S1A 1_555 1_555
N2A Si2A 1_555 1_555

#END
