
#######################################################################
#
#                 Cambridge Crystallographic Data Centre
#                                CCDC 
#
#######################################################################
#
# If this CIF has been generated from an entry in the Cambridge 
# Structural Database, then it will include bibliographic, chemical, 
# crystal, experimental, refinement or atomic coordinate data resulting 
# from the CCDC's data processing and validation procedures.
#
#######################################################################

data_OMOHEE
_chemical_formula_moiety         'C32 H56 Li2 N4 P2 S2'
_chemical_name_systematic        
bis(\m~2~-N,N'-Di-t-butyl-S-((methyl(phenyl)phosphino)methyl)diimidosulfinato-N,N,N',P)-di-lithium
_symmetry_cell_setting           monoclinic
_symmetry_space_group_name_H-M   'P 21/c'
_symmetry_Int_Tables_number      14
_space_group_name_Hall           '-P 2ybc'
loop_
_symmetry_equiv_pos_site_id
_symmetry_equiv_pos_as_xyz
1 x,y,z
2 -x,1/2+y,1/2-z
3 -x,-y,-z
4 x,1/2-y,1/2+z
_cell_length_a                   10.5006(14)
_cell_length_b                   20.753(3)
_cell_length_c                   8.5699(11)
_cell_angle_alpha                90
_cell_angle_beta                 97.279(2)
_cell_angle_gamma                90
_cell_volume                     1852.49
_exptl_crystal_colour            colorless
_exptl_crystal_description       needle
_chemical_melting_point          '125.5 deg.C (dec.)'
_cell_formula_units_Z            2
_exptl_crystal_recrystallization_method n-pentane
loop_
_atom_site_label
_atom_site_type_symbol
_atom_site_fract_x
_atom_site_fract_y
_atom_site_fract_z
C1 C 1.27778(13) 1.13975(6) 0.73400(16)
C2 C 1.19028(14) 1.18199(6) 0.65285(16)
H1 H 1.1095 1.1890 0.6888
C3 C 1.22007(15) 1.21402(7) 0.51954(17)
H2 H 1.1599 1.2431 0.4657
C4 C 1.33691(16) 1.20375(7) 0.46486(18)
H3 H 1.3568 1.2255 0.3735
C5 C 1.42436(16) 1.16167(8) 0.5439(2)
H4 H 1.5046 1.1544 0.5067
C6 C 1.39523(14) 1.12990(7) 0.67786(18)
H5 H 1.4561 1.1011 0.7317
C7 C 1.37954(14) 1.11254(7) 1.05062(17)
H6 H 1.4535 1.0935 1.0087
H7 H 1.3690 1.0923 1.1515
H8 H 1.3936 1.1589 1.0662
C8 C 1.25590(14) 1.01463(6) 0.85495(16)
H9 H 1.1920 1.0044 0.7631
H10 H 1.3423 1.0097 0.8217
C9 C 0.79599(14) 1.15919(7) 1.11681(18)
C10 C 0.71081(19) 1.19081(8) 0.9785(2)
H11 H 0.6387 1.1622 0.9428
H12 H 0.6779 1.2320 1.0128
H13 H 0.7616 1.1984 0.8918
C11 C 0.90866(18) 1.20324(9) 1.1717(3)
H14 H 0.9622 1.2085 1.0868
H15 H 0.8764 1.2454 1.1999
H16 H 0.9600 1.1842 1.2637
C12 C 0.71524(14) 1.14846(7) 1.25120(17)
H17 H 0.7690 1.1295 1.3414
H18 H 0.6810 1.1898 1.2821
H19 H 0.6441 1.1192 1.2162
C13 C 1.17331(13) 0.98442(7) 1.28929(15)
C14 C 1.12212(15) 1.04333(7) 1.36803(17)
H20 H 1.1732 1.0812 1.3478
H21 H 1.1280 1.0360 1.4817
H22 H 1.0323 1.0506 1.3251
C15 C 1.09786(15) 0.92450(7) 1.32738(17)
H23 H 1.0069 0.9303 1.2878
H24 H 1.1073 0.9181 1.4416
H25 H 1.1312 0.8867 1.2772
C16 C 1.31428(14) 0.97469(9) 1.35611(17)
H26 H 1.3462 0.9348 1.3140
H27 H 1.3217 0.9719 1.4711
H28 H 1.3652 1.0112 1.3261
Li1 Li 1.0241(2) 1.06617(12) 1.0316(3)
N1 N 0.85598(11) 1.09868(5) 1.07028(14)
N2 N 1.15211(11) 0.99907(5) 1.11692(12)
P1 P 1.23442(3) 1.099420(16) 0.91135(4)
S1 S 1.23887(3) 0.955929(15) 1.01187(4)
C1B C 0.72222(13) 0.86025(6) 1.26600(16)
C2B C 0.80972(14) 0.81801(6) 1.34715(16)
H1B H 0.8905 0.8110 1.3112
C3B C 0.77993(15) 0.78598(7) 1.48046(17)
H2B H 0.8401 0.7569 1.5343
C4B C 0.66309(16) 0.79625(7) 1.53514(18)
H3B H 0.6432 0.7745 1.6265
C5B C 0.57564(16) 0.83833(8) 1.4561(2)
H4B H 0.4954 0.8456 1.4933
C6B C 0.60477(14) 0.87010(7) 1.32214(18)
H5B H 0.5439 0.8989 1.2683
C7B C 0.62046(14) 0.88746(7) 0.94938(17)
H6B H 0.5465 0.9065 0.9913
H7B H 0.6310 0.9077 0.8485
H8B H 0.6064 0.8411 0.9338
C8B C 0.74410(14) 0.98537(6) 1.14505(16)
H9B H 0.8080 0.9956 1.2369
H10B H 0.6577 0.9903 1.1783
C9B C 1.20401(14) 0.84081(7) 0.88319(18)
C10B C 1.28919(19) 0.80919(8) 1.0215(2)
H11B H 1.3613 0.8378 1.0572
H12B H 1.3221 0.7680 0.9872
H13B H 1.2384 0.8016 1.1082
C11B C 1.09134(18) 0.79676(9) 0.8283(3)
H14B H 1.0378 0.7915 0.9132
H15B H 1.1236 0.7546 0.8001
H16B H 1.0400 0.8158 0.7363
C12B C 1.28476(14) 0.85154(7) 0.74880(17)
H17B H 1.2310 0.8705 0.6586
H18B H 1.3190 0.8102 0.7179
H19B H 1.3559 0.8808 0.7838
C13B C 0.82669(13) 1.01558(7) 0.71071(15)
C14B C 0.87788(15) 0.95667(7) 0.63197(17)
H20B H 0.8268 0.9188 0.6522
H21B H 0.8720 0.9640 0.5183
H22B H 0.9677 0.9494 0.6749
C15B C 0.90214(15) 1.07550(7) 0.67262(17)
H23B H 0.9931 1.0697 0.7122
H24B H 0.8927 1.0819 0.5584
H25B H 0.8688 1.1133 0.7228
C16B C 0.68572(14) 1.02531(9) 0.64389(17)
H26B H 0.6538 1.0652 0.6860
H27B H 0.6783 1.0281 0.5289
H28B H 0.6348 0.9888 0.6739
Li1B Li 0.9759(2) 0.93383(12) 0.9684(3)
N1B N 1.14402(11) 0.90132(5) 0.92972(14)
N2B N 0.84789(11) 1.00093(5) 0.88308(12)
P1B P 0.76558(3) 0.900580(16) 1.08865(4)
S1B S 0.76113(3) 1.044071(15) 0.98813(4)
loop_
_geom_bond_atom_site_label_1
_geom_bond_atom_site_label_2
_geom_bond_site_symmetry_1
_geom_bond_site_symmetry_2
C1 C2 1_555 1_555
C2 H1 1_555 1_555
C3 C2 1_555 1_555
H2 C3 1_555 1_555
C4 C3 1_555 1_555
H3 C4 1_555 1_555
C5 C4 1_555 1_555
H4 C5 1_555 1_555
C6 C1 1_555 1_555
H5 C6 1_555 1_555
C7 H6 1_555 1_555
H7 C7 1_555 1_555
H8 C7 1_555 1_555
C8 H9 1_555 1_555
H10 C8 1_555 1_555
C9 C10 1_555 1_555
C10 H11 1_555 1_555
H12 C10 1_555 1_555
H13 C10 1_555 1_555
C11 C9 1_555 1_555
H14 C11 1_555 1_555
H15 C11 1_555 1_555
H16 C11 1_555 1_555
C12 C9 1_555 1_555
H17 C12 1_555 1_555
H18 C12 1_555 1_555
H19 C12 1_555 1_555
C13 C14 1_555 1_555
C14 H20 1_555 1_555
H21 C14 1_555 1_555
H22 C14 1_555 1_555
C15 C13 1_555 1_555
H23 C15 1_555 1_555
H24 C15 1_555 1_555
H25 C15 1_555 1_555
C16 C13 1_555 1_555
H26 C16 1_555 1_555
H27 C16 1_555 1_555
H28 C16 1_555 1_555
Li1 N1 1_555 1_555
N1 C9 1_555 1_555
N2 C13 1_555 1_555
P1 C1 1_555 1_555
S1 C8 1_555 1_555
C1B C2B 1_555 1_555
C2B H1B 1_555 1_555
C3B C2B 1_555 1_555
H2B C3B 1_555 1_555
C4B C3B 1_555 1_555
H3B C4B 1_555 1_555
C5B C4B 1_555 1_555
H4B C5B 1_555 1_555
C6B C1B 1_555 1_555
H5B C6B 1_555 1_555
C7B H6B 1_555 1_555
H7B C7B 1_555 1_555
H8B C7B 1_555 1_555
C8B H9B 1_555 1_555
H10B C8B 1_555 1_555
C9B C10B 1_555 1_555
C10B H11B 1_555 1_555
H12B C10B 1_555 1_555
H13B C10B 1_555 1_555
C11B C9B 1_555 1_555
H14B C11B 1_555 1_555
H15B C11B 1_555 1_555
H16B C11B 1_555 1_555
C12B C9B 1_555 1_555
H17B C12B 1_555 1_555
H18B C12B 1_555 1_555
H19B C12B 1_555 1_555
C13B C14B 1_555 1_555
C14B H20B 1_555 1_555
H21B C14B 1_555 1_555
H22B C14B 1_555 1_555
C15B C13B 1_555 1_555
H23B C15B 1_555 1_555
H24B C15B 1_555 1_555
H25B C15B 1_555 1_555
C16B C13B 1_555 1_555
H26B C16B 1_555 1_555
H27B C16B 1_555 1_555
H28B C16B 1_555 1_555
Li1B N2 1_555 1_555
N1B S1 1_555 1_555
N2B Li1 1_555 1_555
P1B C1B 1_555 1_555
S1B N1 1_555 1_555
C5 C6 1_555 1_555
C7 P1 1_555 1_555
C8 P1 1_555 1_555
Li1 N2 1_555 1_555
Li1 P1 1_555 1_555
N2 S1 1_555 1_555
C5B C6B 1_555 1_555
C7B P1B 1_555 1_555
C8B P1B 1_555 1_555
C8B S1B 1_555 1_555
C9B N1B 1_555 1_555
C13B N2B 1_555 1_555
Li1B N1B 1_555 1_555
Li1B N2B 1_555 1_555
Li1B P1B 1_555 1_555
N2B S1B 1_555 1_555

#END
