
#######################################################################
#
#                 Cambridge Crystallographic Data Centre
#                                CCDC 
#
#######################################################################
#
# If this CIF has been generated from an entry in the Cambridge 
# Structural Database, then it will include bibliographic, chemical, 
# crystal, experimental, refinement or atomic coordinate data resulting 
# from the CCDC's data processing and validation procedures.
#
#######################################################################

data_OMOHIJ
_chemical_formula_moiety         'C29 H29 F2 N1 O2'
_chemical_name_systematic        
9,10-bis(4-fluorophenyl)-3,3,6,6-tetramethyl-3,4,6,7,9,10-hexahydroacridine-1,8(2H,5H)-dione
_symmetry_cell_setting           monoclinic
_symmetry_space_group_name_H-M   'P 21/c'
_symmetry_Int_Tables_number      14
_space_group_name_Hall           '-P 2ybc'
loop_
_symmetry_equiv_pos_site_id
_symmetry_equiv_pos_as_xyz
1 x,y,z
2 -x,1/2+y,1/2-z
3 -x,-y,-z
4 x,1/2-y,1/2+z
_cell_length_a                   12.1310(4)
_cell_length_b                   10.7015(3)
_cell_length_c                   19.6436(6)
_cell_angle_alpha                90
_cell_angle_beta                 104.004(3)
_cell_angle_gamma                90
_cell_volume                     2474.34
_cell_formula_units_Z            4
loop_
_atom_site_label
_atom_site_type_symbol
_atom_site_fract_x
_atom_site_fract_y
_atom_site_fract_z
N1 N 0.27556(14) 0.54880(13) 0.35953(8)
C1 C 0.30095(16) 0.53374(17) 0.43228(9)
C2 C 0.34543(16) 0.42507(17) 0.46199(9)
C3 C 0.35797(17) 0.31138(17) 0.41935(10)
H1 H 0.4320 0.2736 0.4402
C4 C 0.35683(17) 0.34921(17) 0.34566(10)
C5 C 0.31269(17) 0.45888(17) 0.31787(10)
C6 C 0.3027(2) 0.49334(18) 0.24240(10)
H2 H 0.3623 0.5525 0.2401
H3 H 0.2304 0.5346 0.2243
C7 C 0.3112(2) 0.38165(19) 0.19575(10)
C8 C 0.4130(2) 0.3035(2) 0.23212(11)
H4 H 0.4173 0.2301 0.2039
H5 H 0.4818 0.3518 0.2356
C9 C 0.40694(18) 0.26290(19) 0.30405(11)
O1 O 0.44673(15) 0.16240(14) 0.32827(8)
C10 C 0.38474(17) 0.41633(19) 0.53780(10)
O2 O 0.43924(13) 0.32508(14) 0.56542(7)
C11 C 0.36190(19) 0.5232(2) 0.58231(10)
H6 H 0.4298 0.5744 0.5953
H7 H 0.3474 0.4895 0.6251
C12 C 0.26252(18) 0.60626(18) 0.54738(10)
C13 C 0.27859(18) 0.64311(17) 0.47499(10)
H8 H 0.2109 0.6861 0.4493
H9 H 0.3417 0.7011 0.4811
C14 C 0.23631(17) 0.66921(16) 0.32895(9)
C15 C 0.12272(19) 0.6880(2) 0.29987(11)
H10 H 0.0704 0.6247 0.3006
C16 C 0.0868(2) 0.8029(2) 0.26929(12)
H11 H 0.0103 0.8177 0.2492
C17 C 0.1655(2) 0.8926(2) 0.26928(12)
F1 F 0.12896(15) 1.00433(14) 0.23847(9)
C18 C 0.2776(2) 0.87715(19) 0.29815(11)
H12 H 0.3289 0.9414 0.2975
C19 C 0.31400(18) 0.76320(17) 0.32868(10)
H13 H 0.3907 0.7500 0.3490
C20 C 0.2665(2) 0.21452(18) 0.42156(10)
C21 C 0.1539(2) 0.2453(3) 0.40311(14)
H14 H 0.1327 0.3265 0.3888
C22 C 0.0704(3) 0.1572(4) 0.40530(17)
H15 H -0.0062 0.1786 0.3927
C23 C 0.1033(4) 0.0402(4) 0.42623(19)
F2 F 0.0228(2) -0.0466(2) 0.42901(11)
C24 C 0.2128(4) 0.0061(3) 0.44450(16)
H16 H 0.2329 -0.0756 0.4584
C25 C 0.2952(3) 0.0936(2) 0.44245(11)
H17 H 0.3713 0.0707 0.4554
C26 C 0.2043(2) 0.3007(2) 0.18363(13)
H18 H 0.1394 0.3495 0.1609
H19 H 0.1945 0.2709 0.2279
H20 H 0.2120 0.2308 0.1545
C27 C 0.3255(3) 0.4299(2) 0.12537(12)
H21 H 0.3928 0.4803 0.1327
H22 H 0.2606 0.4794 0.1034
H23 H 0.3320 0.3605 0.0957
C28 C 0.1500(2) 0.5377(2) 0.54039(13)
H24 H 0.0885 0.5912 0.5177
H25 H 0.1414 0.5155 0.5862
H26 H 0.1495 0.4634 0.5129
C29 C 0.2624(2) 0.7252(2) 0.59063(11)
H27 H 0.1996 0.7772 0.5681
H28 H 0.3322 0.7698 0.5941
H29 H 0.2553 0.7034 0.6368
loop_
_geom_bond_atom_site_label_1
_geom_bond_atom_site_label_2
_geom_bond_site_symmetry_1
_geom_bond_site_symmetry_2
N1 C1 1_555 1_555
C1 C2 1_555 1_555
C2 C3 1_555 1_555
C3 H1 1_555 1_555
C4 C3 1_555 1_555
C5 N1 1_555 1_555
C6 C5 1_555 1_555
H2 C6 1_555 1_555
H3 C6 1_555 1_555
C7 C6 1_555 1_555
C8 C7 1_555 1_555
H4 C8 1_555 1_555
H5 C8 1_555 1_555
C9 C4 1_555 1_555
O1 C9 1_555 1_555
C10 C2 1_555 1_555
O2 C10 1_555 1_555
C11 C10 1_555 1_555
H6 C11 1_555 1_555
H7 C11 1_555 1_555
C12 C11 1_555 1_555
C13 C1 1_555 1_555
H8 C13 1_555 1_555
H9 C13 1_555 1_555
C14 N1 1_555 1_555
C15 C14 1_555 1_555
H10 C15 1_555 1_555
C16 C15 1_555 1_555
H11 C16 1_555 1_555
C17 C16 1_555 1_555
F1 C17 1_555 1_555
C18 C17 1_555 1_555
H12 C18 1_555 1_555
C19 C14 1_555 1_555
H13 C19 1_555 1_555
C20 C3 1_555 1_555
C21 C20 1_555 1_555
H14 C21 1_555 1_555
C22 C21 1_555 1_555
H15 C22 1_555 1_555
C23 C22 1_555 1_555
F2 C23 1_555 1_555
C24 C23 1_555 1_555
H16 C24 1_555 1_555
C25 C20 1_555 1_555
H17 C25 1_555 1_555
C26 C7 1_555 1_555
H18 C26 1_555 1_555
H19 C26 1_555 1_555
H20 C26 1_555 1_555
C27 C7 1_555 1_555
H21 C27 1_555 1_555
H22 C27 1_555 1_555
H23 C27 1_555 1_555
C28 C12 1_555 1_555
H24 C28 1_555 1_555
H25 C28 1_555 1_555
H26 C28 1_555 1_555
C29 C12 1_555 1_555
H27 C29 1_555 1_555
H28 C29 1_555 1_555
H29 C29 1_555 1_555
C4 C5 1_555 1_555
C8 C9 1_555 1_555
C12 C13 1_555 1_555
C18 C19 1_555 1_555
C24 C25 1_555 1_555

#END
