
#######################################################################
#
#                 Cambridge Crystallographic Data Centre
#                                CCDC 
#
#######################################################################
#
# If this CIF has been generated from an entry in the Cambridge 
# Structural Database, then it will include bibliographic, chemical, 
# crystal, experimental, refinement or atomic coordinate data resulting 
# from the CCDC's data processing and validation procedures.
#
#######################################################################

data_OMOLUY
_chemical_formula_moiety         'C9 H21 N1 O6'
_chemical_name_systematic        tris(1,3-dihydroxyprop-2-yl)amine
_symmetry_cell_setting           orthorhombic
_symmetry_space_group_name_H-M   'P b c a'
_symmetry_Int_Tables_number      61
_space_group_name_Hall           '-P 2ac 2ab'
loop_
_symmetry_equiv_pos_site_id
_symmetry_equiv_pos_as_xyz
1 x,y,z
2 1/2-x,-y,1/2+z
3 -x,1/2+y,1/2-z
4 1/2+x,1/2-y,-z
5 -x,-y,-z
6 1/2+x,y,1/2-z
7 x,1/2-y,1/2+z
8 1/2-x,1/2+y,z
_cell_length_a                   10.915(2)
_cell_length_b                   8.9100(18)
_cell_length_c                   23.635(5)
_cell_angle_alpha                90
_cell_angle_beta                 90
_cell_angle_gamma                90
_cell_volume                     2298.57
_exptl_crystal_colour            colorless
_exptl_crystal_description       prism
_cell_formula_units_Z            8
loop_
_atom_site_label
_atom_site_type_symbol
_atom_site_fract_x
_atom_site_fract_y
_atom_site_fract_z
O1 O 0.54781(7) 0.02502(8) 0.29744(3)
N1 N 0.54025(7) 0.31619(9) 0.37092(3)
O2 O 0.79707(6) 0.22275(9) 0.46848(3)
O3 O 0.70558(7) 0.47638(8) 0.29885(3)
O4 O 0.23938(7) 0.41860(9) 0.43489(3)
O5 O 0.57161(7) 0.63151(9) 0.37812(3)
O6 O 0.49101(7) -0.00440(8) 0.40596(3)
C1 C 0.70469(8) 0.31217(10) 0.44233(4)
H1 H 0.7443 0.3895 0.4185
H2 H 0.6570 0.3644 0.4720
C2 C 0.54598(8) 0.10566(10) 0.44156(4)
H3 H 0.6024 0.0563 0.4686
H4 H 0.4818 0.1583 0.4635
C3 C 0.44848(8) 0.40750(10) 0.39898(4)
H5 H 0.4702 0.4086 0.4401
C4 C 0.61682(7) 0.21878(9) 0.40556(3)
H6 H 0.6689 0.1593 0.3789
C5 C 0.53957(8) 0.30275(10) 0.30952(4)
H7 H 0.4875 0.3874 0.2956
C6 C 0.66648(9) 0.32921(11) 0.28415(4)
H8 H 0.7251 0.2542 0.2991
H9 H 0.6631 0.3187 0.2425
C7 C 0.31751(8) 0.34618(11) 0.39490(4)
H10 H 0.2855 0.3627 0.3562
H11 H 0.3181 0.2368 0.4022
C8 C 0.45118(9) 0.57150(11) 0.37894(4)
H12 H 0.4159 0.5775 0.3404
H13 H 0.3995 0.6330 0.4044
C9 C 0.48189(9) 0.16001(11) 0.28532(4)
H14 H 0.3978 0.1502 0.3006
H15 H 0.4752 0.1710 0.2438
H16 H 0.6136(15) 0.5766(18) 0.3567(6)
H17 H 0.7841(16) 0.4846(17) 0.2956(7)
H18 H 0.5303(14) 0.0024(16) 0.3317(7)
H19 H 0.4234(16) -0.0281(18) 0.4183(7)
H20 H 0.8444(16) 0.1926(17) 0.4418(7)
H21 H 0.2589(17) 0.3829(19) 0.4660(8)
loop_
_geom_bond_atom_site_label_1
_geom_bond_atom_site_label_2
_geom_bond_site_symmetry_1
_geom_bond_site_symmetry_2
O1 C9 1_555 1_555
N1 C3 1_555 1_555
O2 C1 1_555 1_555
O3 C6 1_555 1_555
O4 C7 1_555 1_555
O5 C8 1_555 1_555
O6 C2 1_555 1_555
C1 H1 1_555 1_555
H2 C1 1_555 1_555
C2 H3 1_555 1_555
H4 C2 1_555 1_555
C3 H5 1_555 1_555
C4 N1 1_555 1_555
H6 C4 1_555 1_555
C5 N1 1_555 1_555
H7 C5 1_555 1_555
C6 C5 1_555 1_555
H8 C6 1_555 1_555
H9 C6 1_555 1_555
C7 C3 1_555 1_555
H10 C7 1_555 1_555
H11 C7 1_555 1_555
C8 C3 1_555 1_555
H12 C8 1_555 1_555
H13 C8 1_555 1_555
C9 C5 1_555 1_555
H14 C9 1_555 1_555
H15 C9 1_555 1_555
H16 O5 1_555 1_555
H17 O3 1_555 1_555
H18 O1 1_555 1_555
H19 O6 1_555 1_555
H20 O2 1_555 1_555
H21 O4 1_555 1_555
C1 C4 1_555 1_555
C2 C4 1_555 1_555

#END
