
#######################################################################
#
#                 Cambridge Crystallographic Data Centre
#                                CCDC 
#
#######################################################################
#
# If this CIF has been generated from an entry in the Cambridge 
# Structural Database, then it will include bibliographic, chemical, 
# crystal, experimental, refinement or atomic coordinate data resulting 
# from the CCDC's data processing and validation procedures.
#
#######################################################################

data_ONAFEQ
_chemical_compound_source        'Schisandra propinqua var. propinqua'
_chemical_name_common            
9,9,18-trimethyl-4,8,21-trioxahexacyclo[11.7.1.0$1,13!.0$3,7!.0$3,10!.0$14,18!]henicosa-6,14-diene-5,16-dione
_chemical_formula_moiety         'C21 H24 O5'
_chemical_name_systematic        
(5aS,7aS,10aR,12aS,13aR)-5,5,10a-trimethyl-5,5a,6,7,10,10a,11,12-octahydro-2H,9H,13H-7a,12a-epoxyfuro[3,2-b]indeno[4',5':5,6]cyclohepta[1,2-c]furan-2,9-dione
_symmetry_cell_setting           monoclinic
_symmetry_space_group_name_H-M   'P 21/c'
_symmetry_Int_Tables_number      14
_space_group_name_Hall           '-P 2ybc'
loop_
_symmetry_equiv_pos_site_id
_symmetry_equiv_pos_as_xyz
1 x,y,z
2 -x,1/2+y,1/2-z
3 -x,-y,-z
4 x,1/2-y,1/2+z
_cell_length_a                   9.9111(4)
_cell_length_b                   14.8737(8)
_cell_length_c                   12.4145(5)
_cell_angle_alpha                90
_cell_angle_beta                 90.895(3)
_cell_angle_gamma                90
_cell_volume                     1829.86
_exptl_crystal_colour            colorless
_chemical_melting_point          '274-276 deg.C'
_cell_formula_units_Z            4
_exptl_crystal_recrystallization_method 'Ethyl acetate/ Hexane'
loop_
_atom_site_label
_atom_site_type_symbol
_atom_site_fract_x
_atom_site_fract_y
_atom_site_fract_z
C1 C 0.25127(15) 0.71833(11) 0.69017(11)
O1 O -0.08600(11) 0.99002(8) 0.68348(8)
C2 C 0.14326(16) 0.71300(12) 0.77598(12)
H1 H 0.1758 0.6735 0.8351
H2 H 0.0611 0.6853 0.7441
O2 O -0.05877(10) 0.77474(8) 0.57674(8)
C3 C 0.10673(16) 0.80462(12) 0.82265(11)
H3 H 0.0811 0.7974 0.8989
H4 H 0.1864 0.8447 0.8204
O3 O 0.20646(11) 0.69582(8) 0.58095(8)
C4 C -0.00961(15) 0.84742(11) 0.75971(11)
H5 H -0.0933 0.8132 0.7773
O4 O 0.60950(13) 0.51873(10) 0.82043(11)
C5 C -0.03577(16) 0.94851(12) 0.78796(11)
O5 O -0.19929(11) 0.76461(9) 0.43375(9)
C6 C -0.08978(15) 0.92448(12) 0.61028(11)
C7 C -0.16888(16) 0.90668(13) 0.52545(12)
H6 H -0.2271 0.9473 0.4882
C8 C -0.14753(15) 0.81198(13) 0.50155(11)
C9 C 0.00226(15) 0.84825(11) 0.63667(11)
C10 C 0.14448(15) 0.86188(11) 0.59338(11)
H7 H 0.1350 0.8768 0.5159
H8 H 0.1829 0.9156 0.6297
C11 C 0.24852(15) 0.78715(12) 0.60332(11)
C12 C 0.37728(16) 0.81333(14) 0.54687(12)
H9 H 0.4088 0.8718 0.5758
H10 H 0.3568 0.8216 0.4692
C13 C 0.49094(17) 0.74495(14) 0.55926(13)
H11 H 0.5751 0.7704 0.5300
H12 H 0.4680 0.6902 0.5176
C14 C 0.51347(16) 0.72022(13) 0.67766(13)
C15 C 0.61953(18) 0.64653(15) 0.69769(16)
H13 H 0.6450 0.6177 0.6291
H14 H 0.7016 0.6720 0.7324
C16 C 0.55305(18) 0.57936(13) 0.77130(14)
C17 C 0.40839(17) 0.60045(12) 0.77156(12)
H15 H 0.3413 0.5652 0.8055
C18 C 0.38493(15) 0.67642(12) 0.71705(11)
C19 C 0.08589(19) 1.00297(14) 0.82367(14)
H16 H 0.0596 1.0660 0.8327
H17 H 0.1560 0.9987 0.7691
H18 H 0.1209 0.9795 0.8924
C20 C -0.14971(19) 0.95800(13) 0.86696(13)
H19 H -0.2326 0.9328 0.8353
H20 H -0.1636 1.0218 0.8833
H21 H -0.1266 0.9256 0.9335
C21 C 0.54573(19) 0.80345(14) 0.74599(14)
H22 H 0.5733 0.7847 0.8187
H23 H 0.4654 0.8416 0.7500
H24 H 0.6192 0.8373 0.7130
loop_
_geom_bond_atom_site_label_1
_geom_bond_atom_site_label_2
_geom_bond_site_symmetry_1
_geom_bond_site_symmetry_2
C1 C2 1_555 1_555
O1 C5 1_555 1_555
C2 H1 1_555 1_555
H2 C2 1_555 1_555
O2 C8 1_555 1_555
C3 C2 1_555 1_555
H3 C3 1_555 1_555
H4 C3 1_555 1_555
O3 C1 1_555 1_555
C4 C3 1_555 1_555
H5 C4 1_555 1_555
O4 C16 1_555 1_555
C5 C4 1_555 1_555
O5 C8 1_555 1_555
C6 O1 1_555 1_555
C7 C6 1_555 1_555
H6 C7 1_555 1_555
C8 C7 1_555 1_555
C9 O2 1_555 1_555
C10 C9 1_555 1_555
H7 C10 1_555 1_555
H8 C10 1_555 1_555
C11 C1 1_555 1_555
C12 C11 1_555 1_555
H9 C12 1_555 1_555
H10 C12 1_555 1_555
C13 C12 1_555 1_555
H11 C13 1_555 1_555
H12 C13 1_555 1_555
C14 C13 1_555 1_555
C15 C14 1_555 1_555
H13 C15 1_555 1_555
H14 C15 1_555 1_555
C16 C15 1_555 1_555
C17 C16 1_555 1_555
H15 C17 1_555 1_555
C18 C1 1_555 1_555
C19 C5 1_555 1_555
H16 C19 1_555 1_555
H17 C19 1_555 1_555
H18 C19 1_555 1_555
C20 C5 1_555 1_555
H19 C20 1_555 1_555
H20 C20 1_555 1_555
H21 C20 1_555 1_555
C21 C14 1_555 1_555
H22 C21 1_555 1_555
H23 C21 1_555 1_555
H24 C21 1_555 1_555
O3 C11 1_555 1_555
C4 C9 1_555 1_555
C6 C9 1_555 1_555
C10 C11 1_555 1_555
C14 C18 1_555 1_555
C17 C18 1_555 1_555

#END
