
#######################################################################
#
#                 Cambridge Crystallographic Data Centre
#                                CCDC 
#
#######################################################################
#
# If this CIF has been generated from an entry in the Cambridge 
# Structural Database, then it will include bibliographic, chemical, 
# crystal, experimental, refinement or atomic coordinate data resulting 
# from the CCDC's data processing and validation procedures.
#
#######################################################################

data_ONAVEF
_chemical_formula_moiety         'C4 H6 N8'
_chemical_name_systematic        5,5'-Ethane-1,2-diylbis(1H-tetrazole)
_symmetry_cell_setting           monoclinic
_symmetry_space_group_name_H-M   'P 21/c'
_symmetry_Int_Tables_number      14
_space_group_name_Hall           '-P 2ybc'
loop_
_symmetry_equiv_pos_site_id
_symmetry_equiv_pos_as_xyz
1 x,y,z
2 -x,1/2+y,1/2-z
3 -x,-y,-z
4 x,1/2-y,1/2+z
_cell_length_a                   10.880(2)
_cell_length_b                   6.3978(13)
_cell_length_c                   11.873(2)
_cell_angle_alpha                90
_cell_angle_beta                 116.61(3)
_cell_angle_gamma                90
_cell_volume                     738.915
_exptl_crystal_colour            colorless
_exptl_crystal_description       block
_cell_formula_units_Z            4
loop_
_atom_site_label
_atom_site_type_symbol
_atom_site_fract_x
_atom_site_fract_y
_atom_site_fract_z
N1 N 0.56829(13) 0.1655(2) 0.14203(12)
N2 N 0.34701(13) 0.1328(2) 0.05721(12)
H1 H 0.2609 0.1569 0.0120
N3 N 0.53339(14) -0.0116(2) 0.18519(13)
C1 C 0.45032(14) 0.2537(2) 0.06237(14)
N4 N 0.40038(15) -0.0324(2) 0.13447(15)
C2 C 0.43233(16) 0.4517(3) -0.00979(17)
H2 H 0.3825 0.5513 0.0158
H3 H 0.3773 0.4235 -0.0988
N1B N 0.43171(13) 0.8345(2) -0.14203(12)
N2B N 0.65299(13) 0.8672(2) -0.05721(12)
H1B H 0.7391 0.8431 -0.0120
N3B N 0.46661(14) 1.0116(2) -0.18519(13)
C1B C 0.54968(14) 0.7463(2) -0.06237(14)
N4B N 0.59962(15) 1.0324(2) -0.13447(15)
C2B C 0.56767(16) 0.5483(3) 0.00979(17)
H2B H 0.6175 0.4487 -0.0158
H3B H 0.6227 0.5765 0.0988
N5 N 0.05621(13) 0.1486(2) -0.08122(12)
N6 N -0.15957(13) 0.1743(2) -0.20930(12)
H4 H -0.2426 0.2203 -0.2458
N7 N 0.01609(15) -0.0146(2) -0.16464(14)
C3 C -0.05553(14) 0.2639(3) -0.11103(14)
N8 N -0.11344(15) 0.0005(2) -0.24187(14)
C4 C -0.06866(16) 0.4588(3) -0.04885(16)
H5 H -0.1274 0.4317 -0.0086
H6 H -0.1127 0.5653 -0.1125
N5B N -0.05621(13) 0.8514(2) 0.08122(12)
N6B N 0.15957(13) 0.8257(2) 0.20930(12)
H4B H 0.2426 0.7797 0.2458
N7B N -0.01609(15) 1.0146(2) 0.16464(14)
C3B C 0.05553(14) 0.7361(3) 0.11103(14)
N8B N 0.11344(15) 0.9995(2) 0.24187(14)
C4B C 0.06866(16) 0.5412(3) 0.04885(16)
H5B H 0.1274 0.5683 0.0086
H6B H 0.1127 0.4347 0.1125
loop_
_geom_bond_atom_site_label_1
_geom_bond_atom_site_label_2
_geom_bond_site_symmetry_1
_geom_bond_site_symmetry_2
N1 N3 1_555 1_555
N2 H1 1_555 1_555
N3 N4 1_555 1_555
C1 N1 1_555 1_555
N4 N2 1_555 1_555
C2 C1 1_555 1_555
H2 C2 1_555 1_555
H3 C2 1_555 1_555
N5 N7 1_555 1_555
N6 H4 1_555 1_555
N7 N8 1_555 1_555
C3 N5 1_555 1_555
N8 N6 1_555 1_555
C4 C3 1_555 1_555
H5 C4 1_555 1_555
H6 C4 1_555 1_555
N1B N3B 1_555 1_555
N2B H1B 1_555 1_555
N3B N4B 1_555 1_555
C1B N1B 1_555 1_555
N4B N2B 1_555 1_555
C2B C2 1_555 1_555
H2B C2B 1_555 1_555
H3B C2B 1_555 1_555
N5B N7B 1_555 1_555
N6B H4B 1_555 1_555
N7B N8B 1_555 1_555
C3B N5B 1_555 1_555
N8B N6B 1_555 1_555
C4B C4 1_555 1_555
H5B C4B 1_555 1_555
H6B C4B 1_555 1_555
N2 C1 1_555 1_555
N6 C3 1_555 1_555
N2B C1B 1_555 1_555
C1B C2B 1_555 1_555
N6B C3B 1_555 1_555
C3B C4B 1_555 1_555

#END
