
#######################################################################
#
#                 Cambridge Crystallographic Data Centre
#                                CCDC 
#
#######################################################################
#
# If this CIF has been generated from an entry in the Cambridge 
# Structural Database, then it will include bibliographic, chemical, 
# crystal, experimental, refinement or atomic coordinate data resulting 
# from the CCDC's data processing and validation procedures.
#
#######################################################################

data_ONEBIT
_chemical_formula_moiety         'C33 H30 N12 S3,0.5(C2 H3 N1)'
_chemical_name_systematic        
'syn-2,4,6-tris(((1-Phenyl-1H-tetrazol-5-yl)sulfanyl)methyl)-1,3,5-trimethylbenzene acetonitrile solvate'
_symmetry_cell_setting           triclinic
_symmetry_space_group_name_H-M   'P -1'
_symmetry_Int_Tables_number      2
_space_group_name_Hall           '-P 1'
loop_
_symmetry_equiv_pos_site_id
_symmetry_equiv_pos_as_xyz
1 x,y,z
2 -x,-y,-z
_cell_length_a                   13.815(4)
_cell_length_b                   15.133(5)
_cell_length_c                   18.047(6)
_cell_angle_alpha                78.186(11)
_cell_angle_beta                 75.196(9)
_cell_angle_gamma                75.301(9)
_cell_volume                     3488.62
_exptl_crystal_colour            colorless
_exptl_crystal_description       prism
_cell_formula_units_Z            4
loop_
_atom_site_label
_atom_site_type_symbol
_atom_site_fract_x
_atom_site_fract_y
_atom_site_fract_z
S1 S 0.74088(6) 0.41481(5) 0.48718(4)
S2 S 0.64556(6) 0.59755(4) 0.19594(5)
S3 S 1.05093(5) 0.32676(5) 0.18349(4)
N1 N 0.64857(19) 0.32146(16) 0.62034(14)
N2 N 0.6259(2) 0.3282(2) 0.69758(15)
N3 N 0.6584(2) 0.3944(2) 0.71062(14)
N4 N 0.70479(16) 0.43448(15) 0.64040(12)
N5 N 0.50595(16) 0.63951(14) 0.10385(13)
N6 N 0.45036(19) 0.71884(16) 0.07084(15)
N7 N 0.46662(18) 0.79031(15) 0.09012(14)
N8 N 0.53359(15) 0.75894(13) 0.13763(12)
N9 N 1.13187(17) 0.20689(15) 0.07747(13)
N10 N 1.21446(19) 0.19788(17) 0.01614(14)
N11 N 1.26460(18) 0.26212(17) 0.00655(13)
N12 N 1.21469(15) 0.31608(14) 0.06281(12)
C1 C 0.7121(3) 0.5634(2) 0.6965(2)
H1 H 0.6596 0.5484 0.7375
C2 C 0.7545(4) 0.6364(3) 0.6958(3)
H2 H 0.7323 0.6694 0.7374
C3 C 0.8282(4) 0.6607(3) 0.6354(3)
H3 H 0.8543 0.7120 0.6341
C4 C 0.8646(4) 0.6093(3) 0.5755(2)
H4 H 0.9163 0.6254 0.5343
C5 C 0.8249(3) 0.5335(2) 0.57620(19)
H5 H 0.8507 0.4977 0.5365
C6 C 0.7472(2) 0.51242(18) 0.63645(17)
C7 C 0.69704(19) 0.38780(17) 0.58598(14)
C8 C 0.7059(2) 0.32328(17) 0.45410(14)
H6 H 0.7426 0.2632 0.4743
H7 H 0.6329 0.3257 0.4716
C9 C 0.73508(19) 0.33962(15) 0.36616(14)
C10 C 0.5624(2) 0.44864(19) 0.36779(17)
H8 H 0.5388 0.5062 0.3371
H9 H 0.5692 0.4601 0.4164
H10 H 0.5139 0.4100 0.3770
C11 C 0.66528(18) 0.40073(15) 0.32486(14)
C12 C 0.5630(2) 0.80146(19) 0.25082(18)
H11 H 0.5371 0.7515 0.2809
C13 C 0.5977(3) 0.8583(2) 0.2848(2)
H12 H 0.5969 0.8459 0.3376
C14 C 0.6330(2) 0.9330(2) 0.2399(3)
H13 H 0.6551 0.9722 0.2625
C15 C 0.6359(3) 0.9502(2) 0.1634(3)
H14 H 0.6598 1.0014 0.1338
C16 C 0.6041(2) 0.89305(18) 0.1278(2)
H15 H 0.6077 0.9046 0.0746
C17 C 0.56723(18) 0.81946(15) 0.17253(16)
C18 C 0.55714(18) 0.66608(15) 0.14444(14)
C19 C 0.6199(2) 0.48495(16) 0.19857(16)
H16 H 0.5494 0.4832 0.2242
H17 H 0.6319 0.4709 0.1465
C20 C 0.69287(18) 0.41671(15) 0.24345(14)
C21 C 0.8196(2) 0.39483(19) 0.11638(15)
H18 H 0.8930 0.3828 0.1010
H19 H 0.7922 0.4588 0.1001
H20 H 0.7938 0.3570 0.0926
C22 C 0.78800(19) 0.37261(15) 0.20374(14)
C23 C 1.1790(2) 0.47802(18) 0.07617(16)
H21 H 1.1115 0.4830 0.0734
C24 C 1.2104(3) 0.5533(2) 0.08644(19)
H22 H 1.1633 0.6089 0.0921
C25 C 1.3100(3) 0.5469(3) 0.0884(2)
H23 H 1.3305 0.5980 0.0956
C26 C 1.3799(3) 0.4653(3) 0.0798(2)
H24 H 1.4481 0.4618 0.0798
C27 C 1.3498(2) 0.3884(2) 0.07119(19)
H25 H 1.3969 0.3327 0.0662
C28 C 1.24843(19) 0.39568(18) 0.07012(14)
C29 C 1.13427(18) 0.28031(17) 0.10507(15)
C30 C 0.95458(19) 0.25752(16) 0.20266(16)
H26 H 0.9455 0.2459 0.1542
H27 H 0.9764 0.1986 0.2334
C31 C 0.85530(17) 0.30940(15) 0.24585(14)
C32 C 0.9084(2) 0.23486(19) 0.37274(17)
H28 H 0.8942 0.1741 0.3883
H29 H 0.9041 0.2611 0.4179
H30 H 0.9761 0.2310 0.3407
C33 C 0.83079(18) 0.29541(15) 0.32735(14)
S4 S 0.47990(5) 1.15473(5) 0.31363(4)
S5 S 0.77177(6) 1.08816(5) -0.01216(4)
S6 S 0.88291(6) 0.89100(4) 0.29185(6)
N13 N 0.4455(2) 1.23993(19) 0.44081(15)
N14 N 0.3842(3) 1.2340(3) 0.51285(18)
N15 N 0.3307(3) 1.1726(2) 0.52322(17)
N16 N 0.35620(19) 1.13649(17) 0.45615(13)
N17 N 0.8351(2) 1.21008(17) -0.13699(14)
N18 N 0.8421(3) 1.2218(2) -0.21515(16)
N19 N 0.8093(2) 1.1591(2) -0.23442(15)
N20 N 0.77852(18) 1.10337(16) -0.16753(13)
N21 N 1.01101(17) 0.86438(15) 0.39175(14)
N22 N 1.0639(2) 0.78842(17) 0.43134(15)
N23 N 1.0490(2) 0.71321(16) 0.41829(14)
N24 N 0.98411(16) 0.73833(13) 0.36905(12)
C34 C 0.3723(3) 0.9852(2) 0.4230(2)
H31 H 0.4432 0.9769 0.4135
C35 C 0.3284(4) 0.9167(3) 0.4135(2)
H32 H 0.3699 0.8625 0.3969
C36 C 0.2255(4) 0.9286(3) 0.4283(2)
H33 H 0.1963 0.8825 0.4217
C37 C 0.1637(3) 1.0082(4) 0.4530(2)
H34 H 0.0929 1.0156 0.4635
C38 C 0.2065(3) 1.0779(3) 0.4622(2)
H35 H 0.1650 1.1321 0.4789
C39 C 0.3109(2) 1.0652(2) 0.44641(16)
C40 C 0.4263(2) 1.17926(19) 0.40647(16)
C41 C 0.57447(18) 1.22732(16) 0.28490(15)
H36 H 0.5480 1.2848 0.2542
H37 H 0.5880 1.2420 0.3307
C42 C 0.67244(17) 1.17718(14) 0.23809(13)
C43 C 0.6117(2) 1.25429(19) 0.11537(17)
H38 H 0.5450 1.2549 0.1483
H39 H 0.6155 1.2310 0.0688
H40 H 0.6236 1.3160 0.1023
C44 C 0.69174(18) 1.19322(15) 0.15709(14)
C45 C 0.6614(2) 0.99860(19) -0.1128(2)
H41 H 0.6327 1.0309 -0.0709
C46 C 0.6260(3) 0.9231(2) -0.1186(2)
H42 H 0.5729 0.9043 -0.0801
C47 C 0.6676(4) 0.8760(3) -0.1799(3)
H43 H 0.6431 0.8253 -0.1829
C48 C 0.7458(4) 0.9031(3) -0.2374(3)
H44 H 0.7733 0.8711 -0.2795
C49 C 0.7837(3) 0.9773(3) -0.2330(2)
H45 H 0.8375 0.9952 -0.2712
C50 C 0.7401(2) 1.02470(19) -0.17045(17)
C51 C 0.7956(2) 1.13640(18) -0.10874(15)
C52 C 0.8105(2) 1.17227(19) 0.02794(15)
H46 H 0.8834 1.1696 0.0091
H47 H 0.7740 1.2342 0.0118
C53 C 0.78628(19) 1.15003(16) 0.11517(14)
C54 C 0.9587(2) 1.0393(2) 0.1083(2)
H48 H 1.0110 1.0727 0.1038
H49 H 0.9508 1.0365 0.0576
H50 H 0.9779 0.9778 0.1347
C55 C 0.85836(18) 1.08814(16) 0.15393(16)
C56 C 1.0213(2) 0.60997(18) 0.29741(17)
H51 H 1.0902 0.6125 0.2846
C57 C 0.9876(3) 0.54467(19) 0.2727(2)
H52 H 1.0346 0.5018 0.2439
C58 C 0.8854(3) 0.5425(2) 0.2904(2)
H53 H 0.8635 0.4984 0.2734
C59 C 0.8157(3) 0.6052(2) 0.3329(2)
H54 H 0.7465 0.6040 0.3442
C60 C 0.8478(2) 0.6703(2) 0.35917(17)
H55 H 0.8007 0.7128 0.3884
C61 C 0.95020(19) 0.67114(16) 0.34134(14)
C62 C 0.96238(19) 0.83111(16) 0.35318(15)
C63 C 0.9134(2) 1.00473(16) 0.27747(19)
H56 H 0.9083 1.0231 0.3270
H57 H 0.9826 1.0036 0.2472
C64 C 0.83642(18) 1.07166(15) 0.23478(16)
C65 C 0.7172(2) 1.09275(19) 0.36472(15)
H58 H 0.7507 1.0304 0.3807
H59 H 0.6444 1.0993 0.3821
H60 H 0.7398 1.1345 0.3868
C66 C 0.74371(18) 1.11479(14) 0.27755(14)
N25 N 0.9481(3) 0.6125(3) 0.0593(3)
C67 C 0.8965(4) 0.7509(3) 0.1331(3)
H61 H 0.8355 0.7455 0.1722
H62 H 0.8836 0.8072 0.0979
H63 H 0.9507 0.7516 0.1572
C68 C 0.9258(3) 0.6745(3) 0.0918(2)
loop_
_geom_bond_atom_site_label_1
_geom_bond_atom_site_label_2
_geom_bond_site_symmetry_1
_geom_bond_site_symmetry_2
S1 C7 1_555 1_555
S2 C18 1_555 1_555
S3 C29 1_555 1_555
S4 C40 1_555 1_555
S5 C51 1_555 1_555
S6 C62 1_555 1_555
N1 N2 1_555 1_555
N2 N3 1_555 1_555
N3 N4 1_555 1_555
N4 C6 1_555 1_555
N5 N6 1_555 1_555
N6 N7 1_555 1_555
N7 N8 1_555 1_555
N8 C17 1_555 1_555
N9 N10 1_555 1_555
N10 N11 1_555 1_555
N11 N12 1_555 1_555
N12 C28 1_555 1_555
N13 N14 1_555 1_555
N14 N15 1_555 1_555
N15 N16 1_555 1_555
N16 C39 1_555 1_555
N17 N18 1_555 1_555
N18 N19 1_555 1_555
N19 N20 1_555 1_555
N20 C50 1_555 1_555
N21 N22 1_555 1_555
N22 N23 1_555 1_555
N23 N24 1_555 1_555
N24 C61 1_555 1_555
N25 C68 1_555 1_555
C1 H1 1_555 1_555
C2 C1 1_555 1_555
H2 C2 1_555 1_555
C3 C2 1_555 1_555
H3 C3 1_555 1_555
C4 C3 1_555 1_555
H4 C4 1_555 1_555
C5 C4 1_555 1_555
H5 C5 1_555 1_555
C6 C1 1_555 1_555
C7 N1 1_555 1_555
C8 S1 1_555 1_555
H6 C8 1_555 1_555
H7 C8 1_555 1_555
C9 C8 1_555 1_555
C10 H8 1_555 1_555
H9 C10 1_555 1_555
H10 C10 1_555 1_555
C11 C9 1_555 1_555
C12 H11 1_555 1_555
C13 C12 1_555 1_555
H12 C13 1_555 1_555
C14 C13 1_555 1_555
H13 C14 1_555 1_555
C15 C14 1_555 1_555
H14 C15 1_555 1_555
C16 C15 1_555 1_555
H15 C16 1_555 1_555
C17 C12 1_555 1_555
C18 N5 1_555 1_555
C19 S2 1_555 1_555
H16 C19 1_555 1_555
H17 C19 1_555 1_555
C20 C11 1_555 1_555
C21 H18 1_555 1_555
H19 C21 1_555 1_555
H20 C21 1_555 1_555
C22 C20 1_555 1_555
C23 H21 1_555 1_555
C24 C23 1_555 1_555
H22 C24 1_555 1_555
C25 C24 1_555 1_555
H23 C25 1_555 1_555
C26 C25 1_555 1_555
H24 C26 1_555 1_555
C27 C26 1_555 1_555
H25 C27 1_555 1_555
C28 C23 1_555 1_555
C29 N9 1_555 1_555
C30 S3 1_555 1_555
H26 C30 1_555 1_555
H27 C30 1_555 1_555
C31 C22 1_555 1_555
C32 H28 1_555 1_555
H29 C32 1_555 1_555
H30 C32 1_555 1_555
C33 C9 1_555 1_555
C34 H31 1_555 1_555
C35 C34 1_555 1_555
H32 C35 1_555 1_555
C36 C35 1_555 1_555
H33 C36 1_555 1_555
C37 C36 1_555 1_555
H34 C37 1_555 1_555
C38 C37 1_555 1_555
H35 C38 1_555 1_555
C39 C34 1_555 1_555
C40 N13 1_555 1_555
C41 S4 1_555 1_555
H36 C41 1_555 1_555
H37 C41 1_555 1_555
C42 C41 1_555 1_555
C43 H38 1_555 1_555
H39 C43 1_555 1_555
H40 C43 1_555 1_555
C44 C42 1_555 1_555
C45 H41 1_555 1_555
C46 C45 1_555 1_555
H42 C46 1_555 1_555
C47 C46 1_555 1_555
H43 C47 1_555 1_555
C48 C47 1_555 1_555
H44 C48 1_555 1_555
C49 C48 1_555 1_555
H45 C49 1_555 1_555
C50 C45 1_555 1_555
C51 N17 1_555 1_555
C52 S5 1_555 1_555
H46 C52 1_555 1_555
H47 C52 1_555 1_555
C53 C44 1_555 1_555
C54 H48 1_555 1_555
H49 C54 1_555 1_555
H50 C54 1_555 1_555
C55 C53 1_555 1_555
C56 H51 1_555 1_555
C57 C56 1_555 1_555
H52 C57 1_555 1_555
C58 C57 1_555 1_555
H53 C58 1_555 1_555
C59 C58 1_555 1_555
H54 C59 1_555 1_555
C60 C59 1_555 1_555
H55 C60 1_555 1_555
C61 C56 1_555 1_555
C62 N21 1_555 1_555
C63 S6 1_555 1_555
H56 C63 1_555 1_555
H57 C63 1_555 1_555
C64 C55 1_555 1_555
C65 H58 1_555 1_555
H59 C65 1_555 1_555
H60 C65 1_555 1_555
C66 C42 1_555 1_555
C67 H61 1_555 1_555
H62 C67 1_555 1_555
H63 C67 1_555 1_555
C68 C67 1_555 1_555
N4 C7 1_555 1_555
N8 C18 1_555 1_555
N12 C29 1_555 1_555
N16 C40 1_555 1_555
N20 C51 1_555 1_555
N24 C62 1_555 1_555
C5 C6 1_555 1_555
C10 C11 1_555 1_555
C16 C17 1_555 1_555
C19 C20 1_555 1_555
C21 C22 1_555 1_555
C27 C28 1_555 1_555
C30 C31 1_555 1_555
C31 C33 1_555 1_555
C32 C33 1_555 1_555
C38 C39 1_555 1_555
C43 C44 1_555 1_555
C49 C50 1_555 1_555
C52 C53 1_555 1_555
C54 C55 1_555 1_555
C60 C61 1_555 1_555
C63 C64 1_555 1_555
C64 C66 1_555 1_555
C65 C66 1_555 1_555

#END
