
#######################################################################
#
#                 Cambridge Crystallographic Data Centre
#                                CCDC 
#
#######################################################################
#
# If this CIF has been generated from an entry in the Cambridge 
# Structural Database, then it will include bibliographic, chemical, 
# crystal, experimental, refinement or atomic coordinate data resulting 
# from the CCDC's data processing and validation procedures.
#
#######################################################################

data_ONEFOD
_chemical_formula_moiety         'C32 H48 Li1 N1 O3'
_chemical_name_systematic        
(2,6-Diisopropyl-N-(1-phenylvinyl)anilido-N)-tris(tetrahydrofuran)-lithium
_symmetry_cell_setting           triclinic
_symmetry_space_group_name_H-M   'P -1'
_symmetry_Int_Tables_number      2
_space_group_name_Hall           '-P 1'
loop_
_symmetry_equiv_pos_site_id
_symmetry_equiv_pos_as_xyz
1 x,y,z
2 -x,-y,-z
_cell_length_a                   9.5595(19)
_cell_length_b                   11.331(2)
_cell_length_c                   14.764(3)
_cell_angle_alpha                86.47(3)
_cell_angle_beta                 81.59(3)
_cell_angle_gamma                73.86(3)
_cell_volume                     1519.3
_exptl_crystal_colour            colorless
_exptl_crystal_description       prism
_cell_formula_units_Z            2
_exptl_crystal_recrystallization_method tetrahydrofuran
loop_
_atom_site_label
_atom_site_type_symbol
_atom_site_fract_x
_atom_site_fract_y
_atom_site_fract_z
O1 O 0.21390(12) 0.21890(10) 0.31345(8)
N1 N 0.50784(12) 0.33245(10) 0.24513(8)
C1 C 0.57914(15) 0.21782(12) 0.28444(10)
O2 O 0.22838(13) 0.31825(12) 0.11347(8)
O3 O 0.15094(13) 0.49366(10) 0.27690(9)
C2 C 0.57667(16) 0.20420(13) 0.38053(10)
C3 C 0.51341(16) 0.53990(13) 0.20174(10)
C4 C 0.64814(16) 0.11518(13) 0.22892(11)
C5 C 0.70327(19) 0.00062(14) 0.27030(12)
H1 H 0.7474 -0.0689 0.2330
C6 C 0.51486(18) 0.31388(15) 0.44226(11)
H2 H 0.4849 0.3884 0.4021
C7 C 0.42569(18) 0.56079(15) 0.13250(12)
H3 H 0.4159 0.4930 0.1016
C8 C 0.66324(18) 0.12789(14) 0.12522(11)
H4 H 0.6366 0.2177 0.1091
C9 C 0.63305(19) 0.08785(15) 0.41853(12)
H5 H 0.6287 0.0782 0.4832
C10 C 0.59149(16) 0.41267(13) 0.23055(11)
C11 C 0.6949(2) -0.01353(15) 0.36438(13)
H6 H 0.7315 -0.0923 0.3915
C12 C 0.5267(2) 0.64204(15) 0.24479(12)
H7 H 0.5876 0.6299 0.2918
C13 C 0.3516(2) 0.67965(18) 0.10754(14)
H8 H 0.2919 0.6925 0.0598
C14 C 0.6307(2) 0.33359(19) 0.49691(14)
H9 H 0.7175 0.3403 0.4547
H10 H 0.6587 0.2638 0.5393
H11 H 0.5899 0.4093 0.5316
C15 C 0.4529(2) 0.76083(17) 0.22027(15)
H12 H 0.4631 0.8291 0.2504
C16 C 0.1164(2) 0.2582(2) 0.10699(13)
H13 H 0.0343 0.2834 0.1573
H14 H 0.1569 0.1678 0.1103
C17 C 0.0645(2) 0.2980(2) 0.01550(14)
H15 H 0.0245 0.2361 -0.0082
H16 H -0.0111 0.3782 0.0191
C18 C 0.3647(2) 0.77904(16) 0.15201(15)
H17 H 0.3128 0.8600 0.1355
C19 C 0.07038(19) 0.24778(17) 0.36676(13)
H18 H -0.0063 0.2857 0.3273
H19 H 0.0645 0.3058 0.4156
C20 C 0.7353(2) 0.39060(18) 0.24132(17)
H20 H 0.7882 0.3116 0.2612
H21 H 0.7830 0.4542 0.2290
C21 C 0.2774(2) 0.08852(16) 0.31849(16)
H22 H 0.3489 0.0679 0.3631
H23 H 0.3291 0.0577 0.2579
C22 C 0.3788(2) 0.3038(2) 0.50682(13)
H24 H 0.3052 0.2918 0.4711
H25 H 0.3379 0.3793 0.5417
H26 H 0.4057 0.2336 0.5491
C23 C 0.2803(2) 0.35650(19) 0.02234(12)
H27 H 0.3881 0.3227 0.0085
H28 H 0.2560 0.4473 0.0171
C24 C 0.0435(2) 0.56929(17) 0.22396(15)
H29 H -0.0365 0.5304 0.2212
H30 H 0.0894 0.5812 0.1607
Li1 Li 0.2993(3) 0.3419(2) 0.23488(18)
C25 C 0.8211(2) 0.0720(2) 0.08093(15)
H31 H 0.8264 0.0819 0.0142
H32 H 0.8517 -0.0156 0.0975
H33 H 0.8863 0.1139 0.1027
C26 C 0.5575(2) 0.0723(2) 0.08677(13)
H34 H 0.4570 0.1099 0.1155
H35 H 0.5834 -0.0165 0.0995
H36 H 0.5640 0.0876 0.0204
C27 C 0.2040(3) 0.3075(2) -0.04236(14)
H37 H 0.2640 0.2261 -0.0651
H38 H 0.1829 0.3646 -0.0953
C28 C 0.1630(3) 0.5627(2) 0.35213(16)
H39 H 0.1311 0.5245 0.4108
H40 H 0.2665 0.5635 0.3514
C29 C 0.1547(3) 0.0322(2) 0.3481(2)
H41 H 0.1885 -0.0462 0.3823
H42 H 0.1102 0.0169 0.2950
C30 C 0.0720(10) 0.6855(5) 0.3438(5)
H43 H 0.1339 0.7429 0.3297
H44 H 0.0076 0.7098 0.4023
C31 C -0.0163(8) 0.6915(6) 0.2715(5)
H45 H -0.0080 0.7601 0.2281
H46 H -0.1210 0.7039 0.2970
C32 C 0.0493(8) 0.1267(5) 0.4083(6)
H47 H 0.0721 0.1155 0.4721
H48 H -0.0529 0.1230 0.4079
C33? C 0.0201(6) 0.1305(6) 0.3653(9)
C34? C -0.0577(10) 0.6552(10) 0.2916(7)
C35? C 0.0199(9) 0.6554(10) 0.3692(6)
H49? H -0.0369 0.1168 0.4247
H50? H -0.0418 0.1361 0.3161
H51? H -0.0868 0.7388 0.2641
H52? H -0.1475 0.6280 0.3116
H53? H -0.0372 0.6347 0.4265
H54? H 0.0344 0.7376 0.3752
loop_
_geom_bond_atom_site_label_1
_geom_bond_atom_site_label_2
_geom_bond_site_symmetry_1
_geom_bond_site_symmetry_2
O1 C19 1_555 1_555
N1 C1 1_555 1_555
C1 C2 1_555 1_555
O2 C16 1_555 1_555
O3 C24 1_555 1_555
C2 C6 1_555 1_555
C3 C7 1_555 1_555
C4 C1 1_555 1_555
C5 C4 1_555 1_555
H1 C5 1_555 1_555
C6 H2 1_555 1_555
C7 H3 1_555 1_555
C8 C4 1_555 1_555
H4 C8 1_555 1_555
C9 C2 1_555 1_555
H5 C9 1_555 1_555
C10 N1 1_555 1_555
C11 C5 1_555 1_555
H6 C11 1_555 1_555
C12 C3 1_555 1_555
H7 C12 1_555 1_555
C13 C7 1_555 1_555
H8 C13 1_555 1_555
C14 C6 1_555 1_555
H9 C14 1_555 1_555
H10 C14 1_555 1_555
H11 C14 1_555 1_555
C15 C12 1_555 1_555
H12 C15 1_555 1_555
C16 H13 1_555 1_555
H14 C16 1_555 1_555
C17 C16 1_555 1_555
H15 C17 1_555 1_555
H16 C17 1_555 1_555
C18 C13 1_555 1_555
H17 C18 1_555 1_555
C19 H18 1_555 1_555
H19 C19 1_555 1_555
C20 C10 1_555 1_555
H20 C20 1_555 1_555
H21 C20 1_555 1_555
C21 O1 1_555 1_555
H22 C21 1_555 1_555
H23 C21 1_555 1_555
C22 C6 1_555 1_555
H24 C22 1_555 1_555
H25 C22 1_555 1_555
H26 C22 1_555 1_555
C23 O2 1_555 1_555
H27 C23 1_555 1_555
H28 C23 1_555 1_555
C24 H29 1_555 1_555
H30 C24 1_555 1_555
Li1 O1 1_555 1_555
C25 C8 1_555 1_555
H31 C25 1_555 1_555
H32 C25 1_555 1_555
H33 C25 1_555 1_555
C26 C8 1_555 1_555
H34 C26 1_555 1_555
H35 C26 1_555 1_555
H36 C26 1_555 1_555
C27 C17 1_555 1_555
H37 C27 1_555 1_555
H38 C27 1_555 1_555
C28 O3 1_555 1_555
H39 C28 1_555 1_555
H40 C28 1_555 1_555
C29 C21 1_555 1_555
H41 C29 1_555 1_555
H42 C29 1_555 1_555
C30 C28 1_555 1_555
H43 C30 1_555 1_555
H44 C30 1_555 1_555
C31 C24 1_555 1_555
H45 C31 1_555 1_555
H46 C31 1_555 1_555
C32 C19 1_555 1_555
H47 C32 1_555 1_555
H48 C32 1_555 1_555
N1 Li1 1_555 1_555
O2 Li1 1_555 1_555
O3 Li1 1_555 1_555
C3 C10 1_555 1_555
C9 C11 1_555 1_555
C15 C18 1_555 1_555
C23 C27 1_555 1_555
C29 C32 1_555 1_555
C30 C31 1_555 1_555

#END
