
#######################################################################
#
#                 Cambridge Crystallographic Data Centre
#                                CCDC 
#
#######################################################################
#
# If this CIF has been generated from an entry in the Cambridge 
# Structural Database, then it will include bibliographic, chemical, 
# crystal, experimental, refinement or atomic coordinate data resulting 
# from the CCDC's data processing and validation procedures.
#
#######################################################################

data_ONEFET
_chemical_formula_moiety         '2(C33 H30 N12 S3),0.5(C8 H10)'
_chemical_name_systematic        
'syn-bis(2,4,6-tris(((1-Phenyl-1H-tetrazol-5-yl)sulfanyl)methyl)-1,3,5-trimethylbenzene) hemikis(p-xylene) clathrate'
_symmetry_cell_setting           trigonal
_symmetry_space_group_name_H-M   'P -3 c 1'
_symmetry_Int_Tables_number      165
_space_group_name_Hall           '-P 3 2"c'
loop_
_symmetry_equiv_pos_site_id
_symmetry_equiv_pos_as_xyz
1 x,y,z
2 -y,x-y,z
3 -x+y,-x,z
4 x-y,-y,1/2-z
5 -x,-x+y,1/2-z
6 y,x,1/2-z
7 -x,-y,-z
8 y,-x+y,-z
9 x-y,x,-z
10 -x+y,y,1/2+z
11 x,x-y,1/2+z
12 -y,-x,1/2+z
_cell_length_a                   13.0958(2)
_cell_length_b                   13.0958(2)
_cell_length_c                   27.2611(9)
_cell_angle_alpha                90
_cell_angle_beta                 90
_cell_angle_gamma                120
_cell_volume                     4048.91
_exptl_crystal_colour            colorless
_exptl_crystal_description       block
_cell_formula_units_Z            2
loop_
_atom_site_label
_atom_site_type_symbol
_atom_site_fract_x
_atom_site_fract_y
_atom_site_fract_z
S1 S 0.96399(4) 0.39124(5) 0.367585(17)
N1 N 1.1530(2) 0.4306(3) 0.31074(8)
N2 N 1.2640(2) 0.4517(4) 0.31962(10)
N3 N 1.2858(2) 0.4566(4) 0.36567(10)
N4 N 1.18565(17) 0.4366(2) 0.38894(7)
C1 C 0.8599(2) 0.57736(19) 0.30916(9)
H1 H 0.8832 0.6026 0.2759
H2 H 0.9256 0.5825 0.3269
H3 H 0.8347 0.6271 0.3245
C2 C 0.75934(16) 0.45100(16) 0.30941(6)
C3 C 0.78328(16) 0.35773(16) 0.30873(6)
C4 C 0.90952(17) 0.3848(2) 0.30530(7)
H4 H 0.9573 0.4597 0.2888
H5 H 0.9136 0.3239 0.2867
C5 C 1.10555(18) 0.4215(2) 0.35421(8)
C6 C 1.17762(19) 0.4328(2) 0.44115(8)
C7 C 1.1455(2) 0.5047(2) 0.46524(9)
H6 H 1.1276 0.5550 0.4479
C8 C 1.1403(3) 0.5006(3) 0.51595(11)
H7 H 1.1178 0.5478 0.5328
C9 C 1.1678(3) 0.4280(4) 0.54145(11)
H8 H 1.1651 0.4269 0.5755
C10 C 1.1994(3) 0.3570(4) 0.51697(13)
H9 H 1.2182 0.3078 0.5346
C11 C 1.2036(3) 0.3575(3) 0.46616(11)
H10 H 1.2234 0.3080 0.4494
S1B S 0.42725(6) 0.03601(4) 0.367585(17)
S1A S 0.60876(5) 0.57275(6) 0.367585(17)
N1B N 0.2776(4) -0.1530(2) 0.31074(8)
N1A N 0.5694(3) 0.7224(4) 0.31074(8)
N2B N 0.1877(4) -0.2640(2) 0.31962(10)
N2A N 0.5483(4) 0.8123(4) 0.31962(10)
N3B N 0.1708(4) -0.2858(2) 0.36567(10)
N3A N 0.5434(4) 0.8292(4) 0.36567(10)
N4B N 0.25095(26) -0.18565(17) 0.38894(7)
N4A N 0.5634(2) 0.74905(26) 0.38894(7)
C1A C 0.42264(19) 0.28254(28) 0.30916(9)
C1B C 0.71746(28) 0.1401(2) 0.30916(9)
H1A H 0.3974 0.2806 0.2759
H1B H 0.7194 0.1168 0.2759
H2A H 0.4175 0.3431 0.3269
H2B H 0.6569 0.0744 0.3269
H3A H 0.3729 0.2076 0.3245
H3B H 0.7924 0.1653 0.3245
C2A C 0.54900(16) 0.30834(23) 0.30941(6)
C2B C 0.69166(23) 0.24066(16) 0.30941(6)
C3A C 0.64227(16) 0.42555(23) 0.30873(6)
C3B C 0.57445(23) 0.21672(16) 0.30873(6)
C4B C 0.47528(26) 0.09048(17) 0.30530(7)
C4A C 0.6152(2) 0.52472(26) 0.30530(7)
H4B H 0.5024 0.0427 0.2888
H4A H 0.5403 0.4976 0.2888
H5B H 0.4103 0.0864 0.2867
H5A H 0.6761 0.5897 0.2867
C5B C 0.31595(27) -0.10555(18) 0.35421(8)
C5A C 0.5785(2) 0.68405(27) 0.35421(8)
C6B C 0.25518(28) -0.17762(19) 0.44115(8)
C6A C 0.5672(2) 0.74482(28) 0.44115(8)
C7B C 0.3592(3) -0.1455(2) 0.46524(9)
C7A C 0.4953(2) 0.6408(3) 0.46524(9)
H6B H 0.4274 -0.1276 0.4479
H6A H 0.4450 0.5726 0.4479
C8B C 0.3603(4) -0.1403(3) 0.51595(11)
C8A C 0.4994(3) 0.6397(4) 0.51595(11)
H7B H 0.4300 -0.1178 0.5328
H7A H 0.4522 0.5700 0.5328
C9B C 0.2602(5) -0.1678(3) 0.54145(11)
C9A C 0.5720(4) 0.7398(5) 0.54145(11)
H8B H 0.2618 -0.1651 0.5755
H8A H 0.5731 0.7382 0.5755
C10B C 0.1576(5) -0.1994(3) 0.51697(13)
C10A C 0.6430(4) 0.8424(5) 0.51697(13)
H9B H 0.0896 -0.2182 0.5346
H9A H 0.6922 0.9104 0.5346
C11B C 0.1539(4) -0.2036(3) 0.46616(11)
C11A C 0.6425(3) 0.8461(4) 0.46616(11)
H10B H 0.0846 -0.2234 0.4494
H10A H 0.6920 0.9154 0.4494
loop_
_geom_bond_atom_site_label_1
_geom_bond_atom_site_label_2
_geom_bond_site_symmetry_1
_geom_bond_site_symmetry_2
S1 C4 1_555 1_555
N1 N2 1_555 1_555
N2 N3 1_555 1_555
N3 N4 1_555 1_555
N4 C5 1_555 1_555
C1 H1 1_555 1_555
H2 C1 1_555 1_555
H3 C1 1_555 1_555
C2 C1 1_555 1_555
C3 C2 1_555 1_555
C4 C3 1_555 1_555
H4 C4 1_555 1_555
H5 C4 1_555 1_555
C5 S1 1_555 1_555
C6 N4 1_555 1_555
C7 C6 1_555 1_555
H6 C7 1_555 1_555
C8 C7 1_555 1_555
H7 C8 1_555 1_555
C9 C8 1_555 1_555
H8 C9 1_555 1_555
C10 C9 1_555 1_555
H9 C10 1_555 1_555
C11 C6 1_555 1_555
H10 C11 1_555 1_555
S1B C4B 1_555 1_555
S1A C4A 1_555 1_555
N1B N2B 1_555 1_555
N1A N2A 1_555 1_555
N2B N3B 1_555 1_555
N2A N3A 1_555 1_555
N3B N4B 1_555 1_555
N3A N4A 1_555 1_555
N4B C5B 1_555 1_555
N4A C5A 1_555 1_555
C1A H1A 1_555 1_555
C1B H1B 1_555 1_555
H2A C1A 1_555 1_555
H2B C1B 1_555 1_555
H3A C1A 1_555 1_555
H3B C1B 1_555 1_555
C2A C1A 1_555 1_555
C2B C3 1_555 1_555
C3A C2 1_555 1_555
C3B C2A 1_555 1_555
C4B C3B 1_555 1_555
C4A C3A 1_555 1_555
H4B C4B 1_555 1_555
H4A C4A 1_555 1_555
H5B C4B 1_555 1_555
H5A C4A 1_555 1_555
C5B S1B 1_555 1_555
C5A S1A 1_555 1_555
C6B N4B 1_555 1_555
C6A N4A 1_555 1_555
C7B C6B 1_555 1_555
C7A C6A 1_555 1_555
H6B C7B 1_555 1_555
H6A C7A 1_555 1_555
C8B C7B 1_555 1_555
C8A C7A 1_555 1_555
H7B C8B 1_555 1_555
H7A C8A 1_555 1_555
C9B C8B 1_555 1_555
C9A C8A 1_555 1_555
H8B C9B 1_555 1_555
H8A C9A 1_555 1_555
C10B C9B 1_555 1_555
C10A C9A 1_555 1_555
H9B C10B 1_555 1_555
H9A C10A 1_555 1_555
C11B C6B 1_555 1_555
C11A C6A 1_555 1_555
H10B C11B 1_555 1_555
H10A C11A 1_555 1_555
N1 C5 1_555 1_555
C10 C11 1_555 1_555
N1B C5B 1_555 1_555
N1A C5A 1_555 1_555
C1B C2B 1_555 1_555
C2A C3A 1_555 1_555
C2B C3B 1_555 1_555
C10B C11B 1_555 1_555
C10A C11A 1_555 1_555

#END
