
#######################################################################
#
#                 Cambridge Crystallographic Data Centre
#                                CCDC 
#
#######################################################################
#
# If this CIF has been generated from an entry in the Cambridge 
# Structural Database, then it will include bibliographic, chemical, 
# crystal, experimental, refinement or atomic coordinate data resulting 
# from the CCDC's data processing and validation procedures.
#
#######################################################################

data_ONEFUJ
_chemical_name_common            
(Z)-N-((Z)-3-Amino-4,4-dimethyl-1-phenylpent-2-en-1-ylidene)-2,6-diisopropylaniline
_chemical_formula_moiety         'C25 H34 N2'
_chemical_name_systematic        
(1Z)-N-((Z)-3-Amino-4,4-dimethyl-1-phenylpent-2-enylidene)-2,6-diisopropylbenzenamine
_symmetry_cell_setting           triclinic
_symmetry_space_group_name_H-M   'P -1'
_symmetry_Int_Tables_number      2
_space_group_name_Hall           '-P 1'
loop_
_symmetry_equiv_pos_site_id
_symmetry_equiv_pos_as_xyz
1 x,y,z
2 -x,-y,-z
_cell_length_a                   11.025(4)
_cell_length_b                   11.156(3)
_cell_length_c                   11.566(4)
_cell_angle_alpha                66.354(6)
_cell_angle_beta                 64.955(4)
_cell_angle_gamma                62.488(4)
_cell_volume                     1105.03
_exptl_crystal_colour            colorless
_exptl_crystal_description       block
_chemical_melting_point          '81-83 deg.C'
_cell_formula_units_Z            2
loop_
_atom_site_label
_atom_site_type_symbol
_atom_site_fract_x
_atom_site_fract_y
_atom_site_fract_z
N1 N 0.0658(4) 0.7486(4) 0.0554(4)
N2 N 0.1155(5) 0.9279(4) -0.1836(4)
H1 H 0.0726 0.9199 -0.0996
H2 H 0.1050 1.0103 -0.2384
C1 C 0.0076(5) 0.7189(5) 0.1958(5)
C2 C -0.1357(5) 0.7281(5) 0.2529(5)
C3 C -0.1963(6) 0.7110(6) 0.3869(6)
H3 H -0.2922 0.7165 0.4252
C4 C -0.1178(7) 0.6861(6) 0.4653(5)
H4 H -0.1599 0.6735 0.5570
C5 C 0.0218(6) 0.6794(6) 0.4103(6)
H5 H 0.0736 0.6635 0.4652
C6 C 0.0887(6) 0.6958(6) 0.2750(5)
C7 C 0.2400(6) 0.6947(6) 0.2164(6)
H6 H 0.2725 0.6920 0.1232
C8 C 0.2476(8) 0.8280(8) 0.2170(8)
H7 H 0.1880 0.9087 0.1664
H8 H 0.3458 0.8249 0.1777
H9 H 0.2139 0.8349 0.3071
C9 C 0.3442(7) 0.5669(8) 0.2857(7)
H10 H 0.3191 0.5703 0.3758
H11 H 0.4408 0.5671 0.2390
H12 H 0.3386 0.4824 0.2864
C10 C -0.2265(5) 0.7606(6) 0.1648(5)
H13 H -0.1595 0.7394 0.0797
C11 C -0.3160(9) 0.9125(8) 0.1358(9)
H14 H -0.3628 0.9330 0.0720
H15 H -0.2555 0.9680 0.1000
H16 H -0.3877 0.9352 0.2166
C12 C -0.3182(8) 0.6727(9) 0.2227(8)
H17 H -0.3942 0.7008 0.2996
H18 H -0.2603 0.5751 0.2484
H19 H -0.3595 0.6854 0.1575
C13 C 0.1526(5) 0.6517(5) -0.0045(5)
C14 C 0.2153(5) 0.6842(5) -0.1454(5)
H20 H 0.2745 0.6082 -0.1836
C15 C 0.1977(5) 0.4979(5) 0.0634(5)
C16 C 0.0986(6) 0.4297(6) 0.1301(6)
H21 H 0.0011 0.4810 0.1373
C17 C 0.1437(8) 0.2862(7) 0.1857(7)
H22 H 0.0768 0.2406 0.2283
C18 C 0.2843(9) 0.2112(7) 0.1789(6)
H23 H 0.3138 0.1145 0.2180
C19 C 0.3834(8) 0.2774(7) 0.1145(7)
H24 H 0.4801 0.2260 0.1108
C20 C 0.3397(6) 0.4201(6) 0.0550(6)
H25 H 0.4080 0.4641 0.0084
C21 C 0.1970(5) 0.8140(5) -0.2284(5)
C22 C 0.2693(6) 0.8398(6) -0.3789(5)
C23 C 0.3816(7) 0.9023(9) -0.4144(7)
H26 H 0.4494 0.8397 -0.3644
H27 H 0.3352 0.9921 -0.3933
H28 H 0.4316 0.9148 -0.5080
C24 C 0.1554(7) 0.9436(7) -0.4505(6)
H29 H 0.1992 0.9565 -0.5451
H30 H 0.1154 1.0327 -0.4293
H31 H 0.0800 0.9071 -0.4223
C25 C 0.3405(7) 0.7065(7) -0.4245(5)
H32 H 0.4143 0.6406 -0.3820
H33 H 0.3830 0.7279 -0.5195
H34 H 0.2696 0.6658 -0.4011
loop_
_geom_bond_atom_site_label_1
_geom_bond_atom_site_label_2
_geom_bond_site_symmetry_1
_geom_bond_site_symmetry_2
N1 C1 1_555 1_555
N2 H1 1_555 1_555
H2 N2 1_555 1_555
C1 C2 1_555 1_555
C2 C3 1_555 1_555
C3 H3 1_555 1_555
C4 C3 1_555 1_555
H4 C4 1_555 1_555
C5 C4 1_555 1_555
H5 C5 1_555 1_555
C6 C1 1_555 1_555
C7 C6 1_555 1_555
H6 C7 1_555 1_555
C8 C7 1_555 1_555
H7 C8 1_555 1_555
H8 C8 1_555 1_555
H9 C8 1_555 1_555
C9 C7 1_555 1_555
H10 C9 1_555 1_555
H11 C9 1_555 1_555
H12 C9 1_555 1_555
C10 C2 1_555 1_555
H13 C10 1_555 1_555
C11 C10 1_555 1_555
H14 C11 1_555 1_555
H15 C11 1_555 1_555
H16 C11 1_555 1_555
C12 C10 1_555 1_555
H17 C12 1_555 1_555
H18 C12 1_555 1_555
H19 C12 1_555 1_555
C13 N1 1_555 1_555
C14 C13 1_555 1_555
H20 C14 1_555 1_555
C15 C13 1_555 1_555
C16 C15 1_555 1_555
H21 C16 1_555 1_555
C17 C16 1_555 1_555
H22 C17 1_555 1_555
C18 C17 1_555 1_555
H23 C18 1_555 1_555
C19 C18 1_555 1_555
H24 C19 1_555 1_555
C20 C15 1_555 1_555
H25 C20 1_555 1_555
C21 N2 1_555 1_555
C22 C21 1_555 1_555
C23 C22 1_555 1_555
H26 C23 1_555 1_555
H27 C23 1_555 1_555
H28 C23 1_555 1_555
C24 C22 1_555 1_555
H29 C24 1_555 1_555
H30 C24 1_555 1_555
H31 C24 1_555 1_555
C25 C22 1_555 1_555
H32 C25 1_555 1_555
H33 C25 1_555 1_555
H34 C25 1_555 1_555
C5 C6 1_555 1_555
C14 C21 1_555 1_555
C19 C20 1_555 1_555

#END
