
#######################################################################
#
#                 Cambridge Crystallographic Data Centre
#                                CCDC 
#
#######################################################################
#
# If this CIF has been generated from an entry in the Cambridge 
# Structural Database, then it will include bibliographic, chemical, 
# crystal, experimental, refinement or atomic coordinate data resulting 
# from the CCDC's data processing and validation procedures.
#
#######################################################################

data_ONENUR
_chemical_formula_moiety         'C19 H18 Br1 N1 O3'
_chemical_name_systematic        
(4S,5S)-6-(4-Bromophenyl)-5-nitro-4-phenylhept-6-en-2-one
_symmetry_cell_setting           orthorhombic
_symmetry_space_group_name_H-M   'P 21 21 21'
_symmetry_Int_Tables_number      19
_space_group_name_Hall           'P 2ac 2ab'
loop_
_symmetry_equiv_pos_site_id
_symmetry_equiv_pos_as_xyz
1 x,y,z
2 1/2-x,-y,1/2+z
3 1/2+x,1/2-y,-z
4 -x,1/2+y,1/2-z
_cell_length_a                   5.8873(3)
_cell_length_b                   17.0724(9)
_cell_length_c                   17.6952(7)
_cell_angle_alpha                90
_cell_angle_beta                 90
_cell_angle_gamma                90
_cell_volume                     1778.55
_exptl_crystal_colour            colorless
_exptl_crystal_description       block
_cell_formula_units_Z            4
loop_
_atom_site_label
_atom_site_type_symbol
_atom_site_fract_x
_atom_site_fract_y
_atom_site_fract_z
Br1 Br -0.24473(7) -0.589260(18) -0.061096(15)
O1 O -0.6565(5) -0.62141(15) 0.33572(14)
O2 O -1.0136(4) -0.60576(13) 0.35980(12)
O3 O -1.5063(3) -0.82606(12) 0.21879(12)
N1 N -0.8584(7) -0.63119(18) 0.32335(18)
C1 C -0.7597(7) -0.54597(15) 0.09102(14)
H1 H -0.8439 -0.5024 0.1055
C2 C -0.6032(5) -0.53882(19) 0.03356(16)
H2 H -0.5858 -0.4912 0.0088
C3 C -0.4732(5) -0.6017(2) 0.01288(14)
C4 C -0.5045(5) -0.67362(18) 0.04631(16)
H3 H -0.4206 -0.7169 0.0308
C5 C -0.6641(5) -0.68018(19) 0.10372(16)
H4 H -0.6843 -0.7286 0.1269
C6 C -0.7947(5) -0.61719(17) 0.12789(14)
C7 C -0.9633(5) -0.62470(16) 0.18921(15)
C8 C -1.1538(5) -0.58367(17) 0.19009(16)
H5 H -1.1852 -0.5487 0.1512
H6 H -1.2565 -0.5898 0.2296
C9 C -0.9126(5) -0.68097(17) 0.25411(14)
H7 H -0.7752 -0.7103 0.2409
C10 C -1.1003(4) -0.74051(15) 0.27140(13)
H8 H -1.2443 -0.7119 0.2746
C11 C -1.0665(5) -0.78319(15) 0.34552(15)
C12 C -1.2302(7) -0.78060(15) 0.40105(15)
H9 H -1.3619 -0.7516 0.3932
C13 C -1.2013(7) -0.82063(18) 0.46850(16)
H10 H -1.3125 -0.8181 0.5058
C14 C -1.0086(6) -0.86382(18) 0.48009(17)
H11 H -0.9895 -0.8914 0.5250
C15 C -0.8454(5) -0.86633(17) 0.42603(17)
H12 H -0.7131 -0.8947 0.4346
C16 C -0.8736(5) -0.82709(17) 0.35824(16)
H13 H -0.7621 -0.8303 0.3211
C17 C -1.1175(4) -0.79729(17) 0.20481(16)
H14 H -1.1310 -0.7675 0.1583
H15 H -0.9789 -0.8279 0.2019
C18 C -1.3152(5) -0.85139(17) 0.21146(15)
C19 C -1.2744(7) -0.93628(16) 0.20733(18)
H16 H -1.1967 -0.9484 0.1611
H17 H -1.4170 -0.9635 0.2087
H18 H -1.1829 -0.9523 0.2495
loop_
_geom_bond_atom_site_label_1
_geom_bond_atom_site_label_2
_geom_bond_site_symmetry_1
_geom_bond_site_symmetry_2
Br1 C3 1_555 1_555
O1 N1 1_555 1_555
O2 N1 1_555 1_555
O3 C18 1_555 1_555
N1 C9 1_555 1_555
C1 H1 1_555 1_555
C2 C1 1_555 1_555
H2 C2 1_555 1_555
C3 C2 1_555 1_555
C4 C3 1_555 1_555
H3 C4 1_555 1_555
C5 C4 1_555 1_555
H4 C5 1_555 1_555
C6 C1 1_555 1_555
C7 C6 1_555 1_555
C8 C7 1_555 1_555
H5 C8 1_555 1_555
H6 C8 1_555 1_555
C9 C7 1_555 1_555
H7 C9 1_555 1_555
C10 C9 1_555 1_555
H8 C10 1_555 1_555
C11 C10 1_555 1_555
C12 C11 1_555 1_555
H9 C12 1_555 1_555
C13 C12 1_555 1_555
H10 C13 1_555 1_555
C14 C13 1_555 1_555
H11 C14 1_555 1_555
C15 C14 1_555 1_555
H12 C15 1_555 1_555
C16 C11 1_555 1_555
H13 C16 1_555 1_555
C17 C10 1_555 1_555
H14 C17 1_555 1_555
H15 C17 1_555 1_555
C18 C17 1_555 1_555
C19 C18 1_555 1_555
H16 C19 1_555 1_555
H17 C19 1_555 1_555
H18 C19 1_555 1_555
C5 C6 1_555 1_555
C15 C16 1_555 1_555

#END
