
#######################################################################
#
#                 Cambridge Crystallographic Data Centre
#                                CCDC 
#
#######################################################################
#
# If this CIF has been generated from an entry in the Cambridge 
# Structural Database, then it will include bibliographic, chemical, 
# crystal, experimental, refinement or atomic coordinate data resulting 
# from the CCDC's data processing and validation procedures.
#
#######################################################################

data_ONEPUT
_chemical_formula_moiety         'C31 H38 N2'
_chemical_name_systematic        
4-t-Butyl-2,6-di-isopropyl-3,7-bis(4-methylphenyl)-1H-pyrrolo[3,2-c]pyridine
_symmetry_cell_setting           triclinic
_symmetry_space_group_name_H-M   'P -1'
_symmetry_Int_Tables_number      2
_space_group_name_Hall           '-P 1'
loop_
_symmetry_equiv_pos_site_id
_symmetry_equiv_pos_as_xyz
1 x,y,z
2 -x,-y,-z
_cell_length_a                   8.3295(17)
_cell_length_b                   11.689(2)
_cell_length_c                   13.905(3)
_cell_angle_alpha                86.26(3)
_cell_angle_beta                 75.94(3)
_cell_angle_gamma                86.43(3)
_cell_volume                     1308.98
_cell_formula_units_Z            2
loop_
_atom_site_label
_atom_site_type_symbol
_atom_site_fract_x
_atom_site_fract_y
_atom_site_fract_z
C1 C 0.8580(3) 0.1580(2) 0.81439(17)
C2 C 0.7773(3) 0.2214(2) 0.75245(17)
C3 C 0.6204(3) 0.2655(2) 0.81387(17)
C4 C 0.4787(3) 0.3366(2) 0.80480(17)
C5 C 0.3682(3) 0.3233(2) 0.97899(17)
C6 C 0.4975(3) 0.2507(2) 0.99602(16)
C7 C 0.6201(3) 0.2249(2) 0.91221(17)
C8 C 1.0211(3) 0.0906(2) 0.79240(18)
H1 H 1.0821 0.1135 0.7233
C9 C 1.1281(3) 0.1161(3) 0.8620(2)
H2 H 1.1444 0.1988 0.8582
H3 H 1.2358 0.0745 0.8424
H4 H 1.0730 0.0917 0.9301
C10 C 0.9929(4) -0.0371(3) 0.7960(2)
H5 H 0.9301 -0.0615 0.8626
H6 H 1.1000 -0.0802 0.7806
H7 H 0.9303 -0.0520 0.7472
C11 C 0.8592(3) 0.2381(2) 0.64422(17)
C12 C 0.8515(3) 0.1589(2) 0.57545(18)
H8 H 0.7903 0.0922 0.5968
C13 C 0.9312(3) 0.1755(3) 0.47655(19)
H9 H 0.9205 0.1211 0.4309
C14 C 1.0263(3) 0.2695(2) 0.44228(18)
C15 C 1.0393(3) 0.3457(2) 0.51153(18)
H10 H 1.1056 0.4101 0.4902
C16 C 0.9594(3) 0.3316(2) 0.61054(18)
H11 H 0.9723 0.3855 0.6561
C17 C 1.1072(4) 0.2898(3) 0.33337(18)
H12 H 1.1949 0.2303 0.3126
H13 H 1.1551 0.3654 0.3223
H14 H 1.0240 0.2868 0.2945
C18 C 0.4432(3) 0.3861(2) 0.70644(17)
C19 C 0.4411(3) 0.2878(2) 0.63771(17)
H15 H 0.3562 0.2345 0.6709
H16 H 0.5498 0.2468 0.6228
H17 H 0.4159 0.3198 0.5758
C20 C 0.5726(3) 0.4713(2) 0.65555(18)
H18 H 0.5434 0.5064 0.5958
H19 H 0.6816 0.4311 0.6371
H20 H 0.5760 0.5312 0.7011
C21 C 0.2731(3) 0.4505(2) 0.72417(18)
H21 H 0.1867 0.3976 0.7561
H22 H 0.2532 0.4809 0.6605
H23 H 0.2707 0.5140 0.7672
C22 C 0.2316(3) 0.3665(2) 1.06333(17)
H24 H 0.2412 0.3205 1.1250
C23 C 0.0599(3) 0.3494(2) 1.04694(19)
H25 H 0.0501 0.3882 0.9838
H26 H -0.0251 0.3817 1.1014
H27 H 0.0445 0.2671 1.0451
C24 C 0.2539(3) 0.4924(2) 1.07966(19)
H28 H 0.3612 0.4995 1.0954
H29 H 0.1648 0.5190 1.1348
H30 H 0.2498 0.5393 1.0192
C25 C 0.5117(3) 0.2042(2) 1.09622(17)
C26 C 0.4609(3) 0.0940(2) 1.13007(18)
H31 H 0.4189 0.0481 1.0887
C27 C 0.4715(3) 0.0514(2) 1.22418(18)
H32 H 0.4370 -0.0238 1.2462
C28 C 0.5314(3) 0.1163(2) 1.28633(18)
C29 C 0.5869(3) 0.2250(2) 1.25170(18)
H33 H 0.6325 0.2696 1.2923
C30 C 0.5756(3) 0.2681(2) 1.15806(18)
H34 H 0.6122 0.3427 1.1357
C31 C 0.5399(4) 0.0697(3) 1.38963(18)
H35 H 0.4277 0.0563 1.4295
H36 H 0.5908 0.1255 1.4213
H37 H 0.6066 -0.0027 1.3848
N1 N 0.7620(3) 0.15816(19) 0.91029(15)
N2 N 0.3608(3) 0.36279(18) 0.88574(14)
H38 H 0.794(3) 0.133(2) 0.9666(16)
loop_
_geom_bond_atom_site_label_1
_geom_bond_atom_site_label_2
_geom_bond_site_symmetry_1
_geom_bond_site_symmetry_2
C1 C2 1_555 1_555
C2 C3 1_555 1_555
C3 C4 1_555 1_555
C4 C18 1_555 1_555
C5 C6 1_555 1_555
C6 C7 1_555 1_555
C7 C3 1_555 1_555
C8 C1 1_555 1_555
H1 C8 1_555 1_555
C9 C8 1_555 1_555
H2 C9 1_555 1_555
H3 C9 1_555 1_555
H4 C9 1_555 1_555
C10 C8 1_555 1_555
H5 C10 1_555 1_555
H6 C10 1_555 1_555
H7 C10 1_555 1_555
C11 C2 1_555 1_555
C12 C11 1_555 1_555
H8 C12 1_555 1_555
C13 C12 1_555 1_555
H9 C13 1_555 1_555
C14 C13 1_555 1_555
C15 C14 1_555 1_555
H10 C15 1_555 1_555
C16 C11 1_555 1_555
H11 C16 1_555 1_555
C17 C14 1_555 1_555
H12 C17 1_555 1_555
H13 C17 1_555 1_555
H14 C17 1_555 1_555
C18 C19 1_555 1_555
C19 H15 1_555 1_555
H16 C19 1_555 1_555
H17 C19 1_555 1_555
C20 C18 1_555 1_555
H18 C20 1_555 1_555
H19 C20 1_555 1_555
H20 C20 1_555 1_555
C21 C18 1_555 1_555
H21 C21 1_555 1_555
H22 C21 1_555 1_555
H23 C21 1_555 1_555
C22 C5 1_555 1_555
H24 C22 1_555 1_555
C23 C22 1_555 1_555
H25 C23 1_555 1_555
H26 C23 1_555 1_555
H27 C23 1_555 1_555
C24 C22 1_555 1_555
H28 C24 1_555 1_555
H29 C24 1_555 1_555
H30 C24 1_555 1_555
C25 C6 1_555 1_555
C26 C25 1_555 1_555
H31 C26 1_555 1_555
C27 C26 1_555 1_555
H32 C27 1_555 1_555
C28 C27 1_555 1_555
C29 C28 1_555 1_555
H33 C29 1_555 1_555
C30 C25 1_555 1_555
H34 C30 1_555 1_555
C31 C28 1_555 1_555
H35 C31 1_555 1_555
H36 C31 1_555 1_555
H37 C31 1_555 1_555
N1 C1 1_555 1_555
N2 C4 1_555 1_555
H38 N1 1_555 1_555
C5 N2 1_555 1_555
C7 N1 1_555 1_555
C15 C16 1_555 1_555
C29 C30 1_555 1_555

#END
