
#######################################################################
#
#                 Cambridge Crystallographic Data Centre
#                                CCDC 
#
#######################################################################
#
# If this CIF has been generated from an entry in the Cambridge 
# Structural Database, then it will include bibliographic, chemical, 
# crystal, experimental, refinement or atomic coordinate data resulting 
# from the CCDC's data processing and validation procedures.
#
#######################################################################

data_ONEZEN
_chemical_formula_moiety         'C22 H29 O5 P1'
_chemical_name_systematic        
'4,8-Di-t-butyl-2,10-dimethoxydibenzo[d,f][1,3,2]dioxaphosphepine 6-oxide'
_symmetry_cell_setting           monoclinic
_symmetry_space_group_name_H-M   'P 21'
_symmetry_Int_Tables_number      4
_space_group_name_Hall           'P 2yb'
loop_
_symmetry_equiv_pos_site_id
_symmetry_equiv_pos_as_xyz
1 x,y,z
2 -x,1/2+y,-z
_cell_length_a                   9.2021(3)
_cell_length_b                   11.5043(5)
_cell_length_c                   10.2494(4)
_cell_angle_alpha                90
_cell_angle_beta                 105.126(2)
_cell_angle_gamma                90
_cell_volume                     1047.45
_exptl_crystal_colour            colorless
_exptl_crystal_description       prism
_cell_formula_units_Z            2
loop_
_atom_site_label
_atom_site_type_symbol
_atom_site_fract_x
_atom_site_fract_y
_atom_site_fract_z
P1 P 0.29603(10) 0.38724(8) 0.42283(8)
O1 O 0.2911(3) 0.2630(2) 0.4476(2)
O2 O 0.2378(2) 0.45790(18) 0.5317(2)
O3 O 0.2048(2) 0.43432(19) 0.2798(2)
O4 O 0.2263(2) 0.93719(19) 0.4982(2)
O5 O -0.3980(2) 0.5471(2) 0.1729(2)
C1 C 0.2332(3) 0.5813(3) 0.5240(3)
C2 C 0.3287(3) 0.6466(3) 0.6281(3)
C3 C 0.3161(3) 0.7657(3) 0.6122(3)
H1 H 0.3778 0.8139 0.6797
C4 C 0.2177(3) 0.8180(3) 0.5025(3)
C5 C 0.1193(3) 0.7520(3) 0.4072(3)
H2 H 0.0475 0.7884 0.3353
C6 C 0.1256(3) 0.6305(3) 0.4170(3)
C7 C 0.4334(3) 0.5911(3) 0.7539(3)
C8 C 0.5539(4) 0.5161(3) 0.7151(3)
H3 H 0.5071 0.4455 0.6693
H4 H 0.6315 0.4948 0.7969
H5 H 0.5998 0.5603 0.6544
C9 C 0.5182(4) 0.6849(3) 0.8524(3)
H6 H 0.5807 0.7312 0.8078
H7 H 0.5824 0.6474 0.9328
H8 H 0.4454 0.7357 0.8791
C10 C 0.3431(4) 0.5175(3) 0.8297(3)
H9 H 0.2700 0.5669 0.8578
H10 H 0.4117 0.4827 0.9096
H11 H 0.2898 0.4558 0.7701
C11 C 0.1170(3) 0.9957(3) 0.3943(3)
H12 H 0.1263 0.9699 0.3057
H13 H 0.1338 1.0798 0.4030
H14 H 0.0159 0.9775 0.4029
C12 C 0.0506(3) 0.4654(3) 0.2491(3)
C13 C -0.0542(3) 0.4064(3) 0.1460(3)
C14 C -0.2023(4) 0.4411(3) 0.1254(3)
H15 H -0.2774 0.4022 0.0583
C15 C -0.2470(3) 0.5306(3) 0.1987(3)
C16 C -0.1392(3) 0.5930(3) 0.2906(3)
H16 H -0.1675 0.6579 0.3357
C17 C 0.0122(3) 0.5604(3) 0.3172(3)
C18 C -0.0102(3) 0.3088(3) 0.0592(3)
C19 C 0.1057(4) 0.3550(3) -0.0118(3)
H17 H 0.1969 0.3790 0.0561
H18 H 0.0634 0.4218 -0.0683
H19 H 0.1309 0.2936 -0.0685
C20 C 0.0518(4) 0.2028(3) 0.1457(3)
H20 H 0.0761 0.1417 0.0882
H21 H -0.0240 0.1739 0.1894
H22 H 0.1429 0.2248 0.2149
C21 C -0.1478(4) 0.2667(3) -0.0510(3)
H23 H -0.1169 0.2051 -0.1041
H24 H -0.1902 0.3318 -0.1104
H25 H -0.2240 0.2363 -0.0086
C22 C -0.4499(4) 0.6374(4) 0.2456(4)
H26 H -0.4110 0.6240 0.3429
H27 H -0.5601 0.6373 0.2217
H28 H -0.4140 0.7127 0.2219
H29 H 0.431(3) 0.423(2) 0.431(3)
loop_
_geom_bond_atom_site_label_1
_geom_bond_atom_site_label_2
_geom_bond_site_symmetry_1
_geom_bond_site_symmetry_2
P1 O1 1_555 1_555
O2 P1 1_555 1_555
O3 P1 1_555 1_555
O4 C4 1_555 1_555
O5 C15 1_555 1_555
C1 O2 1_555 1_555
C2 C1 1_555 1_555
C3 C2 1_555 1_555
H1 C3 1_555 1_555
C4 C3 1_555 1_555
C5 C4 1_555 1_555
H2 C5 1_555 1_555
C6 C1 1_555 1_555
C7 C2 1_555 1_555
C8 C7 1_555 1_555
H3 C8 1_555 1_555
H4 C8 1_555 1_555
H5 C8 1_555 1_555
C9 C7 1_555 1_555
H6 C9 1_555 1_555
H7 C9 1_555 1_555
H8 C9 1_555 1_555
C10 C7 1_555 1_555
H9 C10 1_555 1_555
H10 C10 1_555 1_555
H11 C10 1_555 1_555
C11 O4 1_555 1_555
H12 C11 1_555 1_555
H13 C11 1_555 1_555
H14 C11 1_555 1_555
C12 O3 1_555 1_555
C13 C12 1_555 1_555
C14 C13 1_555 1_555
H15 C14 1_555 1_555
C15 C14 1_555 1_555
C16 C15 1_555 1_555
H16 C16 1_555 1_555
C17 C6 1_555 1_555
C18 C13 1_555 1_555
C19 C18 1_555 1_555
H17 C19 1_555 1_555
H18 C19 1_555 1_555
H19 C19 1_555 1_555
C20 C18 1_555 1_555
H20 C20 1_555 1_555
H21 C20 1_555 1_555
H22 C20 1_555 1_555
C21 C18 1_555 1_555
H23 C21 1_555 1_555
H24 C21 1_555 1_555
H25 C21 1_555 1_555
C22 O5 1_555 1_555
H26 C22 1_555 1_555
H27 C22 1_555 1_555
H28 C22 1_555 1_555
H29 P1 1_555 1_555
C5 C6 1_555 1_555
C12 C17 1_555 1_555
C16 C17 1_555 1_555

#END
