
#######################################################################
#
#                 Cambridge Crystallographic Data Centre
#                                CCDC 
#
#######################################################################
#
# If this CIF has been generated from an entry in the Cambridge 
# Structural Database, then it will include bibliographic, chemical, 
# crystal, experimental, refinement or atomic coordinate data resulting 
# from the CCDC's data processing and validation procedures.
#
#######################################################################

data_ONIVOY
_chemical_formula_moiety         'C6 H1 N12 O3 1-,C3 H7 N6 1+,H2 O1'
_chemical_name_systematic        
'melaminium 5-(4-((4-(1H-tetrazol-5-yl)-1,2,5-oxadiazol-3-yl)oxy)-1,2,5-oxadiazol-3-yl)tetrazol-1-ide monohydrate'
_symmetry_cell_setting           triclinic
_symmetry_space_group_name_H-M   'P -1'
_symmetry_Int_Tables_number      2
_space_group_name_Hall           '-P 1'
loop_
_symmetry_equiv_pos_site_id
_symmetry_equiv_pos_as_xyz
1 x,y,z
2 -x,-y,-z
_cell_length_a                   6.6911(15)
_cell_length_b                   10.822(2)
_cell_length_c                   12.259(3)
_cell_angle_alpha                85.174(4)
_cell_angle_beta                 76.655(4)
_cell_angle_gamma                84.714(4)
_cell_volume                     858.232
_exptl_crystal_colour            colorless
_exptl_crystal_description       flake
_cell_formula_units_Z            2
loop_
_atom_site_label
_atom_site_type_symbol
_atom_site_fract_x
_atom_site_fract_y
_atom_site_fract_z
O1 O 0.5481(8) 0.2605(4) 0.1259(4)
H1 H 0.568(2) 0.283(3) 0.1842(13)
H2 H 0.4272(16) 0.259(5) 0.123(2)
O2 O -0.1412(7) 0.2452(4) 0.3809(3)
O3 O 0.0998(8) 0.2513(3) 0.1024(3)
O4 O 0.2410(7) -0.0449(4) 0.0161(3)
N1 N 0.1589(8) 0.5103(4) 0.0888(4)
N2 N 0.1853(9) 0.6322(4) 0.0701(4)
N3 N 0.0957(9) 0.6912(5) 0.1593(5)
N4 N 0.0108(8) 0.6084(4) 0.2413(4)
N5 N -0.1125(9) 0.3703(4) 0.3587(4)
N6 N -0.0625(8) 0.1791(4) 0.2859(4)
N7 N 0.1367(8) 0.0290(4) 0.0998(4)
N8 N 0.3370(9) 0.0234(5) -0.0781(4)
N9 N 0.4660(9) 0.2427(5) -0.2345(4)
N10 N 0.5010(9) 0.3649(5) -0.2675(5)
N11 N 0.4294(9) 0.4366(5) -0.1879(5)
N12 N 0.3455(8) 0.3629(4) -0.0975(4)
C1 C 0.0512(9) 0.5003(5) 0.1941(5)
C2 C -0.0156(9) 0.3826(5) 0.2525(5)
C3 C 0.0125(10) 0.2632(5) 0.2091(5)
C4 C 0.1714(9) 0.1406(5) 0.0570(5)
C5 C 0.2951(9) 0.1388(6) -0.0538(5)
C6 C 0.3682(9) 0.2465(6) -0.1287(5)
H3 H 0.295(8) 0.401(3) -0.0413(18)
N13 N 0.2545(9) 0.0764(4) 0.4919(4)
N14 N 0.3703(8) 0.2591(4) 0.3766(4)
N15 N 0.1792(9) 0.2756(4) 0.5604(4)
N16 N 0.0623(9) 0.1043(5) 0.6703(4)
H4 H 0.0497 0.0256 0.6817
H5 H 0.0064 0.1534 0.7224
N17 N 0.4373(9) 0.0646(5) 0.3116(4)
H6 H 0.5007 0.0973 0.2481
H7 H 0.4287 -0.0145 0.3209
N18 N 0.2936(9) 0.4492(5) 0.4532(4)
H8 H 0.3576 0.4861 0.3920
H9 H 0.2355 0.4916 0.5098
C7 C 0.1670(10) 0.1496(5) 0.5733(5)
C8 C 0.3528(10) 0.1363(6) 0.3951(5)
C9 C 0.2843(9) 0.3267(5) 0.4604(5)
H10 H 0.130(9) 0.318(5) 0.619(5)
loop_
_geom_bond_atom_site_label_1
_geom_bond_atom_site_label_2
_geom_bond_site_symmetry_1
_geom_bond_site_symmetry_2
O1 H1 1_555 1_555
H2 O1 1_555 1_555
O2 N5 1_555 1_555
O3 C3 1_555 1_555
O4 N7 1_555 1_555
N1 N2 1_555 1_555
N2 N3 1_555 1_555
N3 N4 1_555 1_555
N4 C1 1_555 1_555
N5 C2 1_555 1_555
N6 O2 1_555 1_555
N7 C4 1_555 1_555
N8 O4 1_555 1_555
N9 N10 1_555 1_555
N10 N11 1_555 1_555
N11 N12 1_555 1_555
N12 C6 1_555 1_555
C1 N1 1_555 1_555
C2 C1 1_555 1_555
C3 N6 1_555 1_555
C4 O3 1_555 1_555
C5 N8 1_555 1_555
C6 N9 1_555 1_555
H3 N12 1_555 1_555
N13 C7 1_555 1_555
N14 C8 1_555 1_555
N15 C7 1_555 1_555
N16 H4 1_555 1_555
H5 N16 1_555 1_555
N17 H6 1_555 1_555
H7 N17 1_555 1_555
N18 H8 1_555 1_555
H9 N18 1_555 1_555
C7 N16 1_555 1_555
C8 N13 1_555 1_555
C9 N14 1_555 1_555
H10 N15 1_555 1_555
C2 C3 1_555 1_555
C4 C5 1_555 1_555
C5 C6 1_555 1_555
N15 C9 1_555 1_555
N17 C8 1_555 1_555
N18 C9 1_555 1_555

#END
