
#######################################################################
#
#                 Cambridge Crystallographic Data Centre
#                                CCDC 
#
#######################################################################
#
# If this CIF has been generated from an entry in the Cambridge 
# Structural Database, then it will include bibliographic, chemical, 
# crystal, experimental, refinement or atomic coordinate data resulting 
# from the CCDC's data processing and validation procedures.
#
#######################################################################

data_ONIZER
_chemical_formula_moiety         'C5 H6 N1 1+,C57 H67 B1 N3 O4 1-,6.5(C5 H5 N1)'
_chemical_name_systematic        
'pyridinium hydroxo-(5,10-bis(3,5-di-t-butyl-4-oxocyclohexadienylidene)-15-(3,5-di-t-butyl-4-oxlatephenyl)subporphyrinato)-boron(iii) pyridine solvate'
_symmetry_cell_setting           orthorhombic
_symmetry_space_group_name_H-M   'A m a 2'
_symmetry_Int_Tables_number      40
_space_group_name_Hall           'A 2 -2a'
loop_
_symmetry_equiv_pos_site_id
_symmetry_equiv_pos_as_xyz
1 x,y,z
2 -x,-y,z
3 1/2-x,y,z
4 1/2+x,-y,z
5 x,1/2+y,1/2+z
6 -x,1/2-y,1/2+z
7 1/2-x,1/2+y,1/2+z
8 1/2+x,1/2-y,1/2+z
_cell_length_a                   29.305(5)
_cell_length_b                   18.062(4)
_cell_length_c                   31.395(8)
_cell_angle_alpha                90
_cell_angle_beta                 90
_cell_angle_gamma                90
_cell_volume                     16617.6
_exptl_crystal_colour            violet
_exptl_crystal_description       prism
_cell_formula_units_Z            8
loop_
_atom_site_label
_atom_site_type_symbol
_atom_site_fract_x
_atom_site_fract_y
_atom_site_fract_z
C1 C 0.3676(2) 0.0897(3) 0.03180(19)
H1 H 0.3675 0.1423 0.0320
C2 C 0.3666(2) 0.4373(3) 0.2258(2)
H2 H 0.3658 0.4102 0.2518
N1 N 0.36954(6) 0.08878(10) 0.1865(2)
C3 C 0.3652(2) -0.0255(4) -0.00803(18)
N2 N 0.36894(16) 0.2035(3) 0.22542(16)
C4 C 0.3678(2) -0.0298(3) 0.0691(2)
H3 H 0.3680 -0.0567 0.0950
N3 N 0.36933(17) 0.2049(3) 0.14887(16)
O1 O 0.36474(18) -0.0605(3) 0.41665(14)
C5 C 0.3646(2) -0.0668(4) 0.3411(2)
C6 C 0.36577(7) 0.55495(12) 0.1875(3)
C7 C 0.3632(2) 0.5131(3) 0.2281(2)
O2 O 0.3647(2) -0.0615(2) -0.04134(16)
C8 C 0.37113(7) 0.39721(12) 0.1878(3)
C9 C 0.3676(2) -0.0281(3) 0.3035(2)
H4 H 0.3665 -0.0542 0.2772
C10 C 0.3664(2) 0.4395(3) 0.1483(2)
H5 H 0.3650 0.4130 0.1222
C11 C 0.37686(7) 0.32056(12) 0.1867(3)
C12 C 0.3652(2) 0.0555(3) 0.3815(2)
O3 O 0.36814(6) 0.62338(9) 0.1870(2)
C13 C 0.3641(2) 0.5130(3) 0.1471(2)
C14 C 0.3773(2) 0.0888(3) 0.10946(19)
C15 C 0.3724(2) 0.0507(4) 0.3032(2)
C16 C 0.3641(2) 0.0535(4) -0.0061(2)
C17 C 0.37150(19) 0.0501(3) 0.07192(19)
C18 C 0.3817(2) 0.1690(3) 0.1131(2)
C19 C 0.3774(2) 0.0875(3) 0.2644(2)
C20 C 0.3678(2) 0.0881(4) 0.3427(2)
H6 H 0.3664 0.1406 0.3419
C21 C 0.3814(2) 0.1692(3) 0.26343(19)
C22 C 0.3641(2) -0.0686(3) 0.0334(2)
C23 C 0.3819(2) 0.0511(3) 0.1526(2)
C24 C 0.3809(2) 0.2774(3) 0.1487(2)
C25 C 0.3821(2) 0.2772(3) 0.2273(2)
C26 C 0.3591(3) -0.1528(4) 0.0323(2)
C27 C 0.3815(2) 0.0513(3) 0.22475(19)
C28 C 0.3582(2) 0.5540(3) 0.1053(2)
C29 C 0.3578(2) 0.5555(3) 0.2707(2)
C30 C 0.4029(2) 0.2903(4) 0.10889(19)
H7 H 0.4156 0.3357 0.0994
C31 C 0.3652(2) -0.0293(3) 0.3808(2)
C32 C 0.4032(2) 0.2228(3) 0.2877(2)
H8 H 0.4167 0.2152 0.3149
C33 C 0.3605(2) 0.0988(4) -0.0475(2)
C34 C 0.4020(2) 0.2884(3) 0.2660(2)
H9 H 0.4132 0.3344 0.2763
C35 C 0.3594(2) -0.1519(3) 0.3398(2)
C36 C 0.3529(3) 0.5007(4) 0.3082(2)
H10 H 0.3795 0.4678 0.3089
H11 H 0.3251 0.4711 0.3044
H12 H 0.3510 0.5283 0.3350
C37 C 0.3584(3) 0.1811(4) -0.0386(2)
H13 H 0.3562 0.2082 -0.0656
H14 H 0.3860 0.1965 -0.0234
H15 H 0.3316 0.1920 -0.0210
C38 C 0.4021(2) 0.2221(4) 0.0861(2)
H16 H 0.4132 0.2138 0.0581
C39 C 0.4032(2) -0.0154(3) 0.2097(2)
H17 H 0.4159 -0.0535 0.2269
C40 C 0.4005(3) -0.1885(4) 0.3625(2)
H18 H 0.4288 -0.1742 0.3481
H19 H 0.3971 -0.2425 0.3616
H20 H 0.4015 -0.1720 0.3922
C41 C 0.4022(2) -0.0137(3) 0.1652(2)
H21 H 0.4136 -0.0511 0.1467
C42 C 0.4024(3) 0.0827(5) -0.0756(2)
H22 H 0.4002 0.1112 -0.1020
H23 H 0.4035 0.0297 -0.0822
H24 H 0.4302 0.0970 -0.0603
C43 C 0.3591(4) -0.1825(4) 0.0796(3)
H25 H 0.3567 -0.2366 0.0795
H26 H 0.3330 -0.1615 0.0950
H27 H 0.3875 -0.1679 0.0938
C44 C 0.3162(2) -0.1753(3) 0.3642(3)
H28 H 0.2894 -0.1528 0.3508
H29 H 0.3185 -0.1586 0.3938
H30 H 0.3133 -0.2293 0.3635
C45 C 0.3160(3) 0.6055(4) 0.1072(3)
H31 H 0.3200 0.6417 0.1302
H32 H 0.2886 0.5760 0.1127
H33 H 0.3127 0.6315 0.0800
C46 C 0.3160(2) 0.6040(4) 0.2698(3)
H34 H 0.3132 0.6300 0.2971
H35 H 0.2889 0.5733 0.2651
H36 H 0.3188 0.6401 0.2467
C47 C 0.3996(2) 0.5981(4) 0.2790(2)
H37 H 0.4259 0.5645 0.2793
H38 H 0.3971 0.6228 0.3067
H39 H 0.4038 0.6353 0.2566
C48 C 0.4007(2) 0.6036(4) 0.0951(3)
H40 H 0.4060 0.6380 0.1188
H41 H 0.3951 0.6318 0.0690
H42 H 0.4276 0.5722 0.0912
C49 C 0.3147(2) -0.1743(4) 0.0109(2)
H43 H 0.3119 -0.2283 0.0106
H44 H 0.3145 -0.1555 -0.0184
H45 H 0.2891 -0.1528 0.0267
C50 C 0.3170(3) 0.0757(5) -0.0721(3)
H46 H 0.3149 0.1044 -0.0985
H47 H 0.2901 0.0852 -0.0545
H48 H 0.3186 0.0228 -0.0790
C51 C 0.3496(2) 0.5014(4) 0.0686(2)
H49 H 0.3462 0.5297 0.0421
H50 H 0.3217 0.4731 0.0740
H51 H 0.3754 0.4673 0.0658
C52 C 0.3550(3) -0.1825(4) 0.2964(2)
H52 H 0.3822 -0.1697 0.2797
H53 H 0.3279 -0.1616 0.2826
H54 H 0.3521 -0.2365 0.2980
C53 C 0.4000(3) -0.1877(4) 0.0112(3)
H55 H 0.3968 -0.2417 0.0116
H56 H 0.4278 -0.1736 0.0266
H57 H 0.4021 -0.1706 -0.0184
O4 O 0.29922(5) 0.16579(8) 0.18730(18)
H58 H 0.2893 0.1441 0.2091
B1 B 0.34923(8) 0.16563(14) 0.1879(3)
C85 C 0.3601(2) 0.0972(4) 0.4231(2)
C88 C 0.3175(3) 0.0741(5) 0.4470(2)
H92 H 0.3154 0.1020 0.4737
H93 H 0.3190 0.0210 0.4534
H94 H 0.2905 0.0842 0.4295
C89 C 0.3550(3) 0.1819(4) 0.4153(2)
H95 H 0.3523 0.2075 0.4427
H96 H 0.3276 0.1913 0.3982
H97 H 0.3818 0.2003 0.4000
C90 C 0.4017(3) 0.0868(4) 0.4513(3)
H98 H 0.3977 0.1149 0.4778
H99 H 0.4289 0.1047 0.4364
H100 H 0.4054 0.0342 0.4581
N4 N 0.2500 0.0986(5) 0.1194(3)
C54 C 0.2500 -0.0141(6) 0.0829(4)
H59 H 0.2500 -0.0666 0.0833
C55 C 0.2500 0.1007(6) 0.0448(3)
H60 H 0.2500 0.1288 0.0193
C56 C 0.2500 0.1337(6) 0.0833(3)
H61 H 0.2500 0.1862 0.0841
C57 C 0.2500 0.0255(6) 0.1191(4)
H62 H 0.2500 -0.0001 0.1455
C58 C 0.2500 0.0259(8) 0.0443(3)
H63 H 0.2500 0.0002 0.0179
C59 C 0.2500 0.4505(2) 0.1867(7)
H64 H 0.2500 0.5031 0.1863
C60 C 0.2500 0.3380(6) 0.2252(4)
H65 H 0.2500 0.3115 0.2513
C61 C 0.2500 0.4125(6) 0.2251(4)
H66 H 0.2500 0.4390 0.2513
C62 C 0.2500 0.4119(6) 0.1502(4)
H67 H 0.2500 0.4368 0.1235
N5 N 0.2500 0.30163(19) 0.1881(4)
C63 C 0.2500 0.3383(6) 0.1519(4)
H68 H 0.2500 0.3112 0.1259
N6 N 0.5499(3) 0.1222(5) 0.4760(3)
C64 C 0.5104(3) 0.2243(4) 0.5050(3)
H69 H 0.5014 0.2747 0.5028
C65 C 0.5334(3) 0.1948(4) 0.4748(3)
H70 H 0.5396 0.2238 0.4502
C66 C 0.5357(3) 0.0814(4) 0.5132(3)
H71 H 0.5445 0.0310 0.5159
C67 C 0.5105(3) 0.1120(6) 0.5441(3)
H72 H 0.5008 0.0851 0.5685
C82 C 0.4994(3) 0.1878(6) 0.5378(3)
H87 H 0.4828 0.2125 0.5595
N7 N 0.2500 0.3095(5) 0.0480(3)
C69 C 0.2900(3) 0.3278(4) 0.0298(3)
H74 H 0.3178 0.3148 0.0434
C71 C 0.2910(3) 0.3648(5) -0.0081(3)
H76 H 0.3193 0.3774 -0.0209
C76 C 0.2500 0.3840(7) -0.0280(4)
H81 H 0.2500 0.4096 -0.0544
C69B C 0.2100(3) 0.3278(4) 0.0298(3)
H74B H 0.1822 0.3148 0.0434
C71B C 0.2090(3) 0.3648(5) -0.0081(3)
H76B H 0.1807 0.3774 -0.0209
N8 N 0.5000 0.5000 0.1419(4)
C75 C 0.5000 0.5000 0.2305(4)
H80 H 0.5000 0.5000 0.2608
C77 C 0.4924(3) 0.4378(6) 0.2082(4)
H82 H 0.4869 0.3925 0.2228
C79 C 0.4926(3) 0.4391(6) 0.1649(4)
H84 H 0.4872 0.3939 0.1502
C77A C 0.5076(3) 0.5622(6) 0.2082(4)
H82A H 0.5131 0.6075 0.2228
C79A C 0.5074(3) 0.5609(6) 0.1649(4)
H84A H 0.5128 0.6061 0.1502
C68 C 0.70974(11) 0.22501(16) 0.1878(4)
H73 H 0.6814 0.2505 0.1875
C70 C 0.71149(11) 0.14931(17) 0.1861(4)
H75 H 0.6835 0.1229 0.1847
C73 C 0.7500 0.2627(2) 0.1898(5)
H78 H 0.7500 0.3150 0.1927
N10 N 0.7500 0.11063(19) 0.1864(5)
C68B C 0.79026(11) 0.22501(16) 0.1878(4)
H73B H 0.8186 0.2505 0.1875
C70B C 0.78851(11) 0.14931(17) 0.1861(4)
H75B H 0.8165 0.1229 0.1847
C72 C 0.2896(3) 0.3635(5) 0.3843(3)
H77 H 0.3180 0.3764 0.3969
C74 C 0.2875(3) 0.3241(5) 0.3468(3)
H79 H 0.3157 0.3103 0.3343
N9 N 0.2500 0.3038(6) 0.3264(3)
C78 C 0.2500 0.3826(7) 0.4025(4)
H83 H 0.2500 0.4099 0.4283
C72B C 0.2104(3) 0.3635(5) 0.3843(3)
H77B H 0.1820 0.3764 0.3969
C74B C 0.2125(3) 0.3241(5) 0.3468(3)
H79B H 0.1843 0.3103 0.3343
N11 N 0.5000 0.0000 -0.0094(4)
C81 C 0.4969(3) 0.0630(5) 0.0140(4)
H86 H 0.4957 0.1083 -0.0014
C84 C 0.5000 0.0000 0.0807(5)
H89 H 0.5000 0.0000 0.1110
C86 C 0.4953(3) 0.0676(6) 0.0550(4)
H90 H 0.4912 0.1143 0.0685
C81A C 0.5031(3) -0.0630(5) 0.0140(4)
H86A H 0.5043 -0.1083 -0.0014
C86A C 0.5047(3) -0.0676(6) 0.0550(4)
H90A H 0.5088 -0.1143 0.0685
C80 C 0.5000 0.0000 0.3805(4)
H85 H 0.5000 0.0000 0.4108
C83 C 0.4960(3) 0.0673(5) 0.3617(4)
H88 H 0.4921 0.1120 0.3772
N12 N 0.5000 0.0000 0.2980(4)
C87 C 0.4981(3) 0.0645(5) 0.3197(4)
H91 H 0.4983 0.1096 0.3042
C83A C 0.5040(3) -0.0673(5) 0.3617(4)
H88A H 0.5079 -0.1120 0.3772
C87A C 0.5019(3) -0.0645(5) 0.3197(4)
H91A H 0.5017 -0.1096 0.3042
N13 N 0.4908(3) 0.1696(6) 0.1663(4)
C91 C 0.4907(3) 0.1563(4) 0.2073(4)
H101 H 0.4762 0.1171 0.2223
C92 C 0.5524(3) 0.2258(4) 0.1612(3)
H102 H 0.5745 0.2509 0.1444
C93 C 0.5498(2) 0.2438(4) 0.2016(3)
H103 H 0.5713 0.2771 0.2137
C97 C 0.5270(3) 0.1760(4) 0.1422(3)
H107 H 0.5335 0.1501 0.1166
C104 C 0.5183(4) 0.2164(6) 0.2244(3)
H114 H 0.5128 0.2349 0.2522
H116 H 0.4609(16) 0.145(2) 0.1462(15)
C94 C 0.2500 0.0996(8) 0.3307(4)
H104 H 0.2500 0.1251 0.3572
C96 C 0.2500 0.0254(5) 0.2562(4)
H106 H 0.2500 -0.0007 0.2300
N15 N 0.2500 0.0988(5) 0.2565(3)
C98 C 0.2500 -0.0119(7) 0.2933(4)
H108 H 0.2500 -0.0645 0.2932
C101 C 0.2500 0.1374(7) 0.2940(4)
H111 H 0.2500 0.1900 0.2940
C102 C 0.2500 0.0240(6) 0.3297(4)
H112 H 0.2500 -0.0030 0.3556
C95 C 0.4904(3) 0.2745(4) 0.3696(3)
H105 H 0.5002 0.2245 0.3715
N14 N 0.4880(3) 0.3885(5) 0.3317(2)
C99 C 0.5017(3) 0.3192(5) 0.3354(3)
H109 H 0.5202 0.2990 0.3134
C100 C 0.4622(3) 0.4190(5) 0.3633(2)
H110 H 0.4519 0.4687 0.3609
C103 C 0.4518(2) 0.3799(4) 0.39667(19)
H113 H 0.4351 0.4026 0.4191
C105 C 0.4641(3) 0.3069(4) 0.40033(18)
H115 H 0.4544 0.2788 0.4243
loop_
_geom_bond_atom_site_label_1
_geom_bond_atom_site_label_2
_geom_bond_site_symmetry_1
_geom_bond_site_symmetry_2
C1 H1 1_555 1_555
C2 H2 1_555 1_555
N1 C23 1_555 1_555
C3 O2 1_555 1_555
N2 C21 1_555 1_555
C4 H3 1_555 1_555
N3 C18 1_555 1_555
O1 C31 1_555 1_555
C5 C9 1_555 1_555
C6 C7 1_555 1_555
C7 C2 1_555 1_555
C8 C2 1_555 1_555
C9 H4 1_555 1_555
C10 C8 1_555 1_555
H5 C10 1_555 1_555
C11 C8 1_555 1_555
C12 C20 1_555 1_555
O3 C6 1_555 1_555
C13 C6 1_555 1_555
C14 C17 1_555 1_555
C15 C9 1_555 1_555
C16 C1 1_555 1_555
C17 C1 1_555 1_555
C18 C14 1_555 1_555
C19 C15 1_555 1_555
C20 C15 1_555 1_555
H6 C20 1_555 1_555
C21 C19 1_555 1_555
C22 C3 1_555 1_555
C23 C14 1_555 1_555
C24 N3 1_555 1_555
C25 N2 1_555 1_555
C26 C22 1_555 1_555
C27 N1 1_555 1_555
C28 C13 1_555 1_555
C29 C7 1_555 1_555
C30 C24 1_555 1_555
H7 C30 1_555 1_555
C31 C5 1_555 1_555
C32 C21 1_555 1_555
H8 C32 1_555 1_555
C33 C16 1_555 1_555
C34 C25 1_555 1_555
H9 C34 1_555 1_555
C35 C5 1_555 1_555
C36 C29 1_555 1_555
H10 C36 1_555 1_555
H11 C36 1_555 1_555
H12 C36 1_555 1_555
C37 C33 1_555 1_555
H13 C37 1_555 1_555
H14 C37 1_555 1_555
H15 C37 1_555 1_555
C38 C18 1_555 1_555
H16 C38 1_555 1_555
C39 C27 1_555 1_555
H17 C39 1_555 1_555
C40 C35 1_555 1_555
H18 C40 1_555 1_555
H19 C40 1_555 1_555
H20 C40 1_555 1_555
C41 C23 1_555 1_555
H21 C41 1_555 1_555
C42 C33 1_555 1_555
H22 C42 1_555 1_555
H23 C42 1_555 1_555
H24 C42 1_555 1_555
C43 C26 1_555 1_555
H25 C43 1_555 1_555
H26 C43 1_555 1_555
H27 C43 1_555 1_555
C44 C35 1_555 1_555
H28 C44 1_555 1_555
H29 C44 1_555 1_555
H30 C44 1_555 1_555
C45 C28 1_555 1_555
H31 C45 1_555 1_555
H32 C45 1_555 1_555
H33 C45 1_555 1_555
C46 C29 1_555 1_555
H34 C46 1_555 1_555
H35 C46 1_555 1_555
H36 C46 1_555 1_555
C47 C29 1_555 1_555
H37 C47 1_555 1_555
H38 C47 1_555 1_555
H39 C47 1_555 1_555
C48 C28 1_555 1_555
H40 C48 1_555 1_555
H41 C48 1_555 1_555
H42 C48 1_555 1_555
C49 C26 1_555 1_555
H43 C49 1_555 1_555
H44 C49 1_555 1_555
H45 C49 1_555 1_555
C50 C33 1_555 1_555
H46 C50 1_555 1_555
H47 C50 1_555 1_555
H48 C50 1_555 1_555
C51 C28 1_555 1_555
H49 C51 1_555 1_555
H50 C51 1_555 1_555
H51 C51 1_555 1_555
C52 C35 1_555 1_555
H52 C52 1_555 1_555
H53 C52 1_555 1_555
H54 C52 1_555 1_555
C53 C26 1_555 1_555
H55 C53 1_555 1_555
H56 C53 1_555 1_555
H57 C53 1_555 1_555
O4 H58 1_555 1_555
B1 N1 1_555 1_555
N4 C56 1_555 1_555
C54 H59 1_555 1_555
C55 H60 1_555 1_555
C56 C55 1_555 1_555
H61 C56 1_555 1_555
C57 N4 1_555 1_555
H62 C57 1_555 1_555
C58 C54 1_555 1_555
H63 C58 1_555 1_555
C59 H64 1_555 1_555
C60 H65 1_555 1_555
C61 C59 1_555 1_555
H66 C61 1_555 1_555
C62 C59 1_555 1_555
H67 C62 1_555 1_555
N5 C60 1_555 1_555
C63 C62 1_555 1_555
H68 C63 1_555 1_555
N6 C65 1_555 1_555
C64 H69 1_555 1_555
C65 C64 1_555 1_555
H70 C65 1_555 1_555
C66 N6 1_555 1_555
H71 C66 1_555 1_555
C67 C66 1_555 1_555
H72 C67 1_555 1_555
N7 C69 1_555 1_555
N8 C79 1_555 1_555
C68 H73 1_555 1_555
C69 H74 1_555 1_555
C70 C68 1_555 1_555
H75 C70 1_555 1_555
C71 C69 1_555 1_555
H76 C71 1_555 1_555
C72 H77 1_555 1_555
C73 C68 1_555 1_555
H78 C73 1_555 1_555
C74 C72 1_555 1_555
H79 C74 1_555 1_555
C75 H80 1_555 1_555
N9 C74 1_555 1_555
C76 C71 1_555 1_555
H81 C76 1_555 1_555
C77 C75 1_555 1_555
H82 C77 1_555 1_555
N10 C70 1_555 1_555
C78 C72 1_555 1_555
H83 C78 1_555 1_555
C79 C77 1_555 1_555
H84 C79 1_555 1_555
N11 C81 1_555 1_555
C80 H85 1_555 1_555
C81 H86 1_555 1_555
C82 C64 1_555 1_555
H87 C82 1_555 1_555
C83 C80 1_555 1_555
H88 C83 1_555 1_555
C84 H89 1_555 1_555
N12 C87 1_555 1_555
C85 C12 1_555 1_555
C86 C81 1_555 1_555
H90 C86 1_555 1_555
C87 C83 1_555 1_555
H91 C87 1_555 1_555
C88 C85 1_555 1_555
H92 C88 1_555 1_555
H93 C88 1_555 1_555
H94 C88 1_555 1_555
C89 C85 1_555 1_555
H95 C89 1_555 1_555
H96 C89 1_555 1_555
H97 C89 1_555 1_555
C90 C85 1_555 1_555
H98 C90 1_555 1_555
H99 C90 1_555 1_555
H100 C90 1_555 1_555
N13 C91 1_555 1_555
C91 H101 1_555 1_555
C92 H102 1_555 1_555
C93 C92 1_555 1_555
H103 C93 1_555 1_555
C94 H104 1_555 1_555
C95 H105 1_555 1_555
N14 C99 1_555 1_555
C96 H106 1_555 1_555
C97 N13 1_555 1_555
H107 C97 1_555 1_555
N15 C96 1_555 1_555
C98 C96 1_555 1_555
H108 C98 1_555 1_555
C99 C95 1_555 1_555
H109 C99 1_555 1_555
C100 N14 1_555 1_555
H110 C100 1_555 1_555
C101 C94 1_555 1_555
H111 C101 1_555 1_555
C102 C94 1_555 1_555
H112 C102 1_555 1_555
C103 C100 1_555 1_555
H113 C103 1_555 1_555
C104 C91 1_555 1_555
H114 C104 1_555 1_555
C105 C95 1_555 1_555
H115 C105 1_555 1_555
H116 N13 1_555 1_555
C68B C73 1_555 1_555
H73B C68B 1_555 1_555
C69B N7 1_555 1_555
H74B C69B 1_555 1_555
C70B N10 1_555 1_555
H75B C70B 1_555 1_555
C71B C76 1_555 1_555
H76B C71B 1_555 1_555
C72B C78 1_555 1_555
H77B C72B 1_555 1_555
C74B N9 1_555 1_555
H79B C74B 1_555 1_555
C77A C75 1_555 1_555
H82A C77A 1_555 1_555
C79A N8 1_555 1_555
H84A C79A 1_555 1_555
C81A N11 1_555 1_555
H86A C81A 1_555 1_555
C83A C80 1_555 1_555
H88A C83A 1_555 1_555
C86A C84 1_555 1_555
H90A C86A 1_555 1_555
C87A N12 1_555 1_555
H91A C87A 1_555 1_555
C3 C16 1_555 1_555
N2 B1 1_555 1_555
C4 C17 1_555 1_555
C4 C22 1_555 1_555
N3 B1 1_555 1_555
C10 C13 1_555 1_555
C11 C24 1_555 1_555
C11 C25 1_555 1_555
C12 C31 1_555 1_555
C19 C27 1_555 1_555
C30 C38 1_555 1_555
C32 C34 1_555 1_555
C39 C41 1_555 1_555
O4 B1 1_555 1_555
C54 C57 1_555 1_555
C55 C58 1_555 1_555
C60 C61 1_555 1_555
N5 C63 1_555 1_555
C67 C82 1_555 1_555
C84 C86 1_555 1_555
C92 C97 1_555 1_555
C93 C104 1_555 1_555
N15 C101 1_555 1_555
C98 C102 1_555 1_555
C103 C105 1_555 1_555
C68B C70B 1_555 1_555
C69B C71B 1_555 1_555
C72B C74B 1_555 1_555
C77A C79A 1_555 1_555
C81A C86A 1_555 1_555
C83A C87A 1_555 1_555

#END
