
#######################################################################
#
#                 Cambridge Crystallographic Data Centre
#                                CCDC 
#
#######################################################################
#
# If this CIF has been generated from an entry in the Cambridge 
# Structural Database, then it will include bibliographic, chemical, 
# crystal, experimental, refinement or atomic coordinate data resulting 
# from the CCDC's data processing and validation procedures.
#
#######################################################################

data_ONONOW
_chemical_formula_moiety         'C21 H19 N1 O1'
_chemical_name_systematic        N-(2-(1-(2-naphthyl)vinyl)benzyl)acetamide
_symmetry_cell_setting           orthorhombic
_symmetry_space_group_name_H-M   'P b c a'
_symmetry_Int_Tables_number      61
_space_group_name_Hall           '-P 2ac 2ab'
loop_
_symmetry_equiv_pos_site_id
_symmetry_equiv_pos_as_xyz
1 x,y,z
2 1/2-x,-y,1/2+z
3 1/2+x,1/2-y,-z
4 -x,1/2+y,1/2-z
5 -x,-y,-z
6 1/2+x,y,1/2-z
7 1/2-x,1/2+y,z
8 x,1/2-y,1/2+z
_cell_length_a                   9.0641(7)
_cell_length_b                   8.8761(5)
_cell_length_c                   42.950(3)
_cell_angle_alpha                90
_cell_angle_beta                 90
_cell_angle_gamma                90
_cell_volume                     3455.49
_cell_formula_units_Z            8
loop_
_atom_site_label
_atom_site_type_symbol
_atom_site_fract_x
_atom_site_fract_y
_atom_site_fract_z
O1 O 0.6412(2) 0.5527(2) 0.04774(5)
N1 N 0.7545(3) 0.3443(2) 0.06545(5)
H1 H 0.7639 0.2484 0.0636
C1 C 1.0676(3) 0.5815(3) 0.09630(7)
C2 C 1.0469(3) 0.4322(3) 0.04978(7)
H2 H 0.9928 0.3671 0.0372
C3 C 1.0089(3) 0.6394(3) 0.12628(7)
C4 C 0.9890(3) 0.4787(3) 0.07801(6)
C5 C 1.0525(4) 0.3054(3) 0.18074(7)
C6 C 0.9800(3) 0.5301(3) 0.15170(7)
C7 C 0.6614(3) 0.4155(3) 0.04657(7)
C8 C 0.5776(3) 0.3187(3) 0.02399(7)
H3 H 0.4859 0.2880 0.0332
H4 H 0.6351 0.2312 0.0190
H5 H 0.5583 0.3750 0.0054
C9 C 0.8411(3) 0.4209(3) 0.08892(7)
H6 H 0.8572 0.3521 0.1061
H7 H 0.7842 0.5053 0.0968
C10 C 1.0710(3) 0.4085(3) 0.15575(7)
H8 H 1.1475 0.3930 0.1417
C11 C 1.2051(4) 0.6287(3) 0.08560(8)
H9 H 1.2592 0.6962 0.0976
C12 C 0.9350(4) 0.3285(4) 0.20152(7)
C13 C 1.1837(4) 0.4809(3) 0.03995(8)
H10 H 1.2219 0.4471 0.0211
C14 C 1.2634(4) 0.5790(3) 0.05796(8)
H11 H 1.3560 0.6115 0.0515
C15 C 0.9874(4) 0.7861(4) 0.13026(8)
H12 H 0.9536 0.8223 0.1493
H13 H 1.0062 0.8526 0.1140
C16 C 1.1479(4) 0.1817(4) 0.18554(9)
H14 H 1.2254 0.1645 0.1718
C17 C 0.8405(4) 0.4514(4) 0.19652(8)
H15 H 0.7612 0.4666 0.2099
C18 C 1.1273(5) 0.0876(5) 0.21013(11)
H16 H 1.1914 0.0071 0.2131
C19 C 0.8624(4) 0.5483(4) 0.17263(8)
H17 H 0.7979 0.6288 0.1700
C20 C 1.0121(5) 0.1101(5) 0.23081(10)
H18 H 0.9993 0.0443 0.2474
C21 C 0.9179(5) 0.2269(5) 0.22697(8)
H19 H 0.8414 0.2411 0.2411
loop_
_geom_bond_atom_site_label_1
_geom_bond_atom_site_label_2
_geom_bond_site_symmetry_1
_geom_bond_site_symmetry_2
O1 C7 1_555 1_555
N1 H1 1_555 1_555
C1 C3 1_555 1_555
C2 H2 1_555 1_555
C3 C6 1_555 1_555
C4 C1 1_555 1_555
C5 C10 1_555 1_555
C6 C10 1_555 1_555
C7 N1 1_555 1_555
C8 C7 1_555 1_555
H3 C8 1_555 1_555
H4 C8 1_555 1_555
H5 C8 1_555 1_555
C9 N1 1_555 1_555
H6 C9 1_555 1_555
H7 C9 1_555 1_555
C10 H8 1_555 1_555
C11 C1 1_555 1_555
H9 C11 1_555 1_555
C12 C5 1_555 1_555
C13 C2 1_555 1_555
H10 C13 1_555 1_555
C14 C11 1_555 1_555
H11 C14 1_555 1_555
C15 C3 1_555 1_555
H12 C15 1_555 1_555
H13 C15 1_555 1_555
C16 C5 1_555 1_555
H14 C16 1_555 1_555
C17 C12 1_555 1_555
H15 C17 1_555 1_555
C18 C16 1_555 1_555
H16 C18 1_555 1_555
C19 C6 1_555 1_555
H17 C19 1_555 1_555
C20 C18 1_555 1_555
H18 C20 1_555 1_555
C21 C12 1_555 1_555
H19 C21 1_555 1_555
C2 C4 1_555 1_555
C4 C9 1_555 1_555
C13 C14 1_555 1_555
C17 C19 1_555 1_555
C20 C21 1_555 1_555

#END
