
#######################################################################
#
#                 Cambridge Crystallographic Data Centre
#                                CCDC 
#
#######################################################################
#
# If this CIF has been generated from an entry in the Cambridge 
# Structural Database, then it will include bibliographic, chemical, 
# crystal, experimental, refinement or atomic coordinate data resulting 
# from the CCDC's data processing and validation procedures.
#
#######################################################################

data_ONRVTA
_chemical_compound_source        'Nasutitermes sp'
_chemical_formula_moiety         'C20 H32 O3,H2 O1'
_chemical_name_systematic        
'3\a,9\b,13\a-Trihydroxy-1\b,8\b-trinervita-11(12),15(17)-diene monohydrate'
_symmetry_cell_setting           orthorhombic
_symmetry_space_group_name_H-M   'P 21 21 21'
_symmetry_Int_Tables_number      19
_space_group_name_Hall           'P 2ac 2ab'
loop_
_symmetry_equiv_pos_site_id
_symmetry_equiv_pos_as_xyz
1 x,y,z
2 1/2+x,1/2-y,-z
3 -x,1/2+y,1/2-z
4 1/2-x,-y,1/2+z
_cell_length_a                   9.439(4)
_cell_length_b                   13.506(5)
_cell_length_c                   14.677(5)
_cell_angle_alpha                90
_cell_angle_beta                 90
_cell_angle_gamma                90
_cell_volume                     1871.07
_cell_formula_units_Z            4
loop_
_atom_site_label
_atom_site_type_symbol
_atom_site_fract_x
_atom_site_fract_y
_atom_site_fract_z
O1 O 1.14520 0.13000 0.26250
O2 O 0.36820 0.14790 0.38000
O3 O 0.64890 0.46110 0.04750
C1 C 0.80250 0.23970 0.17410
C2 C 0.96120 0.20970 0.17280
C3 C 0.99660 0.15010 0.25700
C4 C 0.90970 0.05390 0.26620
C5 C 0.92010 0.01410 0.36480
C6 C 0.82070 0.07890 0.42110
C7 C 0.69040 0.09830 0.35800
C8 C 0.61410 0.19570 0.37950
C9 C 0.47040 0.20440 0.33060
C10 C 0.42000 0.31140 0.31780
C11 C 0.52630 0.36650 0.26080
C12 C 0.53650 0.36560 0.17080
C13 C 0.67080 0.40040 0.12770
C14 C 0.76550 0.31410 0.09650
C15 C 0.71710 0.14490 0.17700
C16 C 0.74670 0.07690 0.25840
C17 C 0.64030 0.11060 0.10810
C18 C 0.95620 -0.02200 0.19590
C19 C 0.59710 0.21200 0.48170
C20 C 0.42320 0.32480 0.10920
H1 H 0.77640 0.27880 0.22650
H2 H 1.01730 0.26750 0.17180
H3 H 0.97760 0.17060 0.12120
H4 H 0.97060 0.19040 0.30890
H5 H 1.01350 0.01870 0.38660
H6 H 0.88970 -0.05360 0.36660
H7 H 0.79020 0.04500 0.47480
H8 H 0.86440 0.13910 0.43740
H9 H 0.61190 0.05610 0.36780
H10 H 0.67750 0.24310 0.35570
H11 H 0.48350 0.17840 0.27070
H12 H 0.40940 0.34200 0.37510
H13 H 0.33090 0.31100 0.28680
H14 H 0.59480 0.40560 0.29330
H15 H 0.71880 0.43840 0.17300
H16 H 0.85140 0.34160 0.07430
H17 H 0.71720 0.28050 0.05050
H18 H 0.68680 0.02370 0.23980
H19 H 0.62120 0.15030 0.05670
H20 H 0.60470 0.04380 0.11000
H21 H 0.68720 0.21630 0.51200
H22 H 0.56460 0.28830 0.48810
H23 H 0.53210 0.17830 0.51040
H24 H 0.45140 0.33060 0.04700
H25 H 0.40850 0.25580 0.12230
H26 H 0.33690 0.35910 0.11820
H27 H 0.94790 0.00530 0.13660
H28 H 1.05130 -0.04060 0.20710
H29 H 0.89690 -0.07920 0.20020
H30 H 0.25000 0.14450 0.37500
H31 H 0.64060 0.51950 0.08400
O4 O 0.78280 0.44620 -0.11500
H32 H 0.75000 0.39650 -0.10350
H33 H 0.85940 0.43750 -0.08200
loop_
_geom_bond_atom_site_label_1
_geom_bond_atom_site_label_2
_geom_bond_site_symmetry_1
_geom_bond_site_symmetry_2
O1 C3 1_555 1_555
O2 C9 1_555 1_555
O3 C13 1_555 1_555
C1 C2 1_555 1_555
C2 C3 1_555 1_555
C3 C4 1_555 1_555
C4 C5 1_555 1_555
C5 C6 1_555 1_555
C6 C7 1_555 1_555
C7 C8 1_555 1_555
C8 C9 1_555 1_555
C9 C10 1_555 1_555
C10 C11 1_555 1_555
C11 C12 1_555 1_555
C12 C13 1_555 1_555
C13 C14 1_555 1_555
C14 C1 1_555 1_555
C15 C1 1_555 1_555
C16 C4 1_555 1_555
C17 C15 1_555 1_555
C18 C4 1_555 1_555
C19 C8 1_555 1_555
C20 C12 1_555 1_555
H1 C1 1_555 1_555
H2 C2 1_555 1_555
H3 C2 1_555 1_555
H4 C3 1_555 1_555
H5 C5 1_555 1_555
H6 C5 1_555 1_555
H7 C6 1_555 1_555
H8 C6 1_555 1_555
H9 C7 1_555 1_555
H10 C8 1_555 1_555
H11 C9 1_555 1_555
H12 C10 1_555 1_555
H13 C10 1_555 1_555
H14 C11 1_555 1_555
H15 C13 1_555 1_555
H16 C14 1_555 1_555
H17 C14 1_555 1_555
H18 C16 1_555 1_555
H19 C17 1_555 1_555
H20 C17 1_555 1_555
H21 C19 1_555 1_555
H22 C19 1_555 1_555
H23 C19 1_555 1_555
H24 C20 1_555 1_555
H25 C20 1_555 1_555
H26 C20 1_555 1_555
H27 C18 1_555 1_555
H28 C18 1_555 1_555
H29 C18 1_555 1_555
H30 O2 1_555 1_555
H31 O3 1_555 1_555
O4 H32 1_555 1_555
H33 O4 1_555 1_555
C7 C16 1_555 1_555
C15 C16 1_555 1_555

#END
