
#######################################################################
#
#                 Cambridge Crystallographic Data Centre
#                                CCDC 
#
#######################################################################
#
# If this CIF has been generated from an entry in the Cambridge 
# Structural Database, then it will include bibliographic, chemical, 
# crystal, experimental, refinement or atomic coordinate data resulting 
# from the CCDC's data processing and validation procedures.
#
#######################################################################

data_ONUMER
_chemical_formula_moiety         'C14 H8 Br2 F2'
_chemical_name_systematic        
1,1'-ethene-1,2-diylbis(4-bromo-2-fluorobenzene)
_symmetry_cell_setting           triclinic
_symmetry_space_group_name_H-M   'P -1'
_symmetry_Int_Tables_number      2
_space_group_name_Hall           '-P 1'
loop_
_symmetry_equiv_pos_site_id
_symmetry_equiv_pos_as_xyz
1 x,y,z
2 -x,-y,-z
_cell_length_a                   4.037(2)
_cell_length_b                   5.968(3)
_cell_length_c                   13.092(6)
_cell_angle_alpha                79.090(13)
_cell_angle_beta                 87.090(15)
_cell_angle_gamma                85.960(14)
_cell_volume                     308.727
_exptl_crystal_colour            colorless
_exptl_crystal_description       block
_cell_formula_units_Z            1
loop_
_atom_site_label
_atom_site_type_symbol
_atom_site_fract_x
_atom_site_fract_y
_atom_site_fract_z
Br1 Br 0.63981(7) -0.25661(5) 0.42211(2)
C1 C 0.9319(6) 0.3085(4) 0.13595(18)
C2 C 0.7694(6) 0.1163(5) 0.1243(2)
H1 H 0.7170 0.1010 0.0577
C3 C 0.6831(6) -0.0521(5) 0.2072(2)
H2 H 0.5763 -0.1783 0.1965
C4 C 0.7587(6) -0.0294(4) 0.30683(19)
C5 C 0.9188(6) 0.1566(5) 0.3238(2)
H3 H 0.9683 0.1721 0.3907
C6 C 1.0029(6) 0.3192(4) 0.2378(2)
C7 C 1.0322(6) 0.4908(5) 0.0502(2)
H4 H 1.1526 0.6045 0.0675
F1 F 1.1773(7) 0.4913(4) 0.2547(2)
Br1A Br 1.36019(7) 1.25661(5) -0.42211(2)
C1A C 1.0681(6) 0.6915(4) -0.13595(18)
C2A C 1.2306(6) 0.8837(5) -0.1243(2)
H1A H 1.2830 0.8990 -0.0577
C3A C 1.3169(6) 1.0521(5) -0.2072(2)
H2A H 1.4237 1.1783 -0.1965
C4A C 1.2413(6) 1.0294(4) -0.30683(19)
C5A C 1.0812(6) 0.8434(5) -0.3238(2)
H3A H 1.0317 0.8279 -0.3907
C6A C 0.9971(6) 0.6808(4) -0.2378(2)
C7A C 0.9678(6) 0.5092(5) -0.0502(2)
H4A H 0.8474 0.3955 -0.0675
F1A F 0.8227(7) 0.5087(4) -0.2547(2)
H5? H 1.1139 0.4434 0.2488
F2? F 0.6839(12) 0.0812(8) 0.0336(3)
loop_
_geom_bond_atom_site_label_1
_geom_bond_atom_site_label_2
_geom_bond_site_symmetry_1
_geom_bond_site_symmetry_2
Br1 C4 1_555 1_555
C1 C2 1_555 1_555
C2 H1 1_555 1_555
C3 C2 1_555 1_555
H2 C3 1_555 1_555
C4 C3 1_555 1_555
C5 C4 1_555 1_555
H3 C5 1_555 1_555
C6 C1 1_555 1_555
C7 C1 1_555 1_555
H4 C7 1_555 1_555
F1 C6 1_555 1_555
Br1A C4A 1_555 1_555
C1A C2A 1_555 1_555
C2A H1A 1_555 1_555
C3A C2A 1_555 1_555
H2A C3A 1_555 1_555
C4A C3A 1_555 1_555
C5A C4A 1_555 1_555
H3A C5A 1_555 1_555
C6A C1A 1_555 1_555
C7A C7 1_555 1_555
H4A C7A 1_555 1_555
F1A C6A 1_555 1_555
C5 C6 1_555 1_555
C1A C7A 1_555 1_555
C5A C6A 1_555 1_555

#END
