
#######################################################################
#
#                 Cambridge Crystallographic Data Centre
#                                CCDC 
#
#######################################################################
#
# If this CIF has been generated from an entry in the Cambridge 
# Structural Database, then it will include bibliographic, chemical, 
# crystal, experimental, refinement or atomic coordinate data resulting 
# from the CCDC's data processing and validation procedures.
#
#######################################################################

data_ONUVIE02
_chemical_formula_moiety         'C14 H17 F3 N2 O3 S1'
_chemical_name_systematic        
3,3,3-trifluoro-1-(4-methylphenyl)-N-(morpholin-4-yl)prop-1-ene-1-sulfonamide
_symmetry_cell_setting           monoclinic
_symmetry_space_group_name_H-M   'P 21/n'
_symmetry_Int_Tables_number      14
_space_group_name_Hall           '-P 2yn'
loop_
_symmetry_equiv_pos_site_id
_symmetry_equiv_pos_as_xyz
1 x,y,z
2 1/2-x,1/2+y,1/2-z
3 -x,-y,-z
4 1/2+x,1/2-y,1/2+z
_cell_length_a                   8.849(5)
_cell_length_b                   10.773(6)
_cell_length_c                   17.758(9)
_cell_angle_alpha                90
_cell_angle_beta                 91.599(7)
_cell_angle_gamma                90
_cell_volume                     1692.22
_exptl_crystal_colour            colorless
_exptl_crystal_description       block
_cell_formula_units_Z            4
loop_
_atom_site_label
_atom_site_type_symbol
_atom_site_fract_x
_atom_site_fract_y
_atom_site_fract_z
S1 S -0.10462(7) 0.15621(7) 0.22981(4)
N1 N 0.0597(2) -0.0345(2) 0.25928(12)
N2 N 0.0531(3) 0.0811(2) 0.22211(14)
O1 O 0.1871(2) -0.2685(2) 0.29190(14)
O2 O -0.0794(2) 0.2762(2) 0.19954(11)
O3 O -0.2220(2) 0.0810(2) 0.19840(11)
F1 F -0.3072(4) 0.2019(3) 0.46251(14)
F2 F -0.4516(3) 0.0624(4) 0.42806(14)
F3 F -0.2411(4) 0.0223(3) 0.47576(14)
C1 C 0.1980(4) -0.1695(3) 0.3436(2)
H1 H 0.2899 -0.1786 0.3742
H2 H 0.1130 -0.1727 0.3768
C2 C 0.1996(3) -0.0461(3) 0.30457(17)
H3 H 0.2064 0.0203 0.3414
H4 H 0.2863 -0.0406 0.2725
C3 C 0.0530(3) -0.1351(3) 0.20382(18)
H5 H 0.1396 -0.1306 0.1716
H6 H -0.0381 -0.1277 0.1725
C4 C 0.0532(4) -0.2553(3) 0.2448(3)
H7 H -0.0353 -0.2599 0.2757
H8 H 0.0480 -0.3229 0.2088
C5 C -0.1388(3) 0.1683(3) 0.32899(15)
C6 C -0.2485(3) 0.0982(3) 0.35308(16)
H9 H -0.2936 0.0446 0.3181
C7 C -0.3071(5) 0.0953(4) 0.4291(2)
C8 C -0.0362(3) 0.2519(3) 0.37263(14)
C9 C 0.0554(3) 0.2047(3) 0.42925(16)
H10 H 0.0511 0.1204 0.4403
C10 C 0.1536(4) 0.2798(4) 0.4700(2)
H11 H 0.2134 0.2454 0.5085
C11 C 0.1648(4) 0.4034(4) 0.4551(2)
C12 C 0.0719(4) 0.4505(3) 0.3992(2)
H12 H 0.0758 0.5350 0.3887
C13 C -0.0279(3) 0.3764(3) 0.35773(18)
H13 H -0.0890 0.4112 0.3199
C14 C 0.2772(5) 0.4871(5) 0.4965(2)
H14 H 0.2844 0.4634 0.5486
H15 H 0.2438 0.5717 0.4927
H16 H 0.3746 0.4792 0.4745
H17 H 0.118(3) 0.130(2) 0.2221(14)
loop_
_geom_bond_atom_site_label_1
_geom_bond_atom_site_label_2
_geom_bond_site_symmetry_1
_geom_bond_site_symmetry_2
S1 N2 1_555 1_555
N1 N2 1_555 1_555
N2 H17 1_555 1_555
O1 C1 1_555 1_555
O2 S1 1_555 1_555
O3 S1 1_555 1_555
F1 C7 1_555 1_555
F2 C7 1_555 1_555
F3 C7 1_555 1_555
C1 H1 1_555 1_555
H2 C1 1_555 1_555
C2 N1 1_555 1_555
H3 C2 1_555 1_555
H4 C2 1_555 1_555
C3 N1 1_555 1_555
H5 C3 1_555 1_555
H6 C3 1_555 1_555
C4 O1 1_555 1_555
H7 C4 1_555 1_555
H8 C4 1_555 1_555
C5 S1 1_555 1_555
C6 C5 1_555 1_555
H9 C6 1_555 1_555
C7 C6 1_555 1_555
C8 C5 1_555 1_555
C9 C8 1_555 1_555
H10 C9 1_555 1_555
C10 C9 1_555 1_555
H11 C10 1_555 1_555
C11 C10 1_555 1_555
C12 C11 1_555 1_555
H12 C12 1_555 1_555
C13 C8 1_555 1_555
H13 C13 1_555 1_555
C14 C11 1_555 1_555
H14 C14 1_555 1_555
H15 C14 1_555 1_555
H16 C14 1_555 1_555
C1 C2 1_555 1_555
C3 C4 1_555 1_555
C12 C13 1_555 1_555

#END
