
#######################################################################
#
#                 Cambridge Crystallographic Data Centre
#                                CCDC 
#
#######################################################################
#
# If this CIF has been generated from an entry in the Cambridge 
# Structural Database, then it will include bibliographic, chemical, 
# crystal, experimental, refinement or atomic coordinate data resulting 
# from the CCDC's data processing and validation procedures.
#
#######################################################################

data_OPEHOH
_chemical_formula_moiety         'C16 H16 N2 O4 S2'
_chemical_name_systematic        N,N'-Dimethylanthracene-1,8-disulfonamide
_symmetry_cell_setting           tetragonal
_symmetry_space_group_name_H-M   'P -4 21 c'
_symmetry_Int_Tables_number      114
_space_group_name_Hall           'P -4 2n'
loop_
_symmetry_equiv_pos_site_id
_symmetry_equiv_pos_as_xyz
1 x,y,z
2 -x,-y,z
3 y,-x,-z
4 -y,x,-z
5 1/2-x,1/2+y,1/2-z
6 1/2+x,1/2-y,1/2-z
7 1/2-y,1/2-x,1/2+z
8 1/2+y,1/2+x,1/2+z
_cell_length_a                   14.450(3)
_cell_length_b                   14.450(3)
_cell_length_c                   16.520(4)
_cell_angle_alpha                90
_cell_angle_beta                 90
_cell_angle_gamma                90
_cell_volume                     3449.42
_cell_formula_units_Z            8
loop_
_atom_site_label
_atom_site_type_symbol
_atom_site_fract_x
_atom_site_fract_y
_atom_site_fract_z
S1 S 0.50103(9) 0.68631(6) 0.89403(5)
O1 O 0.4405(2) 0.62229(19) 0.93362(16)
O2 O 0.4891(2) 0.78264(15) 0.91200(16)
N1 N 0.6039(2) 0.6531(2) 0.9139(2)
H1 H 0.6128 0.6006 0.9371
C1 C 0.4906(3) 0.6737(2) 0.78850(19)
C2 C 0.4947(3) 0.5843(2) 0.74973(17)
C3 C 0.4929(3) 0.5835(2) 0.66250(18)
C4 C 0.4820(3) 0.6679(3) 0.6196(2)
H3 H 0.4782 0.6668 0.5634
C5 C 0.4770(4) 0.7489(3) 0.6583(3)
H4 H 0.4703 0.8033 0.6287
C6 C 0.4817(3) 0.7528(3) 0.7428(3)
H5 H 0.4788 0.8100 0.7685
C7 C 0.5000 0.5000 0.7910(2)
H6 H 0.5000 0.5000 0.8473
C8 C 0.5000 0.5000 0.6233(3)
H7 H 0.5000 0.5000 0.5670
C17 C 0.6835(3) 0.7118(3) 0.8927(3)
H13 H 0.6854 0.7206 0.8351
H14 H 0.7396 0.6824 0.9102
H15 H 0.6776 0.7708 0.9190
S1A S 0.49897(9) 0.31369(6) 0.89403(5)
O1A O 0.5595(2) 0.37771(19) 0.93362(16)
O2A O 0.5109(2) 0.21736(15) 0.91200(16)
N1A N 0.3961(2) 0.3469(2) 0.9139(2)
H1A H 0.3872 0.3994 0.9371
C1A C 0.5094(3) 0.3263(2) 0.78850(19)
C2A C 0.5053(3) 0.4157(2) 0.74973(17)
C3A C 0.5071(3) 0.4165(2) 0.66250(18)
C4A C 0.5180(3) 0.3321(3) 0.6196(2)
H3A H 0.5218 0.3332 0.5634
C5A C 0.5230(4) 0.2511(3) 0.6583(3)
H4A H 0.5297 0.1967 0.6287
C6A C 0.5183(3) 0.2472(3) 0.7428(3)
H5A H 0.5212 0.1900 0.7685
C17A C 0.3165(3) 0.2882(3) 0.8927(3)
H13A H 0.3146 0.2794 0.8351
H14A H 0.2604 0.3176 0.9102
H15A H 0.3224 0.2292 0.9190
S2 S 0.68793(6) -0.00543(9) 0.91320(5)
O3 O 0.78103(18) -0.0317(2) 0.93062(17)
O4 O 0.61425(19) -0.0472(2) 0.95705(15)
N2 N 0.6794(2) 0.1034(2) 0.9276(2)
H2 H 0.6344 0.1251 0.9558
C9 C 0.6723(2) -0.0224(2) 0.8074(2)
C10 C 0.5835(2) -0.0120(3) 0.76798(18)
C11 C 0.5829(2) -0.0155(2) 0.68103(18)
C12 C 0.6658(3) -0.0324(3) 0.6374(2)
H8 H 0.6645 -0.0348 0.5812
C13 C 0.7465(3) -0.0449(3) 0.6772(3)
H9 H 0.8003 -0.0579 0.6484
C14 C 0.7493(3) -0.0383(3) 0.7624(2)
H10 H 0.8059 -0.0451 0.7887
C15 C 0.5000 0.0000 0.8091(2)
H11 H 0.5000 0.0000 0.8654
C16 C 0.5000 0.0000 0.6405(2)
H12 H 0.5000 0.0000 0.5842
C18 C 0.7478(4) 0.1662(4) 0.8930(4)
H16 H 0.8066 0.1564 0.9188
H17 H 0.7284 0.2290 0.9014
H18 H 0.7536 0.1545 0.8360
S2A S 0.31207(6) 0.00543(9) 0.91320(5)
O3A O 0.21897(18) 0.0317(2) 0.93062(17)
O4A O 0.38575(19) 0.0472(2) 0.95705(15)
N2A N 0.3206(2) -0.1034(2) 0.9276(2)
H2A H 0.3656 -0.1251 0.9558
C9A C 0.3277(2) 0.0224(2) 0.8074(2)
C10A C 0.4165(2) 0.0120(3) 0.76798(18)
C11A C 0.4171(2) 0.0155(2) 0.68103(18)
C12A C 0.3342(3) 0.0324(3) 0.6374(2)
H8A H 0.3355 0.0348 0.5812
C13A C 0.2535(3) 0.0449(3) 0.6772(3)
H9A H 0.1997 0.0579 0.6484
C14A C 0.2507(3) 0.0383(3) 0.7624(2)
H10A H 0.1941 0.0451 0.7887
C18A C 0.2522(4) -0.1662(4) 0.8930(4)
H16A H 0.1934 -0.1564 0.9188
H17A H 0.2716 -0.2290 0.9014
H18A H 0.2464 -0.1545 0.8360
loop_
_geom_bond_atom_site_label_1
_geom_bond_atom_site_label_2
_geom_bond_site_symmetry_1
_geom_bond_site_symmetry_2
S1 O1 1_555 1_555
S2 O3 1_555 1_555
O2 S1 1_555 1_555
O4 S2 1_555 1_555
N1 S1 1_555 1_555
H1 N1 1_555 1_555
N2 S2 1_555 1_555
H2 N2 1_555 1_555
C1 S1 1_555 1_555
C2 C1 1_555 1_555
C3 C2 1_555 1_555
C4 C3 1_555 1_555
H3 C4 1_555 1_555
C5 C4 1_555 1_555
H4 C5 1_555 1_555
C6 C1 1_555 1_555
H5 C6 1_555 1_555
C7 C2 1_555 1_555
H6 C7 1_555 1_555
C8 C3 1_555 1_555
H7 C8 1_555 1_555
C9 S2 1_555 1_555
C10 C9 1_555 1_555
C11 C10 1_555 1_555
C12 C11 1_555 1_555
H8 C12 1_555 1_555
C13 C12 1_555 1_555
H9 C13 1_555 1_555
C14 C9 1_555 1_555
H10 C14 1_555 1_555
C15 C10 1_555 1_555
H11 C15 1_555 1_555
C16 C11 1_555 1_555
H12 C16 1_555 1_555
C17 N1 1_555 1_555
H13 C17 1_555 1_555
H14 C17 1_555 1_555
H15 C17 1_555 1_555
C18 N2 1_555 1_555
H16 C18 1_555 1_555
H17 C18 1_555 1_555
H18 C18 1_555 1_555
S1A O1A 1_555 1_555
S2A O3A 1_555 1_555
O2A S1A 1_555 1_555
O4A S2A 1_555 1_555
N1A S1A 1_555 1_555
H1A N1A 1_555 1_555
N2A S2A 1_555 1_555
H2A N2A 1_555 1_555
C1A S1A 1_555 1_555
C2A C7 1_555 1_555
C3A C8 1_555 1_555
C4A C3A 1_555 1_555
H3A C4A 1_555 1_555
C5A C4A 1_555 1_555
H4A C5A 1_555 1_555
C6A C1A 1_555 1_555
H5A C6A 1_555 1_555
C9A S2A 1_555 1_555
C10A C15 1_555 1_555
C11A C16 1_555 1_555
C12A C11A 1_555 1_555
H8A C12A 1_555 1_555
C13A C12A 1_555 1_555
H9A C13A 1_555 1_555
C14A C9A 1_555 1_555
H10A C14A 1_555 1_555
C17A N1A 1_555 1_555
H13A C17A 1_555 1_555
H14A C17A 1_555 1_555
H15A C17A 1_555 1_555
C18A N2A 1_555 1_555
H16A C18A 1_555 1_555
H17A C18A 1_555 1_555
H18A C18A 1_555 1_555
C5 C6 1_555 1_555
C13 C14 1_555 1_555
C1A C2A 1_555 1_555
C2A C3A 1_555 1_555
C5A C6A 1_555 1_555
C9A C10A 1_555 1_555
C10A C11A 1_555 1_555
C13A C14A 1_555 1_555

#END
