
#######################################################################
#
#                 Cambridge Crystallographic Data Centre
#                                CCDC 
#
#######################################################################
#
# If this CIF has been generated from an entry in the Cambridge 
# Structural Database, then it will include bibliographic, chemical, 
# crystal, experimental, refinement or atomic coordinate data resulting 
# from the CCDC's data processing and validation procedures.
#
#######################################################################

data_OPIJEE
_chemical_formula_moiety         'C31 H33 N2 P1 Se1'
_chemical_name_systematic        
'N-(2-(((2,6-diisopropylphenyl)imino)methyl)phenyl)-P,P-diphenylphosphinoselenoic amide'
_symmetry_cell_setting           monoclinic
_symmetry_space_group_name_H-M   'P 21/c'
_symmetry_Int_Tables_number      14
_space_group_name_Hall           '-P 2ybc'
loop_
_symmetry_equiv_pos_site_id
_symmetry_equiv_pos_as_xyz
1 x,y,z
2 -x,1/2+y,1/2-z
3 -x,-y,-z
4 x,1/2-y,1/2+z
_cell_length_a                   13.4929(2)
_cell_length_b                   15.4584(2)
_cell_length_c                   16.6251(4)
_cell_angle_alpha                90
_cell_angle_beta                 123.7580(10)
_cell_angle_gamma                90
_cell_volume                     2882.97
_exptl_crystal_colour            yellow
_exptl_crystal_description       block
_cell_formula_units_Z            4
loop_
_atom_site_label
_atom_site_type_symbol
_atom_site_fract_x
_atom_site_fract_y
_atom_site_fract_z
Se1 Se 0.56231(3) -0.44379(2) 0.68419(3)
P1 P 0.39194(6) -0.44420(4) 0.65869(5)
N1 N 0.35050(19) -0.35587(14) 0.68974(15)
H1 H 0.2870 -0.3312 0.6434
N2 N 0.19688(18) -0.22568(13) 0.61762(15)
C1 C 0.4030(2) -0.31623(16) 0.77904(17)
C2 C 0.5013(3) -0.3525(2) 0.8635(2)
H2 H 0.5334 -0.4046 0.8604
C3 C 0.5500(3) -0.3108(2) 0.9510(2)
H3 H 0.6142 -0.3359 1.0066
C4 C 0.5058(3) -0.2329(2) 0.9578(2)
H4 H 0.5401 -0.2052 1.0172
C5 C 0.4100(3) -0.19663(19) 0.8753(2)
H5 H 0.3799 -0.1440 0.8797
C6 C 0.3571(2) -0.23667(16) 0.78582(17)
C7 C 0.2545(2) -0.19448(15) 0.70214(18)
H6 H 0.2301 -0.1414 0.7117
C8 C 0.0961(2) -0.18015(17) 0.54079(19)
C9 C 0.1117(3) -0.1274(2) 0.4808(2)
C10 C 0.0128(4) -0.0837(4) 0.4079(3)
H7 H 0.0214 -0.0460 0.3685
C11 C -0.0970(4) -0.0943(4) 0.3921(3)
H8 H -0.1616 -0.0632 0.3431
C12 C -0.1126(3) -0.1495(3) 0.4471(3)
H9 H -0.1886 -0.1572 0.4341
C13 C -0.0167(2) -0.1953(2) 0.5232(2)
C14 C -0.0355(3) -0.2593(2) 0.5814(3)
H10 H 0.0379 -0.2930 0.6209
C15 C -0.0620(6) -0.2156(4) 0.6480(4)
H11 H -0.0005 -0.1742 0.6873
H12 H -0.0650 -0.2581 0.6887
H13 H -0.1374 -0.1865 0.6105
C16 C -0.1370(6) -0.3220(4) 0.5140(5)
H14 H -0.2115 -0.2914 0.4805
H15 H -0.1399 -0.3679 0.5515
H16 H -0.1230 -0.3458 0.4678
C17 C 0.2782(6) -0.0325(4) 0.5084(6)
H17 H 0.2172 0.0059 0.4617
H18 H 0.3445 -0.0315 0.5018
H19 H 0.3042 -0.0140 0.5724
C18 C 0.2304(3) -0.1210(3) 0.4920(3)
H20 H 0.2879 -0.1564 0.5477
C19 C 0.2234(7) -0.1551(6) 0.4052(8)
H21 H 0.2146 -0.1077 0.3642
H22 H 0.1561 -0.1931 0.3701
H23 H 0.2951 -0.1863 0.4251
C20 C 0.2721(3) -0.45125(16) 0.5318(2)
C21 C 0.1554(3) -0.4308(3) 0.5013(3)
H24 H 0.1389 -0.4131 0.5462
C22 C 0.0649(4) -0.4368(4) 0.4049(3)
H25 H -0.0123 -0.4212 0.3843
C23 C 0.0884(5) -0.4657(3) 0.3395(3)
H26 H 0.0269 -0.4689 0.2743
C24 C 0.2005(5) -0.4898(3) 0.3686(3)
H27 H 0.2150 -0.5114 0.3238
C25 C 0.2938(3) -0.4819(2) 0.4657(2)
H28 H 0.3708 -0.4976 0.4856
C26 C 0.3673(2) -0.53395(17) 0.71540(18)
C27 C 0.2873(3) -0.5282(2) 0.7428(2)
H29 H 0.2507 -0.4757 0.7377
C28 C 0.2620(3) -0.6000(3) 0.7775(3)
H30 H 0.2082 -0.5957 0.7956
C29 C 0.3155(4) -0.6775(2) 0.7852(3)
H31 H 0.2974 -0.7259 0.8080
C30 C 0.3950(4) -0.6840(2) 0.7598(3)
H32 H 0.4314 -0.7368 0.7654
C31 C 0.4220(3) -0.6127(2) 0.7259(3)
H33 H 0.4776 -0.6175 0.7098
loop_
_geom_bond_atom_site_label_1
_geom_bond_atom_site_label_2
_geom_bond_site_symmetry_1
_geom_bond_site_symmetry_2
Se1 P1 1_555 1_555
P1 N1 1_555 1_555
N1 H1 1_555 1_555
N2 C7 1_555 1_555
C1 N1 1_555 1_555
C2 C1 1_555 1_555
H2 C2 1_555 1_555
C3 C2 1_555 1_555
H3 C3 1_555 1_555
C4 C3 1_555 1_555
H4 C4 1_555 1_555
C5 C4 1_555 1_555
H5 C5 1_555 1_555
C6 C1 1_555 1_555
C7 C6 1_555 1_555
H6 C7 1_555 1_555
C8 N2 1_555 1_555
C9 C8 1_555 1_555
C10 C9 1_555 1_555
H7 C10 1_555 1_555
C11 C10 1_555 1_555
H8 C11 1_555 1_555
C12 C11 1_555 1_555
H9 C12 1_555 1_555
C13 C8 1_555 1_555
C14 C13 1_555 1_555
H10 C14 1_555 1_555
C15 C14 1_555 1_555
H11 C15 1_555 1_555
H12 C15 1_555 1_555
H13 C15 1_555 1_555
C16 C14 1_555 1_555
H14 C16 1_555 1_555
H15 C16 1_555 1_555
H16 C16 1_555 1_555
C17 H17 1_555 1_555
H18 C17 1_555 1_555
H19 C17 1_555 1_555
C18 C9 1_555 1_555
H20 C18 1_555 1_555
C19 C18 1_555 1_555
H21 C19 1_555 1_555
H22 C19 1_555 1_555
H23 C19 1_555 1_555
C20 P1 1_555 1_555
C21 C20 1_555 1_555
H24 C21 1_555 1_555
C22 C21 1_555 1_555
H25 C22 1_555 1_555
C23 C22 1_555 1_555
H26 C23 1_555 1_555
C24 C23 1_555 1_555
H27 C24 1_555 1_555
C25 C20 1_555 1_555
H28 C25 1_555 1_555
C26 P1 1_555 1_555
C27 C26 1_555 1_555
H29 C27 1_555 1_555
C28 C27 1_555 1_555
H30 C28 1_555 1_555
C29 C28 1_555 1_555
H31 C29 1_555 1_555
C30 C29 1_555 1_555
H32 C30 1_555 1_555
C31 C26 1_555 1_555
H33 C31 1_555 1_555
C5 C6 1_555 1_555
C12 C13 1_555 1_555
C17 C18 1_555 1_555
C24 C25 1_555 1_555
C30 C31 1_555 1_555

#END
