
#######################################################################
#
#                 Cambridge Crystallographic Data Centre
#                                CCDC 
#
#######################################################################
#
# If this CIF has been generated from an entry in the Cambridge 
# Structural Database, then it will include bibliographic, chemical, 
# crystal, experimental, refinement or atomic coordinate data resulting 
# from the CCDC's data processing and validation procedures.
#
#######################################################################

data_OPIJOO
_chemical_formula_moiety         'C62 H64 Ca1 N4 P2 S2'
_chemical_name_systematic        
'bis(N-(2-(((2,6-diisopropylphenyl)imino)methyl)phenyl)-P,P-diphenylphosphinothioic amidato)-calcium'
_symmetry_cell_setting           monoclinic
_symmetry_space_group_name_H-M   'C 2/c'
_symmetry_Int_Tables_number      15
_space_group_name_Hall           '-C 2yn'
loop_
_symmetry_equiv_pos_site_id
_symmetry_equiv_pos_as_xyz
1 x,y,z
2 -x,y,1/2-z
3 1/2+x,1/2+y,z
4 1/2-x,1/2+y,1/2-z
5 -x,-y,-z
6 x,-y,1/2+z
7 1/2-x,1/2-y,-z
8 1/2+x,1/2-y,1/2+z
_cell_length_a                   22.6518(6)
_cell_length_b                   10.3398(2)
_cell_length_c                   25.6988(7)
_cell_angle_alpha                90
_cell_angle_beta                 115.912(3)
_cell_angle_gamma                90
_cell_volume                     5413.93
_exptl_crystal_colour            yellow
_exptl_crystal_description       block
_cell_formula_units_Z            4
loop_
_atom_site_label
_atom_site_type_symbol
_atom_site_fract_x
_atom_site_fract_y
_atom_site_fract_z
Ca1 Ca 0.0000 0.40627(4) 0.2500
S1 S 0.07615(2) 0.60903(4) 0.23587(2)
P1 P 0.03977(2) 0.53466(4) 0.15695(2)
N1 N 0.01035(7) 0.39172(12) 0.15861(6)
N2 N -0.09578(6) 0.28340(13) 0.18333(5)
C1 C -0.01211(8) 0.30293(15) 0.11347(6)
C2 C 0.01588(9) 0.28707(16) 0.07428(7)
H1 H 0.0492 0.3429 0.0768
C3 C -0.00450(9) 0.19159(17) 0.03234(7)
H2 H 0.0165 0.1829 0.0085
C4 C -0.05555(10) 0.10865(16) 0.02523(7)
H3 H -0.0690 0.0442 -0.0028
C5 C -0.08562(9) 0.12498(16) 0.06105(7)
H4 H -0.1209 0.0720 0.0559
C6 C -0.06512(8) 0.21891(15) 0.10526(7)
C7 C -0.10552(8) 0.22442(15) 0.13630(7)
H5 H -0.1445 0.1779 0.1194
C8 C -0.15082(8) 0.27341(16) 0.19747(7)
C9 C -0.20348(8) 0.35938(16) 0.17091(7)
C10 C -0.25727(9) 0.34430(18) 0.18330(8)
H6 H -0.2932 0.3992 0.1661
C11 C -0.25812(9) 0.24914(18) 0.22078(8)
H7 H -0.2946 0.2400 0.2281
C12 C -0.20491(9) 0.16751(17) 0.24744(7)
H8 H -0.2059 0.1048 0.2730
C13 C -0.09177(8) 0.08532(16) 0.26419(7)
H9 H -0.0518 0.1348 0.2723
C14 C -0.08456(10) 0.02672(19) 0.32134(8)
H10 H -0.0882 0.0938 0.3456
H11 H -0.0425 -0.0143 0.3405
H12 H -0.1185 -0.0361 0.3138
C15 C -0.09518(10) -0.02557(18) 0.22312(9)
H13 H -0.1360 -0.0710 0.2114
H14 H -0.0593 -0.0841 0.2427
H15 H -0.0924 0.0092 0.1896
C16 C -0.20296(9) 0.46417(17) 0.12919(7)
H16 H -0.1570 0.4822 0.1383
C17 C -0.23391(10) 0.59114(18) 0.13554(9)
H17 H -0.2800 0.5785 0.1235
H18 H -0.2276 0.6564 0.1118
H19 H -0.2135 0.6182 0.1753
C18 C -0.23700(11) 0.4189(2) 0.06599(8)
H20 H -0.2161 0.3417 0.0616
H21 H -0.2338 0.4854 0.0413
H22 H -0.2824 0.4012 0.0556
C19 C -0.02819(8) 0.63166(16) 0.10660(7)
C20 C -0.05708(10) 0.72372(17) 0.12784(8)
H23 H -0.0380 0.7430 0.1671
C21 C -0.11414(11) 0.78684(19) 0.09083(9)
H24 H -0.1336 0.8466 0.1056
C22 C -0.14230(10) 0.76115(19) 0.03203(9)
H25 H -0.1799 0.8050 0.0071
C23 C -0.11409(10) 0.66985(19) 0.01063(8)
H26 H -0.1329 0.6524 -0.0288
C24 C -0.05801(9) 0.60408(17) 0.04746(7)
H27 H -0.0401 0.5412 0.0327
C25 C 0.10420(8) 0.53770(16) 0.13287(7)
C26 C 0.10476(9) 0.62363(18) 0.09130(8)
H28 H 0.0705 0.6819 0.0735
C27 C 0.15723(10) 0.6216(2) 0.07648(9)
H29 H 0.1576 0.6781 0.0485
C28 C 0.20824(10) 0.5366(2) 0.10315(9)
H30 H 0.2429 0.5357 0.0930
C29 C 0.20837(9) 0.4519(2) 0.14514(8)
H31 H 0.2432 0.3949 0.1633
C30 C 0.15622(9) 0.45252(18) 0.15995(8)
H32 H 0.1561 0.3958 0.1880
C31 C -0.14968(8) 0.17749(16) 0.23668(7)
S1A S -0.07615(2) 0.60903(4) 0.26413(2)
P1A P -0.03977(2) 0.53466(4) 0.34305(2)
N1A N -0.01035(7) 0.39172(12) 0.34139(6)
N2A N 0.09578(6) 0.28340(13) 0.31667(5)
C1A C 0.01211(8) 0.30293(15) 0.38653(6)
C2A C -0.01588(9) 0.28707(16) 0.42572(7)
H1A H -0.0492 0.3429 0.4232
C3A C 0.00450(9) 0.19159(17) 0.46766(7)
H2A H -0.0165 0.1829 0.4915
C4A C 0.05555(10) 0.10865(16) 0.47477(7)
H3A H 0.0690 0.0442 0.5028
C5A C 0.08562(9) 0.12498(16) 0.43895(7)
H4A H 0.1209 0.0720 0.4441
C6A C 0.06512(8) 0.21891(15) 0.39474(7)
C7A C 0.10552(8) 0.22442(15) 0.36370(7)
H5A H 0.1445 0.1779 0.3806
C8A C 0.15082(8) 0.27341(16) 0.30253(7)
C9A C 0.20348(8) 0.35938(16) 0.32909(7)
C10A C 0.25727(9) 0.34430(18) 0.31670(8)
H6A H 0.2932 0.3992 0.3339
C11A C 0.25812(9) 0.24914(18) 0.27922(8)
H7A H 0.2946 0.2400 0.2719
C12A C 0.20491(9) 0.16751(17) 0.25256(7)
H8A H 0.2059 0.1048 0.2270
C13A C 0.09177(8) 0.08532(16) 0.23581(7)
H9A H 0.0518 0.1348 0.2277
C14A C 0.08456(10) 0.02672(19) 0.17866(8)
H10A H 0.0882 0.0938 0.1544
H11A H 0.0425 -0.0143 0.1595
H12A H 0.1185 -0.0361 0.1862
C15A C 0.09518(10) -0.02557(18) 0.27688(9)
H13A H 0.1360 -0.0710 0.2886
H14A H 0.0593 -0.0841 0.2573
H15A H 0.0924 0.0092 0.3104
C16A C 0.20296(9) 0.46417(17) 0.37081(7)
H16A H 0.1570 0.4822 0.3617
C17A C 0.23391(10) 0.59114(18) 0.36446(9)
H17A H 0.2800 0.5785 0.3765
H18A H 0.2276 0.6564 0.3882
H19A H 0.2135 0.6182 0.3247
C18A C 0.23700(11) 0.4189(2) 0.43401(8)
H20A H 0.2161 0.3417 0.4384
H21A H 0.2338 0.4854 0.4587
H22A H 0.2824 0.4012 0.4444
C19A C 0.02819(8) 0.63166(16) 0.39340(7)
C20A C 0.05708(10) 0.72372(17) 0.37216(8)
H23A H 0.0380 0.7430 0.3329
C21A C 0.11414(11) 0.78684(19) 0.40917(9)
H24A H 0.1336 0.8466 0.3944
C22A C 0.14230(10) 0.76115(19) 0.46797(9)
H25A H 0.1799 0.8050 0.4929
C23A C 0.11409(10) 0.66985(19) 0.48937(8)
H26A H 0.1329 0.6524 0.5288
C24A C 0.05801(9) 0.60408(17) 0.45254(7)
H27A H 0.0401 0.5412 0.4673
C25A C -0.10420(8) 0.53770(16) 0.36713(7)
C26A C -0.10476(9) 0.62363(18) 0.40870(8)
H28A H -0.0705 0.6819 0.4265
C27A C -0.15723(10) 0.6216(2) 0.42352(9)
H29A H -0.1576 0.6781 0.4515
C28A C -0.20824(10) 0.5366(2) 0.39685(9)
H30A H -0.2429 0.5357 0.4070
C29A C -0.20837(9) 0.4519(2) 0.35486(8)
H31A H -0.2432 0.3949 0.3367
C30A C -0.15622(9) 0.45252(18) 0.34005(8)
H32A H -0.1561 0.3958 0.3120
C31A C 0.14968(8) 0.17749(16) 0.26332(7)
loop_
_geom_bond_atom_site_label_1
_geom_bond_atom_site_label_2
_geom_bond_site_symmetry_1
_geom_bond_site_symmetry_2
Ca1 S1 1_555 1_555
S1 P1 1_555 1_555
P1 N1 1_555 1_555
N1 Ca1 1_555 1_555
N2 Ca1 1_555 1_555
C1 N1 1_555 1_555
C2 C1 1_555 1_555
H1 C2 1_555 1_555
C3 C2 1_555 1_555
H2 C3 1_555 1_555
C4 C3 1_555 1_555
H3 C4 1_555 1_555
C5 C4 1_555 1_555
H4 C5 1_555 1_555
C6 C1 1_555 1_555
C7 N2 1_555 1_555
H5 C7 1_555 1_555
C8 N2 1_555 1_555
C9 C8 1_555 1_555
C10 C9 1_555 1_555
H6 C10 1_555 1_555
C11 C10 1_555 1_555
H7 C11 1_555 1_555
C12 C11 1_555 1_555
H8 C12 1_555 1_555
C13 H9 1_555 1_555
C14 C13 1_555 1_555
H10 C14 1_555 1_555
H11 C14 1_555 1_555
H12 C14 1_555 1_555
C15 C13 1_555 1_555
H13 C15 1_555 1_555
H14 C15 1_555 1_555
H15 C15 1_555 1_555
C16 C9 1_555 1_555
H16 C16 1_555 1_555
C17 C16 1_555 1_555
H17 C17 1_555 1_555
H18 C17 1_555 1_555
H19 C17 1_555 1_555
C18 C16 1_555 1_555
H20 C18 1_555 1_555
H21 C18 1_555 1_555
H22 C18 1_555 1_555
C19 P1 1_555 1_555
C20 C19 1_555 1_555
H23 C20 1_555 1_555
C21 C20 1_555 1_555
H24 C21 1_555 1_555
C22 C21 1_555 1_555
H25 C22 1_555 1_555
C23 C22 1_555 1_555
H26 C23 1_555 1_555
C24 C19 1_555 1_555
H27 C24 1_555 1_555
C25 P1 1_555 1_555
C26 C25 1_555 1_555
H28 C26 1_555 1_555
C27 C26 1_555 1_555
H29 C27 1_555 1_555
C28 C27 1_555 1_555
H30 C28 1_555 1_555
C29 C28 1_555 1_555
H31 C29 1_555 1_555
C30 C25 1_555 1_555
H32 C30 1_555 1_555
C31 C8 1_555 1_555
S1A Ca1 1_555 1_555
P1A S1A 1_555 1_555
N1A Ca1 1_555 1_555
N2A Ca1 1_555 1_555
C1A N1A 1_555 1_555
C2A C1A 1_555 1_555
H1A C2A 1_555 1_555
C3A C2A 1_555 1_555
H2A C3A 1_555 1_555
C4A C3A 1_555 1_555
H3A C4A 1_555 1_555
C5A C4A 1_555 1_555
H4A C5A 1_555 1_555
C6A C1A 1_555 1_555
C7A N2A 1_555 1_555
H5A C7A 1_555 1_555
C8A N2A 1_555 1_555
C9A C8A 1_555 1_555
C10A C9A 1_555 1_555
H6A C10A 1_555 1_555
C11A C10A 1_555 1_555
H7A C11A 1_555 1_555
C12A C11A 1_555 1_555
H8A C12A 1_555 1_555
C13A H9A 1_555 1_555
C14A C13A 1_555 1_555
H10A C14A 1_555 1_555
H11A C14A 1_555 1_555
H12A C14A 1_555 1_555
C15A C13A 1_555 1_555
H13A C15A 1_555 1_555
H14A C15A 1_555 1_555
H15A C15A 1_555 1_555
C16A C9A 1_555 1_555
H16A C16A 1_555 1_555
C17A C16A 1_555 1_555
H17A C17A 1_555 1_555
H18A C17A 1_555 1_555
H19A C17A 1_555 1_555
C18A C16A 1_555 1_555
H20A C18A 1_555 1_555
H21A C18A 1_555 1_555
H22A C18A 1_555 1_555
C19A P1A 1_555 1_555
C20A C19A 1_555 1_555
H23A C20A 1_555 1_555
C21A C20A 1_555 1_555
H24A C21A 1_555 1_555
C22A C21A 1_555 1_555
H25A C22A 1_555 1_555
C23A C22A 1_555 1_555
H26A C23A 1_555 1_555
C24A C19A 1_555 1_555
H27A C24A 1_555 1_555
C25A P1A 1_555 1_555
C26A C25A 1_555 1_555
H28A C26A 1_555 1_555
C27A C26A 1_555 1_555
H29A C27A 1_555 1_555
C28A C27A 1_555 1_555
H30A C28A 1_555 1_555
C29A C28A 1_555 1_555
H31A C29A 1_555 1_555
C30A C25A 1_555 1_555
H32A C30A 1_555 1_555
C31A C8A 1_555 1_555
C5 C6 1_555 1_555
C6 C7 1_555 1_555
C12 C31 1_555 1_555
C13 C31 1_555 1_555
C23 C24 1_555 1_555
C29 C30 1_555 1_555
P1A N1A 1_555 1_555
C5A C6A 1_555 1_555
C6A C7A 1_555 1_555
C12A C31A 1_555 1_555
C13A C31A 1_555 1_555
C23A C24A 1_555 1_555
C29A C30A 1_555 1_555

#END
