
#######################################################################
#
#                 Cambridge Crystallographic Data Centre
#                                CCDC 
#
#######################################################################
#
# If this CIF has been generated from an entry in the Cambridge 
# Structural Database, then it will include bibliographic, chemical, 
# crystal, experimental, refinement or atomic coordinate data resulting 
# from the CCDC's data processing and validation procedures.
#
#######################################################################

data_OPIKOO
_chemical_formula_moiety         
'2(C39 H49 N3 O6 2+),2(C6 H6),5(Cl1 O4 1-),2(H2 O1),H1 1+'
_chemical_name_systematic        
'(hydrogen perchlorate) bis(1-(3-azaniumylpropyl)-4-(2-(2,3,5,6,8,9,11,12,14,15-decahydro-1,4,7,10,13,16-benzohexaoxacyclooctadecin-18-yl)-4-phenyl-3-(pyridin-4-yl)cyclobutyl)pyridin-1-ium) tetraperchlorate benzene solvate dihydrate'
_symmetry_cell_setting           triclinic
_symmetry_space_group_name_H-M   'P -1'
_symmetry_Int_Tables_number      2
_space_group_name_Hall           '-P 1'
loop_
_symmetry_equiv_pos_site_id
_symmetry_equiv_pos_as_xyz
1 x,y,z
2 -x,-y,-z
_cell_length_a                   9.8403(7)
_cell_length_b                   13.8984(10)
_cell_length_c                   17.5560(12)
_cell_angle_alpha                83.250(2)
_cell_angle_beta                 85.424(2)
_cell_angle_gamma                78.151(2)
_cell_volume                     2329.76
_exptl_crystal_colour            colorless
_exptl_crystal_description       block
_cell_formula_units_Z            1
_exptl_crystal_recrystallization_method acetonitrile/benzene
loop_
_atom_site_label
_atom_site_type_symbol
_atom_site_fract_x
_atom_site_fract_y
_atom_site_fract_z
Cl1 Cl 1.15118(10) 0.12064(9) 0.65619(7)
O1 O 1.2899(3) 0.0951(4) 0.6275(3)
O2 O 1.0902(4) 0.0364(3) 0.6601(2)
O3 O 1.0734(3) 0.1982(3) 0.6056(2)
O4 O 1.1476(5) 0.1525(3) 0.7308(2)
Cl2 Cl 0.99404(11) 0.34039(9) 0.33353(7)
O5 O 0.8627(4) 0.3337(3) 0.3115(3)
O6 O 1.0465(5) 0.4093(4) 0.2818(3)
O7 O 1.0844(5) 0.2470(4) 0.3293(3)
O8 O 0.9829(6) 0.3717(5) 0.4073(3)
O9 O 1.2044(4) 0.1370(3) 0.4554(3)
H1 H 1.161(4) 0.162(3) 0.422(2)
O10 O 0.6188(3) 0.5999(2) 0.33300(15)
O11 O 0.5004(3) 0.7922(3) 0.08092(18)
O12 O 0.2519(3) 0.7250(3) 0.11839(18)
O13 O 0.1671(3) 0.6730(2) 0.27521(15)
O14 O 0.3648(3) 0.6078(2) 0.38259(15)
N1 N 0.4192(4) 0.7427(3) 0.2417(2)
H2 H 0.511(3) 0.716(5) 0.239(3)
H3 H 0.395(5) 0.764(4) 0.194(2)
H4 H 0.374(5) 0.695(3) 0.261(3)
N2 N 0.2816(3) 0.9291(2) 0.42633(18)
N3 N 0.5078(4) 0.5440(3) 0.9290(2)
C1 C 0.4127(4) 0.8287(3) 0.2866(3)
H5 H 0.4730 0.8727 0.2600
H6 H 0.4478 0.8048 0.3381
C2 C 0.2641(4) 0.8864(3) 0.2949(2)
H7 H 0.2328 0.9148 0.2434
H8 H 0.2030 0.8404 0.3165
C3 C 0.2480(4) 0.9692(3) 0.3461(2)
H9 H 0.3108 1.0147 0.3257
H10 H 0.1512 1.0073 0.3458
C4 C 0.1838(4) 0.8993(3) 0.4765(2)
H11 H 0.0912 0.9073 0.4614
C5 C 0.2162(4) 0.8578(3) 0.5487(2)
H12 H 0.1455 0.8385 0.5836
C6 C 0.3526(4) 0.8431(3) 0.5721(2)
C7 C 0.4501(4) 0.8768(3) 0.5198(2)
H13 H 0.5433 0.8695 0.5337
C8 C 0.4128(4) 0.9208(3) 0.4478(2)
H14 H 0.4798 0.9455 0.4131
C9 C 0.3926(4) 0.7840(3) 0.6467(2)
H15 H 0.3109 0.7911 0.6848
C10 C 0.4585(4) 0.6699(3) 0.6421(2)
H16 H 0.3931 0.6268 0.6654
C11 C 0.5116(4) 0.6453(3) 0.5628(2)
C12 C 0.6494(4) 0.6422(3) 0.5344(2)
H17 H 0.7170 0.6503 0.5675
C13 C 0.6876(4) 0.6273(3) 0.4589(2)
H18 H 0.7815 0.6253 0.4407
C14 C 0.5914(4) 0.6152(3) 0.4089(2)
C15 C 0.4530(4) 0.6180(3) 0.4365(2)
C16 C 0.4145(4) 0.6319(3) 0.5125(2)
H19 H 0.3210 0.6323 0.5310
C17 C 0.7603(4) 0.5945(4) 0.3033(2)
H20 H 0.8232 0.5406 0.3326
H21 H 0.7902 0.6576 0.3067
C18 C 0.7625(4) 0.5745(4) 0.2210(2)
H22 H 0.8588 0.5530 0.1999
H23 H 0.7081 0.5234 0.2155
O15 O 0.7003(13) 0.6669(8) 0.1844(7)
C19 C 0.7132(11) 0.6681(9) 0.1000(7)
H24 H 0.8126 0.6530 0.0822
H25 H 0.6671 0.6173 0.0840
C20 C 0.6472(5) 0.7669(5) 0.0658(3)
H26 H 0.6905 0.8167 0.0854
H27 H 0.6671 0.7706 0.0095
C21 C 0.4249(6) 0.7621(5) 0.0270(3)
H28 H 0.4577 0.6905 0.0229
H29 H 0.4407 0.7980 -0.0240
C22 C 0.2768(6) 0.7815(5) 0.0494(3)
H30 H 0.2447 0.8526 0.0558
H31 H 0.2241 0.7649 0.0087
C23 C 0.1100(5) 0.7426(4) 0.1473(3)
H32 H 0.0487 0.7406 0.1057
H33 H 0.0848 0.8089 0.1657
C24 C 0.0891(4) 0.6657(4) 0.2120(2)
H34 H -0.0108 0.6746 0.2285
H35 H 0.1190 0.5992 0.1942
C25 C 0.1483(4) 0.6009(3) 0.3385(2)
H36 H 0.1876 0.5338 0.3237
H37 H 0.0478 0.6052 0.3521
C26 C 0.2186(4) 0.6185(4) 0.4058(2)
H38 H 0.1810 0.6858 0.4207
H39 H 0.2045 0.5699 0.4501
C27 C 0.6348(5) 0.5447(4) 0.8963(3)
H40 H 0.7135 0.5143 0.9246
C28 C 0.6551(5) 0.5882(4) 0.8229(3)
H41 H 0.7468 0.5875 0.8011
C29 C 0.5420(4) 0.6329(3) 0.7808(2)
C30 C 0.4093(5) 0.6353(4) 0.8166(2)
H42 H 0.3287 0.6679 0.7907
C31 C 0.3976(5) 0.5892(4) 0.8904(2)
H43 H 0.3075 0.5899 0.9145
C32 C 0.5669(4) 0.6779(3) 0.6995(2)
H44 H 0.6642 0.6536 0.6791
C33 C 0.5240(4) 0.7935(3) 0.6854(2)
H45 H 0.5900 0.8175 0.6448
C34 C 0.5120(4) 0.8554(3) 0.7519(2)
C35 C 0.6304(4) 0.8507(3) 0.7925(2)
H46 H 0.7153 0.8081 0.7790
C36 C 0.6233(5) 0.9085(4) 0.8525(3)
H47 H 0.7041 0.9053 0.8797
C37 C 0.5030(5) 0.9696(4) 0.8732(3)
H48 H 0.4992 1.0083 0.9147
C38 C 0.3857(5) 0.9747(4) 0.8327(3)
H49 H 0.3014 1.0180 0.8461
C39 C 0.3906(5) 0.9182(4) 0.7740(3)
H50 H 0.3089 0.9219 0.7475
H51 H 0.5000 0.5000 1.0000
C40 C 0.9965(6) 0.2246(5) 0.1432(4)
H52 H 0.9833 0.2871 0.1624
C41 C 0.9732(6) 0.1457(6) 0.1907(4)
H53 H 0.9461 0.1518 0.2433
C42 C 0.9899(6) 0.0528(6) 0.1608(4)
H54 H 0.9728 -0.0031 0.1940
C43 C 1.0293(6) 0.0423(5) 0.0867(4)
H55 H 1.0395 -0.0203 0.0678
C44 C 1.0546(7) 0.1220(6) 0.0386(4)
H56 H 1.0822 0.1147 -0.0138
C45 C 1.0398(6) 0.2162(6) 0.0665(4)
H57 H 1.0589 0.2717 0.0335
O16? O 0.8945(12) 0.4647(12) 0.0377(8)
O17? O 1.0518(14) 0.5782(11) 0.0377(10)
O18? O 1.1327(12) 0.4264(10) -0.0203(9)
O19? O 0.9677(16) 0.5540(13) -0.0842(7)
O20? O 0.6674(17) 0.642(2) 0.1705(10)
C46? C 0.7162(17) 0.714(3) 0.132(2)
H58? H 0.8133 0.6866 0.1145
H59? H 0.7201 0.7623 0.1680
Cl3? Cl 1.0023(13) 0.5084(10) -0.0083(7)
O21? O 1.0483(18) 0.5396(17) 0.0592(10)
O22? O 0.910(2) 0.4356(15) 0.0056(17)
O23? O 0.908(3) 0.6062(14) -0.0459(16)
O24? O 1.114(3) 0.483(3) -0.0675(16)
loop_
_geom_bond_atom_site_label_1
_geom_bond_atom_site_label_2
_geom_bond_site_symmetry_1
_geom_bond_site_symmetry_2
Cl1 O1 1_555 1_555
O2 Cl1 1_555 1_555
O3 Cl1 1_555 1_555
O4 Cl1 1_555 1_555
Cl2 O5 1_555 1_555
O6 Cl2 1_555 1_555
O7 Cl2 1_555 1_555
O8 Cl2 1_555 1_555
O9 H1 1_555 1_555
O10 C14 1_555 1_555
O11 C20 1_555 1_555
O12 C22 1_555 1_555
O13 C24 1_555 1_555
O14 C15 1_555 1_555
N1 H2 1_555 1_555
H3 N1 1_555 1_555
H4 N1 1_555 1_555
N2 C3 1_555 1_555
N3 C27 1_555 1_555
C1 N1 1_555 1_555
H5 C1 1_555 1_555
H6 C1 1_555 1_555
C2 C1 1_555 1_555
H7 C2 1_555 1_555
H8 C2 1_555 1_555
C3 C2 1_555 1_555
H9 C3 1_555 1_555
H10 C3 1_555 1_555
C4 N2 1_555 1_555
H11 C4 1_555 1_555
C5 C4 1_555 1_555
H12 C5 1_555 1_555
C6 C5 1_555 1_555
C7 C6 1_555 1_555
H13 C7 1_555 1_555
C8 N2 1_555 1_555
H14 C8 1_555 1_555
C9 C6 1_555 1_555
H15 C9 1_555 1_555
C10 C9 1_555 1_555
H16 C10 1_555 1_555
C11 C10 1_555 1_555
C12 C11 1_555 1_555
H17 C12 1_555 1_555
C13 C12 1_555 1_555
H18 C13 1_555 1_555
C14 C13 1_555 1_555
C15 C14 1_555 1_555
C16 C11 1_555 1_555
H19 C16 1_555 1_555
C17 O10 1_555 1_555
H20 C17 1_555 1_555
H21 C17 1_555 1_555
C18 C17 1_555 1_555
H22 C18 1_555 1_555
H23 C18 1_555 1_555
O15 C18 1_555 1_555
C19 O15 1_555 1_555
H24 C19 1_555 1_555
H25 C19 1_555 1_555
C20 C19 1_555 1_555
H26 C20 1_555 1_555
H27 C20 1_555 1_555
C21 O11 1_555 1_555
H28 C21 1_555 1_555
H29 C21 1_555 1_555
C22 C21 1_555 1_555
H30 C22 1_555 1_555
H31 C22 1_555 1_555
C23 O12 1_555 1_555
H32 C23 1_555 1_555
H33 C23 1_555 1_555
C24 C23 1_555 1_555
H34 C24 1_555 1_555
H35 C24 1_555 1_555
C25 O13 1_555 1_555
H36 C25 1_555 1_555
H37 C25 1_555 1_555
C26 O14 1_555 1_555
H38 C26 1_555 1_555
H39 C26 1_555 1_555
C27 H40 1_555 1_555
C28 C27 1_555 1_555
H41 C28 1_555 1_555
C29 C28 1_555 1_555
C30 C29 1_555 1_555
H42 C30 1_555 1_555
C31 N3 1_555 1_555
H43 C31 1_555 1_555
C32 C10 1_555 1_555
H44 C32 1_555 1_555
C33 C9 1_555 1_555
H45 C33 1_555 1_555
C34 C33 1_555 1_555
C35 C34 1_555 1_555
H46 C35 1_555 1_555
C36 C35 1_555 1_555
H47 C36 1_555 1_555
C37 C36 1_555 1_555
H48 C37 1_555 1_555
C38 C37 1_555 1_555
H49 C38 1_555 1_555
C39 C34 1_555 1_555
H50 C39 1_555 1_555
C40 H52 1_555 1_555
C41 C40 1_555 1_555
H53 C41 1_555 1_555
C42 C41 1_555 1_555
H54 C42 1_555 1_555
C43 C42 1_555 1_555
H55 C43 1_555 1_555
C44 C43 1_555 1_555
H56 C44 1_555 1_555
C45 C40 1_555 1_555
H57 C45 1_555 1_555
C7 C8 1_555 1_555
C15 C16 1_555 1_555
C25 C26 1_555 1_555
C29 C32 1_555 1_555
C30 C31 1_555 1_555
C32 C33 1_555 1_555
C38 C39 1_555 1_555
C44 C45 1_555 1_555

#END
