
#######################################################################
#
#                 Cambridge Crystallographic Data Centre
#                                CCDC 
#
#######################################################################
#
# If this CIF has been generated from an entry in the Cambridge 
# Structural Database, then it will include bibliographic, chemical, 
# crystal, experimental, refinement or atomic coordinate data resulting 
# from the CCDC's data processing and validation procedures.
#
#######################################################################

data_OPIWOB
_chemical_formula_moiety         
'C44 H48 D20 N8 4+,4(C1 H3 O3 S1 1-),3(C2 H3 N1),5(H2 O1)'
_chemical_name_systematic        
'2,7,12,17-tetrakis(1,1-dideuteropiperidin-1-ium-4-yl)-2,7,12,17-tetramethyl-4,5,9,10,14,15,19,20,21,22,23,24-dodecadeuterocalix(4)pyrrole tetrakis(methanesulfonate) acetonitrile solvate pentahydrate'
_symmetry_cell_setting           monoclinic
_symmetry_space_group_name_H-M   'P 21/c'
_symmetry_Int_Tables_number      14
_space_group_name_Hall           '-P 2ybc'
loop_
_symmetry_equiv_pos_site_id
_symmetry_equiv_pos_as_xyz
1 x,y,z
2 -x,1/2+y,1/2-z
3 -x,-y,-z
4 x,1/2-y,1/2+z
_cell_length_a                   38.040(8)
_cell_length_b                   13.258(3)
_cell_length_c                   28.333(6)
_cell_angle_alpha                90
_cell_angle_beta                 111.83(3)
_cell_angle_gamma                90
_cell_volume                     13264.6
_exptl_crystal_colour            colorless
_exptl_crystal_description       block
_cell_formula_units_Z            8
loop_
_atom_site_label
_atom_site_type_symbol
_atom_site_fract_x
_atom_site_fract_y
_atom_site_fract_z
N1 N 0.68556(10) 0.9352(3) 0.70170(13)
D1 D 0.6783 0.9045 0.6729
N2 N 0.74925(10) 0.7556(3) 0.71455(13)
D2 D 0.7423 0.7561 0.7402
N3 N 0.68707(10) 0.5810(3) 0.70667(13)
D3 D 0.6800 0.6170 0.6795
N4 N 0.62367(10) 0.7560(3) 0.70298(14)
D4 D 0.6363 0.7553 0.6833
N5 N 0.87309(10) 0.9399(3) 0.81630(14)
D5 D 0.8949 0.9577 0.8406
D6 D 0.8764 0.8801 0.8043
N6 N 0.87398(10) 0.5755(3) 0.81655(15)
D7 D 0.8766 0.6352 0.8038
D8 D 0.8961 0.5594 0.8406
N7 N 0.55809(11) 0.4769(4) 0.54884(15)
D9 D 0.5526 0.4794 0.5155
D10 D 0.5428 0.4317 0.5544
N8 N 0.55425(10) 1.0265(3) 0.54406(14)
D11 D 0.5389 1.0701 0.5508
D12 D 0.5479 1.0245 0.5105
C1 C 0.72280(11) 0.9600(3) 0.73092(15)
C2 C 0.72250(12) 1.0071(3) 0.77397(16)
D13 D 0.7435 1.0319 0.8005
C3 C 0.68418(12) 1.0107(3) 0.77051(16)
D14 D 0.6758 1.0383 0.7946
C4 C 0.66179(12) 0.9669(3) 0.72561(16)
C5 C 0.75394(11) 0.9474(3) 0.70931(15)
C6 C 0.74511(12) 1.0218(3) 0.66446(16)
H1 H 0.7630 1.0122 0.6482
H2 H 0.7469 1.0897 0.6769
H3 H 0.7200 1.0098 0.6404
C7 C 0.75535(11) 0.8410(3) 0.69077(15)
C8 C 0.76610(12) 0.8077(3) 0.65177(15)
D15 D 0.7720 0.8485 0.6291
C9 C 0.76652(12) 0.7005(3) 0.65246(16)
D16 D 0.7729 0.6589 0.6304
C10 C 0.75582(11) 0.6687(3) 0.69178(15)
C11 C 0.75470(11) 0.5624(3) 0.71158(15)
C12 C 0.74534(12) 0.4871(3) 0.66701(16)
H4 H 0.7470 0.4194 0.6798
H5 H 0.7631 0.4956 0.6505
H6 H 0.7201 0.4994 0.6431
C13 C 0.72408(11) 0.5506(3) 0.73362(15)
C14 C 0.72355(12) 0.4962(3) 0.77490(16)
D17 D 0.7444 0.4668 0.7999
C15 C 0.68526(12) 0.4931(3) 0.77229(16)
D18 D 0.6768 0.4613 0.7954
C16 C 0.66308(12) 0.5452(3) 0.72970(16)
C17 C 0.62035(12) 0.5652(3) 0.70894(16)
C18 C 0.60168(12) 0.4901(3) 0.73401(17)
H7 H 0.6107 0.5025 0.7699
H8 H 0.6080 0.4225 0.7280
H9 H 0.5747 0.4986 0.7197
C19 C 0.61246(12) 0.6711(3) 0.72208(16)
C20 C 0.59328(13) 0.7043(4) 0.75216(18)
D19 D 0.5826 0.6636 0.7700
C21 C 0.59273(13) 0.8118(4) 0.75099(17)
D20 D 0.5817 0.8538 0.7679
C22 C 0.61164(12) 0.8423(3) 0.72018(16)
C23 C 0.61899(11) 0.9470(3) 0.70451(15)
C24 C 0.59989(12) 1.0241(3) 0.72776(17)
H10 H 0.5730 1.0131 0.7144
H11 H 0.6052 1.0911 0.7194
H12 H 0.6096 1.0163 0.7640
C25 C 0.79283(11) 0.9770(3) 0.75208(15)
H13 H 0.7895 1.0429 0.7655
C26 C 0.82512(11) 0.9872(3) 0.73184(16)
H14 H 0.8282 0.9237 0.7168
H15 H 0.8185 1.0383 0.7055
C27 C 0.86276(12) 1.0159(3) 0.77441(17)
H16 H 0.8826 1.0193 0.7607
H17 H 0.8604 1.0819 0.7877
C28 C 0.84305(12) 0.9311(3) 0.83874(16)
H18 H 0.8403 0.9949 0.8537
H19 H 0.8503 0.8802 0.8653
C29 C 0.80554(11) 0.9019(3) 0.79683(16)
H20 H 0.7861 0.8980 0.8112
H21 H 0.8081 0.8355 0.7841
C30 C 0.79391(11) 0.5337(3) 0.75412(15)
H22 H 0.7910 0.4680 0.7680
C31 C 0.80640(12) 0.6102(3) 0.79837(16)
H23 H 0.8081 0.6767 0.7851
H24 H 0.7873 0.6130 0.8133
C32 C 0.84452(13) 0.5837(4) 0.83976(17)
H25 H 0.8517 0.6355 0.8658
H26 H 0.8425 0.5201 0.8555
C33 C 0.86392(12) 0.4981(4) 0.77534(19)
H27 H 0.8622 0.4323 0.7893
H28 H 0.8836 0.4951 0.7613
C34 C 0.82607(12) 0.5244(3) 0.73334(16)
H29 H 0.8195 0.4725 0.7074
H30 H 0.8286 0.5877 0.7177
C35 C 0.60426(11) 0.5519(3) 0.64981(16)
H31 H 0.6182 0.5987 0.6363
C36 C 0.61019(13) 0.4450(4) 0.63248(18)
H32 H 0.6366 0.4262 0.6485
H33 H 0.5953 0.3969 0.6429
C37 C 0.59837(14) 0.4421(4) 0.57471(19)
H34 H 0.6150 0.4852 0.5647
H35 H 0.6008 0.3738 0.5640
C38 C 0.55038(14) 0.5784(4) 0.56646(19)
H36 H 0.5236 0.5940 0.5504
H37 H 0.5645 0.6297 0.5566
C39 C 0.56197(12) 0.5786(4) 0.62431(17)
H38 H 0.5469 0.5297 0.6340
H39 H 0.5574 0.6447 0.6356
C40 C 0.60313(11) 0.9553(3) 0.64517(16)
H40 H 0.6182 0.9099 0.6329
C41 C 0.56163(12) 0.9217(4) 0.62013(16)
H41 H 0.5589 0.8539 0.6312
H42 H 0.5457 0.9661 0.6308
C42 C 0.54878(13) 0.9238(4) 0.56253(17)
H43 H 0.5631 0.8747 0.5517
H44 H 0.5222 0.9054 0.5475
C43 C 0.59452(12) 1.0630(4) 0.56853(17)
H45 H 0.5965 1.1310 0.5571
H46 H 0.6111 1.0198 0.5584
C44 C 0.60697(12) 1.0618(3) 0.62599(17)
H47 H 0.5915 1.1087 0.6363
H48 H 0.6331 1.0837 0.6412
N9 N 0.81384(10) 1.4196(3) 1.01975(13)
D21 D 0.8209 1.3838 0.9995
N10 N 0.87623(10) 1.2427(3) 1.07919(13)
D22 D 0.8636 1.2436 1.0469
N11 N 0.81335(10) 1.0653(3) 1.01561(13)
D23 D 0.8207 1.0958 0.9941
N12 N 0.75085(10) 1.2468(2) 0.96524(13)
D24 D 0.7580 1.2461 0.9978
N13 N 0.94228(11) 1.5215(4) 0.99030(15)
D25 D 0.9476 1.5188 0.9623
D26 D 0.9578 1.5666 1.0111
N14 N 0.94511(10) 0.9724(3) 0.98956(14)
D27 D 0.9603 0.9287 1.0116
D28 D 0.9516 0.9742 0.9625
N15 N 0.62578(10) 1.0706(3) 0.94185(15)
D29 D 0.6037 1.0552 0.9442
D30 D 0.6232 1.1299 0.9262
N16 N 0.62688(10) 1.4353(3) 0.94353(14)
D31 D 0.6236 1.3752 0.9286
D32 D 0.6050 1.4539 0.9456
C45 C 0.83775(12) 1.4543(3) 1.06677(15)
C46 C 0.81571(12) 1.5070(3) 1.08724(16)
D33 D 0.8242 1.5387 1.1188
C47 C 0.77748(12) 1.5048(3) 1.05159(16)
D34 D 0.7567 1.5346 1.0558
C48 C 0.77696(11) 1.4504(3) 1.00986(15)
C49 C 0.88039(11) 1.4335(3) 1.08854(15)
C50 C 0.89923(12) 1.5078(3) 1.13238(17)
H49 H 0.9262 1.4979 1.1454
H50 H 0.8898 1.4962 1.1590
H51 H 0.8935 1.5757 1.1201
C51 C 0.88798(12) 1.3276(3) 1.10963(16)
C52 C 0.90695(13) 1.2939(4) 1.15890(17)
D35 D 0.9178 1.3341 1.1876
C53 C 0.90687(13) 1.1868(4) 1.15775(17)
D36 D 0.9178 1.1444 1.1856
C54 C 0.88779(12) 1.1566(3) 1.10824(16)
C55 C 0.88015(11) 1.0517(3) 1.08514(15)
C56 C 0.89900(12) 0.9742(3) 1.12745(17)
H52 H 0.8890 0.9816 1.1538
H53 H 0.9259 0.9854 1.1414
H54 H 0.8939 0.9073 1.1136
C57 C 0.83715(12) 1.0327(3) 1.06327(16)
C58 C 0.81462(12) 0.9897(3) 1.08599(16)
D37 D 0.8229 0.9624 1.1185
C59 C 0.77625(12) 0.9940(3) 1.05102(16)
D38 D 0.7552 0.9692 1.0565
C60 C 0.77605(11) 1.0416(3) 1.00763(16)
C61 C 0.74501(11) 1.0546(3) 0.95516(15)
C62 C 0.75346(12) 0.9797(3) 0.91896(16)
H55 H 0.7785 0.9917 0.9195
H56 H 0.7353 0.9890 0.8850
H57 H 0.7518 0.9119 0.9299
C63 C 0.74420(11) 1.1612(3) 0.93504(15)
C64 C 0.73340(12) 1.1946(3) 0.88544(16)
D39 D 0.7271 1.1540 0.8567
C65 C 0.73361(12) 1.3017(3) 0.88603(16)
D40 D 0.7275 1.3433 0.8577
C66 C 0.74452(11) 1.3337(3) 0.93604(15)
C67 C 0.74618(11) 1.4395(3) 0.95702(15)
C68 C 0.75604(12) 1.5144(3) 0.92194(16)
H58 H 0.7384 1.5062 0.8876
H59 H 0.7813 1.5014 0.9234
H60 H 0.7545 1.5822 0.9330
C69 C 0.89636(11) 1.4465(3) 1.04547(16)
H61 H 0.8823 1.4001 1.0180
C70 C 0.89061(13) 1.5539(4) 1.02264(17)
H62 H 0.8642 1.5733 1.0126
H63 H 0.9058 1.6016 1.0480
C71 C 0.90217(14) 1.5569(4) 0.97638(18)
H64 H 0.8854 1.5140 0.9498
H65 H 0.8998 1.6252 0.9633
C72 C 0.94991(13) 1.4202(4) 1.01559(19)
H66 H 0.9766 1.4043 1.0261
H67 H 0.9357 1.3689 0.9917
C73 C 0.93855(12) 1.4199(4) 1.06183(18)
H68 H 0.9537 1.4687 1.0866
H69 H 0.9432 1.3538 1.0776
C74 C 0.89606(12) 1.0434(3) 1.04178(16)
H70 H 0.8811 1.0891 1.0146
C75 C 0.93757(12) 1.0771(4) 1.05837(17)
H71 H 0.9402 1.1448 1.0722
H72 H 0.9535 1.0325 1.0849
C76 C 0.95062(13) 1.0754(4) 1.01361(18)
H73 H 0.9363 1.1247 0.9885
H74 H 0.9772 1.0937 1.0253
C77 C 0.90476(12) 0.9365(4) 0.97349(18)
H75 H 0.9027 0.8688 0.9598
H76 H 0.8884 0.9803 0.9470
C78 C 0.89226(13) 0.9369(3) 1.01827(18)
H77 H 0.9076 0.8898 1.0438
H78 H 0.8661 0.9150 1.0072
C79 C 0.70589(11) 1.0267(3) 0.95897(16)
H79 H 0.7088 0.9612 0.9761
C80 C 0.67352(12) 1.0170(3) 0.90636(17)
H80 H 0.6712 1.0797 0.8878
H81 H 0.6797 0.9641 0.8871
C81 C 0.63550(12) 0.9925(4) 0.91119(19)
H82 H 0.6157 0.9893 0.8776
H83 H 0.6371 0.9272 0.9272
C82 C 0.65557(13) 1.0795(4) 0.99444(18)
H84 H 0.6575 1.0164 1.0126
H85 H 0.6486 1.1321 1.0131
C83 C 0.69349(12) 1.1045(3) 0.99053(17)
H86 H 0.7127 1.1079 1.0245
H87 H 0.6918 1.1705 0.9751
C84 C 0.70729(11) 1.4707(3) 0.96031(15)
H88 H 0.7107 1.5370 0.9767
C85 C 0.69433(12) 1.3968(3) 0.99253(16)
H89 H 0.6918 1.3300 0.9776
H90 H 0.7136 1.3934 1.0265
C86 C 0.65671(12) 1.4273(3) 0.99630(17)
H91 H 0.6492 1.3773 1.0157
H92 H 0.6595 1.4916 1.0136
C87 C 0.63772(12) 1.5099(3) 0.91199(17)
H93 H 0.6402 1.5762 0.9273
H94 H 0.6180 1.5132 0.8783
C88 C 0.67525(12) 1.4802(3) 0.90751(16)
H95 H 0.6821 1.5306 0.8877
H96 H 0.6722 1.4162 0.8898
S1 S 0.89502(3) 0.75667(8) 0.73311(4)
O1 O 0.86830(9) 0.7558(2) 0.75992(12)
O2 O 0.91620(9) 0.8513(3) 0.74188(13)
O3 O 0.91872(10) 0.6666(3) 0.74427(13)
C89 C 0.86672(13) 0.7526(3) 0.66765(17)
H97 H 0.8827 0.7542 0.6482
H98 H 0.8500 0.8097 0.6589
H99 H 0.8521 0.6915 0.6602
S2 S 0.60498(3) 1.25303(8) 0.83813(4)
O4 O 0.63163(9) 1.2509(2) 0.89166(12)
O5 O 0.58145(9) 1.1627(3) 0.82530(13)
O6 O 0.58376(10) 1.3472(3) 0.82629(13)
C90 C 0.63332(13) 1.2507(3) 0.80087(18)
H100 H 0.6474 1.1887 0.8068
H101 H 0.6506 1.3066 0.8100
H102 H 0.6174 1.2554 0.7655
S3 S 0.44825(3) 0.72909(9) 0.54343(4)
O7 O 0.40938(9) 0.7629(3) 0.53012(13)
O8 O 0.46675(10) 0.7697(3) 0.51092(14)
O9 O 0.45016(10) 0.6170(3) 0.54621(13)
C91 C 0.47404(13) 0.7706(4) 0.60618(18)
H103 H 0.4746 0.8430 0.6070
H104 H 0.4994 0.7450 0.6173
H105 H 0.4620 0.7463 0.6284
S4 S 0.94817(3) 0.73083(9) 0.90458(4)
O10 O 0.94975(10) 0.6182(3) 0.90317(13)
O11 O 0.90953(9) 0.7662(3) 0.87939(13)
O12 O 0.96671(10) 0.7696(3) 0.95580(13)
C92 C 0.97408(13) 0.7723(4) 0.86789(19)
H106 H 0.9746 0.8447 0.8677
H107 H 0.9622 0.7479 0.8337
H108 H 0.9995 0.7468 0.8824
S5 S 0.53223(3) 0.90891(9) 0.41692(4)
O13 O 0.50814(9) 0.8697(3) 0.44286(13)
O14 O 0.51069(10) 0.9457(3) 0.36612(13)
O15 O 0.55901(10) 0.9850(3) 0.44838(14)
C93 C 0.56011(15) 0.8071(4) 0.4106(2)
H109 H 0.5439 0.7542 0.3913
H110 H 0.5754 0.7822 0.4437
H111 H 0.5762 0.8297 0.3934
S6 S 0.96817(3) 1.09205(9) 0.88525(4)
O16 O 0.99223(10) 1.1309(3) 0.93524(13)
O17 O 0.98962(10) 1.0546(3) 0.85601(13)
O18 O 0.94110(11) 1.0164(3) 0.88976(13)
C94 C 0.94066(15) 1.1941(4) 0.8510(2)
H112 H 0.9571 1.2479 0.8494
H113 H 0.9244 1.2174 0.8678
H114 H 0.9255 1.1725 0.8172
N17 N 0.44952(19) 0.7703(5) 0.8204(3)
C95 C 0.47046(19) 0.7628(4) 0.8000(3)
C96 C 0.49648(18) 0.7521(4) 0.7733(3)
H115 H 0.4826 0.7564 0.7373
H116 H 0.5090 0.6879 0.7814
H117 H 0.5150 0.8051 0.7837
N18 N 0.9495(2) 0.7700(5) 0.6292(3)
C97 C 0.97043(18) 0.7633(4) 0.6706(3)
C98 C 0.99675(18) 0.7546(4) 0.7236(3)
H118 H 1.0157 0.8062 0.7308
H119 H 1.0087 0.6895 0.7289
H120 H 0.9831 0.7624 0.7459
N19 N 0.81902(19) 0.7447(4) 0.9240(3)
C99 C 0.81286(17) 0.7477(4) 0.9603(2)
C100 C 0.8036(2) 0.7506(5) 1.0060(3)
H121 H 0.8145 0.6931 1.0269
H122 H 0.7766 0.7493 0.9964
H123 H 0.8135 0.8112 1.0247
N20 N 0.68104(18) 1.2585(4) 0.6049(2)
C101 C 0.68706(17) 1.2546(4) 0.6474(2)
C102 C 0.6961(2) 1.2491(5) 0.7021(3)
H124 H 0.7230 1.2532 0.7198
H125 H 0.6870 1.1864 0.7102
H126 H 0.6841 1.3041 0.7124
N21 N 0.6892(3) 0.7457(5) 0.9115(3)
C103 C 0.6930(2) 0.7485(4) 0.8738(3)
C104 C 0.6980(2) 0.7524(4) 0.8257(3)
H127 H 0.7161 0.8039 0.8270
H128 H 0.6743 0.7675 0.7990
H129 H 0.7071 0.6884 0.8192
N22 N 0.8104(3) 1.2555(4) 0.7226(3)
C105 C 0.8072(2) 1.2543(4) 0.6814(3)
C106 C 0.8020(2) 1.2531(4) 0.6280(3)
H130 H 0.7866 1.1964 0.6117
H131 H 0.8262 1.2478 0.6248
H132 H 0.7897 1.3143 0.6121
O19 O 0.53275(12) 0.5061(3) 0.78691(15)
H133 H 0.5239 0.5171 0.8100
H134 H 0.5517 0.4667 0.7984
O20 O 0.53479(12) 0.9893(3) 0.79644(16)
H135 H 0.5488 1.0414 0.8026
H136 H 0.5119 1.0060 0.7794
O21 O 0.49925(15) 0.6425(3) 0.44740(17)
H137 H 0.4959 0.7058 0.4478
H138 H 0.5065 0.6276 0.4232
O22 O 0.59193(16) 0.5895(4) 0.4817(2)
H139 H 0.6084 0.6345 0.4841
H140 H 0.5702 0.6104 0.4623
O23 O 0.96765(12) 1.0094(3) 0.75464(15)
H141 H 0.9777 1.0180 0.7866
H142 H 0.9514 0.9622 0.7482
O24 O 0.90760(17) 0.4115(4) 0.8888(2)
H143 H 0.9297 0.3901 0.8934
H144 H 0.8950 0.3647 0.8956
O25 O 0.96462(12) 0.4924(3) 0.76095(16)
H145 H 0.9864 0.5046 0.7605
H146 H 0.9513 0.5457 0.7532
O26 O 0.99900(15) 0.6415(3) 1.05192(17)
H147 H 0.9906 0.7011 1.0442
H148 H 1.0044 0.6320 1.0836
O27 O 0.46556(17) 0.4506(3) 0.61072(18)
H149 H 0.4594 0.5051 0.5938
H150 H 0.4648 0.4592 0.6400
O28 O 0.96592(16) 0.4521(3) 0.85473(17)
H151 H 0.9660 0.4693 0.8258
H152 H 0.9618 0.5036 0.8698
S7 S 0.84680(5) 1.22000(14) 0.92306(7)
O29 O 0.83998(10) 1.2669(3) 0.96508(14)
O30 O 0.83507(11) 1.1155(3) 0.92222(15)
O31 O 0.88619(17) 1.2369(5) 0.9269(3)
C107 C 0.8211(2) 1.2750(7) 0.8687(3)
H153 H 0.7977 1.2389 0.8532
H154 H 0.8348 1.2746 0.8464
H155 H 0.8158 1.3433 0.8751
S8 S 0.65306(5) 0.78067(14) 0.57633(7)
O32 O 0.66022(10) 0.7336(3) 0.62536(14)
O33 O 0.66428(11) 0.8848(3) 0.58671(16)
O34 O 0.61366(17) 0.7633(5) 0.5412(2)
C108 C 0.6790(2) 0.7267(6) 0.5478(3)
H156 H 0.7026 0.7624 0.5563
H157 H 0.6656 0.7284 0.5116
H158 H 0.6841 0.6579 0.5589
loop_
_geom_bond_atom_site_label_1
_geom_bond_atom_site_label_2
_geom_bond_site_symmetry_1
_geom_bond_site_symmetry_2
N1 D1 1_555 1_555
N2 D2 1_555 1_555
N3 D3 1_555 1_555
N4 D4 1_555 1_555
N5 D5 1_555 1_555
D6 N5 1_555 1_555
N6 D7 1_555 1_555
D8 N6 1_555 1_555
N7 D9 1_555 1_555
D10 N7 1_555 1_555
N8 D11 1_555 1_555
D12 N8 1_555 1_555
C1 N1 1_555 1_555
C2 C1 1_555 1_555
D13 C2 1_555 1_555
C3 C2 1_555 1_555
D14 C3 1_555 1_555
C4 N1 1_555 1_555
C5 C1 1_555 1_555
C6 C5 1_555 1_555
H1 C6 1_555 1_555
H2 C6 1_555 1_555
H3 C6 1_555 1_555
C7 N2 1_555 1_555
C8 C7 1_555 1_555
D15 C8 1_555 1_555
C9 C8 1_555 1_555
D16 C9 1_555 1_555
C10 N2 1_555 1_555
C11 C10 1_555 1_555
C12 C11 1_555 1_555
H4 C12 1_555 1_555
H5 C12 1_555 1_555
H6 C12 1_555 1_555
C13 N3 1_555 1_555
C14 C13 1_555 1_555
D17 C14 1_555 1_555
C15 C14 1_555 1_555
D18 C15 1_555 1_555
C16 N3 1_555 1_555
C17 C16 1_555 1_555
C18 C17 1_555 1_555
H7 C18 1_555 1_555
H8 C18 1_555 1_555
H9 C18 1_555 1_555
C19 N4 1_555 1_555
C20 C19 1_555 1_555
D19 C20 1_555 1_555
C21 C20 1_555 1_555
D20 C21 1_555 1_555
C22 N4 1_555 1_555
C23 C4 1_555 1_555
C24 C23 1_555 1_555
H10 C24 1_555 1_555
H11 C24 1_555 1_555
H12 C24 1_555 1_555
C25 C5 1_555 1_555
H13 C25 1_555 1_555
C26 C25 1_555 1_555
H14 C26 1_555 1_555
H15 C26 1_555 1_555
C27 N5 1_555 1_555
H16 C27 1_555 1_555
H17 C27 1_555 1_555
C28 N5 1_555 1_555
H18 C28 1_555 1_555
H19 C28 1_555 1_555
C29 C25 1_555 1_555
H20 C29 1_555 1_555
H21 C29 1_555 1_555
C30 C11 1_555 1_555
H22 C30 1_555 1_555
C31 C30 1_555 1_555
H23 C31 1_555 1_555
H24 C31 1_555 1_555
C32 N6 1_555 1_555
H25 C32 1_555 1_555
H26 C32 1_555 1_555
C33 N6 1_555 1_555
H27 C33 1_555 1_555
H28 C33 1_555 1_555
C34 C30 1_555 1_555
H29 C34 1_555 1_555
H30 C34 1_555 1_555
C35 C17 1_555 1_555
H31 C35 1_555 1_555
C36 C35 1_555 1_555
H32 C36 1_555 1_555
H33 C36 1_555 1_555
C37 N7 1_555 1_555
H34 C37 1_555 1_555
H35 C37 1_555 1_555
C38 N7 1_555 1_555
H36 C38 1_555 1_555
H37 C38 1_555 1_555
C39 C35 1_555 1_555
H38 C39 1_555 1_555
H39 C39 1_555 1_555
C40 C23 1_555 1_555
H40 C40 1_555 1_555
C41 C40 1_555 1_555
H41 C41 1_555 1_555
H42 C41 1_555 1_555
C42 N8 1_555 1_555
H43 C42 1_555 1_555
H44 C42 1_555 1_555
C43 N8 1_555 1_555
H45 C43 1_555 1_555
H46 C43 1_555 1_555
C44 C40 1_555 1_555
H47 C44 1_555 1_555
H48 C44 1_555 1_555
N9 D21 1_555 1_555
N10 D22 1_555 1_555
N11 D23 1_555 1_555
N12 D24 1_555 1_555
N13 D25 1_555 1_555
D26 N13 1_555 1_555
N14 D27 1_555 1_555
D28 N14 1_555 1_555
N15 D29 1_555 1_555
D30 N15 1_555 1_555
N16 D31 1_555 1_555
D32 N16 1_555 1_555
C45 N9 1_555 1_555
C46 C45 1_555 1_555
D33 C46 1_555 1_555
C47 C46 1_555 1_555
D34 C47 1_555 1_555
C48 N9 1_555 1_555
C49 C45 1_555 1_555
C50 C49 1_555 1_555
H49 C50 1_555 1_555
H50 C50 1_555 1_555
H51 C50 1_555 1_555
C51 N10 1_555 1_555
C52 C51 1_555 1_555
D35 C52 1_555 1_555
C53 C52 1_555 1_555
D36 C53 1_555 1_555
C54 N10 1_555 1_555
C55 C54 1_555 1_555
C56 C55 1_555 1_555
H52 C56 1_555 1_555
H53 C56 1_555 1_555
H54 C56 1_555 1_555
C57 N11 1_555 1_555
C58 C57 1_555 1_555
D37 C58 1_555 1_555
C59 C58 1_555 1_555
D38 C59 1_555 1_555
C60 N11 1_555 1_555
C61 C60 1_555 1_555
C62 C61 1_555 1_555
H55 C62 1_555 1_555
H56 C62 1_555 1_555
H57 C62 1_555 1_555
C63 N12 1_555 1_555
C64 C63 1_555 1_555
D39 C64 1_555 1_555
C65 C64 1_555 1_555
D40 C65 1_555 1_555
C66 N12 1_555 1_555
C67 C48 1_555 1_555
C68 C67 1_555 1_555
H58 C68 1_555 1_555
H59 C68 1_555 1_555
H60 C68 1_555 1_555
C69 C49 1_555 1_555
H61 C69 1_555 1_555
C70 C69 1_555 1_555
H62 C70 1_555 1_555
H63 C70 1_555 1_555
C71 N13 1_555 1_555
H64 C71 1_555 1_555
H65 C71 1_555 1_555
C72 N13 1_555 1_555
H66 C72 1_555 1_555
H67 C72 1_555 1_555
C73 C69 1_555 1_555
H68 C73 1_555 1_555
H69 C73 1_555 1_555
C74 C55 1_555 1_555
H70 C74 1_555 1_555
C75 C74 1_555 1_555
H71 C75 1_555 1_555
H72 C75 1_555 1_555
C76 N14 1_555 1_555
H73 C76 1_555 1_555
H74 C76 1_555 1_555
C77 N14 1_555 1_555
H75 C77 1_555 1_555
H76 C77 1_555 1_555
C78 C74 1_555 1_555
H77 C78 1_555 1_555
H78 C78 1_555 1_555
C79 C61 1_555 1_555
H79 C79 1_555 1_555
C80 C79 1_555 1_555
H80 C80 1_555 1_555
H81 C80 1_555 1_555
C81 N15 1_555 1_555
H82 C81 1_555 1_555
H83 C81 1_555 1_555
C82 N15 1_555 1_555
H84 C82 1_555 1_555
H85 C82 1_555 1_555
C83 C79 1_555 1_555
H86 C83 1_555 1_555
H87 C83 1_555 1_555
C84 C67 1_555 1_555
H88 C84 1_555 1_555
C85 C84 1_555 1_555
H89 C85 1_555 1_555
H90 C85 1_555 1_555
C86 N16 1_555 1_555
H91 C86 1_555 1_555
H92 C86 1_555 1_555
C87 N16 1_555 1_555
H93 C87 1_555 1_555
H94 C87 1_555 1_555
C88 C84 1_555 1_555
H95 C88 1_555 1_555
H96 C88 1_555 1_555
S1 O1 1_555 1_555
O2 S1 1_555 1_555
O3 S1 1_555 1_555
C89 S1 1_555 1_555
H97 C89 1_555 1_555
H98 C89 1_555 1_555
H99 C89 1_555 1_555
S2 O4 1_555 1_555
O5 S2 1_555 1_555
O6 S2 1_555 1_555
C90 S2 1_555 1_555
H100 C90 1_555 1_555
H101 C90 1_555 1_555
H102 C90 1_555 1_555
S3 O7 1_555 1_555
O8 S3 1_555 1_555
O9 S3 1_555 1_555
C91 S3 1_555 1_555
H103 C91 1_555 1_555
H104 C91 1_555 1_555
H105 C91 1_555 1_555
S4 O10 1_555 1_555
O11 S4 1_555 1_555
O12 S4 1_555 1_555
C92 S4 1_555 1_555
H106 C92 1_555 1_555
H107 C92 1_555 1_555
H108 C92 1_555 1_555
S5 O13 1_555 1_555
O14 S5 1_555 1_555
O15 S5 1_555 1_555
C93 S5 1_555 1_555
H109 C93 1_555 1_555
H110 C93 1_555 1_555
H111 C93 1_555 1_555
S6 O16 1_555 1_555
O17 S6 1_555 1_555
O18 S6 1_555 1_555
C94 S6 1_555 1_555
H112 C94 1_555 1_555
H113 C94 1_555 1_555
H114 C94 1_555 1_555
N17 C95 1_555 1_555
C95 C96 1_555 1_555
C96 H115 1_555 1_555
H116 C96 1_555 1_555
H117 C96 1_555 1_555
N18 C97 1_555 1_555
C97 C98 1_555 1_555
C98 H118 1_555 1_555
H119 C98 1_555 1_555
H120 C98 1_555 1_555
N19 C99 1_555 1_555
C99 C100 1_555 1_555
C100 H121 1_555 1_555
H122 C100 1_555 1_555
H123 C100 1_555 1_555
N20 C101 1_555 1_555
C101 C102 1_555 1_555
C102 H124 1_555 1_555
H125 C102 1_555 1_555
H126 C102 1_555 1_555
N21 C103 1_555 1_555
C103 C104 1_555 1_555
C104 H127 1_555 1_555
H128 C104 1_555 1_555
H129 C104 1_555 1_555
N22 C105 1_555 1_555
C105 C106 1_555 1_555
C106 H130 1_555 1_555
H131 C106 1_555 1_555
H132 C106 1_555 1_555
O19 H133 1_555 1_555
H134 O19 1_555 1_555
O20 H135 1_555 1_555
H136 O20 1_555 1_555
O21 H137 1_555 1_555
H138 O21 1_555 1_555
O22 H139 1_555 1_555
H140 O22 1_555 1_555
O23 H141 1_555 1_555
H142 O23 1_555 1_555
O24 H143 1_555 1_555
H144 O24 1_555 1_555
O25 H145 1_555 1_555
H146 O25 1_555 1_555
O26 H147 1_555 1_555
H148 O26 1_555 1_555
O27 H149 1_555 1_555
H150 O27 1_555 1_555
O28 H151 1_555 1_555
H152 O28 1_555 1_555
S7 O29 1_555 1_555
O30 S7 1_555 1_555
O31 S7 1_555 1_555
C107 S7 1_555 1_555
H153 C107 1_555 1_555
H154 C107 1_555 1_555
H155 C107 1_555 1_555
S8 O32 1_555 1_555
O33 S8 1_555 1_555
O34 S8 1_555 1_555
C108 S8 1_555 1_555
H156 C108 1_555 1_555
H157 C108 1_555 1_555
H158 C108 1_555 1_555
C3 C4 1_555 1_555
C5 C7 1_555 1_555
C9 C10 1_555 1_555
C11 C13 1_555 1_555
C15 C16 1_555 1_555
C17 C19 1_555 1_555
C21 C22 1_555 1_555
C22 C23 1_555 1_555
C26 C27 1_555 1_555
C28 C29 1_555 1_555
C31 C32 1_555 1_555
C33 C34 1_555 1_555
C36 C37 1_555 1_555
C38 C39 1_555 1_555
C41 C42 1_555 1_555
C43 C44 1_555 1_555
C47 C48 1_555 1_555
C49 C51 1_555 1_555
C53 C54 1_555 1_555
C55 C57 1_555 1_555
C59 C60 1_555 1_555
C61 C63 1_555 1_555
C65 C66 1_555 1_555
C66 C67 1_555 1_555
C70 C71 1_555 1_555
C72 C73 1_555 1_555
C75 C76 1_555 1_555
C77 C78 1_555 1_555
C80 C81 1_555 1_555
C82 C83 1_555 1_555
C85 C86 1_555 1_555
C87 C88 1_555 1_555

#END
