
#######################################################################
#
#                 Cambridge Crystallographic Data Centre
#                                CCDC 
#
#######################################################################
#
# If this CIF has been generated from an entry in the Cambridge 
# Structural Database, then it will include bibliographic, chemical, 
# crystal, experimental, refinement or atomic coordinate data resulting 
# from the CCDC's data processing and validation procedures.
#
#######################################################################

data_OPOQIU
_chemical_formula_moiety         
'C52 H34 B3 O7 1-,C28 H35 N2 O2 1+,1.5(C1 H1 Cl3)'
_chemical_name_systematic        
"N-(4-(Dimethylamino)benzylidene)(bis(4-methoxy-3,5-dimethylphenyl))methylammonium (2,2'-dimethyl-3,3'-biphenanthrene-4,4'-diolato)-trioxo-diphenolato-triboron chloroform solvate"
_symmetry_cell_setting           orthorhombic
_symmetry_space_group_name_H-M   'P 21 21 2'
_symmetry_Int_Tables_number      18
_space_group_name_Hall           'P 2 2ab'
loop_
_symmetry_equiv_pos_site_id
_symmetry_equiv_pos_as_xyz
1 x,y,z
2 -x,-y,z
3 1/2-x,1/2+y,-z
4 1/2+x,1/2-y,-z
_cell_length_a                   18.536(4)
_cell_length_b                   29.114(6)
_cell_length_c                   13.340(3)
_cell_angle_alpha                90
_cell_angle_beta                 90
_cell_angle_gamma                90
_cell_volume                     7199.03
_exptl_crystal_colour            yellow
_cell_formula_units_Z            4
_chemical_properties_physical    Moisture-sensitive
_exptl_crystal_recrystallization_method 
deuterochloroform/dichloromethane/pentane
loop_
_atom_site_label
_atom_site_type_symbol
_atom_site_fract_x
_atom_site_fract_y
_atom_site_fract_z
O1 O 0.70115(14) 0.19778(9) 0.0559(2)
C1 C 0.6623(2) 0.15967(15) 0.0750(3)
C2 C 0.6515(2) 0.14657(14) 0.1739(3)
C3 C 0.6859(2) 0.17458(15) 0.2559(3)
C4 C 0.6721(2) 0.22119(15) 0.2592(3)
O2 O 0.63304(14) 0.23911(10) 0.1827(2)
B1 B 0.6698(3) 0.24175(18) 0.0840(3)
O3 O 0.72829(14) 0.27560(10) 0.0839(2)
B2 B 0.7194(2) 0.31802(18) 0.0538(4)
O4 O 0.65617(15) 0.33311(10) 0.0077(2)
B3 B 0.6050(2) 0.30071(18) -0.0122(4)
O5 O 0.61154(14) 0.25643(10) 0.0148(2)
O6 O 0.77537(15) 0.34879(11) 0.0691(2)
C5 C 0.7764(2) 0.39477(16) 0.0448(4)
C6 C 0.7213(3) 0.42369(18) 0.0688(5)
H1 H 0.6807 0.4129 0.1023
C7 C 0.7271(4) 0.4703(2) 0.0419(5)
H2 H 0.6883 0.4899 0.0526
C8 C 0.7890(4) 0.4870(2) 0.0005(5)
H3 H 0.7935 0.5181 -0.0141
C9 C 0.8442(4) 0.4574(2) -0.0191(5)
H4 H 0.8859 0.4688 -0.0487
C10 C 0.8407(3) 0.4119(2) 0.0027(4)
H5 H 0.8796 0.3926 -0.0097
O7 O 0.54243(15) 0.31147(10) -0.0631(2)
C11 C 0.5240(2) 0.35349(19) -0.1036(4)
C12 C 0.4896(4) 0.3528(2) -0.1940(5)
H6 H 0.4808 0.3250 -0.2261
C13 C 0.4680(5) 0.3932(3) -0.2373(7)
H7 H 0.4437 0.3929 -0.2984
C14 C 0.4820(5) 0.4342(3) -0.1908(8)
H8 H 0.4688 0.4616 -0.2215
C15 C 0.5161(4) 0.4349(2) -0.0969(7)
H9 H 0.5247 0.4625 -0.0640
C16 C 0.5363(3) 0.39423(19) -0.0555(6)
H10 H 0.5588 0.3941 0.0068
C17 C 0.6359(2) 0.13209(15) -0.0070(3)
C18 C 0.6532(2) 0.14005(15) -0.1115(3)
C19 C 0.7041(2) 0.17195(16) -0.1482(3)
H11 H 0.7284 0.1904 -0.1024
C20 C 0.7193(3) 0.17688(17) -0.2472(3)
H12 H 0.7531 0.1986 -0.2674
C21 C 0.6846(3) 0.14968(18) -0.3194(3)
H13 H 0.6933 0.1538 -0.3875
C22 C 0.6385(3) 0.11755(18) -0.2866(4)
H14 H 0.6169 0.0983 -0.3336
C23 C 0.6211(3) 0.11140(16) -0.1854(4)
C24 C 0.5709(3) 0.07670(19) -0.1546(4)
H15 H 0.5466 0.0597 -0.2030
C25 C 0.5586(3) 0.06831(18) -0.0579(4)
H16 H 0.5278 0.0444 -0.0405
C26 C 0.5905(2) 0.09447(16) 0.0184(3)
C27 C 0.5765(2) 0.08432(17) 0.1188(3)
H17 H 0.5453 0.0602 0.1333
C28 C 0.6066(2) 0.10830(15) 0.1975(3)
C29 C 0.5900(2) 0.09296(16) 0.3000(3)
C30 C 0.5944(3) 0.04627(17) 0.3236(4)
H18 H 0.6102 0.0254 0.2756
C31 C 0.5753(3) 0.03106(19) 0.4178(4)
H19 H 0.5792 0.0000 0.4332
C32 C 0.5509(3) 0.0609(2) 0.4883(4)
H20 H 0.5383 0.0500 0.5515
C33 C 0.5448(3) 0.10669(19) 0.4672(4)
H21 H 0.5274 0.1269 0.5156
C34 C 0.5645(2) 0.12301(17) 0.3731(3)
H22 H 0.5606 0.1542 0.3589
C35 C 0.7295(2) 0.15372(16) 0.3322(3)
C36 C 0.7513(2) 0.10526(17) 0.3334(3)
C37 C 0.7502(3) 0.0800(2) 0.4240(4)
H23 H 0.7361 0.0949 0.4824
C38 C 0.7684(4) 0.0362(2) 0.4293(4)
H24 H 0.7666 0.0207 0.4903
C39 C 0.7898(4) 0.0138(2) 0.3448(6)
H25 H 0.8012 -0.0173 0.3482
C40 C 0.7948(3) 0.0365(2) 0.2541(5)
H26 H 0.8116 0.0215 0.1972
C41 C 0.7741(3) 0.08269(18) 0.2498(4)
H27 H 0.7758 0.0982 0.1889
C42 C 0.7511(2) 0.18249(17) 0.4101(3)
H28 H 0.7801 0.1701 0.4602
C43 C 0.7325(2) 0.22813(16) 0.4177(3)
C44 C 0.7546(3) 0.2549(2) 0.5030(3)
H29 H 0.7795 0.2405 0.5547
C45 C 0.7411(3) 0.2985(2) 0.5101(4)
H30 H 0.7576 0.3146 0.5659
C46 C 0.7014(3) 0.32269(18) 0.4345(4)
C47 C 0.6856(4) 0.3700(2) 0.4450(5)
H31 H 0.7009 0.3853 0.5024
C48 C 0.6480(4) 0.3943(2) 0.3726(5)
H32 H 0.6411 0.4258 0.3783
C49 C 0.6209(4) 0.3699(2) 0.2912(5)
H33 H 0.5925 0.3850 0.2441
C50 C 0.6349(3) 0.32537(18) 0.2793(4)
H34 H 0.6166 0.3107 0.2228
C51 C 0.6768(3) 0.29878(18) 0.3487(4)
C52 C 0.6935(2) 0.25000(15) 0.3387(3)
C53 C 0.4477(2) 0.23484(16) 0.1377(3)
H35 H 0.4912 0.2276 0.1764
N1 N 0.46568(18) 0.22700(13) 0.0314(2)
H36 H 0.5106 0.2276 0.0154
C54 C 0.4202(2) 0.21928(16) -0.0402(3)
H37 H 0.3720 0.2149 -0.0235
C55 C 0.4405(2) 0.21716(15) -0.1453(3)
C56 C 0.3854(2) 0.21698(17) -0.2164(3)
H38 H 0.3376 0.2163 -0.1955
C57 C 0.4011(2) 0.21784(19) -0.3167(3)
H39 H 0.3634 0.2177 -0.3628
C58 C 0.4732(2) 0.21896(17) -0.3520(3)
N2 N 0.4902(2) 0.21969(16) -0.4474(3)
C59 C 0.5614(3) 0.2312(2) -0.4809(4)
H40 H 0.5932 0.2331 -0.4242
H41 H 0.5603 0.2602 -0.5149
H42 H 0.5785 0.2078 -0.5259
C60 C 0.4334(3) 0.2158(2) -0.5248(4)
H43 H 0.3883 0.2082 -0.4935
H44 H 0.4462 0.1922 -0.5717
H45 H 0.4287 0.2446 -0.5595
C61 C 0.5278(2) 0.21911(17) -0.2764(3)
H46 H 0.5760 0.2200 -0.2959
C62 C 0.5122(2) 0.21801(16) -0.1779(3)
H47 H 0.5494 0.2178 -0.1311
C63 C 0.3889(2) 0.20208(16) 0.1736(3)
C64 C 0.4083(2) 0.16013(15) 0.2082(3)
H48 H 0.4567 0.1516 0.2074
C65 C 0.3557(2) 0.12867(17) 0.2461(3)
C66 C 0.3781(3) 0.08174(19) 0.2813(5)
H49 H 0.3364 0.0653 0.3045
H50 H 0.4122 0.0847 0.3350
H51 H 0.3999 0.0653 0.2267
C67 C 0.2846(2) 0.14324(16) 0.2465(3)
O8 O 0.23227(17) 0.11426(12) 0.2850(2)
C68 C 0.1937(3) 0.09002(19) 0.2067(5)
H52 H 0.1577 0.0705 0.2363
H53 H 0.2270 0.0716 0.1688
H54 H 0.1708 0.1118 0.1630
C69 C 0.2647(2) 0.18675(15) 0.2147(3)
C70 C 0.1871(2) 0.20344(17) 0.2254(4)
H55 H 0.1577 0.1791 0.2516
H56 H 0.1690 0.2126 0.1610
H57 H 0.1856 0.2292 0.2704
C71 C 0.3174(2) 0.21606(15) 0.1771(3)
H58 H 0.3046 0.2451 0.1543
C72 C 0.4310(2) 0.28591(17) 0.1569(4)
C73 C 0.4443(3) 0.30239(19) 0.2522(4)
H59 H 0.4647 0.2830 0.2997
C74 C 0.4279(3) 0.3468(2) 0.2782(4)
C75 C 0.4403(5) 0.3655(3) 0.3829(5)
H60 H 0.4608 0.3419 0.4244
H61 H 0.3952 0.3753 0.4109
H62 H 0.4728 0.3911 0.3797
C76 C 0.3969(3) 0.3763(2) 0.2048(5)
O9 O 0.3858(2) 0.42176(14) 0.2267(4)
C77 C 0.3130(4) 0.4310(2) 0.2602(7)
H63 H 0.3079 0.4632 0.2740
H64 H 0.3033 0.4138 0.3201
H65 H 0.2795 0.4222 0.2089
C78 C 0.3849(3) 0.36035(18) 0.1100(5)
C79 C 0.3510(3) 0.3911(2) 0.0278(5)
H66 H 0.3416 0.4211 0.0548
H67 H 0.3065 0.3776 0.0053
H68 H 0.3837 0.3936 -0.0276
C80 C 0.40201(12) 0.31519(6) 0.08180(19)
H69 H 0.3947 0.3049 0.0166
C81 C 0.84357(12) 0.41964(6) 0.31117(19)
Cl1 Cl 0.86177(12) 0.40874(6) 0.43957(19)
Cl2 Cl 0.91927(12) 0.40344(6) 0.26367(19)
Cl3 Cl 0.82317(12) 0.47994(6) 0.30227(19)
C82? C 0.50033(12) 0.49993(6) 0.23164(19)
Cl4? Cl 0.50033(12) 0.49993(6) 0.35614(19)
Cl5? Cl 0.56242(12) 0.47188(6) 0.18514(19)
Cl6? Cl 0.87251(12) 0.47217(6) 0.24413(19)
Cl7? Cl 0.53611(12) 0.46857(6) 0.10943(19)
loop_
_geom_bond_atom_site_label_1
_geom_bond_atom_site_label_2
_geom_bond_site_symmetry_1
_geom_bond_site_symmetry_2
O1 C1 1_555 1_555
C1 C2 1_555 1_555
C2 C3 1_555 1_555
C3 C4 1_555 1_555
C4 O2 1_555 1_555
O2 B1 1_555 1_555
B1 O1 1_555 1_555
O3 B1 1_555 1_555
B2 O3 1_555 1_555
O4 B2 1_555 1_555
B3 O4 1_555 1_555
O5 B1 1_555 1_555
O6 B2 1_555 1_555
C5 O6 1_555 1_555
C6 C5 1_555 1_555
H1 C6 1_555 1_555
C7 C6 1_555 1_555
H2 C7 1_555 1_555
C8 C7 1_555 1_555
H3 C8 1_555 1_555
C9 C8 1_555 1_555
H4 C9 1_555 1_555
C10 C5 1_555 1_555
H5 C10 1_555 1_555
O7 B3 1_555 1_555
C11 O7 1_555 1_555
C12 C11 1_555 1_555
H6 C12 1_555 1_555
C13 C12 1_555 1_555
H7 C13 1_555 1_555
C14 C13 1_555 1_555
H8 C14 1_555 1_555
C15 C14 1_555 1_555
H9 C15 1_555 1_555
C16 C11 1_555 1_555
H10 C16 1_555 1_555
C17 C1 1_555 1_555
C18 C17 1_555 1_555
C19 C18 1_555 1_555
H11 C19 1_555 1_555
C20 C19 1_555 1_555
H12 C20 1_555 1_555
C21 C20 1_555 1_555
H13 C21 1_555 1_555
C22 C21 1_555 1_555
H14 C22 1_555 1_555
C23 C18 1_555 1_555
C24 C23 1_555 1_555
H15 C24 1_555 1_555
C25 C24 1_555 1_555
H16 C25 1_555 1_555
C26 C17 1_555 1_555
C27 C26 1_555 1_555
H17 C27 1_555 1_555
C28 C2 1_555 1_555
C29 C28 1_555 1_555
C30 C29 1_555 1_555
H18 C30 1_555 1_555
C31 C30 1_555 1_555
H19 C31 1_555 1_555
C32 C31 1_555 1_555
H20 C32 1_555 1_555
C33 C32 1_555 1_555
H21 C33 1_555 1_555
C34 C29 1_555 1_555
H22 C34 1_555 1_555
C35 C3 1_555 1_555
C36 C35 1_555 1_555
C37 C36 1_555 1_555
H23 C37 1_555 1_555
C38 C37 1_555 1_555
H24 C38 1_555 1_555
C39 C38 1_555 1_555
H25 C39 1_555 1_555
C40 C39 1_555 1_555
H26 C40 1_555 1_555
C41 C36 1_555 1_555
H27 C41 1_555 1_555
C42 C35 1_555 1_555
H28 C42 1_555 1_555
C43 C42 1_555 1_555
C44 C43 1_555 1_555
H29 C44 1_555 1_555
C45 C44 1_555 1_555
H30 C45 1_555 1_555
C46 C45 1_555 1_555
C47 C46 1_555 1_555
H31 C47 1_555 1_555
C48 C47 1_555 1_555
H32 C48 1_555 1_555
C49 C48 1_555 1_555
H33 C49 1_555 1_555
C50 C49 1_555 1_555
H34 C50 1_555 1_555
C51 C46 1_555 1_555
C52 C4 1_555 1_555
C53 H35 1_555 1_555
N1 C53 1_555 1_555
H36 N1 1_555 1_555
C54 N1 1_555 1_555
H37 C54 1_555 1_555
C55 C54 1_555 1_555
C56 C55 1_555 1_555
H38 C56 1_555 1_555
C57 C56 1_555 1_555
H39 C57 1_555 1_555
C58 C57 1_555 1_555
N2 C58 1_555 1_555
C59 N2 1_555 1_555
H40 C59 1_555 1_555
H41 C59 1_555 1_555
H42 C59 1_555 1_555
C60 N2 1_555 1_555
H43 C60 1_555 1_555
H44 C60 1_555 1_555
H45 C60 1_555 1_555
C61 C58 1_555 1_555
H46 C61 1_555 1_555
C62 C55 1_555 1_555
H47 C62 1_555 1_555
C63 C53 1_555 1_555
C64 C63 1_555 1_555
H48 C64 1_555 1_555
C65 C64 1_555 1_555
C66 C65 1_555 1_555
H49 C66 1_555 1_555
H50 C66 1_555 1_555
H51 C66 1_555 1_555
C67 C65 1_555 1_555
O8 C67 1_555 1_555
C68 O8 1_555 1_555
H52 C68 1_555 1_555
H53 C68 1_555 1_555
H54 C68 1_555 1_555
C69 C67 1_555 1_555
C70 C69 1_555 1_555
H55 C70 1_555 1_555
H56 C70 1_555 1_555
H57 C70 1_555 1_555
C71 C63 1_555 1_555
H58 C71 1_555 1_555
C72 C53 1_555 1_555
C73 C72 1_555 1_555
H59 C73 1_555 1_555
C74 C73 1_555 1_555
C75 C74 1_555 1_555
H60 C75 1_555 1_555
H61 C75 1_555 1_555
H62 C75 1_555 1_555
C76 C74 1_555 1_555
O9 C76 1_555 1_555
C77 O9 1_555 1_555
H63 C77 1_555 1_555
H64 C77 1_555 1_555
H65 C77 1_555 1_555
C78 C76 1_555 1_555
C79 C78 1_555 1_555
H66 C79 1_555 1_555
H67 C79 1_555 1_555
H68 C79 1_555 1_555
C80 C72 1_555 1_555
H69 C80 1_555 1_555
C81 Cl1 1_555 1_555
Cl2 C81 1_555 1_555
Cl3 C81 1_555 1_555
B3 O5 1_555 1_555
C9 C10 1_555 1_555
C15 C16 1_555 1_555
C22 C23 1_555 1_555
C25 C26 1_555 1_555
C27 C28 1_555 1_555
C33 C34 1_555 1_555
C40 C41 1_555 1_555
C43 C52 1_555 1_555
C50 C51 1_555 1_555
C51 C52 1_555 1_555
C61 C62 1_555 1_555
C69 C71 1_555 1_555
C78 C80 1_555 1_555

#END
