
#######################################################################
#
#                 Cambridge Crystallographic Data Centre
#                                CCDC 
#
#######################################################################
#
# If this CIF has been generated from an entry in the Cambridge 
# Structural Database, then it will include bibliographic, chemical, 
# crystal, experimental, refinement or atomic coordinate data resulting 
# from the CCDC's data processing and validation procedures.
#
#######################################################################

data_OPUREY
_chemical_formula_moiety         'C18 H15 F1 N2 O4'
_chemical_name_systematic        
'5-(2,6-dimethoxyphenyl)-1-(4-fluorophenyl)-1H-pyrazole-3-carboxylic acid'
_symmetry_cell_setting           triclinic
_symmetry_space_group_name_H-M   'P -1'
_symmetry_Int_Tables_number      2
_space_group_name_Hall           '-P 1'
loop_
_symmetry_equiv_pos_site_id
_symmetry_equiv_pos_as_xyz
1 x,y,z
2 -x,-y,-z
_cell_length_a                   8.550(5)
_cell_length_b                   12.619(7)
_cell_length_c                   16.694(10)
_cell_angle_alpha                91.803(9)
_cell_angle_beta                 95.702(8)
_cell_angle_gamma                109.750(8)
_cell_volume                     1682.75
_exptl_crystal_colour            colorless
_exptl_crystal_description       prism
_cell_formula_units_Z            4
loop_
_atom_site_label
_atom_site_type_symbol
_atom_site_fract_x
_atom_site_fract_y
_atom_site_fract_z
N1 N 0.2149(3) 0.38855(18) 0.35185(14)
N2 N 0.2348(3) 0.31168(18) 0.40273(14)
C1 C 0.0821(4) 0.2314(2) 0.39462(17)
C2 C 0.0514(4) 0.1312(2) 0.44104(18)
O1 O -0.1012(3) 0.05888(18) 0.42208(15)
H1 H -0.123(5) 0.005(2) 0.4552(18)
O2 O 0.1555(3) 0.11735(16) 0.49190(13)
C3 C -0.0321(4) 0.2583(2) 0.33998(17)
H2 H -0.1466 0.2149 0.3248
C4 C 0.0559(4) 0.3600(2) 0.31321(16)
C5 C 0.0041(3) 0.4376(2) 0.26196(18)
C6 C -0.0248(4) 0.5303(2) 0.2970(2)
O3 O -0.0001(3) 0.53793(18) 0.37959(14)
C7 C -0.0275(5) 0.6285(3) 0.4209(3)
H3 H -0.0039 0.6247 0.4792
H4 H -0.1443 0.6233 0.4078
H5 H 0.0466 0.7003 0.4043
C8 C -0.0735(4) 0.6048(3) 0.2490(2)
H6 H -0.0922 0.6682 0.2728
C9 C -0.0940(4) 0.5842(3) 0.1658(2)
H7 H -0.1292 0.6339 0.1328
C10 C -0.0650(4) 0.4947(3) 0.1296(2)
H8 H -0.0799 0.4829 0.0725
C11 C -0.0137(4) 0.4213(3) 0.17726(18)
O4 O 0.0248(3) 0.33168(18) 0.14965(12)
C12 C 0.0264(4) 0.3167(3) 0.06393(19)
H9 H 0.0559 0.2498 0.0518
H10 H 0.1092 0.3833 0.0455
H11 H -0.0846 0.3067 0.0362
C13 C 0.3509(3) 0.4897(2) 0.34227(17)
C14 C 0.4294(4) 0.5635(2) 0.40821(17)
H12 H 0.3974 0.5459 0.4604
C15 C 0.5563(4) 0.6643(2) 0.39764(19)
H13 H 0.6131 0.7163 0.4422
C16 C 0.5965(4) 0.6859(2) 0.32116(19)
F1 F 0.7202(2) 0.78414(14) 0.31023(12)
C17 C 0.5221(4) 0.6129(2) 0.25489(18)
H14 H 0.5551 0.6309 0.2029
C18 C 0.3974(4) 0.5121(2) 0.26569(18)
H15 H 0.3445 0.4591 0.2211
N3 N 0.6039(3) 0.13439(18) 0.12540(14)
N4 N 0.6193(3) 0.21417(18) 0.07236(14)
C19 C 0.5272(3) 0.2732(2) 0.09598(17)
C20 C 0.5144(3) 0.3710(2) 0.05383(16)
O5 O 0.5881(3) 0.38855(16) -0.01293(12)
H16 H 0.582(5) 0.4509(17) -0.031(2)
O6 O 0.4408(3) 0.43081(15) 0.07937(12)
C21 C 0.4506(4) 0.2308(2) 0.16453(17)
H17 H 0.3793 0.2585 0.1925
C22 C 0.5008(3) 0.1407(2) 0.18250(17)
C23 C 0.4569(3) 0.0641(2) 0.24790(17)
C24 C 0.4853(4) 0.1086(2) 0.32836(17)
O7 O 0.5633(3) 0.22282(17) 0.33792(12)
C25 C 0.6096(4) 0.2730(3) 0.41802(19)
H18 H 0.6718 0.3538 0.4167
H19 H 0.6802 0.2371 0.4481
H20 H 0.5087 0.2627 0.4445
C26 C 0.4384(4) 0.0389(3) 0.39021(18)
H21 H 0.4551 0.0699 0.4443
C27 C 0.3670(5) -0.0761(3) 0.3730(2)
H22 H 0.3368 -0.1239 0.4159
C28 C 0.3384(4) -0.1235(3) 0.29473(19)
H23 H 0.2895 -0.2029 0.2838
C29 C 0.3825(4) -0.0526(2) 0.23216(17)
O8 O 0.3580(3) -0.08929(15) 0.15281(11)
C30 C 0.3201(5) -0.2068(2) 0.1340(2)
H24 H 0.3232 -0.2203 0.0762
H25 H 0.2082 -0.2486 0.1481
H26 H 0.4028 -0.2323 0.1648
C31 C 0.6958(3) 0.0585(2) 0.11719(17)
C32 C 0.7076(3) 0.0201(2) 0.03981(17)
H27 H 0.6550 0.0430 -0.0059
C33 C 0.7972(4) -0.0522(2) 0.03011(18)
H28 H 0.8080 -0.0784 -0.0223
C34 C 0.8699(4) -0.0852(2) 0.09748(19)
F2 F 0.9560(2) -0.15699(15) 0.08807(12)
C35 C 0.8604(4) -0.0470(2) 0.17461(19)
H29 H 0.9139 -0.0697 0.2201
C36 C 0.7713(4) 0.0254(2) 0.18434(18)
H30 H 0.7622 0.0520 0.2369
loop_
_geom_bond_atom_site_label_1
_geom_bond_atom_site_label_2
_geom_bond_site_symmetry_1
_geom_bond_site_symmetry_2
N1 N2 1_555 1_555
N2 C1 1_555 1_555
C1 C2 1_555 1_555
C2 O1 1_555 1_555
O1 H1 1_555 1_555
O2 C2 1_555 1_555
C3 C1 1_555 1_555
H2 C3 1_555 1_555
C4 N1 1_555 1_555
C5 C4 1_555 1_555
C6 C5 1_555 1_555
O3 C6 1_555 1_555
C7 O3 1_555 1_555
H3 C7 1_555 1_555
H4 C7 1_555 1_555
H5 C7 1_555 1_555
C8 C6 1_555 1_555
H6 C8 1_555 1_555
C9 C8 1_555 1_555
H7 C9 1_555 1_555
C10 C9 1_555 1_555
H8 C10 1_555 1_555
C11 C5 1_555 1_555
O4 C11 1_555 1_555
C12 O4 1_555 1_555
H9 C12 1_555 1_555
H10 C12 1_555 1_555
H11 C12 1_555 1_555
C13 N1 1_555 1_555
C14 C13 1_555 1_555
H12 C14 1_555 1_555
C15 C14 1_555 1_555
H13 C15 1_555 1_555
C16 C15 1_555 1_555
F1 C16 1_555 1_555
C17 C16 1_555 1_555
H14 C17 1_555 1_555
C18 C13 1_555 1_555
H15 C18 1_555 1_555
N3 N4 1_555 1_555
N4 C19 1_555 1_555
C19 C20 1_555 1_555
C20 O5 1_555 1_555
O5 H16 1_555 1_555
O6 C20 1_555 1_555
C21 C19 1_555 1_555
H17 C21 1_555 1_555
C22 N3 1_555 1_555
C23 C22 1_555 1_555
C24 C23 1_555 1_555
O7 C24 1_555 1_555
C25 O7 1_555 1_555
H18 C25 1_555 1_555
H19 C25 1_555 1_555
H20 C25 1_555 1_555
C26 C24 1_555 1_555
H21 C26 1_555 1_555
C27 C26 1_555 1_555
H22 C27 1_555 1_555
C28 C27 1_555 1_555
H23 C28 1_555 1_555
C29 C23 1_555 1_555
O8 C29 1_555 1_555
C30 O8 1_555 1_555
H24 C30 1_555 1_555
H25 C30 1_555 1_555
H26 C30 1_555 1_555
C31 N3 1_555 1_555
C32 C31 1_555 1_555
H27 C32 1_555 1_555
C33 C32 1_555 1_555
H28 C33 1_555 1_555
C34 C33 1_555 1_555
F2 C34 1_555 1_555
C35 C34 1_555 1_555
H29 C35 1_555 1_555
C36 C31 1_555 1_555
H30 C36 1_555 1_555
C3 C4 1_555 1_555
C10 C11 1_555 1_555
C17 C18 1_555 1_555
C21 C22 1_555 1_555
C28 C29 1_555 1_555
C35 C36 1_555 1_555

#END
