
#######################################################################
#
#                 Cambridge Crystallographic Data Centre
#                                CCDC 
#
#######################################################################
#
# If this CIF has been generated from an entry in the Cambridge 
# Structural Database, then it will include bibliographic, chemical, 
# crystal, experimental, refinement or atomic coordinate data resulting 
# from the CCDC's data processing and validation procedures.
#
#######################################################################

data_OPUXAA
_chemical_formula_moiety         'C23 H27 F3 O7 S1'
_chemical_name_systematic        
'dimethyl 6,7,8-trimethoxy-9,9-dimethyl-4-((trifluoromethyl)sulfanyl)-1,3,9,9a-tetrahydro-2H-fluorene-2,2-dicarboxylate'
_symmetry_cell_setting           triclinic
_symmetry_space_group_name_H-M   'P -1'
_symmetry_Int_Tables_number      2
_space_group_name_Hall           '-P 1'
loop_
_symmetry_equiv_pos_site_id
_symmetry_equiv_pos_as_xyz
1 x,y,z
2 -x,-y,-z
_cell_length_a                   9.578(2)
_cell_length_b                   10.805(3)
_cell_length_c                   12.575(2)
_cell_angle_alpha                102.754(18)
_cell_angle_beta                 97.366(15)
_cell_angle_gamma                93.699(19)
_cell_volume                     1253
_exptl_crystal_colour            'light yellow'
_exptl_crystal_description       block
_cell_formula_units_Z            2
loop_
_atom_site_label
_atom_site_type_symbol
_atom_site_fract_x
_atom_site_fract_y
_atom_site_fract_z
S1 S 0.40462(13) 0.53328(12) 0.15282(9)
F1 F 0.2486(4) 0.7187(4) 0.2117(4)
F2 F 0.1533(4) 0.5352(4) 0.1960(3)
F3 F 0.3014(4) 0.6241(5) 0.3340(3)
O1 O 0.9668(4) 0.6642(4) 0.4097(3)
O2 O 0.8176(4) 0.7218(5) 0.5275(3)
O3 O 0.7995(4) 0.9671(4) 0.4490(3)
O4 O 0.5753(4) 0.8835(4) 0.4159(3)
O5 O 0.7113(4) 0.8824(3) -0.1660(3)
O6 O 0.4456(4) 0.7995(4) -0.2912(3)
O7 O 0.2459(3) 0.6772(4) -0.2117(2)
C1 C 0.5487(5) 0.6518(4) 0.1985(3)
C2 C 0.6353(5) 0.6454(5) 0.3060(3)
H1 H 0.6761 0.5645 0.2960
H2 H 0.5728 0.6475 0.3611
C3 C 0.7557(5) 0.7539(5) 0.3502(4)
C4 C 0.8278(5) 0.7827(5) 0.2536(3)
H3 H 0.9044 0.8498 0.2818
H4 H 0.8673 0.7071 0.2170
C5 C 0.7204(4) 0.8238(5) 0.1723(3)
H5 H 0.6913 0.9050 0.2108
C6 C 0.5876(4) 0.7312(4) 0.1370(3)
C7 C 0.5290(4) 0.7457(4) 0.0258(3)
C8 C 0.6317(4) 0.8108(4) -0.0147(3)
C9 C 0.7696(4) 0.8466(4) 0.0640(3)
C10 C 0.6049(5) 0.8277(5) -0.1228(4)
C11 C 0.4738(5) 0.7821(5) -0.1858(4)
C12 C 0.3703(5) 0.7198(5) -0.1418(4)
C13 C 0.3959(5) 0.7006(4) -0.0363(3)
H6 H 0.3270 0.6592 -0.0073
C14 C 0.8617(6) 0.7076(5) 0.4307(4)
C15 C 0.9077(8) 0.6806(9) 0.6127(5)
H7 H 0.9087 0.5896 0.5926
H8 H 0.8717 0.7044 0.6814
H9 H 1.0021 0.7204 0.6203
C16 C 0.6971(6) 0.8739(6) 0.4091(4)
C17 C 0.7583(7) 1.0889(6) 0.5061(5)
H10 H 0.7317 1.1387 0.4536
H11 H 0.8365 1.1340 0.5589
H12 H 0.6797 1.0741 0.5434
C18 C 0.2731(6) 0.6053(6) 0.2276(5)
C19 C 0.8776(5) 0.7570(5) 0.0222(4)
H13 H 0.8451 0.6711 0.0224
H14 H 0.9667 0.7813 0.0693
H15 H 0.8891 0.7621 -0.0515
C20 C 0.8307(6) 0.9859(5) 0.0819(4)
H16 H 0.8638 0.9986 0.0159
H17 H 0.9079 1.0047 0.1415
H18 H 0.7584 1.0414 0.0996
C21 C 0.6851(7) 0.9982(6) -0.2006(5)
H19 H 0.6328 0.9778 -0.2736
H20 H 0.7736 1.0454 -0.2004
H21 H 0.6315 1.0488 -0.1508
C22 C 0.4799(8) 0.7003(7) -0.3746(4)
H22 H 0.4837 0.7302 -0.4407
H23 H 0.4090 0.6294 -0.3887
H24 H 0.5703 0.6740 -0.3509
C23 C 0.1400(5) 0.6135(6) -0.1707(4)
H25 H 0.0618 0.5820 -0.2283
H26 H 0.1085 0.6715 -0.1110
H27 H 0.1772 0.5434 -0.1447
loop_
_geom_bond_atom_site_label_1
_geom_bond_atom_site_label_2
_geom_bond_site_symmetry_1
_geom_bond_site_symmetry_2
S1 C1 1_555 1_555
F1 C18 1_555 1_555
F2 C18 1_555 1_555
F3 C18 1_555 1_555
O1 C14 1_555 1_555
O2 C14 1_555 1_555
O3 C16 1_555 1_555
O4 C16 1_555 1_555
O5 C10 1_555 1_555
O6 C11 1_555 1_555
O7 C12 1_555 1_555
C1 C2 1_555 1_555
C2 H1 1_555 1_555
H2 C2 1_555 1_555
C3 C2 1_555 1_555
C4 C3 1_555 1_555
H3 C4 1_555 1_555
H4 C4 1_555 1_555
C5 C4 1_555 1_555
H5 C5 1_555 1_555
C6 C1 1_555 1_555
C7 C6 1_555 1_555
C8 C7 1_555 1_555
C9 C5 1_555 1_555
C10 C8 1_555 1_555
C11 C10 1_555 1_555
C12 C11 1_555 1_555
C13 C7 1_555 1_555
H6 C13 1_555 1_555
C14 C3 1_555 1_555
C15 O2 1_555 1_555
H7 C15 1_555 1_555
H8 C15 1_555 1_555
H9 C15 1_555 1_555
C16 C3 1_555 1_555
C17 O3 1_555 1_555
H10 C17 1_555 1_555
H11 C17 1_555 1_555
H12 C17 1_555 1_555
C18 S1 1_555 1_555
C19 C9 1_555 1_555
H13 C19 1_555 1_555
H14 C19 1_555 1_555
H15 C19 1_555 1_555
C20 C9 1_555 1_555
H16 C20 1_555 1_555
H17 C20 1_555 1_555
H18 C20 1_555 1_555
C21 O5 1_555 1_555
H19 C21 1_555 1_555
H20 C21 1_555 1_555
H21 C21 1_555 1_555
C22 O6 1_555 1_555
H22 C22 1_555 1_555
H23 C22 1_555 1_555
H24 C22 1_555 1_555
C23 O7 1_555 1_555
H25 C23 1_555 1_555
H26 C23 1_555 1_555
H27 C23 1_555 1_555
C5 C6 1_555 1_555
C8 C9 1_555 1_555
C12 C13 1_555 1_555

#END
