
#######################################################################
#
#                 Cambridge Crystallographic Data Centre
#                                CCDC 
#
#######################################################################
#
# If this CIF has been generated from an entry in the Cambridge 
# Structural Database, then it will include bibliographic, chemical, 
# crystal, experimental, refinement or atomic coordinate data resulting 
# from the CCDC's data processing and validation procedures.
#
#######################################################################

data_OQASIJ
_chemical_formula_moiety         'C32 H30 N2 O5 S1,0.5(C1 H4 O1)'
_chemical_name_systematic        
'N-(2-(4-Methoxyphenyl)-1-(2-(4-methoxyphenyl)-2-oxoethyl)-1,4-dihydroisoquinolin-3(2H)-ylidene)-4-methylbenzenesulfonamide methanol solvate'
_symmetry_cell_setting           monoclinic
_symmetry_space_group_name_H-M   'C 2/c'
_symmetry_Int_Tables_number      15
_space_group_name_Hall           '-C 2yn'
loop_
_symmetry_equiv_pos_site_id
_symmetry_equiv_pos_as_xyz
1 x,y,z
2 -x,y,1/2-z
3 1/2+x,1/2+y,z
4 1/2-x,1/2+y,1/2-z
5 -x,-y,-z
6 x,-y,1/2+z
7 1/2-x,1/2-y,-z
8 1/2+x,1/2-y,1/2+z
_cell_length_a                   24.277(10)
_cell_length_b                   10.347(4)
_cell_length_c                   23.279(10)
_cell_angle_alpha                90
_cell_angle_beta                 99.370(5)
_cell_angle_gamma                90
_cell_volume                     5769.53
_exptl_crystal_colour            colorless
_exptl_crystal_description       block
_cell_formula_units_Z            8
loop_
_atom_site_label
_atom_site_type_symbol
_atom_site_fract_x
_atom_site_fract_y
_atom_site_fract_z
C33 C 0.5449(4) 0.8892(13) 0.8172(4)
O6 O 0.5303(3) 0.8573(11) 0.7575(4)
C33A C 0.4551(4) 0.8892(13) 0.6828(4)
O6A O 0.4697(3) 0.8573(11) 0.7425(4)
S1 S 0.80977(3) 0.36527(7) 0.61128(3)
N1 N 0.77462(10) 0.2426(2) 0.62730(11)
N2 N 0.76483(10) 0.0424(2) 0.66260(10)
O1 O 0.83313(10) 0.4380(2) 0.66199(10)
O2 O 0.84814(10) 0.3313(2) 0.57283(11)
O3 O 0.76956(10) 0.1575(2) 0.78130(10)
C1 C 0.75532(13) 0.4562(3) 0.57168(13)
C2 C 0.75534(16) 0.5884(3) 0.57749(15)
H1 H 0.7832 0.6290 0.6034
C3 C 0.71412(18) 0.6600(4) 0.54496(16)
H2 H 0.7143 0.7492 0.5496
C4 C 0.67260(16) 0.6041(4) 0.50566(15)
C5 C 0.67422(15) 0.4713(4) 0.49959(16)
H3 H 0.6473 0.4312 0.4725
C6 C 0.71429(14) 0.3973(3) 0.53222(15)
H4 H 0.7139 0.3079 0.5279
C7 C 0.62742(18) 0.6842(5) 0.47102(19)
H5 H 0.6174 0.7533 0.4948
H6 H 0.5953 0.6310 0.4584
H7 H 0.6407 0.7195 0.4377
C8 C 0.70687(12) 0.0466(3) 0.63700(13)
C9 C 0.69197(14) 0.0259(3) 0.57824(14)
H8 H 0.7194 0.0100 0.5555
C10 C 0.63694(14) 0.0284(4) 0.55283(14)
H9 H 0.6273 0.0168 0.5128
C11 C 0.59596(13) 0.0482(3) 0.58643(15)
C12 C 0.61001(14) 0.0708(3) 0.64471(15)
H10 H 0.5825 0.0866 0.6673
C13 C 0.66579(14) 0.0700(3) 0.66984(14)
H11 H 0.6756 0.0855 0.7095
C14 C 0.79814(12) 0.1421(3) 0.65510(12)
C15 C 0.85891(13) 0.1309(3) 0.67869(15)
H12 H 0.8660 0.1724 0.7165
H13 H 0.8798 0.1776 0.6532
C16 C 0.88028(13) -0.0053(3) 0.68494(13)
C17 C 0.93509(14) -0.0344(4) 0.68270(15)
H14 H 0.9598 0.0317 0.6774
C18 C 0.95404(16) -0.1599(4) 0.68825(17)
H15 H 0.9914 -0.1780 0.6875
C19 C 0.91762(16) -0.2584(4) 0.69499(15)
H16 H 0.9302 -0.3434 0.6977
C20 C 0.86225(14) -0.2310(3) 0.69774(13)
H17 H 0.8376 -0.2975 0.7026
C21 C 0.84362(13) -0.1040(3) 0.69323(12)
C22 C 0.78406(13) -0.0733(3) 0.69740(13)
H18 H 0.7616 -0.1460 0.6797
C23 C 0.77420(14) -0.0643(3) 0.76088(14)
H19 H 0.7344 -0.0693 0.7616
H20 H 0.7917 -0.1379 0.7823
C24 C 0.79666(14) 0.0577(3) 0.79093(14)
C25 C 0.85150(14) 0.0615(3) 0.82964(14)
C26 C 0.88148(17) -0.0475(4) 0.85039(17)
H21 H 0.8673 -0.1290 0.8395
C27 C 0.93153(19) -0.0368(4) 0.88653(19)
H22 H 0.9509 -0.1114 0.9000
C28 C 0.95400(16) 0.0824(4) 0.90350(17)
C29 C 0.92485(16) 0.1916(4) 0.88327(18)
H23 H 0.9393 0.2730 0.8939
C30 C 0.87447(15) 0.1801(4) 0.84741(17)
H24 H 0.8550 0.2548 0.8345
C31 C 1.02794(19) 0.2032(6) 0.9605(2)
H25 H 1.0387 0.2516 0.9289
H26 H 1.0602 0.1876 0.9895
H27 H 1.0009 0.2514 0.9775
O4 O 0.54229(10) 0.0447(3) 0.55650(12)
C32 C 0.49787(16) 0.0697(5) 0.5877(2)
H28 H 0.5011 0.1561 0.6029
H29 H 0.4995 0.0094 0.6193
H30 H 0.4629 0.0604 0.5621
O5 O 1.00420(13) 0.0820(3) 0.93907(14)
loop_
_geom_bond_atom_site_label_1
_geom_bond_atom_site_label_2
_geom_bond_site_symmetry_1
_geom_bond_site_symmetry_2
S1 N1 1_555 1_555
N1 C14 1_555 1_555
N2 C8 1_555 1_555
O1 S1 1_555 1_555
O2 S1 1_555 1_555
O3 C24 1_555 1_555
C1 S1 1_555 1_555
C2 C1 1_555 1_555
H1 C2 1_555 1_555
C3 C2 1_555 1_555
H2 C3 1_555 1_555
C4 C3 1_555 1_555
C5 C4 1_555 1_555
H3 C5 1_555 1_555
C6 C1 1_555 1_555
H4 C6 1_555 1_555
C7 C4 1_555 1_555
H5 C7 1_555 1_555
H6 C7 1_555 1_555
H7 C7 1_555 1_555
C8 C9 1_555 1_555
C9 H8 1_555 1_555
C10 C9 1_555 1_555
H9 C10 1_555 1_555
C11 C10 1_555 1_555
C12 C11 1_555 1_555
H10 C12 1_555 1_555
C13 C8 1_555 1_555
H11 C13 1_555 1_555
C14 N2 1_555 1_555
C15 C14 1_555 1_555
H12 C15 1_555 1_555
H13 C15 1_555 1_555
C16 C15 1_555 1_555
C17 C16 1_555 1_555
H14 C17 1_555 1_555
C18 C17 1_555 1_555
H15 C18 1_555 1_555
C19 C18 1_555 1_555
H16 C19 1_555 1_555
C20 C19 1_555 1_555
H17 C20 1_555 1_555
C21 C16 1_555 1_555
C22 N2 1_555 1_555
H18 C22 1_555 1_555
C23 C22 1_555 1_555
H19 C23 1_555 1_555
H20 C23 1_555 1_555
C24 C23 1_555 1_555
C25 C24 1_555 1_555
C26 C25 1_555 1_555
H21 C26 1_555 1_555
C27 C26 1_555 1_555
H22 C27 1_555 1_555
C28 C27 1_555 1_555
C29 C28 1_555 1_555
H23 C29 1_555 1_555
C30 C25 1_555 1_555
H24 C30 1_555 1_555
C31 H25 1_555 1_555
H26 C31 1_555 1_555
H27 C31 1_555 1_555
O4 C11 1_555 1_555
C32 O4 1_555 1_555
H28 C32 1_555 1_555
H29 C32 1_555 1_555
H30 C32 1_555 1_555
O5 C28 1_555 1_555
C33 O6 1_555 1_555
O6 O6A 1_555 1_555
C33A O6A 1_555 1_555
C5 C6 1_555 1_555
C12 C13 1_555 1_555
C20 C21 1_555 1_555
C21 C22 1_555 1_555
C29 C30 1_555 1_555
C31 O5 1_555 1_555

#END
