
#######################################################################
#
#                 Cambridge Crystallographic Data Centre
#                                CCDC 
#
#######################################################################
#
# If this CIF has been generated from an entry in the Cambridge 
# Structural Database, then it will include bibliographic, chemical, 
# crystal, experimental, refinement or atomic coordinate data resulting 
# from the CCDC's data processing and validation procedures.
#
#######################################################################

data_OQAWIN
_chemical_formula_moiety         'C25 H19 Br1 Cl1 N1 O6'
_chemical_name_systematic        
'1-((4-Bromobenzyl)oxy)-4-(4-chlorophenyl)-5-nitro-1-oxopent-2-en-2-yl benzoate'
_symmetry_cell_setting           orthorhombic
_symmetry_space_group_name_H-M   'P 21 21 21'
_symmetry_Int_Tables_number      19
_space_group_name_Hall           'P 2ac 2ab'
loop_
_symmetry_equiv_pos_site_id
_symmetry_equiv_pos_as_xyz
1 x,y,z
2 1/2-x,-y,1/2+z
3 -x,1/2+y,1/2-z
4 1/2+x,1/2-y,-z
_cell_length_a                   6.0482(2)
_cell_length_b                   15.3621(6)
_cell_length_c                   24.9148(10)
_cell_angle_alpha                90
_cell_angle_beta                 90
_cell_angle_gamma                90
_cell_volume                     2314.91
_exptl_crystal_colour            colorless
_exptl_crystal_description       block
_cell_formula_units_Z            4
loop_
_atom_site_label
_atom_site_type_symbol
_atom_site_fract_x
_atom_site_fract_y
_atom_site_fract_z
Br1 Br 0.15129(5) 0.859072(18) 0.863957(12)
Cl1 Cl 1.41882(14) 0.17707(6) 0.71239(3)
O1 O 0.7386(3) 0.50598(10) 0.93845(6)
O2 O 0.8659(3) 0.42510(10) 1.00710(6)
O3 O 0.6427(3) 0.36721(10) 0.87898(5)
O4 O 0.3330(3) 0.39314(12) 0.92628(6)
O5 O 0.8207(4) -0.02632(11) 0.95635(8)
O6 O 0.6715(4) 0.02801(11) 0.88569(7)
N1 N 0.7734(3) 0.03475(13) 0.92751(8)
C1 C 0.3320(5) 0.77445(15) 0.89865(9)
C2 C 0.5328(5) 0.79930(16) 0.91915(11)
H1 H 0.5788 0.8577 0.9172
C3 C 0.6665(5) 0.73705(15) 0.94280(9)
H2 H 0.8046 0.7534 0.9569
C4 C 0.5997(4) 0.65101(15) 0.94599(9)
C5 C 0.3927(4) 0.62816(15) 0.92594(10)
H3 H 0.3433 0.5703 0.9289
C6 C 0.2599(4) 0.68939(15) 0.90188(10)
H4 H 0.1215 0.6735 0.8878
C7 C 0.7450(4) 0.58399(15) 0.97220(10)
H5 H 0.8969 0.6057 0.9751
H6 H 0.6907 0.5706 1.0083
C8 C 0.7953(4) 0.43150(14) 0.96196(9)
C9 C 0.7595(4) 0.35458(15) 0.92651(8)
C10 C 0.4261(4) 0.39382(15) 0.88352(10)
C11 C 0.3323(4) 0.42202(14) 0.83207(9)
C12 C 0.4433(4) 0.41209(16) 0.78339(9)
H7 H 0.5831 0.3855 0.7825
C13 C 0.3474(5) 0.44144(17) 0.73638(10)
H8 H 0.4209 0.4338 0.7035
C14 C 0.1436(5) 0.48206(17) 0.73778(10)
H9 H 0.0801 0.5028 0.7058
C15 C 0.0334(5) 0.49225(17) 0.78547(11)
H10 H -0.1053 0.5198 0.7861
C16 C 0.1263(4) 0.46197(16) 0.83257(10)
H11 H 0.0497 0.4685 0.8651
C17 C 0.8513(4) 0.27878(14) 0.93713(8)
H12 H 0.9465 0.2765 0.9669
C18 C 0.8190(4) 0.19531(13) 0.90637(8)
H13 H 0.6654 0.1945 0.8926
C19 C 0.8416(4) 0.12234(13) 0.94741(9)
H14 H 0.9962 0.1193 0.9591
H15 H 0.7519 0.1369 0.9789
C20 C 0.9756(4) 0.18820(14) 0.85820(9)
C21 C 1.1814(4) 0.14885(15) 0.86082(9)
H16 H 1.2296 0.1246 0.8934
C22 C 1.3181(4) 0.14465(18) 0.81593(10)
H17 H 1.4563 0.1168 0.8179
C23 C 1.2475(4) 0.18194(17) 0.76850(10)
C24 C 1.0445(5) 0.22141(17) 0.76503(10)
H18 H 0.9975 0.2465 0.7326
C25 C 0.9108(4) 0.22384(16) 0.80954(9)
H19 H 0.7713 0.2504 0.8070
loop_
_geom_bond_atom_site_label_1
_geom_bond_atom_site_label_2
_geom_bond_site_symmetry_1
_geom_bond_site_symmetry_2
Br1 C1 1_555 1_555
Cl1 C23 1_555 1_555
O1 C7 1_555 1_555
O2 C8 1_555 1_555
O3 C9 1_555 1_555
O4 C10 1_555 1_555
O5 N1 1_555 1_555
O6 N1 1_555 1_555
N1 C19 1_555 1_555
C1 C2 1_555 1_555
C2 H1 1_555 1_555
C3 C2 1_555 1_555
H2 C3 1_555 1_555
C4 C3 1_555 1_555
C5 C4 1_555 1_555
H3 C5 1_555 1_555
C6 C1 1_555 1_555
H4 C6 1_555 1_555
C7 C4 1_555 1_555
H5 C7 1_555 1_555
H6 C7 1_555 1_555
C8 O1 1_555 1_555
C9 C8 1_555 1_555
C10 O3 1_555 1_555
C11 C10 1_555 1_555
C12 C11 1_555 1_555
H7 C12 1_555 1_555
C13 C12 1_555 1_555
H8 C13 1_555 1_555
C14 C13 1_555 1_555
H9 C14 1_555 1_555
C15 C14 1_555 1_555
H10 C15 1_555 1_555
C16 C11 1_555 1_555
H11 C16 1_555 1_555
C17 C9 1_555 1_555
H12 C17 1_555 1_555
C18 C17 1_555 1_555
H13 C18 1_555 1_555
C19 C18 1_555 1_555
H14 C19 1_555 1_555
H15 C19 1_555 1_555
C20 C18 1_555 1_555
C21 C20 1_555 1_555
H16 C21 1_555 1_555
C22 C21 1_555 1_555
H17 C22 1_555 1_555
C23 C22 1_555 1_555
C24 C23 1_555 1_555
H18 C24 1_555 1_555
C25 C20 1_555 1_555
H19 C25 1_555 1_555
C5 C6 1_555 1_555
C15 C16 1_555 1_555
C24 C25 1_555 1_555

#END
