
#######################################################################
#
#                 Cambridge Crystallographic Data Centre
#                                CCDC 
#
#######################################################################
#
# If this CIF has been generated from an entry in the Cambridge 
# Structural Database, then it will include bibliographic, chemical, 
# crystal, experimental, refinement or atomic coordinate data resulting 
# from the CCDC's data processing and validation procedures.
#
#######################################################################

data_OQAXIP
_chemical_formula_moiety         'C19 H17 Cl1 O3'
_chemical_name_systematic        
'methyl 4-(4-chlorophenyl)-2-hydroxy-2-(2-phenylvinyl)but-3-enoate'
_symmetry_cell_setting           monoclinic
_symmetry_space_group_name_H-M   'P 21'
_symmetry_Int_Tables_number      4
_space_group_name_Hall           'P 2yb'
loop_
_symmetry_equiv_pos_site_id
_symmetry_equiv_pos_as_xyz
1 x,y,z
2 -x,1/2+y,-z
_cell_length_a                   5.9854(7)
_cell_length_b                   7.5004(8)
_cell_length_c                   18.085(2)
_cell_angle_alpha                90
_cell_angle_beta                 97.565(4)
_cell_angle_gamma                90
_cell_volume                     804.821
_exptl_crystal_colour            colorless
_exptl_crystal_description       plate
_cell_formula_units_Z            2
loop_
_atom_site_label
_atom_site_type_symbol
_atom_site_fract_x
_atom_site_fract_y
_atom_site_fract_z
Cl1 Cl -0.20116(7) 0.55602(7) 0.33395(3)
O1 O 0.4577(2) 0.71188(19) 0.80350(8)
O2 O 0.9135(2) 0.6798(2) 0.69514(9)
H1 H 0.9161 0.7917 0.6974
O3 O 0.6948(3) 0.9185(2) 0.76827(9)
C1 C 0.3867(3) 0.6556(3) 0.45817(11)
H2 H 0.5278 0.7066 0.4513
C2 C 0.2199(3) 0.6417(3) 0.39750(12)
H3 H 0.2455 0.6823 0.3496
C3 C 0.1440(3) 0.5199(3) 0.53778(12)
H4 H 0.1175 0.4783 0.5855
C4 C 0.6259(3) 0.7682(3) 0.76763(11)
C5 C 0.3530(3) 0.5967(2) 0.52911(11)
C6 C -0.0233(3) 0.5042(3) 0.47791(12)
H5 H -0.1636 0.4508 0.4841
C7 C 0.0153(3) 0.5671(3) 0.40846(10)
C8 C 0.9936(3) 0.4317(3) 0.80769(12)
H6 H 1.1085 0.4968 0.7880
C9 C 0.7830(3) 0.4633(3) 0.77727(11)
H7 H 0.6669 0.3870 0.7897
C10 C 0.5331(3) 0.6229(3) 0.59158(12)
H8 H 0.6631 0.6854 0.5809
C11 C 0.5330(3) 0.5682(3) 0.66146(10)
H9 H 0.4114 0.4967 0.6730
C12 C 1.3631(3) 0.2144(3) 0.96617(12)
H10 H 1.5146 0.2234 0.9893
C13 C 1.2891(3) 0.3181(3) 0.90420(12)
H11 H 1.3911 0.3985 0.8856
C14 C 1.0672(3) 0.3069(3) 0.86849(11)
C15 C 0.9231(3) 0.1841(3) 0.89625(12)
H12 H 0.7731 0.1710 0.8721
C16 C 0.7198(3) 0.6156(3) 0.72358(11)
C17 C 0.9963(3) 0.0814(3) 0.95847(12)
H13 H 0.8958 -0.0007 0.9768
C18 C 1.2156(3) 0.0976(3) 0.99432(12)
H14 H 1.2640 0.0292 1.0377
C19 C 0.3565(4) 0.8446(3) 0.84700(13)
H15 H 0.4730 0.8975 0.8836
H16 H 0.2416 0.7880 0.8730
H17 H 0.2865 0.9379 0.8138
loop_
_geom_bond_atom_site_label_1
_geom_bond_atom_site_label_2
_geom_bond_site_symmetry_1
_geom_bond_site_symmetry_2
Cl1 C7 1_555 1_555
O1 C4 1_555 1_555
O2 H1 1_555 1_555
O3 C4 1_555 1_555
C1 H2 1_555 1_555
C2 C1 1_555 1_555
H3 C2 1_555 1_555
C3 H4 1_555 1_555
C4 C16 1_555 1_555
C5 C1 1_555 1_555
C6 C3 1_555 1_555
H5 C6 1_555 1_555
C7 C2 1_555 1_555
C8 H6 1_555 1_555
C9 C8 1_555 1_555
H7 C9 1_555 1_555
C10 C5 1_555 1_555
H8 C10 1_555 1_555
C11 C10 1_555 1_555
H9 C11 1_555 1_555
C12 H10 1_555 1_555
C13 C12 1_555 1_555
H11 C13 1_555 1_555
C14 C8 1_555 1_555
C15 C14 1_555 1_555
H12 C15 1_555 1_555
C16 O2 1_555 1_555
C17 C15 1_555 1_555
H13 C17 1_555 1_555
C18 C12 1_555 1_555
H14 C18 1_555 1_555
C19 O1 1_555 1_555
H15 C19 1_555 1_555
H16 C19 1_555 1_555
H17 C19 1_555 1_555
C3 C5 1_555 1_555
C6 C7 1_555 1_555
C9 C16 1_555 1_555
C11 C16 1_555 1_555
C13 C14 1_555 1_555
C17 C18 1_555 1_555

#END
