
#######################################################################
#
#                 Cambridge Crystallographic Data Centre
#                                CCDC 
#
#######################################################################
#
# If this CIF has been generated from an entry in the Cambridge 
# Structural Database, then it will include bibliographic, chemical, 
# crystal, experimental, refinement or atomic coordinate data resulting 
# from the CCDC's data processing and validation procedures.
#
#######################################################################

data_OQEDIZ
_chemical_formula_moiety         'C56 H68 P2,0.5(C7 H16)'
_chemical_name_systematic        
'indeno[1,2-b]fluorene-6,12-diylidenebis((2,4,6-tri-t-butylphenyl)phosphine) 3-methylhexane'
_symmetry_cell_setting           monoclinic
_symmetry_space_group_name_H-M   'P 21/n'
_symmetry_Int_Tables_number      14
_space_group_name_Hall           '-P 2yn'
loop_
_symmetry_equiv_pos_site_id
_symmetry_equiv_pos_as_xyz
1 x,y,z
2 1/2-x,1/2+y,1/2-z
3 -x,-y,-z
4 1/2+x,1/2-y,1/2+z
_cell_length_a                   13.840(3)
_cell_length_b                   26.967(5)
_cell_length_c                   14.534(3)
_cell_angle_alpha                90
_cell_angle_beta                 95.30(3)
_cell_angle_gamma                90
_cell_volume                     5401.24
_exptl_crystal_colour            orange
_exptl_crystal_description       block
_cell_formula_units_Z            4
loop_
_atom_site_label
_atom_site_type_symbol
_atom_site_fract_x
_atom_site_fract_y
_atom_site_fract_z
P1 P 0.85840(9) 0.18315(4) 1.08577(8)
P2 P 0.72464(9) 0.45711(4) 0.83478(8)
C1 C 0.6923(3) 0.23926(17) 1.0829(3)
C2 C 0.6377(4) 0.20820(18) 1.1333(3)
H1 H 0.6626 0.1778 1.1543
C3 C 0.5462(4) 0.2226(2) 1.1523(3)
H2 H 0.5095 0.2018 1.1863
C4 C 0.5083(4) 0.2677(2) 1.1215(3)
H3 H 0.4467 0.2768 1.1357
C5 C 0.5606(4) 0.29940(19) 1.0697(3)
H4 H 0.5345 0.3295 1.0485
C6 C 0.6534(3) 0.28495(17) 1.0504(3)
C7 C 0.7930(3) 0.23425(17) 1.0554(3)
C8 C 0.8107(3) 0.28034(16) 1.0043(3)
C9 C 0.7254(3) 0.31017(17) 1.0000(3)
C10 C 0.7197(3) 0.35524(16) 0.9532(3)
H5 H 0.6632 0.3741 0.9498
C11 C 0.8007(3) 0.37127(16) 0.9118(3)
C12 C 0.8863(3) 0.34175(15) 0.9178(3)
C13 C 0.8919(3) 0.29676(16) 0.9634(3)
H6 H 0.9484 0.2779 0.9667
C14 C 0.8167(3) 0.41622(16) 0.8566(3)
C15 C 0.9174(3) 0.41232(15) 0.8307(3)
C16 C 0.9589(3) 0.36780(15) 0.8684(3)
C17 C 1.0531(3) 0.35539(16) 0.8576(3)
H7 H 1.0790 0.3258 0.8817
C18 C 1.1098(3) 0.38742(16) 0.8102(3)
H8 H 1.1741 0.3795 0.8031
C19 C 1.0704(4) 0.43097(18) 0.7736(3)
H9 H 1.1090 0.4523 0.7425
C20 C 0.9740(3) 0.44372(17) 0.7823(3)
H10 H 0.9480 0.4728 0.7560
C21 C 0.9790(3) 0.19281(15) 1.0431(3)
C22 C 0.9975(3) 0.17796(17) 0.9530(3)
C23 C 1.0841(4) 0.1938(2) 0.9200(3)
H11 H 1.0951 0.1856 0.8597
C24 C 1.1543(4) 0.22105(19) 0.9716(3)
C25 C 1.1380(4) 0.23041(18) 1.0615(3)
H12 H 1.1858 0.2472 1.0985
C26 C 1.0543(3) 0.21644(15) 1.1010(3)
C27 C 0.9272(4) 0.14574(18) 0.8866(3)
C28 C 0.8861(4) 0.10201(19) 0.9367(4)
H13 H 0.8457 0.1141 0.9821
H14 H 0.9383 0.0829 0.9666
H15 H 0.8482 0.0816 0.8929
C29 C 0.9801(4) 0.1235(2) 0.8079(4)
H16 H 1.0365 0.1058 0.8333
H17 H 0.9995 0.1497 0.7687
H18 H 0.9374 0.1012 0.7723
C30 C 0.8447(4) 0.1784(2) 0.8413(4)
H19 H 0.8029 0.1586 0.7995
H20 H 0.8717 0.2049 0.8080
H21 H 0.8079 0.1919 0.8883
C31 C 1.2505(4) 0.2373(2) 0.9342(4)
C32 C 1.2420(5) 0.2412(3) 0.8315(5)
H22 H 1.1917 0.2645 0.8119
H23 H 1.3025 0.2525 0.8116
H24 H 1.2263 0.2093 0.8049
C33 C 1.3291(4) 0.2010(2) 0.9728(4)
H25 H 1.3309 0.2001 1.0390
H26 H 1.3148 0.1684 0.9484
H27 H 1.3910 0.2116 0.9552
C34 C 1.2828(4) 0.2902(2) 0.9720(5)
H28 H 1.2894 0.2896 1.0383
H29 H 1.3439 0.2988 0.9500
H30 H 1.2347 0.3142 0.9507
C35 C 1.0490(4) 0.22810(18) 1.2056(3)
C36 C 1.0162(4) 0.1822(2) 1.2580(3)
H31 H 0.9496 0.1750 1.2384
H32 H 1.0229 0.1888 1.3232
H33 H 1.0558 0.1543 1.2451
C37 C 1.1494(4) 0.2416(2) 1.2539(4)
H34 H 1.1948 0.2157 1.2437
H35 H 1.1447 0.2453 1.3191
H36 H 1.1713 0.2722 1.2291
C38 C 0.9825(4) 0.2722(2) 1.2184(4)
H37 H 1.0033 0.3000 1.1840
H38 H 0.9854 0.2806 1.2827
H39 H 0.9171 0.2636 1.1964
C39 C 0.7711(3) 0.50142(16) 0.7528(3)
C40 C 0.7633(3) 0.49021(17) 0.6569(3)
C41 C 0.8174(4) 0.51808(16) 0.6001(3)
H40 H 0.8158 0.5094 0.5381
C42 C 0.8732(4) 0.55791(16) 0.6308(3)
C43 C 0.8717(4) 0.57173(17) 0.7227(3)
H41 H 0.9058 0.5999 0.7434
C44 C 0.8212(3) 0.54528(16) 0.7853(3)
C45 C 0.6963(4) 0.44853(18) 0.6114(3)
C46 C 0.5943(4) 0.4519(2) 0.6431(4)
H42 H 0.5538 0.4269 0.6124
H43 H 0.5676 0.4841 0.6282
H44 H 0.5974 0.4469 0.7087
C47 C 0.6829(4) 0.4549(2) 0.5052(3)
H45 H 0.7437 0.4492 0.4801
H46 H 0.6610 0.4880 0.4904
H47 H 0.6357 0.4315 0.4793
C48 C 0.7395(4) 0.39664(18) 0.6293(4)
H48 H 0.8057 0.3964 0.6147
H49 H 0.7028 0.3729 0.5911
H50 H 0.7369 0.3881 0.6931
C49 C 0.9358(4) 0.58810(18) 0.5682(3)
C50 C 0.9221(5) 0.5721(2) 0.4679(4)
H51 H 0.9391 0.5377 0.4632
H52 H 0.9630 0.5917 0.4323
H53 H 0.8555 0.5767 0.4446
C51 C 0.9109(4) 0.64312(18) 0.5737(4)
H54 H 0.9528 0.6619 0.5378
H55 H 0.9195 0.6538 0.6369
H56 H 0.8446 0.6482 0.5499
C52 C 1.0442(4) 0.5810(2) 0.6033(5)
H57 H 1.0592 0.5463 0.6062
H58 H 1.0563 0.5954 0.6637
H59 H 1.0842 0.5971 0.5616
C53 C 0.8243(4) 0.56488(18) 0.8861(3)
C54 C 0.7229(5) 0.5665(2) 0.9195(4)
H60 H 0.6813 0.5865 0.8782
H61 H 0.7265 0.5805 0.9805
H62 H 0.6972 0.5335 0.9209
C55 C 0.8928(5) 0.53313(19) 0.9522(3)
H63 H 0.9018 0.5490 1.0115
H64 H 0.9543 0.5298 0.9274
H65 H 0.8647 0.5009 0.9588
C56 C 0.8649(5) 0.61811(18) 0.8934(3)
H66 H 0.8272 0.6392 0.8505
H67 H 0.9312 0.6181 0.8791
H68 H 0.8615 0.6303 0.9551
C57 C 0.8430(10) 0.4266(8) 0.1437(12)
H69 H 0.8240 0.4366 0.0812
H70 H 0.8851 0.3983 0.1435
H71 H 0.8766 0.4534 0.1762
C58 C 0.5687(12) 0.5762(5) 0.1284(12)
H72 H 0.5184 0.5845 0.1670
H73 H 0.5554 0.5918 0.0692
H74 H 0.6300 0.5876 0.1568
C59 C 0.6593(11) 0.4961(4) 0.1724(9)
H75 H 0.7158 0.5096 0.1449
C60 C 0.6728(13) 0.5143(6) 0.2726(8)
H76 H 0.6331 0.4946 0.3092
H77 H 0.6538 0.5484 0.2753
H78 H 0.7396 0.5110 0.2961
C61 C 0.5721(11) 0.5210(5) 0.1161(10)
H79 H 0.5753 0.5137 0.0511
H80 H 0.5125 0.5068 0.1345
C62 C 0.7546(10) 0.4134(5) 0.1907(11)
H81 H 0.7423 0.3781 0.1828
H82 H 0.7676 0.4197 0.2564
C63 C 0.6657(10) 0.4412(4) 0.1555(11)
H83 H 0.6111 0.4258 0.1817
H84 H 0.6563 0.4360 0.0892
loop_
_geom_bond_atom_site_label_1
_geom_bond_atom_site_label_2
_geom_bond_site_symmetry_1
_geom_bond_site_symmetry_2
P1 C7 1_555 1_555
P2 C14 1_555 1_555
C1 C2 1_555 1_555
C2 H1 1_555 1_555
C3 C2 1_555 1_555
H2 C3 1_555 1_555
C4 C3 1_555 1_555
H3 C4 1_555 1_555
C5 C4 1_555 1_555
H4 C5 1_555 1_555
C6 C1 1_555 1_555
C7 C1 1_555 1_555
C8 C7 1_555 1_555
C9 C6 1_555 1_555
C10 C9 1_555 1_555
H5 C10 1_555 1_555
C11 C10 1_555 1_555
C12 C11 1_555 1_555
C13 C8 1_555 1_555
H6 C13 1_555 1_555
C14 C11 1_555 1_555
C15 C14 1_555 1_555
C16 C12 1_555 1_555
C17 C16 1_555 1_555
H7 C17 1_555 1_555
C18 C17 1_555 1_555
H8 C18 1_555 1_555
C19 C18 1_555 1_555
H9 C19 1_555 1_555
C20 C15 1_555 1_555
H10 C20 1_555 1_555
C21 P1 1_555 1_555
C22 C21 1_555 1_555
C23 C22 1_555 1_555
H11 C23 1_555 1_555
C24 C23 1_555 1_555
C25 C24 1_555 1_555
H12 C25 1_555 1_555
C26 C21 1_555 1_555
C27 C22 1_555 1_555
C28 C27 1_555 1_555
H13 C28 1_555 1_555
H14 C28 1_555 1_555
H15 C28 1_555 1_555
C29 C27 1_555 1_555
H16 C29 1_555 1_555
H17 C29 1_555 1_555
H18 C29 1_555 1_555
C30 C27 1_555 1_555
H19 C30 1_555 1_555
H20 C30 1_555 1_555
H21 C30 1_555 1_555
C31 C24 1_555 1_555
C32 C31 1_555 1_555
H22 C32 1_555 1_555
H23 C32 1_555 1_555
H24 C32 1_555 1_555
C33 C31 1_555 1_555
H25 C33 1_555 1_555
H26 C33 1_555 1_555
H27 C33 1_555 1_555
C34 C31 1_555 1_555
H28 C34 1_555 1_555
H29 C34 1_555 1_555
H30 C34 1_555 1_555
C35 C26 1_555 1_555
C36 C35 1_555 1_555
H31 C36 1_555 1_555
H32 C36 1_555 1_555
H33 C36 1_555 1_555
C37 C35 1_555 1_555
H34 C37 1_555 1_555
H35 C37 1_555 1_555
H36 C37 1_555 1_555
C38 C35 1_555 1_555
H37 C38 1_555 1_555
H38 C38 1_555 1_555
H39 C38 1_555 1_555
C39 P2 1_555 1_555
C40 C39 1_555 1_555
C41 C40 1_555 1_555
H40 C41 1_555 1_555
C42 C41 1_555 1_555
C43 C42 1_555 1_555
H41 C43 1_555 1_555
C44 C39 1_555 1_555
C45 C40 1_555 1_555
C46 C45 1_555 1_555
H42 C46 1_555 1_555
H43 C46 1_555 1_555
H44 C46 1_555 1_555
C47 C45 1_555 1_555
H45 C47 1_555 1_555
H46 C47 1_555 1_555
H47 C47 1_555 1_555
C48 C45 1_555 1_555
H48 C48 1_555 1_555
H49 C48 1_555 1_555
H50 C48 1_555 1_555
C49 C42 1_555 1_555
C50 C49 1_555 1_555
H51 C50 1_555 1_555
H52 C50 1_555 1_555
H53 C50 1_555 1_555
C51 C49 1_555 1_555
H54 C51 1_555 1_555
H55 C51 1_555 1_555
H56 C51 1_555 1_555
C52 C49 1_555 1_555
H57 C52 1_555 1_555
H58 C52 1_555 1_555
H59 C52 1_555 1_555
C53 C44 1_555 1_555
C54 C53 1_555 1_555
H60 C54 1_555 1_555
H61 C54 1_555 1_555
H62 C54 1_555 1_555
C55 C53 1_555 1_555
H63 C55 1_555 1_555
H64 C55 1_555 1_555
H65 C55 1_555 1_555
C56 C53 1_555 1_555
H66 C56 1_555 1_555
H67 C56 1_555 1_555
H68 C56 1_555 1_555
C57 H69 1_555 1_555
H70 C57 1_555 1_555
H71 C57 1_555 1_555
C58 H72 1_555 1_555
H73 C58 1_555 1_555
H74 C58 1_555 1_555
C59 H75 1_555 1_555
C60 C59 1_555 1_555
H76 C60 1_555 1_555
H77 C60 1_555 1_555
H78 C60 1_555 1_555
C61 C58 1_555 1_555
H79 C61 1_555 1_555
H80 C61 1_555 1_555
C62 C57 1_555 1_555
H81 C62 1_555 1_555
H82 C62 1_555 1_555
C63 C59 1_555 1_555
H83 C63 1_555 1_555
H84 C63 1_555 1_555
C5 C6 1_555 1_555
C8 C9 1_555 1_555
C12 C13 1_555 1_555
C15 C16 1_555 1_555
C19 C20 1_555 1_555
C25 C26 1_555 1_555
C43 C44 1_555 1_555
C59 C61 1_555 1_555
C62 C63 1_555 1_555

#END
