
#######################################################################
#
#                 Cambridge Crystallographic Data Centre
#                                CCDC 
#
#######################################################################
#
# If this CIF has been generated from an entry in the Cambridge 
# Structural Database, then it will include bibliographic, chemical, 
# crystal, experimental, refinement or atomic coordinate data resulting 
# from the CCDC's data processing and validation procedures.
#
#######################################################################

data_OQEKOM
_chemical_formula_moiety         'C11 H12 O3'
_chemical_name_systematic        '2-hydroxy-2-methyl-4-phenylbut-3-enoic acid'
_symmetry_cell_setting           orthorhombic
_symmetry_space_group_name_H-M   'P 21 21 21'
_symmetry_Int_Tables_number      19
_space_group_name_Hall           'P 2ac 2ab'
loop_
_symmetry_equiv_pos_site_id
_symmetry_equiv_pos_as_xyz
1 x,y,z
2 1/2-x,-y,1/2+z
3 -x,1/2+y,1/2-z
4 1/2+x,1/2-y,-z
_cell_length_a                   5.8398(2)
_cell_length_b                   21.5974(8)
_cell_length_c                   23.1903(8)
_cell_angle_alpha                90
_cell_angle_beta                 90
_cell_angle_gamma                90
_cell_volume                     2924.86
_exptl_crystal_colour            colorless
_exptl_crystal_description       plate
_cell_formula_units_Z            12
loop_
_atom_site_label
_atom_site_type_symbol
_atom_site_fract_x
_atom_site_fract_y
_atom_site_fract_z
O1 O 0.7408(3) 0.33120(8) 0.51800(7)
H1 H 0.7082 0.2934 0.5157
O2 O 0.3192(3) 0.29270(9) 0.49325(8)
O3 O 0.1561(3) 0.36810(8) 0.54534(7)
H2 H 0.0341 0.3526 0.5327
C1 C 0.5600(4) 0.36322(11) 0.54647(9)
C2 C 0.5694(4) 0.35618(10) 0.61147(9)
H3 H 0.4567 0.3770 0.6337
C3 C 0.7249(4) 0.32280(11) 0.63930(9)
H4 H 0.8269 0.2990 0.6164
C4 C 0.7547(4) 0.31915(10) 0.70241(9)
C5 C 0.5896(5) 0.33956(10) 0.74144(10)
H5 H 0.4471 0.3548 0.7277
C6 C 0.6323(5) 0.33778(11) 0.80062(10)
H6 H 0.5185 0.3515 0.8269
C7 C 0.8404(5) 0.31604(11) 0.82123(10)
H7 H 0.8706 0.3159 0.8615
C8 C 1.0041(5) 0.29455(11) 0.78282(10)
H8 H 1.1456 0.2789 0.7968
C9 C 0.9610(5) 0.29597(11) 0.72386(10)
H9 H 1.0736 0.2810 0.6978
C10 C 0.5840(4) 0.43137(11) 0.52966(9)
H10 H 0.7317 0.4472 0.5433
H11 H 0.4597 0.4553 0.5473
H12 H 0.5759 0.4353 0.4876
C11 C 0.3315(4) 0.33705(11) 0.52500(9)
O4 O 0.7498(3) 0.64329(8) 0.56050(6)
H13 H 0.7174 0.6315 0.5270
O5 O 0.3299(3) 0.61578(8) 0.52396(7)
O6 O 0.1659(3) 0.68362(8) 0.58449(7)
H14 H 0.0442 0.6682 0.5716
C12 C 0.5706(4) 0.68199(11) 0.58182(9)
C13 C 0.5769(4) 0.68186(10) 0.64703(9)
H15 H 0.4672 0.7065 0.6667
C14 C 0.7242(4) 0.64989(10) 0.67867(9)
H16 H 0.8289 0.6240 0.6587
C15 C 0.7404(5) 0.65089(10) 0.74224(9)
C16 C 0.5696(5) 0.67593(11) 0.77750(9)
H17 H 0.4324 0.6914 0.7608
C17 C 0.6001(5) 0.67826(11) 0.83706(10)
H18 H 0.4837 0.6954 0.8608
C18 C 0.7992(5) 0.65571(12) 0.86191(10)
H19 H 0.8205 0.6582 0.9025
C19 C 0.9661(5) 0.62964(12) 0.82765(10)
H20 H 1.1010 0.6133 0.8447
C20 C 0.9377(5) 0.62716(11) 0.76795(10)
H21 H 1.0537 0.6092 0.7446
C21 C 0.5973(5) 0.74813(11) 0.55851(10)
H22 H 0.7457 0.7649 0.5705
H23 H 0.4742 0.7742 0.5738
H24 H 0.5888 0.7475 0.5163
C22 C 0.3419(4) 0.65633(10) 0.56045(9)
O7 O 0.2411(3) 0.56869(8) 0.41568(7)
H25 H 0.2200 0.5828 0.4490
O8 O -0.1790(3) 0.60268(8) 0.44724(7)
O9 O -0.3422(3) 0.52477(8) 0.39785(7)
H26 H -0.4642 0.5426 0.4075
C23 C 0.0627(4) 0.52645(11) 0.40183(9)
C24 C 0.0760(4) 0.51091(11) 0.33836(9)
H27 H -0.0338 0.4831 0.3228
C25 C 0.2334(4) 0.53423(10) 0.30343(9)
H28 H 0.3338 0.5642 0.3195
C26 C 0.2693(4) 0.51850(10) 0.24200(9)
C27 C 0.1068(4) 0.48740(11) 0.20852(9)
H29 H -0.0370 0.4765 0.2248
C28 C 0.1552(5) 0.47239(11) 0.15146(9)
H30 H 0.0436 0.4516 0.1288
C29 C 0.3647(5) 0.48756(11) 0.12737(9)
H31 H 0.3976 0.4766 0.0886
C30 C 0.5262(5) 0.51880(11) 0.16008(10)
H32 H 0.6701 0.5294 0.1437
C31 C 0.4777(5) 0.53471(11) 0.21699(9)
H33 H 0.5880 0.5568 0.2390
C32 C 0.0864(5) 0.46678(12) 0.43747(9)
H34 H 0.2325 0.4467 0.4284
H35 H -0.0399 0.4386 0.4281
H36 H 0.0817 0.4769 0.4786
C33 C -0.1664(4) 0.55616(11) 0.41768(9)
loop_
_geom_bond_atom_site_label_1
_geom_bond_atom_site_label_2
_geom_bond_site_symmetry_1
_geom_bond_site_symmetry_2
O1 H1 1_555 1_555
O2 C11 1_555 1_555
O3 H2 1_555 1_555
C1 O1 1_555 1_555
C2 C1 1_555 1_555
H3 C2 1_555 1_555
C3 C2 1_555 1_555
H4 C3 1_555 1_555
C4 C3 1_555 1_555
C5 C4 1_555 1_555
H5 C5 1_555 1_555
C6 C5 1_555 1_555
H6 C6 1_555 1_555
C7 C6 1_555 1_555
H7 C7 1_555 1_555
C8 C7 1_555 1_555
H8 C8 1_555 1_555
C9 C4 1_555 1_555
H9 C9 1_555 1_555
C10 C1 1_555 1_555
H10 C10 1_555 1_555
H11 C10 1_555 1_555
H12 C10 1_555 1_555
C11 O3 1_555 1_555
O4 H13 1_555 1_555
O5 C22 1_555 1_555
O6 H14 1_555 1_555
C12 O4 1_555 1_555
C13 C12 1_555 1_555
H15 C13 1_555 1_555
C14 C13 1_555 1_555
H16 C14 1_555 1_555
C15 C14 1_555 1_555
C16 C15 1_555 1_555
H17 C16 1_555 1_555
C17 C16 1_555 1_555
H18 C17 1_555 1_555
C18 C17 1_555 1_555
H19 C18 1_555 1_555
C19 C18 1_555 1_555
H20 C19 1_555 1_555
C20 C15 1_555 1_555
H21 C20 1_555 1_555
C21 C12 1_555 1_555
H22 C21 1_555 1_555
H23 C21 1_555 1_555
H24 C21 1_555 1_555
C22 O6 1_555 1_555
O7 H25 1_555 1_555
O8 C33 1_555 1_555
O9 H26 1_555 1_555
C23 O7 1_555 1_555
C24 C23 1_555 1_555
H27 C24 1_555 1_555
C25 C24 1_555 1_555
H28 C25 1_555 1_555
C26 C25 1_555 1_555
C27 C26 1_555 1_555
H29 C27 1_555 1_555
C28 C27 1_555 1_555
H30 C28 1_555 1_555
C29 C28 1_555 1_555
H31 C29 1_555 1_555
C30 C29 1_555 1_555
H32 C30 1_555 1_555
C31 C26 1_555 1_555
H33 C31 1_555 1_555
C32 C23 1_555 1_555
H34 C32 1_555 1_555
H35 C32 1_555 1_555
H36 C32 1_555 1_555
C33 O9 1_555 1_555
C1 C11 1_555 1_555
C8 C9 1_555 1_555
C12 C22 1_555 1_555
C19 C20 1_555 1_555
C23 C33 1_555 1_555
C30 C31 1_555 1_555

#END
