
#######################################################################
#
#                 Cambridge Crystallographic Data Centre
#                                CCDC 
#
#######################################################################
#
# If this CIF has been generated from an entry in the Cambridge 
# Structural Database, then it will include bibliographic, chemical, 
# crystal, experimental, refinement or atomic coordinate data resulting 
# from the CCDC's data processing and validation procedures.
#
#######################################################################

data_OQESAG
_chemical_formula_moiety         'C10 H9 N3 S3,C9 H6 O1 S2'
_chemical_name_systematic        
'2-(bis(2-thienyl)methylene)hydrazinecarbothioamide bis(2-thienyl)methanone'
_symmetry_cell_setting           monoclinic
_symmetry_space_group_name_H-M   'P 21/n'
_symmetry_Int_Tables_number      14
_space_group_name_Hall           '-P 2yn'
loop_
_symmetry_equiv_pos_site_id
_symmetry_equiv_pos_as_xyz
1 x,y,z
2 1/2-x,1/2+y,1/2-z
3 -x,-y,-z
4 1/2+x,1/2-y,1/2+z
_cell_length_a                   9.4173(7)
_cell_length_b                   16.2773(13)
_cell_length_c                   13.7892(12)
_cell_angle_alpha                90
_cell_angle_beta                 90.702(8)
_cell_angle_gamma                90
_cell_volume                     2113.56
_exptl_crystal_colour            yellow
_exptl_crystal_description       'rectangular blocks'
_cell_formula_units_Z            4
loop_
_atom_site_label
_atom_site_type_symbol
_atom_site_fract_x
_atom_site_fract_y
_atom_site_fract_z
S1 S 0.13895(8) 0.09923(4) 0.94563(5)
S2 S 0.12743(13) -0.11835(6) 0.53024(8)
N1 N 0.1684(3) 0.05693(15) 0.76421(15)
H1 H 0.2198 0.1005 0.7601
N2 N 0.0279(3) -0.02878(14) 0.85094(16)
H2 H 0.0160 -0.0575 0.7991
H3 H -0.0125 -0.0433 0.9038
N3 N 0.1486(3) 0.00797(14) 0.68432(15)
C1 C 0.1079(3) 0.03728(16) 0.84931(18)
C2 C 0.2056(3) 0.03276(17) 0.60410(19)
C3 C 0.2180(11) -0.0038(6) 0.4252(5)
H4 H 0.2505 0.0470 0.4041
C4 C 0.1919(5) -0.0711(3) 0.3620(3)
H5 H 0.225(5) -0.077(3) 0.296(3)
C5 C 0.1906(3) -0.02116(19) 0.5204(2)
C6 C 0.1440(4) -0.1363(3) 0.4113(3)
H6 H 0.1222 -0.1864 0.3824
C7 C 0.3648(6) 0.2484(3) 0.5934(3)
C8 C 0.4812(5) 0.2044(3) 0.5797(3)
C9 C 0.2876(3) 0.10992(19) 0.5941(2)
S3 S 0.4659(5) 0.1054(4) 0.5783(5)
C10 C 0.243(3) 0.1862(13) 0.5934(18)
S4 S 0.01331(10) -0.30737(5) 0.63179(7)
S5 S -0.35687(14) -0.10532(8) 0.80821(9)
C11 C -0.1627(3) -0.28548(17) 0.6555(2)
O1 O -0.0908(3) -0.16899(15) 0.74080(19)
C12 C -0.1917(4) -0.20965(18) 0.7095(2)
C13 C -0.1737(4) -0.4074(2) 0.5706(2)
H7 H -0.2162 -0.4526 0.5409
C14 C -0.3372(4) -0.18270(19) 0.7267(2)
C15 C -0.5334(5) -0.1005(3) 0.7884(3)
H8 H -0.5929 -0.0639 0.8199
C16 C -0.2496(4) -0.34571(18) 0.6181(2)
H9 H -0.3479 -0.3455 0.6237
C17 C -0.5784(5) -0.1546(3) 0.7231(4)
H10 H -0.6748(13) -0.160(3) 0.709(4)
C18 C -0.0323(4) -0.3942(2) 0.5723(3)
H11 H 0.030(4) -0.425(2) 0.545(3)
C19 C -0.4704(4) -0.2038(2) 0.6842(3)
H12 H -0.484(4) -0.2481(14) 0.643(2)
S6? S 0.2136(7) 0.2043(3) 0.6090(4)
C20? C 0.4219(17) 0.1131(15) 0.5639(19)
H13? H 0.4239 0.0998 0.4946
S7? S 0.243(4) 0.013(2) 0.4139(16)
H14? H 0.5300 0.2232 0.5214
H15? H 0.154(10) 0.204(6) 0.650(7)
H16? H 0.358(5) 0.300(3) 0.591(3)
loop_
_geom_bond_atom_site_label_1
_geom_bond_atom_site_label_2
_geom_bond_site_symmetry_1
_geom_bond_site_symmetry_2
S1 C1 1_555 1_555
S2 C5 1_555 1_555
N1 H1 1_555 1_555
N2 H2 1_555 1_555
H3 N2 1_555 1_555
N3 N1 1_555 1_555
C1 N1 1_555 1_555
C2 N3 1_555 1_555
C3 H4 1_555 1_555
C4 C3 1_555 1_555
H5 C4 1_555 1_555
C5 C2 1_555 1_555
C6 S2 1_555 1_555
H6 C6 1_555 1_555
C7 C8 1_555 1_555
C8 S3 1_555 1_555
C9 C2 1_555 1_555
S3 C9 1_555 1_555
C10 C7 1_555 1_555
S4 C11 1_555 1_555
S5 C14 1_555 1_555
C11 C12 1_555 1_555
O1 C12 1_555 1_555
C12 C14 1_555 1_555
C13 H7 1_555 1_555
C14 C19 1_555 1_555
C15 S5 1_555 1_555
H8 C15 1_555 1_555
C16 C11 1_555 1_555
H9 C16 1_555 1_555
C17 C15 1_555 1_555
H10 C17 1_555 1_555
C18 S4 1_555 1_555
H11 C18 1_555 1_555
C19 C17 1_555 1_555
H12 C19 1_555 1_555
N2 C1 1_555 1_555
C3 C5 1_555 1_555
C4 C6 1_555 1_555
C9 C10 1_555 1_555
C13 C16 1_555 1_555
C13 C18 1_555 1_555

#END
