
#######################################################################
#
#                 Cambridge Crystallographic Data Centre
#                                CCDC 
#
#######################################################################
#
# If this CIF has been generated from an entry in the Cambridge 
# Structural Database, then it will include bibliographic, chemical, 
# crystal, experimental, refinement or atomic coordinate data resulting 
# from the CCDC's data processing and validation procedures.
#
#######################################################################

data_OQIXET
_chemical_name_common            
2,2'-(1,2-ethanediyl)bis[3a,4,7,7a-tetrahydro-4,7-epoxy-1,3-bishydroisoi-ndole-1,3-dione]
_chemical_formula_moiety         'C18 H16 N2 O6'
_chemical_name_systematic        
4-(2-(3,5-dioxo-10-oxa-4-azatricyclo[5.2.1.0^2,6^]dec-8-en-4-yl)ethyl)-10-oxa-4-azatricyclo[5.2.1.0^2,6^]dec-8-ene-3,5-dione
_symmetry_cell_setting           triclinic
_symmetry_space_group_name_H-M   'P -1'
_symmetry_Int_Tables_number      2
_space_group_name_Hall           '-P 1'
loop_
_symmetry_equiv_pos_site_id
_symmetry_equiv_pos_as_xyz
1 x,y,z
2 -x,-y,-z
_cell_length_a                   8.239(4)
_cell_length_b                   10.295(5)
_cell_length_c                   10.351(5)
_cell_angle_alpha                96.549(5)
_cell_angle_beta                 107.849(6)
_cell_angle_gamma                103.068(6)
_cell_volume                     797.999
_exptl_crystal_colour            colorless
_exptl_crystal_description       block
_cell_formula_units_Z            2
loop_
_atom_site_label
_atom_site_type_symbol
_atom_site_fract_x
_atom_site_fract_y
_atom_site_fract_z
C1 C 0.5224(3) 1.38414(19) 1.18594(17)
H1 H 0.6233 1.4394 1.1674
C2 C 0.3497(3) 1.32469(17) 1.05721(17)
H2 H 0.2837 1.3917 1.0326
C3 C 0.2506(3) 1.20976(18) 1.10715(17)
H3 H 0.1328 1.2165 1.1042
C4 C 0.3808(4) 1.2239(2) 1.25704(19)
H4 H 0.3625 1.1435 1.2989
C5 C 0.3818(4) 1.3540(2) 1.33973(19)
H5 H 0.3281 1.3610 1.4063
C6 C 0.4704(3) 1.45520(18) 1.30229(18)
H6 H 0.4965 1.5478 1.3367
C7 C 0.3901(3) 1.26094(17) 0.94062(19)
C8 C 0.2449(3) 1.08107(17) 1.01317(19)
C9 C 0.3312(3) 1.01743(18) 0.81224(17)
H7 H 0.3443 0.9368 0.8498
H8 H 0.4345 1.0524 0.7870
C10 C 0.1669(3) 0.98027(17) 0.68535(16)
H9 H 0.0641 0.9402 0.7092
H10 H 0.1500 1.0615 0.6503
C11 C 0.1153(4) 0.77753(18) 0.24340(17)
H11 H 0.1307 0.8578 0.2011
C12 C 0.2514(4) 0.79243(16) 0.39211(15)
H12 H 0.3680 0.7852 0.3924
C13 C 0.1506(3) 0.67499(15) 0.44119(16)
H13 H 0.2170 0.6085 0.4670
C14 C -0.0195(3) 0.61577(18) 0.31510(16)
H14 H -0.1195 0.5586 0.3332
C15 C 0.0355(3) 0.55088(19) 0.20716(17)
H15 H 0.0134 0.4578 0.1776
C16 C 0.1205(3) 0.64670(19) 0.16044(18)
H16 H 0.1720 0.6376 0.0927
C17 C 0.2591(3) 0.92090(15) 0.48437(16)
C18 C 0.1125(3) 0.74757(15) 0.56389(15)
N1 N 0.3215(3) 1.12116(14) 0.91869(15)
N2 N 0.1835(3) 0.88500(13) 0.58048(12)
O1 O 0.5481(2) 1.26355(13) 1.23365(12)
O2 O 0.4712(2) 1.30772(12) 0.87271(13)
O3 O 0.1836(3) 0.96545(13) 1.02304(13)
O4 O -0.0477(2) 0.73626(13) 0.26773(12)
O5 O 0.3136(3) 1.03607(13) 0.47578(14)
O6 O 0.0290(3) 0.68836(14) 0.62905(15)
loop_
_geom_bond_atom_site_label_1
_geom_bond_atom_site_label_2
_geom_bond_site_symmetry_1
_geom_bond_site_symmetry_2
C1 H1 1_555 1_555
C2 C1 1_555 1_555
H2 C2 1_555 1_555
C3 C2 1_555 1_555
H3 C3 1_555 1_555
C4 C3 1_555 1_555
H4 C4 1_555 1_555
C5 C4 1_555 1_555
H5 C5 1_555 1_555
C6 C1 1_555 1_555
H6 C6 1_555 1_555
C7 C2 1_555 1_555
C8 C3 1_555 1_555
C9 H7 1_555 1_555
H8 C9 1_555 1_555
C10 C9 1_555 1_555
H9 C10 1_555 1_555
H10 C10 1_555 1_555
C11 H11 1_555 1_555
C12 C11 1_555 1_555
H12 C12 1_555 1_555
C13 C12 1_555 1_555
H13 C13 1_555 1_555
C14 C13 1_555 1_555
H14 C14 1_555 1_555
C15 C14 1_555 1_555
H15 C15 1_555 1_555
C16 C11 1_555 1_555
H16 C16 1_555 1_555
C17 C12 1_555 1_555
C18 C13 1_555 1_555
N1 C7 1_555 1_555
N2 C10 1_555 1_555
O1 C1 1_555 1_555
O2 C7 1_555 1_555
O3 C8 1_555 1_555
O4 C11 1_555 1_555
O5 C17 1_555 1_555
O6 C18 1_555 1_555
C4 O1 1_555 1_555
C5 C6 1_555 1_555
C8 N1 1_555 1_555
C9 N1 1_555 1_555
C14 O4 1_555 1_555
C15 C16 1_555 1_555
C17 N2 1_555 1_555
C18 N2 1_555 1_555

#END
