
#######################################################################
#
#                 Cambridge Crystallographic Data Centre
#                                CCDC 
#
#######################################################################
#
# If this CIF has been generated from an entry in the Cambridge 
# Structural Database, then it will include bibliographic, chemical, 
# crystal, experimental, refinement or atomic coordinate data resulting 
# from the CCDC's data processing and validation procedures.
#
#######################################################################

data_OQUHAL
_chemical_formula_moiety         'C38 H26'
_chemical_name_systematic        
2-phenyl-3-(2-(3-phenyl-2-naphthyl)phenyl)naphthalene
_symmetry_cell_setting           orthorhombic
_symmetry_space_group_name_H-M   'P b c a'
_symmetry_Int_Tables_number      61
_space_group_name_Hall           '-P 2ac 2ab'
loop_
_symmetry_equiv_pos_site_id
_symmetry_equiv_pos_as_xyz
1 x,y,z
2 1/2-x,-y,1/2+z
3 -x,1/2+y,1/2-z
4 1/2+x,1/2-y,-z
5 -x,-y,-z
6 1/2+x,y,1/2-z
7 x,1/2-y,1/2+z
8 1/2-x,1/2+y,z
_cell_length_a                   15.7112(6)
_cell_length_b                   15.4073(10)
_cell_length_c                   21.2986(12)
_cell_angle_alpha                90
_cell_angle_beta                 90
_cell_angle_gamma                90
_cell_volume                     5155.69
_exptl_crystal_colour            colorless
_exptl_crystal_description       plate
_cell_formula_units_Z            8
loop_
_atom_site_label
_atom_site_type_symbol
_atom_site_fract_x
_atom_site_fract_y
_atom_site_fract_z
C1 C 0.25685(10) 0.70619(11) 0.16416(8)
C2 C 0.32972(11) 0.71806(12) 0.19945(9)
H1 H 0.3853(11) 0.7057(11) 0.1805(7)
C3 C 0.32447(12) 0.75198(13) 0.25925(9)
H2 H 0.3760(12) 0.7588(13) 0.2842(9)
C4 C 0.24632(12) 0.77516(13) 0.28336(8)
H3 H 0.2422(11) 0.7975(12) 0.3263(9)
C5 C 0.17298(11) 0.76320(11) 0.24824(8)
H4 H 0.1191(10) 0.7792(11) 0.2664(7)
C6 C 0.17676(9) 0.72705(10) 0.18830(7)
C7 C 0.09824(9) 0.71325(10) 0.15020(7)
C8 C 0.03941(10) 0.77928(12) 0.14555(7)
H5 H 0.0475(10) 0.8330(12) 0.1677(7)
C9 C -0.03206(10) 0.77427(11) 0.10527(7)
C10 C -0.09042(10) 0.84398(13) 0.09832(9)
H6 H -0.0795(10) 0.8969(12) 0.1244(8)
C11 C -0.15586(11) 0.83821(15) 0.05645(9)
H7 H -0.1941(11) 0.8883(13) 0.0504(8)
C12 C -0.16751(11) 0.76311(15) 0.02073(9)
H8 H -0.2131(11) 0.7605(12) -0.0099(8)
C13 C -0.11337(11) 0.69408(14) 0.02647(9)
H9 H -0.1192(11) 0.6414(13) 0.0017(8)
C14 C -0.04385(10) 0.69800(12) 0.06907(7)
C15 C 0.01503(10) 0.62946(12) 0.07601(8)
H10 H 0.0054(9) 0.5751(11) 0.0519(7)
C16 C 0.08426(9) 0.63481(10) 0.11536(7)
C17 C 0.14569(9) 0.56128(10) 0.11778(7)
C18 C 0.18797(11) 0.53950(12) 0.06243(8)
H11 H 0.1741(9) 0.5713(11) 0.0224(7)
C19 C 0.25178(11) 0.47778(12) 0.06150(9)
H12 H 0.2821(11) 0.4661(12) 0.0219(8)
C20 C 0.27475(11) 0.43652(13) 0.11637(9)
H13 H 0.3201(11) 0.3927(13) 0.1148(8)
C21 C 0.23155(10) 0.45536(12) 0.17139(9)
H14 H 0.2445(10) 0.4247(12) 0.2092(8)
C22 C 0.16602(9) 0.51607(11) 0.17304(7)
C23 C 0.11877(9) 0.53093(10) 0.23310(7)
C24 C 0.16106(10) 0.56403(11) 0.28407(7)
H15 H 0.2208(10) 0.5781(10) 0.2801(7)
C25 C 0.11984(10) 0.58356(11) 0.34131(7)
C26 C 0.16263(12) 0.62092(12) 0.39311(8)
H16 H 0.2239(11) 0.6348(11) 0.3894(7)
C27 C 0.11937(12) 0.63921(13) 0.44738(8)
H17 H 0.1494(10) 0.6655(12) 0.4827(8)
C28 C 0.03236(13) 0.62010(13) 0.45274(9)
H18 H 0.0044(11) 0.6308(13) 0.4915(9)
C29 C -0.01096(12) 0.58497(13) 0.40360(8)
H19 H -0.0711(11) 0.5705(11) 0.4071(7)
C30 C 0.03134(10) 0.56658(11) 0.34615(7)
C31 C -0.01110(11) 0.53037(12) 0.29391(8)
H20 H -0.0702(10) 0.5150(11) 0.2976(7)
C32 C 0.02987(9) 0.51156(10) 0.23868(7)
C33 C -0.01816(9) 0.46720(11) 0.18767(7)
C34 C 0.01345(11) 0.39252(12) 0.15951(8)
H21 H 0.0679(11) 0.3722(11) 0.1714(7)
C35 C -0.03298(12) 0.34797(13) 0.11504(9)
H22 H -0.0098(11) 0.2958(13) 0.0963(8)
C36 C -0.11247(12) 0.37785(13) 0.09745(9)
H23 H -0.1466(11) 0.3449(13) 0.0667(9)
C37 C -0.14476(12) 0.45243(14) 0.12445(9)
H24 H -0.2007(12) 0.4740(13) 0.1109(8)
C38 C -0.09819(11) 0.49678(13) 0.16928(9)
H25 H -0.1220(11) 0.5506(13) 0.1878(8)
H26 H 0.2626(9) 0.6841(11) 0.1209(8)
loop_
_geom_bond_atom_site_label_1
_geom_bond_atom_site_label_2
_geom_bond_site_symmetry_1
_geom_bond_site_symmetry_2
C1 C2 1_555 1_555
C2 H1 1_555 1_555
C3 C2 1_555 1_555
H2 C3 1_555 1_555
C4 C3 1_555 1_555
H3 C4 1_555 1_555
C5 C4 1_555 1_555
H4 C5 1_555 1_555
C6 C1 1_555 1_555
C7 C6 1_555 1_555
C8 C7 1_555 1_555
H5 C8 1_555 1_555
C9 C8 1_555 1_555
C10 C9 1_555 1_555
H6 C10 1_555 1_555
C11 C10 1_555 1_555
H7 C11 1_555 1_555
C12 C11 1_555 1_555
H8 C12 1_555 1_555
C13 C12 1_555 1_555
H9 C13 1_555 1_555
C14 C9 1_555 1_555
C15 C14 1_555 1_555
H10 C15 1_555 1_555
C16 C7 1_555 1_555
C17 C16 1_555 1_555
C18 C17 1_555 1_555
H11 C18 1_555 1_555
C19 C18 1_555 1_555
H12 C19 1_555 1_555
C20 C19 1_555 1_555
H13 C20 1_555 1_555
C21 C20 1_555 1_555
H14 C21 1_555 1_555
C22 C17 1_555 1_555
C23 C22 1_555 1_555
C24 C23 1_555 1_555
H15 C24 1_555 1_555
C25 C24 1_555 1_555
C26 C25 1_555 1_555
H16 C26 1_555 1_555
C27 C26 1_555 1_555
H17 C27 1_555 1_555
C28 C27 1_555 1_555
H18 C28 1_555 1_555
C29 C28 1_555 1_555
H19 C29 1_555 1_555
C30 C25 1_555 1_555
C31 C30 1_555 1_555
H20 C31 1_555 1_555
C32 C23 1_555 1_555
C33 C32 1_555 1_555
C34 C33 1_555 1_555
H21 C34 1_555 1_555
C35 C34 1_555 1_555
H22 C35 1_555 1_555
C36 C35 1_555 1_555
H23 C36 1_555 1_555
C37 C36 1_555 1_555
H24 C37 1_555 1_555
C38 C33 1_555 1_555
H25 C38 1_555 1_555
H26 C1 1_555 1_555
C5 C6 1_555 1_555
C13 C14 1_555 1_555
C15 C16 1_555 1_555
C21 C22 1_555 1_555
C29 C30 1_555 1_555
C31 C32 1_555 1_555
C37 C38 1_555 1_555

#END
