
#######################################################################
#
#                 Cambridge Crystallographic Data Centre
#                                CCDC 
#
#######################################################################
#
# If this CIF has been generated from an entry in the Cambridge 
# Structural Database, then it will include bibliographic, chemical, 
# crystal, experimental, refinement or atomic coordinate data resulting 
# from the CCDC's data processing and validation procedures.
#
#######################################################################

data_OQUSEZ
_chemical_name_common            
'5-amino-8-(2,3,5-tri-O-benzoyl-beta-D-ribofuranosyl)pyrimido[4,5-d]pyrimidine-2,4(3H,8H)-dione methanol solvate'
_chemical_formula_moiety         'C32 H25 N5 O9,C1 H4 O1'
_chemical_name_systematic        
'2-(4-Amino-5,7-dioxo-6,7-dihydropyrimido[4,5-d]pyrimidin-1(5H)-yl)-5-((benzoyloxy)methyl)tetrahydrofuran-3,4-diyl dibenzoate methanol solvate'
_symmetry_cell_setting           orthorhombic
_symmetry_space_group_name_H-M   'P 21 21 21'
_symmetry_Int_Tables_number      19
_space_group_name_Hall           'P 2ac 2ab'
loop_
_symmetry_equiv_pos_site_id
_symmetry_equiv_pos_as_xyz
1 x,y,z
2 1/2-x,-y,1/2+z
3 -x,1/2+y,1/2-z
4 1/2+x,1/2-y,-z
_cell_length_a                   8.2526(3)
_cell_length_b                   11.9486(4)
_cell_length_c                   32.1865(10)
_cell_angle_alpha                90
_cell_angle_beta                 90
_cell_angle_gamma                90
_cell_volume                     3173.81
_exptl_crystal_colour            colorless
_exptl_crystal_description       block
_cell_formula_units_Z            4
loop_
_atom_site_label
_atom_site_type_symbol
_atom_site_fract_x
_atom_site_fract_y
_atom_site_fract_z
O1 O -0.1064(2) 0.9166(2) 0.57869(5)
O2 O 0.16180(18) 0.92186(14) 0.57869(4)
O3 O 0.30283(19) 1.11731(12) 0.59472(4)
O4 O 0.41924(18) 0.86301(12) 0.64316(4)
O5 O 0.59502(18) 1.03297(12) 0.68253(4)
O6 O 0.7952(4) 0.9171(3) 0.69536(6)
O7 O 0.0843(3) 1.19406(17) 0.62259(5)
O8 O -0.1258(2) 0.60344(14) 0.77627(4)
O9 O -0.1604(2) 0.56157(16) 0.63710(5)
N1 N 0.0126(2) 0.69619(14) 0.65928(5)
N2 N -0.1379(2) 0.58429(16) 0.70634(5)
H1 H -0.2080 0.5317 0.7094
N3 N 0.2396(2) 0.85321(14) 0.75736(5)
N4 N 0.1959(2) 0.82240(13) 0.68565(4)
N5 N 0.1053(2) 0.74897(16) 0.80589(5)
C1 C 0.0181(3) 0.91044(19) 0.56044(6)
C2 C 0.2495(3) 0.84454(18) 0.64265(5)
H2 H 0.2267 0.7784 0.6256
C3 C -0.0961(3) 0.6135(2) 0.66577(6)
C4 C 0.1714(3) 0.94616(18) 0.62242(5)
H3 H 0.0675 0.9676 0.6349
C5 C 0.0371(3) 0.88356(18) 0.51572(6)
C6 C 0.3025(2) 1.03413(17) 0.62692(5)
H4 H 0.2981 1.0692 0.6544
C7 C -0.0764(2) 0.63233(18) 0.74197(6)
C8 C 0.4559(2) 0.96579(18) 0.62195(6)
H5 H 0.4707 0.9493 0.5924
C9 C 0.1716(3) 0.9130(2) 0.49378(7)
H6 H 0.2543 0.9526 0.5068
C10 C 0.6121(3) 1.0112(2) 0.63873(7)
H7 H 0.6985 0.9574 0.6342
H8 H 0.6402 1.0798 0.6243
C11 C 0.1863(4) 0.8843(3) 0.45209(7)
H9 H 0.2783 0.9052 0.4373
C12 C 0.2670(3) 0.87387(17) 0.71838(6)
H10 H 0.3427 0.9292 0.7124
C13 C 0.0678(4) 0.8266(3) 0.43322(8)
H11 H 0.0783 0.8069 0.4054
C14 C 0.0778(2) 0.74186(15) 0.69249(6)
C15 C 0.0425(2) 0.71700(16) 0.73433(6)
C16 C -0.0664(4) 0.7970(3) 0.45441(10)
H12 H -0.1478 0.7566 0.4412
C17 C -0.0833(4) 0.8267(3) 0.49569(8)
H13 H -0.1774 0.8078 0.5099
C18 C 0.1853(3) 1.19359(19) 0.59607(6)
C19 C 0.1917(3) 1.27433(18) 0.56114(6)
C20 C 0.0966(3) 1.3687(2) 0.56331(8)
H14 H 0.0312 1.3814 0.5864
C21 C 0.0994(4) 1.4443(3) 0.53078(10)
H15 H 0.0370 1.5090 0.5323
C22 C 0.1920(4) 1.4253(3) 0.49675(9)
H16 H 0.1910 1.4762 0.4749
C23 C 0.2850(4) 1.3335(3) 0.49442(8)
H17 H 0.3484 1.3212 0.4710
C24 C 0.2875(3) 1.2568(2) 0.52666(7)
H18 H 0.3534 1.1938 0.5251
C25 C 0.6937(3) 0.9786(2) 0.70792(8)
C26 C 0.6645(3) 1.0037(2) 0.75222(7)
C27 C 0.5612(3) 1.0867(2) 0.76491(8)
H19 H 0.5041 1.1289 0.7455
C28 C 0.5428(3) 1.1070(3) 0.80733(10)
H20 H 0.4734 1.1632 0.8164
C29 C 0.6271(4) 1.0439(3) 0.83574(10)
H21 H 0.6149 1.0576 0.8640
C30 C 0.7278(4) 0.9620(3) 0.82271(10)
H22 H 0.7844 0.9196 0.8421
C31 C 0.7475(4) 0.9407(3) 0.78108(8)
H23 H 0.8166 0.8838 0.7724
C32 C 0.1272(2) 0.77177(16) 0.76612(6)
H24 H 0.160(2) 0.7844(15) 0.8251(5)
H25 H 0.034(2) 0.7008(15) 0.8132(6)
O10 O 0.7211(3) 1.35557(18) 0.62921(7)
H26 H 0.7564 1.4195 0.6272
C33 C 0.6092(6) 1.3387(3) 0.60040(14)
H27 H 0.6491 1.2862 0.5803
H28 H 0.5845 1.4083 0.5869
H29 H 0.5130 1.3094 0.6131
loop_
_geom_bond_atom_site_label_1
_geom_bond_atom_site_label_2
_geom_bond_site_symmetry_1
_geom_bond_site_symmetry_2
O1 C1 1_555 1_555
O2 C1 1_555 1_555
O3 C6 1_555 1_555
O4 C2 1_555 1_555
O5 C10 1_555 1_555
O6 C25 1_555 1_555
O7 C18 1_555 1_555
O8 C7 1_555 1_555
O9 C3 1_555 1_555
N1 C3 1_555 1_555
N2 H1 1_555 1_555
N3 C12 1_555 1_555
N4 C2 1_555 1_555
N5 C32 1_555 1_555
C1 C5 1_555 1_555
C2 H2 1_555 1_555
C3 N2 1_555 1_555
C4 O2 1_555 1_555
H3 C4 1_555 1_555
C5 C9 1_555 1_555
C6 C4 1_555 1_555
H4 C6 1_555 1_555
C7 N2 1_555 1_555
C8 O4 1_555 1_555
H5 C8 1_555 1_555
C9 H6 1_555 1_555
C10 C8 1_555 1_555
H7 C10 1_555 1_555
H8 C10 1_555 1_555
C11 C9 1_555 1_555
H9 C11 1_555 1_555
C12 N4 1_555 1_555
H10 C12 1_555 1_555
C13 C11 1_555 1_555
H11 C13 1_555 1_555
C14 N1 1_555 1_555
C15 C7 1_555 1_555
C16 C13 1_555 1_555
H12 C16 1_555 1_555
C17 C5 1_555 1_555
H13 C17 1_555 1_555
C18 O3 1_555 1_555
C19 C18 1_555 1_555
C20 C19 1_555 1_555
H14 C20 1_555 1_555
C21 C20 1_555 1_555
H15 C21 1_555 1_555
C22 C21 1_555 1_555
H16 C22 1_555 1_555
C23 C22 1_555 1_555
H17 C23 1_555 1_555
C24 C19 1_555 1_555
H18 C24 1_555 1_555
C25 O5 1_555 1_555
C26 C25 1_555 1_555
C27 C26 1_555 1_555
H19 C27 1_555 1_555
C28 C27 1_555 1_555
H20 C28 1_555 1_555
C29 C28 1_555 1_555
H21 C29 1_555 1_555
C30 C29 1_555 1_555
H22 C30 1_555 1_555
C31 C26 1_555 1_555
H23 C31 1_555 1_555
C32 N3 1_555 1_555
H24 N5 1_555 1_555
H25 N5 1_555 1_555
O10 H26 1_555 1_555
C33 O10 1_555 1_555
H27 C33 1_555 1_555
H28 C33 1_555 1_555
H29 C33 1_555 1_555
N4 C14 1_555 1_555
C2 C4 1_555 1_555
C6 C8 1_555 1_555
C14 C15 1_555 1_555
C15 C32 1_555 1_555
C16 C17 1_555 1_555
C23 C24 1_555 1_555
C30 C31 1_555 1_555

#END
