
#######################################################################
#
#                 Cambridge Crystallographic Data Centre
#                                CCDC 
#
#######################################################################
#
# If this CIF has been generated from an entry in the Cambridge 
# Structural Database, then it will include bibliographic, chemical, 
# crystal, experimental, refinement or atomic coordinate data resulting 
# from the CCDC's data processing and validation procedures.
#
#######################################################################

data_OQUXUU
_chemical_formula_moiety         'C25 H30 O7'
_chemical_name_systematic        
7-(3,4-Dimethoxyphenyl)-2,3-dimethoxy-11,11-dimethyl-4b,6a,7,11-tetrahydro-6H-furo[3',4':3,4]furo[3,2-c]isochromene
_symmetry_cell_setting           monoclinic
_symmetry_space_group_name_H-M   'P 21'
_symmetry_Int_Tables_number      4
_space_group_name_Hall           'P 2yb'
loop_
_symmetry_equiv_pos_site_id
_symmetry_equiv_pos_as_xyz
1 x,y,z
2 -x,1/2+y,-z
_cell_length_a                   11.345(2)
_cell_length_b                   8.087(2)
_cell_length_c                   12.444(2)
_cell_angle_alpha                90
_cell_angle_beta                 95.23(2)
_cell_angle_gamma                90
_cell_volume                     1136.95
_cell_formula_units_Z            2
loop_
_atom_site_label
_atom_site_type_symbol
_atom_site_fract_x
_atom_site_fract_y
_atom_site_fract_z
O1 O 0.3880 0.7401 0.9057
O2 O 0.4492 0.9413 0.7620
O3 O 0.9147 0.5798 0.9627
O4 O 0.8959 0.7871 1.2379
O5 O 0.9647 0.3944 1.2150
O6 O 1.3559 0.8674 1.4308
O7 O 1.3385 0.6171 1.5557
C1 C 0.3495 0.6317 0.9841
C2 C 0.4743 1.0352 0.6709
C3 C 0.5062 0.7419 0.8920
C4 C 0.5396 0.8519 0.8133
C5 C 0.6570 0.8636 0.7944
C6 C 0.7419 0.7683 0.8536
C7 C 0.7106 0.6599 0.9313
C8 C 0.5909 0.6475 0.9502
C9 C 0.7991 0.5531 0.9962
C10 C 0.9924 0.5005 1.0425
C11 C 0.9447 0.5389 1.1507
C12 C 0.8128 0.5822 1.1186
C13 C 0.8038 0.7621 1.1533
C14 C 0.9957 0.6993 1.2029
C15 C 0.9830 0.4086 1.3315
C16 C 0.8680 0.4574 1.3791
C17 C 1.0170 0.2325 1.3651
C18 C 1.0806 0.5325 1.3595
C19 C 1.0878 0.6718 1.2955
C20 C 1.1791 0.7848 1.3167
C21 C 1.2628 0.7634 1.4034
C22 C 1.3592 1.0186 1.3742
C23 C 1.2543 0.6250 1.4706
C24 C 1.3220 0.5001 1.6364
C25 C 1.1651 0.5117 1.4476
H1 H 0.3725 0.5207 0.9684
H2 H 0.2649 0.6375 0.9831
H3 H 0.3848 0.6631 1.0541
H4 H 0.5283 1.1227 0.6932
H5 H 0.4023 1.0816 0.6373
H6 H 0.5094 0.9650 0.6204
H7 H 0.6796 0.9356 0.7418
H8 H 0.8210 0.7780 0.8404
H9 H 0.5684 0.5748 1.0025
H10 H 0.7776 0.4371 0.9829
H11 H 1.0723 0.5427 1.0411
H12 H 0.9934 0.3821 1.0302
H13 H 0.7596 0.5111 1.1558
H14 H 0.8141 0.8354 1.0932
H15 H 0.7271 0.7836 1.1790
H16 H 1.0305 0.7652 1.1478
H17 H 0.8489 0.5701 1.3605
H18 H 0.8781 0.4462 1.4562
H19 H 0.8050 0.3865 1.3503
H20 H 0.9555 0.1579 1.3381
H21 H 1.0274 0.2256 1.4424
H22 H 1.0897 0.2030 1.3359
H23 H 1.1840 0.8761 1.2719
H24 H 1.3667 0.9967 1.2993
H25 H 1.4256 1.0828 1.4036
H26 H 1.2874 1.0789 1.3812
H27 H 1.2439 0.5118 1.6594
H28 H 1.3797 0.5178 1.6967
H29 H 1.3312 0.3908 1.6083
H30 H 1.1609 0.4193 1.4916
loop_
_geom_bond_atom_site_label_1
_geom_bond_atom_site_label_2
_geom_bond_site_symmetry_1
_geom_bond_site_symmetry_2
O1 C1 1_555 1_555
O2 C2 1_555 1_555
O3 C9 1_555 1_555
O4 C13 1_555 1_555
O5 C11 1_555 1_555
O6 C21 1_555 1_555
O7 C23 1_555 1_555
C1 H1 1_555 1_555
C2 H4 1_555 1_555
C3 O1 1_555 1_555
C4 O2 1_555 1_555
C5 C4 1_555 1_555
C6 C5 1_555 1_555
C7 C6 1_555 1_555
C8 C3 1_555 1_555
C9 C7 1_555 1_555
C10 O3 1_555 1_555
C11 C10 1_555 1_555
C12 C9 1_555 1_555
C13 C12 1_555 1_555
C14 O4 1_555 1_555
C15 O5 1_555 1_555
C16 C15 1_555 1_555
C17 C15 1_555 1_555
C18 C15 1_555 1_555
C19 C14 1_555 1_555
C20 C19 1_555 1_555
C21 C20 1_555 1_555
C22 O6 1_555 1_555
C23 C21 1_555 1_555
C24 O7 1_555 1_555
C25 C18 1_555 1_555
H2 C1 1_555 1_555
H3 C1 1_555 1_555
H5 C2 1_555 1_555
H6 C2 1_555 1_555
H7 C5 1_555 1_555
H8 C6 1_555 1_555
H9 C8 1_555 1_555
H10 C9 1_555 1_555
H11 C10 1_555 1_555
H12 C10 1_555 1_555
H13 C12 1_555 1_555
H14 C13 1_555 1_555
H15 C13 1_555 1_555
H16 C14 1_555 1_555
H17 C16 1_555 1_555
H18 C16 1_555 1_555
H19 C16 1_555 1_555
H20 C17 1_555 1_555
H21 C17 1_555 1_555
H22 C17 1_555 1_555
H23 C20 1_555 1_555
H24 C22 1_555 1_555
H25 C22 1_555 1_555
H26 C22 1_555 1_555
H27 C24 1_555 1_555
H28 C24 1_555 1_555
H29 C24 1_555 1_555
H30 C25 1_555 1_555
C3 C4 1_555 1_555
C7 C8 1_555 1_555
C11 C12 1_555 1_555
C11 C14 1_555 1_555
C18 C19 1_555 1_555
C23 C25 1_555 1_555

#END
