
#######################################################################
#
#                 Cambridge Crystallographic Data Centre
#                                CCDC 
#
#######################################################################
#
# If this CIF has been generated from an entry in the Cambridge 
# Structural Database, then it will include bibliographic, chemical, 
# crystal, experimental, refinement or atomic coordinate data resulting 
# from the CCDC's data processing and validation procedures.
#
#######################################################################

data_OQUYOQ
_chemical_formula_moiety         
'C25 H34 N1 O6 1+,C16 H19 N3 O2 2+,0.5(C6 H6),3(Cl1 O4 1-),2(H2 O1)'
_chemical_name_systematic        
'1-(3-ammoniopropyl)-4-[(E)-2-(4-nitrophenyl)-vinyl]pyridinium 4-[(E)-2-(2,3,5,6,8,9,11,12,14,15-decahydro-1,4,7,10,13,16-benzohexaoxacyclo-octadecin-18-yl)vinyl]-1-ethylpyridinium triperchlorate benzene solvate dihydrate'
_symmetry_cell_setting           triclinic
_symmetry_space_group_name_H-M   'P -1'
_symmetry_Int_Tables_number      2
_space_group_name_Hall           '-P 1'
loop_
_symmetry_equiv_pos_site_id
_symmetry_equiv_pos_as_xyz
1 x,y,z
2 -x,-y,-z
_cell_length_a                   10.7742(7)
_cell_length_b                   12.9619(9)
_cell_length_c                   19.5026(14)
_cell_angle_alpha                74.870(3)
_cell_angle_beta                 74.856(3)
_cell_angle_gamma                80.051(3)
_cell_volume                     2521.86
_exptl_crystal_colour            yellow
_exptl_crystal_description       needle
_cell_formula_units_Z            2
loop_
_atom_site_label
_atom_site_type_symbol
_atom_site_fract_x
_atom_site_fract_y
_atom_site_fract_z
Cl1 Cl 0.87593(11) 0.58483(10) 0.26302(6)
O1 O 1.0021(3) 0.5644(3) 0.21818(19)
O2 O 0.8016(3) 0.6696(3) 0.2218(2)
O3 O 0.8107(4) 0.4884(3) 0.28464(19)
O4 O 0.8857(4) 0.6160(3) 0.3262(2)
Cl2 Cl 0.31485(15) 0.92681(12) 0.16708(8)
O5 O 0.3277(4) 1.0178(3) 0.1068(2)
O6 O 0.2117(10) 0.8718(8) 0.1666(6)
O7 O 0.2771(15) 0.9670(6) 0.2330(4)
O8 O 0.4283(9) 0.8544(10) 0.1669(8)
O9 O 0.3960(3) 0.8491(3) 0.79433(17)
O10 O 0.3085(3) 0.7780(3) 0.94476(17)
O11 O 0.0513(3) 0.7332(3) 1.00625(18)
O12 O -0.0713(3) 0.6398(3) 0.9266(2)
O13 O -0.0020(3) 0.7550(3) 0.77552(19)
O14 O 0.2389(3) 0.8382(3) 0.71584(18)
N1 N 0.8323(4) 0.8899(3) 0.2287(2)
C1 C 0.9186(14) 0.8784(16) 0.2704(6)
H1 H 1.0086 0.8750 0.2487
C2 C 0.8750(12) 0.8714(8) 0.3456(5)
H2 H 0.9349 0.8643 0.3752
C3 C 0.7431(14) 0.8751(7) 0.3764(5)
C4 C 0.6590(11) 0.8822(9) 0.3325(6)
H3 H 0.5689 0.8814 0.3533
C5 C 0.7047(10) 0.891(2) 0.2581(8)
H4 H 0.6460 0.8966 0.2281
C6 C 0.6976(8) 0.8702(6) 0.4547(5)
H5 H 0.7607 0.8658 0.4817
C7 C 0.5715(10) 0.8714(7) 0.4914(5)
H6 H 0.5050 0.8745 0.4669
C8 C 0.5397(6) 0.8676(4) 0.5716(3)
C9 C 0.6215(6) 0.8773(4) 0.6144(3)
H7 H 0.7091 0.8882 0.5917
C10 C 0.5789(5) 0.8716(4) 0.6890(3)
H8 H 0.6363 0.8789 0.7167
C11 C 0.4500(5) 0.8550(4) 0.7223(3)
C12 C 0.3661(5) 0.8484(4) 0.6792(3)
C13 C 0.4151(6) 0.8538(4) 0.6058(3)
H9 H 0.3582 0.8475 0.5776
C14 C 0.4828(5) 0.8300(5) 0.8430(3)
H10 H 0.5499 0.8802 0.8228
H11 H 0.5266 0.7556 0.8477
C15 C 0.4082(5) 0.8462(5) 0.9156(3)
H12 H 0.4671 0.8311 0.9492
H13 H 0.3698 0.9221 0.9111
C16 C 0.2462(5) 0.7840(4) 1.0172(3)
H14 H 0.2033 0.8578 1.0181
H15 H 0.3110 0.7675 1.0475
C17 C 0.1481(5) 0.7056(5) 1.0477(3)
H16 H 0.1905 0.6320 1.0458
H17 H 0.1078 0.7070 1.0993
C18 C -0.0535(5) 0.6711(5) 1.0371(3)
H18 H -0.1046 0.6919 1.0826
H19 H -0.0205 0.5940 1.0495
C19 C -0.1388(5) 0.6890(5) 0.9835(3)
H20 H -0.2208 0.6573 1.0080
H21 H -0.1596 0.7670 0.9643
C20 C -0.1450(5) 0.6518(4) 0.8728(3)
H22 H -0.2374 0.6475 0.8975
H23 H -0.1157 0.5917 0.8477
C21 C -0.1319(5) 0.7559(5) 0.8176(3)
H24 H -0.1924 0.7653 0.7854
H25 H -0.1532 0.8165 0.8423
C22 C 0.0153(5) 0.8494(4) 0.7181(3)
H26 H 0.0012 0.9137 0.7387
H27 H -0.0479 0.8581 0.6876
C23 C 0.1497(6) 0.8381(5) 0.6729(3)
H28 H 0.1664 0.7700 0.6562
H29 H 0.1608 0.8984 0.6294
C24 C 0.8934(6) 0.9030(5) 0.1496(3)
H30 H 0.8322 0.8885 0.1241
H31 H 0.9716 0.8506 0.1429
C25 C 0.9301(6) 1.0161(4) 0.1171(3)
H32 H 0.9655 1.0251 0.0645
H33 H 0.9954 1.0285 0.1400
H34 H 0.8533 1.0680 0.1258
O15 O 1.2869(3) 0.3650(3) 0.25407(18)
O16 O 1.4038(3) 0.3833(3) 0.32455(17)
N2 N 0.1918(3) 0.6880(3) 0.8624(2)
H35 H 0.1079 0.6983 0.8867
H36 H 0.2002 0.7232 0.8148
H37 H 0.2432 0.7140 0.8828
N3 N 0.5199(4) 0.3989(3) 0.7816(2)
N4 N 1.2997(4) 0.3709(3) 0.3138(2)
C26 C 0.2305(5) 0.5732(4) 0.8670(3)
H38 H 0.1642 0.5428 0.8537
H39 H 0.2332 0.5371 0.9181
C27 C 0.3609(4) 0.5485(4) 0.8181(2)
H40 H 0.4259 0.5873 0.8256
H41 H 0.3553 0.5727 0.7663
C28 C 0.4020(4) 0.4272(4) 0.8361(3)
H42 H 0.4200 0.4051 0.8854
H43 H 0.3309 0.3881 0.8359
C29 C 0.6369(4) 0.3993(4) 0.7936(2)
H44 H 0.6436 0.4134 0.8379
C30 C 0.7467(4) 0.3796(4) 0.7423(2)
H45 H 0.8290 0.3787 0.7519
C31 C 0.7400(4) 0.3609(4) 0.6764(2)
C32 C 0.6158(4) 0.3571(4) 0.6676(3)
H46 H 0.6058 0.3414 0.6245
C33 C 0.5082(5) 0.3761(4) 0.7212(3)
H47 H 0.4246 0.3729 0.7148
C34 C 0.8558(4) 0.3521(4) 0.6195(2)
H48 H 0.9361 0.3490 0.6320
C35 C 0.8605(5) 0.3480(4) 0.5521(3)
H49 H 0.7816 0.3411 0.5416
C36 C 0.9758(4) 0.3530(4) 0.4916(2)
C37 C 0.9639(5) 0.3490(4) 0.4235(3)
H50 H 0.8817 0.3414 0.4173
C38 C 1.0682(5) 0.3559(4) 0.3643(3)
H51 H 1.0582 0.3550 0.3175
C39 C 1.1868(5) 0.3640(4) 0.3752(2)
C40 C 1.2027(4) 0.3685(4) 0.4421(3)
H52 H 1.2855 0.3751 0.4480
C41 C 1.0977(4) 0.3633(4) 0.5002(3)
H53 H 1.1079 0.3668 0.5465
O17 O 0.6644(4) 0.8851(4) 0.0543(3)
O18 O 0.3241(6) 0.8679(4) 0.3849(3)
C42 C 0.5950(6) 0.4738(6) 0.4437(3)
H54 H 0.6601 0.4544 0.4044
C43 C 0.5910(6) 0.5705(6) 0.4574(3)
H55 H 0.6523 0.6188 0.4293
C44 C 0.4901(7) 0.5980(5) 0.5163(3)
H56 H 0.4825 0.6663 0.5274
C42A C 0.4050(6) 0.5262(6) 0.5563(3)
H54A H 0.3399 0.5456 0.5956
C43A C 0.4090(6) 0.4295(6) 0.5426(3)
H55A H 0.3477 0.3812 0.5707
C44A C 0.5099(7) 0.4020(5) 0.4837(3)
H56A H 0.5175 0.3337 0.4726
O19? O 0.191(3) 0.878(3) 0.200(2)
O20? O 0.410(3) 0.846(2) 0.1371(15)
O21? O 0.370(3) 0.9433(17) 0.2218(10)
C45? C 0.886(3) 0.886(4) 0.2836(12)
H57? H 0.9765 0.8906 0.2745
C46? C 0.810(3) 0.877(2) 0.3542(13)
H58? H 0.8496 0.8724 0.3934
C47? C 0.677(3) 0.8738(17) 0.3677(13)
C48? C 0.620(2) 0.8804(17) 0.3114(12)
H59? H 0.5295 0.8788 0.3191
C49? C 0.7020(15) 0.890(5) 0.2419(15)
H60? H 0.6646 0.8960 0.2018
C50? C 0.593(2) 0.8657(15) 0.4430(12)
H61? H 0.5060 0.8523 0.4509
C51? C 0.633(2) 0.8761(15) 0.4988(12)
H62? H 0.7197 0.8888 0.4932
Cl3? Cl 0.5000 0.5000 0.0000
O22? O 0.4663(8) 0.4432(6) 0.0754(4)
O23? O 0.3651(6) 0.5201(6) -0.0175(4)
O24? O 0.5238(10) 0.6045(9) 0.0009(6)
O25? O 0.5752(11) 0.4399(13) -0.0465(6)
Cl4? Cl 0.0245(7) 0.9891(12) 0.4972(8)
O26? O 0.0450(11) 1.0939(8) 0.4587(7)
O27? O 0.1458(9) 0.9284(8) 0.5036(4)
O28? O -0.0350(14) 0.9436(8) 0.4557(8)
O29? O -0.0515(12) 0.9928(16) 0.5699(6)
loop_
_geom_bond_atom_site_label_1
_geom_bond_atom_site_label_2
_geom_bond_site_symmetry_1
_geom_bond_site_symmetry_2
Cl1 O1 1_555 1_555
O2 Cl1 1_555 1_555
O3 Cl1 1_555 1_555
O4 Cl1 1_555 1_555
Cl2 O5 1_555 1_555
O6 Cl2 1_555 1_555
O7 Cl2 1_555 1_555
O8 Cl2 1_555 1_555
O9 C11 1_555 1_555
O10 C15 1_555 1_555
O11 C17 1_555 1_555
O12 C19 1_555 1_555
O13 C21 1_555 1_555
O14 C12 1_555 1_555
N1 C1 1_555 1_555
C1 H1 1_555 1_555
C2 C1 1_555 1_555
H2 C2 1_555 1_555
C3 C2 1_555 1_555
C4 C3 1_555 1_555
H3 C4 1_555 1_555
C5 N1 1_555 1_555
H4 C5 1_555 1_555
C6 C3 1_555 1_555
H5 C6 1_555 1_555
C7 C6 1_555 1_555
H6 C7 1_555 1_555
C8 C7 1_555 1_555
C9 C8 1_555 1_555
H7 C9 1_555 1_555
C10 C9 1_555 1_555
H8 C10 1_555 1_555
C11 C10 1_555 1_555
C12 C11 1_555 1_555
C13 C8 1_555 1_555
H9 C13 1_555 1_555
C14 O9 1_555 1_555
H10 C14 1_555 1_555
H11 C14 1_555 1_555
C15 C14 1_555 1_555
H12 C15 1_555 1_555
H13 C15 1_555 1_555
C16 O10 1_555 1_555
H14 C16 1_555 1_555
H15 C16 1_555 1_555
C17 C16 1_555 1_555
H16 C17 1_555 1_555
H17 C17 1_555 1_555
C18 O11 1_555 1_555
H18 C18 1_555 1_555
H19 C18 1_555 1_555
C19 C18 1_555 1_555
H20 C19 1_555 1_555
H21 C19 1_555 1_555
C20 O12 1_555 1_555
H22 C20 1_555 1_555
H23 C20 1_555 1_555
C21 C20 1_555 1_555
H24 C21 1_555 1_555
H25 C21 1_555 1_555
C22 O13 1_555 1_555
H26 C22 1_555 1_555
H27 C22 1_555 1_555
C23 O14 1_555 1_555
H28 C23 1_555 1_555
H29 C23 1_555 1_555
C24 N1 1_555 1_555
H30 C24 1_555 1_555
H31 C24 1_555 1_555
C25 C24 1_555 1_555
H32 C25 1_555 1_555
H33 C25 1_555 1_555
H34 C25 1_555 1_555
O15 N4 1_555 1_555
O16 N4 1_555 1_555
N2 H35 1_555 1_555
H36 N2 1_555 1_555
H37 N2 1_555 1_555
N3 C28 1_555 1_555
N4 C39 1_555 1_555
C26 N2 1_555 1_555
H38 C26 1_555 1_555
H39 C26 1_555 1_555
C27 C26 1_555 1_555
H40 C27 1_555 1_555
H41 C27 1_555 1_555
C28 C27 1_555 1_555
H42 C28 1_555 1_555
H43 C28 1_555 1_555
C29 N3 1_555 1_555
H44 C29 1_555 1_555
C30 C29 1_555 1_555
H45 C30 1_555 1_555
C31 C30 1_555 1_555
C32 C31 1_555 1_555
H46 C32 1_555 1_555
C33 N3 1_555 1_555
H47 C33 1_555 1_555
C34 C31 1_555 1_555
H48 C34 1_555 1_555
C35 C34 1_555 1_555
H49 C35 1_555 1_555
C36 C35 1_555 1_555
C37 C36 1_555 1_555
H50 C37 1_555 1_555
C38 C37 1_555 1_555
H51 C38 1_555 1_555
C39 C38 1_555 1_555
C40 C39 1_555 1_555
H52 C40 1_555 1_555
C41 C36 1_555 1_555
H53 C41 1_555 1_555
C42 H54 1_555 1_555
C43 C42 1_555 1_555
H55 C43 1_555 1_555
C44 C43 1_555 1_555
H56 C44 1_555 1_555
C42A C44 1_555 1_555
H54A C42A 1_555 1_555
C43A C42A 1_555 1_555
H55A C43A 1_555 1_555
C44A C42 1_555 1_555
H56A C44A 1_555 1_555
C4 C5 1_555 1_555
C12 C13 1_555 1_555
C22 C23 1_555 1_555
C32 C33 1_555 1_555
C40 C41 1_555 1_555
C43A C44A 1_555 1_555

#END
