
#######################################################################
#
#                 Cambridge Crystallographic Data Centre
#                                CCDC 
#
#######################################################################
#
# If this CIF has been generated from an entry in the Cambridge 
# Structural Database, then it will include bibliographic, chemical, 
# crystal, experimental, refinement or atomic coordinate data resulting 
# from the CCDC's data processing and validation procedures.
#
#######################################################################

data_OQUZAD
_chemical_formula_moiety         
'C42 H56 N3 O7 3+,2(C6 H6),0.75(C2 H3 N1),3(Cl1 O4 1-),0.25(H2 O1)'
_chemical_name_systematic        
'1-(3-ammoniopropyl)-4-r-[2-c-(2,3,5,6,8,9,11,12,14,15-decahydro-1,4,7,10,13,16-benzohexaoxacyclo-octadecin-18-yl)-3-t-(1-ethylpyridinium-4-yl)-4-t-(4-methoxyphenyl)cyclobutyl]pyridinium triperchlorate acetonitrile benzene solvate hydrate'
_symmetry_cell_setting           orthorhombic
_symmetry_space_group_name_H-M   'P c a 21'
_symmetry_Int_Tables_number      29
_space_group_name_Hall           'P 2c -2ac'
loop_
_symmetry_equiv_pos_site_id
_symmetry_equiv_pos_as_xyz
1 x,y,z
2 -x,-y,1/2+z
3 1/2+x,-y,z
4 1/2-x,y,1/2+z
_cell_length_a                   14.0228(9)
_cell_length_b                   18.0075(11)
_cell_length_c                   22.8626(14)
_cell_angle_alpha                90
_cell_angle_beta                 90
_cell_angle_gamma                90
_cell_volume                     5773.16
_exptl_crystal_colour            colorless
_exptl_crystal_description       plate
_cell_formula_units_Z            4
loop_
_atom_site_label
_atom_site_type_symbol
_atom_site_fract_x
_atom_site_fract_y
_atom_site_fract_z
Cl1 Cl 0.95626(15) 0.51802(12) 0.87745(9)
O1 O 0.9152(5) 0.4650(3) 0.8381(3)
O2 O 1.0118(4) 0.5697(3) 0.8444(2)
O3 O 1.0174(4) 0.4793(3) 0.9183(2)
O4 O 0.8822(5) 0.5559(4) 0.9079(3)
Cl2 Cl 0.23371(15) 0.72614(13) 0.69162(9)
O5 O 0.1763(5) 0.7645(4) 0.7333(3)
O6 O 0.1818(4) 0.7203(4) 0.6374(3)
O7 O 0.3207(5) 0.7646(5) 0.6834(3)
O8 O 0.2520(5) 0.6540(4) 0.7127(3)
Cl3 Cl 0.91388(19) 0.77066(16) 0.53262(11)
O9 O 0.9546(6) 0.8257(4) 0.4951(3)
O10 O 0.9230(6) 0.6991(4) 0.5056(3)
O11 O 0.9594(7) 0.7705(5) 0.5878(3)
O12 O 0.8164(7) 0.7836(7) 0.5398(5)
O13 O 0.6087(4) 0.6865(3) 0.6435(2)
O14 O 0.6091(4) 0.8343(3) 0.6821(3)
O15 O 0.6452(6) 0.8677(4) 0.7994(3)
O16 O 0.7705(6) 0.7756(4) 0.8618(3)
O17 O 0.7207(4) 0.6250(3) 0.8267(2)
O18 O 0.6555(4) 0.5813(3) 0.7163(2)
O19 O 0.9634(5) 0.0771(4) 0.4561(3)
N1 N 0.6369(5) 0.2910(4) 0.3671(3)
N2 N 0.7484(5) 0.7374(4) 0.7403(3)
H1 H 0.7014 0.7558 0.7169
H2 H 0.7688 0.7734 0.7652
H3 H 0.7253 0.6984 0.7612
N3 N 0.9725(4) 0.5858(4) 0.6712(3)
C1 C 0.7260(7) 0.3174(5) 0.3533(4)
H4 H 0.7520 0.3083 0.3156
C2 C 0.7764(6) 0.3559(5) 0.3927(4)
H5 H 0.8384 0.3730 0.3826
C3 C 0.7402(6) 0.3716(4) 0.4481(4)
C4 C 0.6496(6) 0.3459(5) 0.4603(4)
H6 H 0.6214 0.3559 0.4973
C5 C 0.6007(7) 0.3061(5) 0.4195(4)
H7 H 0.5386 0.2885 0.4288
C6 C 0.7991(6) 0.4141(5) 0.4914(4)
H8 H 0.8103 0.4655 0.4764
C7 C 0.7651(6) 0.4180(5) 0.5565(3)
H9 H 0.7220 0.3751 0.5650
C8 C 0.7193(5) 0.4886(5) 0.5767(4)
C9 C 0.6938(6) 0.5435(5) 0.5390(4)
H10 H 0.7024 0.5365 0.4982
C10 C 0.6551(6) 0.6103(5) 0.5594(4)
H11 H 0.6366 0.6476 0.5323
C11 C 0.6435(6) 0.6222(5) 0.6188(4)
C12 C 0.6689(5) 0.5648(4) 0.6579(4)
C13 C 0.7042(5) 0.4985(5) 0.6379(3)
H12 H 0.7185 0.4596 0.6646
C14 C 0.5950(6) 0.7476(5) 0.6044(4)
H13 H 0.5549 0.7321 0.5709
H14 H 0.6573 0.7647 0.5890
C15 C 0.5478(6) 0.8087(5) 0.6366(4)
H15 H 0.5332 0.8500 0.6095
H16 H 0.4871 0.7908 0.6536
C16 C 0.5674(8) 0.8961(5) 0.7103(4)
H17 H 0.5068 0.8810 0.7292
H18 H 0.5531 0.9353 0.6813
C17 C 0.6350(9) 0.9253(6) 0.7554(5)
H19 H 0.6976 0.9366 0.7374
H20 H 0.6095 0.9712 0.7732
C18 C 0.6939(9) 0.8932(5) 0.8490(5)
H21 H 0.6553 0.9315 0.8692
H22 H 0.7552 0.9160 0.8373
C19 C 0.7113(8) 0.8310(6) 0.8882(4)
H23 H 0.7424 0.8494 0.9243
H24 H 0.6496 0.8084 0.8994
C20 C 0.7796(8) 0.7103(5) 0.8960(4)
H25 H 0.7766 0.7246 0.9378
H26 H 0.8436 0.6889 0.8888
C21 C 0.7087(6) 0.6525(5) 0.8856(4)
H27 H 0.7173 0.6116 0.9140
H28 H 0.6437 0.6731 0.8905
C22 C 0.6727(6) 0.5559(5) 0.8179(4)
H29 H 0.6031 0.5626 0.8228
H30 H 0.6948 0.5191 0.8471
C23 C 0.6941(6) 0.5280(5) 0.7568(3)
H31 H 0.7638 0.5231 0.7511
H32 H 0.6644 0.4788 0.7506
C24 C 0.5799(7) 0.2469(5) 0.3231(4)
H33 H 0.6240 0.2198 0.2969
H34 H 0.5404 0.2099 0.3440
C25 C 0.5162(6) 0.2964(5) 0.2871(4)
H35 H 0.4842 0.2667 0.2570
H36 H 0.5547 0.3351 0.2683
H37 H 0.4683 0.3196 0.3124
C26 C 0.8293(6) 0.7120(5) 0.7034(4)
H38 H 0.8546 0.7545 0.6807
H39 H 0.8066 0.6741 0.6754
C27 C 0.9074(6) 0.6799(5) 0.7404(3)
H40 H 0.8810 0.6376 0.7629
H41 H 0.9281 0.7180 0.7689
C28 C 0.9948(6) 0.6530(5) 0.7065(4)
H42 H 1.0173 0.6931 0.6803
H43 H 1.0468 0.6413 0.7343
C29 C 0.9570(6) 0.5210(5) 0.6979(4)
H44 H 0.9649 0.5178 0.7391
C30 C 0.9301(6) 0.4591(5) 0.6675(4)
H45 H 0.9187 0.4138 0.6877
C31 C 0.9193(6) 0.4621(5) 0.6066(4)
C32 C 0.9419(6) 0.5288(5) 0.5794(4)
H46 H 0.9388 0.5323 0.5380
C33 C 0.9688(6) 0.5901(5) 0.6118(4)
H47 H 0.9848 0.6352 0.5926
C34 C 0.8709(5) 0.3984(5) 0.5765(4)
H48 H 0.8720 0.3529 0.6015
C35 C 0.8966(6) 0.3795(5) 0.5116(3)
H49 H 0.9518 0.4098 0.4976
C36 C 0.9110(6) 0.2996(5) 0.4988(4)
C37 C 0.9783(6) 0.2769(5) 0.4563(4)
H50 H 1.0150 0.3137 0.4367
C38 C 0.9923(7) 0.2041(6) 0.4424(4)
H51 H 1.0359 0.1917 0.4122
C39 C 0.9445(7) 0.1481(5) 0.4713(4)
C40 C 0.8785(7) 0.1684(5) 0.5141(4)
H52 H 0.8443 0.1311 0.5348
C41 C 0.8628(6) 0.2427(5) 0.5265(4)
H53 H 0.8168 0.2552 0.5554
C42 C 0.9098(8) 0.0196(6) 0.4845(5)
H54 H 0.9301 -0.0289 0.4696
H55 H 0.8417 0.0266 0.4765
H56 H 0.9209 0.0219 0.5268
N4 N 0.8866(14) 0.8650(10) 0.7582(9)
C43 C 0.9503(18) 0.8809(11) 0.7235(11)
C44 C 1.0232(13) 0.8844(10) 0.6847(9)
H57 H 1.0647 0.9264 0.6947
H58 H 0.9977 0.8913 0.6452
H59 H 1.0600 0.8382 0.6863
O20 O 1.086(6) 0.877(4) 0.817(4)
C45 C 0.6566(17) -0.0200(11) 0.5565(10)
H60 H 0.6232 -0.0511 0.5299
C46 C 0.7351(17) -0.0473(10) 0.5867(10)
H61 H 0.7555 -0.0971 0.5807
C47 C 0.7840(16) -0.0019(13) 0.6257(12)
H62 H 0.8377 -0.0206 0.6463
C48 C 0.7543(18) 0.0709(12) 0.6344(11)
H63 H 0.7876 0.1019 0.6611
C49 C 0.6757(17) 0.0982(10) 0.6043(11)
H64 H 0.6554 0.1480 0.6103
C50 C 0.6269(16) 0.0528(12) 0.5653(11)
H65 H 0.5732 0.0715 0.5447
C51 C 0.4044(6) 0.9609(5) 0.8538(6)
H66 H 0.4609 0.9900 0.8528
C52 C 0.3489(9) 0.9536(5) 0.8038(4)
H67 H 0.3675 0.9776 0.7686
C53 C 0.2661(8) 0.9111(6) 0.8052(5)
H68 H 0.2282 0.9061 0.7710
C54 C 0.2389(6) 0.8760(5) 0.8567(7)
H69 H 0.1824 0.8469 0.8577
C55 C 0.2944(10) 0.8833(5) 0.9067(5)
H70 H 0.2758 0.8592 0.9419
C56 C 0.3772(8) 0.9258(7) 0.9053(4)
H71 H 0.4151 0.9308 0.9395
O21? O 1.008(5) 0.892(4) 0.780(3)
C57? C 0.7102(16) -0.0718(10) 0.5602(10)
H72? H 0.7016 -0.1179 0.5407
C58? C 0.7805(17) -0.0646(11) 0.6027(11)
H73? H 0.8198 -0.1057 0.6123
C59? C 0.7932(19) 0.0029(14) 0.6312(12)
H74? H 0.8412 0.0078 0.6602
C60? C 0.736(2) 0.0632(11) 0.6171(12)
H75? H 0.7443 0.1093 0.6366
C61? C 0.6654(18) 0.0560(11) 0.5746(12)
H76? H 0.6260 0.0972 0.5650
C62? C 0.6527(16) -0.0115(13) 0.5461(11)
H77? H 0.6047 -0.0164 0.5171
loop_
_geom_bond_atom_site_label_1
_geom_bond_atom_site_label_2
_geom_bond_site_symmetry_1
_geom_bond_site_symmetry_2
Cl1 O1 1_555 1_555
O2 Cl1 1_555 1_555
O3 Cl1 1_555 1_555
O4 Cl1 1_555 1_555
Cl2 O5 1_555 1_555
O6 Cl2 1_555 1_555
O7 Cl2 1_555 1_555
O8 Cl2 1_555 1_555
Cl3 O9 1_555 1_555
O10 Cl3 1_555 1_555
O11 Cl3 1_555 1_555
O12 Cl3 1_555 1_555
O13 C11 1_555 1_555
O14 C15 1_555 1_555
O15 C17 1_555 1_555
O16 C19 1_555 1_555
O17 C21 1_555 1_555
O18 C12 1_555 1_555
O19 C39 1_555 1_555
N1 C1 1_555 1_555
N2 H1 1_555 1_555
H2 N2 1_555 1_555
H3 N2 1_555 1_555
N3 C28 1_555 1_555
C1 H4 1_555 1_555
C2 C1 1_555 1_555
H5 C2 1_555 1_555
C3 C2 1_555 1_555
C4 C3 1_555 1_555
H6 C4 1_555 1_555
C5 N1 1_555 1_555
H7 C5 1_555 1_555
C6 C3 1_555 1_555
H8 C6 1_555 1_555
C7 C6 1_555 1_555
H9 C7 1_555 1_555
C8 C7 1_555 1_555
C9 C8 1_555 1_555
H10 C9 1_555 1_555
C10 C9 1_555 1_555
H11 C10 1_555 1_555
C11 C10 1_555 1_555
C12 C11 1_555 1_555
C13 C8 1_555 1_555
H12 C13 1_555 1_555
C14 O13 1_555 1_555
H13 C14 1_555 1_555
H14 C14 1_555 1_555
C15 C14 1_555 1_555
H15 C15 1_555 1_555
H16 C15 1_555 1_555
C16 O14 1_555 1_555
H17 C16 1_555 1_555
H18 C16 1_555 1_555
C17 C16 1_555 1_555
H19 C17 1_555 1_555
H20 C17 1_555 1_555
C18 O15 1_555 1_555
H21 C18 1_555 1_555
H22 C18 1_555 1_555
C19 C18 1_555 1_555
H23 C19 1_555 1_555
H24 C19 1_555 1_555
C20 O16 1_555 1_555
H25 C20 1_555 1_555
H26 C20 1_555 1_555
C21 C20 1_555 1_555
H27 C21 1_555 1_555
H28 C21 1_555 1_555
C22 O17 1_555 1_555
H29 C22 1_555 1_555
H30 C22 1_555 1_555
C23 O18 1_555 1_555
H31 C23 1_555 1_555
H32 C23 1_555 1_555
C24 N1 1_555 1_555
H33 C24 1_555 1_555
H34 C24 1_555 1_555
C25 C24 1_555 1_555
H35 C25 1_555 1_555
H36 C25 1_555 1_555
H37 C25 1_555 1_555
C26 N2 1_555 1_555
H38 C26 1_555 1_555
H39 C26 1_555 1_555
C27 C26 1_555 1_555
H40 C27 1_555 1_555
H41 C27 1_555 1_555
C28 C27 1_555 1_555
H42 C28 1_555 1_555
H43 C28 1_555 1_555
C29 N3 1_555 1_555
H44 C29 1_555 1_555
C30 C29 1_555 1_555
H45 C30 1_555 1_555
C31 C30 1_555 1_555
C32 C31 1_555 1_555
H46 C32 1_555 1_555
C33 N3 1_555 1_555
H47 C33 1_555 1_555
C34 C7 1_555 1_555
H48 C34 1_555 1_555
C35 C6 1_555 1_555
H49 C35 1_555 1_555
C36 C35 1_555 1_555
C37 C36 1_555 1_555
H50 C37 1_555 1_555
C38 C37 1_555 1_555
H51 C38 1_555 1_555
C39 C38 1_555 1_555
C40 C39 1_555 1_555
H52 C40 1_555 1_555
C41 C36 1_555 1_555
H53 C41 1_555 1_555
C42 O19 1_555 1_555
H54 C42 1_555 1_555
H55 C42 1_555 1_555
H56 C42 1_555 1_555
N4 C43 1_555 1_555
C43 C44 1_555 1_555
C44 H57 1_555 1_555
H58 C44 1_555 1_555
H59 C44 1_555 1_555
C45 H60 1_555 1_555
C46 C45 1_555 1_555
H61 C46 1_555 1_555
C47 C46 1_555 1_555
H62 C47 1_555 1_555
C48 C47 1_555 1_555
H63 C48 1_555 1_555
C49 C48 1_555 1_555
H64 C49 1_555 1_555
C50 C45 1_555 1_555
H65 C50 1_555 1_555
C51 H66 1_555 1_555
C52 C51 1_555 1_555
H67 C52 1_555 1_555
C53 C52 1_555 1_555
H68 C53 1_555 1_555
C54 C53 1_555 1_555
H69 C54 1_555 1_555
C55 C54 1_555 1_555
H70 C55 1_555 1_555
C56 C51 1_555 1_555
H71 C56 1_555 1_555
C4 C5 1_555 1_555
C12 C13 1_555 1_555
C22 C23 1_555 1_555
C31 C34 1_555 1_555
C32 C33 1_555 1_555
C34 C35 1_555 1_555
C40 C41 1_555 1_555
C49 C50 1_555 1_555
C55 C56 1_555 1_555

#END
