
#######################################################################
#
#                 Cambridge Crystallographic Data Centre
#                                CCDC 
#
#######################################################################
#
# If this CIF has been generated from an entry in the Cambridge 
# Structural Database, then it will include bibliographic, chemical, 
# crystal, experimental, refinement or atomic coordinate data resulting 
# from the CCDC's data processing and validation procedures.
#
#######################################################################

data_ORARAC
_chemical_compound_source        'Aspergillus terreus'
_chemical_name_common            'Asperterpene A'
_chemical_formula_moiety         'C26 H36 O5'
_chemical_name_systematic        
'methyl 1,2,6,6,10,13,14-heptamethyl-7,16,17-trioxotetracyclo[11.3.1.0^2,11^.0^5,10^]heptadec-14-ene-15-carboxylate'
_chemical_properties_biological  'BACE1 inhibitory activity in animal studies'
_symmetry_cell_setting           orthorhombic
_symmetry_space_group_name_H-M   'P 21 21 21'
_symmetry_Int_Tables_number      19
_space_group_name_Hall           'P 2ac 2ab'
loop_
_symmetry_equiv_pos_site_id
_symmetry_equiv_pos_as_xyz
1 x,y,z
2 1/2+x,1/2-y,-z
3 -x,1/2+y,1/2-z
4 1/2-x,-y,1/2+z
_cell_length_a                   7.9301(2)
_cell_length_b                   11.6306(3)
_cell_length_c                   25.2568(5)
_cell_angle_alpha                90
_cell_angle_beta                 90
_cell_angle_gamma                90
_cell_volume                     2329.48
_cell_formula_units_Z            4
loop_
_atom_site_label
_atom_site_type_symbol
_atom_site_fract_x
_atom_site_fract_y
_atom_site_fract_z
C1 C 0.5739(2) 0.2137(2) 0.85591(8)
H1 H 0.5727 0.2214 0.8942
H2 H 0.5016 0.1496 0.8466
C2 C 0.5031(3) 0.3241(2) 0.83104(10)
H3 H 0.3898 0.3082 0.8185
H4 H 0.4943 0.3820 0.8585
C3 C 0.6024(3) 0.37357(17) 0.78615(8)
C4 C 0.7913(2) 0.39025(15) 0.79552(7)
C5 C 0.8505(2) 0.30289(14) 0.83853(6)
H5 H 0.8229 0.3385 0.8726
C6 C 1.0393(2) 0.28183(17) 0.83983(8)
H6 H 1.0972 0.3551 0.8376
H7 H 1.0709 0.2369 0.8090
C7 C 1.0980(3) 0.21898(18) 0.88961(9)
H8 H 1.1373 0.2757 0.9149
H9 H 1.1936 0.1710 0.8803
C8 C 0.9637(2) 0.14241(14) 0.91717(6)
C9 C 0.8474(2) 0.09605(14) 0.87262(6)
H10 H 0.9240 0.0568 0.8481
C10 C 0.7544(2) 0.18785(14) 0.83761(6)
C11 C 0.7275(2) 0.00164(16) 0.89183(7)
H11 H 0.6578 -0.0237 0.8625
H12 H 0.6536 0.0328 0.9189
C12 C 0.8256(2) -0.10404(15) 0.91504(7)
C13 C 0.7693(2) -0.11944(15) 0.97222(7)
C14 C 0.8443(2) -0.06035(15) 1.01117(7)
C15 C 0.9890(3) 0.01682(16) 1.00251(6)
C16 C 1.0568(2) 0.03381(15) 0.94596(6)
C17 C 1.0114(2) -0.07520(15) 0.91592(6)
C18 C 0.8874(3) 0.38611(19) 0.74329(8)
H13 H 0.8812 0.3099 0.7288
H14 H 1.0032 0.4062 0.7493
H15 H 0.8381 0.4397 0.7188
C19 C 0.8088(4) 0.51306(18) 0.81885(10)
H16 H 0.9246 0.5273 0.8277
H17 H 0.7406 0.5194 0.8501
H18 H 0.7719 0.5684 0.7931
C20 C 0.8710(3) 0.2127(2) 0.95902(7)
H19 H 0.8293 0.2824 0.9434
H20 H 0.9470 0.2312 0.9873
H21 H 0.7782 0.1687 0.9727
C21 C 0.7455(3) 0.13567(17) 0.78189(7)
H22 H 0.7018 0.0589 0.7840
H23 H 0.8565 0.1339 0.7667
H24 H 0.6728 0.1816 0.7601
C22 C 0.7962(3) -0.2114(2) 0.88118(9)
H25 H 0.8373 -0.1980 0.8460
H26 H 0.6777 -0.2281 0.8799
H27 H 0.8551 -0.2754 0.8965
C23 C 0.6238(3) -0.1975(2) 0.98251(9)
H28 H 0.5921 -0.1924 1.0191
H29 H 0.6554 -0.2751 0.9743
H30 H 0.5302 -0.1751 0.9607
C24 C 1.2482(2) 0.04459(19) 0.95111(8)
H31 H 1.2899 -0.0153 0.9738
H32 H 1.2759 0.1181 0.9660
H33 H 1.2991 0.0377 0.9168
C25 C 0.7849(3) -0.06639(17) 1.06702(7)
C26 C 0.8315(3) -0.1489(2) 1.15063(8)
H34 H 0.8534 -0.0780 1.1689
H35 H 0.8967 -0.2094 1.1664
H36 H 0.7137 -0.1672 1.1532
O1 O 0.5353(2) 0.40428(16) 0.74554(7)
O2 O 1.0572(2) 0.06334(14) 1.03989(5)
O3 O 1.11676(19) -0.13506(12) 0.89522(6)
O4 O 0.6667(3) -0.01508(18) 1.08381(7)
O5 O 0.87762(19) -0.13690(13) 1.09558(5)
loop_
_geom_bond_atom_site_label_1
_geom_bond_atom_site_label_2
_geom_bond_site_symmetry_1
_geom_bond_site_symmetry_2
C1 H1 1_555 1_555
H2 C1 1_555 1_555
C2 C1 1_555 1_555
H3 C2 1_555 1_555
H4 C2 1_555 1_555
C3 C2 1_555 1_555
C4 C3 1_555 1_555
C5 C4 1_555 1_555
H5 C5 1_555 1_555
C6 C5 1_555 1_555
H6 C6 1_555 1_555
H7 C6 1_555 1_555
C7 C6 1_555 1_555
H8 C7 1_555 1_555
H9 C7 1_555 1_555
C8 C7 1_555 1_555
C9 C8 1_555 1_555
H10 C9 1_555 1_555
C10 C1 1_555 1_555
C11 C9 1_555 1_555
H11 C11 1_555 1_555
H12 C11 1_555 1_555
C12 C11 1_555 1_555
C13 C12 1_555 1_555
C14 C13 1_555 1_555
C15 C14 1_555 1_555
C16 C8 1_555 1_555
C17 C12 1_555 1_555
C18 C4 1_555 1_555
H13 C18 1_555 1_555
H14 C18 1_555 1_555
H15 C18 1_555 1_555
C19 C4 1_555 1_555
H16 C19 1_555 1_555
H17 C19 1_555 1_555
H18 C19 1_555 1_555
C20 C8 1_555 1_555
H19 C20 1_555 1_555
H20 C20 1_555 1_555
H21 C20 1_555 1_555
C21 C10 1_555 1_555
H22 C21 1_555 1_555
H23 C21 1_555 1_555
H24 C21 1_555 1_555
C22 C12 1_555 1_555
H25 C22 1_555 1_555
H26 C22 1_555 1_555
H27 C22 1_555 1_555
C23 C13 1_555 1_555
H28 C23 1_555 1_555
H29 C23 1_555 1_555
H30 C23 1_555 1_555
C24 C16 1_555 1_555
H31 C24 1_555 1_555
H32 C24 1_555 1_555
H33 C24 1_555 1_555
C25 C14 1_555 1_555
C26 H34 1_555 1_555
H35 C26 1_555 1_555
H36 C26 1_555 1_555
O1 C3 1_555 1_555
O2 C15 1_555 1_555
O3 C17 1_555 1_555
O4 C25 1_555 1_555
O5 C25 1_555 1_555
C5 C10 1_555 1_555
C9 C10 1_555 1_555
C15 C16 1_555 1_555
C16 C17 1_555 1_555
C26 O5 1_555 1_555

#END
