
#######################################################################
#
#                 Cambridge Crystallographic Data Centre
#                                CCDC 
#
#######################################################################
#
# If this CIF has been generated from an entry in the Cambridge 
# Structural Database, then it will include bibliographic, chemical, 
# crystal, experimental, refinement or atomic coordinate data resulting 
# from the CCDC's data processing and validation procedures.
#
#######################################################################

data_ORATIM
_chemical_formula_moiety         'C21 H13 Br1 Cl2 N2'
_chemical_name_systematic        
5-(4-bromophenyl)-1,3-bis(4-chlorophenyl)-1H-pyrazole
_symmetry_cell_setting           orthorhombic
_symmetry_space_group_name_H-M   'P c a 21'
_symmetry_Int_Tables_number      29
_space_group_name_Hall           'P 2c -2ac'
loop_
_symmetry_equiv_pos_site_id
_symmetry_equiv_pos_as_xyz
1 x,y,z
2 -x,-y,1/2+z
3 1/2+x,-y,z
4 1/2-x,y,1/2+z
_cell_length_a                   9.1743(6)
_cell_length_b                   12.4421(9)
_cell_length_c                   16.5980(12)
_cell_angle_alpha                90
_cell_angle_beta                 90
_cell_angle_gamma                90
_cell_volume                     1894.62
_exptl_crystal_colour            yellow
_exptl_crystal_description       block
_cell_formula_units_Z            4
loop_
_atom_site_label
_atom_site_type_symbol
_atom_site_fract_x
_atom_site_fract_y
_atom_site_fract_z
Br1 Br 0.31753(9) 0.77856(10) 1.17309(6)
C1 C 0.8117(7) 1.0538(6) 0.9278(5)
H1 H 0.7547 1.1134 0.9446
N1 N 0.9055(7) 0.8919(5) 0.9134(4)
C2 C 0.9235(8) 1.0528(6) 0.8693(5)
C3 C 0.9624(8) 0.7866(6) 0.9274(5)
C4 C 0.6966(8) 0.9026(7) 1.0104(5)
N2 N 0.9795(7) 0.9556(5) 0.8600(4)
C5 C 0.5281(10) 0.7628(7) 1.0485(5)
H2 H 0.4892 0.6929 1.0402
C6 C 0.9813(8) 1.1452(6) 0.8237(5)
C7 C 0.5311(11) 0.9284(9) 1.1220(6)
H3 H 0.4938 0.9723 1.1640
C8 C 0.4753(9) 0.8278(8) 1.1091(5)
C9 C 0.9184(11) 1.2459(7) 0.8293(6)
H4 H 0.8344 1.2558 0.8619
C10 C 0.9949(11) 0.7546(7) 1.0038(6)
H5 H 0.9694 0.7985 1.0485
C11 C 0.6391(9) 0.8017(6) 0.9999(5)
H6 H 0.6765 0.7572 0.9582
C12 C 0.8033(7) 0.9496(6) 0.9551(5)
C13 C 0.6421(9) 0.9655(7) 1.0731(5)
H7 H 0.6819 1.0349 1.0823
C14 C 0.9956(10) 0.7235(6) 0.8616(6)
H8 H 0.9701 0.7464 0.8089
C15 C 1.1009(10) 0.5950(7) 0.9501(7)
C16 C 1.0662(10) 0.6265(7) 0.8732(7)
H9 H 1.0904 0.5822 0.8285
C17 C 1.1628(11) 1.2189(8) 0.7348(7)
H10 H 1.2465 1.2095 0.7018
C18 C 1.1053(10) 1.1340(7) 0.7755(5)
H11 H 1.1505 1.0655 0.7710
C19 C 0.9766(12) 1.3329(8) 0.7878(6)
H12 H 0.9322 1.4017 0.7912
Cl1 Cl 1.1736(4) 1.4281(3) 0.6910(2)
Cl2 Cl 1.2019(4) 0.4774(2) 0.9636(3)
C20 C 1.0989(12) 1.3180(8) 0.7419(6)
C21 C 1.0654(10) 0.6572(8) 1.0157(7)
H13 H 1.0889 0.6338 1.0686
loop_
_geom_bond_atom_site_label_1
_geom_bond_atom_site_label_2
_geom_bond_site_symmetry_1
_geom_bond_site_symmetry_2
Br1 C8 1_555 1_555
C1 H1 1_555 1_555
N1 C3 1_555 1_555
C2 C1 1_555 1_555
C3 C10 1_555 1_555
C4 C11 1_555 1_555
N2 N1 1_555 1_555
C5 H2 1_555 1_555
C6 C2 1_555 1_555
C7 H3 1_555 1_555
C8 C5 1_555 1_555
C9 C6 1_555 1_555
H4 C9 1_555 1_555
C10 H5 1_555 1_555
C11 C5 1_555 1_555
H6 C11 1_555 1_555
C12 C1 1_555 1_555
C13 C4 1_555 1_555
H7 C13 1_555 1_555
C14 C3 1_555 1_555
H8 C14 1_555 1_555
C15 C16 1_555 1_555
C16 C14 1_555 1_555
H9 C16 1_555 1_555
C17 H10 1_555 1_555
C18 C6 1_555 1_555
H11 C18 1_555 1_555
C19 C9 1_555 1_555
H12 C19 1_555 1_555
Cl1 C20 1_555 1_555
Cl2 C15 1_555 1_555
C20 C17 1_555 1_555
C21 C10 1_555 1_555
H13 C21 1_555 1_555
N1 C12 1_555 1_555
C2 N2 1_555 1_555
C4 C12 1_555 1_555
C7 C8 1_555 1_555
C7 C13 1_555 1_555
C15 C21 1_555 1_555
C17 C18 1_555 1_555
C19 C20 1_555 1_555

#END
