
#######################################################################
#
#                 Cambridge Crystallographic Data Centre
#                                CCDC 
#
#######################################################################
#
# If this CIF has been generated from an entry in the Cambridge 
# Structural Database, then it will include bibliographic, chemical, 
# crystal, experimental, refinement or atomic coordinate data resulting 
# from the CCDC's data processing and validation procedures.
#
#######################################################################

data_OREKED
_chemical_formula_moiety         'C21 H23 N1 O4'
_chemical_name_systematic        
'Ethyl (1R*,2R*,5S*,6R*,7S*)-3-[(2,4-dimethoxyphenyl)methyl]-4-oxo-2-(prop-2-en-1-yl)-10-oxa-3-azatricyclo[5.2.1.0^1,5^]dec-8-ene-6-carboxylate'
_symmetry_cell_setting           orthorhombic
_symmetry_space_group_name_H-M   'P b c n'
_symmetry_Int_Tables_number      60
_space_group_name_Hall           '-P 2n 2ab'
loop_
_symmetry_equiv_pos_site_id
_symmetry_equiv_pos_as_xyz
1 x,y,z
2 1/2-x,1/2-y,1/2+z
3 1/2+x,1/2-y,-z
4 -x,y,1/2-z
5 -x,-y,-z
6 1/2+x,1/2+y,1/2-z
7 1/2-x,1/2+y,z
8 x,-y,1/2+z
_cell_length_a                   22.8332(4)
_cell_length_b                   9.84289(14)
_cell_length_c                   16.7747(3)
_cell_angle_alpha                90
_cell_angle_beta                 90
_cell_angle_gamma                90
_cell_volume                     3770.02
_exptl_crystal_colour            colorless
_exptl_crystal_description       needle
_cell_formula_units_Z            8
loop_
_atom_site_label
_atom_site_type_symbol
_atom_site_fract_x
_atom_site_fract_y
_atom_site_fract_z
O1 O 0.28354(4) 0.02643(7) 0.17161(5)
O2 O 0.11041(4) 0.16704(8) 0.11374(6)
O3 O 0.15703(4) -0.03250(8) 0.12481(6)
O4 O 0.20564(4) 0.19182(12) -0.01526(6)
N1 N 0.30140(5) 0.13748(11) 0.01021(7)
C1 C 0.28284(5) 0.17258(12) 0.27801(7)
H1 H 0.2799 0.1930 0.3320
C2 C 0.38715(6) 0.02419(13) 0.07470(8)
H2 H 0.3648 -0.0593 0.0788
H3 H 0.4088 0.0219 0.0250
C3 C 0.20284(5) 0.17027(11) 0.17659(7)
H4 H 0.1858 0.2444 0.2080
C4 C 0.32258(5) 0.21921(11) 0.22687(7)
H5 H 0.3537 0.2773 0.2377
C5 C 0.30617(5) 0.15723(10) 0.14727(7)
C6 C 0.15533(5) 0.08857(12) 0.13608(7)
C7 C 0.24911(5) 0.22564(10) 0.11716(7)
H6 H 0.2521 0.3247 0.1214
C8 C 0.34524(5) 0.14563(12) 0.07436(7)
H7 H 0.3679 0.2296 0.0684
C9 C 0.24322(5) 0.07894(11) 0.22996(7)
H8 H 0.2226 0.0098 0.2613
C10 C 0.24718(6) 0.18242(12) 0.03057(8)
C11 C 0.42910(7) 0.03326(15) 0.14295(9)
H9 H 0.4141 0.0236 0.1942
C12 C 0.3503(5) 0.2085(8) -0.1079(7)
C13 C 0.3131(6) 0.1014(13) -0.0679(8)
H10 H 0.2766 0.0909 -0.0969
H11 H 0.3335 0.0149 -0.0689
C14 C 0.3444(7) 0.3453(11) -0.0904(9)
H12 H 0.3180 0.3720 -0.0513
C15 C 0.3771(4) 0.4436(6) -0.1301(5)
H13 H 0.3722 0.5351 -0.1180
C16 C 0.48568(7) 0.05393(19) 0.13560(11)
H14 H 0.5022 0.0641 0.0853
H15 H 0.5092 0.0585 0.1807
C17 C 0.06445(6) 0.09837(13) 0.06972(9)
H16 H 0.0386 0.0508 0.1061
H17 H 0.0813 0.0327 0.0332
C18 C 0.03113(7) 0.20439(17) 0.02454(11)
H18 H 0.0569 0.2491 -0.0123
H19 H 0.0154 0.2698 0.0612
H20 H -0.0003 0.1622 -0.0043
C19 C 0.3907(3) 0.1723(5) -0.1655(4)
H21 H 0.3960 0.0808 -0.1773
C20 C 0.4236(2) 0.2681(6) -0.2060(4)
H22 H 0.4498 0.2409 -0.2453
C21 C 0.4173(3) 0.4035(7) -0.1880(3)
H23 H 0.4398 0.4682 -0.2144
C22? C 0.4267(2) 0.3335(8) -0.2007(3)
H24? H 0.4553 0.3184 -0.2392
C23? C 0.3981(3) 0.2246(6) -0.1674(4)
H25? H 0.4072 0.1367 -0.1836
C24? C 0.4138(2) 0.4641(6) -0.1780(3)
H26? H 0.4332 0.5368 -0.2016
C25? C 0.3717(3) 0.4873(6) -0.1199(5)
H27? H 0.3632 0.5755 -0.1038
C26? C 0.3549(5) 0.2465(9) -0.1088(7)
C27? C 0.3420(6) 0.3775(11) -0.0858(9)
H28? H 0.3135 0.3930 -0.0473
C28? C 0.3216(5) 0.1254(11) -0.0764(7)
H29? H 0.3463 0.0456 -0.0811
H30? H 0.2874 0.1106 -0.1096
loop_
_geom_bond_atom_site_label_1
_geom_bond_atom_site_label_2
_geom_bond_site_symmetry_1
_geom_bond_site_symmetry_2
O1 C5 1_555 1_555
O2 C6 1_555 1_555
O3 C6 1_555 1_555
O4 C10 1_555 1_555
N1 C8 1_555 1_555
C1 H1 1_555 1_555
C2 H2 1_555 1_555
H3 C2 1_555 1_555
C3 H4 1_555 1_555
C4 C1 1_555 1_555
H5 C4 1_555 1_555
C5 C4 1_555 1_555
C6 C3 1_555 1_555
C7 C3 1_555 1_555
H6 C7 1_555 1_555
C8 C2 1_555 1_555
H7 C8 1_555 1_555
C9 O1 1_555 1_555
H8 C9 1_555 1_555
C10 N1 1_555 1_555
C11 C2 1_555 1_555
H9 C11 1_555 1_555
C12 C13 1_555 1_555
C13 N1 1_555 1_555
H10 C13 1_555 1_555
H11 C13 1_555 1_555
C14 C12 1_555 1_555
H12 C14 1_555 1_555
C15 C14 1_555 1_555
H13 C15 1_555 1_555
C16 C11 1_555 1_555
H14 C16 1_555 1_555
H15 C16 1_555 1_555
C17 O2 1_555 1_555
H16 C17 1_555 1_555
H17 C17 1_555 1_555
C18 C17 1_555 1_555
H18 C18 1_555 1_555
H19 C18 1_555 1_555
H20 C18 1_555 1_555
C19 C12 1_555 1_555
H21 C19 1_555 1_555
C20 C19 1_555 1_555
H22 C20 1_555 1_555
C21 C15 1_555 1_555
H23 C21 1_555 1_555
C1 C9 1_555 1_555
C3 C9 1_555 1_555
C5 C7 1_555 1_555
C5 C8 1_555 1_555
C7 C10 1_555 1_555
C20 C21 1_555 1_555

#END
