
#######################################################################
#
#                 Cambridge Crystallographic Data Centre
#                                CCDC 
#
#######################################################################
#
# If this CIF has been generated from an entry in the Cambridge 
# Structural Database, then it will include bibliographic, chemical, 
# crystal, experimental, refinement or atomic coordinate data resulting 
# from the CCDC's data processing and validation procedures.
#
#######################################################################

data_OREQUY
_chemical_formula_moiety         'C19 H18 Br1 N3 O2'
_chemical_name_systematic        
4-((5-Bromo-2-methoxybenzylidene)amino)-1,5-dimethyl-2-phenyl-1,2-dihydro-3H-pyrazol-3-one
_chemical_properties_biological  'antibacterial activity'
_symmetry_cell_setting           monoclinic
_symmetry_space_group_name_H-M   'P 21/n'
_symmetry_Int_Tables_number      14
_space_group_name_Hall           '-P 2yn'
loop_
_symmetry_equiv_pos_site_id
_symmetry_equiv_pos_as_xyz
1 x,y,z
2 1/2-x,1/2+y,1/2-z
3 -x,-y,-z
4 1/2+x,1/2-y,1/2+z
_cell_length_a                   6.987(1)
_cell_length_b                   27.930(2)
_cell_length_c                   9.483(1)
_cell_angle_alpha                90
_cell_angle_beta                 109.36(2)
_cell_angle_gamma                90
_cell_volume                     1745.94
_exptl_crystal_colour            colorless
_exptl_crystal_description       block
_cell_formula_units_Z            4
_exptl_crystal_recrystallization_method ethanol
loop_
_atom_site_label
_atom_site_type_symbol
_atom_site_fract_x
_atom_site_fract_y
_atom_site_fract_z
Br1 Br 0.21962(5) 0.022098(13) -0.08449(3)
N1 N 0.0873(3) 0.09090(8) 0.4156(2)
N2 N -0.2192(3) 0.09116(8) 0.6474(3)
N3 N -0.0849(3) 0.12789(8) 0.7167(2)
O1 O 0.5495(3) 0.17236(7) 0.3886(2)
O2 O 0.1717(3) 0.16959(7) 0.6666(2)
C1 C 0.3149(4) 0.11104(10) 0.2835(3)
C2 C 0.4803(4) 0.13884(11) 0.2792(3)
C3 C 0.5652(5) 0.13122(11) 0.1685(3)
H1 H 0.6742 0.1498 0.1655
C4 C 0.4883(5) 0.09621(12) 0.0631(3)
H2 H 0.5462 0.0908 -0.0108
C5 C 0.3249(5) 0.06905(11) 0.0670(3)
C6 C 0.2397(4) 0.07627(10) 0.1755(3)
H3 H 0.1300 0.0576 0.1768
C7 C 0.7024(5) 0.20464(12) 0.3788(4)
H4 H 0.8160 0.1868 0.3711
H5 H 0.7456 0.2243 0.4667
H6 H 0.6486 0.2245 0.2921
C8 C 0.2247(4) 0.11870(11) 0.4001(3)
H7 H 0.2682 0.1445 0.4650
C9 C 0.0026(4) 0.09935(9) 0.5261(3)
C10 C -0.1559(4) 0.07285(10) 0.5389(3)
C11 C 0.0489(4) 0.13598(11) 0.6389(3)
C12 C -0.2542(5) 0.02994(10) 0.4522(3)
H8 H -0.2183 0.0021 0.5148
H9 H -0.2089 0.0260 0.3678
H10 H -0.3988 0.0340 0.4181
C13 C -0.3258(5) 0.06531(12) 0.7322(3)
H11 H -0.3604 0.0339 0.6908
H12 H -0.4474 0.0823 0.7271
H13 H -0.2400 0.0627 0.8346
C14 C -0.1358(4) 0.16132(10) 0.8117(3)
C15 C 0.0165(5) 0.17551(11) 0.9399(3)
H14 H 0.1462 0.1626 0.9640
C16 C -0.0270(6) 0.20897(12) 1.0311(3)
H15 H 0.0751 0.2192 1.1167
C17 C -0.2205(6) 0.22764(11) 0.9976(4)
H16 H -0.2481 0.2505 1.0594
C18 C -0.3720(5) 0.21197(12) 0.8714(4)
H17 H -0.5036 0.2234 0.8500
C19 C -0.3288(5) 0.17938(11) 0.7771(3)
H18 H -0.4300 0.1696 0.6903
loop_
_geom_bond_atom_site_label_1
_geom_bond_atom_site_label_2
_geom_bond_site_symmetry_1
_geom_bond_site_symmetry_2
Br1 C5 1_555 1_555
N1 C8 1_555 1_555
N2 N3 1_555 1_555
N3 C11 1_555 1_555
O1 C2 1_555 1_555
O2 C11 1_555 1_555
C1 C2 1_555 1_555
C2 C3 1_555 1_555
C3 H1 1_555 1_555
C4 C3 1_555 1_555
H2 C4 1_555 1_555
C5 C4 1_555 1_555
C6 C1 1_555 1_555
H3 C6 1_555 1_555
C7 O1 1_555 1_555
H4 C7 1_555 1_555
H5 C7 1_555 1_555
H6 C7 1_555 1_555
C8 C1 1_555 1_555
H7 C8 1_555 1_555
C9 N1 1_555 1_555
C10 N2 1_555 1_555
C11 C9 1_555 1_555
C12 C10 1_555 1_555
H8 C12 1_555 1_555
H9 C12 1_555 1_555
H10 C12 1_555 1_555
C13 N2 1_555 1_555
H11 C13 1_555 1_555
H12 C13 1_555 1_555
H13 C13 1_555 1_555
C14 N3 1_555 1_555
C15 C14 1_555 1_555
H14 C15 1_555 1_555
C16 C15 1_555 1_555
H15 C16 1_555 1_555
C17 C16 1_555 1_555
H16 C17 1_555 1_555
C18 C17 1_555 1_555
H17 C18 1_555 1_555
C19 C14 1_555 1_555
H18 C19 1_555 1_555
C5 C6 1_555 1_555
C9 C10 1_555 1_555
C18 C19 1_555 1_555

#END
