
#######################################################################
#
#                 Cambridge Crystallographic Data Centre
#                                CCDC 
#
#######################################################################
#
# If this CIF has been generated from an entry in the Cambridge 
# Structural Database, then it will include bibliographic, chemical, 
# crystal, experimental, refinement or atomic coordinate data resulting 
# from the CCDC's data processing and validation procedures.
#
#######################################################################

data_OREWIT
_chemical_formula_moiety         'C68 H60 N4 O4'
_chemical_name_systematic        
'42,44,47,50-tetrabutyl-42,44,47,50-tetraazatridecacyclo[35.3.1.1^2,6^.1^3,40^.1^7,11^.1^10,13^.1^12,16^.1^17,21^.1^20,23^.1^22,26^.1^27,31^.1^30,33^.1^32,36^]dopentaconta-1(41),2(52),3,5,7(51),8,10,12(49),13,15,17(48),18,20,22(46),23,25,27(45),28,30,32(43),33,35,37,39-tetracosaene-5,18,25,38-tetracarbaldehyde unknown solvate'
_symmetry_cell_setting           monoclinic
_symmetry_space_group_name_H-M   'P 21/n'
_symmetry_Int_Tables_number      14
_space_group_name_Hall           '-P 2yn'
loop_
_symmetry_equiv_pos_site_id
_symmetry_equiv_pos_as_xyz
1 x,y,z
2 1/2-x,1/2+y,1/2-z
3 -x,-y,-z
4 1/2+x,1/2-y,1/2+z
_cell_length_a                   24.0438(10)
_cell_length_b                   11.1270(8)
_cell_length_c                   26.6039(14)
_cell_angle_alpha                90
_cell_angle_beta                 92.549(4)
_cell_angle_gamma                90
_cell_volume                     7110.44
_exptl_crystal_colour            yellow
_exptl_crystal_description       plate
_cell_formula_units_Z            4
loop_
_atom_site_label
_atom_site_type_symbol
_atom_site_fract_x
_atom_site_fract_y
_atom_site_fract_z
O1 O 1.03193(12) 0.2321(3) 0.30404(12)
O2 O 1.03422(12) 0.0911(4) 0.69055(11)
O3 O 0.53597(13) 0.7397(3) 0.32693(13)
O4 O 0.52971(14) 0.5474(4) 0.71040(12)
N1 N 0.53515(13) 0.6417(3) 0.51958(13)
N2 N 0.72410(14) 0.0143(4) 0.72105(13)
N3 N 1.03004(12) 0.1609(3) 0.49825(12)
N4 N 0.71896(12) 0.2187(3) 0.25165(12)
C1 C 0.55489(15) 0.5644(4) 0.55650(16)
C2 C 0.54486(16) 0.5609(4) 0.60777(17)
H1 H 0.5209 0.6162 0.6216
C3 C 0.57113(15) 0.4737(4) 0.63799(15)
C4 C 0.60706(14) 0.3859(4) 0.61769(15)
C5 C 0.61539(15) 0.3919(4) 0.56638(16)
H2 H 0.6383 0.3351 0.5521
C6 C 0.59071(14) 0.4798(4) 0.53568(15)
C7 C 0.55741(15) 0.6098(4) 0.47471(17)
C8 C 0.55015(15) 0.6583(4) 0.42685(17)
H3 H 0.5273 0.7248 0.4213
C9 C 0.57755(14) 0.6061(4) 0.38718(15)
C10 C 0.61188(15) 0.5032(4) 0.39397(16)
C11 C 0.61934(15) 0.4573(4) 0.44281(16)
H4 H 0.6426 0.3914 0.4485
C12 C 0.59249(15) 0.5087(4) 0.48330(15)
C13 C 0.56407(18) 0.4846(5) 0.69249(17)
H5 H 0.5876 0.4404 0.7142
C14 C 0.57054(18) 0.6648(5) 0.33731(17)
H6 H 0.5945 0.6421 0.3125
C15 C 0.49750(18) 0.7431(5) 0.52680(18)
H7 H 0.4727 0.7502 0.4972
H8 H 0.4748 0.7252 0.5551
C16 C 0.5245(3) 0.8588(6) 0.5358(3)
H9 H 0.5463 0.8764 0.5069
H10 H 0.4955 0.9192 0.5367
C17 C 0.5593(4) 0.8743(7) 0.5787(3)
H11 H 0.5924 0.8254 0.5757
H12 H 0.5402 0.8463 0.6078
C18 C 0.5774(5) 1.0091(8) 0.5876(4)
H13 H 0.6012 1.0145 0.6174
H14 H 0.5972 1.0370 0.5592
H15 H 0.5450 1.0579 0.5914
C19 C 0.77385(16) 0.0201(5) 0.69678(16)
C20 C 0.82117(17) -0.0535(5) 0.70208(18)
H16 H 0.8225 -0.1178 0.7245
C21 C 0.86620(17) -0.0272(5) 0.67267(17)
H17 H 0.8980 -0.0746 0.6761
C22 C 0.86520(15) 0.0675(4) 0.63842(16)
C23 C 0.81777(15) 0.1404(4) 0.63357(15)
H18 H 0.8169 0.2054 0.6116
C24 C 0.77225(15) 0.1153(4) 0.66164(15)
C25 C 0.68978(16) 0.1046(4) 0.70088(15)
C26 C 0.63474(17) 0.1348(5) 0.71164(17)
H19 H 0.6162 0.0941 0.7365
C27 C 0.60900(17) 0.2259(5) 0.68452(16)
H20 H 0.5722 0.2442 0.6907
C28 C 0.63592(15) 0.2924(4) 0.64797(14)
C29 C 0.69074(15) 0.2648(4) 0.63915(14)
H21 H 0.7099 0.3099 0.6161
C30 C 0.71753(15) 0.1701(4) 0.66445(15)
C31 C 0.7088(2) -0.0744(6) 0.7575(2)
H22 H 0.6918 -0.0341 0.7853
H23 H 0.7422 -0.1143 0.7707
C32 C 0.6690(6) -0.1672(13) 0.7361(5)
H24 H 0.6384 -0.1300 0.7169
H25 H 0.6542 -0.2162 0.7625
C33 C 0.7067(4) -0.2447(11) 0.7008(5)
H26 H 0.7183 -0.1953 0.6732
H27 H 0.7399 -0.2707 0.7199
C34 C 0.6762(6) -0.3518(12) 0.6805(5)
H28 H 0.7000 -0.3968 0.6594
H29 H 0.6653 -0.4016 0.7079
H30 H 0.6437 -0.3262 0.6612
C35 C 0.99649(14) 0.1717(4) 0.45445(16)
C36 C 1.01017(15) 0.1938(4) 0.40578(16)
H31 H 1.0472 0.2042 0.3979
C37 C 0.96747(15) 0.2004(4) 0.36788(16)
C38 C 0.91103(14) 0.1829(4) 0.38016(16)
C39 C 0.89862(14) 0.1594(4) 0.42894(16)
H32 H 0.8618 0.1474 0.4369
C40 C 0.94068(14) 0.1531(4) 0.46696(15)
C41 C 0.99714(15) 0.1369(4) 0.53789(16)
C42 C 1.01070(15) 0.1204(4) 0.58820(16)
H33 H 1.0478 0.1232 0.5998
C43 C 0.96902(15) 0.0993(4) 0.62185(15)
C44 C 0.91201(14) 0.0908(4) 0.60466(15)
C45 C 0.89961(15) 0.1066(4) 0.55383(15)
H34 H 0.8627 0.1008 0.5420
C46 C 0.94083(14) 0.1313(4) 0.51958(15)
C47 C 0.98447(18) 0.2288(4) 0.31668(17)
H35 H 0.9565 0.2452 0.2924
C48 C 0.98621(17) 0.0928(4) 0.67550(16)
H36 H 0.9587 0.0899 0.6990
C49 C 1.08966(14) 0.1869(4) 0.50264(18)
H37 H 1.1041 0.1947 0.4693
H38 H 1.1089 0.1207 0.5196
C50 C 1.1006(7) 0.3012(10) 0.5318(7)
H39 H 1.1404 0.3159 0.5338
H40 H 1.0887 0.2902 0.5658
C51 C 1.0717(7) 0.4111(11) 0.5093(8)
H41 H 1.0319 0.4039 0.5132
H42 H 1.0781 0.4147 0.4736
C52 C 1.0928(19) 0.5281(18) 0.5346(14)
H43 H 1.0736 0.5954 0.5194
H44 H 1.0859 0.5254 0.5698
H45 H 1.1320 0.5361 0.5303
C53 C 0.68747(15) 0.2970(4) 0.28024(15)
C54 C 0.63258(15) 0.3356(4) 0.27244(16)
H46 H 0.6120 0.3150 0.2433
C55 C 0.60962(15) 0.4050(4) 0.30908(16)
H47 H 0.5728 0.4298 0.3045
C56 C 0.63967(14) 0.4396(4) 0.35292(14)
C57 C 0.69495(14) 0.4042(4) 0.35986(15)
H48 H 0.7160 0.4290 0.3881
C58 C 0.71843(14) 0.3310(4) 0.32381(14)
C59 C 0.76995(15) 0.2034(4) 0.27701(14)
C60 C 0.81421(16) 0.1287(4) 0.26477(15)
H49 H 0.8129 0.0825 0.2356
C61 C 0.85978(15) 0.1269(4) 0.29799(15)
H50 H 0.8897 0.0780 0.2906
C62 C 0.86343(14) 0.1934(4) 0.34154(15)
C63 C 0.81898(14) 0.2675(4) 0.35348(15)
H51 H 0.8209 0.3136 0.3827
C64 C 0.77191(14) 0.2717(4) 0.32139(14)
C65 C 0.70164(19) 0.1624(6) 0.20429(17)
H52 H 0.6620 0.1751 0.1982
H53 H 0.7079 0.0765 0.2070
C66 C 0.7319(5) 0.2100(10) 0.1602(3)
H54 H 0.7699 0.1806 0.1626
H55 H 0.7144 0.1775 0.1295
C67 C 0.7332(6) 0.3444(11) 0.1560(4)
H56 H 0.7309 0.3796 0.1892
H57 H 0.7682 0.3693 0.1424
C68 C 0.6864(8) 0.3886(16) 0.1230(7)
H58 H 0.6881 0.4747 0.1209
H59 H 0.6890 0.3548 0.0900
H60 H 0.6518 0.3651 0.1367
H61? H 0.6829 -0.0374 0.7797
H62? H 0.7419 -0.0955 0.7777
C69? C 0.6827(16) -0.190(3) 0.7370(13)
H63? H 0.6520 -0.2049 0.7585
H64? H 0.7101 -0.2513 0.7453
C70? C 0.6588(13) -0.225(4) 0.6818(11)
H65? H 0.6421 -0.3040 0.6822
H66? H 0.6305 -0.1674 0.6704
C71? C 0.7069(19) -0.223(5) 0.6464(16)
H67? H 0.6933 -0.2441 0.6131
H68? H 0.7230 -0.1444 0.6461
H69? H 0.7345 -0.2805 0.6578
H70? H 1.1072 0.1540 0.4735
H71? H 1.1055 0.1462 0.5322
C72? C 1.1036(10) 0.3202(13) 0.5066(8)
H72? H 1.1437 0.3295 0.5108
H73? H 1.0917 0.3597 0.4755
C73? C 1.0764(9) 0.3807(17) 0.5498(8)
H74? H 1.0879 0.3388 0.5805
H75? H 1.0364 0.3703 0.5450
C74? C 1.0881(18) 0.515(2) 0.5575(17)
H76? H 1.0687 0.5431 0.5860
H77? H 1.1274 0.5267 0.5636
H78? H 1.0757 0.5583 0.5280
H79? H 0.6685 0.1146 0.2089
H80? H 0.7308 0.1091 0.1937
C75? C 0.6889(11) 0.261(3) 0.1621(8)
H81? H 0.6554 0.2317 0.1445
H82? H 0.6776 0.3308 0.1807
C76? C 0.7234(16) 0.312(4) 0.1204(15)
H83? H 0.7037 0.3059 0.0879
H84? H 0.7325 0.3961 0.1268
C77? C 0.7737(14) 0.237(4) 0.1226(12)
H85? H 0.7984 0.2631 0.0973
H86? H 0.7921 0.2442 0.1552
H87? H 0.7635 0.1547 0.1166
loop_
_geom_bond_atom_site_label_1
_geom_bond_atom_site_label_2
_geom_bond_site_symmetry_1
_geom_bond_site_symmetry_2
O1 C47 1_555 1_555
O2 C48 1_555 1_555
O3 C14 1_555 1_555
O4 C13 1_555 1_555
N1 C1 1_555 1_555
N2 C19 1_555 1_555
N3 C35 1_555 1_555
N4 C53 1_555 1_555
C1 C2 1_555 1_555
C2 H1 1_555 1_555
C3 C2 1_555 1_555
C4 C3 1_555 1_555
C5 C4 1_555 1_555
H2 C5 1_555 1_555
C6 C1 1_555 1_555
C7 N1 1_555 1_555
C8 C7 1_555 1_555
H3 C8 1_555 1_555
C9 C8 1_555 1_555
C10 C9 1_555 1_555
C11 C10 1_555 1_555
H4 C11 1_555 1_555
C12 C6 1_555 1_555
C13 C3 1_555 1_555
H5 C13 1_555 1_555
C14 C9 1_555 1_555
H6 C14 1_555 1_555
C15 N1 1_555 1_555
H7 C15 1_555 1_555
H8 C15 1_555 1_555
C16 C15 1_555 1_555
H9 C16 1_555 1_555
H10 C16 1_555 1_555
C17 C16 1_555 1_555
H11 C17 1_555 1_555
H12 C17 1_555 1_555
C18 C17 1_555 1_555
H13 C18 1_555 1_555
H14 C18 1_555 1_555
H15 C18 1_555 1_555
C19 C20 1_555 1_555
C20 H16 1_555 1_555
C21 C20 1_555 1_555
H17 C21 1_555 1_555
C22 C21 1_555 1_555
C23 C22 1_555 1_555
H18 C23 1_555 1_555
C24 C19 1_555 1_555
C25 N2 1_555 1_555
C26 C25 1_555 1_555
H19 C26 1_555 1_555
C27 C26 1_555 1_555
H20 C27 1_555 1_555
C28 C4 1_555 1_555
C29 C28 1_555 1_555
H21 C29 1_555 1_555
C30 C24 1_555 1_555
C31 N2 1_555 1_555
H22 C31 1_555 1_555
H23 C31 1_555 1_555
C32 C31 1_555 1_555
H24 C32 1_555 1_555
H25 C32 1_555 1_555
C33 C32 1_555 1_555
H26 C33 1_555 1_555
H27 C33 1_555 1_555
C34 C33 1_555 1_555
H28 C34 1_555 1_555
H29 C34 1_555 1_555
H30 C34 1_555 1_555
C35 C36 1_555 1_555
C36 H31 1_555 1_555
C37 C36 1_555 1_555
C38 C37 1_555 1_555
C39 C38 1_555 1_555
H32 C39 1_555 1_555
C40 C35 1_555 1_555
C41 N3 1_555 1_555
C42 C41 1_555 1_555
H33 C42 1_555 1_555
C43 C42 1_555 1_555
C44 C22 1_555 1_555
C45 C44 1_555 1_555
H34 C45 1_555 1_555
C46 C40 1_555 1_555
C47 C37 1_555 1_555
H35 C47 1_555 1_555
C48 C43 1_555 1_555
H36 C48 1_555 1_555
C49 N3 1_555 1_555
H37 C49 1_555 1_555
H38 C49 1_555 1_555
C50 C49 1_555 1_555
H39 C50 1_555 1_555
H40 C50 1_555 1_555
C51 C50 1_555 1_555
H41 C51 1_555 1_555
H42 C51 1_555 1_555
C52 C51 1_555 1_555
H43 C52 1_555 1_555
H44 C52 1_555 1_555
H45 C52 1_555 1_555
C53 C54 1_555 1_555
C54 H46 1_555 1_555
C55 C54 1_555 1_555
H47 C55 1_555 1_555
C56 C10 1_555 1_555
C57 C56 1_555 1_555
H48 C57 1_555 1_555
C58 C53 1_555 1_555
C59 N4 1_555 1_555
C60 C59 1_555 1_555
H49 C60 1_555 1_555
C61 C60 1_555 1_555
H50 C61 1_555 1_555
C62 C38 1_555 1_555
C63 C62 1_555 1_555
H51 C63 1_555 1_555
C64 C58 1_555 1_555
C65 N4 1_555 1_555
H52 C65 1_555 1_555
H53 C65 1_555 1_555
C66 C65 1_555 1_555
H54 C66 1_555 1_555
H55 C66 1_555 1_555
C67 C66 1_555 1_555
H56 C67 1_555 1_555
H57 C67 1_555 1_555
C68 C67 1_555 1_555
H58 C68 1_555 1_555
H59 C68 1_555 1_555
H60 C68 1_555 1_555
C5 C6 1_555 1_555
C7 C12 1_555 1_555
C11 C12 1_555 1_555
C23 C24 1_555 1_555
C25 C30 1_555 1_555
C27 C28 1_555 1_555
C29 C30 1_555 1_555
C39 C40 1_555 1_555
C41 C46 1_555 1_555
C43 C44 1_555 1_555
C45 C46 1_555 1_555
C55 C56 1_555 1_555
C57 C58 1_555 1_555
C59 C64 1_555 1_555
C61 C62 1_555 1_555
C63 C64 1_555 1_555

#END
