
#######################################################################
#
#                 Cambridge Crystallographic Data Centre
#                                CCDC 
#
#######################################################################
#
# If this CIF has been generated from an entry in the Cambridge 
# Structural Database, then it will include bibliographic, chemical, 
# crystal, experimental, refinement or atomic coordinate data resulting 
# from the CCDC's data processing and validation procedures.
#
#######################################################################

data_OREYUH
_chemical_formula_moiety         'C25 H26 F7 N3 O1 S1'
_chemical_name_systematic        
1-(3,5-bis(trifluoromethyl)phenyl)-3-((S)-1-((S)-2-(4-fluorophenyl)pyrrolidin-1-yl)-3,3-dimethyl-1-oxobutan-2-yl)thiourea
_symmetry_cell_setting           monoclinic
_symmetry_space_group_name_H-M   'C 2'
_symmetry_Int_Tables_number      5
_space_group_name_Hall           'C 2y'
loop_
_symmetry_equiv_pos_site_id
_symmetry_equiv_pos_as_xyz
1 x,y,z
2 -x,y,-z
3 1/2+x,1/2+y,z
4 1/2-x,1/2+y,-z
_cell_length_a                   22.6193(6)
_cell_length_b                   12.2384(3)
_cell_length_c                   29.5286(7)
_cell_angle_alpha                90
_cell_angle_beta                 92.679(2)
_cell_angle_gamma                90
_cell_volume                     8165.29
_exptl_crystal_colour            colorless
_exptl_crystal_description       block
_cell_formula_units_Z            12
loop_
_atom_site_label
_atom_site_type_symbol
_atom_site_fract_x
_atom_site_fract_y
_atom_site_fract_z
S1 S 0.20426(3) 0.70744(6) 0.23585(2)
C1 C 0.50601(13) 0.5801(3) 0.23444(10)
H1 H 0.4970 0.5943 0.2032
C2 C 0.56377(13) 0.5924(3) 0.25176(12)
H2 H 0.5944 0.6149 0.2329
C3 C 0.57538(13) 0.5712(3) 0.29711(12)
C4 C 0.53239(15) 0.5413(3) 0.32573(12)
H3 H 0.5416 0.5292 0.3571
C5 C 0.47491(14) 0.5289(3) 0.30781(10)
H4 H 0.4446 0.5076 0.3272
C6 C 0.46091(12) 0.5472(2) 0.26213(9)
C7 C 0.39803(12) 0.5306(2) 0.24310(9)
H5 H 0.3743 0.4959 0.2669
C8 C 0.39229(13) 0.4603(3) 0.19970(10)
H6 H 0.4303 0.4578 0.1845
H7 H 0.3803 0.3848 0.2070
C9 C 0.34461(13) 0.5167(3) 0.16958(10)
H8 H 0.3499 0.5010 0.1371
H9 H 0.3045 0.4933 0.1775
C10 C 0.35446(13) 0.6376(3) 0.17996(9)
H10 H 0.3872 0.6677 0.1627
H11 H 0.3181 0.6808 0.1730
C11 C 0.35290(11) 0.7060(2) 0.26101(9)
C12 C 0.32516(11) 0.8154(2) 0.24678(9)
H12 H 0.3053 0.8057 0.2161
C13 C 0.22619(11) 0.7963(2) 0.27691(9)
C14 C 0.13468(12) 0.7998(2) 0.32181(9)
C15 C 0.09111(12) 0.7796(2) 0.28792(9)
H13 H 0.1003 0.7825 0.2569
C16 C 0.03397(12) 0.7550(3) 0.30015(9)
C17 C 0.01868(13) 0.7514(3) 0.34485(10)
H14 H -0.0204 0.7327 0.3525
C18 C 0.06172(13) 0.7757(3) 0.37811(10)
C19 C 0.11944(12) 0.7997(3) 0.36707(9)
H15 H 0.1485 0.8159 0.3904
C20 C 0.37076(13) 0.9107(2) 0.24376(9)
C21 C 0.33802(16) 1.0122(3) 0.22599(12)
H16 H 0.3191 0.9965 0.1962
H17 H 0.3662 1.0724 0.2233
H18 H 0.3078 1.0328 0.2471
C22 C 0.41814(14) 0.8796(3) 0.21052(10)
H19 H 0.4411 0.8173 0.2226
H20 H 0.4446 0.9419 0.2065
H21 H 0.3990 0.8597 0.1812
C23 C 0.40133(14) 0.9344(3) 0.29005(10)
H22 H 0.3718 0.9578 0.3113
H23 H 0.4307 0.9925 0.2869
H24 H 0.4211 0.8681 0.3016
N1 N 0.36982(10) 0.6359(2) 0.22941(7)
N2 N 0.27989(10) 0.8432(2) 0.27818(8)
N3 N 0.19309(10) 0.8270(2) 0.31241(8)
O1 O 0.36007(8) 0.68250(17) 0.30219(6)
F1 F 0.63198(9) 0.5825(2) 0.31420(9)
C24 C -0.01123(13) 0.7307(3) 0.26277(10)
F2 F -0.00557(9) 0.62915(17) 0.24635(6)
F3 F -0.00558(7) 0.79816(16) 0.22707(6)
F4 F -0.0677(2) 0.7526(8) 0.2733(2)
C25 C 0.0459(5) 0.7856(9) 0.4269(3)
F5 F 0.0868(6) 0.7475(14) 0.4560(8)
F6 F -0.0056(3) 0.7399(7) 0.4351(2)
F7 F 0.0403(3) 0.8926(6) 0.4401(2)
H25 H 0.2155(17) 0.857(3) 0.3323(13)
H26 H 0.2918(17) 0.875(4) 0.3031(14)
S2 S 0.21952(3) 0.64427(7) 0.43087(2)
C27 C 0.26887(16) 1.1713(3) 0.36234(11)
H27 H 0.2417 1.1393 0.3407
C28 C 0.30774(18) 1.2505(4) 0.34870(14)
H28 H 0.3077 1.2730 0.3179
C29 C 0.34638(18) 1.2958(3) 0.38045(16)
C30 C 0.34960(16) 1.2643(3) 0.42547(14)
H29 H 0.3777 1.2957 0.4466
C31 C 0.31017(14) 1.1851(3) 0.43856(11)
H30 H 0.3110 1.1624 0.4693
C32 C 0.26914(13) 1.1378(3) 0.40764(10)
C33 C 0.22705(13) 1.0502(3) 0.42209(10)
H31 H 0.2008 1.0280 0.3955
C34 C 0.18835(14) 1.0841(3) 0.46155(11)
H32 H 0.2079 1.1422 0.4802
H33 H 0.1492 1.1109 0.4499
C35 C 0.18195(16) 0.9793(3) 0.48921(12)
H34 H 0.1729 0.9961 0.5210
H35 H 0.1503 0.9319 0.4757
C36 C 0.24202(16) 0.9256(3) 0.48681(10)
H36 H 0.2706 0.9561 0.5099
H37 H 0.2393 0.8455 0.4911
C37 C 0.28934(12) 0.8916(3) 0.41213(9)
C38 C 0.32525(12) 0.7934(3) 0.42983(9)
H38 H 0.3064 0.7661 0.4576
C39 C 0.27089(11) 0.6440(2) 0.39148(9)
C40 C 0.39121(13) 0.8195(3) 0.44294(10)
C41 C 0.42295(14) 0.8715(4) 0.40397(11)
H39 H 0.4216 0.8216 0.3780
H40 H 0.4643 0.8859 0.4136
H41 H 0.4034 0.9403 0.3953
C42 C 0.42254(15) 0.7125(4) 0.45665(12)
H42 H 0.4025 0.6790 0.4819
H43 H 0.4638 0.7279 0.4661
H44 H 0.4214 0.6623 0.4308
C43 C 0.39337(16) 0.8975(4) 0.48358(12)
H45 H 0.3753 0.9675 0.4745
H46 H 0.4346 0.9095 0.4940
H47 H 0.3715 0.8655 0.5082
N4 N 0.25906(11) 0.9531(2) 0.44036(8)
N5 N 0.31958(11) 0.7079(2) 0.39551(8)
N6 N 0.26876(11) 0.5817(2) 0.35317(8)
O2 O 0.28891(9) 0.91497(19) 0.37101(6)
F12 F 0.38491(12) 1.3747(2) 0.36762(11)
C44 C 0.2265(4) 0.5039(7) 0.3366(4)
C45 C 0.1808(4) 0.4617(6) 0.3611(2)
H48 H 0.1765 0.4837 0.3916
C46 C 0.1412(3) 0.3874(6) 0.3409(3)
C47 C 0.1475(5) 0.3554(7) 0.2962(3)
H49 H 0.1205 0.3046 0.2824
C48 C 0.1933(5) 0.3976(9) 0.2717(2)
C49 C 0.2328(4) 0.4719(9) 0.2919(4)
H50 H 0.2641 0.5007 0.2752
C50 C 0.0918(3) 0.3473(8) 0.3679(3)
F13 F 0.0444(3) 0.3150(6) 0.34287(15)
F14 F 0.07430(18) 0.4172(5) 0.39821(16)
F15 F 0.1084(2) 0.2580(5) 0.39215(17)
C51 C 0.2043(4) 0.3563(7) 0.2251(3)
F16 F 0.2602(3) 0.3182(9) 0.2193(2)
F17 F 0.1970(4) 0.4409(4) 0.1958(2)
F18 F 0.1664(2) 0.2772(5) 0.21119(16)
H51 H 0.2988(16) 0.596(3) 0.3373(12)
H52 H 0.3385(15) 0.713(3) 0.3748(12)
S3 S 0.51670(3) 0.55825(6) 0.89885(2)
C60 C 0.29794(13) 0.1731(3) 0.89759(11)
H56 H 0.3094 0.1775 0.8671
C61 C 0.27401(14) 0.0764(3) 0.91332(12)
H57 H 0.2692 0.0143 0.8942
C62 C 0.25753(14) 0.0738(3) 0.95765(13)
C63 C 0.26544(14) 0.1597(3) 0.98669(12)
H58 H 0.2546 0.1541 1.0173
C64 C 0.28957(13) 0.2550(3) 0.97066(10)
H59 H 0.2955 0.3155 0.9905
C65 C 0.30541(11) 0.2635(2) 0.92570(9)
C66 C 0.32996(11) 0.3691(2) 0.90806(9)
H60 H 0.3306 0.4249 0.9328
C67 C 0.29584(13) 0.4161(3) 0.86577(10)
H61 H 0.2739 0.3577 0.8490
H62 H 0.2674 0.4730 0.8746
C68 C 0.34338(13) 0.4648(3) 0.83699(10)
H63 H 0.3298 0.4683 0.8047
H64 H 0.3545 0.5392 0.8475
C69 C 0.39495(13) 0.3857(3) 0.84405(9)
H65 H 0.3901 0.3211 0.8240
H66 H 0.4332 0.4216 0.8386
C70 C 0.43529(12) 0.3333(2) 0.92257(9)
C71 C 0.49779(12) 0.3148(2) 0.90614(9)
H67 H 0.5006 0.3525 0.8763
C72 C 0.54693(11) 0.4762(2) 0.93927(9)
C73 C 0.59766(11) 0.6195(2) 0.98682(9)
C74 C 0.61302(12) 0.6942(2) 0.95386(9)
H68 H 0.6122 0.6732 0.9229
C75 C 0.62943(12) 0.7991(2) 0.96639(10)
C76 C 0.63320(14) 0.8315(3) 1.01148(10)
H69 H 0.6443 0.9040 1.0197
C77 C 0.62021(15) 0.7545(3) 1.04407(10)
C78 C 0.60215(13) 0.6496(3) 1.03228(9)
H70 H 0.5929 0.5986 1.0551
C79 C 0.51338(13) 0.1917(2) 0.89946(9)
C80 C 0.51592(16) 0.1293(3) 0.94423(10)
H71 H 0.5490 0.1567 0.9637
H72 H 0.5216 0.0513 0.9383
H73 H 0.4788 0.1399 0.9595
C81 C 0.57403(14) 0.1875(3) 0.87801(10)
H74 H 0.5722 0.2288 0.8495
H75 H 0.5844 0.1114 0.8719
H76 H 0.6041 0.2198 0.8989
C82 C 0.46668(14) 0.1391(3) 0.86738(11)
H77 H 0.4287 0.1371 0.8820
H78 H 0.4789 0.0645 0.8602
H79 H 0.4625 0.1820 0.8394
N7 N 0.58019(10) 0.5114(2) 0.97616(8)
N8 N 0.53939(10) 0.3666(2) 0.93832(8)
N9 N 0.39090(10) 0.3552(2) 0.89229(7)
O3 O 0.42584(8) 0.32832(17) 0.96375(6)
F25 F 0.23281(10) -0.0206(2) 0.97274(9)
C83 C 0.64165(15) 0.8783(3) 0.92953(10)
F26 F 0.67319(8) 0.83348(16) 0.89693(6)
F27 F 0.6689(4) 0.9692(5) 0.9434(2)
F28 F 0.5904(2) 0.9090(6) 0.9067(2)
C84 C 0.6308(2) 0.7838(4) 1.09363(13)
F29 F 0.5999(3) 0.7244(3) 1.1208(2)
F30 F 0.61627(19) 0.8908(3) 1.10086(13)
F31 F 0.68700(14) 0.7752(4) 1.10787(9)
H80 H 0.5470(14) 0.333(3) 0.9615(12)
H81 H 0.5837(14) 0.469(3) 0.9979(11)
F8? F -0.0653(3) 0.7228(11) 0.2789(3)
C26? C 0.0458(8) 0.7690(14) 0.4264(5)
F9? F 0.0920(10) 0.758(2) 0.4550(14)
F10? F 0.0067(4) 0.6893(12) 0.4340(4)
F11? F 0.0176(5) 0.8620(11) 0.4378(4)
C52? C 0.2255(7) 0.5086(14) 0.3341(8)
C53? C 0.1718(8) 0.4868(12) 0.3534(5)
H53? H 0.1619 0.5229 0.3805
C54? C 0.1326(6) 0.4123(14) 0.3329(7)
C55? C 0.1470(9) 0.3596(14) 0.2933(7)
H54? H 0.1202 0.3087 0.2793
C56? C 0.2007(11) 0.3813(18) 0.2740(6)
C57? C 0.2399(7) 0.4558(19) 0.2944(8)
H55? H 0.2766 0.4707 0.2813
C58? C 0.0761(6) 0.3865(11) 0.3528(5)
F19? F 0.0420(6) 0.3244(13) 0.3268(3)
F20? F 0.0474(3) 0.4747(8) 0.3640(3)
F21? F 0.0855(5) 0.3346(11) 0.3930(4)
C59? C 0.2125(8) 0.3367(13) 0.2281(5)
F22? F 0.2716(6) 0.3206(18) 0.2295(5)
F23? F 0.1983(8) 0.4022(9) 0.1926(5)
F24? F 0.1883(5) 0.2384(9) 0.2220(3)
F32? F 0.6847(18) 0.945(3) 0.9490(12)
F33? F 0.5999(11) 0.941(3) 0.9164(10)
C85? C 0.5954(9) 0.8040(19) 1.0889(6)
F34? F 0.5410(7) 0.8384(13) 1.0952(4)
F35? F 0.6416(10) 0.8701(19) 1.1036(9)
F36? F 0.600(2) 0.722(3) 1.1189(16)
loop_
_geom_bond_atom_site_label_1
_geom_bond_atom_site_label_2
_geom_bond_site_symmetry_1
_geom_bond_site_symmetry_2
S1 C13 1_555 1_555
C1 H1 1_555 1_555
C2 C1 1_555 1_555
H2 C2 1_555 1_555
C3 C2 1_555 1_555
C4 C3 1_555 1_555
H3 C4 1_555 1_555
C5 C4 1_555 1_555
H4 C5 1_555 1_555
C6 C1 1_555 1_555
C7 C6 1_555 1_555
H5 C7 1_555 1_555
C8 C7 1_555 1_555
H6 C8 1_555 1_555
H7 C8 1_555 1_555
C9 C8 1_555 1_555
H8 C9 1_555 1_555
H9 C9 1_555 1_555
C10 C9 1_555 1_555
H10 C10 1_555 1_555
H11 C10 1_555 1_555
C11 C12 1_555 1_555
C12 H12 1_555 1_555
C13 N2 1_555 1_555
C14 C15 1_555 1_555
C15 H13 1_555 1_555
C16 C15 1_555 1_555
C17 C16 1_555 1_555
H14 C17 1_555 1_555
C18 C17 1_555 1_555
C19 C14 1_555 1_555
H15 C19 1_555 1_555
C20 C12 1_555 1_555
C21 C20 1_555 1_555
H16 C21 1_555 1_555
H17 C21 1_555 1_555
H18 C21 1_555 1_555
C22 C20 1_555 1_555
H19 C22 1_555 1_555
H20 C22 1_555 1_555
H21 C22 1_555 1_555
C23 C20 1_555 1_555
H22 C23 1_555 1_555
H23 C23 1_555 1_555
H24 C23 1_555 1_555
N1 C7 1_555 1_555
N2 C12 1_555 1_555
N3 C13 1_555 1_555
O1 C11 1_555 1_555
F1 C3 1_555 1_555
C24 C16 1_555 1_555
F2 C24 1_555 1_555
F3 C24 1_555 1_555
F4 C24 1_555 1_555
C25 C18 1_555 1_555
F5 C25 1_555 1_555
F6 C25 1_555 1_555
F7 C25 1_555 1_555
H25 N3 1_555 1_555
H26 N2 1_555 1_555
S2 C39 1_555 1_555
C27 H27 1_555 1_555
C28 C27 1_555 1_555
H28 C28 1_555 1_555
C29 C28 1_555 1_555
C30 C29 1_555 1_555
H29 C30 1_555 1_555
C31 C30 1_555 1_555
H30 C31 1_555 1_555
C32 C27 1_555 1_555
C33 C32 1_555 1_555
H31 C33 1_555 1_555
C34 C33 1_555 1_555
H32 C34 1_555 1_555
H33 C34 1_555 1_555
C35 C34 1_555 1_555
H34 C35 1_555 1_555
H35 C35 1_555 1_555
C36 C35 1_555 1_555
H36 C36 1_555 1_555
H37 C36 1_555 1_555
C37 C38 1_555 1_555
C38 H38 1_555 1_555
C39 N5 1_555 1_555
C40 C38 1_555 1_555
C41 C40 1_555 1_555
H39 C41 1_555 1_555
H40 C41 1_555 1_555
H41 C41 1_555 1_555
C42 C40 1_555 1_555
H42 C42 1_555 1_555
H43 C42 1_555 1_555
H44 C42 1_555 1_555
C43 C40 1_555 1_555
H45 C43 1_555 1_555
H46 C43 1_555 1_555
H47 C43 1_555 1_555
N4 C33 1_555 1_555
N5 C38 1_555 1_555
N6 C39 1_555 1_555
O2 C37 1_555 1_555
F12 C29 1_555 1_555
C44 N6 1_555 1_555
C45 C44 1_555 1_555
H48 C45 1_555 1_555
C46 C45 1_555 1_555
C47 C46 1_555 1_555
H49 C47 1_555 1_555
C48 C47 1_555 1_555
C49 C44 1_555 1_555
H50 C49 1_555 1_555
C50 C46 1_555 1_555
F13 C50 1_555 1_555
F14 C50 1_555 1_555
F15 C50 1_555 1_555
C51 C48 1_555 1_555
F16 C51 1_555 1_555
F17 C51 1_555 1_555
F18 C51 1_555 1_555
H51 N6 1_555 1_555
H52 N5 1_555 1_555
S3 C72 1_555 1_555
C60 H56 1_555 1_555
C61 C60 1_555 1_555
H57 C61 1_555 1_555
C62 C61 1_555 1_555
C63 C62 1_555 1_555
H58 C63 1_555 1_555
C64 C63 1_555 1_555
H59 C64 1_555 1_555
C65 C60 1_555 1_555
C66 C65 1_555 1_555
H60 C66 1_555 1_555
C67 C66 1_555 1_555
H61 C67 1_555 1_555
H62 C67 1_555 1_555
C68 C67 1_555 1_555
H63 C68 1_555 1_555
H64 C68 1_555 1_555
C69 C68 1_555 1_555
H65 C69 1_555 1_555
H66 C69 1_555 1_555
C70 C71 1_555 1_555
C71 H67 1_555 1_555
C72 N7 1_555 1_555
C73 C74 1_555 1_555
C74 H68 1_555 1_555
C75 C74 1_555 1_555
C76 C75 1_555 1_555
H69 C76 1_555 1_555
C77 C76 1_555 1_555
C78 C73 1_555 1_555
H70 C78 1_555 1_555
C79 C71 1_555 1_555
C80 C79 1_555 1_555
H71 C80 1_555 1_555
H72 C80 1_555 1_555
H73 C80 1_555 1_555
C81 C79 1_555 1_555
H74 C81 1_555 1_555
H75 C81 1_555 1_555
H76 C81 1_555 1_555
C82 C79 1_555 1_555
H77 C82 1_555 1_555
H78 C82 1_555 1_555
H79 C82 1_555 1_555
N7 C73 1_555 1_555
N8 C71 1_555 1_555
N9 C66 1_555 1_555
O3 C70 1_555 1_555
F25 C62 1_555 1_555
C83 C75 1_555 1_555
F26 C83 1_555 1_555
F27 C83 1_555 1_555
F28 C83 1_555 1_555
C84 C77 1_555 1_555
F29 C84 1_555 1_555
F30 C84 1_555 1_555
F31 C84 1_555 1_555
H80 N8 1_555 1_555
H81 N7 1_555 1_555
C5 C6 1_555 1_555
C10 N1 1_555 1_555
C11 N1 1_555 1_555
C14 N3 1_555 1_555
C18 C19 1_555 1_555
C31 C32 1_555 1_555
C36 N4 1_555 1_555
C37 N4 1_555 1_555
C48 C49 1_555 1_555
C64 C65 1_555 1_555
C69 N9 1_555 1_555
C70 N9 1_555 1_555
C72 N8 1_555 1_555
C77 C78 1_555 1_555

#END
