
#######################################################################
#
#                 Cambridge Crystallographic Data Centre
#                                CCDC 
#
#######################################################################
#
# If this CIF has been generated from an entry in the Cambridge 
# Structural Database, then it will include bibliographic, chemical, 
# crystal, experimental, refinement or atomic coordinate data resulting 
# from the CCDC's data processing and validation procedures.
#
#######################################################################

data_ORUTOM
_chemical_formula_moiety         'C33 H27 N3'
_chemical_name_systematic        
31,32,33-trimethyl-31,32,33-triazaheptacyclo[26.2.1.1^8,11^.1^18,21^.0^2,7^.0^12,17^.0^22,27^]tritriaconta-1(30),2,4,6,8,10,12,14,16,18,20,22,24,26,28-pentadecaene
_symmetry_cell_setting           monoclinic
_symmetry_space_group_name_H-M   'P 21/c'
_symmetry_Int_Tables_number      14
_space_group_name_Hall           '-P 2ybc'
loop_
_symmetry_equiv_pos_site_id
_symmetry_equiv_pos_as_xyz
1 x,y,z
2 -x,1/2+y,1/2-z
3 -x,-y,-z
4 x,1/2-y,1/2+z
_cell_length_a                   12.873(5)
_cell_length_b                   11.496(4)
_cell_length_c                   16.692(6)
_cell_angle_alpha                90
_cell_angle_beta                 101.057(6)
_cell_angle_gamma                90
_cell_volume                     2424.36
_exptl_crystal_colour            colorless
_exptl_crystal_description       prism
_cell_formula_units_Z            4
_exptl_crystal_recrystallization_method 'Vapour deposition'
loop_
_atom_site_label
_atom_site_type_symbol
_atom_site_fract_x
_atom_site_fract_y
_atom_site_fract_z
C6 C 0.1239(2) 0.6597(3) -0.18146(18)
C7 C 0.1927(2) 0.5576(3) -0.15865(18)
C8 C 0.2748(3) 0.5170(4) -0.1920(2)
H5 H 0.3033 0.5535 -0.2340
C9 C 0.3095(2) 0.4117(3) -0.1530(2)
H6 H 0.3646 0.3638 -0.1652
C10 C 0.2508(2) 0.3899(3) -0.09476(19)
C11 C 0.2550(8) 0.2931(8) -0.0550(6)
C12 C 0.2575(6) 0.1920(7) -0.0987(6)
H7 H 0.2668 0.1961 -0.1538
C13 C 0.2467(7) 0.0839(7) -0.0638(7)
H8 H 0.2481 0.0156 -0.0956
C14 C 0.2342(8) 0.0743(7) 0.0151(8)
H9 H 0.2200 0.0012 0.0374
C15 C 0.2430(8) 0.1766(8) 0.0629(6)
H10 H 0.2419 0.1702 0.1194
C16 C 0.2536(11) 0.2880(12) 0.0296(8)
C17 C 0.25032(19) 0.3887(2) 0.09477(16)
C18 C 0.1898(2) 0.4099(2) 0.15221(18)
H11 H 0.1338 0.3624 0.1633
C19 C 0.2251(2) 0.5147(3) 0.19199(17)
H12 H 0.1971 0.5505 0.2346
C20 C 0.3066(2) 0.5557(2) 0.15868(15)
C21 C 0.3768(2) 0.6577(2) 0.18200(15)
C22 C 0.5219(10) 0.8313(16) 0.2435(11)
H13 H 0.5730 0.8889 0.2640
C23 C 0.0900(2) 0.4836(3) -0.05646(18)
H14 H 0.1106 0.5257 -0.0048
H15 H 0.0692 0.4041 -0.0455
H16 H 0.0302 0.5234 -0.0907
C24 C 0.4106(2) 0.4821(2) 0.05679(17)
H17 H 0.4295 0.4026 0.0441
H18 H 0.4710 0.5189 0.0924
H19 H 0.3917 0.5268 0.0061
C25 C 0.1400(5) 0.7467(8) -0.1365(6)
C26 C 0.0717(8) 0.8417(9) -0.1541(7)
H20 H 0.0860 0.9119 -0.1239
C27 C -0.0160(13) 0.8331(14) -0.2149(9)
H21 H -0.0659 0.8949 -0.2237
C28 C -0.0320(7) 0.7371(9) -0.2625(6)
H22 H -0.0881 0.7356 -0.3087
C29 C 0.0317(7) 0.6426(9) -0.2445(5)
H23 H 0.0166 0.5702 -0.2718
C30 C 0.3991(6) 0.7482(10) 0.1315(8)
C31 C 0.4760(7) 0.8324(8) 0.1677(7)
H24 H 0.4942 0.8925 0.1338
C32 C 0.4954(6) 0.7429(8) 0.2966(5)
H25 H 0.5264 0.7423 0.3530
C33 C 0.4238(6) 0.6588(7) 0.2633(5)
H26 H 0.4061 0.5992 0.2979
C34 C 0.2429(4) 0.7562(4) -0.0767(3)
C35 C 0.3398(6) 0.7704(5) -0.0924(5)
H27 H 0.3571 0.7766 -0.1450
C36 C 0.4138(5) 0.7749(4) -0.0162(4)
H28 H 0.4880 0.7867 -0.0091
C37 C 0.3568(4) 0.7591(3) 0.0441(3)
N1 N 0.2476(19) 0.751(2) 0.0092(8)
C38 C 0.1587(5) 0.7540(5) 0.0485(5)
H29 H 0.1297 0.6753 0.0497
H30 H 0.1044 0.8057 0.0184
H31 H 0.1809 0.7827 0.1045
N2 N 0.17785(17) 0.4802(2) -0.09806(14)
N3 N 0.32171(16) 0.47914(16) 0.09757(11)
C1? C 0.0980(6) 0.7619(8) -0.1302(6)
C2? C 0.0239(7) 0.8464(7) -0.1640(6)
H1? H 0.0053 0.9075 -0.1311
C3? C -0.0213(10) 0.8399(10) -0.2450(6)
H2? H -0.0720 0.8974 -0.2666
C4? C 0.0011(6) 0.7579(7) -0.2954(4)
H3? H -0.0321 0.7577 -0.3514
C5? C 0.0750(6) 0.6721(6) -0.2638(4)
H4? H 0.0936 0.6174 -0.3014
C39? C 0.4689(6) 0.6557(9) 0.2465(6)
H32? H 0.4856 0.5868 0.2777
C40? C 0.5314(8) 0.7491(12) 0.2632(6)
H33? H 0.5872 0.7472 0.3096
C41? C 0.4296(9) 0.8499(8) 0.1543(7)
H34? H 0.4180 0.9189 0.1225
C42? C 0.3582(7) 0.7576(9) 0.1368(8)
C43? C 0.2576(4) 0.7656(4) 0.0767(3)
C44? C 0.1586(6) 0.7795(6) 0.0932(5)
H35? H 0.1411 0.7865 0.1457
C45? C 0.0860(5) 0.7815(4) 0.0165(4)
H36? H 0.0114 0.7907 0.0088
C46? C 0.1427(4) 0.7679(4) -0.0423(3)
N4? N 0.252(2) 0.756(2) -0.0084(9)
C47? C 0.3409(6) 0.7651(6) -0.0477(5)
H37? H 0.3237 0.7290 -0.1018
H38? H 0.4017 0.7251 -0.0148
H39? H 0.3583 0.8472 -0.0534
C48? C 0.5183(18) 0.843(2) 0.2181(15)
H40? H 0.5677 0.9049 0.2281
C49? C 0.2471(9) 0.2765(10) -0.0276(7)
C50? C 0.2430(10) 0.2810(13) 0.0532(7)
C51? C 0.2422(8) 0.1785(9) 0.0987(7)
H41? H 0.2341 0.1833 0.1540
C52? C 0.2528(7) 0.0713(6) 0.0646(8)
H42? H 0.2504 0.0027 0.0959
C53? C 0.2672(9) 0.0634(8) -0.0160(8)
H43? H 0.2847 -0.0088 -0.0377
C54? C 0.2556(7) 0.1630(7) -0.0638(7)
H44? H 0.2531 0.1568 -0.1209
loop_
_geom_bond_atom_site_label_1
_geom_bond_atom_site_label_2
_geom_bond_site_symmetry_1
_geom_bond_site_symmetry_2
C6 C7 1_555 1_555
C7 C8 1_555 1_555
C8 H5 1_555 1_555
C9 C8 1_555 1_555
H6 C9 1_555 1_555
C10 C9 1_555 1_555
C11 C10 1_555 1_555
C12 C11 1_555 1_555
H7 C12 1_555 1_555
C13 C12 1_555 1_555
H8 C13 1_555 1_555
C14 C13 1_555 1_555
H9 C14 1_555 1_555
C15 C14 1_555 1_555
H10 C15 1_555 1_555
C16 C11 1_555 1_555
C17 C16 1_555 1_555
C18 C17 1_555 1_555
H11 C18 1_555 1_555
C19 C18 1_555 1_555
H12 C19 1_555 1_555
C20 C19 1_555 1_555
C21 C20 1_555 1_555
C22 H13 1_555 1_555
C23 H14 1_555 1_555
H15 C23 1_555 1_555
H16 C23 1_555 1_555
C24 H17 1_555 1_555
H18 C24 1_555 1_555
H19 C24 1_555 1_555
C25 C6 1_555 1_555
C26 C25 1_555 1_555
H20 C26 1_555 1_555
C27 C26 1_555 1_555
H21 C27 1_555 1_555
C28 C27 1_555 1_555
H22 C28 1_555 1_555
C29 C6 1_555 1_555
H23 C29 1_555 1_555
C30 C21 1_555 1_555
C31 C22 1_555 1_555
H24 C31 1_555 1_555
C32 C22 1_555 1_555
H25 C32 1_555 1_555
C33 C21 1_555 1_555
H26 C33 1_555 1_555
C34 C25 1_555 1_555
C35 C34 1_555 1_555
H27 C35 1_555 1_555
C36 C35 1_555 1_555
H28 C36 1_555 1_555
C37 C30 1_555 1_555
N1 C34 1_555 1_555
C38 N1 1_555 1_555
H29 C38 1_555 1_555
H30 C38 1_555 1_555
H31 C38 1_555 1_555
N2 C7 1_555 1_555
N3 C17 1_555 1_555
C10 N2 1_555 1_555
C15 C16 1_555 1_555
C20 N3 1_555 1_555
C23 N2 1_555 1_555
C24 N3 1_555 1_555
C28 C29 1_555 1_555
C30 C31 1_555 1_555
C32 C33 1_555 1_555
C36 C37 1_555 1_555
C37 N1 1_555 1_555

#END
