
#######################################################################
#
#                 Cambridge Crystallographic Data Centre
#                                CCDC 
#
#######################################################################
#
# If this CIF has been generated from an entry in the Cambridge 
# Structural Database, then it will include bibliographic, chemical, 
# crystal, experimental, refinement or atomic coordinate data resulting 
# from the CCDC's data processing and validation procedures.
#
#######################################################################

data_ORUVAA
_chemical_formula_moiety         'C39 H31 N3'
_chemical_name_systematic        
31,32-dimethyl-33-(4-methylphenyl)-31,32,33-triazaheptacyclo[26.2.1.1^8,11^.1^18,21^.0^2,7^.0^12,17^.0^22,27^]tritriaconta-1(30),2,4,6,8,10,12,14,16,18,20,22,24,26,28-pentadecaene
_symmetry_cell_setting           monoclinic
_symmetry_space_group_name_H-M   'P 21/n'
_symmetry_Int_Tables_number      14
_space_group_name_Hall           '-P 2yn'
loop_
_symmetry_equiv_pos_site_id
_symmetry_equiv_pos_as_xyz
1 x,y,z
2 1/2-x,1/2+y,1/2-z
3 -x,-y,-z
4 1/2+x,1/2-y,1/2+z
_cell_length_a                   17.958(2)
_cell_length_b                   18.424(2)
_cell_length_c                   18.093(3)
_cell_angle_alpha                90
_cell_angle_beta                 107.257(4)
_cell_angle_gamma                90
_cell_volume                     5716.74
_exptl_crystal_colour            colorless
_exptl_crystal_description       prism
_cell_formula_units_Z            8
_exptl_crystal_recrystallization_method 'Vapour deposition'
loop_
_atom_site_label
_atom_site_type_symbol
_atom_site_fract_x
_atom_site_fract_y
_atom_site_fract_z
C1 C 0.14493(6) 0.47500(6) 0.27751(6)
C2 C 0.11203(7) 0.42202(6) 0.31069(7)
H1 H 0.0578 0.4145 0.3022
C3 C 0.17291(7) 0.38052(6) 0.35980(7)
H2 H 0.1668 0.3406 0.3908
C4 C 0.24229(7) 0.40772(6) 0.35501(6)
C5 C 0.32314(7) 0.38342(6) 0.39182(7)
C6 C 0.34865(8) 0.38014(7) 0.47265(7)
H3 H 0.3127 0.3902 0.5007
C7 C 0.42473(9) 0.36267(8) 0.51271(7)
H4 H 0.4408 0.3606 0.5677
C8 C 0.47743(8) 0.34820(8) 0.47216(8)
H5 H 0.5303 0.3378 0.4992
C9 C 0.45284(7) 0.34888(7) 0.39241(7)
H6 H 0.4892 0.3377 0.3652
C10 C 0.37587(7) 0.36561(6) 0.35033(7)
C11 C 0.35970(6) 0.36548(6) 0.26524(6)
C12 C 0.40706(6) 0.39415(6) 0.22539(7)
H7 H 0.4537 0.4209 0.2472
C13 C 0.37457(6) 0.37707(6) 0.14703(7)
H8 H 0.3951 0.3904 0.1062
C14 C 0.30755(6) 0.33748(6) 0.13940(6)
C15 C 0.26143(6) 0.29880(6) 0.06876(6)
C16 C 0.30429(7) 0.25495(6) 0.03291(7)
H9 H 0.3591 0.2512 0.0557
C17 C 0.26961(7) 0.21697(7) -0.03452(7)
H10 H 0.3003 0.1878 -0.0575
C18 C 0.18997(7) 0.22196(7) -0.06800(7)
H11 H 0.1653 0.1958 -0.1140
C19 C 0.14624(7) 0.26537(6) -0.03406(7)
H12 H 0.0915 0.2687 -0.0577
C20 C 0.18000(7) 0.30436(6) 0.03373(6)
C21 C 0.12792(6) 0.34706(6) 0.06680(6)
C22 C 0.06810(6) 0.32327(6) 0.09308(7)
H13 H 0.0495 0.2748 0.0908
C23 C 0.03910(6) 0.38330(6) 0.12417(7)
H14 H -0.0017 0.3823 0.1476
C24 C 0.08015(6) 0.44331(6) 0.11458(6)
C25 C 0.07895(6) 0.51889(6) 0.14231(7)
C26 C 0.05161(7) 0.57597(7) 0.09084(7)
H15 H 0.0288 0.5658 0.0374
C27 C 0.05711(7) 0.64719(7) 0.11634(7)
H16 H 0.0394 0.6856 0.0804
C28 C 0.08848(7) 0.66234(6) 0.19422(7)
H17 H 0.0921 0.7111 0.2119
C29 C 0.11471(7) 0.60610(6) 0.24646(7)
H18 H 0.1357 0.6168 0.3000
C30 C 0.11075(6) 0.53400(6) 0.22163(7)
C31 C 0.27981(6) 0.51824(6) 0.29308(6)
C32 C 0.31923(7) 0.56405(7) 0.35223(7)
H19 H 0.3129 0.5594 0.4023
C33 C 0.36813(7) 0.61676(7) 0.33776(7)
H20 H 0.3951 0.6482 0.3785
C34 C 0.37873(6) 0.62478(6) 0.26540(7)
C35 C 0.33959(7) 0.57729(7) 0.20762(7)
H21 H 0.3465 0.5811 0.1577
C36 C 0.29064(7) 0.52440(6) 0.22123(7)
H22 H 0.2644 0.4922 0.1808
C37 C 0.42979(7) 0.68419(7) 0.25005(8)
H23 H 0.4001 0.7296 0.2392
H24 H 0.4472 0.6710 0.2054
H25 H 0.4753 0.6906 0.2956
N1 N 0.22515(5) 0.46632(5) 0.30495(5)
N2 N 0.29827(5) 0.33081(5) 0.21222(5)
C38 C 0.24122(7) 0.28411(7) 0.23134(7)
H26 H 0.2287 0.2432 0.1951
H27 H 0.1937 0.3119 0.2276
H28 H 0.2629 0.2657 0.2842
C39 C 0.17619(7) 0.46857(7) 0.04005(7)
H29 H 0.1492 0.4689 -0.0156
H30 H 0.2296 0.4508 0.0491
H31 H 0.1775 0.5180 0.0605
N3 N 0.13487(5) 0.42112(5) 0.07898(5)
C40 C 0.85768(7) 0.08553(7) 0.20564(8)
C41 C 0.89987(8) 0.03599(7) 0.17785(8)
H32 H 0.9551 0.0330 0.1917
C42 C 0.84690(8) -0.00965(7) 0.12527(8)
H33 H 0.8602 -0.0484 0.0970
C43 C 0.77271(8) 0.01159(6) 0.12194(7)
C44 C 0.69687(8) -0.01998(6) 0.07901(7)
C45 C 0.67966(9) -0.02740(7) -0.00114(8)
H34 H 0.7176 -0.0133 -0.0254
C46 C 0.60920(9) -0.05457(7) -0.04614(8)
H35 H 0.5996 -0.0598 -0.1004
C47 C 0.55286(9) -0.07405(7) -0.01234(8)
H36 H 0.5037 -0.0916 -0.0431
C48 C 0.56876(8) -0.06776(6) 0.06717(7)
H37 H 0.5296 -0.0810 0.0903
C49 C 0.64047(7) -0.04251(6) 0.11449(7)
C50 C 0.64863(7) -0.04027(6) 0.19839(7)
C51 C 0.59462(7) -0.01369(6) 0.23180(7)
H38 H 0.5478 0.0111 0.2057
C52 C 0.62083(7) -0.02962(6) 0.31100(7)
H39 H 0.5950 -0.0173 0.3481
C53 C 0.69073(7) -0.06633(6) 0.32572(7)
C54 C 0.73410(7) -0.10284(6) 0.39843(7)
C55 C 0.69027(8) -0.14823(7) 0.43176(7)
H40 H 0.6358 -0.1524 0.4074
C56 C 0.72339(8) -0.18708(7) 0.49874(8)
H41 H 0.6921 -0.2173 0.5200
C57 C 0.80269(9) -0.18150(7) 0.53442(8)
H42 H 0.8266 -0.2091 0.5796
C58 C 0.84705(8) -0.13559(7) 0.50411(7)
H43 H 0.9013 -0.1314 0.5298
C59 C 0.81476(7) -0.09526(6) 0.43694(7)
C60 C 0.86765(7) -0.04836(7) 0.40967(7)
C61 C 0.93657(7) -0.06599(7) 0.39630(8)
H44 H 0.9606 -0.1125 0.4033
C62 C 0.96568(7) -0.00291(7) 0.37028(8)
H45 H 1.0124 0.0005 0.3560
C63 C 0.91465(7) 0.05231(7) 0.36936(7)
C64 C 0.91339(7) 0.12828(7) 0.34217(8)
C65 C 0.94015(8) 0.18458(7) 0.39487(9)
H46 H 0.9603 0.1738 0.4485
C66 C 0.93785(8) 0.25581(8) 0.37024(11)
H47 H 0.9573 0.2935 0.4067
C67 C 0.90730(8) 0.27215(7) 0.29276(11)
H48 H 0.9050 0.3212 0.2759
C68 C 0.87993(7) 0.21704(7) 0.23940(10)
H49 H 0.8585 0.2286 0.1861
C69 C 0.88360(7) 0.14465(7) 0.26316(8)
N4 N 0.77949(6) 0.07086(5) 0.17057(6)
C70 C 0.71718(7) 0.11806(6) 0.17380(7)
C71 C 0.67653(8) 0.15727(8) 0.10979(9)
H50 H 0.6893 0.1533 0.0626
C72 C 0.61659(9) 0.20274(9) 0.11514(11)
H51 H 0.5883 0.2297 0.0710
C73 C 0.59719(8) 0.20956(7) 0.18330(11)
C74 C 0.63944(8) 0.17034(8) 0.24665(9)
H52 H 0.6275 0.1748 0.2942
C75 C 0.69886(8) 0.12458(7) 0.24217(8)
H53 H 0.7271 0.0976 0.2863
C76 C 0.53177(12) 0.25827(11) 0.18956(17)
H54 H 0.5056 0.2361 0.2244
H55 H 0.4942 0.2648 0.1382
H56 H 0.5530 0.3056 0.2102
N5 N 0.85422(6) 0.02461(5) 0.39366(6)
C77 C 0.80403(7) 0.06860(7) 0.42619(7)
H57 H 0.7510 0.0488 0.4099
H58 H 0.8032 0.1187 0.4077
H59 H 0.8242 0.0679 0.4828
N6 N 0.70792(5) -0.07213(5) 0.25619(5)
C78 C 0.76973(7) -0.11737(7) 0.24384(7)
H60 H 0.7524 -0.1383 0.1917
H61 H 0.7820 -0.1565 0.2823
H62 H 0.8164 -0.0877 0.2492
loop_
_geom_bond_atom_site_label_1
_geom_bond_atom_site_label_2
_geom_bond_site_symmetry_1
_geom_bond_site_symmetry_2
C1 C2 1_555 1_555
C2 H1 1_555 1_555
C3 C2 1_555 1_555
H2 C3 1_555 1_555
C4 C3 1_555 1_555
C5 C4 1_555 1_555
C6 C5 1_555 1_555
H3 C6 1_555 1_555
C7 C6 1_555 1_555
H4 C7 1_555 1_555
C8 C7 1_555 1_555
H5 C8 1_555 1_555
C9 C8 1_555 1_555
H6 C9 1_555 1_555
C10 C5 1_555 1_555
C11 C10 1_555 1_555
C12 C11 1_555 1_555
H7 C12 1_555 1_555
C13 C12 1_555 1_555
H8 C13 1_555 1_555
C14 C13 1_555 1_555
C15 C14 1_555 1_555
C16 C15 1_555 1_555
H9 C16 1_555 1_555
C17 C16 1_555 1_555
H10 C17 1_555 1_555
C18 C17 1_555 1_555
H11 C18 1_555 1_555
C19 C18 1_555 1_555
H12 C19 1_555 1_555
C20 C15 1_555 1_555
C21 C20 1_555 1_555
C22 C21 1_555 1_555
H13 C22 1_555 1_555
C23 C22 1_555 1_555
H14 C23 1_555 1_555
C24 C23 1_555 1_555
C25 C24 1_555 1_555
C26 C25 1_555 1_555
H15 C26 1_555 1_555
C27 C26 1_555 1_555
H16 C27 1_555 1_555
C28 C27 1_555 1_555
H17 C28 1_555 1_555
C29 C28 1_555 1_555
H18 C29 1_555 1_555
C30 C1 1_555 1_555
C31 C32 1_555 1_555
C32 H19 1_555 1_555
C33 C32 1_555 1_555
H20 C33 1_555 1_555
C34 C33 1_555 1_555
C35 C34 1_555 1_555
H21 C35 1_555 1_555
C36 C31 1_555 1_555
H22 C36 1_555 1_555
C37 C34 1_555 1_555
H23 C37 1_555 1_555
H24 C37 1_555 1_555
H25 C37 1_555 1_555
N1 C1 1_555 1_555
N2 C11 1_555 1_555
C38 N2 1_555 1_555
H26 C38 1_555 1_555
H27 C38 1_555 1_555
H28 C38 1_555 1_555
C39 H29 1_555 1_555
H30 C39 1_555 1_555
H31 C39 1_555 1_555
N3 C21 1_555 1_555
C40 C41 1_555 1_555
C41 H32 1_555 1_555
C42 C41 1_555 1_555
H33 C42 1_555 1_555
C43 C42 1_555 1_555
C44 C43 1_555 1_555
C45 C44 1_555 1_555
H34 C45 1_555 1_555
C46 C45 1_555 1_555
H35 C46 1_555 1_555
C47 C46 1_555 1_555
H36 C47 1_555 1_555
C48 C47 1_555 1_555
H37 C48 1_555 1_555
C49 C44 1_555 1_555
C50 C49 1_555 1_555
C51 C50 1_555 1_555
H38 C51 1_555 1_555
C52 C51 1_555 1_555
H39 C52 1_555 1_555
C53 C52 1_555 1_555
C54 C53 1_555 1_555
C55 C54 1_555 1_555
H40 C55 1_555 1_555
C56 C55 1_555 1_555
H41 C56 1_555 1_555
C57 C56 1_555 1_555
H42 C57 1_555 1_555
C58 C57 1_555 1_555
H43 C58 1_555 1_555
C59 C54 1_555 1_555
C60 C59 1_555 1_555
C61 C60 1_555 1_555
H44 C61 1_555 1_555
C62 C61 1_555 1_555
H45 C62 1_555 1_555
C63 C62 1_555 1_555
C64 C63 1_555 1_555
C65 C64 1_555 1_555
H46 C65 1_555 1_555
C66 C65 1_555 1_555
H47 C66 1_555 1_555
C67 C66 1_555 1_555
H48 C67 1_555 1_555
C68 C67 1_555 1_555
H49 C68 1_555 1_555
C69 C40 1_555 1_555
N4 C40 1_555 1_555
C70 N4 1_555 1_555
C71 C70 1_555 1_555
H50 C71 1_555 1_555
C72 C71 1_555 1_555
H51 C72 1_555 1_555
C73 C72 1_555 1_555
C74 C73 1_555 1_555
H52 C74 1_555 1_555
C75 C70 1_555 1_555
H53 C75 1_555 1_555
C76 C73 1_555 1_555
H54 C76 1_555 1_555
H55 C76 1_555 1_555
H56 C76 1_555 1_555
N5 C60 1_555 1_555
C77 N5 1_555 1_555
H57 C77 1_555 1_555
H58 C77 1_555 1_555
H59 C77 1_555 1_555
N6 C50 1_555 1_555
C78 N6 1_555 1_555
H60 C78 1_555 1_555
H61 C78 1_555 1_555
H62 C78 1_555 1_555
C4 N1 1_555 1_555
C9 C10 1_555 1_555
C14 N2 1_555 1_555
C19 C20 1_555 1_555
C24 N3 1_555 1_555
C25 C30 1_555 1_555
C29 C30 1_555 1_555
C31 N1 1_555 1_555
C35 C36 1_555 1_555
C39 N3 1_555 1_555
C43 N4 1_555 1_555
C48 C49 1_555 1_555
C53 N6 1_555 1_555
C58 C59 1_555 1_555
C63 N5 1_555 1_555
C64 C69 1_555 1_555
C68 C69 1_555 1_555
C74 C75 1_555 1_555

#END
