
#######################################################################
#
#                 Cambridge Crystallographic Data Centre
#                                CCDC 
#
#######################################################################
#
# If this CIF has been generated from an entry in the Cambridge 
# Structural Database, then it will include bibliographic, chemical, 
# crystal, experimental, refinement or atomic coordinate data resulting 
# from the CCDC's data processing and validation procedures.
#
#######################################################################

data_ORUVII
_chemical_formula_moiety         'C36 H27 N3'
_chemical_name_systematic        
2-phenyl-5-(2-(5-(2-(5-phenyl-1H-pyrrol-2-yl)phenyl)-1H-pyrrol-2-yl)phenyl)-1H-pyrrole
_symmetry_cell_setting           monoclinic
_symmetry_space_group_name_H-M   'P 21/a'
_symmetry_Int_Tables_number      14
_space_group_name_Hall           '-P 2yab'
loop_
_symmetry_equiv_pos_site_id
_symmetry_equiv_pos_as_xyz
1 x,y,z
2 1/2-x,1/2+y,-z
3 -x,-y,-z
4 1/2+x,1/2-y,z
_cell_length_a                   9.8055(18)
_cell_length_b                   24.017(4)
_cell_length_c                   11.244(2)
_cell_angle_alpha                90
_cell_angle_beta                 102.214(4)
_cell_angle_gamma                90
_cell_volume                     2588.01
_exptl_crystal_colour            colorless
_exptl_crystal_description       prism
_cell_formula_units_Z            4
_exptl_crystal_recrystallization_method 'Vapour deposition'
loop_
_atom_site_label
_atom_site_type_symbol
_atom_site_fract_x
_atom_site_fract_y
_atom_site_fract_z
C1 C 0.0458(2) 0.67227(8) 0.63106(18)
H1 H 0.0637 0.6448 0.6931
C2 C 0.1254(2) 0.71981(9) 0.6441(2)
H2 H 0.1979 0.7246 0.7142
C3 C 0.1001(2) 0.76073(9) 0.5554(2)
H3 H 0.1544 0.7938 0.5645
C4 C -0.0049(2) 0.75295(9) 0.4537(2)
H4 H -0.0226 0.7808 0.3924
C5 C -0.0847(2) 0.70504(8) 0.44009(19)
H5 H -0.1567 0.7002 0.3697
C6 C -0.06000(19) 0.66337(8) 0.52969(17)
C7 C -0.14533(19) 0.61321(8) 0.51527(16)
C8 C -0.27971(19) 0.60426(8) 0.45153(16)
H6 H -0.3379 0.6309 0.4029
C9 C -0.31587(18) 0.54903(8) 0.47067(16)
H7 H -0.4030 0.5319 0.4379
C10 C -0.20182(17) 0.52377(7) 0.54604(15)
N1 N -0.09994(14) 0.56395(6) 0.57233(13)
H8 H -0.0170 0.5588 0.6193
C11 C -0.18722(17) 0.46615(7) 0.58749(15)
C12 C -0.28108(18) 0.42694(8) 0.52319(16)
H9 H -0.3488 0.4389 0.4545
C13 C -0.2779(2) 0.37177(8) 0.55661(17)
H10 H -0.3425 0.3462 0.5110
C14 C -0.1805(2) 0.35347(8) 0.65670(18)
H11 H -0.1788 0.3156 0.6810
C15 C -0.08538(18) 0.39100(8) 0.72098(17)
H12 H -0.0179 0.3782 0.7890
C16 C -0.08622(16) 0.44702(7) 0.68850(15)
C17 C 0.01856(16) 0.48493(7) 0.76252(15)
C18 C 0.01268(18) 0.51784(8) 0.85992(16)
H13 H -0.0652 0.5217 0.8972
C19 C 0.14313(17) 0.54553(8) 0.89638(16)
H14 H 0.1680 0.5709 0.9622
C20 C 0.22630(17) 0.52887(7) 0.81935(15)
N2 N 0.14858(14) 0.49243(6) 0.73731(13)
H15 H 0.1781 0.4762 0.6772
C21 C 0.37047(17) 0.54435(8) 0.81287(15)
C22 C 0.3980(2) 0.60046(9) 0.79540(17)
H16 H 0.3277 0.6273 0.7984
C23 C 0.5255(2) 0.61801(10) 0.77372(18)
H17 H 0.5424 0.6564 0.7619
C24 C 0.6275(2) 0.57864(11) 0.76959(19)
H18 H 0.7134 0.5897 0.7506
C25 C 0.6050(2) 0.52372(11) 0.79281(18)
H19 H 0.6779 0.4976 0.7929
C26 C 0.47754(18) 0.50465(9) 0.81657(15)
C27 C 0.46300(18) 0.44532(9) 0.83965(16)
C28 C 0.5374(2) 0.40080(11) 0.80883(18)
H20 H 0.6144 0.4030 0.7701
C29 C 0.4800(3) 0.35197(11) 0.84443(19)
H21 H 0.5110 0.3152 0.8335
C30 C 0.3705(2) 0.36606(9) 0.89817(17)
N3 N 0.36339(15) 0.42304(7) 0.89469(13)
H22 H 0.3025 0.4428 0.9241
C31 C 0.2715(3) 0.33032(9) 0.95432(18)
C32 C 0.2917(3) 0.27382(11) 0.9559(3)
H23 H 0.3588 0.2574 0.9169
C33 C 0.2104(4) 0.24120(12) 1.0167(3)
H24 H 0.2225 0.2019 1.0194
C34 C 0.1140(3) 0.26482(14) 1.0722(3)
H25 H 0.0600 0.2423 1.1143
C35 C 0.0957(3) 0.32158(12) 1.0665(2)
H26 H 0.0277 0.3386 1.1036
C36 C 0.1767(2) 0.35377(11) 1.00680(19)
H27 H 0.1645 0.3930 1.0032
loop_
_geom_bond_atom_site_label_1
_geom_bond_atom_site_label_2
_geom_bond_site_symmetry_1
_geom_bond_site_symmetry_2
C1 H1 1_555 1_555
C2 C1 1_555 1_555
H2 C2 1_555 1_555
C3 C2 1_555 1_555
H3 C3 1_555 1_555
C4 C3 1_555 1_555
H4 C4 1_555 1_555
C5 C4 1_555 1_555
H5 C5 1_555 1_555
C6 C1 1_555 1_555
C7 C6 1_555 1_555
C8 C7 1_555 1_555
H6 C8 1_555 1_555
C9 C8 1_555 1_555
H7 C9 1_555 1_555
C10 C9 1_555 1_555
N1 C7 1_555 1_555
H8 N1 1_555 1_555
C11 C10 1_555 1_555
C12 C11 1_555 1_555
H9 C12 1_555 1_555
C13 C12 1_555 1_555
H10 C13 1_555 1_555
C14 C13 1_555 1_555
H11 C14 1_555 1_555
C15 C14 1_555 1_555
H12 C15 1_555 1_555
C16 C11 1_555 1_555
C17 C16 1_555 1_555
C18 C17 1_555 1_555
H13 C18 1_555 1_555
C19 C18 1_555 1_555
H14 C19 1_555 1_555
C20 C19 1_555 1_555
N2 C17 1_555 1_555
H15 N2 1_555 1_555
C21 C20 1_555 1_555
C22 C21 1_555 1_555
H16 C22 1_555 1_555
C23 C22 1_555 1_555
H17 C23 1_555 1_555
C24 C23 1_555 1_555
H18 C24 1_555 1_555
C25 C24 1_555 1_555
H19 C25 1_555 1_555
C26 C21 1_555 1_555
C27 C26 1_555 1_555
C28 C27 1_555 1_555
H20 C28 1_555 1_555
C29 C28 1_555 1_555
H21 C29 1_555 1_555
C30 C29 1_555 1_555
N3 C27 1_555 1_555
H22 N3 1_555 1_555
C31 C30 1_555 1_555
C32 C31 1_555 1_555
H23 C32 1_555 1_555
C33 C32 1_555 1_555
H24 C33 1_555 1_555
C34 C33 1_555 1_555
H25 C34 1_555 1_555
C35 C34 1_555 1_555
H26 C35 1_555 1_555
C36 C31 1_555 1_555
H27 C36 1_555 1_555
C5 C6 1_555 1_555
C10 N1 1_555 1_555
C15 C16 1_555 1_555
C20 N2 1_555 1_555
C25 C26 1_555 1_555
C30 N3 1_555 1_555
C35 C36 1_555 1_555

#END
