
#######################################################################
#
#                 Cambridge Crystallographic Data Centre
#                                CCDC 
#
#######################################################################
#
# If this CIF has been generated from an entry in the Cambridge 
# Structural Database, then it will include bibliographic, chemical, 
# crystal, experimental, refinement or atomic coordinate data resulting 
# from the CCDC's data processing and validation procedures.
#
#######################################################################

data_OSAROR
_chemical_formula_moiety         'C27 H26 Br1 N3 O3'
_chemical_name_systematic        
'benzyl (3-benzoyl-8-bromo-1-methyl-1,2,3,5,6,10b-hexahydropyrazolo[5,1-a]isoquinolin-2-yl)carbamate'
_symmetry_cell_setting           orthorhombic
_symmetry_space_group_name_H-M   'P 21 21 21'
_symmetry_Int_Tables_number      19
_space_group_name_Hall           'P 2ac 2ab'
loop_
_symmetry_equiv_pos_site_id
_symmetry_equiv_pos_as_xyz
1 x,y,z
2 1/2-x,-y,1/2+z
3 -x,1/2+y,1/2-z
4 1/2+x,1/2-y,-z
_cell_length_a                   9.1482(7)
_cell_length_b                   10.6730(10)
_cell_length_c                   24.235(3)
_cell_angle_alpha                90
_cell_angle_beta                 90
_cell_angle_gamma                90
_cell_volume                     2366.27
_exptl_crystal_colour            colorless
_exptl_crystal_description       prism
_cell_formula_units_Z            4
loop_
_atom_site_label
_atom_site_type_symbol
_atom_site_fract_x
_atom_site_fract_y
_atom_site_fract_z
Br1 Br -0.00588(13) 0.49887(13) 0.14601(4)
O1 O 0.5595(10) 0.4705(7) 0.5121(3)
O2 O 0.4221(8) 0.1716(8) 0.5440(4)
O3 O 0.2133(9) 0.2132(9) 0.5910(3)
N1 N 0.3606(11) 0.4817(9) 0.4571(4)
N2 N 0.2993(11) 0.5285(9) 0.4061(4)
N3 N 0.2520(11) 0.3089(9) 0.5108(4)
H1 H 0.1652 0.3420 0.5165
C1 C 0.1469(12) 0.5676(11) 0.4132(4)
H2 H 0.1403 0.6336 0.4418
H3 H 0.0867 0.4954 0.4252
C2 C 0.0913(12) 0.6178(11) 0.3581(5)
H4 H -0.0149 0.6347 0.3610
H5 H 0.1408 0.6981 0.3499
C3 C 0.1176(12) 0.5276(11) 0.3110(4)
C4 C 0.0460(13) 0.5433(12) 0.2600(5)
H6 H -0.0261 0.6067 0.2558
C5 C 0.0804(14) 0.4677(12) 0.2170(5)
C6 C 0.1808(12) 0.3688(11) 0.2214(5)
H7 H 0.2008 0.3151 0.1911
C7 C 0.2497(13) 0.3527(11) 0.2718(5)
H8 H 0.3174 0.2860 0.2766
C8 C 0.2203(11) 0.4336(10) 0.3157(4)
C9 C 0.3090(13) 0.4162(10) 0.3687(4)
H9 H 0.4138 0.4057 0.3579
C10 C 0.2670(12) 0.3040(11) 0.4066(5)
H10 H 0.1583 0.3011 0.4108
C11 C 0.3371(12) 0.3427(10) 0.4627(5)
H11 H 0.4349 0.3014 0.4657
C12 C 0.4911(12) 0.5289(10) 0.4762(4)
C13 C 0.5441(12) 0.6550(10) 0.4555(5)
C14 C 0.6929(13) 0.6672(12) 0.4496(5)
H12 H 0.7539 0.5968 0.4562
C15 C 0.7563(15) 0.7815(12) 0.4341(5)
H13 H 0.8591 0.7891 0.4297
C16 C 0.6636(13) 0.8839(12) 0.4254(5)
H14 H 0.7035 0.9624 0.4148
C17 C 0.5166(17) 0.8715(11) 0.4321(5)
H15 H 0.4552 0.9422 0.4266
C18 C 0.4542(13) 0.7570(11) 0.4469(4)
H16 H 0.3513 0.7494 0.4511
C19 C 0.3210(14) 0.1768(11) 0.3882(5)
H17 H 0.2782 0.1562 0.3522
H18 H 0.2921 0.1134 0.4153
H19 H 0.4278 0.1785 0.3850
C20 C 0.3090(11) 0.2252(12) 0.5470(4)
C21 C 0.2662(16) 0.1365(13) 0.6369(5)
H20 H 0.3737 0.1448 0.6400
H21 H 0.2429 0.0473 0.6299
C22 C 0.1960(13) 0.1778(13) 0.6891(5)
C23 C 0.1804(14) 0.0895(13) 0.7315(5)
H22 H 0.2089 0.0050 0.7254
C24 C 0.1236(14) 0.1243(13) 0.7824(5)
H23 H 0.1126 0.0645 0.8111
C25 C 0.0833(13) 0.2484(13) 0.7904(5)
H24 H 0.0449 0.2723 0.8253
C26 C 0.0968(14) 0.3387(12) 0.7497(6)
H25 H 0.0688 0.4231 0.7563
C27 C 0.1539(14) 0.3012(12) 0.6976(6)
H26 H 0.1632 0.3607 0.6687
loop_
_geom_bond_atom_site_label_1
_geom_bond_atom_site_label_2
_geom_bond_site_symmetry_1
_geom_bond_site_symmetry_2
Br1 C5 1_555 1_555
O1 C12 1_555 1_555
O2 C20 1_555 1_555
O3 C20 1_555 1_555
N1 N2 1_555 1_555
N2 C1 1_555 1_555
N3 H1 1_555 1_555
C1 H2 1_555 1_555
H3 C1 1_555 1_555
C2 C1 1_555 1_555
H4 C2 1_555 1_555
H5 C2 1_555 1_555
C3 C2 1_555 1_555
C4 C3 1_555 1_555
H6 C4 1_555 1_555
C5 C4 1_555 1_555
C6 C5 1_555 1_555
H7 C6 1_555 1_555
C7 C6 1_555 1_555
H8 C7 1_555 1_555
C8 C3 1_555 1_555
C9 N2 1_555 1_555
H9 C9 1_555 1_555
C10 C9 1_555 1_555
H10 C10 1_555 1_555
C11 N1 1_555 1_555
H11 C11 1_555 1_555
C12 N1 1_555 1_555
C13 C12 1_555 1_555
C14 C13 1_555 1_555
H12 C14 1_555 1_555
C15 C14 1_555 1_555
H13 C15 1_555 1_555
C16 C15 1_555 1_555
H14 C16 1_555 1_555
C17 C16 1_555 1_555
H15 C17 1_555 1_555
C18 C13 1_555 1_555
H16 C18 1_555 1_555
C19 C10 1_555 1_555
H17 C19 1_555 1_555
H18 C19 1_555 1_555
H19 C19 1_555 1_555
C20 N3 1_555 1_555
C21 O3 1_555 1_555
H20 C21 1_555 1_555
H21 C21 1_555 1_555
C22 C21 1_555 1_555
C23 C22 1_555 1_555
H22 C23 1_555 1_555
C24 C23 1_555 1_555
H23 C24 1_555 1_555
C25 C24 1_555 1_555
H24 C25 1_555 1_555
C26 C25 1_555 1_555
H25 C26 1_555 1_555
C27 C22 1_555 1_555
H26 C27 1_555 1_555
N3 C11 1_555 1_555
C7 C8 1_555 1_555
C8 C9 1_555 1_555
C10 C11 1_555 1_555
C17 C18 1_555 1_555
C26 C27 1_555 1_555

#END
