
#######################################################################
#
#                 Cambridge Crystallographic Data Centre
#                                CCDC 
#
#######################################################################
#
# If this CIF has been generated from an entry in the Cambridge 
# Structural Database, then it will include bibliographic, chemical, 
# crystal, experimental, refinement or atomic coordinate data resulting 
# from the CCDC's data processing and validation procedures.
#
#######################################################################

data_OSEGOK
_chemical_formula_moiety         'C26 H20 S2'
_chemical_name_systematic        
11-methyl-9-phenyl-2,3-dihydro-9H-benzo[1,2]fluoreno[3,4-b][1,4]dithiine
_symmetry_cell_setting           monoclinic
_symmetry_space_group_name_H-M   'P 21/n'
_symmetry_Int_Tables_number      14
_space_group_name_Hall           '-P 2yn'
loop_
_symmetry_equiv_pos_site_id
_symmetry_equiv_pos_as_xyz
1 x,y,z
2 1/2-x,1/2+y,1/2-z
3 -x,-y,-z
4 1/2+x,1/2-y,1/2+z
_cell_length_a                   11.9307(16)
_cell_length_b                   11.8029(15)
_cell_length_c                   13.8044(18)
_cell_angle_alpha                90
_cell_angle_beta                 98.163(3)
_cell_angle_gamma                90
_cell_volume                     1924.2
_exptl_crystal_colour            colorless
_exptl_crystal_description       prismatic
_cell_formula_units_Z            4
loop_
_atom_site_label
_atom_site_type_symbol
_atom_site_fract_x
_atom_site_fract_y
_atom_site_fract_z
S1 S 0.56483(7) 0.25898(6) 0.17416(6)
S2 S 0.63822(10) 0.11348(6) -0.01540(6)
C1 C 0.70152(19) 0.43913(19) -0.07949(16)
C2 C 0.7389(2) 0.4961(2) -0.15928(17)
H1 H 0.7453 0.5746 -0.1579
C3 C 0.7655(2) 0.4381(2) -0.23778(18)
H2 H 0.7892 0.4768 -0.2900
C4 C 0.7573(3) 0.3203(2) -0.23974(19)
H3 H 0.7767 0.2806 -0.2931
C5 C 0.7215(2) 0.2630(2) -0.16499(18)
H4 H 0.7164 0.1844 -0.1681
C6 C 0.6917(2) 0.31980(19) -0.08258(17)
C7 C 0.6511(2) 0.26167(19) -0.00361(18)
C8 C 0.6207(2) 0.32010(18) 0.07520(16)
C9 C 0.63141(18) 0.44010(18) 0.07761(15)
C10 C 0.67192(19) 0.49658(18) 0.00232(16)
C11 C 0.6734(2) 0.62271(17) 0.01937(16)
H5 H 0.6195 0.6587 -0.0316
C12 C 0.6280(2) 0.63080(18) 0.11560(17)
C13 C 0.60376(19) 0.52376(18) 0.14965(16)
C14 C 0.5596(2) 0.5164(2) 0.23733(17)
H6 H 0.5420 0.4461 0.2616
C15 C 0.5422(2) 0.6138(2) 0.28800(19)
H7 H 0.5118 0.6080 0.3462
C16 C 0.5682(2) 0.7195(2) 0.25519(19)
C17 C 0.6116(2) 0.7273(2) 0.16789(19)
H8 H 0.6298 0.7978 0.1444
C18 C 0.5505(3) 0.8251(2) 0.3130(2)
H9 H 0.4938 0.8109 0.3543
H10 H 0.5261 0.8859 0.2687
H11 H 0.6203 0.8457 0.3525
C19 C 0.7863(2) 0.68168(18) 0.02457(15)
C20 C 0.7894(2) 0.7972(2) 0.00599(17)
H12 H 0.7225 0.8355 -0.0159
C21 C 0.8901(3) 0.8557(2) 0.0196(2)
H13 H 0.8908 0.9331 0.0072
C22 C 0.9884(3) 0.8006(3) 0.0509(2)
H14 H 1.0564 0.8403 0.0610
C23 C 0.9872(2) 0.6859(2) 0.0679(2)
H15 H 1.0547 0.6479 0.0883
C24 C 0.8870(2) 0.6273(2) 0.05473(18)
H16 H 0.8872 0.5497 0.0664
C25 C 0.6645(14) 0.0766(9) 0.1141(8)
H17 H 0.6770 -0.0042 0.1225
H18 H 0.7304 0.1165 0.1467
C26 C 0.5561(7) 0.1136(6) 0.1562(6)
H19 H 0.5517 0.0753 0.2177
H20 H 0.4890 0.0948 0.1107
C27? C 0.6453(15) 0.0572(9) 0.0981(8)
H21? H 0.5992 -0.0107 0.0911
H22? H 0.7229 0.0322 0.1163
C28? C 0.6161(9) 0.1147(7) 0.1795(6)
H23? H 0.6824 0.1131 0.2290
H24? H 0.5588 0.0692 0.2044
loop_
_geom_bond_atom_site_label_1
_geom_bond_atom_site_label_2
_geom_bond_site_symmetry_1
_geom_bond_site_symmetry_2
S1 C8 1_555 1_555
S2 C7 1_555 1_555
C1 C2 1_555 1_555
C2 H1 1_555 1_555
C3 C2 1_555 1_555
H2 C3 1_555 1_555
C4 C3 1_555 1_555
H3 C4 1_555 1_555
C5 C4 1_555 1_555
H4 C5 1_555 1_555
C6 C1 1_555 1_555
C7 C6 1_555 1_555
C8 C7 1_555 1_555
C9 C8 1_555 1_555
C10 C1 1_555 1_555
C11 C10 1_555 1_555
H5 C11 1_555 1_555
C12 C11 1_555 1_555
C13 C9 1_555 1_555
C14 C13 1_555 1_555
H6 C14 1_555 1_555
C15 C14 1_555 1_555
H7 C15 1_555 1_555
C16 C15 1_555 1_555
C17 C12 1_555 1_555
H8 C17 1_555 1_555
C18 C16 1_555 1_555
H9 C18 1_555 1_555
H10 C18 1_555 1_555
H11 C18 1_555 1_555
C19 C11 1_555 1_555
C20 C19 1_555 1_555
H12 C20 1_555 1_555
C21 C20 1_555 1_555
H13 C21 1_555 1_555
C22 C21 1_555 1_555
H14 C22 1_555 1_555
C23 C22 1_555 1_555
H15 C23 1_555 1_555
C24 C19 1_555 1_555
H16 C24 1_555 1_555
C25 S2 1_555 1_555
H17 C25 1_555 1_555
H18 C25 1_555 1_555
C26 S1 1_555 1_555
H19 C26 1_555 1_555
H20 C26 1_555 1_555
C5 C6 1_555 1_555
C9 C10 1_555 1_555
C12 C13 1_555 1_555
C16 C17 1_555 1_555
C23 C24 1_555 1_555
C25 C26 1_555 1_555

#END
