
#######################################################################
#
#                 Cambridge Crystallographic Data Centre
#                                CCDC 
#
#######################################################################
#
# If this CIF has been generated from an entry in the Cambridge 
# Structural Database, then it will include bibliographic, chemical, 
# crystal, experimental, refinement or atomic coordinate data resulting 
# from the CCDC's data processing and validation procedures.
#
#######################################################################

data_OSEVEP
_chemical_formula_moiety         'C23 H21 Cl1 N2 O3 S1'
_chemical_name_systematic        
N-((3S,4S)-6-chloro-1-methyl-2-oxo-4-phenyl-1,2,3,4-tetrahydroquinolin-3-yl)-4-methylbenzenesulfonamide
_symmetry_cell_setting           trigonal
_symmetry_space_group_name_H-M   'P 31'
_symmetry_Int_Tables_number      144
_space_group_name_Hall           'P 31'
loop_
_symmetry_equiv_pos_site_id
_symmetry_equiv_pos_as_xyz
1 x,y,z
2 -y,x-y,1/3+z
3 -x+y,-x,2/3+z
_cell_length_a                   13.1110(4)
_cell_length_b                   13.1110(4)
_cell_length_c                   10.7857(5)
_cell_angle_alpha                90
_cell_angle_beta                 90
_cell_angle_gamma                120
_cell_volume                     1605.65
_exptl_crystal_colour            colorless
_exptl_crystal_description       Prism
_chemical_melting_point          '219-220 deg.C'
_cell_formula_units_Z            3
_exptl_crystal_recrystallization_method dichloromethane/hexane
loop_
_atom_site_label
_atom_site_type_symbol
_atom_site_fract_x
_atom_site_fract_y
_atom_site_fract_z
Cl1 Cl 0.19420(5) 0.94033(5) -0.55417(4)
S1 S 0.44321(4) 0.80805(4) 0.08935(4)
O1 O 0.24345(17) 0.93026(15) 0.17857(13)
O2 O 0.43725(12) 0.71817(12) 0.16917(13)
O3 O 0.48988(13) 0.82117(13) -0.03388(13)
N1 N 0.19798(16) 0.98053(15) -0.00630(14)
N2 N 0.31003(14) 0.78287(14) 0.07743(15)
C1 C 0.19432(15) 0.97097(16) -0.13729(16)
C2 C 0.19378(17) 1.05822(17) -0.21186(18)
H1 H 0.1940 1.1239 -0.1745
C3 C 0.19297(17) 1.04905(17) -0.34010(18)
H2 H 0.1927 1.1081 -0.3908
C4 C 0.19259(16) 0.95256(16) -0.39319(17)
C5 C 0.19109(15) 0.86418(16) -0.32012(16)
H3 H 0.1904 0.7984 -0.3581
C6 C 0.19063(15) 0.87228(15) -0.19178(16)
C7 C 0.19727(15) 0.78196(15) -0.10929(15)
H4 H 0.2318 0.7420 -0.1587
C8 C 0.28529(16) 0.85486(16) -0.00635(16)
H5 H 0.3610 0.9126 -0.0471
C9 C 0.24060(18) 0.92451(18) 0.06620(18)
C10 C 0.52847(16) 0.94603(16) 0.16346(17)
C11 C 0.62301(17) 1.03589(18) 0.1016(2)
H6 H 0.6398 1.0252 0.0184
C12 C 0.69302(19) 1.14171(18) 0.1621(2)
H7 H 0.7579 1.2038 0.1197
C13 C 0.6696(2) 1.15853(19) 0.2846(2)
C14 C 0.5731(2) 1.06752(19) 0.3430(2)
H8 H 0.5555 1.0782 0.4258
C15 C 0.5010(2) 0.96081(18) 0.28393(19)
H9 H 0.4346 0.8995 0.3251
C16 C 0.7490(2) 1.2728(2) 0.3506(3)
H10 H 0.7601 1.3390 0.2988
H11 H 0.8256 1.2789 0.3662
H12 H 0.7131 1.2746 0.4296
C17 C 0.1543(3) 1.0513(3) 0.0541(2)
H13 H 0.1456 1.0345 0.1433
H14 H 0.0777 1.0316 0.0188
H15 H 0.2104 1.1351 0.0408
C18 C 0.07972(16) 0.68722(16) -0.05490(16)
C19 C 0.06825(17) 0.57946(17) -0.01986(19)
H16 H 0.1320 0.5656 -0.0327
C20 C -0.03519(19) 0.49237(19) 0.0334(2)
H17 H -0.0416 0.4197 0.0574
C21 C -0.12865(19) 0.5109(2) 0.0517(2)
H18 H -0.1993 0.4512 0.0883
C22 C -0.11954(19) 0.6162(2) 0.0168(2)
H19 H -0.1844 0.6285 0.0284
C23 C -0.01556(17) 0.70486(18) -0.03552(19)
H20 H -0.0095 0.7777 -0.0581
H21 H 0.2667(19) 0.758(2) 0.146(2)
loop_
_geom_bond_atom_site_label_1
_geom_bond_atom_site_label_2
_geom_bond_site_symmetry_1
_geom_bond_site_symmetry_2
Cl1 C4 1_555 1_555
S1 O2 1_555 1_555
O1 C9 1_555 1_555
O3 S1 1_555 1_555
N1 C1 1_555 1_555
N2 S1 1_555 1_555
C1 C2 1_555 1_555
C2 H1 1_555 1_555
C3 C2 1_555 1_555
H2 C3 1_555 1_555
C4 C3 1_555 1_555
C5 C4 1_555 1_555
H3 C5 1_555 1_555
C6 C1 1_555 1_555
C7 C6 1_555 1_555
H4 C7 1_555 1_555
C8 N2 1_555 1_555
H5 C8 1_555 1_555
C9 N1 1_555 1_555
C10 S1 1_555 1_555
C11 C10 1_555 1_555
H6 C11 1_555 1_555
C12 C11 1_555 1_555
H7 C12 1_555 1_555
C13 C12 1_555 1_555
C14 C13 1_555 1_555
H8 C14 1_555 1_555
C15 C10 1_555 1_555
H9 C15 1_555 1_555
C16 C13 1_555 1_555
H10 C16 1_555 1_555
H11 C16 1_555 1_555
H12 C16 1_555 1_555
C17 N1 1_555 1_555
H13 C17 1_555 1_555
H14 C17 1_555 1_555
H15 C17 1_555 1_555
C18 C7 1_555 1_555
C19 C18 1_555 1_555
H16 C19 1_555 1_555
C20 C19 1_555 1_555
H17 C20 1_555 1_555
C21 C20 1_555 1_555
H18 C21 1_555 1_555
C22 C21 1_555 1_555
H19 C22 1_555 1_555
C23 C18 1_555 1_555
H20 C23 1_555 1_555
H21 N2 1_555 1_555
C5 C6 1_555 1_555
C7 C8 1_555 1_555
C8 C9 1_555 1_555
C14 C15 1_555 1_555
C22 C23 1_555 1_555

#END
