
#######################################################################
#
#                 Cambridge Crystallographic Data Centre
#                                CCDC 
#
#######################################################################
#
# If this CIF has been generated from an entry in the Cambridge 
# Structural Database, then it will include bibliographic, chemical, 
# crystal, experimental, refinement or atomic coordinate data resulting 
# from the CCDC's data processing and validation procedures.
#
#######################################################################

data_OSILAF
_chemical_formula_moiety         'C9 H7 N5'
_chemical_name_systematic        2-(4H-1,2,4-triazol-4-yl)-1H-benzimidazole
_symmetry_cell_setting           monoclinic
_symmetry_space_group_name_H-M   'P 21/c'
_symmetry_Int_Tables_number      14
_space_group_name_Hall           '-P 2ybc'
loop_
_symmetry_equiv_pos_site_id
_symmetry_equiv_pos_as_xyz
1 x,y,z
2 -x,1/2+y,1/2-z
3 -x,-y,-z
4 x,1/2-y,1/2+z
_cell_length_a                   7.0120(14)
_cell_length_b                   9.6343(19)
_cell_length_c                   13.331(3)
_cell_angle_alpha                90
_cell_angle_beta                 104.97(3)
_cell_angle_gamma                90
_cell_volume                     870.02
_cell_formula_units_Z            4
loop_
_atom_site_label
_atom_site_type_symbol
_atom_site_fract_x
_atom_site_fract_y
_atom_site_fract_z
N1 N 0.6238(3) 0.2555(2) 0.40549(16)
N2 N 0.5083(4) 0.1119(3) 0.2776(2)
N3 N 0.7686(4) 0.3700(2) 0.56457(19)
C1 C 0.6193(6) 0.1243(3) 0.4421(3)
H1 H 0.6601 0.1001 0.5120
N4 N 0.6845(4) 0.5011(3) 0.41977(17)
C2 C 0.7684(4) 0.5908(3) 0.5018(2)
C3 C 0.6938(4) 0.3746(3) 0.4651(2)
N5 N 0.5505(4) 0.0363(3) 0.36695(19)
C4 C 0.8180(4) 0.5082(3) 0.5903(2)
C5 C 0.5533(5) 0.2414(3) 0.3017(2)
H2 H 0.5388 0.3136 0.2541
C6 C 0.9029(5) 0.5697(3) 0.6859(3)
H3 H 0.9350 0.5170 0.7464
C7 C 0.8005(5) 0.7330(3) 0.5046(3)
H4 H 0.7655 0.7869 0.4448
C8 C 0.8866(5) 0.7908(4) 0.6002(3)
H5 H 0.9107 0.8858 0.6054
C9 C 0.9379(5) 0.7091(4) 0.6887(3)
H6 H 0.9979 0.7506 0.7520
loop_
_geom_bond_atom_site_label_1
_geom_bond_atom_site_label_2
_geom_bond_site_symmetry_1
_geom_bond_site_symmetry_2
N1 C1 1_555 1_555
N2 N5 1_555 1_555
N3 C3 1_555 1_555
C1 H1 1_555 1_555
N4 C2 1_555 1_555
C2 C4 1_555 1_555
C3 N1 1_555 1_555
N5 C1 1_555 1_555
C4 N3 1_555 1_555
C5 N1 1_555 1_555
H2 C5 1_555 1_555
C6 C4 1_555 1_555
H3 C6 1_555 1_555
C7 C2 1_555 1_555
H4 C7 1_555 1_555
C8 C7 1_555 1_555
H5 C8 1_555 1_555
C9 C6 1_555 1_555
H6 C9 1_555 1_555
N2 C5 1_555 1_555
N4 C3 1_555 1_555
C8 C9 1_555 1_555

#END
