
#######################################################################
#
#                 Cambridge Crystallographic Data Centre
#                                CCDC 
#
#######################################################################
#
# If this CIF has been generated from an entry in the Cambridge 
# Structural Database, then it will include bibliographic, chemical, 
# crystal, experimental, refinement or atomic coordinate data resulting 
# from the CCDC's data processing and validation procedures.
#
#######################################################################

data_OSOLUE
_chemical_formula_moiety         'C19 H18 O6'
_chemical_name_systematic        
6a-Hydroxy-3,9,10-trimethoxy-7,11b-dihydroindeno[2,1-c]chromen-6(6aH)-one
_chemical_properties_biological  'tested for anticancer activity'
_symmetry_cell_setting           monoclinic
_symmetry_space_group_name_H-M   'P 21/c'
_symmetry_Int_Tables_number      14
_space_group_name_Hall           '-P 2ybc'
loop_
_symmetry_equiv_pos_site_id
_symmetry_equiv_pos_as_xyz
1 x,y,z
2 -x,1/2+y,1/2-z
3 -x,-y,-z
4 x,1/2-y,1/2+z
_cell_length_a                   13.602(6)
_cell_length_b                   5.496(3)
_cell_length_c                   21.503(10)
_cell_angle_alpha                90
_cell_angle_beta                 91.795(7)
_cell_angle_gamma                90
_cell_volume                     1606.7
_exptl_crystal_colour            colorless
_exptl_crystal_description       prism
_cell_formula_units_Z            4
loop_
_atom_site_label
_atom_site_type_symbol
_atom_site_fract_x
_atom_site_fract_y
_atom_site_fract_z
C1 C 0.57727(16) 0.2760(4) 0.02561(10)
H1 H 0.5292 0.1590 0.0319
C2 C 0.60033(15) 0.4432(4) 0.07145(10)
C3 C 0.67103(15) 0.6229(4) 0.06469(10)
C4 C 0.71742(17) 0.6260(4) 0.00841(11)
H2 H 0.7646 0.7448 0.0019
C5 C 0.69684(17) 0.4606(5) -0.03849(11)
H3 H 0.7301 0.4681 -0.0756
C6 C 0.62613(17) 0.2832(4) -0.02984(11)
C7 C 0.56711(15) 0.5528(4) 0.17641(11)
C8 C 0.66359(15) 0.6886(4) 0.17981(10)
C9 C 0.69528(14) 0.7966(4) 0.11745(10)
H4 H 0.6652 0.9564 0.1099
C10 C 0.74995(14) 0.5166(4) 0.19886(10)
H5 H 0.7566 0.5000 0.2437
H6 H 0.7417 0.3568 0.1803
C11 C 0.83671(14) 0.6495(4) 0.17274(9)
C12 C 0.80518(14) 0.8182(4) 0.12910(9)
C13 C 0.87120(14) 0.9728(4) 0.10097(9)
H7 H 0.8491 1.0896 0.0725
C14 C 0.97035(15) 0.9502(4) 0.11590(9)
C15 C 0.93576(14) 0.6205(4) 0.18698(9)
H8 H 0.9570 0.5028 0.2154
C16 C 1.00317(14) 0.7695(4) 0.15827(9)
C17 C 1.13903(16) 0.5550(4) 0.20390(11)
H9 H 1.1162 0.5698 0.2455
H10 H 1.2096 0.5558 0.2048
H11 H 1.1154 0.4053 0.1860
C18 C 1.01215(17) 1.2818(4) 0.05075(10)
H12 H 0.9814 1.2137 0.0139
H13 H 1.0681 1.3770 0.0395
H14 H 0.9660 1.3837 0.0713
C19 C 0.6530(2) 0.0867(5) -0.12746(12)
H15 H 0.6472 0.2322 -0.1520
H16 H 0.6286 -0.0493 -0.1513
H17 H 0.7209 0.0597 -0.1158
O1 O 0.59715(13) 0.1125(3) -0.07276(8)
O2 O 0.54485(10) 0.4203(3) 0.12494(7)
O3 O 0.50977(11) 0.5542(3) 0.21752(8)
O4 O 0.65839(11) 0.8763(3) 0.22445(8)
H18 H 0.6043 0.8737 0.2402
O5 O 1.10310(10) 0.7544(3) 0.16739(7)
O6 O 1.04338(10) 1.0903(3) 0.09156(7)
loop_
_geom_bond_atom_site_label_1
_geom_bond_atom_site_label_2
_geom_bond_site_symmetry_1
_geom_bond_site_symmetry_2
C1 H1 1_555 1_555
C2 C1 1_555 1_555
C3 C2 1_555 1_555
C4 C3 1_555 1_555
H2 C4 1_555 1_555
C5 C4 1_555 1_555
H3 C5 1_555 1_555
C6 C1 1_555 1_555
C7 C8 1_555 1_555
C8 C9 1_555 1_555
C9 C3 1_555 1_555
H4 C9 1_555 1_555
C10 C8 1_555 1_555
H5 C10 1_555 1_555
H6 C10 1_555 1_555
C11 C10 1_555 1_555
C12 C9 1_555 1_555
C13 C12 1_555 1_555
H7 C13 1_555 1_555
C14 C13 1_555 1_555
C15 C11 1_555 1_555
H8 C15 1_555 1_555
C16 C14 1_555 1_555
C17 H9 1_555 1_555
H10 C17 1_555 1_555
H11 C17 1_555 1_555
C18 H12 1_555 1_555
H13 C18 1_555 1_555
H14 C18 1_555 1_555
C19 H15 1_555 1_555
H16 C19 1_555 1_555
H17 C19 1_555 1_555
O1 C6 1_555 1_555
O2 C2 1_555 1_555
O3 C7 1_555 1_555
O4 C8 1_555 1_555
H18 O4 1_555 1_555
O5 C16 1_555 1_555
O6 C14 1_555 1_555
C5 C6 1_555 1_555
C7 O2 1_555 1_555
C11 C12 1_555 1_555
C15 C16 1_555 1_555
C17 O5 1_555 1_555
C18 O6 1_555 1_555
C19 O1 1_555 1_555

#END
