
#######################################################################
#
#                 Cambridge Crystallographic Data Centre
#                                CCDC 
#
#######################################################################
#
# If this CIF has been generated from an entry in the Cambridge 
# Structural Database, then it will include bibliographic, chemical, 
# crystal, experimental, refinement or atomic coordinate data resulting 
# from the CCDC's data processing and validation procedures.
#
#######################################################################

data_OSOQUJ
_chemical_formula_moiety         'C54 H81 Cl1 N6 Si2'
_chemical_name_systematic        
1,3-Di-t-butyl-N-(1,3-di-t-butyl-2-chloro-4-phenyl-1,3,2-diazasiletidin-2-yl)-N,N'-bis(2,6-di-isopropylphenyl)-4-phenyl-1\l^5^,3,2-diazasilete-2,2(1H)-diamine
_symmetry_cell_setting           orthorhombic
_symmetry_space_group_name_H-M   'P 21 21 21'
_symmetry_Int_Tables_number      19
_space_group_name_Hall           'P 2ac 2ab'
loop_
_symmetry_equiv_pos_site_id
_symmetry_equiv_pos_as_xyz
1 x,y,z
2 1/2-x,-y,1/2+z
3 -x,1/2+y,1/2-z
4 1/2+x,1/2-y,-z
_cell_length_a                   12.6584(12)
_cell_length_b                   17.9506(17)
_cell_length_c                   22.629(2)
_cell_angle_alpha                90
_cell_angle_beta                 90
_cell_angle_gamma                90
_cell_volume                     5141.89
_exptl_crystal_colour            colorless
_exptl_crystal_description       plate
_chemical_melting_point          203.5deg.C
_cell_formula_units_Z            4
_chemical_properties_physical    'air- and moisture-sensitive'
loop_
_atom_site_label
_atom_site_type_symbol
_atom_site_fract_x
_atom_site_fract_y
_atom_site_fract_z
Si1 Si 0.61073(11) 0.50639(9) 0.80994(6)
Si2 Si 0.46183(11) 0.47818(9) 0.92335(6)
C1 C 0.7836(4) 0.6171(3) 0.7998(2)
C2 C 0.7427(5) 0.6655(3) 0.7484(3)
H1 H 0.7688 0.6455 0.7109
H2 H 0.7680 0.7168 0.7534
H3 H 0.6653 0.6652 0.7484
C3 C 0.9051(4) 0.6125(4) 0.7942(3)
H4 H 0.9336 0.5834 0.8272
H5 H 0.9350 0.6629 0.7952
H6 H 0.9237 0.5884 0.7568
C4 C 0.7543(5) 0.6562(3) 0.8578(3)
H7 H 0.6772 0.6584 0.8615
H8 H 0.7830 0.7069 0.8577
H9 H 0.7839 0.6284 0.8911
C5 C 0.7485(4) 0.4963(3) 0.7444(2)
H10 H 0.7505 0.5308 0.7097
C6 C 0.8581(4) 0.3877(3) 0.7835(2)
H11 H 0.8073 0.3814 0.8140
C7 C 0.9444(4) 0.3406(3) 0.7813(3)
H12 H 0.9525 0.3021 0.8096
C8 C 1.0198(5) 0.3506(4) 0.7365(3)
H13 H 1.0797 0.3189 0.7347
C9 C 1.0072(4) 0.4057(4) 0.6956(3)
H14 H 1.0585 0.4124 0.6654
C10 C 0.9190(4) 0.4522(3) 0.6979(3)
H15 H 0.9100 0.4899 0.6689
C11 C 0.8441(4) 0.4437(3) 0.7424(2)
C12 C 0.5904(4) 0.4452(3) 0.6890(2)
C13 C 0.6541(4) 0.3913(3) 0.6509(2)
H16 H 0.7242 0.4123 0.6433
H17 H 0.6174 0.3832 0.6134
H18 H 0.6616 0.3436 0.6717
C14 C 0.5725(5) 0.5175(3) 0.6536(2)
H19 H 0.5278 0.5514 0.6765
H20 H 0.5376 0.5056 0.6161
H21 H 0.6407 0.5413 0.6457
C15 C 0.4813(4) 0.4109(4) 0.7007(2)
H22 H 0.4898 0.3634 0.7214
H23 H 0.4451 0.4025 0.6630
H24 H 0.4395 0.4450 0.7251
C16 C 0.6452(4) 0.4011(3) 0.8912(2)
C17 C 0.6286(4) 0.3275(3) 0.8715(2)
C18 C 0.5374(4) 0.3015(3) 0.8330(2)
H25 H 0.4990 0.3466 0.8185
C19 C 0.4602(5) 0.2549(3) 0.8698(3)
H26 H 0.4963 0.2104 0.8846
H27 H 0.4002 0.2400 0.8451
H28 H 0.4346 0.2845 0.9032
C20 C 0.5753(5) 0.2575(4) 0.7794(2)
H29 H 0.6308 0.2856 0.7590
H30 H 0.5159 0.2493 0.7524
H31 H 0.6035 0.2094 0.7924
C21 C 0.7022(5) 0.2720(3) 0.8863(2)
H32 H 0.6909 0.2226 0.8726
C22 C 0.7903(4) 0.2869(3) 0.9201(2)
H33 H 0.8392 0.2486 0.9296
C23 C 0.8057(4) 0.3586(3) 0.9396(2)
H34 H 0.8662 0.3694 0.9629
C24 C 0.7356(4) 0.4161(3) 0.9264(2)
C25 C 0.7596(4) 0.4916(3) 0.9536(2)
H35 H 0.7135 0.5298 0.9344
C26 C 0.8761(4) 0.5136(4) 0.9436(3)
H36 H 0.9219 0.4813 0.9674
H37 H 0.8866 0.5656 0.9555
H38 H 0.8939 0.5080 0.9017
C27 C 0.7369(5) 0.4912(4) 1.0197(2)
H39 H 0.6641 0.4748 1.0265
H40 H 0.7463 0.5415 1.0356
H41 H 0.7858 0.4570 1.0395
C28 C 0.4444(4) 0.4119(3) 1.0402(2)
C29 C 0.5155(4) 0.3631(3) 1.0704(2)
C30 C 0.5971(4) 0.3172(3) 1.0377(2)
H42 H 0.6175 0.3448 1.0010
C31 C 0.5462(5) 0.2436(3) 1.0193(3)
H43 H 0.5319 0.2135 1.0546
H44 H 0.5943 0.2164 0.9931
H45 H 0.4798 0.2536 0.9985
C32 C 0.6972(5) 0.3011(4) 1.0728(3)
H46 H 0.7275 0.3480 1.0870
H47 H 0.7485 0.2757 1.0474
H48 H 0.6799 0.2692 1.1066
C33 C 0.5030(5) 0.3500(3) 1.1309(2)
H49 H 0.5523 0.3187 1.1505
C34 C 0.4210(4) 0.3814(3) 1.1633(2)
H50 H 0.4146 0.3727 1.2045
C35 C 0.3488(4) 0.4259(3) 1.1334(2)
H51 H 0.2910 0.4465 1.1546
C36 C 0.3584(4) 0.4410(3) 1.0736(2)
C37 C 0.2652(4) 0.4796(3) 1.0440(2)
H52 H 0.2908 0.5052 1.0075
C38 C 0.1863(5) 0.4194(4) 1.0263(3)
H53 H 0.2207 0.3839 0.9995
H54 H 0.1260 0.4424 1.0062
H55 H 0.1617 0.3931 1.0617
C39 C 0.2093(5) 0.5374(4) 1.0836(3)
H56 H 0.1576 0.5652 1.0601
H57 H 0.2617 0.5719 1.0999
H58 H 0.1730 0.5117 1.1160
C40 C 0.4610(4) 0.6449(3) 0.9664(2)
C41 C 0.5694(5) 0.6267(4) 0.9917(3)
H59 H 0.5649 0.5811 1.0155
H60 H 0.5935 0.6680 1.0166
H61 H 0.6196 0.6191 0.9593
C42 C 0.4684(5) 0.7148(3) 0.9282(3)
H62 H 0.5111 0.7042 0.8931
H63 H 0.5015 0.7550 0.9510
H64 H 0.3973 0.7302 0.9161
C43 C 0.3871(5) 0.6596(4) 1.0181(3)
H65 H 0.3169 0.6729 1.0030
H66 H 0.4148 0.7008 1.0419
H67 H 0.3818 0.6147 1.0425
C44 C 0.3386(4) 0.5690(3) 0.9013(2)
C45 C 0.2533(4) 0.6259(3) 0.8923(2)
C46 C 0.1696(4) 0.6288(3) 0.9317(3)
H68 H 0.1665 0.5952 0.9641
C47 C 0.0900(5) 0.6814(3) 0.9235(3)
H69 H 0.0329 0.6840 0.9507
C48 C 0.0935(4) 0.7296(3) 0.8763(3)
H70 H 0.0386 0.7650 0.8709
C49 C 0.1759(5) 0.7268(3) 0.8367(3)
H71 H 0.1780 0.7601 0.8042
C50 C 0.2564(5) 0.6745(3) 0.8447(3)
H72 H 0.3133 0.6722 0.8175
C51 C 0.2506(4) 0.4625(3) 0.8449(2)
C52 C 0.2837(5) 0.3828(3) 0.8359(3)
H73 H 0.3501 0.3814 0.8136
H74 H 0.2288 0.3563 0.8137
H75 H 0.2939 0.3589 0.8743
C53 C 0.2401(5) 0.5010(4) 0.7848(2)
H76 H 0.2065 0.5498 0.7901
H77 H 0.1967 0.4703 0.7585
H78 H 0.3104 0.5077 0.7674
C54 C 0.1431(5) 0.4619(4) 0.8749(3)
H79 H 0.1486 0.4366 0.9131
H80 H 0.0922 0.4355 0.8498
H81 H 0.1192 0.5133 0.8810
Cl1 Cl 0.49700(11) 0.58755(8) 0.79493(6)
N1 N 0.6436(3) 0.4577(3) 0.74679(18)
N2 N 0.7378(3) 0.5404(2) 0.80034(19)
N3 N 0.5713(3) 0.4618(2) 0.87458(18)
N4 N 0.4595(4) 0.4266(2) 0.98039(19)
N5 N 0.4281(3) 0.5789(3) 0.93116(18)
N6 N 0.3353(3) 0.4985(3) 0.88224(18)
loop_
_geom_bond_atom_site_label_1
_geom_bond_atom_site_label_2
_geom_bond_site_symmetry_1
_geom_bond_site_symmetry_2
Si1 Cl1 1_555 1_555
Si2 N3 1_555 1_555
C1 C2 1_555 1_555
C2 H1 1_555 1_555
H2 C2 1_555 1_555
H3 C2 1_555 1_555
C3 C1 1_555 1_555
H4 C3 1_555 1_555
H5 C3 1_555 1_555
H6 C3 1_555 1_555
C4 C1 1_555 1_555
H7 C4 1_555 1_555
H8 C4 1_555 1_555
H9 C4 1_555 1_555
C5 H10 1_555 1_555
C6 H11 1_555 1_555
C7 C6 1_555 1_555
H12 C7 1_555 1_555
C8 C7 1_555 1_555
H13 C8 1_555 1_555
C9 C8 1_555 1_555
H14 C9 1_555 1_555
C10 C9 1_555 1_555
H15 C10 1_555 1_555
C11 C5 1_555 1_555
C12 C13 1_555 1_555
C13 H16 1_555 1_555
H17 C13 1_555 1_555
H18 C13 1_555 1_555
C14 C12 1_555 1_555
H19 C14 1_555 1_555
H20 C14 1_555 1_555
H21 C14 1_555 1_555
C15 C12 1_555 1_555
H22 C15 1_555 1_555
H23 C15 1_555 1_555
H24 C15 1_555 1_555
C16 C17 1_555 1_555
C17 C18 1_555 1_555
C18 H25 1_555 1_555
C19 C18 1_555 1_555
H26 C19 1_555 1_555
H27 C19 1_555 1_555
H28 C19 1_555 1_555
C20 C18 1_555 1_555
H29 C20 1_555 1_555
H30 C20 1_555 1_555
H31 C20 1_555 1_555
C21 C17 1_555 1_555
H32 C21 1_555 1_555
C22 C21 1_555 1_555
H33 C22 1_555 1_555
C23 C22 1_555 1_555
H34 C23 1_555 1_555
C24 C16 1_555 1_555
C25 C24 1_555 1_555
H35 C25 1_555 1_555
C26 C25 1_555 1_555
H36 C26 1_555 1_555
H37 C26 1_555 1_555
H38 C26 1_555 1_555
C27 C25 1_555 1_555
H39 C27 1_555 1_555
H40 C27 1_555 1_555
H41 C27 1_555 1_555
C28 C29 1_555 1_555
C29 C30 1_555 1_555
C30 H42 1_555 1_555
C31 C30 1_555 1_555
H43 C31 1_555 1_555
H44 C31 1_555 1_555
H45 C31 1_555 1_555
C32 C30 1_555 1_555
H46 C32 1_555 1_555
H47 C32 1_555 1_555
H48 C32 1_555 1_555
C33 C29 1_555 1_555
H49 C33 1_555 1_555
C34 C33 1_555 1_555
H50 C34 1_555 1_555
C35 C34 1_555 1_555
H51 C35 1_555 1_555
C36 C28 1_555 1_555
C37 C36 1_555 1_555
H52 C37 1_555 1_555
C38 C37 1_555 1_555
H53 C38 1_555 1_555
H54 C38 1_555 1_555
H55 C38 1_555 1_555
C39 C37 1_555 1_555
H56 C39 1_555 1_555
H57 C39 1_555 1_555
H58 C39 1_555 1_555
C40 C41 1_555 1_555
C41 H59 1_555 1_555
H60 C41 1_555 1_555
H61 C41 1_555 1_555
C42 C40 1_555 1_555
H62 C42 1_555 1_555
H63 C42 1_555 1_555
H64 C42 1_555 1_555
C43 C40 1_555 1_555
H65 C43 1_555 1_555
H66 C43 1_555 1_555
H67 C43 1_555 1_555
C44 C45 1_555 1_555
C45 C46 1_555 1_555
C46 H68 1_555 1_555
C47 C46 1_555 1_555
H69 C47 1_555 1_555
C48 C47 1_555 1_555
H70 C48 1_555 1_555
C49 C48 1_555 1_555
H71 C49 1_555 1_555
C50 C45 1_555 1_555
H72 C50 1_555 1_555
C51 C52 1_555 1_555
C52 H73 1_555 1_555
H74 C52 1_555 1_555
H75 C52 1_555 1_555
C53 C51 1_555 1_555
H76 C53 1_555 1_555
H77 C53 1_555 1_555
H78 C53 1_555 1_555
C54 C51 1_555 1_555
H79 C54 1_555 1_555
H80 C54 1_555 1_555
H81 C54 1_555 1_555
N1 Si1 1_555 1_555
N2 Si1 1_555 1_555
N3 Si1 1_555 1_555
N4 Si2 1_555 1_555
N5 Si2 1_555 1_555
N6 Si2 1_555 1_555
C1 N2 1_555 1_555
C5 N1 1_555 1_555
C5 N2 1_555 1_555
C6 C11 1_555 1_555
C10 C11 1_555 1_555
C12 N1 1_555 1_555
C16 N3 1_555 1_555
C23 C24 1_555 1_555
C28 N4 1_555 1_555
C35 C36 1_555 1_555
C40 N5 1_555 1_555
C44 N5 1_555 1_555
C44 N6 1_555 1_555
C49 C50 1_555 1_555
C51 N6 1_555 1_555

#END
