
#######################################################################
#
#                 Cambridge Crystallographic Data Centre
#                                CCDC 
#
#######################################################################
#
# If this CIF has been generated from an entry in the Cambridge 
# Structural Database, then it will include bibliographic, chemical, 
# crystal, experimental, refinement or atomic coordinate data resulting 
# from the CCDC's data processing and validation procedures.
#
#######################################################################

data_OTAMAY01
_chemical_formula_moiety         'C24 H14 S4'
_chemical_name_systematic        1,2'-bithianthrene
_symmetry_cell_setting           monoclinic
_symmetry_space_group_name_H-M   'P 21/c'
_symmetry_Int_Tables_number      14
_space_group_name_Hall           '-P 2ybc'
loop_
_symmetry_equiv_pos_site_id
_symmetry_equiv_pos_as_xyz
1 x,y,z
2 -x,1/2+y,1/2-z
3 -x,-y,-z
4 x,1/2-y,1/2+z
_cell_length_a                   23.376(5)
_cell_length_b                   6.0798(12)
_cell_length_c                   14.364(3)
_cell_angle_alpha                90
_cell_angle_beta                 99.514(5)
_cell_angle_gamma                90
_cell_volume                     2013.35
_exptl_crystal_colour            colorless
_exptl_crystal_description       block
_cell_formula_units_Z            4
_exptl_crystal_recrystallization_method dichlomethane/methanol
_exptl_crystal_preparation       Luminescent
loop_
_atom_site_label
_atom_site_type_symbol
_atom_site_fract_x
_atom_site_fract_y
_atom_site_fract_z
C1 C 0.42541(10) 0.5139(4) 0.27714(18)
C2 C 0.45056(11) 0.6607(4) 0.22141(19)
H1 H 0.4652 0.7944 0.2464
C3 C 0.45375(12) 0.6075(5) 0.1294(2)
H2 H 0.4722 0.7026 0.0932
C4 C 0.42991(12) 0.4151(5) 0.0902(2)
H3 H 0.4319 0.3815 0.0276
C5 C 0.40286(12) 0.2708(5) 0.1443(2)
H4 H 0.3859 0.1424 0.1175
C6 C 0.40123(11) 0.3188(4) 0.23833(19)
C7 C 0.33490(12) 0.2895(4) 0.37822(19)
C8 C 0.28206(12) 0.2195(5) 0.3999(2)
H5 H 0.2665 0.0854 0.3771
C9 C 0.25264(13) 0.3483(5) 0.4550(2)
H6 H 0.2181 0.2971 0.4712
C10 C 0.27362(11) 0.5536(4) 0.48684(18)
C11 C 0.32655(11) 0.6213(4) 0.46541(17)
H7 H 0.3412 0.7582 0.4862
C12 C 0.35816(11) 0.4894(4) 0.41364(17)
C13 C 0.24134(12) 0.7062(5) 0.54062(19)
C14 C 0.18364(11) 0.7665(4) 0.50688(18)
C15 C 0.15578(11) 0.9190(5) 0.5571(2)
C16 C 0.18505(13) 1.0118(6) 0.6393(2)
H8 H 0.1670 1.1170 0.6714
C17 C 0.24095(14) 0.9476(6) 0.6733(2)
H9 H 0.2602 1.0061 0.7297
C18 C 0.26848(13) 0.7979(6) 0.6246(2)
H10 H 0.3064 0.7570 0.6487
C19 C 0.10960(12) 0.8851(5) 0.3467(2)
C20 C 0.10711(13) 0.9157(6) 0.2509(2)
H11 H 0.1275 0.8215 0.2171
C21 C 0.07479(15) 1.0843(6) 0.2049(3)
H12 H 0.0719 1.1001 0.1399
C22 C 0.04679(14) 1.2295(6) 0.2555(3)
H13 H 0.0252 1.3441 0.2244
C23 C 0.05027(13) 1.2074(5) 0.3516(3)
H14 H 0.0323 1.3092 0.3855
C24 C 0.08091(11) 1.0315(5) 0.3979(2)
S1 S 0.42821(3) 0.57383(12) 0.39776(5)
S2 S 0.37272(3) 0.12099(12) 0.30825(5)
S3 S 0.08206(3) 0.98914(16) 0.51949(6)
S4 S 0.14627(4) 0.65357(13) 0.40066(6)
loop_
_geom_bond_atom_site_label_1
_geom_bond_atom_site_label_2
_geom_bond_site_symmetry_1
_geom_bond_site_symmetry_2
C1 C2 1_555 1_555
C2 H1 1_555 1_555
C3 C2 1_555 1_555
H2 C3 1_555 1_555
C4 C3 1_555 1_555
H3 C4 1_555 1_555
C5 C4 1_555 1_555
H4 C5 1_555 1_555
C6 C1 1_555 1_555
C7 C8 1_555 1_555
C8 H5 1_555 1_555
C9 C8 1_555 1_555
H6 C9 1_555 1_555
C10 C9 1_555 1_555
C11 C10 1_555 1_555
H7 C11 1_555 1_555
C12 C7 1_555 1_555
C13 C10 1_555 1_555
C14 C13 1_555 1_555
C15 C14 1_555 1_555
C16 C15 1_555 1_555
H8 C16 1_555 1_555
C17 C16 1_555 1_555
H9 C17 1_555 1_555
C18 C13 1_555 1_555
H10 C18 1_555 1_555
C19 C20 1_555 1_555
C20 H11 1_555 1_555
C21 C20 1_555 1_555
H12 C21 1_555 1_555
C22 C21 1_555 1_555
H13 C22 1_555 1_555
C23 C22 1_555 1_555
H14 C23 1_555 1_555
C24 C19 1_555 1_555
S1 C1 1_555 1_555
S2 C6 1_555 1_555
S3 C15 1_555 1_555
S4 C14 1_555 1_555
C5 C6 1_555 1_555
C7 S2 1_555 1_555
C11 C12 1_555 1_555
C12 S1 1_555 1_555
C17 C18 1_555 1_555
C19 S4 1_555 1_555
C23 C24 1_555 1_555
C24 S3 1_555 1_555

#END
