
#######################################################################
#
#                 Cambridge Crystallographic Data Centre
#                                CCDC 
#
#######################################################################
#
# If this CIF has been generated from an entry in the Cambridge 
# Structural Database, then it will include bibliographic, chemical, 
# crystal, experimental, refinement or atomic coordinate data resulting 
# from the CCDC's data processing and validation procedures.
#
#######################################################################

data_OTAQIK
_chemical_name_common            'Agomelatine acetic acid solvate'
_chemical_formula_moiety         'C15 H17 N1 O2,C2 H4 O2'
_chemical_name_systematic        
'N-(2-(7-Methoxy-1-naphthyl)ethyl)acetamide acetic acid solvate'
_symmetry_cell_setting           monoclinic
_symmetry_space_group_name_H-M   'P 21/c'
_symmetry_Int_Tables_number      14
_space_group_name_Hall           '-P 2ybc'
loop_
_symmetry_equiv_pos_site_id
_symmetry_equiv_pos_as_xyz
1 x,y,z
2 -x,1/2+y,1/2-z
3 -x,-y,-z
4 x,1/2-y,1/2+z
_cell_length_a                   12.5852(6)
_cell_length_b                   8.8884(4)
_cell_length_c                   17.8848(6)
_cell_angle_alpha                90
_cell_angle_beta                 124.586(2)
_cell_angle_gamma                90
_cell_volume                     1647.07
_exptl_crystal_description       prism
_cell_formula_units_Z            4
loop_
_atom_site_label
_atom_site_type_symbol
_atom_site_fract_x
_atom_site_fract_y
_atom_site_fract_z
C1 C 0.75345(16) 0.22039(19) 0.49295(11)
C2 C 0.85104(18) 0.2489(2) 0.47857(11)
H1 H 0.8340 0.3108 0.4310
C3 C 0.96965(17) 0.1862(2) 0.53410(12)
H2 H 1.0334 0.2069 0.5245
C4 C 0.99829(15) 0.08978(18) 0.60637(10)
C5 C 1.12333(16) 0.0273(2) 0.66585(12)
H3 H 1.1883 0.0502 0.6577
C6 C 1.14891(16) -0.0658(2) 0.73461(12)
H4 H 1.2316 -0.1042 0.7744
C7 C 1.04964(16) -0.1037(2) 0.74515(11)
H5 H 1.0679 -0.1692 0.7916
C8 C 0.92655(15) -0.04736(18) 0.68940(11)
C9 C 0.89858(14) 0.05495(18) 0.61853(10)
C10 C 0.77529(15) 0.12495(18) 0.56044(10)
H6 H 0.7098 0.1056 0.5685
C11 C 0.54285(17) 0.2852(2) 0.45222(13)
H7 H 0.4689 0.3432 0.4080
H8 H 0.5756 0.3227 0.5119
H9 H 0.5184 0.1817 0.4482
C12 C 0.82332(16) -0.09591(19) 0.70344(11)
H10 H 0.8410 -0.1978 0.7270
H11 H 0.7400 -0.0958 0.6454
C13 C 0.81803(15) 0.0078(2) 0.76905(11)
H12 H 0.8968 -0.0037 0.8292
H13 H 0.8136 0.1113 0.7503
C14 C 0.59119(16) 0.0350(2) 0.71440(11)
C15 C 0.48597(16) -0.0037(2) 0.72631(12)
H14 H 0.4118 -0.0387 0.6696
H15 H 0.4632 0.0840 0.7456
H16 H 0.5154 -0.0813 0.7713
O1 O 0.64049(11) 0.29714(15) 0.43520(8)
O2 O 0.57285(11) 0.12013(16) 0.65220(8)
N1 N 0.70748(13) -0.02299(17) 0.77332(9)
H17 H 0.7163(17) -0.087(2) 0.8152(12)
C16 C 0.17194(18) 0.3779(2) 0.44624(12)
H18 H 0.1383 0.4548 0.4650
H19 H 0.1045 0.3080 0.4071
H20 H 0.2042 0.4229 0.4141
C17 C 0.27917(15) 0.29666(19) 0.52808(11)
O3 O 0.37009(12) 0.24957(16) 0.51926(8)
H21 H 0.433(2) 0.213(3) 0.5690(17)
O4 O 0.28158(12) 0.27489(15) 0.59644(8)
loop_
_geom_bond_atom_site_label_1
_geom_bond_atom_site_label_2
_geom_bond_site_symmetry_1
_geom_bond_site_symmetry_2
C1 C2 1_555 1_555
C2 H1 1_555 1_555
C3 C2 1_555 1_555
H2 C3 1_555 1_555
C4 C3 1_555 1_555
C5 C4 1_555 1_555
H3 C5 1_555 1_555
C6 C5 1_555 1_555
H4 C6 1_555 1_555
C7 C6 1_555 1_555
H5 C7 1_555 1_555
C8 C7 1_555 1_555
C9 C4 1_555 1_555
C10 C1 1_555 1_555
H6 C10 1_555 1_555
C11 H7 1_555 1_555
H8 C11 1_555 1_555
H9 C11 1_555 1_555
C12 C8 1_555 1_555
H10 C12 1_555 1_555
H11 C12 1_555 1_555
C13 C12 1_555 1_555
H12 C13 1_555 1_555
H13 C13 1_555 1_555
C14 C15 1_555 1_555
C15 H14 1_555 1_555
H15 C15 1_555 1_555
H16 C15 1_555 1_555
O1 C1 1_555 1_555
O2 C14 1_555 1_555
N1 C13 1_555 1_555
H17 N1 1_555 1_555
C16 H18 1_555 1_555
H19 C16 1_555 1_555
H20 C16 1_555 1_555
C17 C16 1_555 1_555
O3 C17 1_555 1_555
H21 O3 1_555 1_555
O4 C17 1_555 1_555
C8 C9 1_555 1_555
C9 C10 1_555 1_555
C11 O1 1_555 1_555
C14 N1 1_555 1_555

#END
