
#######################################################################
#
#                 Cambridge Crystallographic Data Centre
#                                CCDC 
#
#######################################################################
#
# If this CIF has been generated from an entry in the Cambridge 
# Structural Database, then it will include bibliographic, chemical, 
# crystal, experimental, refinement or atomic coordinate data resulting 
# from the CCDC's data processing and validation procedures.
#
#######################################################################

data_OTEHEB
_chemical_formula_moiety         'C15 H13 Br1 O3'
_chemical_name_systematic        
3-(3-Bromophenyl)-3-hydroxy-1-(2-hydroxyphenyl)propan-1-one
_symmetry_cell_setting           monoclinic
_symmetry_space_group_name_H-M   'P 21/n'
_symmetry_Int_Tables_number      14
_space_group_name_Hall           '-P 2yn'
loop_
_symmetry_equiv_pos_site_id
_symmetry_equiv_pos_as_xyz
1 x,y,z
2 1/2-x,1/2+y,1/2-z
3 -x,-y,-z
4 1/2+x,1/2-y,1/2+z
_cell_length_a                   5.3393(11)
_cell_length_b                   8.5373(17)
_cell_length_c                   29.798(6)
_cell_angle_alpha                90
_cell_angle_beta                 92.52(3)
_cell_angle_gamma                90
_cell_volume                     1356.97
_exptl_crystal_colour            yellow
_exptl_crystal_description       prism
_cell_formula_units_Z            4
loop_
_atom_site_label
_atom_site_type_symbol
_atom_site_fract_x
_atom_site_fract_y
_atom_site_fract_z
Br1 Br 0.2489(3) 0.57767(16) 0.22599(4)
O1 O 0.8213(15) 1.1888(10) 0.5052(2)
O2 O 0.6205(14) 0.9670(8) 0.4572(2)
O3 O 0.3360(13) 0.7716(9) 0.3969(3)
H1 H 0.3213 0.8285 0.4188
C1 C 0.5926(19) 0.7442(11) 0.3905(4)
H2 H 0.6624 0.6885 0.4169
C2 C 0.7437(19) 0.8945(11) 0.3851(3)
H3 H 0.9122 0.8668 0.3771
H4 H 0.6682 0.9548 0.3605
C3 C 0.7596(18) 0.9951(12) 0.4261(3)
C4 C 0.9436(19) 1.1226(12) 0.4302(3)
C5 C 0.972(2) 1.2128(13) 0.4701(3)
C6 C 1.148(2) 1.3279(13) 0.4742(4)
H5 H 1.1645 1.3863 0.5005
C7 C 1.301(2) 1.3575(13) 0.4397(5)
H6 H 1.4218 1.4359 0.4430
C8 C 1.281(2) 1.2734(15) 0.4000(4)
H7 H 1.3848 1.2947 0.3765
C9 C 1.105(2) 1.1584(12) 0.3964(3)
H8 H 1.0915 1.1009 0.3699
C10 C 0.617(2) 0.6389(12) 0.3500(4)
C11 C 0.449(2) 0.6508(12) 0.3140(4)
H9 H 0.3185 0.7227 0.3146
C12 C 0.474(2) 0.5562(12) 0.2768(4)
C13 C 0.661(3) 0.4486(14) 0.2760(5)
H10 H 0.6752 0.3842 0.2510
C14 C 0.826(3) 0.4352(15) 0.3117(6)
H11 H 0.9555 0.3626 0.3111
C15 C 0.802(2) 0.5303(12) 0.3494(4)
H12 H 0.9136 0.5190 0.3741
H13 H 0.72(3) 1.108(16) 0.500(5)
loop_
_geom_bond_atom_site_label_1
_geom_bond_atom_site_label_2
_geom_bond_site_symmetry_1
_geom_bond_site_symmetry_2
Br1 C12 1_555 1_555
O1 C5 1_555 1_555
O2 C3 1_555 1_555
O3 H1 1_555 1_555
C1 O3 1_555 1_555
H2 C1 1_555 1_555
C2 C1 1_555 1_555
H3 C2 1_555 1_555
H4 C2 1_555 1_555
C3 C2 1_555 1_555
C4 C3 1_555 1_555
C5 C4 1_555 1_555
C6 C5 1_555 1_555
H5 C6 1_555 1_555
C7 C6 1_555 1_555
H6 C7 1_555 1_555
C8 C7 1_555 1_555
H7 C8 1_555 1_555
C9 C4 1_555 1_555
H8 C9 1_555 1_555
C10 C1 1_555 1_555
C11 C10 1_555 1_555
H9 C11 1_555 1_555
C12 C11 1_555 1_555
C13 C12 1_555 1_555
H10 C13 1_555 1_555
C14 C13 1_555 1_555
H11 C14 1_555 1_555
C15 C10 1_555 1_555
H12 C15 1_555 1_555
H13 O1 1_555 1_555
C8 C9 1_555 1_555
C14 C15 1_555 1_555

#END
