
#######################################################################
#
#                 Cambridge Crystallographic Data Centre
#                                CCDC 
#
#######################################################################
#
# If this CIF has been generated from an entry in the Cambridge 
# Structural Database, then it will include bibliographic, chemical, 
# crystal, experimental, refinement or atomic coordinate data resulting 
# from the CCDC's data processing and validation procedures.
#
#######################################################################

data_OTEQIP
_chemical_formula_moiety         'C23 H17 N3 O2'
_chemical_name_systematic        
"5-acetyl-1'-methyl-2'-oxo-4-phenyl-1',2'-dihydrospiro[cyclopent-2-ene-1,3'-indole]-2,5-dicarbonitrile unknown solvate"
_symmetry_cell_setting           orthorhombic
_symmetry_space_group_name_H-M   'P 21 21 21'
_symmetry_Int_Tables_number      19
_space_group_name_Hall           'P 2ac 2ab'
loop_
_symmetry_equiv_pos_site_id
_symmetry_equiv_pos_as_xyz
1 x,y,z
2 1/2-x,-y,1/2+z
3 -x,1/2+y,1/2-z
4 1/2+x,1/2-y,-z
_cell_length_a                   10.06732(18)
_cell_length_b                   10.59058(14)
_cell_length_c                   22.9703(4)
_cell_angle_alpha                90
_cell_angle_beta                 90
_cell_angle_gamma                90
_cell_volume                     2449.06
_exptl_crystal_colour            colorless
_exptl_crystal_description       needle
_cell_formula_units_Z            4
loop_
_atom_site_label
_atom_site_type_symbol
_atom_site_fract_x
_atom_site_fract_y
_atom_site_fract_z
O1 O 0.4938(2) 0.50931(16) 0.67881(7)
O2 O 0.86097(19) 0.34321(18) 0.52913(9)
N1 N 0.5699(2) 0.30884(17) 0.69513(8)
C1 C 0.67308(19) 0.45529(16) 0.56570(8)
C2 C 0.44361(19) 0.39813(19) 0.55818(9)
C3 C 0.59573(19) 0.23514(17) 0.60250(8)
C4 C 0.56217(18) 0.37350(17) 0.59732(8)
C5 C 0.4777(2) 0.4449(2) 0.50686(9)
H1 H 0.4169 0.4633 0.4776
C6 C 0.6016(2) 0.20249(18) 0.66076(9)
C7 C 0.8115(2) 0.3918(2) 0.57083(10)
C8 C 0.6229(2) 0.46496(18) 0.50082(9)
H2 H 0.6591 0.3926 0.4795
C9 C 0.6822(2) 0.5829(2) 0.59094(9)
C10 C 0.6563(3) -0.0073(2) 0.63634(13)
H3 H 0.6783 -0.0893 0.6472
C11 C 0.5376(2) 0.40990(19) 0.66165(9)
C12 C 0.6170(2) 0.14369(18) 0.56045(9)
H4 H 0.6105 0.1634 0.5211
N2 N 0.6986(4) 0.6804(2) 0.60900(13)
C13 C 0.6483(3) 0.0224(2) 0.57819(12)
H5 H 0.6640 -0.0398 0.5504
C14 C 0.6324(3) 0.0824(2) 0.67933(11)
H6 H 0.6369 0.0623 0.7187
C15 C 0.6660(3) 0.5838(2) 0.46905(9)
C16 C 0.7902(3) 0.5884(3) 0.44250(11)
H7 H 0.8459 0.5185 0.4445
N3 N 0.2100(2) 0.3300(4) 0.59048(13)
C17 C 0.8321(4) 0.6956(3) 0.41316(13)
H8 H 0.9154 0.6970 0.3957
C18 C 0.3132(2) 0.3612(3) 0.57539(10)
C19 C 0.7523(5) 0.7980(3) 0.40982(15)
H9 H 0.7800 0.8691 0.3894
C20 C 0.6292(5) 0.7970(3) 0.43685(16)
H10 H 0.5754 0.8684 0.4355
C21 C 0.8779(3) 0.3950(3) 0.62858(13)
H11 H 0.9571 0.3446 0.6273
H12 H 0.8187 0.3619 0.6576
H13 H 0.9006 0.4805 0.6382
C22 C 0.5858(4) 0.6890(3) 0.46621(13)
H14 H 0.5027 0.6881 0.4838
C23 C 0.5619(4) 0.3061(3) 0.75877(11)
H15 H 0.4942 0.2475 0.7705
H16 H 0.5403 0.3888 0.7730
H17 H 0.6458 0.2800 0.7745
loop_
_geom_bond_atom_site_label_1
_geom_bond_atom_site_label_2
_geom_bond_site_symmetry_1
_geom_bond_site_symmetry_2
O1 C11 1_555 1_555
O2 C7 1_555 1_555
N1 C6 1_555 1_555
C1 C4 1_555 1_555
C2 C4 1_555 1_555
C3 C4 1_555 1_555
C4 C11 1_555 1_555
C5 C2 1_555 1_555
H1 C5 1_555 1_555
C6 C3 1_555 1_555
C7 C1 1_555 1_555
C8 C1 1_555 1_555
H2 C8 1_555 1_555
C9 C1 1_555 1_555
C10 H3 1_555 1_555
C11 N1 1_555 1_555
C12 C3 1_555 1_555
H4 C12 1_555 1_555
N2 C9 1_555 1_555
C13 C10 1_555 1_555
H5 C13 1_555 1_555
C14 C6 1_555 1_555
H6 C14 1_555 1_555
C15 C8 1_555 1_555
C16 C15 1_555 1_555
H7 C16 1_555 1_555
N3 C18 1_555 1_555
C17 C16 1_555 1_555
H8 C17 1_555 1_555
C18 C2 1_555 1_555
C19 C17 1_555 1_555
H9 C19 1_555 1_555
C20 C19 1_555 1_555
H10 C20 1_555 1_555
C21 C7 1_555 1_555
H11 C21 1_555 1_555
H12 C21 1_555 1_555
H13 C21 1_555 1_555
C22 C15 1_555 1_555
H14 C22 1_555 1_555
C23 N1 1_555 1_555
H15 C23 1_555 1_555
H16 C23 1_555 1_555
H17 C23 1_555 1_555
C5 C8 1_555 1_555
C10 C14 1_555 1_555
C12 C13 1_555 1_555
C20 C22 1_555 1_555

#END
