
#######################################################################
#
#                 Cambridge Crystallographic Data Centre
#                                CCDC 
#
#######################################################################
#
# If this CIF has been generated from an entry in the Cambridge 
# Structural Database, then it will include bibliographic, chemical, 
# crystal, experimental, refinement or atomic coordinate data resulting 
# from the CCDC's data processing and validation procedures.
#
#######################################################################

data_OTIHAC
_chemical_compound_source        'leaves of Rhodomyrtus tomentosa'
_chemical_name_common            'tomentodione B'
_chemical_formula_moiety         'C30 H46 O3'
_chemical_name_systematic        
10-isobutyl-2,2,4a,6,6,8,8-heptamethyl-13-methylene-2,2a,3,4,4a,6,10,10a,11,12,13,13a-dodecahydrocyclobuta[6,7]cyclonona[1,2-b]chromene-7,9(1H,8H)-dione
_chemical_properties_biological  'cytotoxic activity'
_symmetry_cell_setting           orthorhombic
_symmetry_space_group_name_H-M   'P 21 21 21'
_symmetry_Int_Tables_number      19
_space_group_name_Hall           'P 2ac 2ab'
loop_
_symmetry_equiv_pos_site_id
_symmetry_equiv_pos_as_xyz
1 x,y,z
2 1/2-x,-y,1/2+z
3 1/2+x,1/2-y,-z
4 -x,1/2+y,1/2-z
_cell_length_a                   6.34120(10)
_cell_length_b                   17.90970(10)
_cell_length_c                   23.66480(10)
_cell_angle_alpha                90
_cell_angle_beta                 90
_cell_angle_gamma                90
_cell_volume                     2687.59
_exptl_crystal_colour            colorless
_exptl_crystal_description       block
_chemical_melting_point          '114-119 deg.C'
_cell_formula_units_Z            4
_exptl_crystal_recrystallization_method methanol/water
loop_
_atom_site_label
_atom_site_type_symbol
_atom_site_fract_x
_atom_site_fract_y
_atom_site_fract_z
O1 O 0.5411(2) 0.10789(6) 0.54631(5)
O2 O 1.0401(2) -0.07989(8) 0.50975(6)
C1 C 0.7586(3) 0.00119(9) 0.53079(6)
C2 C 0.6453(3) 0.03185(8) 0.62859(6)
H1 H 0.7724 0.0622 0.6337
C3 C 0.7840(3) 0.20250(9) 0.69835(7)
H2 H 0.9360 0.2049 0.6912
C4 C 0.7231(4) 0.10819(10) 0.46049(7)
C5 C 0.7103(3) -0.03242(8) 0.58792(6)
H3 H 0.8425 -0.0533 0.6024
C6 C 0.6722(3) 0.06643(9) 0.51455(7)
C7 C 0.8838(3) -0.02123(11) 0.42913(8)
C8 C 0.6744(3) 0.20250(9) 0.64088(7)
H4 H 0.7725 0.1822 0.6134
H5 H 0.6484 0.2541 0.6304
C9 C 0.2581(3) 0.05181(11) 0.59871(9)
H6 H 0.1648 0.0883 0.5826
H7 H 0.2083 0.0379 0.6355
H8 H 0.2620 0.0085 0.5748
C10 C 0.5823(3) 0.00541(9) 0.68823(7)
H9 H 0.4783 0.0398 0.7033
H10 H 0.5157 -0.0432 0.6851
C11 C 0.9079(3) -0.03584(9) 0.49279(7)
O3 O 0.9268(5) 0.09118(12) 0.37800(9)
C12 C 0.5534(3) -0.09803(9) 0.58223(8)
H11 H 0.4904 -0.1069 0.6190
H12 H 0.4411 -0.0827 0.5569
C13 C 0.7492(3) 0.14275(9) 0.74567(7)
H13 H 0.5991 0.1300 0.7470
C14 C 0.4662(3) 0.15987(9) 0.63493(7)
H14 H 0.3665 0.1916 0.6152
H15 H 0.4102 0.1509 0.6725
C15 C 0.7642(4) -0.00041(10) 0.73021(8)
H16 H 0.7103 -0.0224 0.7648
H17 H 0.8677 -0.0347 0.7148
C16 C 0.6424(3) -0.17190(9) 0.56065(8)
H18 H 0.7100 -0.1627 0.5241
C17 C 0.7919(4) 0.20607(12) 0.78870(8)
H19 H 0.6971 0.2057 0.8209
H20 H 0.9377 0.2091 0.8009
C18 C 0.4791(3) 0.08467(9) 0.60361(7)
C19 C 0.8759(3) 0.07142(10) 0.74531(7)
C20 C 0.7324(4) 0.26390(10) 0.74298(8)
C21 C 0.5226(5) 0.13411(18) 0.43043(10)
H21 H 0.5598 0.1604 0.3965
H22 H 0.4445 0.1667 0.4549
H23 H 0.4376 0.0915 0.4210
C22 C 0.4599(5) -0.22598(12) 0.55141(12)
H24 H 0.5135 -0.2726 0.5375
H25 H 0.3634 -0.2052 0.5244
H26 H 0.3879 -0.2342 0.5866
C23 C 0.8522(4) 0.06145(13) 0.41916(8)
C24 C 1.0774(4) 0.07031(15) 0.76002(10)
H27 H 1.1443 0.1142 0.7709
H28 H 1.1521 0.0256 0.7594
C25 C 0.4988(4) 0.28449(13) 0.74472(10)
H29 H 0.4155 0.2398 0.7467
H30 H 0.4625 0.3118 0.7112
H31 H 0.4715 0.3149 0.7773
C26 C 0.6826(4) -0.06288(16) 0.41043(10)
H32 H 0.5642 -0.0449 0.4318
H33 H 0.6999 -0.1154 0.4170
H34 H 0.6584 -0.0542 0.3709
C27 C 0.8057(5) -0.20513(13) 0.60022(12)
H35 H 0.9186 -0.1701 0.6055
H36 H 0.8604 -0.2504 0.5842
H37 H 0.7413 -0.2159 0.6360
C28 C 0.8641(5) 0.33439(13) 0.74014(12)
H38 H 1.0109 0.3214 0.7390
H39 H 0.8368 0.3645 0.7729
H40 H 0.8279 0.3619 0.7067
C29 C 0.8560(6) 0.17695(13) 0.47652(11)
H41 H 0.8906 0.2045 0.4430
H42 H 0.9834 0.1610 0.4948
H43 H 0.7768 0.2082 0.5017
C30 C 1.0708(5) -0.05066(17) 0.39557(12)
H44 H 1.0874 -0.1031 0.4026
H45 H 1.1964 -0.0247 0.4069
H46 H 1.0467 -0.0427 0.3560
loop_
_geom_bond_atom_site_label_1
_geom_bond_atom_site_label_2
_geom_bond_site_symmetry_1
_geom_bond_site_symmetry_2
O1 C6 1_555 1_555
O2 C11 1_555 1_555
C1 C5 1_555 1_555
C2 H1 1_555 1_555
C3 H2 1_555 1_555
C4 C6 1_555 1_555
C5 C2 1_555 1_555
H3 C5 1_555 1_555
C6 C1 1_555 1_555
C7 C11 1_555 1_555
C8 C3 1_555 1_555
H4 C8 1_555 1_555
H5 C8 1_555 1_555
C9 H6 1_555 1_555
H7 C9 1_555 1_555
H8 C9 1_555 1_555
C10 C2 1_555 1_555
H9 C10 1_555 1_555
H10 C10 1_555 1_555
C11 C1 1_555 1_555
O3 C23 1_555 1_555
C12 C5 1_555 1_555
H11 C12 1_555 1_555
H12 C12 1_555 1_555
C13 C3 1_555 1_555
H13 C13 1_555 1_555
C14 C8 1_555 1_555
H14 C14 1_555 1_555
H15 C14 1_555 1_555
C15 C10 1_555 1_555
H16 C15 1_555 1_555
H17 C15 1_555 1_555
C16 C12 1_555 1_555
H18 C16 1_555 1_555
C17 C13 1_555 1_555
H19 C17 1_555 1_555
H20 C17 1_555 1_555
C18 O1 1_555 1_555
C19 C13 1_555 1_555
C20 C3 1_555 1_555
C21 C4 1_555 1_555
H21 C21 1_555 1_555
H22 C21 1_555 1_555
H23 C21 1_555 1_555
C22 C16 1_555 1_555
H24 C22 1_555 1_555
H25 C22 1_555 1_555
H26 C22 1_555 1_555
C23 C4 1_555 1_555
C24 C19 1_555 1_555
H27 C24 1_555 1_555
H28 C24 1_555 1_555
C25 C20 1_555 1_555
H29 C25 1_555 1_555
H30 C25 1_555 1_555
H31 C25 1_555 1_555
C26 C7 1_555 1_555
H32 C26 1_555 1_555
H33 C26 1_555 1_555
H34 C26 1_555 1_555
C27 C16 1_555 1_555
H35 C27 1_555 1_555
H36 C27 1_555 1_555
H37 C27 1_555 1_555
C28 C20 1_555 1_555
H38 C28 1_555 1_555
H39 C28 1_555 1_555
H40 C28 1_555 1_555
C29 C4 1_555 1_555
H41 C29 1_555 1_555
H42 C29 1_555 1_555
H43 C29 1_555 1_555
C30 C7 1_555 1_555
H44 C30 1_555 1_555
H45 C30 1_555 1_555
H46 C30 1_555 1_555
C2 C18 1_555 1_555
C7 C23 1_555 1_555
C9 C18 1_555 1_555
C14 C18 1_555 1_555
C15 C19 1_555 1_555
C17 C20 1_555 1_555

#END
