
#######################################################################
#
#                 Cambridge Crystallographic Data Centre
#                                CCDC 
#
#######################################################################
#
# If this CIF has been generated from an entry in the Cambridge 
# Structural Database, then it will include bibliographic, chemical, 
# crystal, experimental, refinement or atomic coordinate data resulting 
# from the CCDC's data processing and validation procedures.
#
#######################################################################

data_OTOGAG
_chemical_formula_moiety         'C42 H44 O2,C6 N4'
_chemical_name_systematic        
'Ethene-1,1,2,2-tetracarbonitrile heptacyclo[34.2.2.2^17,20^.0^5,30^.0^7,32^.0^11,24^.0^13,26^]dotetraconta-1(38),5(30),6,11(24),12,17,19,25,31,36,39,41-dodecaene-9,28-dione'
_symmetry_cell_setting           triclinic
_symmetry_space_group_name_H-M   'P -1'
_symmetry_Int_Tables_number      2
_space_group_name_Hall           '-P 1'
loop_
_symmetry_equiv_pos_site_id
_symmetry_equiv_pos_as_xyz
1 x,y,z
2 -x,-y,-z
_cell_length_a                   8.778(3)
_cell_length_b                   9.462(5)
_cell_length_c                   11.280(4)
_cell_angle_alpha                82.120(19)
_cell_angle_beta                 82.326(16)
_cell_angle_gamma                79.085(20)
_cell_volume                     905.661
_exptl_crystal_colour            black
_exptl_crystal_description       platelet
_cell_formula_units_Z            1
loop_
_atom_site_label
_atom_site_type_symbol
_atom_site_fract_x
_atom_site_fract_y
_atom_site_fract_z
C1 C 0.3310(2) -0.1162(2) 0.30460(17)
H1 H 0.275(3) -0.202(2) 0.301(2)
H2 H 0.248(3) -0.020(3) 0.305(2)
C2 C 0.3945(2) -0.1388(2) 0.42787(16)
H3 H 0.447(3) -0.060(3) 0.431(2)
H4 H 0.304(3) -0.128(2) 0.487(2)
C3 C 0.5007(2) -0.2842(2) 0.45950(16)
H5 H 0.519(3) -0.289(2) 0.544(2)
H6 H 0.453(3) -0.362(2) 0.4472(19)
C4 C 0.6594(2) -0.30253(18) 0.38605(15)
C5 C 0.7590(2) -0.20203(19) 0.38212(16)
H7 H 0.731(3) -0.118(3) 0.434(2)
C6 C 0.8905(2) -0.20316(19) 0.29768(16)
H8 H 0.956(3) -0.128(2) 0.289(2)
C7 C 0.9277(2) -0.30523(18) 0.21469(15)
C8 C 0.8387(2) -0.41574(19) 0.22880(16)
H9 H 0.863(2) -0.493(2) 0.1780(18)
C9 C 0.7062(2) -0.41412(18) 0.31247(15)
H10 H 0.640(2) -0.488(2) 0.3143(18)
C10 C 1.0517(2) -0.2917(2) 0.10871(17)
H11 H 1.094(3) -0.204(3) 0.107(2)
H12 H 1.138(3) -0.374(3) 0.116(2)
C11 C 0.9932(2) -0.28332(19) -0.01513(17)
H13 H 1.083(3) -0.290(2) -0.0756(19)
H14 H 0.949(2) -0.372(2) -0.0187(17)
C12 C 0.8766(2) -0.14716(18) -0.05554(16)
H15 H 0.857(2) -0.152(2) -0.1371(19)
H16 H 0.930(2) -0.066(2) -0.0533(17)
C13 C 0.7198(2) -0.12723(18) 0.02190(16)
C14 C 0.6129(2) -0.22230(18) 0.02844(16)
C15 C 0.4889(2) -0.21490(19) 0.12038(16)
H17 H 0.427(3) -0.289(3) 0.134(2)
C16 C 0.4559(2) -0.10708(18) 0.19777(15)
C17 C 0.5455(2) 0.00435(18) 0.17382(16)
C18 C 0.6797(2) -0.01268(18) 0.09159(16)
H18 H 0.747(3) 0.063(2) 0.078(2)
C19 C 0.5032(2) 0.1433(2) 0.23397(17)
H19 H 0.573(3) 0.149(2) 0.292(2)
H20 H 0.395(3) 0.154(2) 0.2780(19)
C20 C 0.5096(2) 0.27811(18) 0.14328(16)
C21 C 0.3781(2) 0.32753(19) 0.06339(16)
H21 H 0.281(3) 0.329(2) 0.114(2)
H22 H 0.380(2) 0.436(2) 0.0220(18)
O1 O 0.61896(15) 0.34180(14) 0.13401(13)
C1A C 0.6690(2) 0.1162(2) -0.30460(17)
H1A H 0.725(3) 0.202(2) -0.301(2)
H2A H 0.752(3) 0.020(3) -0.305(2)
C2A C 0.6055(2) 0.1388(2) -0.42787(16)
H3A H 0.553(3) 0.060(3) -0.431(2)
H4A H 0.696(3) 0.128(2) -0.487(2)
C3A C 0.4993(2) 0.2842(2) -0.45950(16)
H5A H 0.481(3) 0.289(2) -0.544(2)
H6A H 0.547(3) 0.362(2) -0.4472(19)
C4A C 0.3406(2) 0.30253(18) -0.38605(15)
C5A C 0.2410(2) 0.20203(19) -0.38212(16)
H7A H 0.269(3) 0.118(3) -0.434(2)
C6A C 0.1095(2) 0.20316(19) -0.29768(16)
H8A H 0.044(3) 0.128(2) -0.289(2)
C7A C 0.0723(2) 0.30523(18) -0.21469(15)
C8A C 0.1613(2) 0.41574(19) -0.22880(16)
H9A H 0.137(2) 0.493(2) -0.1780(18)
C9A C 0.2938(2) 0.41412(18) -0.31247(15)
H10A H 0.360(2) 0.488(2) -0.3143(18)
C10A C -0.0517(2) 0.2917(2) -0.10871(17)
H11A H -0.094(3) 0.204(3) -0.107(2)
H12A H -0.138(3) 0.374(3) -0.116(2)
C11A C 0.0068(2) 0.28332(19) 0.01513(17)
H13A H -0.083(3) 0.290(2) 0.0756(19)
H14A H 0.051(2) 0.372(2) 0.0187(17)
C12A C 0.1234(2) 0.14716(18) 0.05554(16)
H15A H 0.143(2) 0.152(2) 0.1371(19)
H16A H 0.070(2) 0.066(2) 0.0533(17)
C13A C 0.2802(2) 0.12723(18) -0.02190(16)
C14A C 0.3871(2) 0.22230(18) -0.02844(16)
C15A C 0.5111(2) 0.21490(19) -0.12038(16)
H17A H 0.573(3) 0.289(3) -0.134(2)
C16A C 0.5441(2) 0.10708(18) -0.19777(15)
C17A C 0.4545(2) -0.00435(18) -0.17382(16)
C18A C 0.3203(2) 0.01268(18) -0.09159(16)
H18A H 0.253(3) -0.063(2) -0.078(2)
C19A C 0.4968(2) -0.1433(2) -0.23397(17)
H19A H 0.427(3) -0.149(2) -0.292(2)
H20A H 0.605(3) -0.154(2) -0.2780(19)
C20A C 0.4904(2) -0.27811(18) -0.14328(16)
C21A C 0.6219(2) -0.32753(19) -0.06339(16)
H21A H 0.719(3) -0.329(2) -0.114(2)
H22A H 0.620(2) -0.436(2) -0.0220(18)
O1A O 0.38104(15) -0.34180(14) -0.13401(13)
C22 C 1.0550(2) -0.4572(2) 0.48577(17)
C23 C 1.0449(2) -0.3314(2) 0.54865(17)
C24 C 1.1815(2) -0.4897(2) 0.39226(17)
N1 N 1.0383(2) -0.23192(19) 0.59689(17)
N2 N 1.28280(19) -0.51536(19) 0.31882(15)
C22A C 0.9450(2) -0.5428(2) 0.51423(17)
C23A C 0.9551(2) -0.6686(2) 0.45135(17)
C24A C 0.8185(2) -0.5103(2) 0.60774(17)
N1A N 0.9617(2) -0.76808(19) 0.40311(17)
N2A N 0.71720(19) -0.48464(19) 0.68118(15)
loop_
_geom_bond_atom_site_label_1
_geom_bond_atom_site_label_2
_geom_bond_site_symmetry_1
_geom_bond_site_symmetry_2
C1 H1 1_555 1_555
H2 C1 1_555 1_555
C2 C1 1_555 1_555
H3 C2 1_555 1_555
H4 C2 1_555 1_555
C3 C2 1_555 1_555
H5 C3 1_555 1_555
H6 C3 1_555 1_555
C4 C3 1_555 1_555
C5 C4 1_555 1_555
H7 C5 1_555 1_555
C6 C5 1_555 1_555
H8 C6 1_555 1_555
C7 C6 1_555 1_555
C8 C7 1_555 1_555
H9 C8 1_555 1_555
C9 C4 1_555 1_555
H10 C9 1_555 1_555
C10 C7 1_555 1_555
H11 C10 1_555 1_555
H12 C10 1_555 1_555
C11 C10 1_555 1_555
H13 C11 1_555 1_555
H14 C11 1_555 1_555
C12 C11 1_555 1_555
H15 C12 1_555 1_555
H16 C12 1_555 1_555
C13 C12 1_555 1_555
C14 C13 1_555 1_555
C15 C14 1_555 1_555
H17 C15 1_555 1_555
C16 C1 1_555 1_555
C17 C16 1_555 1_555
C18 C13 1_555 1_555
H18 C18 1_555 1_555
C19 C17 1_555 1_555
H19 C19 1_555 1_555
H20 C19 1_555 1_555
C20 C19 1_555 1_555
C21 C20 1_555 1_555
H21 C21 1_555 1_555
H22 C21 1_555 1_555
C22 C23 1_555 1_555
C23 N1 1_555 1_555
C24 C22 1_555 1_555
N2 C24 1_555 1_555
O1 C20 1_555 1_555
C1A H1A 1_555 1_555
H2A C1A 1_555 1_555
C2A C1A 1_555 1_555
H3A C2A 1_555 1_555
H4A C2A 1_555 1_555
C3A C2A 1_555 1_555
H5A C3A 1_555 1_555
H6A C3A 1_555 1_555
C4A C3A 1_555 1_555
C5A C4A 1_555 1_555
H7A C5A 1_555 1_555
C6A C5A 1_555 1_555
H8A C6A 1_555 1_555
C7A C6A 1_555 1_555
C8A C7A 1_555 1_555
H9A C8A 1_555 1_555
C9A C4A 1_555 1_555
H10A C9A 1_555 1_555
C10A C7A 1_555 1_555
H11A C10A 1_555 1_555
H12A C10A 1_555 1_555
C11A C10A 1_555 1_555
H13A C11A 1_555 1_555
H14A C11A 1_555 1_555
C12A C11A 1_555 1_555
H15A C12A 1_555 1_555
H16A C12A 1_555 1_555
C13A C12A 1_555 1_555
C14A C21 1_555 1_555
C15A C14A 1_555 1_555
H17A C15A 1_555 1_555
C16A C1A 1_555 1_555
C17A C16A 1_555 1_555
C18A C13A 1_555 1_555
H18A C18A 1_555 1_555
C19A C17A 1_555 1_555
H19A C19A 1_555 1_555
H20A C19A 1_555 1_555
C20A C19A 1_555 1_555
C21A C14 1_555 1_555
H21A C21A 1_555 1_555
H22A C21A 1_555 1_555
C22A C22 1_555 1_555
C23A C22A 1_555 1_555
C24A C22A 1_555 1_555
N1A C23A 1_555 1_555
N2A C24A 1_555 1_555
O1A C20A 1_555 1_555
C8 C9 1_555 1_555
C15 C16 1_555 1_555
C17 C18 1_555 1_555
C8A C9A 1_555 1_555
C13A C14A 1_555 1_555
C15A C16A 1_555 1_555
C17A C18A 1_555 1_555
C20A C21A 1_555 1_555

#END
