
#######################################################################
#
#                 Cambridge Crystallographic Data Centre
#                                CCDC 
#
#######################################################################
#
# If this CIF has been generated from an entry in the Cambridge 
# Structural Database, then it will include bibliographic, chemical, 
# crystal, experimental, refinement or atomic coordinate data resulting 
# from the CCDC's data processing and validation procedures.
#
#######################################################################

data_OTOQEV
_chemical_formula_moiety         'C25 H41 N5'
_chemical_name_systematic        3-octadecyl-3H-imidazo[2,1-i]purine
_symmetry_cell_setting           monoclinic
_symmetry_space_group_name_H-M   'P 21/c'
_symmetry_Int_Tables_number      14
_space_group_name_Hall           '-P 2ybc'
loop_
_symmetry_equiv_pos_site_id
_symmetry_equiv_pos_as_xyz
1 x,y,z
2 -x,1/2+y,1/2-z
3 -x,-y,-z
4 x,1/2-y,1/2+z
_cell_length_a                   21.540(3)
_cell_length_b                   10.0582(11)
_cell_length_c                   11.1193(13)
_cell_angle_alpha                90
_cell_angle_beta                 95.358(4)
_cell_angle_gamma                90
_cell_volume                     2398.51
_exptl_crystal_colour            colorless
_exptl_crystal_description       block
_cell_formula_units_Z            4
loop_
_atom_site_label
_atom_site_type_symbol
_atom_site_fract_x
_atom_site_fract_y
_atom_site_fract_z
C1 C 1.28790(10) 0.1096(2) -0.8144(2)
H1 H 1.3043 0.0217 -0.7903
H2 H 1.3215 0.1642 -0.8421
H3 H 1.2545 0.0998 -0.8799
C2 C 1.26228(7) 0.17605(16) -0.70740(16)
H4 H 1.2493 0.2677 -0.7304
H5 H 1.2959 0.1822 -0.6405
C3 C 1.20702(7) 0.10288(15) -0.66280(13)
H6 H 1.1732 0.0984 -0.7293
H7 H 1.2198 0.0106 -0.6415
C4 C 1.18199(7) 0.16767(14) -0.55403(13)
H8 H 1.1702 0.2605 -0.5749
H9 H 1.2157 0.1706 -0.4872
C5 C 1.12578(7) 0.09716(14) -0.50972(12)
H10 H 1.0913 0.0974 -0.5752
H11 H 1.1370 0.0034 -0.4913
C6 C 1.10323(7) 0.16139(14) -0.39792(12)
H12 H 1.0923 0.2552 -0.4166
H13 H 1.1379 0.1612 -0.3328
C7 C 1.04702(7) 0.09299(13) -0.35172(12)
H14 H 1.0119 0.0954 -0.4158
H15 H 1.0574 -0.0014 -0.3347
C8 C 1.02642(6) 0.15694(14) -0.23800(12)
H16 H 1.0617 0.1547 -0.1743
H17 H 1.0162 0.2514 -0.2553
C9 C 0.97040(7) 0.09047(13) -0.19015(12)
H18 H 0.9804 -0.0041 -0.1729
H19 H 0.9349 0.0933 -0.2534
C10 C 0.95082(6) 0.15555(14) -0.07602(12)
H20 H 0.9866 0.1536 -0.0132
H21 H 0.9406 0.2499 -0.0936
C11 C 0.89524(7) 0.08973(13) -0.02610(12)
H22 H 0.9058 -0.0040 -0.0063
H23 H 0.8597 0.0897 -0.0894
C12 C 0.87531(6) 0.15820(14) 0.08625(12)
H24 H 0.9114 0.1612 0.1483
H25 H 0.8634 0.2510 0.0655
C13 C 0.82115(6) 0.09024(13) 0.13959(12)
H26 H 0.8339 -0.0010 0.1644
H27 H 0.7858 0.0829 0.0763
C14 C 0.79913(6) 0.16289(13) 0.24803(12)
H28 H 0.8346 0.1719 0.3108
H29 H 0.7854 0.2535 0.2229
C15 C 0.74599(6) 0.09227(13) 0.30192(12)
H30 H 0.7128 0.0727 0.2366
H31 H 0.7615 0.0064 0.3363
C16 C 0.71799(6) 0.17121(13) 0.39963(12)
H32 H 0.7053 0.2599 0.3674
H33 H 0.7501 0.1845 0.4683
C17 C 0.66151(6) 0.10196(12) 0.44487(12)
H34 H 0.6340 0.0708 0.3742
H35 H 0.6761 0.0226 0.4921
C18 C 0.62367(6) 0.18846(12) 0.52275(11)
H36 H 0.5895 0.1350 0.5517
H37 H 0.6507 0.2191 0.5943
N1 N 0.59718(5) 0.30459(10) 0.45606(8)
C19 C 0.57836(6) 0.31626(12) 0.33581(10)
H38 H 0.5785 0.2438 0.2810
N2 N 0.56004(5) 0.43694(10) 0.30252(9)
C20 C 0.56683(5) 0.50790(11) 0.40853(10)
C21 C 0.58918(5) 0.42814(11) 0.50430(10)
N3 N 0.60052(5) 0.46280(10) 0.62282(8)
C22 C 0.58914(6) 0.58644(12) 0.64462(10)
H39 H 0.5953 0.6167 0.7258
N4 N 0.56854(4) 0.67652(9) 0.55643(8)
C23 C 0.55660(5) 0.64320(11) 0.43401(10)
N5 N 0.53903(5) 0.74687(9) 0.36788(9)
C24 C 0.53915(6) 0.85058(12) 0.44942(11)
H40 H 0.5282 0.9394 0.4273
C25 C 0.55657(6) 0.81196(12) 0.56440(11)
H41 H 0.5599 0.8656 0.6350
loop_
_geom_bond_atom_site_label_1
_geom_bond_atom_site_label_2
_geom_bond_site_symmetry_1
_geom_bond_site_symmetry_2
C1 H1 1_555 1_555
H2 C1 1_555 1_555
H3 C1 1_555 1_555
C2 C1 1_555 1_555
H4 C2 1_555 1_555
H5 C2 1_555 1_555
C3 C2 1_555 1_555
H6 C3 1_555 1_555
H7 C3 1_555 1_555
C4 C3 1_555 1_555
H8 C4 1_555 1_555
H9 C4 1_555 1_555
C5 C4 1_555 1_555
H10 C5 1_555 1_555
H11 C5 1_555 1_555
C6 C5 1_555 1_555
H12 C6 1_555 1_555
H13 C6 1_555 1_555
C7 C6 1_555 1_555
H14 C7 1_555 1_555
H15 C7 1_555 1_555
C8 C7 1_555 1_555
H16 C8 1_555 1_555
H17 C8 1_555 1_555
C9 C8 1_555 1_555
H18 C9 1_555 1_555
H19 C9 1_555 1_555
C10 C9 1_555 1_555
H20 C10 1_555 1_555
H21 C10 1_555 1_555
C11 C10 1_555 1_555
H22 C11 1_555 1_555
H23 C11 1_555 1_555
C12 C11 1_555 1_555
H24 C12 1_555 1_555
H25 C12 1_555 1_555
C13 C12 1_555 1_555
H26 C13 1_555 1_555
H27 C13 1_555 1_555
C14 C13 1_555 1_555
H28 C14 1_555 1_555
H29 C14 1_555 1_555
C15 C14 1_555 1_555
H30 C15 1_555 1_555
H31 C15 1_555 1_555
C16 C15 1_555 1_555
H32 C16 1_555 1_555
H33 C16 1_555 1_555
C17 C16 1_555 1_555
H34 C17 1_555 1_555
H35 C17 1_555 1_555
C18 C17 1_555 1_555
H36 C18 1_555 1_555
H37 C18 1_555 1_555
N1 C18 1_555 1_555
C19 N1 1_555 1_555
H38 C19 1_555 1_555
N2 C19 1_555 1_555
C20 N2 1_555 1_555
C21 N1 1_555 1_555
N3 C21 1_555 1_555
C22 N3 1_555 1_555
H39 C22 1_555 1_555
N4 C22 1_555 1_555
C23 C20 1_555 1_555
N5 C23 1_555 1_555
C24 N5 1_555 1_555
H40 C24 1_555 1_555
C25 N4 1_555 1_555
H41 C25 1_555 1_555
C20 C21 1_555 1_555
N4 C23 1_555 1_555
C24 C25 1_555 1_555

#END
