
#######################################################################
#
#                 Cambridge Crystallographic Data Centre
#                                CCDC 
#
#######################################################################
#
# If this CIF has been generated from an entry in the Cambridge 
# Structural Database, then it will include bibliographic, chemical, 
# crystal, experimental, refinement or atomic coordinate data resulting 
# from the CCDC's data processing and validation procedures.
#
#######################################################################

data_OTUQEB
_chemical_formula_moiety         'C18 H21 N3 O7 S1'
_chemical_name_systematic        
'phenyl 2-deoxy-2-azido-3,4,6-tri-O-acetyl-thio-D-glucopyranoside'
_symmetry_cell_setting           monoclinic
_symmetry_space_group_name_H-M   'P 21'
_symmetry_Int_Tables_number      4
_space_group_name_Hall           'P 2yb'
loop_
_symmetry_equiv_pos_site_id
_symmetry_equiv_pos_as_xyz
1 x,y,z
2 -x,1/2+y,-z
_cell_length_a                   10.5129(6)
_cell_length_b                   8.0260(5)
_cell_length_c                   12.3315(7)
_cell_angle_alpha                90
_cell_angle_beta                 99.836(2)
_cell_angle_gamma                90
_cell_volume                     1025.19
_exptl_crystal_colour            colorless
_exptl_crystal_description       Prism
_chemical_melting_point          '370-372 K'
_cell_formula_units_Z            2
loop_
_atom_site_label
_atom_site_type_symbol
_atom_site_fract_x
_atom_site_fract_y
_atom_site_fract_z
S1 S 0.72072(5) 0.89170(7) 0.04728(5)
O1 O 0.75094(15) 0.5890(2) 0.15077(13)
O2 O 0.64739(17) 0.7567(2) 0.39719(13)
O3 O 0.81326(15) 0.3904(3) 0.33620(14)
O4 O 0.41144(17) 0.7189(3) 0.24831(14)
N1 N 0.43387(18) 0.7454(3) -0.07690(16)
O5 O 0.3484(2) 0.9865(3) 0.22043(17)
O6 O 0.9829(2) 0.3183(3) 0.4621(2)
N2 N 0.43747(18) 0.7823(3) 0.02141(16)
O7 O 0.6219(3) 0.5253(4) 0.49443(18)
N3 N 0.4230(2) 0.7276(3) -0.16891(18)
C1 C 0.7655(2) 0.6594(3) 0.25877(19)
H1 H 0.7982 0.7762 0.2565
C2 C 0.8809(3) 0.2832(4) 0.4060(2)
C3 C 0.6365(3) 0.6732(4) 0.4913(2)
C4 C 0.6341(2) 0.6623(3) 0.29627(18)
H2 H 0.6051 0.5462 0.3085
C5 C 0.3304(2) 0.8498(4) 0.2523(2)
C6 C 0.8650(2) 0.5557(3) 0.3325(2)
H3 H 0.9467 0.5527 0.3028
H4 H 0.8828 0.6042 0.4074
C7 C 0.6666(2) 0.6784(3) 0.06927(19)
H5 H 0.6615 0.6166 -0.0018
C8 C 1.0687(3) 0.7777(4) -0.1142(2)
H6 H 1.1415 0.7551 -0.1481
C9 C 0.9460(3) 0.7660(5) -0.1745(2)
H7 H 0.9343 0.7338 -0.2497
C10 C 0.5303(2) 0.6814(3) 0.09910(18)
H8 H 0.4974 0.5644 0.0980
C11 C 0.8562(2) 0.8440(3) -0.0154(2)
C12 C 0.5328(2) 0.7523(3) 0.21385(18)
H9 H 0.5505 0.8748 0.2148
C13 C 1.0860(3) 0.8219(5) -0.0055(3)
H10 H 1.1708 0.8296 0.0359
C14 C 0.9800(2) 0.8555(4) 0.0445(2)
H11 H 0.9924 0.8863 0.1199
C15 C 0.8158(3) 0.1165(4) 0.4006(3)
H12 H 0.7313 0.1278 0.4232
H13 H 0.8692 0.0386 0.4501
H14 H 0.8045 0.0740 0.3251
C16 C 0.8389(2) 0.8012(5) -0.1256(2)
H15 H 0.7545 0.7959 -0.1677
C17 C 0.2161(3) 0.7932(6) 0.3009(3)
H16 H 0.1735 0.7006 0.2573
H17 H 0.1552 0.8858 0.3002
H18 H 0.2451 0.7563 0.3768
C18 C 0.6502(4) 0.7918(5) 0.5862(2)
H19 H 0.7339 0.8483 0.5937
H20 H 0.6450 0.7301 0.6539
H21 H 0.5807 0.8745 0.5732
loop_
_geom_bond_atom_site_label_1
_geom_bond_atom_site_label_2
_geom_bond_site_symmetry_1
_geom_bond_site_symmetry_2
S1 C7 1_555 1_555
O1 C1 1_555 1_555
O2 C3 1_555 1_555
O3 C2 1_555 1_555
O4 C5 1_555 1_555
N1 N2 1_555 1_555
O5 C5 1_555 1_555
O6 C2 1_555 1_555
N2 C10 1_555 1_555
O7 C3 1_555 1_555
N3 N1 1_555 1_555
C1 H1 1_555 1_555
C2 C15 1_555 1_555
C3 C18 1_555 1_555
C4 O2 1_555 1_555
H2 C4 1_555 1_555
C5 C17 1_555 1_555
C6 O3 1_555 1_555
H3 C6 1_555 1_555
H4 C6 1_555 1_555
C7 O1 1_555 1_555
H5 C7 1_555 1_555
C8 H6 1_555 1_555
C9 C8 1_555 1_555
H7 C9 1_555 1_555
C10 C7 1_555 1_555
H8 C10 1_555 1_555
C11 S1 1_555 1_555
C12 O4 1_555 1_555
H9 C12 1_555 1_555
C13 C8 1_555 1_555
H10 C13 1_555 1_555
C14 C11 1_555 1_555
H11 C14 1_555 1_555
C15 H12 1_555 1_555
H13 C15 1_555 1_555
H14 C15 1_555 1_555
C16 C9 1_555 1_555
H15 C16 1_555 1_555
C17 H16 1_555 1_555
H17 C17 1_555 1_555
H18 C17 1_555 1_555
C18 H19 1_555 1_555
H20 C18 1_555 1_555
H21 C18 1_555 1_555
C1 C4 1_555 1_555
C1 C6 1_555 1_555
C4 C12 1_555 1_555
C10 C12 1_555 1_555
C11 C16 1_555 1_555
C13 C14 1_555 1_555

#END
