
#######################################################################
#
#                 Cambridge Crystallographic Data Centre
#                                CCDC 
#
#######################################################################
#
# If this CIF has been generated from an entry in the Cambridge 
# Structural Database, then it will include bibliographic, chemical, 
# crystal, experimental, refinement or atomic coordinate data resulting 
# from the CCDC's data processing and validation procedures.
#
#######################################################################

data_OVABAQ
_chemical_formula_moiety         'C20 H21 Cl1 O4'
_chemical_name_systematic        
'methyl 2-chloro-1,4-dimethyl-6-oxo-2,2a,3a,6,8,9,9b,9c-octahydrocyclohepta[2,3]acenaphtho[1,8-bc]oxete-9a(1H)-carboxylate'
_symmetry_cell_setting           triclinic
_symmetry_space_group_name_H-M   'P -1'
_symmetry_Int_Tables_number      2
_space_group_name_Hall           '-P 1'
loop_
_symmetry_equiv_pos_site_id
_symmetry_equiv_pos_as_xyz
1 x,y,z
2 -x,-y,-z
_cell_length_a                   8.7488(9)
_cell_length_b                   9.5210(8)
_cell_length_c                   10.3297(9)
_cell_angle_alpha                91.389(7)
_cell_angle_beta                 104.324(8)
_cell_angle_gamma                95.650(8)
_cell_volume                     828.583
_exptl_crystal_colour            colorless
_exptl_crystal_description       block
_cell_formula_units_Z            2
loop_
_atom_site_label
_atom_site_type_symbol
_atom_site_fract_x
_atom_site_fract_y
_atom_site_fract_z
Cl1 Cl 0.32893(7) 0.74518(6) 0.92892(5)
O1 O 0.1110(2) 0.3958(2) 1.72005(17)
O2 O 0.19047(18) 0.39646(15) 1.09688(14)
O3 O 0.58381(17) 0.79203(17) 1.19874(17)
O4 O 0.4569(2) 0.98420(16) 1.21138(17)
C1 C 0.2938(3) 0.6129(2) 1.5075(2)
C2 C 0.2235(3) 0.5607(3) 1.6017(2)
H1 H 0.2215 0.6265 1.6691
C3 C 0.1505(3) 0.4200(3) 1.6162(2)
C4 C 0.1221(3) 0.3066(3) 1.5127(2)
H2 H 0.0657 0.2250 1.5316
C5 C 0.1621(3) 0.2972(2) 1.3942(2)
C6 C 0.2596(2) 0.4019(2) 1.3443(2)
C7 C 0.3149(2) 0.5368(2) 1.3927(2)
C8 C 0.4089(2) 0.6163(2) 1.3080(2)
H3 H 0.5171 0.6411 1.3635
C9 C 0.3395(2) 0.7566(2) 1.2615(2)
C10 C 0.2900(3) 0.8288(2) 1.3797(2)
H4 H 0.3264 0.9289 1.3853
H5 H 0.1752 0.8193 1.3608
C11 C 0.3564(3) 0.7671(2) 1.5149(2)
H6 H 0.4714 0.7770 1.5360
H7 H 0.3240 0.8174 1.5848
C12 C 0.1891(2) 0.7236(2) 1.1420(2)
H8 H 0.1139 0.6623 1.1774
C13 C 0.2153(2) 0.6385(2) 1.0235(2)
H9 H 0.1109 0.6081 0.9636
C14 C 0.2979(2) 0.5076(2) 1.0610(2)
H10 H 0.3425 0.4743 0.9892
C15 C 0.4169(2) 0.5070(2) 1.1982(2)
H11 H 0.5246 0.4907 1.1943
C16 C 0.3128(2) 0.3745(2) 1.2191(2)
H12 H 0.3614 0.2863 1.2168
C17 C 0.1003(3) 0.1653(2) 1.3059(3)
H13 H 0.0255 0.1882 1.2264
H14 H 0.0489 0.0976 1.3532
H15 H 0.1870 0.1260 1.2820
C18 C 0.1031(3) 0.8523(2) 1.0941(2)
H16 H 0.1729 0.9192 1.0621
H17 H 0.0717 0.8954 1.1671
H18 H 0.0107 0.8230 1.0230
C19 C 0.4641(2) 0.8585(2) 1.2214(2)
C20 C 0.6985(3) 0.8763(3) 1.1452(3)
H19 H 0.6454 0.9143 1.0629
H20 H 0.7761 0.8182 1.1287
H21 H 0.7503 0.9524 1.2084
loop_
_geom_bond_atom_site_label_1
_geom_bond_atom_site_label_2
_geom_bond_site_symmetry_1
_geom_bond_site_symmetry_2
Cl1 C13 1_555 1_555
O1 C3 1_555 1_555
O2 C14 1_555 1_555
O3 C19 1_555 1_555
O4 C19 1_555 1_555
C1 C2 1_555 1_555
C2 H1 1_555 1_555
C3 C2 1_555 1_555
C4 C3 1_555 1_555
H2 C4 1_555 1_555
C5 C4 1_555 1_555
C6 C5 1_555 1_555
C7 C1 1_555 1_555
C8 C7 1_555 1_555
H3 C8 1_555 1_555
C9 C8 1_555 1_555
C10 C9 1_555 1_555
H4 C10 1_555 1_555
H5 C10 1_555 1_555
C11 C1 1_555 1_555
H6 C11 1_555 1_555
H7 C11 1_555 1_555
C12 C9 1_555 1_555
H8 C12 1_555 1_555
C13 C12 1_555 1_555
H9 C13 1_555 1_555
C14 C13 1_555 1_555
H10 C14 1_555 1_555
C15 C8 1_555 1_555
H11 C15 1_555 1_555
C16 O2 1_555 1_555
H12 C16 1_555 1_555
C17 C5 1_555 1_555
H13 C17 1_555 1_555
H14 C17 1_555 1_555
H15 C17 1_555 1_555
C18 C12 1_555 1_555
H16 C18 1_555 1_555
H17 C18 1_555 1_555
H18 C18 1_555 1_555
C19 C9 1_555 1_555
C20 O3 1_555 1_555
H19 C20 1_555 1_555
H20 C20 1_555 1_555
H21 C20 1_555 1_555
C6 C7 1_555 1_555
C6 C16 1_555 1_555
C10 C11 1_555 1_555
C14 C15 1_555 1_555
C15 C16 1_555 1_555

#END
