
#######################################################################
#
#                 Cambridge Crystallographic Data Centre
#                                CCDC 
#
#######################################################################
#
# If this CIF has been generated from an entry in the Cambridge 
# Structural Database, then it will include bibliographic, chemical, 
# crystal, experimental, refinement or atomic coordinate data resulting 
# from the CCDC's data processing and validation procedures.
#
#######################################################################

data_OVAWIT
_chemical_name_common            'Hapmnioide B'
_chemical_formula_moiety         'C20 H20 O6'
_chemical_name_systematic        
5-(3-furyl)-3a,10a-dimethyl-3a,4,5,7b,9,10,10a,10b-octahydrocyclopenta[h]furo[3,2-f]isochromene-2,7,8(3H)-trione
_symmetry_cell_setting           orthorhombic
_symmetry_space_group_name_H-M   'P 21 21 21'
_symmetry_Int_Tables_number      19
_space_group_name_Hall           'P 2ac 2ab'
loop_
_symmetry_equiv_pos_site_id
_symmetry_equiv_pos_as_xyz
1 x,y,z
2 1/2-x,-y,1/2+z
3 -x,1/2+y,1/2-z
4 1/2+x,1/2-y,-z
_cell_length_a                   10.2949(4)
_cell_length_b                   10.4128(5)
_cell_length_c                   16.2831(7)
_cell_angle_alpha                90
_cell_angle_beta                 90
_cell_angle_gamma                90
_cell_volume                     1745.53
_cell_formula_units_Z            4
loop_
_atom_site_label
_atom_site_type_symbol
_atom_site_fract_x
_atom_site_fract_y
_atom_site_fract_z
O1 O 0.07601(19) 0.0465(2) 1.05211(11)
O2 O 0.2790(2) 0.0725(2) 1.08732(12)
O3 O 0.32730(18) -0.16059(18) 0.78822(12)
O4 O 0.1876(2) -0.3152(2) 0.75539(16)
O5 O 0.3806(2) -0.2050(2) 1.00497(17)
O6 O -0.3429(2) 0.1311(3) 1.03572(19)
C1 C 0.2026(3) 0.0479(3) 1.03329(16)
C2 C 0.2430(2) 0.0246(3) 0.94711(16)
C3 C 0.3842(2) 0.0001(3) 0.93379(16)
H1 H 0.4313 0.0592 0.9699
C4 C 0.4305(3) -0.1351(3) 0.9552(2)
C5 C 0.5482(3) -0.1650(3) 0.9030(2)
H2 H 0.5368 -0.2461 0.8747
H3 H 0.6255 -0.1704 0.9369
C6 C 0.5603(3) -0.0549(3) 0.8413(2)
H4 H 0.5716 -0.0886 0.7863
H5 H 0.6347 -0.0017 0.8546
C7 C 0.4326(3) 0.0258(3) 0.84655(17)
C8 C 0.3329(3) -0.0201(3) 0.78435(16)
H6 H 0.3615 0.0053 0.7293
C9 C 0.1900(2) 0.0240(3) 0.79645(15)
C10 C 0.1570(3) 0.0394(2) 0.88632(15)
C11 C 0.0189(2) 0.0741(3) 0.90830(16)
H7 H 0.0110 0.1665 0.9141
H8 H -0.0394 0.0464 0.8650
C12 C -0.0171(3) 0.0093(3) 0.98795(16)
H9 H -0.0127 -0.0839 0.9802
C13 C 0.2078(3) -0.2030(3) 0.76732(17)
C14 C 0.1161(3) -0.0931(3) 0.76201(17)
H10 H 0.0387 -0.1099 0.7943
H11 H 0.0906 -0.0781 0.7055
C15 C -0.2313(3) 0.1283(3) 0.9905(2)
H12 H -0.2158 0.1794 0.9447
C16 C -0.1478(3) 0.0431(3) 1.02036(18)
C17 C -0.2096(3) -0.0129(4) 1.0902(2)
H13 H -0.1759 -0.0761 1.1244
C18 C -0.3252(4) 0.0433(5) 1.0963(3)
H14 H -0.3860 0.0249 1.1369
C19 C 0.4605(3) 0.1690(3) 0.8328(2)
H15 H 0.4874 0.1824 0.7770
H16 H 0.5284 0.1963 0.8693
H17 H 0.3833 0.2179 0.8435
C20 C 0.1568(3) 0.1462(3) 0.74804(18)
H18 H 0.0645 0.1589 0.7482
H19 H 0.1868 0.1374 0.6925
H20 H 0.1985 0.2187 0.7732
loop_
_geom_bond_atom_site_label_1
_geom_bond_atom_site_label_2
_geom_bond_site_symmetry_1
_geom_bond_site_symmetry_2
O1 C1 1_555 1_555
O2 C1 1_555 1_555
O3 C8 1_555 1_555
O4 C13 1_555 1_555
O5 C4 1_555 1_555
O6 C15 1_555 1_555
C1 C2 1_555 1_555
C2 C3 1_555 1_555
C3 H1 1_555 1_555
C4 C3 1_555 1_555
C5 C4 1_555 1_555
H2 C5 1_555 1_555
H3 C5 1_555 1_555
C6 C5 1_555 1_555
H4 C6 1_555 1_555
H5 C6 1_555 1_555
C7 C3 1_555 1_555
C8 C7 1_555 1_555
H6 C8 1_555 1_555
C9 C8 1_555 1_555
C10 C2 1_555 1_555
C11 C10 1_555 1_555
H7 C11 1_555 1_555
H8 C11 1_555 1_555
C12 O1 1_555 1_555
H9 C12 1_555 1_555
C13 O3 1_555 1_555
C14 C9 1_555 1_555
H10 C14 1_555 1_555
H11 C14 1_555 1_555
C15 H12 1_555 1_555
C16 C12 1_555 1_555
C17 C16 1_555 1_555
H13 C17 1_555 1_555
C18 O6 1_555 1_555
H14 C18 1_555 1_555
C19 C7 1_555 1_555
H15 C19 1_555 1_555
H16 C19 1_555 1_555
H17 C19 1_555 1_555
C20 C9 1_555 1_555
H18 C20 1_555 1_555
H19 C20 1_555 1_555
H20 C20 1_555 1_555
C6 C7 1_555 1_555
C9 C10 1_555 1_555
C11 C12 1_555 1_555
C13 C14 1_555 1_555
C15 C16 1_555 1_555
C17 C18 1_555 1_555

#END
