
#######################################################################
#
#                 Cambridge Crystallographic Data Centre
#                                CCDC 
#
#######################################################################
#
# If this CIF has been generated from an entry in the Cambridge 
# Structural Database, then it will include bibliographic, chemical, 
# crystal, experimental, refinement or atomic coordinate data resulting 
# from the CCDC's data processing and validation procedures.
#
#######################################################################

data_OVAWEP
_chemical_name_common            'Hapmnioide A'
_chemical_formula_moiety         'C21 H22 O7'
_chemical_name_systematic        
'methyl 2-(3-(3-furyl)-5-methyl-1,7-dioxo-3,4,4a,7-tetrahydrocyclopenta[c]pyran-7a(1H)-yl)-1-methyl-3-oxocyclopentanecarboxylate'
_symmetry_cell_setting           monoclinic
_symmetry_space_group_name_H-M   'P 21'
_symmetry_Int_Tables_number      4
_space_group_name_Hall           'P 2yb'
loop_
_symmetry_equiv_pos_site_id
_symmetry_equiv_pos_as_xyz
1 x,y,z
2 -x,1/2+y,-z
_cell_length_a                   6.9891(6)
_cell_length_b                   17.3736(17)
_cell_length_c                   8.3470(8)
_cell_angle_alpha                90
_cell_angle_beta                 105.219(3)
_cell_angle_gamma                90
_cell_volume                     977.996
_cell_formula_units_Z            2
loop_
_atom_site_label
_atom_site_type_symbol
_atom_site_fract_x
_atom_site_fract_y
_atom_site_fract_z
O1 O 0.0518(3) 0.29411(13) 0.1314(3)
O2 O 0.3582(4) 0.29736(16) 0.2807(3)
O3 O 0.5040(3) 0.1494(2) 0.1771(3)
O4 O -0.5367(4) 0.37184(16) -0.1816(4)
O5 O 0.0341(4) 0.24908(17) 0.5083(3)
O6 O 0.2905(4) -0.03613(14) 0.5725(3)
O7 O 0.0435(3) 0.04924(16) 0.5298(3)
C1 C 0.2108(4) 0.2597(2) 0.2309(3)
C2 C 0.2058(4) 0.17367(18) 0.2740(3)
C3 C 0.0063(3) 0.13211(16) 0.2059(3)
H1 H -0.0632 0.1261 0.2929
C4 C -0.1242(3) 0.17460(17) 0.0559(3)
H2 H -0.0659 0.1705 -0.0372
H3 H -0.2544 0.1509 0.0241
C5 C -0.1441(4) 0.25761(17) 0.0964(3)
H4 H -0.1939 0.2611 0.1955
C6 C 0.3444(4) 0.1271(2) 0.1902(3)
C7 C 0.2487(5) 0.0546(2) 0.1391(4)
H5 H 0.3096 0.0128 0.1031
C8 C 0.0615(4) 0.05464(18) 0.1496(4)
C9 C -0.0878(6) -0.0084(2) 0.1049(5)
H6 H -0.0269 -0.0532 0.0722
H7 H -0.1959 0.0080 0.0145
H8 H -0.1367 -0.0206 0.1991
C10 C -0.4397(5) 0.3416(2) -0.0318(5)
H9 H -0.4808 0.3475 0.0648
C11 C -0.2779(4) 0.30237(18) -0.0406(3)
C12 C -0.2710(5) 0.3093(2) -0.2100(4)
H10 H -0.1752 0.2888 -0.2568
C13 C -0.4281(5) 0.3507(2) -0.2875(4)
H11 H -0.4594 0.3636 -0.3995
C14 C 0.2974(4) 0.16873(17) 0.4647(3)
H12 H 0.4142 0.2022 0.4848
C15 C 0.1689(5) 0.20557(19) 0.5632(4)
C16 C 0.2418(6) 0.1793(2) 0.7417(4)
H13 H 0.1377 0.1525 0.7766
H14 H 0.2860 0.2228 0.8150
C17 C 0.4129(5) 0.1255(2) 0.7430(4)
H15 H 0.4168 0.0837 0.8208
H16 H 0.5379 0.1530 0.7750
C18 C 0.3760(4) 0.09368(19) 0.5625(3)
C19 C 0.2150(5) 0.03458(18) 0.5485(3)
C20 C 0.5695(5) 0.0630(3) 0.5355(5)
H17 H 0.6281 0.0274 0.6224
H18 H 0.6591 0.1050 0.5369
H19 H 0.5430 0.0373 0.4301
C21 C 0.1495(8) -0.0964(3) 0.5781(7)
H20 H 0.0958 -0.0882 0.6715
H21 H 0.2150 -0.1455 0.5890
H22 H 0.0442 -0.0956 0.4776
loop_
_geom_bond_atom_site_label_1
_geom_bond_atom_site_label_2
_geom_bond_site_symmetry_1
_geom_bond_site_symmetry_2
O1 C1 1_555 1_555
O2 C1 1_555 1_555
O3 C6 1_555 1_555
O4 C10 1_555 1_555
O5 C15 1_555 1_555
O6 C19 1_555 1_555
O7 C19 1_555 1_555
C1 C2 1_555 1_555
C2 C3 1_555 1_555
C3 H1 1_555 1_555
C4 C3 1_555 1_555
H2 C4 1_555 1_555
H3 C4 1_555 1_555
C5 O1 1_555 1_555
H4 C5 1_555 1_555
C6 C2 1_555 1_555
C7 C6 1_555 1_555
H5 C7 1_555 1_555
C8 C3 1_555 1_555
C9 C8 1_555 1_555
H6 C9 1_555 1_555
H7 C9 1_555 1_555
H8 C9 1_555 1_555
C10 H9 1_555 1_555
C11 C5 1_555 1_555
C12 C11 1_555 1_555
H10 C12 1_555 1_555
C13 O4 1_555 1_555
H11 C13 1_555 1_555
C14 C2 1_555 1_555
H12 C14 1_555 1_555
C15 C14 1_555 1_555
C16 C15 1_555 1_555
H13 C16 1_555 1_555
H14 C16 1_555 1_555
C17 C16 1_555 1_555
H15 C17 1_555 1_555
H16 C17 1_555 1_555
C18 C14 1_555 1_555
C19 C18 1_555 1_555
C20 C18 1_555 1_555
H17 C20 1_555 1_555
H18 C20 1_555 1_555
H19 C20 1_555 1_555
C21 O6 1_555 1_555
H20 C21 1_555 1_555
H21 C21 1_555 1_555
H22 C21 1_555 1_555
C4 C5 1_555 1_555
C7 C8 1_555 1_555
C10 C11 1_555 1_555
C12 C13 1_555 1_555
C17 C18 1_555 1_555

#END
