
#######################################################################
#
#                 Cambridge Crystallographic Data Centre
#                                CCDC 
#
#######################################################################
#
# If this CIF has been generated from an entry in the Cambridge 
# Structural Database, then it will include bibliographic, chemical, 
# crystal, experimental, refinement or atomic coordinate data resulting 
# from the CCDC's data processing and validation procedures.
#
#######################################################################

data_OVEDOK
_chemical_formula_moiety         'C4 H3 N6 O9 1-,C1 H6 N3 1+,1.5(H2 O1)'
_chemical_name_systematic        
'guanidinium ((1-amino-2,2-dinitrovinyl)carbamoyl)(dinitro)methanide sesquihydrate'
_symmetry_cell_setting           triclinic
_symmetry_space_group_name_H-M   'P -1'
_symmetry_Int_Tables_number      2
_space_group_name_Hall           '-P 1'
loop_
_symmetry_equiv_pos_site_id
_symmetry_equiv_pos_as_xyz
1 x,y,z
2 -x,-y,-z
_cell_length_a                   6.8808(18)
_cell_length_b                   13.354(3)
_cell_length_c                   15.942(4)
_cell_angle_alpha                89.832(6)
_cell_angle_beta                 81.391(6)
_cell_angle_gamma                75.199(6)
_cell_volume                     1399.33
_exptl_crystal_colour            green
_exptl_crystal_description       prismatic
_cell_formula_units_Z            4
loop_
_atom_site_label
_atom_site_type_symbol
_atom_site_fract_x
_atom_site_fract_y
_atom_site_fract_z
O1 O 0.7423(5) 0.62815(19) 0.68378(17)
O2 O 0.7871(4) 0.41410(18) 0.49408(17)
O3 O 0.8252(4) 0.29627(18) 0.58991(18)
O4 O 0.9602(5) 0.3750(2) 0.7294(2)
O5 O 0.6467(5) 0.4477(3) 0.7687(2)
O6 O 0.6701(5) 0.5822(2) 0.38961(17)
O7 O 0.5883(4) 0.7085(2) 0.30852(18)
O8 O 0.7597(5) 0.8506(2) 0.33031(18)
O9 O 0.7034(5) 0.9058(2) 0.45931(18)
N1 N 0.7196(5) 0.7772(2) 0.5778(2)
H1 H 0.7325 0.7577 0.6286
H2 H 0.7126 0.8406 0.5654
N2 N 0.7227(5) 0.6117(2) 0.5428(2)
N3 N 0.7975(5) 0.3894(2) 0.5704(2)
N4 N 0.7978(6) 0.4260(2) 0.7153(2)
N5 N 0.6499(5) 0.6742(2) 0.3738(2)
N6 N 0.7174(5) 0.8366(2) 0.4056(2)
C1 C 0.7109(5) 0.7111(2) 0.5201(2)
C2 C 0.6901(6) 0.7400(3) 0.4345(2)
C3 C 0.7452(6) 0.5731(3) 0.6228(2)
C4 C 0.7783(6) 0.4631(3) 0.6298(2)
H3 H 0.731(5) 0.568(3) 0.504(2)
O10 O 0.2325(4) 0.74176(18) 0.05378(16)
O11 O 0.3976(6) 0.6949(3) -0.1123(2)
O12 O 0.1611(6) 0.7917(2) -0.1701(2)
O13 O 0.2435(5) 0.9720(2) -0.16095(17)
O14 O 0.2151(5) 1.0283(2) -0.03182(17)
O15 O 0.1810(6) 0.9011(2) 0.35327(17)
O16 O 0.3472(5) 1.0151(2) 0.35554(19)
O17 O 0.2434(6) 1.1478(2) 0.24606(19)
O18 O 0.3140(5) 1.0811(2) 0.11986(18)
N7 N 0.2136(5) 0.8070(2) 0.20973(19)
H4 H 0.2046 0.7576 0.1772
H5 H 0.2035 0.7999 0.2637
N8 N 0.2578(5) 0.9017(2) 0.09201(19)
N9 N 0.2737(6) 0.7766(2) -0.1170(2)
N10 N 0.2360(5) 0.9545(2) -0.08389(19)
N11 N 0.2607(5) 0.9653(2) 0.3172(2)
N12 N 0.2749(5) 1.0736(2) 0.1979(2)
C5 C 0.2424(5) 0.8923(3) 0.1773(2)
C6 C 0.2585(5) 0.9762(3) 0.2285(2)
C7 C 0.2463(5) 0.8276(3) 0.0334(2)
C8 C 0.2554(6) 0.8573(3) -0.0543(2)
H6 H 0.265(5) 0.959(2) 0.075(2)
O19 O 0.7679(6) 0.4296(3) 0.2463(3)
H7 H 0.6791 0.4031 0.2170
H8 H 0.6909 0.4592 0.3074
O20 O 0.8577(7) 0.6040(3) 0.8603(3)
H9 H 0.814(14) 0.641(6) 0.822(4)
H10 H 0.979(5) 0.575(8) 0.851(7)
O21 O 0.7191(8) 0.4793(3) 0.9868(3)
H11 H 0.749(11) 0.517(5) 0.949(3)
H12 H 0.75(2) 0.419(4) 1.001(8)
N13 N 0.7947(5) 0.2514(2) 0.3674(2)
H13 H 0.8025 0.2952 0.4054
H14 H 0.7905 0.2696 0.3157
N14 N 0.7764(5) 0.0894(2) 0.3307(2)
H15 H 0.7723 0.0277 0.3449
H16 H 0.7721 0.1068 0.2789
N15 N 0.7955(6) 0.1291(3) 0.4667(2)
H17 H 0.8033 0.1728 0.5048
H18 H 0.7919 0.0672 0.4802
C9 C 0.7892(6) 0.1570(3) 0.3882(2)
N16 N 0.7432(5) 0.7939(2) 0.1464(2)
H19 H 0.7402 0.8562 0.1317
H20 H 0.7378 0.7788 0.1991
N17 N 0.7644(6) 0.7444(3) 0.0080(2)
H21 H 0.7695 0.6977 -0.0299
H22 H 0.7647 0.8064 -0.0066
N18 N 0.7557(7) 0.6271(3) 0.1114(2)
H23 H 0.7608 0.5798 0.0740
H24 H 0.7503 0.6126 0.1641
C10 C 0.7562(6) 0.7211(3) 0.0880(3)
loop_
_geom_bond_atom_site_label_1
_geom_bond_atom_site_label_2
_geom_bond_site_symmetry_1
_geom_bond_site_symmetry_2
O1 C3 1_555 1_555
O2 N3 1_555 1_555
O3 N3 1_555 1_555
O4 N4 1_555 1_555
O5 N4 1_555 1_555
O6 N5 1_555 1_555
O7 N5 1_555 1_555
O8 N6 1_555 1_555
O9 N6 1_555 1_555
N1 H1 1_555 1_555
H2 N1 1_555 1_555
N2 C1 1_555 1_555
N3 C4 1_555 1_555
N4 C4 1_555 1_555
N5 C2 1_555 1_555
N6 C2 1_555 1_555
C1 N1 1_555 1_555
C2 C1 1_555 1_555
C3 N2 1_555 1_555
C4 C3 1_555 1_555
H3 N2 1_555 1_555
O10 C7 1_555 1_555
O11 N9 1_555 1_555
O12 N9 1_555 1_555
O13 N10 1_555 1_555
O14 N10 1_555 1_555
O15 N11 1_555 1_555
O16 N11 1_555 1_555
O17 N12 1_555 1_555
O18 N12 1_555 1_555
N7 H4 1_555 1_555
H5 N7 1_555 1_555
N8 C5 1_555 1_555
N9 C8 1_555 1_555
N10 C8 1_555 1_555
N11 C6 1_555 1_555
N12 C6 1_555 1_555
C5 N7 1_555 1_555
C6 C5 1_555 1_555
C7 N8 1_555 1_555
C8 C7 1_555 1_555
H6 N8 1_555 1_555
O19 H7 1_555 1_555
H8 O19 1_555 1_555
O20 H9 1_555 1_555
H10 O20 1_555 1_555
O21 H11 1_555 1_555
H12 O21 1_555 1_555
N13 H13 1_555 1_555
H14 N13 1_555 1_555
N14 H15 1_555 1_555
H16 N14 1_555 1_555
N15 H17 1_555 1_555
H18 N15 1_555 1_555
C9 N13 1_555 1_555
N16 H19 1_555 1_555
H20 N16 1_555 1_555
N17 H21 1_555 1_555
H22 N17 1_555 1_555
N18 H23 1_555 1_555
H24 N18 1_555 1_555
C10 N16 1_555 1_555
N14 C9 1_555 1_555
N15 C9 1_555 1_555
N17 C10 1_555 1_555
N18 C10 1_555 1_555

#END
