
#######################################################################
#
#                 Cambridge Crystallographic Data Centre
#                                CCDC 
#
#######################################################################
#
# If this CIF has been generated from an entry in the Cambridge 
# Structural Database, then it will include bibliographic, chemical, 
# crystal, experimental, refinement or atomic coordinate data resulting 
# from the CCDC's data processing and validation procedures.
#
#######################################################################

data_OVIMOX
_chemical_formula_moiety         'C21 H18 N2 O2 S1,C1 H2 Cl2'
_chemical_name_systematic        
'3-(((4-methylphenyl)sulfonyl)methyl)-2-phenylimidazo[1,2-a]pyridine dichloromethane solvate'
_symmetry_cell_setting           monoclinic
_symmetry_space_group_name_H-M   'P 21/c'
_symmetry_Int_Tables_number      14
_space_group_name_Hall           '-P 2ybc'
loop_
_symmetry_equiv_pos_site_id
_symmetry_equiv_pos_as_xyz
1 x,y,z
2 -x,1/2+y,1/2-z
3 -x,-y,-z
4 x,1/2-y,1/2+z
_cell_length_a                   12.896(4)
_cell_length_b                   12.521(3)
_cell_length_c                   13.524(4)
_cell_angle_alpha                90
_cell_angle_beta                 91.004(10)
_cell_angle_gamma                90
_cell_volume                     2183.4
_exptl_crystal_colour            yellow
_exptl_crystal_description       block
_cell_formula_units_Z            4
loop_
_atom_site_label
_atom_site_type_symbol
_atom_site_fract_x
_atom_site_fract_y
_atom_site_fract_z
S1 S 0.63739(7) 0.68060(6) 0.41630(6)
O1 O 0.5561(2) 0.66784(17) 0.48687(18)
O2 O 0.72847(19) 0.73986(17) 0.44640(18)
N1 N 0.4735(2) 0.89489(18) 0.37025(18)
N2 N 0.5552(2) 1.03753(19) 0.3086(2)
C1 C 0.7751(4) 0.2470(3) 0.2781(4)
H1 H 0.7208 0.1959 0.2882
H2 H 0.8358 0.2261 0.3154
H3 H 0.7911 0.2498 0.2091
C2 C 0.7398(3) 0.3556(3) 0.3120(3)
C3 C 0.8023(3) 0.4437(3) 0.2981(3)
H4 H 0.8658 0.4357 0.2673
C4 C 0.7714(3) 0.5434(2) 0.3294(3)
H5 H 0.8140 0.6025 0.3203
C5 C 0.6767(3) 0.5547(2) 0.3743(2)
C6 C 0.5829(3) 0.7426(2) 0.3065(2)
H6 H 0.6314 0.7351 0.2529
H7 H 0.5196 0.7055 0.2874
C7 C 0.5594(2) 0.8578(2) 0.3206(2)
C8 C 0.6088(2) 0.9469(2) 0.2844(2)
C9 C 0.7038(3) 0.9520(2) 0.2265(2)
C10 C 0.7098(3) 1.0193(3) 0.1446(3)
H8 H 0.6519 1.0590 0.1253
C11 C 0.8000(4) 1.0279(3) 0.0917(3)
H9 H 0.8024 1.0737 0.0376
C12 C 0.8855(4) 0.9700(4) 0.1180(4)
H10 H 0.9462 0.9767 0.0824
C13 C 0.6456(3) 0.3689(2) 0.3565(2)
H11 H 0.6032 0.3098 0.3659
C14 C 0.6127(3) 0.4680(2) 0.3874(2)
H12 H 0.5484 0.4762 0.4166
C15 C 0.4756(3) 1.0055(2) 0.3613(2)
C16 C 0.3977(3) 1.0648(3) 0.4104(3)
H13 H 0.3981 1.1390 0.4089
C17 C 0.3233(3) 1.0118(3) 0.4591(3)
H14 H 0.2716 1.0504 0.4902
C18 C 0.3222(3) 0.9007(3) 0.4638(3)
H15 H 0.2695 0.8661 0.4972
C19 C 0.3970(3) 0.8431(3) 0.4205(3)
H16 H 0.3967 0.7689 0.4245
C20 C 0.7916(3) 0.8922(3) 0.2517(3)
H17 H 0.7894 0.8458 0.3053
C21 C 0.8815(4) 0.9005(4) 0.1988(4)
H18 H 0.9393 0.8600 0.2167
Cl1 Cl 0.98954(17) 0.90198(17) 0.62079(18)
Cl2 Cl 1.03094(16) 0.76106(18) 0.4579(2)
C22 C 0.9411(4) 0.8333(5) 0.5185(6)
H19 H 0.8866 0.7856 0.5399
H20 H 0.9101 0.8843 0.4728
loop_
_geom_bond_atom_site_label_1
_geom_bond_atom_site_label_2
_geom_bond_site_symmetry_1
_geom_bond_site_symmetry_2
S1 O1 1_555 1_555
O2 S1 1_555 1_555
N1 C7 1_555 1_555
N2 C8 1_555 1_555
C1 H1 1_555 1_555
H2 C1 1_555 1_555
H3 C1 1_555 1_555
C2 C1 1_555 1_555
C3 C2 1_555 1_555
H4 C3 1_555 1_555
C4 C3 1_555 1_555
H5 C4 1_555 1_555
C5 S1 1_555 1_555
C6 S1 1_555 1_555
H6 C6 1_555 1_555
H7 C6 1_555 1_555
C7 C6 1_555 1_555
C8 C7 1_555 1_555
C9 C8 1_555 1_555
C10 C9 1_555 1_555
H8 C10 1_555 1_555
C11 C10 1_555 1_555
H9 C11 1_555 1_555
C12 C11 1_555 1_555
H10 C12 1_555 1_555
C13 C2 1_555 1_555
H11 C13 1_555 1_555
C14 C5 1_555 1_555
H12 C14 1_555 1_555
C15 N1 1_555 1_555
C16 C15 1_555 1_555
H13 C16 1_555 1_555
C17 C16 1_555 1_555
H14 C17 1_555 1_555
C18 C17 1_555 1_555
H15 C18 1_555 1_555
C19 N1 1_555 1_555
H16 C19 1_555 1_555
C20 C9 1_555 1_555
H17 C20 1_555 1_555
C21 C12 1_555 1_555
H18 C21 1_555 1_555
Cl1 C22 1_555 1_555
Cl2 C22 1_555 1_555
C22 H19 1_555 1_555
H20 C22 1_555 1_555
N2 C15 1_555 1_555
C4 C5 1_555 1_555
C13 C14 1_555 1_555
C18 C19 1_555 1_555
C20 C21 1_555 1_555

#END
