
#######################################################################
#
#                 Cambridge Crystallographic Data Centre
#                                CCDC 
#
#######################################################################
#
# If this CIF has been generated from an entry in the Cambridge 
# Structural Database, then it will include bibliographic, chemical, 
# crystal, experimental, refinement or atomic coordinate data resulting 
# from the CCDC's data processing and validation procedures.
#
#######################################################################

data_OVIQUH
_chemical_formula_moiety         'C11 H10 Cl2 N2 O3'
_chemical_name_systematic        3,3-dichloro-1-(4-nitrophenyl)piperidin-2-one
_symmetry_cell_setting           triclinic
_symmetry_space_group_name_H-M   'P -1'
_symmetry_Int_Tables_number      2
_space_group_name_Hall           '-P 1'
loop_
_symmetry_equiv_pos_site_id
_symmetry_equiv_pos_as_xyz
1 x,y,z
2 -x,-y,-z
_cell_length_a                   11.0684(10)
_cell_length_b                   11.5587(11)
_cell_length_c                   12.1997(14)
_cell_angle_alpha                100.205(9)
_cell_angle_beta                 115.593(10)
_cell_angle_gamma                107.771(8)
_cell_volume                     1250.71
_cell_formula_units_Z            4
_exptl_crystal_recrystallization_method methanol
loop_
_atom_site_label
_atom_site_type_symbol
_atom_site_fract_x
_atom_site_fract_y
_atom_site_fract_z
Cl1 Cl 0.67766(11) 0.25309(12) 0.01008(11)
Cl2 Cl 0.49672(13) 0.35103(10) 0.07480(10)
O1 O -0.0057(3) 0.2842(3) -0.7880(3)
O2 O 0.0167(4) 0.4526(3) -0.6605(3)
O3 O 0.5193(3) 0.3583(2) -0.1776(2)
N1 N 0.0337(3) 0.3534(3) -0.6810(3)
N2 N 0.2909(3) 0.2029(2) -0.2551(3)
C1 C 0.1055(3) 0.3163(3) -0.5688(3)
C2 C 0.1338(4) 0.2098(3) -0.5882(3)
H1 H 0.1110 0.1630 -0.6703
C3 C 0.1967(4) 0.1735(3) -0.4839(3)
H2 H 0.2162 0.1008 -0.4950
C4 C 0.2308(3) 0.2439(3) -0.3633(3)
C5 C 0.2023(4) 0.3509(3) -0.3450(4)
H3 H 0.2257 0.3980 -0.2628
C6 C 0.1387(4) 0.3884(4) -0.4489(4)
H4 H 0.1187 0.4607 -0.4381
C7 C 0.1882(4) 0.0812(3) -0.2621(4)
H5 H 0.1816 0.0074 -0.3205
H6 H 0.0901 0.0789 -0.2974
C8 C 0.2387(4) 0.0697(4) -0.1306(4)
H7 H 0.1802 -0.0175 -0.1404
H8 H 0.2235 0.1308 -0.0782
C9 C 0.4008(4) 0.0975(3) -0.0625(4)
H9 H 0.4315 0.0887 0.0218
H10 H 0.4157 0.0350 -0.1136
C10 C 0.4932(4) 0.2331(3) -0.0449(3)
C11 C 0.4372(4) 0.2699(3) -0.1660(3)
Cl3 Cl 0.47329(12) -0.00800(12) 0.65687(11)
Cl4 Cl 0.28327(14) -0.23695(12) 0.65772(12)
O4 O -0.3106(3) -0.3788(3) -0.2355(3)
O5 O -0.2101(3) -0.1700(3) -0.1613(3)
O6 O 0.1547(3) -0.1293(3) 0.4434(2)
N3 N -0.2180(3) -0.2745(3) -0.1494(3)
N4 N 0.2048(3) -0.2628(2) 0.3288(3)
C12 C 0.0169(4) -0.1599(3) 0.0571(3)
H11 H 0.0334 -0.0867 0.0338
C13 C -0.1094(3) -0.2728(3) -0.0246(3)
C14 C -0.1380(4) -0.3822(3) 0.0058(3)
H12 H -0.2250 -0.4574 -0.0515
C15 C -0.0347(4) -0.3786(3) 0.1239(3)
H13 H -0.0515 -0.4521 0.1466
C16 C 0.0933(3) -0.2658(3) 0.2079(3)
C17 C 0.1193(4) -0.1569(3) 0.1751(3)
H14 H 0.2058 -0.0811 0.2323
C18 C 0.2285(4) -0.1881(3) 0.4396(3)
C19 C 0.3574(4) -0.1763(4) 0.5659(3)
C20 C 0.4495(7) -0.2411(8) 0.5492(5)
H15 H 0.5412 -0.1730 0.5690
H16 H 0.4757 -0.2794 0.6158
C21 C 0.4012(6) -0.3274(7) 0.4431(5)
H17 H 0.3641 -0.4103 0.4526
H18 H 0.4869 -0.3207 0.4360
C22 C 0.2869(4) -0.3382(4) 0.3158(3)
H19 H 0.3336 -0.3072 0.2688
H20 H 0.2177 -0.4290 0.2653
loop_
_geom_bond_atom_site_label_1
_geom_bond_atom_site_label_2
_geom_bond_site_symmetry_1
_geom_bond_site_symmetry_2
Cl1 C10 1_555 1_555
Cl2 C10 1_555 1_555
O1 N1 1_555 1_555
O2 N1 1_555 1_555
O3 C11 1_555 1_555
N1 C1 1_555 1_555
N2 C4 1_555 1_555
C1 C2 1_555 1_555
C2 H1 1_555 1_555
C3 C2 1_555 1_555
H2 C3 1_555 1_555
C4 C3 1_555 1_555
C5 C4 1_555 1_555
H3 C5 1_555 1_555
C6 C1 1_555 1_555
H4 C6 1_555 1_555
C7 N2 1_555 1_555
H5 C7 1_555 1_555
H6 C7 1_555 1_555
C8 C7 1_555 1_555
H7 C8 1_555 1_555
H8 C8 1_555 1_555
C9 C8 1_555 1_555
H9 C9 1_555 1_555
H10 C9 1_555 1_555
C10 C9 1_555 1_555
C11 N2 1_555 1_555
Cl3 C19 1_555 1_555
Cl4 C19 1_555 1_555
O4 N3 1_555 1_555
O5 N3 1_555 1_555
O6 C18 1_555 1_555
N3 C13 1_555 1_555
N4 C16 1_555 1_555
C12 H11 1_555 1_555
C13 C12 1_555 1_555
C14 C13 1_555 1_555
H12 C14 1_555 1_555
C15 C14 1_555 1_555
H13 C15 1_555 1_555
C16 C15 1_555 1_555
C17 C12 1_555 1_555
H14 C17 1_555 1_555
C18 N4 1_555 1_555
C19 C18 1_555 1_555
C20 C19 1_555 1_555
H15 C20 1_555 1_555
H16 C20 1_555 1_555
C21 C20 1_555 1_555
H17 C21 1_555 1_555
H18 C21 1_555 1_555
C22 N4 1_555 1_555
H19 C22 1_555 1_555
H20 C22 1_555 1_555
C5 C6 1_555 1_555
C10 C11 1_555 1_555
C16 C17 1_555 1_555
C21 C22 1_555 1_555

#END
