
#######################################################################
#
#                 Cambridge Crystallographic Data Centre
#                                CCDC 
#
#######################################################################
#
# If this CIF has been generated from an entry in the Cambridge 
# Structural Database, then it will include bibliographic, chemical, 
# crystal, experimental, refinement or atomic coordinate data resulting 
# from the CCDC's data processing and validation procedures.
#
#######################################################################

data_OVORUO
_chemical_formula_moiety         'C20 H21 N3 O4 S1'
_chemical_name_systematic        
'S-(2-((2-butyl-1,3-dioxo-2,3-dihydro-1H-benzo[de]isoquinolin-6-yl)(nitroso)amino)ethyl) ethanethioate'
_symmetry_cell_setting           triclinic
_symmetry_space_group_name_H-M   'P -1'
_symmetry_Int_Tables_number      2
_space_group_name_Hall           '-P 1'
loop_
_symmetry_equiv_pos_site_id
_symmetry_equiv_pos_as_xyz
1 x,y,z
2 -x,-y,-z
_cell_length_a                   9.4679(10)
_cell_length_b                   10.2537(11)
_cell_length_c                   10.3314(12)
_cell_angle_alpha                95.058(7)
_cell_angle_beta                 91.227(8)
_cell_angle_gamma                99.386(6)
_cell_volume                     985.048
_exptl_crystal_colour            yellow
_exptl_crystal_description       prismatic
_cell_formula_units_Z            2
loop_
_atom_site_label
_atom_site_type_symbol
_atom_site_fract_x
_atom_site_fract_y
_atom_site_fract_z
S1 S 1.04466(8) 0.70388(8) 0.19678(8)
N1 N 0.2739(2) 0.8223(2) 0.5381(2)
N2 N 0.7487(2) 0.7951(2) 0.1007(2)
N3 N 0.7227(3) 0.7254(2) -0.0155(2)
O1 O 0.1956(2) 1.0140(2) 0.5007(2)
O2 O 0.3566(2) 0.6355(2) 0.5803(2)
O3 O 0.6071(2) 0.6516(2) -0.0284(2)
O4 O 1.1950(2) 0.8450(2) 0.0327(3)
C1 C 0.2752(2) 0.9351(3) 0.4722(3)
C2 C 0.3619(3) 0.7271(3) 0.5140(2)
C3 C 0.4596(2) 0.7454(2) 0.4041(2)
C4 C 0.4656(2) 0.8585(2) 0.3345(2)
C5 C 0.3766(2) 0.9536(2) 0.3654(2)
C6 C 0.3842(3) 1.0642(3) 0.2981(3)
H1 H 0.3263 1.1272 0.3202
C7 C 0.4782(3) 1.0822(3) 0.1966(3)
H2 H 0.4825 1.1573 0.1517
C8 C 0.5643(2) 0.9906(2) 0.1623(2)
H3 H 0.6250 1.0029 0.0933
C9 C 0.5609(2) 0.8776(2) 0.2314(2)
C10 C 0.6489(2) 0.7789(2) 0.2041(2)
C11 C 0.6396(3) 0.6697(2) 0.2707(3)
H4 H 0.6967 0.6060 0.2489
C12 C 0.5440(3) 0.6525(3) 0.3726(3)
H5 H 0.5385 0.5779 0.4184
C13 C 0.8832(3) 0.8873(3) 0.1150(3)
H6 H 0.8626 0.9767 0.1325
H7 H 0.9317 0.8835 0.0333
C14 C 0.9826(3) 0.8604(3) 0.2216(3)
H8 H 0.9334 0.8634 0.3030
H9 H 1.0650 0.9309 0.2300
C15 C 1.1700(3) 0.7386(3) 0.0736(3)
C16 C 1.2411(4) 0.6219(4) 0.0301(5)
H10 H 1.2146 0.5933 -0.0594
H11 H 1.2109 0.5505 0.0826
H12 H 1.3433 0.6475 0.0392
C17 C 0.1714(3) 0.8001(3) 0.6432(3)
H13 H 0.1522 0.8852 0.6810
H14 H 0.2146 0.7581 0.7110
C18 C 0.0320(3) 0.7145(3) 0.5959(3)
H15 H 0.0508 0.6287 0.5596
H16 H -0.0107 0.7557 0.5272
C19 C -0.0722(3) 0.6948(3) 0.7040(3)
H17 H -0.0281 0.6555 0.7732
H18 H -0.0914 0.7808 0.7391
C20 C -0.2115(3) 0.6079(4) 0.6610(4)
H19 H -0.2553 0.6453 0.5916
H20 H -0.2743 0.6020 0.7328
H21 H -0.1941 0.5208 0.6311
loop_
_geom_bond_atom_site_label_1
_geom_bond_atom_site_label_2
_geom_bond_site_symmetry_1
_geom_bond_site_symmetry_2
S1 C14 1_555 1_555
N1 C1 1_555 1_555
N2 N3 1_555 1_555
N3 O3 1_555 1_555
O1 C1 1_555 1_555
O2 C2 1_555 1_555
O4 C15 1_555 1_555
C1 C5 1_555 1_555
C2 N1 1_555 1_555
C3 C2 1_555 1_555
C4 C3 1_555 1_555
C5 C4 1_555 1_555
C6 C5 1_555 1_555
H1 C6 1_555 1_555
C7 C6 1_555 1_555
H2 C7 1_555 1_555
C8 C7 1_555 1_555
H3 C8 1_555 1_555
C9 C4 1_555 1_555
C10 N2 1_555 1_555
C11 C10 1_555 1_555
H4 C11 1_555 1_555
C12 C3 1_555 1_555
H5 C12 1_555 1_555
C13 N2 1_555 1_555
H6 C13 1_555 1_555
H7 C13 1_555 1_555
C14 C13 1_555 1_555
H8 C14 1_555 1_555
H9 C14 1_555 1_555
C15 S1 1_555 1_555
C16 C15 1_555 1_555
H10 C16 1_555 1_555
H11 C16 1_555 1_555
H12 C16 1_555 1_555
C17 N1 1_555 1_555
H13 C17 1_555 1_555
H14 C17 1_555 1_555
C18 C17 1_555 1_555
H15 C18 1_555 1_555
H16 C18 1_555 1_555
C19 C18 1_555 1_555
H17 C19 1_555 1_555
H18 C19 1_555 1_555
C20 C19 1_555 1_555
H19 C20 1_555 1_555
H20 C20 1_555 1_555
H21 C20 1_555 1_555
C8 C9 1_555 1_555
C9 C10 1_555 1_555
C11 C12 1_555 1_555

#END
