
#######################################################################
#
#                 Cambridge Crystallographic Data Centre
#                                CCDC 
#
#######################################################################
#
# If this CIF has been generated from an entry in the Cambridge 
# Structural Database, then it will include bibliographic, chemical, 
# crystal, experimental, refinement or atomic coordinate data resulting 
# from the CCDC's data processing and validation procedures.
#
#######################################################################

data_OVOTID
_chemical_formula_moiety         'C28 H19 N1 O1 S1'
_chemical_name_systematic        
9-(4-(4-(acetylthio)phenylethynyl)phenyl)-9H-carbazole
_symmetry_cell_setting           monoclinic
_symmetry_space_group_name_H-M   'P 21/n'
_symmetry_Int_Tables_number      14
_space_group_name_Hall           '-P 2yn'
loop_
_symmetry_equiv_pos_site_id
_symmetry_equiv_pos_as_xyz
1 x,y,z
2 1/2-x,1/2+y,1/2-z
3 -x,-y,-z
4 1/2+x,1/2-y,1/2+z
_cell_length_a                   8.2280(16)
_cell_length_b                   17.078(3)
_cell_length_c                   16.133(3)
_cell_angle_alpha                90
_cell_angle_beta                 101.20(3)
_cell_angle_gamma                90
_cell_volume                     2223.8
_exptl_crystal_colour            colorless
_exptl_crystal_description       block
_chemical_melting_point          '430 K'
_cell_formula_units_Z            4
loop_
_atom_site_label
_atom_site_type_symbol
_atom_site_fract_x
_atom_site_fract_y
_atom_site_fract_z
S1 S -0.01548(18) 0.26505(7) 0.04031(9)
N1 N 0.6233(4) 0.89433(18) -0.1835(2)
O1 O 0.1124(5) 0.1990(2) -0.0784(2)
C1 C -0.0115(7) 0.1097(3) 0.0042(3)
H1 H 0.0841 0.0763 0.0161
H2 H -0.0921 0.0873 -0.0405
H3 H -0.0585 0.1147 0.0540
C2 C 0.0388(6) 0.1895(3) -0.0224(3)
C3 C 0.0675(6) 0.3496(2) -0.0002(3)
C4 C 0.2097(6) 0.3831(3) 0.0450(3)
H4 H 0.2652 0.3596 0.0945
C5 C 0.2694(5) 0.4510(3) 0.0170(3)
H5 H 0.3654 0.4732 0.0480
C6 C 0.1896(5) 0.4870(2) -0.0561(3)
C7 C 0.0471(5) 0.4537(2) -0.0997(3)
H6 H -0.0091 0.4772 -0.1491
C8 C -0.0143(6) 0.3857(2) -0.0713(3)
H7 H -0.1124 0.3643 -0.1011
C9 C 0.2540(5) 0.5588(2) -0.0835(3)
C10 C 0.3071(5) 0.6184(2) -0.1050(3)
C11 C 0.3824(5) 0.6902(2) -0.1267(3)
C12 C 0.3937(5) 0.7072(2) -0.2084(3)
H8 H 0.3484 0.6729 -0.2514
C13 C 0.4712(5) 0.7744(2) -0.2277(3)
H9 H 0.4773 0.7851 -0.2836
C14 C 0.5393(4) 0.8257(2) -0.1653(3)
C15 C 0.5248(5) 0.8109(2) -0.0829(3)
H10 H 0.5670 0.8463 -0.0403
C16 C 0.4473(5) 0.7433(2) -0.0639(3)
H11 H 0.4385 0.7333 -0.0083
C17 C 0.7665(5) 0.8959(2) -0.2178(2)
C18 C 0.8582(5) 0.8344(3) -0.2401(3)
H12 H 0.8249 0.7828 -0.2353
C19 C 1.0008(6) 0.8515(3) -0.2696(3)
H13 H 1.0642 0.8108 -0.2849
C20 C 1.0502(7) 0.9270(4) -0.2769(4)
H14 H 1.1461 0.9368 -0.2975
C21 C 0.9621(7) 0.9884(3) -0.2545(3)
H15 H 0.9978 1.0395 -0.2594
C22 C 0.8173(6) 0.9734(3) -0.2241(3)
C23 C 0.6988(6) 1.0210(2) -0.1929(3)
C24 C 0.6793(8) 1.1006(3) -0.1860(4)
H16 H 0.7546 1.1350 -0.2025
C25 C 0.5484(11) 1.1281(3) -0.1548(4)
H17 H 0.5369 1.1819 -0.1490
C26 C 0.4317(8) 1.0790(3) -0.1312(3)
H18 H 0.3427 1.0999 -0.1109
C27 C 0.4472(7) 0.9981(3) -0.1379(3)
H19 H 0.3707 0.9638 -0.1222
C28 C 0.5816(6) 0.9716(2) -0.1689(3)
loop_
_geom_bond_atom_site_label_1
_geom_bond_atom_site_label_2
_geom_bond_site_symmetry_1
_geom_bond_site_symmetry_2
S1 C2 1_555 1_555
N1 C14 1_555 1_555
O1 C2 1_555 1_555
C1 H1 1_555 1_555
H2 C1 1_555 1_555
H3 C1 1_555 1_555
C2 C1 1_555 1_555
C3 S1 1_555 1_555
C4 C3 1_555 1_555
H4 C4 1_555 1_555
C5 C4 1_555 1_555
H5 C5 1_555 1_555
C6 C5 1_555 1_555
C7 C6 1_555 1_555
H6 C7 1_555 1_555
C8 C3 1_555 1_555
H7 C8 1_555 1_555
C9 C6 1_555 1_555
C10 C9 1_555 1_555
C11 C10 1_555 1_555
C12 C11 1_555 1_555
H8 C12 1_555 1_555
C13 C12 1_555 1_555
H9 C13 1_555 1_555
C14 C13 1_555 1_555
C15 C14 1_555 1_555
H10 C15 1_555 1_555
C16 C11 1_555 1_555
H11 C16 1_555 1_555
C17 N1 1_555 1_555
C18 C17 1_555 1_555
H12 C18 1_555 1_555
C19 C18 1_555 1_555
H13 C19 1_555 1_555
C20 C19 1_555 1_555
H14 C20 1_555 1_555
C21 C20 1_555 1_555
H15 C21 1_555 1_555
C22 C17 1_555 1_555
C23 C22 1_555 1_555
C24 C23 1_555 1_555
H16 C24 1_555 1_555
C25 C24 1_555 1_555
H17 C25 1_555 1_555
C26 C25 1_555 1_555
H18 C26 1_555 1_555
C27 C26 1_555 1_555
H19 C27 1_555 1_555
C28 N1 1_555 1_555
C7 C8 1_555 1_555
C15 C16 1_555 1_555
C21 C22 1_555 1_555
C23 C28 1_555 1_555
C27 C28 1_555 1_555

#END
