
#######################################################################
#
#                 Cambridge Crystallographic Data Centre
#                                CCDC 
#
#######################################################################
#
# If this CIF has been generated from an entry in the Cambridge 
# Structural Database, then it will include bibliographic, chemical, 
# crystal, experimental, refinement or atomic coordinate data resulting 
# from the CCDC's data processing and validation procedures.
#
#######################################################################

data_OVUDUF
_chemical_formula_moiety         'C27 H53 N2 1+,C2 N3 1-'
_chemical_name_systematic        '1,3-Didodecyl-1H-imidazol-3-ium dicyanamide'
_symmetry_cell_setting           triclinic
_symmetry_space_group_name_H-M   'P -1'
_symmetry_Int_Tables_number      2
_space_group_name_Hall           '-P 1'
loop_
_symmetry_equiv_pos_site_id
_symmetry_equiv_pos_as_xyz
1 x,y,z
2 -x,-y,-z
_cell_length_a                   7.2671(4)
_cell_length_b                   10.1060(7)
_cell_length_c                   20.7305(7)
_cell_angle_alpha                101.009(3)
_cell_angle_beta                 98.259(6)
_cell_angle_gamma                91.545(6)
_cell_volume                     1476.64
_exptl_crystal_colour            colorless
_exptl_crystal_description       block
_cell_formula_units_Z            2
loop_
_atom_site_label
_atom_site_type_symbol
_atom_site_fract_x
_atom_site_fract_y
_atom_site_fract_z
C1 C -0.07571(16) 0.87173(11) -0.41969(5)
H1 H -0.1970 0.8968 -0.4122
C2 C 0.16655(16) 0.75092(12) -0.43845(6)
H2 H 0.2422 0.6761 -0.4464
C3 C 0.21936(16) 0.88209(12) -0.43371(6)
H3 H 0.3392 0.9168 -0.4376
C4 C 0.06660(17) 1.10503(11) -0.40663(6)
H4 H -0.0632 1.1332 -0.4093
H5 H 0.1262 1.1425 -0.4398
C5 C 0.17179(17) 1.16095(12) -0.33718(6)
H6 H 0.1723 1.2607 -0.3289
H7 H 0.3027 1.1356 -0.3357
C6 C 0.09041(17) 1.11125(12) -0.28157(6)
H8 H -0.0381 1.1411 -0.2810
H9 H 0.0843 1.0113 -0.2906
C7 C 0.20686(17) 1.16458(12) -0.21368(6)
H10 H 0.3384 1.1444 -0.2164
H11 H 0.2009 1.2640 -0.2030
C8 C 0.14570(17) 1.10593(12) -0.15709(6)
H12 H 0.0156 1.1286 -0.1530
H13 H 0.1487 1.0063 -0.1679
C9 C 0.26945(17) 1.15928(12) -0.09076(6)
H14 H 0.3997 1.1383 -0.0955
H15 H 0.2647 1.2588 -0.0800
C10 C 0.21538(17) 1.10140(12) -0.03293(6)
H16 H 0.2208 1.0019 -0.0434
H17 H 0.0852 1.1223 -0.0280
C11 C 0.34122(17) 1.15674(12) 0.03295(6)
H18 H 0.4713 1.1357 0.0279
H19 H 0.3361 1.2562 0.0432
C12 C 0.28824(17) 1.09983(12) 0.09121(6)
H20 H 0.2924 1.0003 0.0808
H21 H 0.1585 1.1215 0.0964
C13 C 0.41458(17) 1.15411(13) 0.15701(6)
H22 H 0.5444 1.1328 0.1518
H23 H 0.4100 1.2536 0.1676
C14 C 0.36136(19) 1.09640(14) 0.21483(7)
H24 H 0.3624 0.9967 0.2036
H25 H 0.2327 1.1199 0.2208
C15 C 0.4903(2) 1.14730(17) 0.28036(7)
H26 H 0.4516 1.1034 0.3149
H27 H 0.4837 1.2453 0.2935
H28 H 0.6185 1.1259 0.2748
C16 C -0.13081(17) 0.62319(12) -0.42775(6)
H29 H -0.1429 0.5608 -0.4714
H30 H -0.2573 0.6478 -0.4192
C17 C -0.03979(18) 0.55253(12) -0.37340(6)
H31 H -0.1116 0.4665 -0.3759
H32 H 0.0877 0.5305 -0.3817
C18 C -0.02912(18) 0.63731(13) -0.30365(6)
H33 H -0.1571 0.6513 -0.2936
H34 H 0.0310 0.7270 -0.3025
C19 C 0.07920(18) 0.57313(13) -0.25001(6)
H35 H 0.0309 0.4785 -0.2554
H36 H 0.2117 0.5716 -0.2562
C20 C 0.06616(17) 0.64750(13) -0.17968(6)
H37 H -0.0663 0.6472 -0.1734
H38 H 0.1113 0.7427 -0.1748
C21 C 0.17725(17) 0.58713(13) -0.12503(6)
H39 H 0.1419 0.4895 -0.1326
H40 H 0.3114 0.5966 -0.1282
C22 C 0.14673(17) 0.65300(12) -0.05514(6)
H41 H 0.0123 0.6444 -0.0522
H42 H 0.1832 0.7505 -0.0475
C23 C 0.25569(17) 0.59235(12) -0.00024(6)
H43 H 0.2228 0.4942 -0.0088
H44 H 0.3905 0.6041 -0.0020
C24 C 0.21871(17) 0.65533(12) 0.06916(6)
H45 H 0.0837 0.6441 0.0707
H46 H 0.2522 0.7534 0.0776
C25 C 0.32582(17) 0.59514(12) 0.12464(6)
H47 H 0.2924 0.4971 0.1164
H48 H 0.4609 0.6064 0.1233
C26 C 0.28714(18) 0.65933(13) 0.19374(6)
H49 H 0.1518 0.6494 0.1948
H50 H 0.3226 0.7571 0.2023
C27 C 0.3913(2) 0.59802(15) 0.24916(7)
H51 H 0.3612 0.6441 0.2921
H52 H 0.5256 0.6087 0.2490
H53 H 0.3539 0.5018 0.2420
N1 N 0.06606(13) 0.95619(10) -0.42212(5)
N2 N -0.01860(13) 0.74619(10) -0.42961(5)
C28 C 0.45179(17) 1.38710(13) -0.43463(6)
C29 C 0.53754(17) 1.17198(12) -0.43510(6)
N3 N 0.45822(18) 1.26138(12) -0.46647(6)
N4 N 0.43597(18) 1.49882(12) -0.41241(6)
N5 N 0.60173(15) 1.08369(11) -0.41313(6)
loop_
_geom_bond_atom_site_label_1
_geom_bond_atom_site_label_2
_geom_bond_site_symmetry_1
_geom_bond_site_symmetry_2
C1 H1 1_555 1_555
C2 H2 1_555 1_555
C3 C2 1_555 1_555
H3 C3 1_555 1_555
C4 H4 1_555 1_555
H5 C4 1_555 1_555
C5 C4 1_555 1_555
H6 C5 1_555 1_555
H7 C5 1_555 1_555
C6 C5 1_555 1_555
H8 C6 1_555 1_555
H9 C6 1_555 1_555
C7 C6 1_555 1_555
H10 C7 1_555 1_555
H11 C7 1_555 1_555
C8 C7 1_555 1_555
H12 C8 1_555 1_555
H13 C8 1_555 1_555
C9 C8 1_555 1_555
H14 C9 1_555 1_555
H15 C9 1_555 1_555
C10 C9 1_555 1_555
H16 C10 1_555 1_555
H17 C10 1_555 1_555
C11 C10 1_555 1_555
H18 C11 1_555 1_555
H19 C11 1_555 1_555
C12 C11 1_555 1_555
H20 C12 1_555 1_555
H21 C12 1_555 1_555
C13 C12 1_555 1_555
H22 C13 1_555 1_555
H23 C13 1_555 1_555
C14 C13 1_555 1_555
H24 C14 1_555 1_555
H25 C14 1_555 1_555
C15 C14 1_555 1_555
H26 C15 1_555 1_555
H27 C15 1_555 1_555
H28 C15 1_555 1_555
C16 H29 1_555 1_555
H30 C16 1_555 1_555
C17 C16 1_555 1_555
H31 C17 1_555 1_555
H32 C17 1_555 1_555
C18 C17 1_555 1_555
H33 C18 1_555 1_555
H34 C18 1_555 1_555
C19 C18 1_555 1_555
H35 C19 1_555 1_555
H36 C19 1_555 1_555
C20 C19 1_555 1_555
H37 C20 1_555 1_555
H38 C20 1_555 1_555
C21 C20 1_555 1_555
H39 C21 1_555 1_555
H40 C21 1_555 1_555
C22 C21 1_555 1_555
H41 C22 1_555 1_555
H42 C22 1_555 1_555
C23 C22 1_555 1_555
H43 C23 1_555 1_555
H44 C23 1_555 1_555
C24 C23 1_555 1_555
H45 C24 1_555 1_555
H46 C24 1_555 1_555
C25 C24 1_555 1_555
H47 C25 1_555 1_555
H48 C25 1_555 1_555
C26 C25 1_555 1_555
H49 C26 1_555 1_555
H50 C26 1_555 1_555
C27 C26 1_555 1_555
H51 C27 1_555 1_555
H52 C27 1_555 1_555
H53 C27 1_555 1_555
C28 N3 1_555 1_555
C29 N3 1_555 1_555
N1 C1 1_555 1_555
N2 C1 1_555 1_555
N4 C28 1_555 1_555
N5 C29 1_555 1_555
C2 N2 1_555 1_555
C3 N1 1_555 1_555
C4 N1 1_555 1_555
C16 N2 1_555 1_555

#END
