
#######################################################################
#
#                 Cambridge Crystallographic Data Centre
#                                CCDC 
#
#######################################################################
#
# If this CIF has been generated from an entry in the Cambridge 
# Structural Database, then it will include bibliographic, chemical, 
# crystal, experimental, refinement or atomic coordinate data resulting 
# from the CCDC's data processing and validation procedures.
#
#######################################################################

data_OVUDIT
_chemical_formula_moiety         'C27 H53 N2 1+,I3 1-'
_chemical_name_systematic        '1,3-Didodecyl-1H-imidazol-3-ium triiodide'
_symmetry_cell_setting           monoclinic
_symmetry_space_group_name_H-M   'C 2/c'
_symmetry_Int_Tables_number      15
_space_group_name_Hall           '-C 2yn'
loop_
_symmetry_equiv_pos_site_id
_symmetry_equiv_pos_as_xyz
1 x,y,z
2 -x,y,1/2-z
3 1/2+x,1/2+y,z
4 1/2-x,1/2+y,1/2-z
5 -x,-y,-z
6 x,-y,1/2+z
7 1/2-x,1/2-y,-z
8 1/2+x,1/2-y,1/2+z
_cell_length_a                   45.831(3)
_cell_length_b                   9.6888(6)
_cell_length_c                   7.3550(5)
_cell_angle_alpha                90
_cell_angle_beta                 99.224(5)
_cell_angle_gamma                90
_cell_volume                     3223.74
_exptl_crystal_colour            red-brown
_exptl_crystal_description       plate
_cell_formula_units_Z            4
loop_
_atom_site_label
_atom_site_type_symbol
_atom_site_fract_x
_atom_site_fract_y
_atom_site_fract_z
I1 I 0.5000 0.374473(10) 0.2500
I2 I 0.441125(2) 0.363782(9) 0.349859(12)
I2A I 0.558875(2) 0.363782(9) 0.150141(12)
N1 N 0.47819(2) 0.13814(10) 0.78985(14)
C1 C 0.5000 0.21790(17) 0.7500
H1 H 0.5000 0.3160 0.7500
C2 C 0.48642(3) 0.00178(12) 0.77573(16)
H2 H 0.4752 -0.0771 0.7979
C3 C 0.45060(3) 0.18863(13) 0.84717(17)
H3 H 0.4481 0.2878 0.8158
H4 H 0.4523 0.1798 0.9825
C4 C 0.42341(3) 0.11045(13) 0.75623(17)
H5 H 0.4255 0.0114 0.7888
H6 H 0.4215 0.1187 0.6207
C5 C 0.39570(3) 0.16850(14) 0.81989(18)
H7 H 0.3977 0.1581 0.9552
H8 H 0.3943 0.2684 0.7913
C6 C 0.36729(3) 0.09769(14) 0.72986(18)
H9 H 0.3687 -0.0022 0.7583
H10 H 0.3652 0.1083 0.5945
C7 C 0.33977(3) 0.15671(14) 0.79515(19)
H11 H 0.3415 0.1421 0.9297
H12 H 0.3391 0.2575 0.7727
C8 C 0.31080(3) 0.09319(13) 0.70106(18)
H13 H 0.3113 -0.0075 0.7240
H14 H 0.3090 0.1076 0.5665
C9 C 0.28370(3) 0.15397(13) 0.76784(18)
H15 H 0.2855 0.1386 0.9023
H16 H 0.2834 0.2549 0.7465
C10 C 0.25452(3) 0.09298(13) 0.67377(18)
H17 H 0.2548 -0.0079 0.6951
H18 H 0.2527 0.1084 0.5393
C11 C 0.22754(3) 0.15470(13) 0.74201(19)
H19 H 0.2294 0.1392 0.8764
H20 H 0.2274 0.2556 0.7209
C12 C 0.19825(3) 0.09459(14) 0.64861(19)
H21 H 0.1963 0.1104 0.5142
H22 H 0.1984 -0.0064 0.6695
C13 C 0.17159(3) 0.15649(16) 0.7179(2)
H23 H 0.1715 0.2575 0.6977
H24 H 0.1735 0.1402 0.8521
C14 C 0.14231(3) 0.09660(19) 0.6231(3)
H25 H 0.1260 0.1403 0.6729
H26 H 0.1420 -0.0031 0.6451
H27 H 0.1401 0.1141 0.4904
N1A N 0.52181(2) 0.13814(10) 0.71015(14)
C2A C 0.51358(3) 0.00178(12) 0.72427(16)
H2A H 0.5248 -0.0771 0.7021
C3A C 0.54940(3) 0.18863(13) 0.65283(17)
H3A H 0.5519 0.2878 0.6842
H4A H 0.5477 0.1798 0.5175
C4A C 0.57659(3) 0.11045(13) 0.74377(17)
H5A H 0.5745 0.0114 0.7112
H6A H 0.5785 0.1187 0.8793
C5A C 0.60430(3) 0.16850(14) 0.68011(18)
H7A H 0.6023 0.1581 0.5448
H8A H 0.6057 0.2684 0.7087
C6A C 0.63271(3) 0.09769(14) 0.77014(18)
H9A H 0.6313 -0.0022 0.7417
H10A H 0.6348 0.1083 0.9055
C7A C 0.66023(3) 0.15671(14) 0.70485(19)
H11A H 0.6585 0.1421 0.5703
H12A H 0.6609 0.2575 0.7273
C8A C 0.68920(3) 0.09319(13) 0.79894(18)
H13A H 0.6887 -0.0075 0.7760
H14A H 0.6910 0.1076 0.9335
C9A C 0.71630(3) 0.15397(13) 0.73216(18)
H15A H 0.7145 0.1386 0.5977
H16A H 0.7166 0.2549 0.7535
C10A C 0.74548(3) 0.09298(13) 0.82623(18)
H17A H 0.7452 -0.0079 0.8049
H18A H 0.7473 0.1084 0.9607
C11A C 0.77246(3) 0.15470(13) 0.75799(19)
H19A H 0.7706 0.1392 0.6236
H20A H 0.7726 0.2556 0.7791
C12A C 0.80175(3) 0.09459(14) 0.85139(19)
H21A H 0.8037 0.1104 0.9858
H22A H 0.8016 -0.0064 0.8305
C13A C 0.82841(3) 0.15649(16) 0.7821(2)
H23A H 0.8285 0.2575 0.8023
H24A H 0.8265 0.1402 0.6479
C14A C 0.85769(3) 0.09660(19) 0.8769(3)
H25A H 0.8740 0.1403 0.8271
H26A H 0.8580 -0.0031 0.8549
H27A H 0.8599 0.1141 1.0096
loop_
_geom_bond_atom_site_label_1
_geom_bond_atom_site_label_2
_geom_bond_site_symmetry_1
_geom_bond_site_symmetry_2
I1 I2 1_555 1_555
N1 C1 1_555 1_555
C1 H1 1_555 1_555
C2 N1 1_555 1_555
H2 C2 1_555 1_555
C3 N1 1_555 1_555
H3 C3 1_555 1_555
H4 C3 1_555 1_555
C4 C3 1_555 1_555
H5 C4 1_555 1_555
H6 C4 1_555 1_555
C5 C4 1_555 1_555
H7 C5 1_555 1_555
H8 C5 1_555 1_555
C6 C5 1_555 1_555
H9 C6 1_555 1_555
H10 C6 1_555 1_555
C7 C6 1_555 1_555
H11 C7 1_555 1_555
H12 C7 1_555 1_555
C8 C7 1_555 1_555
H13 C8 1_555 1_555
H14 C8 1_555 1_555
C9 C8 1_555 1_555
H15 C9 1_555 1_555
H16 C9 1_555 1_555
C10 C9 1_555 1_555
H17 C10 1_555 1_555
H18 C10 1_555 1_555
C11 C10 1_555 1_555
H19 C11 1_555 1_555
H20 C11 1_555 1_555
C12 C11 1_555 1_555
H21 C12 1_555 1_555
H22 C12 1_555 1_555
C13 C12 1_555 1_555
H23 C13 1_555 1_555
H24 C13 1_555 1_555
C14 C13 1_555 1_555
H25 C14 1_555 1_555
H26 C14 1_555 1_555
H27 C14 1_555 1_555
I2A I1 1_555 1_555
N1A C1 1_555 1_555
C2A C2 1_555 1_555
H2A C2A 1_555 1_555
C3A N1A 1_555 1_555
H3A C3A 1_555 1_555
H4A C3A 1_555 1_555
C4A C3A 1_555 1_555
H5A C4A 1_555 1_555
H6A C4A 1_555 1_555
C5A C4A 1_555 1_555
H7A C5A 1_555 1_555
H8A C5A 1_555 1_555
C6A C5A 1_555 1_555
H9A C6A 1_555 1_555
H10A C6A 1_555 1_555
C7A C6A 1_555 1_555
H11A C7A 1_555 1_555
H12A C7A 1_555 1_555
C8A C7A 1_555 1_555
H13A C8A 1_555 1_555
H14A C8A 1_555 1_555
C9A C8A 1_555 1_555
H15A C9A 1_555 1_555
H16A C9A 1_555 1_555
C10A C9A 1_555 1_555
H17A C10A 1_555 1_555
H18A C10A 1_555 1_555
C11A C10A 1_555 1_555
H19A C11A 1_555 1_555
H20A C11A 1_555 1_555
C12A C11A 1_555 1_555
H21A C12A 1_555 1_555
H22A C12A 1_555 1_555
C13A C12A 1_555 1_555
H23A C13A 1_555 1_555
H24A C13A 1_555 1_555
C14A C13A 1_555 1_555
H25A C14A 1_555 1_555
H26A C14A 1_555 1_555
H27A C14A 1_555 1_555
N1A C2A 1_555 1_555

#END
