
#######################################################################
#
#                 Cambridge Crystallographic Data Centre
#                                CCDC 
#
#######################################################################
#
# If this CIF has been generated from an entry in the Cambridge 
# Structural Database, then it will include bibliographic, chemical, 
# crystal, experimental, refinement or atomic coordinate data resulting 
# from the CCDC's data processing and validation procedures.
#
#######################################################################

data_OVUWIN
_chemical_formula_moiety         'C15 H21 N1 O3'
_chemical_name_systematic        
9-hydroxy-14-methyl-6-azatetracyclo[7.6.0.0^1,6^.0^2,12^]pentadecane-5,10-dione
_symmetry_cell_setting           orthorhombic
_symmetry_space_group_name_H-M   'P 21 21 21'
_symmetry_Int_Tables_number      19
_space_group_name_Hall           'P 2ac 2ab'
loop_
_symmetry_equiv_pos_site_id
_symmetry_equiv_pos_as_xyz
1 x,y,z
2 1/2-x,-y,1/2+z
3 1/2+x,1/2-y,-z
4 -x,1/2+y,1/2-z
_cell_length_a                   8.4849(3)
_cell_length_b                   8.4856(3)
_cell_length_c                   37.1900(15)
_cell_angle_alpha                90
_cell_angle_beta                 90
_cell_angle_gamma                90
_cell_volume                     2677.66
_exptl_crystal_colour            colorless
_exptl_crystal_description       block
_cell_formula_units_Z            8
loop_
_atom_site_label
_atom_site_type_symbol
_atom_site_fract_x
_atom_site_fract_y
_atom_site_fract_z
O1 O 1.1225(3) 0.8796(3) 0.20937(7)
O2 O 0.8141(3) 0.6104(2) 0.24129(5)
H1 H 0.8368 0.5494 0.2576
O3 O 0.6324(3) 0.2986(3) 0.21605(7)
N1 N 0.9583(3) 0.7099(3) 0.18168(7)
C1 C 0.9881(4) 0.8492(4) 0.19844(9)
C2 C 0.8564(4) 0.9660(4) 0.20157(10)
H2 H 0.8508 1.0261 0.1794
H3 H 0.8812 1.0390 0.2208
C3 C 0.6935(4) 0.8931(4) 0.20896(9)
H4 H 0.6915 0.8453 0.2326
H5 H 0.6126 0.9737 0.2079
C4 C 0.6647(4) 0.7698(3) 0.18038(8)
H6 H 0.6642 0.8264 0.1574
C5 C 0.7965(3) 0.6492(3) 0.17755(8)
C6 C 0.7814(4) 0.5729(4) 0.13986(8)
H7 H 0.7969 0.6537 0.1218
H8 H 0.8648 0.4956 0.1370
C7 C 0.6225(4) 0.4921(4) 0.13310(8)
H9 H 0.6180 0.3972 0.1481
C8 C 0.4866(4) 0.6000(4) 0.14430(9)
H10 H 0.3897 0.5394 0.1444
H11 H 0.4753 0.6829 0.1265
C9 C 0.5095(4) 0.6753(4) 0.18143(9)
H12 H 0.4227 0.7494 0.1855
C10 C 0.5055(4) 0.5500(4) 0.21147(9)
H13 H 0.5005 0.6033 0.2345
H14 H 0.4099 0.4883 0.2089
C11 C 0.6442(4) 0.4399(4) 0.21166(8)
C12 C 0.7986(4) 0.5243(3) 0.20820(8)
C13 C 0.9534(4) 0.4395(4) 0.20087(10)
H15 H 0.9409 0.3604 0.1823
H16 H 0.9936 0.3897 0.2225
C14 C 1.0627(4) 0.5739(4) 0.18831(10)
H17 H 1.1397 0.5987 0.2067
H18 H 1.1179 0.5443 0.1665
C15 C 0.6071(5) 0.4411(5) 0.09386(10)
H19 H 0.6072 0.5326 0.0787
H20 H 0.5102 0.3844 0.0907
H21 H 0.6942 0.3744 0.0876
O4 O -0.1296(3) 0.6272(3) 0.04082(6)
O5 O 0.1399(2) 0.9357(3) 0.00854(5)
H22 H 0.2019 0.9144 -0.0077
O6 O 0.4518(3) 1.1173(3) 0.03419(7)
N2 N 0.0394(3) 0.7925(3) 0.06829(7)
C16 C 0.2245(4) 0.9510(4) 0.04194(8)
C17 C -0.0983(4) 0.7615(4) 0.05152(9)
C18 C -0.2158(4) 0.8939(4) 0.04838(10)
H23 H -0.2764 0.8991 0.0705
H24 H -0.2883 0.8695 0.0290
C19 C -0.1430(4) 1.0559(4) 0.04128(9)
H25 H -0.0953 1.0583 0.0176
H26 H -0.2237 1.1368 0.0423
C20 C -0.0192(4) 1.0857(3) 0.06980(9)
H27 H -0.0757 1.0865 0.0928
C21 C 0.1008(4) 0.9535(3) 0.07262(8)
C22 C 0.3108(4) 1.1071(4) 0.03854(8)
C23 C 0.2002(4) 1.2441(4) 0.03888(9)
H28 H 0.1471 1.2490 0.0158
H29 H 0.2613 1.3400 0.0415
C24 C 0.0749(4) 1.2401(3) 0.06862(9)
H30 H 0.0009 1.3268 0.0644
C25 C 0.1494(4) 1.2632(4) 0.10563(9)
H31 H 0.2097 1.3603 0.1055
H32 H 0.0661 1.2745 0.1233
C26 C 0.2572(4) 1.1282(4) 0.11703(9)
H33 H 0.3523 1.1329 0.1021
C27 C 0.1769(4) 0.9693(3) 0.11003(8)
H34 H 0.0962 0.9533 0.1281
H35 H 0.2544 0.8862 0.1129
C28 C 0.3080(5) 1.1434(5) 0.15617(10)
H36 H 0.2164 1.1453 0.1713
H37 H 0.3666 1.2392 0.1593
H38 H 0.3730 1.0551 0.1626
C29 C 0.3122(4) 0.7968(4) 0.04914(10)
H39 H 0.3908 0.8093 0.0679
H40 H 0.3626 0.7571 0.0275
C30 C 0.1762(4) 0.6878(4) 0.06143(10)
H41 H 0.1512 0.6117 0.0428
H42 H 0.2052 0.6315 0.0831
loop_
_geom_bond_atom_site_label_1
_geom_bond_atom_site_label_2
_geom_bond_site_symmetry_1
_geom_bond_site_symmetry_2
O1 C1 1_555 1_555
O2 H1 1_555 1_555
O3 C11 1_555 1_555
N1 C1 1_555 1_555
C1 C2 1_555 1_555
C2 H2 1_555 1_555
H3 C2 1_555 1_555
C3 C2 1_555 1_555
H4 C3 1_555 1_555
H5 C3 1_555 1_555
C4 C3 1_555 1_555
H6 C4 1_555 1_555
C5 N1 1_555 1_555
C6 C5 1_555 1_555
H7 C6 1_555 1_555
H8 C6 1_555 1_555
C7 C6 1_555 1_555
H9 C7 1_555 1_555
C8 C7 1_555 1_555
H10 C8 1_555 1_555
H11 C8 1_555 1_555
C9 C4 1_555 1_555
H12 C9 1_555 1_555
C10 C9 1_555 1_555
H13 C10 1_555 1_555
H14 C10 1_555 1_555
C11 C10 1_555 1_555
C12 O2 1_555 1_555
C13 C12 1_555 1_555
H15 C13 1_555 1_555
H16 C13 1_555 1_555
C14 N1 1_555 1_555
H17 C14 1_555 1_555
H18 C14 1_555 1_555
C15 C7 1_555 1_555
H19 C15 1_555 1_555
H20 C15 1_555 1_555
H21 C15 1_555 1_555
O4 C17 1_555 1_555
O5 H22 1_555 1_555
O6 C22 1_555 1_555
N2 C17 1_555 1_555
C16 O5 1_555 1_555
C17 C18 1_555 1_555
C18 H23 1_555 1_555
H24 C18 1_555 1_555
C19 C18 1_555 1_555
H25 C19 1_555 1_555
H26 C19 1_555 1_555
C20 C19 1_555 1_555
H27 C20 1_555 1_555
C21 N2 1_555 1_555
C22 C16 1_555 1_555
C23 C22 1_555 1_555
H28 C23 1_555 1_555
H29 C23 1_555 1_555
C24 C20 1_555 1_555
H30 C24 1_555 1_555
C25 C24 1_555 1_555
H31 C25 1_555 1_555
H32 C25 1_555 1_555
C26 C25 1_555 1_555
H33 C26 1_555 1_555
C27 C21 1_555 1_555
H34 C27 1_555 1_555
H35 C27 1_555 1_555
C28 C26 1_555 1_555
H36 C28 1_555 1_555
H37 C28 1_555 1_555
H38 C28 1_555 1_555
C29 C16 1_555 1_555
H39 C29 1_555 1_555
H40 C29 1_555 1_555
C30 N2 1_555 1_555
H41 C30 1_555 1_555
H42 C30 1_555 1_555
C4 C5 1_555 1_555
C5 C12 1_555 1_555
C8 C9 1_555 1_555
C11 C12 1_555 1_555
C13 C14 1_555 1_555
C16 C21 1_555 1_555
C20 C21 1_555 1_555
C23 C24 1_555 1_555
C26 C27 1_555 1_555
C29 C30 1_555 1_555

#END
