
#######################################################################
#
#                 Cambridge Crystallographic Data Centre
#                                CCDC 
#
#######################################################################
#
# If this CIF has been generated from an entry in the Cambridge 
# Structural Database, then it will include bibliographic, chemical, 
# crystal, experimental, refinement or atomic coordinate data resulting 
# from the CCDC's data processing and validation procedures.
#
#######################################################################

data_OWABOF
_chemical_formula_moiety         'C20 H25 N1 O4'
_chemical_name_systematic        
'methyl 5-benzyl-4-(ethoxycarbonyl)-1-ethyl-2-methyl-1H-pyrrole-3-carboxylate'
_symmetry_cell_setting           monoclinic
_symmetry_space_group_name_H-M   'P 21'
_symmetry_Int_Tables_number      4
_space_group_name_Hall           'P 2yb'
loop_
_symmetry_equiv_pos_site_id
_symmetry_equiv_pos_as_xyz
1 x,y,z
2 -x,1/2+y,-z
_cell_length_a                   10.6905(12)
_cell_length_b                   7.8348(9)
_cell_length_c                   11.6180(13)
_cell_angle_alpha                90
_cell_angle_beta                 102.791(2)
_cell_angle_gamma                90
_cell_volume                     948.951
_exptl_crystal_colour            colorless
_exptl_crystal_description       prismatic
_cell_formula_units_Z            2
loop_
_atom_site_label
_atom_site_type_symbol
_atom_site_fract_x
_atom_site_fract_y
_atom_site_fract_z
N1 N 0.55938(19) -0.2560(2) 0.71096(18)
O1 O 0.8093(2) -0.1527(3) 0.47948(18)
O2 O 0.89974(19) 0.0174(3) 0.62798(17)
O3 O 0.69091(19) 0.2950(3) 0.7110(2)
O4 O 0.89235(16) 0.3382(2) 0.80929(16)
C1 C 0.6169(2) -0.1422(3) 0.7987(2)
C2 C 0.7157(2) -0.0632(3) 0.7630(2)
C3 C 0.7189(2) -0.1315(3) 0.64823(19)
C4 C 0.6202(2) -0.2497(3) 0.6192(2)
C5 C 0.4492(3) -0.3650(4) 0.7143(3)
H1 H 0.4455 -0.3848 0.7959
H2 H 0.4610 -0.4746 0.6793
C6 C 0.3235(3) -0.2888(5) 0.6496(3)
H3 H 0.3103 -0.1814 0.6849
H4 H 0.2547 -0.3651 0.6546
H5 H 0.3257 -0.2714 0.5683
C7 C 0.5817(3) -0.3613(4) 0.5126(3)
H6 H 0.5804 -0.4783 0.5370
H7 H 0.6422 -0.3482 0.4633
H8 H 0.4979 -0.3290 0.4693
C8 C 0.8095(2) -0.0941(3) 0.5757(2)
C9 C 0.9960(3) 0.0609(6) 0.5646(3)
H9 H 1.0467 -0.0381 0.5579
H10 H 1.0502 0.1489 0.6063
H11 H 0.9556 0.1010 0.4873
C10 C 0.8031(2) 0.0693(3) 0.8306(2)
H12 H 0.8913 0.0332 0.8375
H13 H 0.7879 0.0770 0.9097
C11 C 0.7860(2) 0.2436(3) 0.7746(2)
C12 C 0.8862(3) 0.5109(4) 0.7627(3)
H14 H 0.8167 0.5730 0.7848
H15 H 0.8706 0.5079 0.6772
C13 C 1.0091(4) 0.5961(5) 0.8114(4)
H16 H 1.0231 0.6002 0.8959
H17 H 1.0069 0.7101 0.7808
H18 H 1.0774 0.5336 0.7894
C14 C 0.5700(2) -0.1195(3) 0.9096(2)
H19 H 0.6339 -0.0558 0.9655
H20 H 0.5625 -0.2311 0.9436
C15 C 0.4421(2) -0.0282(3) 0.8945(2)
C16 C 0.3535(3) -0.0806(4) 0.9581(2)
H21 H 0.3735 -0.1706 1.0111
C17 C 0.2364(3) -0.0012(5) 0.9439(3)
H22 H 0.1775 -0.0389 0.9864
C18 C 0.2058(3) 0.1338(4) 0.8669(3)
H23 H 0.1265 0.1875 0.8572
C19 C 0.2938(3) 0.1886(4) 0.8042(2)
H24 H 0.2742 0.2803 0.7525
C20 C 0.4107(3) 0.1079(3) 0.8180(2)
H25 H 0.4693 0.1455 0.7752
loop_
_geom_bond_atom_site_label_1
_geom_bond_atom_site_label_2
_geom_bond_site_symmetry_1
_geom_bond_site_symmetry_2
N1 C1 1_555 1_555
O1 C8 1_555 1_555
O2 C8 1_555 1_555
O3 C11 1_555 1_555
O4 C11 1_555 1_555
C1 C2 1_555 1_555
C2 C3 1_555 1_555
C3 C4 1_555 1_555
C4 N1 1_555 1_555
C5 N1 1_555 1_555
H1 C5 1_555 1_555
H2 C5 1_555 1_555
C6 C5 1_555 1_555
H3 C6 1_555 1_555
H4 C6 1_555 1_555
H5 C6 1_555 1_555
C7 C4 1_555 1_555
H6 C7 1_555 1_555
H7 C7 1_555 1_555
H8 C7 1_555 1_555
C8 C3 1_555 1_555
C9 O2 1_555 1_555
H9 C9 1_555 1_555
H10 C9 1_555 1_555
H11 C9 1_555 1_555
C10 C2 1_555 1_555
H12 C10 1_555 1_555
H13 C10 1_555 1_555
C11 C10 1_555 1_555
C12 O4 1_555 1_555
H14 C12 1_555 1_555
H15 C12 1_555 1_555
C13 C12 1_555 1_555
H16 C13 1_555 1_555
H17 C13 1_555 1_555
H18 C13 1_555 1_555
C14 C1 1_555 1_555
H19 C14 1_555 1_555
H20 C14 1_555 1_555
C15 C14 1_555 1_555
C16 C15 1_555 1_555
H21 C16 1_555 1_555
C17 C16 1_555 1_555
H22 C17 1_555 1_555
C18 C17 1_555 1_555
H23 C18 1_555 1_555
C19 C18 1_555 1_555
H24 C19 1_555 1_555
C20 C15 1_555 1_555
H25 C20 1_555 1_555
C19 C20 1_555 1_555

#END
