
#######################################################################
#
#                 Cambridge Crystallographic Data Centre
#                                CCDC 
#
#######################################################################
#
# If this CIF has been generated from an entry in the Cambridge 
# Structural Database, then it will include bibliographic, chemical, 
# crystal, experimental, refinement or atomic coordinate data resulting 
# from the CCDC's data processing and validation procedures.
#
#######################################################################

data_OWAGAV
_chemical_formula_moiety         'C7 H10 Cl1 N3 O2'
_chemical_name_systematic        
1-(2-Chloropropyl)-2-methyl-5-nitro-1H-imidazole
_symmetry_cell_setting           triclinic
_symmetry_space_group_name_H-M   'P -1'
_symmetry_Int_Tables_number      2
_space_group_name_Hall           '-P 1'
loop_
_symmetry_equiv_pos_site_id
_symmetry_equiv_pos_as_xyz
1 x,y,z
2 -x,-y,-z
_cell_length_a                   6.5339(7)
_cell_length_b                   7.5487(8)
_cell_length_c                   9.7238(10)
_cell_angle_alpha                92.894(2)
_cell_angle_beta                 96.165(2)
_cell_angle_gamma                102.710(2)
_cell_volume                     463.784
_exptl_crystal_colour            colorless
_exptl_crystal_description       prismatic
_cell_formula_units_Z            2
loop_
_atom_site_label
_atom_site_type_symbol
_atom_site_fract_x
_atom_site_fract_y
_atom_site_fract_z
Cl1 Cl 0.02738(8) 0.75822(7) -0.00043(5)
O1 O -0.0773(3) 0.19591(19) 0.36432(17)
O2 O -0.2848(2) 0.3601(2) 0.27845(16)
N1 N 0.3913(2) 0.6623(2) 0.38246(16)
N2 N 0.0585(2) 0.66629(19) 0.30702(13)
N3 N -0.1100(2) 0.3405(2) 0.32490(14)
C1 C 0.2709(3) 0.4921(3) 0.38206(19)
H1 H 0.3207 0.3912 0.4088
C2 C 0.0665(3) 0.4901(2) 0.33687(16)
C3 C 0.2596(3) 0.7640(2) 0.33739(17)
C4 C 0.3268(3) 0.9638(3) 0.3264(2)
H2 H 0.2648 1.0268 0.3931
H3 H 0.2809 0.9925 0.2347
H4 H 0.4780 1.0011 0.3441
C5 C -0.1220(3) 0.7370(2) 0.25066(17)
H5 H -0.0854 0.8689 0.2645
H6 H -0.2402 0.6930 0.3018
C6 C -0.1901(3) 0.6823(2) 0.09772(18)
H7 H -0.2332 0.5492 0.0849
C7 C -0.3765(3) 0.7604(4) 0.0456(2)
H8 H -0.4970 0.7070 0.0902
H9 H -0.4090 0.7337 -0.0529
H10 H -0.3415 0.8900 0.0665
loop_
_geom_bond_atom_site_label_1
_geom_bond_atom_site_label_2
_geom_bond_site_symmetry_1
_geom_bond_site_symmetry_2
Cl1 C6 1_555 1_555
O1 N3 1_555 1_555
O2 N3 1_555 1_555
N1 C1 1_555 1_555
N2 C2 1_555 1_555
N3 C2 1_555 1_555
C1 H1 1_555 1_555
C2 C1 1_555 1_555
C3 N1 1_555 1_555
C4 C3 1_555 1_555
H2 C4 1_555 1_555
H3 C4 1_555 1_555
H4 C4 1_555 1_555
C5 N2 1_555 1_555
H5 C5 1_555 1_555
H6 C5 1_555 1_555
C6 C5 1_555 1_555
H7 C6 1_555 1_555
C7 C6 1_555 1_555
H8 C7 1_555 1_555
H9 C7 1_555 1_555
H10 C7 1_555 1_555
N2 C3 1_555 1_555

#END
