
#######################################################################
#
#                 Cambridge Crystallographic Data Centre
#                                CCDC 
#
#######################################################################
#
# If this CIF has been generated from an entry in the Cambridge 
# Structural Database, then it will include bibliographic, chemical, 
# crystal, experimental, refinement or atomic coordinate data resulting 
# from the CCDC's data processing and validation procedures.
#
#######################################################################

data_OWALII
_chemical_formula_moiety         'C18 H12 N6'
_chemical_name_systematic        
3,6-bis(pyridin-2-yl)-4-(pyrimidin-5-yl)pyridazine
_symmetry_cell_setting           orthorhombic
_symmetry_space_group_name_H-M   'P c a 21'
_symmetry_Int_Tables_number      29
_space_group_name_Hall           'P 2c -2ac'
loop_
_symmetry_equiv_pos_site_id
_symmetry_equiv_pos_as_xyz
1 x,y,z
2 -x,-y,1/2+z
3 1/2+x,-y,z
4 1/2-x,y,1/2+z
_cell_length_a                   11.0611(6)
_cell_length_b                   18.2383(10)
_cell_length_c                   7.3490(4)
_cell_angle_alpha                90
_cell_angle_beta                 90
_cell_angle_gamma                90
_cell_volume                     1482.56
_exptl_crystal_colour            colorless
_exptl_crystal_description       blocks
_cell_formula_units_Z            4
loop_
_atom_site_label
_atom_site_type_symbol
_atom_site_fract_x
_atom_site_fract_y
_atom_site_fract_z
N1 N 0.13501(9) 0.25717(5) 0.27040(16)
N2 N 0.19824(9) 0.20030(6) 0.20850(15)
N3 N 0.17381(9) 0.43376(6) 0.47722(18)
N4 N 0.48609(10) 0.14364(6) 0.06821(17)
N5 N 0.70882(9) 0.30032(6) 0.40144(19)
N6 N 0.67163(10) 0.17940(6) 0.51098(18)
C1 C 0.11592(11) 0.37620(7) 0.40548(18)
C2 C 0.37509(11) 0.13342(7) 0.13712(17)
C3 C 0.51206(11) 0.24755(6) 0.37221(18)
C4 C 0.59298(11) 0.30472(7) 0.3509(2)
C5 C 0.31854(11) 0.19773(7) 0.22768(16)
C6 C 0.10588(12) 0.48904(8) 0.5397(2)
C7 C 0.53444(12) 0.08801(8) -0.0256(2)
C8 C 0.38353(10) 0.25355(6) 0.31898(19)
C9 C -0.01935(13) 0.48956(7) 0.5338(2)
C10 C 0.47765(13) 0.02118(8) -0.0508(2)
C11 C 0.74238(12) 0.23717(7) 0.4757(2)
C12 C 0.31775(12) 0.31433(7) 0.36964(17)
C13 C -0.07750(12) 0.43022(7) 0.4577(2)
C14 C 0.36416(13) 0.01084(7) 0.0233(2)
C15 C 0.19306(11) 0.31423(7) 0.34310(17)
C16 C -0.00970(12) 0.37230(7) 0.3918(2)
C17 C 0.31069(11) 0.06815(7) 0.1175(2)
C18 C 0.55672(11) 0.18610(7) 0.4607(2)
H1 H 0.5677(13) 0.3490(8) 0.298(2)
H2 H 0.1496(14) 0.5312(9) 0.594(3)
H3 H 0.6129(15) 0.0974(8) -0.076(2)
H4 H -0.0615(13) 0.5328(8) 0.585(2)
H5 H 0.5193(13) -0.0176(8) -0.117(2)
H6 H 0.8268(13) 0.2309(8) 0.516(2)
H7 H 0.3549(12) 0.3537(7) 0.432(2)
H8 H -0.1652(13) 0.4259(7) 0.451(3)
H9 H 0.3198(13) -0.0348(9) 0.008(2)
H10 H -0.0473(14) 0.3295(9) 0.340(3)
H11 H 0.2301(14) 0.0634(7) 0.167(2)
H12 H 0.5037(13) 0.1469(8) 0.488(3)
loop_
_geom_bond_atom_site_label_1
_geom_bond_atom_site_label_2
_geom_bond_site_symmetry_1
_geom_bond_site_symmetry_2
N1 N2 1_555 1_555
N2 C5 1_555 1_555
N3 C1 1_555 1_555
N4 C2 1_555 1_555
N5 C4 1_555 1_555
N6 C11 1_555 1_555
C1 C15 1_555 1_555
C2 C5 1_555 1_555
C3 C4 1_555 1_555
C4 H1 1_555 1_555
C5 C8 1_555 1_555
C6 N3 1_555 1_555
C7 N4 1_555 1_555
C8 C3 1_555 1_555
C9 C6 1_555 1_555
C10 C7 1_555 1_555
C11 N5 1_555 1_555
C12 C8 1_555 1_555
C13 C9 1_555 1_555
C14 C10 1_555 1_555
C15 N1 1_555 1_555
C16 C1 1_555 1_555
C17 C2 1_555 1_555
C18 N6 1_555 1_555
H2 C6 1_555 1_555
H3 C7 1_555 1_555
H4 C9 1_555 1_555
H5 C10 1_555 1_555
H6 C11 1_555 1_555
H7 C12 1_555 1_555
H8 C13 1_555 1_555
H9 C14 1_555 1_555
H10 C16 1_555 1_555
H11 C17 1_555 1_555
H12 C18 1_555 1_555
C3 C18 1_555 1_555
C12 C15 1_555 1_555
C13 C16 1_555 1_555
C14 C17 1_555 1_555

#END
