
#######################################################################
#
#                 Cambridge Crystallographic Data Centre
#                                CCDC 
#
#######################################################################
#
# If this CIF has been generated from an entry in the Cambridge 
# Structural Database, then it will include bibliographic, chemical, 
# crystal, experimental, refinement or atomic coordinate data resulting 
# from the CCDC's data processing and validation procedures.
#
#######################################################################

data_OWALOP
_chemical_formula_moiety         'C17 H6 F17 I1 N2 O1'
_chemical_name_systematic        
2-(heptadecafluorooctyl)-3-iodo-6-methoxyquinoxaline
_symmetry_cell_setting           triclinic
_symmetry_space_group_name_H-M   'P -1'
_symmetry_Int_Tables_number      2
_space_group_name_Hall           '-P 1'
loop_
_symmetry_equiv_pos_site_id
_symmetry_equiv_pos_as_xyz
1 x,y,z
2 -x,-y,-z
_cell_length_a                   5.3794(12)
_cell_length_b                   8.0586(17)
_cell_length_c                   26.339(6)
_cell_angle_alpha                81.743(4)
_cell_angle_beta                 86.002(4)
_cell_angle_gamma                76.923(4)
_cell_volume                     1099.85
_exptl_crystal_colour            colorless
_exptl_crystal_description       block
_cell_formula_units_Z            2
loop_
_atom_site_label
_atom_site_type_symbol
_atom_site_fract_x
_atom_site_fract_y
_atom_site_fract_z
C1 C 0.4906(13) 0.5659(9) 0.1314(3)
C2 C 0.2528(12) 0.3808(9) 0.1139(3)
C3 C 0.1126(14) 0.3271(9) 0.0784(3)
H1 H 0.1055 0.3771 0.0443
C4 C -0.0130(14) 0.1982(9) 0.0961(3)
C5 C -0.207(2) 0.2210(15) 0.0157(4)
H2 H -0.2706 0.3419 0.0166
H3 H -0.3316 0.1750 0.0011
H4 H -0.0513 0.2028 -0.0048
C6 C -0.0073(16) 0.1230(10) 0.1479(3)
H5 H -0.0996 0.0390 0.1590
C7 C 0.1315(17) 0.1723(10) 0.1818(3)
H6 H 0.1403 0.1194 0.2156
C8 C 0.2623(13) 0.3044(8) 0.1652(3)
C9 C 0.5077(13) 0.4866(9) 0.1842(3)
C10 C 0.6386(13) 0.5368(10) 0.2271(3)
C11 C 0.4517(13) 0.6656(9) 0.2575(3)
C12 C 0.5721(14) 0.7613(10) 0.2923(3)
C13 C 0.3814(14) 0.8581(11) 0.3305(3)
C14 C 0.4764(16) 0.9940(12) 0.3565(4)
C15 C 0.2950(17) 1.0890(14) 0.3935(4)
C16 C 0.380(2) 1.2244(16) 0.4180(5)
C17 C 0.216(3) 1.322(2) 0.4542(6)
F1 F 0.8404(8) 0.6075(7) 0.20895(19)
F2 F 0.7369(10) 0.3967(6) 0.26027(19)
F3 F 0.2958(9) 0.5772(6) 0.2861(2)
F4 F 0.3101(9) 0.7814(6) 0.22366(18)
F5 F 0.6809(11) 0.8766(7) 0.2615(2)
F6 F 0.7523(10) 0.6519(8) 0.3190(2)
F7 F 0.3164(13) 0.7463(8) 0.3673(2)
F8 F 0.1691(10) 0.9397(8) 0.3052(2)
F9 F 0.541(2) 1.1065(11) 0.3191(3)
F10 F 0.6920(13) 0.9173(13) 0.3782(4)
F11 F 0.205(2) 0.9879(12) 0.4267(4)
F12 F 0.0944(15) 1.1807(15) 0.3663(4)
F13 F 0.5084(17) 1.3168(11) 0.3870(3)
F14 F 0.5788(16) 1.1291(12) 0.4504(3)
F15 F 0.083(2) 1.2440(15) 0.4852(5)
F16 F 0.305(2) 1.4256(17) 0.4745(5)
F17 F 0.031(3) 1.4334(18) 0.4255(7)
I1 I 0.64043(10) 0.78567(6) 0.103597(18)
N1 N 0.3732(12) 0.5153(8) 0.0980(2)
N2 N 0.3952(11) 0.3588(7) 0.2000(2)
O1 O -0.1595(12) 0.1359(8) 0.0670(2)
loop_
_geom_bond_atom_site_label_1
_geom_bond_atom_site_label_2
_geom_bond_site_symmetry_1
_geom_bond_site_symmetry_2
C1 C9 1_555 1_555
C2 C3 1_555 1_555
C3 H1 1_555 1_555
C4 C3 1_555 1_555
C5 H2 1_555 1_555
H3 C5 1_555 1_555
H4 C5 1_555 1_555
C6 C4 1_555 1_555
H5 C6 1_555 1_555
C7 C6 1_555 1_555
H6 C7 1_555 1_555
C8 C2 1_555 1_555
C9 C10 1_555 1_555
C10 C11 1_555 1_555
C11 C12 1_555 1_555
C12 C13 1_555 1_555
C13 C14 1_555 1_555
C14 C15 1_555 1_555
C15 C16 1_555 1_555
C16 C17 1_555 1_555
C17 F15 1_555 1_555
F1 C10 1_555 1_555
F2 C10 1_555 1_555
F3 C11 1_555 1_555
F4 C11 1_555 1_555
F5 C12 1_555 1_555
F6 C12 1_555 1_555
F7 C13 1_555 1_555
F8 C13 1_555 1_555
F9 C14 1_555 1_555
F10 C14 1_555 1_555
F11 C15 1_555 1_555
F12 C15 1_555 1_555
F13 C16 1_555 1_555
F14 C16 1_555 1_555
F16 C17 1_555 1_555
F17 C17 1_555 1_555
I1 C1 1_555 1_555
N1 C1 1_555 1_555
N2 C8 1_555 1_555
O1 C4 1_555 1_555
C2 N1 1_555 1_555
C5 O1 1_555 1_555
C7 C8 1_555 1_555
C9 N2 1_555 1_555

#END
