
#######################################################################
#
#                 Cambridge Crystallographic Data Centre
#                                CCDC 
#
#######################################################################
#
# If this CIF has been generated from an entry in the Cambridge 
# Structural Database, then it will include bibliographic, chemical, 
# crystal, experimental, refinement or atomic coordinate data resulting 
# from the CCDC's data processing and validation procedures.
#
#######################################################################

data_OWAWUG
_chemical_formula_moiety         'C24 H35 Br1 N2 O2 Si1'
_chemical_name_systematic        
((3aR*,8bS*)-7-Bromo-2-(t-butyldimethylsilyloxy)-4-methyl-1,3a,4,8b-tetrahydrocyclopenta[b]indol-3-yl)(piperidin-1-yl)methanone
_symmetry_cell_setting           triclinic
_symmetry_space_group_name_H-M   'P -1'
_symmetry_Int_Tables_number      2
_space_group_name_Hall           '-P 1'
loop_
_symmetry_equiv_pos_site_id
_symmetry_equiv_pos_as_xyz
1 x,y,z
2 -x,-y,-z
_cell_length_a                   11.7811(6)
_cell_length_b                   12.1808(6)
_cell_length_c                   17.8426(13)
_cell_angle_alpha                80.372(6)
_cell_angle_beta                 88.311(6)
_cell_angle_gamma                87.675(6)
_cell_volume                     2521.66
_exptl_crystal_colour            colorless
_exptl_crystal_description       block
_cell_formula_units_Z            4
_chemical_properties_physical    Heat-sensitive
_exptl_crystal_recrystallization_method Hexanes
loop_
_atom_site_label
_atom_site_type_symbol
_atom_site_fract_x
_atom_site_fract_y
_atom_site_fract_z
Br1 Br 0.94671(6) 0.05157(5) 0.19098(4)
Si1 Si 1.33873(15) 0.63967(16) 0.08575(11)
O1 O 1.2053(3) 0.6051(3) 0.1040(2)
O2 O 0.9626(4) 0.7982(3) 0.1819(2)
N1 N 0.9660(4) 0.7415(3) 0.0673(3)
C1 C 0.9830(4) 0.3672(4) 0.2405(3)
C2 C 1.1374(4) 0.5715(4) 0.1651(3)
N2 N 0.8696(4) 0.5213(3) 0.2478(3)
C3 C 1.0375(4) 0.6186(4) 0.1805(3)
C4 C 0.7884(4) 0.3580(4) 0.2039(3)
H1 H 0.7164 0.3910 0.1950
C5 C 0.8115(4) 0.2504(4) 0.1924(3)
H2 H 0.7544 0.2102 0.1759
C6 C 0.9857(5) 0.7263(4) 0.1425(3)
C7 C 1.0054(4) 0.2599(4) 0.2291(3)
H3 H 1.0775 0.2270 0.2372
C8 C 0.9184(4) 0.2012(4) 0.2052(3)
C9 C 1.1697(4) 0.4712(4) 0.2229(3)
H4 H 1.2296 0.4876 0.2550
H5 H 1.1941 0.4085 0.1986
C10 C 1.0586(4) 0.4485(4) 0.2683(3)
H6 H 1.0728 0.4266 0.3227
C11 C 0.8739(4) 0.4160(4) 0.2288(3)
C12 C 0.9845(5) 0.5577(4) 0.2530(3)
H7 H 0.9899 0.6004 0.2946
C13 C 0.9755(5) 0.6559(5) 0.0197(4)
H8 H 1.0105 0.5887 0.0480
H9 H 1.0237 0.6808 -0.0244
C14 C 0.7733(5) 0.5962(5) 0.2362(4)
H10 H 0.7605 0.6165 0.1827
H11 H 0.7869 0.6619 0.2573
H12 H 0.7077 0.5608 0.2608
C15 C 0.9113(7) 0.8454(5) 0.0299(4)
H13 H 0.9577 0.8777 -0.0134
H14 H 0.9043 0.8981 0.0650
C16 C 0.8616(6) 0.6311(5) -0.0055(4)
H15 H 0.8162 0.5989 0.0383
H16 H 0.8699 0.5769 -0.0396
C17 C 1.3708(7) 0.6028(7) -0.0093(5)
H17 H 1.3766 0.5232 -0.0053
H18 H 1.4415 0.6340 -0.0286
H19 H 1.3111 0.6319 -0.0432
C18 C 1.3445(8) 0.7911(7) 0.0811(5)
C19 C 0.7966(7) 0.8234(6) 0.0039(5)
H20 H 0.7635 0.8918 -0.0240
H21 H 0.7478 0.7997 0.0480
C20 C 1.4726(8) 0.8248(9) 0.0709(6)
H22 H 1.5110 0.8017 0.1179
H23 H 1.4760 0.9042 0.0564
H24 H 1.5089 0.7890 0.0320
C21 C 0.8016(7) 0.7356(6) -0.0457(5)
H25 H 0.8420 0.7628 -0.0929
H26 H 0.7252 0.7188 -0.0578
C22 C 1.2723(10) 0.8495(7) 0.0116(6)
H27 H 1.2979 0.8218 -0.0335
H28 H 1.2815 0.9286 0.0046
H29 H 1.1936 0.8338 0.0215
C23 C 1.2947(10) 0.8266(10) 0.1540(7)
H30 H 1.2132 0.8276 0.1528
H31 H 1.3192 0.8996 0.1576
H32 H 1.3203 0.7746 0.1973
C24 C 1.4350(7) 0.5646(10) 0.1592(6)
H33 H 1.4263 0.5970 0.2046
H34 H 1.5122 0.5705 0.1407
H35 H 1.4162 0.4876 0.1703
Br2 Br 0.53754(6) 0.87954(6) 0.84855(4)
Si2 Si 0.17220(13) 0.74469(15) 0.49473(11)
O3 O 0.3123(3) 0.7559(3) 0.48987(19)
O4 O 0.5819(4) 0.6263(3) 0.3941(2)
N3 N 0.5353(4) 0.8090(3) 0.3820(2)
C25 C 0.3970(4) 0.6999(4) 0.5301(3)
C26 C 0.5025(4) 0.6843(4) 0.5033(3)
N4 N 0.6802(3) 0.6610(4) 0.5807(3)
C27 C 0.5426(4) 0.7051(4) 0.4227(3)
C28 C 0.7255(4) 0.7981(5) 0.6643(3)
H36 H 0.7935 0.8189 0.6391
C29 C 0.6593(4) 0.7206(4) 0.6394(3)
C30 C 0.5001(4) 0.6094(4) 0.6369(3)
H37 H 0.5024 0.5347 0.6677
C31 C 0.5558(4) 0.6921(4) 0.6764(3)
C32 C 0.5209(4) 0.7383(4) 0.7376(3)
H38 H 0.4522 0.7188 0.7623
C33 C 0.5739(4) 0.6130(4) 0.5629(3)
H39 H 0.5878 0.5380 0.5506
C34 C 0.6892(5) 0.8444(5) 0.7270(4)
H40 H 0.7336 0.8958 0.7445
C35 C 0.3793(4) 0.6452(4) 0.6109(3)
H41 H 0.3317 0.5813 0.6142
H42 H 0.3446 0.6971 0.6413
C36 C 0.5880(5) 0.8148(4) 0.7634(3)
C37 C 0.5742(5) 0.8296(5) 0.3036(3)
H43 H 0.5168 0.8737 0.2728
H44 H 0.5858 0.7593 0.2852
C38 C 0.5134(5) 0.9103(4) 0.4141(3)
H45 H 0.4906 0.8912 0.4672
H46 H 0.4519 0.9541 0.3874
C39 C 0.6842(5) 0.8909(5) 0.2959(3)
H47 H 0.7080 0.9067 0.2428
H48 H 0.7432 0.8448 0.3237
C40 C 0.6194(5) 0.9779(5) 0.4071(4)
H49 H 0.6015 1.0488 0.4235
H50 H 0.6765 0.9386 0.4405
C41 C 0.6669(5) 0.9988(5) 0.3270(3)
H51 H 0.7390 1.0347 0.3262
H52 H 0.6152 1.0485 0.2949
C42 C 0.7678(5) 0.6904(5) 0.5241(4)
H53 H 0.7508 0.7633 0.4962
H54 H 0.7718 0.6372 0.4899
H55 H 0.8394 0.6902 0.5484
C43 C -0.0061(7) 0.8051(11) 0.3945(6)
H56 H -0.0284 0.7290 0.4040
H57 H -0.0242 0.8379 0.3433
H58 H -0.0460 0.8458 0.4294
C44 C 0.1303(7) 0.6011(7) 0.5259(7)
H59 H 0.1817 0.5514 0.5040
H60 H 0.0546 0.5929 0.5098
H61 H 0.1327 0.5835 0.5804
C45 C 0.1201(6) 0.8092(9) 0.4051(5)
C46 C 0.1118(8) 0.8281(11) 0.5663(7)
H62 H 0.1466 0.8030 0.6144
H63 H 0.0312 0.8187 0.5715
H64 H 0.1264 0.9054 0.5496
C47 C 0.1629(8) 0.9158(11) 0.3738(7)
H65 H 0.1612 0.9622 0.4124
H66 H 0.1165 0.9501 0.3324
H67 H 0.2396 0.9067 0.3557
C48 C 0.1792(8) 0.7245(11) 0.3537(7)
H68 H 0.2303 0.6734 0.3842
H69 H 0.2206 0.7660 0.3120
H70 H 0.1217 0.6837 0.3345
loop_
_geom_bond_atom_site_label_1
_geom_bond_atom_site_label_2
_geom_bond_site_symmetry_1
_geom_bond_site_symmetry_2
Br1 C8 1_555 1_555
Si1 O1 1_555 1_555
O1 C2 1_555 1_555
O2 C6 1_555 1_555
N1 C6 1_555 1_555
C1 C7 1_555 1_555
C2 C3 1_555 1_555
N2 C11 1_555 1_555
C3 C6 1_555 1_555
C4 H1 1_555 1_555
C5 C4 1_555 1_555
H2 C5 1_555 1_555
C7 H3 1_555 1_555
C8 C5 1_555 1_555
C9 C2 1_555 1_555
H4 C9 1_555 1_555
H5 C9 1_555 1_555
C10 C1 1_555 1_555
H6 C10 1_555 1_555
C11 C1 1_555 1_555
C12 N2 1_555 1_555
H7 C12 1_555 1_555
C13 N1 1_555 1_555
H8 C13 1_555 1_555
H9 C13 1_555 1_555
C14 N2 1_555 1_555
H10 C14 1_555 1_555
H11 C14 1_555 1_555
H12 C14 1_555 1_555
C15 N1 1_555 1_555
H13 C15 1_555 1_555
H14 C15 1_555 1_555
C16 C13 1_555 1_555
H15 C16 1_555 1_555
H16 C16 1_555 1_555
C17 Si1 1_555 1_555
H17 C17 1_555 1_555
H18 C17 1_555 1_555
H19 C17 1_555 1_555
C18 Si1 1_555 1_555
C19 C15 1_555 1_555
H20 C19 1_555 1_555
H21 C19 1_555 1_555
C20 C18 1_555 1_555
H22 C20 1_555 1_555
H23 C20 1_555 1_555
H24 C20 1_555 1_555
C21 C16 1_555 1_555
H25 C21 1_555 1_555
H26 C21 1_555 1_555
C22 C18 1_555 1_555
H27 C22 1_555 1_555
H28 C22 1_555 1_555
H29 C22 1_555 1_555
C23 C18 1_555 1_555
H30 C23 1_555 1_555
H31 C23 1_555 1_555
H32 C23 1_555 1_555
C24 Si1 1_555 1_555
H33 C24 1_555 1_555
H34 C24 1_555 1_555
H35 C24 1_555 1_555
Br2 C36 1_555 1_555
Si2 O3 1_555 1_555
O3 C25 1_555 1_555
O4 C27 1_555 1_555
N3 C27 1_555 1_555
C25 C26 1_555 1_555
C26 C27 1_555 1_555
N4 C29 1_555 1_555
C28 H36 1_555 1_555
C29 C28 1_555 1_555
C30 H37 1_555 1_555
C31 C29 1_555 1_555
C32 C31 1_555 1_555
H38 C32 1_555 1_555
C33 C26 1_555 1_555
H39 C33 1_555 1_555
C34 C28 1_555 1_555
H40 C34 1_555 1_555
C35 C25 1_555 1_555
H41 C35 1_555 1_555
H42 C35 1_555 1_555
C36 C32 1_555 1_555
C37 N3 1_555 1_555
H43 C37 1_555 1_555
H44 C37 1_555 1_555
C38 N3 1_555 1_555
H45 C38 1_555 1_555
H46 C38 1_555 1_555
C39 C37 1_555 1_555
H47 C39 1_555 1_555
H48 C39 1_555 1_555
C40 C38 1_555 1_555
H49 C40 1_555 1_555
H50 C40 1_555 1_555
C41 C39 1_555 1_555
H51 C41 1_555 1_555
H52 C41 1_555 1_555
C42 N4 1_555 1_555
H53 C42 1_555 1_555
H54 C42 1_555 1_555
H55 C42 1_555 1_555
C43 H56 1_555 1_555
H57 C43 1_555 1_555
H58 C43 1_555 1_555
C44 Si2 1_555 1_555
H59 C44 1_555 1_555
H60 C44 1_555 1_555
H61 C44 1_555 1_555
C45 Si2 1_555 1_555
C46 Si2 1_555 1_555
H62 C46 1_555 1_555
H63 C46 1_555 1_555
H64 C46 1_555 1_555
C47 C45 1_555 1_555
H65 C47 1_555 1_555
H66 C47 1_555 1_555
H67 C47 1_555 1_555
C48 C45 1_555 1_555
H68 C48 1_555 1_555
H69 C48 1_555 1_555
H70 C48 1_555 1_555
C3 C12 1_555 1_555
C4 C11 1_555 1_555
C7 C8 1_555 1_555
C9 C10 1_555 1_555
C10 C12 1_555 1_555
C19 C21 1_555 1_555
N4 C33 1_555 1_555
C30 C31 1_555 1_555
C30 C33 1_555 1_555
C30 C35 1_555 1_555
C34 C36 1_555 1_555
C40 C41 1_555 1_555
C43 C45 1_555 1_555

#END
