
#######################################################################
#
#                 Cambridge Crystallographic Data Centre
#                                CCDC 
#
#######################################################################
#
# If this CIF has been generated from an entry in the Cambridge 
# Structural Database, then it will include bibliographic, chemical, 
# crystal, experimental, refinement or atomic coordinate data resulting 
# from the CCDC's data processing and validation procedures.
#
#######################################################################

data_OWEZOH
_chemical_formula_moiety         'C28 H36 I4 S4 Si4'
_chemical_name_systematic        
(3,4,9,10-tetrakis(iodo)tristhieno[3',4':3,4;3'',4'':5,6;3''',4''':7,8]cyclo-octa[1,2-c]thiene-1,6,7,12-tetrayl)tetrakis(trimethylsilane)
_symmetry_cell_setting           triclinic
_symmetry_space_group_name_H-M   'P -1'
_symmetry_Int_Tables_number      2
_space_group_name_Hall           '-P 1'
loop_
_symmetry_equiv_pos_site_id
_symmetry_equiv_pos_as_xyz
1 x,y,z
2 -x,-y,-z
_cell_length_a                   10.775(2)
_cell_length_b                   11.514(3)
_cell_length_c                   18.195(4)
_cell_angle_alpha                87.775(4)
_cell_angle_beta                 86.310(4)
_cell_angle_gamma                67.205(3)
_cell_volume                     2076.48
_exptl_crystal_colour            colorless
_exptl_crystal_description       block
_cell_formula_units_Z            2
loop_
_atom_site_label
_atom_site_type_symbol
_atom_site_fract_x
_atom_site_fract_y
_atom_site_fract_z
I1 I -0.36726(4) 0.87146(4) 0.12317(2)
I2 I 0.36248(4) 0.86277(5) 0.28376(3)
I3 I 0.36565(5) 0.58627(5) 0.42422(3)
I4 I -0.27717(5) 0.52811(5) 0.22017(3)
S1 S -0.05834(13) 0.80834(14) 0.05959(7)
S2 S 0.33987(15) 0.42338(13) 0.28646(8)
S3 S 0.04076(14) 1.03095(13) 0.31183(9)
S4 S -0.25320(18) 0.64303(18) 0.37766(9)
Si1 Si -0.26448(15) 1.09897(15) 0.31459(10)
Si2 Si 0.24950(16) 0.72293(18) 0.05613(9)
Si3 Si 0.21836(17) 0.35725(14) 0.15202(10)
Si4 Si -0.1571(2) 0.7822(2) 0.49082(9)
C1 C 0.1853(4) 0.6576(4) 0.2887(3)
C2 C 0.1564(4) 0.6051(4) 0.2248(2)
C3 C 0.0554(4) 0.6849(4) 0.1720(2)
C4 C -0.1398(4) 0.7069(4) 0.2641(3)
C5 C -0.1134(4) 0.7647(4) 0.3263(3)
C6 C -0.0871(4) 0.7245(4) 0.1900(3)
C7 C -0.0336(4) 0.8455(4) 0.3184(2)
C8 C -0.0880(5) 0.9755(5) 0.3213(3)
C9 C 0.0881(5) 0.7252(5) 0.1046(3)
C10 C 0.1637(5) 0.8823(5) 0.3032(3)
C11 C 0.2298(5) 0.4772(4) 0.2159(3)
C12 C 0.1118(5) 0.7908(4) 0.3058(3)
C13 C -0.1599(5) 0.7907(5) 0.1322(3)
C14 C -0.2163(5) 0.6384(5) 0.2843(3)
C15 C -0.1666(6) 0.7386(6) 0.3927(3)
C16 C 0.2848(5) 0.5687(5) 0.3271(3)
C17 C 0.4017(6) 0.6179(7) 0.1018(4)
H1 H 0.4061 0.5330 0.1019
H2 H 0.3978 0.6444 0.1516
H3 H 0.4803 0.6218 0.0756
C18 C -0.3939(6) 1.0313(7) 0.3268(4)
H4 H -0.3931 0.9974 0.3758
H5 H -0.3751 0.9654 0.2919
H6 H -0.4809 1.0959 0.3189
C19 C -0.2657(9) 1.1661(8) 0.2195(5)
H7 H -0.3527 1.2307 0.2117
H8 H -0.2466 1.1006 0.1843
H9 H -0.1983 1.2016 0.2136
C20 C 0.0951(11) 0.4287(8) 0.0823(5)
H10 H 0.0918 0.3641 0.0516
H11 H 0.1210 0.4872 0.0526
H12 H 0.0079 0.4723 0.1060
C21 C -0.2924(9) 1.2238(8) 0.3829(6)
H13 H -0.2918 1.1892 0.4318
H14 H -0.3780 1.2914 0.3760
H15 H -0.2220 1.2554 0.3761
C22 C 0.2404(11) 0.8877(9) 0.0572(7)
H16 H 0.3212 0.8914 0.0336
H17 H 0.2316 0.9147 0.1072
H18 H 0.1638 0.9421 0.0313
C23 C 0.2506(10) 0.6753(14) -0.0400(4)
H19 H 0.2558 0.5902 -0.0403
H20 H 0.3272 0.6807 -0.0676
H21 H 0.1694 0.7304 -0.0619
C24 C 0.3873(10) 0.2634(10) 0.1124(7)
H22 H 0.3821 0.2012 0.0805
H23 H 0.4458 0.2223 0.1513
H24 H 0.4225 0.3177 0.0847
C25 C 0.1660(17) 0.2490(12) 0.2095(7)
H25 H 0.1580 0.1861 0.1791
H26 H 0.0804 0.2950 0.2344
H27 H 0.2319 0.2090 0.2452
C26 C -0.0249(18) 0.8321(19) 0.5011(9)
H28 H -0.0243 0.8530 0.5517
H29 H -0.0374 0.9051 0.4704
H30 H 0.0593 0.7658 0.4870
C27 C -0.311(3) 0.829(3) 0.5355(15)
H31 H -0.3036 0.8495 0.5854
H32 H -0.3433 0.7627 0.5355
H33 H -0.3720 0.9024 0.5111
C28 C -0.079(3) 0.639(2) 0.5468(13)
H34 H -0.0743 0.6613 0.5965
H35 H 0.0106 0.5914 0.5267
H36 H -0.1318 0.5881 0.5464
loop_
_geom_bond_atom_site_label_1
_geom_bond_atom_site_label_2
_geom_bond_site_symmetry_1
_geom_bond_site_symmetry_2
I1 C13 1_555 1_555
I2 C10 1_555 1_555
I3 C16 1_555 1_555
I4 C14 1_555 1_555
S1 C9 1_555 1_555
S2 C11 1_555 1_555
S3 C8 1_555 1_555
S4 C14 1_555 1_555
Si1 C8 1_555 1_555
Si2 C9 1_555 1_555
Si3 C11 1_555 1_555
Si4 C15 1_555 1_555
C1 C2 1_555 1_555
C2 C3 1_555 1_555
C3 C6 1_555 1_555
C4 C5 1_555 1_555
C5 C7 1_555 1_555
C6 C4 1_555 1_555
C7 C8 1_555 1_555
C9 C3 1_555 1_555
C10 S3 1_555 1_555
C11 C2 1_555 1_555
C12 C1 1_555 1_555
C13 S1 1_555 1_555
C14 C4 1_555 1_555
C15 S4 1_555 1_555
C16 S2 1_555 1_555
C17 Si2 1_555 1_555
H1 C17 1_555 1_555
H2 C17 1_555 1_555
H3 C17 1_555 1_555
C18 Si1 1_555 1_555
H4 C18 1_555 1_555
H5 C18 1_555 1_555
H6 C18 1_555 1_555
C19 Si1 1_555 1_555
H7 C19 1_555 1_555
H8 C19 1_555 1_555
H9 C19 1_555 1_555
C20 Si3 1_555 1_555
H10 C20 1_555 1_555
H11 C20 1_555 1_555
H12 C20 1_555 1_555
C21 Si1 1_555 1_555
H13 C21 1_555 1_555
H14 C21 1_555 1_555
H15 C21 1_555 1_555
C22 Si2 1_555 1_555
H16 C22 1_555 1_555
H17 C22 1_555 1_555
H18 C22 1_555 1_555
C23 Si2 1_555 1_555
H19 C23 1_555 1_555
H20 C23 1_555 1_555
H21 C23 1_555 1_555
C24 Si3 1_555 1_555
H22 C24 1_555 1_555
H23 C24 1_555 1_555
H24 C24 1_555 1_555
C25 Si3 1_555 1_555
H25 C25 1_555 1_555
H26 C25 1_555 1_555
H27 C25 1_555 1_555
C26 Si4 1_555 1_555
H28 C26 1_555 1_555
H29 C26 1_555 1_555
H30 C26 1_555 1_555
C27 Si4 1_555 1_555
H31 C27 1_555 1_555
H32 C27 1_555 1_555
H33 C27 1_555 1_555
C28 Si4 1_555 1_555
H34 C28 1_555 1_555
H35 C28 1_555 1_555
H36 C28 1_555 1_555
C1 C16 1_555 1_555
C5 C15 1_555 1_555
C6 C13 1_555 1_555
C7 C12 1_555 1_555
C10 C12 1_555 1_555

#END
