
#######################################################################
#
#                 Cambridge Crystallographic Data Centre
#                                CCDC 
#
#######################################################################
#
# If this CIF has been generated from an entry in the Cambridge 
# Structural Database, then it will include bibliographic, chemical, 
# crystal, experimental, refinement or atomic coordinate data resulting 
# from the CCDC's data processing and validation procedures.
#
#######################################################################

data_OWIFIK
_chemical_formula_moiety         'C14 H8 N2 O8,C14 H7 N2 O8 1-,C12 H9 N2 1+'
_chemical_name_systematic        
"1,10-phenanthrolin-1-ium (6-(carboxymethyl)-1,3,5,7-tetraoxo-3,5,6,7-tetrahydropyrrolo[3,4-f]isoindol-2(1H)-yl)acetate 2,2'-(1,3,5,7-tetraoxo-5,7-dihydropyrrolo[3,4-f]isoindole-2,6(1H,3H)-diyl)diacetic acid"
_symmetry_cell_setting           triclinic
_symmetry_space_group_name_H-M   'P 1'
_symmetry_Int_Tables_number      1
_space_group_name_Hall           'P 1'
loop_
_symmetry_equiv_pos_site_id
_symmetry_equiv_pos_as_xyz
1 x,y,z
_cell_length_a                   7.439(3)
_cell_length_b                   11.076(4)
_cell_length_c                   12.688(4)
_cell_angle_alpha                106.418(6)
_cell_angle_beta                 98.413(6)
_cell_angle_gamma                102.298(6)
_cell_volume                     955.701
_exptl_crystal_colour            pink
_exptl_crystal_description       block
_cell_formula_units_Z            1
loop_
_atom_site_label
_atom_site_type_symbol
_atom_site_fract_x
_atom_site_fract_y
_atom_site_fract_z
C1 C 1.0884(8) 0.7473(6) 0.6587(5)
C2 C 0.6820(7) 0.8295(5) 0.7661(4)
H1 H 0.5824 0.7864 0.7900
C3 C 0.8319(7) 1.1571(5) 0.7427(4)
O1 O 0.4409(5) 1.0267(4) 0.8338(3)
O2 O 0.9318(5) 1.2436(4) 0.7223(4)
O3 O 1.2294(6) 0.7643(4) 0.6206(4)
C4 C 0.7042(6) 0.9552(5) 0.7649(4)
C5 C 0.9698(7) 0.8375(5) 0.6926(5)
N1 N 0.6679(6) 1.1622(4) 0.7824(4)
O4 O 0.3524(5) 1.3384(4) 0.7014(4)
H2 H 0.2504 1.3137 0.6565
C6 C 0.8540(7) 1.0215(5) 0.7312(4)
C7 C 0.8198(7) 0.7710(5) 0.7289(4)
O5 O 0.7541(6) 0.5559(4) 0.7502(4)
N2 N 1.0074(6) 0.6327(5) 0.6811(4)
C8 C 0.9935(7) 0.9646(6) 0.6935(5)
H3 H 1.0938 1.0089 0.6710
C9 C 0.5814(7) 1.0450(5) 0.7984(4)
C10 C 0.8447(7) 0.6385(6) 0.7221(4)
C11 C 1.0835(8) 0.5205(6) 0.6640(4)
H4 H 1.0436 0.4744 0.7148
H5 H 1.2200 0.5516 0.6850
C12 C 1.0282(8) 0.4247(5) 0.5464(5)
O6 O 1.0953(7) 0.3327(4) 0.5266(4)
O7 O 0.3820(6) 1.1423(4) 0.6092(4)
C13 C 0.4288(7) 1.2431(5) 0.6908(5)
O8 O 0.9042(7) 0.4433(5) 0.4741(4)
H6 H 0.8786 0.3831 0.4144
C14 C 0.5811(8) 1.2686(6) 0.7904(5)
H7 H 0.6772 1.3473 0.7988
H8 H 0.5293 1.2841 0.8573
O9 O 0.3835(5) 0.7262(4) -0.0864(3)
O10 O 0.0733(6) 1.1984(4) 0.0018(4)
C15 C 0.0045(7) 0.9817(5) 0.0212(4)
C16 C 0.2404(7) 0.4849(6) -0.0461(4)
H9 H 0.3029 0.4752 -0.1088
H10 H 0.1437 0.4043 -0.0611
C17 C 0.2400(7) 0.7070(5) -0.0511(4)
O11 O -0.4084(5) 0.9864(4) 0.1238(4)
O12 O -0.1054(6) 0.5098(4) 0.0289(4)
C18 C -0.0209(7) 1.1127(6) 0.0276(4)
C19 C 0.1215(7) 0.7980(5) -0.0165(4)
C20 C -0.1450(7) 0.9154(5) 0.0559(4)
O13 O 0.4645(6) 0.4121(4) 0.0525(4)
H11 H 0.5419 0.4269 0.1109
C21 C -0.0304(6) 0.7313(5) 0.0181(4)
N3 N -0.1849(6) 1.1203(5) 0.0693(4)
C22 C -0.1653(7) 0.7880(5) 0.0553(5)
H12 H -0.2645 0.7439 0.0788
N4 N 0.1545(6) 0.5913(4) -0.0365(4)
O14 O 0.4168(7) 0.6039(5) 0.1430(4)
O15 O -0.3316(6) 1.3943(4) 0.2291(3)
C23 C 0.3841(8) 0.5100(6) 0.0625(5)
C24 C 0.1417(7) 0.9264(5) -0.0163(4)
H13 H 0.2404 0.9710 -0.0398
C25 C -0.0067(8) 0.5984(6) 0.0070(5)
C26 C -0.2647(8) 1.2305(5) 0.0867(5)
H14 H -0.3978 1.1990 0.0507
H15 H -0.2048 1.2884 0.0497
O16 O -0.1429(7) 1.2828(5) 0.2819(4)
C27 C -0.2668(7) 1.0052(5) 0.0889(5)
C28 C -0.2440(7) 1.3089(6) 0.2098(5)
N5 N -0.2247(10) 0.9926(9) 0.4400(5)
C29 C -0.1614(11) 0.7745(8) 0.3808(6)
C30 C -0.4240(17) 0.7992(19) 0.4606(9)
H16 H -0.5334 0.7645 0.4812
C31 C -0.0423(11) 0.7014(8) 0.3346(7)
H17 H -0.0660 0.6137 0.3290
C32 C -0.1212(8) 0.9089(9) 0.3937(5)
C33 C 0.0400(10) 0.9659(7) 0.3602(4)
C34 C -0.3756(13) 0.9302(15) 0.4746(7)
H18 H -0.4490 0.9804 0.5096
C35 C 0.1556(8) 0.8911(6) 0.3110(5)
N6 N 0.0875(11) 1.0972(7) 0.3724(5)
C36 C 0.3082(10) 0.9520(7) 0.2757(6)
H19 H 0.3854 0.9039 0.2425
C37 C 0.1047(12) 0.7558(7) 0.2986(6)
H20 H 0.1760 0.7033 0.2642
C38 C -0.3164(13) 0.7144(13) 0.4164(8)
H21 H -0.3454 0.6267 0.4113
C39 C 0.2366(14) 1.1558(7) 0.3404(6)
H22 H 0.2656 1.2454 0.3529
C40 C 0.3449(12) 1.0840(8) 0.2898(6)
H23 H 0.4450 1.1237 0.2643
H24 H 0.037(12) 1.153(7) 0.424(6)
loop_
_geom_bond_atom_site_label_1
_geom_bond_atom_site_label_2
_geom_bond_site_symmetry_1
_geom_bond_site_symmetry_2
C1 O3 1_555 1_555
C2 H1 1_555 1_555
C3 O2 1_555 1_555
O1 C9 1_555 1_555
C4 C2 1_555 1_555
C5 C1 1_555 1_555
N1 C3 1_555 1_555
O4 H2 1_555 1_555
C6 C3 1_555 1_555
C7 C2 1_555 1_555
O5 C10 1_555 1_555
N2 C1 1_555 1_555
C8 C5 1_555 1_555
H3 C8 1_555 1_555
C9 C4 1_555 1_555
C10 C7 1_555 1_555
C11 N2 1_555 1_555
H4 C11 1_555 1_555
H5 C11 1_555 1_555
C12 C11 1_555 1_555
O6 C12 1_555 1_555
O7 C13 1_555 1_555
C13 O4 1_555 1_555
O8 C12 1_555 1_555
H6 O8 1_555 1_555
C14 N1 1_555 1_555
H7 C14 1_555 1_555
H8 C14 1_555 1_555
O9 C17 1_555 1_555
O10 C18 1_555 1_555
C15 C18 1_555 1_555
C16 H9 1_555 1_555
H10 C16 1_555 1_555
C17 C19 1_555 1_555
O11 C27 1_555 1_555
O12 C25 1_555 1_555
C18 N3 1_555 1_555
C19 C21 1_555 1_555
C20 C15 1_555 1_555
O13 H11 1_555 1_555
C21 C22 1_555 1_555
N3 C26 1_555 1_555
C22 C20 1_555 1_555
H12 C22 1_555 1_555
N4 C16 1_555 1_555
O14 C23 1_555 1_555
O15 C28 1_555 1_555
C23 C16 1_555 1_555
C24 C15 1_555 1_555
H13 C24 1_555 1_555
C25 C21 1_555 1_555
C26 H14 1_555 1_555
H15 C26 1_555 1_555
O16 C28 1_555 1_555
C27 C20 1_555 1_555
C28 C26 1_555 1_555
N5 C32 1_555 1_555
C29 C31 1_555 1_555
C30 H16 1_555 1_555
C31 H17 1_555 1_555
C32 C29 1_555 1_555
C33 C32 1_555 1_555
C34 N5 1_555 1_555
H18 C34 1_555 1_555
C35 C33 1_555 1_555
N6 C33 1_555 1_555
C36 C35 1_555 1_555
H19 C36 1_555 1_555
C37 C31 1_555 1_555
H20 C37 1_555 1_555
C38 C29 1_555 1_555
H21 C38 1_555 1_555
C39 N6 1_555 1_555
H22 C39 1_555 1_555
C40 C36 1_555 1_555
H23 C40 1_555 1_555
H24 N6 1_555 1_555
C4 C6 1_555 1_555
C5 C7 1_555 1_555
N1 C9 1_555 1_555
C6 C8 1_555 1_555
N2 C10 1_555 1_555
C13 C14 1_555 1_555
C17 N4 1_555 1_555
C19 C24 1_555 1_555
O13 C23 1_555 1_555
N3 C27 1_555 1_555
N4 C25 1_555 1_555
C30 C34 1_555 1_555
C30 C38 1_555 1_555
C35 C37 1_555 1_555
C39 C40 1_555 1_555

#END
