
#######################################################################
#
#                 Cambridge Crystallographic Data Centre
#                                CCDC 
#
#######################################################################
#
# If this CIF has been generated from an entry in the Cambridge 
# Structural Database, then it will include bibliographic, chemical, 
# crystal, experimental, refinement or atomic coordinate data resulting 
# from the CCDC's data processing and validation procedures.
#
#######################################################################

data_OWILEN
_chemical_formula_moiety         'C50 H56 Li1 N8 O4 1+,C1 H4 O1,N1 O3 1-'
_chemical_name_systematic        
'(methanol)-(49-(methoxy)-1,25,30,30,39,39-hexamethyl-5,21,44,45,46,47,48,50-octaazanonacyclo[23.9.9.1^6,10^.1^11,15^.1^16,20^.1^26,29^.1^31,34^.1^35,38^.1^40,43^]pentaconta-6(50),7,9,11(49),12,14,16(48),17,19,26,28,31,33,35,37,40,42-heptadecaene-4,22-dione)-lithium nitrate methanol solvate'
_symmetry_cell_setting           monoclinic
_symmetry_space_group_name_H-M   'P 21/c'
_symmetry_Int_Tables_number      14
_space_group_name_Hall           '-P 2ybc'
loop_
_symmetry_equiv_pos_site_id
_symmetry_equiv_pos_as_xyz
1 x,y,z
2 -x,1/2+y,1/2-z
3 -x,-y,-z
4 x,1/2-y,1/2+z
_cell_length_a                   14.7928(9)
_cell_length_b                   12.3477(7)
_cell_length_c                   27.0073(16)
_cell_angle_alpha                90
_cell_angle_beta                 98.997(2)
_cell_angle_gamma                90
_cell_volume                     4872.38
_exptl_crystal_colour            colorless
_exptl_crystal_description       block
_cell_formula_units_Z            4
_exptl_crystal_recrystallization_method chloroform/acetonitrile/methanol
loop_
_atom_site_label
_atom_site_type_symbol
_atom_site_fract_x
_atom_site_fract_y
_atom_site_fract_z
C1 C 0.1322(3) 0.5687(3) 0.35710(14)
C2 C 0.0772(3) 0.4682(3) 0.34020(14)
C3 C 0.0043(3) 0.4549(3) 0.30294(15)
H1 H -0.0226 0.5096 0.2807
C4 C -0.0243(3) 0.3455(4) 0.30322(15)
H2 H -0.0730 0.3139 0.2808
C5 C 0.0304(3) 0.2929(3) 0.34136(14)
C6 C 0.0277(3) 0.1788(3) 0.36135(15)
C7 C 0.0999(3) 0.1073(3) 0.34453(14)
C8 C 0.0946(3) 0.0100(3) 0.31977(15)
H3 H 0.0402 -0.0282 0.3071
C9 C 0.1853(3) -0.0233(3) 0.31643(14)
H4 H 0.2020 -0.0878 0.3009
C10 C 0.2443(3) 0.0523(3) 0.33915(14)
C11 C 0.3472(3) 0.0579(3) 0.35073(14)
C12 C 0.3806(3) 0.1573(3) 0.32633(14)
C13 C 0.3947(3) 0.1744(3) 0.27782(14)
H5 H 0.3873 0.1216 0.2519
C14 C 0.4216(3) 0.2825(3) 0.27272(14)
H6 H 0.4355 0.3151 0.2430
C15 C 0.4243(3) 0.3323(3) 0.31819(14)
C16 C 0.4489(3) 0.4468(3) 0.33413(14)
C17 C 0.3660(3) 0.5199(3) 0.32832(14)
C18 C 0.3519(3) 0.6221(3) 0.30780(15)
H7 H 0.3946 0.6630 0.2926
C19 C 0.2619(3) 0.6550(3) 0.31347(15)
H8 H 0.2335 0.7216 0.3024
C20 C 0.2230(3) 0.5733(3) 0.33789(13)
C21 C 0.1550(3) 0.5737(3) 0.41528(13)
H9 H 0.2010 0.5171 0.4267
H10 H 0.1836 0.6447 0.4249
C22 C 0.0733(3) 0.5586(4) 0.44334(15)
H11 H 0.0222 0.6060 0.4285
H12 H 0.0520 0.4825 0.4402
C23 C 0.1020(3) 0.5867(4) 0.49777(16)
C24 C 0.1693(3) 0.5066(3) 0.57971(14)
C25 C 0.1942(3) 0.6017(4) 0.60650(17)
H13 H 0.1912 0.6701 0.5903
C26 C 0.2234(3) 0.5924(4) 0.65763(17)
H14 H 0.2399 0.6552 0.6773
C27 C 0.2283(3) 0.4924(3) 0.67959(15)
H15 H 0.2478 0.4855 0.7147
C28 C 0.2046(3) 0.4012(3) 0.65048(14)
C29 C 0.2101(3) 0.2908(3) 0.67238(14)
C30 C 0.1721(3) 0.2694(4) 0.71570(14)
H16 H 0.1448 0.3265 0.7318
C31 C 0.1740(3) 0.1658(4) 0.73510(15)
H17 H 0.1490 0.1521 0.7648
C32 C 0.2123(3) 0.0815(4) 0.71139(14)
H18 H 0.2112 0.0102 0.7245
C33 C 0.2528(3) 0.0995(3) 0.66822(14)
C34 C 0.2516(3) 0.2053(3) 0.65038(13)
C35 C 0.2968(3) 0.0082(3) 0.64506(14)
C36 C 0.3390(3) -0.0736(3) 0.67560(15)
H19 H 0.3400 -0.0709 0.7108
C37 C 0.3795(3) -0.1587(3) 0.65435(16)
H20 H 0.4079 -0.2158 0.6747
C38 C 0.3783(3) -0.1599(3) 0.60368(15)
H21 H 0.4054 -0.2180 0.5882
C39 C 0.3371(3) -0.0753(3) 0.57552(14)
C40 C 0.3215(3) -0.0002(3) 0.48790(15)
C41 C 0.3393(3) -0.0323(3) 0.43618(15)
H22 H 0.2816 -0.0584 0.4162
H23 H 0.3838 -0.0927 0.4393
C42 C 0.3767(3) 0.0620(3) 0.40849(14)
H24 H 0.4443 0.0614 0.4161
H25 H 0.3552 0.1310 0.4213
C43 C 0.3890(3) -0.0439(3) 0.33011(16)
H26 H 0.3696 -0.0481 0.2938
H27 H 0.3681 -0.1086 0.3460
H28 H 0.4559 -0.0397 0.3374
C44 C 0.5149(3) 0.4901(4) 0.29993(17)
H29 H 0.4846 0.4883 0.2650
H30 H 0.5699 0.4447 0.3037
H31 H 0.5321 0.5648 0.3094
C45 C 0.4987(3) 0.4513(4) 0.38873(15)
H32 H 0.5168 0.5261 0.3974
H33 H 0.5532 0.4052 0.3922
H34 H 0.4575 0.4254 0.4113
C46 C 0.0755(3) 0.6692(3) 0.33797(15)
H35 H 0.0650 0.6694 0.3012
H36 H 0.1090 0.7349 0.3503
H37 H 0.0166 0.6673 0.3502
C47 C -0.0666(3) 0.1305(4) 0.34197(19)
H38 H -0.1139 0.1727 0.3550
H39 H -0.0687 0.0552 0.3533
H40 H -0.0776 0.1326 0.3053
C48 C 0.0412(3) 0.1799(3) 0.41946(15)
H41 H 0.1016 0.2098 0.4325
H42 H 0.0369 0.1058 0.4319
H43 H -0.0063 0.2248 0.4307
C49 C 0.3890(4) 0.2515(5) 0.61981(19)
H44 H 0.3991 0.3120 0.6435
H45 H 0.4120 0.2709 0.5889
H46 H 0.4214 0.1873 0.6347
C50 C 0.0428(5) 0.1464(6) 0.5642(3)
H47 H -0.0134 0.1755 0.5447
H48 H 0.0416 0.1574 0.6000
H49 H 0.0473 0.0688 0.5573
Li1 Li 0.2410(6) 0.1461(7) 0.5499(3)
N1 N 0.0938(2) 0.3685(3) 0.36307(11)
H50 H 0.1384 0.3549 0.3879
N2 N 0.1918(2) 0.1313(2) 0.35622(12)
H51 H 0.2138 0.1897 0.3725
N3 N 0.3986(2) 0.2554(2) 0.35073(11)
H52 H 0.3944 0.2673 0.3824
N4 N 0.2871(2) 0.4920(3) 0.34634(11)
H53 H 0.2787 0.4303 0.3613
N5 N 0.1369(2) 0.5045(3) 0.52786(12)
H54 H 0.1397 0.4413 0.5131
N6 N 0.1733(2) 0.4091(3) 0.60081(12)
N7 N 0.2948(2) 0.0081(3) 0.59466(11)
N8 N 0.3422(2) -0.0780(3) 0.52366(12)
H55 H 0.3617 -0.1395 0.5128
O1 O 0.0968(4) 0.6777(3) 0.51351(13)
O2 O 0.29431(19) 0.2290(2) 0.60876(9)
O3 O 0.2885(2) 0.0881(2) 0.49568(10)
O4 O 0.1213(2) 0.2021(3) 0.55000(14)
H56 H 0.1118(18) 0.2721(8) 0.552(2)
N9 N 0.3061(2) 0.3208(3) 0.46981(13)
O5 O 0.2686(2) 0.3200(2) 0.42578(10)
O6 O 0.2624(5) 0.3268(4) 0.50261(17)
O7 O 0.3903(3) 0.3092(4) 0.4745(3)
C51 C 0.6105(4) 0.3617(5) 0.5209(2)
H57 H 0.6683 0.3645 0.5076
H58 H 0.6229 0.3650 0.5576
H59 H 0.5721 0.4233 0.5080
O8 O 0.5648(2) 0.2649(3) 0.50591(17)
H60 H 0.5093 0.2779 0.4958
loop_
_geom_bond_atom_site_label_1
_geom_bond_atom_site_label_2
_geom_bond_site_symmetry_1
_geom_bond_site_symmetry_2
C1 C2 1_555 1_555
C2 C3 1_555 1_555
C3 H1 1_555 1_555
C4 C3 1_555 1_555
H2 C4 1_555 1_555
C5 C4 1_555 1_555
C6 C5 1_555 1_555
C7 C6 1_555 1_555
C8 C7 1_555 1_555
H3 C8 1_555 1_555
C9 C8 1_555 1_555
H4 C9 1_555 1_555
C10 C9 1_555 1_555
C11 C10 1_555 1_555
C12 C11 1_555 1_555
C13 C12 1_555 1_555
H5 C13 1_555 1_555
C14 C13 1_555 1_555
H6 C14 1_555 1_555
C15 C14 1_555 1_555
C16 C15 1_555 1_555
C17 C16 1_555 1_555
C18 C17 1_555 1_555
H7 C18 1_555 1_555
C19 C18 1_555 1_555
H8 C19 1_555 1_555
C20 C1 1_555 1_555
C21 C1 1_555 1_555
H9 C21 1_555 1_555
H10 C21 1_555 1_555
C22 C21 1_555 1_555
H11 C22 1_555 1_555
H12 C22 1_555 1_555
C23 C22 1_555 1_555
C24 C25 1_555 1_555
C25 H13 1_555 1_555
C26 C25 1_555 1_555
H14 C26 1_555 1_555
C27 C26 1_555 1_555
H15 C27 1_555 1_555
C28 C27 1_555 1_555
C29 C28 1_555 1_555
C30 C29 1_555 1_555
H16 C30 1_555 1_555
C31 C30 1_555 1_555
H17 C31 1_555 1_555
C32 C31 1_555 1_555
H18 C32 1_555 1_555
C33 C32 1_555 1_555
C34 C29 1_555 1_555
C35 C33 1_555 1_555
C36 C35 1_555 1_555
H19 C36 1_555 1_555
C37 C36 1_555 1_555
H20 C37 1_555 1_555
C38 C37 1_555 1_555
H21 C38 1_555 1_555
C39 C38 1_555 1_555
C40 C41 1_555 1_555
C41 H22 1_555 1_555
H23 C41 1_555 1_555
C42 C11 1_555 1_555
H24 C42 1_555 1_555
H25 C42 1_555 1_555
C43 C11 1_555 1_555
H26 C43 1_555 1_555
H27 C43 1_555 1_555
H28 C43 1_555 1_555
C44 C16 1_555 1_555
H29 C44 1_555 1_555
H30 C44 1_555 1_555
H31 C44 1_555 1_555
C45 C16 1_555 1_555
H32 C45 1_555 1_555
H33 C45 1_555 1_555
H34 C45 1_555 1_555
C46 C1 1_555 1_555
H35 C46 1_555 1_555
H36 C46 1_555 1_555
H37 C46 1_555 1_555
C47 C6 1_555 1_555
H38 C47 1_555 1_555
H39 C47 1_555 1_555
H40 C47 1_555 1_555
C48 C6 1_555 1_555
H41 C48 1_555 1_555
H42 C48 1_555 1_555
H43 C48 1_555 1_555
C49 H44 1_555 1_555
H45 C49 1_555 1_555
H46 C49 1_555 1_555
C50 H47 1_555 1_555
H48 C50 1_555 1_555
H49 C50 1_555 1_555
Li1 N7 1_555 1_555
N1 C2 1_555 1_555
H50 N1 1_555 1_555
N2 C7 1_555 1_555
H51 N2 1_555 1_555
N3 C12 1_555 1_555
H52 N3 1_555 1_555
N4 C17 1_555 1_555
H53 N4 1_555 1_555
N5 C23 1_555 1_555
H54 N5 1_555 1_555
N6 C24 1_555 1_555
N7 C35 1_555 1_555
N8 C39 1_555 1_555
H55 N8 1_555 1_555
O1 C23 1_555 1_555
O2 C34 1_555 1_555
O3 C40 1_555 1_555
O4 C50 1_555 1_555
H56 O4 1_555 1_555
N9 O5 1_555 1_555
O6 N9 1_555 1_555
O7 N9 1_555 1_555
C51 H57 1_555 1_555
H58 C51 1_555 1_555
H59 C51 1_555 1_555
O8 C51 1_555 1_555
H60 O8 1_555 1_555
C5 N1 1_555 1_555
C10 N2 1_555 1_555
C15 N3 1_555 1_555
C19 C20 1_555 1_555
C20 N4 1_555 1_555
C24 N5 1_555 1_555
C28 N6 1_555 1_555
C33 C34 1_555 1_555
C39 N7 1_555 1_555
C40 N8 1_555 1_555
C41 C42 1_555 1_555
C49 O2 1_555 1_555
Li1 O2 1_555 1_555
Li1 O3 1_555 1_555
Li1 O4 1_555 1_555

#END
