
#######################################################################
#
#                 Cambridge Crystallographic Data Centre
#                                CCDC 
#
#######################################################################
#
# If this CIF has been generated from an entry in the Cambridge 
# Structural Database, then it will include bibliographic, chemical, 
# crystal, experimental, refinement or atomic coordinate data resulting 
# from the CCDC's data processing and validation procedures.
#
#######################################################################

data_OWONUL
_chemical_formula_moiety         'C10 H12 N4 S2'
_chemical_name_systematic        
1-methyl-4,6,10,12-tetra-azatricyclo[7.3.1.0^2,7^]trideca-2,6-diene-5,11-dithione
_symmetry_cell_setting           monoclinic
_symmetry_space_group_name_H-M   'P 21/n'
_symmetry_Int_Tables_number      14
_space_group_name_Hall           '-P 2yn'
loop_
_symmetry_equiv_pos_site_id
_symmetry_equiv_pos_as_xyz
1 x,y,z
2 1/2-x,1/2+y,1/2-z
3 -x,-y,-z
4 1/2+x,1/2-y,1/2+z
_cell_length_a                   6.9274(14)
_cell_length_b                   10.676(2)
_cell_length_c                   14.978(3)
_cell_angle_alpha                90
_cell_angle_beta                 98.18(3)
_cell_angle_gamma                90
_cell_volume                     1096.46
_exptl_crystal_colour            yellow
_exptl_crystal_description       Block
_cell_formula_units_Z            4
loop_
_atom_site_label
_atom_site_type_symbol
_atom_site_fract_x
_atom_site_fract_y
_atom_site_fract_z
C1 C 0.3412(4) 0.3721(2) 0.62050(15)
C2 C 0.6721(4) 0.4366(2) 0.62562(16)
C3 C 0.6816(3) 0.4731(2) 0.71341(15)
C4 C 0.5129(4) 0.4520(2) 0.75338(15)
C5 C 0.9736(5) 0.6135(3) 0.7080(2)
C6 C 0.8664(4) 0.5288(2) 0.76654(15)
C7 C 0.8153(4) 0.5965(2) 0.84958(18)
C8 C 0.7079(4) 0.5049(2) 0.90242(16)
C9 C 0.5057(4) 0.4802(3) 0.85156(16)
C10 C 0.9675(4) 0.3559(2) 0.87067(15)
H1 H 0.501(5) 0.362(3) 0.5355(19)
H2 H 0.781(4) 0.441(2) 0.5947(16)
H3 H 0.889(5) 0.679(3) 0.684(2)
H4 H 1.014(5) 0.566(3) 0.657(2)
H5 H 1.095(5) 0.646(3) 0.7456(18)
H6 H 0.723(4) 0.669(3) 0.8324(18)
H7 H 0.940(5) 0.624(3) 0.8847(19)
H8 H 0.696(4) 0.539(2) 0.9600(19)
H9 H 0.422(5) 0.562(3) 0.8526(19)
H10 H 0.442(4) 0.409(3) 0.8803(19)
H11 H 1.083(4) 0.401(2) 0.7699(16)
H12 H 0.800(5) 0.341(3) 0.954(2)
N1 N 0.3477(3) 0.40465(18) 0.70833(13)
N2 N 0.5071(3) 0.38776(19) 0.58249(14)
N3 N 0.9981(3) 0.42560(18) 0.80027(14)
N4 N 0.8236(3) 0.3894(2) 0.91628(14)
S1 S 0.14002(10) 0.31087(7) 0.55939(5)
S2 S 1.11252(10) 0.22897(6) 0.89996(4)
loop_
_geom_bond_atom_site_label_1
_geom_bond_atom_site_label_2
_geom_bond_site_symmetry_1
_geom_bond_site_symmetry_2
C1 N1 1_555 1_555
C2 C3 1_555 1_555
C3 C4 1_555 1_555
C4 C9 1_555 1_555
C5 C6 1_555 1_555
C6 C3 1_555 1_555
C7 C6 1_555 1_555
C8 C7 1_555 1_555
C9 C8 1_555 1_555
C10 N3 1_555 1_555
H1 N2 1_555 1_555
H2 C2 1_555 1_555
H3 C5 1_555 1_555
H4 C5 1_555 1_555
H5 C5 1_555 1_555
H6 C7 1_555 1_555
H7 C7 1_555 1_555
H8 C8 1_555 1_555
H9 C9 1_555 1_555
H10 C9 1_555 1_555
H11 N3 1_555 1_555
H12 N4 1_555 1_555
N1 C4 1_555 1_555
N2 C1 1_555 1_555
N3 C6 1_555 1_555
N4 C8 1_555 1_555
S1 C1 1_555 1_555
S2 C10 1_555 1_555
C2 N2 1_555 1_555
C10 N4 1_555 1_555

#END
