
#######################################################################
#
#                 Cambridge Crystallographic Data Centre
#                                CCDC 
#
#######################################################################
#
# If this CIF has been generated from an entry in the Cambridge 
# Structural Database, then it will include bibliographic, chemical, 
# crystal, experimental, refinement or atomic coordinate data resulting 
# from the CCDC's data processing and validation procedures.
#
#######################################################################

data_OWULAV
_chemical_formula_moiety         'C35 H22 B1 F10 N1 O1'
_chemical_name_systematic        
N-(bis(pentafluorophenyl)boryl)-N-(5'-t-butyl-1,1':3',1''-terphenyl-2'-yl)formamide
_symmetry_cell_setting           triclinic
_symmetry_space_group_name_H-M   'P -1'
_symmetry_Int_Tables_number      2
_space_group_name_Hall           '-P 1'
loop_
_symmetry_equiv_pos_site_id
_symmetry_equiv_pos_as_xyz
1 x,y,z
2 -x,-y,-z
_cell_length_a                   7.8999(12)
_cell_length_b                   10.8122(16)
_cell_length_c                   18.092(3)
_cell_angle_alpha                94.757(2)
_cell_angle_beta                 93.157(2)
_cell_angle_gamma                99.684(2)
_cell_volume                     1514.31
_exptl_crystal_description       prism
_cell_formula_units_Z            2
loop_
_atom_site_label
_atom_site_type_symbol
_atom_site_fract_x
_atom_site_fract_y
_atom_site_fract_z
F1 F 0.44600(11) 0.88697(8) 0.29297(4)
F2 F 0.26251(11) 0.67825(8) 0.22036(5)
F3 F 0.28317(12) 0.63045(8) 0.07076(5)
F4 F 0.49433(12) 0.79524(9) -0.00335(5)
F5 F 0.68104(11) 1.00250(8) 0.06911(4)
F6 F 0.40110(11) 1.18532(8) 0.22521(5)
F7 F 0.34850(12) 1.38859(9) 0.15524(6)
F8 F 0.60433(13) 1.51440(8) 0.08211(5)
F9 F 0.91722(12) 1.44157(8) 0.08322(5)
F10 F 0.96994(11) 1.23824(8) 0.15180(5)
O1 O 1.05468(13) 1.16427(9) 0.35975(6)
N1 N 0.82057(14) 1.06452(10) 0.28257(6)
C1 C 0.93746(18) 1.17046(13) 0.31584(7)
H1 H 0.9224 1.2514 0.3027
C2 C 0.83098(16) 0.94489(12) 0.31269(7)
C3 C 0.88464(16) 0.84792(12) 0.26848(7)
C4 C 0.87423(17) 0.73015(12) 0.29604(7)
H2 H 0.9083 0.6634 0.2661
C5 C 0.81592(17) 0.70669(12) 0.36557(7)
C6 C 0.77446(17) 0.80743(12) 0.40956(7)
H3 H 0.7418 0.7947 0.4585
C7 C 0.77905(17) 0.92697(12) 0.38455(7)
C8 C 0.94666(17) 0.86260(12) 0.19291(7)
C9 C 1.06819(17) 0.96473(13) 0.17705(8)
H4 H 1.1140 1.0290 0.2154
C10 C 1.12265(18) 0.97311(14) 0.10566(8)
H5 H 1.2041 1.0437 0.0954
C11 C 1.05900(19) 0.87928(14) 0.04927(8)
H6 H 1.0963 0.8857 0.0005
C12 C 0.94062(19) 0.77607(14) 0.06442(8)
H7 H 0.8978 0.7110 0.0262
C13 C 0.88483(18) 0.76803(13) 0.13558(7)
H8 H 0.8034 0.6972 0.1455
C14 C 0.72938(17) 1.02794(12) 0.43615(7)
C15 C 0.79595(17) 1.04252(13) 0.51024(7)
H9 H 0.8699 0.9878 0.5264
C16 C 0.75583(18) 1.13542(14) 0.56048(8)
H10 H 0.8035 1.1447 0.6104
C17 C 0.64655(19) 1.21459(13) 0.53801(8)
H11 H 0.6205 1.2792 0.5721
C18 C 0.57499(19) 1.19911(13) 0.46525(8)
H12 H 0.4978 1.2521 0.4499
C19 C 0.61573(18) 1.10660(13) 0.41479(8)
H13 H 0.5658 1.0967 0.3652
C20 C 0.79727(19) 0.57320(13) 0.39036(8)
C21 C 0.9693(2) 0.52653(16) 0.38845(11)
H14 H 0.9559 0.4413 0.4046
H15 H 1.0558 0.5832 0.4219
H16 H 1.0066 0.5251 0.3377
C22 C 0.7350(3) 0.56658(14) 0.46887(9)
H17 H 0.6218 0.5921 0.4700
H18 H 0.8171 0.6233 0.5042
H19 H 0.7262 0.4801 0.4826
C23 C 0.6643(2) 0.48521(15) 0.33671(9)
H20 H 0.5533 0.5143 0.3377
H21 H 0.6513 0.3994 0.3519
H22 H 0.7032 0.4857 0.2862
C24 C 0.57512(16) 0.95271(12) 0.18476(7)
C25 C 0.46490(17) 0.86634(13) 0.21978(7)
C26 C 0.36701(17) 0.75821(13) 0.18327(8)
C27 C 0.37677(18) 0.73393(13) 0.10764(8)
C28 C 0.48210(19) 0.81798(13) 0.07018(8)
C29 C 0.57689(17) 0.92507(12) 0.10836(7)
C30 C 0.68679(17) 1.20381(12) 0.19048(7)
C31 C 0.53054(18) 1.24691(13) 0.18965(8)
C32 C 0.50158(19) 1.35078(13) 0.15464(8)
C33 C 0.6320(2) 1.41581(13) 0.11837(8)
C34 C 0.79057(19) 1.37846(13) 0.11853(8)
C35 C 0.81471(18) 1.27397(13) 0.15446(8)
B1 B 0.70041(19) 1.07368(14) 0.22338(8)
loop_
_geom_bond_atom_site_label_1
_geom_bond_atom_site_label_2
_geom_bond_site_symmetry_1
_geom_bond_site_symmetry_2
F1 C25 1_555 1_555
F2 C26 1_555 1_555
F3 C27 1_555 1_555
F4 C28 1_555 1_555
F5 C29 1_555 1_555
F6 C31 1_555 1_555
F7 C32 1_555 1_555
F8 C33 1_555 1_555
F9 C34 1_555 1_555
F10 C35 1_555 1_555
O1 C1 1_555 1_555
N1 C1 1_555 1_555
C1 H1 1_555 1_555
C2 N1 1_555 1_555
C3 C2 1_555 1_555
C4 C3 1_555 1_555
H2 C4 1_555 1_555
C5 C4 1_555 1_555
C6 C5 1_555 1_555
H3 C6 1_555 1_555
C7 C2 1_555 1_555
C8 C3 1_555 1_555
C9 C8 1_555 1_555
H4 C9 1_555 1_555
C10 C9 1_555 1_555
H5 C10 1_555 1_555
C11 C10 1_555 1_555
H6 C11 1_555 1_555
C12 C11 1_555 1_555
H7 C12 1_555 1_555
C13 C8 1_555 1_555
H8 C13 1_555 1_555
C14 C7 1_555 1_555
C15 C14 1_555 1_555
H9 C15 1_555 1_555
C16 C15 1_555 1_555
H10 C16 1_555 1_555
C17 C16 1_555 1_555
H11 C17 1_555 1_555
C18 C17 1_555 1_555
H12 C18 1_555 1_555
C19 C14 1_555 1_555
H13 C19 1_555 1_555
C20 C5 1_555 1_555
C21 C20 1_555 1_555
H14 C21 1_555 1_555
H15 C21 1_555 1_555
H16 C21 1_555 1_555
C22 C20 1_555 1_555
H17 C22 1_555 1_555
H18 C22 1_555 1_555
H19 C22 1_555 1_555
C23 C20 1_555 1_555
H20 C23 1_555 1_555
H21 C23 1_555 1_555
H22 C23 1_555 1_555
C24 C25 1_555 1_555
C25 C26 1_555 1_555
C26 C27 1_555 1_555
C27 C28 1_555 1_555
C28 C29 1_555 1_555
C29 C24 1_555 1_555
C30 C31 1_555 1_555
C31 C32 1_555 1_555
C32 C33 1_555 1_555
C33 C34 1_555 1_555
C34 C35 1_555 1_555
C35 C30 1_555 1_555
B1 N1 1_555 1_555
C6 C7 1_555 1_555
C12 C13 1_555 1_555
C18 C19 1_555 1_555
C24 B1 1_555 1_555
C30 B1 1_555 1_555

#END
