
#######################################################################
#
#                 Cambridge Crystallographic Data Centre
#                                CCDC 
#
#######################################################################
#
# If this CIF has been generated from an entry in the Cambridge 
# Structural Database, then it will include bibliographic, chemical, 
# crystal, experimental, refinement or atomic coordinate data resulting 
# from the CCDC's data processing and validation procedures.
#
#######################################################################

data_OWULOJ
_chemical_formula_moiety         'C44 H31 B1 F10 N2 O1'
_chemical_name_systematic        
"(((5'-t-butyl-1,1':3',1''-terphenyl-2'-yl)(oxidomethylidene)ammonio)((2,6-dimethylphenyl)imino)methyl)-bis(pentafluorophenyl)-boron unknown solvate"
_symmetry_cell_setting           triclinic
_symmetry_space_group_name_H-M   'P -1'
_symmetry_Int_Tables_number      2
_space_group_name_Hall           '-P 1'
loop_
_symmetry_equiv_pos_site_id
_symmetry_equiv_pos_as_xyz
1 x,y,z
2 -x,-y,-z
_cell_length_a                   12.5375(9)
_cell_length_b                   17.3145(12)
_cell_length_c                   22.5377(16)
_cell_angle_alpha                77.719(2)
_cell_angle_beta                 83.730(2)
_cell_angle_gamma                74.666(2)
_cell_volume                     4603.07
_exptl_crystal_description       block
_cell_formula_units_Z            4
loop_
_atom_site_label
_atom_site_type_symbol
_atom_site_fract_x
_atom_site_fract_y
_atom_site_fract_z
F1 F 0.12974(12) 0.77559(9) 0.25712(7)
F2 F 0.19584(14) 0.77005(10) 0.36642(8)
F3 F 0.29078(15) 0.62410(11) 0.43675(8)
F4 F 0.30988(15) 0.48427(10) 0.39596(8)
F5 F 0.23961(13) 0.48744(9) 0.28918(8)
F6 F 0.32509(12) 0.70217(10) 0.18502(7)
F7 F 0.37653(13) 0.80373(10) 0.08800(8)
F8 F 0.23725(15) 0.86569(10) -0.00422(7)
F9 F 0.04520(15) 0.81763(10) 0.00207(8)
F10 F -0.00411(13) 0.71019(10) 0.09811(7)
O1 O 0.15811(14) 0.55525(10) 0.18365(9)
N1 N -0.02113(18) 0.56488(13) 0.20683(10)
N2 N -0.09956(18) 0.68280(13) 0.24257(10)
C1 C 0.0755(2) 0.52445(16) 0.18735(12)
H1 H 0.0837 0.4732 0.1762
C2 C -0.1209(2) 0.53550(15) 0.21379(12)
C3 C -0.1522(2) 0.49417(16) 0.27048(13)
C4 C -0.2501(2) 0.46837(16) 0.27520(13)
H2 H -0.2729 0.4405 0.3135
C5 C -0.3152(2) 0.48165(16) 0.22645(13)
C6 C -0.2811(2) 0.52462(16) 0.17134(13)
H3 H -0.3254 0.5356 0.1375
C7 C -0.1852(2) 0.55208(16) 0.16379(13)
C8 C -0.0898(2) 0.47548(16) 0.32648(13)
C9 C 0.0221(2) 0.43358(17) 0.32857(14)
H4 H 0.0624 0.4191 0.2927
C10 C 0.0742(3) 0.41327(19) 0.38273(15)
H5 H 0.1506 0.3857 0.3835
C11 C 0.0175(3) 0.4322(2) 0.43541(15)
H6 H 0.0542 0.4179 0.4724
C12 C -0.0940(3) 0.4726(2) 0.43426(14)
H7 H -0.1341 0.4856 0.4706
C13 C -0.1464(3) 0.49382(18) 0.38021(13)
H8 H -0.2227 0.5215 0.3798
C14 C -0.1570(2) 0.59718(17) 0.10272(13)
C15 C -0.0666(2) 0.56593(17) 0.06695(13)
H9 H -0.0186 0.5145 0.0819
C16 C -0.0444(3) 0.60807(19) 0.00947(14)
H10 H 0.0180 0.5852 -0.0147
C17 C -0.1127(3) 0.6832(2) -0.01281(14)
H11 H -0.0968 0.7128 -0.0519
C18 C -0.2050(3) 0.7152(2) 0.02272(14)
H12 H -0.2530 0.7666 0.0075
C19 C -0.2272(2) 0.67298(19) 0.07972(13)
H13 H -0.2905 0.6953 0.1036
C20 C -0.4181(2) 0.44809(17) 0.23141(14)
C21 C -0.5145(3) 0.5135(2) 0.20202(17)
H14 H -0.4953 0.5301 0.1587
H15 H -0.5301 0.5609 0.2218
H16 H -0.5802 0.4918 0.2067
C22 C -0.4542(3) 0.4188(2) 0.29724(15)
H17 H -0.4704 0.4641 0.3192
H18 H -0.3947 0.3744 0.3165
H19 H -0.5209 0.3989 0.2984
C23 C -0.3888(3) 0.3762(2) 0.19805(16)
H20 H -0.4531 0.3533 0.2004
H21 H -0.3266 0.3341 0.2171
H22 H -0.3678 0.3951 0.1553
C24 C 0.1774(2) 0.63243(15) 0.26792(12)
C25 C 0.1719(2) 0.70172(15) 0.29100(12)
C26 C 0.2063(2) 0.70028(17) 0.34666(13)
C27 C 0.2538(2) 0.62720(18) 0.38292(13)
C28 C 0.2630(2) 0.55651(17) 0.36196(13)
C29 C 0.2262(2) 0.56054(16) 0.30598(13)
C30 C 0.1536(2) 0.70458(15) 0.14806(12)
C31 C 0.2513(2) 0.72993(16) 0.14147(13)
C32 C 0.2799(2) 0.78276(17) 0.09153(13)
C33 C 0.2103(3) 0.81352(17) 0.04434(13)
C34 C 0.1136(2) 0.78920(16) 0.04773(13)
C35 C 0.0890(2) 0.73517(16) 0.09844(13)
C36 C -0.0119(2) 0.64153(15) 0.22074(12)
C37 C -0.1056(2) 0.75664(16) 0.26257(13)
C38 C -0.1439(2) 0.83212(16) 0.22339(13)
C39 C -0.1620(2) 0.90285(17) 0.24736(14)
H23 H -0.1869 0.9545 0.2217
C40 C -0.1447(2) 0.89974(17) 0.30690(14)
H24 H -0.1574 0.9488 0.3221
C41 C -0.1088(2) 0.82509(18) 0.34485(14)
H25 H -0.0965 0.8233 0.3860
C42 C -0.0901(2) 0.75227(17) 0.32348(13)
C43 C -0.1682(3) 0.83829(17) 0.15887(14)
H26 H -0.1036 0.8469 0.1321
H27 H -0.2321 0.8843 0.1478
H28 H -0.1849 0.7877 0.1544
C44 C -0.0631(2) 0.67208(18) 0.36751(13)
H29 H -0.0414 0.6806 0.4056
H30 H -0.0019 0.6338 0.3500
H31 H -0.1284 0.6496 0.3756
B1 B 0.1210(2) 0.63935(18) 0.20556(15)
F11 F -0.17749(14) 0.27425(10) 0.32205(8)
F12 F -0.23011(14) 0.33712(10) 0.42159(8)
F13 F -0.09453(17) 0.28490(12) 0.51631(8)
F14 F 0.096(2) 0.1690(18) 0.5082(10)
F15 F 0.13635(15) 0.09210(12) 0.41322(8)
F16 F 0.02264(13) 0.29858(9) 0.24823(7)
F17 F -0.04946(15) 0.37856(10) 0.14010(8)
F18 F -0.16013(15) 0.31195(11) 0.07543(8)
F19 F -0.19250(14) 0.16059(11) 0.12104(8)
F20 F -0.11667(13) 0.07789(9) 0.22696(7)
O2 O -0.02293(15) 0.05450(11) 0.32985(8)
N3 N 0.15531(18) 0.00329(13) 0.30818(10)
N4 N 0.24053(18) 0.10767(13) 0.27118(10)
C45 C 0.0584(2) -0.00816(16) 0.32806(12)
H32 H 0.0480 -0.0617 0.3410
C46 C 0.2520(2) -0.06273(16) 0.30212(12)
C47 C 0.3178(2) -0.09688(16) 0.35140(13)
C48 C 0.4115(2) -0.15911(17) 0.34483(13)
H33 H 0.4566 -0.1830 0.3785
C49 C 0.4415(2) -0.18748(17) 0.29097(13)
C50 C 0.3741(2) -0.15189(16) 0.24287(13)
H34 H 0.3936 -0.1709 0.2057
C51 C 0.2785(2) -0.08906(16) 0.24660(12)
C52 C 0.2932(2) -0.07052(17) 0.41171(13)
C53 C 0.2083(3) -0.0914(2) 0.45163(14)
H35 H 0.1619 -0.1200 0.4396
C54 C 0.1903(4) -0.0711(2) 0.50832(15)
H36 H 0.1326 -0.0866 0.5353
C55 C 0.2560(4) -0.0284(2) 0.52600(16)
H37 H 0.2423 -0.0129 0.5647
C56 C 0.3414(3) -0.0084(2) 0.48723(16)
H38 H 0.3879 0.0200 0.4995
C57 C 0.3598(3) -0.0294(2) 0.43027(15)
H39 H 0.4189 -0.0153 0.4038
C58 C 0.2147(2) -0.05420(15) 0.19103(13)
C59 C 0.2709(2) -0.03226(16) 0.13595(13)
H40 H 0.3485 -0.0379 0.1350
C60 C 0.2168(3) -0.00255(17) 0.08293(13)
H41 H 0.2569 0.0124 0.0459
C61 C 0.1035(3) 0.00566(17) 0.08330(14)
H42 H 0.0655 0.0266 0.0468
C62 C 0.0467(3) -0.01709(17) 0.13766(14)
H43 H -0.0308 -0.0120 0.1383
C63 C 0.1014(2) -0.04711(16) 0.19093(13)
H44 H 0.0615 -0.0631 0.2278
C64 C 0.5435(2) -0.25893(18) 0.28674(14)
C65 C 0.5842(3) -0.2639(2) 0.22099(15)
H45 H 0.5286 -0.2779 0.2007
H46 H 0.6540 -0.3060 0.2204
H47 H 0.5962 -0.2111 0.1997
C66 C 0.6376(2) -0.2513(2) 0.32019(16)
H48 H 0.7030 -0.2957 0.3152
H49 H 0.6153 -0.2544 0.3635
H50 H 0.6553 -0.1988 0.3035
C67 C 0.5102(3) -0.33803(18) 0.31683(17)
H51 H 0.4480 -0.3428 0.2963
H52 H 0.4883 -0.3370 0.3598
H53 H 0.5733 -0.3848 0.3136
C68 C -0.0132(2) 0.18286(16) 0.36125(13)
C69 C -0.1068(2) 0.24499(16) 0.36702(13)
C70 C -0.1358(2) 0.27907(17) 0.41822(14)
C71 C -0.0694(3) 0.25236(19) 0.46648(14)
C72 C 0.0242(3) 0.1896(2) 0.46315(15)
C73 C 0.0478(3) 0.15689(19) 0.41201(14)
C74 C -0.0384(2) 0.18248(16) 0.24201(12)
C75 C -0.0270(2) 0.26080(16) 0.21699(13)
C76 C -0.0657(2) 0.30341(16) 0.16190(13)
C77 C -0.1211(2) 0.27003(18) 0.12880(13)
C78 C -0.1366(2) 0.19333(17) 0.15202(13)
C79 C -0.0960(2) 0.15223(16) 0.20731(13)
C80 C 0.1502(2) 0.09124(16) 0.29163(12)
C81 C 0.2504(2) 0.18899(16) 0.24860(14)
C82 C 0.2474(2) 0.21692(17) 0.18591(14)
C83 C 0.2647(3) 0.29395(18) 0.16171(16)
H54 H 0.2608 0.3146 0.1192
C84 C 0.2872(2) 0.34033(18) 0.19902(17)
H55 H 0.2979 0.3931 0.1823
C85 C 0.2944(2) 0.31062(18) 0.26006(17)
H56 H 0.3112 0.3430 0.2851
C86 C 0.2776(2) 0.23387(17) 0.28659(15)
C87 C 0.2309(3) 0.16279(18) 0.14551(14)
H57 H 0.2808 0.1085 0.1564
H58 H 0.2471 0.1863 0.1030
H59 H 0.1540 0.1583 0.1508
C88 C 0.2905(3) 0.2027(2) 0.35336(16)
H60 H 0.3496 0.2217 0.3664
H61 H 0.3096 0.1429 0.3616
H62 H 0.2208 0.2230 0.3758
B2 B 0.0181(3) 0.13413(19) 0.30519(15)
F21? F 0.074(4) 0.150(3) 0.5147(14)
loop_
_geom_bond_atom_site_label_1
_geom_bond_atom_site_label_2
_geom_bond_site_symmetry_1
_geom_bond_site_symmetry_2
F1 C25 1_555 1_555
F2 C26 1_555 1_555
F3 C27 1_555 1_555
F4 C28 1_555 1_555
F5 C29 1_555 1_555
F6 C31 1_555 1_555
F7 C32 1_555 1_555
F8 C33 1_555 1_555
F9 C34 1_555 1_555
F10 C35 1_555 1_555
O1 C1 1_555 1_555
N1 C1 1_555 1_555
N2 C36 1_555 1_555
C1 H1 1_555 1_555
C2 N1 1_555 1_555
C3 C2 1_555 1_555
C4 C3 1_555 1_555
H2 C4 1_555 1_555
C5 C4 1_555 1_555
C6 C5 1_555 1_555
H3 C6 1_555 1_555
C7 C2 1_555 1_555
C8 C3 1_555 1_555
C9 C8 1_555 1_555
H4 C9 1_555 1_555
C10 C9 1_555 1_555
H5 C10 1_555 1_555
C11 C10 1_555 1_555
H6 C11 1_555 1_555
C12 C11 1_555 1_555
H7 C12 1_555 1_555
C13 C8 1_555 1_555
H8 C13 1_555 1_555
C14 C7 1_555 1_555
C15 C14 1_555 1_555
H9 C15 1_555 1_555
C16 C15 1_555 1_555
H10 C16 1_555 1_555
C17 C16 1_555 1_555
H11 C17 1_555 1_555
C18 C17 1_555 1_555
H12 C18 1_555 1_555
C19 C14 1_555 1_555
H13 C19 1_555 1_555
C20 C5 1_555 1_555
C21 C20 1_555 1_555
H14 C21 1_555 1_555
H15 C21 1_555 1_555
H16 C21 1_555 1_555
C22 C20 1_555 1_555
H17 C22 1_555 1_555
H18 C22 1_555 1_555
H19 C22 1_555 1_555
C23 C20 1_555 1_555
H20 C23 1_555 1_555
H21 C23 1_555 1_555
H22 C23 1_555 1_555
C24 C25 1_555 1_555
C25 C26 1_555 1_555
C26 C27 1_555 1_555
C27 C28 1_555 1_555
C28 C29 1_555 1_555
C29 C24 1_555 1_555
C30 C31 1_555 1_555
C31 C32 1_555 1_555
C32 C33 1_555 1_555
C33 C34 1_555 1_555
C34 C35 1_555 1_555
C35 C30 1_555 1_555
C36 N1 1_555 1_555
C37 N2 1_555 1_555
C38 C37 1_555 1_555
C39 C38 1_555 1_555
H23 C39 1_555 1_555
C40 C39 1_555 1_555
H24 C40 1_555 1_555
C41 C40 1_555 1_555
H25 C41 1_555 1_555
C42 C37 1_555 1_555
C43 C38 1_555 1_555
H26 C43 1_555 1_555
H27 C43 1_555 1_555
H28 C43 1_555 1_555
C44 C42 1_555 1_555
H29 C44 1_555 1_555
H30 C44 1_555 1_555
H31 C44 1_555 1_555
B1 O1 1_555 1_555
F11 C69 1_555 1_555
F12 C70 1_555 1_555
F13 C71 1_555 1_555
F14 C72 1_555 1_555
F15 C73 1_555 1_555
F16 C75 1_555 1_555
F17 C76 1_555 1_555
F18 C77 1_555 1_555
F19 C78 1_555 1_555
F20 C79 1_555 1_555
O2 C45 1_555 1_555
N3 C45 1_555 1_555
N4 C80 1_555 1_555
C45 H32 1_555 1_555
C46 N3 1_555 1_555
C47 C46 1_555 1_555
C48 C47 1_555 1_555
H33 C48 1_555 1_555
C49 C48 1_555 1_555
C50 C49 1_555 1_555
H34 C50 1_555 1_555
C51 C46 1_555 1_555
C52 C47 1_555 1_555
C53 C52 1_555 1_555
H35 C53 1_555 1_555
C54 C53 1_555 1_555
H36 C54 1_555 1_555
C55 C54 1_555 1_555
H37 C55 1_555 1_555
C56 C55 1_555 1_555
H38 C56 1_555 1_555
C57 C52 1_555 1_555
H39 C57 1_555 1_555
C58 C51 1_555 1_555
C59 C58 1_555 1_555
H40 C59 1_555 1_555
C60 C59 1_555 1_555
H41 C60 1_555 1_555
C61 C60 1_555 1_555
H42 C61 1_555 1_555
C62 C61 1_555 1_555
H43 C62 1_555 1_555
C63 C58 1_555 1_555
H44 C63 1_555 1_555
C64 C49 1_555 1_555
C65 C64 1_555 1_555
H45 C65 1_555 1_555
H46 C65 1_555 1_555
H47 C65 1_555 1_555
C66 C64 1_555 1_555
H48 C66 1_555 1_555
H49 C66 1_555 1_555
H50 C66 1_555 1_555
C67 C64 1_555 1_555
H51 C67 1_555 1_555
H52 C67 1_555 1_555
H53 C67 1_555 1_555
C68 C69 1_555 1_555
C69 C70 1_555 1_555
C70 C71 1_555 1_555
C71 C72 1_555 1_555
C72 C73 1_555 1_555
C73 C68 1_555 1_555
C74 C75 1_555 1_555
C75 C76 1_555 1_555
C76 C77 1_555 1_555
C77 C78 1_555 1_555
C78 C79 1_555 1_555
C79 C74 1_555 1_555
C80 N3 1_555 1_555
C81 N4 1_555 1_555
C82 C81 1_555 1_555
C83 C82 1_555 1_555
H54 C83 1_555 1_555
C84 C83 1_555 1_555
H55 C84 1_555 1_555
C85 C84 1_555 1_555
H56 C85 1_555 1_555
C86 C81 1_555 1_555
C87 C82 1_555 1_555
H57 C87 1_555 1_555
H58 C87 1_555 1_555
H59 C87 1_555 1_555
C88 C86 1_555 1_555
H60 C88 1_555 1_555
H61 C88 1_555 1_555
H62 C88 1_555 1_555
B2 O2 1_555 1_555
C6 C7 1_555 1_555
C12 C13 1_555 1_555
C18 C19 1_555 1_555
C24 B1 1_555 1_555
C30 B1 1_555 1_555
C36 B1 1_555 1_555
C41 C42 1_555 1_555
C50 C51 1_555 1_555
C56 C57 1_555 1_555
C62 C63 1_555 1_555
C68 B2 1_555 1_555
C74 B2 1_555 1_555
C80 B2 1_555 1_555
C85 C86 1_555 1_555

#END
