
#######################################################################
#
#                 Cambridge Crystallographic Data Centre
#                                CCDC 
#
#######################################################################
#
# If this CIF has been generated from an entry in the Cambridge 
# Structural Database, then it will include bibliographic, chemical, 
# crystal, experimental, refinement or atomic coordinate data resulting 
# from the CCDC's data processing and validation procedures.
#
#######################################################################

data_OXAMIL
_chemical_formula_moiety         'C28 H26 N2 O3 S2'
_chemical_name_systematic        
N,4-dimethyl-N-(1-((oxido(diphenyl)sulfanylidene)amino)-2-phenylvinyl)benzenesulfonamide
_symmetry_cell_setting           orthorhombic
_symmetry_space_group_name_H-M   'P n a 21'
_symmetry_Int_Tables_number      33
_space_group_name_Hall           'P 2c -2n'
loop_
_symmetry_equiv_pos_site_id
_symmetry_equiv_pos_as_xyz
1 x,y,z
2 -x,-y,1/2+z
3 1/2+x,1/2-y,z
4 1/2-x,1/2+y,1/2+z
_cell_length_a                   20.849(2)
_cell_length_b                   6.1170(6)
_cell_length_c                   20.0741(13)
_cell_angle_alpha                90
_cell_angle_beta                 90
_cell_angle_gamma                90
_cell_volume                     2560.12
_exptl_crystal_colour            colorless
_exptl_crystal_description       needle
_cell_formula_units_Z            4
_exptl_crystal_recrystallization_method dichloromethane/n-hexane
loop_
_atom_site_label
_atom_site_type_symbol
_atom_site_fract_x
_atom_site_fract_y
_atom_site_fract_z
C1 C 0.4171(3) 0.4736(10) 0.3824(2)
C2 C 0.4458(3) 0.2733(11) 0.3905(3)
H1 H 0.4298 0.1741 0.4214
C3 C 0.4984(3) 0.2205(13) 0.3522(3)
H2 H 0.5193 0.0875 0.3581
C4 C 0.5200(4) 0.3680(19) 0.3048(4)
H3 H 0.5545 0.3305 0.2777
C5 C 0.4916(4) 0.5663(18) 0.2972(4)
H4 H 0.5072 0.6654 0.2661
C6 C 0.4396(3) 0.6189(13) 0.3360(3)
H5 H 0.4196 0.7537 0.3308
C7 C 0.2848(2) 0.4920(8) 0.3772(2)
C8 C 0.2776(3) 0.2874(10) 0.3509(3)
H6 H 0.3052 0.1750 0.3633
C9 C 0.2293(3) 0.2493(12) 0.3060(4)
H7 H 0.2252 0.1114 0.2869
C10 C 0.1876(3) 0.4083(12) 0.2890(3)
H8 H 0.1552 0.3795 0.2584
C11 C 0.1928(4) 0.6101(13) 0.3165(4)
H9 H 0.1640 0.7195 0.3047
C12 C 0.2409(3) 0.6534(11) 0.3620(3)
H10 H 0.2436 0.7899 0.3821
C13 C 0.3160(2) 0.4156(7) 0.5459(2)
C14 C 0.2627(3) 0.5353(8) 0.5545(2)
H11 H 0.2522 0.6266 0.5191
C15 C 0.2182(3) 0.5440(9) 0.6114(3)
C16 C 0.1786(3) 0.7254(10) 0.6182(3)
H12 H 0.1828 0.8409 0.5884
C17 C 0.1337(3) 0.7382(13) 0.6676(4)
H13 H 0.1082 0.8624 0.6712
C18 C 0.1259(3) 0.5699(14) 0.7119(3)
H14 H 0.0952 0.5790 0.7454
C19 C 0.1640(3) 0.3879(13) 0.7063(3)
H15 H 0.1589 0.2728 0.7361
C20 C 0.2099(3) 0.3740(10) 0.6567(3)
H16 H 0.2356 0.2499 0.6537
C21 C 0.4679(3) 0.3726(9) 0.5953(3)
C22 C 0.5080(3) 0.1918(10) 0.5922(3)
H17 H 0.4986 0.0678 0.6171
C23 C 0.5613(3) 0.1952(12) 0.5527(4)
H18 H 0.5881 0.0738 0.5518
C24 C 0.5762(3) 0.3725(13) 0.5145(3)
C25 C 0.5376(3) 0.5549(12) 0.5171(3)
H19 H 0.5476 0.6774 0.4917
C26 C 0.4835(3) 0.5555(10) 0.5579(3)
H20 H 0.4577 0.6794 0.5600
C27 C 0.6350(3) 0.3739(17) 0.4692(4)
H21 H 0.6567 0.2361 0.4726
H22 H 0.6634 0.4892 0.4827
H23 H 0.6217 0.3974 0.4240
C28 C 0.3420(3) 0.0435(9) 0.5791(3)
H24 H 0.3053 0.0060 0.5525
H25 H 0.3424 -0.0445 0.6186
H26 H 0.3804 0.0172 0.5539
N1 N 0.3557(2) 0.4085(8) 0.49028(19)
N2 N 0.33872(18) 0.2750(6) 0.59748(18)
O1 O 0.3511(2) 0.7904(6) 0.4366(2)
O2 O 0.4076(2) 0.2103(7) 0.69490(17)
O3 O 0.38277(19) 0.5878(6) 0.66092(18)
S1 S 0.35080(6) 0.5552(2) 0.42968(6)
S2 S 0.39822(6) 0.3678(2) 0.64355(6)
loop_
_geom_bond_atom_site_label_1
_geom_bond_atom_site_label_2
_geom_bond_site_symmetry_1
_geom_bond_site_symmetry_2
C1 C2 1_555 1_555
C2 H1 1_555 1_555
C3 C2 1_555 1_555
H2 C3 1_555 1_555
C4 C3 1_555 1_555
H3 C4 1_555 1_555
C5 C4 1_555 1_555
H4 C5 1_555 1_555
C6 C1 1_555 1_555
H5 C6 1_555 1_555
C7 C8 1_555 1_555
C8 H6 1_555 1_555
C9 C8 1_555 1_555
H7 C9 1_555 1_555
C10 C9 1_555 1_555
H8 C10 1_555 1_555
C11 C10 1_555 1_555
H9 C11 1_555 1_555
C12 C7 1_555 1_555
H10 C12 1_555 1_555
C13 C14 1_555 1_555
C14 H11 1_555 1_555
C15 C14 1_555 1_555
C16 C15 1_555 1_555
H12 C16 1_555 1_555
C17 C16 1_555 1_555
H13 C17 1_555 1_555
C18 C17 1_555 1_555
H14 C18 1_555 1_555
C19 C18 1_555 1_555
H15 C19 1_555 1_555
C20 C15 1_555 1_555
H16 C20 1_555 1_555
C21 C22 1_555 1_555
C22 H17 1_555 1_555
C23 C22 1_555 1_555
H18 C23 1_555 1_555
C24 C23 1_555 1_555
C25 C24 1_555 1_555
H19 C25 1_555 1_555
C26 C21 1_555 1_555
H20 C26 1_555 1_555
C27 C24 1_555 1_555
H21 C27 1_555 1_555
H22 C27 1_555 1_555
H23 C27 1_555 1_555
C28 H24 1_555 1_555
H25 C28 1_555 1_555
H26 C28 1_555 1_555
N1 C13 1_555 1_555
N2 C13 1_555 1_555
O1 S1 1_555 1_555
O2 S2 1_555 1_555
O3 S2 1_555 1_555
S1 C1 1_555 1_555
S2 C21 1_555 1_555
C5 C6 1_555 1_555
C7 S1 1_555 1_555
C11 C12 1_555 1_555
C19 C20 1_555 1_555
C25 C26 1_555 1_555
C28 N2 1_555 1_555
N1 S1 1_555 1_555
N2 S2 1_555 1_555

#END
