
#######################################################################
#
#                 Cambridge Crystallographic Data Centre
#                                CCDC 
#
#######################################################################
#
# If this CIF has been generated from an entry in the Cambridge 
# Structural Database, then it will include bibliographic, chemical, 
# crystal, experimental, refinement or atomic coordinate data resulting 
# from the CCDC's data processing and validation procedures.
#
#######################################################################

data_OXAVOZ
_chemical_formula_moiety         'C50 H48 N2 O2,C2 H6 O1'
_chemical_name_systematic        
"(10,10,10',10'-Tetramethyl-5,5'-bi(6-azatricyclo[7.1.1.0^2,7^]undecane)-2,2',4,4',6,6'-hexaene-8,8'-diyl)bis(diphenylmethanol) ethanol solvate"
_symmetry_cell_setting           orthorhombic
_symmetry_space_group_name_H-M   'P 21 21 21'
_symmetry_Int_Tables_number      19
_space_group_name_Hall           'P 2ac 2ab'
loop_
_symmetry_equiv_pos_site_id
_symmetry_equiv_pos_as_xyz
1 x,y,z
2 1/2-x,-y,1/2+z
3 -x,1/2+y,1/2-z
4 1/2+x,1/2-y,-z
_cell_length_a                   14.5616(6)
_cell_length_b                   16.3078(7)
_cell_length_c                   17.7105(8)
_cell_angle_alpha                90
_cell_angle_beta                 90
_cell_angle_gamma                90
_cell_volume                     4205.67
_cell_formula_units_Z            4
loop_
_atom_site_label
_atom_site_type_symbol
_atom_site_fract_x
_atom_site_fract_y
_atom_site_fract_z
N1 N 0.92458(12) 0.74239(10) 0.01086(8)
N2 N 0.91942(12) 0.75184(10) 0.21345(8)
C1 C 0.89903(14) 0.72411(13) 0.08180(11)
C2 C 0.98421(14) 0.87597(12) 0.26244(11)
C3 C 0.90359(14) 0.68975(13) -0.04468(10)
C4 C 0.92830(14) 0.78123(12) 0.14274(10)
C5 C 0.94791(13) 0.79739(12) 0.27168(10)
C6 C 0.96209(17) 0.85910(13) 0.12967(12)
H1 H 0.9660 0.8794 0.0807
C7 C 0.82701(17) 0.60091(16) 0.04127(12)
H2 H 0.7928 0.5541 0.0516
C8 C 0.85551(15) 0.61710(14) -0.03158(11)
C9 C 0.84949(16) 0.65433(15) 0.09836(12)
H3 H 0.8314 0.6435 0.1477
C10 C 0.99000(17) 0.90655(13) 0.19015(12)
H4 H 1.0127 0.9591 0.1820
C11 C 1.01827(16) 0.91914(13) 0.33179(11)
H5 H 1.0477 0.9726 0.3243
C12 C 1.07364(15) 0.85426(13) 0.37573(12)
H6 H 1.1141 0.8768 0.4139
H7 H 1.1054 0.8150 0.3440
C13 C 0.93144(14) 0.71077(12) -0.12571(10)
H8 H 0.8885 0.7536 -0.1419
C14 C 0.93247(14) 0.76445(11) 0.35123(10)
H9 H 0.8665 0.7700 0.3608
C15 C 0.97992(14) 0.82352(12) 0.40665(10)
H10 H 0.9812 0.8048 0.4592
C16 C 0.84061(17) 0.55995(15) -0.09695(12)
H11 H 0.8088 0.5083 -0.0862
C17 C 0.90948(16) 0.63563(13) -0.17563(11)
H12 H 0.9304 0.6402 -0.2280
C18 C 0.93523(18) 0.55368(13) -0.13606(12)
H13 H 0.9414 0.5074 -0.1700
H14 H 0.9872 0.5576 -0.1020
C19 C 0.80654(17) 0.60968(16) -0.16638(12)
C20 C 0.94446(16) 0.91374(13) 0.39527(12)
C21 C 0.84433(19) 0.92871(17) 0.37386(16)
H15 H 0.8051 0.9093 0.4136
H16 H 0.8304 0.8999 0.3280
H17 H 0.8345 0.9864 0.3665
C22 C 0.9682(2) 0.96726(16) 0.46387(14)
H18 H 0.9601 1.0240 0.4511
H19 H 1.0309 0.9579 0.4782
H20 H 0.9285 0.9533 0.5052
C23 C 0.73344(19) 0.6738(2) -0.15388(16)
H21 H 0.7285 0.7078 -0.1980
H22 H 0.7497 0.7071 -0.1112
H23 H 0.6756 0.6475 -0.1445
C24 C 0.7735(2) 0.5527(2) -0.23063(15)
H24 H 0.7180 0.5256 -0.2155
H25 H 0.8200 0.5124 -0.2411
H26 H 0.7622 0.5845 -0.2752
O1 O 0.90782(12) 0.62412(9) 0.30665(8)
H27 H 0.9022 0.6513 0.2680
O2 O 1.02746(12) 0.82518(8) -0.09033(8)
H28 H 1.0077 0.8160 -0.0478
C25 C 0.91482(16) 0.63789(13) 0.43736(11)
C26 C 1.05045(15) 0.77797(12) -0.21408(11)
C27 C 0.95472(14) 0.67163(12) 0.36260(10)
C28 C 1.05752(16) 0.65628(12) 0.35745(13)
C29 C 1.02917(14) 0.74979(12) -0.13321(11)
C30 C 1.10463(14) 0.69332(13) -0.10300(13)
C31 C 0.85680(19) 0.68050(16) 0.48459(14)
H29 H 0.8412 0.7344 0.4733
C32 C 1.09824(19) 0.63916(15) 0.28785(17)
H30 H 1.0615 0.6343 0.2451
C33 C 1.14089(19) 0.79757(17) -0.23236(15)
H31 H 1.1861 0.7930 -0.1955
C34 C 0.98541(17) 0.78832(15) -0.26955(13)
H32 H 0.9240 0.7782 -0.2587
C35 C 1.11339(19) 0.66189(16) 0.42041(18)
H33 H 1.0883 0.6732 0.4676
C36 C 1.13916(17) 0.70042(16) -0.03065(14)
H34 H 1.1172 0.7417 0.0008
C37 C 1.0103(2) 0.81377(18) -0.34205(14)
H35 H 0.9654 0.8193 -0.3791
C38 C 1.1002(2) 0.83072(18) -0.35931(16)
H36 H 1.1165 0.8467 -0.4079
C39 C 1.1652(2) 0.82383(19) -0.30442(17)
H37 H 1.2260 0.8367 -0.3151
C40 C 1.14081(19) 0.63255(15) -0.14823(16)
H38 H 1.1192 0.6268 -0.1973
C41 C 0.9335(2) 0.55759(15) 0.45547(13)
H39 H 0.9725 0.5274 0.4245
C42 C 0.8414(2) 0.5640(2) 0.56522(15)
H40 H 0.8178 0.5396 0.6085
C43 C 1.2055(2) 0.64742(19) -0.00433(18)
H41 H 1.2268 0.6527 0.0450
C44 C 0.8957(3) 0.52047(17) 0.51850(15)
H42 H 0.9078 0.4656 0.5286
C45 C 1.1916(2) 0.6293(2) 0.2813(2)
H43 H 1.2172 0.6187 0.2342
C46 C 1.2403(2) 0.58764(19) -0.0494(2)
H44 H 1.2852 0.5522 -0.0312
C47 C 1.2468(2) 0.6348(2) 0.3425(3)
H45 H 1.3100 0.6283 0.3375
C48 C 0.8212(2) 0.6433(2) 0.54921(16)
H46 H 0.7834 0.6731 0.5815
C49 C 1.2083(2) 0.58001(17) -0.1226(2)
H47 H 1.2321 0.5398 -0.1543
C50 C 1.2086(3) 0.65026(19) 0.4123(3)
H48 H 1.2463 0.6530 0.4547
O3 O 0.8685(3) -0.0713(2) 0.8588(2)
H49 H 0.8656 -0.0597 0.9038
C51 C 0.9080(6) -0.0065(3) 0.8194(3)
H50 H 0.8731 0.0009 0.7732
H51 H 0.9694 -0.0232 0.8047
C52 C 0.9164(4) 0.0834(4) 0.8606(2)
H52 H 0.8786 0.1224 0.8344
H53 H 0.9791 0.1014 0.8594
H54 H 0.8963 0.0790 0.9121
loop_
_geom_bond_atom_site_label_1
_geom_bond_atom_site_label_2
_geom_bond_site_symmetry_1
_geom_bond_site_symmetry_2
N1 C1 1_555 1_555
N2 C4 1_555 1_555
C1 C4 1_555 1_555
C2 C5 1_555 1_555
C3 N1 1_555 1_555
C4 C6 1_555 1_555
C5 N2 1_555 1_555
C6 H1 1_555 1_555
C7 H2 1_555 1_555
C8 C3 1_555 1_555
C9 C1 1_555 1_555
H3 C9 1_555 1_555
C10 C2 1_555 1_555
H4 C10 1_555 1_555
C11 C2 1_555 1_555
H5 C11 1_555 1_555
C12 C11 1_555 1_555
H6 C12 1_555 1_555
H7 C12 1_555 1_555
C13 C3 1_555 1_555
H8 C13 1_555 1_555
C14 C5 1_555 1_555
H9 C14 1_555 1_555
C15 C12 1_555 1_555
H10 C15 1_555 1_555
C16 C8 1_555 1_555
H11 C16 1_555 1_555
C17 C13 1_555 1_555
H12 C17 1_555 1_555
C18 C16 1_555 1_555
H13 C18 1_555 1_555
H14 C18 1_555 1_555
C19 C16 1_555 1_555
C20 C11 1_555 1_555
C21 C20 1_555 1_555
H15 C21 1_555 1_555
H16 C21 1_555 1_555
H17 C21 1_555 1_555
C22 C20 1_555 1_555
H18 C22 1_555 1_555
H19 C22 1_555 1_555
H20 C22 1_555 1_555
C23 C19 1_555 1_555
H21 C23 1_555 1_555
H22 C23 1_555 1_555
H23 C23 1_555 1_555
C24 C19 1_555 1_555
H24 C24 1_555 1_555
H25 C24 1_555 1_555
H26 C24 1_555 1_555
O1 H27 1_555 1_555
O2 H28 1_555 1_555
C25 C27 1_555 1_555
C26 C29 1_555 1_555
C27 C14 1_555 1_555
C28 C27 1_555 1_555
C29 C13 1_555 1_555
C30 C29 1_555 1_555
C31 C25 1_555 1_555
H29 C31 1_555 1_555
C32 C28 1_555 1_555
H30 C32 1_555 1_555
C33 C26 1_555 1_555
H31 C33 1_555 1_555
C34 C26 1_555 1_555
H32 C34 1_555 1_555
C35 C28 1_555 1_555
H33 C35 1_555 1_555
C36 C30 1_555 1_555
H34 C36 1_555 1_555
C37 C34 1_555 1_555
H35 C37 1_555 1_555
C38 C37 1_555 1_555
H36 C38 1_555 1_555
C39 C33 1_555 1_555
H37 C39 1_555 1_555
C40 C30 1_555 1_555
H38 C40 1_555 1_555
C41 C25 1_555 1_555
H39 C41 1_555 1_555
C42 H40 1_555 1_555
C43 C36 1_555 1_555
H41 C43 1_555 1_555
C44 C41 1_555 1_555
H42 C44 1_555 1_555
C45 C32 1_555 1_555
H43 C45 1_555 1_555
C46 C43 1_555 1_555
H44 C46 1_555 1_555
C47 C45 1_555 1_555
H45 C47 1_555 1_555
C48 C31 1_555 1_555
H46 C48 1_555 1_555
C49 C40 1_555 1_555
H47 C49 1_555 1_555
C50 C35 1_555 1_555
H48 C50 1_555 1_555
O3 H49 1_555 1_555
C51 O3 1_555 1_555
H50 C51 1_555 1_555
H51 C51 1_555 1_555
C52 C51 1_555 1_555
H52 C52 1_555 1_555
H53 C52 1_555 1_555
H54 C52 1_555 1_555
C6 C10 1_555 1_555
C7 C8 1_555 1_555
C7 C9 1_555 1_555
C14 C15 1_555 1_555
C15 C20 1_555 1_555
C17 C18 1_555 1_555
C17 C19 1_555 1_555
O1 C27 1_555 1_555
O2 C29 1_555 1_555
C38 C39 1_555 1_555
C42 C44 1_555 1_555
C42 C48 1_555 1_555
C46 C49 1_555 1_555
C47 C50 1_555 1_555

#END
