
#######################################################################
#
#                 Cambridge Crystallographic Data Centre
#                                CCDC 
#
#######################################################################
#
# If this CIF has been generated from an entry in the Cambridge 
# Structural Database, then it will include bibliographic, chemical, 
# crystal, experimental, refinement or atomic coordinate data resulting 
# from the CCDC's data processing and validation procedures.
#
#######################################################################

data_OXAVUF
_chemical_formula_moiety         'C40 H28 Cl2'
_chemical_name_systematic        
2,3-bis(4-Chlorophenyl)-6-(diphenylmethyl)-1-phenyl-1H-indene
_symmetry_cell_setting           monoclinic
_symmetry_space_group_name_H-M   'P 21/c'
_symmetry_Int_Tables_number      14
_space_group_name_Hall           '-P 2ybc'
loop_
_symmetry_equiv_pos_site_id
_symmetry_equiv_pos_as_xyz
1 x,y,z
2 -x,1/2+y,1/2-z
3 -x,-y,-z
4 x,1/2-y,1/2+z
_cell_length_a                   6.137(3)
_cell_length_b                   35.521(15)
_cell_length_c                   13.921(6)
_cell_angle_alpha                90
_cell_angle_beta                 101.519(7)
_cell_angle_gamma                90
_cell_volume                     2973.55
_exptl_crystal_colour            colorless
_exptl_crystal_description       needle
_cell_formula_units_Z            4
loop_
_atom_site_label
_atom_site_type_symbol
_atom_site_fract_x
_atom_site_fract_y
_atom_site_fract_z
C1 C 0.5522(6) 0.10264(9) 0.1792(2)
H1 H 0.4355 0.1091 0.2153
C2 C 0.5094(6) 0.12552(9) 0.0843(2)
C3 C 0.6681(6) 0.15283(9) 0.0904(2)
C4 C 1.0278(6) 0.16797(10) 0.2164(3)
H2 H 1.0756 0.1872 0.1802
C5 C 1.1472(6) 0.15804(10) 0.3064(3)
H3 H 1.2773 0.1712 0.3309
C6 C 1.0861(6) 0.12948(10) 0.3634(3)
C7 C 0.8915(6) 0.10957(10) 0.3257(3)
H4 H 0.8455 0.0901 0.3616
C8 C 0.7684(6) 0.11901(9) 0.2351(2)
C9 C 0.8323(6) 0.14836(9) 0.1809(2)
C10 C 0.5527(6) 0.05998(9) 0.1677(2)
C11 C 0.7162(7) 0.04252(10) 0.1288(3)
H5 H 0.8282 0.0569 0.1110
C12 C 0.7163(8) 0.00394(11) 0.1158(3)
H6 H 0.8268 -0.0075 0.0890
C13 C 0.5534(10) -0.01718(12) 0.1425(3)
H7 H 0.5526 -0.0431 0.1334
C14 C 0.3924(9) -0.00094(13) 0.1821(4)
H8 H 0.2827 -0.0158 0.2003
C15 C 0.3898(7) 0.03809(11) 0.1958(3)
H9 H 0.2797 0.0492 0.2235
C16 C 0.3224(6) 0.11829(8) 0.0025(2)
C17 C 0.1302(6) 0.10054(9) 0.0171(3)
H10 H 0.1221 0.0925 0.0799
C18 C -0.0480(6) 0.09446(9) -0.0580(3)
H11 H -0.1746 0.0824 -0.0462
C19 C -0.0374(6) 0.10625(9) -0.1501(3)
C20 C 0.1495(6) 0.12305(10) -0.1696(2)
H12 H 0.1563 0.1305 -0.2330
C21 C 0.3276(6) 0.12876(9) -0.0932(3)
H13 H 0.4555 0.1400 -0.1062
C22 C 0.6728(6) 0.18511(9) 0.0224(2)
C23 C 0.5004(6) 0.21118(9) 0.0093(3)
H14 H 0.3866 0.2085 0.0440
C24 C 0.4966(7) 0.24126(9) -0.0554(3)
H15 H 0.3818 0.2588 -0.0640
C25 C 0.6650(7) 0.24441(9) -0.1059(3)
C26 C 0.8386(6) 0.21976(10) -0.0927(3)
H16 H 0.9528 0.2227 -0.1270
C27 C 0.8422(6) 0.19033(9) -0.0274(2)
H17 H 0.9618 0.1737 -0.0170
C28 C 1.2114(7) 0.15670(11) 0.5324(3)
C29 C 1.0202(8) 0.17582(12) 0.5328(3)
H18 H 0.8922 0.1691 0.4882
C30 C 1.0099(9) 0.20487(13) 0.5971(3)
H19 H 0.8760 0.2174 0.5949
C31 C 1.1931(10) 0.21548(13) 0.6640(3)
H20 H 1.1858 0.2349 0.7082
C32 C 1.3869(10) 0.19690(14) 0.6642(3)
H21 H 1.5145 0.2040 0.7086
C33 C 1.3978(8) 0.16747(11) 0.5991(3)
H22 H 1.5319 0.1550 0.6007
C34 C 1.2292(7) 0.12337(11) 0.4647(3)
H23 H 1.3835 0.1231 0.4556
C35 C 1.1955(7) 0.08672(11) 0.5141(3)
C36 C 1.3497(9) 0.05794(15) 0.5194(4)
H24 H 1.4701 0.0605 0.4886
C37 C 1.3244(12) 0.02514(15) 0.5709(5)
H25 H 1.4352 0.0069 0.5782
C38 C 1.1452(12) 0.01903(16) 0.6104(4)
H26 H 1.1250 -0.0038 0.6401
C39 C 0.9973(10) 0.04671(15) 0.6057(4)
H27 H 0.8736 0.0434 0.6339
C40 C 1.0240(9) 0.08023(13) 0.5597(3)
H28 H 0.9198 0.0992 0.5599
Cl1 Cl -0.27033(17) 0.10133(3) -0.24385(7)
Cl2 Cl 0.6579(2) 0.28090(3) -0.18991(8)
loop_
_geom_bond_atom_site_label_1
_geom_bond_atom_site_label_2
_geom_bond_site_symmetry_1
_geom_bond_site_symmetry_2
C1 H1 1_555 1_555
C2 C1 1_555 1_555
C3 C2 1_555 1_555
C4 H2 1_555 1_555
C5 C4 1_555 1_555
H3 C5 1_555 1_555
C6 C5 1_555 1_555
C7 C6 1_555 1_555
H4 C7 1_555 1_555
C8 C1 1_555 1_555
C9 C3 1_555 1_555
C10 C1 1_555 1_555
C11 C10 1_555 1_555
H5 C11 1_555 1_555
C12 C11 1_555 1_555
H6 C12 1_555 1_555
C13 C12 1_555 1_555
H7 C13 1_555 1_555
C14 C13 1_555 1_555
H8 C14 1_555 1_555
C15 C10 1_555 1_555
H9 C15 1_555 1_555
C16 C2 1_555 1_555
C17 C16 1_555 1_555
H10 C17 1_555 1_555
C18 C17 1_555 1_555
H11 C18 1_555 1_555
C19 C18 1_555 1_555
C20 C19 1_555 1_555
H12 C20 1_555 1_555
C21 C16 1_555 1_555
H13 C21 1_555 1_555
C22 C3 1_555 1_555
C23 C22 1_555 1_555
H14 C23 1_555 1_555
C24 C23 1_555 1_555
H15 C24 1_555 1_555
C25 C24 1_555 1_555
C26 C25 1_555 1_555
H16 C26 1_555 1_555
C27 C22 1_555 1_555
H17 C27 1_555 1_555
C28 C29 1_555 1_555
C29 H18 1_555 1_555
C30 C29 1_555 1_555
H19 C30 1_555 1_555
C31 C30 1_555 1_555
H20 C31 1_555 1_555
C32 C31 1_555 1_555
H21 C32 1_555 1_555
C33 C28 1_555 1_555
H22 C33 1_555 1_555
C34 C6 1_555 1_555
H23 C34 1_555 1_555
C35 C34 1_555 1_555
C36 C35 1_555 1_555
H24 C36 1_555 1_555
C37 C36 1_555 1_555
H25 C37 1_555 1_555
C38 C37 1_555 1_555
H26 C38 1_555 1_555
C39 C38 1_555 1_555
H27 C39 1_555 1_555
C40 C35 1_555 1_555
H28 C40 1_555 1_555
Cl1 C19 1_555 1_555
Cl2 C25 1_555 1_555
C4 C9 1_555 1_555
C7 C8 1_555 1_555
C8 C9 1_555 1_555
C14 C15 1_555 1_555
C20 C21 1_555 1_555
C26 C27 1_555 1_555
C28 C34 1_555 1_555
C32 C33 1_555 1_555
C39 C40 1_555 1_555

#END
