
#######################################################################
#
#                 Cambridge Crystallographic Data Centre
#                                CCDC 
#
#######################################################################
#
# If this CIF has been generated from an entry in the Cambridge 
# Structural Database, then it will include bibliographic, chemical, 
# crystal, experimental, refinement or atomic coordinate data resulting 
# from the CCDC's data processing and validation procedures.
#
#######################################################################

data_OXAWAM
_chemical_formula_moiety         'C27 H20'
_chemical_name_systematic        1,2,3-Triphenyl-1H-indene
_symmetry_cell_setting           triclinic
_symmetry_space_group_name_H-M   'P -1'
_symmetry_Int_Tables_number      2
_space_group_name_Hall           '-P 1'
loop_
_symmetry_equiv_pos_site_id
_symmetry_equiv_pos_as_xyz
1 x,y,z
2 -x,-y,-z
_cell_length_a                   9.199(3)
_cell_length_b                   9.905(3)
_cell_length_c                   11.327(4)
_cell_angle_alpha                85.410(4)
_cell_angle_beta                 67.645(4)
_cell_angle_gamma                84.856(4)
_cell_volume                     949.48
_exptl_crystal_colour            colorless
_exptl_crystal_description       prism
_cell_formula_units_Z            2
loop_
_atom_site_label
_atom_site_type_symbol
_atom_site_fract_x
_atom_site_fract_y
_atom_site_fract_z
C1 C 0.3575(2) 0.68557(18) 0.15071(17)
C2 C 0.2642(2) 0.57913(18) 0.21612(16)
C3 C 0.1040(2) 0.5896(2) 0.24380(18)
H1 H 0.0422 0.5179 0.2856
C4 C 0.0370(2) 0.7089(2) 0.2081(2)
H2 H -0.0707 0.7175 0.2263
C5 C 0.1289(3) 0.8149(2) 0.1458(2)
H3 H 0.0819 0.8949 0.1239
C6 C 0.2897(3) 0.80392(19) 0.11538(19)
H4 H 0.3513 0.8751 0.0718
C7 C 0.5268(2) 0.64713(18) 0.13339(16)
H5 H 0.5907 0.6411 0.0421
C8 C 0.5165(2) 0.50583(18) 0.19825(16)
C9 C 0.3671(2) 0.46750(17) 0.24333(16)
C10 C 0.5922(2) 0.75049(17) 0.18878(17)
C11 C 0.6827(2) 0.8525(2) 0.1130(2)
H6 H 0.7117 0.8543 0.0248
C12 C 0.7308(2) 0.9522(2) 0.1673(2)
H7 H 0.7908 1.0206 0.1155
C13 C 0.6901(3) 0.9499(2) 0.2969(3)
H8 H 0.7224 1.0167 0.3330
C14 C 0.6017(3) 0.8492(2) 0.3736(2)
H9 H 0.5750 0.8472 0.4615
C15 C 0.5523(2) 0.7507(2) 0.31997(19)
H10 H 0.4913 0.6834 0.3727
C16 C 0.6556(2) 0.42928(17) 0.21088(17)
C17 C 0.7945(2) 0.4109(2) 0.10645(19)
H11 H 0.8016 0.4491 0.0269
C18 C 0.9229(3) 0.3366(2) 0.1184(2)
H12 H 1.0148 0.3242 0.0467
C19 C 0.9160(3) 0.2807(2) 0.2357(2)
H13 H 1.0025 0.2304 0.2435
C20 C 0.7797(3) 0.3003(2) 0.3406(2)
H14 H 0.7747 0.2645 0.4204
C21 C 0.6504(3) 0.3725(2) 0.3290(2)
H15 H 0.5584 0.3836 0.4009
C22 C 0.3087(2) 0.33494(18) 0.30258(17)
C23 C 0.3811(2) 0.2154(2) 0.2425(2)
H16 H 0.4691 0.2194 0.1668
C24 C 0.3229(3) 0.0914(2) 0.2945(2)
H17 H 0.3717 0.0126 0.2533
C25 C 0.1939(3) 0.0833(2) 0.4062(2)
H18 H 0.1551 -0.0006 0.4405
C26 C 0.1217(3) 0.2001(2) 0.4675(2)
H19 H 0.0344 0.1950 0.5437
C27 C 0.1785(2) 0.3242(2) 0.41640(19)
H20 H 0.1291 0.4023 0.4586
loop_
_geom_bond_atom_site_label_1
_geom_bond_atom_site_label_2
_geom_bond_site_symmetry_1
_geom_bond_site_symmetry_2
C1 C2 1_555 1_555
C2 C3 1_555 1_555
C3 H1 1_555 1_555
C4 C3 1_555 1_555
H2 C4 1_555 1_555
C5 C4 1_555 1_555
H3 C5 1_555 1_555
C6 C1 1_555 1_555
H4 C6 1_555 1_555
C7 C1 1_555 1_555
H5 C7 1_555 1_555
C8 C7 1_555 1_555
C9 C2 1_555 1_555
C10 C7 1_555 1_555
C11 C10 1_555 1_555
H6 C11 1_555 1_555
C12 C11 1_555 1_555
H7 C12 1_555 1_555
C13 C12 1_555 1_555
H8 C13 1_555 1_555
C14 C13 1_555 1_555
H9 C14 1_555 1_555
C15 C10 1_555 1_555
H10 C15 1_555 1_555
C16 C8 1_555 1_555
C17 C16 1_555 1_555
H11 C17 1_555 1_555
C18 C17 1_555 1_555
H12 C18 1_555 1_555
C19 C18 1_555 1_555
H13 C19 1_555 1_555
C20 C19 1_555 1_555
H14 C20 1_555 1_555
C21 C16 1_555 1_555
H15 C21 1_555 1_555
C22 C9 1_555 1_555
C23 C22 1_555 1_555
H16 C23 1_555 1_555
C24 C23 1_555 1_555
H17 C24 1_555 1_555
C25 C24 1_555 1_555
H18 C25 1_555 1_555
C26 C25 1_555 1_555
H19 C26 1_555 1_555
C27 C22 1_555 1_555
H20 C27 1_555 1_555
C5 C6 1_555 1_555
C8 C9 1_555 1_555
C14 C15 1_555 1_555
C20 C21 1_555 1_555
C26 C27 1_555 1_555

#END
