
#######################################################################
#
#                 Cambridge Crystallographic Data Centre
#                                CCDC 
#
#######################################################################
#
# If this CIF has been generated from an entry in the Cambridge 
# Structural Database, then it will include bibliographic, chemical, 
# crystal, experimental, refinement or atomic coordinate data resulting 
# from the CCDC's data processing and validation procedures.
#
#######################################################################

data_OXEPAJ
_chemical_formula_moiety         
'2(C32 H32 I2 Mg2 N2 O2),C60 H58 I2 Mg3 N2 O4,2(C1 H2 Cl2)'
_chemical_name_systematic        
'bis(bis(\m~2~-1,1-Diphenylethoxo)-bis(acetonitrile)-di-iodo-di-magnesium) tetrakis(\m~2~-1,1-diphenylethoxo)-bis(acetonitrile)-di-iodo-tri-magnesium dichloromethane solvate'
_symmetry_cell_setting           monoclinic
_symmetry_space_group_name_H-M   'C 2/c'
_symmetry_Int_Tables_number      15
_space_group_name_Hall           '-C 2yn'
loop_
_symmetry_equiv_pos_site_id
_symmetry_equiv_pos_as_xyz
1 x,y,z
2 -x,y,1/2-z
3 1/2+x,1/2+y,z
4 1/2-x,1/2+y,1/2-z
5 -x,-y,-z
6 x,-y,1/2+z
7 1/2-x,1/2-y,-z
8 1/2+x,1/2-y,1/2+z
_cell_length_a                   23.1790(14)
_cell_length_b                   21.2045(13)
_cell_length_c                   28.9695(18)
_cell_angle_alpha                90
_cell_angle_beta                 112.158(5)
_cell_angle_gamma                90
_cell_volume                     13186.9
_exptl_crystal_colour            colorless
_exptl_crystal_description       plate
_cell_formula_units_Z            4
loop_
_atom_site_label
_atom_site_type_symbol
_atom_site_fract_x
_atom_site_fract_y
_atom_site_fract_z
I1 I 0.12265(3) 0.20300(3) 1.01105(3)
I2 I 0.13485(3) -0.09124(3) 0.96471(3)
Mg1 Mg 0.16634(13) 0.14395(12) 0.94976(11)
Mg2 Mg 0.17873(13) 0.01068(12) 0.93563(11)
C1 C 0.0044(4) 0.0749(4) 0.8802(3)
C2 C -0.0556(4) 0.0854(4) 0.8444(4)
H1 H -0.0612 0.0947 0.8116
C3 C -0.1072(4) 0.0815(4) 0.8586(4)
H2 H -0.1470 0.0874 0.8347
C4 C -0.1002(5) 0.0695(5) 0.9064(5)
H3 H -0.1346 0.0686 0.9156
C5 C -0.0413(5) 0.0586(5) 0.9412(4)
H4 H -0.0361 0.0490 0.9738
C6 C 0.0103(4) 0.0619(4) 0.9283(4)
H5 H 0.0496 0.0551 0.9526
C7 C 0.0608(4) 0.0806(4) 0.8646(3)
C8 C 0.0606(4) 0.1445(5) 0.8400(3)
C9 C 0.0436(4) 0.1980(5) 0.8597(4)
H6 H 0.0289 0.1946 0.8853
C10 C 0.0491(5) 0.2573(6) 0.8401(6)
H7 H 0.0393 0.2938 0.8534
C11 C 0.0695(6) 0.2609(8) 0.8008(6)
H8 H 0.0716 0.3000 0.7869
C12 C 0.0865(7) 0.2081(9) 0.7821(6)
H9 H 0.1007 0.2117 0.7562
C13 C 0.0828(6) 0.1500(7) 0.8011(4)
H10 H 0.0949 0.1143 0.7884
C14 C 0.0579(5) 0.0232(5) 0.8310(4)
H11 H 0.0935 0.0236 0.8217
H12 H 0.0205 0.0252 0.8017
H13 H 0.0580 -0.0149 0.8489
N1 N 0.2020(3) 0.2053(3) 0.9108(3)
C15 C 0.2187(4) 0.2386(4) 0.8883(3)
C16 C 0.2398(5) 0.2826(5) 0.8594(4)
H14 H 0.2184 0.3220 0.8566
H15 H 0.2311 0.2655 0.8268
H16 H 0.2838 0.2892 0.8759
N2 N 0.2232(4) -0.0124(4) 0.8877(3)
C17 C 0.2552(5) -0.0225(4) 0.8668(4)
C18 C 0.2985(5) -0.0356(7) 0.8416(5)
H17 H 0.3372 -0.0510 0.8654
H18 H 0.3059 0.0025 0.8267
H19 H 0.2806 -0.0667 0.8161
O1 O 0.2252(2) 0.0762(2) 0.9813(2)
C19 C 0.2864(4) 0.0796(3) 1.0187(3)
C20 C 0.3272(4) 0.0323(4) 1.0050(3)
C21 C 0.3714(5) 0.0488(4) 0.9857(4)
H20 H 0.3786 0.0913 0.9822
C22 C 0.4049(5) 0.0047(6) 0.9717(4)
H21 H 0.4349 0.0173 0.9596
C23 C 0.3936(5) -0.0593(6) 0.9759(4)
H22 H 0.4154 -0.0896 0.9658
C24 C 0.3503(5) -0.0772(4) 0.9949(4)
H23 H 0.3426 -0.1197 0.9979
C25 C 0.3173(4) -0.0310(4) 1.0099(3)
H24 H 0.2883 -0.0434 1.0232
C26 C 0.2872(4) 0.0651(4) 1.0701(3)
C27 C 0.3424(4) 0.0648(4) 1.1113(4)
H25 H 0.3792 0.0738 1.1069
C28 C 0.3449(5) 0.0517(5) 1.1585(4)
H26 H 0.3830 0.0526 1.1853
C29 C 0.2913(5) 0.0372(5) 1.1665(4)
H27 H 0.2927 0.0283 1.1983
C30 C 0.2352(5) 0.0363(4) 1.1255(4)
H28 H 0.1987 0.0264 1.1301
C31 C 0.2327(5) 0.0498(4) 1.0779(4)
H29 H 0.1947 0.0488 1.0511
C32 C 0.3092(4) 0.1486(4) 1.0196(4)
H30 H 0.3071 0.1602 0.9870
H31 H 0.3514 0.1521 1.0430
H32 H 0.2831 0.1763 1.0295
O2 O 0.1175(2) 0.0769(2) 0.9067(2)
I3 I 0.20173(3) 0.35386(3) 0.21034(3)
Mg3 Mg 0.0000 0.31407(16) 0.2500
O3 O 0.0803(2) 0.2685(2) 0.2632(2)
C33 C 0.1085(4) 0.2200(3) 0.2997(3)
C34 C 0.1275(4) 0.1653(4) 0.2732(3)
C35 C 0.0958(4) 0.1081(4) 0.2620(4)
H33 H 0.0618 0.1015 0.2711
C36 C 0.1140(5) 0.0612(4) 0.2377(4)
H34 H 0.0933 0.0227 0.2319
C37 C 0.1623(5) 0.0703(4) 0.2220(4)
H35 H 0.1733 0.0388 0.2046
C38 C 0.1940(5) 0.1263(5) 0.2323(4)
H36 H 0.2272 0.1328 0.2223
C39 C 0.1766(4) 0.1738(4) 0.2579(4)
H37 H 0.1984 0.2116 0.2647
C40 C 0.1669(4) 0.2447(4) 0.3426(4)
C41 C 0.1939(5) 0.2087(5) 0.3844(4)
H38 H 0.1794 0.1680 0.3855
C42 C 0.2426(6) 0.2325(6) 0.4252(5)
H39 H 0.2598 0.2079 0.4537
C43 C 0.2658(6) 0.2914(6) 0.4243(5)
H40 H 0.2984 0.3070 0.4520
C44 C 0.2408(5) 0.3269(5) 0.3825(5)
H41 H 0.2568 0.3669 0.3817
C45 C 0.1916(4) 0.3050(4) 0.3409(4)
H42 H 0.1753 0.3297 0.3124
C46 C 0.0603(4) 0.1990(4) 0.3215(3)
H43 H 0.0504 0.2340 0.3382
H44 H 0.0774 0.1653 0.3448
H45 H 0.0232 0.1847 0.2950
Mg4 Mg 0.09315(13) 0.30023(13) 0.20459(11)
O4 O 0.0226(3) 0.3552(2) 0.1981(2)
C47 C -0.0149(4) 0.3912(4) 0.1555(4)
C48 C -0.0196(4) 0.3539(4) 0.1075(3)
C49 C 0.0287(5) 0.3567(4) 0.0916(4)
H46 H 0.0616 0.3841 0.1073
C50 C 0.0297(6) 0.3195(5) 0.0528(5)
H47 H 0.0631 0.3215 0.0424
C51 C -0.0204(6) 0.2789(5) 0.0294(4)
H48 H -0.0205 0.2536 0.0031
C52 C -0.0688(6) 0.2763(4) 0.0448(4)
H49 H -0.1020 0.2493 0.0288
C53 C -0.0698(5) 0.3143(4) 0.0851(4)
H50 H -0.1028 0.3125 0.0958
C54 C 0.0128(4) 0.4570(4) 0.1552(3)
C55 C -0.0109(4) 0.4954(4) 0.1131(4)
H51 H -0.0409 0.4788 0.0843
C56 C 0.0081(5) 0.5562(4) 0.1125(4)
H52 H -0.0081 0.5802 0.0836
C57 C 0.0512(5) 0.5811(4) 0.1547(4)
H53 H 0.0637 0.6228 0.1548
C58 C 0.0762(5) 0.5456(5) 0.1967(4)
H54 H 0.1061 0.5627 0.2253
C59 C 0.0564(4) 0.4832(4) 0.1966(4)
H55 H 0.0734 0.4591 0.2254
C60 C -0.0781(4) 0.4033(4) 0.1592(4)
H56 H -0.0955 0.3640 0.1643
H57 H -0.1058 0.4225 0.1290
H58 H -0.0727 0.4309 0.1868
N3 N 0.0739(4) 0.2239(4) 0.1549(3)
C61 C 0.0620(4) 0.1805(5) 0.1299(4)
C62 C 0.0471(5) 0.1235(5) 0.0972(4)
I3A I -0.20173(3) 0.35386(3) 0.28966(3)
O3A O -0.0803(2) 0.2685(2) 0.2368(2)
C33A C -0.1085(4) 0.2200(3) 0.2003(3)
C34A C -0.1275(4) 0.1653(4) 0.2268(3)
C35A C -0.0958(4) 0.1081(4) 0.2380(4)
H33A H -0.0618 0.1015 0.2289
C36A C -0.1140(5) 0.0612(4) 0.2623(4)
H34A H -0.0933 0.0227 0.2681
C37A C -0.1623(5) 0.0703(4) 0.2780(4)
H35A H -0.1733 0.0388 0.2954
C38A C -0.1940(5) 0.1263(5) 0.2677(4)
H36A H -0.2272 0.1328 0.2777
C39A C -0.1766(4) 0.1738(4) 0.2421(4)
H37A H -0.1984 0.2116 0.2353
C40A C -0.1669(4) 0.2447(4) 0.1574(4)
C41A C -0.1939(5) 0.2087(5) 0.1156(4)
H38A H -0.1794 0.1680 0.1145
C42A C -0.2426(6) 0.2325(6) 0.0748(5)
H39A H -0.2598 0.2079 0.0463
C43A C -0.2658(6) 0.2914(6) 0.0757(5)
H40A H -0.2984 0.3070 0.0480
C44A C -0.2408(5) 0.3269(5) 0.1175(5)
H41A H -0.2568 0.3669 0.1183
C45A C -0.1916(4) 0.3050(4) 0.1591(4)
H42A H -0.1753 0.3297 0.1876
C46A C -0.0603(4) 0.1990(4) 0.1785(3)
H43A H -0.0504 0.2340 0.1618
H44A H -0.0774 0.1653 0.1552
H45A H -0.0232 0.1847 0.2050
Mg4A Mg -0.09315(13) 0.30023(13) 0.29541(11)
O4A O -0.0226(3) 0.3552(2) 0.3019(2)
C47A C 0.0149(4) 0.3912(4) 0.3445(4)
C48A C 0.0196(4) 0.3539(4) 0.3925(3)
C49A C -0.0287(5) 0.3567(4) 0.4084(4)
H46A H -0.0616 0.3841 0.3927
C50A C -0.0297(6) 0.3195(5) 0.4472(5)
H47A H -0.0631 0.3215 0.4576
C51A C 0.0204(6) 0.2789(5) 0.4706(4)
H48A H 0.0205 0.2536 0.4969
C52A C 0.0688(6) 0.2763(4) 0.4552(4)
H49A H 0.1020 0.2493 0.4712
C53A C 0.0698(5) 0.3143(4) 0.4149(4)
H50A H 0.1028 0.3125 0.4042
C54A C -0.0128(4) 0.4570(4) 0.3448(3)
C55A C 0.0109(4) 0.4954(4) 0.3869(4)
H51A H 0.0409 0.4788 0.4157
C56A C -0.0081(5) 0.5562(4) 0.3875(4)
H52A H 0.0081 0.5802 0.4164
C57A C -0.0512(5) 0.5811(4) 0.3453(4)
H53A H -0.0637 0.6228 0.3452
C58A C -0.0762(5) 0.5456(5) 0.3033(4)
H54A H -0.1061 0.5627 0.2747
C59A C -0.0564(4) 0.4832(4) 0.3034(4)
H55A H -0.0734 0.4591 0.2746
C60A C 0.0781(4) 0.4033(4) 0.3408(4)
H56A H 0.0955 0.3640 0.3357
H57A H 0.1058 0.4225 0.3710
H58A H 0.0727 0.4309 0.3132
N3A N -0.0739(4) 0.2239(4) 0.3451(3)
C61A C -0.0620(4) 0.1805(5) 0.3701(4)
C62A C -0.0471(5) 0.1235(5) 0.4028(4)
Cl1 Cl 0.16030(17) 0.7054(2) 0.20939(17)
Cl2 Cl 0.0987(3) 0.7303(3) 0.1043(2)
C63 C 0.1529(9) 0.7499(8) 0.1597(2)
H59 H 0.1929 0.7503 0.1562
H60 H 0.1446 0.7928 0.1671
loop_
_geom_bond_atom_site_label_1
_geom_bond_atom_site_label_2
_geom_bond_site_symmetry_1
_geom_bond_site_symmetry_2
I1 Mg1 1_555 1_555
I2 Mg2 1_555 1_555
I3 Mg4 1_555 1_555
Mg1 N1 1_555 1_555
Mg2 N2 1_555 1_555
C1 C2 1_555 1_555
C2 H1 1_555 1_555
C3 C2 1_555 1_555
H2 C3 1_555 1_555
C4 C3 1_555 1_555
H3 C4 1_555 1_555
C5 C4 1_555 1_555
H4 C5 1_555 1_555
C6 C1 1_555 1_555
H5 C6 1_555 1_555
C7 C1 1_555 1_555
C8 C7 1_555 1_555
C9 C8 1_555 1_555
H6 C9 1_555 1_555
C10 C9 1_555 1_555
H7 C10 1_555 1_555
C11 C10 1_555 1_555
H8 C11 1_555 1_555
C12 C11 1_555 1_555
H9 C12 1_555 1_555
C13 C8 1_555 1_555
H10 C13 1_555 1_555
C14 C7 1_555 1_555
H11 C14 1_555 1_555
H12 C14 1_555 1_555
H13 C14 1_555 1_555
N1 C15 1_555 1_555
C15 C16 1_555 1_555
C16 H14 1_555 1_555
H15 C16 1_555 1_555
H16 C16 1_555 1_555
N2 C17 1_555 1_555
C17 C18 1_555 1_555
C18 H17 1_555 1_555
H18 C18 1_555 1_555
H19 C18 1_555 1_555
O1 Mg1 1_555 1_555
C19 O1 1_555 1_555
C20 C19 1_555 1_555
C21 C20 1_555 1_555
H20 C21 1_555 1_555
C22 C21 1_555 1_555
H21 C22 1_555 1_555
C23 C22 1_555 1_555
H22 C23 1_555 1_555
C24 C23 1_555 1_555
H23 C24 1_555 1_555
C25 C20 1_555 1_555
H24 C25 1_555 1_555
C26 C19 1_555 1_555
C27 C26 1_555 1_555
H25 C27 1_555 1_555
C28 C27 1_555 1_555
H26 C28 1_555 1_555
C29 C28 1_555 1_555
H27 C29 1_555 1_555
C30 C29 1_555 1_555
H28 C30 1_555 1_555
C31 C26 1_555 1_555
H29 C31 1_555 1_555
C32 C19 1_555 1_555
H30 C32 1_555 1_555
H31 C32 1_555 1_555
H32 C32 1_555 1_555
O2 Mg1 1_555 1_555
Mg3 O3 1_555 1_555
O3 C33 1_555 1_555
C33 C34 1_555 1_555
C34 C35 1_555 1_555
C35 H33 1_555 1_555
C36 C35 1_555 1_555
H34 C36 1_555 1_555
C37 C36 1_555 1_555
H35 C37 1_555 1_555
C38 C37 1_555 1_555
H36 C38 1_555 1_555
C39 C34 1_555 1_555
H37 C39 1_555 1_555
C40 C33 1_555 1_555
C41 C40 1_555 1_555
H38 C41 1_555 1_555
C42 C41 1_555 1_555
H39 C42 1_555 1_555
C43 C42 1_555 1_555
H40 C43 1_555 1_555
C44 C43 1_555 1_555
H41 C44 1_555 1_555
C45 C40 1_555 1_555
H42 C45 1_555 1_555
C46 C33 1_555 1_555
H43 C46 1_555 1_555
H44 C46 1_555 1_555
H45 C46 1_555 1_555
Mg4 O3 1_555 1_555
O4 Mg3 1_555 1_555
C47 O4 1_555 1_555
C48 C47 1_555 1_555
C49 C48 1_555 1_555
H46 C49 1_555 1_555
C50 C49 1_555 1_555
H47 C50 1_555 1_555
C51 C50 1_555 1_555
H48 C51 1_555 1_555
C52 C51 1_555 1_555
H49 C52 1_555 1_555
C53 C48 1_555 1_555
H50 C53 1_555 1_555
C54 C47 1_555 1_555
C55 C54 1_555 1_555
H51 C55 1_555 1_555
C56 C55 1_555 1_555
H52 C56 1_555 1_555
C57 C56 1_555 1_555
H53 C57 1_555 1_555
C58 C57 1_555 1_555
H54 C58 1_555 1_555
C59 C54 1_555 1_555
H55 C59 1_555 1_555
C60 C47 1_555 1_555
H56 C60 1_555 1_555
H57 C60 1_555 1_555
H58 C60 1_555 1_555
N3 Mg4 1_555 1_555
C61 N3 1_555 1_555
C62 C61 1_555 1_555
Cl1 C63 1_555 1_555
Cl2 C63 1_555 1_555
C63 H59 1_555 1_555
H60 C63 1_555 1_555
I3A Mg4A 1_555 1_555
O3A Mg3 1_555 1_555
C33A O3A 1_555 1_555
C34A C33A 1_555 1_555
C35A C34A 1_555 1_555
H33A C35A 1_555 1_555
C36A C35A 1_555 1_555
H34A C36A 1_555 1_555
C37A C36A 1_555 1_555
H35A C37A 1_555 1_555
C38A C37A 1_555 1_555
H36A C38A 1_555 1_555
C39A C34A 1_555 1_555
H37A C39A 1_555 1_555
C40A C33A 1_555 1_555
C41A C40A 1_555 1_555
H38A C41A 1_555 1_555
C42A C41A 1_555 1_555
H39A C42A 1_555 1_555
C43A C42A 1_555 1_555
H40A C43A 1_555 1_555
C44A C43A 1_555 1_555
H41A C44A 1_555 1_555
C45A C40A 1_555 1_555
H42A C45A 1_555 1_555
C46A C33A 1_555 1_555
H43A C46A 1_555 1_555
H44A C46A 1_555 1_555
H45A C46A 1_555 1_555
Mg4A O3A 1_555 1_555
O4A Mg3 1_555 1_555
C47A O4A 1_555 1_555
C48A C47A 1_555 1_555
C49A C48A 1_555 1_555
H46A C49A 1_555 1_555
C50A C49A 1_555 1_555
H47A C50A 1_555 1_555
C51A C50A 1_555 1_555
H48A C51A 1_555 1_555
C52A C51A 1_555 1_555
H49A C52A 1_555 1_555
C53A C48A 1_555 1_555
H50A C53A 1_555 1_555
C54A C47A 1_555 1_555
C55A C54A 1_555 1_555
H51A C55A 1_555 1_555
C56A C55A 1_555 1_555
H52A C56A 1_555 1_555
C57A C56A 1_555 1_555
H53A C57A 1_555 1_555
C58A C57A 1_555 1_555
H54A C58A 1_555 1_555
C59A C54A 1_555 1_555
H55A C59A 1_555 1_555
C60A C47A 1_555 1_555
H56A C60A 1_555 1_555
H57A C60A 1_555 1_555
H58A C60A 1_555 1_555
N3A Mg4A 1_555 1_555
C61A N3A 1_555 1_555
C62A C61A 1_555 1_555
Mg2 O1 1_555 1_555
Mg2 O2 1_555 1_555
C5 C6 1_555 1_555
C7 O2 1_555 1_555
C12 C13 1_555 1_555
C24 C25 1_555 1_555
C30 C31 1_555 1_555
C38 C39 1_555 1_555
C44 C45 1_555 1_555
Mg4 O4 1_555 1_555
C52 C53 1_555 1_555
C58 C59 1_555 1_555
C38A C39A 1_555 1_555
C44A C45A 1_555 1_555
Mg4A O4A 1_555 1_555
C52A C53A 1_555 1_555
C58A C59A 1_555 1_555

#END
