
#######################################################################
#
#                 Cambridge Crystallographic Data Centre
#                                CCDC 
#
#######################################################################
#
# If this CIF has been generated from an entry in the Cambridge 
# Structural Database, then it will include bibliographic, chemical, 
# crystal, experimental, refinement or atomic coordinate data resulting 
# from the CCDC's data processing and validation procedures.
#
#######################################################################

data_OXICII
_chemical_formula_moiety         'C36 H37 O3 P1'
_chemical_name_systematic        
4-(2,4-Di-t-butylphenoxy)-2,6-dimethyldinaphtho[2,1-d:1',2'-f][1,3,2]dioxaphosphepine
_symmetry_cell_setting           monoclinic
_symmetry_space_group_name_H-M   'P 21'
_symmetry_Int_Tables_number      4
_space_group_name_Hall           'P 2yb'
loop_
_symmetry_equiv_pos_site_id
_symmetry_equiv_pos_as_xyz
1 x,y,z
2 -x,1/2+y,-z
_cell_length_a                   9.9688(11)
_cell_length_b                   9.1502(10)
_cell_length_c                   16.0481(17)
_cell_angle_alpha                90
_cell_angle_beta                 99.461(4)
_cell_angle_gamma                90
_cell_volume                     1443.94
_exptl_crystal_colour            colorless
_exptl_crystal_description       plate
_cell_formula_units_Z            2
loop_
_atom_site_label
_atom_site_type_symbol
_atom_site_fract_x
_atom_site_fract_y
_atom_site_fract_z
P1 P 0.64253(4) 0.62549(5) 0.75744(3)
O1 O 0.62388(12) 0.80249(14) 0.76060(8)
O2 O 0.51289(12) 0.58670(14) 0.80469(8)
O3 O 0.57499(12) 0.58868(14) 0.66069(8)
C1 C 0.68857(18) 0.8756(2) 0.83344(11)
C2 C 0.77805(18) 0.9920(2) 0.82656(11)
C3 C 0.83564(18) 1.0593(2) 0.90211(12)
H1 H 0.8954 1.1393 0.8990
C4 C 0.81120(18) 1.0168(2) 0.98202(11)
C5 C 0.71997(18) 0.9024(2) 0.98460(12)
H2 H 0.6995 0.8711 1.0375
C6 C 0.65880(18) 0.8338(2) 0.91161(12)
H3 H 0.5956 0.7572 0.9148
C7 C 0.80908(19) 1.0429(2) 0.74014(12)
C8 C 0.8686(2) 0.9174(2) 0.69376(13)
H4 H 0.7998 0.8410 0.6795
H5 H 0.9481 0.8764 0.7304
H6 H 0.8960 0.9548 0.6419
C9 C 0.6783(2) 1.1018(2) 0.68701(12)
H7 H 0.6478 1.1886 0.7144
H8 H 0.6075 1.0265 0.6821
H9 H 0.6961 1.1279 0.6306
C10 C 0.9140(2) 1.1666(2) 0.74953(13)
H10 H 0.9352 1.1922 0.6938
H11 H 0.9971 1.1344 0.7863
H12 H 0.8768 1.2523 0.7744
C11 C 0.88211(19) 1.0864(2) 1.06486(12)
C12 C 0.9769(2) 0.9740(3) 1.11426(13)
H13 H 1.0486 0.9477 1.0819
H14 H 0.9248 0.8864 1.1238
H15 H 1.0180 1.0156 1.1688
C13 C 0.7780(2) 1.1305(3) 1.12091(12)
H16 H 0.7305 1.0432 1.1362
H17 H 0.7119 1.1986 1.0900
H18 H 0.8250 1.1779 1.1723
C14 C 0.9634(3) 1.2221(3) 1.05062(14)
H19 H 1.0022 1.2649 1.1053
H20 H 0.9035 1.2936 1.0176
H21 H 1.0369 1.1954 1.0198
C15 C 0.47231(17) 0.4406(2) 0.79627(11)
C16 C 0.51822(18) 0.3464(2) 0.86498(12)
C17 C 0.47391(18) 0.2047(2) 0.85824(12)
H22 H 0.5024 0.1390 0.9035
C18 C 0.38686(17) 0.1534(2) 0.78567(11)
C19 C 0.34493(19) 0.0053(2) 0.77944(12)
H23 H 0.3724 -0.0586 0.8257
C20 C 0.26613(19) -0.0470(2) 0.70855(12)
H24 H 0.2380 -0.1463 0.7058
C21 C 0.22631(19) 0.0463(2) 0.63936(12)
H25 H 0.1723 0.0090 0.5896
C22 C 0.26451(18) 0.1906(2) 0.64282(12)
H26 H 0.2372 0.2517 0.5952
C23 C 0.34425(17) 0.2498(2) 0.71649(12)
C24 C 0.38648(17) 0.4000(2) 0.72393(11)
C25 C 0.34203(17) 0.51405(19) 0.65847(11)
C26 C 0.20105(18) 0.5429(2) 0.62840(11)
C27 C 0.09438(18) 0.4761(2) 0.66412(11)
H27 H 0.1158 0.4049 0.7074
C28 C -0.03852(18) 0.5133(2) 0.63684(11)
H28 H -0.1079 0.4686 0.6621
C29 C -0.07408(18) 0.6165(2) 0.57226(11)
H29 H -0.1669 0.6404 0.5537
C30 C 0.02505(19) 0.6822(2) 0.53634(12)
H30 H 0.0005 0.7511 0.4922
C31 C 0.16423(18) 0.6494(2) 0.56386(11)
C32 C 0.26726(19) 0.7246(2) 0.53063(11)
H31 H 0.2423 0.7905 0.4850
C33 C 0.40173(18) 0.7052(2) 0.56221(11)
C34 C 0.43574(17) 0.6025(2) 0.62821(11)
C35 C 0.6099(2) 0.4043(2) 0.94116(13)
H32 H 0.6360 0.3245 0.9813
H33 H 0.5620 0.4799 0.9680
H34 H 0.6916 0.4463 0.9240
C36 C 0.5113(2) 0.7872(2) 0.52759(13)
H35 H 0.4695 0.8555 0.4839
H36 H 0.5688 0.7179 0.5031
H37 H 0.5670 0.8417 0.5733
loop_
_geom_bond_atom_site_label_1
_geom_bond_atom_site_label_2
_geom_bond_site_symmetry_1
_geom_bond_site_symmetry_2
P1 O1 1_555 1_555
O1 C1 1_555 1_555
O2 P1 1_555 1_555
O3 P1 1_555 1_555
C1 C2 1_555 1_555
C2 C3 1_555 1_555
C3 H1 1_555 1_555
C4 C3 1_555 1_555
C5 C4 1_555 1_555
H2 C5 1_555 1_555
C6 C1 1_555 1_555
H3 C6 1_555 1_555
C7 C2 1_555 1_555
C8 C7 1_555 1_555
H4 C8 1_555 1_555
H5 C8 1_555 1_555
H6 C8 1_555 1_555
C9 C7 1_555 1_555
H7 C9 1_555 1_555
H8 C9 1_555 1_555
H9 C9 1_555 1_555
C10 C7 1_555 1_555
H10 C10 1_555 1_555
H11 C10 1_555 1_555
H12 C10 1_555 1_555
C11 C4 1_555 1_555
C12 C11 1_555 1_555
H13 C12 1_555 1_555
H14 C12 1_555 1_555
H15 C12 1_555 1_555
C13 C11 1_555 1_555
H16 C13 1_555 1_555
H17 C13 1_555 1_555
H18 C13 1_555 1_555
C14 C11 1_555 1_555
H19 C14 1_555 1_555
H20 C14 1_555 1_555
H21 C14 1_555 1_555
C15 O2 1_555 1_555
C16 C15 1_555 1_555
C17 C16 1_555 1_555
H22 C17 1_555 1_555
C18 C17 1_555 1_555
C19 C18 1_555 1_555
H23 C19 1_555 1_555
C20 C19 1_555 1_555
H24 C20 1_555 1_555
C21 C20 1_555 1_555
H25 C21 1_555 1_555
C22 C21 1_555 1_555
H26 C22 1_555 1_555
C23 C18 1_555 1_555
C24 C15 1_555 1_555
C25 C24 1_555 1_555
C26 C25 1_555 1_555
C27 C26 1_555 1_555
H27 C27 1_555 1_555
C28 C27 1_555 1_555
H28 C28 1_555 1_555
C29 C28 1_555 1_555
H29 C29 1_555 1_555
C30 C29 1_555 1_555
H30 C30 1_555 1_555
C31 C26 1_555 1_555
C32 C31 1_555 1_555
H31 C32 1_555 1_555
C33 C32 1_555 1_555
C34 O3 1_555 1_555
C35 C16 1_555 1_555
H32 C35 1_555 1_555
H33 C35 1_555 1_555
H34 C35 1_555 1_555
C36 C33 1_555 1_555
H35 C36 1_555 1_555
H36 C36 1_555 1_555
H37 C36 1_555 1_555
C5 C6 1_555 1_555
C22 C23 1_555 1_555
C23 C24 1_555 1_555
C25 C34 1_555 1_555
C30 C31 1_555 1_555
C33 C34 1_555 1_555

#END
