
#######################################################################
#
#                 Cambridge Crystallographic Data Centre
#                                CCDC 
#
#######################################################################
#
# If this CIF has been generated from an entry in the Cambridge 
# Structural Database, then it will include bibliographic, chemical, 
# crystal, experimental, refinement or atomic coordinate data resulting 
# from the CCDC's data processing and validation procedures.
#
#######################################################################

data_OXIFOS02
_chemical_formula_moiety         'C30 H22 N2 O3 S1,C1 H1 Cl3'
_chemical_name_systematic        
"1''-benzyl-3'-(2-furyl)-5'-sulfanylidenedispiro[indene-2,4'-pyrrolidine-2',3''-indole]-1,2''(1''H,3H)-dione chloroform solvate"
_symmetry_cell_setting           orthorhombic
_symmetry_space_group_name_H-M   'P 21 21 21'
_symmetry_Int_Tables_number      19
_space_group_name_Hall           'P 2ac 2ab'
loop_
_symmetry_equiv_pos_site_id
_symmetry_equiv_pos_as_xyz
1 x,y,z
2 1/2-x,-y,1/2+z
3 -x,1/2+y,1/2-z
4 1/2+x,1/2-y,-z
_cell_length_a                   8.0194(5)
_cell_length_b                   16.8849(11)
_cell_length_c                   20.7855(13)
_cell_angle_alpha                90
_cell_angle_beta                 90
_cell_angle_gamma                90
_cell_volume                     2814.5
_exptl_crystal_colour            colorless
_exptl_crystal_description       Block
_cell_formula_units_Z            4
loop_
_atom_site_label
_atom_site_type_symbol
_atom_site_fract_x
_atom_site_fract_y
_atom_site_fract_z
C1 C 0.4451(5) 0.3175(3) 0.01804(19)
Cl1 Cl 0.4242(2) 0.21999(8) 0.04407(8)
H1 H 0.553(5) 0.337(2) 0.0300(18)
Cl2 Cl 0.43710(17) 0.32090(8) -0.06587(5)
Cl3 Cl 0.28782(12) 0.37740(6) 0.05177(5)
O1 O 0.3426(3) -0.09682(15) -0.23158(11)
H2 H 0.325(5) -0.416(2) -0.0400(17)
H3 H 0.378(4) 0.251(2) -0.2028(16)
H4 H 0.186(5) -0.268(2) -0.2166(17)
H5 H 0.062(4) -0.0428(19) -0.1762(16)
H6 H -0.013(4) -0.005(2) -0.1123(16)
H7 H -0.038(5) 0.118(2) -0.2081(16)
H8 H -0.370(5) -0.209(2) -0.1541(17)
H9 H -0.143(4) -0.135(2) -0.1245(16)
H10 H 0.523(5) 0.149(2) -0.1495(18)
H11 H 0.108(5) -0.158(2) 0.015(2)
H12 H 0.100(4) 0.236(2) -0.2356(17)
H13 H -0.108(4) -0.408(2) -0.1114(16)
H14 H 0.234(6) -0.593(3) -0.260(2)
H15 H -0.354(5) -0.343(2) -0.1486(18)
H16 H 0.377(5) -0.087(2) -0.324(2)
H17 H 0.250(6) -0.226(3) -0.331(2)
H18 H 0.074(6) -0.547(3) -0.090(2)
H19 H 0.369(5) -0.392(2) -0.1721(18)
H20 H 0.134(5) -0.434(3) -0.029(2)
H21 H 0.077(6) -0.631(3) -0.176(2)
H22 H 0.383(6) -0.471(3) -0.262(2)
H23 H 0.388(4) -0.1457(18) -0.1065(15)
C2 C 0.2775(4) -0.15596(19) -0.19392(15)
C3 C 0.2339(5) -0.2178(2) -0.23008(17)
C4 C 0.2718(5) -0.1970(2) -0.29503(17)
C5 C 0.2817(4) -0.13771(18) -0.12347(15)
C6 C 0.1741(4) -0.19129(18) -0.07954(14)
C7 C 0.2347(4) -0.05252(18) -0.10398(15)
C8 C 0.1889(4) -0.06299(19) -0.03346(15)
C9 C 0.4089(5) 0.1447(2) -0.16147(18)
C10 C 0.3257(5) 0.2037(2) -0.19388(17)
C11 C 0.1586(5) 0.1944(2) -0.21022(17)
C12 C 0.0725(5) 0.1262(2) -0.19433(16)
C13 C 0.1563(4) 0.06673(18) -0.16174(15)
C14 C 0.3217(4) 0.07605(19) -0.14538(15)
C15 C 0.0879(4) -0.0129(2) -0.14077(17)
C16 C 0.3841(4) 0.0048(2) -0.11246(16)
C17 C 0.2706(4) -0.26795(19) -0.06226(14)
C18 C 0.0079(4) -0.22306(19) -0.10245(14)
C19 C 0.0131(4) -0.30549(19) -0.09817(15)
C20 C -0.1214(4) -0.3523(2) -0.11426(17)
C21 C -0.2645(5) -0.3141(2) -0.13506(17)
C22 C -0.2728(5) -0.2325(2) -0.13851(17)
C23 C -0.1361(4) -0.1864(2) -0.12125(16)
C24 C 0.2110(6) -0.4131(2) -0.05985(17)
C25 C 0.2153(4) -0.46400(19) -0.11931(17)
C26 C 0.3077(5) -0.4412(2) -0.17256(19)
C27 C 0.3154(6) -0.4890(3) -0.2265(2)
C28 C 0.2310(6) -0.5599(3) -0.2269(2)
C29 C 0.1371(6) -0.5824(3) -0.1749(3)
C30 C 0.1308(6) -0.5348(2) -0.1213(3)
N1 N 0.1588(3) -0.13944(15) -0.02353(13)
N2 N 0.1688(4) -0.33053(15) -0.07383(13)
C31 C 0.3353(5) -0.1245(3) -0.29380(17)
O2 O 0.5252(3) -0.01049(15) -0.09608(13)
O3 O 0.4139(3) -0.26998(13) -0.04317(11)
S1 S 0.17061(13) 0.00843(5) 0.02050(4)
loop_
_geom_bond_atom_site_label_1
_geom_bond_atom_site_label_2
_geom_bond_site_symmetry_1
_geom_bond_site_symmetry_2
C1 Cl1 1_555 1_555
H1 C1 1_555 1_555
Cl2 C1 1_555 1_555
Cl3 C1 1_555 1_555
O1 C2 1_555 1_555
H2 C24 1_555 1_555
H3 C10 1_555 1_555
H4 C3 1_555 1_555
H5 C15 1_555 1_555
H6 C15 1_555 1_555
H7 C12 1_555 1_555
H8 C22 1_555 1_555
H9 C23 1_555 1_555
H10 C9 1_555 1_555
H11 N1 1_555 1_555
H12 C11 1_555 1_555
H13 C20 1_555 1_555
H14 C28 1_555 1_555
H15 C21 1_555 1_555
H16 C31 1_555 1_555
H17 C4 1_555 1_555
H18 C30 1_555 1_555
H19 C26 1_555 1_555
H20 C24 1_555 1_555
H21 C29 1_555 1_555
H22 C27 1_555 1_555
H23 C5 1_555 1_555
C2 C3 1_555 1_555
C3 C4 1_555 1_555
C4 C31 1_555 1_555
C5 C2 1_555 1_555
C6 C5 1_555 1_555
C7 C5 1_555 1_555
C8 C7 1_555 1_555
C9 C10 1_555 1_555
C10 C11 1_555 1_555
C11 C12 1_555 1_555
C12 C13 1_555 1_555
C13 C14 1_555 1_555
C14 C9 1_555 1_555
C15 C7 1_555 1_555
C16 C7 1_555 1_555
C17 C6 1_555 1_555
C18 C6 1_555 1_555
C19 C18 1_555 1_555
C20 C19 1_555 1_555
C21 C20 1_555 1_555
C22 C21 1_555 1_555
C23 C18 1_555 1_555
C24 C25 1_555 1_555
C25 C26 1_555 1_555
C26 C27 1_555 1_555
C27 C28 1_555 1_555
C28 C29 1_555 1_555
C29 C30 1_555 1_555
C30 C25 1_555 1_555
N1 C6 1_555 1_555
N2 C17 1_555 1_555
C31 O1 1_555 1_555
O2 C16 1_555 1_555
O3 C17 1_555 1_555
S1 C8 1_555 1_555
C8 N1 1_555 1_555
C13 C15 1_555 1_555
C14 C16 1_555 1_555
C19 N2 1_555 1_555
C22 C23 1_555 1_555
C24 N2 1_555 1_555

#END
