
#######################################################################
#
#                 Cambridge Crystallographic Data Centre
#                                CCDC 
#
#######################################################################
#
# If this CIF has been generated from an entry in the Cambridge 
# Structural Database, then it will include bibliographic, chemical, 
# crystal, experimental, refinement or atomic coordinate data resulting 
# from the CCDC's data processing and validation procedures.
#
#######################################################################

data_OXOBUZ
_chemical_formula_moiety         'C36 H32 B2 F4 N4'
_chemical_name_systematic        
5,5,5',5'-Tetrafluoro-10,10'-dimesityl-5,5'-dihydro-8,8'-bi-4\l^5^,5\l^5^-dipyrrolo[1,2-c:2',1'-f][1,3,2]diazaborinine
_symmetry_cell_setting           monoclinic
_symmetry_space_group_name_H-M   'P 21/c'
_symmetry_Int_Tables_number      14
_space_group_name_Hall           '-P 2ybc'
loop_
_symmetry_equiv_pos_site_id
_symmetry_equiv_pos_as_xyz
1 x,y,z
2 -x,1/2+y,1/2-z
3 -x,-y,-z
4 x,1/2-y,1/2+z
_cell_length_a                   8.4027(13)
_cell_length_b                   13.081(2)
_cell_length_c                   13.958(2)
_cell_angle_alpha                90
_cell_angle_beta                 99.794(3)
_cell_angle_gamma                90
_cell_volume                     1511.84
_exptl_crystal_colour            blue
_exptl_crystal_description       prism
_cell_formula_units_Z            2
loop_
_atom_site_label
_atom_site_type_symbol
_atom_site_fract_x
_atom_site_fract_y
_atom_site_fract_z
B1 B 0.0802(2) 0.99763(14) 0.15215(14)
C1 C 0.3140(2) 1.03251(12) 0.05818(11)
H1 H 0.3043 1.1049 0.0574
C2 C 0.43590(19) 0.97767(12) 0.02199(11)
C3 C 0.40486(19) 0.87445(11) 0.03703(11)
H2 H 0.4662 0.8181 0.0206
C4 C 0.26625(19) 0.86921(11) 0.08098(11)
C5 C 0.17656(18) 0.78531(11) 0.10503(10)
C6 C 0.03266(19) 0.80172(12) 0.13944(11)
C7 C -0.0841(2) 0.73133(14) 0.16092(13)
H3 H -0.0773 0.6589 0.1584
C8 C -0.2094(2) 0.78733(16) 0.18613(15)
H4 H -0.3058 0.7609 0.2036
C9 C -0.1675(2) 0.89098(15) 0.18106(14)
H5 H -0.2323 0.9466 0.1953
C10 C 0.23309(18) 0.67886(11) 0.09225(11)
C11 C 0.1813(2) 0.62637(12) 0.00521(12)
C12 C 0.2353(2) 0.52648(12) -0.00394(13)
H6 H 0.1996 0.4903 -0.0627
C13 C 0.3397(2) 0.47831(13) 0.07049(13)
C14 C 0.3899(2) 0.53217(13) 0.15605(13)
H7 H 0.4622 0.5005 0.2071
C15 C 0.3370(2) 0.63140(12) 0.16905(12)
C16 C 0.0693(2) 0.67411(14) -0.07831(13)
H8 H 0.0758 0.6364 -0.1382
H9 H 0.1007 0.7454 -0.0858
H10 H -0.0417 0.6716 -0.0654
C17 C 0.3960(3) 0.37021(14) 0.05776(17)
H11 H 0.5116 0.3649 0.0836
H12 H 0.3768 0.3526 -0.0115
H13 H 0.3360 0.3230 0.0929
C18 C 0.3855(3) 0.68442(16) 0.26502(14)
H14 H 0.2983 0.6783 0.3032
H15 H 0.4061 0.7568 0.2539
H16 H 0.4837 0.6527 0.3006
F1 F -0.01117(14) 1.07824(8) 0.11022(9)
F2 F 0.15212(15) 1.02156(9) 0.24672(8)
N1 N 0.21454(17) 0.96887(10) 0.09352(9)
N2 N -0.02344(17) 0.90004(11) 0.15337(10)
B1B B 0.9198(2) 1.00237(14) -0.15215(14)
C1B C 0.6860(2) 0.96749(12) -0.05818(11)
H1B H 0.6957 0.8951 -0.0574
C2B C 0.56410(19) 1.02233(12) -0.02199(11)
C3B C 0.59514(19) 1.12555(11) -0.03703(11)
H2B H 0.5338 1.1819 -0.0206
C4B C 0.73375(19) 1.13079(11) -0.08098(11)
C5B C 0.82344(18) 1.21469(11) -0.10503(10)
C6B C 0.96734(19) 1.19828(12) -0.13944(11)
C7B C 1.0841(2) 1.26867(14) -0.16092(13)
H3B H 1.0773 1.3411 -0.1584
C8B C 1.2094(2) 1.21267(16) -0.18613(15)
H4B H 1.3058 1.2391 -0.2036
C9B C 1.1675(2) 1.10902(15) -0.18106(14)
H5B H 1.2323 1.0534 -0.1953
C10B C 0.76691(18) 1.32114(11) -0.09225(11)
C11B C 0.8187(2) 1.37363(12) -0.00521(12)
C12B C 0.7647(2) 1.47352(12) 0.00394(13)
H6B H 0.8004 1.5097 0.0627
C13B C 0.6603(2) 1.52169(13) -0.07049(13)
C14B C 0.6101(2) 1.46783(13) -0.15605(13)
H7B H 0.5378 1.4995 -0.2071
C15B C 0.6630(2) 1.36860(12) -0.16905(12)
C16B C 0.9307(2) 1.32589(14) 0.07831(13)
H8B H 0.9242 1.3636 0.1382
H9B H 0.8993 1.2546 0.0858
H10B H 1.0417 1.3284 0.0654
C17B C 0.6040(3) 1.62979(14) -0.05776(17)
H11B H 0.4884 1.6351 -0.0836
H12B H 0.6232 1.6474 0.0115
H13B H 0.6640 1.6770 -0.0929
C18B C 0.6145(3) 1.31558(16) -0.26502(14)
H14B H 0.7017 1.3217 -0.3032
H15B H 0.5939 1.2432 -0.2539
H16B H 0.5163 1.3473 -0.3006
F1B F 1.01117(14) 0.92176(8) -0.11022(9)
F2B F 0.84788(15) 0.97844(9) -0.24672(8)
N1B N 0.78546(17) 1.03113(10) -0.09352(9)
N2B N 1.02344(17) 1.09996(11) -0.15337(10)
loop_
_geom_bond_atom_site_label_1
_geom_bond_atom_site_label_2
_geom_bond_site_symmetry_1
_geom_bond_site_symmetry_2
B1 F1 1_555 1_555
C1 H1 1_555 1_555
C2 C1 1_555 1_555
C3 C2 1_555 1_555
H2 C3 1_555 1_555
C4 C3 1_555 1_555
C5 C4 1_555 1_555
C6 C5 1_555 1_555
C7 C6 1_555 1_555
H3 C7 1_555 1_555
C8 C7 1_555 1_555
H4 C8 1_555 1_555
C9 C8 1_555 1_555
H5 C9 1_555 1_555
C10 C5 1_555 1_555
C11 C10 1_555 1_555
C12 C11 1_555 1_555
H6 C12 1_555 1_555
C13 C12 1_555 1_555
C14 C13 1_555 1_555
H7 C14 1_555 1_555
C15 C10 1_555 1_555
C16 C11 1_555 1_555
H8 C16 1_555 1_555
H9 C16 1_555 1_555
H10 C16 1_555 1_555
C17 C13 1_555 1_555
H11 C17 1_555 1_555
H12 C17 1_555 1_555
H13 C17 1_555 1_555
C18 C15 1_555 1_555
H14 C18 1_555 1_555
H15 C18 1_555 1_555
H16 C18 1_555 1_555
F2 B1 1_555 1_555
N1 B1 1_555 1_555
N2 B1 1_555 1_555
B1B F1B 1_555 1_555
C1B H1B 1_555 1_555
C2B C2 1_555 1_555
C3B C2B 1_555 1_555
H2B C3B 1_555 1_555
C4B C3B 1_555 1_555
C5B C4B 1_555 1_555
C6B C5B 1_555 1_555
C7B C6B 1_555 1_555
H3B C7B 1_555 1_555
C8B C7B 1_555 1_555
H4B C8B 1_555 1_555
C9B C8B 1_555 1_555
H5B C9B 1_555 1_555
C10B C5B 1_555 1_555
C11B C10B 1_555 1_555
C12B C11B 1_555 1_555
H6B C12B 1_555 1_555
C13B C12B 1_555 1_555
C14B C13B 1_555 1_555
H7B C14B 1_555 1_555
C15B C10B 1_555 1_555
C16B C11B 1_555 1_555
H8B C16B 1_555 1_555
H9B C16B 1_555 1_555
H10B C16B 1_555 1_555
C17B C13B 1_555 1_555
H11B C17B 1_555 1_555
H12B C17B 1_555 1_555
H13B C17B 1_555 1_555
C18B C15B 1_555 1_555
H14B C18B 1_555 1_555
H15B C18B 1_555 1_555
H16B C18B 1_555 1_555
F2B B1B 1_555 1_555
N1B B1B 1_555 1_555
N2B B1B 1_555 1_555
C1 N1 1_555 1_555
C4 N1 1_555 1_555
C6 N2 1_555 1_555
C9 N2 1_555 1_555
C14 C15 1_555 1_555
C1B C2B 1_555 1_555
C1B N1B 1_555 1_555
C4B N1B 1_555 1_555
C6B N2B 1_555 1_555
C9B N2B 1_555 1_555
C14B C15B 1_555 1_555

#END
