
#######################################################################
#
#                 Cambridge Crystallographic Data Centre
#                                CCDC 
#
#######################################################################
#
# If this CIF has been generated from an entry in the Cambridge 
# Structural Database, then it will include bibliographic, chemical, 
# crystal, experimental, refinement or atomic coordinate data resulting 
# from the CCDC's data processing and validation procedures.
#
#######################################################################

data_OXOBAG
_chemical_formula_moiety         'C15 H22 O3'
_chemical_name_systematic        
9-hydroxy-5a,9-dimethyl-3-methylenedecahydronaphtho[1,2-b]furan-2(3H)-one
_symmetry_cell_setting           orthorhombic
_symmetry_space_group_name_H-M   'P 21 21 21'
_symmetry_Int_Tables_number      19
_space_group_name_Hall           'P 2ac 2ab'
loop_
_symmetry_equiv_pos_site_id
_symmetry_equiv_pos_as_xyz
1 x,y,z
2 1/2-x,-y,1/2+z
3 1/2+x,1/2-y,-z
4 -x,1/2+y,1/2-z
_cell_length_a                   6.23377(19)
_cell_length_b                   14.3268(5)
_cell_length_c                   15.5540(5)
_cell_angle_alpha                90
_cell_angle_beta                 90
_cell_angle_gamma                90
_cell_volume                     1389.13
_exptl_crystal_colour            colorless
_exptl_crystal_description       needle
_cell_formula_units_Z            4
loop_
_atom_site_label
_atom_site_type_symbol
_atom_site_fract_x
_atom_site_fract_y
_atom_site_fract_z
O1 O -0.32078(17) -0.48821(8) -0.86903(8)
H1 H -0.3700 -0.4402 -0.8898
O2 O -0.03983(15) -0.30706(6) -0.98788(6)
O3 O -0.02588(17) -0.16551(7) -1.04683(8)
C1 C 0.0347(3) -0.65789(11) -0.96366(12)
H2 H -0.0003 -0.7148 -0.9944
H3 H 0.1895 -0.6547 -0.9584
C2 C -0.0628(4) -0.66249(11) -0.87456(13)
H4 H -0.0043 -0.7156 -0.8437
H5 H -0.2168 -0.6708 -0.8791
C3 C -0.0147(3) -0.57354(11) -0.82552(10)
H6 H 0.1390 -0.5694 -0.8165
H7 H -0.0822 -0.5773 -0.7694
C4 C -0.0909(2) -0.48400(10) -0.87031(9)
C5 C 0.0003(2) -0.48263(9) -0.96282(8)
H8 H 0.1564 -0.4785 -0.9566
C6 C -0.0638(2) -0.40279(9) -1.02141(8)
H9 H -0.2138 -0.4118 -1.0384
C7 C 0.0732(2) -0.40078(10) -1.10258(9)
H10 H 0.2237 -0.4015 -1.0844
C8 C 0.0364(3) -0.48698(12) -1.15692(9)
H11 H 0.1303 -0.4864 -1.2066
H12 H -0.1110 -0.4891 -1.1768
C9 C 0.0851(3) -0.57137(12) -1.10025(11)
H13 H 0.2369 -0.5713 -1.0865
H14 H 0.0552 -0.6277 -1.1327
C10 C -0.0436(2) -0.57421(9) -1.01602(10)
C11 C 0.0257(2) -0.30511(11) -1.13444(10)
C12 C -0.0153(2) -0.24918(10) -1.05549(9)
C13 C 0.0121(4) -0.27083(16) -1.21269(12)
H15 H -0.019(4) -0.2012(15) -1.2212(14)
H16 H 0.034(4) -0.3115(15) -1.2615(15)
C14 C -0.2830(3) -0.58914(11) -1.03836(13)
H17 H -0.3647 -0.5944 -0.9863
H18 H -0.2985 -0.6453 -1.0714
H19 H -0.3343 -0.5370 -1.0712
C15 C -0.0141(4) -0.40024(12) -0.81822(9)
H20 H 0.1392 -0.3954 -0.8224
H21 H -0.0543 -0.4082 -0.7591
H22 H -0.0787 -0.3444 -0.8404
loop_
_geom_bond_atom_site_label_1
_geom_bond_atom_site_label_2
_geom_bond_site_symmetry_1
_geom_bond_site_symmetry_2
O1 H1 1_555 1_555
O2 C6 1_555 1_555
O3 C12 1_555 1_555
C1 H2 1_555 1_555
H3 C1 1_555 1_555
C2 C1 1_555 1_555
H4 C2 1_555 1_555
H5 C2 1_555 1_555
C3 C2 1_555 1_555
H6 C3 1_555 1_555
H7 C3 1_555 1_555
C4 O1 1_555 1_555
C5 C4 1_555 1_555
H8 C5 1_555 1_555
C6 C5 1_555 1_555
H9 C6 1_555 1_555
C7 C6 1_555 1_555
H10 C7 1_555 1_555
C8 C7 1_555 1_555
H11 C8 1_555 1_555
H12 C8 1_555 1_555
C9 C8 1_555 1_555
H13 C9 1_555 1_555
H14 C9 1_555 1_555
C10 C1 1_555 1_555
C11 C7 1_555 1_555
C12 O2 1_555 1_555
C13 C11 1_555 1_555
H15 C13 1_555 1_555
H16 C13 1_555 1_555
C14 C10 1_555 1_555
H17 C14 1_555 1_555
H18 C14 1_555 1_555
H19 C14 1_555 1_555
C15 C4 1_555 1_555
H20 C15 1_555 1_555
H21 C15 1_555 1_555
H22 C15 1_555 1_555
C3 C4 1_555 1_555
C5 C10 1_555 1_555
C9 C10 1_555 1_555
C11 C12 1_555 1_555

#END
