
#######################################################################
#
#                 Cambridge Crystallographic Data Centre
#                                CCDC 
#
#######################################################################
#
# If this CIF has been generated from an entry in the Cambridge 
# Structural Database, then it will include bibliographic, chemical, 
# crystal, experimental, refinement or atomic coordinate data resulting 
# from the CCDC's data processing and validation procedures.
#
#######################################################################

data_OXOCEK
_chemical_formula_moiety         'C34 H35 B1 F2 N4,0.5(C1 H1 Cl3)'
_chemical_name_systematic        
"4,4'-(5,5-Difluoro-10-mesityl-5H-6\l^5^,5\l^5^-dipyrrolo[1,2-c:2',1'-f][1,3,2]diazaborinine-2,8-diyl)bis(N,N-dimethylaniline) chloroform solvate"
_symmetry_cell_setting           monoclinic
_symmetry_space_group_name_H-M   'C 2/c'
_symmetry_Int_Tables_number      15
_space_group_name_Hall           '-C 2yn'
loop_
_symmetry_equiv_pos_site_id
_symmetry_equiv_pos_as_xyz
1 x,y,z
2 -x,y,1/2-z
3 1/2+x,1/2+y,z
4 1/2-x,1/2+y,1/2-z
5 -x,-y,-z
6 x,-y,1/2+z
7 1/2-x,1/2-y,-z
8 1/2+x,1/2-y,1/2+z
_cell_length_a                   57.842(5)
_cell_length_b                   7.955(5)
_cell_length_c                   29.332(5)
_cell_angle_alpha                90
_cell_angle_beta                 113.676(5)
_cell_angle_gamma                90
_cell_volume                     12360.6
_exptl_crystal_colour            purple
_exptl_crystal_description       prism
_cell_formula_units_Z            16
loop_
_atom_site_label
_atom_site_type_symbol
_atom_site_fract_x
_atom_site_fract_y
_atom_site_fract_z
B2 B 0.14438(5) -0.2131(4) 0.70277(12)
C35 C 0.09892(5) -0.1147(3) 0.68700(10)
H36 H 0.0908 -0.1654 0.6552
C36 C 0.08625(5) -0.0233(3) 0.71164(10)
C37 C 0.10486(4) 0.0244(3) 0.75660(10)
H37 H 0.1023 0.0860 0.7819
C38 C 0.12827(5) -0.0332(3) 0.75869(9)
C39 C 0.15259(4) -0.0036(3) 0.79312(10)
C40 C 0.17324(5) -0.0596(3) 0.78418(10)
C41 C 0.19914(4) -0.0323(3) 0.81095(10)
H38 H 0.2067 0.0282 0.8413
C42 C 0.21190(5) -0.1096(3) 0.78510(10)
C43 C 0.19304(5) -0.1838(3) 0.74325(10)
H39 H 0.1962 -0.2475 0.7189
C44 C 0.15636(4) 0.0902(3) 0.83954(10)
C45 C 0.15792(5) 0.2662(3) 0.84041(11)
C46 C 0.16101(5) 0.3479(3) 0.88399(12)
H40 H 0.1620 0.4672 0.8848
C47 C 0.16268(5) 0.2645(3) 0.92623(11)
C48 C 0.16122(5) 0.0913(3) 0.92436(10)
H41 H 0.1624 0.0314 0.9532
C49 C 0.15813(4) 0.0021(3) 0.88178(10)
C50 C 0.15674(6) 0.3621(4) 0.79562(11)
H42 H 0.1564 0.4829 0.8018
H43 H 0.1414 0.3304 0.7668
H44 H 0.1716 0.3359 0.7889
C51 C 0.16646(6) 0.3577(4) 0.97317(12)
H45 H 0.1833 0.4085 0.9868
H46 H 0.1649 0.2793 0.9975
H47 H 0.1537 0.4460 0.9658
C52 C 0.15702(5) -0.1873(3) 0.88182(11)
H48 H 0.1661 -0.2325 0.8627
H49 H 0.1394 -0.2239 0.8666
H50 H 0.1648 -0.2285 0.9161
C53 C 0.05928(4) 0.0189(3) 0.69189(10)
C54 C 0.04916(5) 0.1082(3) 0.72016(10)
H51 H 0.0597 0.1350 0.7537
C55 C 0.02425(5) 0.1597(3) 0.70139(10)
H52 H 0.0181 0.2203 0.7221
C56 C 0.00806(5) 0.1239(3) 0.65251(10)
C57 C 0.01807(5) 0.0304(3) 0.62442(10)
H53 H 0.0075 0.0012 0.5911
C58 C 0.04294(5) -0.0205(3) 0.64373(11)
H54 H 0.0490 -0.0843 0.6235
C59 C -0.02636(5) 0.2741(4) 0.66314(10)
H55 H -0.0255 0.2070 0.6918
H56 H -0.0440 0.3050 0.6432
H57 H -0.0162 0.3763 0.6748
C60 C -0.03197(5) 0.1583(4) 0.58127(10)
H58 H -0.0243 0.2194 0.5619
H59 H -0.0489 0.2036 0.5739
H60 H -0.0333 0.0388 0.5724
C61 C 0.23922(5) -0.1132(3) 0.79844(11)
C62 C 0.25546(5) -0.0177(4) 0.83722(11)
H61 H 0.2486 0.0519 0.8551
C63 C 0.28117(5) -0.0192(4) 0.85112(12)
H62 H 0.2916 0.0493 0.8781
C64 C 0.29215(5) -0.1195(4) 0.82632(12)
C65 C 0.27584(5) -0.2165(4) 0.78704(12)
H63 H 0.2826 -0.2863 0.7691
C66 C 0.25017(5) -0.2133(4) 0.77367(11)
H64 H 0.2396 -0.2814 0.7467
C67 C 0.33418(5) -0.0262(4) 0.88224(14)
H65 H 0.3303 0.0938 0.8765
H66 H 0.3518 -0.0454 0.8874
H67 H 0.3316 -0.0627 0.9118
C68 C 0.32887(6) -0.2364(5) 0.81694(13)
H68 H 0.3255 -0.3517 0.8243
H69 H 0.3472 -0.2181 0.8301
H70 H 0.3216 -0.2189 0.7808
F3 F 0.14250(3) -0.17203(19) 0.65581(5)
F4 F 0.14177(3) -0.38399(18) 0.70601(6)
N5 N 0.12369(4) -0.1201(2) 0.71451(8)
N6 N 0.16995(4) -0.1530(3) 0.74208(8)
N7 N -0.01670(4) 0.1771(3) 0.63308(8)
N8 N 0.31783(5) -0.1204(4) 0.83972(12)
B1 B 0.08533(5) 0.9436(4) 1.03848(12)
C1 C 0.04164(4) 0.7916(3) 1.00245(9)
H1 H 0.0357 0.8302 1.0265
C2 C 0.02696(4) 0.6970(3) 0.95968(9)
C3 C 0.04287(4) 0.6686(3) 0.93544(9)
H2 H 0.0386 0.6084 0.9052
C4 C 0.06625(4) 0.7430(3) 0.96294(9)
C5 C 0.08875(4) 0.7424(3) 0.95633(9)
C6 C 0.11054(4) 0.8124(3) 0.99222(9)
C7 C 0.13556(4) 0.8127(3) 0.99613(10)
H3 H 0.1413 0.7660 0.9727
C8 C 0.15038(4) 0.8929(3) 1.04001(10)
C9 C 0.13362(4) 0.9437(3) 1.06141(10)
H4 H 0.1384 1.0050 1.0916
C10 C 0.08955(4) 0.6721(3) 0.91025(9)
C11 C 0.09522(5) 0.5035(3) 0.90722(10)
C12 C 0.09607(5) 0.4455(3) 0.86324(11)
H5 H 0.1000 0.3308 0.8609
C13 C 0.09137(5) 0.5497(4) 0.82308(11)
C14 C 0.08582(5) 0.7166(3) 0.82699(10)
H6 H 0.0823 0.7890 0.7993
C15 C 0.08526(5) 0.7805(3) 0.87034(10)
C16 C 0.10018(6) 0.3873(3) 0.95058(11)
H7 H 0.1127 0.4381 0.9809
H8 H 0.1066 0.2798 0.9442
H9 H 0.0845 0.3682 0.9549
C17 C 0.09211(7) 0.4866(4) 0.77539(12)
H10 H 0.1024 0.3846 0.7821
H11 H 0.0995 0.5731 0.7615
H12 H 0.0749 0.4612 0.7515
C18 C 0.08018(7) 0.9644(3) 0.87370(12)
H13 H 0.0674 0.9779 0.8874
H14 H 0.0741 1.0147 0.8404
H15 H 0.0958 1.0206 0.8955
C19 C 0.00077(4) 0.6437(3) 0.94462(9)
C20 C -0.01071(5) 0.5405(3) 0.90371(10)
H16 H -0.0011 0.5028 0.8860
C21 C -0.03552(5) 0.4903(3) 0.88765(10)
H17 H -0.0425 0.4183 0.8596
C22 C -0.05057(4) 0.5437(3) 0.91210(10)
C23 C -0.03916(5) 0.6470(3) 0.95339(10)
H18 H -0.0487 0.6851 0.9712
C24 C -0.01424(4) 0.6951(3) 0.96889(9)
H19 H -0.0071 0.7660 0.9972
C25 C -0.08713(5) 0.3941(4) 0.85180(10)
H20 H -0.0858 0.4511 0.8233
H21 H -0.1050 0.3766 0.8452
H22 H -0.0785 0.2853 0.8570
C26 C -0.09038(5) 0.5361(3) 0.92349(11)
H23 H -0.0804 0.5155 0.9590
H24 H -0.1055 0.4651 0.9120
H25 H -0.0954 0.6546 0.9184
C27 C 0.17783(5) 0.9162(3) 1.06050(10)
C28 C 0.19262(5) 0.8294(4) 1.04143(11)
H26 H 0.1847 0.7541 1.0145
C29 C 0.21832(5) 0.8473(4) 1.05978(13)
H27 H 0.2276 0.7854 1.0451
C30 C 0.23091(6) 0.9536(4) 1.09908(14)
C31 C 0.21630(6) 1.0410(4) 1.11881(13)
H28 H 0.2243 1.1152 1.1460
C32 C 0.19038(5) 1.0227(4) 1.09985(12)
H29 H 0.1810 1.0849 1.1142
C33 C 0.27161(6) 0.8704(6) 1.09842(16)
H30 H 0.2688 0.7517 1.1036
H31 H 0.2896 0.8973 1.1162
H32 H 0.2665 0.8917 1.0628
C34 C 0.27005(6) 1.0548(5) 1.16451(18)
H33 H 0.2639 1.1703 1.1631
H34 H 0.2882 1.0567 1.1723
H35 H 0.2670 0.9924 1.1904
F1 F 0.08752(3) 0.9364(2) 1.08622(6)
F2 F 0.07866(3) 1.10482(18) 1.01926(6)
N1 N 0.06486(3) 0.8195(2) 1.00465(7)
N2 N 0.11017(4) 0.8941(2) 1.03361(7)
N3 N -0.07548(4) 0.4964(3) 0.89574(9)
N4 N 0.25689(5) 0.9742(4) 1.11708(14)
C69? C 0.2468(2) 0.2497(14) 0.0216(4)
Cl1? Cl 0.27671(6) 0.3135(7) 0.04320(16)
Cl2? Cl 0.23243(7) 0.4279(6) 0.02764(15)
Cl3? Cl 0.01740(8) 0.1978(5) 0.29990(14)
Cl4? Cl 0.02635(3) 0.4136(2) 0.23266(7)
C70? C 0.01034(12) 0.2362(7) 0.2377(2)
Cl5? Cl -0.02231(7) 0.2580(5) 0.20636(18)
Cl6? Cl 0.23371(15) 0.1835(14) -0.0272(3)
loop_
_geom_bond_atom_site_label_1
_geom_bond_atom_site_label_2
_geom_bond_site_symmetry_1
_geom_bond_site_symmetry_2
B1 F1 1_555 1_555
B2 F3 1_555 1_555
C1 H1 1_555 1_555
C2 C1 1_555 1_555
C3 C2 1_555 1_555
H2 C3 1_555 1_555
C4 C3 1_555 1_555
C5 C4 1_555 1_555
C6 C5 1_555 1_555
C7 C6 1_555 1_555
H3 C7 1_555 1_555
C8 C7 1_555 1_555
C9 C8 1_555 1_555
H4 C9 1_555 1_555
C10 C5 1_555 1_555
C11 C10 1_555 1_555
C12 C11 1_555 1_555
H5 C12 1_555 1_555
C13 C12 1_555 1_555
C14 C13 1_555 1_555
H6 C14 1_555 1_555
C15 C10 1_555 1_555
C16 C11 1_555 1_555
H7 C16 1_555 1_555
H8 C16 1_555 1_555
H9 C16 1_555 1_555
C17 C13 1_555 1_555
H10 C17 1_555 1_555
H11 C17 1_555 1_555
H12 C17 1_555 1_555
C18 C15 1_555 1_555
H13 C18 1_555 1_555
H14 C18 1_555 1_555
H15 C18 1_555 1_555
C19 C2 1_555 1_555
C20 C19 1_555 1_555
H16 C20 1_555 1_555
C21 C20 1_555 1_555
H17 C21 1_555 1_555
C22 C21 1_555 1_555
C23 C22 1_555 1_555
H18 C23 1_555 1_555
C24 C19 1_555 1_555
H19 C24 1_555 1_555
C25 H20 1_555 1_555
H21 C25 1_555 1_555
H22 C25 1_555 1_555
C26 H23 1_555 1_555
H24 C26 1_555 1_555
H25 C26 1_555 1_555
C27 C8 1_555 1_555
C28 C27 1_555 1_555
H26 C28 1_555 1_555
C29 C28 1_555 1_555
H27 C29 1_555 1_555
C30 C29 1_555 1_555
C31 C30 1_555 1_555
H28 C31 1_555 1_555
C32 C27 1_555 1_555
H29 C32 1_555 1_555
C33 H30 1_555 1_555
H31 C33 1_555 1_555
H32 C33 1_555 1_555
C34 H33 1_555 1_555
H34 C34 1_555 1_555
H35 C34 1_555 1_555
C35 H36 1_555 1_555
C36 C35 1_555 1_555
C37 C36 1_555 1_555
H37 C37 1_555 1_555
C38 C37 1_555 1_555
C39 C38 1_555 1_555
C40 C39 1_555 1_555
C41 C40 1_555 1_555
H38 C41 1_555 1_555
C42 C41 1_555 1_555
C43 C42 1_555 1_555
H39 C43 1_555 1_555
C44 C39 1_555 1_555
C45 C44 1_555 1_555
C46 C45 1_555 1_555
H40 C46 1_555 1_555
C47 C46 1_555 1_555
C48 C47 1_555 1_555
H41 C48 1_555 1_555
C49 C44 1_555 1_555
C50 C45 1_555 1_555
H42 C50 1_555 1_555
H43 C50 1_555 1_555
H44 C50 1_555 1_555
C51 C47 1_555 1_555
H45 C51 1_555 1_555
H46 C51 1_555 1_555
H47 C51 1_555 1_555
C52 C49 1_555 1_555
H48 C52 1_555 1_555
H49 C52 1_555 1_555
H50 C52 1_555 1_555
C53 C36 1_555 1_555
C54 C53 1_555 1_555
H51 C54 1_555 1_555
C55 C54 1_555 1_555
H52 C55 1_555 1_555
C56 C55 1_555 1_555
C57 C56 1_555 1_555
H53 C57 1_555 1_555
C58 C53 1_555 1_555
H54 C58 1_555 1_555
C59 H55 1_555 1_555
H56 C59 1_555 1_555
H57 C59 1_555 1_555
C60 H58 1_555 1_555
H59 C60 1_555 1_555
H60 C60 1_555 1_555
C61 C42 1_555 1_555
C62 C61 1_555 1_555
H61 C62 1_555 1_555
C63 C62 1_555 1_555
H62 C63 1_555 1_555
C64 C63 1_555 1_555
C65 C64 1_555 1_555
H63 C65 1_555 1_555
C66 C61 1_555 1_555
H64 C66 1_555 1_555
C67 H65 1_555 1_555
H66 C67 1_555 1_555
H67 C67 1_555 1_555
C68 H68 1_555 1_555
H69 C68 1_555 1_555
H70 C68 1_555 1_555
F2 B1 1_555 1_555
F4 B2 1_555 1_555
N1 B1 1_555 1_555
N2 B1 1_555 1_555
N3 C22 1_555 1_555
N4 C30 1_555 1_555
N5 B2 1_555 1_555
N6 B2 1_555 1_555
N7 C56 1_555 1_555
N8 C64 1_555 1_555
C1 N1 1_555 1_555
C4 N1 1_555 1_555
C6 N2 1_555 1_555
C9 N2 1_555 1_555
C14 C15 1_555 1_555
C23 C24 1_555 1_555
C25 N3 1_555 1_555
C26 N3 1_555 1_555
C31 C32 1_555 1_555
C33 N4 1_555 1_555
C34 N4 1_555 1_555
C35 N5 1_555 1_555
C38 N5 1_555 1_555
C40 N6 1_555 1_555
C43 N6 1_555 1_555
C48 C49 1_555 1_555
C57 C58 1_555 1_555
C59 N7 1_555 1_555
C60 N7 1_555 1_555
C65 C66 1_555 1_555
C67 N8 1_555 1_555
C68 N8 1_555 1_555

#END
