
#######################################################################
#
#                 Cambridge Crystallographic Data Centre
#                                CCDC 
#
#######################################################################
#
# If this CIF has been generated from an entry in the Cambridge 
# Structural Database, then it will include bibliographic, chemical, 
# crystal, experimental, refinement or atomic coordinate data resulting 
# from the CCDC's data processing and validation procedures.
#
#######################################################################

data_OXODEM
_chemical_formula_moiety         'C26 H44 O6 P2'
_chemical_name_systematic        
'dimethyl 4,6-bis((di-t-butylphosphino)oxy)isophthalate'
_symmetry_cell_setting           monoclinic
_symmetry_space_group_name_H-M   'P 21/n'
_symmetry_Int_Tables_number      14
_space_group_name_Hall           '-P 2yn'
loop_
_symmetry_equiv_pos_site_id
_symmetry_equiv_pos_as_xyz
1 x,y,z
2 1/2-x,1/2+y,1/2-z
3 -x,-y,-z
4 1/2+x,1/2-y,1/2+z
_cell_length_a                   10.5142(5)
_cell_length_b                   18.0091(9)
_cell_length_c                   16.4272(9)
_cell_angle_alpha                90
_cell_angle_beta                 107.797(2)
_cell_angle_gamma                90
_cell_volume                     2961.66
_exptl_crystal_colour            colorless
_exptl_crystal_description       'part of a rod'
_cell_formula_units_Z            4
_chemical_properties_physical    'Air-sensitive, Moisture-sensitive'
loop_
_atom_site_label
_atom_site_type_symbol
_atom_site_fract_x
_atom_site_fract_y
_atom_site_fract_z
P1 P 0.33966(4) 0.23678(2) -0.01527(3)
P2 P 0.28129(4) 0.05375(3) 0.20243(3)
O1 O 0.50436(11) 0.21811(6) 0.02450(7)
O2 O 0.44680(11) 0.03858(7) 0.22455(8)
O3 O 0.75892(13) 0.25272(7) 0.03515(10)
O4 O 0.90890(11) 0.16872(8) 0.10184(9)
O5 O 0.85248(11) -0.00692(7) 0.29796(8)
O6 O 0.65581(11) -0.02750(7) 0.31875(8)
C1 C 0.47490(15) 0.12863(9) 0.12487(10)
H1 H 0.3815 0.1379 0.1067
C2 C 0.55561(15) 0.16779(8) 0.08748(10)
C3 C 0.69444(14) 0.15513(8) 0.11365(9)
C4 C 0.74385(14) 0.10137(8) 0.17606(9)
H2 H 0.8370 0.0913 0.1933
C5 C 0.66472(15) 0.06144(8) 0.21470(10)
C6 C 0.52658(15) 0.07653(9) 0.18788(10)
C7 C 0.3208(2) 0.20854(11) -0.12715(13)
C8 C 0.3272(4) 0.12314(14) -0.1196(2)
H3 H 0.3125 0.1013 -0.1764
H4 H 0.2579 0.1057 -0.0957
H5 H 0.4151 0.1082 -0.0820
C9 C 0.1810(2) 0.23050(14) -0.18356(15)
H6 H 0.1775 0.2843 -0.1930
H7 H 0.1150 0.2165 -0.1551
H8 H 0.1608 0.2048 -0.2386
C10 C 0.4259(3) 0.23612(18) -0.16628(14)
H9 H 0.4180 0.2086 -0.2191
H10 H 0.5150 0.2283 -0.1257
H11 H 0.4123 0.2892 -0.1792
C11 C 0.35415(17) 0.33866(9) -0.00063(11)
C12 C 0.21430(19) 0.37241(11) -0.03563(14)
H12 H 0.2170 0.4247 -0.0185
H13 H 0.1522 0.3452 -0.0126
H14 H 0.1842 0.3690 -0.0982
C13 C 0.4511(2) 0.37775(11) -0.03839(15)
H15 H 0.4677 0.4282 -0.0152
H16 H 0.4128 0.3801 -0.1007
H17 H 0.5355 0.3502 -0.0236
C14 C 0.4029(3) 0.34840(14) 0.09672(14)
H18 H 0.4934 0.3282 0.1196
H19 H 0.3427 0.3219 0.1220
H20 H 0.4037 0.4013 0.1108
C15 C 0.2279(2) -0.04417(14) 0.17617(16)
C16 C 0.2562(3) -0.0573(2) 0.0907(2)
H21 H 0.2253 -0.1069 0.0692
H22 H 0.3525 -0.0534 0.0995
H23 H 0.2090 -0.0199 0.0491
C17 C 0.0759(3) -0.04847(19) 0.1606(2)
H24 H 0.0425 -0.0966 0.1350
H25 H 0.0316 -0.0085 0.1218
H26 H 0.0570 -0.0431 0.2152
C18 C 0.3014(3) -0.10306(13) 0.2397(2)
H27 H 0.2782 -0.0980 0.2928
H28 H 0.3980 -0.0966 0.2517
H29 H 0.2754 -0.1525 0.2153
C19 C 0.28546(17) 0.08009(11) 0.31231(13)
C20 C 0.1417(2) 0.08385(19) 0.31558(18)
H30 H 0.1056 0.0335 0.3133
H31 H 0.0870 0.1126 0.2667
H32 H 0.1405 0.1079 0.3689
C21 C 0.3431(3) 0.15919(14) 0.3219(2)
H33 H 0.3434 0.1797 0.3772
H34 H 0.2881 0.1905 0.2757
H35 H 0.4347 0.1578 0.3188
C22 C 0.3718(2) 0.03263(15) 0.38486(13)
H36 H 0.3791 0.0566 0.4397
H37 H 0.4609 0.0272 0.3784
H38 H 0.3308 -0.0165 0.3832
C23 C 0.78616(15) 0.19818(9) 0.07844(10)
C24 C 1.00621(19) 0.20820(14) 0.07218(17)
H39 H 0.9737 0.2123 0.0097
H40 H 1.0910 0.1811 0.0893
H41 H 1.0197 0.2580 0.0974
C25 C 0.73484(15) 0.00652(8) 0.28042(10)
C26 C 0.72022(19) -0.08169(11) 0.38263(13)
H42 H 0.7616 -0.1200 0.3567
H43 H 0.6538 -0.1046 0.4056
H44 H 0.7890 -0.0573 0.4290
loop_
_geom_bond_atom_site_label_1
_geom_bond_atom_site_label_2
_geom_bond_site_symmetry_1
_geom_bond_site_symmetry_2
P1 O1 1_555 1_555
P2 O2 1_555 1_555
O1 C2 1_555 1_555
O2 C6 1_555 1_555
O3 C23 1_555 1_555
O4 C23 1_555 1_555
O5 C25 1_555 1_555
O6 C25 1_555 1_555
C1 H1 1_555 1_555
C2 C1 1_555 1_555
C3 C2 1_555 1_555
C4 C3 1_555 1_555
H2 C4 1_555 1_555
C5 C4 1_555 1_555
C6 C1 1_555 1_555
C7 P1 1_555 1_555
C8 C7 1_555 1_555
H3 C8 1_555 1_555
H4 C8 1_555 1_555
H5 C8 1_555 1_555
C9 C7 1_555 1_555
H6 C9 1_555 1_555
H7 C9 1_555 1_555
H8 C9 1_555 1_555
C10 C7 1_555 1_555
H9 C10 1_555 1_555
H10 C10 1_555 1_555
H11 C10 1_555 1_555
C11 P1 1_555 1_555
C12 C11 1_555 1_555
H12 C12 1_555 1_555
H13 C12 1_555 1_555
H14 C12 1_555 1_555
C13 C11 1_555 1_555
H15 C13 1_555 1_555
H16 C13 1_555 1_555
H17 C13 1_555 1_555
C14 C11 1_555 1_555
H18 C14 1_555 1_555
H19 C14 1_555 1_555
H20 C14 1_555 1_555
C15 P2 1_555 1_555
C16 C15 1_555 1_555
H21 C16 1_555 1_555
H22 C16 1_555 1_555
H23 C16 1_555 1_555
C17 C15 1_555 1_555
H24 C17 1_555 1_555
H25 C17 1_555 1_555
H26 C17 1_555 1_555
C18 C15 1_555 1_555
H27 C18 1_555 1_555
H28 C18 1_555 1_555
H29 C18 1_555 1_555
C19 P2 1_555 1_555
C20 C19 1_555 1_555
H30 C20 1_555 1_555
H31 C20 1_555 1_555
H32 C20 1_555 1_555
C21 C19 1_555 1_555
H33 C21 1_555 1_555
H34 C21 1_555 1_555
H35 C21 1_555 1_555
C22 C19 1_555 1_555
H36 C22 1_555 1_555
H37 C22 1_555 1_555
H38 C22 1_555 1_555
C23 C3 1_555 1_555
C24 O4 1_555 1_555
H39 C24 1_555 1_555
H40 C24 1_555 1_555
H41 C24 1_555 1_555
C25 C5 1_555 1_555
C26 O6 1_555 1_555
H42 C26 1_555 1_555
H43 C26 1_555 1_555
H44 C26 1_555 1_555
C5 C6 1_555 1_555

#END
