
#######################################################################
#
#                 Cambridge Crystallographic Data Centre
#                                CCDC 
#
#######################################################################
#
# If this CIF has been generated from an entry in the Cambridge 
# Structural Database, then it will include bibliographic, chemical, 
# crystal, experimental, refinement or atomic coordinate data resulting 
# from the CCDC's data processing and validation procedures.
#
#######################################################################

data_OXOGAK
_chemical_formula_moiety         'C23 H21 N1 O5'
_chemical_name_systematic        
1,2',2'-Trimethyl-7'-phenyl-7',8'-dihydro-4'H-spiro[indole-3,5'-pyrano[4,3-d][1,3]dioxine]-2,4'(1H)-dione
_symmetry_cell_setting           monoclinic
_symmetry_space_group_name_H-M   'P 21/n'
_symmetry_Int_Tables_number      14
_space_group_name_Hall           '-P 2yn'
loop_
_symmetry_equiv_pos_site_id
_symmetry_equiv_pos_as_xyz
1 x,y,z
2 1/2-x,1/2+y,1/2-z
3 -x,-y,-z
4 1/2+x,1/2-y,1/2+z
_cell_length_a                   9.2743(2)
_cell_length_b                   20.2718(4)
_cell_length_c                   10.6622(2)
_cell_angle_alpha                90
_cell_angle_beta                 90.1930(10)
_cell_angle_gamma                90
_cell_volume                     2004.55
_exptl_crystal_colour            white
_exptl_crystal_description       needles
_cell_formula_units_Z            4
loop_
_atom_site_label
_atom_site_type_symbol
_atom_site_fract_x
_atom_site_fract_y
_atom_site_fract_z
O1 O 0.52390(9) 0.76530(4) 0.42339(8)
O2 O 0.34455(9) 0.82698(4) 0.52871(8)
O3 O 0.64346(10) 0.97543(5) 0.30997(8)
O4 O 0.62591(10) 0.80401(5) 0.25106(8)
O5 O 0.32162(9) 0.96279(4) 0.24551(8)
N1 N 0.62680(11) 0.94731(5) 0.10137(10)
C1 C 0.41588(14) 0.88827(6) 0.09659(12)
C2 C 0.58165(14) 0.94921(6) 0.22241(12)
C3 C 0.76328(14) 0.97465(7) 0.05965(13)
H1 H 0.8078 0.9996 0.1283
H2 H 0.7464 1.0040 -0.0119
H3 H 0.8277 0.9387 0.0344
C4 C 0.25727(14) 0.93176(6) 0.45700(12)
H4 H 0.2651 0.9452 0.5460
H5 H 0.1548 0.9219 0.4385
C5 C 0.34663(13) 0.87199(6) 0.43459(11)
C6 C 0.42749(13) 0.86308(6) 0.33158(11)
C7 C 0.43178(13) 0.91383(6) 0.22893(12)
C8 C 0.52986(13) 0.91219(6) 0.02501(12)
C9 C 0.43206(15) 0.72696(7) 0.61515(13)
H6 H 0.4617 0.6816 0.5967
H7 H 0.3487 0.7263 0.6713
H8 H 0.5119 0.7505 0.6557
C10 C 0.39215(14) 0.76136(6) 0.49538(13)
C11 C 0.53029(14) 0.80949(6) 0.32774(12)
C12 C 0.30964(14) 0.98749(6) 0.37276(12)
H9 H 0.4067 1.0024 0.4023
C13 C 0.08263(15) 1.04387(7) 0.29844(13)
H10 H 0.0580 1.0050 0.2534
C14 C 0.31633(15) 0.83811(7) -0.08662(12)
H11 H 0.2445 0.8117 -0.1257
C15 C 0.53757(14) 0.90136(6) -0.10269(12)
H12 H 0.6147 0.9185 -0.1513
C16 C 0.27594(15) 0.72714(7) 0.42085(14)
H13 H 0.2525 0.7534 0.3464
H14 H 0.1896 0.7222 0.4728
H15 H 0.3101 0.6835 0.3949
C17 C 0.30979(14) 0.85055(7) 0.04206(12)
H16 H 0.2333 0.8332 0.0911
C18 C 0.42778(15) 0.86431(7) -0.15727(12)
H17 H 0.4292 0.8568 -0.2452
C19 C 0.02544(16) 1.15465(7) 0.36019(13)
H18 H -0.0371 1.1917 0.3574
C20 C 0.20936(14) 1.04593(7) 0.36789(12)
C21 C 0.15065(17) 1.15694(7) 0.43007(14)
H19 H 0.1742 1.1956 0.4762
C22 C 0.24247(16) 1.10282(7) 0.43322(13)
H20 H 0.3291 1.1050 0.4809
C23 C -0.00836(16) 1.09818(8) 0.29436(14)
H21 H -0.0944 1.0964 0.2459
loop_
_geom_bond_atom_site_label_1
_geom_bond_atom_site_label_2
_geom_bond_site_symmetry_1
_geom_bond_site_symmetry_2
O1 C10 1_555 1_555
O2 C5 1_555 1_555
O3 C2 1_555 1_555
O4 C11 1_555 1_555
O5 C7 1_555 1_555
N1 C2 1_555 1_555
C1 C7 1_555 1_555
C2 C7 1_555 1_555
C3 N1 1_555 1_555
H1 C3 1_555 1_555
H2 C3 1_555 1_555
H3 C3 1_555 1_555
C4 H4 1_555 1_555
H5 C4 1_555 1_555
C5 C4 1_555 1_555
C6 C5 1_555 1_555
C7 C6 1_555 1_555
C8 N1 1_555 1_555
C9 H6 1_555 1_555
H7 C9 1_555 1_555
H8 C9 1_555 1_555
C10 O2 1_555 1_555
C11 O1 1_555 1_555
C12 O5 1_555 1_555
H9 C12 1_555 1_555
C13 H10 1_555 1_555
C14 H11 1_555 1_555
C15 C8 1_555 1_555
H12 C15 1_555 1_555
C16 C10 1_555 1_555
H13 C16 1_555 1_555
H14 C16 1_555 1_555
H15 C16 1_555 1_555
C17 C1 1_555 1_555
H16 C17 1_555 1_555
C18 C14 1_555 1_555
H17 C18 1_555 1_555
C19 H18 1_555 1_555
C20 C12 1_555 1_555
C21 C19 1_555 1_555
H19 C21 1_555 1_555
C22 C20 1_555 1_555
H20 C22 1_555 1_555
C23 C13 1_555 1_555
H21 C23 1_555 1_555
C1 C8 1_555 1_555
C4 C12 1_555 1_555
C6 C11 1_555 1_555
C9 C10 1_555 1_555
C13 C20 1_555 1_555
C14 C17 1_555 1_555
C15 C18 1_555 1_555
C19 C23 1_555 1_555
C21 C22 1_555 1_555

#END
