
#######################################################################
#
#                 Cambridge Crystallographic Data Centre
#                                CCDC 
#
#######################################################################
#
# If this CIF has been generated from an entry in the Cambridge 
# Structural Database, then it will include bibliographic, chemical, 
# crystal, experimental, refinement or atomic coordinate data resulting 
# from the CCDC's data processing and validation procedures.
#
#######################################################################

data_OXOQAV
_chemical_formula_moiety         'C21 H18 F2 N2 O4'
_chemical_name_systematic        
'ethyl difluoro(8-((2-methoxybenzoyl)amino)quinolin-5-yl)acetate'
_symmetry_cell_setting           triclinic
_symmetry_space_group_name_H-M   'P -1'
_symmetry_Int_Tables_number      2
_space_group_name_Hall           '-P 1'
loop_
_symmetry_equiv_pos_site_id
_symmetry_equiv_pos_as_xyz
1 x,y,z
2 -x,-y,-z
_cell_length_a                   7.4956(6)
_cell_length_b                   9.2161(6)
_cell_length_c                   14.1907(10)
_cell_angle_alpha                75.217(2)
_cell_angle_beta                 85.706(2)
_cell_angle_gamma                83.977(3)
_cell_volume                     941.435
_exptl_crystal_colour            colorless
_exptl_crystal_description       block
_cell_formula_units_Z            2
loop_
_atom_site_label
_atom_site_type_symbol
_atom_site_fract_x
_atom_site_fract_y
_atom_site_fract_z
C1 C 0.3636(2) 0.88570(19) 0.66347(12)
C2 C 0.4331(2) 0.8048(2) 0.75190(13)
H1 H 0.4756 0.7043 0.7590
C3 C 0.4409(3) 0.8685(2) 0.82920(14)
H2 H 0.4876 0.8115 0.8875
C4 C 0.3793(3) 1.0165(2) 0.81947(15)
H3 H 0.3819 1.0595 0.8719
C5 C 0.3136(3) 1.1025(2) 0.73258(15)
H4 H 0.2743 1.2035 0.7263
C6 C 0.3058(2) 1.0386(2) 0.65435(13)
C7 C 0.1896(3) 1.2760(2) 0.55120(17)
H5 H 0.0928 1.2919 0.5968
H6 H 0.1510 1.3154 0.4859
H7 H 0.2901 1.3268 0.5603
C8 C 0.3574(2) 0.79851(19) 0.58798(12)
C9 C 0.2730(2) 0.81990(18) 0.41962(12)
C10 C 0.3197(2) 0.67484(19) 0.41177(13)
H8 H 0.3651 0.6022 0.4649
C11 C 0.2994(2) 0.63624(19) 0.32414(13)
H9 H 0.3306 0.5373 0.3207
C12 C 0.2355(2) 0.73875(19) 0.24363(12)
C13 C 0.1835(2) 0.89079(19) 0.24853(12)
C14 C 0.1164(2) 1.0084(2) 0.17059(13)
H10 H 0.1033 0.9900 0.1101
C15 C 0.0717(3) 1.1477(2) 0.18471(15)
H11 H 0.0273 1.2253 0.1339
C16 C 0.0922(3) 1.1750(2) 0.27580(15)
H12 H 0.0592 1.2714 0.2839
C17 C 0.2018(2) 0.93017(18) 0.33751(12)
C18 C 0.2208(2) 0.6897(2) 0.15129(13)
C19 C 0.0271(3) 0.6936(2) 0.11934(13)
C20 C -0.2398(3) 0.5694(3) 0.15464(17)
H13 H -0.3043 0.6685 0.1458
H14 H -0.2959 0.5025 0.2105
C21 C -0.2546(3) 0.5131(2) 0.06582(17)
H15 H -0.2089 0.5836 0.0094
H16 H -0.3783 0.5023 0.0581
H17 H -0.1862 0.4171 0.0729
F1 F 0.29911(16) 0.54685(14) 0.15956(9)
F2 F 0.31260(17) 0.77817(16) 0.07516(8)
N1 N 0.28952(19) 0.87481(15) 0.50125(10)
N2 N 0.1557(2) 1.07128(16) 0.35030(11)
O1 O 0.2414(2) 1.11894(14) 0.56707(10)
O2 O 0.4108(2) 0.66439(15) 0.60572(10)
O3 O -0.0381(2) 0.78951(16) 0.05583(11)
O4 O -0.05288(19) 0.57864(16) 0.17433(10)
loop_
_geom_bond_atom_site_label_1
_geom_bond_atom_site_label_2
_geom_bond_site_symmetry_1
_geom_bond_site_symmetry_2
C1 C2 1_555 1_555
C2 H1 1_555 1_555
C3 C2 1_555 1_555
H2 C3 1_555 1_555
C4 C3 1_555 1_555
H3 C4 1_555 1_555
C5 C4 1_555 1_555
H4 C5 1_555 1_555
C6 C1 1_555 1_555
C7 H5 1_555 1_555
H6 C7 1_555 1_555
H7 C7 1_555 1_555
C8 C1 1_555 1_555
C9 C10 1_555 1_555
C10 H8 1_555 1_555
C11 C10 1_555 1_555
H9 C11 1_555 1_555
C12 C11 1_555 1_555
C13 C12 1_555 1_555
C14 C13 1_555 1_555
H10 C14 1_555 1_555
C15 C14 1_555 1_555
H11 C15 1_555 1_555
C16 C15 1_555 1_555
H12 C16 1_555 1_555
C17 C9 1_555 1_555
C18 C12 1_555 1_555
C19 C18 1_555 1_555
C20 H13 1_555 1_555
H14 C20 1_555 1_555
C21 C20 1_555 1_555
H15 C21 1_555 1_555
H16 C21 1_555 1_555
H17 C21 1_555 1_555
F1 C18 1_555 1_555
F2 C18 1_555 1_555
N1 C8 1_555 1_555
N2 C16 1_555 1_555
O1 C6 1_555 1_555
O2 C8 1_555 1_555
O3 C19 1_555 1_555
O4 C19 1_555 1_555
C5 C6 1_555 1_555
C7 O1 1_555 1_555
C9 N1 1_555 1_555
C13 C17 1_555 1_555
C17 N2 1_555 1_555
C20 O4 1_555 1_555

#END
