
#######################################################################
#
#                 Cambridge Crystallographic Data Centre
#                                CCDC 
#
#######################################################################
#
# If this CIF has been generated from an entry in the Cambridge 
# Structural Database, then it will include bibliographic, chemical, 
# crystal, experimental, refinement or atomic coordinate data resulting 
# from the CCDC's data processing and validation procedures.
#
#######################################################################

data_OXOTIG
_chemical_formula_moiety         'C22 H28 N2 O3 S1,C1 H1 Cl3'
_chemical_name_systematic        
'(S)-(10,10-dimethyl-3,3-dioxido-3-thia-4-azatricyclo[5.2.1.0^1,5^]decan-4-yl)(1-phenyl-1,2,3,6-tetrahydropyridin-2-yl)methanone chloroform solvate'
_symmetry_cell_setting           orthorhombic
_symmetry_space_group_name_H-M   'P 21 21 21'
_symmetry_Int_Tables_number      19
_space_group_name_Hall           'P 2ac 2ab'
loop_
_symmetry_equiv_pos_site_id
_symmetry_equiv_pos_as_xyz
1 x,y,z
2 1/2-x,-y,1/2+z
3 1/2+x,1/2-y,-z
4 -x,1/2+y,1/2-z
_cell_length_a                   10.8104(3)
_cell_length_b                   11.1726(3)
_cell_length_c                   21.1349(5)
_cell_angle_alpha                90
_cell_angle_beta                 90
_cell_angle_gamma                90
_cell_volume                     2552.68
_exptl_crystal_description       block
_cell_formula_units_Z            4
_chemical_properties_physical    Air-sensitive
_exptl_crystal_recrystallization_method chloroform/hexane
loop_
_atom_site_label
_atom_site_type_symbol
_atom_site_fract_x
_atom_site_fract_y
_atom_site_fract_z
S1 S 1.12192(15) 0.72237(12) 0.33142(9)
O1 O 1.1542(3) 1.0580(3) 0.30559(19)
N1 N 1.0938(4) 0.8729(3) 0.3327(2)
O2 O 1.1810(6) 0.6912(5) 0.2734(3)
O3 O 1.1821(6) 0.6886(4) 0.3888(3)
N2 N 1.4050(4) 1.0016(5) 0.3001(3)
C1 C 0.9627(5) 0.9025(6) 0.3213(3)
H1 H 0.9499 0.9196 0.2763
C2 C 1.4194(5) 0.9910(5) 0.2348(3)
C3 C 1.3782(8) 0.8945(8) 0.1353(4)
H2 H 1.3358 0.8364 0.1124
C4 C 1.1844(4) 0.9586(4) 0.3210(2)
C5 C 1.3188(5) 0.9222(5) 0.3320(3)
H3 H 1.3303 0.8414 0.3149
C6 C 1.5035(6) 1.0650(7) 0.2026(4)
H4 H 1.5465 1.1236 0.2247
C7 C 0.8861(5) 0.7905(6) 0.3409(3)
C8 C 0.8435(5) 0.8209(6) 0.4093(3)
C9 C 1.4296(6) 1.1192(6) 0.3282(4)
H5 H 1.3795 1.1787 0.3067
H6 H 1.5157 1.1397 0.3213
C10 C 0.9108(6) 1.0025(7) 0.3606(4)
H7 H 0.8901 1.0715 0.3348
H8 H 0.9680 1.0266 0.3936
C11 C 1.4624(8) 0.9692(8) 0.1047(4)
H9 H 1.4761 0.9617 0.0614
C12 C 0.7685(7) 0.7962(11) 0.3034(4)
H10 H 0.7183 0.7252 0.3096
H11 H 0.7847 0.8068 0.2586
C13 C 1.5230(7) 1.0516(8) 0.1383(4)
H12 H 1.5796 1.1011 0.1180
C14 C 1.3447(6) 0.9180(8) 0.4039(3)
H13 H 1.2746 0.8816 0.4251
H14 H 1.4164 0.8679 0.4116
C15 C 0.7929(7) 0.9432(9) 0.3888(5)
H15 H 0.7522 0.9891 0.4223
C16 C 0.9467(7) 0.8227(8) 0.4596(3)
H16 H 0.9780 0.7431 0.4655
H17 H 0.9140 0.8521 0.4988
H18 H 1.0125 0.8741 0.4457
C17 C 0.7431(7) 0.7365(10) 0.4345(4)
H19 H 0.6733 0.7375 0.4064
H20 H 0.7176 0.7625 0.4758
H21 H 0.7755 0.6566 0.4371
C18 C 0.7074(7) 0.9074(12) 0.3323(5)
H22 H 0.6246 0.8890 0.3470
H23 H 0.7026 0.9716 0.3015
C19 C 1.3575(6) 0.9064(7) 0.1990(4)
H24 H 1.3005 0.8563 0.2186
C20 C 0.9633(7) 0.6786(6) 0.3303(4)
H25 H 0.9428 0.6425 0.2900
H26 H 0.9473 0.6206 0.3635
C21 C 1.4031(9) 1.1243(9) 0.3970(4)
H27 H 1.4137 1.1978 0.4169
C22 C 1.3670(9) 1.0371(9) 0.4314(4)
H28 H 1.3546 1.0489 0.4745
Cl1 Cl 1.2015(5) 1.4008(3) 0.3781(3)
Cl2 Cl 0.9527(4) 1.3424(4) 0.3685(3)
Cl3 Cl 1.0884(6) 1.2487(5) 0.47281(16)
C23 C 1.0947(10) 1.2925(7) 0.3978(5)
H29 H 1.1164 1.2214 0.3731
loop_
_geom_bond_atom_site_label_1
_geom_bond_atom_site_label_2
_geom_bond_site_symmetry_1
_geom_bond_site_symmetry_2
S1 N1 1_555 1_555
O1 C4 1_555 1_555
N1 C1 1_555 1_555
O2 S1 1_555 1_555
O3 S1 1_555 1_555
N2 C2 1_555 1_555
C1 H1 1_555 1_555
C2 C6 1_555 1_555
C3 H2 1_555 1_555
C4 N1 1_555 1_555
C5 N2 1_555 1_555
H3 C5 1_555 1_555
C6 H4 1_555 1_555
C7 C1 1_555 1_555
C8 C7 1_555 1_555
C9 N2 1_555 1_555
H5 C9 1_555 1_555
H6 C9 1_555 1_555
C10 C1 1_555 1_555
H7 C10 1_555 1_555
H8 C10 1_555 1_555
C11 C3 1_555 1_555
H9 C11 1_555 1_555
C12 C7 1_555 1_555
H10 C12 1_555 1_555
H11 C12 1_555 1_555
C13 C6 1_555 1_555
H12 C13 1_555 1_555
C14 C5 1_555 1_555
H13 C14 1_555 1_555
H14 C14 1_555 1_555
C15 C8 1_555 1_555
H15 C15 1_555 1_555
C16 C8 1_555 1_555
H16 C16 1_555 1_555
H17 C16 1_555 1_555
H18 C16 1_555 1_555
C17 C8 1_555 1_555
H19 C17 1_555 1_555
H20 C17 1_555 1_555
H21 C17 1_555 1_555
C18 C12 1_555 1_555
H22 C18 1_555 1_555
H23 C18 1_555 1_555
C19 C2 1_555 1_555
H24 C19 1_555 1_555
C20 S1 1_555 1_555
H25 C20 1_555 1_555
H26 C20 1_555 1_555
C21 C9 1_555 1_555
H27 C21 1_555 1_555
C22 C14 1_555 1_555
H28 C22 1_555 1_555
Cl1 C23 1_555 1_555
Cl2 C23 1_555 1_555
Cl3 C23 1_555 1_555
C23 H29 1_555 1_555
C3 C19 1_555 1_555
C4 C5 1_555 1_555
C7 C20 1_555 1_555
C10 C15 1_555 1_555
C11 C13 1_555 1_555
C15 C18 1_555 1_555
C21 C22 1_555 1_555

#END
