
#######################################################################
#
#                 Cambridge Crystallographic Data Centre
#                                CCDC 
#
#######################################################################
#
# If this CIF has been generated from an entry in the Cambridge 
# Structural Database, then it will include bibliographic, chemical, 
# crystal, experimental, refinement or atomic coordinate data resulting 
# from the CCDC's data processing and validation procedures.
#
#######################################################################

data_OXUCAM
_chemical_formula_moiety         'C20 H26 O3 S1'
_chemical_name_systematic        
3-(2-Naphthylsulfonyl)-2-pentyltetrahydro-2H-pyran
_symmetry_cell_setting           orthorhombic
_symmetry_space_group_name_H-M   'F d d 2'
_symmetry_Int_Tables_number      43
_space_group_name_Hall           'F 2 -2d'
loop_
_symmetry_equiv_pos_site_id
_symmetry_equiv_pos_as_xyz
1 x,y,z
2 -x,-y,z
3 1/4+x,1/4-y,1/4+z
4 1/4-x,1/4+y,1/4+z
5 x,1/2+y,1/2+z
6 -x,1/2-y,1/2+z
7 1/4+x,3/4-y,3/4+z
8 1/4-x,3/4+y,3/4+z
9 1/2+x,y,1/2+z
10 1/2-x,-y,1/2+z
11 3/4+x,1/4-y,3/4+z
12 3/4-x,1/4+y,3/4+z
13 1/2+x,1/2+y,z
14 1/2-x,1/2-y,z
15 3/4+x,3/4-y,1/4+z
16 3/4-x,3/4+y,1/4+z
_cell_length_a                   25.707(5)
_cell_length_b                   51.276(10)
_cell_length_c                   5.6218(11)
_cell_angle_alpha                90
_cell_angle_beta                 90
_cell_angle_gamma                90
_cell_volume                     7410.39
_exptl_crystal_colour            colorless
_exptl_crystal_description       needle
_cell_formula_units_Z            16
loop_
_atom_site_label
_atom_site_type_symbol
_atom_site_fract_x
_atom_site_fract_y
_atom_site_fract_z
S1 S 0.04596(4) 0.161885(13) 0.75022(15)
O1 O 0.10729(8) 0.09529(4) 0.4978(5)
O2 O 0.07300(13) 0.16180(4) 0.9731(4)
O3 O -0.00913(10) 0.15644(4) 0.7495(7)
C1 C 0.07876(11) 0.13962(5) 0.5535(5)
H1 H 0.0607 0.1398 0.3961
C2 C 0.07786(13) 0.11152(5) 0.6539(6)
H2 H 0.0928 0.1111 0.8182
C3 C 0.16019(14) 0.10272(6) 0.4820(9)
H3 H 0.1793 0.0899 0.3830
H4 H 0.1759 0.1027 0.6428
C4 C 0.16526(13) 0.12931(6) 0.3748(9)
H5 H 0.1522 0.1290 0.2092
H6 H 0.2024 0.1344 0.3708
C5 C 0.13458(11) 0.14913(5) 0.5189(7)
H7 H 0.1344 0.1661 0.4350
H8 H 0.1513 0.1517 0.6758
C6 C 0.05385(11) 0.19267(5) 0.6149(5)
C7 C 0.08306(11) 0.21153(5) 0.7225(5)
H9 H 0.1009 0.2078 0.8666
C8 C 0.08682(11) 0.23673(5) 0.6193(5)
C9 C 0.11572(12) 0.25725(6) 0.7236(6)
H10 H 0.1340 0.2543 0.8679
C10 C 0.11766(14) 0.28125(6) 0.6199(7)
H11 H 0.1366 0.2949 0.6941
C11 C 0.09204(13) 0.28582(6) 0.4055(7)
H12 H 0.0943 0.3026 0.3336
C12 C 0.06394(12) 0.26677(5) 0.2977(6)
H13 H 0.0465 0.2704 0.1525
C13 C 0.06049(10) 0.24155(5) 0.4004(5)
C14 C 0.03092(11) 0.22136(5) 0.2950(5)
H14 H 0.0131 0.2245 0.1497
C15 C 0.02755(11) 0.19743(5) 0.3987(5)
H15 H 0.0076 0.1840 0.3261
C16 C 0.0243(2) 0.09814(13) 0.6483(16)
H16 H 0.0150 0.0948 0.4802
H17 H -0.0017 0.1105 0.7133
C17 C 0.0198(3) 0.07183(12) 0.7883(16)
H18 H 0.0435 0.0591 0.7127
H19 H 0.0327 0.0749 0.9519
C18 C -0.0313(3) 0.05981(11) 0.8059(14)
H20 H -0.0447 0.0574 0.6423
H21 H -0.0547 0.0724 0.8865
C19 C -0.0362(3) 0.03412(13) 0.9323(14)
H22 H -0.0122 0.0214 0.8586
H23 H -0.0721 0.0275 0.9134
C20 C -0.0238(3) 0.03648(15) 1.1945(15)
H24 H 0.0118 0.0430 1.2139
H25 H -0.0268 0.0193 1.2700
H26 H -0.0482 0.0486 1.2693
C21? C 0.0254(4) 0.1006(2) 0.711(3)
C22? C 0.0414(5) 0.0751(2) 0.847(3)
C23? C -0.0050(5) 0.06170(18) 0.923(3)
C24? C -0.0021(4) 0.0349(2) 1.015(3)
C25? C -0.0564(4) 0.0240(2) 1.058(3)
H27? H 0.0052 0.0967 0.5655
H28? H 0.0051 0.1126 0.8138
H29? H 0.0620 0.0637 0.7413
H30? H 0.0630 0.0796 0.9872
H31? H -0.0293 0.0615 0.7867
H32? H -0.0214 0.0725 1.0488
H33? H 0.0179 0.0348 1.1652
H34? H 0.0164 0.0238 0.8983
H35? H -0.0644 0.0249 1.2283
H36? H -0.0578 0.0059 1.0048
H37? H -0.0819 0.0344 0.9691
loop_
_geom_bond_atom_site_label_1
_geom_bond_atom_site_label_2
_geom_bond_site_symmetry_1
_geom_bond_site_symmetry_2
S1 O2 1_555 1_555
O1 C2 1_555 1_555
O3 S1 1_555 1_555
C1 S1 1_555 1_555
H1 C1 1_555 1_555
C2 C1 1_555 1_555
H2 C2 1_555 1_555
C3 O1 1_555 1_555
H3 C3 1_555 1_555
H4 C3 1_555 1_555
C4 C3 1_555 1_555
H5 C4 1_555 1_555
H6 C4 1_555 1_555
C5 C1 1_555 1_555
H7 C5 1_555 1_555
H8 C5 1_555 1_555
C6 S1 1_555 1_555
C7 C6 1_555 1_555
H9 C7 1_555 1_555
C8 C7 1_555 1_555
C9 C8 1_555 1_555
H10 C9 1_555 1_555
C10 C9 1_555 1_555
H11 C10 1_555 1_555
C11 C10 1_555 1_555
H12 C11 1_555 1_555
C12 C11 1_555 1_555
H13 C12 1_555 1_555
C13 C8 1_555 1_555
C14 C13 1_555 1_555
H14 C14 1_555 1_555
C15 C6 1_555 1_555
H15 C15 1_555 1_555
C16 C2 1_555 1_555
H16 C16 1_555 1_555
H17 C16 1_555 1_555
C17 C16 1_555 1_555
H18 C17 1_555 1_555
H19 C17 1_555 1_555
C18 C17 1_555 1_555
H20 C18 1_555 1_555
H21 C18 1_555 1_555
C19 C18 1_555 1_555
H22 C19 1_555 1_555
H23 C19 1_555 1_555
C20 C19 1_555 1_555
H24 C20 1_555 1_555
H25 C20 1_555 1_555
H26 C20 1_555 1_555
C4 C5 1_555 1_555
C12 C13 1_555 1_555
C14 C15 1_555 1_555

#END
