
#######################################################################
#
#                 Cambridge Crystallographic Data Centre
#                                CCDC 
#
#######################################################################
#
# If this CIF has been generated from an entry in the Cambridge 
# Structural Database, then it will include bibliographic, chemical, 
# crystal, experimental, refinement or atomic coordinate data resulting 
# from the CCDC's data processing and validation procedures.
#
#######################################################################

data_OXUSAD
_chemical_formula_moiety         'C27 H27 Cl1 O3 S1'
_chemical_name_systematic        
1-(4-chlorophenyl)-3-methyl-4-((4-methylphenyl)sulfonyl)-5-phenylhepta-1,4-dien-3-ol
_symmetry_cell_setting           triclinic
_symmetry_space_group_name_H-M   'P -1'
_symmetry_Int_Tables_number      2
_space_group_name_Hall           '-P 1'
loop_
_symmetry_equiv_pos_site_id
_symmetry_equiv_pos_as_xyz
1 x,y,z
2 -x,-y,-z
_cell_length_a                   7.6213(8)
_cell_length_b                   12.6520(14)
_cell_length_c                   12.9467(14)
_cell_angle_alpha                98.4440(10)
_cell_angle_beta                 90.6110(10)
_cell_angle_gamma                95.6830(10)
_cell_volume                     1228.38
_exptl_crystal_colour            colorless
_exptl_crystal_description       block
_cell_formula_units_Z            2
loop_
_atom_site_label
_atom_site_type_symbol
_atom_site_fract_x
_atom_site_fract_y
_atom_site_fract_z
C1 C 1.0767(3) 1.01997(16) 0.23568(18)
H1 H 1.0402 1.0513 0.1795
C2 C 1.1444(3) 1.08345(19) 0.3264(2)
H2 H 1.1530 1.1578 0.3304
C3 C 1.1994(3) 1.0390(2) 0.41120(19)
C4 C 1.1866(3) 0.9289(2) 0.40277(17)
H3 H 1.2235 0.8976 0.4588
C5 C 1.1204(3) 0.86387(18) 0.31334(15)
H4 H 1.1136 0.7896 0.3092
C6 C 1.0641(2) 0.90952(15) 0.22970(14)
C7 C 1.2769(4) 1.1099(3) 0.5088(2)
H5 H 1.2264 1.0845 0.5693
H6 H 1.2511 1.1824 0.5075
H7 H 1.4024 1.1076 0.5113
C8 C 0.7653(2) 0.78790(13) 0.11362(12)
C9 C 0.7017(2) 0.68850(13) 0.12887(13)
C10 C 0.8026(2) 0.60687(14) 0.16904(14)
C11 C 0.8387(3) 0.61576(18) 0.27492(16)
H8 H 0.8147 0.6771 0.3193
C12 C 0.9108(3) 0.5334(2) 0.3153(2)
H9 H 0.9354 0.5397 0.3866
C13 C 0.9454(3) 0.4429(2) 0.2503(3)
H10 H 0.9940 0.3878 0.2774
C14 C 0.9091(3) 0.43315(19) 0.1462(3)
H11 H 0.9330 0.3714 0.1024
C15 C 0.8372(3) 0.51391(16) 0.10505(18)
H12 H 0.8117 0.5061 0.0338
C16 C 0.5104(2) 0.64423(15) 0.10713(16)
H13 H 0.5058 0.5819 0.0534
H14 H 0.4483 0.6980 0.0800
C17 C 0.4149(3) 0.6123(2) 0.2021(2)
H15 H 0.4730 0.5574 0.2284
H16 H 0.2950 0.5855 0.1826
H17 H 0.4163 0.6738 0.2553
C18 C 0.6473(2) 0.87439(13) 0.08725(13)
C19 C 0.5609(2) 0.84556(15) -0.01980(14)
H18 H 0.4634 0.8810 -0.0325
C20 C 0.6083(2) 0.77595(16) -0.09690(15)
H19 H 0.7043 0.7395 -0.0835
C21 C 0.5273(3) 0.74880(15) -0.20201(15)
C22 C 0.5863(3) 0.66644(17) -0.27087(17)
H20 H 0.6776 0.6303 -0.2496
C23 C 0.5141(4) 0.63642(19) -0.36989(18)
H21 H 0.5554 0.5806 -0.4149
C24 C 0.3805(3) 0.69014(18) -0.40095(16)
C25 C 0.3195(3) 0.77263(18) -0.33550(17)
H22 H 0.2297 0.8092 -0.3580
C26 C 0.3912(3) 0.80140(16) -0.23642(15)
H23 H 0.3481 0.8568 -0.1917
C27 C 0.5129(2) 0.89553(16) 0.17262(15)
H24 H 0.5737 0.9189 0.2386
H25 H 0.4378 0.8307 0.1762
H26 H 0.4428 0.9503 0.1567
Cl1 Cl 0.28498(13) 0.65158(7) -0.52510(5)
O1 O 1.08736(15) 0.72888(10) 0.11283(10)
O2 O 1.03085(16) 0.88183(10) 0.02611(9)
O3 O 0.74526(16) 0.97787(9) 0.09236(10)
H27 H 0.8113 0.9776 0.0428
S1 S 0.99842(5) 0.82334(3) 0.11255(3)
loop_
_geom_bond_atom_site_label_1
_geom_bond_atom_site_label_2
_geom_bond_site_symmetry_1
_geom_bond_site_symmetry_2
C1 H1 1_555 1_555
C2 C1 1_555 1_555
H2 C2 1_555 1_555
C3 C2 1_555 1_555
C4 C3 1_555 1_555
H3 C4 1_555 1_555
C5 C4 1_555 1_555
H4 C5 1_555 1_555
C6 C1 1_555 1_555
C7 C3 1_555 1_555
H5 C7 1_555 1_555
H6 C7 1_555 1_555
H7 C7 1_555 1_555
C8 C9 1_555 1_555
C9 C10 1_555 1_555
C10 C11 1_555 1_555
C11 H8 1_555 1_555
C12 C11 1_555 1_555
H9 C12 1_555 1_555
C13 C12 1_555 1_555
H10 C13 1_555 1_555
C14 C13 1_555 1_555
H11 C14 1_555 1_555
C15 C10 1_555 1_555
H12 C15 1_555 1_555
C16 C9 1_555 1_555
H13 C16 1_555 1_555
H14 C16 1_555 1_555
C17 C16 1_555 1_555
H15 C17 1_555 1_555
H16 C17 1_555 1_555
H17 C17 1_555 1_555
C18 C8 1_555 1_555
C19 C18 1_555 1_555
H18 C19 1_555 1_555
C20 C19 1_555 1_555
H19 C20 1_555 1_555
C21 C20 1_555 1_555
C22 C21 1_555 1_555
H20 C22 1_555 1_555
C23 C22 1_555 1_555
H21 C23 1_555 1_555
C24 C23 1_555 1_555
C25 C24 1_555 1_555
H22 C25 1_555 1_555
C26 C21 1_555 1_555
H23 C26 1_555 1_555
C27 C18 1_555 1_555
H24 C27 1_555 1_555
H25 C27 1_555 1_555
H26 C27 1_555 1_555
Cl1 C24 1_555 1_555
O1 S1 1_555 1_555
O2 S1 1_555 1_555
O3 C18 1_555 1_555
H27 O3 1_555 1_555
S1 C6 1_555 1_555
C5 C6 1_555 1_555
C8 S1 1_555 1_555
C14 C15 1_555 1_555
C25 C26 1_555 1_555

#END
