
#######################################################################
#
#                 Cambridge Crystallographic Data Centre
#                                CCDC 
#
#######################################################################
#
# If this CIF has been generated from an entry in the Cambridge 
# Structural Database, then it will include bibliographic, chemical, 
# crystal, experimental, refinement or atomic coordinate data resulting 
# from the CCDC's data processing and validation procedures.
#
#######################################################################

data_OYAPAH02
_chemical_formula_moiety         'C9 H7 F1 N2 O1'
_chemical_name_systematic        5-fluoro-2-(1H-pyrazol-3-yl)phenol
_symmetry_cell_setting           orthorhombic
_symmetry_space_group_name_H-M   'P 21 21 21'
_symmetry_Int_Tables_number      19
_space_group_name_Hall           'P 2ac 2ab'
loop_
_symmetry_equiv_pos_site_id
_symmetry_equiv_pos_as_xyz
1 x,y,z
2 1/2-x,-y,1/2+z
3 -x,1/2+y,1/2-z
4 1/2+x,1/2-y,-z
_cell_length_a                   3.7769(5)
_cell_length_b                   10.7326(13)
_cell_length_c                   19.387(3)
_cell_angle_alpha                90
_cell_angle_beta                 90
_cell_angle_gamma                90
_cell_volume                     785.871
_exptl_crystal_colour            colorless
_exptl_crystal_description       block
_cell_formula_units_Z            4
loop_
_atom_site_label
_atom_site_type_symbol
_atom_site_fract_x
_atom_site_fract_y
_atom_site_fract_z
N1 N 0.2329(6) 0.28105(18) 0.81739(9)
O1 O 0.4143(5) 0.06724(16) 0.76481(8)
C1 C 0.2891(7) 0.0135(2) 0.82390(11)
F1 F 0.2305(5) -0.29724(13) 0.89300(9)
C2 C 0.1404(6) 0.0842(2) 0.87738(11)
C3 C 0.0221(7) 0.0207(2) 0.93619(11)
C4 C 0.0531(7) -0.1073(2) 0.94259(14)
N2 N 0.1649(6) 0.40306(19) 0.82981(11)
C5 C -0.0422(7) 0.3051(2) 0.91973(12)
C6 C 0.3145(8) -0.1147(2) 0.82895(13)
C7 C 0.1969(7) -0.1708(2) 0.88815(13)
C8 C 0.1068(6) 0.2209(2) 0.87282(11)
C9 C 0.0010(7) 0.4199(2) 0.89040(13)
H1 H -0.085(6) 0.0701(19) 0.9753(11)
H2 H -0.149(7) 0.288(2) 0.9630(12)
H3 H 0.398(10) 0.149(3) 0.7703(17)
H4 H -0.057(8) 0.502(2) 0.9062(12)
H5 H -0.033(9) -0.147(2) 0.9822(14)
H6 H 0.238(9) 0.465(2) 0.7978(13)
H7 H 0.406(9) -0.165(2) 0.7944(15)
loop_
_geom_bond_atom_site_label_1
_geom_bond_atom_site_label_2
_geom_bond_site_symmetry_1
_geom_bond_site_symmetry_2
N1 N2 1_555 1_555
O1 C1 1_555 1_555
C1 C2 1_555 1_555
F1 C7 1_555 1_555
C2 C3 1_555 1_555
C3 C4 1_555 1_555
C4 C7 1_555 1_555
N2 C9 1_555 1_555
C5 C8 1_555 1_555
C6 C1 1_555 1_555
C7 C6 1_555 1_555
C8 N1 1_555 1_555
C9 C5 1_555 1_555
H1 C3 1_555 1_555
H2 C5 1_555 1_555
H3 O1 1_555 1_555
H4 C9 1_555 1_555
H5 C4 1_555 1_555
H6 N2 1_555 1_555
H7 C6 1_555 1_555
C2 C8 1_555 1_555

#END
