
#######################################################################
#
#                 Cambridge Crystallographic Data Centre
#                                CCDC 
#
#######################################################################
#
# If this CIF has been generated from an entry in the Cambridge 
# Structural Database, then it will include bibliographic, chemical, 
# crystal, experimental, refinement or atomic coordinate data resulting 
# from the CCDC's data processing and validation procedures.
#
#######################################################################

data_OYAPIP02
_chemical_formula_moiety         'C10 H10 N2 O1'
_chemical_name_systematic        5-methyl-2-(1H-pyrazol-5-yl)phenol
_symmetry_cell_setting           monoclinic
_symmetry_space_group_name_H-M   'P 21/c'
_symmetry_Int_Tables_number      14
_space_group_name_Hall           '-P 2ybc'
loop_
_symmetry_equiv_pos_site_id
_symmetry_equiv_pos_as_xyz
1 x,y,z
2 -x,1/2+y,1/2-z
3 -x,-y,-z
4 x,1/2-y,1/2+z
_cell_length_a                   7.7690(16)
_cell_length_b                   11.243(2)
_cell_length_c                   10.244(2)
_cell_angle_alpha                90
_cell_angle_beta                 100.15(3)
_cell_angle_gamma                90
_cell_volume                     880.778
_exptl_crystal_colour            colorless
_exptl_crystal_description       block
_cell_formula_units_Z            4
loop_
_atom_site_label
_atom_site_type_symbol
_atom_site_fract_x
_atom_site_fract_y
_atom_site_fract_z
C1 C 0.1651(3) -0.02111(19) 0.8818(2)
N1 N 0.4093(2) 0.19814(13) 1.11729(15)
C2 C 0.2655(2) 0.02156(15) 0.99935(17)
C3 C 0.3153(2) 0.14737(15) 1.00879(16)
C4 C 0.2604(3) -0.17765(16) 1.0880(2)
C5 C 0.3127(2) -0.05897(15) 1.10321(17)
N2 N 0.4387(2) 0.31550(13) 1.10274(16)
C6 C 0.1625(3) -0.21888(17) 0.9703(2)
C7 C 0.3604(3) 0.33920(17) 0.9800(2)
C8 C 0.1155(3) -0.1391(2) 0.8675(2)
C9 C 0.2826(3) 0.23858(17) 0.9165(2)
C10 C 0.1101(4) -0.3482(2) 0.9552(4)
O1 O 0.41073(19) -0.01897(11) 1.21867(12)
H1 H 0.4298 -0.0740 1.2717
H2 H 0.451(3) 0.163(2) 1.187(2)
H3 H 0.130(3) 0.034(2) 0.812(2)
H4 H 0.295(3) -0.2308(19) 1.166(2)
H5 H 0.220(3) 0.234(2) 0.822(3)
H6 H 0.365(3) 0.4222(19) 0.948(2)
H7 H 0.047(3) -0.164(2) 0.781(2)
H8 H 0.148(4) -0.387(3) 0.875(4)
H9 H -0.015(4) -0.357(3) 0.942(3)
H10 H 0.158(5) -0.392(3) 1.031(3)
loop_
_geom_bond_atom_site_label_1
_geom_bond_atom_site_label_2
_geom_bond_site_symmetry_1
_geom_bond_site_symmetry_2
C1 C2 1_555 1_555
N1 C3 1_555 1_555
C2 C3 1_555 1_555
C3 C9 1_555 1_555
C4 C5 1_555 1_555
C5 C2 1_555 1_555
N2 N1 1_555 1_555
C6 C4 1_555 1_555
C7 N2 1_555 1_555
C8 C1 1_555 1_555
C9 C7 1_555 1_555
C10 C6 1_555 1_555
O1 C5 1_555 1_555
H1 O1 1_555 1_555
H2 N1 1_555 1_555
H3 C1 1_555 1_555
H4 C4 1_555 1_555
H5 C9 1_555 1_555
H6 C7 1_555 1_555
H7 C8 1_555 1_555
H8 C10 1_555 1_555
H9 C10 1_555 1_555
H10 C10 1_555 1_555
C6 C8 1_555 1_555

#END
