
#######################################################################
#
#                 Cambridge Crystallographic Data Centre
#                                CCDC 
#
#######################################################################
#
# If this CIF has been generated from an entry in the Cambridge 
# Structural Database, then it will include bibliographic, chemical, 
# crystal, experimental, refinement or atomic coordinate data resulting 
# from the CCDC's data processing and validation procedures.
#
#######################################################################

data_OYAWOC
_chemical_formula_moiety         'C14 H16 N2 2+,2(C56 H32 N4 O4),2(F6 P1 1-)'
_chemical_name_systematic        
"[3]-(4,4'-(ethene-1,2-diyl)bis(1-methylpyridin-1-ium))-bis(1,5(2,7)-di-1,8-naphthyridina-3,7(2,7)-ditriptycena-2,4,6,8-tetraoxacyclooctaphane)-pseudorotaxane bis(hexafluorophosphate) unknown solvate"
_symmetry_cell_setting           monoclinic
_symmetry_space_group_name_H-M   'P 21/n'
_symmetry_Int_Tables_number      14
_space_group_name_Hall           '-P 2yn'
loop_
_symmetry_equiv_pos_site_id
_symmetry_equiv_pos_as_xyz
1 x,y,z
2 1/2-x,1/2+y,1/2-z
3 -x,-y,-z
4 1/2+x,1/2-y,1/2+z
_cell_length_a                   25.813(5)
_cell_length_b                   19.940(4)
_cell_length_c                   27.557(6)
_cell_angle_alpha                90
_cell_angle_beta                 101.78(3)
_cell_angle_gamma                90
_cell_volume                     13885.2
_exptl_crystal_colour            yellow
_exptl_crystal_description       Plate
_cell_formula_units_Z            4
loop_
_atom_site_label
_atom_site_type_symbol
_atom_site_fract_x
_atom_site_fract_y
_atom_site_fract_z
P1 P 0.90002(6) 0.74214(7) 0.12932(5)
F1 F 0.9575(2) 0.7645(3) 0.12329(16)
F2 F 0.8767(2) 0.8154(2) 0.1163(2)
F3 F 0.91520(15) 0.76688(18) 0.18523(12)
F4 F 0.84285(14) 0.72258(18) 0.13545(13)
F5 F 0.91998(19) 0.6710(2) 0.14630(17)
F6 F 0.8843(2) 0.7172(3) 0.07391(15)
P2 P 0.58978(8) 0.75405(10) 0.05503(7)
F7 F 0.6237(2) 0.8188(2) 0.07585(16)
F8 F 0.5502(3) 0.7976(3) 0.0187(3)
F9 F 0.5566(2) 0.7588(2) 0.09740(18)
F10 F 0.5566(3) 0.6899(3) 0.0355(2)
F11 F 0.6283(2) 0.7081(3) 0.0915(2)
F12 F 0.6235(3) 0.7485(3) 0.01549(19)
O1 O 0.54322(15) 0.51059(17) 0.38614(14)
O2 O 0.53582(14) 0.95876(14) 0.44703(11)
O3 O 0.28844(13) 0.47906(15) 0.24530(12)
O4 O 0.31454(13) 0.90754(14) 0.25987(11)
N1 N 0.45770(16) 0.50065(17) 0.33909(13)
N2 N 0.37301(16) 0.49054(16) 0.29237(13)
N3 N 0.38852(16) 0.92365(16) 0.32400(12)
N4 N 0.46250(15) 0.94030(16) 0.38587(12)
C1 C 0.5283(2) 0.5590(2) 0.41778(18)
C2 C 0.56176(19) 0.6167(2) 0.42433(16)
H1 H 0.5871 0.6244 0.4043
C3 C 0.55535(19) 0.6602(2) 0.46100(15)
C4 C 0.51706(19) 0.6512(2) 0.49007(14)
C5 C 0.4835(2) 0.5966(2) 0.48015(17)
H2 H 0.4559 0.5913 0.4980
C6 C 0.4894(2) 0.5491(2) 0.44441(17)
H3 H 0.4669 0.5109 0.4386
C7 C 0.59187(19) 0.7206(2) 0.47796(16)
H4 H 0.6187 0.7280 0.4570
C8 C 0.6167(2) 0.7030(2) 0.53188(16)
C9 C 0.6691(2) 0.6969(2) 0.55349(19)
H5 H 0.6952 0.7037 0.5341
C10 C 0.6846(2) 0.6810(2) 0.6032(2)
H6 H 0.7212 0.6789 0.6179
C11 C 0.6487(3) 0.6684(3) 0.6308(2)
H7 H 0.6603 0.6555 0.6644
C12 C 0.5940(2) 0.6739(2) 0.61116(17)
H8 H 0.5688 0.6657 0.6312
C13 C 0.5779(2) 0.6921(2) 0.56094(16)
C14 C 0.5226(2) 0.7006(2) 0.53218(16)
H9 H 0.4957 0.6931 0.5531
C15 C 0.51991(18) 0.7712(2) 0.51108(15)
C16 C 0.4884(2) 0.8248(2) 0.52017(16)
H10 H 0.4644 0.8192 0.5418
C17 C 0.4921(2) 0.8864(2) 0.49745(16)
H11 H 0.4697 0.9225 0.5023
C18 C 0.5292(2) 0.8943(2) 0.46737(15)
C19 C 0.5603(2) 0.8436(2) 0.45832(16)
H12 H 0.5841 0.8503 0.4366
C20 C 0.55774(18) 0.7810(2) 0.48070(15)
C21 C 0.50346(18) 0.9769(2) 0.40428(15)
C22 C 0.5188(2) 1.0379(2) 0.38349(16)
H13 H 0.5490 1.0626 0.3993
C23 C 0.4885(2) 1.0582(2) 0.34072(17)
H14 H 0.4977 1.0979 0.3254
C24 C 0.44309(18) 1.02162(19) 0.31792(15)
C25 C 0.43150(18) 0.9630(2) 0.34204(15)
C26 C 0.4104(2) 1.0386(2) 0.27241(16)
H15 H 0.4187 1.0765 0.2545
C27 C 0.36673(19) 1.0008(2) 0.25365(16)
H16 H 0.3436 1.0120 0.2233
C28 C 0.35748(19) 0.9433(2) 0.28207(16)
C29 C 0.29099(19) 0.8563(2) 0.28455(16)
C30 C 0.26438(18) 0.80821(19) 0.25122(15)
H17 H 0.2663 0.8089 0.2172
C31 C 0.23529(18) 0.7599(2) 0.26968(15)
C32 C 0.23443(19) 0.7576(2) 0.31931(16)
C33 C 0.25839(18) 0.8065(2) 0.35067(16)
H18 H 0.2553 0.8062 0.3844
C34 C 0.2879(2) 0.8576(2) 0.33290(16)
H19 H 0.3049 0.8918 0.3544
C35 C 0.2036(2) 0.7014(2) 0.23877(16)
H20 H 0.2043 0.7032 0.2026
C36 C 0.14849(19) 0.7078(2) 0.24973(17)
C37 C 0.0997(2) 0.7123(2) 0.21437(18)
H21 H 0.1000 0.7142 0.1800
C38 C 0.0526(2) 0.7140(2) 0.2297(2)
H22 H 0.0203 0.7186 0.2062
C39 C 0.0524(2) 0.7088(2) 0.2790(2)
H23 H 0.0195 0.7085 0.2893
C40 C 0.0989(2) 0.7040(2) 0.31457(18)
H24 H 0.0974 0.7012 0.3487
C41 C 0.1467(2) 0.7032(2) 0.30064(17)
C42 C 0.20082(18) 0.69762(19) 0.33285(16)
H25 H 0.2001 0.6958 0.3690
C43 C 0.22776(18) 0.63629(19) 0.31527(15)
C44 C 0.24760(19) 0.5821(2) 0.34283(16)
H26 H 0.2463 0.5803 0.3770
C45 C 0.27008(19) 0.5285(2) 0.32071(17)
H27 H 0.2845 0.4906 0.3396
C46 C 0.27036(19) 0.5332(2) 0.27001(17)
C47 C 0.24903(19) 0.5879(2) 0.24194(17)
H28 H 0.2486 0.5893 0.2074
C48 C 0.22871(18) 0.6395(2) 0.26431(15)
C49 C 0.3402(2) 0.4578(2) 0.25918(16)
C50 C 0.35016(19) 0.40002(19) 0.23330(15)
H29 H 0.3230 0.3781 0.2103
C51 C 0.40196(19) 0.3768(2) 0.24317(16)
H30 H 0.4118 0.3395 0.2255
C52 C 0.43958(19) 0.4093(2) 0.27975(16)
C53 C 0.4238(2) 0.4664(2) 0.30344(16)
C54 C 0.4936(2) 0.3885(2) 0.29395(17)
H31 H 0.5058 0.3514 0.2778
C55 C 0.5273(2) 0.4210(2) 0.32999(18)
H32 H 0.5631 0.4073 0.3408
C56 C 0.5052(2) 0.4787(2) 0.35136(18)
O5 O 0.44691(16) 0.07292(17) -0.29621(14)
O6 O 0.62775(16) 0.42186(17) -0.17825(14)
O7 O 0.47302(19) 0.6814(2) -0.12069(16)
O8 O 0.34478(18) 0.38870(19) -0.35556(15)
N5 N 0.41103(17) 0.17690(19) -0.31634(15)
N6 N 0.3754(2) 0.2833(2) -0.33521(17)
N7 N 0.52574(19) 0.5960(2) -0.14097(15)
N8 N 0.57878(19) 0.5085(2) -0.15924(16)
C57 C 0.4732(2) 0.0994(2) -0.24924(19)
C58 C 0.4468(2) 0.0985(3) -0.2110(2)
H33 H 0.4116 0.0818 -0.2162
C59 C 0.4710(2) 0.1219(3) -0.1652(2)
H34 H 0.4531 0.1209 -0.1383
C60 C 0.5216(2) 0.1467(2) -0.15897(18)
C61 C 0.5482(2) 0.1467(2) -0.19756(17)
C62 C 0.5243(2) 0.1234(2) -0.24429(17)
H35 H 0.5420 0.1240 -0.2713
C63 C 0.6050(2) 0.1747(2) -0.18350(17)
H36 H 0.6239 0.1735 -0.2118
C64 C 0.6342(2) 0.1341(2) -0.13812(18)
C65 C 0.6796(2) 0.0980(2) -0.13464(18)
H37 H 0.6972 0.0946 -0.1616
C66 C 0.6994(3) 0.0656(3) -0.0885(2)
H38 H 0.7313 0.0404 -0.0846
C67 C 0.6751(3) 0.0696(2) -0.0512(2)
H39 H 0.6902 0.0484 -0.0207
C68 C 0.6280(2) 0.1040(3) -0.05539(19)
H40 H 0.6109 0.1054 -0.0280
C69 C 0.6060(2) 0.1355(2) -0.09766(18)
C70 C 0.5537(2) 0.1769(2) -0.11203(17)
H41 H 0.5336 0.1786 -0.0846
C71 C 0.5705(2) 0.2460(2) -0.12591(16)
C72 C 0.5999(2) 0.2452(2) -0.16431(17)
C73 C 0.61703(19) 0.3048(2) -0.18175(16)
H42 H 0.6354 0.3046 -0.2083
C74 C 0.6070(2) 0.3641(2) -0.16003(17)
C75 C 0.5782(2) 0.3672(2) -0.12035(18)
H43 H 0.5710 0.4086 -0.1060
C76 C 0.5618(2) 0.3069(2) -0.10441(17)
H44 H 0.5438 0.3069 -0.0776
C77 C 0.6248(2) 0.4812(2) -0.15467(19)
C78 C 0.6736(3) 0.5101(3) -0.12896(19)
H45 H 0.7065 0.4881 -0.1276
C79 C 0.6707(3) 0.5709(3) -0.1063(2)
H46 H 0.7020 0.5917 -0.0886
C80 C 0.6207(2) 0.6031(2) -0.10932(19)
C81 C 0.5764(2) 0.5699(2) -0.13584(17)
C82 C 0.6135(2) 0.6647(2) -0.08660(18)
H47 H 0.6432 0.6886 -0.0687
C83 C 0.5628(3) 0.6902(3) -0.0905(2)
H48 H 0.5562 0.7306 -0.0745
C84 C 0.5220(2) 0.6527(3) -0.1192(2)
C85 C 0.4276(3) 0.6445(3) -0.1418(2)
C86 C 0.3981(3) 0.6181(3) -0.1104(2)
H49 H 0.4101 0.6209 -0.0755
C87 C 0.3494(3) 0.5866(3) -0.1306(2)
H50 H 0.3278 0.5696 -0.1094
C88 C 0.3335(2) 0.5809(2) -0.18111(19)
C89 C 0.3635(2) 0.6094(3) -0.21208(19)
C90 C 0.4108(2) 0.6404(3) -0.1922(2)
H51 H 0.4318 0.6589 -0.2135
C91 C 0.3391(2) 0.6021(3) -0.2673(2)
H52 H 0.3613 0.6222 -0.2894
C92 C 0.2828(2) 0.6346(2) -0.2740(2)
C93 C 0.2630(2) 0.6863(3) -0.30563(19)
H53 H 0.2840 0.7052 -0.3268
C94 C 0.2128(3) 0.7108(3) -0.3066(2)
H54 H 0.1988 0.7457 -0.3290
C95 C 0.1823(3) 0.6836(3) -0.2743(2)
H55 H 0.1480 0.7010 -0.2742
C96 C 0.2026(2) 0.6312(2) -0.24254(18)
H56 H 0.1820 0.6127 -0.2209
C97 C 0.2530(2) 0.6061(3) -0.24241(19)
C98 C 0.2815(2) 0.5527(3) -0.2101(2)
H57 H 0.2594 0.5330 -0.1878
C99 C 0.2991(2) 0.4990(3) -0.24408(18)
C100 C 0.2865(2) 0.4314(3) -0.24770(18)
H58 H 0.2671 0.4115 -0.2256
C101 C 0.3024(2) 0.3934(3) -0.28388(19)
H59 H 0.2938 0.3471 -0.2867
C102 C 0.3306(2) 0.4216(3) -0.31591(19)
C103 C 0.3453(2) 0.4895(3) -0.31211(17)
H60 H 0.3658 0.5087 -0.3335
C104 C 0.3289(2) 0.5275(3) -0.27607(18)
C105 C 0.3388(3) 0.3202(3) -0.3606(2)
C106 C 0.2932(3) 0.2976(3) -0.3945(2)
H61 H 0.2664 0.3274 -0.4106
C107 C 0.2906(3) 0.2291(3) -0.4027(2)
H62 H 0.2614 0.2113 -0.4258
C108 C 0.3291(3) 0.1857(3) -0.3783(2)
C109 C 0.3715(2) 0.2143(3) -0.34368(19)
C110 C 0.3301(3) 0.1130(3) -0.3842(2)
H63 H 0.3028 0.0909 -0.4068
C111 C 0.3695(2) 0.0787(2) -0.35797(19)
H64 H 0.3712 0.0314 -0.3619
C112 C 0.4091(2) 0.1121(3) -0.32397(19)
N9 N 0.38248(19) 0.7416(2) 0.41668(16)
N10 N 0.5641(2) 0.5969(2) 0.17704(17)
C113 C 0.3581(3) 0.7658(3) 0.4586(2)
H65 H 0.3230 0.7456 0.4558
H66 H 0.3547 0.8147 0.4570
H67 H 0.3807 0.7528 0.4903
C114 C 0.4170(2) 0.7797(3) 0.39844(18)
H68 H 0.4242 0.8238 0.4109
C115 C 0.4415(2) 0.7574(3) 0.3633(2)
H69 H 0.4669 0.7843 0.3518
C116 C 0.4284(3) 0.6912(3) 0.3433(2)
C117 C 0.3906(2) 0.6551(3) 0.3608(2)
H70 H 0.3802 0.6121 0.3475
C118 C 0.3678(3) 0.6819(3) 0.3982(2)
H71 H 0.3417 0.6572 0.4103
C119 C 0.4526(3) 0.6616(3) 0.3038(2)
H72 H 0.4375 0.6217 0.2880
C120 C 0.4935(2) 0.6874(3) 0.2894(2)
H73 H 0.5082 0.7283 0.3037
C121 C 0.5332(3) 0.5580(3) 0.2011(2)
H74 H 0.5272 0.5123 0.1919
C122 C 0.5109(3) 0.5847(3) 0.2384(2)
H75 H 0.4910 0.5571 0.2560
C123 C 0.5180(2) 0.6527(3) 0.2499(2)
C124 C 0.5483(3) 0.6894(3) 0.2247(2)
H76 H 0.5531 0.7358 0.2321
C125 C 0.5720(3) 0.6625(3) 0.1895(2)
H77 H 0.5940 0.6894 0.1736
C126 C 0.5884(3) 0.5699(4) 0.1370(3)
H78 H 0.6233 0.5512 0.1514
H79 H 0.5924 0.6060 0.1139
H80 H 0.5658 0.5345 0.1193
loop_
_geom_bond_atom_site_label_1
_geom_bond_atom_site_label_2
_geom_bond_site_symmetry_1
_geom_bond_site_symmetry_2
P1 F1 1_555 1_555
F2 P1 1_555 1_555
F3 P1 1_555 1_555
F4 P1 1_555 1_555
F5 P1 1_555 1_555
F6 P1 1_555 1_555
P2 F7 1_555 1_555
F8 P2 1_555 1_555
F9 P2 1_555 1_555
F10 P2 1_555 1_555
F11 P2 1_555 1_555
F12 P2 1_555 1_555
O1 C1 1_555 1_555
O2 C18 1_555 1_555
O3 C46 1_555 1_555
O4 C28 1_555 1_555
N1 C53 1_555 1_555
N2 C49 1_555 1_555
N3 C25 1_555 1_555
N4 C21 1_555 1_555
C1 C2 1_555 1_555
C2 H1 1_555 1_555
C3 C2 1_555 1_555
C4 C3 1_555 1_555
C5 C4 1_555 1_555
H2 C5 1_555 1_555
C6 C1 1_555 1_555
H3 C6 1_555 1_555
C7 C3 1_555 1_555
H4 C7 1_555 1_555
C8 C7 1_555 1_555
C9 C8 1_555 1_555
H5 C9 1_555 1_555
C10 C9 1_555 1_555
H6 C10 1_555 1_555
C11 C10 1_555 1_555
H7 C11 1_555 1_555
C12 C11 1_555 1_555
H8 C12 1_555 1_555
C13 C8 1_555 1_555
C14 C4 1_555 1_555
H9 C14 1_555 1_555
C15 C14 1_555 1_555
C16 C15 1_555 1_555
H10 C16 1_555 1_555
C17 C16 1_555 1_555
H11 C17 1_555 1_555
C18 C17 1_555 1_555
C19 C18 1_555 1_555
H12 C19 1_555 1_555
C20 C7 1_555 1_555
C21 O2 1_555 1_555
C22 C21 1_555 1_555
H13 C22 1_555 1_555
C23 C22 1_555 1_555
H14 C23 1_555 1_555
C24 C23 1_555 1_555
C25 N4 1_555 1_555
C26 C24 1_555 1_555
H15 C26 1_555 1_555
C27 C26 1_555 1_555
H16 C27 1_555 1_555
C28 N3 1_555 1_555
C29 O4 1_555 1_555
C30 C29 1_555 1_555
H17 C30 1_555 1_555
C31 C30 1_555 1_555
C32 C31 1_555 1_555
C33 C32 1_555 1_555
H18 C33 1_555 1_555
C34 C29 1_555 1_555
H19 C34 1_555 1_555
C35 C31 1_555 1_555
H20 C35 1_555 1_555
C36 C35 1_555 1_555
C37 C36 1_555 1_555
H21 C37 1_555 1_555
C38 C37 1_555 1_555
H22 C38 1_555 1_555
C39 C38 1_555 1_555
H23 C39 1_555 1_555
C40 C39 1_555 1_555
H24 C40 1_555 1_555
C41 C36 1_555 1_555
C42 C32 1_555 1_555
H25 C42 1_555 1_555
C43 C42 1_555 1_555
C44 C43 1_555 1_555
H26 C44 1_555 1_555
C45 C44 1_555 1_555
H27 C45 1_555 1_555
C46 C45 1_555 1_555
C47 C46 1_555 1_555
H28 C47 1_555 1_555
C48 C35 1_555 1_555
C49 O3 1_555 1_555
C50 C49 1_555 1_555
H29 C50 1_555 1_555
C51 C50 1_555 1_555
H30 C51 1_555 1_555
C52 C51 1_555 1_555
C53 N2 1_555 1_555
C54 C52 1_555 1_555
H31 C54 1_555 1_555
C55 C54 1_555 1_555
H32 C55 1_555 1_555
C56 O1 1_555 1_555
O5 C57 1_555 1_555
O6 C74 1_555 1_555
O7 C84 1_555 1_555
O8 C102 1_555 1_555
N5 C109 1_555 1_555
N6 C105 1_555 1_555
N7 C81 1_555 1_555
N8 C77 1_555 1_555
C57 C58 1_555 1_555
C58 H33 1_555 1_555
C59 C58 1_555 1_555
H34 C59 1_555 1_555
C60 C59 1_555 1_555
C61 C60 1_555 1_555
C62 C57 1_555 1_555
H35 C62 1_555 1_555
C63 C61 1_555 1_555
H36 C63 1_555 1_555
C64 C63 1_555 1_555
C65 C64 1_555 1_555
H37 C65 1_555 1_555
C66 C65 1_555 1_555
H38 C66 1_555 1_555
C67 C66 1_555 1_555
H39 C67 1_555 1_555
C68 C67 1_555 1_555
H40 C68 1_555 1_555
C69 C64 1_555 1_555
C70 C60 1_555 1_555
H41 C70 1_555 1_555
C71 C70 1_555 1_555
C72 C63 1_555 1_555
C73 C72 1_555 1_555
H42 C73 1_555 1_555
C74 C73 1_555 1_555
C75 C74 1_555 1_555
H43 C75 1_555 1_555
C76 C71 1_555 1_555
H44 C76 1_555 1_555
C77 O6 1_555 1_555
C78 C77 1_555 1_555
H45 C78 1_555 1_555
C79 C78 1_555 1_555
H46 C79 1_555 1_555
C80 C79 1_555 1_555
C81 N8 1_555 1_555
C82 C80 1_555 1_555
H47 C82 1_555 1_555
C83 C82 1_555 1_555
H48 C83 1_555 1_555
C84 N7 1_555 1_555
C85 O7 1_555 1_555
C86 C85 1_555 1_555
H49 C86 1_555 1_555
C87 C86 1_555 1_555
H50 C87 1_555 1_555
C88 C87 1_555 1_555
C89 C88 1_555 1_555
C90 C85 1_555 1_555
H51 C90 1_555 1_555
C91 C89 1_555 1_555
H52 C91 1_555 1_555
C92 C91 1_555 1_555
C93 C92 1_555 1_555
H53 C93 1_555 1_555
C94 C93 1_555 1_555
H54 C94 1_555 1_555
C95 C94 1_555 1_555
H55 C95 1_555 1_555
C96 C95 1_555 1_555
H56 C96 1_555 1_555
C97 C92 1_555 1_555
C98 C88 1_555 1_555
H57 C98 1_555 1_555
C99 C98 1_555 1_555
C100 C99 1_555 1_555
H58 C100 1_555 1_555
C101 C100 1_555 1_555
H59 C101 1_555 1_555
C102 C101 1_555 1_555
C103 C102 1_555 1_555
H60 C103 1_555 1_555
C104 C91 1_555 1_555
C105 O8 1_555 1_555
C106 C105 1_555 1_555
H61 C106 1_555 1_555
C107 C106 1_555 1_555
H62 C107 1_555 1_555
C108 C107 1_555 1_555
C109 N6 1_555 1_555
C110 C108 1_555 1_555
H63 C110 1_555 1_555
C111 C110 1_555 1_555
H64 C111 1_555 1_555
C112 O5 1_555 1_555
N9 C113 1_555 1_555
N10 C121 1_555 1_555
C113 H65 1_555 1_555
H66 C113 1_555 1_555
H67 C113 1_555 1_555
C114 N9 1_555 1_555
H68 C114 1_555 1_555
C115 C114 1_555 1_555
H69 C115 1_555 1_555
C116 C115 1_555 1_555
C117 C116 1_555 1_555
H70 C117 1_555 1_555
C118 N9 1_555 1_555
H71 C118 1_555 1_555
C119 C116 1_555 1_555
H72 C119 1_555 1_555
C120 C119 1_555 1_555
H73 C120 1_555 1_555
C121 H74 1_555 1_555
C122 C121 1_555 1_555
H75 C122 1_555 1_555
C123 C120 1_555 1_555
C124 C123 1_555 1_555
H76 C124 1_555 1_555
C125 N10 1_555 1_555
H77 C125 1_555 1_555
C126 N10 1_555 1_555
H78 C126 1_555 1_555
H79 C126 1_555 1_555
H80 C126 1_555 1_555
N1 C56 1_555 1_555
C5 C6 1_555 1_555
C12 C13 1_555 1_555
C13 C14 1_555 1_555
C15 C20 1_555 1_555
C19 C20 1_555 1_555
C24 C25 1_555 1_555
C27 C28 1_555 1_555
C33 C34 1_555 1_555
C40 C41 1_555 1_555
C41 C42 1_555 1_555
C43 C48 1_555 1_555
C47 C48 1_555 1_555
C52 C53 1_555 1_555
C55 C56 1_555 1_555
N5 C112 1_555 1_555
C61 C62 1_555 1_555
C68 C69 1_555 1_555
C69 C70 1_555 1_555
C71 C72 1_555 1_555
C75 C76 1_555 1_555
C80 C81 1_555 1_555
C83 C84 1_555 1_555
C89 C90 1_555 1_555
C96 C97 1_555 1_555
C97 C98 1_555 1_555
C99 C104 1_555 1_555
C103 C104 1_555 1_555
C108 C109 1_555 1_555
C111 C112 1_555 1_555
C117 C118 1_555 1_555
C122 C123 1_555 1_555
C124 C125 1_555 1_555

#END
