
#######################################################################
#
#                 Cambridge Crystallographic Data Centre
#                                CCDC 
#
#######################################################################
#
# If this CIF has been generated from an entry in the Cambridge 
# Structural Database, then it will include bibliographic, chemical, 
# crystal, experimental, refinement or atomic coordinate data resulting 
# from the CCDC's data processing and validation procedures.
#
#######################################################################

data_OYAZOF
_chemical_formula_moiety         'C22 H21 I1 N2 O6 S1'
_chemical_name_systematic        
3-(1-(5-iodo-1-((4-methylphenyl)sulfonyl)-1H-indol-3-yl)-2-nitroethyl)pentane-2,4-dione
_symmetry_cell_setting           monoclinic
_symmetry_space_group_name_H-M   'P 21'
_symmetry_Int_Tables_number      4
_space_group_name_Hall           'P 2yb'
loop_
_symmetry_equiv_pos_site_id
_symmetry_equiv_pos_as_xyz
1 x,y,z
2 -x,1/2+y,-z
_cell_length_a                   12.289(2)
_cell_length_b                   5.3946(9)
_cell_length_c                   16.953(3)
_cell_angle_alpha                90
_cell_angle_beta                 95.619(6)
_cell_angle_gamma                90
_cell_volume                     1118.49
_exptl_crystal_colour            colorless
_exptl_crystal_description       block
_chemical_melting_point          '110-112 deg.C'
_cell_formula_units_Z            2
_exptl_crystal_recrystallization_method ethanol
loop_
_atom_site_label
_atom_site_type_symbol
_atom_site_fract_x
_atom_site_fract_y
_atom_site_fract_z
C1 C 0.3656(3) -0.8684(6) 0.7342(2)
H1 H 0.3870 -0.7420 0.7697
C2 C 0.2724(3) -1.0064(8) 0.7428(2)
H2 H 0.2312 -0.9708 0.7845
C3 C 0.2395(2) -1.1929(5) 0.69174(16)
C4 C 0.1358(3) -1.3347(8) 0.7004(2)
H3 H 0.1167 -1.3187 0.7537
H4 H 0.1467 -1.5065 0.6887
H5 H 0.0778 -1.2691 0.6643
C5 C 0.30262(19) -1.2457(8) 0.63036(13)
H6 H 0.2818 -1.3742 0.5956
C6 C 0.3955(2) -1.1114(5) 0.61989(15)
H7 H 0.4370 -1.1480 0.5784
C7 C 0.42586(18) -0.9219(5) 0.67204(14)
C8 C 0.70098(18) -1.1008(5) 0.65030(13)
C9 C 0.6956(2) -1.1561(5) 0.56920(14)
H8 H 0.6485 -1.0708 0.5324
C10 C 0.7623(2) -1.3407(5) 0.54635(15)
H9 H 0.7617 -1.3794 0.4928
C11 C 0.8313(2) -1.4717(5) 0.60178(15)
C12 C 0.83485(19) -1.4251(5) 0.68206(14)
H10 H 0.8799 -1.5167 0.7185
C13 C 0.76802(15) -1.2345(7) 0.70688(11)
C14 C 0.68022(19) -0.9436(5) 0.77188(13)
H11 H 0.6560 -0.8451 0.8117
C15 C 0.75191(18) -1.1348(4) 0.78366(13)
C16 C 0.9255(2) -1.1778(5) 0.87648(15)
H12 H 0.9534 -1.2367 0.9286
H13 H 0.9629 -1.2676 0.8376
C17 C 0.80195(16) -1.2317(6) 0.86286(11)
H14 H 0.7946 -1.4125 0.8605
C18 C 0.7337(2) -1.1448(5) 0.92913(13)
H15 H 0.7236 -0.9648 0.9259
C19 C 0.6214(2) -1.2747(7) 0.91723(13)
C20 C 0.5217(3) -1.1189(8) 0.9203(3)
H16 H 0.4890 -1.1534 0.9683
H17 H 0.4704 -1.1559 0.8754
H18 H 0.5415 -0.9469 0.9191
C21 C 0.7827(2) -1.2159(7) 1.01293(14)
C22 C 0.7716(4) -1.0302(8) 1.07618(19)
H19 H 0.8176 -0.8903 1.0683
H20 H 0.7932 -1.1033 1.1269
H21 H 0.6969 -0.9767 1.0742
N1 N 0.64843(16) -0.9174(4) 0.69088(11)
N2 N 0.94914(19) -0.9096(5) 0.87030(16)
O1 O 0.54755(15) -0.7058(5) 0.57606(11)
O2 O 0.54405(16) -0.5364(4) 0.71224(13)
O3 O 0.9903(2) -0.8323(5) 0.81380(16)
O4 O 0.9230(2) -0.7779(7) 0.92424(19)
O5 O 0.6167(2) -1.4944(4) 0.90845(15)
O6 O 0.8271(3) -1.4074(5) 1.02702(14)
S1 S 0.54143(4) -0.74045(18) 0.65863(3)
I1 I 0.931675(13) -1.74707(3) 0.560243(10)
loop_
_geom_bond_atom_site_label_1
_geom_bond_atom_site_label_2
_geom_bond_site_symmetry_1
_geom_bond_site_symmetry_2
C1 H1 1_555 1_555
C2 C1 1_555 1_555
H2 C2 1_555 1_555
C3 C2 1_555 1_555
C4 C3 1_555 1_555
H3 C4 1_555 1_555
H4 C4 1_555 1_555
H5 C4 1_555 1_555
C5 C3 1_555 1_555
H6 C5 1_555 1_555
C6 C5 1_555 1_555
H7 C6 1_555 1_555
C7 C1 1_555 1_555
C8 C9 1_555 1_555
C9 H8 1_555 1_555
C10 C9 1_555 1_555
H9 C10 1_555 1_555
C11 C10 1_555 1_555
C12 C11 1_555 1_555
H10 C12 1_555 1_555
C13 C8 1_555 1_555
C14 H11 1_555 1_555
C15 C13 1_555 1_555
C16 H12 1_555 1_555
H13 C16 1_555 1_555
C17 C15 1_555 1_555
H14 C17 1_555 1_555
C18 C17 1_555 1_555
H15 C18 1_555 1_555
C19 C18 1_555 1_555
C20 C19 1_555 1_555
H16 C20 1_555 1_555
H17 C20 1_555 1_555
H18 C20 1_555 1_555
C21 C18 1_555 1_555
C22 C21 1_555 1_555
H19 C22 1_555 1_555
H20 C22 1_555 1_555
H21 C22 1_555 1_555
N1 C8 1_555 1_555
N2 C16 1_555 1_555
O1 S1 1_555 1_555
O2 S1 1_555 1_555
O3 N2 1_555 1_555
O4 N2 1_555 1_555
O5 C19 1_555 1_555
O6 C21 1_555 1_555
S1 C7 1_555 1_555
I1 C11 1_555 1_555
C6 C7 1_555 1_555
C12 C13 1_555 1_555
C14 C15 1_555 1_555
C14 N1 1_555 1_555
C16 C17 1_555 1_555
N1 S1 1_555 1_555

#END
