
#######################################################################
#
#                 Cambridge Crystallographic Data Centre
#                                CCDC 
#
#######################################################################
#
# If this CIF has been generated from an entry in the Cambridge 
# Structural Database, then it will include bibliographic, chemical, 
# crystal, experimental, refinement or atomic coordinate data resulting 
# from the CCDC's data processing and validation procedures.
#
#######################################################################

data_OYEDUT
_chemical_compound_source        'club moss Phlegmariurus henryi'
_chemical_name_common            '6alpha-Hydroxyphlegmariurine A'
_chemical_formula_moiety         'C16 H23 N1 O3'
_chemical_name_systematic        
3-hydroxy-6-methyl-9-azatricyclo[7.4.3.0^4,13^]hexadec-4(13)-ene-2,8-dione
_symmetry_cell_setting           orthorhombic
_symmetry_space_group_name_H-M   'P 21 21 21'
_symmetry_Int_Tables_number      19
_space_group_name_Hall           'P 2ac 2ab'
loop_
_symmetry_equiv_pos_site_id
_symmetry_equiv_pos_as_xyz
1 x,y,z
2 1/2+x,1/2-y,-z
3 -x,1/2+y,1/2-z
4 1/2-x,-y,1/2+z
_cell_length_a                   7.8065(3)
_cell_length_b                   8.4274(4)
_cell_length_c                   20.9588(8)
_cell_angle_alpha                90
_cell_angle_beta                 90
_cell_angle_gamma                90
_cell_volume                     1378.85
_exptl_crystal_colour            yellow
_exptl_crystal_description       sheet
_chemical_melting_point          '230-233 deg.C'
_cell_formula_units_Z            4
loop_
_atom_site_label
_atom_site_type_symbol
_atom_site_fract_x
_atom_site_fract_y
_atom_site_fract_z
O1 O 1.0160(12) -0.0872(7) 0.1798(3)
O2 O 0.7839(11) 0.4453(9) 0.2134(4)
H1 H 0.8025 0.4281 0.2523
O3 O 0.8654(13) 0.4391(10) 0.0781(3)
N1 N 0.8049(14) -0.1777(10) 0.1207(4)
C1 C 0.9056(17) -0.1529(15) 0.0636(5)
H2 H 0.8497 -0.2090 0.0277
H3 H 1.0200 -0.2012 0.0699
C2 C 0.7898(18) 0.3318(17) 0.1082(6)
C3 C 0.7229(17) -0.0539(14) 0.3513(5)
H4 H 0.6085 -0.1017 0.3522
H5 H 0.7237 0.0417 0.3779
H6 H 0.8068 -0.1300 0.3679
C4 C 0.4873(18) -0.1349(16) 0.0873(5)
H7 H 0.5134 -0.1051 0.0427
H8 H 0.3763 -0.1918 0.0874
C5 C 0.7709(15) -0.0084(14) 0.2806(5)
H9 H 0.8893 0.0370 0.2797
C6 C 0.6443(18) 0.1145(13) 0.2543(5)
H10 H 0.6406 0.2057 0.2841
H11 H 0.5286 0.0663 0.2537
C7 C 0.7648(16) -0.1564(13) 0.2390(5)
H12 H 0.8104 -0.2468 0.2640
H13 H 0.6436 -0.1801 0.2290
C8 C 0.863(2) -0.1455(16) 0.1771(6)
C9 C 0.6118(19) 0.1256(14) 0.1340(6)
C10 C 0.8221(16) 0.3026(13) 0.1768(5)
H14 H 0.9400 0.2611 0.1851
C11 C 0.6876(19) 0.2127(15) 0.0763(6)
H15 H 0.5902 0.2708 0.0560
C12 C 0.470(2) 0.0166(16) 0.1274(5)
H16 H 0.3724 0.0777 0.1096
H17 H 0.4357 -0.0163 0.1709
C13 C 0.6852(17) 0.1779(14) 0.1863(5)
C14 C 0.7745(17) 0.1215(16) 0.0233(6)
H18 H 0.8128 0.1976 -0.0097
H19 H 0.6897 0.0497 0.0034
C15 C 0.6323(18) -0.2514(14) 0.1125(6)
H20 H 0.5954 -0.2957 0.1540
H21 H 0.6427 -0.3410 0.0822
C16 C 0.929(2) 0.0230(15) 0.0452(5)
H22 H 0.9799 0.0777 0.0825
H23 H 1.0154 0.0270 0.0106
loop_
_geom_bond_atom_site_label_1
_geom_bond_atom_site_label_2
_geom_bond_site_symmetry_1
_geom_bond_site_symmetry_2
O1 C8 1_555 1_555
O2 H1 1_555 1_555
O3 C2 1_555 1_555
N1 C1 1_555 1_555
C1 H2 1_555 1_555
H3 C1 1_555 1_555
C2 C10 1_555 1_555
C3 H4 1_555 1_555
H5 C3 1_555 1_555
H6 C3 1_555 1_555
C4 H7 1_555 1_555
H8 C4 1_555 1_555
C5 C3 1_555 1_555
H9 C5 1_555 1_555
C6 C5 1_555 1_555
H10 C6 1_555 1_555
H11 C6 1_555 1_555
C7 C5 1_555 1_555
H12 C7 1_555 1_555
H13 C7 1_555 1_555
C8 N1 1_555 1_555
C9 C11 1_555 1_555
C10 O2 1_555 1_555
H14 C10 1_555 1_555
C11 C2 1_555 1_555
H15 C11 1_555 1_555
C12 C4 1_555 1_555
H16 C12 1_555 1_555
H17 C12 1_555 1_555
C13 C6 1_555 1_555
C14 C11 1_555 1_555
H18 C14 1_555 1_555
H19 C14 1_555 1_555
C15 N1 1_555 1_555
H20 C15 1_555 1_555
H21 C15 1_555 1_555
C16 C1 1_555 1_555
H22 C16 1_555 1_555
H23 C16 1_555 1_555
C4 C15 1_555 1_555
C7 C8 1_555 1_555
C9 C12 1_555 1_555
C9 C13 1_555 1_555
C10 C13 1_555 1_555
C14 C16 1_555 1_555

#END
