
#######################################################################
#
#                 Cambridge Crystallographic Data Centre
#                                CCDC 
#
#######################################################################
#
# If this CIF has been generated from an entry in the Cambridge 
# Structural Database, then it will include bibliographic, chemical, 
# crystal, experimental, refinement or atomic coordinate data resulting 
# from the CCDC's data processing and validation procedures.
#
#######################################################################

data_OYEQAM
_chemical_formula_moiety         'C23 H15 N1 O1'
_chemical_name_systematic        2,3-diphenylindeno[1,2-c]pyrrol-8(2H)-one
_symmetry_cell_setting           monoclinic
_symmetry_space_group_name_H-M   'P 21/n'
_symmetry_Int_Tables_number      14
_space_group_name_Hall           '-P 2yn'
loop_
_symmetry_equiv_pos_site_id
_symmetry_equiv_pos_as_xyz
1 x,y,z
2 1/2-x,1/2+y,1/2-z
3 -x,-y,-z
4 1/2+x,1/2-y,1/2+z
_cell_length_a                   8.542(3)
_cell_length_b                   10.786(4)
_cell_length_c                   18.502(7)
_cell_angle_alpha                90
_cell_angle_beta                 102.652(7)
_cell_angle_gamma                90
_cell_volume                     1663.27
_exptl_crystal_colour            yellow
_exptl_crystal_description       prismatic
_cell_formula_units_Z            4
loop_
_atom_site_label
_atom_site_type_symbol
_atom_site_fract_x
_atom_site_fract_y
_atom_site_fract_z
N1 N -0.06239(13) 0.36935(11) 0.12414(6)
O1 O -0.18620(14) 0.74932(11) 0.20236(7)
C1 C 0.17381(17) 0.65750(13) 0.15176(7)
C2 C 0.32855(18) 0.68493(16) 0.14649(9)
H1 H 0.3911 0.6261 0.1292
C3 C 0.3891(2) 0.80196(17) 0.16753(9)
H2 H 0.4934 0.8212 0.1641
C4 C 0.2987(2) 0.89037(18) 0.19332(9)
H3 H 0.3417 0.9684 0.2068
C5 C 0.1437(2) 0.86298(16) 0.19922(8)
H4 H 0.0821 0.9220 0.2169
C6 C 0.08226(17) 0.74762(14) 0.17868(8)
C7 C -0.07804(18) 0.69391(15) 0.18310(8)
C8 C -0.07139(16) 0.56491(14) 0.15907(8)
C9 C 0.07556(16) 0.54490(14) 0.13725(7)
C10 C 0.08048(15) 0.42467(14) 0.11502(7)
C11 C -0.15303(17) 0.45546(14) 0.15106(8)
H5 H -0.2528 0.4416 0.1619
C12 C 0.20695(15) 0.35717(14) 0.08845(7)
C13 C 0.26859(18) 0.40928(16) 0.03237(8)
H6 H 0.2277 0.4839 0.0111
C14 C 0.39095(19) 0.35054(17) 0.00786(10)
H7 H 0.4316 0.3857 -0.0301
C15 C 0.45275(18) 0.24150(17) 0.03878(10)
H8 H 0.5358 0.2028 0.0223
C16 C 0.39198(18) 0.18911(16) 0.09431(9)
H9 H 0.4338 0.1146 0.1154
C17 C 0.26946(17) 0.24612(14) 0.11896(8)
H10 H 0.2284 0.2096 0.1564
C18 C -0.11137(16) 0.24434(14) 0.10645(8)
C19 C -0.11229(17) 0.19644(17) 0.03713(8)
H11 H -0.0802 0.2451 0.0015
C20 C -0.16137(19) 0.07572(19) 0.02136(10)
H12 H -0.1625 0.0429 -0.0252
C21 C -0.2086(2) 0.00366(18) 0.07385(11)
H13 H -0.2401 -0.0780 0.0631
C22 C -0.20913(19) 0.05246(16) 0.14206(10)
H14 H -0.2432 0.0041 0.1773
C23 C -0.15989(17) 0.17227(15) 0.15895(8)
H15 H -0.1593 0.2046 0.2056
loop_
_geom_bond_atom_site_label_1
_geom_bond_atom_site_label_2
_geom_bond_site_symmetry_1
_geom_bond_site_symmetry_2
N1 C10 1_555 1_555
O1 C7 1_555 1_555
C1 C2 1_555 1_555
C2 H1 1_555 1_555
C3 C2 1_555 1_555
H2 C3 1_555 1_555
C4 C3 1_555 1_555
H3 C4 1_555 1_555
C5 C4 1_555 1_555
H4 C5 1_555 1_555
C6 C1 1_555 1_555
C7 C6 1_555 1_555
C8 C7 1_555 1_555
C9 C1 1_555 1_555
C10 C9 1_555 1_555
C11 N1 1_555 1_555
H5 C11 1_555 1_555
C12 C10 1_555 1_555
C13 C12 1_555 1_555
H6 C13 1_555 1_555
C14 C13 1_555 1_555
H7 C14 1_555 1_555
C15 C14 1_555 1_555
H8 C15 1_555 1_555
C16 C15 1_555 1_555
H9 C16 1_555 1_555
C17 C12 1_555 1_555
H10 C17 1_555 1_555
C18 N1 1_555 1_555
C19 C18 1_555 1_555
H11 C19 1_555 1_555
C20 C19 1_555 1_555
H12 C20 1_555 1_555
C21 C20 1_555 1_555
H13 C21 1_555 1_555
C22 C21 1_555 1_555
H14 C22 1_555 1_555
C23 C18 1_555 1_555
H15 C23 1_555 1_555
C5 C6 1_555 1_555
C8 C9 1_555 1_555
C8 C11 1_555 1_555
C16 C17 1_555 1_555
C22 C23 1_555 1_555

#END
