
#######################################################################
#
#                 Cambridge Crystallographic Data Centre
#                                CCDC 
#
#######################################################################
#
# If this CIF has been generated from an entry in the Cambridge 
# Structural Database, then it will include bibliographic, chemical, 
# crystal, experimental, refinement or atomic coordinate data resulting 
# from the CCDC's data processing and validation procedures.
#
#######################################################################

data_OYEZUP
_chemical_formula_moiety         'C5 H6 Cl2 N2'
_chemical_name_systematic        4,5-dichloro-2-ethyl-1H-imidazole
_symmetry_cell_setting           orthorhombic
_symmetry_space_group_name_H-M   'P b c a'
_symmetry_Int_Tables_number      61
_space_group_name_Hall           '-P 2ac 2ab'
loop_
_symmetry_equiv_pos_site_id
_symmetry_equiv_pos_as_xyz
1 x,y,z
2 1/2-x,-y,1/2+z
3 1/2+x,1/2-y,-z
4 -x,1/2+y,1/2-z
5 -x,-y,-z
6 1/2+x,y,1/2-z
7 1/2-x,1/2+y,z
8 x,1/2-y,1/2+z
_cell_length_a                   9.9749(7)
_cell_length_b                   8.6094(8)
_cell_length_c                   16.1480(13)
_cell_angle_alpha                90
_cell_angle_beta                 90
_cell_angle_gamma                90
_cell_volume                     1386.76
_exptl_crystal_colour            colorless
_exptl_crystal_description       plate
_cell_formula_units_Z            8
loop_
_atom_site_label
_atom_site_type_symbol
_atom_site_fract_x
_atom_site_fract_y
_atom_site_fract_z
Cl1 Cl 0.09893(5) 0.48420(7) 0.91413(3)
Cl2 Cl 0.44607(5) 0.50039(7) 0.89681(3)
C1 C 0.2734(2) 0.7460(3) 0.58099(14)
H1 H 0.2673 0.8210 0.5355
H2 H 0.2143 0.6577 0.5696
H3 H 0.3660 0.7094 0.5861
C2 C 0.24678(19) 0.7221(3) 0.73579(12)
N1 N 0.14219(16) 0.6649(2) 0.77947(10)
H4 H 0.0566 0.6808 0.7692
N2 N 0.36379(16) 0.6760(2) 0.76750(10)
C3 C 0.19414(19) 0.5778(3) 0.84251(12)
C4 C 0.32949(19) 0.5861(3) 0.83391(12)
C5 C 0.2306(2) 0.8241(3) 0.66177(12)
H5 H 0.2846 0.9194 0.6698
H6 H 0.1354 0.8555 0.6572
loop_
_geom_bond_atom_site_label_1
_geom_bond_atom_site_label_2
_geom_bond_site_symmetry_1
_geom_bond_site_symmetry_2
Cl1 C3 1_555 1_555
Cl2 C4 1_555 1_555
C1 H1 1_555 1_555
H2 C1 1_555 1_555
H3 C1 1_555 1_555
C2 N1 1_555 1_555
N1 H4 1_555 1_555
N2 C2 1_555 1_555
C3 N1 1_555 1_555
C4 N2 1_555 1_555
C5 C1 1_555 1_555
H5 C5 1_555 1_555
H6 C5 1_555 1_555
C2 C5 1_555 1_555
C3 C4 1_555 1_555

#END
