
#######################################################################
#
#                 Cambridge Crystallographic Data Centre
#                                CCDC 
#
#######################################################################
#
# If this CIF has been generated from an entry in the Cambridge 
# Structural Database, then it will include bibliographic, chemical, 
# crystal, experimental, refinement or atomic coordinate data resulting 
# from the CCDC's data processing and validation procedures.
#
#######################################################################

data_OYIBAB
_chemical_formula_moiety         'C5 H6 Br2 N2'
_chemical_name_systematic        4,5-dibromo-2-ethyl-1H-imidazole
_symmetry_cell_setting           orthorhombic
_symmetry_space_group_name_H-M   'P b c a'
_symmetry_Int_Tables_number      61
_space_group_name_Hall           '-P 2ac 2ab'
loop_
_symmetry_equiv_pos_site_id
_symmetry_equiv_pos_as_xyz
1 x,y,z
2 1/2-x,-y,1/2+z
3 -x,1/2+y,1/2-z
4 1/2+x,1/2-y,-z
5 -x,-y,-z
6 1/2+x,y,1/2-z
7 x,1/2-y,1/2+z
8 1/2-x,1/2+y,z
_cell_length_a                   10.1725(4)
_cell_length_b                   8.7364(4)
_cell_length_c                   16.7335(7)
_cell_angle_alpha                90
_cell_angle_beta                 90
_cell_angle_gamma                90
_cell_volume                     1487.12
_exptl_crystal_colour            colorless
_exptl_crystal_description       plate
_cell_formula_units_Z            8
loop_
_atom_site_label
_atom_site_type_symbol
_atom_site_fract_x
_atom_site_fract_y
_atom_site_fract_z
Br1 Br 0.45171(3) -0.00184(5) 0.60371(2)
Br2 Br 0.09554(3) -0.01942(4) 0.58524(2)
C1 C 0.2460(3) 0.2212(4) 0.7660(2)
C2 C 0.2727(3) 0.2474(5) 0.9147(2)
H1 H 0.2163 0.1591 0.9261
H2 H 0.2656 0.3217 0.9583
H3 H 0.3641 0.2134 0.9098
C3 C 0.1953(3) 0.0802(4) 0.66220(19)
C4 C 0.3272(3) 0.0880(4) 0.6712(2)
C5 C 0.2292(3) 0.3221(5) 0.8366(2)
H4 H 0.1354 0.3513 0.8411
H5 H 0.2806 0.4170 0.8283
N1 N 0.3609(3) 0.1756(4) 0.73552(17)
N2 N 0.1437(3) 0.1649(4) 0.72304(17)
H6 H 0.0597 0.1803 0.7327
loop_
_geom_bond_atom_site_label_1
_geom_bond_atom_site_label_2
_geom_bond_site_symmetry_1
_geom_bond_site_symmetry_2
Br1 C4 1_555 1_555
Br2 C3 1_555 1_555
C1 C5 1_555 1_555
C2 H1 1_555 1_555
H2 C2 1_555 1_555
H3 C2 1_555 1_555
C3 C4 1_555 1_555
C4 N1 1_555 1_555
C5 C2 1_555 1_555
H4 C5 1_555 1_555
H5 C5 1_555 1_555
N1 C1 1_555 1_555
N2 C1 1_555 1_555
H6 N2 1_555 1_555
C3 N2 1_555 1_555

#END
