
#######################################################################
#
#                 Cambridge Crystallographic Data Centre
#                                CCDC 
#
#######################################################################
#
# If this CIF has been generated from an entry in the Cambridge 
# Structural Database, then it will include bibliographic, chemical, 
# crystal, experimental, refinement or atomic coordinate data resulting 
# from the CCDC's data processing and validation procedures.
#
#######################################################################

data_OYIQEU
_chemical_formula_moiety         'C32 H29 N1 O6 S1'
_chemical_name_systematic        
N-benzyl-N-(6-(4-methoxyphenyl)-7-methyl-6H-[1,3]dioxolo[4,5-g]chromen-8-yl)-4-methylbenzenesulfonamide
_symmetry_cell_setting           monoclinic
_symmetry_space_group_name_H-M   'P 21/n'
_symmetry_Int_Tables_number      14
_space_group_name_Hall           '-P 2yn'
loop_
_symmetry_equiv_pos_site_id
_symmetry_equiv_pos_as_xyz
1 x,y,z
2 1/2-x,1/2+y,1/2-z
3 -x,-y,-z
4 1/2+x,1/2-y,1/2+z
_cell_length_a                   11.089(2)
_cell_length_b                   21.075(4)
_cell_length_c                   12.128(2)
_cell_angle_alpha                90
_cell_angle_beta                 97.24(3)
_cell_angle_gamma                90
_cell_volume                     2811.72
_exptl_crystal_colour            colorless
_exptl_crystal_description       prism
_cell_formula_units_Z            4
loop_
_atom_site_label
_atom_site_type_symbol
_atom_site_fract_x
_atom_site_fract_y
_atom_site_fract_z
S1 S 1.03380(6) 0.11834(3) 0.71293(5)
O1 O 0.42343(16) 0.22440(10) 0.83885(16)
O2 O 0.48661(17) 0.14844(11) 0.72090(17)
O3 O 0.83276(15) 0.29304(8) 0.96307(13)
O4 O 1.12886(17) 0.07358(10) 0.74287(18)
O5 O 1.06293(19) 0.17890(9) 0.67013(16)
O6 O 0.8573(2) 0.47234(10) 0.55140(18)
N1 N 0.96701(18) 0.13116(9) 0.82393(16)
C1 C 0.3866(3) 0.18774(18) 0.7397(3)
H1 H 0.3164 0.1619 0.7495
H2 H 0.3652 0.2157 0.6768
C2 C 0.5871(2) 0.17885(13) 0.7769(2)
C3 C 0.7067(2) 0.16685(12) 0.77183(19)
H3 H 0.7308 0.1348 0.7267
C4 C 0.7933(2) 0.20483(11) 0.83770(18)
C5 C 0.7508(2) 0.25358(11) 0.90164(18)
C6 C 0.6289(2) 0.26309(12) 0.9108(2)
H4 H 0.6029 0.2937 0.9578
C7 C 0.5489(2) 0.22477(13) 0.8465(2)
C8 C 0.9243(2) 0.19315(11) 0.84994(18)
C9 C 1.0018(2) 0.23799(11) 0.89339(19)
C10 C 0.9466(2) 0.30144(11) 0.9158(2)
H5 H 1.0035 0.3227 0.9724
C11 C 0.9279(2) 0.34531(11) 0.81556(19)
C12 C 0.9432(3) 0.32647(13) 0.7085(2)
H6 H 0.9692 0.2853 0.6970
C13 C 0.9211(3) 0.36706(14) 0.6182(2)
H7 H 0.9318 0.3531 0.5474
C14 C 0.8833(2) 0.42819(13) 0.6342(2)
C15 C 0.8685(3) 0.44827(14) 0.7403(3)
H8 H 0.8432 0.4895 0.7519
C16 C 0.8913(3) 0.40736(13) 0.8285(2)
H9 H 0.8818 0.4218 0.8993
C17 C 0.8681(4) 0.45321(19) 0.4400(3)
H10 H 0.9503 0.4405 0.4348
H11 H 0.8468 0.4881 0.3904
H12 H 0.8144 0.4182 0.4199
C18 C 0.9297(3) 0.07523(12) 0.8869(2)
H13 H 0.9849 0.0402 0.8795
H14 H 0.8486 0.0620 0.8562
C19 C 0.9311(2) 0.09139(11) 1.0083(2)
C20 C 1.0393(3) 0.10015(14) 1.0761(2)
H15 H 1.1122 0.0938 1.0473
C21 C 1.0419(3) 0.11802(15) 1.1854(3)
H16 H 1.1160 0.1242 1.2293
C22 C 0.9359(4) 0.12663(16) 1.2296(3)
H17 H 0.9374 0.1387 1.3035
C23 C 0.8273(4) 0.11735(18) 1.1644(3)
H18 H 0.7550 0.1226 1.1948
C24 C 0.8235(3) 0.10014(16) 1.0532(3)
H19 H 0.7492 0.0945 1.0094
C25 C 0.9271(2) 0.08090(12) 0.61481(19)
C26 C 0.8488(3) 0.11703(14) 0.5410(2)
H20 H 0.8545 0.1611 0.5417
C27 C 0.7633(3) 0.08712(17) 0.4675(2)
H21 H 0.7107 0.1114 0.4188
C28 C 0.7532(3) 0.02154(17) 0.4638(2)
C29 C 0.8328(3) -0.01386(14) 0.5368(2)
H22 H 0.8285 -0.0579 0.5346
C30 C 0.9188(2) 0.01533(13) 0.6129(2)
H23 H 0.9706 -0.0089 0.6624
C31 C 0.6583(3) -0.0111(2) 0.3834(3)
H24 H 0.5827 -0.0123 0.4141
H25 H 0.6842 -0.0537 0.3706
H26 H 0.6477 0.0117 0.3144
C32 C 1.1366(2) 0.23220(14) 0.9193(3)
H27 H 1.1600 0.1887 0.9114
H28 H 1.1612 0.2459 0.9943
H29 H 1.1751 0.2582 0.8690
loop_
_geom_bond_atom_site_label_1
_geom_bond_atom_site_label_2
_geom_bond_site_symmetry_1
_geom_bond_site_symmetry_2
S1 O4 1_555 1_555
O1 C1 1_555 1_555
O2 C1 1_555 1_555
O3 C5 1_555 1_555
O5 S1 1_555 1_555
O6 C14 1_555 1_555
N1 S1 1_555 1_555
C1 H1 1_555 1_555
H2 C1 1_555 1_555
C2 O2 1_555 1_555
C3 C2 1_555 1_555
H3 C3 1_555 1_555
C4 C3 1_555 1_555
C5 C4 1_555 1_555
C6 C5 1_555 1_555
H4 C6 1_555 1_555
C7 O1 1_555 1_555
C8 N1 1_555 1_555
C9 C8 1_555 1_555
C10 O3 1_555 1_555
H5 C10 1_555 1_555
C11 C10 1_555 1_555
C12 C11 1_555 1_555
H6 C12 1_555 1_555
C13 C12 1_555 1_555
H7 C13 1_555 1_555
C14 C13 1_555 1_555
C15 C14 1_555 1_555
H8 C15 1_555 1_555
C16 C11 1_555 1_555
H9 C16 1_555 1_555
C17 O6 1_555 1_555
H10 C17 1_555 1_555
H11 C17 1_555 1_555
H12 C17 1_555 1_555
C18 N1 1_555 1_555
H13 C18 1_555 1_555
H14 C18 1_555 1_555
C19 C18 1_555 1_555
C20 C19 1_555 1_555
H15 C20 1_555 1_555
C21 C20 1_555 1_555
H16 C21 1_555 1_555
C22 C21 1_555 1_555
H17 C22 1_555 1_555
C23 C22 1_555 1_555
H18 C23 1_555 1_555
C24 C19 1_555 1_555
H19 C24 1_555 1_555
C25 S1 1_555 1_555
C26 C25 1_555 1_555
H20 C26 1_555 1_555
C27 C26 1_555 1_555
H21 C27 1_555 1_555
C28 C27 1_555 1_555
C29 C28 1_555 1_555
H22 C29 1_555 1_555
C30 C25 1_555 1_555
H23 C30 1_555 1_555
C31 C28 1_555 1_555
H24 C31 1_555 1_555
H25 C31 1_555 1_555
H26 C31 1_555 1_555
C32 C9 1_555 1_555
H27 C32 1_555 1_555
H28 C32 1_555 1_555
H29 C32 1_555 1_555
C2 C7 1_555 1_555
C4 C8 1_555 1_555
C6 C7 1_555 1_555
C9 C10 1_555 1_555
C15 C16 1_555 1_555
C23 C24 1_555 1_555
C29 C30 1_555 1_555

#END
