
#######################################################################
#
#                 Cambridge Crystallographic Data Centre
#                                CCDC 
#
#######################################################################
#
# If this CIF has been generated from an entry in the Cambridge 
# Structural Database, then it will include bibliographic, chemical, 
# crystal, experimental, refinement or atomic coordinate data resulting 
# from the CCDC's data processing and validation procedures.
#
#######################################################################

data_OYOHER
_chemical_formula_moiety         'C16 H12 I1 N5'
_chemical_name_systematic        
4-((4-iodobenzyl)(4H-1,2,4-triazol-4-yl)amino)benzonitrile
_symmetry_cell_setting           orthorhombic
_symmetry_space_group_name_H-M   'P 21 21 21'
_symmetry_Int_Tables_number      19
_space_group_name_Hall           'P 2ac 2ab'
loop_
_symmetry_equiv_pos_site_id
_symmetry_equiv_pos_as_xyz
1 x,y,z
2 1/2+x,1/2-y,-z
3 -x,1/2+y,1/2-z
4 1/2-x,-y,1/2+z
_cell_length_a                   10.3109(3)
_cell_length_b                   14.3455(4)
_cell_length_c                   20.9937(6)
_cell_angle_alpha                90
_cell_angle_beta                 90
_cell_angle_gamma                90
_cell_volume                     3105.28
_exptl_crystal_colour            colorless
_exptl_crystal_description       prism
_cell_formula_units_Z            8
loop_
_atom_site_label
_atom_site_type_symbol
_atom_site_fract_x
_atom_site_fract_y
_atom_site_fract_z
I1 I 0.35428(2) 0.77525(2) -0.05485(2)
N1 N 0.5170(2) 0.79529(14) 0.27150(10)
N2 N 0.5507(2) 0.88021(14) 0.24313(9)
N3 N 0.5436(2) 1.02550(17) 0.21137(10)
N4 N 0.6326(2) 0.97725(16) 0.17331(9)
N5 N 0.6434(2) 0.77593(18) 0.58892(10)
C1 C 0.4960(3) 0.96577(19) 0.25174(13)
H1 H 0.4334 0.9795 0.2822
C2 C 0.6337(2) 0.89115(17) 0.19302(11)
H2 H 0.6840 0.8438 0.1755
C3 C 0.3913(3) 0.75831(18) 0.24924(11)
H3 H 0.3214 0.7946 0.2677
H4 H 0.3816 0.6943 0.2634
C4 C 0.3821(3) 0.76200(17) 0.17749(11)
C5 C 0.2821(3) 0.81057(19) 0.14804(12)
H5 H 0.2210 0.8417 0.1727
C6 C 0.2726(3) 0.81310(19) 0.08164(12)
H6 H 0.2044 0.8446 0.0622
C7 C 0.3652(2) 0.76842(17) 0.04494(11)
C8 C 0.4667(2) 0.72034(19) 0.07401(12)
H7 H 0.5295 0.6912 0.0493
C9 C 0.4736(2) 0.71605(19) 0.13984(12)
H8 H 0.5398 0.6823 0.1591
C10 C 0.5444(2) 0.79108(17) 0.33775(11)
C11 C 0.4636(2) 0.74145(18) 0.37905(12)
H9 H 0.3913 0.7104 0.3631
C12 C 0.4905(2) 0.73830(18) 0.44333(12)
H10 H 0.4355 0.7060 0.4707
C13 C 0.5996(2) 0.78322(17) 0.46755(11)
C14 C 0.6824(3) 0.83085(19) 0.42626(12)
H11 H 0.7562 0.8600 0.4421
C15 C 0.6551(3) 0.83482(19) 0.36188(12)
H12 H 0.7106 0.8667 0.3345
C16 C 0.6244(2) 0.78021(17) 0.53562(11)
I2 I 0.61217(2) 0.97869(2) 1.02446(2)
N6 N 0.4363(2) 0.96968(15) 0.69890(9)
N7 N 0.4002(2) 0.88455(14) 0.72744(9)
N8 N 0.3182(2) 0.78945(16) 0.79783(10)
N9 N 0.3993(3) 0.73863(16) 0.75725(11)
N10 N 0.3210(2) 0.9745(2) 0.38012(11)
C17 C 0.3217(2) 0.87614(18) 0.77908(11)
H13 H 0.2771 0.9250 0.7983
C18 C 0.4476(3) 0.79755(17) 0.71620(12)
H14 H 0.5059 0.7823 0.6840
C19 C 0.5662(2) 1.00091(17) 0.72090(11)
H15 H 0.5812 1.0644 0.7068
H16 H 0.6324 0.9616 0.7020
C20 C 0.5767(2) 0.99657(17) 0.79220(11)
C21 C 0.4998(3) 1.05335(18) 0.83099(12)
H17 H 0.4419 1.0951 0.8126
C22 C 0.5094(2) 1.04782(17) 0.89702(12)
H18 H 0.4580 1.0857 0.9226
C23 C 0.5959(2) 0.98560(18) 0.92462(11)
C24 C 0.6733(3) 0.92884(19) 0.88698(13)
H19 H 0.7314 0.8873 0.9055
C25 C 0.6626(3) 0.93508(18) 0.82086(12)
H20 H 0.7142 0.8972 0.7954
C26 C 0.4142(2) 0.96953(17) 0.63180(11)
C27 C 0.5073(2) 1.00500(17) 0.58970(12)
H21 H 0.5856 1.0278 0.6052
C28 C 0.4824(2) 1.00605(17) 0.52486(12)
H22 H 0.5446 1.0291 0.4969
C29 C 0.3639(3) 0.97248(17) 0.50095(11)
C30 C 0.2712(3) 0.93839(19) 0.54351(12)
H23 H 0.1923 0.9165 0.5281
C31 C 0.2955(3) 0.93684(18) 0.60834(12)
H24 H 0.2331 0.9141 0.6363
C32 C 0.3407(3) 0.9739(2) 0.43408(12)
loop_
_geom_bond_atom_site_label_1
_geom_bond_atom_site_label_2
_geom_bond_site_symmetry_1
_geom_bond_site_symmetry_2
I1 C7 1_555 1_555
N1 N2 1_555 1_555
N2 C1 1_555 1_555
N3 N4 1_555 1_555
N4 C2 1_555 1_555
N5 C16 1_555 1_555
C1 N3 1_555 1_555
H1 C1 1_555 1_555
C2 N2 1_555 1_555
H2 C2 1_555 1_555
C3 N1 1_555 1_555
H3 C3 1_555 1_555
H4 C3 1_555 1_555
C4 C3 1_555 1_555
C5 C4 1_555 1_555
H5 C5 1_555 1_555
C6 C5 1_555 1_555
H6 C6 1_555 1_555
C7 C6 1_555 1_555
C8 C7 1_555 1_555
H7 C8 1_555 1_555
C9 C4 1_555 1_555
H8 C9 1_555 1_555
C10 N1 1_555 1_555
C11 C10 1_555 1_555
H9 C11 1_555 1_555
C12 C11 1_555 1_555
H10 C12 1_555 1_555
C13 C12 1_555 1_555
C14 C13 1_555 1_555
H11 C14 1_555 1_555
C15 C10 1_555 1_555
H12 C15 1_555 1_555
C16 C13 1_555 1_555
I2 C23 1_555 1_555
N6 N7 1_555 1_555
N7 C17 1_555 1_555
N8 N9 1_555 1_555
N9 C18 1_555 1_555
N10 C32 1_555 1_555
C17 N8 1_555 1_555
H13 C17 1_555 1_555
C18 N7 1_555 1_555
H14 C18 1_555 1_555
C19 N6 1_555 1_555
H15 C19 1_555 1_555
H16 C19 1_555 1_555
C20 C19 1_555 1_555
C21 C20 1_555 1_555
H17 C21 1_555 1_555
C22 C21 1_555 1_555
H18 C22 1_555 1_555
C23 C22 1_555 1_555
C24 C23 1_555 1_555
H19 C24 1_555 1_555
C25 C20 1_555 1_555
H20 C25 1_555 1_555
C26 N6 1_555 1_555
C27 C26 1_555 1_555
H21 C27 1_555 1_555
C28 C27 1_555 1_555
H22 C28 1_555 1_555
C29 C28 1_555 1_555
C30 C29 1_555 1_555
H23 C30 1_555 1_555
C31 C26 1_555 1_555
H24 C31 1_555 1_555
C32 C29 1_555 1_555
C8 C9 1_555 1_555
C14 C15 1_555 1_555
C24 C25 1_555 1_555
C30 C31 1_555 1_555

#END
