
#######################################################################
#
#                 Cambridge Crystallographic Data Centre
#                                CCDC 
#
#######################################################################
#
# If this CIF has been generated from an entry in the Cambridge 
# Structural Database, then it will include bibliographic, chemical, 
# crystal, experimental, refinement or atomic coordinate data resulting 
# from the CCDC's data processing and validation procedures.
#
#######################################################################

data_OZAHII
_chemical_formula_moiety         'C28 H19 Br1 Cl1 N1 O5'
_chemical_name_systematic        
'dimethyl 4-(2-bromophenyl)-1-(4-chlorophenyl)-5-oxo-4,5-dihydro-1H-indeno[1,2-b]pyridine-2,3-dicarboxylate unknown solvate'
_symmetry_cell_setting           triclinic
_symmetry_space_group_name_H-M   'P -1'
_symmetry_Int_Tables_number      2
_space_group_name_Hall           '-P 1'
loop_
_symmetry_equiv_pos_site_id
_symmetry_equiv_pos_as_xyz
1 x,y,z
2 -x,-y,-z
_cell_length_a                   11.2960(14)
_cell_length_b                   11.6008(14)
_cell_length_c                   12.7705(15)
_cell_angle_alpha                93.451(4)
_cell_angle_beta                 106.626(4)
_cell_angle_gamma                116.161(4)
_cell_volume                     1405.06
_exptl_crystal_colour            yellow
_exptl_crystal_description       block
_cell_formula_units_Z            2
loop_
_atom_site_label
_atom_site_type_symbol
_atom_site_fract_x
_atom_site_fract_y
_atom_site_fract_z
Br1 Br 0.98129(4) 0.77398(4) 0.31212(3)
C1 C 0.1835(4) 0.6018(4) -0.1527(3)
H1 H 0.1674 0.5325 -0.1160
C2 C 0.0754(5) 0.6025(5) -0.2333(4)
H2 H -0.0157 0.5342 -0.2509
C3 C 0.0998(4) 0.7031(4) -0.2890(3)
C4 C 0.2304(5) 0.8061(4) -0.2617(4)
H3 H 0.2451 0.8755 -0.2983
C5 C 0.3429(4) 0.8079(4) -0.1785(3)
H4 H 0.4334 0.8778 -0.1597
C6 C 0.3187(3) 0.7064(3) -0.1255(3)
C7 C 0.4738(4) 0.7651(3) 0.0734(3)
C8 C 0.3676(3) 0.8015(3) 0.0930(3)
C9 C 0.1569(7) 0.7187(7) 0.1320(7)
H5 H 0.1950 0.8077 0.1709
H6 H 0.1149 0.6592 0.1757
H7 H 0.0868 0.7021 0.0609
C10 C 0.5932(3) 0.7860(3) 0.1537(3)
C11 C 0.6153(4) 0.8394(3) 0.2689(3)
C12 C 0.7758(5) 0.8994(5) 0.4555(3)
H8 H 0.8111 0.9929 0.4701
H9 H 0.8475 0.8798 0.4972
H10 H 0.6950 0.8581 0.4778
C13 C 0.8423(4) 0.9755(4) 0.0925(3)
H11 H 0.7583 0.9652 0.0427
C14 C 0.9691(5) 1.0882(4) 0.1072(4)
H12 H 0.9688 1.1535 0.0685
C15 C 1.0927(5) 1.1023(5) 0.1779(5)
H13 H 1.1768 1.1757 0.1848
C16 C 1.0945(4) 1.0090(4) 0.2394(4)
H14 H 1.1784 1.0201 0.2901
C17 C 0.9688(4) 0.8990(4) 0.2238(3)
C18 C 0.8417(3) 0.8784(3) 0.1524(3)
C19 C 0.7008(3) 0.7549(3) 0.1306(2)
H15 H 0.7172 0.6975 0.1795
C20 C 0.6424(3) 0.6822(3) 0.0117(3)
C21 C 0.5205(3) 0.6635(3) -0.0666(3)
C22 C 0.4970(4) 0.5922(3) -0.1762(3)
C23 C 0.3911(4) 0.5480(4) -0.2813(3)
H16 H 0.3141 0.5625 -0.2931
C24 C 0.4048(5) 0.4811(4) -0.3683(3)
H17 H 0.3345 0.4492 -0.4385
C25 C 0.5189(5) 0.4614(4) -0.3527(3)
H18 H 0.5255 0.4183 -0.4129
C26 C 0.6252(4) 0.5047(3) -0.2488(3)
H19 H 0.7027 0.4912 -0.2383
C27 C 0.6116(4) 0.5686(3) -0.1614(3)
C28 C 0.7087(4) 0.6250(3) -0.0411(3)
Cl1 Cl -0.03787(17) 0.70133(17) -0.39556(13)
N1 N 0.4343(3) 0.7070(3) -0.0401(2)
O1 O 0.3683(3) 0.9030(3) 0.0853(2)
O2 O 0.2696(3) 0.6991(3) 0.1144(3)
O3 O 0.5426(3) 0.8706(3) 0.3007(2)
O4 O 0.7367(3) 0.8510(3) 0.33895(19)
O5 O 0.8172(3) 0.6228(3) -0.0001(2)
loop_
_geom_bond_atom_site_label_1
_geom_bond_atom_site_label_2
_geom_bond_site_symmetry_1
_geom_bond_site_symmetry_2
Br1 C17 1_555 1_555
C1 H1 1_555 1_555
C2 C1 1_555 1_555
H2 C2 1_555 1_555
C3 C2 1_555 1_555
C4 C3 1_555 1_555
H3 C4 1_555 1_555
C5 C4 1_555 1_555
H4 C5 1_555 1_555
C6 C1 1_555 1_555
C7 C8 1_555 1_555
C8 O1 1_555 1_555
C9 H5 1_555 1_555
H6 C9 1_555 1_555
H7 C9 1_555 1_555
C10 C7 1_555 1_555
C11 C10 1_555 1_555
C12 H8 1_555 1_555
H9 C12 1_555 1_555
H10 C12 1_555 1_555
C13 H11 1_555 1_555
C14 C13 1_555 1_555
H12 C14 1_555 1_555
C15 C14 1_555 1_555
H13 C15 1_555 1_555
C16 C15 1_555 1_555
H14 C16 1_555 1_555
C17 C16 1_555 1_555
C18 C13 1_555 1_555
C19 C10 1_555 1_555
H15 C19 1_555 1_555
C20 C19 1_555 1_555
C21 C20 1_555 1_555
C22 C21 1_555 1_555
C23 C22 1_555 1_555
H16 C23 1_555 1_555
C24 C23 1_555 1_555
H17 C24 1_555 1_555
C25 C24 1_555 1_555
H18 C25 1_555 1_555
C26 C25 1_555 1_555
H19 C26 1_555 1_555
C27 C22 1_555 1_555
C28 C20 1_555 1_555
Cl1 C3 1_555 1_555
N1 C6 1_555 1_555
O2 C8 1_555 1_555
O3 C11 1_555 1_555
O4 C11 1_555 1_555
O5 C28 1_555 1_555
C5 C6 1_555 1_555
C7 N1 1_555 1_555
C9 O2 1_555 1_555
C12 O4 1_555 1_555
C17 C18 1_555 1_555
C18 C19 1_555 1_555
C21 N1 1_555 1_555
C26 C27 1_555 1_555
C27 C28 1_555 1_555

#END
