
#######################################################################
#
#                 Cambridge Crystallographic Data Centre
#                                CCDC 
#
#######################################################################
#
# If this CIF has been generated from an entry in the Cambridge 
# Structural Database, then it will include bibliographic, chemical, 
# crystal, experimental, refinement or atomic coordinate data resulting 
# from the CCDC's data processing and validation procedures.
#
#######################################################################

data_OZAPAI
_chemical_formula_moiety         'C22 H13 Cl2 N1 O1'
_chemical_name_systematic        
(1,3-dichloro-6-phenylisoquinolin-5-yl)(phenyl)methanone
_symmetry_cell_setting           monoclinic
_symmetry_space_group_name_H-M   'P 21/n'
_symmetry_Int_Tables_number      14
_space_group_name_Hall           '-P 2yn'
loop_
_symmetry_equiv_pos_site_id
_symmetry_equiv_pos_as_xyz
1 x,y,z
2 1/2-x,1/2+y,1/2-z
3 -x,-y,-z
4 1/2+x,1/2-y,1/2+z
_cell_length_a                   8.9307(4)
_cell_length_b                   11.3206(5)
_cell_length_c                   18.0939(8)
_cell_angle_alpha                90
_cell_angle_beta                 98.1280(10)
_cell_angle_gamma                90
_cell_volume                     1810.93
_cell_formula_units_Z            4
loop_
_atom_site_label
_atom_site_type_symbol
_atom_site_fract_x
_atom_site_fract_y
_atom_site_fract_z
O1 O 0.9686(4) 0.7113(3) -0.3201(2)
Cl1 Cl 0.74408(15) 0.50307(13) 0.01466(8)
Cl2 Cl 1.0759(2) 0.86299(13) -0.02771(9)
C1 C 0.9497(4) 0.5533(3) -0.2368(2)
C2 C 1.0338(4) 0.6282(3) -0.2868(2)
C3 C 0.8956(4) 0.4437(3) -0.2592(2)
C4 C 0.9348(4) 0.5975(4) -0.1644(2)
C5 C 0.8468(5) 0.5777(4) -0.0456(3)
C6 C 0.8161(4) 0.3770(4) -0.2107(3)
H1 H 0.7767 0.3037 -0.2263
C7 C 0.8559(4) 0.5279(4) -0.1174(2)
C8 C 1.0010(5) 0.7052(4) -0.1376(2)
H2 H 1.0512 0.7533 -0.1677
C9 C 1.1930(4) 0.6007(3) -0.2918(2)
C10 C 0.7964(4) 0.4178(4) -0.1426(3)
H3 H 0.7431 0.3727 -0.1121
C11 C 0.9151(4) 0.3936(4) -0.3330(2)
C12 C 0.9887(5) 0.7366(4) -0.0654(3)
N1 N 0.9095(4) 0.6750(4) -0.0191(2)
C13 C 1.2701(4) 0.5131(4) -0.2485(3)
H4 H 1.2204 0.4701 -0.2155
C14 C 1.2680(5) 0.6640(4) -0.3419(2)
H5 H 1.2177 0.7232 -0.3712
C15 C 0.9901(6) 0.2856(5) -0.3369(3)
H6 H 1.0234 0.2445 -0.2932
C16 C 0.8629(6) 0.4492(4) -0.3992(3)
H7 H 0.8122 0.5209 -0.3987
C17 C 1.4176(6) 0.6379(6) -0.3477(3)
H8 H 1.4678 0.6790 -0.3814
C18 C 1.4200(5) 0.4887(5) -0.2536(4)
H9 H 1.4720 0.4309 -0.2237
C19 C 0.9637(6) 0.2968(6) -0.4688(3)
H10 H 0.9816 0.2660 -0.5145
C20 C 1.4909(5) 0.5518(6) -0.3039(4)
H11 H 1.5914 0.5353 -0.3080
C21 C 1.0152(7) 0.2398(6) -0.4040(3)
H12 H 1.0678 0.1691 -0.4053
C22 C 0.8851(6) 0.4003(5) -0.4659(3)
H13 H 0.8460 0.4379 -0.5101
loop_
_geom_bond_atom_site_label_1
_geom_bond_atom_site_label_2
_geom_bond_site_symmetry_1
_geom_bond_site_symmetry_2
O1 C2 1_555 1_555
Cl1 C5 1_555 1_555
Cl2 C12 1_555 1_555
C1 C2 1_555 1_555
C2 C9 1_555 1_555
C3 C1 1_555 1_555
C4 C1 1_555 1_555
C5 C7 1_555 1_555
C6 C3 1_555 1_555
H1 C6 1_555 1_555
C7 C4 1_555 1_555
C8 C4 1_555 1_555
H2 C8 1_555 1_555
C9 C13 1_555 1_555
C10 C6 1_555 1_555
H3 C10 1_555 1_555
C11 C3 1_555 1_555
C12 C8 1_555 1_555
N1 C5 1_555 1_555
C13 H4 1_555 1_555
C14 C9 1_555 1_555
H5 C14 1_555 1_555
C15 C11 1_555 1_555
H6 C15 1_555 1_555
C16 C11 1_555 1_555
H7 C16 1_555 1_555
C17 C14 1_555 1_555
H8 C17 1_555 1_555
C18 C13 1_555 1_555
H9 C18 1_555 1_555
C19 H10 1_555 1_555
C20 C17 1_555 1_555
H11 C20 1_555 1_555
C21 C15 1_555 1_555
H12 C21 1_555 1_555
C22 C16 1_555 1_555
H13 C22 1_555 1_555
C7 C10 1_555 1_555
C12 N1 1_555 1_555
C18 C20 1_555 1_555
C19 C21 1_555 1_555
C19 C22 1_555 1_555

#END
