
#######################################################################
#
#                 Cambridge Crystallographic Data Centre
#                                CCDC 
#
#######################################################################
#
# If this CIF has been generated from an entry in the Cambridge 
# Structural Database, then it will include bibliographic, chemical, 
# crystal, experimental, refinement or atomic coordinate data resulting 
# from the CCDC's data processing and validation procedures.
#
#######################################################################

data_OZEFOQ
_chemical_formula_moiety         'C24 H16 N2 O4'
_chemical_name_systematic        
2,6-dibenzylpyrrolo[3,4-f]isoindole-1,3,5,7(2H,6H)-tetrone
_symmetry_cell_setting           monoclinic
_symmetry_space_group_name_H-M   'P 21/n'
_symmetry_Int_Tables_number      14
_space_group_name_Hall           '-P 2yn'
loop_
_symmetry_equiv_pos_site_id
_symmetry_equiv_pos_as_xyz
1 x,y,z
2 1/2-x,1/2+y,1/2-z
3 -x,-y,-z
4 1/2+x,1/2-y,1/2+z
_cell_length_a                   6.1500(5)
_cell_length_b                   4.7475(3)
_cell_length_c                   31.002(2)
_cell_angle_alpha                90
_cell_angle_beta                 90.461(3)
_cell_angle_gamma                90
_cell_volume                     905.14
_exptl_crystal_colour            colorless
_exptl_crystal_description       needle
_cell_formula_units_Z            2
loop_
_atom_site_label
_atom_site_type_symbol
_atom_site_fract_x
_atom_site_fract_y
_atom_site_fract_z
O1 O 0.9145(2) 0.9617(3) 0.09759(4)
O2 O 0.4737(2) 0.2514(3) 0.04921(4)
N1 N 0.6589(2) 0.6176(3) 0.08217(5)
C1 C 0.2783(3) 0.3279(4) 0.15445(6)
H1 H 0.1617 0.3659 0.1350
C2 C 0.2505(4) 0.1311(4) 0.18711(7)
H2 H 0.1157 0.0354 0.1901
C3 C 0.4206(4) 0.0760(4) 0.21524(7)
H3 H 0.4021 -0.0568 0.2378
C4 C 0.6175(4) 0.2130(4) 0.21071(6)
H4 H 0.7346 0.1724 0.2299
C5 C 0.6439(3) 0.4094(4) 0.17812(6)
H5 H 0.7792 0.5036 0.1751
C6 C 0.4739(3) 0.4699(4) 0.14973(6)
C7 C 0.4994(3) 0.6895(4) 0.11523(6)
H6 H 0.3565 0.7201 0.1011
H7 H 0.5432 0.8691 0.1290
C8 C 0.8499(3) 0.7687(3) 0.07548(6)
C9 C 0.9507(3) 0.6455(3) 0.03618(5)
C10 C 0.8168(3) 0.4283(3) 0.02169(5)
C11 C 0.6279(3) 0.4093(3) 0.05118(5)
C12 C 1.1389(3) 0.7249(3) 0.01520(5)
H8 H 1.2303 0.8725 0.0253
O1B O 1.0855(2) 0.0383(3) -0.09759(4)
O2B O 1.5263(2) 0.7486(3) -0.04921(4)
N1B N 1.3411(2) 0.3824(3) -0.08217(5)
C1B C 1.7217(3) 0.6721(4) -0.15445(6)
H1B H 1.8383 0.6341 -0.1350
C2B C 1.7495(4) 0.8689(4) -0.18711(7)
H2B H 1.8843 0.9646 -0.1901
C3B C 1.5794(4) 0.9240(4) -0.21524(7)
H3B H 1.5979 1.0568 -0.2378
C4B C 1.3825(4) 0.7870(4) -0.21071(6)
H4B H 1.2654 0.8276 -0.2299
C5B C 1.3561(3) 0.5906(4) -0.17812(6)
H5B H 1.2208 0.4964 -0.1751
C6B C 1.5261(3) 0.5301(4) -0.14973(6)
C7B C 1.5006(3) 0.3105(4) -0.11523(6)
H6B H 1.6435 0.2799 -0.1011
H7B H 1.4568 0.1309 -0.1290
C8B C 1.1501(3) 0.2313(3) -0.07548(6)
C9B C 1.0493(3) 0.3545(3) -0.03618(5)
C10B C 1.1832(3) 0.5717(3) -0.02169(5)
C11B C 1.3721(3) 0.5907(3) -0.05118(5)
C12B C 0.8611(3) 0.2751(3) -0.01520(5)
H8B H 0.7697 0.1275 -0.0253
loop_
_geom_bond_atom_site_label_1
_geom_bond_atom_site_label_2
_geom_bond_site_symmetry_1
_geom_bond_site_symmetry_2
O1 C8 1_555 1_555
O2 C11 1_555 1_555
N1 C7 1_555 1_555
C1 H1 1_555 1_555
C2 C1 1_555 1_555
H2 C2 1_555 1_555
C3 C2 1_555 1_555
H3 C3 1_555 1_555
C4 C3 1_555 1_555
H4 C4 1_555 1_555
C5 C4 1_555 1_555
H5 C5 1_555 1_555
C6 C1 1_555 1_555
C7 C6 1_555 1_555
H6 C7 1_555 1_555
H7 C7 1_555 1_555
C8 N1 1_555 1_555
C9 C8 1_555 1_555
C10 C9 1_555 1_555
C11 N1 1_555 1_555
C12 C9 1_555 1_555
H8 C12 1_555 1_555
O1B C8B 1_555 1_555
O2B C11B 1_555 1_555
N1B C7B 1_555 1_555
C1B H1B 1_555 1_555
C2B C1B 1_555 1_555
H2B C2B 1_555 1_555
C3B C2B 1_555 1_555
H3B C3B 1_555 1_555
C4B C3B 1_555 1_555
H4B C4B 1_555 1_555
C5B C4B 1_555 1_555
H5B C5B 1_555 1_555
C6B C1B 1_555 1_555
C7B C6B 1_555 1_555
H6B C7B 1_555 1_555
H7B C7B 1_555 1_555
C8B N1B 1_555 1_555
C9B C8B 1_555 1_555
C10B C12 1_555 1_555
C11B N1B 1_555 1_555
C12B C10 1_555 1_555
H8B C12B 1_555 1_555
C5 C6 1_555 1_555
C10 C11 1_555 1_555
C5B C6B 1_555 1_555
C9B C10B 1_555 1_555
C9B C12B 1_555 1_555
C10B C11B 1_555 1_555

#END
