
#######################################################################
#
#                 Cambridge Crystallographic Data Centre
#                                CCDC 
#
#######################################################################
#
# If this CIF has been generated from an entry in the Cambridge 
# Structural Database, then it will include bibliographic, chemical, 
# crystal, experimental, refinement or atomic coordinate data resulting 
# from the CCDC's data processing and validation procedures.
#
#######################################################################

data_OZEHOR
_chemical_formula_moiety         'C29 H32 O2'
_chemical_name_systematic        
6,6-Dimethyl-2,2-diphenyl-3-(tetramethylcyclopropylidene)-3,5,6,7-tetrahydro-1-benzofuran-4(2H)-one
_symmetry_cell_setting           monoclinic
_symmetry_space_group_name_H-M   'P 21/c'
_symmetry_Int_Tables_number      14
_space_group_name_Hall           '-P 2ybc'
loop_
_symmetry_equiv_pos_site_id
_symmetry_equiv_pos_as_xyz
1 x,y,z
2 -x,1/2+y,1/2-z
3 -x,-y,-z
4 x,1/2-y,1/2+z
_cell_length_a                   9.210(4)
_cell_length_b                   13.927(6)
_cell_length_c                   18.349(8)
_cell_angle_alpha                90
_cell_angle_beta                 92.566(9)
_cell_angle_gamma                90
_cell_volume                     2351.22
_exptl_crystal_colour            colorless
_exptl_crystal_description       block
_cell_formula_units_Z            4
loop_
_atom_site_label
_atom_site_type_symbol
_atom_site_fract_x
_atom_site_fract_y
_atom_site_fract_z
O1 O 0.36600(13) 0.04169(9) 0.07005(6)
O2 O 0.08762(15) -0.11192(10) 0.23795(8)
C1 C 0.3840(2) 0.12047(14) 0.32616(10)
C2 C 0.2698(2) 0.04155(13) 0.33956(10)
C3 C 0.3136(2) 0.06463(13) 0.26554(9)
C4 C 0.3474(4) 0.22528(17) 0.33701(14)
H1 H 0.4061 0.2641 0.3067
H2 H 0.3664 0.2424 0.3872
H3 H 0.2465 0.2358 0.3240
C5 C 0.5406(3) 0.0980(2) 0.34707(14)
H4 H 0.5621 0.0332 0.3333
H5 H 0.5567 0.1052 0.3988
H6 H 0.6028 0.1414 0.3223
C6 C 0.1197(3) 0.07089(19) 0.36073(13)
H7 H 0.0922 0.1293 0.3361
H8 H 0.1198 0.0808 0.4125
H9 H 0.0516 0.0212 0.3471
C7 C 0.3177(3) -0.05167(16) 0.37553(13)
H10 H 0.2441 -0.0996 0.3667
H11 H 0.3324 -0.0418 0.4271
H12 H 0.4070 -0.0727 0.3556
C8 C 0.38944(18) 0.10094(12) 0.13740(9)
C9 C 0.30566(18) 0.04608(12) 0.19492(9)
C10 C 0.23363(18) -0.03275(12) 0.15457(9)
C11 C 0.27761(18) -0.03160(13) 0.08553(10)
C12 C 0.2485(2) -0.10499(15) 0.02813(11)
H13 H 0.3367 -0.1414 0.0214
H14 H 0.2227 -0.0729 -0.0175
C13 C 0.1272(2) -0.17395(13) 0.04627(10)
C14 C 0.1339(3) -0.19773(15) 0.12868(12)
H15 H 0.0479 -0.2343 0.1396
H16 H 0.2176 -0.2386 0.1392
C15 C 0.14401(19) -0.11102(13) 0.17958(10)
C16 C 0.1412(4) -0.26804(18) 0.00351(15)
H17 H 0.1319 -0.2549 -0.0478
H18 H 0.0659 -0.3116 0.0167
H19 H 0.2344 -0.2964 0.0150
C17 C -0.0201(3) -0.1284(2) 0.02642(16)
H20 H -0.0308 -0.0705 0.0541
H21 H -0.0962 -0.1725 0.0374
H22 H -0.0260 -0.1135 -0.0247
C18 C 0.55256(18) 0.09762(12) 0.15588(9)
C19 C 0.6345(2) 0.17856(13) 0.17129(11)
H23 H 0.5909 0.2388 0.1693
C20 C 0.7825(2) 0.17060(17) 0.18976(12)
H24 H 0.8374 0.2255 0.1997
C21 C 0.8473(2) 0.08191(18) 0.19338(13)
H25 H 0.9461 0.0766 0.2055
C22 C 0.7653(2) 0.00078(17) 0.17902(14)
H26 H 0.8087 -0.0595 0.1819
C23 C 0.6200(2) 0.00868(14) 0.16044(12)
H27 H 0.5657 -0.0465 0.1507
C24 C 0.32958(19) 0.19975(13) 0.11804(9)
C25 C 0.2214(2) 0.24291(15) 0.15599(11)
H28 H 0.1820 0.2107 0.1949
C26 C 0.1703(3) 0.33359(17) 0.13714(12)
H29 H 0.0981 0.3618 0.1638
C27 C 0.2255(3) 0.38212(16) 0.07945(13)
H30 H 0.1922 0.4433 0.0672
C28 C 0.3310(2) 0.33878(16) 0.03993(12)
H31 H 0.3675 0.3705 0.0001
C29 C 0.3828(2) 0.24928(15) 0.05876(11)
H32 H 0.4544 0.2213 0.0316
loop_
_geom_bond_atom_site_label_1
_geom_bond_atom_site_label_2
_geom_bond_site_symmetry_1
_geom_bond_site_symmetry_2
O1 C8 1_555 1_555
O2 C15 1_555 1_555
C1 C2 1_555 1_555
C2 C3 1_555 1_555
C3 C1 1_555 1_555
C4 C1 1_555 1_555
H1 C4 1_555 1_555
H2 C4 1_555 1_555
H3 C4 1_555 1_555
C5 C1 1_555 1_555
H4 C5 1_555 1_555
H5 C5 1_555 1_555
H6 C5 1_555 1_555
C6 C2 1_555 1_555
H7 C6 1_555 1_555
H8 C6 1_555 1_555
H9 C6 1_555 1_555
C7 C2 1_555 1_555
H10 C7 1_555 1_555
H11 C7 1_555 1_555
H12 C7 1_555 1_555
C8 C9 1_555 1_555
C9 C3 1_555 1_555
C10 C9 1_555 1_555
C11 O1 1_555 1_555
C12 C11 1_555 1_555
H13 C12 1_555 1_555
H14 C12 1_555 1_555
C13 C12 1_555 1_555
C14 C13 1_555 1_555
H15 C14 1_555 1_555
H16 C14 1_555 1_555
C15 C10 1_555 1_555
C16 C13 1_555 1_555
H17 C16 1_555 1_555
H18 C16 1_555 1_555
H19 C16 1_555 1_555
C17 C13 1_555 1_555
H20 C17 1_555 1_555
H21 C17 1_555 1_555
H22 C17 1_555 1_555
C18 C8 1_555 1_555
C19 C18 1_555 1_555
H23 C19 1_555 1_555
C20 C19 1_555 1_555
H24 C20 1_555 1_555
C21 C20 1_555 1_555
H25 C21 1_555 1_555
C22 C21 1_555 1_555
H26 C22 1_555 1_555
C23 C18 1_555 1_555
H27 C23 1_555 1_555
C24 C8 1_555 1_555
C25 C24 1_555 1_555
H28 C25 1_555 1_555
C26 C25 1_555 1_555
H29 C26 1_555 1_555
C27 C26 1_555 1_555
H30 C27 1_555 1_555
C28 C27 1_555 1_555
H31 C28 1_555 1_555
C29 C24 1_555 1_555
H32 C29 1_555 1_555
C10 C11 1_555 1_555
C14 C15 1_555 1_555
C22 C23 1_555 1_555
C28 C29 1_555 1_555

#END
