
#######################################################################
#
#                 Cambridge Crystallographic Data Centre
#                                CCDC 
#
#######################################################################
#
# If this CIF has been generated from an entry in the Cambridge 
# Structural Database, then it will include bibliographic, chemical, 
# crystal, experimental, refinement or atomic coordinate data resulting 
# from the CCDC's data processing and validation procedures.
#
#######################################################################

data_OZEHUY
_chemical_formula_moiety         'C35 H35 N5 O4 S1,C2 H3 N1'
_chemical_name_systematic        
"methyl 2-(((3',6'-bis(ethylamino)-2',7'-dimethyl-3-oxospiro[isoindole-1,9'-xanthen]-2(3H)-yl)carbamothioyl)amino)benzoate acetonitrile solvate"
_symmetry_cell_setting           triclinic
_symmetry_space_group_name_H-M   'P -1'
_symmetry_Int_Tables_number      2
_space_group_name_Hall           '-P 1'
loop_
_symmetry_equiv_pos_site_id
_symmetry_equiv_pos_as_xyz
1 x,y,z
2 -x,-y,-z
_cell_length_a                   9.9972(15)
_cell_length_b                   12.3258(19)
_cell_length_c                   15.649(2)
_cell_angle_alpha                72.521(3)
_cell_angle_beta                 79.794(3)
_cell_angle_gamma                71.471(3)
_cell_volume                     1736.81
_exptl_crystal_colour            colorless
_exptl_crystal_description       block
_cell_formula_units_Z            2
loop_
_atom_site_label
_atom_site_type_symbol
_atom_site_fract_x
_atom_site_fract_y
_atom_site_fract_z
S1 S 0.69046(11) 0.03547(8) 1.01542(7)
O1 O 0.5610(3) 0.6026(2) 0.90909(17)
O2 O 0.5173(3) 0.4842(2) 0.84204(17)
O3 O 0.2915(3) 0.3237(2) 0.93942(16)
O4 O 0.6187(3) 0.0691(2) 0.63673(16)
N1 N 0.6513(3) 0.2535(2) 0.90141(17)
H1 H 0.6034 0.3040 0.8586
N2 N 0.5152(3) 0.1416(2) 0.88994(17)
H2 H 0.4985 0.0744 0.9003
N3 N 0.4366(3) 0.2396(2) 0.83111(17)
N4 N 0.9983(3) 0.2438(3) 0.5683(2)
H3 H 1.0328 0.2976 0.5723
N5 N 0.2643(3) -0.1273(3) 0.6818(2)
H4 H 0.1975 -0.1501 0.7183
C1 C 0.4431(5) 0.6962(3) 0.8683(3)
H5 H 0.4315 0.7660 0.8874
H6 H 0.3583 0.6713 0.8863
H7 H 0.4612 0.7136 0.8040
C2 C 0.5904(4) 0.5000(3) 0.8887(2)
C3 C 0.7198(4) 0.4118(3) 0.9259(2)
C4 C 0.8152(4) 0.4495(3) 0.9558(3)
H8 H 0.7939 0.5287 0.9558
C5 C 0.9409(5) 0.3719(4) 0.9855(3)
H9 H 1.0034 0.3985 1.0060
C6 C 0.9743(4) 0.2547(4) 0.9851(3)
H10 H 1.0606 0.2027 1.0035
C7 C 0.8799(4) 0.2148(3) 0.9572(2)
H11 H 0.9022 0.1354 0.9575
C8 C 0.7515(4) 0.2922(3) 0.9288(2)
C9 C 0.6194(4) 0.1496(3) 0.9321(2)
C10 C 0.3232(4) 0.3223(3) 0.8608(2)
C11 C 0.2596(4) 0.4032(3) 0.7791(2)
C12 C 0.1508(4) 0.5073(3) 0.7688(3)
H12 H 0.1047 0.5354 0.8182
C13 C 0.1125(5) 0.5681(4) 0.6838(3)
H13 H 0.0393 0.6383 0.6754
C14 C 0.1813(5) 0.5265(3) 0.6105(3)
H14 H 0.1538 0.5692 0.5533
C15 C 0.2900(4) 0.4228(3) 0.6206(2)
H15 H 0.3366 0.3955 0.5709
C16 C 0.3280(4) 0.3605(3) 0.7058(2)
C17 C 0.4418(4) 0.2439(3) 0.7338(2)
C18 C 0.5865(4) 0.2446(3) 0.6867(2)
C19 C 0.6476(4) 0.3325(3) 0.6859(2)
H16 H 0.5937 0.3938 0.7113
C20 C 0.7834(4) 0.3331(3) 0.6496(2)
C21 C 0.8638(4) 0.2428(3) 0.6085(2)
C22 C 0.8028(4) 0.1566(3) 0.6060(2)
H17 H 0.8545 0.0971 0.5783
C23 C 0.6661(4) 0.1585(3) 0.6444(2)
C24 C 0.4844(4) 0.0647(3) 0.6743(2)
C25 C 0.4410(4) -0.0250(3) 0.6611(2)
H18 H 0.5012 -0.0753 0.6278
C26 C 0.3090(4) -0.0405(3) 0.6969(2)
C27 C 0.2207(4) 0.0344(3) 0.7498(2)
C28 C 0.2667(4) 0.1227(3) 0.7596(2)
H19 H 0.2069 0.1734 0.7927
C29 C 0.3990(4) 0.1419(3) 0.7228(2)
C30 C 0.8457(5) 0.4278(4) 0.6543(3)
H20 H 0.7768 0.4821 0.6841
H21 H 0.8721 0.4698 0.5945
H22 H 0.9280 0.3914 0.6873
C31 C 1.0832(4) 0.1591(3) 0.5200(3)
H23 H 1.0302 0.1583 0.4740
H24 H 1.1059 0.0804 0.5611
C32 C 1.2187(4) 0.1904(4) 0.4767(3)
H25 H 1.2745 0.1332 0.4448
H26 H 1.2715 0.1902 0.5224
H27 H 1.1961 0.2678 0.4355
C33 C 0.0784(4) 0.0190(3) 0.7925(3)
H28 H 0.0335 0.0774 0.8256
H29 H 0.0906 -0.0589 0.8327
H30 H 0.0202 0.0287 0.7466
C34 C 0.3224(5) -0.1830(4) 0.6084(3)
H31 H 0.2448 -0.1954 0.5866
H32 H 0.3602 -0.1276 0.5597
C35 C 0.4315(6) -0.2944(4) 0.6272(3)
H33 H 0.4610 -0.3218 0.5736
H34 H 0.3952 -0.3519 0.6736
H35 H 0.5110 -0.2838 0.6469
N6 N 0.9414(6) 0.8277(5) 0.7338(4)
C36 C 0.7168(5) 0.8551(4) 0.8432(3)
H36 H 0.7052 0.9240 0.8634
H37 H 0.7253 0.7869 0.8939
H38 H 0.6360 0.8661 0.8130
C37 C 0.8425(7) 0.8375(5) 0.7821(4)
loop_
_geom_bond_atom_site_label_1
_geom_bond_atom_site_label_2
_geom_bond_site_symmetry_1
_geom_bond_site_symmetry_2
S1 C9 1_555 1_555
O1 C1 1_555 1_555
O2 C2 1_555 1_555
O3 C10 1_555 1_555
O4 C23 1_555 1_555
N1 H1 1_555 1_555
N2 H2 1_555 1_555
N3 N2 1_555 1_555
N4 H3 1_555 1_555
N5 H4 1_555 1_555
C1 H5 1_555 1_555
H6 C1 1_555 1_555
H7 C1 1_555 1_555
C2 O1 1_555 1_555
C3 C2 1_555 1_555
C4 C3 1_555 1_555
H8 C4 1_555 1_555
C5 C4 1_555 1_555
H9 C5 1_555 1_555
C6 C5 1_555 1_555
H10 C6 1_555 1_555
C7 C6 1_555 1_555
H11 C7 1_555 1_555
C8 N1 1_555 1_555
C9 N1 1_555 1_555
C10 N3 1_555 1_555
C11 C10 1_555 1_555
C12 C11 1_555 1_555
H12 C12 1_555 1_555
C13 C12 1_555 1_555
H13 C13 1_555 1_555
C14 C13 1_555 1_555
H14 C14 1_555 1_555
C15 C14 1_555 1_555
H15 C15 1_555 1_555
C16 C11 1_555 1_555
C17 N3 1_555 1_555
C18 C17 1_555 1_555
C19 C18 1_555 1_555
H16 C19 1_555 1_555
C20 C19 1_555 1_555
C21 N4 1_555 1_555
C22 C21 1_555 1_555
H17 C22 1_555 1_555
C23 C18 1_555 1_555
C24 O4 1_555 1_555
C25 C24 1_555 1_555
H18 C25 1_555 1_555
C26 N5 1_555 1_555
C27 C26 1_555 1_555
C28 C27 1_555 1_555
H19 C28 1_555 1_555
C29 C17 1_555 1_555
C30 C20 1_555 1_555
H20 C30 1_555 1_555
H21 C30 1_555 1_555
H22 C30 1_555 1_555
C31 N4 1_555 1_555
H23 C31 1_555 1_555
H24 C31 1_555 1_555
C32 C31 1_555 1_555
H25 C32 1_555 1_555
H26 C32 1_555 1_555
H27 C32 1_555 1_555
C33 C27 1_555 1_555
H28 C33 1_555 1_555
H29 C33 1_555 1_555
H30 C33 1_555 1_555
C34 N5 1_555 1_555
H31 C34 1_555 1_555
H32 C34 1_555 1_555
C35 C34 1_555 1_555
H33 C35 1_555 1_555
H34 C35 1_555 1_555
H35 C35 1_555 1_555
N6 C37 1_555 1_555
C36 H36 1_555 1_555
H37 C36 1_555 1_555
H38 C36 1_555 1_555
C37 C36 1_555 1_555
N2 C9 1_555 1_555
C3 C8 1_555 1_555
C7 C8 1_555 1_555
C15 C16 1_555 1_555
C16 C17 1_555 1_555
C20 C21 1_555 1_555
C22 C23 1_555 1_555
C24 C29 1_555 1_555
C25 C26 1_555 1_555
C28 C29 1_555 1_555

#END
