
#######################################################################
#
#                 Cambridge Crystallographic Data Centre
#                                CCDC 
#
#######################################################################
#
# If this CIF has been generated from an entry in the Cambridge 
# Structural Database, then it will include bibliographic, chemical, 
# crystal, experimental, refinement or atomic coordinate data resulting 
# from the CCDC's data processing and validation procedures.
#
#######################################################################

data_OZISIB
_chemical_formula_moiety         'C19 H24 F1 N1 O4 S1'
_chemical_name_systematic        
1-(10,10-dimethyl-3,3-dioxido-3-thia-4-azatricyclo[5.2.1.0^1,5^]dec-4-yl)-3-(4-fluorophenyl)-2-hydroxypropan-1-one
_symmetry_cell_setting           monoclinic
_symmetry_space_group_name_H-M   'P 21'
_symmetry_Int_Tables_number      4
_space_group_name_Hall           'P 2yb'
loop_
_symmetry_equiv_pos_site_id
_symmetry_equiv_pos_as_xyz
1 x,y,z
2 -x,1/2+y,-z
_cell_length_a                   10.695(10)
_cell_length_b                   6.585(6)
_cell_length_c                   14.025(14)
_cell_angle_alpha                90
_cell_angle_beta                 111.141(10)
_cell_angle_gamma                90
_cell_volume                     921.254
_cell_formula_units_Z            2
loop_
_atom_site_label
_atom_site_type_symbol
_atom_site_fract_x
_atom_site_fract_y
_atom_site_fract_z
C1 C 0.5240(2) -0.2385(3) 0.34441(13)
H1 H 0.5547 -0.3758 0.3406
H2 H 0.4349 -0.2451 0.3473
C2 C 0.52147(16) -0.1172(3) 0.25174(11)
C3 C 0.5227(2) -0.2355(3) 0.15725(15)
H3 H 0.4543 -0.3402 0.1374
H4 H 0.6095 -0.2969 0.1693
C4 C 0.4918(2) -0.0641(3) 0.07558(15)
H5 H 0.5675 -0.0418 0.0543
H6 H 0.4136 -0.0976 0.0161
C5 C 0.4654(2) 0.1236(3) 0.13054(13)
H7 H 0.4107 0.2282 0.0846
C6 C 0.40163(18) 0.0315(3) 0.20342(13)
C7 C 0.2687(2) -0.0784(4) 0.14955(17)
H8 H 0.2444 -0.1536 0.1989
H9 H 0.2783 -0.1699 0.0993
H10 H 0.2001 0.0194 0.1166
C8 C 0.3774(2) 0.1858(4) 0.27627(16)
H11 H 0.3196 0.2916 0.2374
H12 H 0.4614 0.2434 0.3189
H13 H 0.3360 0.1193 0.3182
C9 C 0.5997(2) 0.2004(3) 0.20556(14)
H14 H 0.5886 0.3239 0.2394
H15 H 0.6627 0.2252 0.1715
C10 C 0.64546(17) 0.0225(3) 0.28147(13)
H16 H 0.7194 -0.0494 0.2706
C11 C 0.78815(18) 0.2035(3) 0.43814(13)
C12 C 0.83355(17) 0.2302(3) 0.55449(13)
H17 H 0.8343 0.0966 0.5855
C13 C 0.97458(18) 0.3168(4) 0.59639(15)
H18 H 1.0349 0.2259 0.5795
H19 H 0.9759 0.4467 0.5642
C14 C 1.02325(17) 0.3448(3) 0.71058(15)
C15 C 1.0178(2) 0.5336(4) 0.75232(18)
H20 H 0.9842 0.6438 0.7092
C16 C 1.0618(2) 0.5615(5) 0.8577(2)
H21 H 1.0584 0.6885 0.8857
C17 C 1.1097(2) 0.3978(6) 0.91800(17)
C18 C 1.1180(3) 0.2117(5) 0.8805(2)
H22 H 1.1525 0.1026 0.9242
C19 C 1.0741(3) 0.1867(4) 0.7757(2)
H23 H 1.0795 0.0591 0.7490
F1 F 1.1523(2) 0.4237(4) 1.02179(11)
N1 N 0.68331(14) 0.0712(2) 0.39129(10)
O1 O 0.74817(15) -0.2416(2) 0.50477(12)
O2 O 0.57022(15) -0.0262(2) 0.51602(11)
O3 O 0.83656(15) 0.2995(3) 0.38668(10)
O4 O 0.74088(12) 0.3550(2) 0.57709(10)
H24 H 0.7490 0.4724 0.5607
S1 S 0.63543(4) -0.11386(6) 0.45468(3)
loop_
_geom_bond_atom_site_label_1
_geom_bond_atom_site_label_2
_geom_bond_site_symmetry_1
_geom_bond_site_symmetry_2
C1 H1 1_555 1_555
H2 C1 1_555 1_555
C2 C1 1_555 1_555
C3 C2 1_555 1_555
H3 C3 1_555 1_555
H4 C3 1_555 1_555
C4 C3 1_555 1_555
H5 C4 1_555 1_555
H6 C4 1_555 1_555
C5 C4 1_555 1_555
H7 C5 1_555 1_555
C6 C2 1_555 1_555
C7 C6 1_555 1_555
H8 C7 1_555 1_555
H9 C7 1_555 1_555
H10 C7 1_555 1_555
C8 C6 1_555 1_555
H11 C8 1_555 1_555
H12 C8 1_555 1_555
H13 C8 1_555 1_555
C9 C5 1_555 1_555
H14 C9 1_555 1_555
H15 C9 1_555 1_555
C10 C2 1_555 1_555
H16 C10 1_555 1_555
C11 C12 1_555 1_555
C12 H17 1_555 1_555
C13 C12 1_555 1_555
H18 C13 1_555 1_555
H19 C13 1_555 1_555
C14 C13 1_555 1_555
C15 C14 1_555 1_555
H20 C15 1_555 1_555
C16 C15 1_555 1_555
H21 C16 1_555 1_555
C17 C16 1_555 1_555
C18 C17 1_555 1_555
H22 C18 1_555 1_555
C19 C14 1_555 1_555
H23 C19 1_555 1_555
F1 C17 1_555 1_555
N1 C10 1_555 1_555
O1 S1 1_555 1_555
O2 S1 1_555 1_555
O3 C11 1_555 1_555
O4 C12 1_555 1_555
H24 O4 1_555 1_555
S1 C1 1_555 1_555
C5 C6 1_555 1_555
C9 C10 1_555 1_555
C11 N1 1_555 1_555
C18 C19 1_555 1_555
N1 S1 1_555 1_555

#END
