
#######################################################################
#
#                 Cambridge Crystallographic Data Centre
#                                CCDC 
#
#######################################################################
#
# If this CIF has been generated from an entry in the Cambridge 
# Structural Database, then it will include bibliographic, chemical, 
# crystal, experimental, refinement or atomic coordinate data resulting 
# from the CCDC's data processing and validation procedures.
#
#######################################################################

data_OZISAT
_chemical_formula_moiety         'C20 H27 N1 O5 S1'
_chemical_name_systematic        
1-(10,10-dimethyl-3,3-dioxido-3-thia-4-azatricyclo[5.2.1.0^1,5^]dec-4-yl)-2-hydroxy-3-(3-methoxyphenyl)propan-1-one
_symmetry_cell_setting           monoclinic
_symmetry_space_group_name_H-M   'P 21'
_symmetry_Int_Tables_number      4
_space_group_name_Hall           'P 2yb'
loop_
_symmetry_equiv_pos_site_id
_symmetry_equiv_pos_as_xyz
1 x,y,z
2 -x,1/2+y,-z
_cell_length_a                   11.5968(12)
_cell_length_b                   8.2171(9)
_cell_length_c                   21.456(2)
_cell_angle_alpha                90
_cell_angle_beta                 104.481(2)
_cell_angle_gamma                90
_cell_volume                     1979.63
_exptl_crystal_colour            colorless
_exptl_crystal_description       block
_cell_formula_units_Z            4
loop_
_atom_site_label
_atom_site_type_symbol
_atom_site_fract_x
_atom_site_fract_y
_atom_site_fract_z
S1 S 0.13532(7) 0.28866(10) 0.57129(3)
O1 O 0.1960(2) 0.2654(4) 0.52178(10)
O2 O 0.0717(2) 0.1528(3) 0.58661(12)
O3 O 0.4136(2) 0.3484(3) 0.70798(12)
O4 O 0.3954(3) 0.0117(3) 0.70930(12)
H1 H 0.4421 0.0682 0.7355
O5 O 0.2228(2) -0.2913(4) 0.44663(17)
N1 N 0.2337(2) 0.3574(3) 0.63840(11)
C1 C 0.0461(3) 0.4682(4) 0.55809(14)
H2 H 0.0575 0.5267 0.5208
H3 H -0.0375 0.4404 0.5507
C2 C 0.0855(3) 0.5716(4) 0.61803(13)
C3 C 0.0820(3) 0.7561(4) 0.60915(16)
H4 H 0.0057 0.7914 0.5825
H5 H 0.1448 0.7929 0.5900
C4 C 0.1016(4) 0.8187(4) 0.67920(16)
H6 H 0.1750 0.8804 0.6923
H7 H 0.0357 0.8866 0.6837
C5 C 0.1082(3) 0.6632(4) 0.71831(14)
H8 H 0.0911 0.6785 0.7604
C6 C 0.2280(3) 0.5815(4) 0.72135(14)
H9 H 0.2396 0.4870 0.7493
H10 H 0.2935 0.6567 0.7364
C7 C 0.2168(3) 0.5320(4) 0.65075(13)
H11 H 0.2698 0.5987 0.6322
C8 C 0.0201(3) 0.5494(4) 0.67280(14)
C9 C -0.1097(3) 0.6116(6) 0.65280(19)
H12 H -0.1551 0.5445 0.6188
H13 H -0.1106 0.7220 0.6381
H14 H -0.1439 0.6068 0.6891
C10 C 0.0162(4) 0.3781(5) 0.69997(18)
H15 H 0.0955 0.3346 0.7126
H16 H -0.0324 0.3095 0.6676
H17 H -0.0168 0.3827 0.7367
C11 C 0.3376(3) 0.2778(4) 0.66826(14)
C12 C 0.3524(3) 0.1005(4) 0.65217(15)
H18 H 0.2739 0.0572 0.6303
C13 C 0.4341(3) 0.0858(5) 0.60625(18)
H19 H 0.4115 0.1667 0.5725
H20 H 0.5156 0.1074 0.6297
C14 C 0.4266(3) -0.0809(4) 0.57659(17)
C15 C 0.5087(3) -0.2018(5) 0.60033(17)
H21 H 0.5723 -0.1806 0.6355
C16 C 0.4966(4) -0.3531(5) 0.57225(19)
H22 H 0.5533 -0.4324 0.5886
C17 C 0.4032(3) -0.3909(5) 0.52048(18)
H23 H 0.3957 -0.4941 0.5021
C18 C 0.3207(3) -0.2696(5) 0.49683(18)
C19 C 0.3334(3) -0.1171(5) 0.52455(19)
H24 H 0.2779 -0.0367 0.5077
C20 C 0.2145(4) -0.4329(6) 0.4092(2)
H25 H 0.2869 -0.4473 0.3958
H26 H 0.1488 -0.4231 0.3719
H27 H 0.2021 -0.5252 0.4342
S2 S 0.83939(6) 0.20960(9) 0.95302(3)
O6 O 0.83241(19) 0.3443(3) 0.99322(11)
O7 O 0.90296(18) 0.2347(3) 0.90486(11)
O8 O 0.5445(2) 0.1318(3) 0.83235(11)
O9 O 0.5299(2) 0.4682(3) 0.84079(12)
H28 H 0.4825 0.4220 0.8113
O10 O 1.0251(2) 0.7935(3) 0.85730(11)
N2 N 0.70118(19) 0.1392(3) 0.91820(11)
C21 C 0.8900(2) 0.0295(4) 0.99816(15)
H29 H 0.9473 -0.0275 0.9801
H30 H 0.9276 0.0566 1.0426
C22 C 0.7808(2) -0.0760(3) 0.99431(13)
C23 C 0.7959(3) -0.2611(4) 0.99156(15)
H31 H 0.8621 -0.2986 1.0257
H32 H 0.8082 -0.2948 0.9504
C24 C 0.6750(3) -0.3250(4) 1.00093(16)
H33 H 0.6306 -0.3821 0.9629
H34 H 0.6871 -0.3973 1.0377
C25 C 0.6104(2) -0.1687(4) 1.01224(14)
H35 H 0.5478 -0.1862 1.0349
C26 C 0.5677(2) -0.0810(4) 0.94769(15)
H36 H 0.5213 0.0148 0.9517
H37 H 0.5205 -0.1524 0.9151
C27 C 0.6866(2) -0.0345(3) 0.93174(14)
H38 H 0.6990 -0.1016 0.8962
C28 C 0.7130(2) -0.0590(4) 1.04871(14)
C29 C 0.6742(3) 0.1126(4) 1.06192(16)
H39 H 0.6206 0.1068 1.0894
H40 H 0.6348 0.1635 1.0220
H41 H 0.7430 0.1754 1.0826
C30 C 0.7824(3) -0.1279(5) 1.11353(15)
H42 H 0.8462 -0.0552 1.1327
H43 H 0.8145 -0.2324 1.1070
H44 H 0.7300 -0.1393 1.1415
C31 C 0.6250(2) 0.2112(4) 0.86542(13)
C32 C 0.6415(3) 0.3896(4) 0.85247(14)
H45 H 0.6939 0.4375 0.8912
C33 C 0.7002(3) 0.4123(4) 0.79635(14)
H46 H 0.7659 0.3364 0.8009
H47 H 0.6427 0.3890 0.7561
C34 C 0.7456(3) 0.5834(4) 0.79494(14)
C35 C 0.6726(3) 0.7093(5) 0.76532(15)
H48 H 0.5930 0.6888 0.7454
C36 C 0.7172(3) 0.8641(5) 0.76526(17)
H49 H 0.6671 0.9467 0.7447
C37 C 0.8349(3) 0.9008(4) 0.79494(16)
H50 H 0.8641 1.0060 0.7943
C38 C 0.9072(3) 0.7760(4) 0.82548(14)
C39 C 0.8632(3) 0.6186(4) 0.82530(14)
H51 H 0.9132 0.5359 0.8458
C40 C 1.0804(3) 0.9457(5) 0.8524(2)
H52 H 1.0730 0.9708 0.8079
H53 H 1.1631 0.9399 0.8746
H54 H 1.0422 1.0291 0.8714
loop_
_geom_bond_atom_site_label_1
_geom_bond_atom_site_label_2
_geom_bond_site_symmetry_1
_geom_bond_site_symmetry_2
S1 O1 1_555 1_555
O2 S1 1_555 1_555
O3 C11 1_555 1_555
O4 H1 1_555 1_555
O5 C18 1_555 1_555
N1 S1 1_555 1_555
C1 S1 1_555 1_555
H2 C1 1_555 1_555
H3 C1 1_555 1_555
C2 C1 1_555 1_555
C3 C2 1_555 1_555
H4 C3 1_555 1_555
H5 C3 1_555 1_555
C4 C3 1_555 1_555
H6 C4 1_555 1_555
H7 C4 1_555 1_555
C5 C4 1_555 1_555
H8 C5 1_555 1_555
C6 C5 1_555 1_555
H9 C6 1_555 1_555
H10 C6 1_555 1_555
C7 N1 1_555 1_555
H11 C7 1_555 1_555
C8 C2 1_555 1_555
C9 C8 1_555 1_555
H12 C9 1_555 1_555
H13 C9 1_555 1_555
H14 C9 1_555 1_555
C10 C8 1_555 1_555
H15 C10 1_555 1_555
H16 C10 1_555 1_555
H17 C10 1_555 1_555
C11 N1 1_555 1_555
C12 O4 1_555 1_555
H18 C12 1_555 1_555
C13 C12 1_555 1_555
H19 C13 1_555 1_555
H20 C13 1_555 1_555
C14 C13 1_555 1_555
C15 C14 1_555 1_555
H21 C15 1_555 1_555
C16 C15 1_555 1_555
H22 C16 1_555 1_555
C17 C16 1_555 1_555
H23 C17 1_555 1_555
C18 C17 1_555 1_555
C19 C14 1_555 1_555
H24 C19 1_555 1_555
C20 O5 1_555 1_555
H25 C20 1_555 1_555
H26 C20 1_555 1_555
H27 C20 1_555 1_555
S2 O6 1_555 1_555
O7 S2 1_555 1_555
O8 C31 1_555 1_555
O9 H28 1_555 1_555
O10 C38 1_555 1_555
N2 S2 1_555 1_555
C21 S2 1_555 1_555
H29 C21 1_555 1_555
H30 C21 1_555 1_555
C22 C21 1_555 1_555
C23 C22 1_555 1_555
H31 C23 1_555 1_555
H32 C23 1_555 1_555
C24 C23 1_555 1_555
H33 C24 1_555 1_555
H34 C24 1_555 1_555
C25 C24 1_555 1_555
H35 C25 1_555 1_555
C26 C25 1_555 1_555
H36 C26 1_555 1_555
H37 C26 1_555 1_555
C27 N2 1_555 1_555
H38 C27 1_555 1_555
C28 C22 1_555 1_555
C29 C28 1_555 1_555
H39 C29 1_555 1_555
H40 C29 1_555 1_555
H41 C29 1_555 1_555
C30 C28 1_555 1_555
H42 C30 1_555 1_555
H43 C30 1_555 1_555
H44 C30 1_555 1_555
C31 N2 1_555 1_555
C32 O9 1_555 1_555
H45 C32 1_555 1_555
C33 C32 1_555 1_555
H46 C33 1_555 1_555
H47 C33 1_555 1_555
C34 C33 1_555 1_555
C35 C34 1_555 1_555
H48 C35 1_555 1_555
C36 C35 1_555 1_555
H49 C36 1_555 1_555
C37 C36 1_555 1_555
H50 C37 1_555 1_555
C38 C37 1_555 1_555
C39 C34 1_555 1_555
H51 C39 1_555 1_555
C40 O10 1_555 1_555
H52 C40 1_555 1_555
H53 C40 1_555 1_555
H54 C40 1_555 1_555
C2 C7 1_555 1_555
C5 C8 1_555 1_555
C6 C7 1_555 1_555
C11 C12 1_555 1_555
C18 C19 1_555 1_555
C22 C27 1_555 1_555
C25 C28 1_555 1_555
C26 C27 1_555 1_555
C31 C32 1_555 1_555
C38 C39 1_555 1_555

#END
