
#######################################################################
#
#                 Cambridge Crystallographic Data Centre
#                                CCDC 
#
#######################################################################
#
# If this CIF has been generated from an entry in the Cambridge 
# Structural Database, then it will include bibliographic, chemical, 
# crystal, experimental, refinement or atomic coordinate data resulting 
# from the CCDC's data processing and validation procedures.
#
#######################################################################

data_OZOTOO
_chemical_formula_moiety         'C21 H23 Br1 F3 N1 O6'
_chemical_name_systematic        
'diethyl 4-(4-bromophenyl)-3-(3-methoxy-3-oxoprop-1-en-1-yl)-5-(trifluoromethyl)pyrrolidine-2,2-dicarboxylate'
_symmetry_cell_setting           orthorhombic
_symmetry_space_group_name_H-M   'P 21 21 21'
_symmetry_Int_Tables_number      19
_space_group_name_Hall           'P 2ac 2ab'
loop_
_symmetry_equiv_pos_site_id
_symmetry_equiv_pos_as_xyz
1 x,y,z
2 1/2-x,-y,1/2+z
3 -x,1/2+y,1/2-z
4 1/2+x,1/2-y,-z
_cell_length_a                   8.6647(6)
_cell_length_b                   15.3884(11)
_cell_length_c                   17.0772(12)
_cell_angle_alpha                90
_cell_angle_beta                 90
_cell_angle_gamma                90
_cell_volume                     2277
_exptl_crystal_colour            colorless
_exptl_crystal_description       block
_cell_formula_units_Z            4
loop_
_atom_site_label
_atom_site_type_symbol
_atom_site_fract_x
_atom_site_fract_y
_atom_site_fract_z
Br1 Br 0.51070(4) 0.33206(3) 0.63767(2)
F1 F 0.3812(2) 0.11404(10) 0.28621(10)
F2 F 0.22079(19) 0.14929(10) 0.19445(10)
F3 F 0.46243(19) 0.13346(10) 0.16829(9)
O1 O 0.7318(2) 0.24114(12) 0.11065(12)
O2 O 0.5409(2) 0.27841(13) 0.02741(11)
O3 O 0.6520(2) 0.45378(12) 0.07807(12)
O4 O 0.4052(2) 0.47638(13) 0.11361(12)
O5 O 1.1163(2) 0.39281(13) 0.25207(14)
O6 O 1.0541(2) 0.53101(12) 0.28156(12)
N1 N 0.3801(3) 0.31031(14) 0.16912(13)
H1 H 0.2962 0.3195 0.1413
C1 C 0.5201(3) 0.3127(2) 0.52785(16)
C2 C 0.4516(4) 0.3726(2) 0.47854(17)
H2 H 0.3982 0.4215 0.4991
C3 C 0.4625(4) 0.35975(19) 0.39803(17)
H3 H 0.4154 0.4003 0.3636
C4 C 0.5410(3) 0.28873(17) 0.36697(16)
C5 C 0.6076(3) 0.2300(2) 0.41831(18)
H4 H 0.6611 0.1809 0.3982
C6 C 0.5971(4) 0.2420(2) 0.49930(19)
H5 H 0.6431 0.2015 0.5341
C7 C 0.5497(3) 0.27473(17) 0.27898(15)
H6 H 0.6169 0.2233 0.2681
C8 C 0.3885(3) 0.25929(16) 0.24105(15)
H7 H 0.3063 0.2794 0.2780
C9 C 0.5334(3) 0.34348(16) 0.15108(14)
C10 C 0.6126(3) 0.35396(16) 0.23294(15)
H8 H 0.5675 0.4071 0.2577
C11 C 0.3631(3) 0.16441(18) 0.22220(15)
C12 C 0.6169(3) 0.28116(17) 0.09513(16)
C13 C 0.6064(4) 0.22325(19) -0.03438(17)
H9 H 0.7204 0.2261 -0.0322
H10 H 0.5731 0.2452 -0.0862
C14 C 0.5551(4) 0.1306(2) -0.02500(19)
H11 H 0.5953 0.1074 0.0244
H12 H 0.5945 0.0959 -0.0688
H13 H 0.4421 0.1282 -0.0245
C15 C 0.5191(3) 0.43252(17) 0.11185(14)
C16 C 0.6595(4) 0.53594(19) 0.03677(18)
H14 H 0.7677 0.5565 0.0353
H15 H 0.5972 0.5798 0.0651
C17 C 0.6002(7) 0.5268(3) -0.0448(2)
H16 H 0.6631 0.4842 -0.0732
H17 H 0.6059 0.5830 -0.0715
H18 H 0.4927 0.5070 -0.0434
C18 C 0.7849(3) 0.36366(17) 0.23643(15)
H19 H 0.8481 0.3147 0.2254
C19 C 0.8509(3) 0.43850(17) 0.25444(16)
H20 H 0.7870 0.4876 0.2635
C20 C 1.0200(3) 0.44892(16) 0.26111(15)
C21 C 1.2155(3) 0.55076(19) 0.2921(2)
H21 H 1.2557 0.5179 0.3369
H22 H 1.2278 0.6131 0.3020
H23 H 1.2727 0.5347 0.2448
loop_
_geom_bond_atom_site_label_1
_geom_bond_atom_site_label_2
_geom_bond_site_symmetry_1
_geom_bond_site_symmetry_2
Br1 C1 1_555 1_555
F1 C11 1_555 1_555
F2 C11 1_555 1_555
F3 C11 1_555 1_555
O1 C12 1_555 1_555
O2 C12 1_555 1_555
O3 C15 1_555 1_555
O4 C15 1_555 1_555
O5 C20 1_555 1_555
O6 C20 1_555 1_555
N1 H1 1_555 1_555
C1 C2 1_555 1_555
C2 H2 1_555 1_555
C3 C2 1_555 1_555
H3 C3 1_555 1_555
C4 C3 1_555 1_555
C5 C4 1_555 1_555
H4 C5 1_555 1_555
C6 C1 1_555 1_555
H5 C6 1_555 1_555
C7 C4 1_555 1_555
H6 C7 1_555 1_555
C8 N1 1_555 1_555
H7 C8 1_555 1_555
C9 N1 1_555 1_555
C10 C7 1_555 1_555
H8 C10 1_555 1_555
C11 C8 1_555 1_555
C12 C9 1_555 1_555
C13 O2 1_555 1_555
H9 C13 1_555 1_555
H10 C13 1_555 1_555
C14 C13 1_555 1_555
H11 C14 1_555 1_555
H12 C14 1_555 1_555
H13 C14 1_555 1_555
C15 C9 1_555 1_555
C16 O3 1_555 1_555
H14 C16 1_555 1_555
H15 C16 1_555 1_555
C17 C16 1_555 1_555
H16 C17 1_555 1_555
H17 C17 1_555 1_555
H18 C17 1_555 1_555
C18 C10 1_555 1_555
H19 C18 1_555 1_555
C19 C18 1_555 1_555
H20 C19 1_555 1_555
C20 C19 1_555 1_555
C21 O6 1_555 1_555
H21 C21 1_555 1_555
H22 C21 1_555 1_555
H23 C21 1_555 1_555
C5 C6 1_555 1_555
C7 C8 1_555 1_555
C9 C10 1_555 1_555

#END
