
#######################################################################
#
#                 Cambridge Crystallographic Data Centre
#                                CCDC 
#
#######################################################################
#
# If this CIF has been generated from an entry in the Cambridge 
# Structural Database, then it will include bibliographic, chemical, 
# crystal, experimental, refinement or atomic coordinate data resulting 
# from the CCDC's data processing and validation procedures.
#
#######################################################################

data_PABCEC
_chemical_name_common            1-Benzyl-5-bromo-6-azaisocytosine
_chemical_formula_moiety         'C10 H9 Br1 N4 O1'
_chemical_name_systematic        
3-Amino-2-benzyl-6-bromo-1,2,4-triazin-5(2H)-one
_symmetry_cell_setting           monoclinic
_symmetry_space_group_name_H-M   'P 21/n'
_symmetry_Int_Tables_number      14
_space_group_name_Hall           '-P 2yn'
loop_
_symmetry_equiv_pos_site_id
_symmetry_equiv_pos_as_xyz
1 x,y,z
2 1/2-x,1/2+y,1/2-z
3 -x,-y,-z
4 1/2+x,1/2-y,1/2+z
_cell_length_a                   12.36450(10)
_cell_length_b                   6.90110(10)
_cell_length_c                   14.0685(2)
_cell_angle_alpha                90
_cell_angle_beta                 111.9470(10)
_cell_angle_gamma                90
_cell_volume                     1113.45
_exptl_crystal_colour            colorless
_exptl_crystal_description       block
_cell_formula_units_Z            4
loop_
_atom_site_label
_atom_site_type_symbol
_atom_site_fract_x
_atom_site_fract_y
_atom_site_fract_z
Br1 Br 0.84715(2) -0.61497(4) 1.118562(18)
O1 O 0.75511(13) -0.2254(2) 1.16705(11)
N1 N 0.64937(15) -0.5438(3) 0.95575(13)
N2 N 0.55318(14) -0.4408(3) 0.89854(12)
N3 N 0.59628(14) -0.1910(3) 1.02053(12)
N4 N 0.43805(17) -0.1643(3) 0.87144(14)
H1 H 0.4231 -0.0538 0.8921
H2 H 0.3935 -0.2088 0.8128
C1 C 0.71454(17) -0.4712(3) 1.04119(14)
C2 C 0.69199(16) -0.2867(3) 1.08271(14)
C3 C 0.52962(17) -0.2658(3) 0.93006(14)
C4 C 0.48610(18) -0.5375(3) 0.79976(15)
H3 H 0.4108 -0.4750 0.7685
H4 H 0.4728 -0.6719 0.8125
C5 C 0.54952(18) -0.5290(4) 0.72727(15)
C6 C 0.6162(2) -0.6826(5) 0.7185(2)
H5 H 0.6222 -0.7944 0.7571
C7 C 0.6753(3) -0.6687(7) 0.6506(3)
H6 H 0.7203 -0.7720 0.6440
C8 C 0.6671(3) -0.5040(8) 0.5942(3)
H7 H 0.7069 -0.4952 0.5499
C9 C 0.6013(4) -0.3544(6) 0.6028(3)
H8 H 0.5960 -0.2427 0.5644
C10 C 0.5416(3) -0.3659(4) 0.6682(2)
H9 H 0.4955 -0.2625 0.6725
loop_
_geom_bond_atom_site_label_1
_geom_bond_atom_site_label_2
_geom_bond_site_symmetry_1
_geom_bond_site_symmetry_2
Br1 C1 1_555 1_555
O1 C2 1_555 1_555
N1 N2 1_555 1_555
N2 C3 1_555 1_555
N3 C2 1_555 1_555
N4 H1 1_555 1_555
H2 N4 1_555 1_555
C1 N1 1_555 1_555
C2 C1 1_555 1_555
C3 N3 1_555 1_555
C4 N2 1_555 1_555
H3 C4 1_555 1_555
H4 C4 1_555 1_555
C5 C4 1_555 1_555
C6 C5 1_555 1_555
H5 C6 1_555 1_555
C7 C6 1_555 1_555
H6 C7 1_555 1_555
C8 C7 1_555 1_555
H7 C8 1_555 1_555
C9 C8 1_555 1_555
H8 C9 1_555 1_555
C10 C5 1_555 1_555
H9 C10 1_555 1_555
N4 C3 1_555 1_555
C9 C10 1_555 1_555

#END
