
#######################################################################
#
#                 Cambridge Crystallographic Data Centre
#                                CCDC 
#
#######################################################################
#
# If this CIF has been generated from an entry in the Cambridge 
# Structural Database, then it will include bibliographic, chemical, 
# crystal, experimental, refinement or atomic coordinate data resulting 
# from the CCDC's data processing and validation procedures.
#
#######################################################################

data_PABLUB
_chemical_formula_moiety         'C9 H18 B10 O1'
_chemical_name_systematic        
1,2-(4-Methyl-5-oxocyclohex-3-ene-1,2-diyl)-1,2-dicarba-closo-dodecaborane
_symmetry_cell_setting           monoclinic
_symmetry_space_group_name_H-M   'P 21/c'
_symmetry_Int_Tables_number      14
_space_group_name_Hall           '-P 2ybc'
loop_
_symmetry_equiv_pos_site_id
_symmetry_equiv_pos_as_xyz
1 x,y,z
2 -x,1/2+y,1/2-z
3 -x,-y,-z
4 x,1/2-y,1/2+z
_cell_length_a                   18.488(2)
_cell_length_b                   6.9305(7)
_cell_length_c                   22.339(3)
_cell_angle_alpha                90
_cell_angle_beta                 91.126(2)
_cell_angle_gamma                90
_cell_volume                     2861.77
_exptl_crystal_colour            colorless
_exptl_crystal_description       block
_cell_formula_units_Z            8
loop_
_atom_site_label
_atom_site_type_symbol
_atom_site_fract_x
_atom_site_fract_y
_atom_site_fract_z
O1 O 0.42379(17) 0.4280(5) 0.53545(14)
C1 C 0.3895(2) 0.9602(5) 0.36633(16)
C2 C 0.38667(19) 0.7416(5) 0.33997(16)
C3 C 0.4383(2) 0.8849(6) 0.41923(16)
H1 H 0.4871 0.9383 0.4161
C4 C 0.4125(2) 0.9078(6) 0.48146(17)
H2 H 0.4006 1.0312 0.4944
C5 C 0.4053(2) 0.7612(6) 0.51998(17)
C6 C 0.3884(3) 0.7903(8) 0.58492(19)
H3 H 0.3835 0.9257 0.5929
H4 H 0.4269 0.7381 0.6094
H5 H 0.3440 0.7256 0.5939
C7 C 0.4147(2) 0.5594(6) 0.49964(18)
C8 C 0.4077(2) 0.5166(6) 0.43357(18)
H6 H 0.3571 0.4949 0.4236
H7 H 0.4335 0.3978 0.4254
C9 C 0.4362(2) 0.6738(6) 0.39289(17)
H8 H 0.4840 0.6381 0.3782
B1 B 0.3089(2) 0.8368(6) 0.37065(19)
H9 H 0.2841 0.7873 0.4123
B2 B 0.3113(3) 1.0846(7) 0.3521(2)
H10 H 0.2888 1.1962 0.3814
B3 B 0.3912(3) 1.1300(7) 0.3108(2)
H11 H 0.4193 1.2696 0.3140
B4 B 0.4387(3) 0.9099(7) 0.30287(19)
H12 H 0.4981 0.9082 0.3005
B5 B 0.3059(2) 0.6920(7) 0.3050(2)
H13 H 0.2799 0.5494 0.3039
B6 B 0.2563(3) 0.9159(7) 0.3107(2)
H14 H 0.1969 0.9192 0.3125
B7 B 0.3059(3) 1.0959(7) 0.2723(2)
H15 H 0.2783 1.2157 0.2490
B8 B 0.3853(3) 0.9887(7) 0.2430(2)
H16 H 0.4091 1.0392 0.2010
B9 B 0.3855(3) 0.7371(7) 0.2635(2)
H17 H 0.4099 0.6235 0.2361
B10 B 0.3025(3) 0.8564(7) 0.2436(2)
H18 H 0.2727 0.8212 0.2019
O2 O -0.0108(2) -0.3220(5) 0.19370(17)
C10 C 0.08651(19) 0.2696(5) 0.09726(18)
C11 C 0.1495(2) 0.1230(6) 0.11933(17)
C12 C 0.0499(2) 0.2445(6) 0.15910(18)
H19 H 0.0536 0.3647 0.1821
C13 C -0.0255(2) 0.1742(7) 0.15847(18)
H20 H -0.0614 0.2615 0.1471
C14 C -0.0467(2) -0.0045(7) 0.17289(17)
C15 C -0.1244(2) -0.0630(8) 0.1733(2)
H21 H -0.1543 0.0458 0.1628
H22 H -0.1365 -0.1077 0.2125
H23 H -0.1326 -0.1647 0.1448
C16 C 0.0079(2) -0.1542(7) 0.18772(18)
C17 C 0.0859(2) -0.1034(7) 0.1973(2)
H24 H 0.1144 -0.1951 0.1749
H25 H 0.0977 -0.1230 0.2393
C18 C 0.1110(2) 0.0995(7) 0.18035(17)
H26 H 0.1404 0.1560 0.2129
B11 B 0.0887(2) 0.0430(6) 0.06561(19)
H27 H 0.0484 -0.0715 0.0720
B12 B 0.0678(3) 0.2502(7) 0.0225(2)
H28 H 0.0142 0.2709 0.0011
B13 B 0.1176(3) 0.4482(7) 0.0528(3)
H29 H 0.0955 0.5956 0.0510
B14 B 0.1705(3) 0.3665(7) 0.1150(2)
H30 H 0.1833 0.4615 0.1532
B15 B 0.1824(3) -0.0100(7) 0.0623(2)
H31 H 0.2032 -0.1582 0.0665
B16 B 0.1312(3) 0.0739(8) -0.0023(2)
H32 H 0.1195 -0.0198 -0.0410
B17 B 0.1495(3) 0.3247(9) -0.0108(3)
H33 H 0.1494 0.3935 -0.0552
B18 B 0.2120(3) 0.3950(8) 0.0460(3)
H34 H 0.2521 0.5088 0.0381
B19 B 0.2323(3) 0.1875(7) 0.0928(2)
H35 H 0.2844 0.1660 0.1165
B20 B 0.2197(3) 0.1629(9) 0.0140(2)
H36 H 0.2655 0.1258 -0.0145
loop_
_geom_bond_atom_site_label_1
_geom_bond_atom_site_label_2
_geom_bond_site_symmetry_1
_geom_bond_site_symmetry_2
O1 C7 1_555 1_555
O2 C16 1_555 1_555
C1 C2 1_555 1_555
C2 C9 1_555 1_555
C3 C1 1_555 1_555
H1 C3 1_555 1_555
C4 C3 1_555 1_555
H2 C4 1_555 1_555
C5 C4 1_555 1_555
C6 C5 1_555 1_555
H3 C6 1_555 1_555
H4 C6 1_555 1_555
H5 C6 1_555 1_555
C7 C5 1_555 1_555
C8 C7 1_555 1_555
H6 C8 1_555 1_555
H7 C8 1_555 1_555
C9 C3 1_555 1_555
H8 C9 1_555 1_555
B1 C1 1_555 1_555
H9 B1 1_555 1_555
B2 C1 1_555 1_555
H10 B2 1_555 1_555
B3 C1 1_555 1_555
H11 B3 1_555 1_555
B4 C1 1_555 1_555
H12 B4 1_555 1_555
B5 C2 1_555 1_555
H13 B5 1_555 1_555
B6 B1 1_555 1_555
H14 B6 1_555 1_555
B7 B2 1_555 1_555
H15 B7 1_555 1_555
B8 B3 1_555 1_555
H16 B8 1_555 1_555
B9 C2 1_555 1_555
H17 B9 1_555 1_555
B10 B5 1_555 1_555
H18 B10 1_555 1_555
C10 C11 1_555 1_555
C11 C18 1_555 1_555
C12 C10 1_555 1_555
H19 C12 1_555 1_555
C13 C12 1_555 1_555
H20 C13 1_555 1_555
C14 C13 1_555 1_555
C15 C14 1_555 1_555
H21 C15 1_555 1_555
H22 C15 1_555 1_555
H23 C15 1_555 1_555
C16 C14 1_555 1_555
C17 C16 1_555 1_555
H24 C17 1_555 1_555
H25 C17 1_555 1_555
C18 C12 1_555 1_555
H26 C18 1_555 1_555
B11 C10 1_555 1_555
H27 B11 1_555 1_555
B12 C10 1_555 1_555
H28 B12 1_555 1_555
B13 C10 1_555 1_555
H29 B13 1_555 1_555
B14 C10 1_555 1_555
H30 B14 1_555 1_555
B15 C11 1_555 1_555
H31 B15 1_555 1_555
B16 B11 1_555 1_555
H32 B16 1_555 1_555
B17 B12 1_555 1_555
H33 B17 1_555 1_555
B18 B13 1_555 1_555
H34 B18 1_555 1_555
B19 C11 1_555 1_555
H35 B19 1_555 1_555
B20 B15 1_555 1_555
H36 B20 1_555 1_555
C2 B1 1_555 1_555
C2 B4 1_555 1_555
C8 C9 1_555 1_555
B1 B2 1_555 1_555
B1 B5 1_555 1_555
B2 B3 1_555 1_555
B2 B6 1_555 1_555
B3 B4 1_555 1_555
B3 B7 1_555 1_555
B4 B8 1_555 1_555
B4 B9 1_555 1_555
B5 B6 1_555 1_555
B5 B9 1_555 1_555
B6 B7 1_555 1_555
B6 B10 1_555 1_555
B7 B8 1_555 1_555
B7 B10 1_555 1_555
B8 B9 1_555 1_555
B8 B10 1_555 1_555
B9 B10 1_555 1_555
C11 B11 1_555 1_555
C11 B14 1_555 1_555
C17 C18 1_555 1_555
B11 B12 1_555 1_555
B11 B15 1_555 1_555
B12 B13 1_555 1_555
B12 B16 1_555 1_555
B13 B14 1_555 1_555
B13 B17 1_555 1_555
B14 B18 1_555 1_555
B14 B19 1_555 1_555
B15 B16 1_555 1_555
B15 B19 1_555 1_555
B16 B17 1_555 1_555
B16 B20 1_555 1_555
B17 B18 1_555 1_555
B17 B20 1_555 1_555
B18 B19 1_555 1_555
B18 B20 1_555 1_555
B19 B20 1_555 1_555

#END
