
#######################################################################
#
#                 Cambridge Crystallographic Data Centre
#                                CCDC 
#
#######################################################################
#
# If this CIF has been generated from an entry in the Cambridge 
# Structural Database, then it will include bibliographic, chemical, 
# crystal, experimental, refinement or atomic coordinate data resulting 
# from the CCDC's data processing and validation procedures.
#
#######################################################################

data_PABQUG
_chemical_formula_moiety         'C62 H46 Cl2 O10,4(C4 H8 O1)'
_chemical_name_systematic        
"4,4'-(3,36-Dichloro-8,9,11,12,27,28,30,31-octahydrotetranaphtho[2,1-h:1',2'-j:2'',1''-s:1''',2'''-u][1,4,7,12,15,18]hexaoxacyclodocosine-5,34-diyl)dibenzoic acid tetrahydrofuran solvate"
_symmetry_cell_setting           triclinic
_symmetry_space_group_name_H-M   'P 1'
_symmetry_Int_Tables_number      1
_space_group_name_Hall           'P 1'
loop_
_symmetry_equiv_pos_site_id
_symmetry_equiv_pos_as_xyz
1 x,y,z
_cell_length_a                   8.40020(10)
_cell_length_b                   14.2660(2)
_cell_length_c                   15.2820(3)
_cell_angle_alpha                101.5480(10)
_cell_angle_beta                 92.2200(10)
_cell_angle_gamma                101.7210(10)
_cell_volume                     1750.84
_exptl_crystal_colour            colorless
_exptl_crystal_description       block
_cell_formula_units_Z            1
loop_
_atom_site_label
_atom_site_type_symbol
_atom_site_fract_x
_atom_site_fract_y
_atom_site_fract_z
Cl1 Cl 0.70936(14) 0.84417(8) 1.16188(8)
Cl2 Cl 0.53978(13) 0.68035(9) 0.46340(8)
O1 O 1.4592(4) 0.4715(3) 1.2066(2)
O2 O 1.2805(4) 0.4642(3) 1.3109(2)
H1 H 1.3646 0.4656 1.3431
O3 O 0.6347(3) 0.36205(19) 0.76662(18)
O4 O 0.4814(3) 0.15487(19) 0.7630(2)
O5 O 0.1253(3) 0.0798(2) 0.7812(2)
O6 O -0.1071(4) 0.0787(2) 0.9533(2)
O7 O 0.0032(3) 0.2721(2) 0.93328(19)
O8 O 0.2558(3) 0.40366(19) 0.86192(18)
O9 O -0.4963(4) 0.4148(3) 0.4046(2)
O10 O -0.3168(4) 0.4215(3) 0.3002(2)
H2 H -0.3990 0.4245 0.2687
C1 C 0.6678(5) 0.7437(3) 1.0720(3)
C2 C 0.7561(5) 0.6732(3) 1.0676(3)
H3 H 0.8380 0.6784 1.1141
C3 C 0.7270(5) 0.5915(3) 0.9939(3)
C4 C 0.8187(4) 0.5173(3) 0.9848(3)
C5 C 0.7906(4) 0.4420(3) 0.9097(3)
H4 H 0.8550 0.3939 0.9035
C6 C 0.6667(4) 0.4358(3) 0.8421(3)
C7 C 0.5738(4) 0.5056(3) 0.8492(2)
C8 C 0.6032(4) 0.5849(3) 0.9250(3)
C9 C 0.5138(5) 0.6608(3) 0.9331(3)
H5 H 0.4311 0.6574 0.8877
C10 C 0.5443(5) 0.7380(3) 1.0047(3)
H6 H 0.4829 0.7876 1.0092
C11 C 0.9516(5) 0.5175(3) 1.0529(3)
C12 C 0.9182(5) 0.5115(3) 1.1412(3)
H7 H 0.8130 0.5146 1.1606
C13 C 1.0418(5) 0.5006(3) 1.2007(3)
H8 H 1.0198 0.4963 1.2604
C14 C 1.1945(5) 0.4963(3) 1.1727(3)
C15 C 1.2293(5) 0.5057(3) 1.0862(3)
H9 H 1.3360 0.5055 1.0678
C16 C 1.1081(5) 0.5155(3) 1.0272(3)
H10 H 1.1321 0.5209 0.9679
C17 C 1.3206(5) 0.4772(3) 1.2329(3)
C18 C 0.7133(5) 0.2812(3) 0.7590(3)
H11 H 0.8292 0.3061 0.7820
H12 H 0.7104 0.2498 0.6949
C19 C 0.6361(4) 0.2051(3) 0.8093(3)
H13 H 0.7072 0.1581 0.8121
H14 H 0.6211 0.2369 0.8713
C20 C 0.4077(5) 0.0762(3) 0.8037(3)
H15 H 0.3919 0.1025 0.8670
H16 H 0.4804 0.0294 0.8024
C21 C 0.2458(5) 0.0242(3) 0.7540(3)
H17 H 0.2545 0.0167 0.6887
H18 H 0.2134 -0.0419 0.7672
C22 C -0.0300(5) 0.0329(3) 0.7448(3)
C23 C -0.0897(5) 0.0582(3) 0.6663(3)
H19 H -0.0221 0.1063 0.6413
C24 C -0.2405(5) 0.0153(4) 0.6265(3)
H20 H -0.2773 0.0324 0.5735
C25 C -0.3452(5) -0.0562(3) 0.6646(3)
C26 C -0.5056(5) -0.1038(4) 0.6242(3)
H21 H -0.5434 -0.0900 0.5697
C27 C -0.6037(5) -0.1686(3) 0.6635(4)
H22 H -0.7094 -0.2006 0.6361
C28 C -0.5491(5) -0.1882(3) 0.7448(4)
H23 H -0.6208 -0.2313 0.7729
C29 C -0.3962(5) -0.1468(3) 0.7839(3)
H24 H -0.3612 -0.1626 0.8380
C30 C -0.2873(5) -0.0793(3) 0.7437(3)
C31 C -0.1246(5) -0.0353(3) 0.7830(3)
C32 C -0.0621(4) -0.0653(3) 0.8641(3)
C33 C -0.0140(5) -0.1565(3) 0.8538(3)
C34 C -0.0116(5) -0.2174(3) 0.7688(3)
H25 H -0.0439 -0.1973 0.7164
C35 C 0.0372(5) -0.3060(3) 0.7603(3)
H26 H 0.0380 -0.3462 0.7028
C36 C 0.0859(5) -0.3357(3) 0.8392(3)
H27 H 0.1174 -0.3968 0.8338
C37 C 0.0882(5) -0.2785(3) 0.9215(4)
H28 H 0.1217 -0.2997 0.9729
C38 C 0.0407(5) -0.1864(3) 0.9319(3)
C39 C 0.0430(6) -0.1262(3) 1.0158(3)
H29 H 0.0776 -0.1464 1.0677
C40 C -0.0034(6) -0.0385(3) 1.0253(3)
H30 H -0.0011 0.0018 1.0831
C41 C -0.0553(5) -0.0077(3) 0.9474(3)
C42 C -0.0484(6) 0.1537(3) 1.0321(3)
H31 H 0.0680 0.1564 1.0482
H32 H -0.1115 0.1398 1.0831
C43 C -0.0689(5) 0.2506(3) 1.0111(3)
H33 H -0.1869 0.2496 1.0038
H34 H -0.0205 0.3040 1.0629
C44 C 0.1713(5) 0.2695(3) 0.9325(3)
H35 H 0.1859 0.2025 0.9333
H36 H 0.2331 0.3148 0.9862
C45 C 0.2340(5) 0.2995(3) 0.8490(3)
H37 H 0.3391 0.2799 0.8376
H38 H 0.1550 0.2669 0.7967
C46 C 0.2866(5) 0.4386(3) 0.7852(3)
C47 C 0.4384(5) 0.4950(3) 0.7786(3)
C48 C 0.4623(5) 0.5374(3) 0.7026(3)
C49 C 0.6140(5) 0.5998(3) 0.6939(3)
H39 H 0.7006 0.6119 0.7393
C50 C 0.6375(5) 0.6423(3) 0.6218(3)
H40 H 0.7402 0.6825 0.6165
C51 C 0.5087(5) 0.6264(3) 0.5555(3)
C52 C 0.3595(5) 0.5692(3) 0.5614(3)
H41 H 0.2735 0.5616 0.5166
C53 C 0.3321(5) 0.5213(3) 0.6335(3)
C54 C 0.1791(5) 0.4591(3) 0.6418(3)
C55 C 0.1605(4) 0.4202(3) 0.7166(3)
H42 H 0.0589 0.3793 0.7225
C56 C 0.0404(5) 0.4379(3) 0.5723(3)
C57 C 0.0568(5) 0.4088(3) 0.4813(3)
H43 H 0.1580 0.3961 0.4621
C58 C -0.0717(5) 0.3981(3) 0.4184(3)
H44 H -0.0570 0.3807 0.3563
C59 C -0.2228(5) 0.4127(3) 0.4456(3)
C60 C -0.2447(5) 0.4332(3) 0.5364(3)
H45 H -0.3498 0.4377 0.5555
C61 C -0.1153(5) 0.4469(3) 0.5991(3)
H46 H -0.1311 0.4627 0.6611
C62 C -0.3571(6) 0.4151(3) 0.3807(3)
O11 O 0.4100(10) 0.8412(5) 0.3403(5)
C63 C 0.3350(15) 0.9071(6) 0.2973(8)
H47 H 0.2908 0.9527 0.3428
H48 H 0.4171 0.9461 0.2666
C64 C 0.2081(7) 0.8477(4) 0.2348(4)
H49 H 0.1063 0.8332 0.2648
H50 H 0.1875 0.8820 0.1866
C65 C 0.2558(8) 0.7621(5) 0.1994(4)
H51 H 0.3200 0.7695 0.1472
H52 H 0.1599 0.7074 0.1801
C66 C 0.3619(8) 0.7436(4) 0.2769(4)
H53 H 0.2985 0.6941 0.3065
H54 H 0.4593 0.7207 0.2545
O12 O 0.9988(5) 0.7463(3) 0.5380(3)
C67 C 1.0072(11) 0.8362(5) 0.5115(5)
H55 H 1.1222 0.8720 0.5156
H56 H 0.9462 0.8774 0.5512
C68 C 0.9351(9) 0.8150(7) 0.4180(6)
H57 H 0.9989 0.8585 0.3829
H58 H 0.8209 0.8233 0.4159
C69 C 0.9429(9) 0.7093(7) 0.3826(5)
H59 H 1.0082 0.7029 0.3300
H60 H 0.8323 0.6675 0.3655
C70 C 1.0251(10) 0.6821(5) 0.4612(5)
H61 H 0.9775 0.6135 0.4643
H62 H 1.1435 0.6887 0.4547
O13 O 0.2545(15) 0.2053(6) 0.5728(8)
C71 C 0.3958(10) 0.2664(6) 0.5542(6)
H63 H 0.4604 0.3037 0.6105
H64 H 0.3680 0.3132 0.5194
C72 C 0.4907(14) 0.1986(8) 0.5000(8)
H65 H 0.4926 0.2069 0.4373
H66 H 0.6042 0.2107 0.5267
C73 C 0.4047(17) 0.1059(9) 0.5044(14)
H67 H 0.4062 0.0599 0.4468
H68 H 0.4578 0.0824 0.5522
C74 C 0.2453(13) 0.1077(6) 0.5220(7)
H69 H 0.2023 0.0583 0.5572
H70 H 0.1746 0.0949 0.4657
O14 O 0.4941(15) 0.1678(6) 0.0285(6)
C75 C 0.4803(14) 0.0650(8) 0.0370(8)
H71 H 0.3754 0.0241 0.0070
H72 H 0.5702 0.0384 0.0084
C76 C 0.489(2) 0.0635(13) 0.1294(10)
H73 H 0.4297 -0.0003 0.1397
H74 H 0.6036 0.0758 0.1542
C77 C 0.416(3) 0.1368(13) 0.1669(12)
H75 H 0.4445 0.1569 0.2325
H76 H 0.2964 0.1179 0.1547
C78 C 0.4949(19) 0.2215(10) 0.1165(8)
H77 H 0.4274 0.2711 0.1189
H78 H 0.6071 0.2541 0.1422
O15 O 0.987(3) 0.1058(13) 0.2460(11)
C79 C 1.018(2) 0.0467(17) 0.3083(14)
H79 H 1.0158 -0.0209 0.2753
H80 H 1.1277 0.0740 0.3402
C80 C 0.899(3) 0.0449(16) 0.3709(13)
H81 H 0.8309 -0.0223 0.3622
H82 H 0.9525 0.0632 0.4325
C81 C 0.804(3) 0.107(2) 0.3608(15)
H83 H 0.7999 0.1520 0.4186
H84 H 0.6915 0.0706 0.3385
C82 C 0.883(4) 0.1649(19) 0.2908(18)
H85 H 0.7980 0.1730 0.2478
H86 H 0.9466 0.2304 0.3212
loop_
_geom_bond_atom_site_label_1
_geom_bond_atom_site_label_2
_geom_bond_site_symmetry_1
_geom_bond_site_symmetry_2
Cl1 C1 1_555 1_555
Cl2 C51 1_555 1_555
O1 C17 1_555 1_555
O2 H1 1_555 1_555
O3 C6 1_555 1_555
O4 C19 1_555 1_555
O5 C21 1_555 1_555
O6 C41 1_555 1_555
O7 C43 1_555 1_555
O8 C45 1_555 1_555
O9 C62 1_555 1_555
O10 H2 1_555 1_555
C1 C2 1_555 1_555
C2 H3 1_555 1_555
C3 C2 1_555 1_555
C4 C3 1_555 1_555
C5 C4 1_555 1_555
H4 C5 1_555 1_555
C6 C5 1_555 1_555
C7 C6 1_555 1_555
C8 C3 1_555 1_555
C9 C8 1_555 1_555
H5 C9 1_555 1_555
C10 C1 1_555 1_555
H6 C10 1_555 1_555
C11 C4 1_555 1_555
C12 C11 1_555 1_555
H7 C12 1_555 1_555
C13 C12 1_555 1_555
H8 C13 1_555 1_555
C14 C13 1_555 1_555
C15 C14 1_555 1_555
H9 C15 1_555 1_555
C16 C11 1_555 1_555
H10 C16 1_555 1_555
C17 O2 1_555 1_555
C18 O3 1_555 1_555
H11 C18 1_555 1_555
H12 C18 1_555 1_555
C19 C18 1_555 1_555
H13 C19 1_555 1_555
H14 C19 1_555 1_555
C20 O4 1_555 1_555
H15 C20 1_555 1_555
H16 C20 1_555 1_555
C21 C20 1_555 1_555
H17 C21 1_555 1_555
H18 C21 1_555 1_555
C22 O5 1_555 1_555
C23 C22 1_555 1_555
H19 C23 1_555 1_555
C24 C23 1_555 1_555
H20 C24 1_555 1_555
C25 C24 1_555 1_555
C26 C25 1_555 1_555
H21 C26 1_555 1_555
C27 C26 1_555 1_555
H22 C27 1_555 1_555
C28 C27 1_555 1_555
H23 C28 1_555 1_555
C29 C28 1_555 1_555
H24 C29 1_555 1_555
C30 C25 1_555 1_555
C31 C22 1_555 1_555
C32 C31 1_555 1_555
C33 C32 1_555 1_555
C34 C33 1_555 1_555
H25 C34 1_555 1_555
C35 C34 1_555 1_555
H26 C35 1_555 1_555
C36 C35 1_555 1_555
H27 C36 1_555 1_555
C37 C36 1_555 1_555
H28 C37 1_555 1_555
C38 C33 1_555 1_555
C39 C38 1_555 1_555
H29 C39 1_555 1_555
C40 C39 1_555 1_555
H30 C40 1_555 1_555
C41 C32 1_555 1_555
C42 O6 1_555 1_555
H31 C42 1_555 1_555
H32 C42 1_555 1_555
C43 C42 1_555 1_555
H33 C43 1_555 1_555
H34 C43 1_555 1_555
C44 O7 1_555 1_555
H35 C44 1_555 1_555
H36 C44 1_555 1_555
C45 C44 1_555 1_555
H37 C45 1_555 1_555
H38 C45 1_555 1_555
C46 O8 1_555 1_555
C47 C7 1_555 1_555
C48 C47 1_555 1_555
C49 C48 1_555 1_555
H39 C49 1_555 1_555
C50 C49 1_555 1_555
H40 C50 1_555 1_555
C51 C50 1_555 1_555
C52 C51 1_555 1_555
H41 C52 1_555 1_555
C53 C48 1_555 1_555
C54 C53 1_555 1_555
C55 C46 1_555 1_555
H42 C55 1_555 1_555
C56 C54 1_555 1_555
C57 C56 1_555 1_555
H43 C57 1_555 1_555
C58 C57 1_555 1_555
H44 C58 1_555 1_555
C59 C58 1_555 1_555
C60 C59 1_555 1_555
H45 C60 1_555 1_555
C61 C56 1_555 1_555
H46 C61 1_555 1_555
C62 O10 1_555 1_555
O11 C63 1_555 1_555
C63 H47 1_555 1_555
H48 C63 1_555 1_555
C64 C63 1_555 1_555
H49 C64 1_555 1_555
H50 C64 1_555 1_555
C65 C64 1_555 1_555
H51 C65 1_555 1_555
H52 C65 1_555 1_555
C66 O11 1_555 1_555
H53 C66 1_555 1_555
H54 C66 1_555 1_555
O12 C67 1_555 1_555
C67 H55 1_555 1_555
H56 C67 1_555 1_555
C68 C67 1_555 1_555
H57 C68 1_555 1_555
H58 C68 1_555 1_555
C69 C68 1_555 1_555
H59 C69 1_555 1_555
H60 C69 1_555 1_555
C70 O12 1_555 1_555
H61 C70 1_555 1_555
H62 C70 1_555 1_555
O13 C71 1_555 1_555
C71 H63 1_555 1_555
H64 C71 1_555 1_555
C72 C71 1_555 1_555
H65 C72 1_555 1_555
H66 C72 1_555 1_555
C73 C72 1_555 1_555
H67 C73 1_555 1_555
H68 C73 1_555 1_555
C74 O13 1_555 1_555
H69 C74 1_555 1_555
H70 C74 1_555 1_555
O14 C75 1_555 1_555
C75 H71 1_555 1_555
H72 C75 1_555 1_555
C76 C75 1_555 1_555
H73 C76 1_555 1_555
H74 C76 1_555 1_555
C77 C76 1_555 1_555
H75 C77 1_555 1_555
H76 C77 1_555 1_555
C78 O14 1_555 1_555
H77 C78 1_555 1_555
H78 C78 1_555 1_555
O15 C79 1_555 1_555
C79 H79 1_555 1_555
H80 C79 1_555 1_555
C80 C79 1_555 1_555
H81 C80 1_555 1_555
H82 C80 1_555 1_555
C81 C80 1_555 1_555
H83 C81 1_555 1_555
H84 C81 1_555 1_555
C82 O15 1_555 1_555
H85 C82 1_555 1_555
H86 C82 1_555 1_555
C7 C8 1_555 1_555
C9 C10 1_555 1_555
C14 C17 1_555 1_555
C15 C16 1_555 1_555
C29 C30 1_555 1_555
C30 C31 1_555 1_555
C37 C38 1_555 1_555
C40 C41 1_555 1_555
C46 C47 1_555 1_555
C52 C53 1_555 1_555
C54 C55 1_555 1_555
C59 C62 1_555 1_555
C60 C61 1_555 1_555
C65 C66 1_555 1_555
C69 C70 1_555 1_555
C73 C74 1_555 1_555
C77 C78 1_555 1_555
C81 C82 1_555 1_555

#END
