
#######################################################################
#
#                 Cambridge Crystallographic Data Centre
#                                CCDC 
#
#######################################################################
#
# If this CIF has been generated from an entry in the Cambridge 
# Structural Database, then it will include bibliographic, chemical, 
# crystal, experimental, refinement or atomic coordinate data resulting 
# from the CCDC's data processing and validation procedures.
#
#######################################################################

data_PABSAO
_chemical_formula_moiety         'C20 H26 O4'
_chemical_name_systematic        
'Methyl 1-(2-oxo-3-(prop-1-en-2-yl)-3,3a,4,8a-tetrahydro-2H-cyclohepta[b]furan-4-yl)cyclohexanecarboxylate'
_symmetry_cell_setting           monoclinic
_symmetry_space_group_name_H-M   'P 21/n'
_symmetry_Int_Tables_number      14
_space_group_name_Hall           '-P 2yn'
loop_
_symmetry_equiv_pos_site_id
_symmetry_equiv_pos_as_xyz
1 x,y,z
2 1/2-x,1/2+y,1/2-z
3 -x,-y,-z
4 1/2+x,1/2-y,1/2+z
_cell_length_a                   14.288(5)
_cell_length_b                   9.625(4)
_cell_length_c                   14.454(4)
_cell_angle_alpha                90
_cell_angle_beta                 116.22(2)
_cell_angle_gamma                90
_cell_volume                     1783.21
_exptl_crystal_colour            colorless
_exptl_crystal_description       plate
_cell_formula_units_Z            4
loop_
_atom_site_label
_atom_site_type_symbol
_atom_site_fract_x
_atom_site_fract_y
_atom_site_fract_z
O1 O 0.04238(15) 0.6636(2) 0.31597(15)
O2 O 0.03861(18) 0.7035(2) 0.16286(16)
O3 O 0.01502(13) 0.2395(2) 0.45023(16)
O4 O 0.09126(12) 0.10613(18) 0.37900(13)
C1 C 0.0753(2) 0.6422(3) 0.2428(2)
C2 C 0.15950(17) 0.5326(2) 0.27919(16)
C3 C 0.13751(16) 0.4571(2) 0.36122(16)
C4 C 0.22420(15) 0.3578(2) 0.42868(15)
C5 C 0.33074(17) 0.4248(2) 0.48111(17)
C6 C 0.3538(2) 0.5507(3) 0.52269(19)
C7 C 0.2858(3) 0.6562(3) 0.5312(2)
C8 C 0.1834(3) 0.6684(3) 0.4856(2)
C9 C 0.1024(2) 0.5771(3) 0.4071(2)
C10 C 0.1661(2) 0.4446(3) 0.19683(17)
C11 C 0.2549(3) 0.4350(3) 0.1906(2)
C12 C 0.0715(3) 0.3671(4) 0.1265(2)
C13 C 0.20022(16) 0.2656(2) 0.50536(16)
C14 C 0.28208(17) 0.1486(2) 0.54497(17)
C15 C 0.2697(2) 0.0540(3) 0.62301(19)
C16 C 0.2745(3) 0.1358(3) 0.7140(2)
C17 C 0.1947(3) 0.2519(3) 0.6795(2)
C18 C 0.20272(19) 0.3455(2) 0.59816(17)
C19 C 0.09215(16) 0.2040(2) 0.44425(17)
C20 C -0.0061(2) 0.0386(3) 0.3186(3)
H1 H 0.2318 0.5714 0.3075
H2 H 0.2263 0.2908 0.3767
H3 H 0.3908 0.3676 0.4849
H4 H 0.4293 0.5764 0.5525
H5 H 0.3230 0.7332 0.5802
H6 H 0.1555 0.7516 0.5066
H7 H 0.3177 0.4863 0.2408
H8 H 0.2596 0.3764 0.1357
H9 H 0.0869 0.3132 0.0758
H10 H 0.0135 0.4341 0.0888
H11 H 0.0502 0.3018 0.1676
H12 H 0.3530 0.1918 0.5783
H13 H 0.2756 0.0912 0.4848
H14 H 0.3270 -0.0164 0.6478
H15 H 0.2008 0.0056 0.5890
H16 H 0.2601 0.0720 0.7608
H17 H 0.3457 0.1766 0.7520
H18 H 0.2056 0.3098 0.7409
H19 H 0.1233 0.2100 0.6501
H20 H 0.2698 0.3983 0.6310
H21 H 0.1429 0.4121 0.5729
H22 H 0.0035 -0.0323 0.2729
H23 H -0.0311 -0.0081 0.3653
H24 H -0.0587 0.1090 0.2752
H25 H 0.0818 0.3843 0.3369
H26 H 0.0662 0.5364 0.4464
loop_
_geom_bond_atom_site_label_1
_geom_bond_atom_site_label_2
_geom_bond_site_symmetry_1
_geom_bond_site_symmetry_2
O1 C1 1_555 1_555
O2 C1 1_555 1_555
O3 C19 1_555 1_555
O4 C19 1_555 1_555
C1 C2 1_555 1_555
C2 C3 1_555 1_555
C3 C4 1_555 1_555
C4 C5 1_555 1_555
C5 C6 1_555 1_555
C6 C7 1_555 1_555
C7 C8 1_555 1_555
C8 C9 1_555 1_555
C9 O1 1_555 1_555
C10 C2 1_555 1_555
C11 C10 1_555 1_555
C12 C10 1_555 1_555
C13 C4 1_555 1_555
C14 C13 1_555 1_555
C15 C14 1_555 1_555
C16 C15 1_555 1_555
C17 C16 1_555 1_555
C18 C13 1_555 1_555
C19 C13 1_555 1_555
C20 O4 1_555 1_555
H1 C2 1_555 1_555
H2 C4 1_555 1_555
H3 C5 1_555 1_555
H4 C6 1_555 1_555
H5 C7 1_555 1_555
H6 C8 1_555 1_555
H7 C11 1_555 1_555
H8 C11 1_555 1_555
H9 C12 1_555 1_555
H10 C12 1_555 1_555
H11 C12 1_555 1_555
H12 C14 1_555 1_555
H13 C14 1_555 1_555
H14 C15 1_555 1_555
H15 C15 1_555 1_555
H16 C16 1_555 1_555
H17 C16 1_555 1_555
H18 C17 1_555 1_555
H19 C17 1_555 1_555
H20 C18 1_555 1_555
H21 C18 1_555 1_555
H22 C20 1_555 1_555
H23 C20 1_555 1_555
H24 C20 1_555 1_555
H25 C3 1_555 1_555
H26 C9 1_555 1_555
C3 C9 1_555 1_555
C17 C18 1_555 1_555

#END
