
#######################################################################
#
#                 Cambridge Crystallographic Data Centre
#                                CCDC 
#
#######################################################################
#
# If this CIF has been generated from an entry in the Cambridge 
# Structural Database, then it will include bibliographic, chemical, 
# crystal, experimental, refinement or atomic coordinate data resulting 
# from the CCDC's data processing and validation procedures.
#
#######################################################################

data_PABTOD
_chemical_compound_source        'Myrothecium species'
_chemical_name_common            'Isorugulosin isoluteoskyrin'
_chemical_formula_moiety         'C30 H22 O10,C30 H22 O12'
_chemical_name_systematic        
'5,8,12,14,20,23,25,28-Octahydroxy-6,21-dimethyloctacyclo[14.11.1.0^2,11^.0^2,15^.0^4,9^.0^13,17^.0^17,26^.0^19,24^]octacosa-4,6,8,11,19,21,23,25-octaene-3,10,18,27-tetrone 8,12,14,23,25,28-hexahydroxy-6,21-dimethyloctacyclo[14.11.1.0^2,11^.0^2,15^.0^4,9^.0^13,17^.0^17,26^.0^19,24^]octacosa-4,6,8,11,19,21,23,25-octaene-3,10,18,27-tetrone'
_chemical_properties_biological  'cytotoxic activity'
_symmetry_cell_setting           monoclinic
_symmetry_space_group_name_H-M   'P 21'
_symmetry_Int_Tables_number      4
_space_group_name_Hall           'P 2yb'
loop_
_symmetry_equiv_pos_site_id
_symmetry_equiv_pos_as_xyz
1 x,y,z
2 -x,1/2+y,-z
_cell_length_a                   12.053(2)
_cell_length_b                   13.444(3)
_cell_length_c                   15.165(3)
_cell_angle_alpha                90
_cell_angle_beta                 100.76(3)
_cell_angle_gamma                90
_cell_volume                     2414.14
_exptl_crystal_colour            brown
_exptl_crystal_description       sheet
_cell_formula_units_Z            2
loop_
_atom_site_label
_atom_site_type_symbol
_atom_site_fract_x
_atom_site_fract_y
_atom_site_fract_z
C1 C 1.5266(6) 0.9071(7) 0.6298(7)
C3 C 1.6381(8) 0.8771(9) 0.6606(7)
H1 H 1.6967 0.9222 0.6609
C5 C 1.6619(6) 0.7810(9) 0.6907(5)
C7 C 1.5767(7) 0.7103(8) 0.6902(7)
H3 H 1.5927 0.6462 0.7118
C9 C 1.4673(7) 0.7409(8) 0.6559(5)
C11 C 1.3778(7) 0.6590(8) 0.6539(6)
C13 C 1.2536(6) 0.6909(7) 0.6113(5)
C15 C 1.2356(7) 0.7955(7) 0.5978(6)
C17 C 1.3197(7) 0.8670(8) 0.5993(6)
C20 C 1.4385(6) 0.8370(7) 0.6277(5)
C22 C 1.7832(7) 0.7457(11) 0.7252(8)
H7 H 1.7825 0.6772 0.7430
H8 H 1.8167 0.7854 0.7758
H9 H 1.8265 0.7525 0.6784
C24 C 1.1646(7) 0.6312(8) 0.6544(6)
H11 H 1.2002 0.5829 0.6993
C26 C 1.0837(7) 0.7048(7) 0.6924(5)
H13 H 1.0257 0.6675 0.7159
C28 C 1.0319(7) 0.7582(7) 0.6076(6)
H15 H 0.9602 0.7900 0.6125
C30 C 1.1184(6) 0.8333(7) 0.5852(5)
O1 O 1.5103(7) 1.0016(7) 0.6017(7)
H16 H 1.4424 1.0129 0.5884
O5 O 1.3947(6) 0.5822(7) 0.6822(6)
O7 O 1.2983(5) 0.9596(6) 0.5771(6)
O9 O 1.1362(5) 0.7721(6) 0.7560(4)
H20 H 1.1187 0.7599 0.8046
O11 O 1.0912(6) 0.9207(6) 0.5661(5)
C32 C 0.7828(6) 0.8309(8) 0.3265(6)
C34 C 0.6658(7) 0.8362(9) 0.3337(6)
H22 H 0.6171 0.8769 0.2947
C36 C 0.6239(8) 0.7807(8) 0.3990(7)
C38 C 0.6984(8) 0.7220(8) 0.4535(7)
H23 H 0.6705 0.6824 0.4947
C40 C 0.8128(7) 0.7164(8) 0.4525(6)
C42 C 0.8878(7) 0.6532(9) 0.5132(8)
C44 C 1.0152(7) 0.6706(8) 0.5277(6)
C46 C 1.0495(7) 0.7115(7) 0.4466(5)
C48 C 0.9759(6) 0.7651(7) 0.3793(5)
C50 C 0.8568(7) 0.7743(8) 0.3821(6)
C52 C 0.4996(8) 0.7848(12) 0.4010(8)
H27 H 0.4839 0.7443 0.4493
H28 H 0.4575 0.7605 0.3451
H29 H 0.4781 0.8523 0.4098
C54 C 1.0863(7) 0.5834(7) 0.5785(6)
H31 H 1.0391 0.5320 0.5986
C55 C 1.1718(7) 0.5397(9) 0.5216(7)
H32 H 1.2223 0.4919 0.5580
C58 C 1.2356(7) 0.6338(8) 0.5103(6)
H35 H 1.3083 0.6191 0.4932
C60 C 1.1619(8) 0.6995(8) 0.4398(6)
O13 O 0.8142(6) 0.8856(6) 0.2616(5)
O16 O 0.8503(6) 0.5892(7) 0.5611(5)
O18 O 1.0107(5) 0.8048(6) 0.3145(4)
O20 O 1.1248(5) 0.4960(5) 0.4363(4)
H38 H 1.0615 0.4744 0.4378
O21 O 1.2083(5) 0.7387(5) 0.3755(4)
C2 C -0.5243(9) -0.1228(10) -0.1227(8)
C4 C -0.6372(7) -0.0929(9) -0.1579(7)
H2 H -0.6939 -0.1403 -0.1599
C6 C -0.6670(8) -0.0035(8) -0.1875(7)
C8 C -0.5771(8) 0.0680(8) -0.1851(6)
C10 C -0.4618(7) 0.0446(7) -0.1532(6)
C12 C -0.3758(7) 0.1141(7) -0.1517(7)
C14 C -0.2572(7) 0.0999(8) -0.1041(6)
C16 C -0.2312(6) -0.0167(7) -0.0970(5)
C18 C -0.3196(7) -0.0816(7) -0.0939(6)
C19 C -0.4360(8) -0.0561(8) -0.1193(6)
C21 C -0.7872(8) 0.0250(9) -0.2265(7)
H4 H -0.8359 -0.0308 -0.2231
H5 H -0.7924 0.0442 -0.2881
H6 H -0.8097 0.0796 -0.1931
C23 C -0.1678(5) 0.1492(7) -0.1565(5)
H10 H -0.2036 0.1956 -0.2031
C25 C -0.0872(7) 0.0826(7) -0.1888(6)
H12 H -0.0291 0.1215 -0.2107
C27 C -0.0355(6) 0.0279(7) -0.1011(5)
H14 H 0.0357 -0.0048 -0.1064
C29 C -0.1214(7) -0.0458(8) -0.0863(6)
O2 O -0.5122(6) -0.2197(7) -0.0946(7)
H17 H -0.4449 -0.2331 -0.0805
O3 O -0.6116(4) 0.1583(5) -0.2170(5)
H18 H -0.5567 0.1951 -0.2141
O4 O -0.4029(5) 0.2064(6) -0.1827(6)
O6 O -0.2946(5) -0.1767(5) -0.0759(4)
O8 O -0.1378(5) 0.0118(6) -0.2561(4)
H19 H -0.1190 0.0249 -0.3040
O10 O -0.0896(5) -0.1355(5) -0.0631(4)
C31 C 0.2174(7) -0.0384(8) 0.1764(6)
C33 C 0.3317(8) -0.0438(9) 0.1712(8)
H21 H 0.3795 -0.0857 0.2097
C35 C 0.3736(6) 0.0120(10) 0.1098(6)
C37 C 0.3020(7) 0.0761(8) 0.0476(6)
C39 C 0.1873(6) 0.0784(7) 0.0531(5)
C41 C 0.1107(6) 0.1369(6) -0.0178(4)
C43 C -0.0153(6) 0.1135(7) -0.0324(4)
C45 C -0.0521(6) 0.0803(7) 0.0559(5)
C47 C 0.0207(8) 0.0279(8) 0.1217(7)
C49 C 0.1443(7) 0.0214(7) 0.1129(5)
C51 C 0.4973(8) 0.0072(11) 0.1013(8)
H24 H 0.5373 -0.0359 0.1469
H25 H 0.5295 0.0727 0.1084
H26 H 0.5030 -0.0183 0.0432
C53 C -0.0919(6) 0.2042(7) -0.0756(5)
H30 H -0.0470 0.2575 -0.0958
C56 C -0.1721(7) 0.2421(7) -0.0231(5)
H33 H -0.2223 0.2898 -0.0599
C57 C -0.2424(6) 0.1460(7) -0.0095(5)
H34 H -0.3144 0.1612 0.0087
C59 C -0.1656(5) 0.0887(7) 0.0581(5)
O12 O 0.1833(6) -0.0907(6) 0.2434(5)
H36 H 0.1159 -0.0807 0.2421
O14 O 0.3468(4) 0.1337(4) -0.0085(4)
O15 O 0.1477(4) 0.1959(5) -0.0660(4)
O17 O -0.0137(5) -0.0160(6) 0.1860(5)
O19 O -0.1278(6) 0.2868(6) 0.0597(4)
H37 H -0.0646 0.3087 0.0585
O22 O -0.2150(4) 0.0506(6) 0.1215(4)
loop_
_geom_bond_atom_site_label_1
_geom_bond_atom_site_label_2
_geom_bond_site_symmetry_1
_geom_bond_site_symmetry_2
C1 C3 1_555 1_555
C2 C4 1_555 1_555
C3 H1 1_555 1_555
C4 H2 1_555 1_555
C5 C3 1_555 1_555
C6 C4 1_555 1_555
C7 C5 1_555 1_555
H3 C7 1_555 1_555
C8 C6 1_555 1_555
C9 C7 1_555 1_555
C10 C8 1_555 1_555
C11 C9 1_555 1_555
C12 C10 1_555 1_555
C13 C11 1_555 1_555
C14 C12 1_555 1_555
C15 C13 1_555 1_555
C16 C14 1_555 1_555
C17 C15 1_555 1_555
C18 C16 1_555 1_555
C19 C2 1_555 1_555
C20 C1 1_555 1_555
C21 C6 1_555 1_555
H4 C21 1_555 1_555
H5 C21 1_555 1_555
H6 C21 1_555 1_555
C22 C5 1_555 1_555
H7 C22 1_555 1_555
H8 C22 1_555 1_555
H9 C22 1_555 1_555
C23 C14 1_555 1_555
H10 C23 1_555 1_555
C24 C13 1_555 1_555
H11 C24 1_555 1_555
C25 C23 1_555 1_555
H12 C25 1_555 1_555
C26 C24 1_555 1_555
H13 C26 1_555 1_555
C27 C25 1_555 1_555
H14 C27 1_555 1_555
C28 C26 1_555 1_555
H15 C28 1_555 1_555
C29 C16 1_555 1_555
C30 C15 1_555 1_555
O1 C1 1_555 1_555
H16 O1 1_555 1_555
O2 C2 1_555 1_555
H17 O2 1_555 1_555
O3 C8 1_555 1_555
H18 O3 1_555 1_555
O4 C12 1_555 1_555
O5 C11 1_555 1_555
O6 C18 1_555 1_555
O7 C17 1_555 1_555
O8 C25 1_555 1_555
H19 O8 1_555 1_555
O9 C26 1_555 1_555
H20 O9 1_555 1_555
O10 C29 1_555 1_555
O11 C30 1_555 1_555
C31 C33 1_555 1_555
C32 C34 1_555 1_555
C33 H21 1_555 1_555
C34 H22 1_555 1_555
C35 C33 1_555 1_555
C36 C34 1_555 1_555
C37 C35 1_555 1_555
C38 C36 1_555 1_555
H23 C38 1_555 1_555
C39 C37 1_555 1_555
C40 C38 1_555 1_555
C41 C39 1_555 1_555
C42 C40 1_555 1_555
C43 C27 1_555 1_555
C44 C28 1_555 1_555
C45 C43 1_555 1_555
C46 C44 1_555 1_555
C47 C45 1_555 1_555
C48 C46 1_555 1_555
C49 C31 1_555 1_555
C50 C32 1_555 1_555
C51 C35 1_555 1_555
H24 C51 1_555 1_555
H25 C51 1_555 1_555
H26 C51 1_555 1_555
C52 C36 1_555 1_555
H27 C52 1_555 1_555
H28 C52 1_555 1_555
H29 C52 1_555 1_555
C53 C23 1_555 1_555
H30 C53 1_555 1_555
C54 C24 1_555 1_555
H31 C54 1_555 1_555
C55 C54 1_555 1_555
H32 C55 1_555 1_555
C56 C53 1_555 1_555
H33 C56 1_555 1_555
C57 C14 1_555 1_555
H34 C57 1_555 1_555
C58 C13 1_555 1_555
H35 C58 1_555 1_555
C59 C45 1_555 1_555
C60 C46 1_555 1_555
O12 C31 1_555 1_555
H36 O12 1_555 1_555
O13 C32 1_555 1_555
O14 C37 1_555 1_555
O15 C41 1_555 1_555
O16 C42 1_555 1_555
O17 C47 1_555 1_555
O18 C48 1_555 1_555
O19 C56 1_555 1_555
H37 O19 1_555 1_555
O20 C55 1_555 1_555
H38 O20 1_555 1_555
O21 C60 1_555 1_555
O22 C59 1_555 1_555
C9 C20 1_555 1_555
C10 C19 1_555 1_555
C17 C20 1_555 1_555
C18 C19 1_555 1_555
C27 C29 1_555 1_555
C28 C30 1_555 1_555
C39 C49 1_555 1_555
C40 C50 1_555 1_555
C41 C43 1_555 1_555
C42 C44 1_555 1_555
C43 C53 1_555 1_555
C44 C54 1_555 1_555
C47 C49 1_555 1_555
C48 C50 1_555 1_555
C55 C58 1_555 1_555
C56 C57 1_555 1_555
C57 C59 1_555 1_555
C58 C60 1_555 1_555

#END
