
#######################################################################
#
#                 Cambridge Crystallographic Data Centre
#                                CCDC 
#
#######################################################################
#
# If this CIF has been generated from an entry in the Cambridge 
# Structural Database, then it will include bibliographic, chemical, 
# crystal, experimental, refinement or atomic coordinate data resulting 
# from the CCDC's data processing and validation procedures.
#
#######################################################################

data_PACQIV
_chemical_formula_moiety         'C24 H25 N1 O5'
_chemical_name_systematic        
"(+-)-Methyl (2R)-((1R,2S,3S)-3-benzoyl-1,1'-bi(cyclopropyl)-2-yl)(((benzyloxy)carbonyl)amino)acetate"
_symmetry_cell_setting           triclinic
_symmetry_space_group_name_H-M   'P -1'
_symmetry_Int_Tables_number      2
_space_group_name_Hall           '-P 1'
loop_
_symmetry_equiv_pos_site_id
_symmetry_equiv_pos_as_xyz
1 x,y,z
2 -x,-y,-z
_cell_length_a                   10.3199(13)
_cell_length_b                   11.0111(15)
_cell_length_c                   11.5818(15)
_cell_angle_alpha                61.933(2)
_cell_angle_beta                 66.247(2)
_cell_angle_gamma                81.122(2)
_cell_volume                     1061.92
_exptl_crystal_colour            colorless
_exptl_crystal_description       block
_chemical_melting_point          '104-105 deg.C'
_cell_formula_units_Z            2
loop_
_atom_site_label
_atom_site_type_symbol
_atom_site_fract_x
_atom_site_fract_y
_atom_site_fract_z
O1 O 0.02573(15) 0.37056(13) 0.22570(13)
O2 O -0.21782(16) 0.27506(18) -0.06771(17)
O3 O -0.16156(14) 0.09556(14) 0.09847(15)
O4 O 0.10815(17) 0.21990(15) -0.33126(15)
O5 O 0.14084(14) 0.45155(14) -0.45899(12)
N1 N 0.06705(16) 0.35914(15) -0.22750(15)
H1 H 0.0685 0.4433 -0.2427
C1 C 0.06341(18) 0.20378(18) 0.14602(17)
H2 H 0.0510 0.1052 0.1775
C2 C 0.05839(18) 0.30144(17) 0.00213(17)
H3 H 0.0201 0.3909 -0.0056
C3 C 0.19716(19) 0.27663(19) 0.02000(18)
H4 H 0.2347 0.3526 0.0209
C4 C 0.00044(18) 0.25185(18) 0.25591(18)
C5 C -0.09678(18) 0.15799(18) 0.39997(18)
C6 C -0.1367(2) 0.1974(2) 0.5070(2)
H5 H -0.1003 0.2798 0.4882
C7 C -0.2300(2) 0.1149(3) 0.6408(2)
H6 H -0.2548 0.1406 0.7126
C8 C -0.2860(2) -0.0047(3) 0.6681(2)
H7 H -0.3499 -0.0595 0.7582
C9 C -0.2487(2) -0.0444(2) 0.5638(2)
H8 H -0.2881 -0.1256 0.5830
C10 C -0.1527(2) 0.0354(2) 0.4299(2)
H9 H -0.1257 0.0069 0.3599
C11 C 0.02442(19) 0.25146(18) -0.08393(17)
H10 H 0.0794 0.1703 -0.0833
C12 C -0.1320(2) 0.21112(19) -0.02048(19)
C13 C -0.3079(2) 0.0489(2) 0.1817(2)
H11 H -0.3542 0.1038 0.2301
H12 H -0.3131 -0.0459 0.2497
H13 H -0.3538 0.0576 0.1209
C14 C 0.10436(19) 0.3324(2) -0.33776(19)
C15 C 0.1891(2) 0.4399(3) -0.5882(2)
H14 H 0.1727 0.5253 -0.6608
H15 H 0.1334 0.3670 -0.5737
C16 C 0.3425(2) 0.40994(19) -0.63938(19)
C17 C 0.4029(2) 0.4125(2) -0.7712(2)
H16 H 0.3477 0.4330 -0.8242
C18 C 0.5429(3) 0.3855(2) -0.8247(2)
H17 H 0.5820 0.3877 -0.9134
C19 C 0.6245(3) 0.3554(3) -0.7477(3)
H18 H 0.7197 0.3377 -0.7842
C20 C 0.5668(2) 0.3511(3) -0.6167(3)
H19 H 0.6224 0.3292 -0.5638
C21 C 0.4261(2) 0.3791(2) -0.5628(2)
H20 H 0.3877 0.3772 -0.4742
C22 C 0.30724(19) 0.1937(2) -0.03931(19)
H21 H 0.2752 0.1011 -0.0111
C23 C 0.4162(2) 0.2640(2) -0.1850(2)
H22 H 0.4458 0.2158 -0.2428
H23 H 0.4139 0.3632 -0.2366
C24 C 0.4572(2) 0.2080(3) -0.0607(2)
H24 H 0.4800 0.2732 -0.0367
H25 H 0.5120 0.1258 -0.0429
loop_
_geom_bond_atom_site_label_1
_geom_bond_atom_site_label_2
_geom_bond_site_symmetry_1
_geom_bond_site_symmetry_2
O1 C4 1_555 1_555
O2 C12 1_555 1_555
O3 C12 1_555 1_555
O4 C14 1_555 1_555
O5 C14 1_555 1_555
N1 H1 1_555 1_555
C1 H2 1_555 1_555
C2 C1 1_555 1_555
H3 C2 1_555 1_555
C3 C1 1_555 1_555
H4 C3 1_555 1_555
C4 C1 1_555 1_555
C5 C4 1_555 1_555
C6 C5 1_555 1_555
H5 C6 1_555 1_555
C7 C6 1_555 1_555
H6 C7 1_555 1_555
C8 C7 1_555 1_555
H7 C8 1_555 1_555
C9 C8 1_555 1_555
H8 C9 1_555 1_555
C10 C5 1_555 1_555
H9 C10 1_555 1_555
C11 N1 1_555 1_555
H10 C11 1_555 1_555
C12 C11 1_555 1_555
C13 O3 1_555 1_555
H11 C13 1_555 1_555
H12 C13 1_555 1_555
H13 C13 1_555 1_555
C14 N1 1_555 1_555
C15 O5 1_555 1_555
H14 C15 1_555 1_555
H15 C15 1_555 1_555
C16 C15 1_555 1_555
C17 C16 1_555 1_555
H16 C17 1_555 1_555
C18 C17 1_555 1_555
H17 C18 1_555 1_555
C19 C18 1_555 1_555
H18 C19 1_555 1_555
C20 C19 1_555 1_555
H19 C20 1_555 1_555
C21 C16 1_555 1_555
H20 C21 1_555 1_555
C22 C3 1_555 1_555
H21 C22 1_555 1_555
C23 C22 1_555 1_555
H22 C23 1_555 1_555
H23 C23 1_555 1_555
C24 C22 1_555 1_555
H24 C24 1_555 1_555
H25 C24 1_555 1_555
C2 C3 1_555 1_555
C2 C11 1_555 1_555
C9 C10 1_555 1_555
C20 C21 1_555 1_555
C23 C24 1_555 1_555

#END
