
#######################################################################
#
#                 Cambridge Crystallographic Data Centre
#                                CCDC 
#
#######################################################################
#
# If this CIF has been generated from an entry in the Cambridge 
# Structural Database, then it will include bibliographic, chemical, 
# crystal, experimental, refinement or atomic coordinate data resulting 
# from the CCDC's data processing and validation procedures.
#
#######################################################################

data_PACQER
_chemical_formula_moiety         'C24 H25 N1 O5'
_chemical_name_systematic        
"(+-)-Methyl (2S)-((1R,2S,3S)-3-benzoyl-1,1'-bi(cyclopropyl)-2-yl)(((benzyloxy)carbonyl)amino)acetate"
_symmetry_cell_setting           monoclinic
_symmetry_space_group_name_H-M   'P 21/c'
_symmetry_Int_Tables_number      14
_space_group_name_Hall           '-P 2ybc'
loop_
_symmetry_equiv_pos_site_id
_symmetry_equiv_pos_as_xyz
1 x,y,z
2 -x,1/2+y,1/2-z
3 -x,-y,-z
4 x,1/2-y,1/2+z
_cell_length_a                   12.3697(14)
_cell_length_b                   5.3535(6)
_cell_length_c                   31.186(3)
_cell_angle_alpha                90
_cell_angle_beta                 95.010(5)
_cell_angle_gamma                90
_cell_volume                     2057.28
_exptl_crystal_colour            colorless
_exptl_crystal_description       plate
_chemical_melting_point          '84-85 deg.C'
_cell_formula_units_Z            4
loop_
_atom_site_label
_atom_site_type_symbol
_atom_site_fract_x
_atom_site_fract_y
_atom_site_fract_z
O1 O 0.4466(3) 0.8659(7) 0.32285(12)
O2 O 0.2451(3) 0.1814(7) 0.45528(12)
O3 O 0.0639(3) 1.0660(7) 0.33963(12)
O4 O 0.3499(3) 1.1725(7) 0.34971(12)
O5 O 0.0837(3) 0.7003(8) 0.30868(13)
N1 N 0.3002(3) 0.7669(8) 0.35262(13)
H1 H 0.3208 0.6128 0.3478
C1 C 0.1767(4) 0.5862(9) 0.39861(15)
H2 H 0.1911 0.4200 0.3856
C2 C 0.0895(4) 0.5876(10) 0.42811(16)
H3 H 0.0551 0.4210 0.4320
C3 C 0.2070(4) 0.6051(9) 0.44635(15)
H4 H 0.2316 0.7734 0.4571
C4 C 0.1993(4) 0.8070(9) 0.37128(15)
H5 H 0.2061 0.9594 0.3899
C5 C 0.3636(4) 0.9554(10) 0.34232(15)
C6 C 0.5262(4) 1.0425(11) 0.31114(19)
H6 H 0.5515 1.1471 0.3362
H7 H 0.4950 1.1529 0.2878
C7 C 0.6177(4) 0.8946(10) 0.29639(16)
C8 C 0.6570(5) 0.6914(12) 0.31960(19)
H8 H 0.6264 0.6487 0.3455
C9 C 0.7389(5) 0.5502(12) 0.3063(2)
H9 H 0.7643 0.4086 0.3225
C10 C 0.7845(4) 0.6125(12) 0.26937(19)
H10 H 0.8413 0.5134 0.2597
C11 C 0.7485(4) 0.8167(12) 0.24649(17)
H11 H 0.7817 0.8633 0.2213
C12 C 0.6638(4) 0.9564(11) 0.25972(17)
H12 H 0.6375 1.0962 0.2432
C13 C 0.0166(4) 0.8018(11) 0.43260(17)
H13 H 0.0505 0.9711 0.4315
C14 C -0.0737(5) 0.7762(15) 0.4614(2)
H14 H -0.0812 0.6147 0.4763
H15 H -0.0931 0.9250 0.4779
C15 C -0.0982(5) 0.7817(17) 0.4140(2)
H16 H -0.1330 0.9338 0.4011
H17 H -0.1211 0.6236 0.3995
C16 C 0.2593(4) 0.3913(9) 0.46876(16)
C17 C 0.1091(4) 0.8472(10) 0.33614(16)
C18 C -0.0248(5) 1.1249(12) 0.3085(2)
H18 H -0.0014 1.1066 0.2794
H19 H -0.0482 1.2974 0.3127
H20 H -0.0854 1.0110 0.3121
C19 C 0.3317(4) 0.4382(10) 0.50801(16)
C20 C 0.3223(5) 0.6477(10) 0.53309(16)
H21 H 0.2673 0.7670 0.5252
C21 C 0.3920(5) 0.6862(11) 0.56946(17)
H22 H 0.3842 0.8289 0.5870
C22 C 0.4730(5) 0.5155(11) 0.58001(17)
H23 H 0.5224 0.5438 0.6046
C23 C 0.4835(4) 0.3063(11) 0.55581(17)
H24 H 0.5398 0.1896 0.5634
C24 C 0.4116(4) 0.2657(10) 0.52011(16)
H25 H 0.4171 0.1174 0.5037
loop_
_geom_bond_atom_site_label_1
_geom_bond_atom_site_label_2
_geom_bond_site_symmetry_1
_geom_bond_site_symmetry_2
O1 C5 1_555 1_555
O2 C16 1_555 1_555
O3 C17 1_555 1_555
O4 C5 1_555 1_555
O5 C17 1_555 1_555
N1 H1 1_555 1_555
C1 H2 1_555 1_555
C2 C1 1_555 1_555
H3 C2 1_555 1_555
C3 C1 1_555 1_555
H4 C3 1_555 1_555
C4 N1 1_555 1_555
H5 C4 1_555 1_555
C5 N1 1_555 1_555
C6 O1 1_555 1_555
H6 C6 1_555 1_555
H7 C6 1_555 1_555
C7 C6 1_555 1_555
C8 C7 1_555 1_555
H8 C8 1_555 1_555
C9 C8 1_555 1_555
H9 C9 1_555 1_555
C10 C9 1_555 1_555
H10 C10 1_555 1_555
C11 C10 1_555 1_555
H11 C11 1_555 1_555
C12 C7 1_555 1_555
H12 C12 1_555 1_555
C13 C2 1_555 1_555
H13 C13 1_555 1_555
C14 C13 1_555 1_555
H14 C14 1_555 1_555
H15 C14 1_555 1_555
C15 C13 1_555 1_555
H16 C15 1_555 1_555
H17 C15 1_555 1_555
C16 C3 1_555 1_555
C17 C4 1_555 1_555
C18 O3 1_555 1_555
H18 C18 1_555 1_555
H19 C18 1_555 1_555
H20 C18 1_555 1_555
C19 C16 1_555 1_555
C20 C19 1_555 1_555
H21 C20 1_555 1_555
C21 C20 1_555 1_555
H22 C21 1_555 1_555
C22 C21 1_555 1_555
H23 C22 1_555 1_555
C23 C22 1_555 1_555
H24 C23 1_555 1_555
C24 C19 1_555 1_555
H25 C24 1_555 1_555
C1 C4 1_555 1_555
C2 C3 1_555 1_555
C11 C12 1_555 1_555
C14 C15 1_555 1_555
C23 C24 1_555 1_555

#END
