
#######################################################################
#
#                 Cambridge Crystallographic Data Centre
#                                CCDC 
#
#######################################################################
#
# If this CIF has been generated from an entry in the Cambridge 
# Structural Database, then it will include bibliographic, chemical, 
# crystal, experimental, refinement or atomic coordinate data resulting 
# from the CCDC's data processing and validation procedures.
#
#######################################################################

data_PADSAR
_chemical_name_common            
7-chloro-4-(4-methoxyphenyl)-1-methylindoline-2,3-dione
_chemical_formula_moiety         'C16 H12 Cl1 N1 O3'
_chemical_name_systematic        
7-chloro-4-(4-methoxyphenyl)-1-methyl-1H-indole-2,3-dione
_symmetry_cell_setting           orthorhombic
_symmetry_space_group_name_H-M   'P 21 21 21'
_symmetry_Int_Tables_number      19
_space_group_name_Hall           'P 2ac 2ab'
loop_
_symmetry_equiv_pos_site_id
_symmetry_equiv_pos_as_xyz
1 x,y,z
2 1/2-x,-y,1/2+z
3 -x,1/2+y,1/2-z
4 1/2+x,1/2-y,-z
_cell_length_a                   7.3328(3)
_cell_length_b                   9.2003(4)
_cell_length_c                   19.7779(8)
_cell_angle_alpha                90
_cell_angle_beta                 90
_cell_angle_gamma                90
_cell_volume                     1334.3
_exptl_crystal_colour            red
_exptl_crystal_description       block
_cell_formula_units_Z            4
loop_
_atom_site_label
_atom_site_type_symbol
_atom_site_fract_x
_atom_site_fract_y
_atom_site_fract_z
Cl1 Cl 0.58278(5) 0.43247(4) -0.233486(17)
N1 N 0.39662(16) 0.31926(13) -0.09327(6)
O1 O 0.24412(16) 0.19788(12) -0.00819(6)
O2 O 0.33720(15) 0.45543(12) 0.06901(5)
O3 O 0.56723(16) 1.01524(13) 0.20488(5)
C1 C 0.55179(17) 0.52304(16) -0.15684(6)
C2 C 0.60876(18) 0.66701(16) -0.15288(7)
H1 H 0.6580 0.7127 -0.1919
C3 C 0.59526(19) 0.74468(16) -0.09355(7)
H2 H 0.6319 0.8437 -0.0928
C4 C 0.52843(17) 0.68038(15) -0.03417(7)
C5 C 0.46733(17) 0.53698(14) -0.03906(6)
C6 C 0.37603(17) 0.44099(15) 0.01007(6)
C7 C 0.32813(18) 0.30172(15) -0.02971(7)
C8 C 0.47587(17) 0.45794(15) -0.10043(6)
C9 C 0.3792(3) 0.20564(18) -0.14363(8)
H3 H 0.3117 0.1235 -0.1244
H4 H 0.5008 0.1731 -0.1576
H5 H 0.3133 0.2434 -0.1830
C10 C 0.53273(18) 0.76353(15) 0.02995(7)
C11 C 0.48300(17) 0.91084(15) 0.03123(7)
H6 H 0.4406 0.9558 -0.0091
C12 C 0.49447(18) 0.99186(16) 0.09005(7)
H7 H 0.4592 1.0912 0.0901
C13 C 0.55826(17) 0.92652(17) 0.14935(7)
C14 C 0.60875(19) 0.78115(16) 0.14913(7)
H8 H 0.6521 0.7366 0.1894
C15 C 0.59564(18) 0.70112(16) 0.08978(7)
H9 H 0.6303 0.6016 0.0900
C16 C 0.6105(2) 0.9489(2) 0.26805(7)
H10 H 0.5227 0.8712 0.2775
H11 H 0.6048 1.0220 0.3040
H12 H 0.7337 0.9080 0.2660
loop_
_geom_bond_atom_site_label_1
_geom_bond_atom_site_label_2
_geom_bond_site_symmetry_1
_geom_bond_site_symmetry_2
Cl1 C1 1_555 1_555
N1 C7 1_555 1_555
O1 C7 1_555 1_555
O2 C6 1_555 1_555
O3 C13 1_555 1_555
C1 C2 1_555 1_555
C2 H1 1_555 1_555
C3 C2 1_555 1_555
H2 C3 1_555 1_555
C4 C3 1_555 1_555
C5 C4 1_555 1_555
C6 C5 1_555 1_555
C7 C6 1_555 1_555
C8 N1 1_555 1_555
C9 N1 1_555 1_555
H3 C9 1_555 1_555
H4 C9 1_555 1_555
H5 C9 1_555 1_555
C10 C4 1_555 1_555
C11 C10 1_555 1_555
H6 C11 1_555 1_555
C12 C11 1_555 1_555
H7 C12 1_555 1_555
C13 C12 1_555 1_555
C14 C13 1_555 1_555
H8 C14 1_555 1_555
C15 C10 1_555 1_555
H9 C15 1_555 1_555
C16 O3 1_555 1_555
H10 C16 1_555 1_555
H11 C16 1_555 1_555
H12 C16 1_555 1_555
C1 C8 1_555 1_555
C5 C8 1_555 1_555
C14 C15 1_555 1_555

#END
