
#######################################################################
#
#                 Cambridge Crystallographic Data Centre
#                                CCDC 
#
#######################################################################
#
# If this CIF has been generated from an entry in the Cambridge 
# Structural Database, then it will include bibliographic, chemical, 
# crystal, experimental, refinement or atomic coordinate data resulting 
# from the CCDC's data processing and validation procedures.
#
#######################################################################

data_PAFGOV
_chemical_formula_moiety         'C17 H14 Br1 N1 O5 S1'
_chemical_name_systematic        
3-bromo-3'-((4-methylphenyl)sulfonyl)-2'H,3H-spiro[1-benzofuran-2,4'-[1,3]oxazolidin]-2'-one
_symmetry_cell_setting           monoclinic
_symmetry_space_group_name_H-M   'P 21'
_symmetry_Int_Tables_number      4
_space_group_name_Hall           'P 2yb'
loop_
_symmetry_equiv_pos_site_id
_symmetry_equiv_pos_as_xyz
1 x,y,z
2 -x,1/2+y,-z
_cell_length_a                   8.091(6)
_cell_length_b                   6.973(5)
_cell_length_c                   15.224(11)
_cell_angle_alpha                90
_cell_angle_beta                 101.811(9)
_cell_angle_gamma                90
_cell_volume                     840.731
_exptl_crystal_colour            colorless
_exptl_crystal_description       Prism
_cell_formula_units_Z            2
loop_
_atom_site_label
_atom_site_type_symbol
_atom_site_fract_x
_atom_site_fract_y
_atom_site_fract_z
Br1 Br 0.73677(6) 0.34107(9) 1.01558(4)
S1 S 0.76878(17) 0.6779(2) 0.70710(10)
O1 O 0.5265(4) 0.7010(6) 0.8550(3)
O2 O 0.8340(6) 0.9347(6) 0.9339(3)
O3 O 0.8998(6) 1.0411(7) 0.8073(4)
O4 O 0.9186(5) 0.7434(8) 0.6803(4)
O5 O 0.7238(6) 0.4794(7) 0.7018(3)
N1 N 0.7967(6) 0.7296(7) 0.8179(4)
C1 C 0.7019(6) 0.6448(8) 0.8813(4)
C2 C 0.7023(6) 0.4231(8) 0.8883(4)
H1 H 0.7850 0.3647 0.8575
C3 C 0.5245(6) 0.3706(8) 0.8448(4)
C4 C 0.4457(7) 0.1959(10) 0.8250(5)
H2 H 0.5074 0.0825 0.8340
C5 C 0.2728(8) 0.1922(11) 0.7916(5)
H3 H 0.2184 0.0751 0.7781
C6 C 0.1803(6) 0.3602(12) 0.7780(4)
H4 H 0.0646 0.3544 0.7554
C7 C 0.2575(7) 0.5385(9) 0.7976(4)
H5 H 0.1963 0.6522 0.7883
C8 C 0.4305(7) 0.5375(9) 0.8316(4)
C9 C 0.7830(8) 0.7546(9) 0.9664(5)
H6 H 0.7025 0.7745 1.0047
H7 H 0.8798 0.6855 0.9998
C10 C 0.8502(7) 0.9158(9) 0.8481(5)
C11 C 0.5968(7) 0.8153(10) 0.6533(4)
C12 C 0.4358(8) 0.7289(12) 0.6362(4)
H8 H 0.4229 0.6007 0.6503
C13 C 0.2978(7) 0.8392(17) 0.5982(4)
H9 H 0.1908 0.7842 0.5860
C14 C 0.3169(9) 1.0344(13) 0.5774(5)
C15 C 0.4773(9) 1.1120(11) 0.5914(5)
H10 H 0.4916 1.2383 0.5748
C16 C 0.6174(8) 1.0035(11) 0.6297(5)
H11 H 0.7247 1.0575 0.6394
C17 C 0.1615(12) 1.1535(19) 0.5417(6)
H12 H 0.0918 1.0882 0.4921
H13 H 0.1949 1.2757 0.5220
H14 H 0.0991 1.1723 0.5883
loop_
_geom_bond_atom_site_label_1
_geom_bond_atom_site_label_2
_geom_bond_site_symmetry_1
_geom_bond_site_symmetry_2
Br1 C2 1_555 1_555
S1 O4 1_555 1_555
O1 C1 1_555 1_555
O2 C9 1_555 1_555
O3 C10 1_555 1_555
O5 S1 1_555 1_555
N1 S1 1_555 1_555
C1 N1 1_555 1_555
C2 C1 1_555 1_555
H1 C2 1_555 1_555
C3 C2 1_555 1_555
C4 C3 1_555 1_555
H2 C4 1_555 1_555
C5 C4 1_555 1_555
H3 C5 1_555 1_555
C6 C5 1_555 1_555
H4 C6 1_555 1_555
C7 C6 1_555 1_555
H5 C7 1_555 1_555
C8 O1 1_555 1_555
C9 C1 1_555 1_555
H6 C9 1_555 1_555
H7 C9 1_555 1_555
C10 O2 1_555 1_555
C11 S1 1_555 1_555
C12 C11 1_555 1_555
H8 C12 1_555 1_555
C13 C12 1_555 1_555
H9 C13 1_555 1_555
C14 C13 1_555 1_555
C15 C14 1_555 1_555
H10 C15 1_555 1_555
C16 C11 1_555 1_555
H11 C16 1_555 1_555
C17 C14 1_555 1_555
H12 C17 1_555 1_555
H13 C17 1_555 1_555
H14 C17 1_555 1_555
N1 C10 1_555 1_555
C3 C8 1_555 1_555
C7 C8 1_555 1_555
C15 C16 1_555 1_555

#END
