
#######################################################################
#
#                 Cambridge Crystallographic Data Centre
#                                CCDC 
#
#######################################################################
#
# If this CIF has been generated from an entry in the Cambridge 
# Structural Database, then it will include bibliographic, chemical, 
# crystal, experimental, refinement or atomic coordinate data resulting 
# from the CCDC's data processing and validation procedures.
#
#######################################################################

data_PAFHAI
_chemical_formula_moiety         'C17 H12 Br1 F2 N1 O5 S1'
_chemical_name_systematic        
3-bromo-5,6-difluoro-3'-((4-methylphenyl)sulfonyl)-2'H,3H-spiro[1-benzofuran-2,4'-[1,3]oxazolidin]-2'-one
_symmetry_cell_setting           orthorhombic
_symmetry_space_group_name_H-M   'P 21 21 21'
_symmetry_Int_Tables_number      19
_space_group_name_Hall           'P 2ac 2ab'
loop_
_symmetry_equiv_pos_site_id
_symmetry_equiv_pos_as_xyz
1 x,y,z
2 1/2-x,-y,1/2+z
3 -x,1/2+y,1/2-z
4 1/2+x,1/2-y,-z
_cell_length_a                   6.8957(19)
_cell_length_b                   12.551(3)
_cell_length_c                   22.629(6)
_cell_angle_alpha                90
_cell_angle_beta                 90
_cell_angle_gamma                90
_cell_volume                     1958.49
_exptl_crystal_colour            colorless
_exptl_crystal_description       rod
_cell_formula_units_Z            4
loop_
_atom_site_label
_atom_site_type_symbol
_atom_site_fract_x
_atom_site_fract_y
_atom_site_fract_z
Br1 Br 0.92438(8) -0.00463(4) 0.60413(2)
S1 S 0.58794(15) 0.27526(8) 0.74492(4)
F1 F 1.1908(4) 0.4032(3) 0.53434(14)
F2 F 0.8486(4) 0.4681(2) 0.49254(12)
O1 O 0.5416(4) 0.1944(2) 0.60574(13)
O2 O 0.3338(5) 0.0280(3) 0.68139(16)
O3 O 0.2280(5) 0.1369(3) 0.75272(17)
O4 O 0.7854(4) 0.2941(2) 0.72910(14)
O5 O 0.5329(5) 0.2591(3) 0.80498(13)
N1 N 0.5312(5) 0.1605(3) 0.70880(15)
C1 C 0.6116(6) 0.1246(3) 0.65217(17)
C2 C 0.8347(6) 0.1236(3) 0.64659(18)
H1 H 0.8978 0.1307 0.6852
C3 C 0.8725(6) 0.2185(3) 0.60805(18)
C4 C 1.0431(6) 0.2684(4) 0.59207(18)
H2 H 1.1621 0.2469 0.6073
C5 C 1.0288(7) 0.3524(4) 0.5520(2)
C6 C 0.8531(7) 0.3845(4) 0.53033(18)
C7 C 0.6809(7) 0.3358(3) 0.54545(18)
H3 H 0.5621 0.3577 0.5303
C8 C 0.6980(6) 0.2519(3) 0.58502(17)
C9 C 0.5083(7) 0.0172(3) 0.64700(19)
H4 H 0.4777 0.0016 0.6061
H5 H 0.5890 -0.0396 0.6625
C10 C 0.3492(7) 0.1117(4) 0.7187(2)
C11 C 0.4400(6) 0.3740(3) 0.71359(17)
C12 C 0.5193(7) 0.4438(4) 0.67220(19)
H6 H 0.6488 0.4379 0.6612
C13 C 0.4037(7) 0.5214(3) 0.64785(18)
H7 H 0.4563 0.5676 0.6200
C14 C 0.2094(7) 0.5327(4) 0.6639(2)
C15 C 0.1351(7) 0.4629(4) 0.7061(2)
H8 H 0.0061 0.4698 0.7176
C16 C 0.2471(6) 0.3840(4) 0.73147(19)
H9 H 0.1953 0.3385 0.7598
C17 C 0.0837(10) 0.6164(4) 0.6354(2)
H10 H 0.1475 0.6843 0.6375
H11 H -0.0383 0.6202 0.6557
H12 H 0.0618 0.5980 0.5948
loop_
_geom_bond_atom_site_label_1
_geom_bond_atom_site_label_2
_geom_bond_site_symmetry_1
_geom_bond_site_symmetry_2
Br1 C2 1_555 1_555
S1 O4 1_555 1_555
F1 C5 1_555 1_555
F2 C6 1_555 1_555
O1 C1 1_555 1_555
O2 C9 1_555 1_555
O3 C10 1_555 1_555
O5 S1 1_555 1_555
N1 S1 1_555 1_555
C1 N1 1_555 1_555
C2 C1 1_555 1_555
H1 C2 1_555 1_555
C3 C2 1_555 1_555
C4 C3 1_555 1_555
H2 C4 1_555 1_555
C5 C4 1_555 1_555
C6 C5 1_555 1_555
C7 C6 1_555 1_555
H3 C7 1_555 1_555
C8 O1 1_555 1_555
C9 C1 1_555 1_555
H4 C9 1_555 1_555
H5 C9 1_555 1_555
C10 O2 1_555 1_555
C11 S1 1_555 1_555
C12 C11 1_555 1_555
H6 C12 1_555 1_555
C13 C12 1_555 1_555
H7 C13 1_555 1_555
C14 C13 1_555 1_555
C15 C14 1_555 1_555
H8 C15 1_555 1_555
C16 C11 1_555 1_555
H9 C16 1_555 1_555
C17 C14 1_555 1_555
H10 C17 1_555 1_555
H11 C17 1_555 1_555
H12 C17 1_555 1_555
N1 C10 1_555 1_555
C3 C8 1_555 1_555
C7 C8 1_555 1_555
C15 C16 1_555 1_555

#END
