
#######################################################################
#
#                 Cambridge Crystallographic Data Centre
#                                CCDC 
#
#######################################################################
#
# If this CIF has been generated from an entry in the Cambridge 
# Structural Database, then it will include bibliographic, chemical, 
# crystal, experimental, refinement or atomic coordinate data resulting 
# from the CCDC's data processing and validation procedures.
#
#######################################################################

data_PAFYIG
_chemical_formula_moiety         'C88 H80 N4 O12,3(C3 H7 N1 O1)'
_chemical_name_systematic        
'2,8,14,20-tetrahexyl-(4,24:12,16)-bis(benzoquinone-1,4-diolato)-(6,10:18,22)-bis(quinoxaline-1,4-diolato)resorcin(4)arene tris(dimethylformamide) clathrate'
_symmetry_cell_setting           monoclinic
_symmetry_space_group_name_H-M   'P 21/c'
_symmetry_Int_Tables_number      14
_space_group_name_Hall           '-P 2ybc'
loop_
_symmetry_equiv_pos_site_id
_symmetry_equiv_pos_as_xyz
1 x,y,z
2 -x,1/2+y,1/2-z
3 -x,-y,-z
4 x,1/2-y,1/2+z
_cell_length_a                   19.5074(8)
_cell_length_b                   18.4131(6)
_cell_length_c                   24.5390(10)
_cell_angle_alpha                90
_cell_angle_beta                 110.375(2)
_cell_angle_gamma                90
_cell_volume                     8262.74
_exptl_crystal_colour            yellow
_exptl_crystal_description       needle
_cell_formula_units_Z            4
loop_
_atom_site_label
_atom_site_type_symbol
_atom_site_fract_x
_atom_site_fract_y
_atom_site_fract_z
O1 O 0.0077(4) 0.4126(5) 0.1082(3)
O2 O 0.0983(4) 0.4348(5) 0.0491(3)
O3 O 0.0312(4) 0.3957(5) 0.3110(3)
O4 O -0.0117(5) 0.2631(5) 0.2624(4)
O5 O 0.2159(6) 0.2761(5) 0.4595(4)
O6 O 0.1457(4) 0.4034(5) 0.4119(3)
N1 N 0.3982(5) 0.3095(5) 0.4358(4)
N2 N 0.4881(5) 0.3328(5) 0.3696(4)
O7 O 0.4927(4) 0.4527(4) 0.3931(3)
O8 O 0.4068(4) 0.4309(4) 0.4577(3)
O9 O 0.4659(4) 0.4921(4) 0.1925(3)
O10 O 0.3522(4) 0.4953(4) 0.0894(3)
O11 O 0.5379(5) 0.3620(4) 0.2263(4)
O12 O 0.3295(5) 0.3777(4) 0.0194(4)
N4 N 0.1364(6) 0.3148(6) 0.0607(5)
N5 N 0.0414(6) 0.2929(6) 0.1214(5)
C1 C 0.0978(7) 0.3656(8) 0.0705(6)
C2 C 0.1292(8) 0.2487(8) 0.0810(6)
C3 C 0.1708(10) 0.1882(9) 0.0727(7)
C4 C 0.1614(11) 0.1214(10) 0.0898(8)
C5 C 0.1149(11) 0.1128(10) 0.1233(8)
C6 C 0.0758(9) 0.1673(8) 0.1342(7)
C7 C 0.0836(8) 0.2354(8) 0.1138(6)
C8 C 0.0480(7) 0.3551(8) 0.1007(6)
C9 C 0.0335(7) 0.4432(6) 0.1640(5)
C10 C 0.0686(6) 0.5060(6) 0.1733(5)
C11 C 0.0801(6) 0.5458(7) 0.1230(5)
C12 C 0.1545(6) 0.5310(5) 0.1170(5)
C13 C 0.1595(7) 0.4762(6) 0.0793(5)
C14 C 0.0213(7) 0.4061(6) 0.2090(5)
C15 C 0.0462(7) 0.4337(6) 0.2642(5)
C16 C 0.0833(6) 0.4975(6) 0.2763(5)
C17 C 0.0961(6) 0.5346(6) 0.2301(5)
C18 C 0.0701(8) 0.3331(7) 0.3320(6)
C19 C 0.0466(9) 0.2634(7) 0.3042(7)
C20 C 0.0872(8) 0.1991(7) 0.3268(6)
C21 C 0.0722(8) 0.1335(7) 0.3001(6)
C22 C 0.1080(9) 0.0723(8) 0.3219(7)
C23 C 0.1656(9) 0.0753(8) 0.3742(7)
C24 C 0.1860(9) 0.1375(8) 0.4058(8)
C25 C 0.1476(8) 0.2027(7) 0.3818(6)
C26 C 0.1662(8) 0.2717(7) 0.4106(7)
C27 C 0.1287(8) 0.3374(7) 0.3839(6)
C28 C 0.2054(7) 0.4409(6) 0.4037(5)
C29 C 0.1927(6) 0.5036(6) 0.3714(5)
C30 C 0.1137(7) 0.5302(6) 0.3386(5)
C31 C 0.2756(6) 0.4174(6) 0.4332(5)
C32 C 0.3340(6) 0.4562(5) 0.4265(5)
C33 C 0.3228(6) 0.5188(5) 0.3947(4)
C34 C 0.2511(6) 0.5400(5) 0.3657(5)
C35 C 0.4234(6) 0.3710(6) 0.4305(5)
C36 C 0.4152(7) 0.2530(7) 0.4071(5)
C37 C 0.3915(8) 0.1831(7) 0.4128(6)
C38 C 0.4082(9) 0.1264(9) 0.3838(7)
C39 C 0.4568(9) 0.1382(8) 0.3530(7)
C40 C 0.4839(8) 0.2049(7) 0.3489(6)
C41 C 0.4648(7) 0.2655(7) 0.3754(5)
C42 C 0.4683(6) 0.3839(7) 0.3958(5)
C43 C 0.4576(6) 0.4880(5) 0.3402(5)
C44 C 0.4068(6) 0.5416(5) 0.3365(4)
C45 C 0.3891(6) 0.5617(5) 0.3918(5)
C46 C 0.4763(6) 0.4708(5) 0.2911(5)
C47 C 0.4423(6) 0.5066(5) 0.2407(4)
C48 C 0.3907(6) 0.5600(5) 0.2341(4)
C49 C 0.3727(6) 0.5765(5) 0.2839(4)
C50 C 0.4415(6) 0.4304(5) 0.1611(5)
C51 C 0.4815(7) 0.3635(6) 0.1831(6)
C52 C 0.4546(6) 0.2946(5) 0.1505(5)
C53 C 0.4803(7) 0.2274(6) 0.1734(6)
C54 C 0.4535(7) 0.1664(7) 0.1422(6)
C55 C 0.4029(7) 0.1689(6) 0.0875(6)
C56 C 0.3767(7) 0.2350(6) 0.0639(5)
C57 C 0.4013(6) 0.2987(6) 0.0952(5)
C58 C 0.3698(7) 0.3686(6) 0.0708(6)
C59 C 0.3883(6) 0.4320(6) 0.1103(5)
C60 C 0.2861(6) 0.5053(5) 0.1006(5)
C61 C 0.2854(6) 0.5582(5) 0.1415(5)
C62 C 0.3534(6) 0.5984(5) 0.1769(5)
C63 C 0.2281(6) 0.4641(6) 0.0709(5)
C64 C 0.2157(6) 0.5691(5) 0.1481(5)
C65 C 0.0669(7) 0.6282(7) 0.1241(5)
C66 C 0.0663(8) 0.6688(7) 0.0707(6)
C67 C 0.0416(13) 0.8768(10) 0.0627(11)
C68 C 0.074(2) 0.9277(17) 0.0293(17)
C69 C 0.1082(7) 0.6117(6) 0.3384(5)
C70 C 0.1312(8) 0.6497(6) 0.3966(6)
C71 C 0.1413(8) 0.7328(6) 0.3891(6)
C72 C 0.1626(8) 0.7784(7) 0.4404(6)
C73 C 0.1763(9) 0.8565(7) 0.4259(7)
C74 C 0.2035(10) 0.8999(9) 0.4791(8)
C75 C 0.3800(7) 0.6440(5) 0.3960(5)
C76 C 0.3806(7) 0.6657(6) 0.4568(5)
C77 C 0.3681(8) 0.7469(6) 0.4628(6)
C78 C 0.4216(7) 0.7967(6) 0.4518(6)
C79 C 0.4116(9) 0.8775(7) 0.4647(7)
C80 C 0.4573(10) 0.9264(9) 0.4478(8)
C81 C 0.3384(6) 0.6796(5) 0.1838(5)
C82 C 0.3142(7) 0.7227(6) 0.1272(5)
C83 C 0.3097(7) 0.8018(6) 0.1392(5)
C84 C 0.2963(8) 0.8509(6) 0.0862(6)
C85 C 0.2944(7) 0.9313(6) 0.1005(6)
C86 C 0.2888(9) 0.9782(7) 0.0491(7)
C96 C 0.0255(13) 0.7379(10) 0.0481(12)
C97 C 0.0690(13) 0.7985(11) 0.0895(10)
H1 H 0.2060 0.1959 0.0546
H2 H 0.1848 0.0807 0.0800
H3 H 0.1115 0.0661 0.1386
H4 H 0.0439 0.1592 0.1553
H5 H 0.0422 0.5269 0.0868
H6 H -0.0044 0.3613 0.2015
H7 H 0.1232 0.5786 0.2374
H8 H 0.0337 0.1310 0.2636
H9 H 0.0941 0.0276 0.3019
H10 H 0.1921 0.0320 0.3887
H11 H 0.2244 0.1376 0.4425
H12 H 0.0825 0.5113 0.3603
H13 H 0.2842 0.3758 0.4575
H14 H 0.2422 0.5812 0.3409
H15 H 0.3634 0.1747 0.4370
H16 H 0.3877 0.0797 0.3842
H17 H 0.4706 0.0982 0.3347
H18 H 0.5163 0.2108 0.3280
H19 H 0.4322 0.5469 0.4262
H20 H 0.5120 0.4347 0.2934
H21 H 0.3366 0.6123 0.2812
H22 H 0.5167 0.2238 0.2110
H23 H 0.4706 0.1205 0.1591
H24 H 0.3860 0.1255 0.0662
H25 H 0.3415 0.2374 0.0257
H26 H 0.3877 0.5962 0.1547
H27 H 0.2324 0.4278 0.0448
H28 H 0.2120 0.6043 0.1752
H29 H 0.0195 0.6361 0.1294
H30 H 0.1056 0.6492 0.1582
H31 H 0.1181 0.6792 0.0765
H32 H 0.0493 0.6336 0.0383
H34 H -0.0124 0.8770 0.0506
H35 H 0.1269 0.9312 0.0493
H36 H 0.0520 0.9760 0.0271
H37 H 0.0637 0.9088 -0.0101
H38 H 0.0567 0.6251 0.3165
H39 H 0.1382 0.6312 0.3165
H40 H 0.1777 0.6286 0.4227
H41 H 0.0936 0.6421 0.4147
H42 H 0.1785 0.7386 0.3705
H43 H 0.0946 0.7519 0.3616
H44 H 0.2076 0.7586 0.4697
H45 H 0.1234 0.7779 0.4574
H46 H 0.2127 0.8569 0.4060
H47 H 0.1303 0.8779 0.3992
H48 H 0.2061 0.9511 0.4690
H49 H 0.2523 0.8829 0.5030
H50 H 0.1702 0.8948 0.5009
H51 H 0.3333 0.6594 0.3663
H52 H 0.4203 0.6692 0.3880
H53 H 0.3420 0.6381 0.4654
H54 H 0.4283 0.6518 0.4860
H55 H 0.3188 0.7594 0.4354
H56 H 0.3683 0.7560 0.5026
H57 H 0.4175 0.7921 0.4106
H58 H 0.4715 0.7813 0.4761
H59 H 0.3599 0.8913 0.4443
H60 H 0.4218 0.8831 0.5070
H61 H 0.4476 0.9214 0.4060
H62 H 0.5087 0.9149 0.4693
H63 H 0.4471 0.9763 0.4564
H64 H 0.3000 0.6835 0.2015
H65 H 0.3834 0.7020 0.2111
H66 H 0.3495 0.7151 0.1069
H67 H 0.2657 0.7052 0.1015
H68 H 0.3560 0.8167 0.1697
H69 H 0.2698 0.8093 0.1548
H70 H 0.3355 0.8426 0.0699
H71 H 0.2492 0.8373 0.0561
H72 H 0.2521 0.9408 0.1128
H73 H 0.3395 0.9440 0.1332
H74 H 0.2391 0.9753 0.0206
H75 H 0.3238 0.9614 0.0313
H76 H 0.2998 1.0287 0.0619
H98 H -0.0250 0.7350 0.0485
H99 H 0.0233 0.7473 0.0078
H100 H 0.1217 0.7932 0.0959
H101 H 0.0624 0.7938 0.1276
N3 N 0.2595(7) 0.3327(8) 0.2401(5)
C90 C 0.2616(11) 0.4036(11) 0.2511(8)
C91 C 0.3119(16) 0.3118(11) 0.2106(9)
O15 O 0.1827(13) 0.2897(11) 0.2764(11)
C95 C 0.219(2) 0.294(2) 0.2588(16)
H84 H 0.2283 0.4147 0.2720
H85 H 0.2464 0.4306 0.2144
H86 H 0.3115 0.4176 0.2749
H87 H 0.3321 0.2637 0.2241
H88 H 0.3517 0.3474 0.2199
H89 H 0.2862 0.3106 0.1684
H97 H 0.2308 0.2450 0.2522
N6 N 0.2196(6) 0.8096(6) 0.2675(4)
C87 C 0.1873(8) 0.7452(8) 0.2562(5)
O13 O 0.2204(5) 0.6877(5) 0.2636(4)
C88 C 0.1761(9) 0.8762(8) 0.2576(6)
C89 C 0.2995(8) 0.8208(8) 0.2922(7)
H77 H 0.1353 0.7438 0.2415
H78 H 0.1885 0.9072 0.2300
H79 H 0.1866 0.9022 0.2945
H80 H 0.1240 0.8639 0.2418
H81 H 0.3125 0.8423 0.3310
H82 H 0.3147 0.8534 0.2669
H83 H 0.3244 0.7739 0.2950
N7 N 0.3179(11) 0.0634(13) 0.2571(10)
O14 O 0.3170(14) -0.0161(13) 0.3217(12)
C92 C 0.351(3) -0.004(2) 0.283(2)
C93 C 0.353(2) 0.0930(17) 0.2175(15)
C94 C 0.2659(16) 0.1136(17) 0.2688(14)
H90 H 0.3871 -0.0329 0.2743
H91 H 0.3216 0.1307 0.1930
H92 H 0.3602 0.0539 0.1929
H93 H 0.4004 0.1141 0.2403
H94 H 0.2892 0.1365 0.3069
H95 H 0.2225 0.0867 0.2687
H96 H 0.2515 0.1512 0.2387
H33? H 0.0536 0.8814 0.0269
C98? C 0.051(2) 0.7492(10) 0.0827(14)
C99? C 0.0658(17) 0.8053(11) 0.0423(12)
C100? C 0.069(3) 0.944(2) 0.098(2)
H102? H 0.0274 0.6501 0.0356
H103? H 0.1140 0.6644 0.0651
H104? H -0.0009 0.7534 0.0796
H105? H 0.0814 0.7613 0.1233
H106? H 0.0366 0.7950 0.0011
H107? H 0.1183 0.8066 0.0470
H108? H -0.0123 0.8811 0.0503
H109? H 0.0638 0.8836 0.1053
H110? H 0.0643 0.9387 0.1361
H111? H 0.1198 0.9525 0.1021
H112? H 0.0390 0.9858 0.0776
loop_
_geom_bond_atom_site_label_1
_geom_bond_atom_site_label_2
_geom_bond_site_symmetry_1
_geom_bond_site_symmetry_2
O1 C8 1_555 1_555
O2 C1 1_555 1_555
O3 C15 1_555 1_555
O4 C19 1_555 1_555
O5 C26 1_555 1_555
O6 C27 1_555 1_555
N1 C35 1_555 1_555
N2 C41 1_555 1_555
O7 C42 1_555 1_555
O8 C32 1_555 1_555
O9 C47 1_555 1_555
O10 C59 1_555 1_555
O11 C51 1_555 1_555
O12 C58 1_555 1_555
N3 C90 1_555 1_555
N4 C1 1_555 1_555
N5 C7 1_555 1_555
N6 C87 1_555 1_555
C1 C8 1_555 1_555
C2 N4 1_555 1_555
C3 C2 1_555 1_555
C4 C3 1_555 1_555
C5 C4 1_555 1_555
C6 C5 1_555 1_555
C7 C2 1_555 1_555
C8 N5 1_555 1_555
C9 O1 1_555 1_555
C10 C9 1_555 1_555
C11 C10 1_555 1_555
C12 C11 1_555 1_555
C13 O2 1_555 1_555
C14 C9 1_555 1_555
C15 C14 1_555 1_555
C16 C15 1_555 1_555
C17 C10 1_555 1_555
C18 O3 1_555 1_555
C19 C18 1_555 1_555
C20 C19 1_555 1_555
C21 C20 1_555 1_555
C22 C21 1_555 1_555
C23 C22 1_555 1_555
C24 C23 1_555 1_555
C25 C20 1_555 1_555
C26 C25 1_555 1_555
C27 C18 1_555 1_555
C28 O6 1_555 1_555
C29 C28 1_555 1_555
C30 C16 1_555 1_555
C31 C28 1_555 1_555
C32 C31 1_555 1_555
C33 C32 1_555 1_555
C34 C29 1_555 1_555
C35 O8 1_555 1_555
C36 N1 1_555 1_555
C37 C36 1_555 1_555
C38 C37 1_555 1_555
C39 C38 1_555 1_555
C40 C39 1_555 1_555
C41 C36 1_555 1_555
C42 N2 1_555 1_555
C43 O7 1_555 1_555
C44 C43 1_555 1_555
C45 C33 1_555 1_555
C46 C43 1_555 1_555
C47 C46 1_555 1_555
C48 C47 1_555 1_555
C49 C44 1_555 1_555
C50 O9 1_555 1_555
C51 C50 1_555 1_555
C52 C51 1_555 1_555
C53 C52 1_555 1_555
C54 C53 1_555 1_555
C55 C54 1_555 1_555
C56 C55 1_555 1_555
C57 C52 1_555 1_555
C58 C57 1_555 1_555
C59 C50 1_555 1_555
C60 O10 1_555 1_555
C61 C60 1_555 1_555
C62 C48 1_555 1_555
C63 C13 1_555 1_555
C64 C12 1_555 1_555
C65 C11 1_555 1_555
C66 C65 1_555 1_555
C67 C68 1_555 1_555
C68 H35 1_555 1_555
C69 C30 1_555 1_555
C70 C69 1_555 1_555
C71 C70 1_555 1_555
C72 C71 1_555 1_555
C73 C72 1_555 1_555
C74 C73 1_555 1_555
C75 C45 1_555 1_555
C76 C75 1_555 1_555
C77 C76 1_555 1_555
C78 C77 1_555 1_555
C79 C78 1_555 1_555
C80 C79 1_555 1_555
C81 C62 1_555 1_555
C82 C81 1_555 1_555
C83 C82 1_555 1_555
C84 C83 1_555 1_555
C85 C84 1_555 1_555
C86 C85 1_555 1_555
C87 O13 1_555 1_555
C88 N6 1_555 1_555
C89 N6 1_555 1_555
C90 H84 1_555 1_555
C91 N3 1_555 1_555
N7 C92 1_555 1_555
O14 C92 1_555 1_555
C92 H90 1_555 1_555
C93 N7 1_555 1_555
O15 C95 1_555 1_555
C94 N7 1_555 1_555
C95 N3 1_555 1_555
C96 C66 1_555 1_555
C97 C67 1_555 1_555
H1 C3 1_555 1_555
H2 C4 1_555 1_555
H3 C5 1_555 1_555
H4 C6 1_555 1_555
H5 C11 1_555 1_555
H6 C14 1_555 1_555
H7 C17 1_555 1_555
H8 C21 1_555 1_555
H9 C22 1_555 1_555
H10 C23 1_555 1_555
H11 C24 1_555 1_555
H12 C30 1_555 1_555
H13 C31 1_555 1_555
H14 C34 1_555 1_555
H15 C37 1_555 1_555
H16 C38 1_555 1_555
H17 C39 1_555 1_555
H18 C40 1_555 1_555
H19 C45 1_555 1_555
H20 C46 1_555 1_555
H21 C49 1_555 1_555
H22 C53 1_555 1_555
H23 C54 1_555 1_555
H24 C55 1_555 1_555
H25 C56 1_555 1_555
H26 C62 1_555 1_555
H27 C63 1_555 1_555
H28 C64 1_555 1_555
H29 C65 1_555 1_555
H30 C65 1_555 1_555
H31 C66 1_555 1_555
H32 C66 1_555 1_555
H34 C67 1_555 1_555
H36 C68 1_555 1_555
H37 C68 1_555 1_555
H38 C69 1_555 1_555
H39 C69 1_555 1_555
H40 C70 1_555 1_555
H41 C70 1_555 1_555
H42 C71 1_555 1_555
H43 C71 1_555 1_555
H44 C72 1_555 1_555
H45 C72 1_555 1_555
H46 C73 1_555 1_555
H47 C73 1_555 1_555
H48 C74 1_555 1_555
H49 C74 1_555 1_555
H50 C74 1_555 1_555
H51 C75 1_555 1_555
H52 C75 1_555 1_555
H53 C76 1_555 1_555
H54 C76 1_555 1_555
H55 C77 1_555 1_555
H56 C77 1_555 1_555
H57 C78 1_555 1_555
H58 C78 1_555 1_555
H59 C79 1_555 1_555
H60 C79 1_555 1_555
H61 C80 1_555 1_555
H62 C80 1_555 1_555
H63 C80 1_555 1_555
H64 C81 1_555 1_555
H65 C81 1_555 1_555
H66 C82 1_555 1_555
H67 C82 1_555 1_555
H68 C83 1_555 1_555
H69 C83 1_555 1_555
H70 C84 1_555 1_555
H71 C84 1_555 1_555
H72 C85 1_555 1_555
H73 C85 1_555 1_555
H74 C86 1_555 1_555
H75 C86 1_555 1_555
H76 C86 1_555 1_555
H77 C87 1_555 1_555
H78 C88 1_555 1_555
H79 C88 1_555 1_555
H80 C88 1_555 1_555
H81 C89 1_555 1_555
H82 C89 1_555 1_555
H83 C89 1_555 1_555
H85 C90 1_555 1_555
H86 C90 1_555 1_555
H87 C91 1_555 1_555
H88 C91 1_555 1_555
H89 C91 1_555 1_555
H91 C93 1_555 1_555
H92 C93 1_555 1_555
H93 C93 1_555 1_555
H94 C94 1_555 1_555
H95 C94 1_555 1_555
H96 C94 1_555 1_555
H97 C95 1_555 1_555
H98 C96 1_555 1_555
H99 C96 1_555 1_555
H100 C97 1_555 1_555
H101 C97 1_555 1_555
C6 C7 1_555 1_555
C12 C13 1_555 1_555
C16 C17 1_555 1_555
C24 C25 1_555 1_555
C26 C27 1_555 1_555
C29 C30 1_555 1_555
C33 C34 1_555 1_555
C35 C42 1_555 1_555
C40 C41 1_555 1_555
C44 C45 1_555 1_555
C48 C49 1_555 1_555
C56 C57 1_555 1_555
C58 C59 1_555 1_555
C60 C63 1_555 1_555
C61 C62 1_555 1_555
C61 C64 1_555 1_555
C96 C97 1_555 1_555

#END
