
#######################################################################
#
#                 Cambridge Crystallographic Data Centre
#                                CCDC 
#
#######################################################################
#
# If this CIF has been generated from an entry in the Cambridge 
# Structural Database, then it will include bibliographic, chemical, 
# crystal, experimental, refinement or atomic coordinate data resulting 
# from the CCDC's data processing and validation procedures.
#
#######################################################################

data_PAGLAM
_chemical_formula_moiety         'C13 H21 F1 N3 1+,C1 F3 O3 S1 1-'
_chemical_name_systematic        
'1-(4-Fluorophenyl)-2,3-di-isopropyl-guanidinium trifluoromethanesulfonate'
_symmetry_cell_setting           triclinic
_symmetry_space_group_name_H-M   'P -1'
_symmetry_Int_Tables_number      2
_space_group_name_Hall           '-P 1'
loop_
_symmetry_equiv_pos_site_id
_symmetry_equiv_pos_as_xyz
1 x,y,z
2 -x,-y,-z
_cell_length_a                   9.1088(18)
_cell_length_b                   10.016(2)
_cell_length_c                   11.801(2)
_cell_angle_alpha                76.98(3)
_cell_angle_beta                 76.48(3)
_cell_angle_gamma                69.03(3)
_cell_volume                     965.515
_chemical_melting_point          '122.8-123.7 deg.C'
_cell_formula_units_Z            2
loop_
_atom_site_label
_atom_site_type_symbol
_atom_site_fract_x
_atom_site_fract_y
_atom_site_fract_z
C1 C 0.7767(5) 0.5355(4) 0.2276(4)
C2 C 1.0031(5) 0.6408(5) 0.1834(4)
H1 H 1.0429 0.5703 0.2508
C3 C 0.9937(7) 0.7928(6) 0.1964(6)
H2 H 0.9277 0.8651 0.1418
H3 H 1.1012 0.8006 0.1781
H4 H 0.9462 0.8098 0.2776
C4 C 1.1100(6) 0.5964(7) 0.0733(5)
H5 H 1.1068 0.5029 0.0636
H6 H 1.2193 0.5875 0.0775
H7 H 1.0745 0.6693 0.0058
C5 C 0.8039(5) 0.2860(5) 0.3435(4)
H8 H 0.6874 0.3184 0.3514
C6 C 0.8608(10) 0.2351(8) 0.4692(7)
H9 H 0.8692 0.1332 0.4965
H10 H 0.7830 0.2943 0.5261
H11 H 0.9651 0.2468 0.4620
C7 C 0.8673(10) 0.1663(8) 0.2755(8)
H12 H 0.8631 0.2046 0.1918
H13 H 0.8032 0.1012 0.3036
H14 H 0.9781 0.1128 0.2856
C8 C 0.5252(4) 0.6966(4) 0.1642(4)
C9 C 0.4967(5) 0.7109(5) 0.0492(4)
H15 H 0.5439 0.6313 0.0069
C10 C 0.3997(5) 0.8411(6) -0.0023(4)
H16 H 0.3813 0.8537 -0.0806
C11 C 0.3322(5) 0.9495(5) 0.0631(5)
C12 C 0.3563(5) 0.9410(5) 0.1758(5)
H17 H 0.3075 1.0207 0.2178
C13 C 0.4553(4) 0.8103(5) 0.2246(4)
H18 H 0.4748 0.8000 0.3023
F1 F 0.2351(3) 1.0808(3) 0.0140(3)
N1 N 0.8402(4) 0.6429(4) 0.1830(3)
H19 H 0.7770 0.7240 0.1496
N2 N 0.8628(4) 0.4080(4) 0.2808(3)
H20 H 0.9641 0.3953 0.2784
N3 N 0.6251(3) 0.5585(3) 0.2182(3)
H21 H 0.5847 0.4875 0.2457
C14 C 0.3066(12) 0.292(2) 0.4549(19)
F2 F 0.1711(9) 0.3979(10) 0.4832(7)
F3 F 0.2769(8) 0.1374(9) 0.5126(6)
F4 F 0.4339(10) 0.2659(17) 0.5039(5)
O1 O 0.2160(4) 0.2871(4) 0.2747(3)
O2 O 0.4145(7) 0.3965(7) 0.2619(5)
O3 O 0.4869(6) 0.1552(8) 0.3059(7)
S1 S 0.34675(16) 0.29582(18) 0.31512(13)
loop_
_geom_bond_atom_site_label_1
_geom_bond_atom_site_label_2
_geom_bond_site_symmetry_1
_geom_bond_site_symmetry_2
C1 N1 1_555 1_555
C2 H1 1_555 1_555
C3 C2 1_555 1_555
H2 C3 1_555 1_555
H3 C3 1_555 1_555
H4 C3 1_555 1_555
C4 C2 1_555 1_555
H5 C4 1_555 1_555
H6 C4 1_555 1_555
H7 C4 1_555 1_555
C5 H8 1_555 1_555
C6 C5 1_555 1_555
H9 C6 1_555 1_555
H10 C6 1_555 1_555
H11 C6 1_555 1_555
C7 C5 1_555 1_555
H12 C7 1_555 1_555
H13 C7 1_555 1_555
H14 C7 1_555 1_555
C8 C9 1_555 1_555
C9 H15 1_555 1_555
C10 C9 1_555 1_555
H16 C10 1_555 1_555
C11 C10 1_555 1_555
C12 C11 1_555 1_555
H17 C12 1_555 1_555
C13 C8 1_555 1_555
H18 C13 1_555 1_555
C14 F2 1_555 1_555
F1 C11 1_555 1_555
F3 C14 1_555 1_555
F4 C14 1_555 1_555
N1 C2 1_555 1_555
H19 N1 1_555 1_555
N2 C1 1_555 1_555
H20 N2 1_555 1_555
N3 C1 1_555 1_555
H21 N3 1_555 1_555
O1 S1 1_555 1_555
O2 S1 1_555 1_555
O3 S1 1_555 1_555
S1 C14 1_555 1_555
C5 N2 1_555 1_555
C8 N3 1_555 1_555
C12 C13 1_555 1_555

#END
