
#######################################################################
#
#                 Cambridge Crystallographic Data Centre
#                                CCDC 
#
#######################################################################
#
# If this CIF has been generated from an entry in the Cambridge 
# Structural Database, then it will include bibliographic, chemical, 
# crystal, experimental, refinement or atomic coordinate data resulting 
# from the CCDC's data processing and validation procedures.
#
#######################################################################

data_PAGZED
_chemical_name_common            
'2-Hydroxyethanaminium 1-cyclopropyl-7-(4-ethylpiperazin-1-yl)-6-fluoro-4-oxo-1,4-dihydroquinoline-3-carboxylate'
_chemical_formula_moiety         'C2 H8 N1 O1 1+,C19 H21 F1 N3 O3 1-'
_chemical_name_systematic        '2-Hydroxyethanaminium enrofloxacinate'
_chemical_properties_biological  
'enrofloxacin is a fluoroquinolone antibiotic used in veterinary medicine'
_symmetry_cell_setting           triclinic
_symmetry_space_group_name_H-M   'P -1'
_symmetry_Int_Tables_number      2
_space_group_name_Hall           '-P 1'
loop_
_symmetry_equiv_pos_site_id
_symmetry_equiv_pos_as_xyz
1 x,y,z
2 -x,-y,-z
_cell_length_a                   9.791(2)
_cell_length_b                   9.8580(10)
_cell_length_c                   12.274(2)
_cell_angle_alpha                69.120(10)
_cell_angle_beta                 75.740(10)
_cell_angle_gamma                89.540(10)
_cell_volume                     1068.61
_exptl_crystal_colour            colorless
_exptl_crystal_description       prism
_cell_formula_units_Z            2
_exptl_crystal_recrystallization_method aqueous
loop_
_atom_site_label
_atom_site_type_symbol
_atom_site_fract_x
_atom_site_fract_y
_atom_site_fract_z
F1 F 0.12637(9) 0.86744(12) 0.54017(9)
O1 O 0.36721(12) 0.67145(14) 0.23093(11)
O2 O 0.56004(12) 0.51011(15) 0.12676(11)
O3 O 0.77943(13) 0.55956(15) 0.12782(11)
N1 N 0.64753(12) 0.66343(14) 0.43101(10)
N2 N 0.30620(13) 0.86371(14) 0.68422(11)
N3 N 0.24206(13) 0.89893(14) 0.91446(11)
C1 C 0.67977(16) 0.61612(17) 0.33756(13)
H1 H 0.7683 0.5818 0.3207
C2 C 0.59316(16) 0.61457(16) 0.26589(13)
C3 C 0.45509(16) 0.66592(17) 0.28962(13)
C4 C 0.41992(15) 0.71469(16) 0.39266(13)
C5 C 0.28787(16) 0.76665(18) 0.42289(14)
H2 H 0.2233 0.7702 0.3778
C6 C 0.25381(16) 0.81187(18) 0.51763(14)
C7 C 0.34529(16) 0.80887(17) 0.59066(13)
C8 C 0.47568(16) 0.75818(17) 0.56029(13)
H3 H 0.5392 0.7540 0.6064
C9 C 0.51481(15) 0.71278(16) 0.46154(13)
C10 C 0.74810(17) 0.65515(19) 0.50256(15)
C11 C 0.81819(19) 0.7930(2) 0.49433(19)
C12 C 0.90070(19) 0.6947(2) 0.44053(19)
C13 C 0.64817(18) 0.55797(18) 0.16547(14)
C14 C 0.17424(16) 0.79522(19) 0.77874(14)
H4 H 0.1886 0.6970 0.8274
H5 H 0.0994 0.7891 0.7411
C15 C 0.13091(16) 0.88291(18) 0.85853(14)
H6 H 0.1096 0.9786 0.8107
H7 H 0.0457 0.8350 0.9211
C16 C 0.36874(17) 0.97171(19) 0.81746(14)
H8 H 0.4437 0.9855 0.8525
H9 H 0.3480 1.0670 0.7684
C17 C 0.41834(16) 0.88398(19) 0.73853(14)
H10 H 0.5023 0.9344 0.6754
H11 H 0.4425 0.7898 0.7866
C18 C 0.19244(19) 0.9873(2) 0.98965(16)
H12 H 0.1055 0.9387 1.0495
H13 H 0.1706 1.0809 0.9386
C19 C 0.2967(2) 1.0131(3) 1.05369(19)
H14 H 0.3303 0.9221 1.0948
H15 H 0.2513 1.0552 1.1113
H16 H 0.3751 1.0785 0.9958
H17 H 0.7227(17) 0.5763(18) 0.5803(16)
H18 H 0.8312(18) 0.7950(18) 0.5708(16)
H19 H 0.7895(18) 0.882(2) 0.4427(16)
H20 H 0.9271(19) 0.7278(19) 0.3526(18)
H21 H 0.968(2) 0.636(2) 0.4803(17)
O4 O 1.01557(14) 0.65443(15) 0.15994(12)
N4 N 1.29740(15) 0.58467(17) 0.05639(12)
C20 C 1.07615(19) 0.5288(2) 0.22023(16)
H22 H 1.0015 0.4524 0.2712
H23 H 1.1263 0.5506 0.2718
C21 C 1.17689(19) 0.4754(2) 0.13325(16)
H24 H 1.2126 0.3865 0.1783
H25 H 1.1264 0.4527 0.0822
H26 H 0.930(3) 0.624(3) 0.144(2)
H27 H 1.268(2) 0.6747(13) 0.0226(17)
H28 H 1.3444(17) 0.5546(18) -0.0032(12)
H29 H 1.3569(16) 0.5968(19) 0.0984(14)
loop_
_geom_bond_atom_site_label_1
_geom_bond_atom_site_label_2
_geom_bond_site_symmetry_1
_geom_bond_site_symmetry_2
F1 C6 1_555 1_555
O1 C3 1_555 1_555
O2 C13 1_555 1_555
O3 C13 1_555 1_555
N1 C1 1_555 1_555
N2 C7 1_555 1_555
N3 C15 1_555 1_555
C1 H1 1_555 1_555
C2 C1 1_555 1_555
C3 C2 1_555 1_555
C4 C3 1_555 1_555
C5 C4 1_555 1_555
H2 C5 1_555 1_555
C6 C5 1_555 1_555
C7 C6 1_555 1_555
C8 C7 1_555 1_555
H3 C8 1_555 1_555
C9 N1 1_555 1_555
C10 N1 1_555 1_555
C11 C10 1_555 1_555
C12 C10 1_555 1_555
C13 C2 1_555 1_555
C14 N2 1_555 1_555
H4 C14 1_555 1_555
H5 C14 1_555 1_555
C15 C14 1_555 1_555
H6 C15 1_555 1_555
H7 C15 1_555 1_555
C16 N3 1_555 1_555
H8 C16 1_555 1_555
H9 C16 1_555 1_555
C17 N2 1_555 1_555
H10 C17 1_555 1_555
H11 C17 1_555 1_555
C18 N3 1_555 1_555
H12 C18 1_555 1_555
H13 C18 1_555 1_555
C19 C18 1_555 1_555
H14 C19 1_555 1_555
H15 C19 1_555 1_555
H16 C19 1_555 1_555
H17 C10 1_555 1_555
H18 C11 1_555 1_555
H19 C11 1_555 1_555
H20 C12 1_555 1_555
H21 C12 1_555 1_555
O4 C20 1_555 1_555
N4 C21 1_555 1_555
C20 H22 1_555 1_555
H23 C20 1_555 1_555
C21 C20 1_555 1_555
H24 C21 1_555 1_555
H25 C21 1_555 1_555
H26 O4 1_555 1_555
H27 N4 1_555 1_555
H28 N4 1_555 1_555
H29 N4 1_555 1_555
C4 C9 1_555 1_555
C8 C9 1_555 1_555
C11 C12 1_555 1_555
C16 C17 1_555 1_555

#END
