
#######################################################################
#
#                 Cambridge Crystallographic Data Centre
#                                CCDC 
#
#######################################################################
#
# If this CIF has been generated from an entry in the Cambridge 
# Structural Database, then it will include bibliographic, chemical, 
# crystal, experimental, refinement or atomic coordinate data resulting 
# from the CCDC's data processing and validation procedures.
#
#######################################################################

data_PAHCIK
_chemical_formula_moiety         'C2 Cl8 N4 P2 S2'
_chemical_name_systematic        
1,5-endo-Dichloro-1,5-exo-bis(trichloromethyl)-1,5-diphospha-3,7-dithia-2,4,6,8-tetra-azocine
_symmetry_cell_setting           monoclinic
_symmetry_space_group_name_H-M   'P 21/n'
_symmetry_Int_Tables_number      14
_space_group_name_Hall           '-P 2yn'
loop_
_symmetry_equiv_pos_site_id
_symmetry_equiv_pos_as_xyz
1 x,y,z
2 1/2-x,1/2+y,1/2-z
3 -x,-y,-z
4 1/2+x,1/2-y,1/2+z
_cell_length_a                   10.944(3)
_cell_length_b                   5.859(2)
_cell_length_c                   23.831(4)
_cell_angle_alpha                90
_cell_angle_beta                 100.13(2)
_cell_angle_gamma                90
_cell_volume                     1504.24
_cell_formula_units_Z            4
loop_
_atom_site_label
_atom_site_type_symbol
_atom_site_fract_x
_atom_site_fract_y
_atom_site_fract_z
P1 P -0.0883(2) 0.3662(3) 0.16016(9)
P2 P 0.0534(2) 0.3710(3) 0.3184(1)
S1 S 0.1504(2) 0.3973(3) 0.22037(9)
S2 S 0.0293(2) 0.0423(3) 0.23525(9)
Cl1 Cl -0.2320(2) 0.5585(4) 0.1694(1)
Cl2 Cl -0.2589(2) 0.1649(4) 0.0624(1)
Cl3 Cl -0.1243(2) 0.5743(4) 0.0453(1)
Cl4 Cl 0.0058(2) 0.1454(4) 0.0679(1)
Cl5 Cl -0.0982(2) 0.5579(3) 0.3173(1)
Cl6 Cl 0.2631(2) 0.2139(4) 0.4026(1)
Cl7 Cl 0.1514(2) 0.6518(4) 0.4187(1)
Cl8 Cl 0.0175(2) 0.2344(4) 0.4330(1)
N1 N 0.0390(5) 0.504(1) 0.1750(3)
N2 N 0.1520(6) 0.485(1) 0.2841(3)
N3 N 0.0224(6) 0.108(1) 0.2991(3)
N4 N -0.0878(5) 0.125(1) 0.1917(3)
C1 C -0.1181(7) 0.315(1) 0.0821(3)
C2 C 0.1233(7) 0.371(1) 0.3951(4)
loop_
_geom_bond_atom_site_label_1
_geom_bond_atom_site_label_2
_geom_bond_site_symmetry_1
_geom_bond_site_symmetry_2
P1 Cl1 1_555 1_555
P2 Cl5 1_555 1_555
S1 N1 1_555 1_555
S2 N3 1_555 1_555
Cl2 C1 1_555 1_555
Cl3 C1 1_555 1_555
Cl4 C1 1_555 1_555
Cl6 C2 1_555 1_555
Cl7 C2 1_555 1_555
Cl8 C2 1_555 1_555
N1 P1 1_555 1_555
N2 P2 1_555 1_555
N3 P2 1_555 1_555
N4 P1 1_555 1_555
C1 P1 1_555 1_555
C2 P2 1_555 1_555
S1 N2 1_555 1_555
S2 N4 1_555 1_555

#END
