
#######################################################################
#
#                 Cambridge Crystallographic Data Centre
#                                CCDC 
#
#######################################################################
#
# If this CIF has been generated from an entry in the Cambridge 
# Structural Database, then it will include bibliographic, chemical, 
# crystal, experimental, refinement or atomic coordinate data resulting 
# from the CCDC's data processing and validation procedures.
#
#######################################################################

data_PAHLER
_chemical_name_common            
'bis(7-Amino-2,4-dimethyl-1,8-naphthyridin-1-ium) L-tartrate'
_chemical_formula_moiety         '2(C10 H12 N3 1+),C4 H4 O6 2-'
_chemical_name_systematic        
'bis(7-Amino-2,4-dimethyl-1,8-naphthyridin-1-ium) (R,R)-2,3-dihydroxybutanedioate'
_symmetry_cell_setting           monoclinic
_symmetry_space_group_name_H-M   'P 21'
_symmetry_Int_Tables_number      4
_space_group_name_Hall           'P 2yb'
loop_
_symmetry_equiv_pos_site_id
_symmetry_equiv_pos_as_xyz
1 x,y,z
2 -x,1/2+y,-z
_cell_length_a                   7.1466(5)
_cell_length_b                   17.6945(15)
_cell_length_c                   9.1485(8)
_cell_angle_alpha                90
_cell_angle_beta                 98.473(1)
_cell_angle_gamma                90
_cell_volume                     1144.25
_exptl_crystal_colour            colorless
_exptl_crystal_description       block
_cell_formula_units_Z            2
loop_
_atom_site_label
_atom_site_type_symbol
_atom_site_fract_x
_atom_site_fract_y
_atom_site_fract_z
N1 N 0.8371(11) 0.3942(4) 0.3318(8)
N2 N 0.7744(11) 0.4741(4) 0.1370(7)
H1 H 0.7890 0.4354 0.0830
N3 N 0.9057(14) 0.3143(4) 0.5257(9)
H2 H 0.9235 0.2791 0.4644
H3 H 0.9198 0.3050 0.6189
C1 C 0.8568(15) 0.3828(5) 0.4766(10)
C2 C 0.8402(17) 0.4426(5) 0.5775(11)
H9 H 0.8601 0.4333 0.6786
C3 C 0.7961(14) 0.5117(5) 0.5272(10)
H10 H 0.7821 0.5507 0.5930
C4 C 0.7705(14) 0.5260(4) 0.3726(9)
C5 C 0.7955(14) 0.4648(5) 0.2833(11)
C6 C 0.7323(13) 0.5395(5) 0.0703(10)
C7 C 0.7030(13) 0.6018(5) 0.1566(10)
H11 H 0.6691 0.6478 0.1110
C8 C 0.7233(13) 0.5967(5) 0.3080(9)
C9 C 0.7191(16) 0.5436(5) -0.0939(9)
H12 H 0.7114 0.4934 -0.1343
H13 H 0.8294 0.5684 -0.1193
H14 H 0.6082 0.5716 -0.1338
C10 C 0.6913(17) 0.6665(6) 0.3961(11)
H15 H 0.6780 0.7096 0.3319
H16 H 0.7973 0.6738 0.4723
H17 H 0.5784 0.6603 0.4401
N4 N 0.2317(12) 0.5622(4) 0.1821(8)
N5 N 0.2842(10) 0.4782(4) 0.0043(8)
H4 H 0.2626 0.5149 -0.0575
N6 N 0.1814(13) 0.6461(4) 0.3611(8)
H5 H 0.1579 0.6802 0.2939
H6 H 0.1763 0.6572 0.4520
C11 C 0.2254(15) 0.5769(5) 0.3249(10)
C12 C 0.2589(14) 0.5206(6) 0.4370(10)
H18 H 0.2535 0.5329 0.5351
C13 C 0.2977(15) 0.4510(5) 0.4003(11)
H19 H 0.3208 0.4141 0.4732
C14 C 0.3045(15) 0.4317(5) 0.2512(10)
C15 C 0.2736(13) 0.4905(5) 0.1522(9)
C16 C 0.3275(15) 0.4101(5) -0.0441(9)
C17 C 0.3566(14) 0.3514(5) 0.0545(9)
H20 H 0.3840 0.3038 0.0202
C18 C 0.3467(14) 0.3606(5) 0.2019(10)
C19 C 0.3288(17) 0.4015(5) -0.2060(9)
H21 H 0.2719 0.4452 -0.2566
H22 H 0.2584 0.3572 -0.2408
H23 H 0.4569 0.3966 -0.2248
C20 C 0.3805(14) 0.2948(5) 0.3071(10)
H24 H 0.3815 0.2487 0.2519
H25 H 0.2814 0.2927 0.3673
H26 H 0.5001 0.3010 0.3691
O1 O 0.9559(11) 0.2764(4) -0.1772(6)
O2 O 0.8204(11) 0.3648(4) -0.0571(6)
O3 O 0.7777(12) 0.0896(3) 0.1976(7)
O4 O 0.8851(11) 0.1812(3) 0.3520(7)
O5 O 1.0783(9) 0.1986(3) 0.0559(7)
H7 H 1.0989 0.1996 -0.0299
O6 O 0.6505(9) 0.1913(3) -0.0188(6)
H8 H 0.7034 0.1553 -0.0517
C21 C 0.9073(15) 0.3029(5) -0.0627(10)
C22 C 0.9413(14) 0.2542(5) 0.0758(9)
H27 H 0.9928 0.2863 0.1593
C23 C 0.7629(14) 0.2182(5) 0.1102(9)
H28 H 0.6901 0.2576 0.1519
C24 C 0.8094(14) 0.1572(5) 0.2293(10)
loop_
_geom_bond_atom_site_label_1
_geom_bond_atom_site_label_2
_geom_bond_site_symmetry_1
_geom_bond_site_symmetry_2
N1 C1 1_555 1_555
N2 H1 1_555 1_555
N3 H2 1_555 1_555
H3 N3 1_555 1_555
N4 C11 1_555 1_555
N5 H4 1_555 1_555
N6 H5 1_555 1_555
H6 N6 1_555 1_555
O1 C21 1_555 1_555
O2 C21 1_555 1_555
O3 C24 1_555 1_555
O4 C24 1_555 1_555
O5 H7 1_555 1_555
O6 H8 1_555 1_555
C1 N3 1_555 1_555
C2 C1 1_555 1_555
H9 C2 1_555 1_555
C3 C2 1_555 1_555
H10 C3 1_555 1_555
C4 C3 1_555 1_555
C5 N1 1_555 1_555
C6 N2 1_555 1_555
C7 C6 1_555 1_555
H11 C7 1_555 1_555
C8 C4 1_555 1_555
C9 C6 1_555 1_555
H12 C9 1_555 1_555
H13 C9 1_555 1_555
H14 C9 1_555 1_555
C10 C8 1_555 1_555
H15 C10 1_555 1_555
H16 C10 1_555 1_555
H17 C10 1_555 1_555
C11 N6 1_555 1_555
C12 C11 1_555 1_555
H18 C12 1_555 1_555
C13 C12 1_555 1_555
H19 C13 1_555 1_555
C14 C13 1_555 1_555
C15 N4 1_555 1_555
C16 N5 1_555 1_555
C17 C16 1_555 1_555
H20 C17 1_555 1_555
C18 C14 1_555 1_555
C19 C16 1_555 1_555
H21 C19 1_555 1_555
H22 C19 1_555 1_555
H23 C19 1_555 1_555
C20 C18 1_555 1_555
H24 C20 1_555 1_555
H25 C20 1_555 1_555
H26 C20 1_555 1_555
C21 C22 1_555 1_555
C22 O5 1_555 1_555
H27 C22 1_555 1_555
C23 O6 1_555 1_555
H28 C23 1_555 1_555
C24 C23 1_555 1_555
N2 C5 1_555 1_555
N5 C15 1_555 1_555
C4 C5 1_555 1_555
C7 C8 1_555 1_555
C14 C15 1_555 1_555
C17 C18 1_555 1_555
C22 C23 1_555 1_555

#END
