
#######################################################################
#
#                 Cambridge Crystallographic Data Centre
#                                CCDC 
#
#######################################################################
#
# If this CIF has been generated from an entry in the Cambridge 
# Structural Database, then it will include bibliographic, chemical, 
# crystal, experimental, refinement or atomic coordinate data resulting 
# from the CCDC's data processing and validation procedures.
#
#######################################################################

data_PAHLAN
_chemical_formula_moiety         'C10 H12 N3 1+,C9 H5 O6 1-,2(H2 O1)'
_chemical_name_systematic        
'7-Amino-2,4-dimethyl-1,8-naphthyridin-1-ium 3,5-dicarboxybenzoate dihydrate'
_symmetry_cell_setting           monoclinic
_symmetry_space_group_name_H-M   'P 21/n'
_symmetry_Int_Tables_number      14
_space_group_name_Hall           '-P 2yn'
loop_
_symmetry_equiv_pos_site_id
_symmetry_equiv_pos_as_xyz
1 x,y,z
2 1/2-x,1/2+y,1/2-z
3 -x,-y,-z
4 1/2+x,1/2-y,1/2+z
_cell_length_a                   7.9283(8)
_cell_length_b                   30.112(3)
_cell_length_c                   8.2919(11)
_cell_angle_alpha                90
_cell_angle_beta                 104.650(1)
_cell_angle_gamma                90
_cell_volume                     1915.22
_exptl_crystal_colour            colorless
_exptl_crystal_description       block
_cell_formula_units_Z            4
loop_
_atom_site_label
_atom_site_type_symbol
_atom_site_fract_x
_atom_site_fract_y
_atom_site_fract_z
N1 N 0.2823(5) 0.09378(13) 0.8912(5)
H1 H 0.1794 0.0983 0.8286
N2 N 0.3582(5) 0.15943(13) 0.7872(5)
N3 N 0.1808(5) 0.03094(14) 0.9898(6)
H2 H 0.0783 0.0366 0.9285
H3 H 0.1981 0.0077 1.0520
C1 C 0.3096(6) 0.05748(16) 0.9885(7)
C2 C 0.4819(6) 0.04991(17) 1.0892(7)
H10 H 0.5054 0.0252 1.1585
C3 C 0.6090(6) 0.07842(17) 1.0838(7)
H11 H 0.7213 0.0725 1.1472
C4 C 0.5795(6) 0.11767(15) 0.9847(7)
C5 C 0.4096(6) 0.12361(16) 0.8871(7)
C6 C 0.4800(7) 0.18922(17) 0.7817(7)
C7 C 0.6513(6) 0.18521(17) 0.8752(8)
H12 H 0.7318 0.2071 0.8684
C8 C 0.7033(6) 0.14928(17) 0.9776(7)
C9 C 0.4234(7) 0.22947(18) 0.6749(8)
H13 H 0.4350 0.2238 0.5643
H14 H 0.4951 0.2543 0.7216
H15 H 0.3038 0.2360 0.6706
C10 C 0.8875(6) 0.14498(19) 1.0802(8)
H16 H 0.9584 0.1672 1.0466
H17 H 0.9313 0.1161 1.0638
H18 H 0.8909 0.1489 1.1958
O1 O 0.9434(4) 0.09889(11) 0.7010(5)
O2 O 0.8318(4) 0.04108(11) 0.7988(5)
O3 O 0.2080(4) 0.00787(12) 0.5934(5)
O4 O 0.0464(4) 0.04699(11) 0.3808(5)
H4 H -0.0277 0.0293 0.3938
O5 O 0.2935(4) 0.17919(11) 0.1831(5)
H5 H 0.2946 0.2024 0.1314
O6 O 0.5651(5) 0.19877(12) 0.2964(5)
C11 C 0.8196(6) 0.07439(18) 0.7072(7)
C12 C 0.1939(6) 0.03893(17) 0.4899(7)
C13 C 0.4447(7) 0.17345(16) 0.2885(7)
C14 C 0.6444(6) 0.08449(15) 0.5914(7)
C15 C 0.5019(6) 0.05828(15) 0.5873(7)
H19 H 0.5152 0.0334 0.6559
C16 C 0.3409(6) 0.06750(15) 0.4856(7)
C17 C 0.3189(6) 0.10567(16) 0.3881(6)
H20 H 0.2092 0.1130 0.3220
C18 C 0.4603(6) 0.13277(15) 0.3893(6)
C19 C 0.6205(6) 0.12216(15) 0.4923(7)
H21 H 0.7150 0.1407 0.4954
O7 O 0.3016(5) 0.25165(11) 0.0300(5)
H6 H 0.2176 0.2629 -0.0433
H7 H 0.3830 0.2708 0.0539
O8 O 0.0013(11) 0.1897(3) 0.713(3)
H8 H -0.0416 0.1637 0.7044
H9 H 0.1116 0.1873 0.7363
H22? H -0.0253 0.1553 0.5908
H23? H 0.1286 0.1786 0.6208
O9? O 0.0228(13) 0.1785(4) 0.565(3)
loop_
_geom_bond_atom_site_label_1
_geom_bond_atom_site_label_2
_geom_bond_site_symmetry_1
_geom_bond_site_symmetry_2
N1 H1 1_555 1_555
N2 C5 1_555 1_555
N3 H2 1_555 1_555
H3 N3 1_555 1_555
O1 C11 1_555 1_555
O2 C11 1_555 1_555
O3 C12 1_555 1_555
O4 H4 1_555 1_555
O5 H5 1_555 1_555
O6 C13 1_555 1_555
O7 H6 1_555 1_555
H7 O7 1_555 1_555
O8 H8 1_555 1_555
H9 O8 1_555 1_555
C1 N1 1_555 1_555
C2 C1 1_555 1_555
H10 C2 1_555 1_555
C3 C2 1_555 1_555
H11 C3 1_555 1_555
C4 C3 1_555 1_555
C5 N1 1_555 1_555
C6 N2 1_555 1_555
C7 C6 1_555 1_555
H12 C7 1_555 1_555
C8 C4 1_555 1_555
C9 C6 1_555 1_555
H13 C9 1_555 1_555
H14 C9 1_555 1_555
H15 C9 1_555 1_555
C10 C8 1_555 1_555
H16 C10 1_555 1_555
H17 C10 1_555 1_555
H18 C10 1_555 1_555
C11 C14 1_555 1_555
C12 O4 1_555 1_555
C13 O5 1_555 1_555
C14 C15 1_555 1_555
C15 H19 1_555 1_555
C16 C12 1_555 1_555
C17 C16 1_555 1_555
H20 C17 1_555 1_555
C18 C13 1_555 1_555
C19 C14 1_555 1_555
H21 C19 1_555 1_555
N3 C1 1_555 1_555
C4 C5 1_555 1_555
C7 C8 1_555 1_555
C15 C16 1_555 1_555
C17 C18 1_555 1_555
C18 C19 1_555 1_555

#END
