
#######################################################################
#
#                 Cambridge Crystallographic Data Centre
#                                CCDC 
#
#######################################################################
#
# If this CIF has been generated from an entry in the Cambridge 
# Structural Database, then it will include bibliographic, chemical, 
# crystal, experimental, refinement or atomic coordinate data resulting 
# from the CCDC's data processing and validation procedures.
#
#######################################################################

data_PAHXAZ
_chemical_formula_moiety         
'C8 H20 N1 1+,C60 H44 N4 S16,Cl1 1-,2(C1 H2 Cl2)'
_chemical_name_systematic        
'Tetra-ethylammonium 6,14,22,30-tetrakis(1,3-benzodithiol-2-ylidene)-2,2,10,10,18,18,26,26-octamethyl-5,7,13,15,21,23,29,31-octathia-33,34,35,36-tetraazanonacyclo[25.5.1.1^3,9^.1^11,17^.1^19,25^.0^4,8^.0^12,16^.0^20,24^.0^28,32^]hexatriaconta-1(32),3,8,11,16,19,24,27-octaene chloride dichloromethane solvate'
_symmetry_cell_setting           monoclinic
_symmetry_space_group_name_H-M   'I 2/a'
_symmetry_Int_Tables_number      15
_space_group_name_Hall           '-I 2ya'
loop_
_symmetry_equiv_pos_site_id
_symmetry_equiv_pos_as_xyz
1 x,y,z
2 1/2-x,y,-z
3 1/2+x,1/2+y,1/2+z
4 -x,1/2+y,1/2-z
5 -x,-y,-z
6 1/2+x,-y,z
7 1/2-x,1/2-y,1/2-z
8 x,1/2-y,1/2+z
_cell_length_a                   25.479(5)
_cell_length_b                   22.556(5)
_cell_length_c                   26.003(5)
_cell_angle_alpha                90
_cell_angle_beta                 91.83(3)
_cell_angle_gamma                90
_cell_volume                     14936.4
_exptl_crystal_colour            colorless
_exptl_crystal_description       prism
_cell_formula_units_Z            8
loop_
_atom_site_label
_atom_site_type_symbol
_atom_site_fract_x
_atom_site_fract_y
_atom_site_fract_z
N1 N 0.4837(2) 0.5733(2) 0.2733(2)
C1 C 0.4284(4) 0.5847(4) 0.2541(5)
H1 H 0.4293 0.6150 0.2271
H2 H 0.4086 0.6011 0.2825
C2 C 0.3983(4) 0.5306(4) 0.2323(4)
H3 H 0.4227 0.5036 0.2166
H4 H 0.3724 0.5436 0.2066
H5 H 0.3808 0.5105 0.2599
C3 C 0.5063(4) 0.6300(3) 0.2962(3)
H6 H 0.4852 0.6412 0.3255
H7 H 0.5419 0.6216 0.3096
C4 C 0.5091(3) 0.6831(3) 0.2605(2)
H8 H 0.5302 0.6731 0.2313
H9 H 0.5249 0.7163 0.2789
H10 H 0.4739 0.6937 0.2484
C5 C 0.4847(4) 0.5270(4) 0.3159(3)
H11 H 0.4768 0.4883 0.3003
H12 H 0.5205 0.5250 0.3307
C6 C 0.4474(4) 0.5367(4) 0.3592(3)
H13 H 0.4543 0.5750 0.3750
H14 H 0.4525 0.5058 0.3848
H15 H 0.4115 0.5355 0.3457
C7 C 0.5162(4) 0.5546(4) 0.2293(3)
H16 H 0.5163 0.5865 0.2038
H17 H 0.5000 0.5197 0.2129
C8 C 0.5736(3) 0.5395(4) 0.2453(4)
H18 H 0.5746 0.5215 0.2792
H19 H 0.5944 0.5755 0.2460
H20 H 0.5878 0.5120 0.2206
C9 C 0.4167(3) 0.7766(3) 0.1860(3)
C10 C 0.4152(2) 0.7289(3) 0.1546(3)
C11 C 0.4631(2) 0.7250(3) 0.1273(2)
C12 C 0.4942(3) 0.7733(3) 0.1439(3)
C13 C 0.4094(3) 0.6342(3) 0.0972(3)
C14 C 0.3930(3) 0.5836(3) 0.0747(3)
C15 C 0.3490(3) 0.4823(3) 0.0613(3)
C16 C 0.3962(3) 0.4784(3) 0.0349(3)
C17 C 0.4122(3) 0.4264(4) 0.0133(3)
H21 H 0.4434 0.4252 -0.0049
C18 C 0.3818(4) 0.3745(4) 0.0185(3)
H22 H 0.3929 0.3384 0.0045
C19 C 0.3348(4) 0.3782(4) 0.0449(3)
H23 H 0.3141 0.3440 0.0489
C20 C 0.3187(3) 0.4314(4) 0.0651(3)
H24 H 0.2865 0.4332 0.0818
C21 C 0.3772(3) 0.8013(3) 0.2237(3)
C22 C 0.3789(3) 0.8709(3) 0.2244(3)
H25 H 0.4146 0.8841 0.2314
H26 H 0.3564 0.8856 0.2511
H27 H 0.3665 0.8860 0.1913
C23 C 0.3224(2) 0.7804(3) 0.2088(3)
H28 H 0.3126 0.7955 0.1749
H29 H 0.2979 0.7948 0.2337
H30 H 0.3217 0.7374 0.2082
C24 C 0.3919(2) 0.7789(3) 0.2788(3)
C25 C 0.3719(2) 0.7347(3) 0.3082(3)
C26 C 0.3992(3) 0.7340(3) 0.3570(3)
C27 C 0.4370(2) 0.7780(3) 0.3567(3)
C28 C 0.3344(2) 0.6477(3) 0.3607(2)
C29 C 0.3125(3) 0.5958(3) 0.3717(3)
C30 C 0.2859(3) 0.4857(3) 0.3562(3)
C31 C 0.3101(3) 0.4874(3) 0.4050(3)
C32 C 0.3211(3) 0.4354(4) 0.4318(3)
H31 H 0.3356 0.4366 0.4655
C33 C 0.3101(4) 0.3806(4) 0.4074(5)
H32 H 0.3179 0.3448 0.4244
C34 C 0.2878(3) 0.3799(4) 0.3587(5)
H33 H 0.2812 0.3431 0.3428
C35 C 0.2745(3) 0.4314(4) 0.3318(3)
H34 H 0.2586 0.4299 0.2987
C36 C 0.4789(3) 0.7976(3) 0.3960(3)
C37 C 0.4822(2) 0.8665(3) 0.3979(3)
H35 H 0.4940 0.8813 0.3652
H36 H 0.5067 0.8785 0.4252
H37 H 0.4477 0.8827 0.4044
C38 C 0.4638(3) 0.7739(3) 0.4494(2)
H38 H 0.4306 0.7913 0.4589
H39 H 0.4909 0.7845 0.4747
H40 H 0.4603 0.7311 0.4479
C39 C 0.5321(3) 0.7710(3) 0.3817(3)
C40 C 0.5578(3) 0.7194(3) 0.3963(2)
C41 C 0.6054(2) 0.7168(3) 0.3702(3)
C42 C 0.6094(2) 0.7652(3) 0.3391(2)
C43 C 0.5981(3) 0.6160(4) 0.4188(3)
C44 C 0.6043(3) 0.5607(3) 0.4326(3)
C45 C 0.5849(3) 0.4516(3) 0.4559(3)
C46 C 0.6318(3) 0.4502(4) 0.4301(3)
C47 C 0.6555(3) 0.3965(4) 0.4196(3)
H41 H 0.6878 0.3953 0.4033
C48 C 0.6302(3) 0.3441(3) 0.4337(3)
H42 H 0.6454 0.3075 0.4255
C49 C 0.5842(3) 0.3447(4) 0.4590(3)
H43 H 0.5681 0.3090 0.4682
C50 C 0.5621(3) 0.3970(4) 0.4708(3)
H44 H 0.5309 0.3974 0.4892
C51 C 0.6505(2) 0.7845(3) 0.3004(3)
C52 C 0.6587(2) 0.8521(3) 0.3012(3)
H45 H 0.6821 0.8632 0.2741
H46 H 0.6740 0.8639 0.3342
H47 H 0.6251 0.8718 0.2956
C53 C 0.7032(2) 0.7543(3) 0.3164(3)
H48 H 0.7003 0.7119 0.3109
H49 H 0.7113 0.7622 0.3524
H50 H 0.7310 0.7700 0.2957
C54 C 0.6342(2) 0.7628(3) 0.2477(3)
C55 C 0.6467(2) 0.7133(3) 0.2178(3)
C56 C 0.6194(2) 0.7166(3) 0.1703(3)
C57 C 0.5886(2) 0.7676(3) 0.1694(3)
C58 C 0.6697(2) 0.6176(3) 0.1696(3)
C59 C 0.6857(3) 0.5626(3) 0.1561(3)
C60 C 0.7149(3) 0.4525(3) 0.1652(3)
C61 C 0.6852(3) 0.4558(3) 0.1200(3)
C62 C 0.6720(3) 0.4052(4) 0.0932(3)
H51 H 0.6514 0.4074 0.0626
C63 C 0.6893(3) 0.3514(3) 0.1118(4)
H52 H 0.6793 0.3166 0.0942
C64 C 0.7203(3) 0.3472(4) 0.1547(4)
H53 H 0.7329 0.3099 0.1655
C65 C 0.7339(3) 0.3981(3) 0.1831(3)
H54 H 0.7551 0.3956 0.2133
C66 C 0.5489(3) 0.7924(3) 0.1302(3)
C67 C 0.5609(3) 0.7689(3) 0.0758(2)
H55 H 0.5576 0.7261 0.0753
H56 H 0.5964 0.7799 0.0673
H57 H 0.5363 0.7861 0.0508
C68 C 0.5520(3) 0.8605(3) 0.1275(3)
H58 H 0.5411 0.8773 0.1598
H59 H 0.5290 0.8747 0.0997
H60 H 0.5878 0.8724 0.1212
N2 N 0.4653(2) 0.8030(2) 0.1798(2)
H61 H 0.4762 0.8343 0.1964
N3 N 0.59902(19) 0.7942(2) 0.2158(2)
H62 H 0.5850 0.8277 0.2246
N4 N 0.5644(2) 0.7981(2) 0.3471(2)
H63 H 0.5574 0.8317 0.3321
N5 N 0.43195(19) 0.8044(2) 0.3084(2)
H64 H 0.4516 0.8333 0.2980
S1 S 0.46955(8) 0.66716(9) 0.08451(8)
S2 S 0.36763(7) 0.67362(8) 0.13944(8)
S3 S 0.33173(8) 0.54995(9) 0.08608(9)
S4 S 0.43158(8) 0.54503(10) 0.03072(9)
S5 S 0.62869(8) 0.65887(8) 0.12651(7)
S6 S 0.68732(7) 0.65141(7) 0.22845(7)
S7 S 0.72974(8) 0.52058(8) 0.19598(8)
S8 S 0.66577(8) 0.52770(9) 0.09856(8)
S9 S 0.64492(8) 0.65431(9) 0.38147(9)
S10 S 0.54434(7) 0.66115(9) 0.43834(8)
S11 S 0.56015(8) 0.52203(10) 0.47116(9)
S12 S 0.65950(8) 0.51857(10) 0.41448(10)
S13 S 0.37692(7) 0.68501(8) 0.40344(7)
S14 S 0.31848(7) 0.68513(8) 0.30188(7)
S15 S 0.27148(7) 0.55519(8) 0.32706(8)
S16 S 0.32296(8) 0.55933(9) 0.43049(8)
Cl1 Cl 0.52009(7) 0.89536(7) 0.26326(8)
loop_
_geom_bond_atom_site_label_1
_geom_bond_atom_site_label_2
_geom_bond_site_symmetry_1
_geom_bond_site_symmetry_2
N1 C1 1_555 1_555
C1 H1 1_555 1_555
H2 C1 1_555 1_555
C2 C1 1_555 1_555
H3 C2 1_555 1_555
H4 C2 1_555 1_555
H5 C2 1_555 1_555
C3 N1 1_555 1_555
H6 C3 1_555 1_555
H7 C3 1_555 1_555
C4 C3 1_555 1_555
H8 C4 1_555 1_555
H9 C4 1_555 1_555
H10 C4 1_555 1_555
C5 N1 1_555 1_555
H11 C5 1_555 1_555
H12 C5 1_555 1_555
C6 C5 1_555 1_555
H13 C6 1_555 1_555
H14 C6 1_555 1_555
H15 C6 1_555 1_555
C7 N1 1_555 1_555
H16 C7 1_555 1_555
H17 C7 1_555 1_555
C8 C7 1_555 1_555
H18 C8 1_555 1_555
H19 C8 1_555 1_555
H20 C8 1_555 1_555
C9 C10 1_555 1_555
C10 C11 1_555 1_555
C11 C12 1_555 1_555
C12 C66 1_555 1_555
C13 C14 1_555 1_555
C14 S3 1_555 1_555
C15 C16 1_555 1_555
C16 C17 1_555 1_555
C17 H21 1_555 1_555
C18 C17 1_555 1_555
H22 C18 1_555 1_555
C19 C18 1_555 1_555
H23 C19 1_555 1_555
C20 C15 1_555 1_555
H24 C20 1_555 1_555
C21 C9 1_555 1_555
C22 C21 1_555 1_555
H25 C22 1_555 1_555
H26 C22 1_555 1_555
H27 C22 1_555 1_555
C23 C21 1_555 1_555
H28 C23 1_555 1_555
H29 C23 1_555 1_555
H30 C23 1_555 1_555
C24 C21 1_555 1_555
C25 C24 1_555 1_555
C26 C25 1_555 1_555
C27 C26 1_555 1_555
C28 C29 1_555 1_555
C29 S15 1_555 1_555
C30 C31 1_555 1_555
C31 C32 1_555 1_555
C32 H31 1_555 1_555
C33 C32 1_555 1_555
H32 C33 1_555 1_555
C34 C33 1_555 1_555
H33 C34 1_555 1_555
C35 C30 1_555 1_555
H34 C35 1_555 1_555
C36 C27 1_555 1_555
C37 C36 1_555 1_555
H35 C37 1_555 1_555
H36 C37 1_555 1_555
H37 C37 1_555 1_555
C38 C36 1_555 1_555
H38 C38 1_555 1_555
H39 C38 1_555 1_555
H40 C38 1_555 1_555
C39 C36 1_555 1_555
C40 C39 1_555 1_555
C41 C40 1_555 1_555
C42 C41 1_555 1_555
C43 C44 1_555 1_555
C44 S11 1_555 1_555
C45 C46 1_555 1_555
C46 C47 1_555 1_555
C47 H41 1_555 1_555
C48 C47 1_555 1_555
H42 C48 1_555 1_555
C49 C48 1_555 1_555
H43 C49 1_555 1_555
C50 C45 1_555 1_555
H44 C50 1_555 1_555
C51 C42 1_555 1_555
C52 C51 1_555 1_555
H45 C52 1_555 1_555
H46 C52 1_555 1_555
H47 C52 1_555 1_555
C53 C51 1_555 1_555
H48 C53 1_555 1_555
H49 C53 1_555 1_555
H50 C53 1_555 1_555
C54 C51 1_555 1_555
C55 C54 1_555 1_555
C56 C55 1_555 1_555
C57 C56 1_555 1_555
C58 C59 1_555 1_555
C59 S7 1_555 1_555
C60 C61 1_555 1_555
C61 C62 1_555 1_555
C62 H51 1_555 1_555
C63 C62 1_555 1_555
H52 C63 1_555 1_555
C64 C63 1_555 1_555
H53 C64 1_555 1_555
C65 C60 1_555 1_555
H54 C65 1_555 1_555
C66 C57 1_555 1_555
C67 C66 1_555 1_555
H55 C67 1_555 1_555
H56 C67 1_555 1_555
H57 C67 1_555 1_555
C68 C66 1_555 1_555
H58 C68 1_555 1_555
H59 C68 1_555 1_555
H60 C68 1_555 1_555
N2 C9 1_555 1_555
H61 N2 1_555 1_555
N3 C54 1_555 1_555
H62 N3 1_555 1_555
N4 C39 1_555 1_555
H63 N4 1_555 1_555
N5 C24 1_555 1_555
H64 N5 1_555 1_555
S1 C11 1_555 1_555
S2 C10 1_555 1_555
S3 C15 1_555 1_555
S4 C14 1_555 1_555
S5 C56 1_555 1_555
S6 C55 1_555 1_555
S7 C60 1_555 1_555
S8 C59 1_555 1_555
S9 C41 1_555 1_555
S10 C40 1_555 1_555
S11 C45 1_555 1_555
S12 C44 1_555 1_555
S13 C26 1_555 1_555
S14 C25 1_555 1_555
S15 C30 1_555 1_555
S16 C29 1_555 1_555
C12 N2 1_555 1_555
C13 S1 1_555 1_555
C13 S2 1_555 1_555
C16 S4 1_555 1_555
C19 C20 1_555 1_555
C27 N5 1_555 1_555
C28 S13 1_555 1_555
C28 S14 1_555 1_555
C31 S16 1_555 1_555
C34 C35 1_555 1_555
C42 N4 1_555 1_555
C43 S9 1_555 1_555
C43 S10 1_555 1_555
C46 S12 1_555 1_555
C49 C50 1_555 1_555
C57 N3 1_555 1_555
C58 S5 1_555 1_555
C58 S6 1_555 1_555
C61 S8 1_555 1_555
C64 C65 1_555 1_555

#END
