
#######################################################################
#
#                 Cambridge Crystallographic Data Centre
#                                CCDC 
#
#######################################################################
#
# If this CIF has been generated from an entry in the Cambridge 
# Structural Database, then it will include bibliographic, chemical, 
# crystal, experimental, refinement or atomic coordinate data resulting 
# from the CCDC's data processing and validation procedures.
#
#######################################################################

data_PAHZUV
_chemical_formula_moiety         'C28 H22 F3 N1 O5'
_chemical_name_systematic        
'Ethyl 2-hydroxy-5-oxo-4-(3-phenoxyphenyl)-2-(trifluoromethyl)-2,3,4,5-tetrahydro-1H-indeno[1,2-b]pyridine-3-carboxylate'
_symmetry_cell_setting           monoclinic
_symmetry_space_group_name_H-M   'P 21/c'
_symmetry_Int_Tables_number      14
_space_group_name_Hall           '-P 2ybc'
loop_
_symmetry_equiv_pos_site_id
_symmetry_equiv_pos_as_xyz
1 x,y,z
2 -x,1/2+y,1/2-z
3 -x,-y,-z
4 x,1/2-y,1/2+z
_cell_length_a                   5.894(3)
_cell_length_b                   28.933(14)
_cell_length_c                   13.967(7)
_cell_angle_alpha                90
_cell_angle_beta                 96.250(7)
_cell_angle_gamma                90
_cell_volume                     2367.65
_chemical_melting_point          '184-186 deg.C'
_cell_formula_units_Z            4
loop_
_atom_site_label
_atom_site_type_symbol
_atom_site_fract_x
_atom_site_fract_y
_atom_site_fract_z
C1 C 0.2507(6) 0.29377(11) 0.8007(2)
C2 C 0.3668(6) 0.27172(11) 0.7259(2)
C3 C 0.5487(6) 0.24100(11) 0.7775(2)
C4 C 0.7223(7) 0.21662(13) 0.7439(3)
H1 H 0.7393 0.2158 0.6785
C5 C 0.8722(8) 0.19314(14) 0.8102(3)
H2 H 0.9919 0.1765 0.7887
C6 C 0.8480(8) 0.19385(13) 0.9069(3)
H3 H 0.9496 0.1775 0.9499
C7 C 0.6710(7) 0.21914(12) 0.9409(3)
H4 H 0.6529 0.2197 1.0062
C8 C 0.5260(6) 0.24292(10) 0.8763(2)
C9 C 0.3421(6) 0.27662(11) 0.8879(2)
C10 C 0.1133(6) 0.32547(11) 0.9813(2)
C11 C 0.1960(7) 0.35537(13) 1.0683(2)
C12 C 0.0829(6) 0.35592(11) 0.8895(2)
H5 H 0.2173 0.3758 0.8892
C13 C -0.1263(7) 0.38630(14) 0.8877(2)
C14 C -0.2847(10) 0.45952(19) 0.8654(5)
H6 H -0.3294 0.4628 0.7968
H7 H -0.4091 0.4447 0.8938
C15 C 0.0578(6) 0.32680(11) 0.7948(2)
H8 H -0.0841 0.3090 0.7927
C16 C 0.0377(6) 0.35939(11) 0.7090(2)
C17 C 0.2169(6) 0.38876(11) 0.6943(2)
H9 H 0.3546 0.3869 0.7335
C18 C 0.1881(8) 0.42082(13) 0.6209(3)
C19 C -0.0093(9) 0.42277(15) 0.5596(3)
H10 H -0.0238 0.4439 0.5091
C20 C -0.1856(8) 0.39340(16) 0.5731(3)
H11 H -0.3205 0.3947 0.5319
C21 C -0.1633(7) 0.36194(13) 0.6477(3)
H12 H -0.2839 0.3423 0.6570
C22 C 0.3770(7) 0.49354(13) 0.6426(3)
C23 C 0.5560(8) 0.52037(15) 0.6204(3)
H13 H 0.6621 0.5082 0.5825
C24 C 0.5798(10) 0.56458(17) 0.6532(4)
H14 H 0.7040 0.5821 0.6390
C25 C 0.4244(11) 0.58312(18) 0.7061(4)
H15 H 0.4383 0.6136 0.7270
C26 C 0.2421(10) 0.5559(2) 0.7293(4)
H16 H 0.1359 0.5683 0.7667
C27 C 0.2180(8) 0.51034(16) 0.6966(3)
H17 H 0.0966 0.4921 0.7115
F1 F 0.2346(4) 0.33027(8) 1.14834(13)
F2 F 0.0435(5) 0.38717(8) 1.08450(16)
F3 F 0.3903(4) 0.37721(8) 1.05688(16)
N1 N 0.2813(5) 0.29031(9) 0.97401(18)
H18 H 0.3451 0.2776 1.0257
O1 O 0.3303(5) 0.27623(8) 0.63826(16)
O2 O -0.0918(5) 0.30498(10) 1.00418(19)
H19 H -0.2007 0.3178 0.9735
O3 O -0.3157(5) 0.37096(11) 0.8883(2)
O4 O -0.0785(5) 0.43047(9) 0.8812(2)
O5 O 0.3710(5) 0.44930(9) 0.6059(2)
C28 C -0.2423(16) 0.5043(3) 0.9077(8)
H20 H -0.2803 0.5040 0.9728
H21 H -0.3344 0.5269 0.8712
H22 H -0.0840 0.5120 0.9074
loop_
_geom_bond_atom_site_label_1
_geom_bond_atom_site_label_2
_geom_bond_site_symmetry_1
_geom_bond_site_symmetry_2
C1 C2 1_555 1_555
C2 C3 1_555 1_555
C3 C4 1_555 1_555
C4 H1 1_555 1_555
C5 C4 1_555 1_555
H2 C5 1_555 1_555
C6 C5 1_555 1_555
H3 C6 1_555 1_555
C7 C6 1_555 1_555
H4 C7 1_555 1_555
C8 C3 1_555 1_555
C9 C1 1_555 1_555
C10 C11 1_555 1_555
C11 F1 1_555 1_555
C12 C10 1_555 1_555
H5 C12 1_555 1_555
C13 C12 1_555 1_555
C14 H6 1_555 1_555
H7 C14 1_555 1_555
C15 C1 1_555 1_555
H8 C15 1_555 1_555
C16 C15 1_555 1_555
C17 C16 1_555 1_555
H9 C17 1_555 1_555
C18 C17 1_555 1_555
C19 C18 1_555 1_555
H10 C19 1_555 1_555
C20 C19 1_555 1_555
H11 C20 1_555 1_555
C21 C16 1_555 1_555
H12 C21 1_555 1_555
C22 C23 1_555 1_555
C23 H13 1_555 1_555
C24 C23 1_555 1_555
H14 C24 1_555 1_555
C25 C24 1_555 1_555
H15 C25 1_555 1_555
C26 C25 1_555 1_555
H16 C26 1_555 1_555
C27 C22 1_555 1_555
H17 C27 1_555 1_555
F2 C11 1_555 1_555
F3 C11 1_555 1_555
N1 C9 1_555 1_555
H18 N1 1_555 1_555
O1 C2 1_555 1_555
O2 C10 1_555 1_555
H19 O2 1_555 1_555
O3 C13 1_555 1_555
O4 C13 1_555 1_555
O5 C18 1_555 1_555
C28 C14 1_555 1_555
H20 C28 1_555 1_555
H21 C28 1_555 1_555
H22 C28 1_555 1_555
C7 C8 1_555 1_555
C8 C9 1_555 1_555
C10 N1 1_555 1_555
C12 C15 1_555 1_555
C14 O4 1_555 1_555
C20 C21 1_555 1_555
C22 O5 1_555 1_555
C26 C27 1_555 1_555

#END
