
#######################################################################
#
#                 Cambridge Crystallographic Data Centre
#                                CCDC 
#
#######################################################################
#
# If this CIF has been generated from an entry in the Cambridge 
# Structural Database, then it will include bibliographic, chemical, 
# crystal, experimental, refinement or atomic coordinate data resulting 
# from the CCDC's data processing and validation procedures.
#
#######################################################################

data_PAJBEI
_chemical_formula_moiety         'C7 H5 F3 N4 O1'
_chemical_name_systematic        
5-Methyl-2-trifluoromethyl-1,2,4-triazolo(1,5-a)pyrimidin-7(4H)-one
_symmetry_cell_setting           monoclinic
_symmetry_space_group_name_H-M   'P 21/c'
_symmetry_Int_Tables_number      14
_space_group_name_Hall           '-P 2ybc'
loop_
_symmetry_equiv_pos_site_id
_symmetry_equiv_pos_as_xyz
1 x,y,z
2 x,1/2-y,1/2+z
3 -x,-y,-z
4 -x,1/2+y,1/2-z
_cell_length_a                   4.6152(4)
_cell_length_b                   20.504(2)
_cell_length_c                   8.7094(9)
_cell_angle_alpha                90
_cell_angle_beta                 91.378(7)
_cell_angle_gamma                90
_cell_volume                     823.933
_exptl_crystal_colour            colorless
_exptl_crystal_description       block
_cell_formula_units_Z            4
_exptl_crystal_recrystallization_method ethanol
loop_
_atom_site_label
_atom_site_type_symbol
_atom_site_fract_x
_atom_site_fract_y
_atom_site_fract_z
F1 F -0.1721(3) 0.52415(8) 0.2457(2)
F2 F 0.2289(3) 0.51437(7) 0.13118(15)
F3 F 0.2028(4) 0.48649(7) 0.36639(17)
O1 O 0.7878(3) 0.68786(8) 0.58691(17)
N1 N 0.0722(4) 0.65130(9) 0.2409(2)
N2 N 0.4013(4) 0.60891(9) 0.4147(2)
N3 N 0.4146(4) 0.67558(9) 0.4130(2)
N4 N 0.1892(4) 0.76402(9) 0.2895(2)
C1 C 0.1948(5) 0.59834(11) 0.3109(3)
C2 C 0.6088(5) 0.71441(12) 0.4997(2)
C3 C 0.5643(5) 0.78230(11) 0.4739(2)
C4 C 0.3613(5) 0.80605(11) 0.3727(2)
C5 C 0.2155(4) 0.69892(11) 0.3087(2)
C6 C 0.1123(5) 0.53028(12) 0.2658(3)
C7 C 0.3113(5) 0.87660(12) 0.3425(3)
H1 H 0.6820 0.8124 0.5300
H2 H 0.1061 0.8868 0.3561
H3 H 0.3649 0.8869 0.2371
H4 H 0.4300 0.9026 0.4146
H5 H 0.0605 0.7795 0.2229
loop_
_geom_bond_atom_site_label_1
_geom_bond_atom_site_label_2
_geom_bond_site_symmetry_1
_geom_bond_site_symmetry_2
F1 C6 1_555 1_555
F2 C6 1_555 1_555
F3 C6 1_555 1_555
O1 C2 1_555 1_555
N1 C1 1_555 1_555
N2 N3 1_555 1_555
N3 C2 1_555 1_555
N4 C4 1_555 1_555
C1 N2 1_555 1_555
C2 C3 1_555 1_555
C3 C4 1_555 1_555
C4 C7 1_555 1_555
C5 N1 1_555 1_555
C6 C1 1_555 1_555
C7 H2 1_555 1_555
H1 C3 1_555 1_555
H3 C7 1_555 1_555
H4 C7 1_555 1_555
H5 N4 1_555 1_555
N3 C5 1_555 1_555
N4 C5 1_555 1_555

#END
