
#######################################################################
#
#                 Cambridge Crystallographic Data Centre
#                                CCDC 
#
#######################################################################
#
# If this CIF has been generated from an entry in the Cambridge 
# Structural Database, then it will include bibliographic, chemical, 
# crystal, experimental, refinement or atomic coordinate data resulting 
# from the CCDC's data processing and validation procedures.
#
#######################################################################

data_PAJKIV
_chemical_compound_source        'Valeriana laxiflora DC (Valerianaceae)'
_chemical_formula_moiety         'C10 H16 O4,C1 H1 Cl3'
_chemical_name_systematic        
'(4R,5R,7S,8S,9S)-7-Hydroxy-8-hydroxymethyl-4-methylperhydrocyclopenta(c)pyran-1-one chloroform solvate'
_chemical_properties_biological  
'active against H37Rv strain (ATCC 27294) of Mycobaterium tuberculosis'
_symmetry_cell_setting           monoclinic
_symmetry_space_group_name_H-M   'P 21'
_symmetry_Int_Tables_number      4
_space_group_name_Hall           'P 2yb'
loop_
_symmetry_equiv_pos_site_id
_symmetry_equiv_pos_as_xyz
1 x,y,z
2 -x,1/2+y,-z
_cell_length_a                   10.523(3)
_cell_length_b                   6.0404(15)
_cell_length_c                   11.231(3)
_cell_angle_alpha                90
_cell_angle_beta                 94.478(5)
_cell_angle_gamma                90
_cell_volume                     711.698
_exptl_crystal_colour            colorless
_exptl_crystal_description       parallelepiped
_chemical_melting_point          91-93deg.C
_cell_formula_units_Z            2
loop_
_atom_site_label
_atom_site_type_symbol
_atom_site_fract_x
_atom_site_fract_y
_atom_site_fract_z
O1 O 0.1912(4) 0.3611(6) 0.4568(3)
C1 C 0.1348(5) 0.4481(10) 0.5484(5)
O2 O 0.0906(3) 0.6346(8) 0.5344(3)
O3 O 0.0647(3) 0.1578(7) 0.8928(3)
H1 H 0.0836 0.0227 0.8918
C2 C 0.2504(5) 0.1447(11) 0.4704(5)
H2 H 0.3126 0.1263 0.4094
H3 H 0.1844 0.0288 0.4568
O4 O 0.0414(4) 0.7213(6) 0.9032(3)
H4 H -0.0030 0.6712 0.9560
C3 C 0.3168(4) 0.1160(10) 0.5917(4)
H5 H 0.3744 0.2460 0.6078
C4 C 0.2182(4) 0.1193(10) 0.6822(4)
H6 H 0.1692 -0.0226 0.6759
C5 C 0.2713(5) 0.1495(11) 0.8112(4)
H7 H 0.2837 0.0043 0.8513
H8 H 0.3542 0.2279 0.8147
C6 C 0.1730(5) 0.2858(9) 0.8705(5)
H9 H 0.2110 0.3573 0.9453
C7 C 0.1348(5) 0.4596(9) 0.7743(4)
H10 H 0.2080 0.5637 0.7689
C8 C 0.1223(5) 0.3170(9) 0.6584(4)
H11 H 0.0346 0.2523 0.6521
C9 C 0.0183(5) 0.5939(9) 0.7956(4)
H12 H -0.0022 0.6942 0.7271
H13 H -0.0553 0.4942 0.8029
C10 C 0.3991(4) -0.0941(7) 0.5994(4)
H14 H 0.4620 -0.0868 0.5396
H15 H 0.3446 -0.2242 0.5840
H16 H 0.4431 -0.1054 0.6793
C11 C 0.2904(4) 0.7714(7) 1.1136(4)
H17 H 0.2090 0.7744 1.0613
Cl1 Cl 0.40796(13) 0.6408(3) 1.03652(13)
Cl2 Cl 0.26433(15) 0.6295(3) 1.24554(13)
Cl3 Cl 0.33798(17) 1.0475(2) 1.14733(14)
loop_
_geom_bond_atom_site_label_1
_geom_bond_atom_site_label_2
_geom_bond_site_symmetry_1
_geom_bond_site_symmetry_2
O1 C1 1_555 1_555
C1 O2 1_555 1_555
O3 H1 1_555 1_555
C2 O1 1_555 1_555
H2 C2 1_555 1_555
H3 C2 1_555 1_555
O4 H4 1_555 1_555
C3 C2 1_555 1_555
H5 C3 1_555 1_555
C4 C3 1_555 1_555
H6 C4 1_555 1_555
C5 C4 1_555 1_555
H7 C5 1_555 1_555
H8 C5 1_555 1_555
C6 O3 1_555 1_555
H9 C6 1_555 1_555
C7 C6 1_555 1_555
H10 C7 1_555 1_555
C8 C1 1_555 1_555
H11 C8 1_555 1_555
C9 O4 1_555 1_555
H12 C9 1_555 1_555
H13 C9 1_555 1_555
C10 C3 1_555 1_555
H14 C10 1_555 1_555
H15 C10 1_555 1_555
H16 C10 1_555 1_555
C11 H17 1_555 1_555
Cl1 C11 1_555 1_555
Cl2 C11 1_555 1_555
Cl3 C11 1_555 1_555
C4 C8 1_555 1_555
C5 C6 1_555 1_555
C7 C9 1_555 1_555
C7 C8 1_555 1_555

#END
