
#######################################################################
#
#                 Cambridge Crystallographic Data Centre
#                                CCDC 
#
#######################################################################
#
# If this CIF has been generated from an entry in the Cambridge 
# Structural Database, then it will include bibliographic, chemical, 
# crystal, experimental, refinement or atomic coordinate data resulting 
# from the CCDC's data processing and validation procedures.
#
#######################################################################

data_PAJVOO
_chemical_formula_moiety         'C24 H19 N1 O1'
_chemical_name_systematic        diphenyl(6-phenylpyridin-2-yl)methanol
_symmetry_cell_setting           triclinic
_symmetry_space_group_name_H-M   'P -1'
_symmetry_Int_Tables_number      2
_space_group_name_Hall           '-P 1'
loop_
_symmetry_equiv_pos_site_id
_symmetry_equiv_pos_as_xyz
1 x,y,z
2 -x,-y,-z
_cell_length_a                   7.89910(10)
_cell_length_b                   10.0247(2)
_cell_length_c                   12.1699(2)
_cell_angle_alpha                98.8510(10)
_cell_angle_beta                 95.6560(10)
_cell_angle_gamma                108.8530(10)
_cell_volume                     889.725
_exptl_crystal_colour            colorless
_exptl_crystal_description       rods
_cell_formula_units_Z            2
loop_
_atom_site_label
_atom_site_type_symbol
_atom_site_fract_x
_atom_site_fract_y
_atom_site_fract_z
N1 N 0.19858(12) 0.38224(10) 0.68829(8)
O1 O 0.25683(13) 0.14248(10) 0.64078(7)
C1 C 0.14539(15) 0.49716(11) 0.68726(9)
C2 C 0.21198(15) 0.58786(12) 0.60433(10)
C3 C 0.13789(15) 0.29457(12) 0.75853(9)
C4 C 0.2032(2) 0.16452(12) 0.74886(9)
C5 C 0.2847(2) 0.53740(13) 0.51414(11)
C6 C 0.0234(2) 0.31694(14) 0.83291(11)
C7 C 0.0294(2) -0.03580(12) 0.84616(10)
C8 C 0.36546(15) 0.18936(11) 0.83954(10)
C9 C 0.0447(2) 0.02937(11) 0.75345(9)
C10 C 0.4647(2) 0.09732(14) 0.82491(12)
C11 C 0.0292(2) 0.52467(13) 0.75940(11)
C12 C 0.4154(2) 0.29464(13) 0.93635(11)
C13 C -0.0307(2) 0.43487(14) 0.83277(11)
C14 C 0.2601(2) 0.80742(15) 0.53392(13)
C15 C -0.0937(2) -0.0290(2) 0.66125(12)
C16 C -0.1202(2) -0.15547(14) 0.84689(12)
C17 C 0.3432(2) 0.62024(15) 0.43534(12)
C18 C 0.6540(2) 0.2134(2) 1.00240(14)
C19 C 0.2015(2) 0.72516(14) 0.61297(12)
C20 C 0.5595(2) 0.30671(15) 1.01752(13)
C21 C 0.3298(2) 0.75552(15) 0.44496(13)
C22 C -0.2561(2) -0.2115(2) 0.75561(14)
C23 C 0.6066(2) 0.10910(15) 0.90599(14)
C24 C -0.2421(2) -0.1477(2) 0.66314(14)
H1 H 0.3494(17) 0.3602(14) 0.9501(10)
H2 H 0.1240(18) 0.0030(14) 0.9116(11)
H3 H -0.0109(18) 0.6049(15) 0.7567(11)
H4 H -0.0187(18) 0.2479(15) 0.8819(11)
H5 H -0.1268(19) -0.2009(16) 0.9128(12)
H6 H 0.5893(20) 0.3821(17) 1.0850(13)
H7 H 0.2917(19) 0.4429(16) 0.5056(11)
H8 H 0.4297(20) 0.0221(16) 0.7582(12)
H9 H 0.3925(20) 0.5816(16) 0.3715(13)
H10 H -0.1128(20) 0.4520(16) 0.8838(12)
H11 H 0.6706(21) 0.0395(17) 0.8932(13)
H12 H 0.7521(22) 0.2209(16) 1.0613(13)
H13 H 0.3705(20) 0.8108(17) 0.3886(13)
H14 H -0.3618(22) -0.2951(17) 0.7582(13)
H15 H 0.1495(22) 0.7608(17) 0.6753(14)
H16 H -0.0822(20) 0.0186(17) 0.5988(13)
H17 H 0.2765(25) 0.2297(21) 0.6198(15)
H18 H 0.2544(22) 0.9029(19) 0.5439(13)
H19 H -0.3365(25) -0.1869(19) 0.5997(15)
loop_
_geom_bond_atom_site_label_1
_geom_bond_atom_site_label_2
_geom_bond_site_symmetry_1
_geom_bond_site_symmetry_2
N1 C1 1_555 1_555
O1 C4 1_555 1_555
C1 C2 1_555 1_555
C2 C5 1_555 1_555
C3 N1 1_555 1_555
C4 C3 1_555 1_555
C5 C17 1_555 1_555
C6 C3 1_555 1_555
C7 C9 1_555 1_555
C8 C4 1_555 1_555
C9 C4 1_555 1_555
C10 C8 1_555 1_555
C11 C1 1_555 1_555
C12 C8 1_555 1_555
C13 C6 1_555 1_555
C14 C19 1_555 1_555
C15 C9 1_555 1_555
C16 C7 1_555 1_555
C17 C21 1_555 1_555
C18 C20 1_555 1_555
C19 C2 1_555 1_555
C20 C12 1_555 1_555
C21 C14 1_555 1_555
C22 C16 1_555 1_555
C23 C10 1_555 1_555
C24 C15 1_555 1_555
H1 C12 1_555 1_555
H2 C7 1_555 1_555
H3 C11 1_555 1_555
H4 C6 1_555 1_555
H5 C16 1_555 1_555
H6 C20 1_555 1_555
H7 C5 1_555 1_555
H8 C10 1_555 1_555
H9 C17 1_555 1_555
H10 C13 1_555 1_555
H11 C23 1_555 1_555
H12 C18 1_555 1_555
H13 C21 1_555 1_555
H14 C22 1_555 1_555
H15 C19 1_555 1_555
H16 C15 1_555 1_555
H17 O1 1_555 1_555
H18 C14 1_555 1_555
H19 C24 1_555 1_555
C11 C13 1_555 1_555
C18 C23 1_555 1_555
C22 C24 1_555 1_555

#END
