
#######################################################################
#
#                 Cambridge Crystallographic Data Centre
#                                CCDC 
#
#######################################################################
#
# If this CIF has been generated from an entry in the Cambridge 
# Structural Database, then it will include bibliographic, chemical, 
# crystal, experimental, refinement or atomic coordinate data resulting 
# from the CCDC's data processing and validation procedures.
#
#######################################################################

data_PAKPUO01
_chemical_formula_moiety         'C14 H22 B10 N2 O2'
_chemical_name_systematic        
1,2-bis(2-Pyridylmethanol)-1,2-dicarba-closo-dodecaborane
_symmetry_cell_setting           triclinic
_symmetry_space_group_name_H-M   'P -1'
_symmetry_Int_Tables_number      2
_space_group_name_Hall           '-P 1'
loop_
_symmetry_equiv_pos_site_id
_symmetry_equiv_pos_as_xyz
1 x,y,z
2 -x,-y,-z
_cell_length_a                   6.7401(6)
_cell_length_b                   11.4451(12)
_cell_length_c                   13.0403(12)
_cell_angle_alpha                103.695(8)
_cell_angle_beta                 94.220(7)
_cell_angle_gamma                97.930(8)
_cell_volume                     962.079
_cell_formula_units_Z            2
loop_
_atom_site_label
_atom_site_type_symbol
_atom_site_fract_x
_atom_site_fract_y
_atom_site_fract_z
O1 O 0.2509(2) 0.94525(12) 1.01416(11)
H1 H 0.1540 0.9213 1.0425
N1 N 0.2087(3) 0.73606(16) 1.08470(14)
O2 O 0.0581(2) 1.06363(13) 0.85035(13)
H2 H 0.0186 1.1044 0.8115
C1 C 0.3314(3) 0.84431(16) 0.95844(14)
H3 H 0.4659 0.8759 0.9433
N2 N 0.1638(3) 1.12366(19) 0.68037(16)
C2 C 0.1541(3) 0.86858(15) 0.76762(14)
C3 C 0.3601(3) 0.75654(16) 1.02714(15)
B1 B -0.0379(3) 0.80067(19) 0.82659(18)
H4 H -0.1207 0.8511 0.8874
B2 B 0.2585(3) 0.64454(18) 0.77711(18)
H5 H 0.3667 0.5928 0.8060
B3 B 0.0240(3) 0.65580(18) 0.82946(18)
H6 H -0.0204 0.6109 0.8920
C4 C 0.2186(3) 1.00897(16) 0.80873(15)
H7 H 0.3282 1.0243 0.8663
B4 B 0.3396(3) 0.78204(18) 0.74076(17)
H8 H 0.4998 0.8211 0.7468
C5 C 0.5337(3) 0.70798(19) 1.03245(17)
H9 H 0.6363 0.7252 0.9917
B5 B 0.1620(3) 0.7936(2) 0.63791(17)
H10 H 0.2060 0.8386 0.5754
C6 C 0.2960(3) 1.06747(16) 0.72290(15)
B6 B 0.2281(3) 0.6499(2) 0.64216(18)
H11 H 0.3159 0.6011 0.5831
B7 B -0.0698(3) 0.8073(2) 0.69153(18)
H12 H -0.1754 0.8619 0.6646
C7 C 0.2308(4) 0.6615(2) 1.14850(19)
H13 H 0.1263 0.6449 1.1882
B8 B -0.0285(4) 0.6652(2) 0.61093(19)
H14 H -0.1085 0.6259 0.5309
C8 C 0.3986(4) 0.6087(2) 1.1583(2)
H15 H 0.4075 0.5577 1.2038
B9 B 0.0295(3) 0.57215(19) 0.69643(18)
H16 H -0.0129 0.4724 0.6717
B10 B -0.1526(3) 0.6699(2) 0.7277(2)
H17 H -0.3137 0.6338 0.7235
C9 C 0.4900(3) 1.06738(18) 0.69615(17)
H18 H 0.5797 1.0293 0.7292
C10 C 0.4123(5) 1.1815(3) 0.5729(2)
H19 H 0.4472 1.2208 0.5205
C11 C 0.5479(4) 1.1255(2) 0.6186(2)
H20 H 0.6772 1.1263 0.5980
C12 C 0.2253(5) 1.1788(3) 0.6057(2)
H21 H 0.1343 1.2176 0.5743
C13 C 0.5526(4) 0.6321(2) 1.1004(2)
H22 H 0.6689 0.5977 1.1062
C14 C 0.2070(3) 0.77993(15) 0.84924(14)
loop_
_geom_bond_atom_site_label_1
_geom_bond_atom_site_label_2
_geom_bond_site_symmetry_1
_geom_bond_site_symmetry_2
O1 H1 1_555 1_555
N1 C3 1_555 1_555
O2 H2 1_555 1_555
C1 O1 1_555 1_555
H3 C1 1_555 1_555
N2 C6 1_555 1_555
C2 B1 1_555 1_555
C3 C1 1_555 1_555
B1 H4 1_555 1_555
B2 H5 1_555 1_555
B3 B1 1_555 1_555
H6 B3 1_555 1_555
C4 O2 1_555 1_555
H7 C4 1_555 1_555
B4 C2 1_555 1_555
H8 B4 1_555 1_555
C5 C3 1_555 1_555
H9 C5 1_555 1_555
B5 C2 1_555 1_555
H10 B5 1_555 1_555
C6 C4 1_555 1_555
B6 B2 1_555 1_555
H11 B6 1_555 1_555
B7 C2 1_555 1_555
H12 B7 1_555 1_555
C7 N1 1_555 1_555
H13 C7 1_555 1_555
B8 B5 1_555 1_555
H14 B8 1_555 1_555
C8 C7 1_555 1_555
H15 C8 1_555 1_555
B9 B2 1_555 1_555
H16 B9 1_555 1_555
B10 B1 1_555 1_555
H17 B10 1_555 1_555
C9 C6 1_555 1_555
H18 C9 1_555 1_555
C10 H19 1_555 1_555
C11 C9 1_555 1_555
H20 C11 1_555 1_555
C12 N2 1_555 1_555
H21 C12 1_555 1_555
C13 C5 1_555 1_555
H22 C13 1_555 1_555
C14 C1 1_555 1_555
C2 C4 1_555 1_555
C2 C14 1_555 1_555
B1 B7 1_555 1_555
B1 C14 1_555 1_555
B2 B3 1_555 1_555
B2 B4 1_555 1_555
B2 C14 1_555 1_555
B3 B9 1_555 1_555
B3 B10 1_555 1_555
B3 C14 1_555 1_555
B4 B5 1_555 1_555
B4 B6 1_555 1_555
B4 C14 1_555 1_555
B5 B6 1_555 1_555
B5 B7 1_555 1_555
B6 B8 1_555 1_555
B6 B9 1_555 1_555
B7 B8 1_555 1_555
B7 B10 1_555 1_555
B8 B9 1_555 1_555
B8 B10 1_555 1_555
C8 C13 1_555 1_555
B9 B10 1_555 1_555
C10 C11 1_555 1_555
C10 C12 1_555 1_555

#END
