
#######################################################################
#
#                 Cambridge Crystallographic Data Centre
#                                CCDC 
#
#######################################################################
#
# If this CIF has been generated from an entry in the Cambridge 
# Structural Database, then it will include bibliographic, chemical, 
# crystal, experimental, refinement or atomic coordinate data resulting 
# from the CCDC's data processing and validation procedures.
#
#######################################################################

data_PAKSAW
_chemical_formula_moiety         'C25 H26 O6'
_chemical_name_systematic        
'dimethyl 13-oxo-22-oxahexacyclo[13.6.1.0^2,14^.0^3,12^.0^6,11^.0^16,21^]docosa-11,16,18,20-tetraene-4,5-dicarboxylate'
_symmetry_cell_setting           monoclinic
_symmetry_space_group_name_H-M   'C c'
_symmetry_Int_Tables_number      9
_space_group_name_Hall           'C -2yc'
loop_
_symmetry_equiv_pos_site_id
_symmetry_equiv_pos_as_xyz
1 x,y,z
2 x,-y,1/2+z
3 1/2+x,1/2+y,z
4 1/2+x,1/2-y,1/2+z
_cell_length_a                   8.6130(6)
_cell_length_b                   23.0367(9)
_cell_length_c                   10.7028(7)
_cell_angle_alpha                90
_cell_angle_beta                 95.494(2)
_cell_angle_gamma                90
_cell_volume                     2113.84
_cell_formula_units_Z            4
loop_
_atom_site_label
_atom_site_type_symbol
_atom_site_fract_x
_atom_site_fract_y
_atom_site_fract_z
C1 C 0.1098(3) 0.23099(10) 0.6463(2)
C2 C 0.0449(3) 0.28813(9) 0.6921(2)
H1 H -0.0424 0.3025 0.6350
C3 C 0.1725(3) 0.33451(11) 0.7194(2)
H2 H 0.2417 0.3397 0.6527
C4 C 0.0954(3) 0.38932(10) 0.7597(2)
C5 C 0.0503(4) 0.44051(11) 0.7007(3)
H3 H 0.0705 0.4476 0.6182
C6 C -0.0263(4) 0.48120(12) 0.7684(3)
H4 H -0.0552 0.5165 0.7311
C7 C -0.0605(3) 0.47051(12) 0.8890(3)
H5 H -0.1110 0.4987 0.9323
C8 C -0.0205(3) 0.41802(11) 0.9470(2)
H6 H -0.0462 0.4101 1.0277
C9 C 0.0589(3) 0.37780(10) 0.8811(2)
C10 C 0.1118(3) 0.31605(10) 0.9063(2)
H7 H 0.1298 0.3055 0.9952
C11 C -0.0041(2) 0.27624(9) 0.82626(19)
H8 H -0.1128 0.2873 0.8335
C12 C 0.0232(2) 0.21077(9) 0.85114(18)
H9 H 0.1134 0.2074 0.9138
C13 C -0.1106(2) 0.17728(8) 0.90151(19)
H10 H -0.1236 0.1924 0.9855
C14 C -0.0608(2) 0.11309(9) 0.91625(19)
H11 H -0.1497 0.0913 0.9427
C15 C -0.0160(3) 0.08565(9) 0.7933(2)
H12 H 0.0619 0.0556 0.8167
C16 C -0.1565(3) 0.05521(11) 0.7204(2)
H13 H -0.1997 0.0269 0.7746
H14 H -0.2368 0.0837 0.6966
C17 C -0.1104(4) 0.02473(12) 0.6026(3)
H15 H -0.0382 -0.0065 0.6268
H16 H -0.2025 0.0079 0.5572
C18 C -0.0353(4) 0.06646(12) 0.5183(3)
H17 H -0.1125 0.0944 0.4845
H18 H 0.0010 0.0452 0.4485
C19 C 0.1017(3) 0.09876(11) 0.5876(2)
H19 H 0.1864 0.0717 0.6088
H20 H 0.1386 0.1282 0.5328
C20 C 0.0562(3) 0.12708(9) 0.7058(2)
C21 C 0.0689(2) 0.18383(9) 0.73166(18)
C22 C -0.2654(3) 0.18409(9) 0.8229(2)
C23 C -0.5350(3) 0.16517(14) 0.8197(3)
H21 H -0.5646 0.2051 0.8280
H22 H -0.6053 0.1408 0.8604
H23 H -0.5396 0.1552 0.7323
C24 C 0.0713(3) 0.10845(10) 1.0204(2)
C25 C 0.1375(4) 0.13048(15) 1.2356(3)
H24 H 0.1572 0.0919 1.2669
H25 H 0.0977 0.1538 1.2996
H26 H 0.2328 0.1471 1.2123
O1 O 0.1830(3) 0.22745(9) 0.55517(19)
O2 O 0.24825(19) 0.31328(7) 0.83728(17)
O3 O -0.2879(2) 0.21099(8) 0.72643(15)
O4 O -0.37783(18) 0.15681(8) 0.87731(16)
O5 O 0.1983(2) 0.09027(11) 1.01045(19)
O6 O 0.0247(2) 0.12837(8) 1.12751(15)
loop_
_geom_bond_atom_site_label_1
_geom_bond_atom_site_label_2
_geom_bond_site_symmetry_1
_geom_bond_site_symmetry_2
C1 C2 1_555 1_555
C2 H1 1_555 1_555
C3 C2 1_555 1_555
H2 C3 1_555 1_555
C4 C3 1_555 1_555
C5 C4 1_555 1_555
H3 C5 1_555 1_555
C6 C5 1_555 1_555
H4 C6 1_555 1_555
C7 C6 1_555 1_555
H5 C7 1_555 1_555
C8 C7 1_555 1_555
H6 C8 1_555 1_555
C9 C4 1_555 1_555
C10 C9 1_555 1_555
H7 C10 1_555 1_555
C11 C2 1_555 1_555
H8 C11 1_555 1_555
C12 C11 1_555 1_555
H9 C12 1_555 1_555
C13 C12 1_555 1_555
H10 C13 1_555 1_555
C14 C13 1_555 1_555
H11 C14 1_555 1_555
C15 C14 1_555 1_555
H12 C15 1_555 1_555
C16 C15 1_555 1_555
H13 C16 1_555 1_555
H14 C16 1_555 1_555
C17 C16 1_555 1_555
H15 C17 1_555 1_555
H16 C17 1_555 1_555
C18 C17 1_555 1_555
H17 C18 1_555 1_555
H18 C18 1_555 1_555
C19 C18 1_555 1_555
H19 C19 1_555 1_555
H20 C19 1_555 1_555
C20 C15 1_555 1_555
C21 C1 1_555 1_555
C22 C13 1_555 1_555
C23 H21 1_555 1_555
H22 C23 1_555 1_555
H23 C23 1_555 1_555
C24 C14 1_555 1_555
C25 H24 1_555 1_555
H25 C25 1_555 1_555
H26 C25 1_555 1_555
O1 C1 1_555 1_555
O2 C3 1_555 1_555
O3 C22 1_555 1_555
O4 C22 1_555 1_555
O5 C24 1_555 1_555
O6 C24 1_555 1_555
C8 C9 1_555 1_555
C10 C11 1_555 1_555
C10 O2 1_555 1_555
C12 C21 1_555 1_555
C19 C20 1_555 1_555
C20 C21 1_555 1_555
C23 O4 1_555 1_555
C25 O6 1_555 1_555

#END
