
#######################################################################
#
#                 Cambridge Crystallographic Data Centre
#                                CCDC 
#
#######################################################################
#
# If this CIF has been generated from an entry in the Cambridge 
# Structural Database, then it will include bibliographic, chemical, 
# crystal, experimental, refinement or atomic coordinate data resulting 
# from the CCDC's data processing and validation procedures.
#
#######################################################################

data_PALLAS
_chemical_formula_moiety         'C28 H30 N4'
_chemical_name_systematic        
3,4,9,10-tetraethyl-21,22,23,24-tetraazapentacyclo[16.2.1.1^2,5^.1^8,11^.1^12,15^]tetracosa-1(21),2,4,6,8(23),9,11,13,15,17,19-undecaene
_symmetry_cell_setting           monoclinic
_symmetry_space_group_name_H-M   'C 2/c'
_symmetry_Int_Tables_number      15
_space_group_name_Hall           '-C 2yn'
loop_
_symmetry_equiv_pos_site_id
_symmetry_equiv_pos_as_xyz
1 x,y,z
2 -x,y,1/2-z
3 1/2+x,1/2+y,z
4 1/2-x,1/2+y,1/2-z
5 -x,-y,-z
6 x,-y,1/2+z
7 1/2-x,1/2-y,-z
8 1/2+x,1/2-y,1/2+z
_cell_length_a                   21.8367(13)
_cell_length_b                   11.6734(5)
_cell_length_c                   9.2417(4)
_cell_angle_alpha                90
_cell_angle_beta                 100.435(3)
_cell_angle_gamma                90
_cell_volume                     2316.83
_exptl_crystal_colour            blue
_exptl_crystal_description       block
_cell_formula_units_Z            4
loop_
_atom_site_label
_atom_site_type_symbol
_atom_site_fract_x
_atom_site_fract_y
_atom_site_fract_z
N1 N 1.04549(8) 0.49911(15) 0.17066(19)
N2 N 1.04523(9) 0.73805(16) 0.1706(2)
C1 C 1.05446(9) 0.38505(18) 0.1511(2)
C2 C 1.08540(9) 0.55796(19) 0.1030(2)
C3 C 1.12269(10) 0.4782(2) 0.0362(2)
C4 C 1.08577(10) 0.6783(2) 0.1045(2)
C5 C 1.10311(10) 0.3713(2) 0.0649(2)
C6 C 1.02295(10) 0.29727(19) 0.2072(2)
H1 H 1.0352 0.2228 0.1821
C7 C 1.12339(13) 0.7586(2) 0.0435(3)
H2 H 1.1558 0.7409 -0.0088
C8 C 1.05543(13) 0.8515(2) 0.1546(3)
C9 C 1.12786(12) 0.2586(2) 0.0227(3)
H3 H 1.1452 0.2690 -0.0683
H4 H 1.0930 0.2034 0.0006
C10 C 1.02341(15) 0.9412(2) 0.2100(4)
H5 H 1.0368 1.0155 0.1877
C11 C 1.10427(15) 0.8640(2) 0.0741(4)
H6 H 1.1207 0.9344 0.0464
C12 C 1.17788(16) 0.2083(3) 0.1411(3)
H7 H 1.2124 0.2628 0.1646
H8 H 1.1932 0.1366 0.1055
H9 H 1.1604 0.1931 0.2296
C13 C 1.17414(11) 0.5072(2) -0.0462(3)
H10 H 1.1610 0.5730 -0.1121
H11 H 1.1811 0.4411 -0.1084
C14 C 1.23516(12) 0.5369(3) 0.0553(3)
H12 H 1.2287 0.6025 0.1168
H13 H 1.2667 0.5562 -0.0039
H14 H 1.2494 0.4710 0.1181
N1A N 0.95451(8) 0.49911(15) 0.32934(19)
N2A N 0.95477(9) 0.73805(16) 0.3294(2)
C1A C 0.94554(9) 0.38505(18) 0.3489(2)
C2A C 0.91460(9) 0.55796(19) 0.3970(2)
C3A C 0.87731(10) 0.4782(2) 0.4638(2)
C4A C 0.91423(10) 0.6783(2) 0.3955(2)
C5A C 0.89689(10) 0.3713(2) 0.4351(2)
C6A C 0.97705(10) 0.29727(19) 0.2928(2)
H1A H 0.9648 0.2228 0.3179
C7A C 0.87661(13) 0.7586(2) 0.4565(3)
H2A H 0.8442 0.7409 0.5088
C8A C 0.94457(13) 0.8515(2) 0.3454(3)
C9A C 0.87214(12) 0.2586(2) 0.4773(3)
H3A H 0.8548 0.2690 0.5683
H4A H 0.9070 0.2034 0.4994
C10A C 0.97659(15) 0.9412(2) 0.2900(4)
H5A H 0.9632 1.0155 0.3123
C11A C 0.89573(15) 0.8640(2) 0.4259(4)
H6A H 0.8793 0.9344 0.4536
C12A C 0.82212(16) 0.2083(3) 0.3589(3)
H7A H 0.7876 0.2628 0.3354
H8A H 0.8068 0.1366 0.3945
H9A H 0.8396 0.1931 0.2704
C13A C 0.82586(11) 0.5072(2) 0.5462(3)
H10A H 0.8390 0.5730 0.6121
H11A H 0.8189 0.4411 0.6084
C14A C 0.76484(12) 0.5369(3) 0.4447(3)
H12A H 0.7713 0.6025 0.3832
H13A H 0.7333 0.5562 0.5039
H14A H 0.7506 0.4710 0.3819
H15? H 1.0174(17) 0.712(3) 0.221(4)
H16? H 1.015(2) 0.525(3) 0.222(5)
loop_
_geom_bond_atom_site_label_1
_geom_bond_atom_site_label_2
_geom_bond_site_symmetry_1
_geom_bond_site_symmetry_2
N1 C1 1_555 1_555
N2 C4 1_555 1_555
C1 C5 1_555 1_555
C2 N1 1_555 1_555
C3 C2 1_555 1_555
C4 C2 1_555 1_555
C5 C3 1_555 1_555
C6 C1 1_555 1_555
H1 C6 1_555 1_555
C7 C4 1_555 1_555
H2 C7 1_555 1_555
C8 N2 1_555 1_555
C9 C5 1_555 1_555
H3 C9 1_555 1_555
H4 C9 1_555 1_555
C10 C8 1_555 1_555
H5 C10 1_555 1_555
C11 C7 1_555 1_555
H6 C11 1_555 1_555
C12 C9 1_555 1_555
H7 C12 1_555 1_555
H8 C12 1_555 1_555
H9 C12 1_555 1_555
C13 C3 1_555 1_555
H10 C13 1_555 1_555
H11 C13 1_555 1_555
C14 C13 1_555 1_555
H12 C14 1_555 1_555
H13 C14 1_555 1_555
H14 C14 1_555 1_555
N1A C1A 1_555 1_555
N2A C4A 1_555 1_555
C1A C5A 1_555 1_555
C2A N1A 1_555 1_555
C3A C2A 1_555 1_555
C4A C2A 1_555 1_555
C5A C3A 1_555 1_555
C6A C6 1_555 1_555
H1A C6A 1_555 1_555
C7A C4A 1_555 1_555
H2A C7A 1_555 1_555
C8A N2A 1_555 1_555
C9A C5A 1_555 1_555
H3A C9A 1_555 1_555
H4A C9A 1_555 1_555
C10A C10 1_555 1_555
H5A C10A 1_555 1_555
C11A C7A 1_555 1_555
H6A C11A 1_555 1_555
C12A C9A 1_555 1_555
H7A C12A 1_555 1_555
H8A C12A 1_555 1_555
H9A C12A 1_555 1_555
C13A C3A 1_555 1_555
H10A C13A 1_555 1_555
H11A C13A 1_555 1_555
C14A C13A 1_555 1_555
H12A C14A 1_555 1_555
H13A C14A 1_555 1_555
H14A C14A 1_555 1_555
C8 C11 1_555 1_555
C1A C6A 1_555 1_555
C8A C10A 1_555 1_555
C8A C11A 1_555 1_555

#END
