
#######################################################################
#
#                 Cambridge Crystallographic Data Centre
#                                CCDC 
#
#######################################################################
#
# If this CIF has been generated from an entry in the Cambridge 
# Structural Database, then it will include bibliographic, chemical, 
# crystal, experimental, refinement or atomic coordinate data resulting 
# from the CCDC's data processing and validation procedures.
#
#######################################################################

data_PAMGUI
_chemical_formula_moiety         'C70,C26 H16 N4 S8'
_chemical_name_systematic        
'C70fullerene 2,3,6,7-tetrakis(2-pyridylsulfanyl)tetrathiafulvalene'
_symmetry_cell_setting           triclinic
_symmetry_space_group_name_H-M   'P -1'
_symmetry_Int_Tables_number      2
_space_group_name_Hall           '-P 1'
loop_
_symmetry_equiv_pos_site_id
_symmetry_equiv_pos_as_xyz
1 x,y,z
2 -x,-y,-z
_cell_length_a                   13.3996(6)
_cell_length_b                   14.3549(7)
_cell_length_c                   15.9348(8)
_cell_angle_alpha                71.206(4)
_cell_angle_beta                 87.261(4)
_cell_angle_gamma                77.386(4)
_cell_volume                     2830.76
_exptl_crystal_colour            'dark black'
_exptl_crystal_description       plate
_cell_formula_units_Z            2
loop_
_atom_site_label
_atom_site_type_symbol
_atom_site_fract_x
_atom_site_fract_y
_atom_site_fract_z
S1 S 0.78261(17) 0.31813(17) 0.06930(16)
S2 S 0.74242(16) 0.10802(16) 0.12879(14)
S3 S 0.77054(17) 0.30387(17) 0.28160(15)
S4 S 0.76026(17) -0.13343(17) 0.18435(14)
S5 S 0.72287(18) -0.36215(18) 0.43278(16)
S6 S 0.72952(18) -0.34453(17) 0.22049(16)
S7 S 0.73156(17) 0.09478(16) 0.31784(14)
S8 S 0.75123(17) -0.14822(17) 0.37391(14)
C1 C 0.9248(7) -0.3364(6) 0.1651(6)
H1 H 0.9204 -0.2819 0.1855
C2 C 0.8461(8) -0.3832(7) 0.1712(6)
C3 C 0.6519(7) 0.4291(6) 0.3545(6)
H2 H 0.7108 0.4536 0.3538
C4 C 0.6514(7) 0.3518(7) 0.3232(6)
C5 C 0.6724(7) 0.3714(7) -0.0035(6)
C6 C 1.0116(8) -0.3741(7) 0.1268(6)
H3 H 1.0666 -0.3427 0.1197
C7 C 0.7425(7) 0.0301(7) 0.2401(6)
C8 C 0.8256(7) -0.3927(7) 0.5122(6)
C9 C 0.5775(7) 0.3467(7) 0.0168(6)
H4 H 0.5664 0.2994 0.0702
C10 C 0.7541(7) -0.2506(7) 0.2614(6)
C11 C 0.9205(8) -0.3679(7) 0.4876(7)
H5 H 0.9340 -0.3341 0.4293
C12 C 0.7490(7) 0.2176(7) 0.1552(6)
C13 C 0.7516(6) -0.0697(7) 0.2630(6)
C14 C 0.7442(7) 0.2102(7) 0.2414(7)
C15 C 0.9381(9) -0.5018(7) 0.1069(7)
H6 H 0.9431 -0.5576 0.0881
C16 C 0.7507(7) -0.2576(7) 0.3474(7)
C17 C 1.0199(8) -0.4564(8) 0.0989(7)
H7 H 1.0804 -0.4813 0.0747
C18 C 0.4752(7) 0.4314(7) 0.3881(6)
H8 H 0.4141 0.4583 0.4101
C19 C 0.8724(9) -0.4699(8) 0.6561(7)
H9 H 0.8569 -0.5051 0.7135
C20 C 0.4821(7) 0.3516(7) 0.3551(6)
H10 H 0.4246 0.3249 0.3564
C21 C 0.5189(8) 0.4673(8) -0.1244(7)
H11 H 0.4674 0.5016 -0.1673
C22 C 0.5619(8) 0.4699(7) 0.3872(7)
H12 H 0.5592 0.5234 0.4088
C23 C 0.6171(8) 0.4852(7) -0.1358(7)
H13 H 0.6300 0.5333 -0.1879
C24 C 0.9929(8) -0.3968(8) 0.5553(7)
H14 H 1.0569 -0.3811 0.5433
C25 C 0.5015(8) 0.3957(8) -0.0460(7)
H15 H 0.4369 0.3809 -0.0361
C26 C 0.9699(9) -0.4491(8) 0.6412(7)
H16 H 1.0180 -0.4695 0.6873
N1 N 0.8485(7) -0.4646(7) 0.1430(6)
N2 N 0.8011(7) -0.4425(6) 0.5934(5)
N3 N 0.6942(7) 0.4384(6) -0.0773(6)
N4 N 0.5689(6) 0.3114(6) 0.3213(5)
C31 C 0.3020(8) 0.0437(7) 0.4526(6)
C32 C 0.3543(7) -0.0575(7) 0.4656(6)
C33 C 0.3414(8) 0.1287(7) 0.3938(6)
C34 C 0.1333(7) -0.0003(8) 0.4557(6)
C35 C 0.4116(7) -0.2427(7) 0.4258(6)
C36 C 0.1463(7) 0.1190(7) 0.0258(6)
C37 C -0.0181(7) -0.0358(8) 0.2837(6)
C38 C 0.5172(7) -0.0784(8) 0.2403(7)
C39 C 0.0571(7) 0.1369(7) 0.0754(6)
C40 C 0.3251(7) -0.2262(7) 0.4745(6)
C41 C 0.1389(7) -0.0569(7) 0.0654(6)
C42 C 0.2550(8) 0.2091(7) 0.3536(7)
C43 C 0.1928(8) 0.0710(7) 0.4473(6)
C44 C 0.1952(7) 0.0189(7) 0.0273(6)
C45 C 0.3619(7) 0.0632(7) 0.0351(6)
C46 C 0.3107(8) 0.1668(8) 0.0264(6)
C47 C 0.1473(8) -0.1815(8) 0.4673(6)
C48 C 0.0601(8) 0.2220(7) 0.1032(7)
C49 C 0.5052(7) -0.1678(7) 0.3071(7)
C50 C 0.0420(7) 0.0262(8) 0.3959(6)
C51 C 0.4840(7) 0.1080(8) 0.2063(7)
C52 C 0.0149(7) 0.0569(8) 0.1281(6)
C53 C 0.4788(7) 0.0094(7) 0.3532(6)
C54 C 0.4470(7) -0.0763(7) 0.4142(6)
C55 C 0.2966(8) -0.1885(7) 0.1080(7)
C56 C 0.4710(7) -0.1667(7) 0.3936(6)
C57 C 0.4500(7) 0.0370(8) 0.0923(6)
C58 C 0.0460(7) -0.1324(7) 0.1840(6)
C59 C 0.4376(7) -0.2316(7) 0.2016(7)
C60 C 0.0203(7) 0.1241(8) 0.3341(7)
C61 C 0.1508(8) 0.2586(7) 0.0701(6)
C62 C 0.0791(8) 0.1989(7) 0.3311(7)
C63 C 0.2053(8) 0.1933(7) 0.0213(6)
C64 C 0.2338(7) -0.3065(7) 0.3975(7)
C65 C 0.0631(7) -0.1558(8) 0.4108(7)
C66 C 0.4852(7) -0.0633(7) 0.1487(6)
C67 C 0.1912(8) -0.1610(7) 0.1027(6)
C68 C 0.0503(7) -0.0384(7) 0.1146(6)
C69 C 0.1848(7) -0.1032(7) 0.4867(6)
C70 C 0.3551(7) -0.1115(7) 0.0750(6)
C71 C 0.5118(7) 0.0069(7) 0.2675(7)
C72 C 0.0818(8) 0.2613(7) 0.2396(7)
C73 C 0.1322(7) -0.2082(7) 0.1771(6)
C74 C 0.0259(7) 0.2241(7) 0.1857(7)
C75 C 0.1633(8) 0.1733(7) 0.3860(6)
C76 C -0.0212(7) 0.0578(8) 0.2163(7)
C77 C 0.4684(7) -0.2458(7) 0.2871(6)
C78 C 0.4423(7) -0.1374(8) 0.1323(6)
C79 C -0.0105(7) 0.1384(7) 0.2449(6)
C80 C 0.4525(7) 0.1233(7) 0.1205(6)
C81 C 0.0113(7) -0.1304(8) 0.2659(7)
C82 C 0.0619(7) -0.2062(8) 0.3457(6)
C83 C 0.0125(7) -0.0509(7) 0.3738(6)
C84 C 0.2060(8) 0.2943(7) 0.1206(7)
C85 C 0.3078(7) -0.0088(8) 0.0317(6)
C86 C 0.3476(8) -0.2635(7) 0.1848(7)
C87 C 0.2336(7) -0.2581(7) 0.4595(6)
C88 C 0.1815(8) -0.2812(7) 0.2520(7)
C89 C 0.4320(8) 0.1739(8) 0.2538(7)
C90 C 0.3670(8) 0.2045(7) 0.0788(6)
C91 C 0.2905(8) -0.3091(7) 0.2572(7)
C92 C 0.4275(7) 0.1117(7) 0.3451(7)
C93 C 0.2938(7) -0.1303(7) 0.4915(6)
C94 C 0.4118(7) -0.2935(7) 0.3615(7)
C95 C 0.1447(8) -0.2793(7) 0.3385(7)
C96 C 0.2582(8) 0.2698(7) 0.2655(7)
C97 C 0.3245(8) -0.3249(7) 0.3470(7)
C98 C 0.3502(8) 0.2499(7) 0.2148(7)
C99 C 0.3153(8) 0.2670(7) 0.1245(7)
C100 C 0.1705(8) 0.2962(7) 0.2078(7)
C27? C 0.8485(7) -0.4646(7) 0.1430(6)
H17? H 0.7919 -0.4935 0.1480
C28? C 0.5689(6) 0.3114(6) 0.3213(5)
H18? H 0.5722 0.2592 0.2980
C29? C 0.8011(7) -0.4425(6) 0.5934(5)
H19? H 0.7368 -0.4574 0.6055
C30? C 0.6942(7) 0.4384(6) -0.0773(6)
H20? H 0.7593 0.4518 -0.0876
N5? N 0.9248(7) -0.3364(6) 0.1651(6)
N6? N 0.9205(8) -0.3679(7) 0.4876(7)
N7? N 0.5775(7) 0.3467(7) 0.0168(6)
N8? N 0.6519(7) 0.4291(6) 0.3545(6)
loop_
_geom_bond_atom_site_label_1
_geom_bond_atom_site_label_2
_geom_bond_site_symmetry_1
_geom_bond_site_symmetry_2
S1 C5 1_555 1_555
S2 C7 1_555 1_555
S3 C4 1_555 1_555
S4 C10 1_555 1_555
S5 C8 1_555 1_555
S6 C2 1_555 1_555
S7 C7 1_555 1_555
S8 C13 1_555 1_555
C1 H1 1_555 1_555
C2 C1 1_555 1_555
C3 H2 1_555 1_555
C4 C3 1_555 1_555
C5 C9 1_555 1_555
C6 C1 1_555 1_555
H3 C6 1_555 1_555
C7 C13 1_555 1_555
C8 C11 1_555 1_555
C9 H4 1_555 1_555
C10 S6 1_555 1_555
C11 H5 1_555 1_555
C12 S1 1_555 1_555
C13 S4 1_555 1_555
C14 S3 1_555 1_555
C15 H6 1_555 1_555
C16 S5 1_555 1_555
C17 C6 1_555 1_555
H7 C17 1_555 1_555
C18 H8 1_555 1_555
C19 H9 1_555 1_555
C20 C18 1_555 1_555
H10 C20 1_555 1_555
C21 H11 1_555 1_555
C22 C3 1_555 1_555
H12 C22 1_555 1_555
C23 C21 1_555 1_555
H13 C23 1_555 1_555
C24 C11 1_555 1_555
H14 C24 1_555 1_555
C25 C9 1_555 1_555
H15 C25 1_555 1_555
C26 C19 1_555 1_555
H16 C26 1_555 1_555
N1 C2 1_555 1_555
N2 C8 1_555 1_555
N3 C5 1_555 1_555
N4 C4 1_555 1_555
C31 C32 1_555 1_555
C32 C54 1_555 1_555
C33 C31 1_555 1_555
C34 C43 1_555 1_555
C35 C40 1_555 1_555
C36 C39 1_555 1_555
C37 C76 1_555 1_555
C38 C49 1_555 1_555
C39 C48 1_555 1_555
C40 C87 1_555 1_555
C41 C44 1_555 1_555
C42 C33 1_555 1_555
C43 C31 1_555 1_555
C44 C36 1_555 1_555
C45 C46 1_555 1_555
C46 C63 1_555 1_555
C47 C65 1_555 1_555
C48 C61 1_555 1_555
C49 C56 1_555 1_555
C50 C34 1_555 1_555
C51 C71 1_555 1_555
C52 C39 1_555 1_555
C53 C54 1_555 1_555
C54 C56 1_555 1_555
C55 C67 1_555 1_555
C56 C35 1_555 1_555
C57 C45 1_555 1_555
C58 C68 1_555 1_555
C59 C77 1_555 1_555
C60 C50 1_555 1_555
C61 C63 1_555 1_555
C62 C60 1_555 1_555
C63 C36 1_555 1_555
C64 C87 1_555 1_555
C65 C82 1_555 1_555
C66 C38 1_555 1_555
C67 C41 1_555 1_555
C68 C41 1_555 1_555
C69 C34 1_555 1_555
C70 C55 1_555 1_555
C71 C38 1_555 1_555
C72 C62 1_555 1_555
C73 C58 1_555 1_555
C74 C48 1_555 1_555
C75 C42 1_555 1_555
C76 C52 1_555 1_555
C77 C49 1_555 1_555
C78 C59 1_555 1_555
C79 C60 1_555 1_555
C80 C51 1_555 1_555
C81 C37 1_555 1_555
C82 C81 1_555 1_555
C83 C37 1_555 1_555
C84 C61 1_555 1_555
C85 C44 1_555 1_555
C86 C55 1_555 1_555
C87 C47 1_555 1_555
C88 C73 1_555 1_555
C89 C51 1_555 1_555
C90 C46 1_555 1_555
C91 C86 1_555 1_555
C92 C33 1_555 1_555
C93 C32 1_555 1_555
C94 C35 1_555 1_555
C95 C64 1_555 1_555
C96 C42 1_555 1_555
C97 C64 1_555 1_555
C98 C89 1_555 1_555
C99 C84 1_555 1_555
C100 C72 1_555 1_555
S2 C12 1_555 1_555
S7 C14 1_555 1_555
S8 C16 1_555 1_555
C10 C16 1_555 1_555
C12 C14 1_555 1_555
C15 C17 1_555 1_555
C15 N1 1_555 1_555
C18 C22 1_555 1_555
C19 N2 1_555 1_555
C20 N4 1_555 1_555
C21 C25 1_555 1_555
C23 N3 1_555 1_555
C24 C26 1_555 1_555
C40 C93 1_555 1_555
C43 C75 1_555 1_555
C45 C85 1_555 1_555
C47 C69 1_555 1_555
C50 C83 1_555 1_555
C52 C68 1_555 1_555
C53 C71 1_555 1_555
C53 C92 1_555 1_555
C57 C66 1_555 1_555
C57 C80 1_555 1_555
C58 C81 1_555 1_555
C59 C86 1_555 1_555
C62 C75 1_555 1_555
C65 C83 1_555 1_555
C66 C78 1_555 1_555
C67 C73 1_555 1_555
C69 C93 1_555 1_555
C70 C78 1_555 1_555
C70 C85 1_555 1_555
C72 C74 1_555 1_555
C74 C79 1_555 1_555
C76 C79 1_555 1_555
C77 C94 1_555 1_555
C80 C90 1_555 1_555
C82 C95 1_555 1_555
C84 C100 1_555 1_555
C88 C91 1_555 1_555
C88 C95 1_555 1_555
C89 C92 1_555 1_555
C90 C99 1_555 1_555
C91 C97 1_555 1_555
C94 C97 1_555 1_555
C96 C98 1_555 1_555
C96 C100 1_555 1_555
C98 C99 1_555 1_555

#END
