
#######################################################################
#
#                 Cambridge Crystallographic Data Centre
#                                CCDC 
#
#######################################################################
#
# If this CIF has been generated from an entry in the Cambridge 
# Structural Database, then it will include bibliographic, chemical, 
# crystal, experimental, refinement or atomic coordinate data resulting 
# from the CCDC's data processing and validation procedures.
#
#######################################################################

data_PAMQIE
_chemical_formula_moiety         'C30 H31 Cl1 N2 O4'
_chemical_name_systematic        
3-((2R*,3S*)-3-(4-Chlorophenyl)-3-(2-methoxyanilino)-2-methylpropionyl)spiro(2H-1,3-benzoxazine-2,1'-cyclohexane)-4(3H)-one
_symmetry_cell_setting           monoclinic
_symmetry_space_group_name_H-M   'P 21/n'
_symmetry_Int_Tables_number      14
_space_group_name_Hall           '-P 2yn'
loop_
_symmetry_equiv_pos_site_id
_symmetry_equiv_pos_as_xyz
1 x,y,z
2 1/2-x,1/2+y,1/2-z
3 -x,-y,-z
4 1/2+x,1/2-y,1/2+z
_cell_length_a                   14.7792(3)
_cell_length_b                   16.7390(2)
_cell_length_c                   14.6920(3)
_cell_angle_alpha                90
_cell_angle_beta                 132.0900(5)
_cell_angle_gamma                90
_cell_volume                     2697.24
_exptl_crystal_colour            colorless
_exptl_crystal_description       block
_cell_formula_units_Z            4
_exptl_crystal_recrystallization_method dichloromethane/ethanol
loop_
_atom_site_label
_atom_site_type_symbol
_atom_site_fract_x
_atom_site_fract_y
_atom_site_fract_z
Cl1 Cl -0.02323(4) 0.48001(3) -0.25630(4)
O1 O 0.26520(10) 0.82569(6) 0.32880(10)
O2 O 0.29080(10) 0.63642(6) 0.46470(10)
O3 O 0.03520(10) 0.78008(7) 0.40210(10)
O4 O 0.55329(9) 0.58872(7) 0.49600(10)
N1 N 0.18320(10) 0.75266(7) 0.39070(10)
N2 N 0.36180(10) 0.65965(7) 0.29930(10)
C1 C 0.24530(10) 0.69213(8) 0.19020(10)
C2 C 0.16380(10) 0.70366(9) 0.21900(10)
C3 C 0.03460(10) 0.73230(10) 0.10740(10)
C4 C 0.21470(10) 0.76554(9) 0.31850(10)
C5 C 0.21860(10) 0.68110(9) 0.45380(10)
C6 C 0.15930(10) 0.66331(9) 0.50090(10)
C7 C 0.1882(2) 0.59400(10) 0.5688(2)
C8 C 0.1202(3) 0.57420(10) 0.5994(2)
C9 C 0.0243(3) 0.6219(2) 0.5611(2)
C10 C -0.0049(2) 0.69070(10) 0.4955(2)
C11 C 0.0644(2) 0.71200(10) 0.4670(2)
C12 C 0.13270(10) 0.81669(9) 0.41640(10)
C13 C 0.23040(10) 0.84920(10) 0.5455(2)
C14 C 0.1808(2) 0.91530(10) 0.5743(2)
C15 C 0.1189(2) 0.98090(10) 0.4792(2)
C16 C 0.0199(2) 0.94740(10) 0.3513(2)
C17 C 0.0716(2) 0.88350(10) 0.3225(2)
C18 C 0.46100(10) 0.65158(8) 0.31030(10)
C19 C 0.46560(10) 0.67920(10) 0.22470(10)
C20 C 0.5712(2) 0.67030(10) 0.2440(2)
C21 C 0.6717(2) 0.63270(10) 0.3471(2)
C22 C 0.66910(10) 0.60420(10) 0.4342(2)
C23 C 0.56610(10) 0.61303(9) 0.41670(10)
C24 C 0.6531(2) 0.54720(10) 0.60450(10)
C25 C 0.18250(10) 0.63793(8) 0.07880(10)
C26 C 0.16660(10) 0.55728(9) 0.08590(10)
C27 C 0.10340(10) 0.50865(9) -0.01620(10)
C28 C 0.05630(10) 0.54092(9) -0.12650(10)
C29 C 0.0717(2) 0.62030(10) -0.13610(10)
C30 C 0.1352(2) 0.66840(10) -0.03310(10)
H1 H 0.2597 0.7443 0.1717
H2 H 0.1573 0.6525 0.2468
H3 H 0.3563 0.6444 0.3551
H4 H 0.2558 0.5598 0.5948
H5 H 0.1404 0.5262 0.6481
H6 H -0.0244 0.6063 0.5813
H7 H -0.0733 0.7241 0.4693
H8 H 0.3940 0.7052 0.1497
H9 H 0.5736 0.6912 0.1833
H10 H 0.7450 0.6259 0.3592
H11 H 0.7411 0.5777 0.5082
H12 H 0.2007 0.5344 0.1648
H13 H 0.0923 0.4518 -0.0100
H14 H 0.1469 0.7251 -0.0396
H15 H 0.2964 0.8709 0.5537
H16 H 0.2610 0.8060 0.6037
H17 H 0.1223 0.8921 0.5766
H18 H 0.2480 0.9382 0.6537
H19 H 0.1792 1.0080 0.4825
H20 H 0.0828 1.0187 0.4969
H21 H -0.0145 0.9903 0.2920
H22 H -0.0434 0.9238 0.3461
H23 H 0.0056 0.8613 0.2420
H24 H 0.1311 0.9080 0.3224
H25 H 0.0379 0.6428 -0.2151
H26 H 0.6236 0.5159 0.6348
H27 H 0.6908 0.5128 0.5860
H28 H 0.7119 0.5851 0.6659
H29 H 0.0378 0.7874 0.0917
H30 H -0.0177 0.7266 0.1241
H31 H 0.0037 0.7008 0.0370
loop_
_geom_bond_atom_site_label_1
_geom_bond_atom_site_label_2
_geom_bond_site_symmetry_1
_geom_bond_site_symmetry_2
Cl1 C28 1_555 1_555
O1 C4 1_555 1_555
O2 C5 1_555 1_555
O3 C11 1_555 1_555
O4 C23 1_555 1_555
N1 C4 1_555 1_555
N2 C1 1_555 1_555
C1 C2 1_555 1_555
C2 C3 1_555 1_555
C3 H29 1_555 1_555
C4 C2 1_555 1_555
C5 N1 1_555 1_555
C6 C5 1_555 1_555
C7 C6 1_555 1_555
C8 C7 1_555 1_555
C9 C8 1_555 1_555
C10 C9 1_555 1_555
C11 C6 1_555 1_555
C12 O3 1_555 1_555
C13 C12 1_555 1_555
C14 C13 1_555 1_555
C15 C14 1_555 1_555
C16 C15 1_555 1_555
C17 C12 1_555 1_555
C18 N2 1_555 1_555
C19 C18 1_555 1_555
C20 C19 1_555 1_555
C21 C20 1_555 1_555
C22 C21 1_555 1_555
C23 C18 1_555 1_555
C24 O4 1_555 1_555
C25 C1 1_555 1_555
C26 C25 1_555 1_555
C27 C26 1_555 1_555
C28 C27 1_555 1_555
C29 C28 1_555 1_555
C30 C25 1_555 1_555
H1 C1 1_555 1_555
H2 C2 1_555 1_555
H3 N2 1_555 1_555
H4 C7 1_555 1_555
H5 C8 1_555 1_555
H6 C9 1_555 1_555
H7 C10 1_555 1_555
H8 C19 1_555 1_555
H9 C20 1_555 1_555
H10 C21 1_555 1_555
H11 C22 1_555 1_555
H12 C26 1_555 1_555
H13 C27 1_555 1_555
H14 C30 1_555 1_555
H15 C13 1_555 1_555
H16 C13 1_555 1_555
H17 C14 1_555 1_555
H18 C14 1_555 1_555
H19 C15 1_555 1_555
H20 C15 1_555 1_555
H21 C16 1_555 1_555
H22 C16 1_555 1_555
H23 C17 1_555 1_555
H24 C17 1_555 1_555
H25 C29 1_555 1_555
H26 C24 1_555 1_555
H27 C24 1_555 1_555
H28 C24 1_555 1_555
H30 C3 1_555 1_555
H31 C3 1_555 1_555
N1 C12 1_555 1_555
C10 C11 1_555 1_555
C16 C17 1_555 1_555
C22 C23 1_555 1_555
C29 C30 1_555 1_555

#END
