
#######################################################################
#
#                 Cambridge Crystallographic Data Centre
#                                CCDC 
#
#######################################################################
#
# If this CIF has been generated from an entry in the Cambridge 
# Structural Database, then it will include bibliographic, chemical, 
# crystal, experimental, refinement or atomic coordinate data resulting 
# from the CCDC's data processing and validation procedures.
#
#######################################################################

data_PAMQOM
_chemical_compound_source        'endolichenic fungal Phialocephala fortinii'
_chemical_formula_moiety         'C20 H14 O5'
_chemical_name_systematic        
5,6-dihydroxy-2,3-dihydro-4H-spiro[naphthalene-1,2'-naphtho[1,8-de][1,3]dioxin]-4-one
_symmetry_cell_setting           monoclinic
_symmetry_space_group_name_H-M   'P 21/n'
_symmetry_Int_Tables_number      14
_space_group_name_Hall           '-P 2yn'
loop_
_symmetry_equiv_pos_site_id
_symmetry_equiv_pos_as_xyz
1 x,y,z
2 1/2-x,1/2+y,1/2-z
3 -x,-y,-z
4 1/2+x,1/2-y,1/2+z
_cell_length_a                   9.3210(7)
_cell_length_b                   7.9839(6)
_cell_length_c                   20.5119(15)
_cell_angle_alpha                90
_cell_angle_beta                 95.851(4)
_cell_angle_gamma                90
_cell_volume                     1518.5
_exptl_crystal_colour            pink
_exptl_crystal_description       block
_cell_formula_units_Z            4
loop_
_atom_site_label
_atom_site_type_symbol
_atom_site_fract_x
_atom_site_fract_y
_atom_site_fract_z
O1 O 0.72615(15) 0.1865(2) 0.61819(6)
H1 H 0.560(3) 0.151(4) 0.6216(14)
C1 C 0.72462(19) 0.2325(2) 0.56084(8)
O2 O 0.20926(14) 0.1298(2) 0.52260(8)
H2 H 0.236(4) 0.085(5) 0.5606(17)
C2 C 0.86213(19) 0.2781(2) 0.53402(8)
H3 H 0.9077 0.1768 0.5200
H4 H 0.9267 0.3285 0.5686
O3 O 0.45309(16) 0.13215(18) 0.60254(6)
C3 C 0.84120(19) 0.3993(2) 0.47638(8)
H5 H 0.8145 0.5084 0.4921
H6 H 0.9315 0.4114 0.4572
C4 C 0.72577(18) 0.3393(2) 0.42443(7)
O4 O 0.77331(12) 0.18755(13) 0.39406(5)
C5 C 0.58631(17) 0.29460(19) 0.45172(7)
O5 O 0.69255(12) 0.46598(14) 0.37634(5)
C6 C 0.45761(19) 0.3000(2) 0.41281(8)
H7 H 0.4548 0.3403 0.3702
C7 C 0.33254(19) 0.1871(2) 0.49969(9)
C8 C 0.33124(19) 0.2456(2) 0.43681(9)
H8 H 0.2448 0.2489 0.4098
C9 C 0.46148(19) 0.1873(2) 0.54077(8)
C10 C 0.58985(18) 0.23915(19) 0.51721(7)
C11 C 0.88346(17) 0.2108(2) 0.35469(7)
C12 C 0.97102(19) 0.0810(2) 0.34218(8)
H9 H 0.9615 -0.0226 0.3620
C13 C 1.0764(2) 0.1067(2) 0.29863(8)
H10 H 1.1353 0.0178 0.2891
C14 C 1.09422(19) 0.2578(2) 0.27017(8)
H11 H 1.1660 0.2712 0.2422
C15 C 1.00482(18) 0.3953(2) 0.28249(7)
C16 C 1.0110(2) 0.5549(2) 0.25306(8)
H12 H 1.0817 0.5768 0.2254
C17 C 0.9148(2) 0.6767(2) 0.26472(8)
H13 H 0.9202 0.7799 0.2441
C18 C 0.8074(2) 0.6508(2) 0.30720(8)
H14 H 0.7426 0.7354 0.3148
C19 C 0.80070(17) 0.4987(2) 0.33689(7)
C20 C 0.89742(17) 0.3692(2) 0.32559(7)
loop_
_geom_bond_atom_site_label_1
_geom_bond_atom_site_label_2
_geom_bond_site_symmetry_1
_geom_bond_site_symmetry_2
O1 C1 1_555 1_555
H1 O3 1_555 1_555
C1 C2 1_555 1_555
O2 H2 1_555 1_555
C2 H3 1_555 1_555
H4 C2 1_555 1_555
O3 C9 1_555 1_555
C3 C2 1_555 1_555
H5 C3 1_555 1_555
H6 C3 1_555 1_555
C4 C3 1_555 1_555
O4 C4 1_555 1_555
C5 C4 1_555 1_555
O5 C4 1_555 1_555
C6 C5 1_555 1_555
H7 C6 1_555 1_555
C7 O2 1_555 1_555
C8 C6 1_555 1_555
H8 C8 1_555 1_555
C9 C7 1_555 1_555
C10 C1 1_555 1_555
C11 O4 1_555 1_555
C12 C11 1_555 1_555
H9 C12 1_555 1_555
C13 C12 1_555 1_555
H10 C13 1_555 1_555
C14 C13 1_555 1_555
H11 C14 1_555 1_555
C15 C14 1_555 1_555
C16 C15 1_555 1_555
H12 C16 1_555 1_555
C17 C16 1_555 1_555
H13 C17 1_555 1_555
C18 C17 1_555 1_555
H14 C18 1_555 1_555
C19 O5 1_555 1_555
C20 C11 1_555 1_555
C5 C10 1_555 1_555
C7 C8 1_555 1_555
C9 C10 1_555 1_555
C15 C20 1_555 1_555
C18 C19 1_555 1_555
C19 C20 1_555 1_555

#END
