
#######################################################################
#
#                 Cambridge Crystallographic Data Centre
#                                CCDC 
#
#######################################################################
#
# If this CIF has been generated from an entry in the Cambridge 
# Structural Database, then it will include bibliographic, chemical, 
# crystal, experimental, refinement or atomic coordinate data resulting 
# from the CCDC's data processing and validation procedures.
#
#######################################################################

data_PANHIY
_chemical_compound_source        'rhizomes of Iris tectorum Maxim'
_chemical_name_common            'spirioiridotectal D'
_chemical_formula_moiety         'C30 H46 O5'
_chemical_name_systematic        
2-(2'-(2,6-dimethylhepta-1,5-dien-1-yl)-6-hydroxy-4'-(hydroxymethyl)-2-(3-hydroxypropyl)-6-methyl-4a',5',6',7a'-tetrahydro-2'H,3H-spiro[cyclohexane-1,7'-cyclopenta[b]pyran]-3-ylidene)propanal
_chemical_properties_biological  
'suppressed lipopolysaccharide (LPS)-activated NO production in the BV2 cell line'
_symmetry_cell_setting           monoclinic
_symmetry_space_group_name_H-M   'P 21'
_symmetry_Int_Tables_number      4
_space_group_name_Hall           'P 2yb'
loop_
_symmetry_equiv_pos_site_id
_symmetry_equiv_pos_as_xyz
1 x,y,z
2 -x,1/2+y,-z
_cell_length_a                   17.3909(6)
_cell_length_b                   9.0127(3)
_cell_length_c                   18.0475(8)
_cell_angle_alpha                90
_cell_angle_beta                 91.162(4)
_cell_angle_gamma                90
_cell_volume                     2828.16
_exptl_crystal_colour            colorless
_exptl_crystal_description       block
_chemical_melting_point          '451.65 K'
_cell_formula_units_Z            4
loop_
_atom_site_label
_atom_site_type_symbol
_atom_site_fract_x
_atom_site_fract_y
_atom_site_fract_z
O1 O 0.37103(16) 0.0117(3) 0.69777(19)
O2 O 0.46329(18) 0.7619(3) 0.69149(16)
H1 H 0.4352 0.8374 0.6940
O3 O 0.62089(16) 0.4648(3) 0.6820(2)
O4 O 0.8412(2) 0.6260(6) 0.8521(3)
H2 H 0.8558 0.5522 0.8298
C1 C 0.3978(2) 0.1353(5) 0.6928(3)
H3 H 0.4510 0.1443 0.6829
C2 C 0.3532(2) 0.2716(5) 0.7013(2)
C3 C 0.3848(2) 0.4054(5) 0.6964(3)
C4 C 0.3384(2) 0.5458(5) 0.7080(3)
H4 H 0.3373 0.6048 0.6617
H5 H 0.2848 0.5192 0.7198
C5 C 0.3730(2) 0.6382(5) 0.7705(3)
H6 H 0.3690 0.5824 0.8175
H7 H 0.3428 0.7307 0.7754
C6 C 0.4579(2) 0.6785(4) 0.7582(2)
C7 C 0.5049(2) 0.5326(4) 0.7465(3)
C8 C 0.4695(2) 0.4389(5) 0.6822(3)
H8 H 0.4970 0.3415 0.6829
C9 C 0.2684(2) 0.2447(5) 0.7147(3)
H9 H 0.2551 0.1428 0.7006
H10 H 0.2375 0.3144 0.6849
H11 H 0.2579 0.2597 0.7673
C10 C 0.4860(3) 0.7755(6) 0.8220(2)
H12 H 0.4512 0.8604 0.8272
H13 H 0.5380 0.8113 0.8120
H14 H 0.4868 0.7175 0.8679
C11 C 0.5091(2) 0.4385(5) 0.8192(3)
H15 H 0.4830 0.4910 0.8598
H16 H 0.4837 0.3413 0.8113
C12 C 0.5943(3) 0.4168(5) 0.8387(3)
H17 H 0.6142 0.3249 0.8161
H18 H 0.6027 0.4118 0.8931
C13 C 0.6329(2) 0.5542(5) 0.8063(3)
H19 H 0.6206 0.6415 0.8380
C14 C 0.5911(2) 0.5722(5) 0.7323(3)
H20 H 0.5965 0.6753 0.7126
C15 C 0.7000(3) 0.4970(7) 0.6628(4)
H21 H 0.7215 0.4042 0.6410
C16 C 0.7472(3) 0.5304(6) 0.7306(4)
H22 H 0.8014 0.5374 0.7258
C17 C 0.7189(3) 0.5505(5) 0.7955(4)
C18 C 0.7670(3) 0.5737(6) 0.8649(4)
H23 H 0.7405 0.6452 0.8972
H24 H 0.7709 0.4783 0.8920
C19 C 0.7043(3) 0.6123(8) 0.6054(3)
H25 H 0.6912 0.7129 0.6146
C20 C 0.7268(6) 0.5677(13) 0.5424(5)
C21 C 0.7353(9) 0.6904(15) 0.4856(7)
H26 H 0.7203 0.7853 0.5075
H27 H 0.7021 0.6693 0.4424
H28 H 0.7889 0.6958 0.4702
C22 C 0.7391(6) 0.4121(13) 0.5087(7)
H29 H 0.7131 0.3373 0.5396
H30 H 0.7151 0.4089 0.4585
C23 C 0.8233(7) 0.3723(13) 0.5034(7)
H31 H 0.8484 0.3796 0.5531
H32 H 0.8491 0.4429 0.4700
C24 C 0.8315(7) 0.2160(13) 0.4740(9)
H33 H 0.7858 0.1591 0.4680
C25 C 0.8972(7) 0.1517(12) 0.4558(8)
C26 C 0.9716(6) 0.2299(15) 0.4574(9)
H34 H 1.0042 0.1899 0.4976
H35 H 0.9630 0.3360 0.4658
H36 H 0.9971 0.2158 0.4100
C27 C 0.9018(8) -0.0037(14) 0.4315(9)
H37 H 0.8501 -0.0471 0.4299
H38 H 0.9345 -0.0597 0.4664
H39 H 0.9239 -0.0079 0.3820
C28 C 0.4761(3) 0.5007(5) 0.6034(3)
H40 H 0.5165 0.5779 0.6014
H41 H 0.4266 0.5441 0.5860
O5 O 0.4546(5) 0.4684(10) 0.4507(5)
H42 H 0.4576 0.4796 0.4047
C29 C 0.4976(6) 0.3652(8) 0.5561(4)
H43 H 0.4529 0.2976 0.5516
H44 H 0.5403 0.3104 0.5808
C30 C 0.5222(6) 0.4143(14) 0.4782(4)
H45 H 0.5625 0.4919 0.4807
H46 H 0.5408 0.3295 0.4486
C41 C 0.6530(3) 0.0636(10) 0.6742(4)
H69 H 0.6566 0.1665 0.6554
H70 H 0.6685 -0.0049 0.6342
O7 O 0.5764(3) 0.0327(5) 0.6953(3)
H71 H 0.5553 -0.0523 0.6926
O8 O 0.97508(17) 0.2668(3) 0.80503(15)
H72 H 1.0030 0.3412 0.7978
O9 O 0.82212(15) -0.0424(3) 0.83955(17)
O10 O 1.0980(3) 0.0414(7) 1.0100(3)
H73 H 1.1193 0.0643 1.0506
O11 O 1.06506(16) -0.4851(3) 0.77859(19)
C42 C 1.0391(2) -0.3618(4) 0.7875(2)
H74 H 0.9882 -0.3527 0.8052
C43 C 1.0823(2) -0.2261(5) 0.7723(2)
C44 C 1.1620(2) -0.2509(5) 0.7438(3)
H75 H 1.1988 -0.1902 0.7723
H76 H 1.1635 -0.2229 0.6914
H77 H 1.1757 -0.3559 0.7491
C45 C 1.0514(2) -0.0912(4) 0.7835(2)
C46 C 1.0957(3) 0.0480(5) 0.7664(3)
H78 H 1.1459 0.0214 0.7451
H79 H 1.1056 0.1044 0.8126
C47 C 1.0502(3) 0.1441(5) 0.7115(3)
H80 H 1.0457 0.0914 0.6634
H81 H 1.0787 0.2375 0.7032
C48 C 0.9688(3) 0.1815(4) 0.7385(2)
C49 C 0.9254(2) 0.0352(5) 0.7581(2)
C50 C 0.9731(2) -0.0597(4) 0.8151(2)
H82 H 0.9462 -0.1573 0.8195
C51 C 0.9290(3) 0.2796(6) 0.6806(2)
H83 H 0.9619 0.3646 0.6696
H84 H 0.8800 0.3151 0.6999
H85 H 0.9193 0.2222 0.6353
C52 C 0.9828(2) 0.0028(4) 0.8941(2)
H86 H 1.0196 0.0867 0.8935
H87 H 0.9327 0.0415 0.9107
C53 C 1.0116(3) -0.1129(5) 0.9485(2)
H88 H 0.9709 -0.1884 0.9551
H89 H 1.0568 -0.1634 0.9275
C54 C 1.0339(3) -0.0498(6) 1.0230(3)
H90 H 0.9911 0.0089 1.0435
H91 H 1.0476 -0.1301 1.0584
C55 C 0.8426(2) 0.0709(5) 0.7873(2)
H92 H 0.8405 0.1718 0.8101
C56 C 0.7888(3) 0.0593(5) 0.7207(3)
H93 H 0.7936 0.1521 0.6908
C57 C 0.7071(3) 0.0435(5) 0.7433(4)
C58 C 0.6894(3) 0.0111(5) 0.8108(4)
H94 H 0.6365 0.0032 0.8225
C59 C 0.7484(2) -0.0147(5) 0.8717(3)
H95 H 0.7332 -0.1075 0.8980
C60 C 0.8223(3) -0.0699(7) 0.6762(3)
H96 H 0.8031 -0.1660 0.6948
H97 H 0.8080 -0.0606 0.6231
C61 C 0.9090(3) -0.0591(5) 0.6874(3)
H98 H 0.9323 -0.0115 0.6438
H99 H 0.9314 -0.1595 0.6934
C62 C 0.7518(3) 0.1053(6) 0.9279(3)
H100 H 0.7351 0.2013 0.9129
C63 C 0.7769(3) 0.0887(8) 0.9987(4)
C64 C 0.8089(3) -0.0590(9) 1.0297(4)
H101 H 0.8127 -0.1312 0.9886
H102 H 0.8614 -0.0420 1.0501
C65 C 0.7598(4) -0.1245(9) 1.0895(3)
H103 H 0.7570 -0.0536 1.1312
H104 H 0.7843 -0.2166 1.1083
C66 C 0.6786(3) -0.1598(8) 1.0615(3)
H105 H 0.6498 -0.0794 1.0413
C67 C 0.6433(5) -0.2928(9) 1.0624(4)
C68 C 0.5629(4) -0.3067(9) 1.0354(4)
H106 H 0.5420 -0.2079 1.0245
H107 H 0.5321 -0.3544 1.0735
H108 H 0.5612 -0.3670 0.9902
C69 C 0.6808(7) -0.4330(10) 1.0893(5)
H109 H 0.6640 -0.4549 1.1396
H110 H 0.7368 -0.4209 1.0895
H111 H 0.6662 -0.5151 1.0562
C70 C 0.7761(5) 0.2183(9) 1.0508(4)
H112 H 0.8235 0.2186 1.0811
H113 H 0.7317 0.2105 1.0830
H114 H 0.7726 0.3107 1.0222
H47? H 0.6625 0.6776 0.6138
C31? C 0.7408(8) 0.6616(18) 0.5487(6)
C32? C 0.7340(11) 0.791(2) 0.4954(7)
H48? H 0.6885 0.8499 0.5071
H49? H 0.7290 0.7534 0.4446
H50? H 0.7800 0.8532 0.5000
C33? C 0.8139(6) 0.5551(18) 0.5357(6)
H51? H 0.8619 0.6142 0.5391
H52? H 0.8163 0.4778 0.5746
C34? C 0.8073(9) 0.4826(19) 0.4599(7)
H53? H 0.7578 0.4289 0.4548
H54? H 0.8095 0.5588 0.4205
C35? C 0.8732(9) 0.3763(16) 0.4532(8)
H55? H 0.9230 0.4174 0.4478
C36? C 0.8674(8) 0.228(2) 0.4542(11)
C37? C 0.9368(12) 0.134(2) 0.4533(17)
H56? H 0.9823 0.1969 0.4476
H57? H 0.9330 0.0642 0.4117
H58? H 0.9413 0.0786 0.4999
C38? C 0.7951(11) 0.150(2) 0.4688(13)
H59? H 0.7538 0.2232 0.4745
H60? H 0.8008 0.0919 0.5144
H61? H 0.7823 0.0841 0.4272
H62? H 0.5291 0.5399 0.5994
H63? H 0.4412 0.5874 0.6001
C39? C 0.4600(5) 0.4048(16) 0.5311(7)
H64? H 0.4351 0.3100 0.5446
H65? H 0.4249 0.4593 0.4969
C40? C 0.5365(9) 0.373(2) 0.4928(6)
H66? H 0.5283 0.3205 0.4452
H67? H 0.5655 0.4661 0.4839
O6? O 0.5736(5) 0.2844(12) 0.5450(6)
H68? H 0.5598 0.1958 0.5389
C71? C 0.6246(9) 0.052(2) 0.7090(14)
H115? H 0.6115 -0.0427 0.6836
H116? H 0.5867 0.0695 0.7481
O12? O 0.6241(8) 0.1695(16) 0.6581(8)
H117? H 0.6235 0.2627 0.6651
O13? O 1.0886(4) -0.1436(9) 1.0670(4)
H118? H 1.0825 -0.1282 1.1124
H119? H 1.0583 0.0483 1.0158
H120? H 0.9867 -0.0338 1.0518
loop_
_geom_bond_atom_site_label_1
_geom_bond_atom_site_label_2
_geom_bond_site_symmetry_1
_geom_bond_site_symmetry_2
O1 C1 1_555 1_555
O2 H1 1_555 1_555
O3 C14 1_555 1_555
O4 H2 1_555 1_555
C1 H3 1_555 1_555
C2 C1 1_555 1_555
C3 C2 1_555 1_555
C4 C3 1_555 1_555
H4 C4 1_555 1_555
H5 C4 1_555 1_555
C5 C4 1_555 1_555
H6 C5 1_555 1_555
H7 C5 1_555 1_555
C6 O2 1_555 1_555
C7 C6 1_555 1_555
C8 C3 1_555 1_555
H8 C8 1_555 1_555
C9 C2 1_555 1_555
H9 C9 1_555 1_555
H10 C9 1_555 1_555
H11 C9 1_555 1_555
C10 C6 1_555 1_555
H12 C10 1_555 1_555
H13 C10 1_555 1_555
H14 C10 1_555 1_555
C11 C7 1_555 1_555
H15 C11 1_555 1_555
H16 C11 1_555 1_555
C12 C11 1_555 1_555
H17 C12 1_555 1_555
H18 C12 1_555 1_555
C13 C12 1_555 1_555
H19 C13 1_555 1_555
C14 C7 1_555 1_555
H20 C14 1_555 1_555
C15 O3 1_555 1_555
H21 C15 1_555 1_555
C16 C15 1_555 1_555
H22 C16 1_555 1_555
C17 C13 1_555 1_555
C18 O4 1_555 1_555
H23 C18 1_555 1_555
H24 C18 1_555 1_555
C19 C15 1_555 1_555
H25 C19 1_555 1_555
C20 C19 1_555 1_555
C21 C20 1_555 1_555
H26 C21 1_555 1_555
H27 C21 1_555 1_555
H28 C21 1_555 1_555
C22 C20 1_555 1_555
H29 C22 1_555 1_555
H30 C22 1_555 1_555
C23 C22 1_555 1_555
H31 C23 1_555 1_555
H32 C23 1_555 1_555
C24 C23 1_555 1_555
H33 C24 1_555 1_555
C25 C24 1_555 1_555
C26 C25 1_555 1_555
H34 C26 1_555 1_555
H35 C26 1_555 1_555
H36 C26 1_555 1_555
C27 C25 1_555 1_555
H37 C27 1_555 1_555
H38 C27 1_555 1_555
H39 C27 1_555 1_555
C28 C8 1_555 1_555
H40 C28 1_555 1_555
H41 C28 1_555 1_555
O5 H42 1_555 1_555
C29 C28 1_555 1_555
H43 C29 1_555 1_555
H44 C29 1_555 1_555
C30 O5 1_555 1_555
H45 C30 1_555 1_555
H46 C30 1_555 1_555
C41 H69 1_555 1_555
H70 C41 1_555 1_555
O7 C41 1_555 1_555
H71 O7 1_555 1_555
O8 H72 1_555 1_555
O9 C55 1_555 1_555
O10 H73 1_555 1_555
O11 C42 1_555 1_555
C42 H74 1_555 1_555
C43 C42 1_555 1_555
C44 C43 1_555 1_555
H75 C44 1_555 1_555
H76 C44 1_555 1_555
H77 C44 1_555 1_555
C45 C43 1_555 1_555
C46 C45 1_555 1_555
H78 C46 1_555 1_555
H79 C46 1_555 1_555
C47 C46 1_555 1_555
H80 C47 1_555 1_555
H81 C47 1_555 1_555
C48 O8 1_555 1_555
C49 C48 1_555 1_555
C50 C45 1_555 1_555
H82 C50 1_555 1_555
C51 C48 1_555 1_555
H83 C51 1_555 1_555
H84 C51 1_555 1_555
H85 C51 1_555 1_555
C52 C50 1_555 1_555
H86 C52 1_555 1_555
H87 C52 1_555 1_555
C53 C52 1_555 1_555
H88 C53 1_555 1_555
H89 C53 1_555 1_555
C54 O10 1_555 1_555
H90 C54 1_555 1_555
H91 C54 1_555 1_555
C55 C49 1_555 1_555
H92 C55 1_555 1_555
C56 C55 1_555 1_555
H93 C56 1_555 1_555
C57 C41 1_555 1_555
C58 C57 1_555 1_555
H94 C58 1_555 1_555
C59 O9 1_555 1_555
H95 C59 1_555 1_555
C60 C56 1_555 1_555
H96 C60 1_555 1_555
H97 C60 1_555 1_555
C61 C49 1_555 1_555
H98 C61 1_555 1_555
H99 C61 1_555 1_555
C62 C59 1_555 1_555
H100 C62 1_555 1_555
C63 C62 1_555 1_555
C64 C63 1_555 1_555
H101 C64 1_555 1_555
H102 C64 1_555 1_555
C65 C64 1_555 1_555
H103 C65 1_555 1_555
H104 C65 1_555 1_555
C66 C65 1_555 1_555
H105 C66 1_555 1_555
C67 C66 1_555 1_555
C68 C67 1_555 1_555
H106 C68 1_555 1_555
H107 C68 1_555 1_555
H108 C68 1_555 1_555
C69 C67 1_555 1_555
H109 C69 1_555 1_555
H110 C69 1_555 1_555
H111 C69 1_555 1_555
C70 C63 1_555 1_555
H112 C70 1_555 1_555
H113 C70 1_555 1_555
H114 C70 1_555 1_555
C5 C6 1_555 1_555
C7 C8 1_555 1_555
C13 C14 1_555 1_555
C16 C17 1_555 1_555
C17 C18 1_555 1_555
C29 C30 1_555 1_555
C47 C48 1_555 1_555
C49 C50 1_555 1_555
C53 C54 1_555 1_555
C56 C57 1_555 1_555
C58 C59 1_555 1_555
C60 C61 1_555 1_555

#END
