
#######################################################################
#
#                 Cambridge Crystallographic Data Centre
#                                CCDC 
#
#######################################################################
#
# If this CIF has been generated from an entry in the Cambridge 
# Structural Database, then it will include bibliographic, chemical, 
# crystal, experimental, refinement or atomic coordinate data resulting 
# from the CCDC's data processing and validation procedures.
#
#######################################################################

data_PANMOI
_chemical_formula_moiety         'C8 H10 N3 1+,B1 F4 1-'
_chemical_name_systematic        
'1-Cyano-4-(dimethylamino)pyridinium tetrafluoroborate'
_symmetry_cell_setting           orthorhombic
_symmetry_space_group_name_H-M   'P b c a'
_symmetry_Int_Tables_number      61
_space_group_name_Hall           '-P 2ac 2ab'
loop_
_symmetry_equiv_pos_site_id
_symmetry_equiv_pos_as_xyz
1 x,y,z
2 1/2-x,-y,1/2+z
3 -x,1/2+y,1/2-z
4 1/2+x,1/2-y,-z
5 -x,-y,-z
6 1/2+x,y,1/2-z
7 x,1/2-y,1/2+z
8 1/2-x,1/2+y,z
_cell_length_a                   9.0261(4)
_cell_length_b                   11.0956(5)
_cell_length_c                   20.2847(10)
_cell_angle_alpha                90
_cell_angle_beta                 90
_cell_angle_gamma                90
_cell_volume                     2031.51
_exptl_crystal_colour            colorless
_exptl_crystal_description       block
_cell_formula_units_Z            8
loop_
_atom_site_label
_atom_site_type_symbol
_atom_site_fract_x
_atom_site_fract_y
_atom_site_fract_z
N1 N 0.6161(2) 0.78520(17) 0.30564(9)
N2 N 0.7810(2) 0.6736(2) 0.22726(10)
N3 N 0.36213(19) 0.96299(16) 0.44272(9)
C1 C 0.7056(2) 0.7262(2) 0.26212(11)
C2 C 0.5691(3) 0.9011(2) 0.29310(11)
C3 C 0.4852(2) 0.9608(2) 0.33734(11)
C4 C 0.4441(2) 0.90558(18) 0.39887(10)
C5 C 0.4984(2) 0.78603(19) 0.41003(10)
C6 C 0.5808(2) 0.72936(19) 0.36450(11)
C7 C 0.3006(3) 1.0831(2) 0.42954(12)
C8 C 0.3076(3) 0.9048(2) 0.50292(11)
H1 H 0.594(3) 0.934(3) 0.2528(15)
H2 H 0.453(3) 1.038(3) 0.3286(14)
H3 H 0.477(4) 0.744(3) 0.4521(16)
H4 H 0.617(3) 0.648(3) 0.3691(14)
H5 H 0.224(4) 1.077(3) 0.3949(17)
H6 H 0.374(4) 1.135(3) 0.4166(18)
H7 H 0.260(4) 1.113(3) 0.4661(18)
H8 H 0.285(4) 0.961(3) 0.5344(17)
H9 H 0.385(5) 0.853(4) 0.524(2)
H10 H 0.224(5) 0.853(4) 0.494(2)
F1 F 0.45620(19) 0.87138(16) 0.04818(6)
F2 F 0.41710(17) 0.74937(11) 0.13416(8)
F3 F 0.36642(18) 0.94621(13) 0.14406(9)
F4 F 0.60242(15) 0.88251(18) 0.13754(8)
B1 B 0.45980(14) 0.86377(12) 0.11560(6)
loop_
_geom_bond_atom_site_label_1
_geom_bond_atom_site_label_2
_geom_bond_site_symmetry_1
_geom_bond_site_symmetry_2
N1 C1 1_555 1_555
N2 C1 1_555 1_555
N3 C4 1_555 1_555
C2 N1 1_555 1_555
C3 C2 1_555 1_555
C4 C3 1_555 1_555
C5 C4 1_555 1_555
C6 N1 1_555 1_555
C7 N3 1_555 1_555
C8 N3 1_555 1_555
H1 C2 1_555 1_555
H2 C3 1_555 1_555
H3 C5 1_555 1_555
H4 C6 1_555 1_555
H5 C7 1_555 1_555
H6 C7 1_555 1_555
H7 C7 1_555 1_555
H8 C8 1_555 1_555
H9 C8 1_555 1_555
H10 C8 1_555 1_555
F1 B1 1_555 1_555
F2 B1 1_555 1_555
F3 B1 1_555 1_555
F4 B1 1_555 1_555
C5 C6 1_555 1_555

#END
