
#######################################################################
#
#                 Cambridge Crystallographic Data Centre
#                                CCDC 
#
#######################################################################
#
# If this CIF has been generated from an entry in the Cambridge 
# Structural Database, then it will include bibliographic, chemical, 
# crystal, experimental, refinement or atomic coordinate data resulting 
# from the CCDC's data processing and validation procedures.
#
#######################################################################

data_PANVIM
_chemical_formula_moiety         'C26 H26 F3 N3 O2 S1'
_chemical_name_systematic        
(S)-N-cyclopentyl-3-methyl-2-(3-(methylthio)phenyl)-1-oxo-7-(trifluoromethyl)-1,2,3,4-tetrahydropyrazino[1,2-a]indole-3-carboxamide
_chemical_properties_biological  'tested for antiviral activity'
_symmetry_cell_setting           orthorhombic
_symmetry_space_group_name_H-M   'P 21 21 21'
_symmetry_Int_Tables_number      19
_space_group_name_Hall           'P 2ac 2ab'
loop_
_symmetry_equiv_pos_site_id
_symmetry_equiv_pos_as_xyz
1 x,y,z
2 1/2-x,-y,1/2+z
3 -x,1/2+y,1/2-z
4 1/2+x,1/2-y,-z
_cell_length_a                   7.303(2)
_cell_length_b                   12.718(2)
_cell_length_c                   25.953(5)
_cell_angle_alpha                90
_cell_angle_beta                 90
_cell_angle_gamma                90
_cell_volume                     2410.5
_exptl_crystal_colour            colorless
_exptl_crystal_description       plate
_cell_formula_units_Z            4
loop_
_atom_site_label
_atom_site_type_symbol
_atom_site_fract_x
_atom_site_fract_y
_atom_site_fract_z
O1 O 0.95763(12) 0.28460(7) 0.24321(4)
C1 C 0.79080(18) 0.28532(9) 0.25052(5)
C2 C 0.71369(18) 0.32213(10) 0.29963(5)
C3 C 0.79536(19) 0.37566(10) 0.33901(5)
H1 H 0.9181 0.4003 0.3399
C4 C 0.66139(18) 0.38737(10) 0.37839(5)
C5 C 0.6596(2) 0.43346(11) 0.42792(5)
H2 H 0.7644 0.4695 0.4405
C6 C 0.50504(19) 0.42551(11) 0.45756(5)
H3 H 0.5028 0.4569 0.4908
C7 C 0.34911(19) 0.37140(10) 0.43953(5)
C8 C 0.34271(18) 0.32746(10) 0.39076(5)
H4 H 0.2366 0.2922 0.3785
C9 C 0.49945(18) 0.33745(10) 0.36048(5)
N1 N 0.53381(14) 0.30056(8) 0.31171(4)
C10 C 0.41578(18) 0.24147(10) 0.27729(5)
H5 H 0.2862 0.2607 0.2835
H6 H 0.4300 0.1652 0.2838
C11 C 0.46861(17) 0.26691(10) 0.22135(5)
N2 N 0.66904(15) 0.24827(9) 0.21526(4)
C12 C 0.74021(17) 0.21844(10) 0.16535(5)
C13 C 0.80704(19) 0.11725(10) 0.15877(5)
H7 H 0.8083 0.0690 0.1867
C14 C 0.87195(19) 0.08782(11) 0.11068(5)
H8 H 0.9203 0.0191 0.1060
C15 C 0.86759(19) 0.15696(11) 0.06932(5)
H9 H 0.9104 0.1353 0.0364
C16 C 0.80003(19) 0.25835(11) 0.07641(5)
C17 C 0.73767(18) 0.28982(10) 0.12490(5)
H10 H 0.6940 0.3594 0.1301
S1 S 0.79039(5) 0.35309(3) 0.026471(13)
C18 C 0.8134(2) 0.27503(13) -0.03115(5)
H11 H 0.9346 0.2419 -0.0317
H12 H 0.7995 0.3202 -0.0615
H13 H 0.7187 0.2205 -0.0316
C19 C 0.43087(18) 0.38582(10) 0.21006(5)
O2 O 0.55782(13) 0.44897(7) 0.20632(4)
N3 N 0.25514(15) 0.41312(8) 0.20515(4)
H14 H 0.1692 0.3652 0.2088
C20 C 0.20387(19) 0.52209(10) 0.19370(5)
H15 H 0.2698 0.5705 0.2178
C21 C 0.2466(2) 0.55377(11) 0.13740(5)
H16 H 0.3089 0.6229 0.1362
H17 H 0.3259 0.5007 0.1207
C22 C 0.0611(2) 0.55924(14) 0.11090(6)
H18 H 0.0224 0.4891 0.0985
H19 H 0.0640 0.6086 0.0814
C23 C -0.0657(2) 0.59902(12) 0.15328(6)
H20 H -0.0498 0.6755 0.1589
H21 H -0.1955 0.5846 0.1448
C24 C -0.00501(19) 0.53670(11) 0.20024(6)
H22 H -0.0677 0.4677 0.2015
H23 H -0.0326 0.5757 0.2323
C25 C 0.35960(18) 0.19359(10) 0.18608(5)
H24 H 0.3814 0.2129 0.1500
H25 H 0.2288 0.2001 0.1938
H26 H 0.3988 0.1208 0.1918
C26 C 0.18901(19) 0.35773(11) 0.47491(5)
F1 F 0.03897(12) 0.32506(9) 0.45036(3)
F2 F 0.14253(14) 0.44745(7) 0.49896(4)
F3 F 0.22196(13) 0.28851(7) 0.51235(3)
loop_
_geom_bond_atom_site_label_1
_geom_bond_atom_site_label_2
_geom_bond_site_symmetry_1
_geom_bond_site_symmetry_2
O1 C1 1_555 1_555
C1 C2 1_555 1_555
C2 C3 1_555 1_555
C3 H1 1_555 1_555
C4 C3 1_555 1_555
C5 C4 1_555 1_555
H2 C5 1_555 1_555
C6 C5 1_555 1_555
H3 C6 1_555 1_555
C7 C6 1_555 1_555
C8 C7 1_555 1_555
H4 C8 1_555 1_555
C9 C4 1_555 1_555
N1 C2 1_555 1_555
C10 N1 1_555 1_555
H5 C10 1_555 1_555
H6 C10 1_555 1_555
C11 C10 1_555 1_555
N2 C1 1_555 1_555
C12 N2 1_555 1_555
C13 C12 1_555 1_555
H7 C13 1_555 1_555
C14 C13 1_555 1_555
H8 C14 1_555 1_555
C15 C14 1_555 1_555
H9 C15 1_555 1_555
C16 C15 1_555 1_555
C17 C12 1_555 1_555
H10 C17 1_555 1_555
S1 C16 1_555 1_555
C18 S1 1_555 1_555
H11 C18 1_555 1_555
H12 C18 1_555 1_555
H13 C18 1_555 1_555
C19 C11 1_555 1_555
O2 C19 1_555 1_555
N3 C19 1_555 1_555
H14 N3 1_555 1_555
C20 N3 1_555 1_555
H15 C20 1_555 1_555
C21 C20 1_555 1_555
H16 C21 1_555 1_555
H17 C21 1_555 1_555
C22 C21 1_555 1_555
H18 C22 1_555 1_555
H19 C22 1_555 1_555
C23 C22 1_555 1_555
H20 C23 1_555 1_555
H21 C23 1_555 1_555
C24 C20 1_555 1_555
H22 C24 1_555 1_555
H23 C24 1_555 1_555
C25 C11 1_555 1_555
H24 C25 1_555 1_555
H25 C25 1_555 1_555
H26 C25 1_555 1_555
C26 C7 1_555 1_555
F1 C26 1_555 1_555
F2 C26 1_555 1_555
F3 C26 1_555 1_555
C8 C9 1_555 1_555
C9 N1 1_555 1_555
C11 N2 1_555 1_555
C16 C17 1_555 1_555
C23 C24 1_555 1_555

#END
