
#######################################################################
#
#                 Cambridge Crystallographic Data Centre
#                                CCDC 
#
#######################################################################
#
# If this CIF has been generated from an entry in the Cambridge 
# Structural Database, then it will include bibliographic, chemical, 
# crystal, experimental, refinement or atomic coordinate data resulting 
# from the CCDC's data processing and validation procedures.
#
#######################################################################

data_PAPHUM
_chemical_formula_moiety         'C20 H15 B1 F2 O3'
_chemical_name_systematic        
2,2-difluoro-4-((4-methoxyphenyl)ethynyl)-5,6-dihydro-2H-2\l^4^,3\l^3^-naphtho[1,2-d][1,3,2]dioxaborinine
_symmetry_cell_setting           monoclinic
_symmetry_space_group_name_H-M   'P 21/c'
_symmetry_Int_Tables_number      14
_space_group_name_Hall           '-P 2ybc'
loop_
_symmetry_equiv_pos_site_id
_symmetry_equiv_pos_as_xyz
1 x,y,z
2 -x,1/2+y,1/2-z
3 -x,-y,-z
4 x,1/2-y,1/2+z
_cell_length_a                   7.8064(6)
_cell_length_b                   12.5650(10)
_cell_length_c                   17.6579(11)
_cell_angle_alpha                90
_cell_angle_beta                 98.492(7)
_cell_angle_gamma                90
_cell_volume                     1713.03
_exptl_crystal_colour            orange
_exptl_crystal_description       plate
_cell_formula_units_Z            4
loop_
_atom_site_label
_atom_site_type_symbol
_atom_site_fract_x
_atom_site_fract_y
_atom_site_fract_z
B1 B 0.6234(3) 0.75992(18) 0.55493(12)
F1 F 0.46032(19) 0.78974(11) 0.52412(7)
F2 F 0.7315(2) 0.84426(10) 0.56604(7)
O1 O 0.68835(19) 0.68524(10) 0.50131(7)
O2 O 0.61476(18) 0.70896(10) 0.62978(6)
O3 O 0.9830(2) 0.28816(15) 0.14071(10)
C1 C 0.7145(2) 0.58394(14) 0.51736(9)
C2 C 0.6911(2) 0.54021(13) 0.58672(9)
C3 C 0.7295(3) 0.42501(14) 0.60616(10)
H1 H 0.8517 0.4172 0.6257
H2 H 0.7044 0.3824 0.5601
C4 C 0.6230(3) 0.38449(14) 0.66549(10)
H3 H 0.5043 0.3741 0.6414
H4 H 0.6681 0.3161 0.6844
C5 C 0.6252(2) 0.45978(14) 0.73177(10)
C6 C 0.6148(2) 0.42541(17) 0.80605(11)
H5 H 0.6149 0.3529 0.8166
C7 C 0.6045(3) 0.49743(19) 0.86395(11)
H6 H 0.5969 0.4728 0.9130
C8 C 0.6052(3) 0.60503(18) 0.85048(11)
H7 H 0.5983 0.6528 0.8901
C9 C 0.6162(3) 0.64161(15) 0.77801(10)
H8 H 0.6158 0.7144 0.7684
C10 C 0.6281(2) 0.56966(14) 0.71878(9)
C11 C 0.6430(2) 0.60800(14) 0.64243(9)
C12 C 0.7680(2) 0.52379(15) 0.45674(10)
C13 C 0.8074(2) 0.47877(15) 0.40240(10)
C14 C 0.8526(2) 0.43048(15) 0.33494(10)
C15 C 0.9160(3) 0.32705(16) 0.33537(12)
H9 H 0.9295 0.2875 0.3804
C16 C 0.9586(3) 0.28336(17) 0.26966(13)
H10 H 1.0015 0.2143 0.2704
C17 C 0.9384(3) 0.34087(19) 0.20215(12)
C18 C 0.8749(3) 0.44333(19) 0.20072(11)
H11 H 0.8601 0.4822 0.1554
C19 C 0.8334(2) 0.48765(16) 0.26695(10)
H12 H 0.7919 0.5571 0.2661
C20 C 0.9554(4) 0.3409(3) 0.06791(14)
H13 H 0.8348 0.3579 0.0547
H14 H 0.9905 0.2950 0.0296
H15 H 1.0225 0.4052 0.0708
loop_
_geom_bond_atom_site_label_1
_geom_bond_atom_site_label_2
_geom_bond_site_symmetry_1
_geom_bond_site_symmetry_2
B1 F1 1_555 1_555
F2 B1 1_555 1_555
O1 B1 1_555 1_555
O2 B1 1_555 1_555
O3 C17 1_555 1_555
C1 O1 1_555 1_555
C2 C1 1_555 1_555
C3 C2 1_555 1_555
H1 C3 1_555 1_555
H2 C3 1_555 1_555
C4 C3 1_555 1_555
H3 C4 1_555 1_555
H4 C4 1_555 1_555
C5 C4 1_555 1_555
C6 C5 1_555 1_555
H5 C6 1_555 1_555
C7 C6 1_555 1_555
H6 C7 1_555 1_555
C8 C7 1_555 1_555
H7 C8 1_555 1_555
C9 C8 1_555 1_555
H8 C9 1_555 1_555
C10 C5 1_555 1_555
C11 O2 1_555 1_555
C12 C1 1_555 1_555
C13 C12 1_555 1_555
C14 C13 1_555 1_555
C15 C14 1_555 1_555
H9 C15 1_555 1_555
C16 C15 1_555 1_555
H10 C16 1_555 1_555
C17 C16 1_555 1_555
C18 C17 1_555 1_555
H11 C18 1_555 1_555
C19 C14 1_555 1_555
H12 C19 1_555 1_555
C20 O3 1_555 1_555
H13 C20 1_555 1_555
H14 C20 1_555 1_555
H15 C20 1_555 1_555
C2 C11 1_555 1_555
C9 C10 1_555 1_555
C10 C11 1_555 1_555
C18 C19 1_555 1_555

#END
