
#######################################################################
#
#                 Cambridge Crystallographic Data Centre
#                                CCDC 
#
#######################################################################
#
# If this CIF has been generated from an entry in the Cambridge 
# Structural Database, then it will include bibliographic, chemical, 
# crystal, experimental, refinement or atomic coordinate data resulting 
# from the CCDC's data processing and validation procedures.
#
#######################################################################

data_PAPHOG
_chemical_formula_moiety         'C20 H14 B1 Cl1 F2 O3'
_chemical_name_systematic        
4-((4-chlorophenyl)ethynyl)-2,2-difluoro-8-methoxy-5,6-dihydro-2H-2\l^4^,3\l^3^-naphtho[1,2-d][1,3,2]dioxaborinine
_symmetry_cell_setting           triclinic
_symmetry_space_group_name_H-M   'P -1'
_symmetry_Int_Tables_number      2
_space_group_name_Hall           '-P 1'
loop_
_symmetry_equiv_pos_site_id
_symmetry_equiv_pos_as_xyz
1 x,y,z
2 -x,-y,-z
_cell_length_a                   7.3491(5)
_cell_length_b                   7.6278(5)
_cell_length_c                   17.5011(11)
_cell_angle_alpha                101.372(5)
_cell_angle_beta                 90.133(5)
_cell_angle_gamma                116.501(6)
_cell_volume                     856.175
_exptl_crystal_colour            yellow
_exptl_crystal_description       prism
_cell_formula_units_Z            2
loop_
_atom_site_label
_atom_site_type_symbol
_atom_site_fract_x
_atom_site_fract_y
_atom_site_fract_z
B1 B 0.8837(3) 0.9370(4) 0.77738(12)
O1 O 0.79776(17) 0.91481(18) 0.85333(7)
O2 O 0.73775(18) 0.93722(19) 0.71913(7)
O3 O 0.31186(19) 0.69084(19) 1.14240(7)
F1 F 0.9131(3) 0.7693(3) 0.75026(7)
F2 F 1.05649(19) 1.1107(3) 0.78803(8)
Cl1 Cl -0.34988(8) 0.69506(8) 0.37252(3)
C1 C 0.6008(2) 0.8156(2) 0.85468(9)
C2 C 0.4627(3) 0.7606(3) 0.78833(9)
C3 C 0.2393(3) 0.6340(3) 0.79406(10)
H1 H 0.2103 0.4916 0.7871
H2 H 0.1568 0.6435 0.7518
C4 C 0.1795(3) 0.7035(3) 0.87326(9)
H3 H 0.1823 0.8356 0.8758
H4 H 0.0382 0.6065 0.8790
C5 C 0.3221(2) 0.7214(2) 0.93966(9)
C6 C 0.2591(3) 0.6988(2) 1.01276(10)
H5 H 0.1226 0.6714 1.0219
C7 C 0.3934(3) 0.7157(2) 1.07378(10)
C8 C 0.5950(3) 0.7566(2) 1.06207(9)
H6 H 0.6847 0.7629 1.1029
C9 C 0.6609(3) 0.7875(2) 0.99003(9)
H7 H 0.7991 0.8202 0.9819
C10 C 0.5283(2) 0.7719(2) 0.92857(9)
C11 C 0.4381(3) 0.7012(3) 1.20732(10)
H8 H 0.4822 0.5962 1.1936
H9 H 0.3602 0.6813 1.2529
H10 H 0.5583 0.8332 1.2198
C12 C 0.5406(3) 0.8339(3) 0.72330(9)
C13 C 0.4108(3) 0.8099(3) 0.65705(10)
C14 C 0.2950(3) 0.7919(3) 0.60469(10)
C15 C 0.1427(3) 0.7681(2) 0.54660(9)
C16 C 0.1875(3) 0.7981(3) 0.47133(10)
H11 H 0.3221 0.8341 0.4571
C17 C 0.0362(3) 0.7755(3) 0.41743(10)
H12 H 0.0656 0.7946 0.3660
C18 C -0.1580(3) 0.7248(3) 0.43957(10)
C19 C -0.2052(3) 0.6956(3) 0.51362(10)
H13 H -0.3396 0.6619 0.5278
C20 C -0.0547(3) 0.7161(3) 0.56697(10)
H14 H -0.0861 0.6946 0.6180
loop_
_geom_bond_atom_site_label_1
_geom_bond_atom_site_label_2
_geom_bond_site_symmetry_1
_geom_bond_site_symmetry_2
B1 O1 1_555 1_555
O1 C1 1_555 1_555
O2 B1 1_555 1_555
O3 C7 1_555 1_555
F1 B1 1_555 1_555
F2 B1 1_555 1_555
Cl1 C18 1_555 1_555
C1 C2 1_555 1_555
C2 C3 1_555 1_555
C3 H1 1_555 1_555
H2 C3 1_555 1_555
C4 C3 1_555 1_555
H3 C4 1_555 1_555
H4 C4 1_555 1_555
C5 C4 1_555 1_555
C6 C5 1_555 1_555
H5 C6 1_555 1_555
C7 C6 1_555 1_555
C8 C7 1_555 1_555
H6 C8 1_555 1_555
C9 C8 1_555 1_555
H7 C9 1_555 1_555
C10 C1 1_555 1_555
C11 O3 1_555 1_555
H8 C11 1_555 1_555
H9 C11 1_555 1_555
H10 C11 1_555 1_555
C12 O2 1_555 1_555
C13 C12 1_555 1_555
C14 C13 1_555 1_555
C15 C14 1_555 1_555
C16 C15 1_555 1_555
H11 C16 1_555 1_555
C17 C16 1_555 1_555
H12 C17 1_555 1_555
C18 C17 1_555 1_555
C19 C18 1_555 1_555
H13 C19 1_555 1_555
C20 C15 1_555 1_555
H14 C20 1_555 1_555
C2 C12 1_555 1_555
C5 C10 1_555 1_555
C9 C10 1_555 1_555
C19 C20 1_555 1_555

#END
