
#######################################################################
#
#                 Cambridge Crystallographic Data Centre
#                                CCDC 
#
#######################################################################
#
# If this CIF has been generated from an entry in the Cambridge 
# Structural Database, then it will include bibliographic, chemical, 
# crystal, experimental, refinement or atomic coordinate data resulting 
# from the CCDC's data processing and validation procedures.
#
#######################################################################

data_PAPMOJ
_chemical_formula_moiety         '2(C3 H7 N4 1+),C2 N10 2-'
_chemical_name_systematic        
"bis(4-Amino-1-methyltriazolium) 5,5'-azotetrazolate"
_symmetry_cell_setting           orthorhombic
_symmetry_space_group_name_H-M   'I b a m'
_symmetry_Int_Tables_number      72
_space_group_name_Hall           '-I 2 2c'
loop_
_symmetry_equiv_pos_site_id
_symmetry_equiv_pos_as_xyz
1 x,y,z
2 1/2+x,1/2+y,1/2+z
3 -x,-y,z
4 1/2-x,1/2+y,-z
5 1/2+x,1/2-y,-z
6 1/2-x,1/2-y,1/2+z
7 -x,y,1/2-z
8 x,-y,1/2-z
9 -x,-y,-z
10 1/2-x,1/2-y,1/2-z
11 x,y,-z
12 1/2+x,1/2-y,z
13 1/2-x,1/2+y,z
14 1/2+x,1/2+y,1/2-z
15 x,-y,1/2+z
16 -x,y,1/2+z
_cell_length_a                   10.4301(13)
_cell_length_b                   23.494(3)
_cell_length_c                   6.0885(7)
_cell_angle_alpha                90
_cell_angle_beta                 90
_cell_angle_gamma                90
_cell_volume                     1491.96
_exptl_crystal_colour            yellow
_exptl_crystal_description       needle
_chemical_melting_point          180deg.C(dec)
_cell_formula_units_Z            4
loop_
_atom_site_label
_atom_site_type_symbol
_atom_site_fract_x
_atom_site_fract_y
_atom_site_fract_z
N1 N 0.2485(3) 0.05335(12) 0.0000
N2 N 0.2759(3) 0.10925(13) 0.0000
N3 N 0.1673(3) 0.13859(13) 0.0000
N4 N 0.0680(3) 0.10310(12) 0.0000
C1 C 0.1201(3) 0.05181(14) 0.0000
N5 N 0.0599(3) -0.00185(13) 0.0000
N1H N -0.2485(3) -0.05335(12) 0.0000
N2H N -0.2759(3) -0.10925(13) 0.0000
N3H N -0.1673(3) -0.13859(13) 0.0000
N4H N -0.0680(3) -0.10310(12) 0.0000
C1H C -0.1201(3) -0.05181(14) 0.0000
N5H N -0.0599(3) 0.00185(13) 0.0000
N6 N 0.4152(4) 0.04964(14) 0.5000
H2 H 0.453(5) 0.046(2) 0.369(9)
N7 N 0.3614(3) 0.10465(12) 0.5000
C2 C 0.4330(4) 0.15240(17) 0.5000
H3 H 0.523(4) 0.1520(16) 0.5000
N8 N 0.3615(3) 0.19717(14) 0.5000
N9 N 0.2387(3) 0.17638(13) 0.5000
C3 C 0.2385(3) 0.12103(16) 0.5000
H4 H 0.169(4) 0.0991(15) 0.5000
C4 C 0.1288(4) 0.21474(19) 0.5000
H5 H 0.055(4) 0.1965(19) 0.5000
H6 H 0.129(3) 0.2368(12) 0.377(6)
H2J H 0.453(5) 0.046(2) 0.631(9)
H6J H 0.129(3) 0.2368(12) 0.623(6)
H1? H 0.343(5) 0.0273(19) 0.555(9)
loop_
_geom_bond_atom_site_label_1
_geom_bond_atom_site_label_2
_geom_bond_site_symmetry_1
_geom_bond_site_symmetry_2
N1 N2 1_555 1_555
N2 N3 1_555 1_555
N3 N4 1_555 1_555
N4 C1 1_555 1_555
C1 N1 1_555 1_555
N5 C1 1_555 1_555
N6 H2 1_555 1_555
N7 N6 1_555 1_555
C2 N7 1_555 1_555
H3 C2 1_555 1_555
N8 C2 1_555 1_555
N9 N8 1_555 1_555
C3 N7 1_555 1_555
H4 C3 1_555 1_555
C4 N9 1_555 1_555
H5 C4 1_555 1_555
H6 C4 1_555 1_555
N1H N2H 1_555 1_555
N2H N3H 1_555 1_555
N3H N4H 1_555 1_555
N4H C1H 1_555 1_555
C1H N1H 1_555 1_555
N5H N5 1_555 1_555
H2J N6 1_555 1_555
H6J C4 1_555 1_555
N9 C3 1_555 1_555
C1H N5H 1_555 1_555

#END
