
#######################################################################
#
#                 Cambridge Crystallographic Data Centre
#                                CCDC 
#
#######################################################################
#
# If this CIF has been generated from an entry in the Cambridge 
# Structural Database, then it will include bibliographic, chemical, 
# crystal, experimental, refinement or atomic coordinate data resulting 
# from the CCDC's data processing and validation procedures.
#
#######################################################################

data_PAPPEB
_chemical_formula_moiety         'C31 H22'
_chemical_name_systematic        (2.2.2.1)Paracyclophan-1,17-diyne
_symmetry_cell_setting           monoclinic
_symmetry_space_group_name_H-M   'P 21/c'
_symmetry_Int_Tables_number      14
_space_group_name_Hall           '-P 2ybc'
loop_
_symmetry_equiv_pos_site_id
_symmetry_equiv_pos_as_xyz
1 x,y,z
2 -x,1/2+y,1/2-z
3 -x,-y,-z
4 x,1/2-y,1/2+z
_cell_length_a                   11.838(3)
_cell_length_b                   8.796(1)
_cell_length_c                   11.607(2)
_cell_angle_alpha                90
_cell_angle_beta                 108.83(1)
_cell_angle_gamma                90
_cell_volume                     1143.92
_exptl_crystal_colour            colorless
_chemical_melting_point          '360 deg.C'
_cell_formula_units_Z            2
loop_
_atom_site_label
_atom_site_type_symbol
_atom_site_fract_x
_atom_site_fract_y
_atom_site_fract_z
C1 C 0.0780(9) 0.3448(11) 0.1423(9)
C2 C 0.2132(4) 0.2576(5) 0.1798(4)
C3 C 0.3046(4) 0.3155(7) 0.1477(4)
C4 C 0.4203(5) 0.2883(7) 0.2156(5)
C5 C 0.4483(4) 0.2000(5) 0.3193(4)
C6 C 0.3546(5) 0.1278(5) 0.3445(4)
C7 C 0.2381(4) 0.1570(5) 0.2728(5)
C8 C 0.5659(4) 0.2063(5) 0.4064(5)
C9 C 0.6549(5) 0.2412(5) 0.4828(4)
C10 C 0.7497(4) 0.3155(5) 0.5770(5)
C11 C 0.8154(5) 0.4329(6) 0.5491(5)
C12 C 0.8834(4) 0.5276(6) 0.6368(5)
C13 C 0.1076(3) 0.4913(5) 0.2442(5)
C14 C 0.1622(4) 0.6151(5) 0.2133(4)
C15 C 0.7678(3) 0.2874(5) 0.7000(4)
H1 H 0.0179 0.2766 0.1507
H2 H 0.0550 0.3823 0.0602
H3 H 0.2874 0.3743 0.0744
H4 H 0.4844 0.3339 0.1940
H5 H 0.3720 0.0600 0.4128
H6 H 0.1734 0.1059 0.2894
H7 H 0.8094 0.4464 0.4653
H8 H 0.9274 0.6077 0.6146
H9 H 0.1509 0.6326 0.1287
H10 H 0.7305 0.2009 0.7229
C13B C 0.8924(3) 0.5087(5) 0.7558(5)
C12B C 0.1166(4) 0.4724(6) 0.3632(5)
C15B C 0.2322(3) 0.7126(5) 0.3000(4)
C14B C 0.8378(4) 0.3849(5) 0.7867(4)
C1B C 0.9220(9) 0.6552(11) 0.8577(9)
C11B C 0.1846(5) 0.5671(6) 0.4509(5)
H8B H 0.0726 0.3923 0.3854
C10B C 0.2503(4) 0.6845(5) 0.4230(5)
H10B H 0.2695 0.7991 0.2771
H9B H 0.8491 0.3674 0.8713
C2B C 0.7868(4) 0.7424(5) 0.8202(4)
H1B H 0.9821 0.7234 0.8493
H2B H 0.9450 0.6177 0.9398
H7B H 0.1906 0.5536 0.5347
C9B C 0.3451(5) 0.7588(5) 0.5172(4)
C3B C 0.6954(4) 0.6845(7) 0.8523(4)
C7B C 0.7619(4) 0.8430(5) 0.7272(5)
C8B C 0.4341(4) 0.7937(5) 0.5936(5)
C4B C 0.5797(5) 0.7117(7) 0.7844(5)
H3B H 0.7126 0.6257 0.9256
C6B C 0.6454(5) 0.8722(5) 0.6555(4)
H6B H 0.8266 0.8941 0.7106
C5B C 0.5517(4) 0.8000(5) 0.6807(4)
H4B H 0.5156 0.6661 0.8060
H5B H 0.6280 0.9400 0.5872
C16? C 0.0363(9) 0.3886(11) 0.1749(9)
C17? C 0.0993(8) 0.3019(11) 0.1039(9)
H11? H 0.0100 0.3168 0.2231
H12? H -0.0330 0.4367 0.1199
H13? H 0.1086 0.3678 0.0416
H14? H 0.0544 0.2146 0.0652
loop_
_geom_bond_atom_site_label_1
_geom_bond_atom_site_label_2
_geom_bond_site_symmetry_1
_geom_bond_site_symmetry_2
C1 C2 1_555 1_555
C2 C3 1_555 1_555
C3 C4 1_555 1_555
C4 C5 1_555 1_555
C5 C6 1_555 1_555
C6 C7 1_555 1_555
C7 C2 1_555 1_555
C8 C5 1_555 1_555
C9 C8 1_555 1_555
C10 C9 1_555 1_555
C11 C10 1_555 1_555
C12 C11 1_555 1_555
C13 C1 1_555 1_555
C14 C13 1_555 1_555
C15 C10 1_555 1_555
H1 C1 1_555 1_555
H2 C1 1_555 1_555
H3 C3 1_555 1_555
H4 C4 1_555 1_555
H5 C6 1_555 1_555
H6 C7 1_555 1_555
H7 C11 1_555 1_555
H8 C12 1_555 1_555
H9 C14 1_555 1_555
H10 C15 1_555 1_555
C13B C12 1_555 1_555
C12B C13 1_555 1_555
C15B C14 1_555 1_555
C14B C15 1_555 1_555
C1B C13B 1_555 1_555
C11B C12B 1_555 1_555
H8B C12B 1_555 1_555
C10B C15B 1_555 1_555
H10B C15B 1_555 1_555
H9B C14B 1_555 1_555
C2B C1B 1_555 1_555
H1B C1B 1_555 1_555
H2B C1B 1_555 1_555
H7B C11B 1_555 1_555
C9B C10B 1_555 1_555
C3B C2B 1_555 1_555
C7B C2B 1_555 1_555
C8B C9B 1_555 1_555
C4B C3B 1_555 1_555
H3B C3B 1_555 1_555
C6B C7B 1_555 1_555
H6B C7B 1_555 1_555
C5B C8B 1_555 1_555
H4B C4B 1_555 1_555
H5B C6B 1_555 1_555
C13B C14B 1_555 1_555
C11B C10B 1_555 1_555
C4B C5B 1_555 1_555
C6B C5B 1_555 1_555

#END
