
#######################################################################
#
#                 Cambridge Crystallographic Data Centre
#                                CCDC 
#
#######################################################################
#
# If this CIF has been generated from an entry in the Cambridge 
# Structural Database, then it will include bibliographic, chemical, 
# crystal, experimental, refinement or atomic coordinate data resulting 
# from the CCDC's data processing and validation procedures.
#
#######################################################################

data_PAPQEF
_chemical_compound_source        'fruits of Walsura robusta'
_chemical_name_common            'dysoxylumosin G'
_chemical_formula_moiety         'C29 H36 O8,H2 O1'
_chemical_name_systematic        
'17-(3-furyl)-6-hydroxy-1-methoxy-4,4,8-trimethyl-3,7-dioxo-14,15-epoxyandrost-5-en-11-yl acetate hydrate'
_symmetry_cell_setting           monoclinic
_symmetry_space_group_name_H-M   'P 21'
_symmetry_Int_Tables_number      4
_space_group_name_Hall           'P 2yb'
loop_
_symmetry_equiv_pos_site_id
_symmetry_equiv_pos_as_xyz
1 x,y,z
2 -x,1/2+y,-z
_cell_length_a                   12.4713(2)
_cell_length_b                   8.02460(10)
_cell_length_c                   13.5739(2)
_cell_angle_alpha                90
_cell_angle_beta                 100.152(2)
_cell_angle_gamma                90
_cell_volume                     1337.17
_exptl_crystal_colour            colorless
_exptl_crystal_description       block
_chemical_melting_point          '237-238 deg.C'
_cell_formula_units_Z            2
_chemical_properties_physical    Heat-sensitive
_exptl_crystal_recrystallization_method methanol
loop_
_atom_site_label
_atom_site_type_symbol
_atom_site_fract_x
_atom_site_fract_y
_atom_site_fract_z
O1 O 0.28186(12) 0.2348(2) 0.94686(10)
O2 O 0.45435(12) 0.3426(2) 0.54275(10)
O3 O 0.34030(14) 0.7473(2) 0.88478(15)
H1 H 0.3988 0.7854 0.8757
O4 O 0.48505(13) 0.6450(2) 0.77934(14)
O5 O 0.26059(13) 0.1398(2) 0.59028(11)
C1 C 0.52032(15) 0.1982(2) 0.70220(13)
C2 C 0.22731(16) 0.5130(3) 0.83326(14)
O6 O -0.04338(14) 0.4850(3) 0.88983(19)
C3 C 0.31633(14) 0.2895(2) 0.74552(13)
H2 H 0.3688 0.2738 0.8076
C4 C 0.31704(16) 0.1209(3) 0.69320(15)
H3 H 0.2781 0.0392 0.7274
C5 C 0.40143(15) 0.5620(3) 0.76922(15)
C6 C 0.36981(15) 0.4289(2) 0.69032(13)
C7 C 0.19069(16) 0.2220(3) 0.86736(15)
H4 H 0.1866 0.1078 0.8413
C8 C 0.57396(16) 0.2379(3) 0.81068(14)
H5 H 0.5194 0.2751 0.8475
H6 H 0.6275 0.3239 0.8107
H7 H 0.6085 0.1394 0.8416
C9 C 0.05119(17) 0.4449(3) 0.89209(17)
O7 O 0.87141(15) -0.0375(3) 0.7568(2)
C10 C 0.46679(15) 0.3544(3) 0.65124(13)
C11 C 0.64786(17) 0.3385(3) 0.61230(16)
H8 H 0.7018 0.3853 0.6653
H9 H 0.6778 0.3351 0.5511
C12 C 0.10805(16) 0.3366(3) 0.70014(16)
H10 H 0.1248 0.3819 0.6392
H11 H 0.0509 0.4007 0.7208
H12 H 0.0847 0.2230 0.6893
C13 C 0.43407(16) 0.0588(3) 0.69427(16)
H13 H 0.4355 -0.0041 0.6335
H14 H 0.4539 -0.0167 0.7503
C14 C 0.70425(17) 0.0554(3) 0.69005(16)
C15 C 0.31880(17) 0.6019(3) 0.83150(16)
C16 C 0.21126(14) 0.3432(3) 0.78303(13)
C17 C 0.61301(16) 0.1638(3) 0.64062(14)
H15 H 0.5795 0.1081 0.5785
C18 C 0.14013(16) 0.5749(3) 0.89078(15)
C19 C 0.54454(17) 0.4377(3) 0.59812(15)
H16 H 0.5462 0.5595 0.5932
C20 C 0.08383(18) 0.2637(3) 0.90271(18)
H17 H 0.0261 0.1969 0.8648
H18 H 0.0905 0.2322 0.9725
C21 C 0.0893(2) 0.7367(4) 0.8431(2)
H19 H 0.1448 0.8204 0.8461
H20 H 0.0341 0.7745 0.8790
H21 H 0.0574 0.7162 0.7746
C22 C 0.29589(18) 0.5225(3) 0.60419(16)
H22 H 0.3376 0.6066 0.5777
H23 H 0.2366 0.5738 0.6293
H24 H 0.2676 0.4450 0.5522
C23 C 0.18732(19) 0.6033(4) 1.00325(17)
H25 H 0.2197 0.5019 1.0319
H26 H 0.1298 0.6362 1.0377
H27 H 0.2416 0.6894 1.0096
C24 C 0.1815(2) 0.0329(4) 0.5555(2)
C25 C 0.8009(2) -0.1612(4) 0.7603(2)
H28 H 0.8199 -0.2664 0.7864
O8 O 0.1601(2) -0.0871(4) 0.5988(2)
C26 C 0.6990(2) -0.1144(4) 0.7215(2)
H29 H 0.6367 -0.1799 0.7161
C27 C 0.2907(2) 0.0988(4) 1.01588(19)
H30 H 0.3059 -0.0019 0.9827
H31 H 0.2234 0.0866 1.0403
H32 H 0.3486 0.1203 1.0710
C28 C 0.1225(3) 0.0866(7) 0.4548(3)
H33 H 0.1029 -0.0098 0.4136
H34 H 0.1689 0.1574 0.4238
H35 H 0.0578 0.1466 0.4623
C29 C 0.8103(2) 0.0954(5) 0.7144(3)
H36 H 0.8388 0.1997 0.7040
O9 O 0.4675(3) 0.4153(6) 1.0300(3)
H37 H 0.4010(17) 0.390(6) 0.996(2)
H38 H 0.450(3) 0.418(8) 1.0912(13)
loop_
_geom_bond_atom_site_label_1
_geom_bond_atom_site_label_2
_geom_bond_site_symmetry_1
_geom_bond_site_symmetry_2
O1 C7 1_555 1_555
O2 C10 1_555 1_555
O3 H1 1_555 1_555
O4 C5 1_555 1_555
O5 C4 1_555 1_555
C1 C8 1_555 1_555
C2 C15 1_555 1_555
O6 C9 1_555 1_555
C3 H2 1_555 1_555
C4 C3 1_555 1_555
H3 C4 1_555 1_555
C5 C6 1_555 1_555
C6 C3 1_555 1_555
C7 H4 1_555 1_555
C8 H5 1_555 1_555
H6 C8 1_555 1_555
H7 C8 1_555 1_555
C9 C18 1_555 1_555
O7 C25 1_555 1_555
C10 C1 1_555 1_555
C11 H8 1_555 1_555
H9 C11 1_555 1_555
C12 H10 1_555 1_555
H11 C12 1_555 1_555
H12 C12 1_555 1_555
C13 C1 1_555 1_555
H13 C13 1_555 1_555
H14 C13 1_555 1_555
C14 C17 1_555 1_555
C15 O3 1_555 1_555
C16 C2 1_555 1_555
C17 C1 1_555 1_555
H15 C17 1_555 1_555
C18 C2 1_555 1_555
C19 O2 1_555 1_555
H16 C19 1_555 1_555
C20 C7 1_555 1_555
H17 C20 1_555 1_555
H18 C20 1_555 1_555
C21 C18 1_555 1_555
H19 C21 1_555 1_555
H20 C21 1_555 1_555
H21 C21 1_555 1_555
C22 C6 1_555 1_555
H22 C22 1_555 1_555
H23 C22 1_555 1_555
H24 C22 1_555 1_555
C23 C18 1_555 1_555
H25 C23 1_555 1_555
H26 C23 1_555 1_555
H27 C23 1_555 1_555
C24 O5 1_555 1_555
C25 H28 1_555 1_555
O8 C24 1_555 1_555
C26 C14 1_555 1_555
H29 C26 1_555 1_555
C27 O1 1_555 1_555
H30 C27 1_555 1_555
H31 C27 1_555 1_555
H32 C27 1_555 1_555
C28 C24 1_555 1_555
H33 C28 1_555 1_555
H34 C28 1_555 1_555
H35 C28 1_555 1_555
C29 O7 1_555 1_555
H36 C29 1_555 1_555
O9 H37 1_555 1_555
H38 O9 1_555 1_555
C3 C16 1_555 1_555
C4 C13 1_555 1_555
C5 C15 1_555 1_555
C6 C10 1_555 1_555
C7 C16 1_555 1_555
C9 C20 1_555 1_555
C10 C19 1_555 1_555
C11 C17 1_555 1_555
C11 C19 1_555 1_555
C12 C16 1_555 1_555
C14 C29 1_555 1_555
C25 C26 1_555 1_555

#END
