
#######################################################################
#
#                 Cambridge Crystallographic Data Centre
#                                CCDC 
#
#######################################################################
#
# If this CIF has been generated from an entry in the Cambridge 
# Structural Database, then it will include bibliographic, chemical, 
# crystal, experimental, refinement or atomic coordinate data resulting 
# from the CCDC's data processing and validation procedures.
#
#######################################################################

data_PAPSAC
_chemical_formula_moiety         'C8 H10 N2 O1,0.5(H2 O1)'
_chemical_name_systematic        'N-(Pyridin-4-yl)propanamide hemihydrate'
_symmetry_cell_setting           monoclinic
_symmetry_space_group_name_H-M   'P 21/n'
_symmetry_Int_Tables_number      14
_space_group_name_Hall           '-P 2yn'
loop_
_symmetry_equiv_pos_site_id
_symmetry_equiv_pos_as_xyz
1 x,y,z
2 1/2-x,1/2+y,1/2-z
3 -x,-y,-z
4 1/2+x,1/2-y,1/2+z
_cell_length_a                   7.252(3)
_cell_length_b                   26.885(10)
_cell_length_c                   8.724(3)
_cell_angle_alpha                90
_cell_angle_beta                 94.642(12)
_cell_angle_gamma                90
_cell_volume                     1695.34
_exptl_crystal_colour            colorless
_exptl_crystal_description       needle
_cell_formula_units_Z            8
loop_
_atom_site_label
_atom_site_type_symbol
_atom_site_fract_x
_atom_site_fract_y
_atom_site_fract_z
O1 O 0.1221(7) 0.53896(18) 0.7187(7)
O2 O 0.1204(8) 0.7133(2) 1.4190(7)
N1 N 0.1482(8) 0.7504(3) 1.1892(10)
H1 H 0.1611 0.7793 1.1490
N2 N 0.1381(10) 0.6318(4) 0.8729(13)
C1 C 0.1435(12) 0.6247(4) 1.0236(19)
H2 H 0.1439 0.5920 1.0581
C2 C 0.1485(11) 0.6620(6) 1.1346(10)
H3 H 0.1546 0.6543 1.2388
C3 C 0.1443(10) 0.7107(4) 1.0849(16)
C4 C 0.1366(10) 0.7185(4) 0.9282(16)
H4 H 0.1355 0.7508 0.8897
C5 C 0.1307(11) 0.6790(6) 0.8295(11)
H5 H 0.1207 0.6857 0.7245
C6 C 0.1346(10) 0.7506(4) 1.3457(14)
C7 C 0.1386(10) 0.8017(3) 1.4173(11)
H6 H 0.0299 0.8200 1.3773
H7 H 0.2467 0.8194 1.3877
C8 C 0.1434(11) 0.8002(3) 1.5914(10)
H8 H 0.1448 0.8336 1.6309
H9 H 0.2526 0.7830 1.6320
H10 H 0.0358 0.7831 1.6216
O3 O 0.7714(10) 0.4859(2) 0.7259(8)
N3 N 0.4618(12) 0.4848(3) 0.6842(8)
H11 H 0.3647 0.5027 0.6922
N4 N 0.3492(18) 0.3463(3) 0.4702(8)
C9 C 0.5199(19) 0.3635(4) 0.4960(10)
H12 H 0.6152 0.3436 0.4656
C10 C 0.5693(13) 0.4086(5) 0.5644(10)
H13 H 0.6923 0.4187 0.5772
C11 C 0.4305(19) 0.4379(4) 0.6125(9)
C12 C 0.2516(18) 0.4214(4) 0.5866(10)
H14 H 0.1538 0.4407 0.6151
C13 C 0.2191(15) 0.3758(6) 0.5178(11)
H15 H 0.0971 0.3650 0.5038
C14 C 0.6239(19) 0.5055(4) 0.7420(11)
C15 C 0.6051(14) 0.5538(3) 0.8227(13)
H16 H 0.6393 0.5806 0.7560
H17 H 0.4766 0.5586 0.8426
C16 C 0.7182(15) 0.5568(4) 0.9662(12)
H18 H 0.7026 0.5888 1.0121
H19 H 0.8457 0.5522 0.9475
H20 H 0.6815 0.5313 1.0346
loop_
_geom_bond_atom_site_label_1
_geom_bond_atom_site_label_2
_geom_bond_site_symmetry_1
_geom_bond_site_symmetry_2
O2 C6 1_555 1_555
N1 H1 1_555 1_555
N2 C1 1_555 1_555
C1 H2 1_555 1_555
C2 C1 1_555 1_555
H3 C2 1_555 1_555
C3 N1 1_555 1_555
C4 C3 1_555 1_555
H4 C4 1_555 1_555
C5 N2 1_555 1_555
H5 C5 1_555 1_555
C6 N1 1_555 1_555
C7 C6 1_555 1_555
H6 C7 1_555 1_555
H7 C7 1_555 1_555
C8 C7 1_555 1_555
H8 C8 1_555 1_555
H9 C8 1_555 1_555
H10 C8 1_555 1_555
O3 C14 1_555 1_555
N3 H11 1_555 1_555
N4 C9 1_555 1_555
C9 H12 1_555 1_555
C10 C9 1_555 1_555
H13 C10 1_555 1_555
C11 N3 1_555 1_555
C12 C11 1_555 1_555
H14 C12 1_555 1_555
C13 N4 1_555 1_555
H15 C13 1_555 1_555
C14 N3 1_555 1_555
C15 C14 1_555 1_555
H16 C15 1_555 1_555
H17 C15 1_555 1_555
C16 C15 1_555 1_555
H18 C16 1_555 1_555
H19 C16 1_555 1_555
H20 C16 1_555 1_555
C2 C3 1_555 1_555
C4 C5 1_555 1_555
C10 C11 1_555 1_555
C12 C13 1_555 1_555

#END
