
#######################################################################
#
#                 Cambridge Crystallographic Data Centre
#                                CCDC 
#
#######################################################################
#
# If this CIF has been generated from an entry in the Cambridge 
# Structural Database, then it will include bibliographic, chemical, 
# crystal, experimental, refinement or atomic coordinate data resulting 
# from the CCDC's data processing and validation procedures.
#
#######################################################################

data_PAPYUB
_chemical_formula_moiety         'C28 H22 Si1'
_chemical_name_systematic        
1,1-Dihydro-2,3,4,5-tetraphenyl-1-silacyclopenta-2,4-diene
_symmetry_cell_setting           tetragonal
_symmetry_space_group_name_H-M   'I 41/a'
_symmetry_Int_Tables_number      88
_space_group_name_Hall           '-I 4ad'
loop_
_symmetry_equiv_pos_site_id
_symmetry_equiv_pos_as_xyz
1 x,y,z
2 3/4-y,1/4+x,1/4+z
3 1/2+x,1/2+y,1/2+z
4 1/4-y,3/4+x,3/4+z
5 1/4+y,1/4-x,1/4+z
6 1/2-x,-y,1/2+z
7 3/4+y,3/4-x,3/4+z
8 -x,1/2-y,z
9 -x,-y,-z
10 1/4+y,3/4-x,3/4-z
11 1/2-x,1/2-y,1/2-z
12 3/4+y,1/4-x,1/4-z
13 3/4-y,3/4+x,3/4-z
14 1/2+x,y,1/2-z
15 1/4-y,1/4+x,1/4-z
16 x,1/2+y,-z
_cell_length_a                   26.5859(7)
_cell_length_b                   26.5859(7)
_cell_length_c                   11.9092(7)
_cell_angle_alpha                90
_cell_angle_beta                 90
_cell_angle_gamma                90
_cell_volume                     8417.54
_exptl_crystal_colour            yellow
_exptl_crystal_description       Block
_chemical_melting_point          '205-206 deg.C'
_cell_formula_units_Z            16
_exptl_crystal_recrystallization_method toluene
loop_
_atom_site_label
_atom_site_type_symbol
_atom_site_fract_x
_atom_site_fract_y
_atom_site_fract_z
Si1 Si 0.260841(15) 0.738732(14) 1.04935(3)
C1 C 0.22159(5) 0.77392(5) 0.94717(12)
C2 C 0.24340(5) 0.81957(5) 0.93165(11)
C3 C 0.29051(5) 0.82949(5) 0.99828(12)
C4 C 0.30637(5) 0.79161(5) 1.06629(12)
C5 C 0.17694(5) 0.75494(5) 0.88633(12)
C6 C 0.17354(6) 0.75663(6) 0.76963(13)
C7 C 0.13179(6) 0.73751(6) 0.71466(14)
C8 C 0.09281(6) 0.71628(6) 0.77474(15)
C9 C 0.09552(6) 0.71435(6) 0.88987(16)
C10 C 0.13736(6) 0.73325(5) 0.94571(14)
C11 C 0.22193(5) 0.85820(5) 0.85561(12)
C12 C 0.17234(6) 0.87375(5) 0.87027(14)
C13 C 0.15075(6) 0.90823(6) 0.79851(16)
C14 C 0.17811(7) 0.92780(7) 0.71064(17)
C15 C 0.22745(7) 0.91312(8) 0.69529(17)
C16 C 0.24942(6) 0.87862(7) 0.76754(15)
C17 C 0.31695(5) 0.87860(5) 0.98751(12)
C18 C 0.29163(6) 0.92370(5) 1.00422(13)
C19 C 0.31737(7) 0.96889(6) 1.00036(15)
C20 C 0.36840(7) 0.96961(6) 0.97894(15)
C21 C 0.39354(6) 0.92554(6) 0.95891(14)
C22 C 0.36810(6) 0.87994(6) 0.96328(13)
C23 C 0.34952(5) 0.79233(5) 1.14447(12)
C24 C 0.36052(5) 0.83325(6) 1.21410(12)
C25 C 0.40042(6) 0.83168(6) 1.28878(13)
C26 C 0.43100(6) 0.78963(7) 1.29389(14)
C27 C 0.42082(6) 0.74888(6) 1.22653(15)
C28 C 0.38012(6) 0.74994(6) 1.15372(14)
H1 H 0.2352(6) 0.7275(6) 1.1493(15)
H2 H 0.2807(6) 0.6951(6) 1.0071(14)
H3 H 0.2006(6) 0.7705(6) 0.7290(15)
H4 H 0.1309(7) 0.7387(7) 0.6328(17)
H5 H 0.0631(7) 0.7034(7) 0.7367(16)
H6 H 0.0685(7) 0.7004(7) 0.9338(17)
H7 H 0.1395(6) 0.7324(6) 1.0272(15)
H8 H 0.1534(6) 0.8603(6) 0.9316(15)
H9 H 0.1167(8) 0.9189(7) 0.8097(16)
H10 H 0.1625(8) 0.9528(8) 0.6584(18)
H11 H 0.2482(8) 0.9264(8) 0.635(2)
H12 H 0.2832(7) 0.8677(7) 0.7536(16)
H13 H 0.2557(7) 0.9246(6) 1.0193(15)
H14 H 0.2981(7) 0.9981(7) 1.0108(17)
H15 H 0.3869(7) 1.0009(8) 0.9780(17)
H16 H 0.4293(8) 0.9247(7) 0.9433(16)
H17 H 0.3858(6) 0.8493(6) 0.9466(13)
H18 H 0.3404(6) 0.8633(6) 1.2095(14)
H19 H 0.4078(7) 0.8592(7) 1.3372(16)
H20 H 0.4601(7) 0.7878(6) 1.3442(15)
H21 H 0.4429(7) 0.7185(7) 1.2299(17)
H22 H 0.3726(6) 0.7218(7) 1.1104(15)
loop_
_geom_bond_atom_site_label_1
_geom_bond_atom_site_label_2
_geom_bond_site_symmetry_1
_geom_bond_site_symmetry_2
Si1 C1 1_555 1_555
C1 C2 1_555 1_555
C2 C3 1_555 1_555
C3 C4 1_555 1_555
C4 Si1 1_555 1_555
C5 C1 1_555 1_555
C6 C5 1_555 1_555
C7 C6 1_555 1_555
C8 C7 1_555 1_555
C9 C8 1_555 1_555
C10 C5 1_555 1_555
C11 C2 1_555 1_555
C12 C11 1_555 1_555
C13 C12 1_555 1_555
C14 C13 1_555 1_555
C15 C14 1_555 1_555
C16 C11 1_555 1_555
C17 C3 1_555 1_555
C18 C17 1_555 1_555
C19 C18 1_555 1_555
C20 C19 1_555 1_555
C21 C20 1_555 1_555
C22 C17 1_555 1_555
C23 C4 1_555 1_555
C24 C23 1_555 1_555
C25 C24 1_555 1_555
C26 C25 1_555 1_555
C27 C26 1_555 1_555
C28 C23 1_555 1_555
H1 Si1 1_555 1_555
H2 Si1 1_555 1_555
H3 C6 1_555 1_555
H4 C7 1_555 1_555
H5 C8 1_555 1_555
H6 C9 1_555 1_555
H7 C10 1_555 1_555
H8 C12 1_555 1_555
H9 C13 1_555 1_555
H10 C14 1_555 1_555
H11 C15 1_555 1_555
H12 C16 1_555 1_555
H13 C18 1_555 1_555
H14 C19 1_555 1_555
H15 C20 1_555 1_555
H16 C21 1_555 1_555
H17 C22 1_555 1_555
H18 C24 1_555 1_555
H19 C25 1_555 1_555
H20 C26 1_555 1_555
H21 C27 1_555 1_555
H22 C28 1_555 1_555
C9 C10 1_555 1_555
C15 C16 1_555 1_555
C21 C22 1_555 1_555
C27 C28 1_555 1_555

#END
