
#######################################################################
#
#                 Cambridge Crystallographic Data Centre
#                                CCDC 
#
#######################################################################
#
# If this CIF has been generated from an entry in the Cambridge 
# Structural Database, then it will include bibliographic, chemical, 
# crystal, experimental, refinement or atomic coordinate data resulting 
# from the CCDC's data processing and validation procedures.
#
#######################################################################

data_PAQBAM
_chemical_formula_moiety         
'3(C6 H5 N1 O3),C30 H30 N20 O10,Ca1 2+,2(Cl1 1-),11(H2 O1)'
_chemical_name_systematic        
'calcium cucurbit[5]uril dichloride tris(4-nitrophenol) undecahydrate'
_symmetry_cell_setting           monoclinic
_symmetry_space_group_name_H-M   'P 21/c'
_symmetry_Int_Tables_number      14
_space_group_name_Hall           '-P 2ybc'
loop_
_symmetry_equiv_pos_site_id
_symmetry_equiv_pos_as_xyz
1 x,y,z
2 -x,1/2+y,1/2-z
3 -x,-y,-z
4 x,1/2-y,1/2+z
_cell_length_a                   10.7590(10)
_cell_length_b                   27.934(3)
_cell_length_c                   21.294(2)
_cell_angle_alpha                90
_cell_angle_beta                 96.364(3)
_cell_angle_gamma                90
_cell_volume                     6360.3
_exptl_crystal_colour            colorless
_exptl_crystal_description       block
_cell_formula_units_Z            4
loop_
_atom_site_label
_atom_site_type_symbol
_atom_site_fract_x
_atom_site_fract_y
_atom_site_fract_z
O1 O 0.2673(4) 0.39353(16) 0.2402(2)
O2 O 0.1622(4) 0.29785(17) 0.2565(2)
O3 O 0.4778(4) 0.30198(17) 0.4042(2)
O4 O 0.3747(4) 0.3966(2) 0.4129(2)
Ca1 Ca 0.32281(11) 0.33548(5) 0.32816(6)
Cl1 Cl 1.1136(4) 0.42484(11) 0.63002(13)
Cl2 Cl 1.3260(4) 0.48345(15) 0.31490(17)
C1 C 0.5893(5) 0.4010(2) 0.2773(3)
C2 C 0.7526(5) 0.4493(2) 0.2469(3)
H1 H 0.7402 0.4841 0.2393
C3 C 0.6960(5) 0.4184(2) 0.1898(3)
H2 H 0.6680 0.4386 0.1527
C4 C 0.9094(5) 0.4000(2) 0.2140(3)
C5 C 0.5109(5) 0.3603(2) 0.1783(3)
H3 H 0.4990 0.3701 0.1338
H4 H 0.4291 0.3612 0.1944
C6 C 0.7996(5) 0.3549(2) 0.1251(3)
H5 H 0.8838 0.3537 0.1117
H6 H 0.7431 0.3674 0.0897
C7 C 0.5217(5) 0.2790(2) 0.2244(3)
C8 C 0.6318(5) 0.2898(2) 0.1362(3)
H7 H 0.5889 0.2923 0.0927
C9 C 0.6459(5) 0.2365(2) 0.1577(3)
H8 H 0.6077 0.2143 0.1248
C10 C 0.8459(5) 0.2705(2) 0.1551(3)
C11 C 0.5601(6) 0.1931(2) 0.2495(3)
H9 H 0.4809 0.1958 0.2680
H10 H 0.5533 0.1657 0.2206
C12 C 0.8421(6) 0.1862(2) 0.1876(3)
H11 H 0.9237 0.1852 0.1711
H12 H 0.7919 0.1597 0.1683
C13 C 0.6469(6) 0.1942(2) 0.3613(3)
C14 C 0.7724(6) 0.1561(2) 0.2923(3)
H13 H 0.7515 0.1234 0.2767
C15 C 0.8412(6) 0.1552(2) 0.3596(3)
H14 H 0.8582 0.1220 0.3743
C16 C 0.9703(5) 0.1908(2) 0.2913(3)
C17 C 0.7775(6) 0.1856(2) 0.4643(3)
H15 H 0.8228 0.1578 0.4830
H16 H 0.6967 0.1872 0.4814
C18 C 1.0616(6) 0.1867(3) 0.4022(3)
H17 H 1.0647 0.1585 0.4297
H18 H 1.1398 0.1878 0.3826
C19 C 0.7921(6) 0.2693(3) 0.5001(3)
C20 C 0.9855(6) 0.2317(2) 0.4956(3)
H19 H 1.0175 0.2081 0.5282
C21 C 1.0084(5) 0.2829(2) 0.5194(3)
H20 H 1.0527 0.2831 0.5627
C22 C 1.1174(5) 0.2711(2) 0.4309(3)
C23 C 0.8536(6) 0.3514(2) 0.5347(3)
H21 H 0.9151 0.3623 0.5691
H22 H 0.7713 0.3518 0.5504
C24 C 1.1374(5) 0.3510(2) 0.4799(3)
H23 H 1.2197 0.3511 0.4642
H24 H 1.1493 0.3601 0.5247
C25 C 0.7436(5) 0.3985(2) 0.4474(3)
C26 C 0.9594(5) 0.4133(2) 0.4711(3)
H25 H 0.9918 0.4324 0.5085
C27 C 0.9078(5) 0.4453(2) 0.4150(3)
H26 H 0.9229 0.4796 0.4247
C28 C 1.0652(5) 0.3966(2) 0.3834(3)
C29 C 0.6861(5) 0.4547(2) 0.3596(3)
H27 H 0.7069 0.4886 0.3551
H28 H 0.6022 0.4531 0.3733
C30 C 0.9744(5) 0.4551(2) 0.3035(3)
H29 H 0.9547 0.4888 0.3101
H30 H 1.0582 0.4536 0.2897
N1 N 0.6836(4) 0.43159(19) 0.2978(2)
N2 N 0.5923(4) 0.39413(19) 0.2131(2)
N3 N 0.8849(4) 0.43575(18) 0.2540(2)
N4 N 0.8005(4) 0.3874(2) 0.1774(2)
N5 N 0.5575(5) 0.3117(2) 0.1821(2)
N6 N 0.5789(5) 0.2366(2) 0.2133(2)
N7 N 0.7610(5) 0.3066(2) 0.1392(2)
N8 N 0.7814(5) 0.2306(2) 0.1687(2)
N9 N 0.6595(5) 0.1840(2) 0.2996(2)
N10 N 0.7556(5) 0.1790(2) 0.3969(3)
N11 N 0.8606(5) 0.1791(2) 0.2553(2)
N12 N 0.9586(5) 0.1815(2) 0.3532(3)
N13 N 0.8488(5) 0.2290(2) 0.4828(3)
N14 N 0.8832(5) 0.3024(2) 0.5186(2)
N15 N 1.0542(5) 0.22870(19) 0.4404(2)
N16 N 1.0857(5) 0.30316(19) 0.4744(2)
N17 N 0.8522(5) 0.3847(2) 0.4828(3)
N18 N 0.7732(4) 0.43421(18) 0.4078(2)
N19 N 1.0584(5) 0.3864(2) 0.4452(2)
N20 N 0.9753(4) 0.42973(19) 0.3632(2)
O5 O 0.5140(4) 0.38331(17) 0.3091(2)
O6 O 0.4502(4) 0.28586(17) 0.2638(2)
O7 O 0.5573(4) 0.21179(17) 0.3818(2)
O8 O 0.6795(4) 0.27513(19) 0.5019(2)
O9 O 0.6385(4) 0.38316(17) 0.4519(2)
O10 O 1.0122(4) 0.38110(16) 0.20990(19)
O11 O 0.9601(4) 0.27397(17) 0.1554(2)
O12 O 1.0644(4) 0.20796(17) 0.2713(2)
O13 O 1.1893(4) 0.27712(16) 0.39088(19)
O14 O 1.1373(4) 0.37871(17) 0.34906(19)
C31 C 1.4954(7) 0.5379(3) 0.1991(3)
C32 C 1.4323(8) 0.5067(3) 0.1558(4)
H31 H 1.4051 0.4769 0.1697
C33 C 1.4091(8) 0.5187(3) 0.0933(4)
H32 H 1.3669 0.4972 0.0643
C34 C 1.4488(6) 0.5627(2) 0.0732(3)
C35 C 1.5074(8) 0.5946(3) 0.1153(4)
H33 H 1.5317 0.6249 0.1018
C36 C 1.5299(9) 0.5817(3) 0.1771(4)
H34 H 1.5708 0.6036 0.2059
N21 N 1.4245(5) 0.5756(2) 0.0073(3)
O16 O 1.5171(7) 0.5245(3) 0.2596(3)
H43 H 1.5559 0.5459 0.2804
O17 O 1.4374(5) 0.61739(19) -0.0086(3)
O18 O 1.3932(6) 0.5445(2) -0.0313(3)
C37 C 1.3238(6) 0.2339(3) 0.0871(3)
C38 C 1.3675(7) 0.2474(3) 0.0309(4)
H35 H 1.4052 0.2246 0.0066
C39 C 1.3560(7) 0.2930(3) 0.0110(4)
H36 H 1.3858 0.3021 -0.0271
C40 C 1.2994(6) 0.3273(3) 0.0473(4)
C41 C 1.2518(6) 0.3140(3) 0.1037(3)
H37 H 1.2132 0.3366 0.1278
C42 C 1.2633(6) 0.2668(3) 0.1228(4)
H38 H 1.2305 0.2568 0.1598
N22 N 1.2926(6) 0.3762(3) 0.0276(4)
O19 O 1.3372(6) 0.1881(2) 0.1052(3)
H44 H 1.3069 0.1843 0.1391
O20 O 1.2856(6) 0.3838(3) -0.0291(3)
O21 O 1.2963(6) 0.4078(2) 0.0693(3)
C43 C 0.9830(8) 0.5407(3) 0.1617(4)
C44 C 1.0739(7) 0.5043(2) 0.1625(4)
H39 H 1.1430 0.5044 0.1937
C45 C 1.0615(7) 0.4690(3) 0.1181(4)
H40 H 1.1215 0.4445 0.1187
C46 C 0.9605(7) 0.4694(2) 0.0723(4)
C47 C 0.8720(8) 0.5055(3) 0.0697(4)
H41 H 0.8041 0.5055 0.0379
C48 C 0.8842(8) 0.5411(3) 0.1139(5)
H42 H 0.8253 0.5660 0.1119
N23 N 0.9476(6) 0.4312(2) 0.0258(3)
O15 O 0.8633(6) 0.4348(2) -0.0191(3)
O22 O 0.9879(7) 0.5762(2) 0.2052(3)
H45 H 1.0502 0.5723 0.2314
O23 O 1.0174(5) 0.39656(19) 0.0319(3)
Cl3? Cl 1.1761(9) 0.56621(17) 0.3192(4)
loop_
_geom_bond_atom_site_label_1
_geom_bond_atom_site_label_2
_geom_bond_site_symmetry_1
_geom_bond_site_symmetry_2
C1 N1 1_555 1_555
C2 H1 1_555 1_555
C3 C2 1_555 1_555
H2 C3 1_555 1_555
C4 N3 1_555 1_555
C5 H3 1_555 1_555
H4 C5 1_555 1_555
C6 H5 1_555 1_555
H6 C6 1_555 1_555
C7 N5 1_555 1_555
C8 H7 1_555 1_555
C9 C8 1_555 1_555
H8 C9 1_555 1_555
C10 N7 1_555 1_555
C11 H9 1_555 1_555
H10 C11 1_555 1_555
C12 H11 1_555 1_555
H12 C12 1_555 1_555
C13 N9 1_555 1_555
C14 H13 1_555 1_555
C15 C14 1_555 1_555
H14 C15 1_555 1_555
C16 N11 1_555 1_555
C17 H15 1_555 1_555
H16 C17 1_555 1_555
C18 H17 1_555 1_555
H18 C18 1_555 1_555
C19 N13 1_555 1_555
C20 H19 1_555 1_555
C21 C20 1_555 1_555
H20 C21 1_555 1_555
C22 N15 1_555 1_555
C23 H21 1_555 1_555
H22 C23 1_555 1_555
C24 H23 1_555 1_555
H24 C24 1_555 1_555
C25 N17 1_555 1_555
C26 H25 1_555 1_555
C27 C26 1_555 1_555
H26 C27 1_555 1_555
C28 N19 1_555 1_555
C29 H27 1_555 1_555
H28 C29 1_555 1_555
C30 H29 1_555 1_555
H30 C30 1_555 1_555
N1 C2 1_555 1_555
N2 C1 1_555 1_555
N3 C2 1_555 1_555
N4 C3 1_555 1_555
N5 C5 1_555 1_555
N6 C7 1_555 1_555
N7 C6 1_555 1_555
N8 C9 1_555 1_555
N9 C11 1_555 1_555
N10 C13 1_555 1_555
N11 C12 1_555 1_555
N12 C15 1_555 1_555
N13 C17 1_555 1_555
N14 C19 1_555 1_555
N15 C18 1_555 1_555
N16 C21 1_555 1_555
N17 C23 1_555 1_555
N18 C25 1_555 1_555
N19 C24 1_555 1_555
N20 C27 1_555 1_555
O5 C1 1_555 1_555
O6 C7 1_555 1_555
O7 C13 1_555 1_555
O8 C19 1_555 1_555
O9 C25 1_555 1_555
O10 C4 1_555 1_555
O11 C10 1_555 1_555
O12 C16 1_555 1_555
O13 C22 1_555 1_555
O14 C28 1_555 1_555
C31 C32 1_555 1_555
C32 H31 1_555 1_555
C33 C32 1_555 1_555
H32 C33 1_555 1_555
C34 C33 1_555 1_555
C35 C34 1_555 1_555
H33 C35 1_555 1_555
C36 C31 1_555 1_555
H34 C36 1_555 1_555
C37 C38 1_555 1_555
C38 H35 1_555 1_555
C39 C38 1_555 1_555
H36 C39 1_555 1_555
C40 C39 1_555 1_555
C41 C40 1_555 1_555
H37 C41 1_555 1_555
C42 C37 1_555 1_555
H38 C42 1_555 1_555
C43 C44 1_555 1_555
C44 H39 1_555 1_555
C45 C44 1_555 1_555
H40 C45 1_555 1_555
C46 C45 1_555 1_555
C47 C46 1_555 1_555
H41 C47 1_555 1_555
C48 C43 1_555 1_555
H42 C48 1_555 1_555
N21 C34 1_555 1_555
N22 C40 1_555 1_555
N23 C46 1_555 1_555
O15 N23 1_555 1_555
O16 C31 1_555 1_555
H43 O16 1_555 1_555
O17 N21 1_555 1_555
O18 N21 1_555 1_555
O19 C37 1_555 1_555
H44 O19 1_555 1_555
O20 N22 1_555 1_555
O21 N22 1_555 1_555
O22 C43 1_555 1_555
H45 O22 1_555 1_555
O23 N23 1_555 1_555
C3 N2 1_555 1_555
C4 N4 1_555 1_555
C5 N2 1_555 1_555
C6 N4 1_555 1_555
C8 N5 1_555 1_555
C8 N7 1_555 1_555
C9 N6 1_555 1_555
C10 N8 1_555 1_555
C11 N6 1_555 1_555
C12 N8 1_555 1_555
C14 N9 1_555 1_555
C14 N11 1_555 1_555
C15 N10 1_555 1_555
C16 N12 1_555 1_555
C17 N10 1_555 1_555
C18 N12 1_555 1_555
C20 N13 1_555 1_555
C20 N15 1_555 1_555
C21 N14 1_555 1_555
C22 N16 1_555 1_555
C23 N14 1_555 1_555
C24 N16 1_555 1_555
C26 N17 1_555 1_555
C26 N19 1_555 1_555
C27 N18 1_555 1_555
C28 N20 1_555 1_555
C29 N1 1_555 1_555
C29 N18 1_555 1_555
C30 N3 1_555 1_555
C30 N20 1_555 1_555
C35 C36 1_555 1_555
C41 C42 1_555 1_555
C47 C48 1_555 1_555

#END
