
#######################################################################
#
#                 Cambridge Crystallographic Data Centre
#                                CCDC 
#
#######################################################################
#
# If this CIF has been generated from an entry in the Cambridge 
# Structural Database, then it will include bibliographic, chemical, 
# crystal, experimental, refinement or atomic coordinate data resulting 
# from the CCDC's data processing and validation procedures.
#
#######################################################################

data_PAQREE
_chemical_compound_source        'aphid Pseudoregma bambusicola'
_chemical_formula_moiety         'C21 H26 O9,H2 O1'
_chemical_name_systematic        'Bambusicolaside II monohydrate'
_symmetry_cell_setting           orthorhombic
_symmetry_space_group_name_H-M   'P 21 21 21'
_symmetry_Int_Tables_number      19
_space_group_name_Hall           'P 2ac 2ab'
loop_
_symmetry_equiv_pos_site_id
_symmetry_equiv_pos_as_xyz
1 x,y,z
2 1/2-x,-y,1/2+z
3 1/2+x,1/2-y,-z
4 -x,1/2+y,1/2-z
_cell_length_a                   7.4171(8)
_cell_length_b                   9.2380(9)
_cell_length_c                   30.983(4)
_cell_angle_alpha                90
_cell_angle_beta                 90
_cell_angle_gamma                90
_cell_volume                     2122.93
_exptl_crystal_colour            colorless
_exptl_crystal_description       cubic
_chemical_melting_point          190-191deg.C
_cell_formula_units_Z            4
_exptl_crystal_recrystallization_method methanol
loop_
_atom_site_label
_atom_site_type_symbol
_atom_site_fract_x
_atom_site_fract_y
_atom_site_fract_z
O1 O 0.2764(2) 1.1020(2) 0.1103(1)
O2 O 0.0569(3) 1.3687(2) 0.1215(1)
O3 O 0.2955(3) 1.3783(2) 0.0249(1)
O4 O 0.1748(3) 1.1237(2) -0.0200(1)
O5 O 0.3133(3) 0.8645(2) 0.0172(1)
O6 O 0.2879(2) 0.8600(2) 0.1109(1)
O7 O 0.8007(3) 0.5582(2) 0.0865(1)
O8 O 0.1411(3) 0.8662(2) 0.1872(1)
O9 O 0.1377(2) 0.7311(2) 0.3139(1)
C1 C 0.2485(4) 1.3581(3) 0.1205(1)
C2 C 0.3165(3) 1.2398(3) 0.0904(1)
C3 C 0.2358(4) 1.2498(3) 0.0454(1)
C4 C 0.2797(4) 1.1180(3) 0.0184(1)
C5 C 0.2450(4) 0.9777(3) 0.0426(1)
C6 C 0.3388(4) 0.9827(3) 0.0862(1)
C7 C 0.4167(3) 0.7611(2) 0.1254(1)
C8 C 0.5494(4) 0.7096(3) 0.0990(1)
C9 C 0.6713(3) 0.6055(3) 0.1149(1)
C10 C 0.6563(4) 0.5533(3) 0.1560(1)
C11 C 0.5194(3) 0.6048(3) 0.1835(1)
C12 C 0.3953(3) 0.7117(3) 0.1689(1)
C13 C 0.5047(4) 0.5534(3) 0.2265(1)
C14 C 0.3758(3) 0.6051(3) 0.2537(1)
C15 C 0.2494(3) 0.7087(2) 0.2396(1)
C16 C 0.2617(3) 0.7616(3) 0.1981(1)
C17 C 0.3719(4) 0.5560(4) 0.3005(1)
C18 C 0.1901(4) 0.5824(3) 0.3205(1)
C19 C 0.1872(5) 0.5563(5) 0.3688(1)
C20 C 0.1013(3) 0.7650(3) 0.2692(1)
C21 C -0.0871(4) 0.7167(4) 0.2564(1)
H1 H 0.0385(63) 1.3102(36) 0.1431(9)
H2 H 0.4161(71) 1.3750(50) 0.0180(13)
H3 H 0.2226(41) 1.0633(30) -0.0382(8)
H4 H 0.2507(40) 0.7848(26) 0.0195(10)
H5 H 0.8858(49) 0.5144(34) 0.1011(10)
H6 H 0.1719(50) 0.8923(39) 0.1611(7)
H7 H 0.4526(39) 1.2495(30) 0.0860(9)
H8 H 0.2820(41) 1.4543(30) 0.1066(9)
H9 H 0.3184(37) 1.3486(29) 0.1485(9)
H10 H 0.0977(33) 1.2563(25) 0.0477(7)
H11 H 0.4073(36) 1.1194(28) 0.0123(7)
H12 H 0.1175(35) 0.9700(25) 0.0468(8)
H13 H 0.4682(33) 0.9891(22) 0.0807(7)
H14 H 0.5656(33) 0.7427(26) 0.0698(8)
H15 H 0.7296(32) 0.4865(25) 0.1657(7)
H16 H 0.5900(35) 0.4797(28) 0.2363(8)
H17 H 0.3993(44) 0.4507(37) 0.2998(9)
H18 H 0.4724(39) 0.6178(30) 0.3166(8)
H19 H 0.0912(35) 0.5176(28) 0.3059(8)
H20 H 0.2266(51) 0.4650(39) 0.3745(11)
H21 H 0.2753(47) 0.6217(36) 0.3812(10)
H22 H 0.0716(50) 0.5711(36) 0.3800(10)
H23 H 0.1021(32) 0.8757(29) 0.2697(7)
H24 H -0.1761(52) 0.7766(42) 0.2716(11)
H25 H -0.1086(45) 0.7383(37) 0.2264(11)
H26 H -0.1064(38) 0.6105(34) 0.2626(9)
O10 O 0.1253(4) 1.6348(3) 0.0318(1)
H27 H 0.1568(42) 1.6348(31) -0.0038(8)
H28 H 0.1759(50) 1.5422(36) 0.0345(9)
loop_
_geom_bond_atom_site_label_1
_geom_bond_atom_site_label_2
_geom_bond_site_symmetry_1
_geom_bond_site_symmetry_2
O1 C2 1_555 1_555
O2 C1 1_555 1_555
O3 C3 1_555 1_555
O4 C4 1_555 1_555
O5 C5 1_555 1_555
O6 C6 1_555 1_555
O7 C9 1_555 1_555
O8 C16 1_555 1_555
O9 C18 1_555 1_555
O10 H27 1_555 1_555
C1 C2 1_555 1_555
C2 C3 1_555 1_555
C3 C4 1_555 1_555
C4 C5 1_555 1_555
C5 C6 1_555 1_555
C6 O1 1_555 1_555
C7 O6 1_555 1_555
C8 C7 1_555 1_555
C9 C8 1_555 1_555
C10 C9 1_555 1_555
C11 C10 1_555 1_555
C12 C7 1_555 1_555
C13 C11 1_555 1_555
C14 C13 1_555 1_555
C15 C14 1_555 1_555
C16 C12 1_555 1_555
C17 C14 1_555 1_555
C18 C17 1_555 1_555
C19 C18 1_555 1_555
C20 O9 1_555 1_555
C21 C20 1_555 1_555
H1 O2 1_555 1_555
H2 O3 1_555 1_555
H3 O4 1_555 1_555
H4 O5 1_555 1_555
H5 O7 1_555 1_555
H6 O8 1_555 1_555
H7 C2 1_555 1_555
H8 C1 1_555 1_555
H9 C1 1_555 1_555
H10 C3 1_555 1_555
H11 C4 1_555 1_555
H12 C5 1_555 1_555
H13 C6 1_555 1_555
H14 C8 1_555 1_555
H15 C10 1_555 1_555
H16 C13 1_555 1_555
H17 C17 1_555 1_555
H18 C17 1_555 1_555
H19 C18 1_555 1_555
H20 C19 1_555 1_555
H21 C19 1_555 1_555
H22 C19 1_555 1_555
H23 C20 1_555 1_555
H24 C21 1_555 1_555
H25 C21 1_555 1_555
H26 C21 1_555 1_555
H28 O10 1_555 1_555
C11 C12 1_555 1_555
C15 C16 1_555 1_555
C15 C20 1_555 1_555

#END
