
#######################################################################
#
#                 Cambridge Crystallographic Data Centre
#                                CCDC 
#
#######################################################################
#
# If this CIF has been generated from an entry in the Cambridge 
# Structural Database, then it will include bibliographic, chemical, 
# crystal, experimental, refinement or atomic coordinate data resulting 
# from the CCDC's data processing and validation procedures.
#
#######################################################################

data_PAQTAF
_chemical_formula_moiety         'C30 H34 P2 2+,2(C1 F3 O3 S1 1-)'
_chemical_name_systematic        
'butane-1,4-diylbis(methyl(diphenyl)phosphonium) bis(trifluoromethanesulfonate)'
_symmetry_cell_setting           triclinic
_symmetry_space_group_name_H-M   'P -1'
_symmetry_Int_Tables_number      2
_space_group_name_Hall           '-P 1'
loop_
_symmetry_equiv_pos_site_id
_symmetry_equiv_pos_as_xyz
1 x,y,z
2 -x,-y,-z
_cell_length_a                   8.0257(5)
_cell_length_b                   10.8065(6)
_cell_length_c                   11.0968(6)
_cell_angle_alpha                101.223(2)
_cell_angle_beta                 99.645(2)
_cell_angle_gamma                107.5820(10)
_cell_volume                     873.158
_exptl_crystal_colour            colorless
_exptl_crystal_description       block
_cell_formula_units_Z            1
loop_
_atom_site_label
_atom_site_type_symbol
_atom_site_fract_x
_atom_site_fract_y
_atom_site_fract_z
P1 P 0.30094(10) 0.23256(7) 0.60617(7)
C1 C 0.5102(4) 0.3464(3) 0.7102(3)
C2 C 0.5372(5) 0.3730(4) 0.8403(3)
H1 H 0.4463 0.3303 0.8759
C3 C 0.6989(6) 0.4630(5) 0.9176(4)
H2 H 0.7170 0.4813 1.0051
C4 C 0.8332(5) 0.5255(4) 0.8644(4)
H3 H 0.9418 0.5868 0.9165
C5 C 0.8087(5) 0.4983(4) 0.7355(4)
H4 H 0.9009 0.5403 0.7005
C6 C 0.6468(4) 0.4086(3) 0.6571(3)
H5 H 0.6297 0.3901 0.5696
C7 C 0.1497(4) 0.1658(3) 0.6983(3)
C8 C 0.1363(5) 0.0437(4) 0.7266(3)
H6 H 0.2037 -0.0060 0.6954
C9 C 0.0234(5) -0.0036(4) 0.8007(4)
H7 H 0.0143 -0.0851 0.8199
C10 C -0.0766(5) 0.0706(5) 0.8467(4)
H8 H -0.1516 0.0393 0.8979
C11 C -0.0661(5) 0.1894(4) 0.8177(4)
H9 H -0.1365 0.2371 0.8473
C12 C 0.0474(5) 0.2388(4) 0.7453(4)
H10 H 0.0562 0.3209 0.7276
C13 C 0.2054(5) 0.3194(3) 0.5087(3)
H11 H 0.1840 0.3920 0.5612
H12 H 0.0936 0.2583 0.4529
H13 H 0.2873 0.3546 0.4597
C14 C 0.3372(4) 0.0987(3) 0.5003(3)
H14 H 0.2267 0.0214 0.4744
H15 H 0.3587 0.1274 0.4250
C15 C 0.4897(4) 0.0534(3) 0.5505(3)
H16 H 0.4664 0.0179 0.6222
H17 H 0.6012 0.1300 0.5796
P1A P 0.69906(10) -0.23256(7) 0.39383(7)
C1A C 0.4898(4) -0.3464(3) 0.2898(3)
C2A C 0.4628(5) -0.3730(4) 0.1597(3)
H1A H 0.5537 -0.3303 0.1241
C3A C 0.3011(6) -0.4630(5) 0.0824(4)
H2A H 0.2830 -0.4813 -0.0051
C4A C 0.1668(5) -0.5255(4) 0.1356(4)
H3A H 0.0582 -0.5868 0.0835
C5A C 0.1913(5) -0.4983(4) 0.2645(4)
H4A H 0.0991 -0.5403 0.2995
C6A C 0.3532(4) -0.4086(3) 0.3429(3)
H5A H 0.3703 -0.3901 0.4304
C7A C 0.8503(4) -0.1658(3) 0.3017(3)
C8A C 0.8637(5) -0.0437(4) 0.2734(3)
H6A H 0.7963 0.0060 0.3046
C9A C 0.9766(5) 0.0036(4) 0.1993(4)
H7A H 0.9857 0.0851 0.1801
C10A C 1.0766(5) -0.0706(5) 0.1533(4)
H8A H 1.1516 -0.0393 0.1021
C11A C 1.0661(5) -0.1894(4) 0.1823(4)
H9A H 1.1365 -0.2371 0.1527
C12A C 0.9526(5) -0.2388(4) 0.2547(4)
H10A H 0.9438 -0.3209 0.2724
C13A C 0.7946(5) -0.3194(3) 0.4913(3)
H11A H 0.8160 -0.3920 0.4388
H12A H 0.9064 -0.2583 0.5471
H13A H 0.7127 -0.3546 0.5403
C14A C 0.6628(4) -0.0987(3) 0.4997(3)
H14A H 0.7733 -0.0214 0.5256
H15A H 0.6413 -0.1274 0.5750
C15A C 0.5103(4) -0.0534(3) 0.4495(3)
H16A H 0.5336 -0.0179 0.3778
H17A H 0.3988 -0.1300 0.4204
S1 S 0.66733(13) 0.30495(10) 0.28133(9)
O1 O 0.7885(5) 0.2575(4) 0.3467(4)
O2 O 0.5139(5) 0.3006(4) 0.3323(3)
O3 O 0.7452(4) 0.4278(3) 0.2461(3)
F1 F 0.4419(5) 0.2006(4) 0.0596(3)
F2 F 0.7012(5) 0.1857(3) 0.0667(3)
F3 F 0.5112(4) 0.0592(3) 0.1460(3)
C16 C 0.5748(6) 0.1825(5) 0.1309(4)
loop_
_geom_bond_atom_site_label_1
_geom_bond_atom_site_label_2
_geom_bond_site_symmetry_1
_geom_bond_site_symmetry_2
P1 C1 1_555 1_555
C1 C2 1_555 1_555
C2 H1 1_555 1_555
C3 C2 1_555 1_555
H2 C3 1_555 1_555
C4 C3 1_555 1_555
H3 C4 1_555 1_555
C5 C4 1_555 1_555
H4 C5 1_555 1_555
C6 C1 1_555 1_555
H5 C6 1_555 1_555
C7 P1 1_555 1_555
C8 C7 1_555 1_555
H6 C8 1_555 1_555
C9 C8 1_555 1_555
H7 C9 1_555 1_555
C10 C9 1_555 1_555
H8 C10 1_555 1_555
C11 C10 1_555 1_555
H9 C11 1_555 1_555
C12 C7 1_555 1_555
H10 C12 1_555 1_555
C13 P1 1_555 1_555
H11 C13 1_555 1_555
H12 C13 1_555 1_555
H13 C13 1_555 1_555
C14 P1 1_555 1_555
H14 C14 1_555 1_555
H15 C14 1_555 1_555
C15 C14 1_555 1_555
H16 C15 1_555 1_555
H17 C15 1_555 1_555
S1 O1 1_555 1_555
O2 S1 1_555 1_555
O3 S1 1_555 1_555
F1 C16 1_555 1_555
F2 C16 1_555 1_555
F3 C16 1_555 1_555
C16 S1 1_555 1_555
P1A C1A 1_555 1_555
C1A C2A 1_555 1_555
C2A H1A 1_555 1_555
C3A C2A 1_555 1_555
H2A C3A 1_555 1_555
C4A C3A 1_555 1_555
H3A C4A 1_555 1_555
C5A C4A 1_555 1_555
H4A C5A 1_555 1_555
C6A C1A 1_555 1_555
H5A C6A 1_555 1_555
C7A P1A 1_555 1_555
C8A C7A 1_555 1_555
H6A C8A 1_555 1_555
C9A C8A 1_555 1_555
H7A C9A 1_555 1_555
C10A C9A 1_555 1_555
H8A C10A 1_555 1_555
C11A C10A 1_555 1_555
H9A C11A 1_555 1_555
C12A C7A 1_555 1_555
H10A C12A 1_555 1_555
C13A P1A 1_555 1_555
H11A C13A 1_555 1_555
H12A C13A 1_555 1_555
H13A C13A 1_555 1_555
C14A P1A 1_555 1_555
H14A C14A 1_555 1_555
H15A C14A 1_555 1_555
C15A C15 1_555 1_555
H16A C15A 1_555 1_555
H17A C15A 1_555 1_555
C5 C6 1_555 1_555
C11 C12 1_555 1_555
C5A C6A 1_555 1_555
C11A C12A 1_555 1_555
C14A C15A 1_555 1_555

#END
