
#######################################################################
#
#                 Cambridge Crystallographic Data Centre
#                                CCDC 
#
#######################################################################
#
# If this CIF has been generated from an entry in the Cambridge 
# Structural Database, then it will include bibliographic, chemical, 
# crystal, experimental, refinement or atomic coordinate data resulting 
# from the CCDC's data processing and validation procedures.
#
#######################################################################

data_PAQZIR
_chemical_formula_moiety         'C17 H18 F1 N1 O5 S1'
_chemical_name_systematic        
'anti-(Methyl 2-hydroxy-3-(4-fluorophenyl)-3-(N-tosylamino)propanoate)'
_symmetry_cell_setting           monoclinic
_symmetry_space_group_name_H-M   'P 21/n'
_symmetry_Int_Tables_number      14
_space_group_name_Hall           '-P 2yn'
loop_
_symmetry_equiv_pos_site_id
_symmetry_equiv_pos_as_xyz
1 x,y,z
2 1/2-x,1/2+y,1/2-z
3 -x,-y,-z
4 1/2+x,1/2-y,1/2+z
_cell_length_a                   16.353(3)
_cell_length_b                   5.6914(11)
_cell_length_c                   18.517(4)
_cell_angle_alpha                90
_cell_angle_beta                 92.86(3)
_cell_angle_gamma                90
_cell_volume                     1721.26
_exptl_crystal_colour            colorless
_exptl_crystal_description       block
_cell_formula_units_Z            4
loop_
_atom_site_label
_atom_site_type_symbol
_atom_site_fract_x
_atom_site_fract_y
_atom_site_fract_z
S1 S 0.39561(3) 0.13095(11) 0.59243(3)
F1 F 0.01902(7) 0.2627(3) 0.44115(9)
O1 O 0.40207(9) -0.1124(3) 0.57235(8)
O2 O 0.45361(8) 0.2336(3) 0.64403(7)
O3 O 0.38929(10) 0.5934(3) 0.40422(8)
H1 H 0.4221(16) 0.663(5) 0.3880(16)
O4 O 0.35939(12) 0.4163(3) 0.26910(8)
O5 O 0.37738(9) 0.0523(2) 0.30689(7)
N1 N 0.40199(9) 0.2851(4) 0.51981(8)
H2 H 0.4037(12) 0.439(4) 0.5255(11)
C1 C 0.35380(16) -0.0334(4) 0.23569(12)
H3 H 0.3563 -0.2019 0.2354
H4 H 0.3905 0.0281 0.2015
H5 H 0.2990 0.0165 0.2227
C2 C 0.37713(10) 0.2821(3) 0.31606(10)
C3 C 0.40476(10) 0.3523(3) 0.39231(9)
H6 H 0.4639 0.3263 0.3983
C4 C 0.36311(10) 0.2104(3) 0.45017(9)
H7 H 0.3768 0.0446 0.4431
C5 C 0.27018(10) 0.2312(3) 0.44626(8)
C6 C 0.22312(12) 0.0510(3) 0.41582(10)
H8 H 0.2487 -0.0791 0.3966
C7 C 0.13846(13) 0.0621(4) 0.41360(12)
H9 H 0.1069 -0.0581 0.3926
C8 C 0.10272(11) 0.2521(4) 0.44267(12)
C9 C 0.14580(12) 0.4368(4) 0.47254(11)
H10 H 0.1192 0.5656 0.4915
C10 C 0.23074(11) 0.4253(3) 0.47366(10)
H11 H 0.2616 0.5494 0.4930
C11 C 0.29794(10) 0.1709(3) 0.62621(9)
C12 C 0.23737(12) 0.0033(3) 0.61282(10)
H12 H 0.2484 -0.1327 0.5872
C13 C 0.16031(12) 0.0418(4) 0.63812(12)
H13 H 0.1195 -0.0697 0.6291
C14 C 0.14264(12) 0.2423(4) 0.67644(10)
C15 C 0.20415(13) 0.4062(4) 0.68919(10)
H14 H 0.1932 0.5413 0.7153
C16 C 0.28127(12) 0.3739(4) 0.66403(10)
H15 H 0.3217 0.4871 0.6723
C17 C 0.05829(14) 0.2804(6) 0.70445(15)
H16 H 0.0238 0.1496 0.6909
H17 H 0.0352 0.4221 0.6840
H18 H 0.0624 0.2937 0.7562
loop_
_geom_bond_atom_site_label_1
_geom_bond_atom_site_label_2
_geom_bond_site_symmetry_1
_geom_bond_site_symmetry_2
S1 O1 1_555 1_555
F1 C8 1_555 1_555
O2 S1 1_555 1_555
O3 H1 1_555 1_555
O4 C2 1_555 1_555
O5 C1 1_555 1_555
N1 S1 1_555 1_555
H2 N1 1_555 1_555
C1 H3 1_555 1_555
H4 C1 1_555 1_555
H5 C1 1_555 1_555
C2 O5 1_555 1_555
C3 O3 1_555 1_555
H6 C3 1_555 1_555
C4 N1 1_555 1_555
H7 C4 1_555 1_555
C5 C4 1_555 1_555
C6 C5 1_555 1_555
H8 C6 1_555 1_555
C7 C6 1_555 1_555
H9 C7 1_555 1_555
C8 C7 1_555 1_555
C9 C8 1_555 1_555
H10 C9 1_555 1_555
C10 C5 1_555 1_555
H11 C10 1_555 1_555
C11 S1 1_555 1_555
C12 C11 1_555 1_555
H12 C12 1_555 1_555
C13 C12 1_555 1_555
H13 C13 1_555 1_555
C14 C13 1_555 1_555
C15 C14 1_555 1_555
H14 C15 1_555 1_555
C16 C11 1_555 1_555
H15 C16 1_555 1_555
C17 C14 1_555 1_555
H16 C17 1_555 1_555
H17 C17 1_555 1_555
H18 C17 1_555 1_555
C2 C3 1_555 1_555
C3 C4 1_555 1_555
C9 C10 1_555 1_555
C15 C16 1_555 1_555

#END
