
#######################################################################
#
#                 Cambridge Crystallographic Data Centre
#                                CCDC 
#
#######################################################################
#
# If this CIF has been generated from an entry in the Cambridge 
# Structural Database, then it will include bibliographic, chemical, 
# crystal, experimental, refinement or atomic coordinate data resulting 
# from the CCDC's data processing and validation procedures.
#
#######################################################################

data_PARSUZ
_chemical_formula_moiety         'C25 H22 N2 O2 S1'
_chemical_name_systematic        
3-((4-methylphenyl)sulfonyl)-5-phenyl-1,2,3,6-tetrahydroazepino[4,5-b]indole
_symmetry_cell_setting           triclinic
_symmetry_space_group_name_H-M   'P -1'
_symmetry_Int_Tables_number      2
_space_group_name_Hall           '-P 1'
loop_
_symmetry_equiv_pos_site_id
_symmetry_equiv_pos_as_xyz
1 x,y,z
2 -x,-y,-z
_cell_length_a                   8.8691(4)
_cell_length_b                   9.8046(5)
_cell_length_c                   12.4019(6)
_cell_angle_alpha                99.836(2)
_cell_angle_beta                 102.889(2)
_cell_angle_gamma                94.239(2)
_cell_volume                     1028.75
_exptl_crystal_colour            yellow
_exptl_crystal_description       parallelepiped
_cell_formula_units_Z            2
loop_
_atom_site_label
_atom_site_type_symbol
_atom_site_fract_x
_atom_site_fract_y
_atom_site_fract_z
S1 S 0.40936(5) 0.80138(4) 0.66298(3)
O1 O 0.28011(13) 0.70515(12) 0.59497(9)
O2 O 0.39314(15) 0.94724(12) 0.68700(10)
N1 N 0.45980(15) 0.75032(13) 0.78393(10)
N2 N 0.53092(15) 0.79208(14) 1.14328(11)
C1 C 0.56803(19) 0.78435(16) 0.59902(12)
C2 C 0.6180(2) 0.65401(17) 0.57522(14)
H1 H 0.5709 0.5760 0.5967
C3 C 0.7368(2) 0.63866(18) 0.52009(14)
H2 H 0.7720 0.5498 0.5049
C4 C 0.8059(2) 0.7514(2) 0.48649(14)
C5 C 0.7558(2) 0.88103(19) 0.51281(15)
H3 H 0.8028 0.9591 0.4914
C6 C 0.6385(2) 0.89905(18) 0.56975(14)
H4 H 0.6069 0.9888 0.5885
C7 C 0.9311(2) 0.7304(3) 0.42255(18)
H5 H 0.9675 0.8197 0.4061
H6 H 0.8887 0.6637 0.3517
H7 H 1.0184 0.6942 0.4683
C8 C 0.43629(18) 0.59936(15) 0.78685(13)
H8 H 0.5387 0.5662 0.8122
H9 H 0.3876 0.5466 0.7099
C9 C 0.33408(18) 0.57108(16) 0.86517(13)
H10 H 0.2290 0.5966 0.8353
H11 H 0.3233 0.4699 0.8653
C10 C 0.39431(17) 0.64850(15) 0.98406(13)
C11 C 0.32792(17) 0.62591(15) 1.07556(13)
C12 C 0.20187(18) 0.53584(17) 1.08416(14)
H12 H 0.1412 0.4727 1.0196
C13 C 0.16795(19) 0.54098(18) 1.18820(15)
H13 H 0.0822 0.4815 1.1946
C14 C 0.25783(19) 0.63251(17) 1.28474(14)
H14 H 0.2318 0.6335 1.3551
C15 C 0.38335(19) 0.72113(16) 1.27923(13)
H15 H 0.4452 0.7819 1.3447
C16 C 0.41574(17) 0.71789(15) 1.17357(13)
C17 C 0.51749(17) 0.75226(15) 1.02800(12)
C18 C 0.61858(17) 0.83051(15) 0.97524(12)
C19 C 0.58553(17) 0.83369(15) 0.86472(12)
H16 H 0.6507 0.8959 0.8391
C20 C 0.76106(17) 0.91856(16) 1.04911(12)
C21 C 0.86473(19) 0.86573(18) 1.12989(14)
H17 H 0.8453 0.7718 1.1379
C22 C 0.9959(2) 0.9494(2) 1.19849(14)
H18 H 1.0655 0.9124 1.2531
C23 C 1.02561(19) 1.08638(19) 1.18770(14)
H19 H 1.1134 1.1444 1.2364
C24 C 0.92662(19) 1.13813(18) 1.10549(15)
H20 H 0.9488 1.2310 1.0960
C25 C 0.79523(18) 1.05540(16) 1.03683(14)
H21 H 0.7278 1.0923 0.9809
H22 H 0.585(2) 0.863(2) 1.1842(16)
loop_
_geom_bond_atom_site_label_1
_geom_bond_atom_site_label_2
_geom_bond_site_symmetry_1
_geom_bond_site_symmetry_2
S1 O1 1_555 1_555
O2 S1 1_555 1_555
N1 S1 1_555 1_555
N2 C16 1_555 1_555
C1 S1 1_555 1_555
C2 C1 1_555 1_555
H1 C2 1_555 1_555
C3 C2 1_555 1_555
H2 C3 1_555 1_555
C4 C3 1_555 1_555
C5 C4 1_555 1_555
H3 C5 1_555 1_555
C6 C1 1_555 1_555
H4 C6 1_555 1_555
C7 C4 1_555 1_555
H5 C7 1_555 1_555
H6 C7 1_555 1_555
H7 C7 1_555 1_555
C8 N1 1_555 1_555
H8 C8 1_555 1_555
H9 C8 1_555 1_555
C9 C8 1_555 1_555
H10 C9 1_555 1_555
H11 C9 1_555 1_555
C10 C9 1_555 1_555
C11 C10 1_555 1_555
C12 C11 1_555 1_555
H12 C12 1_555 1_555
C13 C12 1_555 1_555
H13 C13 1_555 1_555
C14 C13 1_555 1_555
H14 C14 1_555 1_555
C15 C14 1_555 1_555
H15 C15 1_555 1_555
C16 C11 1_555 1_555
C17 N2 1_555 1_555
C18 C17 1_555 1_555
C19 N1 1_555 1_555
H16 C19 1_555 1_555
C20 C18 1_555 1_555
C21 C20 1_555 1_555
H17 C21 1_555 1_555
C22 C21 1_555 1_555
H18 C22 1_555 1_555
C23 C22 1_555 1_555
H19 C23 1_555 1_555
C24 C23 1_555 1_555
H20 C24 1_555 1_555
C25 C20 1_555 1_555
H21 C25 1_555 1_555
H22 N2 1_555 1_555
C5 C6 1_555 1_555
C10 C17 1_555 1_555
C15 C16 1_555 1_555
C18 C19 1_555 1_555
C24 C25 1_555 1_555

#END
