
#######################################################################
#
#                 Cambridge Crystallographic Data Centre
#                                CCDC 
#
#######################################################################
#
# If this CIF has been generated from an entry in the Cambridge 
# Structural Database, then it will include bibliographic, chemical, 
# crystal, experimental, refinement or atomic coordinate data resulting 
# from the CCDC's data processing and validation procedures.
#
#######################################################################

data_PARYAL
_chemical_formula_moiety         'C12 H12 N2 O2 S1'
_chemical_name_systematic        
1,3-dimethyl-5-(phenylsulfanyl)pyrimidine-2,4(1H,3H)-dione
_symmetry_cell_setting           tetragonal
_symmetry_space_group_name_H-M   'P 41'
_symmetry_Int_Tables_number      76
_space_group_name_Hall           'P 4w'
loop_
_symmetry_equiv_pos_site_id
_symmetry_equiv_pos_as_xyz
1 x,y,z
2 -y,x,1/4+z
3 -x,-y,1/2+z
4 y,-x,3/4+z
_cell_length_a                   11.3868(17)
_cell_length_b                   11.3868(17)
_cell_length_c                   37.478(6)
_cell_angle_alpha                90
_cell_angle_beta                 90
_cell_angle_gamma                90
_cell_volume                     4859.37
_exptl_crystal_colour            colorless
_exptl_crystal_description       block
_cell_formula_units_Z            16
loop_
_atom_site_label
_atom_site_type_symbol
_atom_site_fract_x
_atom_site_fract_y
_atom_site_fract_z
S1 S 0.9913(3) 0.2274(3) 0.17788(8)
O1 O 0.8572(9) 0.0702(8) 0.1238(3)
O2 O 1.0298(9) 0.2248(7) 0.0246(2)
N1 N 0.9473(7) 0.1422(7) 0.0743(2)
N2 N 1.0710(8) 0.3012(8) 0.0780(3)
C1 C 0.8692(10) 0.3166(12) 0.1889(3)
C2 C 0.8396(16) 0.4081(15) 0.1704(4)
H1 H 0.8792 0.4240 0.1492
C3 C 0.7441(17) 0.4882(18) 0.1820(4)
H2 H 0.7247 0.5550 0.1690
C4 C 0.6898(13) 0.4615(15) 0.2107(5)
H3 H 0.6363 0.5141 0.2205
C5 C 0.7105(18) 0.3525(17) 0.2277(4)
H4 H 0.6590 0.3258 0.2451
C6 C 0.8090(13) 0.2841(12) 0.2182(4)
H5 H 0.8314 0.2192 0.2316
C7 C 0.9913(8) 0.2225(10) 0.1307(3)
C8 C 0.9340(11) 0.1427(11) 0.1093(3)
C9 C 1.0169(9) 0.2205(11) 0.0567(3)
C10 C 1.0666(11) 0.2971(13) 0.1143(4)
H6 H 1.1152 0.3454 0.1278
C11 C 0.8820(16) 0.0549(11) 0.0530(3)
H7 H 0.8998 0.0655 0.0282
H8 H 0.7992 0.0653 0.0567
H9 H 0.9044 -0.0228 0.0603
C12 C 1.1443(16) 0.3935(14) 0.0614(5)
H10 H 1.1401 0.3868 0.0359
H11 H 1.2243 0.3844 0.0690
H12 H 1.1160 0.4694 0.0686
S2 S 0.3230(3) 0.4583(4) 0.42611(9)
O3 O 0.1675(9) 0.6278(11) 0.3865(3)
O4 O 0.3094(7) 0.5589(8) 0.2752(2)
N3 N 0.2294(9) 0.5902(9) 0.3307(3)
N4 N 0.3869(10) 0.4609(11) 0.3203(3)
C13 C 0.2035(11) 0.3627(13) 0.4352(4)
C14 C 0.1967(14) 0.3164(16) 0.4717(3)
H13 H 0.2529 0.3371 0.4886
C15 C 0.1054(14) 0.2413(15) 0.4808(5)
H14 H 0.1040 0.2084 0.5035
C16 C 0.0188(17) 0.2148(18) 0.4577(4)
H15 H -0.0434 0.1671 0.4646
C17 C 0.0237(11) 0.2600(12) 0.4229(4)
H16 H -0.0335 0.2402 0.4063
C18 C 0.1083(15) 0.3294(11) 0.4142(4)
H17 H 0.1054 0.3610 0.3914
C19 C 0.3127(12) 0.4804(16) 0.3806(4)
C20 C 0.2266(12) 0.5650(13) 0.3651(4)
C21 C 0.3037(10) 0.5377(10) 0.3067(4)
C22 C 0.3820(10) 0.4295(10) 0.3568(3)
H18 H 0.4307 0.3692 0.3646
C23 C 0.1512(13) 0.6743(12) 0.3157(4)
H19 H 0.1022 0.7062 0.3342
H20 H 0.1030 0.6371 0.2980
H21 H 0.1957 0.7364 0.3049
C24 C 0.4781(12) 0.4122(11) 0.2960(4)
H22 H 0.4703 0.4474 0.2728
H23 H 0.4682 0.3287 0.2941
H24 H 0.5546 0.4291 0.3054
S3 S 0.0142(3) 0.7195(4) 0.07956(9)
O5 O 0.1449(10) 0.5673(8) 0.1342(3)
O6 O -0.0199(10) 0.7225(8) 0.2332(3)
N5 N 0.0594(9) 0.6455(8) 0.1835(2)
N6 N -0.0623(10) 0.8037(9) 0.1803(3)
C25 C 0.1376(11) 0.8125(10) 0.0672(3)
C26 C 0.1579(15) 0.9123(14) 0.0850(4)
H25 H 0.1141 0.9340 0.1048
C27 C 0.2508(17) 0.9832(15) 0.0715(6)
H26 H 0.2674 1.0532 0.0832
C28 C 0.3153(14) 0.9555(15) 0.0431(5)
H27 H 0.3835 0.9958 0.0371
C29 C 0.2761(17) 0.8689(19) 0.0247(5)
H28 H 0.3020 0.8615 0.0013
C30 C 0.1931(12) 0.7808(17) 0.0382(4)
H29 H 0.1810 0.7087 0.0271
C31 C 0.0136(10) 0.7233(10) 0.1257(3)
C32 C 0.0694(11) 0.6396(11) 0.1447(3)
C33 C -0.0089(13) 0.7208(13) 0.2014(3)
C34 C -0.0655(10) 0.8024(10) 0.1420(3)
H30 H -0.1159 0.8501 0.1289
C35 C 0.1171(16) 0.5553(16) 0.2058(4)
H31 H 0.1033 0.5723 0.2305
H32 H 0.2000 0.5555 0.2012
H33 H 0.0854 0.4794 0.2001
C36 C -0.1409(18) 0.8950(14) 0.1986(4)
H34 H -0.1021 0.9244 0.2195
H35 H -0.2139 0.8590 0.2054
H36 H -0.1560 0.9587 0.1825
S4 S -0.4538(4) 0.1739(4) 0.07781(9)
O7 O -0.5492(8) 0.1982(9) 0.2290(2)
O8 O -0.6328(11) 0.3372(10) 0.1162(3)
N7 N -0.5887(8) 0.2733(8) 0.1735(3)
N8 N -0.4579(9) 0.1133(8) 0.1809(3)
C37 C -0.3650(13) 0.2891(12) 0.0665(3)
C38 C -0.3179(14) 0.2946(11) 0.0335(4)
H37 H -0.3357 0.2343 0.0177
C39 C -0.2453(18) 0.3834(18) 0.0216(4)
H38 H -0.2211 0.3871 -0.0021
C40 C -0.2096(13) 0.468(2) 0.0465(6)
H39 H -0.1523 0.5225 0.0403
C41 C -0.2571(14) 0.4707(18) 0.0791(5)
H40 H -0.2436 0.5344 0.0941
C42 C -0.3280(13) 0.3761(17) 0.0907(5)
H41 H -0.3503 0.3714 0.1146
C43 C -0.4872(14) 0.1875(11) 0.1226(4)
C44 C -0.5616(18) 0.2656(12) 0.1356(4)
C45 C -0.5337(10) 0.1959(12) 0.1959(3)
C46 C -0.4255(14) 0.1206(11) 0.1460(3)
H42 H -0.3601 0.0792 0.1381
C47 C -0.6612(14) 0.3612(13) 0.1899(5)
H43 H -0.6622 0.3493 0.2153
H44 H -0.7398 0.3553 0.1808
H45 H -0.6302 0.4377 0.1847
C48 C -0.4084(13) 0.0264(13) 0.2057(3)
H46 H -0.3833 -0.0416 0.1926
H47 H -0.4671 0.0040 0.2228
H48 H -0.3424 0.0601 0.2179
loop_
_geom_bond_atom_site_label_1
_geom_bond_atom_site_label_2
_geom_bond_site_symmetry_1
_geom_bond_site_symmetry_2
S1 C1 1_555 1_555
O1 C8 1_555 1_555
O2 C9 1_555 1_555
N1 C8 1_555 1_555
N2 C9 1_555 1_555
C1 C2 1_555 1_555
C2 H1 1_555 1_555
C3 C2 1_555 1_555
H2 C3 1_555 1_555
C4 C3 1_555 1_555
H3 C4 1_555 1_555
C5 C4 1_555 1_555
H4 C5 1_555 1_555
C6 C1 1_555 1_555
H5 C6 1_555 1_555
C7 S1 1_555 1_555
C8 C7 1_555 1_555
C9 N1 1_555 1_555
C10 N2 1_555 1_555
H6 C10 1_555 1_555
C11 N1 1_555 1_555
H7 C11 1_555 1_555
H8 C11 1_555 1_555
H9 C11 1_555 1_555
C12 N2 1_555 1_555
H10 C12 1_555 1_555
H11 C12 1_555 1_555
H12 C12 1_555 1_555
S2 C13 1_555 1_555
O3 C20 1_555 1_555
O4 C21 1_555 1_555
N3 C20 1_555 1_555
N4 C21 1_555 1_555
C13 C14 1_555 1_555
C14 H13 1_555 1_555
C15 C14 1_555 1_555
H14 C15 1_555 1_555
C16 C15 1_555 1_555
H15 C16 1_555 1_555
C17 C16 1_555 1_555
H16 C17 1_555 1_555
C18 C13 1_555 1_555
H17 C18 1_555 1_555
C19 S2 1_555 1_555
C20 C19 1_555 1_555
C21 N3 1_555 1_555
C22 N4 1_555 1_555
H18 C22 1_555 1_555
C23 N3 1_555 1_555
H19 C23 1_555 1_555
H20 C23 1_555 1_555
H21 C23 1_555 1_555
C24 N4 1_555 1_555
H22 C24 1_555 1_555
H23 C24 1_555 1_555
H24 C24 1_555 1_555
S3 C25 1_555 1_555
O5 C32 1_555 1_555
O6 C33 1_555 1_555
N5 C32 1_555 1_555
N6 C33 1_555 1_555
C25 C26 1_555 1_555
C26 H25 1_555 1_555
C27 C26 1_555 1_555
H26 C27 1_555 1_555
C28 C27 1_555 1_555
H27 C28 1_555 1_555
C29 C28 1_555 1_555
H28 C29 1_555 1_555
C30 C25 1_555 1_555
H29 C30 1_555 1_555
C31 S3 1_555 1_555
C32 C31 1_555 1_555
C33 N5 1_555 1_555
C34 N6 1_555 1_555
H30 C34 1_555 1_555
C35 N5 1_555 1_555
H31 C35 1_555 1_555
H32 C35 1_555 1_555
H33 C35 1_555 1_555
C36 N6 1_555 1_555
H34 C36 1_555 1_555
H35 C36 1_555 1_555
H36 C36 1_555 1_555
S4 C37 1_555 1_555
O7 C45 1_555 1_555
O8 C44 1_555 1_555
N7 C44 1_555 1_555
N8 C45 1_555 1_555
C37 C38 1_555 1_555
C38 H37 1_555 1_555
C39 C38 1_555 1_555
H38 C39 1_555 1_555
C40 C39 1_555 1_555
H39 C40 1_555 1_555
C41 C40 1_555 1_555
H40 C41 1_555 1_555
C42 C37 1_555 1_555
H41 C42 1_555 1_555
C43 S4 1_555 1_555
C44 C43 1_555 1_555
C45 N7 1_555 1_555
C46 N8 1_555 1_555
H42 C46 1_555 1_555
C47 N7 1_555 1_555
H43 C47 1_555 1_555
H44 C47 1_555 1_555
H45 C47 1_555 1_555
C48 N8 1_555 1_555
H46 C48 1_555 1_555
H47 C48 1_555 1_555
H48 C48 1_555 1_555
C5 C6 1_555 1_555
C7 C10 1_555 1_555
C17 C18 1_555 1_555
C19 C22 1_555 1_555
C29 C30 1_555 1_555
C31 C34 1_555 1_555
C41 C42 1_555 1_555
C43 C46 1_555 1_555

#END
