
#######################################################################
#
#                 Cambridge Crystallographic Data Centre
#                                CCDC 
#
#######################################################################
#
# If this CIF has been generated from an entry in the Cambridge 
# Structural Database, then it will include bibliographic, chemical, 
# crystal, experimental, refinement or atomic coordinate data resulting 
# from the CCDC's data processing and validation procedures.
#
#######################################################################

data_PASGUO
_chemical_formula_moiety         'C21 H25 N1 O1'
_chemical_name_systematic        
3-{[2,6-bis(propan-2-yl)phenyl]imino}-2,3-dihydro-1H-inden-4-ol
_symmetry_cell_setting           monoclinic
_symmetry_space_group_name_H-M   'P 21/c'
_symmetry_Int_Tables_number      14
_space_group_name_Hall           '-P 2ybc'
loop_
_symmetry_equiv_pos_site_id
_symmetry_equiv_pos_as_xyz
1 x,y,z
2 -x,1/2+y,1/2-z
3 -x,-y,-z
4 x,1/2-y,1/2+z
_cell_length_a                   8.9400(4)
_cell_length_b                   17.4391(8)
_cell_length_c                   12.6274(5)
_cell_angle_alpha                90
_cell_angle_beta                 108.901(2)
_cell_angle_gamma                90
_cell_volume                     1862.53
_exptl_crystal_colour            yellow
_exptl_crystal_description       parallelepiped
_cell_formula_units_Z            4
loop_
_atom_site_label
_atom_site_type_symbol
_atom_site_fract_x
_atom_site_fract_y
_atom_site_fract_z
O1 O 0.7654(3) 0.34276(11) 0.80709(15)
H1 H 0.709(4) 0.300(2) 0.801(3)
N1 N 0.6817(2) 0.20538(10) 0.87437(14)
C1 C 0.8998(2) 0.28135(12) 0.97999(16)
C2 C 0.8839(3) 0.34248(12) 0.90574(18)
C3 C 0.9920(3) 0.40173(13) 0.9365(2)
H2 H 0.9858 0.4427 0.8881
C4 C 1.1094(3) 0.40000(14) 1.0395(3)
H3 H 1.1814 0.4402 1.0591
C5 C 1.1234(3) 0.34076(15) 1.1141(2)
H4 H 1.2021 0.3413 1.1836
C6 C 1.0172(3) 0.28029(13) 1.08325(18)
C7 C 1.0025(3) 0.20889(16) 1.1459(2)
H5 H 0.9781 0.2217 1.2133
H6 H 1.1000 0.1796 1.1666
C8 C 0.8662(3) 0.16300(14) 1.0641(2)
H7 H 0.9048 0.1151 1.0436
H8 H 0.7852 0.1517 1.0977
C9 C 0.8012(2) 0.21390(11) 0.96291(16)
C10 C 0.5827(2) 0.13968(12) 0.86145(17)
C11 C 0.4669(3) 0.13741(14) 0.91467(18)
C12 C 0.3684(3) 0.07409(17) 0.8952(2)
H9 H 0.2918 0.0709 0.9303
C13 C 0.3810(4) 0.01576(16) 0.8252(3)
H10 H 0.3137 -0.0263 0.8135
C14 C 0.4927(4) 0.01996(15) 0.7730(2)
H11 H 0.4992 -0.0194 0.7249
C15 C 0.5963(3) 0.08101(13) 0.7896(2)
C16 C 0.4468(3) 0.20451(16) 0.9852(2)
H12 H 0.5510 0.2284 1.0168
C17 C 0.3389(5) 0.2644(2) 0.9122(3)
H13 H 0.3810 0.2805 0.8548
H14 H 0.3320 0.3078 0.9572
H15 H 0.2355 0.2429 0.8783
C18 C 0.3926(5) 0.1823(2) 1.0831(3)
H16 H 0.3970 0.2264 1.1296
H17 H 0.4606 0.1430 1.1261
H18 H 0.2860 0.1635 1.0556
C19 C 0.7217(4) 0.08494(19) 0.7319(3)
H19 H 0.7572 0.1384 0.7375
C20 C 0.6643(7) 0.0661(4) 0.6099(3)
H20 H 0.6357 0.0129 0.6001
H21 H 0.7467 0.0763 0.5784
H22 H 0.5737 0.0971 0.5728
C21 C 0.8649(6) 0.0380(5) 0.7908(5)
H23 H 0.8378 -0.0155 0.7831
H24 H 0.9023 0.0514 0.8687
H25 H 0.9463 0.0479 0.7583
loop_
_geom_bond_atom_site_label_1
_geom_bond_atom_site_label_2
_geom_bond_site_symmetry_1
_geom_bond_site_symmetry_2
O1 H1 1_555 1_555
N1 C9 1_555 1_555
C1 C2 1_555 1_555
C2 O1 1_555 1_555
C3 C2 1_555 1_555
H2 C3 1_555 1_555
C4 C3 1_555 1_555
H3 C4 1_555 1_555
C5 C4 1_555 1_555
H4 C5 1_555 1_555
C6 C1 1_555 1_555
C7 C6 1_555 1_555
H5 C7 1_555 1_555
H6 C7 1_555 1_555
C8 C7 1_555 1_555
H7 C8 1_555 1_555
H8 C8 1_555 1_555
C9 C1 1_555 1_555
C10 N1 1_555 1_555
C11 C10 1_555 1_555
C12 C11 1_555 1_555
H9 C12 1_555 1_555
C13 C12 1_555 1_555
H10 C13 1_555 1_555
C14 C13 1_555 1_555
H11 C14 1_555 1_555
C15 C10 1_555 1_555
C16 C11 1_555 1_555
H12 C16 1_555 1_555
C17 C16 1_555 1_555
H13 C17 1_555 1_555
H14 C17 1_555 1_555
H15 C17 1_555 1_555
C18 C16 1_555 1_555
H16 C18 1_555 1_555
H17 C18 1_555 1_555
H18 C18 1_555 1_555
C19 C15 1_555 1_555
H19 C19 1_555 1_555
C20 C19 1_555 1_555
H20 C20 1_555 1_555
H21 C20 1_555 1_555
H22 C20 1_555 1_555
C21 C19 1_555 1_555
H23 C21 1_555 1_555
H24 C21 1_555 1_555
H25 C21 1_555 1_555
C5 C6 1_555 1_555
C8 C9 1_555 1_555
C14 C15 1_555 1_555

#END
