
#######################################################################
#
#                 Cambridge Crystallographic Data Centre
#                                CCDC 
#
#######################################################################
#
# If this CIF has been generated from an entry in the Cambridge 
# Structural Database, then it will include bibliographic, chemical, 
# crystal, experimental, refinement or atomic coordinate data resulting 
# from the CCDC's data processing and validation procedures.
#
#######################################################################

data_PASHID
_chemical_formula_moiety         'C11 H8 Br1 N4 S1 1+,N1 O3 1-'
_chemical_name_systematic        
'4-[(7-bromo-2,1,3-benzothiadiazol-4-yl)amino]pyridinium nitrate'
_symmetry_cell_setting           orthorhombic
_symmetry_space_group_name_H-M   'P c c n'
_symmetry_Int_Tables_number      56
_space_group_name_Hall           '-P 2ab 2ac'
loop_
_symmetry_equiv_pos_site_id
_symmetry_equiv_pos_as_xyz
1 x,y,z
2 1/2-x,1/2-y,z
3 -x,1/2+y,1/2-z
4 1/2+x,-y,1/2-z
5 -x,-y,-z
6 1/2+x,1/2+y,-z
7 x,1/2-y,1/2+z
8 1/2-x,y,1/2+z
_cell_length_a                   7.3368(15)
_cell_length_b                   15.674(3)
_cell_length_c                   23.077(5)
_cell_angle_alpha                90
_cell_angle_beta                 90
_cell_angle_gamma                90
_cell_volume                     2653.79
_exptl_crystal_description       Prism
_cell_formula_units_Z            8
loop_
_atom_site_label
_atom_site_type_symbol
_atom_site_fract_x
_atom_site_fract_y
_atom_site_fract_z
Br1 Br 1.07293(6) 0.85368(3) 0.41142(2)
S1 S 0.90274(15) 0.59677(6) 0.31040(4)
N1 N 0.9571(4) 0.6759(2) 0.35196(13)
N2 N 0.9276(4) 0.63927(18) 0.24717(13)
N3 N 0.8489(5) 0.8998(2) 0.01541(16)
N4 N 1.0080(4) 0.75548(18) 0.15463(12)
H1 H 1.038227 0.703677 0.147002
C1 C 0.9814(5) 0.7199(2) 0.25656(15)
C2 C 0.9979(5) 0.7409(2) 0.31663(15)
C3 C 1.0514(5) 0.8243(2) 0.33252(16)
C4 C 1.0875(5) 0.8821(2) 0.28967(16)
H2 H 1.121373 0.937280 0.299841
C5 C 1.0749(5) 0.8604(2) 0.23039(16)
H3 H 1.104841 0.901146 0.202668
C6 C 1.0200(5) 0.7816(2) 0.21268(15)
C7 C 0.9524(4) 0.8049(2) 0.10904(15)
C8 C 0.8491(5) 0.8789(2) 0.11599(17)
H4 H 0.814972 0.896839 0.152843
C9 C 0.7988(6) 0.9246(3) 0.06874(19)
H5 H 0.728825 0.973642 0.073324
C10 C 0.9405(5) 0.8280(3) 0.00685(17)
H6 H 0.969596 0.811292 -0.030693
C11 C 0.9925(5) 0.7785(2) 0.05248(15)
H7 H 1.054119 0.727546 0.046101
H8 H 0.823(5) 0.925(2) -0.0092(17)
N5 N 0.6936(4) 1.0501(2) -0.08144(13)
O1 O 0.6376(5) 1.07216(18) -0.03341(13)
O2 O 0.6406(4) 1.08475(18) -0.12657(13)
O3 O 0.8070(4) 0.99080(18) -0.08471(11)
loop_
_geom_bond_atom_site_label_1
_geom_bond_atom_site_label_2
_geom_bond_site_symmetry_1
_geom_bond_site_symmetry_2
Br1 C3 1_555 1_555
S1 N1 1_555 1_555
N1 C2 1_555 1_555
N2 S1 1_555 1_555
N3 C9 1_555 1_555
N4 H1 1_555 1_555
C1 N2 1_555 1_555
C2 C1 1_555 1_555
C3 C2 1_555 1_555
C4 C3 1_555 1_555
H2 C4 1_555 1_555
C5 C4 1_555 1_555
H3 C5 1_555 1_555
C6 N4 1_555 1_555
C7 N4 1_555 1_555
C8 C7 1_555 1_555
H4 C8 1_555 1_555
C9 C8 1_555 1_555
H5 C9 1_555 1_555
C10 N3 1_555 1_555
H6 C10 1_555 1_555
C11 C7 1_555 1_555
H7 C11 1_555 1_555
H8 N3 1_555 1_555
N5 O1 1_555 1_555
O2 N5 1_555 1_555
O3 N5 1_555 1_555
C1 C6 1_555 1_555
C5 C6 1_555 1_555
C10 C11 1_555 1_555

#END
