
#######################################################################
#
#                 Cambridge Crystallographic Data Centre
#                                CCDC 
#
#######################################################################
#
# If this CIF has been generated from an entry in the Cambridge 
# Structural Database, then it will include bibliographic, chemical, 
# crystal, experimental, refinement or atomic coordinate data resulting 
# from the CCDC's data processing and validation procedures.
#
#######################################################################

data_PATGIC
_chemical_formula_moiety         'C19 H18 F3 N1 O3 S1'
_chemical_name_systematic        
(E)-4-(4-(Dimethylamino)phenyl)-1,1,1-trifluoro-3-((4-methylphenyl)sulfonyl)but-3-en-2-one
_symmetry_cell_setting           triclinic
_symmetry_space_group_name_H-M   'P -1'
_symmetry_Int_Tables_number      2
_space_group_name_Hall           '-P 1'
loop_
_symmetry_equiv_pos_site_id
_symmetry_equiv_pos_as_xyz
1 x,y,z
2 -x,-y,-z
_cell_length_a                   8.709(15)
_cell_length_b                   11.056(19)
_cell_length_c                   11.40(3)
_cell_angle_alpha                109.96(3)
_cell_angle_beta                 96.57(3)
_cell_angle_gamma                110.65(2)
_cell_volume                     930.408
_exptl_crystal_colour            brown
_chemical_melting_point          '109.1-109.5 deg.C'
_cell_formula_units_Z            2
loop_
_atom_site_label
_atom_site_type_symbol
_atom_site_fract_x
_atom_site_fract_y
_atom_site_fract_z
C1 C -0.0860(5) 1.3943(4) 0.3220(4)
H1 H -0.1212 1.3625 0.2297
H2 H -0.0249 1.4956 0.3615
H3 H -0.1844 1.3668 0.3539
C2 C 0.0282(4) 1.3280(3) 0.3550(3)
C3 C 0.2010(4) 1.3900(3) 0.3698(3)
H4 H 0.2482 1.4745 0.3599
C4 C 0.3054(4) 1.3295(3) 0.3988(3)
H5 H 0.4217 1.3723 0.4081
C5 C 0.2355(4) 1.2046(3) 0.4140(2)
C6 C 0.0629(4) 1.1419(3) 0.4020(3)
H6 H 0.0161 1.0584 0.4134
C7 C -0.0387(4) 1.2042(3) 0.3730(3)
H7 H -0.1547 1.1623 0.3654
C8 C 0.3475(3) 0.9992(3) 0.2978(2)
C9 C 0.3076(3) 0.8649(3) 0.2828(3)
H8 H 0.2738 0.8424 0.3500
C10 C 0.3112(3) 0.7524(3) 0.1752(2)
C11 C 0.4089(4) 0.7742(3) 0.0908(3)
H9 H 0.4804 0.8666 0.1065
C12 C 0.4045(4) 0.6659(3) -0.0143(3)
H10 H 0.4724 0.6861 -0.0685
C13 C 0.3002(3) 0.5250(3) -0.0425(3)
C14 C 0.2072(4) 0.5016(3) 0.0457(3)
H11 H 0.1386 0.4092 0.0321
C15 C 0.2149(4) 0.6117(3) 0.1513(3)
H12 H 0.1537 0.5922 0.2093
C16 C 0.3871(5) 0.4437(4) -0.2403(4)
H13 H 0.3395 0.4869 -0.2854
H14 H 0.3805 0.3558 -0.3014
H15 H 0.5040 0.5062 -0.1949
C17 C 0.1873(5) 0.2710(4) -0.1785(4)
H16 H 0.2097 0.2518 -0.1039
H17 H 0.2122 0.2104 -0.2494
H18 H 0.0697 0.2537 -0.2020
C18 C 0.3794(4) 1.0566(3) 0.1992(3)
C19 C 0.2385(4) 0.9927(4) 0.0741(3)
F1 F 0.1140(3) 0.8729(2) 0.0502(2)
F2 F 0.1792(4) 1.0853(3) 0.0765(3)
F3 F 0.2987(3) 0.9699(3) -0.0273(2)
N1 N 0.2930(3) 0.4170(3) -0.1491(3)
O1 O 0.5399(3) 1.2331(2) 0.5016(2)
O2 O 0.2963(3) 1.0507(2) 0.52484(19)
O3 O 0.4979(3) 1.1617(2) 0.2153(2)
S1 S 0.36801(10) 1.12669(7) 0.45068(6)
loop_
_geom_bond_atom_site_label_1
_geom_bond_atom_site_label_2
_geom_bond_site_symmetry_1
_geom_bond_site_symmetry_2
C1 H1 1_555 1_555
H2 C1 1_555 1_555
H3 C1 1_555 1_555
C2 C1 1_555 1_555
C3 C2 1_555 1_555
H4 C3 1_555 1_555
C4 C3 1_555 1_555
H5 C4 1_555 1_555
C5 C4 1_555 1_555
C6 C5 1_555 1_555
H6 C6 1_555 1_555
C7 C2 1_555 1_555
H7 C7 1_555 1_555
C8 C9 1_555 1_555
C9 H8 1_555 1_555
C10 C9 1_555 1_555
C11 C10 1_555 1_555
H9 C11 1_555 1_555
C12 C11 1_555 1_555
H10 C12 1_555 1_555
C13 C12 1_555 1_555
C14 C13 1_555 1_555
H11 C14 1_555 1_555
C15 C10 1_555 1_555
H12 C15 1_555 1_555
C16 H13 1_555 1_555
H14 C16 1_555 1_555
H15 C16 1_555 1_555
C17 H16 1_555 1_555
H17 C17 1_555 1_555
H18 C17 1_555 1_555
C18 C8 1_555 1_555
C19 C18 1_555 1_555
F1 C19 1_555 1_555
F2 C19 1_555 1_555
F3 C19 1_555 1_555
N1 C13 1_555 1_555
O1 S1 1_555 1_555
O2 S1 1_555 1_555
O3 C18 1_555 1_555
S1 C5 1_555 1_555
C6 C7 1_555 1_555
C8 S1 1_555 1_555
C14 C15 1_555 1_555
C16 N1 1_555 1_555
C17 N1 1_555 1_555

#END
