
#######################################################################
#
#                 Cambridge Crystallographic Data Centre
#                                CCDC 
#
#######################################################################
#
# If this CIF has been generated from an entry in the Cambridge 
# Structural Database, then it will include bibliographic, chemical, 
# crystal, experimental, refinement or atomic coordinate data resulting 
# from the CCDC's data processing and validation procedures.
#
#######################################################################

data_PATVOW
_chemical_formula_moiety         'C27 H34 F4 K1 N3 O4 S1'
_chemical_name_systematic        
(7,16-bis(2,6-Difluorobenzyl)-1,4,10,13-tetraoxa-7,16-diazacyclooctadecane)-(isothiocyanato)-potassium
_symmetry_cell_setting           orthorhombic
_symmetry_space_group_name_H-M   'P n a 21'
_symmetry_Int_Tables_number      33
_space_group_name_Hall           'P 2c -2n'
loop_
_symmetry_equiv_pos_site_id
_symmetry_equiv_pos_as_xyz
1 x,y,z
2 -x,-y,1/2+z
3 1/2-x,1/2+y,1/2+z
4 1/2+x,1/2-y,z
_cell_length_a                   14.219(3)
_cell_length_b                   14.921(3)
_cell_length_c                   14.344(3)
_cell_angle_alpha                90
_cell_angle_beta                 90
_cell_angle_gamma                90
_cell_volume                     3043.25
_exptl_crystal_colour            colorless
_exptl_crystal_description       block
_cell_formula_units_Z            4
_exptl_crystal_recrystallization_method 'ethyl acetate/ethanol'
loop_
_atom_site_label
_atom_site_type_symbol
_atom_site_fract_x
_atom_site_fract_y
_atom_site_fract_z
K1 K 0.28075(10) 0.00152(11) 0.23909(12)
S1 S 0.22298(17) 0.00925(19) -0.13794(18)
O1 O 0.1891(3) -0.1518(3) 0.3132(3)
O2 O 0.1049(3) 0.0192(3) 0.3225(3)
O3 O 0.3699(3) 0.1539(3) 0.3161(3)
O4 O 0.4556(3) -0.0169(3) 0.3235(4)
N1 N 0.3770(4) -0.1776(3) 0.2319(5)
N2 N 0.1840(4) 0.1807(3) 0.2347(5)
N3 N 0.2829(5) 0.0011(5) 0.0452(6)
F1 F 0.3056(3) -0.3485(4) 0.0766(4)
F2 F 0.5969(3) -0.2064(3) 0.1163(4)
F3 F -0.0325(3) 0.1990(4) 0.1048(4)
F4 F 0.2490(3) 0.3615(3) 0.0923(4)
C1 C 0.3122(5) -0.2474(5) 0.2645(5)
H1 H 0.3486 -0.2997 0.2822
H2 H 0.2715 -0.2646 0.2132
C2 C 0.2521(5) -0.2194(5) 0.3459(6)
H3 H 0.2170 -0.2704 0.3696
H4 H 0.2911 -0.1960 0.3958
C3 C 0.1196(5) -0.1292(5) 0.3798(5)
H5 H 0.1488 -0.1037 0.4349
H6 H 0.0848 -0.1822 0.3982
C4 C 0.0550(5) -0.0627(5) 0.3364(6)
H7 H 0.0323 -0.0853 0.2771
H8 H 0.0013 -0.0525 0.3767
C5 C 0.0461(5) 0.0880(5) 0.2838(6)
H9 H -0.0126 0.0915 0.3181
H10 H 0.0318 0.0745 0.2192
C6 C 0.0978(5) 0.1752(5) 0.2904(6)
H11 H 0.0558 0.2229 0.2709
H12 H 0.1138 0.1858 0.3552
C7 C 0.2474(5) 0.2513(5) 0.2688(5)
H13 H 0.2105 0.3027 0.2882
H14 H 0.2884 0.2703 0.2184
C8 C 0.3065(6) 0.2197(4) 0.3494(6)
H15 H 0.3410 0.2697 0.3759
H16 H 0.2666 0.1944 0.3976
C9 C 0.4398(5) 0.1307(5) 0.3825(5)
H17 H 0.4107 0.1044 0.4372
H18 H 0.4741 0.1838 0.4016
C10 C 0.5056(5) 0.0646(5) 0.3382(6)
H19 H 0.5285 0.0878 0.2793
H20 H 0.5592 0.0541 0.3787
C11 C 0.5137(5) -0.0874(5) 0.2872(6)
H21 H 0.5709 -0.0920 0.3237
H22 H 0.5309 -0.0742 0.2233
C12 C 0.4609(5) -0.1739(5) 0.2913(6)
H23 H 0.5030 -0.2220 0.2733
H24 H 0.4420 -0.1846 0.3554
C13 C 0.3992(5) -0.1877(5) 0.1318(5)
H25 H 0.4382 -0.1374 0.1131
H26 H 0.3410 -0.1836 0.0969
C14 C 0.4488(5) -0.2733(5) 0.1034(6)
C15 C 0.4012(5) -0.3512(6) 0.0794(6)
C16 C 0.4436(6) -0.4308(6) 0.0549(6)
H27 H 0.4083 -0.4817 0.0413
C17 C 0.5407(6) -0.4319(7) 0.0512(6)
H28 H 0.5715 -0.4845 0.0343
C18 C 0.5923(6) -0.3573(6) 0.0720(6)
H29 H 0.6577 -0.3585 0.0690
C19 C 0.5457(5) -0.2811(6) 0.0973(6)
C20 C 0.1647(5) 0.1913(5) 0.1336(6)
H30 H 0.1292 0.1395 0.1128
H31 H 0.2244 0.1906 0.1008
C21 C 0.1112(5) 0.2754(5) 0.1045(6)
C22 C 0.0140(6) 0.2772(6) 0.0932(6)
C23 C -0.0366(6) 0.3519(6) 0.0691(6)
H32 H -0.1016 0.3493 0.0624
C24 C 0.0110(7) 0.4301(7) 0.0554(6)
H33 H -0.0223 0.4814 0.0392
C25 C 0.1074(7) 0.4347(6) 0.0650(6)
H34 H 0.1398 0.4882 0.0558
C26 C 0.1533(5) 0.3575(5) 0.0886(6)
C27 C 0.2587(4) 0.0058(5) -0.0304(6)
loop_
_geom_bond_atom_site_label_1
_geom_bond_atom_site_label_2
_geom_bond_site_symmetry_1
_geom_bond_site_symmetry_2
K1 O1 1_555 1_555
S1 C27 1_555 1_555
O1 C2 1_555 1_555
O2 K1 1_555 1_555
O3 K1 1_555 1_555
O4 K1 1_555 1_555
N1 K1 1_555 1_555
N2 K1 1_555 1_555
N3 K1 1_555 1_555
F1 C15 1_555 1_555
F2 C19 1_555 1_555
F3 C22 1_555 1_555
F4 C26 1_555 1_555
C1 N1 1_555 1_555
H1 C1 1_555 1_555
H2 C1 1_555 1_555
C2 C1 1_555 1_555
H3 C2 1_555 1_555
H4 C2 1_555 1_555
C3 O1 1_555 1_555
H5 C3 1_555 1_555
H6 C3 1_555 1_555
C4 O2 1_555 1_555
H7 C4 1_555 1_555
H8 C4 1_555 1_555
C5 O2 1_555 1_555
H9 C5 1_555 1_555
H10 C5 1_555 1_555
C6 N2 1_555 1_555
H11 C6 1_555 1_555
H12 C6 1_555 1_555
C7 N2 1_555 1_555
H13 C7 1_555 1_555
H14 C7 1_555 1_555
C8 O3 1_555 1_555
H15 C8 1_555 1_555
H16 C8 1_555 1_555
C9 O3 1_555 1_555
H17 C9 1_555 1_555
H18 C9 1_555 1_555
C10 O4 1_555 1_555
H19 C10 1_555 1_555
H20 C10 1_555 1_555
C11 O4 1_555 1_555
H21 C11 1_555 1_555
H22 C11 1_555 1_555
C12 N1 1_555 1_555
H23 C12 1_555 1_555
H24 C12 1_555 1_555
C13 N1 1_555 1_555
H25 C13 1_555 1_555
H26 C13 1_555 1_555
C14 C13 1_555 1_555
C15 C14 1_555 1_555
C16 C15 1_555 1_555
H27 C16 1_555 1_555
C17 C16 1_555 1_555
H28 C17 1_555 1_555
C18 C17 1_555 1_555
H29 C18 1_555 1_555
C19 C14 1_555 1_555
C20 N2 1_555 1_555
H30 C20 1_555 1_555
H31 C20 1_555 1_555
C21 C20 1_555 1_555
C22 C21 1_555 1_555
C23 C22 1_555 1_555
H32 C23 1_555 1_555
C24 C23 1_555 1_555
H33 C24 1_555 1_555
C25 C24 1_555 1_555
H34 C25 1_555 1_555
C26 C21 1_555 1_555
C27 N3 1_555 1_555
C3 C4 1_555 1_555
C5 C6 1_555 1_555
C7 C8 1_555 1_555
C9 C10 1_555 1_555
C11 C12 1_555 1_555
C18 C19 1_555 1_555
C25 C26 1_555 1_555

#END
