
#######################################################################
#
#                 Cambridge Crystallographic Data Centre
#                                CCDC 
#
#######################################################################
#
# If this CIF has been generated from an entry in the Cambridge 
# Structural Database, then it will include bibliographic, chemical, 
# crystal, experimental, refinement or atomic coordinate data resulting 
# from the CCDC's data processing and validation procedures.
#
#######################################################################

data_PATYIU
_chemical_compound_source        'root bark of Periploca sepium Bunge'
_chemical_name_common            3,5,14-Trihydroxycard-20(22)-enolide
_chemical_formula_moiety         'C23 H34 O5'
_chemical_name_systematic        
4-[(3S,5S,8R,9S,10R,13R,14S,17S)-3,5,14-trihydroxy-10,13-dimethyl-hexadecahydro-1H-cyclopenta[a]phenanthren-17-yl]furan-2(5H)-one
_symmetry_cell_setting           monoclinic
_symmetry_space_group_name_H-M   'P 21'
_symmetry_Int_Tables_number      4
_space_group_name_Hall           'P 2yb'
loop_
_symmetry_equiv_pos_site_id
_symmetry_equiv_pos_as_xyz
1 x,y,z
2 -x,1/2+y,-z
_cell_length_a                   7.434(3)
_cell_length_b                   10.554(4)
_cell_length_c                   13.537(5)
_cell_angle_alpha                90
_cell_angle_beta                 103.118(5)
_cell_angle_gamma                90
_cell_volume                     1034.38
_exptl_crystal_colour            colorless
_exptl_crystal_description       block
_cell_formula_units_Z            2
loop_
_atom_site_label
_atom_site_type_symbol
_atom_site_fract_x
_atom_site_fract_y
_atom_site_fract_z
C1 C 0.3269(8) 0.6136(5) 0.1758(4)
H1 H 0.2076 0.5998 0.1916
H2 H 0.3112 0.6777 0.1231
C2 C 0.4616(9) 0.6639(6) 0.2708(4)
H3 H 0.4156 0.7437 0.2908
H4 H 0.4681 0.6042 0.3260
C3 C 0.6508(9) 0.6834(5) 0.2527(4)
H5 H 0.7350 0.7047 0.3174
C4 C 0.7198(7) 0.5641(5) 0.2117(4)
H6 H 0.7423 0.5004 0.2647
H7 H 0.8368 0.5824 0.1944
C5 C 0.5873(7) 0.5090(5) 0.1180(4)
C6 C 0.6653(7) 0.3883(5) 0.0839(4)
H8 H 0.7914 0.4036 0.0785
H9 H 0.5937 0.3655 0.0170
C7 C 0.6629(7) 0.2779(5) 0.1564(4)
H10 H 0.7462 0.2959 0.2212
H11 H 0.7058 0.2017 0.1290
C8 C 0.4684(7) 0.2562(5) 0.1723(4)
H12 H 0.3901 0.2376 0.1053
C9 C 0.3906(7) 0.3778(5) 0.2096(4)
H13 H 0.4724 0.4013 0.2745
C10 C 0.3898(7) 0.4900(5) 0.1345(4)
C11 C 0.1987(7) 0.3499(5) 0.2297(4)
H14 H 0.1527 0.4252 0.2570
H15 H 0.1136 0.3289 0.1663
C12 C 0.2059(7) 0.2412(5) 0.3039(4)
H16 H 0.0842 0.2290 0.3171
H17 H 0.2899 0.2630 0.3675
C13 C 0.2699(7) 0.1166(5) 0.2639(3)
C14 C 0.4603(7) 0.1395(5) 0.2376(4)
C15 C 0.5971(7) 0.1384(5) 0.3422(4)
H18 H 0.7128 0.0996 0.3371
H19 H 0.6219 0.2243 0.3673
C16 C 0.5062(7) 0.0614(7) 0.4146(4)
H20 H 0.5827 -0.0105 0.4421
H21 H 0.4876 0.1138 0.4703
C17 C 0.3218(7) 0.0170(6) 0.3500(4)
H22 H 0.3448 -0.0630 0.3182
C18 C 0.1250(8) 0.0656(6) 0.1759(4)
H23 H 0.0945 0.1293 0.1241
H24 H 0.0163 0.0431 0.1990
H25 H 0.1723 -0.0080 0.1487
C19 C 0.2521(7) 0.4643(6) 0.0324(4)
H26 H 0.2542 0.5339 -0.0129
H27 H 0.1299 0.4551 0.0438
H28 H 0.2866 0.3878 0.0030
C20 C 0.1787(7) -0.0093(6) 0.4098(4)
C21 C 0.1329(8) 0.0576(7) 0.4823(4)
H29 H 0.1868 0.1340 0.5074
C22 C -0.0140(9) -0.0056(7) 0.5170(5)
C23 C 0.0617(10) -0.1253(7) 0.3915(6)
H30 H -0.0109 -0.1279 0.3222
H31 H 0.1366 -0.2014 0.4048
O1 O -0.0980(6) 0.0251(6) 0.5800(3)
O2 O 0.6546(6) 0.7847(4) 0.1820(3)
H32 H 0.6349 0.7560 0.1242
O3 O 0.5832(5) 0.5977(3) 0.0338(2)
H33 H 0.6038 0.6697 0.0563
O4 O 0.5070(5) 0.0290(3) 0.1852(3)
H34 H 0.4851 0.0431 0.1241
O5 O -0.0578(6) -0.1125(5) 0.4641(4)
loop_
_geom_bond_atom_site_label_1
_geom_bond_atom_site_label_2
_geom_bond_site_symmetry_1
_geom_bond_site_symmetry_2
C1 H1 1_555 1_555
H2 C1 1_555 1_555
C2 C1 1_555 1_555
H3 C2 1_555 1_555
H4 C2 1_555 1_555
C3 C2 1_555 1_555
H5 C3 1_555 1_555
C4 C3 1_555 1_555
H6 C4 1_555 1_555
H7 C4 1_555 1_555
C5 C4 1_555 1_555
C6 C5 1_555 1_555
H8 C6 1_555 1_555
H9 C6 1_555 1_555
C7 C6 1_555 1_555
H10 C7 1_555 1_555
H11 C7 1_555 1_555
C8 C7 1_555 1_555
H12 C8 1_555 1_555
C9 C8 1_555 1_555
H13 C9 1_555 1_555
C10 C1 1_555 1_555
C11 C9 1_555 1_555
H14 C11 1_555 1_555
H15 C11 1_555 1_555
C12 C11 1_555 1_555
H16 C12 1_555 1_555
H17 C12 1_555 1_555
C13 C12 1_555 1_555
C14 C8 1_555 1_555
C15 C14 1_555 1_555
H18 C15 1_555 1_555
H19 C15 1_555 1_555
C16 C15 1_555 1_555
H20 C16 1_555 1_555
H21 C16 1_555 1_555
C17 C13 1_555 1_555
H22 C17 1_555 1_555
C18 C13 1_555 1_555
H23 C18 1_555 1_555
H24 C18 1_555 1_555
H25 C18 1_555 1_555
C19 C10 1_555 1_555
H26 C19 1_555 1_555
H27 C19 1_555 1_555
H28 C19 1_555 1_555
C20 C17 1_555 1_555
C21 C20 1_555 1_555
H29 C21 1_555 1_555
C22 C21 1_555 1_555
C23 C20 1_555 1_555
H30 C23 1_555 1_555
H31 C23 1_555 1_555
O1 C22 1_555 1_555
O2 C3 1_555 1_555
H32 O2 1_555 1_555
O3 C5 1_555 1_555
H33 O3 1_555 1_555
O4 C14 1_555 1_555
H34 O4 1_555 1_555
O5 C22 1_555 1_555
C5 C10 1_555 1_555
C9 C10 1_555 1_555
C13 C14 1_555 1_555
C16 C17 1_555 1_555
C23 O5 1_555 1_555

#END
