
#######################################################################
#
#                 Cambridge Crystallographic Data Centre
#                                CCDC 
#
#######################################################################
#
# If this CIF has been generated from an entry in the Cambridge 
# Structural Database, then it will include bibliographic, chemical, 
# crystal, experimental, refinement or atomic coordinate data resulting 
# from the CCDC's data processing and validation procedures.
#
#######################################################################

data_PAVFUQ
_chemical_formula_moiety         'C27 H23 N1 O3'
_chemical_name_systematic        
10b-hydroxy-3-(3-methoxyphenyl)-2-phenyl-2,3,3a,10b-tetrahydrocyclopenta[3,4]pyrrolo[1,2-a]indol-4(1H)-one
_symmetry_cell_setting           orthorhombic
_symmetry_space_group_name_H-M   'P 21 21 21'
_symmetry_Int_Tables_number      19
_space_group_name_Hall           'P 2ac 2ab'
loop_
_symmetry_equiv_pos_site_id
_symmetry_equiv_pos_as_xyz
1 x,y,z
2 1/2-x,-y,1/2+z
3 1/2+x,1/2-y,-z
4 -x,1/2+y,1/2-z
_cell_length_a                   6.24343(13)
_cell_length_b                   16.3321(3)
_cell_length_c                   20.2668(4)
_cell_angle_alpha                90
_cell_angle_beta                 90
_cell_angle_gamma                90
_cell_volume                     2066.57
_exptl_crystal_colour            'light colorless'
_exptl_crystal_description       needle
_cell_formula_units_Z            4
loop_
_atom_site_label
_atom_site_type_symbol
_atom_site_fract_x
_atom_site_fract_y
_atom_site_fract_z
O1 O 0.6685(3) 0.78688(10) 0.00437(9)
O2 O 1.3259(3) 0.87613(12) 0.07509(10)
H1 H 1.3400 0.8324 0.0557
O3 O 0.9797(4) 1.08989(16) -0.18967(11)
N1 N 0.8318(3) 0.79025(12) 0.10612(10)
C1 C 0.7450(4) 0.73013(14) 0.14753(12)
C2 C 0.5538(4) 0.68789(15) 0.14370(13)
H2 H 0.4621 0.6937 0.1078
C3 C 0.5054(5) 0.63636(17) 0.19600(15)
H3 H 0.3778 0.6070 0.1955
C4 C 0.6436(6) 0.62781(19) 0.24910(15)
H4 H 0.6076 0.5922 0.2832
C5 C 0.8329(6) 0.67075(19) 0.25254(15)
H5 H 0.9244 0.6643 0.2884
C6 C 0.8848(5) 0.72392(17) 0.20144(13)
C7 C 1.0561(5) 0.78242(17) 0.19190(13)
H6 H 1.1713 0.7912 0.2201
C8 C 1.0182(4) 0.82182(15) 0.13477(12)
C9 C 1.1063(4) 0.88805(15) 0.09129(12)
C10 C 0.9546(4) 0.88560(14) 0.03013(11)
H7 H 1.0379 0.8753 -0.0100
C11 C 0.7988(4) 0.81596(14) 0.04182(11)
C12 C 1.0853(4) 0.97552(15) 0.11797(12)
H8 H 0.9775 0.9783 0.1524
H9 H 1.2206 0.9948 0.1356
C13 C 1.0181(4) 1.02620(14) 0.05783(11)
H10 H 1.1404 1.0283 0.0276
C14 C 0.8464(4) 0.97144(14) 0.02620(11)
H11 H 0.7218 0.9709 0.0556
C15 C 0.7691(4) 0.99496(14) -0.04221(12)
C16 C 0.9008(4) 1.03507(16) -0.08649(12)
H12 H 1.0387 1.0498 -0.0738
C17 C 0.8295(5) 1.05375(16) -0.14976(13)
C18 C 0.6257(4) 1.03344(18) -0.16912(14)
H13 H 0.5768 1.0468 -0.2111
C19 C 0.4944(5) 0.9928(2) -0.12504(14)
H14 H 0.3570 0.9779 -0.1380
C20 C 0.5633(4) 0.97414(19) -0.06244(13)
H15 H 0.4717 0.9474 -0.0334
C21 C 0.9301(7) 1.0985(3) -0.25718(17)
H16 H 1.0561 1.1151 -0.2809
H17 H 0.8206 1.1393 -0.2624
H18 H 0.8799 1.0472 -0.2742
C22 C 0.9530(5) 1.11346(15) 0.07289(12)
C23 C 1.0916(6) 1.17731(17) 0.05953(15)
H19 H 1.2228 1.1665 0.0396
C24 C 1.0378(8) 1.25747(19) 0.07539(19)
H20 H 1.1327 1.2997 0.0658
C25 C 0.8466(7) 1.27453(19) 0.10490(19)
H21 H 0.8118 1.3282 0.1158
C26 C 0.7072(6) 1.2130(2) 0.11826(19)
H22 H 0.5763 1.2245 0.1381
C27 C 0.7599(5) 1.13241(18) 0.10235(17)
H23 H 0.6632 1.0907 0.1117
loop_
_geom_bond_atom_site_label_1
_geom_bond_atom_site_label_2
_geom_bond_site_symmetry_1
_geom_bond_site_symmetry_2
O1 C11 1_555 1_555
O2 H1 1_555 1_555
O3 C17 1_555 1_555
N1 C1 1_555 1_555
C1 C2 1_555 1_555
C2 H2 1_555 1_555
C3 C2 1_555 1_555
H3 C3 1_555 1_555
C4 C3 1_555 1_555
H4 C4 1_555 1_555
C5 C4 1_555 1_555
H5 C5 1_555 1_555
C6 C1 1_555 1_555
C7 C6 1_555 1_555
H6 C7 1_555 1_555
C8 N1 1_555 1_555
C9 O2 1_555 1_555
C10 C9 1_555 1_555
H7 C10 1_555 1_555
C11 N1 1_555 1_555
C12 C9 1_555 1_555
H8 C12 1_555 1_555
H9 C12 1_555 1_555
C13 C12 1_555 1_555
H10 C13 1_555 1_555
C14 C10 1_555 1_555
H11 C14 1_555 1_555
C15 C14 1_555 1_555
C16 C15 1_555 1_555
H12 C16 1_555 1_555
C17 C16 1_555 1_555
C18 C17 1_555 1_555
H13 C18 1_555 1_555
C19 C18 1_555 1_555
H14 C19 1_555 1_555
C20 C15 1_555 1_555
H15 C20 1_555 1_555
C21 O3 1_555 1_555
H16 C21 1_555 1_555
H17 C21 1_555 1_555
H18 C21 1_555 1_555
C22 C13 1_555 1_555
C23 C22 1_555 1_555
H19 C23 1_555 1_555
C24 C23 1_555 1_555
H20 C24 1_555 1_555
C25 C24 1_555 1_555
H21 C25 1_555 1_555
C26 C25 1_555 1_555
H22 C26 1_555 1_555
C27 C22 1_555 1_555
H23 C27 1_555 1_555
C5 C6 1_555 1_555
C7 C8 1_555 1_555
C8 C9 1_555 1_555
C10 C11 1_555 1_555
C13 C14 1_555 1_555
C19 C20 1_555 1_555
C26 C27 1_555 1_555

#END
