
#######################################################################
#
#                 Cambridge Crystallographic Data Centre
#                                CCDC 
#
#######################################################################
#
# If this CIF has been generated from an entry in the Cambridge 
# Structural Database, then it will include bibliographic, chemical, 
# crystal, experimental, refinement or atomic coordinate data resulting 
# from the CCDC's data processing and validation procedures.
#
#######################################################################

data_PAVTEN
_chemical_formula_moiety         'C6 H4 N2,C6 H5 N2 1+,H2 O4 P1 1-,H3 O4 P1'
_chemical_name_systematic        
'4-Cyanopyridinium isonicotinonitrile (phosphoric acid) (dihydrogen phosphate)'
_symmetry_cell_setting           triclinic
_symmetry_space_group_name_H-M   'P -1'
_symmetry_Int_Tables_number      2
_space_group_name_Hall           '-P 1'
loop_
_symmetry_equiv_pos_site_id
_symmetry_equiv_pos_as_xyz
1 x,y,z
2 -x,-y,-z
_cell_length_a                   8.1040(5)
_cell_length_b                   8.8872(9)
_cell_length_c                   12.1606(8)
_cell_angle_alpha                81.491(1)
_cell_angle_beta                 82.009(1)
_cell_angle_gamma                79.133(1)
_cell_volume                     845.07
_exptl_crystal_colour            colorless
_exptl_crystal_description       block
_cell_formula_units_Z            2
loop_
_atom_site_label
_atom_site_type_symbol
_atom_site_fract_x
_atom_site_fract_y
_atom_site_fract_z
N1 N 1.02100(16) 0.12068(15) 0.59294(11)
N2 N 0.39938(18) 0.32104(18) 0.46853(13)
C1 C 0.83067(19) 0.30110(18) 0.48280(13)
H1 H 0.8118 0.3903 0.4294
C2 C 0.98861(19) 0.24689(18) 0.51769(13)
H2 H 1.0784 0.3010 0.4873
C3 C 0.5317(2) 0.27525(19) 0.49470(14)
C4 C 0.73050(19) 0.09074(18) 0.60593(13)
H3 H 0.6429 0.0347 0.6378
C5 C 0.69979(19) 0.22094(18) 0.52833(13)
C6 C 0.89403(19) 0.04504(18) 0.63541(13)
H4 H 0.9166 -0.0442 0.6883
N3 N 0.50667(15) 0.28063(14) 0.85938(11)
H5 H 0.4049 0.2582 0.8897
N4 N 1.12529(17) 0.40818(17) 0.74487(12)
C7 C 0.63720(19) 0.18015(18) 0.89738(13)
H6 H 0.6178 0.0886 0.9447
C8 C 0.6851(2) 0.44610(18) 0.75916(13)
H7 H 0.7008 0.5377 0.7107
C9 C 0.82275(18) 0.34390(17) 0.79861(12)
C10 C 0.79957(19) 0.20896(18) 0.86819(13)
H8 H 0.8932 0.1385 0.8949
C11 C 0.52563(19) 0.41132(18) 0.79207(13)
H9 H 0.4294 0.4798 0.7671
C12 C 0.9921(2) 0.37991(18) 0.76837(13)
P1 P 0.15691(4) 0.29108(4) 1.05923(3)
O1 O 0.24327(13) 0.17698(12) 0.97909(9)
O2 O 0.21239(13) 0.23350(12) 1.17856(9)
H10 H 0.3149 0.2034 1.1716
O3 O -0.03370(12) 0.32218(12) 1.06993(9)
O4 O 0.22876(13) 0.44436(12) 1.01948(9)
H11 H 0.1635 0.5162 0.9902
P2 P 0.31115(5) 0.91637(4) 0.78249(3)
O5 O 0.47632(13) 0.89331(13) 0.82709(9)
O6 O 0.32346(13) 1.01043(13) 0.66430(9)
H12 H 0.2317 1.0444 0.6412
O7 O 0.16276(13) 1.00119(12) 0.85896(9)
H13 H 0.1963 1.0539 0.8984
O8 O 0.24974(14) 0.76550(12) 0.76809(9)
H14 H 0.1813 0.7401 0.8206
loop_
_geom_bond_atom_site_label_1
_geom_bond_atom_site_label_2
_geom_bond_site_symmetry_1
_geom_bond_site_symmetry_2
N1 C2 1_555 1_555
N2 C3 1_555 1_555
C1 H1 1_555 1_555
C2 C1 1_555 1_555
H2 C2 1_555 1_555
C3 C5 1_555 1_555
C4 H3 1_555 1_555
C5 C1 1_555 1_555
C6 N1 1_555 1_555
H4 C6 1_555 1_555
N3 H5 1_555 1_555
N4 C12 1_555 1_555
C7 N3 1_555 1_555
H6 C7 1_555 1_555
C8 H7 1_555 1_555
C9 C8 1_555 1_555
C10 C7 1_555 1_555
H8 C10 1_555 1_555
C11 N3 1_555 1_555
H9 C11 1_555 1_555
C12 C9 1_555 1_555
P1 O1 1_555 1_555
O2 P1 1_555 1_555
H10 O2 1_555 1_555
O3 P1 1_555 1_555
O4 P1 1_555 1_555
H11 O4 1_555 1_555
P2 O5 1_555 1_555
O6 P2 1_555 1_555
H12 O6 1_555 1_555
O7 P2 1_555 1_555
H13 O7 1_555 1_555
O8 P2 1_555 1_555
H14 O8 1_555 1_555
C4 C5 1_555 1_555
C4 C6 1_555 1_555
C8 C11 1_555 1_555
C9 C10 1_555 1_555

#END
