
#######################################################################
#
#                 Cambridge Crystallographic Data Centre
#                                CCDC 
#
#######################################################################
#
# If this CIF has been generated from an entry in the Cambridge 
# Structural Database, then it will include bibliographic, chemical, 
# crystal, experimental, refinement or atomic coordinate data resulting 
# from the CCDC's data processing and validation procedures.
#
#######################################################################

data_PAVWOA
_chemical_formula_moiety         'C16 H19 Br1 O3'
_chemical_name_systematic        
7-((6-Bromohexyl)oxy)-4-methyl-2H-chromen-2-one
_symmetry_cell_setting           monoclinic
_symmetry_space_group_name_H-M   'C 2/c'
_symmetry_Int_Tables_number      15
_space_group_name_Hall           '-C 2yn'
loop_
_symmetry_equiv_pos_site_id
_symmetry_equiv_pos_as_xyz
1 x,y,z
2 -x,y,1/2-z
3 1/2+x,1/2+y,z
4 1/2-x,1/2+y,1/2-z
5 -x,-y,-z
6 x,-y,1/2+z
7 1/2-x,1/2-y,-z
8 1/2+x,1/2-y,1/2+z
_cell_length_a                   15.681(5)
_cell_length_b                   9.540(3)
_cell_length_c                   22.104(7)
_cell_angle_alpha                90
_cell_angle_beta                 110.201(6)
_cell_angle_gamma                90
_cell_volume                     3103.28
_exptl_crystal_colour            colorless
_exptl_crystal_description       block
_cell_formula_units_Z            8
_exptl_crystal_recrystallization_method chloroform
loop_
_atom_site_label
_atom_site_type_symbol
_atom_site_fract_x
_atom_site_fract_y
_atom_site_fract_z
Br1 Br 0.13272(3) 0.92653(5) 0.02243(2)
C1 C 0.7117(2) -0.1670(3) 0.24911(16)
C2 C 0.6618(2) -0.2939(3) 0.22745(15)
H1 H 0.6926 -0.3787 0.2379
C3 C 0.5727(2) -0.2965(3) 0.19283(15)
C4 C 0.5235(3) -0.4315(3) 0.1708(2)
H2 H 0.5654 -0.5082 0.1847
H3 H 0.4973 -0.4319 0.1246
H4 H 0.4763 -0.4412 0.1889
C5 C 0.5242(2) -0.1647(3) 0.17747(14)
C6 C 0.57263(19) -0.0413(3) 0.19839(14)
C7 C 0.5329(2) 0.0882(3) 0.18675(15)
H5 H 0.5674 0.1687 0.2012
C8 C 0.4408(2) 0.0971(3) 0.15309(15)
C9 C 0.3895(2) -0.0240(3) 0.13091(15)
H6 H 0.3274 -0.0181 0.1083
C10 C 0.4319(2) -0.1512(3) 0.14297(15)
H7 H 0.3978 -0.2316 0.1275
C11 C 0.3099(2) 0.2471(3) 0.11206(17)
H8 H 0.2765 0.1966 0.1348
H9 H 0.2915 0.2118 0.0683
C12 C 0.2914(2) 0.4009(3) 0.11200(19)
H10 H 0.3306 0.4497 0.0932
H11 H 0.3073 0.4324 0.1563
C13 C 0.1935(2) 0.4414(3) 0.07516(16)
H12 H 0.1779 0.4142 0.0303
H13 H 0.1537 0.3911 0.0928
C14 C 0.1785(2) 0.5971(3) 0.07899(17)
H14 H 0.1936 0.6231 0.1239
H15 H 0.2199 0.6466 0.0625
C15 C 0.0828(2) 0.6447(3) 0.04209(17)
H16 H 0.0713 0.6332 -0.0036
H17 H 0.0407 0.5844 0.0533
C16 C 0.0638(2) 0.7941(4) 0.05454(19)
H18 H 0.0790 0.8079 0.1005
H19 H -0.0006 0.8128 0.0339
O1 O 0.79161(16) -0.1577(2) 0.27985(13)
O2 O 0.66442(13) -0.0436(2) 0.23286(10)
O3 O 0.40587(14) 0.2292(2) 0.14399(12)
loop_
_geom_bond_atom_site_label_1
_geom_bond_atom_site_label_2
_geom_bond_site_symmetry_1
_geom_bond_site_symmetry_2
Br1 C16 1_555 1_555
C1 C2 1_555 1_555
C2 H1 1_555 1_555
C3 C2 1_555 1_555
C4 C3 1_555 1_555
H2 C4 1_555 1_555
H3 C4 1_555 1_555
H4 C4 1_555 1_555
C5 C3 1_555 1_555
C6 C5 1_555 1_555
C7 C6 1_555 1_555
H5 C7 1_555 1_555
C8 C7 1_555 1_555
C9 C8 1_555 1_555
H6 C9 1_555 1_555
C10 C5 1_555 1_555
H7 C10 1_555 1_555
C11 H8 1_555 1_555
H9 C11 1_555 1_555
C12 C11 1_555 1_555
H10 C12 1_555 1_555
H11 C12 1_555 1_555
C13 C12 1_555 1_555
H12 C13 1_555 1_555
H13 C13 1_555 1_555
C14 C13 1_555 1_555
H14 C14 1_555 1_555
H15 C14 1_555 1_555
C15 C14 1_555 1_555
H16 C15 1_555 1_555
H17 C15 1_555 1_555
C16 C15 1_555 1_555
H18 C16 1_555 1_555
H19 C16 1_555 1_555
O1 C1 1_555 1_555
O2 C1 1_555 1_555
O3 C8 1_555 1_555
C6 O2 1_555 1_555
C9 C10 1_555 1_555
C11 O3 1_555 1_555

#END
