
#######################################################################
#
#                 Cambridge Crystallographic Data Centre
#                                CCDC 
#
#######################################################################
#
# If this CIF has been generated from an entry in the Cambridge 
# Structural Database, then it will include bibliographic, chemical, 
# crystal, experimental, refinement or atomic coordinate data resulting 
# from the CCDC's data processing and validation procedures.
#
#######################################################################

data_PAVYOA
_chemical_formula_moiety         'C1 H6 N3 1+,0.5(C12 H8 O6 S2 2-),1.5(C10 H10)'
_chemical_name_systematic        
'bis(Guanidinium) biphenyldisulfonate p-divinylbenzene clathrate'
_symmetry_cell_setting           monoclinic
_symmetry_space_group_name_H-M   'P 21/n'
_symmetry_Int_Tables_number      14
_space_group_name_Hall           '-P 2yn'
loop_
_symmetry_equiv_pos_site_id
_symmetry_equiv_pos_as_xyz
1 x,y,z
2 1/2+x,1/2-y,1/2+z
3 -x,-y,-z
4 1/2-x,1/2+y,1/2-z
_cell_length_a                   7.6132(2)
_cell_length_b                   11.4829(3)
_cell_length_c                   25.8044(7)
_cell_angle_alpha                90
_cell_angle_beta                 91.410(1)
_cell_angle_gamma                90
_cell_volume                     2255.18
_exptl_crystal_colour            colorless
_exptl_crystal_description       plate
_cell_formula_units_Z            4
loop_
_atom_site_label
_atom_site_type_symbol
_atom_site_fract_x
_atom_site_fract_y
_atom_site_fract_z
S1 S 0.49495(13) 0.11572(10) 0.19869(4)
O1 O 0.6549(3) 0.1844(3) 0.20654(12)
O2 O 0.4999(3) 0.0081(3) 0.22877(11)
O3 O 0.3370(3) 0.1840(3) 0.20702(11)
C1 C 0.4894(5) 0.0748(4) 0.1330(2)
C2 C 0.5671(8) -0.0265(5) 0.1174(2)
H1 H 0.6187(8) -0.0774(5) 0.1426(2)
C3 C 0.5710(8) -0.0551(5) 0.0657(2)
H2 H 0.6262(8) -0.1255(5) 0.0557(2)
C4 C 0.4972(5) 0.0152(4) 0.0282(2)
C5 C 0.4164(6) 0.1153(4) 0.0443(2)
H3 H 0.3618(6) 0.1651(4) 0.0193(2)
C6 C 0.4127(6) 0.1451(4) 0.0960(2)
H4 H 0.3565(6) 0.2151(4) 0.1060(2)
C4B C 0.5028(5) -0.0152(4) -0.0282(2)
C3B C 0.4290(8) 0.0551(5) -0.0657(2)
C2B C 0.4329(8) 0.0265(5) -0.1174(2)
C1B C 0.5106(5) -0.0748(4) -0.1330(2)
S1B S 0.50505(13) -0.11572(10) -0.19869(4)
O1B O 0.3451(3) -0.1844(3) -0.20654(12)
O2B O 0.5001(3) -0.0081(3) -0.22877(11)
O3B O 0.6630(3) -0.1840(3) -0.20702(11)
C6B C 0.5873(6) -0.1451(4) -0.0960(2)
C5B C 0.5836(6) -0.1153(4) -0.0443(2)
H3B H 0.6382(6) -0.1651(4) -0.0193(2)
H4B H 0.6435(6) -0.2151(4) -0.1060(2)
H1B H 0.3813(8) 0.0774(5) -0.1426(2)
H2B H 0.3738(8) 0.1255(5) -0.0557(2)
C7 C 0.9989(5) -0.0253(4) 0.2460(2)
N1 N 0.9967(5) 0.0800(4) 0.2247(2)
H5 H 0.8961(5) 0.1158(4) 0.2187(2)
H6 H 1.0959(5) 0.1139(4) 0.2165(2)
N2 N 0.8509(4) -0.0761(3) 0.2583(2)
H7 H 0.8526(4) -0.1455(3) 0.2727(2)
H8 H 0.7500(4) -0.0407(3) 0.2520(2)
N3 N 1.1506(5) -0.0787(4) 0.2555(2)
H9 H 1.1521(5) -0.1481(4) 0.2699(2)
H10 H 1.2498(5) -0.0447(4) 0.2473(2)
C8 C 0.0232(15) 0.3766(12) 0.1327(6)
H11 H 0.0936(15) 0.4280(12) 0.1132(6)
H12 H 0.0062(15) 0.3908(12) 0.1685(6)
C9 C -0.0443(13) 0.2935(13) 0.1121(5)
H13 H -0.1151(13) 0.2410(13) 0.1309(5)
C10 C -0.0111(8) 0.2748(7) 0.0529(3)
C11 C -0.0798(9) 0.1695(8) 0.0297(4)
H14 H -0.1359(9) 0.1125(8) 0.0502(4)
C12 C -0.0628(10) 0.1534(7) -0.0221(4)
H15 H -0.1084(10) 0.0847(7) -0.0378(4)
C13 C 0.0177(9) 0.2332(7) -0.0514(3)
C14 C 0.0839(7) 0.3282(6) -0.0291(3)
H16 H 0.1429(7) 0.3832(6) -0.0499(3)
C15 C 0.0712(7) 0.3487(5) 0.0201(3)
H17 H 0.1215(7) 0.4182(5) 0.0339(3)
C16 C 0.0274(19) 0.2145(15) -0.1070(5)
H18 H -0.0220(19) 0.1427(15) -0.1185(5)
C17 C 0.0893(21) 0.2758(16) -0.1431(4)
H19 H 0.1415(21) 0.3491(16) -0.1354(4)
H20 H 0.0836(21) 0.2484(16) -0.1778(4)
C18 C 0.5849(11) 0.4035(9) -0.0129(5)
H21 H 0.6475(11) 0.3347(9) -0.0211(5)
C19 C 0.5692(12) 0.4268(9) 0.0379(5)
H22 H 0.6163(12) 0.3753(9) 0.0635(5)
C20 C 0.5236(10) 0.4649(9) -0.0529(5)
C21 C 0.5285(19) 0.4415(15) -0.1103(6)
H23 H 0.4719(19) 0.4944(15) -0.1336(6)
C22 C 0.6066(20) 0.3524(16) -0.1287(6)
H24 H 0.6638(20) 0.2987(16) -0.1059(6)
H25 H 0.6074(20) 0.3400(16) -0.1651(6)
C20B C 0.4764(10) 0.5351(9) 0.0529(5)
C18B C 0.4151(11) 0.5965(9) 0.0129(5)
H21B H 0.3525(11) 0.6653(9) 0.0211(5)
C19B C 0.4308(12) 0.5732(9) -0.0379(5)
H22B H 0.3837(12) 0.6247(9) -0.0635(5)
C21B C 0.4715(19) 0.5585(15) 0.1103(6)
H23B H 0.5281(19) 0.5056(15) 0.1336(6)
C22B C 0.3934(20) 0.6476(16) 0.1287(6)
H24B H 0.3362(20) 0.7013(16) 0.1059(6)
H25B H 0.3926(20) 0.6600(16) 0.1651(6)
loop_
_geom_bond_atom_site_label_1
_geom_bond_atom_site_label_2
_geom_bond_site_symmetry_1
_geom_bond_site_symmetry_2
S1 O1 1_555 1_555
O2 S1 1_555 1_555
O3 S1 1_555 1_555
C1 S1 1_555 1_555
C2 C1 1_555 1_555
H1 C2 1_555 1_555
C3 C2 1_555 1_555
H2 C3 1_555 1_555
C4 C3 1_555 1_555
C5 C4 1_555 1_555
H3 C5 1_555 1_555
C6 C1 1_555 1_555
H4 C6 1_555 1_555
C7 N1 1_555 1_555
N1 H5 1_555 1_555
H6 N1 1_555 1_555
N2 C7 1_555 1_555
H7 N2 1_555 1_555
H8 N2 1_555 1_555
N3 C7 1_555 1_555
H9 N3 1_555 1_555
H10 N3 1_555 1_555
C8 H11 1_555 1_555
H12 C8 1_555 1_555
C9 C8 1_555 1_555
H13 C9 1_555 1_555
C10 C9 1_555 1_555
C11 C10 1_555 1_555
H14 C11 1_555 1_555
C12 C11 1_555 1_555
H15 C12 1_555 1_555
C13 C12 1_555 1_555
C14 C13 1_555 1_555
H16 C14 1_555 1_555
C15 C10 1_555 1_555
H17 C15 1_555 1_555
C16 C13 1_555 1_555
H18 C16 1_555 1_555
C17 C16 1_555 1_555
H19 C17 1_555 1_555
H20 C17 1_555 1_555
C18 H21 1_555 1_555
C19 C18 1_555 1_555
H22 C19 1_555 1_555
C20 C18 1_555 1_555
C21 C20 1_555 1_555
H23 C21 1_555 1_555
C22 C21 1_555 1_555
H24 C22 1_555 1_555
H25 C22 1_555 1_555
C4B C4 1_555 1_555
C3B C4B 1_555 1_555
C2B C3B 1_555 1_555
C1B C2B 1_555 1_555
S1B C1B 1_555 1_555
O1B S1B 1_555 1_555
O2B S1B 1_555 1_555
O3B S1B 1_555 1_555
C6B C1B 1_555 1_555
C5B C4B 1_555 1_555
H3B C5B 1_555 1_555
H4B C6B 1_555 1_555
H1B C2B 1_555 1_555
H2B C3B 1_555 1_555
C20B C19 1_555 1_555
C18B C20B 1_555 1_555
H21B C18B 1_555 1_555
C19B C20 1_555 1_555
H22B C19B 1_555 1_555
C21B C20B 1_555 1_555
H23B C21B 1_555 1_555
C22B C21B 1_555 1_555
H24B C22B 1_555 1_555
H25B C22B 1_555 1_555
C5 C6 1_555 1_555
C14 C15 1_555 1_555
C6B C5B 1_555 1_555
C18B C19B 1_555 1_555

#END
