
#######################################################################
#
#                 Cambridge Crystallographic Data Centre
#                                CCDC 
#
#######################################################################
#
# If this CIF has been generated from an entry in the Cambridge 
# Structural Database, then it will include bibliographic, chemical, 
# crystal, experimental, refinement or atomic coordinate data resulting 
# from the CCDC's data processing and validation procedures.
#
#######################################################################

data_PAVZER
_chemical_formula_moiety         '2(C1 H6 N3 1+),C12 H8 O6 S2 2-,C10 H7 N1 O2'
_chemical_name_systematic        
'bis(Guanidinium) biphenyldisulfonate 1-nitronaphthalene clathrate'
_symmetry_cell_setting           orthorhombic
_symmetry_space_group_name_H-M   'P n a 21'
_symmetry_Int_Tables_number      33
_space_group_name_Hall           'P 2c -2n'
loop_
_symmetry_equiv_pos_site_id
_symmetry_equiv_pos_as_xyz
1 x,y,z
2 -x,-y,1/2+z
3 1/2+x,1/2-y,z
4 1/2-x,1/2+y,1/2+z
_cell_length_a                   15.7309(8)
_cell_length_b                   7.3988(4)
_cell_length_c                   23.2335(12)
_cell_angle_alpha                90
_cell_angle_beta                 90
_cell_angle_gamma                90
_cell_volume                     2704.14
_exptl_crystal_colour            'light yellow'
_exptl_crystal_description       plate
_cell_formula_units_Z            4
loop_
_atom_site_label
_atom_site_type_symbol
_atom_site_fract_x
_atom_site_fract_y
_atom_site_fract_z
S1 S 0.37281(7) 0.6992(2) 0.01874(6)
O1 O 0.4186(2) 0.8663(4) 0.03233(14)
C1 C 0.2872(3) 0.6855(6) 0.0674(2)
S2 S -0.12442(8) 0.76207(14) 0.32342(6)
O2 O 0.4261(2) 0.5403(4) 0.02791(14)
C2 C 0.2071(3) 0.7475(6) 0.0515(2)
H5 H 0.1970(3) 0.7877(6) 0.0133(2)
O3 O 0.3365(2) 0.7052(4) -0.03938(15)
C3 C 0.1414(3) 0.7501(6) 0.0923(2)
H8 H 0.0865(3) 0.7920(6) 0.0817(2)
O4 O -0.0851(2) 0.7604(4) 0.38004(15)
C4 C 0.1563(3) 0.6918(6) 0.1481(2)
O5 O -0.1667(2) 0.9333(4) 0.31109(14)
C5 C 0.2365(3) 0.6245(6) 0.1627(2)
H11 H 0.2464(3) 0.5809(6) 0.2005(2)
O6 O -0.1825(2) 0.6090(4) 0.31498(15)
C6 C 0.3012(3) 0.6205(6) 0.1230(2)
H14 H 0.3553(3) 0.5736(6) 0.1333(2)
C7 C 0.0880(3) 0.7017(6) 0.1920(2)
C8 C 0.1050(3) 0.7406(6) 0.2495(3)
H17 H 0.1624(3) 0.7567(6) 0.2613(3)
C9 C 0.0417(3) 0.7564(6) 0.2897(2)
H18 H 0.0553(3) 0.7831(6) 0.3286(2)
C10 C -0.0418(3) 0.7335(6) 0.2734(2)
C11 C -0.0615(3) 0.6921(6) 0.2169(2)
H19 H -0.1190(3) 0.6732(6) 0.2060(2)
C12 C 0.0023(3) 0.6783(6) 0.1763(2)
H20 H -0.0118(3) 0.6528(6) 0.1373(2)
N1 N 0.3078(2) 1.0527(5) -0.0967(2)
H1 H 0.3209(2) 0.9474(5) -0.0815(2)
H2 H 0.2776(2) 1.0576(5) -0.1286(2)
N2 N 0.3144(2) 1.3621(5) -0.0962(2)
H3 H 0.3320(2) 1.4637(5) -0.0805(2)
H4 H 0.2842(2) 1.3646(5) -0.1280(2)
N3 N 0.3784(2) 1.1996(5) -0.0240(2)
H6 H 0.3919(2) 1.0952(5) -0.0084(2)
H7 H 0.3950(2) 1.3011(5) -0.0078(2)
C13 C 0.3334(3) 1.2041(6) -0.0715(2)
N4 N 0.9398(2) 0.1077(5) 0.4389(2)
H9 H 0.9241(2) 0.0078(5) 0.4213(2)
H10 H 0.9696(2) 0.1018(5) 0.4708(2)
N5 N 0.9407(2) 0.4172(5) 0.4440(2)
H12 H 0.9696(2) 0.4126(5) 0.4764(2)
H13 H 0.9263(2) 0.5224(5) 0.4293(2)
N6 N 0.8738(3) 0.2733(5) 0.3692(2)
H15 H 0.8582(3) 0.1731(5) 0.3518(2)
H16 H 0.8595(3) 0.3788(5) 0.3546(2)
C14 C 0.9188(3) 0.2655(6) 0.4174(2)
N7 N 0.5893(4) 0.2545(6) 0.0648(3)
O7 O 0.5254(3) 0.1683(6) 0.0746(2)
O8 O 0.6087(3) 0.3089(6) 0.0174(2)
C15 C 0.6496(3) 0.2891(7) 0.1135(2)
C16 C 0.7315(4) 0.3189(7) 0.0973(3)
H21 H 0.7465(4) 0.3218(7) 0.0577(3)
C17 C 0.7937(3) 0.3453(7) 0.1399(3)
H22 H 0.8509(3) 0.3678(7) 0.1289(3)
C18 C 0.7730(3) 0.3391(7) 0.1967(3)
H23 H 0.8159(3) 0.3546(7) 0.2250(3)
C19 C 0.6866(3) 0.3092(6) 0.2139(2)
C20 C 0.6649(4) 0.3028(8) 0.2720(3)
H24 H 0.7086(4) 0.3126(8) 0.3000(3)
C21 C 0.5823(4) 0.2827(8) 0.2899(3)
H25 H 0.5687(4) 0.2732(8) 0.3296(3)
C22 C 0.5190(4) 0.2769(8) 0.2479(3)
H26 H 0.4613(4) 0.2714(8) 0.2598(3)
C23 C 0.5365(3) 0.2787(7) 0.1906(3)
H27 H 0.4915(3) 0.2718(7) 0.1634(3)
C24 C 0.6221(4) 0.2909(6) 0.1713(3)
loop_
_geom_bond_atom_site_label_1
_geom_bond_atom_site_label_2
_geom_bond_site_symmetry_1
_geom_bond_site_symmetry_2
S1 O1 1_555 1_555
N1 H1 1_555 1_555
H2 N1 1_555 1_555
C1 S1 1_555 1_555
S2 O4 1_555 1_555
O2 S1 1_555 1_555
N2 H3 1_555 1_555
H4 N2 1_555 1_555
C2 C1 1_555 1_555
H5 C2 1_555 1_555
O3 S1 1_555 1_555
N3 H6 1_555 1_555
H7 N3 1_555 1_555
C3 C2 1_555 1_555
H8 C3 1_555 1_555
C4 C3 1_555 1_555
N4 H9 1_555 1_555
H10 N4 1_555 1_555
O5 S2 1_555 1_555
C5 C4 1_555 1_555
H11 C5 1_555 1_555
N5 H12 1_555 1_555
H13 N5 1_555 1_555
O6 S2 1_555 1_555
C6 C1 1_555 1_555
H14 C6 1_555 1_555
N6 H15 1_555 1_555
H16 N6 1_555 1_555
C7 C4 1_555 1_555
N7 O7 1_555 1_555
C8 C7 1_555 1_555
H17 C8 1_555 1_555
O8 N7 1_555 1_555
C9 C8 1_555 1_555
H18 C9 1_555 1_555
C10 S2 1_555 1_555
C11 C10 1_555 1_555
H19 C11 1_555 1_555
C12 C7 1_555 1_555
H20 C12 1_555 1_555
C13 N1 1_555 1_555
C14 N4 1_555 1_555
C15 N7 1_555 1_555
C16 C15 1_555 1_555
H21 C16 1_555 1_555
C17 C16 1_555 1_555
H22 C17 1_555 1_555
C18 C17 1_555 1_555
H23 C18 1_555 1_555
C19 C18 1_555 1_555
C20 C19 1_555 1_555
H24 C20 1_555 1_555
C21 C20 1_555 1_555
H25 C21 1_555 1_555
C22 C21 1_555 1_555
H26 C22 1_555 1_555
C23 C22 1_555 1_555
H27 C23 1_555 1_555
C24 C15 1_555 1_555
N2 C13 1_555 1_555
N3 C13 1_555 1_555
C5 C6 1_555 1_555
N5 C14 1_555 1_555
N6 C14 1_555 1_555
C9 C10 1_555 1_555
C11 C12 1_555 1_555
C19 C24 1_555 1_555
C23 C24 1_555 1_555

#END
