
#######################################################################
#
#                 Cambridge Crystallographic Data Centre
#                                CCDC 
#
#######################################################################
#
# If this CIF has been generated from an entry in the Cambridge 
# Structural Database, then it will include bibliographic, chemical, 
# crystal, experimental, refinement or atomic coordinate data resulting 
# from the CCDC's data processing and validation procedures.
#
#######################################################################

data_PAWGEB
_chemical_formula_moiety         'C22 H20 N4 O4 S1'
_chemical_name_systematic        
N'^2^,N'^5^-bis((E)-2-Hydroxybenzylidene)-3,4-dimethylthiophene-2,5-dicarbohydrazide
_symmetry_cell_setting           triclinic
_symmetry_space_group_name_H-M   'P -1'
_symmetry_Int_Tables_number      2
_space_group_name_Hall           '-P 1'
loop_
_symmetry_equiv_pos_site_id
_symmetry_equiv_pos_as_xyz
1 x,y,z
2 -x,-y,-z
_cell_length_a                   8.392(8)
_cell_length_b                   9.511(9)
_cell_length_c                   12.937(8)
_cell_angle_alpha                99.853(17)
_cell_angle_beta                 90.804(18)
_cell_angle_gamma                92.374(18)
_cell_volume                     1016.25
_exptl_crystal_colour            yellow
_exptl_crystal_description       block
_cell_formula_units_Z            2
loop_
_atom_site_label
_atom_site_type_symbol
_atom_site_fract_x
_atom_site_fract_y
_atom_site_fract_z
N1 N 0.9005(2) 0.2862(2) 0.73465(15)
N2 N 0.8176(2) 0.32288(19) 0.65213(15)
H1 H 0.8112 0.4109 0.6455
N3 N 0.0145(2) 0.15155(19) 0.30284(15)
N4 N 0.1633(2) 0.16130(19) 0.34807(16)
H2 H 0.1990 0.0926 0.3759
C1 C 1.0429(3) 0.2314(3) 0.92331(19)
C2 C 1.1287(4) 0.2087(3) 1.0091(2)
H3 H 1.1110 0.1251 1.0363
C3 C 1.2397(4) 0.3085(4) 1.0542(2)
H4 H 1.2992 0.2919 1.1118
C4 C 1.2661(4) 0.4336(4) 1.0168(2)
H5 H 1.3424 0.5014 1.0488
C5 C 1.1795(3) 0.4575(3) 0.9320(2)
H6 H 1.1958 0.5429 0.9071
C6 C 1.0681(3) 0.3567(3) 0.88285(18)
C7 C 0.9818(3) 0.3853(3) 0.79290(18)
H7 H 0.9854 0.4772 0.7771
C8 C 0.7473(3) 0.2195(2) 0.5826(2)
C9 C 0.6441(3) 0.2671(2) 0.50316(18)
C10 C 0.6698(3) 0.3655(2) 0.44024(17)
C11 C 0.8216(3) 0.4475(3) 0.4339(2)
H8 H 0.8974 0.4238 0.4837
H9 H 0.8035 0.5479 0.4493
H10 H 0.8626 0.4242 0.3644
C12 C 0.5355(3) 0.3773(2) 0.37593(16)
C13 C 0.5400(3) 0.4737(3) 0.29632(19)
H11 H 0.4382 0.4681 0.2607
H12 H 0.6210 0.4448 0.2464
H13 H 0.5636 0.5702 0.3306
C14 C 0.4126(3) 0.2878(2) 0.39320(17)
C15 C 0.2514(3) 0.2808(2) 0.34768(17)
C16 C -0.0755(3) 0.0451(2) 0.31184(19)
H14 H -0.0433 -0.0200 0.3532
C17 C -0.2275(3) 0.0243(3) 0.25834(19)
C18 C -0.2791(3) 0.1158(3) 0.1937(2)
C19 C -0.4226(4) 0.0886(4) 0.1412(2)
H15 H -0.4569 0.1500 0.0975
C20 C -0.5150(4) -0.0277(4) 0.1529(3)
H16 H -0.6133 -0.0446 0.1179
C21 C -0.4657(4) -0.1201(4) 0.2151(3)
H17 H -0.5291 -0.2005 0.2218
C22 C -0.3236(4) -0.0936(3) 0.2669(2)
H18 H -0.2900 -0.1568 0.3094
O1 O 0.9338(3) 0.13019(19) 0.88189(15)
H19 H 0.8908 0.1536 0.8305
O2 O 0.7611(2) 0.09444(16) 0.58491(16)
O3 O 0.1986(2) 0.38046(15) 0.31228(12)
O4 O -0.1926(2) 0.2321(2) 0.17967(17)
H20 H -0.1073 0.2355 0.2119
S1 S 0.46125(8) 0.18434(6) 0.48365(5)
loop_
_geom_bond_atom_site_label_1
_geom_bond_atom_site_label_2
_geom_bond_site_symmetry_1
_geom_bond_site_symmetry_2
N1 N2 1_555 1_555
N2 H1 1_555 1_555
N3 N4 1_555 1_555
N4 H2 1_555 1_555
C1 C2 1_555 1_555
C2 H3 1_555 1_555
C3 C2 1_555 1_555
H4 C3 1_555 1_555
C4 C3 1_555 1_555
H5 C4 1_555 1_555
C5 C4 1_555 1_555
H6 C5 1_555 1_555
C6 C1 1_555 1_555
C7 N1 1_555 1_555
H7 C7 1_555 1_555
C8 N2 1_555 1_555
C9 C8 1_555 1_555
C10 C9 1_555 1_555
C11 C10 1_555 1_555
H8 C11 1_555 1_555
H9 C11 1_555 1_555
H10 C11 1_555 1_555
C12 C10 1_555 1_555
C13 C12 1_555 1_555
H11 C13 1_555 1_555
H12 C13 1_555 1_555
H13 C13 1_555 1_555
C14 C12 1_555 1_555
C15 N4 1_555 1_555
C16 N3 1_555 1_555
H14 C16 1_555 1_555
C17 C16 1_555 1_555
C18 C17 1_555 1_555
C19 C18 1_555 1_555
H15 C19 1_555 1_555
C20 C19 1_555 1_555
H16 C20 1_555 1_555
C21 C20 1_555 1_555
H17 C21 1_555 1_555
C22 C17 1_555 1_555
H18 C22 1_555 1_555
O1 C1 1_555 1_555
H19 O1 1_555 1_555
O2 C8 1_555 1_555
O3 C15 1_555 1_555
O4 C18 1_555 1_555
H20 O4 1_555 1_555
S1 C9 1_555 1_555
C5 C6 1_555 1_555
C6 C7 1_555 1_555
C14 C15 1_555 1_555
C14 S1 1_555 1_555
C21 C22 1_555 1_555

#END
