
#######################################################################
#
#                 Cambridge Crystallographic Data Centre
#                                CCDC 
#
#######################################################################
#
# If this CIF has been generated from an entry in the Cambridge 
# Structural Database, then it will include bibliographic, chemical, 
# crystal, experimental, refinement or atomic coordinate data resulting 
# from the CCDC's data processing and validation procedures.
#
#######################################################################

data_PAWLEF
_chemical_formula_moiety         'C15 H20 N2 O2'
_chemical_name_systematic        
9-Methyl-7-(4-methoxyphenyl)-1,7-diazaspiro(4.4)nonane-6-one
_symmetry_cell_setting           triclinic
_symmetry_space_group_name_H-M   'P -1'
_symmetry_Int_Tables_number      2
_space_group_name_Hall           '-P 1'
loop_
_symmetry_equiv_pos_site_id
_symmetry_equiv_pos_as_xyz
1 x,y,z
2 -x,-y,-z
_cell_length_a                   10.3909(9)
_cell_length_b                   10.8454(10)
_cell_length_c                   13.5145(16)
_cell_angle_alpha                73.579(7)
_cell_angle_beta                 76.502(7)
_cell_angle_gamma                79.920(7)
_cell_volume                     1410.78
_exptl_crystal_colour            'light yellow'
_chemical_melting_point          82.4-83.6deg.C
_cell_formula_units_Z            4
loop_
_atom_site_label
_atom_site_type_symbol
_atom_site_fract_x
_atom_site_fract_y
_atom_site_fract_z
O1 O 0.7185(2) 0.8739(2) 0.2860(2)
O2 O 0.8761(2) 0.4543(3) 0.7087(2)
N1 N 0.6699(2) 0.4903(2) 0.6633(2)
N2 N 0.7784(3) 0.2312(3) 0.8688(2)
C1 C 0.7173(3) 0.7787(3) 0.3785(3)
C2 C 0.8267(3) 0.7197(3) 0.4210(3)
C3 C 0.8123(3) 0.6240(3) 0.5156(3)
C4 C 0.6876(3) 0.5885(3) 0.5689(2)
C5 C 0.5772(3) 0.6527(3) 0.5251(3)
C6 C 0.5926(3) 0.7449(3) 0.4323(3)
C7 C 0.8449(4) 0.9016(4) 0.2229(3)
C8 C 0.7595(3) 0.4347(3) 0.7269(3)
C9 C 0.6914(3) 0.3457(3) 0.8267(3)
C10 C 0.5746(3) 0.3147(3) 0.7893(3)
C11 C 0.5400(3) 0.4403(3) 0.7106(3)
C12 C 0.8257(5) 0.2473(4) 0.9582(4)
C13 C 0.7508(12) 0.3878(11) 0.9780(10)
C14 C 0.6488(5) 0.4192(4) 0.9159(3)
C15 C 0.4575(4) 0.2619(5) 0.8727(3)
H1 H 0.7992 0.1636 0.8445
H2 H 0.9107 0.7433 0.3867
H3 H 0.8873 0.5834 0.5434
H4 H 0.4923 0.6321 0.5598
H5 H 0.5179 0.7860 0.4044
H6 H 0.8331 0.9691 0.1610
H7 H 0.8918 0.8252 0.2028
H8 H 0.8954 0.9292 0.2622
H9 H 0.6109 0.2496 0.7493
H10 H 0.5003 0.4247 0.6577
H11 H 0.4789 0.5005 0.7455
H12 H 0.3931 0.2443 0.8394
H13 H 0.4171 0.3245 0.9120
H14 H 0.4886 0.1834 0.9193
O3 O 0.1959(2) 0.5753(2) 0.7978(2)
O4 O 0.1177(2) 0.8831(2) 0.3226(2)
N3 N 0.2546(2) 0.9405(2) 0.4099(2)
N4 N 0.2621(3) 1.0551(3) 0.1345(2)
C16 C 0.2053(3) 0.6603(3) 0.7004(2)
C17 C 0.1787(3) 0.6345(3) 0.6139(3)
C18 C 0.1925(3) 0.7280(3) 0.5185(3)
C19 C 0.2336(3) 0.8463(3) 0.5080(2)
C20 C 0.2595(3) 0.8715(3) 0.5964(3)
C21 C 0.2455(3) 0.7793(4) 0.6908(3)
C22 C 0.1397(4) 0.4597(4) 0.8130(3)
C23 C 0.1951(3) 0.9540(3) 0.3271(2)
C24 C 0.2396(3) 1.0720(3) 0.2414(2)
C25 C 0.3677(3) 1.0902(3) 0.2704(3)
C26 C 0.3378(3) 1.0452(3) 0.3892(3)
C27 C 0.1555(4) 1.1288(4) 0.0828(3)
C28 C 0.1187(4) 1.2447(4) 0.1287(3)
C29 C 0.1263(3) 1.1842(4) 0.2434(3)
C30 C 0.4146(4) 1.2219(4) 0.2274(3)
H15 H 0.3288 1.0084 0.1068
H16 H 0.1517 0.5553 0.6190
H17 H 0.1736 0.7104 0.4603
H18 H 0.2864 0.9508 0.5917
H19 H 0.2634 0.7970 0.7493
H20 H 0.1405 0.4078 0.8834
H21 H 0.1910 0.4123 0.7639
H22 H 0.0496 0.4807 0.8021
H23 H 0.4389 1.0282 0.2445
H24 H 0.4191 1.0133 0.4165
H25 H 0.2899 1.1147 0.4202
H26 H 0.0806 1.0794 0.0985
H27 H 0.1858 1.1547 0.0072
H28 H 0.0295 1.2858 0.1210
H29 H 0.1815 1.3078 0.0961
H30 H 0.0428 1.1524 0.2828
H31 H 0.1464 1.2467 0.2751
H32 H 0.4950 1.2217 0.2509
H33 H 0.3472 1.2850 0.2520
H34 H 0.4317 1.2431 0.1520
C31? C 0.7151(11) 0.3178(12) 1.0049(8)
loop_
_geom_bond_atom_site_label_1
_geom_bond_atom_site_label_2
_geom_bond_site_symmetry_1
_geom_bond_site_symmetry_2
O1 C1 1_555 1_555
O2 C8 1_555 1_555
N1 C4 1_555 1_555
N2 C9 1_555 1_555
C1 C2 1_555 1_555
C2 C3 1_555 1_555
C3 C4 1_555 1_555
C4 C5 1_555 1_555
C5 C6 1_555 1_555
C6 C1 1_555 1_555
C7 O1 1_555 1_555
C8 N1 1_555 1_555
C9 C8 1_555 1_555
C10 C9 1_555 1_555
C11 N1 1_555 1_555
C12 N2 1_555 1_555
C13 C12 1_555 1_555
C14 C9 1_555 1_555
C15 C10 1_555 1_555
H1 N2 1_555 1_555
H2 C2 1_555 1_555
H3 C3 1_555 1_555
H4 C5 1_555 1_555
H5 C6 1_555 1_555
H6 C7 1_555 1_555
H7 C7 1_555 1_555
H8 C7 1_555 1_555
H9 C10 1_555 1_555
H10 C11 1_555 1_555
H11 C11 1_555 1_555
H12 C15 1_555 1_555
H13 C15 1_555 1_555
H14 C15 1_555 1_555
O3 C16 1_555 1_555
O4 C23 1_555 1_555
N3 C19 1_555 1_555
N4 C24 1_555 1_555
C16 C17 1_555 1_555
C17 C18 1_555 1_555
C18 C19 1_555 1_555
C19 C20 1_555 1_555
C20 C21 1_555 1_555
C21 C16 1_555 1_555
C22 O3 1_555 1_555
C23 N3 1_555 1_555
C24 C23 1_555 1_555
C25 C24 1_555 1_555
C26 N3 1_555 1_555
C27 N4 1_555 1_555
C28 C27 1_555 1_555
C29 C24 1_555 1_555
C30 C25 1_555 1_555
H15 N4 1_555 1_555
H16 C17 1_555 1_555
H17 C18 1_555 1_555
H18 C20 1_555 1_555
H19 C21 1_555 1_555
H20 C22 1_555 1_555
H21 C22 1_555 1_555
H22 C22 1_555 1_555
H23 C25 1_555 1_555
H24 C26 1_555 1_555
H25 C26 1_555 1_555
H26 C27 1_555 1_555
H27 C27 1_555 1_555
H28 C28 1_555 1_555
H29 C28 1_555 1_555
H30 C29 1_555 1_555
H31 C29 1_555 1_555
H32 C30 1_555 1_555
H33 C30 1_555 1_555
H34 C30 1_555 1_555
C10 C11 1_555 1_555
C13 C14 1_555 1_555
C25 C26 1_555 1_555
C28 C29 1_555 1_555

#END
