
#######################################################################
#
#                 Cambridge Crystallographic Data Centre
#                                CCDC 
#
#######################################################################
#
# If this CIF has been generated from an entry in the Cambridge 
# Structural Database, then it will include bibliographic, chemical, 
# crystal, experimental, refinement or atomic coordinate data resulting 
# from the CCDC's data processing and validation procedures.
#
#######################################################################

data_PAWREM
_chemical_formula_moiety         'C13 H17 N2 1+,Br1 1-'
_chemical_name_systematic        
'N-(1-(Dimethylamino)-3-phenylprop-2-yn-1-ylidene)-N-methylmethanaminium bromide'
_symmetry_cell_setting           monoclinic
_symmetry_space_group_name_H-M   'P 21/c'
_symmetry_Int_Tables_number      14
_space_group_name_Hall           '-P 2ybc'
loop_
_symmetry_equiv_pos_site_id
_symmetry_equiv_pos_as_xyz
1 x,y,z
2 -x,1/2+y,1/2-z
3 -x,-y,-z
4 x,1/2-y,1/2+z
_cell_length_a                   13.1009(8)
_cell_length_b                   10.6538(6)
_cell_length_c                   9.6611(6)
_cell_angle_alpha                90
_cell_angle_beta                 100.276(3)
_cell_angle_gamma                90
_cell_volume                     1326.81
_exptl_crystal_colour            yellow
_exptl_crystal_description       block
_chemical_melting_point          '441 K'
_cell_formula_units_Z            4
loop_
_atom_site_label
_atom_site_type_symbol
_atom_site_fract_x
_atom_site_fract_y
_atom_site_fract_z
Br1 Br 0.313905(9) 0.523031(12) 0.155779(13)
C1 C 0.29358(9) 0.46256(11) 0.66879(12)
N1 N 0.35589(8) 0.56042(10) 0.66379(10)
N2 N 0.30756(8) 0.37987(10) 0.77285(11)
C2 C 0.41450(10) 0.62002(12) 0.79005(13)
H1 H 0.3882 0.5904 0.8731
H2 H 0.4065 0.7113 0.7823
H3 H 0.4881 0.5982 0.7992
C3 C 0.35920(11) 0.62655(13) 0.53213(13)
H4 H 0.3140 0.5838 0.4546
H5 H 0.4305 0.6271 0.5143
H6 H 0.3353 0.7131 0.5392
C4 C 0.22431(11) 0.29642(12) 0.79900(15)
H7 H 0.1580 0.3255 0.7451
H8 H 0.2210 0.2970 0.8995
H9 H 0.2382 0.2109 0.7699
C5 C 0.40815(10) 0.35338(13) 0.86079(14)
H10 H 0.4635 0.3900 0.8175
H11 H 0.4181 0.2624 0.8695
H12 H 0.4103 0.3900 0.9543
C6 C 0.20698(10) 0.44506(11) 0.55744(13)
C7 C 0.13169(9) 0.42701(11) 0.46956(13)
C8 C 0.04099(9) 0.40275(11) 0.36723(12)
C9 C -0.02930(10) 0.31159(11) 0.39520(14)
H13 H -0.0156 0.2651 0.4804
C10 C -0.11893(10) 0.28928(12) 0.29838(15)
H14 H -0.1669 0.2274 0.3171
C11 C -0.13845(10) 0.35719(13) 0.17439(14)
H15 H -0.2002 0.3420 0.1084
C12 C -0.06867(10) 0.44725(13) 0.14572(14)
H16 H -0.0828 0.4935 0.0603
C13 C 0.02160(10) 0.46995(12) 0.24136(13)
H17 H 0.0699 0.5308 0.2213
loop_
_geom_bond_atom_site_label_1
_geom_bond_atom_site_label_2
_geom_bond_site_symmetry_1
_geom_bond_site_symmetry_2
C1 N1 1_555 1_555
N1 C2 1_555 1_555
N2 C1 1_555 1_555
C2 H1 1_555 1_555
H2 C2 1_555 1_555
H3 C2 1_555 1_555
C3 N1 1_555 1_555
H4 C3 1_555 1_555
H5 C3 1_555 1_555
H6 C3 1_555 1_555
C4 N2 1_555 1_555
H7 C4 1_555 1_555
H8 C4 1_555 1_555
H9 C4 1_555 1_555
C5 N2 1_555 1_555
H10 C5 1_555 1_555
H11 C5 1_555 1_555
H12 C5 1_555 1_555
C6 C1 1_555 1_555
C7 C6 1_555 1_555
C8 C7 1_555 1_555
C9 C8 1_555 1_555
H13 C9 1_555 1_555
C10 C9 1_555 1_555
H14 C10 1_555 1_555
C11 C10 1_555 1_555
H15 C11 1_555 1_555
C12 C11 1_555 1_555
H16 C12 1_555 1_555
C13 C8 1_555 1_555
H17 C13 1_555 1_555
C12 C13 1_555 1_555

#END
