
#######################################################################
#
#                 Cambridge Crystallographic Data Centre
#                                CCDC 
#
#######################################################################
#
# If this CIF has been generated from an entry in the Cambridge 
# Structural Database, then it will include bibliographic, chemical, 
# crystal, experimental, refinement or atomic coordinate data resulting 
# from the CCDC's data processing and validation procedures.
#
#######################################################################

data_PAWSUD
_chemical_formula_moiety         'C18 H22 N4 O2 S1'
_chemical_name_systematic        
'Ethyl 2-methyl-6-(propan-2-ylamino)-4-sulfanylidene-3H,11H-pyrimido[1,6-c]quinazoline-1-carboxylate'
_symmetry_cell_setting           monoclinic
_symmetry_space_group_name_H-M   'P 21/n'
_symmetry_Int_Tables_number      14
_space_group_name_Hall           '-P 2yn'
loop_
_symmetry_equiv_pos_site_id
_symmetry_equiv_pos_as_xyz
1 x,y,z
2 1/2-x,1/2+y,1/2-z
3 -x,-y,-z
4 1/2+x,1/2-y,1/2+z
_cell_length_a                   9.4128(3)
_cell_length_b                   10.5636(5)
_cell_length_c                   19.2052(6)
_cell_angle_alpha                90
_cell_angle_beta                 102.3470(10)
_cell_angle_gamma                90
_cell_volume                     1865.46
_exptl_crystal_colour            colorless
_exptl_crystal_description       block
_cell_formula_units_Z            4
loop_
_atom_site_label
_atom_site_type_symbol
_atom_site_fract_x
_atom_site_fract_y
_atom_site_fract_z
C1 C 0.09011(18) 0.72990(17) 0.84262(9)
C2 C 0.0719(2) 0.67844(18) 0.77505(10)
H1 H 0.0294 0.5991 0.7656
C3 C 0.1170(3) 0.7450(2) 0.72128(10)
H2 H 0.1042 0.7107 0.6758
C4 C 0.1809(3) 0.8623(2) 0.73568(11)
H3 H 0.2120 0.9067 0.6998
C5 C 0.1991(2) 0.91431(19) 0.80297(10)
H4 H 0.2422 0.9935 0.8120
C6 C 0.1535(2) 0.84940(17) 0.85729(9)
C7 C 0.17531(19) 0.83292(16) 0.97816(9)
C8 C 0.04635(19) 0.66650(16) 0.90571(9)
H5 H -0.0437 0.7061 0.9126
C9 C 0.2171(2) 1.00033(18) 1.06939(10)
H6 H 0.1470 1.0559 1.0387
C10 C 0.1933(3) 1.0103(2) 1.14433(12)
H7 H 0.0963 0.9833 1.1453
H8 H 0.2063 1.0965 1.1601
H9 H 0.2621 0.9573 1.1753
C11 C 0.3679(3) 1.0396(2) 1.06328(15)
H10 H 0.4385 0.9897 1.0953
H11 H 0.3823 1.1275 1.0754
H12 H 0.3791 1.0265 1.0153
C12 C 0.28831(19) 0.62791(16) 0.97962(9)
C13 C 0.13802(19) 0.44969(16) 0.92654(9)
C14 C 0.02360(19) 0.52521(16) 0.90196(9)
C15 C 0.1435(2) 0.30767(17) 0.92606(12)
H13 H 0.1103 0.2753 0.9665
H14 H 0.2417 0.2804 0.9284
H15 H 0.0821 0.2765 0.8830
C16 C -0.1233(2) 0.47530(18) 0.87161(9)
C17 C -0.3692(2) 0.5353(2) 0.82596(12)
H16 H -0.4100 0.4905 0.8612
H17 H -0.3745 0.4806 0.7849
C18 C -0.4504(3) 0.6539(3) 0.8048(2)
H18 H -0.4431 0.7077 0.8457
H19 H -0.5508 0.6345 0.7856
H20 H -0.4101 0.6966 0.7693
S1 S 0.44958(5) 0.68615(5) 1.01900(3)
N1 N 0.16807(17) 0.90727(14) 0.92474(8)
N2 N 0.18611(17) 0.86974(14) 1.04561(8)
H21 H 0.191(2) 0.8115(14) 1.0774(8)
N3 N 0.16359(15) 0.69732(13) 0.96840(7)
N4 N 0.27056(16) 0.50620(14) 0.95704(8)
H22 H 0.3503(15) 0.4619(16) 0.9646(10)
O1 O -0.21898(14) 0.57011(13) 0.85569(8)
O2 O -0.15658(16) 0.36556(14) 0.86187(8)
loop_
_geom_bond_atom_site_label_1
_geom_bond_atom_site_label_2
_geom_bond_site_symmetry_1
_geom_bond_site_symmetry_2
C1 C2 1_555 1_555
C2 H1 1_555 1_555
C3 C2 1_555 1_555
H2 C3 1_555 1_555
C4 C3 1_555 1_555
H3 C4 1_555 1_555
C5 C4 1_555 1_555
H4 C5 1_555 1_555
C6 C1 1_555 1_555
C7 N1 1_555 1_555
C8 C1 1_555 1_555
H5 C8 1_555 1_555
C9 H6 1_555 1_555
C10 C9 1_555 1_555
H7 C10 1_555 1_555
H8 C10 1_555 1_555
H9 C10 1_555 1_555
C11 C9 1_555 1_555
H10 C11 1_555 1_555
H11 C11 1_555 1_555
H12 C11 1_555 1_555
C12 S1 1_555 1_555
C13 C14 1_555 1_555
C14 C8 1_555 1_555
C15 C13 1_555 1_555
H13 C15 1_555 1_555
H14 C15 1_555 1_555
H15 C15 1_555 1_555
C16 C14 1_555 1_555
C17 H16 1_555 1_555
H17 C17 1_555 1_555
C18 C17 1_555 1_555
H18 C18 1_555 1_555
H19 C18 1_555 1_555
H20 C18 1_555 1_555
N1 C6 1_555 1_555
N2 C7 1_555 1_555
H21 N2 1_555 1_555
N3 C7 1_555 1_555
N4 C12 1_555 1_555
H22 N4 1_555 1_555
O1 C16 1_555 1_555
O2 C16 1_555 1_555
C5 C6 1_555 1_555
C8 N3 1_555 1_555
C9 N2 1_555 1_555
C12 N3 1_555 1_555
C13 N4 1_555 1_555
C17 O1 1_555 1_555

#END
