
#######################################################################
#
#                 Cambridge Crystallographic Data Centre
#                                CCDC 
#
#######################################################################
#
# If this CIF has been generated from an entry in the Cambridge 
# Structural Database, then it will include bibliographic, chemical, 
# crystal, experimental, refinement or atomic coordinate data resulting 
# from the CCDC's data processing and validation procedures.
#
#######################################################################

data_PAWSAK
_chemical_formula_moiety         'C23 H21 Cl1 O4'
_chemical_name_systematic        
"t-butyl 5'-(4-chlorophenyl)-3-oxo-3H-spiro[1-benzofuran-2,1'-cyclopent[2]ene]-2'-carboxylate"
_symmetry_cell_setting           orthorhombic
_symmetry_space_group_name_H-M   'P 21 21 21'
_symmetry_Int_Tables_number      19
_space_group_name_Hall           'P 2ac 2ab'
loop_
_symmetry_equiv_pos_site_id
_symmetry_equiv_pos_as_xyz
1 x,y,z
2 1/2-x,-y,1/2+z
3 -x,1/2+y,1/2-z
4 1/2+x,1/2-y,-z
_cell_length_a                   11.0876(5)
_cell_length_b                   13.0214(6)
_cell_length_c                   28.1322(14)
_cell_angle_alpha                90
_cell_angle_beta                 90
_cell_angle_gamma                90
_cell_volume                     4061.62
_exptl_crystal_colour            colorless
_exptl_crystal_description       Block
_cell_formula_units_Z            8
loop_
_atom_site_label
_atom_site_type_symbol
_atom_site_fract_x
_atom_site_fract_y
_atom_site_fract_z
Cl1 Cl 0.86041(5) -0.30832(4) 0.32314(2)
O1 O 0.86410(11) 0.16914(10) 0.23700(4)
O2 O 0.54504(12) 0.17461(11) 0.22866(5)
O3 O 0.73353(12) 0.36722(10) 0.20197(4)
O4 O 0.76085(14) 0.37324(11) 0.12209(5)
C1 C 0.75658(16) 0.15217(14) 0.20823(6)
C2 C 0.74612(17) 0.03991(14) 0.18955(6)
H1 H 0.6588 0.0297 0.1819
C3 C 0.81164(17) 0.04286(15) 0.14114(6)
H2 H 0.8983 0.0260 0.1446
H3 H 0.7744 -0.0052 0.1182
C4 C 0.79423(17) 0.15207(16) 0.12617(7)
H4 H 0.8019 0.1754 0.0943
C5 C 0.76678(16) 0.21298(15) 0.16270(6)
C6 C 0.65019(17) 0.17966(14) 0.24084(6)
C7 C 0.70356(18) 0.20837(14) 0.28608(6)
C8 C 0.6528(2) 0.24419(15) 0.32847(7)
H5 H 0.5678 0.2489 0.3322
C9 C 0.7299(2) 0.27245(16) 0.36460(7)
H6 H 0.6979 0.2970 0.3938
C10 C 0.8544(2) 0.26531(16) 0.35871(7)
H7 H 0.9054 0.2856 0.3842
C11 C 0.90670(19) 0.22956(15) 0.31694(7)
H8 H 0.9917 0.2244 0.3133
C12 C 0.82782(18) 0.20181(14) 0.28082(6)
C13 C 0.77833(16) -0.04474(14) 0.22354(6)
C14 C 0.89555(17) -0.06042(15) 0.24014(7)
H9 H 0.9583 -0.0156 0.2302
C15 C 0.92180(17) -0.14090(16) 0.27101(7)
H10 H 1.0017 -0.1510 0.2823
C16 C 0.82952(19) -0.20605(15) 0.28506(6)
C17 C 0.71284(18) -0.19268(16) 0.26931(7)
H11 H 0.6503 -0.2376 0.2794
C18 C 0.68860(17) -0.11219(15) 0.23836(7)
H12 H 0.6086 -0.1030 0.2270
C19 C 0.75399(17) 0.32598(15) 0.15887(6)
C20 C 0.70123(18) 0.47723(14) 0.20775(7)
C21 C 0.6828(2) 0.48562(16) 0.26105(7)
H13 H 0.6206 0.4367 0.2711
H14 H 0.6572 0.5555 0.2691
H15 H 0.7587 0.4700 0.2774
C22 C 0.8034(2) 0.54585(16) 0.19105(8)
H16 H 0.8788 0.5243 0.2063
H17 H 0.7857 0.6172 0.1997
H18 H 0.8115 0.5403 0.1565
C23 C 0.58402(19) 0.49826(18) 0.18120(8)
H19 H 0.5985 0.4944 0.1469
H20 H 0.5546 0.5670 0.1894
H21 H 0.5236 0.4470 0.1903
Cl2 Cl 0.32871(5) 0.99466(4) 0.57401(2)
O5 O 0.33187(11) 0.56970(10) 0.47185(4)
O6 O 0.59904(12) 0.46080(11) 0.51965(5)
O7 O 0.38072(13) 0.34961(10) 0.45148(5)
O8 O 0.42163(13) 0.34655(11) 0.37246(5)
C24 C 0.45992(16) 0.54770(14) 0.46556(6)
C25 C 0.53550(16) 0.64760(15) 0.45809(6)
H22 H 0.6170 0.6339 0.4719
C26 C 0.55308(18) 0.65640(16) 0.40362(7)
H23 H 0.4960 0.7065 0.3897
H24 H 0.6365 0.6773 0.3957
C27 C 0.52743(17) 0.55000(16) 0.38651(7)
H25 H 0.5456 0.5269 0.3553
C28 C 0.47648(16) 0.49080(15) 0.41951(6)
C29 C 0.49899(16) 0.49549(14) 0.51220(6)
C30 C 0.39651(17) 0.50484(15) 0.54410(6)
C31 C 0.3814(2) 0.48133(15) 0.59219(7)
H26 H 0.4456 0.4532 0.6104
C32 C 0.2703(2) 0.50016(19) 0.61247(7)
H27 H 0.2580 0.4862 0.6453
C33 C 0.1762(2) 0.53951(18) 0.58522(8)
H28 H 0.1001 0.5503 0.5999
C34 C 0.18950(19) 0.56365(16) 0.53732(7)
H29 H 0.1246 0.5901 0.5190
C35 C 0.30270(17) 0.54696(14) 0.51792(6)
C36 C 0.48407(16) 0.73711(14) 0.48518(6)
C37 C 0.51372(17) 0.74756(15) 0.53318(7)
H30 H 0.5682 0.7004 0.5474
C38 C 0.46466(17) 0.82575(16) 0.56029(7)
H31 H 0.4846 0.8319 0.5930
C39 C 0.38625(17) 0.89482(15) 0.53927(7)
C40 C 0.35393(17) 0.88597(15) 0.49198(7)
H32 H 0.2994 0.9334 0.4779
C41 C 0.40294(17) 0.80626(15) 0.46547(7)
H33 H 0.3804 0.7989 0.4331
C42 C 0.42547(16) 0.38738(15) 0.41097(7)
C43 C 0.3110(2) 0.25258(15) 0.45306(7)
C44 C 0.2770(3) 0.2456(2) 0.50524(8)
H34 H 0.3503 0.2412 0.5246
H35 H 0.2275 0.1843 0.5105
H36 H 0.2311 0.3069 0.5144
C45 C 0.3905(3) 0.16363(19) 0.43831(10)
H37 H 0.4151 0.1725 0.4051
H38 H 0.3457 0.0992 0.4417
H39 H 0.4623 0.1617 0.4586
C46 C 0.1998(2) 0.2625(2) 0.42216(9)
H40 H 0.1543 0.3237 0.4316
H41 H 0.1491 0.2015 0.4261
H42 H 0.2241 0.2687 0.3888
loop_
_geom_bond_atom_site_label_1
_geom_bond_atom_site_label_2
_geom_bond_site_symmetry_1
_geom_bond_site_symmetry_2
Cl1 C16 1_555 1_555
O1 C1 1_555 1_555
O2 C6 1_555 1_555
O3 C19 1_555 1_555
O4 C19 1_555 1_555
C1 C2 1_555 1_555
C2 H1 1_555 1_555
C3 C2 1_555 1_555
H2 C3 1_555 1_555
H3 C3 1_555 1_555
C4 C3 1_555 1_555
H4 C4 1_555 1_555
C5 C1 1_555 1_555
C6 C1 1_555 1_555
C7 C6 1_555 1_555
C8 C7 1_555 1_555
H5 C8 1_555 1_555
C9 C8 1_555 1_555
H6 C9 1_555 1_555
C10 C9 1_555 1_555
H7 C10 1_555 1_555
C11 C10 1_555 1_555
H8 C11 1_555 1_555
C12 O1 1_555 1_555
C13 C2 1_555 1_555
C14 C13 1_555 1_555
H9 C14 1_555 1_555
C15 C14 1_555 1_555
H10 C15 1_555 1_555
C16 C15 1_555 1_555
C17 C16 1_555 1_555
H11 C17 1_555 1_555
C18 C13 1_555 1_555
H12 C18 1_555 1_555
C19 C5 1_555 1_555
C20 O3 1_555 1_555
C21 C20 1_555 1_555
H13 C21 1_555 1_555
H14 C21 1_555 1_555
H15 C21 1_555 1_555
C22 C20 1_555 1_555
H16 C22 1_555 1_555
H17 C22 1_555 1_555
H18 C22 1_555 1_555
C23 C20 1_555 1_555
H19 C23 1_555 1_555
H20 C23 1_555 1_555
H21 C23 1_555 1_555
Cl2 C39 1_555 1_555
O5 C24 1_555 1_555
O6 C29 1_555 1_555
O7 C42 1_555 1_555
O8 C42 1_555 1_555
C24 C25 1_555 1_555
C25 H22 1_555 1_555
C26 C25 1_555 1_555
H23 C26 1_555 1_555
H24 C26 1_555 1_555
C27 C26 1_555 1_555
H25 C27 1_555 1_555
C28 C24 1_555 1_555
C29 C24 1_555 1_555
C30 C29 1_555 1_555
C31 C30 1_555 1_555
H26 C31 1_555 1_555
C32 C31 1_555 1_555
H27 C32 1_555 1_555
C33 C32 1_555 1_555
H28 C33 1_555 1_555
C34 C33 1_555 1_555
H29 C34 1_555 1_555
C35 O5 1_555 1_555
C36 C25 1_555 1_555
C37 C36 1_555 1_555
H30 C37 1_555 1_555
C38 C37 1_555 1_555
H31 C38 1_555 1_555
C39 C38 1_555 1_555
C40 C39 1_555 1_555
H32 C40 1_555 1_555
C41 C36 1_555 1_555
H33 C41 1_555 1_555
C42 C28 1_555 1_555
C43 O7 1_555 1_555
C44 C43 1_555 1_555
H34 C44 1_555 1_555
H35 C44 1_555 1_555
H36 C44 1_555 1_555
C45 C43 1_555 1_555
H37 C45 1_555 1_555
H38 C45 1_555 1_555
H39 C45 1_555 1_555
C46 C43 1_555 1_555
H40 C46 1_555 1_555
H41 C46 1_555 1_555
H42 C46 1_555 1_555
C4 C5 1_555 1_555
C7 C12 1_555 1_555
C11 C12 1_555 1_555
C17 C18 1_555 1_555
C27 C28 1_555 1_555
C30 C35 1_555 1_555
C34 C35 1_555 1_555
C40 C41 1_555 1_555

#END
