
#######################################################################
#
#                 Cambridge Crystallographic Data Centre
#                                CCDC 
#
#######################################################################
#
# If this CIF has been generated from an entry in the Cambridge 
# Structural Database, then it will include bibliographic, chemical, 
# crystal, experimental, refinement or atomic coordinate data resulting 
# from the CCDC's data processing and validation procedures.
#
#######################################################################

data_PAWTAJ
_chemical_formula_moiety         'C36 H80 Li2 N2 O2 Si10'
_chemical_name_systematic        
bis(2-(N-(Trimethylsilyl)-N-(tris(trimethylsilyl)silyl)amino)phenolato)-di-lithium
_symmetry_cell_setting           monoclinic
_symmetry_space_group_name_H-M   'P 21/n'
_symmetry_Int_Tables_number      14
_space_group_name_Hall           '-P 2yn'
loop_
_symmetry_equiv_pos_site_id
_symmetry_equiv_pos_as_xyz
1 x,y,z
2 1/2-x,1/2+y,1/2-z
3 -x,-y,-z
4 1/2+x,1/2-y,1/2+z
_cell_length_a                   10.067(4)
_cell_length_b                   16.180(7)
_cell_length_c                   16.644(6)
_cell_angle_alpha                90
_cell_angle_beta                 90.002(7)
_cell_angle_gamma                90
_cell_volume                     2711.04
_exptl_crystal_colour            colorless
_chemical_melting_point          '178-182 deg.C'
_cell_formula_units_Z            2
_exptl_crystal_recrystallization_method hexane
loop_
_atom_site_label
_atom_site_type_symbol
_atom_site_fract_x
_atom_site_fract_y
_atom_site_fract_z
Li1 Li 1.0508(9) 0.9401(5) 0.0367(5)
N1 N 0.9663(4) 0.8582(2) 0.1400(2)
O1 O 0.8799(3) 0.9772(2) 0.02703(18)
Si1 Si 1.05019(15) 0.91074(8) 0.21797(8)
Si2 Si 0.98398(12) 0.75142(8) 0.11215(7)
Si3 Si 0.84002(17) 0.72156(9) 0.00255(9)
Si4 Si 0.94153(16) 0.64930(8) 0.21147(8)
Si5 Si 1.20124(16) 0.72551(10) 0.06140(10)
C1 C 0.7908(4) 0.9465(3) 0.0773(3)
C2 C 0.8277(4) 0.8869(3) 0.1351(2)
C3 C 0.7329(5) 0.8561(3) 0.1877(3)
H1 H 0.7581 0.8175 0.2261
C4 C 0.6024(5) 0.8814(3) 0.1843(3)
H2 H 0.5402 0.8599 0.2198
C5 C 0.5652(5) 0.9385(3) 0.1280(3)
H3 H 0.4772 0.9559 0.1252
C6 C 0.6574(5) 0.9703(3) 0.0756(3)
H4 H 0.6302 1.0090 0.0377
C7 C 0.9608(7) 0.9142(4) 0.3150(3)
H5 H 0.8795 0.9446 0.3086
H6 H 1.0154 0.9409 0.3545
H7 H 0.9410 0.8589 0.3322
C8 C 1.2159(6) 0.8645(4) 0.2372(3)
H8 H 1.2058 0.8069 0.2496
H9 H 1.2571 0.8922 0.2817
H10 H 1.2705 0.8705 0.1903
C9 C 1.0740(7) 1.0189(4) 0.1874(3)
H11 H 1.1411 1.0217 0.1466
H12 H 1.1012 1.0510 0.2331
H13 H 0.9920 1.0404 0.1667
C10 C 0.6589(6) 0.7428(4) 0.0194(4)
H14 H 0.6450 0.8013 0.0239
H15 H 0.6305 0.7162 0.0680
H16 H 0.6085 0.7217 -0.0251
C11 C 0.8462(7) 0.6078(4) -0.0196(4)
H17 H 0.8028 0.5971 -0.0699
H18 H 0.8018 0.5780 0.0224
H19 H 0.9371 0.5902 -0.0227
C12 C 0.8978(8) 0.7802(4) -0.0878(3)
H20 H 0.8463 0.7639 -0.1337
H21 H 0.9898 0.7683 -0.0974
H22 H 0.8868 0.8383 -0.0786
C13 C 0.7614(7) 0.6301(5) 0.2298(5)
H23 H 0.7509 0.5794 0.2591
H24 H 0.7158 0.6260 0.1794
H25 H 0.7249 0.6749 0.2605
C14 C 1.0155(8) 0.5508(4) 0.1733(4)
H26 H 1.1068 0.5599 0.1593
H27 H 0.9675 0.5328 0.1267
H28 H 1.0101 0.5092 0.2143
C15 C 1.0213(9) 0.6712(4) 0.3092(3)
H29 H 1.0030 0.6269 0.3459
H30 H 0.9868 0.7220 0.3306
H31 H 1.1155 0.6762 0.3019
C16 C 1.3244(6) 0.6857(4) 0.1359(4)
H32 H 1.3608 0.6345 0.1169
H33 H 1.2811 0.6768 0.1865
H34 H 1.3945 0.7253 0.1425
C17 C 1.1967(7) 0.6446(4) -0.0210(4)
H35 H 1.1419 0.6638 -0.0643
H36 H 1.1608 0.5940 0.0000
H37 H 1.2851 0.6349 -0.0404
C18 C 1.2679(5) 0.8218(4) 0.0143(4)
H38 H 1.2686 0.8655 0.0534
H39 H 1.2125 0.8374 -0.0301
H40 H 1.3567 0.8121 -0.0044
Li1B Li 0.9492(9) 1.0599(5) -0.0367(5)
N1B N 1.0337(4) 1.1418(2) -0.1400(2)
O1B O 1.1201(3) 1.0228(2) -0.02703(18)
Si1B Si 0.94981(15) 1.08926(8) -0.21797(8)
Si2B Si 1.01602(12) 1.24858(8) -0.11215(7)
Si3B Si 1.15998(17) 1.27844(9) -0.00255(9)
Si4B Si 1.05847(16) 1.35070(8) -0.21147(8)
Si5B Si 0.79876(16) 1.27449(10) -0.06140(10)
C1B C 1.2092(4) 1.0535(3) -0.0773(3)
C2B C 1.1723(4) 1.1131(3) -0.1351(2)
C3B C 1.2671(5) 1.1439(3) -0.1877(3)
H1B H 1.2419 1.1825 -0.2261
C4B C 1.3976(5) 1.1186(3) -0.1843(3)
H2B H 1.4598 1.1401 -0.2198
C5B C 1.4348(5) 1.0615(3) -0.1280(3)
H3B H 1.5228 1.0441 -0.1252
C6B C 1.3426(5) 1.0297(3) -0.0756(3)
H4B H 1.3698 0.9910 -0.0377
C7B C 1.0392(7) 1.0858(4) -0.3150(3)
H5B H 1.1205 1.0554 -0.3086
H6B H 0.9846 1.0591 -0.3545
H7B H 1.0590 1.1411 -0.3322
C8B C 0.7841(6) 1.1355(4) -0.2372(3)
H8B H 0.7942 1.1931 -0.2496
H9B H 0.7429 1.1078 -0.2817
H10B H 0.7295 1.1295 -0.1903
C9B C 0.9260(7) 0.9811(4) -0.1874(3)
H11B H 0.8589 0.9783 -0.1466
H12B H 0.8988 0.9490 -0.2331
H13B H 1.0080 0.9596 -0.1667
C10B C 1.3411(6) 1.2572(4) -0.0194(4)
H14B H 1.3550 1.1987 -0.0239
H15B H 1.3695 1.2838 -0.0680
H16B H 1.3915 1.2783 0.0251
C11B C 1.1538(7) 1.3922(4) 0.0196(4)
H17B H 1.1972 1.4029 0.0699
H18B H 1.1982 1.4220 -0.0224
H19B H 1.0629 1.4098 0.0227
C12B C 1.1022(8) 1.2198(4) 0.0878(3)
H20B H 1.1537 1.2361 0.1337
H21B H 1.0102 1.2317 0.0974
H22B H 1.1132 1.1617 0.0786
C13B C 1.2386(7) 1.3699(5) -0.2298(5)
H23B H 1.2491 1.4206 -0.2591
H24B H 1.2842 1.3740 -0.1794
H25B H 1.2751 1.3251 -0.2605
C14B C 0.9845(8) 1.4492(4) -0.1733(4)
H26B H 0.8932 1.4401 -0.1593
H27B H 1.0325 1.4672 -0.1267
H28B H 0.9899 1.4908 -0.2143
C15B C 0.9787(9) 1.3288(4) -0.3092(3)
H29B H 0.9970 1.3731 -0.3459
H30B H 1.0132 1.2780 -0.3306
H31B H 0.8845 1.3238 -0.3019
C16B C 0.6756(6) 1.3143(4) -0.1359(4)
H32B H 0.6392 1.3655 -0.1169
H33B H 0.7189 1.3232 -0.1865
H34B H 0.6055 1.2747 -0.1425
C17B C 0.8033(7) 1.3554(4) 0.0210(4)
H35B H 0.8581 1.3362 0.0643
H36B H 0.8392 1.4060 0.0000
H37B H 0.7149 1.3651 0.0404
C18B C 0.7321(5) 1.1782(4) -0.0143(4)
H38B H 0.7314 1.1345 -0.0534
H39B H 0.7875 1.1626 0.0301
H40B H 0.6433 1.1879 0.0044
loop_
_geom_bond_atom_site_label_1
_geom_bond_atom_site_label_2
_geom_bond_site_symmetry_1
_geom_bond_site_symmetry_2
Li1 N1 1_555 1_555
N1 Si1 1_555 1_555
O1 Li1 1_555 1_555
Si1 C7 1_555 1_555
Si2 N1 1_555 1_555
Si3 Si2 1_555 1_555
Si4 Si2 1_555 1_555
Si5 Si2 1_555 1_555
C1 O1 1_555 1_555
C2 N1 1_555 1_555
C3 C2 1_555 1_555
H1 C3 1_555 1_555
C4 C3 1_555 1_555
H2 C4 1_555 1_555
C5 C4 1_555 1_555
H3 C5 1_555 1_555
C6 C1 1_555 1_555
H4 C6 1_555 1_555
C7 H5 1_555 1_555
H6 C7 1_555 1_555
H7 C7 1_555 1_555
C8 Si1 1_555 1_555
H8 C8 1_555 1_555
H9 C8 1_555 1_555
H10 C8 1_555 1_555
C9 Si1 1_555 1_555
H11 C9 1_555 1_555
H12 C9 1_555 1_555
H13 C9 1_555 1_555
C10 Si3 1_555 1_555
H14 C10 1_555 1_555
H15 C10 1_555 1_555
H16 C10 1_555 1_555
C11 Si3 1_555 1_555
H17 C11 1_555 1_555
H18 C11 1_555 1_555
H19 C11 1_555 1_555
C12 Si3 1_555 1_555
H20 C12 1_555 1_555
H21 C12 1_555 1_555
H22 C12 1_555 1_555
C13 Si4 1_555 1_555
H23 C13 1_555 1_555
H24 C13 1_555 1_555
H25 C13 1_555 1_555
C14 Si4 1_555 1_555
H26 C14 1_555 1_555
H27 C14 1_555 1_555
H28 C14 1_555 1_555
C15 Si4 1_555 1_555
H29 C15 1_555 1_555
H30 C15 1_555 1_555
H31 C15 1_555 1_555
C16 Si5 1_555 1_555
H32 C16 1_555 1_555
H33 C16 1_555 1_555
H34 C16 1_555 1_555
C17 Si5 1_555 1_555
H35 C17 1_555 1_555
H36 C17 1_555 1_555
H37 C17 1_555 1_555
C18 Si5 1_555 1_555
H38 C18 1_555 1_555
H39 C18 1_555 1_555
H40 C18 1_555 1_555
Li1B O1 1_555 1_555
N1B Li1B 1_555 1_555
O1B Li1 1_555 1_555
Si1B N1B 1_555 1_555
Si2B N1B 1_555 1_555
Si3B Si2B 1_555 1_555
Si4B Si2B 1_555 1_555
Si5B Si2B 1_555 1_555
C1B O1B 1_555 1_555
C2B N1B 1_555 1_555
C3B C2B 1_555 1_555
H1B C3B 1_555 1_555
C4B C3B 1_555 1_555
H2B C4B 1_555 1_555
C5B C4B 1_555 1_555
H3B C5B 1_555 1_555
C6B C1B 1_555 1_555
H4B C6B 1_555 1_555
C7B Si1B 1_555 1_555
H5B C7B 1_555 1_555
H6B C7B 1_555 1_555
H7B C7B 1_555 1_555
C8B Si1B 1_555 1_555
H8B C8B 1_555 1_555
H9B C8B 1_555 1_555
H10B C8B 1_555 1_555
C9B Si1B 1_555 1_555
H11B C9B 1_555 1_555
H12B C9B 1_555 1_555
H13B C9B 1_555 1_555
C10B Si3B 1_555 1_555
H14B C10B 1_555 1_555
H15B C10B 1_555 1_555
H16B C10B 1_555 1_555
C11B Si3B 1_555 1_555
H17B C11B 1_555 1_555
H18B C11B 1_555 1_555
H19B C11B 1_555 1_555
C12B Si3B 1_555 1_555
H20B C12B 1_555 1_555
H21B C12B 1_555 1_555
H22B C12B 1_555 1_555
C13B Si4B 1_555 1_555
H23B C13B 1_555 1_555
H24B C13B 1_555 1_555
H25B C13B 1_555 1_555
C14B Si4B 1_555 1_555
H26B C14B 1_555 1_555
H27B C14B 1_555 1_555
H28B C14B 1_555 1_555
C15B Si4B 1_555 1_555
H29B C15B 1_555 1_555
H30B C15B 1_555 1_555
H31B C15B 1_555 1_555
C16B Si5B 1_555 1_555
H32B C16B 1_555 1_555
H33B C16B 1_555 1_555
H34B C16B 1_555 1_555
C17B Si5B 1_555 1_555
H35B C17B 1_555 1_555
H36B C17B 1_555 1_555
H37B C17B 1_555 1_555
C18B Si5B 1_555 1_555
H38B C18B 1_555 1_555
H39B C18B 1_555 1_555
H40B C18B 1_555 1_555
C1 C2 1_555 1_555
C5 C6 1_555 1_555
Li1B O1B 1_555 1_555
C1B C2B 1_555 1_555
C5B C6B 1_555 1_555

#END
