
#######################################################################
#
#                 Cambridge Crystallographic Data Centre
#                                CCDC 
#
#######################################################################
#
# If this CIF has been generated from an entry in the Cambridge 
# Structural Database, then it will include bibliographic, chemical, 
# crystal, experimental, refinement or atomic coordinate data resulting 
# from the CCDC's data processing and validation procedures.
#
#######################################################################

data_PAWVEQ
_chemical_formula_moiety         'C17 H10 Cl1 F2 N3 O1'
_chemical_name_systematic        
(Z)-3-(4-Chlorophenyl)-1-(2,4-difluorophenyl)-2-(1H-1,2,4-triazol-1-yl)prop-2-en-1-one
_symmetry_cell_setting           monoclinic
_symmetry_space_group_name_H-M   'P 21/c'
_symmetry_Int_Tables_number      14
_space_group_name_Hall           '-P 2ybc'
loop_
_symmetry_equiv_pos_site_id
_symmetry_equiv_pos_as_xyz
1 x,y,z
2 -x,1/2+y,1/2-z
3 -x,-y,-z
4 x,1/2-y,1/2+z
_cell_length_a                   17.237(3)
_cell_length_b                   10.466(2)
_cell_length_c                   26.554(5)
_cell_angle_alpha                90
_cell_angle_beta                 102.378(4)
_cell_angle_gamma                90
_cell_volume                     4679.05
_exptl_crystal_colour            colorless
_exptl_crystal_description       block
_cell_formula_units_Z            12
loop_
_atom_site_label
_atom_site_type_symbol
_atom_site_fract_x
_atom_site_fract_y
_atom_site_fract_z
F1 F 0.20468(8) 0.35283(12) 0.14981(5)
F2 F 0.05967(9) 0.66430(13) 0.21328(7)
C1 C 0.52331(16) 0.0907(3) 0.29462(11)
C2 C 0.49247(17) 0.2060(3) 0.30181(12)
H1 H 0.5243 0.2694 0.3202
C3 C 0.41327(15) 0.2288(2) 0.28162(10)
H2 H 0.3922 0.3083 0.2868
C4 C 0.36428(13) 0.1379(2) 0.25404(8)
C5 C 0.39820(17) 0.0207(2) 0.24830(11)
H3 H 0.3668 -0.0441 0.2306
C6 C 0.47705(18) -0.0022(3) 0.26816(13)
H4 H 0.4988 -0.0815 0.2635
C7 C 0.28127(13) 0.1712(2) 0.23551(8)
H5 H 0.2678 0.2520 0.2454
C8 C 0.22060(13) 0.10637(19) 0.20677(8)
C9 C 0.26059(15) -0.1494(2) 0.13538(10)
H6 H 0.2812 -0.1870 0.1093
C10 C 0.20371(17) -0.1289(2) 0.19568(12)
H7 H 0.1755 -0.1442 0.2213
C11 C 0.13747(13) 0.1504(2) 0.19983(8)
C12 C 0.11973(12) 0.2886(2) 0.20359(8)
C13 C 0.15149(13) 0.3843(2) 0.17871(8)
C14 C 0.13213(14) 0.5102(2) 0.18068(9)
H8 H 0.1541 0.5723 0.1629
C15 C 0.07866(14) 0.5404(2) 0.21011(10)
C16 C 0.04492(14) 0.4512(2) 0.23620(10)
H9 H 0.0093 0.4750 0.2563
C17 C 0.06485(13) 0.3261(2) 0.23190(9)
H10 H 0.0408 0.2641 0.2485
Cl1 Cl 0.62306(5) 0.05800(11) 0.31895(4)
N1 N 0.22974(11) -0.01526(15) 0.18508(7)
N2 N 0.26661(11) -0.02714(17) 0.14488(7)
N3 N 0.22279(14) -0.21717(19) 0.16551(10)
O1 O 0.08400(10) 0.07287(15) 0.19375(7)
F3 F 0.78892(9) 0.56839(13) 0.52214(5)
F4 F 0.92930(10) 0.25782(15) 0.45456(8)
C18 C 0.45770(14) 0.8091(3) 0.38261(11)
C19 C 0.49635(14) 0.8600(2) 0.42844(11)
H11 H 0.4688 0.9098 0.4478
C20 C 0.57613(14) 0.8375(2) 0.44587(10)
H12 H 0.6026 0.8735 0.4768
C21 C 0.61753(12) 0.76197(19) 0.41791(9)
C22 C 0.57591(14) 0.7066(2) 0.37302(10)
H13 H 0.6019 0.6516 0.3547
C23 C 0.49680(15) 0.7317(3) 0.35512(11)
H14 H 0.4698 0.6959 0.3242
C24 C 0.70225(12) 0.7339(2) 0.43406(8)
H15 H 0.7171 0.6526 0.4256
C25 C 0.72815(15) 1.0924(2) 0.51513(10)
H16 H 0.7157 1.1425 0.5412
C26 C 0.75847(19) 1.0413(2) 0.44775(11)
H17 H 0.7728 1.0434 0.4159
C27 C 0.76129(12) 0.80666(19) 0.45894(8)
C28 C 0.84596(13) 0.7695(2) 0.46558(8)
C29 C 0.86721(12) 0.6328(2) 0.46420(8)
C30 C 0.92034(13) 0.5955(2) 0.43433(10)
H18 H 0.9422 0.6573 0.4164
C31 C 0.94140(15) 0.4701(3) 0.43059(11)
H19 H 0.9762 0.4463 0.4099
C32 C 0.91002(15) 0.3813(2) 0.45796(11)
C33 C 0.85911(14) 0.4115(2) 0.48906(10)
H20 H 0.8393 0.3494 0.5080
C34 C 0.83867(12) 0.5369(2) 0.49113(9)
Cl2 Cl 0.35746(4) 0.84070(10) 0.36066(4)
N4 N 0.74910(10) 0.93572(15) 0.47265(7)
N5 N 0.72995(12) 0.96812(17) 0.51768(7)
N6 N 0.74517(17) 1.1429(2) 0.47318(11)
O2 O 0.89650(9) 0.85179(15) 0.46908(7)
F5 F 0.92861(9) 0.25932(13) 0.09951(7)
F6 F 0.80518(9) 0.56279(12) 0.18279(5)
C35 C 0.48083(14) 0.8658(3) 0.05895(10)
C36 C 0.53758(16) 0.9580(3) 0.06771(10)
H21 H 0.5232 1.0434 0.0623
C37 C 0.61618(15) 0.9259(2) 0.08456(10)
H22 H 0.6545 0.9899 0.0905
C38 C 0.63907(13) 0.8001(2) 0.09278(9)
C39 C 0.58004(16) 0.7084(3) 0.08339(11)
H23 H 0.5940 0.6227 0.0882
C40 C 0.50156(16) 0.7403(3) 0.06715(12)
H24 H 0.4627 0.6771 0.0618
C41 C 0.72159(13) 0.7588(2) 0.10696(9)
H25 H 0.7306 0.6763 0.0965
C42 C 0.78625(13) 0.81873(19) 0.13225(8)
C43 C 0.74745(15) 1.0733(2) 0.20480(10)
H26 H 0.7235 1.1114 0.2292
C44 C 0.81640(15) 1.0507(2) 0.15076(10)
H27 H 0.8507 1.0644 0.1286
C45 C 0.86757(14) 0.7726(2) 0.13301(9)
C46 C 0.88146(12) 0.6337(2) 0.12470(8)
C47 C 0.85120(13) 0.5356(2) 0.14879(8)
C48 C 0.86624(13) 0.4091(2) 0.14169(9)
H28 H 0.8453 0.3444 0.1588
C49 C 0.91392(14) 0.3839(2) 0.10796(10)
C50 C 0.94698(14) 0.4753(3) 0.08309(10)
H29 H 0.9795 0.4536 0.0606
C51 C 0.93108(13) 0.6008(2) 0.09209(9)
H30 H 0.9541 0.6650 0.0760
Cl3 Cl 0.38200(4) 0.90807(9) 0.03691(4)
N7 N 0.78198(11) 0.93912(15) 0.15638(7)
N8 N 0.73630(11) 0.95284(17) 0.19205(7)
N9 N 0.79562(13) 1.13848(18) 0.18044(9)
O3 O 0.92184(10) 0.84789(16) 0.13720(7)
loop_
_geom_bond_atom_site_label_1
_geom_bond_atom_site_label_2
_geom_bond_site_symmetry_1
_geom_bond_site_symmetry_2
F1 C13 1_555 1_555
F2 C15 1_555 1_555
F3 C34 1_555 1_555
F4 C32 1_555 1_555
F5 C49 1_555 1_555
F6 C47 1_555 1_555
C1 C2 1_555 1_555
C2 H1 1_555 1_555
C3 C2 1_555 1_555
H2 C3 1_555 1_555
C4 C3 1_555 1_555
C5 C4 1_555 1_555
H3 C5 1_555 1_555
C6 C1 1_555 1_555
H4 C6 1_555 1_555
C7 C4 1_555 1_555
H5 C7 1_555 1_555
C8 C7 1_555 1_555
C9 H6 1_555 1_555
C10 H7 1_555 1_555
C11 C8 1_555 1_555
C12 C11 1_555 1_555
C13 C12 1_555 1_555
C14 C13 1_555 1_555
H8 C14 1_555 1_555
C15 C14 1_555 1_555
C16 C15 1_555 1_555
H9 C16 1_555 1_555
C17 C12 1_555 1_555
H10 C17 1_555 1_555
C18 C19 1_555 1_555
C19 H11 1_555 1_555
C20 C19 1_555 1_555
H12 C20 1_555 1_555
C21 C20 1_555 1_555
C22 C21 1_555 1_555
H13 C22 1_555 1_555
C23 C18 1_555 1_555
H14 C23 1_555 1_555
C24 C21 1_555 1_555
H15 C24 1_555 1_555
C25 H16 1_555 1_555
C26 H17 1_555 1_555
C27 C24 1_555 1_555
C28 C27 1_555 1_555
C29 C28 1_555 1_555
C30 C29 1_555 1_555
H18 C30 1_555 1_555
C31 C30 1_555 1_555
H19 C31 1_555 1_555
C32 C31 1_555 1_555
C33 C32 1_555 1_555
H20 C33 1_555 1_555
C34 C29 1_555 1_555
C35 C36 1_555 1_555
C36 H21 1_555 1_555
C37 C36 1_555 1_555
H22 C37 1_555 1_555
C38 C37 1_555 1_555
C39 C38 1_555 1_555
H23 C39 1_555 1_555
C40 C35 1_555 1_555
H24 C40 1_555 1_555
C41 C38 1_555 1_555
H25 C41 1_555 1_555
C42 C41 1_555 1_555
C43 H26 1_555 1_555
C44 H27 1_555 1_555
C45 C42 1_555 1_555
C46 C45 1_555 1_555
C47 C46 1_555 1_555
C48 C47 1_555 1_555
H28 C48 1_555 1_555
C49 C48 1_555 1_555
C50 C49 1_555 1_555
H29 C50 1_555 1_555
C51 C46 1_555 1_555
H30 C51 1_555 1_555
Cl1 C1 1_555 1_555
Cl2 C18 1_555 1_555
Cl3 C35 1_555 1_555
N1 C8 1_555 1_555
N2 C9 1_555 1_555
N3 C9 1_555 1_555
N4 C26 1_555 1_555
N5 C25 1_555 1_555
N6 C25 1_555 1_555
N7 C42 1_555 1_555
N8 C43 1_555 1_555
N9 C43 1_555 1_555
O1 C11 1_555 1_555
O2 C28 1_555 1_555
O3 C45 1_555 1_555
C5 C6 1_555 1_555
C10 N1 1_555 1_555
C10 N3 1_555 1_555
C16 C17 1_555 1_555
C22 C23 1_555 1_555
C26 N6 1_555 1_555
C27 N4 1_555 1_555
C33 C34 1_555 1_555
C39 C40 1_555 1_555
C44 N7 1_555 1_555
C44 N9 1_555 1_555
C50 C51 1_555 1_555
N1 N2 1_555 1_555
N4 N5 1_555 1_555
N7 N8 1_555 1_555

#END
