
#######################################################################
#
#                 Cambridge Crystallographic Data Centre
#                                CCDC 
#
#######################################################################
#
# If this CIF has been generated from an entry in the Cambridge 
# Structural Database, then it will include bibliographic, chemical, 
# crystal, experimental, refinement or atomic coordinate data resulting 
# from the CCDC's data processing and validation procedures.
#
#######################################################################

data_PAWWUF
_chemical_formula_moiety         'C26 H38 N4 Si2,C7 H8'
_chemical_name_systematic        
'1,2-bis((N-(4-Methylpyridine-2-yl)-trimethylsilylamino)methyl)benzene toluene solvate'
_symmetry_cell_setting           triclinic
_symmetry_space_group_name_H-M   'P -1'
_symmetry_Int_Tables_number      2
_space_group_name_Hall           '-P 1'
loop_
_symmetry_equiv_pos_site_id
_symmetry_equiv_pos_as_xyz
1 x,y,z
2 -x,-y,-z
_cell_length_a                   10.916(2)
_cell_length_b                   11.184(2)
_cell_length_c                   14.818(2)
_cell_angle_alpha                87.55(1)
_cell_angle_beta                 78.23(1)
_cell_angle_gamma                74.03(1)
_cell_volume                     1702.49
_exptl_crystal_colour            colorless
_exptl_crystal_description       prism
_cell_formula_units_Z            2
loop_
_atom_site_label
_atom_site_type_symbol
_atom_site_fract_x
_atom_site_fract_y
_atom_site_fract_z
C1 C 0.2087(3) 0.2495(3) 1.1367(2)
H1 H 0.2218(3) 0.1610(3) 1.1508(2)
H2 H 0.1195(3) 0.2956(3) 1.1644(2)
H3 H 0.2701(3) 0.2814(3) 1.1618(2)
C2 C 0.2131(4) 0.4353(3) 0.9774(3)
H4 H 0.2770(4) 0.4677(3) 0.9992(3)
H5 H 0.1251(4) 0.4833(3) 1.0061(3)
H6 H 0.2249(4) 0.4426(3) 0.9103(3)
C3 C 0.1122(4) 0.2155(4) 0.9658(3)
H7 H 0.1212(4) 0.1278(4) 0.9813(3)
H8 H 0.1249(4) 0.2246(4) 0.8987(3)
H9 H 0.0251(4) 0.2654(4) 0.9945(3)
C4 C 0.2363(4) -0.2038(4) 0.5612(2)
H10 H 0.2437(4) -0.1199(4) 0.5447(2)
H11 H 0.1495(4) -0.2092(4) 0.5572(2)
H12 H 0.3022(4) -0.2647(4) 0.5186(2)
C5 C 0.2495(4) -0.3950(4) 0.7180(3)
H13 H 0.2637(4) -0.4088(4) 0.7812(3)
H14 H 0.3154(4) -0.4574(4) 0.6767(3)
H15 H 0.1628(4) -0.4019(4) 0.7153(3)
C6 C 0.1295(3) -0.1235(4) 0.7600(3)
H16 H 0.1327(3) -0.0387(4) 0.7428(3)
H17 H 0.1411(3) -0.1382(4) 0.8237(3)
H18 H 0.0450(3) -0.1341(4) 0.7545(3)
C7 C 0.5016(3) 0.1996(3) 0.9652(2)
C8 C 0.6264(3) 0.1384(3) 0.9181(2)
H19 H 0.6378(3) 0.0775(3) 0.8721(2)
C9 C 0.7332(3) 0.1670(3) 0.9387(2)
C10 C 0.7123(3) 0.2583(3) 1.0044(2)
H20 H 0.7835(3) 0.2799(3) 1.0206(2)
C11 C 0.5859(3) 0.3175(3) 1.0462(2)
H21 H 0.5725(3) 0.3819(3) 1.0898(2)
C12 C 0.4013(3) 0.0691(3) 0.8930(2)
C13 C 0.4150(3) 0.0992(3) 0.7900(2)
C14 C 0.4187(3) 0.0070(3) 0.7281(2)
C15 C 0.4257(3) 0.0347(3) 0.6348(2)
H22 H 0.4264(3) -0.0271(3) 0.5925(2)
C16 C 0.4316(3) 0.1524(3) 0.6034(2)
H23 H 0.4359(3) 0.1706(3) 0.5398(2)
C17 C 0.4312(3) 0.2426(3) 0.6638(2)
H24 H 0.4378(3) 0.3221(3) 0.6418(2)
C18 C 0.4209(3) 0.2164(3) 0.7573(2)
H25 H 0.4178(3) 0.2794(3) 0.7994(2)
C19 C 0.5265(3) -0.2795(3) 0.6439(2)
C20 C 0.6468(3) -0.2587(3) 0.6444(2)
H26 H 0.6520(3) -0.1926(3) 0.6803(2)
C21 C 0.7586(3) -0.3355(4) 0.5920(2)
C22 C 0.7448(4) -0.4277(4) 0.5395(2)
H27 H 0.8191(4) -0.4823(4) 0.5027(2)
C23 C 0.6232(3) -0.4401(3) 0.5406(2)
H28 H 0.6158(3) -0.5033(3) 0.5028(2)
C24 C 0.4137(3) -0.1217(3) 0.7648(2)
C25 C 0.8683(3) 0.0994(4) 0.8889(3)
H29 H 0.9325(3) 0.1304(4) 0.9113(3)
H30 H 0.8759(3) 0.1139(4) 0.8225(3)
H31 H 0.8841(3) 0.0101(4) 0.9005(3)
C26 C 0.8903(3) -0.3165(5) 0.5937(3)
H32 H 0.8792(3) -0.2467(5) 0.6352(3)
H33 H 0.9313(3) -0.2982(5) 0.5314(3)
H34 H 0.9455(3) -0.3922(5) 0.6156(3)
N1 N 0.3888(2) 0.1747(2) 0.9526(2)
N2 N 0.4812(2) 0.2897(2) 1.0289(2)
N3 N 0.4090(2) -0.2106(2) 0.6962(2)
N4 N 0.5141(2) -0.3687(2) 0.5916(2)
Si1 Si 0.23642(8) 0.26971(9) 1.00925(6)
Si2 Si 0.26215(9) -0.23729(9) 0.68147(6)
C27 C 0.9439(7) 0.1970(6) 0.6428(3)
H35 H 0.9566(7) 0.1273(6) 0.6040(3)
C28 C 1.0480(6) 0.2287(8) 0.6595(4)
H36 H 1.1331(6) 0.1813(8) 0.6320(4)
C29 C 1.0325(6) 0.3293(7) 0.7160(5)
H37 H 1.1056(6) 0.3519(7) 0.7277(5)
C30 C 0.9060(6) 0.3966(5) 0.7553(4)
H38 H 0.8932(6) 0.4656(5) 0.7948(4)
C31 C 0.7986(4) 0.3651(4) 0.7381(3)
C32 C 0.6621(4) 0.4355(5) 0.7806(3)
H39 H 0.6640(4) 0.5040(5) 0.8190(3)
H40 H 0.6188(4) 0.3795(5) 0.8188(3)
H41 H 0.6142(4) 0.4692(5) 0.7318(3)
C33 C 0.8177(5) 0.2655(5) 0.6820(3)
H42 H 0.7452(5) 0.2426(5) 0.6696(3)
loop_
_geom_bond_atom_site_label_1
_geom_bond_atom_site_label_2
_geom_bond_site_symmetry_1
_geom_bond_site_symmetry_2
C1 H1 1_555 1_555
H2 C1 1_555 1_555
H3 C1 1_555 1_555
C2 H4 1_555 1_555
H5 C2 1_555 1_555
H6 C2 1_555 1_555
C3 H7 1_555 1_555
H8 C3 1_555 1_555
H9 C3 1_555 1_555
C4 H10 1_555 1_555
H11 C4 1_555 1_555
H12 C4 1_555 1_555
C5 H13 1_555 1_555
H14 C5 1_555 1_555
H15 C5 1_555 1_555
C6 H16 1_555 1_555
H17 C6 1_555 1_555
H18 C6 1_555 1_555
C7 C8 1_555 1_555
C8 H19 1_555 1_555
C9 C8 1_555 1_555
C10 C9 1_555 1_555
H20 C10 1_555 1_555
C11 C10 1_555 1_555
H21 C11 1_555 1_555
C12 C13 1_555 1_555
C13 C14 1_555 1_555
C14 C15 1_555 1_555
C15 H22 1_555 1_555
C16 C15 1_555 1_555
H23 C16 1_555 1_555
C17 C16 1_555 1_555
H24 C17 1_555 1_555
C18 C13 1_555 1_555
H25 C18 1_555 1_555
C19 C20 1_555 1_555
C20 H26 1_555 1_555
C21 C20 1_555 1_555
C22 C21 1_555 1_555
H27 C22 1_555 1_555
C23 C22 1_555 1_555
H28 C23 1_555 1_555
C24 C14 1_555 1_555
C25 C9 1_555 1_555
H29 C25 1_555 1_555
H30 C25 1_555 1_555
H31 C25 1_555 1_555
C26 C21 1_555 1_555
H32 C26 1_555 1_555
H33 C26 1_555 1_555
H34 C26 1_555 1_555
N1 C7 1_555 1_555
N2 C7 1_555 1_555
N3 C19 1_555 1_555
N4 C19 1_555 1_555
Si1 C1 1_555 1_555
Si2 C4 1_555 1_555
C27 H35 1_555 1_555
C28 C27 1_555 1_555
H36 C28 1_555 1_555
C29 C28 1_555 1_555
H37 C29 1_555 1_555
C30 C29 1_555 1_555
H38 C30 1_555 1_555
C31 C30 1_555 1_555
C32 C31 1_555 1_555
H39 C32 1_555 1_555
H40 C32 1_555 1_555
H41 C32 1_555 1_555
C33 C27 1_555 1_555
H42 C33 1_555 1_555
C2 Si1 1_555 1_555
C3 Si1 1_555 1_555
C5 Si2 1_555 1_555
C6 Si2 1_555 1_555
C11 N2 1_555 1_555
C12 N1 1_555 1_555
C17 C18 1_555 1_555
C23 N4 1_555 1_555
C24 N3 1_555 1_555
N1 Si1 1_555 1_555
N3 Si2 1_555 1_555
C31 C33 1_555 1_555

#END
