
#######################################################################
#
#                 Cambridge Crystallographic Data Centre
#                                CCDC 
#
#######################################################################
#
# If this CIF has been generated from an entry in the Cambridge 
# Structural Database, then it will include bibliographic, chemical, 
# crystal, experimental, refinement or atomic coordinate data resulting 
# from the CCDC's data processing and validation procedures.
#
#######################################################################

data_PAWYAP
_chemical_formula_moiety         'C16 H13 Cl1 N3 1+,2(H2 O1),Cl1 1-'
_chemical_name_systematic        
'4-[(E)-2-(2-Chlorobenzylidene)hydrazin-1-yl]quinolin-1-ium chloride dihydrate'
_symmetry_cell_setting           monoclinic
_symmetry_space_group_name_H-M   'P 21/c'
_symmetry_Int_Tables_number      14
_space_group_name_Hall           '-P 2ybc'
loop_
_symmetry_equiv_pos_site_id
_symmetry_equiv_pos_as_xyz
1 x,y,z
2 -x,1/2+y,1/2-z
3 -x,-y,-z
4 x,1/2-y,1/2+z
_cell_length_a                   4.5946(3)
_cell_length_b                   20.1550(19)
_cell_length_c                   18.2192(17)
_cell_angle_alpha                90
_cell_angle_beta                 96.660(5)
_cell_angle_gamma                90
_cell_volume                     1675.79
_exptl_crystal_colour            colorless
_exptl_crystal_description       needle
_cell_formula_units_Z            4
loop_
_atom_site_label
_atom_site_type_symbol
_atom_site_fract_x
_atom_site_fract_y
_atom_site_fract_z
Cl1 Cl 0.2444(5) 0.37879(12) 0.03537(12)
N1 N 1.3893(15) 0.3016(3) 0.4691(4)
H1 H 1.492(15) 0.299(4) 0.513(2)
N2 N 0.8798(14) 0.3126(3) 0.2682(4)
H2 H 0.891(17) 0.283(3) 0.233(3)
N3 N 0.6721(14) 0.3622(3) 0.2585(4)
C1 C 1.1941(17) 0.3493(4) 0.4555(4)
H3 H 1.1704 0.3806 0.4934
C2 C 1.0242(17) 0.3555(4) 0.3889(4)
H4 H 0.8891 0.3912 0.3809
C3 C 1.0490(16) 0.3096(4) 0.3328(4)
C4 C 1.2699(17) 0.2574(4) 0.3463(4)
C5 C 1.3246(16) 0.2098(4) 0.2931(4)
H5 H 1.2159 0.2107 0.2455
C6 C 1.5348(18) 0.1623(4) 0.3100(4)
H6 H 1.5708 0.1303 0.2739
C7 C 1.6980(17) 0.1602(4) 0.3803(4)
H7 H 1.8415 0.1266 0.3914
C8 C 1.6507(17) 0.2062(4) 0.4325(4)
H8 H 1.7631 0.2054 0.4796
C9 C 1.4343(17) 0.2546(4) 0.4157(4)
C10 C 0.5259(16) 0.3655(4) 0.1942(5)
H9 H 0.5643 0.3353 0.1565
C11 C 0.3006(18) 0.4161(4) 0.1795(4)
C12 C 0.1484(17) 0.4252(4) 0.1102(4)
C13 C -0.0717(18) 0.4732(4) 0.0953(5)
H10 H -0.1737 0.4784 0.0472
C14 C -0.1342(18) 0.5130(4) 0.1541(5)
H11 H -0.2819 0.5460 0.1458
C15 C 0.0101(19) 0.5057(4) 0.2227(5)
H12 H -0.0375 0.5336 0.2616
C16 C 0.2242(18) 0.4586(4) 0.2365(5)
H13 H 0.3232 0.4543 0.2850
Cl2 Cl 1.8077(5) 0.28801(11) 0.62092(11)
O1 O 1.3131(14) 0.3975(3) 0.6374(4)
H14 H 1.446(13) 0.369(3) 0.635(6)
H15 H 1.150(9) 0.379(4) 0.640(6)
O2 O 0.7300(15) 0.4920(3) 0.4565(4)
H16 H 0.72(2) 0.527(3) 0.431(5)
H17 H 0.563(12) 0.484(7) 0.469(8)
H18? H 0.85(3) 0.495(7) 0.494(5)
loop_
_geom_bond_atom_site_label_1
_geom_bond_atom_site_label_2
_geom_bond_site_symmetry_1
_geom_bond_site_symmetry_2
Cl1 C12 1_555 1_555
N1 H1 1_555 1_555
N2 H2 1_555 1_555
N3 N2 1_555 1_555
C1 N1 1_555 1_555
H3 C1 1_555 1_555
C2 C1 1_555 1_555
H4 C2 1_555 1_555
C3 N2 1_555 1_555
C4 C3 1_555 1_555
C5 C4 1_555 1_555
H5 C5 1_555 1_555
C6 C5 1_555 1_555
H6 C6 1_555 1_555
C7 C6 1_555 1_555
H7 C7 1_555 1_555
C8 C7 1_555 1_555
H8 C8 1_555 1_555
C9 N1 1_555 1_555
C10 N3 1_555 1_555
H9 C10 1_555 1_555
C11 C10 1_555 1_555
C12 C11 1_555 1_555
C13 C12 1_555 1_555
H10 C13 1_555 1_555
C14 C13 1_555 1_555
H11 C14 1_555 1_555
C15 C14 1_555 1_555
H12 C15 1_555 1_555
C16 C11 1_555 1_555
H13 C16 1_555 1_555
O1 H14 1_555 1_555
H15 O1 1_555 1_555
O2 H16 1_555 1_555
H17 O2 1_555 1_555
C2 C3 1_555 1_555
C4 C9 1_555 1_555
C8 C9 1_555 1_555
C15 C16 1_555 1_555

#END
