
#######################################################################
#
#                 Cambridge Crystallographic Data Centre
#                                CCDC 
#
#######################################################################
#
# If this CIF has been generated from an entry in the Cambridge 
# Structural Database, then it will include bibliographic, chemical, 
# crystal, experimental, refinement or atomic coordinate data resulting 
# from the CCDC's data processing and validation procedures.
#
#######################################################################

data_PAXCEZ
_chemical_compound_source        
'Isolated as black pigments from the rhizomes of Cimicifuga foetida.'
_chemical_name_common            'Cimicifoetone A methanol solvate'
_chemical_formula_moiety         'C26 H22 N2 O2,C1 H4 O1'
_chemical_name_systematic        
'6-(1H-indol-3-yl)-8-methyl-1-(3-methylbut-2-en-1-yl)-3H-benzo[e]indole-4,5-dione methanol solvate'
_chemical_properties_biological  
'Anti-proliferative activity on seven tumour cell lines.'
_symmetry_cell_setting           triclinic
_symmetry_space_group_name_H-M   'P -1'
_symmetry_Int_Tables_number      2
_space_group_name_Hall           '-P 1'
loop_
_symmetry_equiv_pos_site_id
_symmetry_equiv_pos_as_xyz
1 x,y,z
2 -x,-y,-z
_cell_length_a                   9.3889(7)
_cell_length_b                   10.0259(8)
_cell_length_c                   13.1653(10)
_cell_angle_alpha                106.988(7)
_cell_angle_beta                 104.186(7)
_cell_angle_gamma                98.085(6)
_cell_volume                     1118.55
_exptl_crystal_colour            'dark red'
_exptl_crystal_description       plate
_cell_formula_units_Z            2
loop_
_atom_site_label
_atom_site_type_symbol
_atom_site_fract_x
_atom_site_fract_y
_atom_site_fract_z
O1 O 0.52823(16) 0.90011(18) 0.38798(12)
O2 O 0.78226(17) 0.97538(17) 0.55667(13)
N1 N 1.1993(2) 0.9525(2) 0.64972(15)
H1 H 1.2540 0.9679 0.6087
N2 N 0.27047(19) 0.7051(2) 0.39971(14)
H2 H 0.2342 0.7330 0.3449
C1 C 1.3871(3) 1.0748(3) 0.8389(2)
H3 H 1.4668 1.1048 0.8145
C2 C 1.4019(3) 1.1065(3) 0.9498(2)
H4 H 1.4938 1.1594 1.0019
C3 C 1.2832(3) 1.0615(3) 0.9867(2)
H5 H 1.2972 1.0852 1.0628
C4 C 1.1458(3) 0.9830(3) 0.91300(18)
H6 H 1.0673 0.9531 0.9386
C5 C 1.1254(2) 0.9483(2) 0.79823(17)
C6 C 1.2473(2) 0.9956(2) 0.76401(19)
C7 C 1.0526(2) 0.8821(2) 0.61189(18)
H7 H 0.9956 0.8442 0.5372
C8 C 0.9995(2) 0.8742(2) 0.69849(17)
C9 C 0.8520(2) 0.7959(2) 0.69570(16)
C10 C 0.8577(2) 0.7193(2) 0.76917(17)
H8 H 0.9515 0.7226 0.8154
C11 C 0.7313(2) 0.6390(2) 0.77682(18)
C12 C 0.5928(2) 0.6296(2) 0.70470(18)
H9 H 0.5067 0.5754 0.7086
C13 C 0.5781(2) 0.6986(2) 0.62661(16)
C14 C 0.7084(2) 0.7881(2) 0.62399(16)
C15 C 0.6873(2) 0.8746(2) 0.55002(16)
C16 C 0.5355(2) 0.8422(2) 0.45904(17)
C17 C 0.4167(2) 0.7471(2) 0.46715(16)
C18 C 0.4310(2) 0.6789(2) 0.54637(16)
C19 C 0.2866(2) 0.5925(2) 0.52449(17)
C20 C 0.1933(2) 0.6127(2) 0.43414(18)
H10 H 0.0914 0.5685 0.4016
C21 C 0.7437(3) 0.5625(3) 0.8604(2)
H11 H 0.7312 0.6230 0.9276
H12 H 0.8411 0.5402 0.8767
H13 H 0.6666 0.4755 0.8302
C22 C 0.2325(2) 0.4919(2) 0.57914(18)
H14 H 0.2993 0.4268 0.5827
H15 H 0.1329 0.4350 0.5324
C23 C 0.2241(2) 0.5626(2) 0.69479(18)
H16 H 0.2105 0.6558 0.7123
C24 C 0.2341(3) 0.5046(3) 0.77352(19)
C25 C 0.2224(3) 0.5835(3) 0.8857(2)
H17 H 0.2103 0.6781 0.8890
H18 H 0.3126 0.5902 0.9422
H19 H 0.1369 0.5330 0.8977
C26 C 0.2572(4) 0.3557(3) 0.7574(3)
H20 H 0.2441 0.3070 0.6801
H21 H 0.1850 0.3044 0.7811
H22 H 0.3574 0.3603 0.8007
O3 O 0.8975(2) 1.2076(2) 0.77086(16)
H23 H 0.9161 1.1343 0.7344
C27 C 0.8456(5) 1.1825(5) 0.8546(3)
H24 H 0.7864 1.0861 0.8284
H25 H 0.7843 1.2483 0.8757
H26 H 0.9298 1.1956 0.9179
loop_
_geom_bond_atom_site_label_1
_geom_bond_atom_site_label_2
_geom_bond_site_symmetry_1
_geom_bond_site_symmetry_2
O1 C16 1_555 1_555
O2 C15 1_555 1_555
N1 H1 1_555 1_555
N2 H2 1_555 1_555
C1 H3 1_555 1_555
C2 C1 1_555 1_555
H4 C2 1_555 1_555
C3 C2 1_555 1_555
H5 C3 1_555 1_555
C4 C3 1_555 1_555
H6 C4 1_555 1_555
C5 C4 1_555 1_555
C6 N1 1_555 1_555
C7 N1 1_555 1_555
H7 C7 1_555 1_555
C8 C5 1_555 1_555
C9 C8 1_555 1_555
C10 C9 1_555 1_555
H8 C10 1_555 1_555
C11 C10 1_555 1_555
C12 C11 1_555 1_555
H9 C12 1_555 1_555
C13 C12 1_555 1_555
C14 C9 1_555 1_555
C15 C14 1_555 1_555
C16 C15 1_555 1_555
C17 N2 1_555 1_555
C18 C13 1_555 1_555
C19 C18 1_555 1_555
C20 N2 1_555 1_555
H10 C20 1_555 1_555
C21 C11 1_555 1_555
H11 C21 1_555 1_555
H12 C21 1_555 1_555
H13 C21 1_555 1_555
C22 C19 1_555 1_555
H14 C22 1_555 1_555
H15 C22 1_555 1_555
C23 C22 1_555 1_555
H16 C23 1_555 1_555
C24 C23 1_555 1_555
C25 C24 1_555 1_555
H17 C25 1_555 1_555
H18 C25 1_555 1_555
H19 C25 1_555 1_555
C26 C24 1_555 1_555
H20 C26 1_555 1_555
H21 C26 1_555 1_555
H22 C26 1_555 1_555
O3 H23 1_555 1_555
C27 O3 1_555 1_555
H24 C27 1_555 1_555
H25 C27 1_555 1_555
H26 C27 1_555 1_555
C1 C6 1_555 1_555
C5 C6 1_555 1_555
C7 C8 1_555 1_555
C13 C14 1_555 1_555
C16 C17 1_555 1_555
C17 C18 1_555 1_555
C19 C20 1_555 1_555

#END
