
#######################################################################
#
#                 Cambridge Crystallographic Data Centre
#                                CCDC 
#
#######################################################################
#
# If this CIF has been generated from an entry in the Cambridge 
# Structural Database, then it will include bibliographic, chemical, 
# crystal, experimental, refinement or atomic coordinate data resulting 
# from the CCDC's data processing and validation procedures.
#
#######################################################################

data_PAXDID
_chemical_formula_moiety         'C6 H8 N1 O1 1+,C2 H2 Cl1 O2 1-'
_chemical_name_systematic        '4-Hydroxyanilinium 2-chloroacetate'
_symmetry_cell_setting           monoclinic
_symmetry_space_group_name_H-M   'P 21/c'
_symmetry_Int_Tables_number      14
_space_group_name_Hall           '-P 2ybc'
loop_
_symmetry_equiv_pos_site_id
_symmetry_equiv_pos_as_xyz
1 x,y,z
2 -x,1/2+y,1/2-z
3 -x,-y,-z
4 x,1/2-y,1/2+z
_cell_length_a                   10.702(3)
_cell_length_b                   4.5242(10)
_cell_length_c                   19.357(7)
_cell_angle_alpha                90
_cell_angle_beta                 96.825(2)
_cell_angle_gamma                90
_cell_volume                     930.586
_exptl_crystal_colour            colorless
_exptl_crystal_description       block
_cell_formula_units_Z            4
loop_
_atom_site_label
_atom_site_type_symbol
_atom_site_fract_x
_atom_site_fract_y
_atom_site_fract_z
Cl1 Cl 0.41622(5) 1.32273(13) 0.29181(3)
O1 O 0.29262(14) 0.7514(4) 0.42037(8)
O2 O 0.48355(14) 0.9420(4) 0.41518(8)
C2 C 0.3694(2) 0.9122(5) 0.39246(11)
C8 C 0.3133(2) 1.0670(5) 0.32664(12)
H9 H 0.2366 1.1738 0.3364
H10 H 0.2873 0.9156 0.2909
N1 N 0.37140(16) 0.5601(4) 0.55354(10)
H1 H 0.3555 0.6038 0.5074
H2 H 0.4170 0.3902 0.5590
H3 H 0.4158 0.7104 0.5760
O3 O -0.08865(14) 0.4356(4) 0.66202(9)
H4 H -0.1461 0.3684 0.6347
C1 C 0.1616(2) 0.3348(6) 0.54972(13)
H5 H 0.1781 0.2289 0.5094
C3 C 0.2513(2) 0.5212(5) 0.58293(12)
C4 C 0.2298(2) 0.6739(6) 0.64231(12)
H6 H 0.2929 0.7995 0.6651
C5 C 0.0232(2) 0.4565(5) 0.63473(12)
C6 C 0.1148(2) 0.6413(6) 0.66814(12)
H7 H 0.0989 0.7458 0.7088
C7 C 0.0466(2) 0.3032(6) 0.57581(13)
H8 H -0.0159 0.1760 0.5531
loop_
_geom_bond_atom_site_label_1
_geom_bond_atom_site_label_2
_geom_bond_site_symmetry_1
_geom_bond_site_symmetry_2
Cl1 C8 1_555 1_555
O1 C2 1_555 1_555
O2 C2 1_555 1_555
N1 H1 1_555 1_555
H2 N1 1_555 1_555
H3 N1 1_555 1_555
O3 H4 1_555 1_555
C1 H5 1_555 1_555
C2 C8 1_555 1_555
C3 N1 1_555 1_555
C4 C3 1_555 1_555
H6 C4 1_555 1_555
C5 O3 1_555 1_555
C6 C4 1_555 1_555
H7 C6 1_555 1_555
C7 C1 1_555 1_555
H8 C7 1_555 1_555
C8 H9 1_555 1_555
H10 C8 1_555 1_555
C1 C3 1_555 1_555
C5 C6 1_555 1_555
C5 C7 1_555 1_555

#END
