
#######################################################################
#
#                 Cambridge Crystallographic Data Centre
#                                CCDC 
#
#######################################################################
#
# If this CIF has been generated from an entry in the Cambridge 
# Structural Database, then it will include bibliographic, chemical, 
# crystal, experimental, refinement or atomic coordinate data resulting 
# from the CCDC's data processing and validation procedures.
#
#######################################################################

data_PAXQIQ
_chemical_name_common            
1,2-bis[4-(1H-imidazol-1-yl)benzylidene]hydrazine
_chemical_formula_moiety         'C20 H16 N6'
_chemical_name_systematic        
1,1'-(Hydrazine-1,2-diylidenebis(methylylidene-4,1-phenylene))bis(1H-imidazole)
_symmetry_cell_setting           monoclinic
_symmetry_space_group_name_H-M   'P 21/n'
_symmetry_Int_Tables_number      14
_space_group_name_Hall           '-P 2yn'
loop_
_symmetry_equiv_pos_site_id
_symmetry_equiv_pos_as_xyz
1 x,y,z
2 1/2-x,1/2+y,1/2-z
3 -x,-y,-z
4 1/2+x,1/2-y,1/2+z
_cell_length_a                   8.1342(3)
_cell_length_b                   7.8172(3)
_cell_length_c                   13.2191(6)
_cell_angle_alpha                90
_cell_angle_beta                 90.259(4)
_cell_angle_gamma                90
_cell_volume                     840.55
_exptl_crystal_colour            yellow
_exptl_crystal_description       block
_cell_formula_units_Z            2
loop_
_atom_site_label
_atom_site_type_symbol
_atom_site_fract_x
_atom_site_fract_y
_atom_site_fract_z
N1 N 0.03400(17) 0.26891(18) 0.65029(11)
N2 N -0.1631(2) 0.1350(2) 0.73547(13)
N3 N 0.44959(19) 0.9458(2) 0.52999(13)
C1 C -0.0938(2) 0.2826(2) 0.71607(15)
H1 H -0.1281 0.3856 0.7442
C2 C -0.0742(2) 0.0193(3) 0.67959(16)
H2 H -0.0941 -0.0978 0.6783
C3 C 0.0454(2) 0.0977(2) 0.62695(16)
H3 H 0.1206 0.0465 0.5836
C4 C 0.1305(2) 0.4043(2) 0.61009(13)
C5 C 0.1995(2) 0.3884(2) 0.51484(14)
H4 H 0.1838 0.2888 0.4775
C6 C 0.2917(2) 0.5209(2) 0.47552(15)
H5 H 0.3385 0.5091 0.4118
C7 C 0.3157(2) 0.6717(2) 0.52950(14)
C8 C 0.2452(2) 0.6857(2) 0.62521(15)
H6 H 0.2595 0.7857 0.6623
C9 C 0.1546(2) 0.5532(2) 0.66558(14)
H7 H 0.1097 0.5635 0.7299
C10 C 0.4159(2) 0.8068(2) 0.48435(16)
H8 H 0.4567 0.7903 0.4195
N1B N 0.96600(17) 1.73109(18) 0.34971(11)
N2B N 1.1631(2) 1.8650(2) 0.26453(13)
N3B N 0.55041(19) 1.0542(2) 0.47001(13)
C1B C 1.0938(2) 1.7174(2) 0.28393(15)
H1B H 1.1281 1.6144 0.2558
C2B C 1.0742(2) 1.9807(3) 0.32041(16)
H2B H 1.0941 2.0978 0.3217
C3B C 0.9546(2) 1.9023(2) 0.37305(16)
H3B H 0.8794 1.9535 0.4164
C4B C 0.8695(2) 1.5957(2) 0.38991(13)
C5B C 0.8005(2) 1.6116(2) 0.48516(14)
H4B H 0.8162 1.7112 0.5225
C6B C 0.7083(2) 1.4791(2) 0.52448(15)
H5B H 0.6615 1.4909 0.5882
C7B C 0.6843(2) 1.3283(2) 0.47050(14)
C8B C 0.7548(2) 1.3143(2) 0.37479(15)
H6B H 0.7405 1.2143 0.3377
C9B C 0.8454(2) 1.4468(2) 0.33442(14)
H7B H 0.8903 1.4365 0.2701
C10B C 0.5841(2) 1.1932(2) 0.51565(16)
H8B H 0.5433 1.2097 0.5805
loop_
_geom_bond_atom_site_label_1
_geom_bond_atom_site_label_2
_geom_bond_site_symmetry_1
_geom_bond_site_symmetry_2
N1 C1 1_555 1_555
N2 C1 1_555 1_555
N3 C10 1_555 1_555
C1 H1 1_555 1_555
C2 N2 1_555 1_555
H2 C2 1_555 1_555
C3 N1 1_555 1_555
H3 C3 1_555 1_555
C4 N1 1_555 1_555
C5 C4 1_555 1_555
H4 C5 1_555 1_555
C6 C5 1_555 1_555
H5 C6 1_555 1_555
C7 C6 1_555 1_555
C8 C7 1_555 1_555
H6 C8 1_555 1_555
C9 C4 1_555 1_555
H7 C9 1_555 1_555
C10 C7 1_555 1_555
H8 C10 1_555 1_555
N1B C1B 1_555 1_555
N2B C1B 1_555 1_555
N3B N3 1_555 1_555
C1B H1B 1_555 1_555
C2B N2B 1_555 1_555
H2B C2B 1_555 1_555
C3B N1B 1_555 1_555
H3B C3B 1_555 1_555
C4B N1B 1_555 1_555
C5B C4B 1_555 1_555
H4B C5B 1_555 1_555
C6B C5B 1_555 1_555
H5B C6B 1_555 1_555
C7B C6B 1_555 1_555
C8B C7B 1_555 1_555
H6B C8B 1_555 1_555
C9B C4B 1_555 1_555
H7B C9B 1_555 1_555
C10B N3B 1_555 1_555
H8B C10B 1_555 1_555
C2 C3 1_555 1_555
C8 C9 1_555 1_555
C2B C3B 1_555 1_555
C7B C10B 1_555 1_555
C8B C9B 1_555 1_555

#END
