
#######################################################################
#
#                 Cambridge Crystallographic Data Centre
#                                CCDC 
#
#######################################################################
#
# If this CIF has been generated from an entry in the Cambridge 
# Structural Database, then it will include bibliographic, chemical, 
# crystal, experimental, refinement or atomic coordinate data resulting 
# from the CCDC's data processing and validation procedures.
#
#######################################################################

data_PAXZAR
_chemical_formula_moiety         'C13 H11 N1 O1 S1'
_chemical_name_systematic        
(E)-3-(4-Methylphenyl)-1-(1,3-thiazol-2-yl)prop-2-en-1-one
_symmetry_cell_setting           monoclinic
_symmetry_space_group_name_H-M   'P 21/c'
_symmetry_Int_Tables_number      14
_space_group_name_Hall           '-P 2ybc'
loop_
_symmetry_equiv_pos_site_id
_symmetry_equiv_pos_as_xyz
1 x,y,z
2 -x,1/2+y,1/2-z
3 -x,-y,-z
4 x,1/2-y,1/2+z
_cell_length_a                   13.9486(9)
_cell_length_b                   11.1773(8)
_cell_length_c                   7.4579(5)
_cell_angle_alpha                90
_cell_angle_beta                 102.061(4)
_cell_angle_gamma                90
_cell_volume                     1137.08
_exptl_crystal_colour            colorless
_exptl_crystal_description       prism
_cell_formula_units_Z            4
loop_
_atom_site_label
_atom_site_type_symbol
_atom_site_fract_x
_atom_site_fract_y
_atom_site_fract_z
S1 S 0.98502(3) 0.17057(5) 1.16674(6)
O1 O 0.82353(10) -0.00430(12) 1.0300(2)
N1 N 0.84607(10) 0.31056(13) 1.0198(2)
C1 C 0.53219(10) 0.08303(13) 0.72422(19)
C2 C 0.62986(11) 0.05556(15) 0.8309(2)
C3 C 0.34124(11) 0.13769(15) 0.5336(2)
C4 C 0.86817(11) 0.19796(15) 1.0453(2)
C5 C 0.51393(11) 0.18190(13) 0.6090(2)
H1 H 0.5657 0.2309 0.5948
C6 C 0.70403(11) 0.13124(16) 0.8719(2)
C7 C 0.42049(11) 0.20835(15) 0.5155(2)
H2 H 0.4102 0.2748 0.4388
C8 C 0.45308(11) 0.01025(14) 0.7382(2)
H3 H 0.4635 -0.0578 0.8113
C9 C 0.79948(11) 0.09785(15) 0.9842(2)
C10 C 0.35920(12) 0.03767(15) 0.6448(2)
H4 H 0.3074 -0.0119 0.6570
C11 C 0.23967(13) 0.16866(19) 0.4303(3)
H5 H 0.2421 0.2405 0.3608
H6 H 0.1977 0.1809 0.5156
H7 H 0.2145 0.1043 0.3487
C12 C 0.92396(14) 0.37879(19) 1.1005(3)
H8 H 0.9216 0.4619 1.0966
C13 C 1.00462(14) 0.31959(19) 1.1861(3)
H9 H 1.0625 0.3554 1.2469
H10 H 0.6378(13) -0.0218(18) 0.877(2)
H11 H 0.6995(14) 0.2095(18) 0.835(3)
loop_
_geom_bond_atom_site_label_1
_geom_bond_atom_site_label_2
_geom_bond_site_symmetry_1
_geom_bond_site_symmetry_2
S1 C4 1_555 1_555
O1 C9 1_555 1_555
N1 C4 1_555 1_555
C1 C2 1_555 1_555
C2 C6 1_555 1_555
C3 C7 1_555 1_555
C4 C9 1_555 1_555
C5 C1 1_555 1_555
H1 C5 1_555 1_555
C6 C9 1_555 1_555
C7 C5 1_555 1_555
H2 C7 1_555 1_555
C8 C1 1_555 1_555
H3 C8 1_555 1_555
C10 C3 1_555 1_555
H4 C10 1_555 1_555
C11 C3 1_555 1_555
H5 C11 1_555 1_555
H6 C11 1_555 1_555
H7 C11 1_555 1_555
C12 N1 1_555 1_555
H8 C12 1_555 1_555
C13 S1 1_555 1_555
H9 C13 1_555 1_555
H10 C2 1_555 1_555
H11 C6 1_555 1_555
C8 C10 1_555 1_555
C12 C13 1_555 1_555

#END
