
#######################################################################
#
#                 Cambridge Crystallographic Data Centre
#                                CCDC 
#
#######################################################################
#
# If this CIF has been generated from an entry in the Cambridge 
# Structural Database, then it will include bibliographic, chemical, 
# crystal, experimental, refinement or atomic coordinate data resulting 
# from the CCDC's data processing and validation procedures.
#
#######################################################################

data_PAYGEC
_chemical_compound_source        'roots of Euphorbia fischeriana'
_chemical_formula_moiety         'C29 H32 O9,H2 O1'
_chemical_name_systematic        'Langduin D monohydrate'
_chemical_properties_biological  
'source plant root is used in traditional Chinese medicine to treat oedema, indigestion and as an expectorant'
_symmetry_cell_setting           monoclinic
_symmetry_space_group_name_H-M   'P 21'
_symmetry_Int_Tables_number      4
_space_group_name_Hall           'P 2yb'
loop_
_symmetry_equiv_pos_site_id
_symmetry_equiv_pos_as_xyz
1 x,y,z
2 -x,1/2+y,-z
_cell_length_a                   7.6049(6)
_cell_length_b                   20.3114(17)
_cell_length_c                   19.2794(15)
_cell_angle_alpha                90
_cell_angle_beta                 91.721(2)
_cell_angle_gamma                90
_cell_volume                     2976.67
_exptl_crystal_colour            yellow
_exptl_crystal_description       prism
_chemical_melting_point          251-252deg.C
_cell_formula_units_Z            4
loop_
_atom_site_label
_atom_site_type_symbol
_atom_site_fract_x
_atom_site_fract_y
_atom_site_fract_z
O1 O 0.6067(4) 0.5183(2) 0.8058(2)
H1 H 0.6074 0.4781 0.8099
O2 O 0.2615(5) 0.63481(18) 0.80413(18)
O3 O 0.5444(6) 0.6523(2) 0.8369(2)
O4 O 0.3481(4) 0.44514(16) 0.87619(17)
O5 O 0.0599(5) 0.57545(19) 0.89493(18)
O6 O 0.1464(6) 0.6261(2) 0.9933(2)
O7 O 0.6753(5) 0.47649(19) 1.08533(17)
H2 H 0.7258 0.4554 1.1162
O8 O 0.8083(5) 0.3796(2) 1.1443(2)
O9 O 0.6673(5) 0.26849(18) 0.97273(19)
C1 C 0.4129(7) 0.4686(3) 0.6444(3)
H5 H 0.4575 0.5097 0.6262
H6 H 0.5066 0.4483 0.6721
C2 C 0.3629(9) 0.4230(4) 0.5837(3)
H7 H 0.3206 0.3812 0.6010
H8 H 0.4647 0.4147 0.5558
C3 C 0.2135(9) 0.4582(4) 0.5384(3)
H9 H 0.2609 0.4984 0.5192
H10 H 0.1797 0.4297 0.4999
C4 C 0.0511(8) 0.4750(4) 0.5782(3)
C5 C 0.1085(7) 0.5148(3) 0.6450(3)
H11 H 0.1607 0.5553 0.6273
C6 C -0.0439(7) 0.5382(3) 0.6878(3)
H12 H -0.1401 0.5517 0.6568
H13 H -0.0851 0.5019 0.7157
C7 C 0.0063(7) 0.5944(3) 0.7343(3)
H14 H 0.0317 0.6330 0.7067
H15 H -0.0903 0.6049 0.7641
C8 C 0.1646(7) 0.5759(3) 0.7774(3)
C9 C 0.3101(6) 0.5399(2) 0.7398(2)
H16 H 0.3597 0.5732 0.7093
C10 C 0.2565(7) 0.4835(3) 0.6913(2)
C11 C 0.4364(7) 0.5410(3) 0.8082(3)
C12 C 0.4316(8) 0.6151(3) 0.8188(3)
C13 C 0.3206(7) 0.5162(3) 0.8677(3)
C14 C 0.1338(7) 0.5347(3) 0.8421(2)
H17 H 0.0613 0.4958 0.8318
C15 C 0.3373(7) 0.5501(2) 0.9357(2)
C16 C 0.1805(7) 0.5892(3) 0.9463(3)
C17 C 0.4418(7) 0.5282(3) 0.9860(3)
H18 H 0.4615 0.5535 1.0256
C18 C -0.0562(10) 0.4141(4) 0.5926(4)
H19 H -0.1007 0.3960 0.5495
H20 H -0.1528 0.4255 0.6212
H21 H 0.0167 0.3821 0.6161
C19 C -0.0601(10) 0.5201(4) 0.5287(3)
H22 H -0.0152 0.5642 0.5311
H23 H -0.1804 0.5198 0.5424
H24 H -0.0534 0.5041 0.4820
C20 C 0.2063(8) 0.4194(3) 0.7285(3)
H25 H 0.0977 0.4257 0.7517
H26 H 0.2974 0.4079 0.7618
H27 H 0.1926 0.3846 0.6950
C21 C 0.5253(6) 0.4655(3) 0.9799(2)
C22 C 0.6295(6) 0.4367(3) 1.0339(3)
C23 C 0.6731(6) 0.3689(3) 1.0344(3)
C24 C 0.6146(7) 0.3322(3) 0.9744(3)
C25 C 0.5121(6) 0.3594(3) 0.9219(2)
H28 H 0.4740 0.3339 0.8843
C26 C 0.4672(6) 0.4238(3) 0.9257(3)
C27 C 0.7592(7) 0.3422(3) 1.0958(3)
C28 C 0.7903(8) 0.2701(3) 1.1060(3)
H29 H 0.8491 0.2630 1.1501
H30 H 0.8622 0.2538 1.0697
H31 H 0.6797 0.2474 1.1048
C29 C 0.6152(9) 0.2294(3) 0.9129(3)
H32 H 0.4899 0.2317 0.9059
H33 H 0.6497 0.1844 0.9206
H34 H 0.6715 0.2461 0.8726
O10 O 0.0690(5) 0.3374(2) 0.2402(2)
H3 H 0.0236 0.3515 0.2041
O11 O 0.2636(6) 0.4726(2) 0.3339(2)
O12 O -0.0179(6) 0.4665(3) 0.2952(2)
O13 O 0.3738(5) 0.3574(2) 0.16244(18)
O14 O 0.5055(6) 0.5033(2) 0.2410(2)
O15 O 0.3691(8) 0.5820(3) 0.1798(3)
O16 O 0.0151(5) 0.4462(2) -0.0169(2)
H4 H -0.0634 0.4350 -0.0445
O17 O -0.0627(5) 0.3745(2) -0.1189(2)
O18 O 0.1847(5) 0.2214(2) -0.0225(2)
C30 C 0.2974(9) 0.2406(3) 0.3476(4)
H35 H 0.2379 0.2305 0.3037
H36 H 0.2092 0.2543 0.3799
C31 C 0.3910(11) 0.1781(4) 0.3758(5)
H37 H 0.3047 0.1437 0.3825
H38 H 0.4735 0.1626 0.3420
C32 C 0.4868(11) 0.1915(4) 0.4427(4)
H39 H 0.5488 0.1519 0.4574
H40 H 0.4018 0.2018 0.4777
C33 C 0.6209(9) 0.2490(3) 0.4390(3)
C34 C 0.5312(8) 0.3091(3) 0.4063(3)
H41 H 0.4422 0.3221 0.4394
C35 C 0.6489(8) 0.3710(3) 0.3990(3)
H42 H 0.7232 0.3754 0.4405
H43 H 0.7249 0.3648 0.3601
C36 C 0.5439(8) 0.4346(3) 0.3881(3)
H44 H 0.4829 0.4455 0.4301
H45 H 0.6231 0.4705 0.3779
C37 C 0.4146(8) 0.4256(3) 0.3295(3)
C38 C 0.3143(7) 0.3603(3) 0.3270(3)
H46 H 0.2380 0.3616 0.3670
C39 C 0.4258(7) 0.2968(3) 0.3372(3)
C40 C 0.1957(8) 0.3819(3) 0.2650(3)
C41 C 0.1235(10) 0.4446(4) 0.2983(3)
C42 C 0.3264(8) 0.4101(3) 0.2079(3)
C43 C 0.4826(8) 0.4351(3) 0.2562(3)
H47 H 0.5905 0.4099 0.2491
C44 C 0.2743(8) 0.4699(3) 0.1690(3)
C45 C 0.3793(11) 0.5238(4) 0.1964(4)
C46 C 0.1953(7) 0.4658(3) 0.1060(3)
H48 H 0.1543 0.5035 0.0834
C47 C 0.7877(10) 0.2248(4) 0.4024(5)
H49 H 0.7549 0.1932 0.3673
H50 H 0.8667 0.2046 0.4359
H51 H 0.8450 0.2615 0.3814
C48 C 0.6748(12) 0.2656(4) 0.5177(4)
H52 H 0.7567 0.3016 0.5189
H53 H 0.7284 0.2277 0.5391
H54 H 0.5717 0.2776 0.5423
C49 C 0.5446(9) 0.2786(4) 0.2751(3)
H55 H 0.6212 0.3148 0.2655
H56 H 0.4717 0.2694 0.2347
H57 H 0.6137 0.2404 0.2869
C50 C 0.1754(8) 0.4032(3) 0.0745(3)
C51 C 0.0926(7) 0.3934(3) 0.0096(3)
C52 C 0.1012(7) 0.3324(3) -0.0250(3)
C53 C 0.1901(7) 0.2802(3) 0.0089(3)
C54 C 0.2775(7) 0.2883(3) 0.0740(3)
H58 H 0.3375 0.2536 0.0953
C55 C 0.2712(7) 0.3490(3) 0.1047(3)
C56 C 0.0262(7) 0.3286(4) -0.0957(3)
C57 C 0.0572(10) 0.2724(4) -0.1433(4)
H59 H 0.0172 0.2838 -0.1894
H60 H -0.0061 0.2345 -0.1278
H61 H 0.1807 0.2625 -0.1433
C58 C 0.2618(10) 0.1667(3) 0.0112(4)
H62 H 0.3866 0.1731 0.0158
H63 H 0.2377 0.1277 -0.0157
H64 H 0.2135 0.1619 0.0563
O19 O 0.6960(7) 0.3929(3) 0.7690(3)
H67 H 0.705(8) 0.359(2) 0.736(3)
H68 H 0.772(8) 0.412(4) 0.802(3)
O20 O 0.565(3) 0.2761(11) 0.7125(10)
H65 H 0.476(4) 0.2771(15) 0.7425(14)
H66 H 0.687(5) 0.272(3) 0.703(3)
loop_
_geom_bond_atom_site_label_1
_geom_bond_atom_site_label_2
_geom_bond_site_symmetry_1
_geom_bond_site_symmetry_2
O1 H1 1_555 1_555
O2 C8 1_555 1_555
O3 C12 1_555 1_555
O4 C13 1_555 1_555
O5 C14 1_555 1_555
O6 C16 1_555 1_555
O7 H2 1_555 1_555
O8 C27 1_555 1_555
O9 C24 1_555 1_555
O10 H3 1_555 1_555
O11 C37 1_555 1_555
O12 C41 1_555 1_555
O13 C42 1_555 1_555
O14 C43 1_555 1_555
O15 C45 1_555 1_555
O16 H4 1_555 1_555
O17 C56 1_555 1_555
O18 C53 1_555 1_555
O19 H67 1_555 1_555
O20 H65 1_555 1_555
C1 H5 1_555 1_555
H6 C1 1_555 1_555
C2 C1 1_555 1_555
H7 C2 1_555 1_555
H8 C2 1_555 1_555
C3 C2 1_555 1_555
H9 C3 1_555 1_555
H10 C3 1_555 1_555
C4 C3 1_555 1_555
C5 C4 1_555 1_555
H11 C5 1_555 1_555
C6 C5 1_555 1_555
H12 C6 1_555 1_555
H13 C6 1_555 1_555
C7 C6 1_555 1_555
H14 C7 1_555 1_555
H15 C7 1_555 1_555
C8 C7 1_555 1_555
C9 C8 1_555 1_555
H16 C9 1_555 1_555
C10 C1 1_555 1_555
C11 O1 1_555 1_555
C12 O2 1_555 1_555
C13 C11 1_555 1_555
C14 C8 1_555 1_555
H17 C14 1_555 1_555
C15 C13 1_555 1_555
C16 O5 1_555 1_555
C17 C15 1_555 1_555
H18 C17 1_555 1_555
C18 C4 1_555 1_555
H19 C18 1_555 1_555
H20 C18 1_555 1_555
H21 C18 1_555 1_555
C19 C4 1_555 1_555
H22 C19 1_555 1_555
H23 C19 1_555 1_555
H24 C19 1_555 1_555
C20 C10 1_555 1_555
H25 C20 1_555 1_555
H26 C20 1_555 1_555
H27 C20 1_555 1_555
C21 C17 1_555 1_555
C22 O7 1_555 1_555
C23 C22 1_555 1_555
C24 C23 1_555 1_555
C25 C24 1_555 1_555
H28 C25 1_555 1_555
C26 O4 1_555 1_555
C27 C23 1_555 1_555
C28 C27 1_555 1_555
H29 C28 1_555 1_555
H30 C28 1_555 1_555
H31 C28 1_555 1_555
C29 O9 1_555 1_555
H32 C29 1_555 1_555
H33 C29 1_555 1_555
H34 C29 1_555 1_555
C30 H35 1_555 1_555
H36 C30 1_555 1_555
C31 C30 1_555 1_555
H37 C31 1_555 1_555
H38 C31 1_555 1_555
C32 C31 1_555 1_555
H39 C32 1_555 1_555
H40 C32 1_555 1_555
C33 C32 1_555 1_555
C34 C33 1_555 1_555
H41 C34 1_555 1_555
C35 C34 1_555 1_555
H42 C35 1_555 1_555
H43 C35 1_555 1_555
C36 C35 1_555 1_555
H44 C36 1_555 1_555
H45 C36 1_555 1_555
C37 C36 1_555 1_555
C38 C37 1_555 1_555
H46 C38 1_555 1_555
C39 C30 1_555 1_555
C40 O10 1_555 1_555
C41 O11 1_555 1_555
C42 C40 1_555 1_555
C43 C37 1_555 1_555
H47 C43 1_555 1_555
C44 C42 1_555 1_555
C45 O14 1_555 1_555
C46 C44 1_555 1_555
H48 C46 1_555 1_555
C47 C33 1_555 1_555
H49 C47 1_555 1_555
H50 C47 1_555 1_555
H51 C47 1_555 1_555
C48 C33 1_555 1_555
H52 C48 1_555 1_555
H53 C48 1_555 1_555
H54 C48 1_555 1_555
C49 C39 1_555 1_555
H55 C49 1_555 1_555
H56 C49 1_555 1_555
H57 C49 1_555 1_555
C50 C46 1_555 1_555
C51 O16 1_555 1_555
C52 C51 1_555 1_555
C53 C52 1_555 1_555
C54 C53 1_555 1_555
H58 C54 1_555 1_555
C55 O13 1_555 1_555
C56 C52 1_555 1_555
C57 C56 1_555 1_555
H59 C57 1_555 1_555
H60 C57 1_555 1_555
H61 C57 1_555 1_555
C58 O18 1_555 1_555
H62 C58 1_555 1_555
H63 C58 1_555 1_555
H64 C58 1_555 1_555
H66 O20 1_555 1_555
H68 O19 1_555 1_555
C5 C10 1_555 1_555
C9 C10 1_555 1_555
C9 C11 1_555 1_555
C11 C12 1_555 1_555
C13 C14 1_555 1_555
C15 C16 1_555 1_555
C21 C22 1_555 1_555
C21 C26 1_555 1_555
C25 C26 1_555 1_555
C34 C39 1_555 1_555
C38 C39 1_555 1_555
C38 C40 1_555 1_555
C40 C41 1_555 1_555
C42 C43 1_555 1_555
C44 C45 1_555 1_555
C50 C51 1_555 1_555
C50 C55 1_555 1_555
C54 C55 1_555 1_555

#END
