
#######################################################################
#
#                 Cambridge Crystallographic Data Centre
#                                CCDC 
#
#######################################################################
#
# If this CIF has been generated from an entry in the Cambridge 
# Structural Database, then it will include bibliographic, chemical, 
# crystal, experimental, refinement or atomic coordinate data resulting 
# from the CCDC's data processing and validation procedures.
#
#######################################################################

data_PAYJUX
_chemical_formula_moiety         'C20 H17 N5 O1'
_chemical_name_systematic        
'[2-(dimethylamino)-7-phenylimidazo[1,2-a][1,3,5]triazin-6-yl](phenyl)methanone'
_symmetry_cell_setting           monoclinic
_symmetry_space_group_name_H-M   'P 21/n'
_symmetry_Int_Tables_number      14
_space_group_name_Hall           '-P 2yn'
loop_
_symmetry_equiv_pos_site_id
_symmetry_equiv_pos_as_xyz
1 x,y,z
2 1/2-x,1/2+y,1/2-z
3 -x,-y,-z
4 1/2+x,1/2-y,1/2+z
_cell_length_a                   8.2708(5)
_cell_length_b                   19.5714(12)
_cell_length_c                   10.5066(8)
_cell_angle_alpha                90
_cell_angle_beta                 103.832(2)
_cell_angle_gamma                90
_cell_volume                     1651.4
_exptl_crystal_colour            yellow
_exptl_crystal_description       needle
_cell_formula_units_Z            4
loop_
_atom_site_label
_atom_site_type_symbol
_atom_site_fract_x
_atom_site_fract_y
_atom_site_fract_z
C1 C 0.0195(4) -0.11448(15) 0.4224(3)
C2 C 0.0389(3) -0.05430(15) 0.2409(3)
H1 H 0.0108 -0.0466 0.1509
C3 C 0.2470(3) 0.04415(14) 0.2962(3)
C4 C 0.3272(3) 0.06565(14) 0.4207(3)
C5 C 0.1828(3) -0.02081(14) 0.4552(3)
C6 C 0.2417(4) 0.06340(14) 0.1608(3)
C7 C 0.3972(4) 0.07946(14) 0.1188(3)
C8 C 0.3833(4) 0.10506(15) -0.0069(3)
H2 H 0.2790 0.1155 -0.0598
C9 C 0.5247(5) 0.11488(17) -0.0527(3)
H3 H 0.5153 0.1320 -0.1367
C10 C 0.6795(5) 0.09948(18) 0.0247(4)
H4 H 0.7741 0.1064 -0.0069
C11 C 0.6941(4) 0.07397(17) 0.1480(4)
H5 H 0.7988 0.0636 0.2000
C12 C 0.5543(4) 0.06346(16) 0.1959(3)
H6 H 0.5652 0.0457 0.2796
C13 C 0.4328(3) 0.12632(14) 0.4619(3)
C14 C 0.4266(4) 0.18381(15) 0.3831(3)
H7 H 0.3579 0.1837 0.2989
C15 C 0.5204(4) 0.24107(17) 0.4275(3)
H8 H 0.5152 0.2790 0.3735
C16 C 0.6219(4) 0.24180(17) 0.5523(3)
H9 H 0.6854 0.2803 0.5823
C17 C 0.6297(4) 0.18587(17) 0.6327(3)
H10 H 0.6981 0.1866 0.7170
C18 C 0.5357(4) 0.12837(15) 0.5879(3)
H11 H 0.5413 0.0907 0.6426
C19 C 0.0164(5) -0.18824(17) 0.6065(3)
H12 H 0.1359 -0.1876 0.6311
H13 H -0.0228 -0.2330 0.6217
H14 H -0.0264 -0.1554 0.6578
C20 C -0.1509(4) -0.21881(17) 0.3827(3)
H15 H -0.2064 -0.1958 0.3036
H16 H -0.2321 -0.2358 0.4266
H17 H -0.0871 -0.2563 0.3616
N1 N -0.0407(3) -0.17123(12) 0.4680(3)
N2 N -0.0262(3) -0.10595(12) 0.2878(2)
N3 N 0.1473(3) -0.01098(11) 0.3197(2)
N4 N 0.2883(3) 0.02582(12) 0.5176(2)
N5 N 0.1167(3) -0.07304(12) 0.5079(2)
O1 O 0.1072(3) 0.06146(12) 0.0795(2)
loop_
_geom_bond_atom_site_label_1
_geom_bond_atom_site_label_2
_geom_bond_site_symmetry_1
_geom_bond_site_symmetry_2
C1 N1 1_555 1_555
C2 H1 1_555 1_555
C3 C4 1_555 1_555
C4 C13 1_555 1_555
C5 N3 1_555 1_555
C6 C3 1_555 1_555
C7 C6 1_555 1_555
C8 C7 1_555 1_555
H2 C8 1_555 1_555
C9 C8 1_555 1_555
H3 C9 1_555 1_555
C10 C9 1_555 1_555
H4 C10 1_555 1_555
C11 C10 1_555 1_555
H5 C11 1_555 1_555
C12 C7 1_555 1_555
H6 C12 1_555 1_555
C13 C14 1_555 1_555
C14 H7 1_555 1_555
C15 C14 1_555 1_555
H8 C15 1_555 1_555
C16 C15 1_555 1_555
H9 C16 1_555 1_555
C17 C16 1_555 1_555
H10 C17 1_555 1_555
C18 C13 1_555 1_555
H11 C18 1_555 1_555
C19 H12 1_555 1_555
H13 C19 1_555 1_555
H14 C19 1_555 1_555
C20 H15 1_555 1_555
H16 C20 1_555 1_555
H17 C20 1_555 1_555
N1 C19 1_555 1_555
N2 C1 1_555 1_555
N3 C2 1_555 1_555
N4 C4 1_555 1_555
N5 C1 1_555 1_555
O1 C6 1_555 1_555
C2 N2 1_555 1_555
C3 N3 1_555 1_555
C5 N4 1_555 1_555
C5 N5 1_555 1_555
C11 C12 1_555 1_555
C17 C18 1_555 1_555
C20 N1 1_555 1_555

#END
