
#######################################################################
#
#                 Cambridge Crystallographic Data Centre
#                                CCDC 
#
#######################################################################
#
# If this CIF has been generated from an entry in the Cambridge 
# Structural Database, then it will include bibliographic, chemical, 
# crystal, experimental, refinement or atomic coordinate data resulting 
# from the CCDC's data processing and validation procedures.
#
#######################################################################

data_PAYSOA
_chemical_formula_moiety         'C15 H15 F2 N3 O3'
_chemical_name_systematic        
"ethyl 5'-(difluoromethyl)-1-methyl-2-oxo-1,2,4',5'-tetrahydrospiro[indole-3,3'-pyrazole]-4'-carboxylate"
_symmetry_cell_setting           monoclinic
_symmetry_space_group_name_H-M   'P 21/n'
_symmetry_Int_Tables_number      14
_space_group_name_Hall           '-P 2yn'
loop_
_symmetry_equiv_pos_site_id
_symmetry_equiv_pos_as_xyz
1 x,y,z
2 1/2-x,1/2+y,1/2-z
3 -x,-y,-z
4 1/2+x,1/2-y,1/2+z
_cell_length_a                   9.1037(4)
_cell_length_b                   18.2464(8)
_cell_length_c                   9.7398(5)
_cell_angle_alpha                90
_cell_angle_beta                 105.614(2)
_cell_angle_gamma                90
_cell_volume                     1558.17
_exptl_crystal_colour            colorless
_exptl_crystal_description       block
_cell_formula_units_Z            4
loop_
_atom_site_label
_atom_site_type_symbol
_atom_site_fract_x
_atom_site_fract_y
_atom_site_fract_z
H1 H 0.313(2) -0.0037(11) 0.050(2)
H2 H 0.3941(17) 0.0033(9) 0.3454(16)
C1 C 0.5074(2) 0.21681(9) 0.3222(2)
C2 C 0.5895(2) 0.27779(11) 0.3055(3)
H3 H 0.6211 0.3120 0.3782
C3 C 0.6230(3) 0.28607(12) 0.1768(3)
H4 H 0.6787 0.3267 0.1625
C4 C 0.5760(3) 0.23574(13) 0.0689(3)
H5 H 0.6003 0.2429 -0.0170
C5 C 0.4927(2) 0.17426(11) 0.0866(2)
H6 H 0.4604 0.1402 0.0137
C6 C 0.45952(19) 0.16532(9) 0.21446(18)
C7 C 0.36856(17) 0.10773(9) 0.26643(17)
C8 C 0.3775(2) 0.13374(9) 0.4184(2)
C9 C 0.4985(3) 0.23556(13) 0.5770(2)
H7 H 0.4486 0.2824 0.5657
H8 H 0.6069 0.2425 0.6077
H9 H 0.4663 0.2074 0.6469
N1 N 0.20638(17) 0.11353(10) 0.17726(19)
N2 N 0.16415(18) 0.05824(10) 0.10408(19)
C10 C 0.2815(2) -0.00005(10) 0.1303(2)
C11 C 0.40607(18) 0.02586(8) 0.25906(18)
C12 C 0.2024(3) -0.07026(11) 0.1450(3)
C13 C 0.56660(19) 0.01165(9) 0.25315(18)
O1 O 0.66243(13) 0.04474(7) 0.36209(15)
C14 C 0.8245(2) 0.03805(14) 0.3760(3)
H10 H 0.8442 -0.0063 0.3289
H11 H 0.8801 0.0349 0.4759
C15 C 0.8762(8) 0.1011(5) 0.3117(16)
H12 H 0.9833 0.0964 0.3203
H13 H 0.8582 0.1448 0.3594
H14 H 0.8214 0.1037 0.2128
F1 F 0.3035(10) -0.1251(3) 0.178(2)
F2 F 0.1391(16) -0.0656(5) 0.2547(11)
N3 N 0.45826(17) 0.19688(8) 0.44150(16)
O2 O 0.32210(19) 0.10233(8) 0.50174(16)
O3 O 0.60212(15) -0.02381(8) 0.16411(14)
H15 H 0.120(3) -0.0839(11) 0.063(2)
H16? H 0.8702 0.0076 0.4581
H17? H 0.8390 0.0136 0.2922
C16? C 0.8995(11) 0.1055(7) 0.392(3)
H18? H 1.0058 0.0979 0.4001
H19? H 0.8881 0.1294 0.4763
H20? H 0.8560 0.1357 0.3103
F3? F 0.2932(14) -0.1273(3) 0.136(3)
F4? F 0.181(3) -0.0757(9) 0.2760(15)
loop_
_geom_bond_atom_site_label_1
_geom_bond_atom_site_label_2
_geom_bond_site_symmetry_1
_geom_bond_site_symmetry_2
H1 C10 1_555 1_555
H2 C11 1_555 1_555
C1 C2 1_555 1_555
C2 H3 1_555 1_555
C3 C2 1_555 1_555
H4 C3 1_555 1_555
C4 C3 1_555 1_555
H5 C4 1_555 1_555
C5 C4 1_555 1_555
H6 C5 1_555 1_555
C6 C1 1_555 1_555
C7 C6 1_555 1_555
C8 C7 1_555 1_555
C9 H7 1_555 1_555
H8 C9 1_555 1_555
H9 C9 1_555 1_555
N1 C7 1_555 1_555
N2 N1 1_555 1_555
C10 N2 1_555 1_555
C11 C7 1_555 1_555
C12 C10 1_555 1_555
C13 C11 1_555 1_555
O1 C13 1_555 1_555
C14 O1 1_555 1_555
H10 C14 1_555 1_555
H11 C14 1_555 1_555
C15 C14 1_555 1_555
H12 C15 1_555 1_555
H13 C15 1_555 1_555
H14 C15 1_555 1_555
F1 C12 1_555 1_555
F2 C12 1_555 1_555
N3 C1 1_555 1_555
O2 C8 1_555 1_555
O3 C13 1_555 1_555
H15 C12 1_555 1_555
C5 C6 1_555 1_555
C8 N3 1_555 1_555
C9 N3 1_555 1_555
C10 C11 1_555 1_555

#END
