
#######################################################################
#
#                 Cambridge Crystallographic Data Centre
#                                CCDC 
#
#######################################################################
#
# If this CIF has been generated from an entry in the Cambridge 
# Structural Database, then it will include bibliographic, chemical, 
# crystal, experimental, refinement or atomic coordinate data resulting 
# from the CCDC's data processing and validation procedures.
#
#######################################################################

data_PAZGUV
_chemical_formula_moiety         'C21 H20 N8'
_chemical_name_systematic        
2-((4-methylphenyl)diazenyl)-1-((2-((4-methylphenyl)diazenyl)-1H-imidazol-1-yl)methyl)-1H-imidazole
_symmetry_cell_setting           orthorhombic
_symmetry_space_group_name_H-M   'P b c a'
_symmetry_Int_Tables_number      61
_space_group_name_Hall           '-P 2ac 2ab'
loop_
_symmetry_equiv_pos_site_id
_symmetry_equiv_pos_as_xyz
1 x,y,z
2 1/2-x,-y,1/2+z
3 -x,1/2+y,1/2-z
4 1/2+x,1/2-y,-z
5 -x,-y,-z
6 1/2+x,y,1/2-z
7 x,1/2-y,1/2+z
8 1/2-x,1/2+y,z
_cell_length_a                   19.0106(18)
_cell_length_b                   10.6295(10)
_cell_length_c                   19.6066(19)
_cell_angle_alpha                90
_cell_angle_beta                 90
_cell_angle_gamma                90
_cell_volume                     3961.97
_exptl_crystal_colour            red
_exptl_crystal_description       block
_cell_formula_units_Z            8
loop_
_atom_site_label
_atom_site_type_symbol
_atom_site_fract_x
_atom_site_fract_y
_atom_site_fract_z
C1 C 0.01308(9) 1.16048(15) 0.26690(8)
H1 H -0.0052 1.1914 0.3076
C2 C 0.07281(8) 1.20328(13) 0.23737(7)
H2 H 0.1017 1.2677 0.2530
C3 C 0.02611(6) 1.05121(12) 0.17735(6)
C4 C -0.03837(7) 0.82093(12) 0.06529(6)
C5 C 0.01252(8) 0.80797(15) 0.01553(8)
H3 H 0.0515 0.8608 0.0154
C6 C 0.00548(8) 0.71712(15) -0.03371(8)
H4 H 0.0403 0.7095 -0.0668
C7 C -0.05142(7) 0.63657(12) -0.03581(7)
C8 C -0.10295(7) 0.65303(14) 0.01279(8)
H5 H -0.1426 0.6017 0.0120
C9 C -0.09701(8) 0.74461(14) 0.06294(8)
H6 H -0.1326 0.7545 0.0950
C10 C -0.05608(9) 0.53544(15) -0.08948(8)
H7 H -0.0545 0.5732 -0.1339
H8 H -0.0995 0.4902 -0.0843
H9 H -0.0173 0.4784 -0.0844
C11 C 0.14099(7) 1.14088(11) 0.13283(6)
H10 H 0.1543 1.2284 0.1274
H11 H 0.1269 1.1090 0.0885
C12 C 0.24256(7) 1.09842(13) 0.21189(7)
H12 H 0.2379 1.1675 0.2406
C13 C 0.29164(8) 1.00640(14) 0.21606(8)
H13 H 0.3266 1.0027 0.2491
C14 C 0.22841(7) 0.96082(11) 0.13051(6)
C15 C 0.20436(6) 0.78206(11) -0.01838(6)
C16 C 0.21841(8) 0.65995(13) -0.03843(7)
H14 H 0.2421 0.6060 -0.0090
C17 C 0.19735(8) 0.61741(13) -0.10205(7)
H15 H 0.2066 0.5347 -0.1147
C18 C 0.16285(6) 0.69591(13) -0.14695(6)
C19 C 0.15180(7) 0.82073(12) -0.12740(6)
H16 H 0.1305 0.8760 -0.1578
C20 C 0.17182(6) 0.86355(11) -0.06411(6)
H17 H 0.1636 0.9468 -0.0519
C21 C 0.13519(8) 0.64852(15) -0.21417(7)
H18 H 0.1558 0.5682 -0.2241
H19 H 0.1471 0.7071 -0.2496
H20 H 0.0850 0.6401 -0.2116
N1 N -0.01686(7) 1.06649(12) 0.22964(6)
N2 N 0.08192(6) 1.13229(9) 0.17970(5)
N3 N 0.02166(6) 0.96922(10) 0.12255(5)
N4 N -0.03506(6) 0.90755(11) 0.12034(5)
N5 N 0.20139(5) 1.06957(9) 0.15722(5)
N6 N 0.28304(6) 0.92012(11) 0.16558(6)
N7 N 0.20116(5) 0.91866(9) 0.06853(5)
N8 N 0.22694(6) 0.81639(10) 0.04816(5)
loop_
_geom_bond_atom_site_label_1
_geom_bond_atom_site_label_2
_geom_bond_site_symmetry_1
_geom_bond_site_symmetry_2
C1 H1 1_555 1_555
C2 C1 1_555 1_555
H2 C2 1_555 1_555
C3 N1 1_555 1_555
C4 C5 1_555 1_555
C5 H3 1_555 1_555
C6 C5 1_555 1_555
H4 C6 1_555 1_555
C7 C6 1_555 1_555
C8 C7 1_555 1_555
H5 C8 1_555 1_555
C9 C4 1_555 1_555
H6 C9 1_555 1_555
C10 C7 1_555 1_555
H7 C10 1_555 1_555
H8 C10 1_555 1_555
H9 C10 1_555 1_555
C11 H10 1_555 1_555
H11 C11 1_555 1_555
C12 H12 1_555 1_555
C13 C12 1_555 1_555
H13 C13 1_555 1_555
C14 N5 1_555 1_555
C15 C16 1_555 1_555
C16 H14 1_555 1_555
C17 C16 1_555 1_555
H15 C17 1_555 1_555
C18 C17 1_555 1_555
C19 C18 1_555 1_555
H16 C19 1_555 1_555
C20 C15 1_555 1_555
H17 C20 1_555 1_555
C21 C18 1_555 1_555
H18 C21 1_555 1_555
H19 C21 1_555 1_555
H20 C21 1_555 1_555
N1 C1 1_555 1_555
N2 C2 1_555 1_555
N3 C3 1_555 1_555
N4 C4 1_555 1_555
N5 C11 1_555 1_555
N6 C13 1_555 1_555
N7 C14 1_555 1_555
N8 C15 1_555 1_555
C3 N2 1_555 1_555
C8 C9 1_555 1_555
C11 N2 1_555 1_555
C12 N5 1_555 1_555
C14 N6 1_555 1_555
C19 C20 1_555 1_555
N3 N4 1_555 1_555
N7 N8 1_555 1_555

#END
