
#######################################################################
#
#                 Cambridge Crystallographic Data Centre
#                                CCDC 
#
#######################################################################
#
# If this CIF has been generated from an entry in the Cambridge 
# Structural Database, then it will include bibliographic, chemical, 
# crystal, experimental, refinement or atomic coordinate data resulting 
# from the CCDC's data processing and validation procedures.
#
#######################################################################

data_PAZMBU
_chemical_formula_moiety         'C18 H18 N4'
_chemical_name_systematic        
1,4-bis(Phenylazo)-1,3-dimethyl-buta-1,4-diene
_symmetry_cell_setting           monoclinic
_symmetry_space_group_name_H-M   'P 21/n'
_symmetry_Int_Tables_number      14
_space_group_name_Hall           '-P 2yn'
loop_
_symmetry_equiv_pos_site_id
_symmetry_equiv_pos_as_xyz
1 x,y,z
2 1/2-x,1/2+y,1/2-z
3 -x,-y,-z
4 1/2+x,1/2-y,1/2+z
_cell_length_a                   11.062
_cell_length_b                   15.310
_cell_length_c                   4.642
_cell_angle_alpha                90
_cell_angle_beta                 93.612
_cell_angle_gamma                90
_cell_volume                     784.604
_exptl_crystal_colour            'deep red'
_cell_formula_units_Z            2
loop_
_atom_site_label
_atom_site_type_symbol
_atom_site_fract_x
_atom_site_fract_y
_atom_site_fract_z
C1 C -0.00240 0.46380 0.40160
C2 C 0.09410 0.41820 0.31750
C3 C 0.22290 0.43300 0.41990
C4 C 0.12220 0.24340 -0.17620
C5 C 0.00450 0.22050 -0.27080
C6 C -0.01310 0.15430 -0.47180
C7 C 0.08450 0.11160 -0.58050
C8 C 0.20150 0.13470 -0.48770
C9 C 0.22010 0.20010 -0.28370
N1 N 0.15340 0.31050 0.02890
N2 N 0.06250 0.35120 0.11590
H1 H -0.08800 0.44600 0.31000
H2 H 0.26200 0.37800 0.48700
H3 H 0.23600 0.48100 0.56200
H4 H 0.27100 0.44700 0.25800
H5 H -0.06500 0.25100 -0.19100
H6 H -0.09700 0.13700 -0.53500
H7 H 0.07200 0.06400 -0.72200
H8 H 0.27000 0.10500 -0.56600
H9 H 0.30500 0.21900 -0.21300
C1B C 0.00240 0.53620 0.59840
C2B C -0.09410 0.58180 0.68250
H1B H 0.08800 0.55400 0.69000
C3B C -0.22290 0.56700 0.58010
N2B N -0.06250 0.64880 0.88410
H2B H -0.26200 0.62200 0.51300
H3B H -0.23600 0.51900 0.43800
H4B H -0.27100 0.55300 0.74200
N1B N -0.15340 0.68950 0.97110
C4B C -0.12220 0.75660 1.17620
C5B C -0.00450 0.77950 1.27080
C9B C -0.22010 0.79990 1.28370
C6B C 0.01310 0.84570 1.47180
H5B H 0.06500 0.74900 1.19100
C8B C -0.20150 0.86530 1.48770
H9B H -0.30500 0.78100 1.21300
C7B C -0.08450 0.88840 1.58050
H6B H 0.09700 0.86300 1.53500
H8B H -0.27000 0.89500 1.56600
H7B H -0.07200 0.93600 1.72200
loop_
_geom_bond_atom_site_label_1
_geom_bond_atom_site_label_2
_geom_bond_site_symmetry_1
_geom_bond_site_symmetry_2
C1 C2 1_555 1_555
C2 C3 1_555 1_555
C3 H2 1_555 1_555
C4 C5 1_555 1_555
C5 C6 1_555 1_555
C6 C7 1_555 1_555
C7 C8 1_555 1_555
C8 C9 1_555 1_555
C9 C4 1_555 1_555
N1 C4 1_555 1_555
N2 C2 1_555 1_555
H1 C1 1_555 1_555
H3 C3 1_555 1_555
H4 C3 1_555 1_555
H5 C5 1_555 1_555
H6 C6 1_555 1_555
H7 C7 1_555 1_555
H8 C8 1_555 1_555
H9 C9 1_555 1_555
C1B C1 1_555 1_555
C2B C1B 1_555 1_555
H1B C1B 1_555 1_555
C3B C2B 1_555 1_555
N2B C2B 1_555 1_555
H2B C3B 1_555 1_555
H3B C3B 1_555 1_555
H4B C3B 1_555 1_555
N1B N2B 1_555 1_555
C4B N1B 1_555 1_555
C5B C4B 1_555 1_555
C9B C4B 1_555 1_555
C6B C5B 1_555 1_555
H5B C5B 1_555 1_555
C8B C9B 1_555 1_555
H9B C9B 1_555 1_555
C7B C6B 1_555 1_555
H6B C6B 1_555 1_555
H8B C8B 1_555 1_555
H7B C7B 1_555 1_555
N1 N2 1_555 1_555
C8B C7B 1_555 1_555

#END
