
#######################################################################
#
#                 Cambridge Crystallographic Data Centre
#                                CCDC 
#
#######################################################################
#
# If this CIF has been generated from an entry in the Cambridge 
# Structural Database, then it will include bibliographic, chemical, 
# crystal, experimental, refinement or atomic coordinate data resulting 
# from the CCDC's data processing and validation procedures.
#
#######################################################################

data_PAZSUH
_chemical_formula_moiety         'C32 H24 Br2 F3 N1 O8'
_chemical_name_systematic        
"diethyl 12-bromo-3-(4-bromophenyl)-15-hydroxy-4-oxo-15-(trifluoromethyl)-1,13b-dihydro-4H-8b,3-(epoxymethano)indeno[1',2':2,3][1]benzopyrano[4,3-b]pyrrole-2,2(3H)-dicarboxylate"
_symmetry_cell_setting           triclinic
_symmetry_space_group_name_H-M   'P -1'
_symmetry_Int_Tables_number      2
_space_group_name_Hall           '-P 1'
loop_
_symmetry_equiv_pos_site_id
_symmetry_equiv_pos_as_xyz
1 x,y,z
2 -x,-y,-z
_cell_length_a                   9.7847(11)
_cell_length_b                   13.1195(16)
_cell_length_c                   13.9270(15)
_cell_angle_alpha                113.199(8)
_cell_angle_beta                 98.631(9)
_cell_angle_gamma                105.657(9)
_cell_volume                     1514.44
_exptl_crystal_colour            colorless
_exptl_crystal_description       prism
_cell_formula_units_Z            2
loop_
_atom_site_label
_atom_site_type_symbol
_atom_site_fract_x
_atom_site_fract_y
_atom_site_fract_z
C1 C 0.2790(11) 0.3894(9) 1.1889(7)
C2 C 0.2373(10) 0.2702(8) 1.1220(7)
H1 H 0.1986 0.2145 1.1468
C3 C 0.2524(10) 0.2320(7) 1.0174(6)
C4 C 0.3008(10) 0.3151(8) 0.9810(6)
C5 C 0.3438(11) 0.4358(8) 1.0487(7)
H2 H 0.3782 0.4919 1.0235
C6 C 0.3346(11) 0.4714(8) 1.1542(7)
H3 H 0.3670 0.5530 1.2025
C7 C 0.2108(10) 0.1035(7) 0.9393(6)
H4 H 0.1454 0.0530 0.9638
C8 C 0.2910(10) -0.0452(8) 0.8300(7)
C9 C 0.1953(13) -0.1423(8) 0.8549(7)
C10 C 0.1880(14) -0.2920(12) 0.9107(13)
H5 H 0.1504 -0.2512 0.9704
H6 H 0.1039 -0.3566 0.8500
C11 C 0.2920(15) -0.3388(11) 0.9471(10)
H7 H 0.2426 -0.3948 0.9713
H8 H 0.3746 -0.2740 1.0071
H9 H 0.3283 -0.3788 0.8873
C12 C 0.4334(12) -0.0739(8) 0.8118(7)
C13 C 0.5268(11) -0.2043(9) 0.6930(8)
H10 H 0.5403 -0.2499 0.7326
H11 H 0.6196 -0.1369 0.7172
C14 C 0.1937(10) -0.0239(7) 0.7435(6)
C15 C 0.2964(10) 0.0547(8) 0.7014(7)
C16 C 0.3073(14) 0.0003(10) 0.5834(8)
C17 C 0.1850(11) 0.1802(8) 0.7943(7)
C18 C 0.1350(9) 0.0713(7) 0.8195(6)
C19 C -0.0339(11) 0.0442(8) 0.8048(7)
C20 C -0.0714(11) 0.1340(7) 0.7790(7)
C21 C -0.2086(12) 0.1474(9) 0.7619(8)
H12 H -0.2924 0.0941 0.7646
C22 C -0.2194(12) 0.2383(9) 0.7412(8)
H13 H -0.3109 0.2485 0.7299
C23 C -0.0933(13) 0.3170(9) 0.7369(8)
H14 H -0.1026 0.3784 0.7208
C24 C 0.0432(11) 0.3068(8) 0.7555(7)
H15 H 0.1273 0.3614 0.7546
C25 C 0.0521(11) 0.2128(8) 0.7757(7)
C26 C 0.0700(11) -0.1335(8) 0.6479(7)
C27 C 0.0770(11) -0.2468(8) 0.6146(7)
H16 H 0.1569 -0.2573 0.6513
C28 C -0.0350(13) -0.3443(9) 0.5267(8)
H17 H -0.0311 -0.4208 0.5038
C29 C -0.1512(12) -0.3282(8) 0.4735(7)
C30 C -0.1556(12) -0.2179(9) 0.5036(7)
H18 H -0.2353 -0.2083 0.4658
C31 C -0.0450(11) -0.1195(8) 0.5890(7)
H19 H -0.0474 -0.0431 0.6072
C32 C 0.4876(13) -0.2809(10) 0.5737(8)
H20 H 0.5663 -0.3105 0.5572
H21 H 0.4751 -0.2349 0.5353
H22 H 0.3959 -0.3474 0.5507
N1 N 0.3402(8) 0.0700(6) 0.9275(5)
H23 H 0.4303 0.1110 0.9705
O1 O 0.0728(8) -0.1537(6) 0.8618(5)
O2 O 0.2702(8) -0.2066(6) 0.8745(6)
O3 O 0.5479(8) -0.0228(6) 0.8825(5)
O4 O 0.4063(7) -0.1615(5) 0.7151(5)
O5 O 0.4432(7) 0.1086(5) 0.7652(5)
H24 H 0.4466 0.1400 0.8306
O6 O 0.2304(6) 0.1391(5) 0.7003(4)
O7 O -0.1149(7) -0.0301(5) 0.8207(5)
O8 O 0.3117(6) 0.2800(5) 0.8761(4)
Br1 Br 0.25455(14) 0.43762(10) 1.33033(8)
Br2 Br -0.30923(14) -0.46208(10) 0.35809(8)
F1 F 0.3511(7) -0.0925(5) 0.5616(4)
F2 F 0.4071(7) 0.0810(5) 0.5698(4)
F3 F 0.1810(7) -0.0361(5) 0.5080(4)
loop_
_geom_bond_atom_site_label_1
_geom_bond_atom_site_label_2
_geom_bond_site_symmetry_1
_geom_bond_site_symmetry_2
C1 C2 1_555 1_555
C2 H1 1_555 1_555
C3 C2 1_555 1_555
C4 C3 1_555 1_555
C5 C4 1_555 1_555
H2 C5 1_555 1_555
C6 C1 1_555 1_555
H3 C6 1_555 1_555
C7 C3 1_555 1_555
H4 C7 1_555 1_555
C8 C9 1_555 1_555
C9 O1 1_555 1_555
C10 H5 1_555 1_555
H6 C10 1_555 1_555
C11 C10 1_555 1_555
H7 C11 1_555 1_555
H8 C11 1_555 1_555
H9 C11 1_555 1_555
C12 C8 1_555 1_555
C13 H10 1_555 1_555
H11 C13 1_555 1_555
C14 C8 1_555 1_555
C15 C14 1_555 1_555
C16 C15 1_555 1_555
C17 C18 1_555 1_555
C18 C7 1_555 1_555
C19 C18 1_555 1_555
C20 C19 1_555 1_555
C21 C20 1_555 1_555
H12 C21 1_555 1_555
C22 C21 1_555 1_555
H13 C22 1_555 1_555
C23 C22 1_555 1_555
H14 C23 1_555 1_555
C24 C23 1_555 1_555
H15 C24 1_555 1_555
C25 C17 1_555 1_555
C26 C14 1_555 1_555
C27 C26 1_555 1_555
H16 C27 1_555 1_555
C28 C27 1_555 1_555
H17 C28 1_555 1_555
C29 C28 1_555 1_555
C30 C29 1_555 1_555
H18 C30 1_555 1_555
C31 C26 1_555 1_555
H19 C31 1_555 1_555
C32 C13 1_555 1_555
H20 C32 1_555 1_555
H21 C32 1_555 1_555
H22 C32 1_555 1_555
N1 C7 1_555 1_555
H23 N1 1_555 1_555
O2 C9 1_555 1_555
O3 C12 1_555 1_555
O4 C12 1_555 1_555
O5 C15 1_555 1_555
H24 O5 1_555 1_555
O6 C15 1_555 1_555
O7 C19 1_555 1_555
O8 C4 1_555 1_555
Br1 C1 1_555 1_555
Br2 C29 1_555 1_555
F1 C16 1_555 1_555
F2 C16 1_555 1_555
F3 C16 1_555 1_555
C5 C6 1_555 1_555
C8 N1 1_555 1_555
C10 O2 1_555 1_555
C13 O4 1_555 1_555
C14 C18 1_555 1_555
C17 O6 1_555 1_555
C17 O8 1_555 1_555
C20 C25 1_555 1_555
C24 C25 1_555 1_555
C30 C31 1_555 1_555

#END
