
#######################################################################
#
#                 Cambridge Crystallographic Data Centre
#                                CCDC 
#
#######################################################################
#
# If this CIF has been generated from an entry in the Cambridge 
# Structural Database, then it will include bibliographic, chemical, 
# crystal, experimental, refinement or atomic coordinate data resulting 
# from the CCDC's data processing and validation procedures.
#
#######################################################################

data_PAZTUG
_chemical_formula_moiety         'C24 H31 N1 O9 S1,C1 H4 O1'
_chemical_name_systematic        
'Methyl (S)-2-phenyl-2-(((2R,4S,6S)-4-((\a-D-galactopyranosyl)methyl)-6-(thiazol-2-yl)tetrahydropyran-2-yl)oxy)acetate methanol solvate'
_symmetry_cell_setting           monoclinic
_symmetry_space_group_name_H-M   'P 21'
_symmetry_Int_Tables_number      4
_space_group_name_Hall           'P 2yb'
loop_
_symmetry_equiv_pos_site_id
_symmetry_equiv_pos_as_xyz
1 x,y,z
2 -x,1/2+y,-z
_cell_length_a                   12.5130(3)
_cell_length_b                   8.1850(2)
_cell_length_c                   13.6220(3)
_cell_angle_alpha                90
_cell_angle_beta                 103.8080(15)
_cell_angle_gamma                90
_cell_volume                     1354.83
_exptl_crystal_colour            colorless
_exptl_crystal_description       prism
_chemical_melting_point          206-208deg.C
_cell_formula_units_Z            2
loop_
_atom_site_label
_atom_site_type_symbol
_atom_site_fract_x
_atom_site_fract_y
_atom_site_fract_z
O1 O 0.17706(11) 0.93122(18) 0.27206(10)
C1 C 0.27279(16) 0.9099(2) 0.35231(13)
H1 H 0.3188 1.0081 0.3594
C2 C 0.33810(15) 0.7629(2) 0.33284(13)
H2 H 0.2935 0.6651 0.3290
H3 H 0.4028 0.7498 0.3880
C3 C 0.37300(15) 0.7863(2) 0.23360(13)
H4 H 0.4240 0.8789 0.2413
C4 C 0.27153(15) 0.8259(2) 0.14875(14)
H5 H 0.2948 0.8556 0.0881
H6 H 0.2253 0.7296 0.1337
C5 C 0.20528(15) 0.9658(2) 0.17869(14)
H7 H 0.2479 1.0674 0.1847
C6 C 0.09845(16) 0.9863(3) 0.10170(15)
S1 S -0.02483(5) 0.93537(11) 0.12869(5)
C7 C -0.0911(2) 0.9766(5) 0.0060(2)
H8 H -0.1665 0.9661 -0.0209
C8 C -0.0183(2) 1.0262(4) -0.04545(18)
H9 H -0.0392 1.0557 -0.1133
N1 N 0.09037(16) 1.0306(3) 0.00912(14)
C9 C 0.43204(15) 0.6338(2) 0.20838(13)
H10 H 0.4937 0.6095 0.2647
H11 H 0.3818 0.5419 0.2000
C10 C 0.47412(14) 0.6531(2) 0.11259(13)
H12 H 0.4099 0.6770 0.0574
C11 C 0.52803(16) 0.4994(2) 0.08188(13)
H13 H 0.5342 0.5129 0.0120
C12 C 0.64270(15) 0.4693(2) 0.14851(13)
H14 H 0.6370 0.4437 0.2173
C13 C 0.71286(15) 0.6225(2) 0.15058(14)
H15 H 0.7850 0.6063 0.1970
C14 C 0.65413(14) 0.7653(2) 0.18664(13)
H16 H 0.6451 0.7429 0.2549
O2 O 0.54811(11) 0.79026(15) 0.11920(9)
O3 O 0.45746(13) 0.3634(2) 0.08568(12)
H17 H 0.434(2) 0.323(4) 0.024(2)
O4 O 0.69322(13) 0.33611(17) 0.10980(12)
H18 H 0.6870(19) 0.266(3) 0.1422(18)
O5 O 0.72652(14) 0.66282(19) 0.05296(11)
H19 H 0.769(3) 0.616(5) 0.039(2)
C15 C 0.71585(17) 0.9255(2) 0.18652(16)
H20 H 0.7918 0.9100 0.2230
H21 H 0.7157 0.9536 0.1173
O6 O 0.67095(15) 1.05753(17) 0.23051(12)
H22 H 0.602(2) 1.043(3) 0.2212(18)
O7 O 0.23579(12) 0.88501(17) 0.44058(10)
C16 C 0.18832(18) 1.0285(3) 0.47089(14)
C17 C 0.2786(2) 1.1549(3) 0.51165(14)
O8 O 0.23853(19) 1.3046(2) 0.49028(14)
C18 C 0.3135(4) 1.4381(3) 0.5268(2)
H23 H 0.2791 1.5397 0.5018
H24 H 0.3794 1.4241 0.5035
H25 H 0.3314 1.4390 0.5994
O9 O 0.37075(15) 1.1244(2) 0.55620(13)
C19 C 0.12861(17) 0.9856(3) 0.55228(14)
C20 C 0.0464(2) 1.0883(4) 0.56854(19)
H26 H 0.0299 1.1837 0.5309
C21 C -0.0113(2) 1.0497(5) 0.6405(2)
H27 H -0.0654 1.1203 0.6518
C22 C 0.0113(2) 0.9061(4) 0.69562(18)
H28 H -0.0298 0.8775 0.7416
C23 C 0.0954(2) 0.8059(3) 0.68183(17)
H29 H 0.1124 0.7112 0.7201
C24 C 0.15465(18) 0.8466(3) 0.61057(16)
H30 H 0.2120 0.7798 0.6023
O10 O 0.46399(18) 0.1682(2) 0.24787(18)
H31 H 0.449(3) 0.233(4) 0.202(2)
C25 C 0.4940(3) 0.2480(3) 0.3418(2)
H32 H 0.4996 0.1694 0.3951
H33 H 0.4391 0.3278 0.3462
H34 H 0.5637 0.3012 0.3483
loop_
_geom_bond_atom_site_label_1
_geom_bond_atom_site_label_2
_geom_bond_site_symmetry_1
_geom_bond_site_symmetry_2
O1 C1 1_555 1_555
C1 H1 1_555 1_555
C2 C1 1_555 1_555
H2 C2 1_555 1_555
H3 C2 1_555 1_555
C3 C2 1_555 1_555
H4 C3 1_555 1_555
C4 C3 1_555 1_555
H5 C4 1_555 1_555
H6 C4 1_555 1_555
C5 O1 1_555 1_555
H7 C5 1_555 1_555
C6 C5 1_555 1_555
S1 C6 1_555 1_555
C7 S1 1_555 1_555
H8 C7 1_555 1_555
C8 C7 1_555 1_555
H9 C8 1_555 1_555
N1 C6 1_555 1_555
C9 C3 1_555 1_555
H10 C9 1_555 1_555
H11 C9 1_555 1_555
C10 C9 1_555 1_555
H12 C10 1_555 1_555
C11 C10 1_555 1_555
H13 C11 1_555 1_555
C12 C11 1_555 1_555
H14 C12 1_555 1_555
C13 C12 1_555 1_555
H15 C13 1_555 1_555
C14 C13 1_555 1_555
H16 C14 1_555 1_555
O2 C10 1_555 1_555
O3 C11 1_555 1_555
H17 O3 1_555 1_555
O4 C12 1_555 1_555
H18 O4 1_555 1_555
O5 C13 1_555 1_555
H19 O5 1_555 1_555
C15 C14 1_555 1_555
H20 C15 1_555 1_555
H21 C15 1_555 1_555
O6 C15 1_555 1_555
H22 O6 1_555 1_555
O7 C1 1_555 1_555
C16 O7 1_555 1_555
C17 C16 1_555 1_555
O8 C17 1_555 1_555
C18 O8 1_555 1_555
H23 C18 1_555 1_555
H24 C18 1_555 1_555
H25 C18 1_555 1_555
O9 C17 1_555 1_555
C19 C16 1_555 1_555
C20 C19 1_555 1_555
H26 C20 1_555 1_555
C21 C20 1_555 1_555
H27 C21 1_555 1_555
C22 C21 1_555 1_555
H28 C22 1_555 1_555
C23 C22 1_555 1_555
H29 C23 1_555 1_555
C24 C19 1_555 1_555
H30 C24 1_555 1_555
O10 H31 1_555 1_555
C25 O10 1_555 1_555
H32 C25 1_555 1_555
H33 C25 1_555 1_555
H34 C25 1_555 1_555
C4 C5 1_555 1_555
C8 N1 1_555 1_555
C14 O2 1_555 1_555
C23 C24 1_555 1_555

#END
