
#######################################################################
#
#                 Cambridge Crystallographic Data Centre
#                                CCDC 
#
#######################################################################
#
# If this CIF has been generated from an entry in the Cambridge 
# Structural Database, then it will include bibliographic, chemical, 
# crystal, experimental, refinement or atomic coordinate data resulting 
# from the CCDC's data processing and validation procedures.
#
#######################################################################

data_PCPZOL01
_chemical_formula_moiety         'C21 H17 Cl1 N2'
_chemical_name_systematic        1,3-Diphenyl-5-(p-chlorophenyl)-2-pyrazoline
_symmetry_cell_setting           monoclinic
_symmetry_space_group_name_H-M   'P 21/c'
_symmetry_Int_Tables_number      14
_space_group_name_Hall           '-P 2ybc'
loop_
_symmetry_equiv_pos_site_id
_symmetry_equiv_pos_as_xyz
1 x,y,z
2 -x,1/2+y,1/2-z
3 -x,-y,-z
4 x,1/2-y,1/2+z
_cell_length_a                   18.836(4)
_cell_length_b                   5.494(3)
_cell_length_c                   16.569(4)
_cell_angle_alpha                90
_cell_angle_beta                 96.38(3)
_cell_angle_gamma                90
_cell_volume                     1704.02
_cell_formula_units_Z            4
loop_
_atom_site_label
_atom_site_type_symbol
_atom_site_fract_x
_atom_site_fract_y
_atom_site_fract_z
Cl1 Cl -0.43709 -0.27010 0.33960
N1 N -0.77010 -0.54130 0.41250
N2 N -0.82840 -0.52670 0.35440
C1 C -0.82400 -0.69830 0.30190
C2 C -0.75900 -0.85630 0.32080
C3 C -0.71740 -0.72770 0.39520
C4 C -0.76420 -0.38000 0.47700
C5 C -0.70670 -0.39910 0.53740
C6 C -0.70010 -0.23430 0.60140
C7 C -0.74870 -0.05340 0.60750
C8 C -0.80700 -0.03560 0.54810
C9 C -0.81420 -0.19640 0.48350
C10 C -0.87870 -0.73250 0.23230
C11 C -0.93410 -0.56660 0.21650
C12 C -0.98530 -0.59810 0.15060
C13 C -0.98180 -0.79920 0.10140
C14 C -0.92740 -0.96630 0.11650
C15 C -0.87620 -0.93290 0.18210
C16 C -0.64720 -0.62060 0.37930
C17 C -0.58320 -0.72010 0.41340
C18 C -0.51880 -0.61600 0.40060
C19 C -0.51810 -0.40990 0.35390
C20 C -0.58120 -0.30970 0.31890
C21 C -0.64550 -0.41370 0.33140
H1 H -0.73000 -0.87600 0.27600
H2 H -0.77200 -1.02800 0.33700
H3 H -0.71400 -0.84600 0.44100
H4 H -0.67200 -0.53500 0.53500
H5 H -0.65900 -0.25700 0.64400
H6 H -0.74600 0.06400 0.65700
H7 H -0.84000 0.09300 0.55000
H8 H -0.85700 -0.18100 0.44400
H9 H -0.94200 -0.43500 0.25400
H10 H -1.02100 -0.46100 0.13600
H11 H -1.02100 -0.82600 0.05500
H12 H -0.92400 -1.11600 0.08000
H13 H -0.83700 -1.05100 0.19200
H14 H -0.58200 -0.86400 0.45200
H15 H -0.47000 -0.68500 0.42200
H16 H -0.57800 -0.17500 0.28600
H17 H -0.69100 -0.34500 0.30800
loop_
_geom_bond_atom_site_label_1
_geom_bond_atom_site_label_2
_geom_bond_site_symmetry_1
_geom_bond_site_symmetry_2
Cl1 C19 1_555 1_555
N1 N2 1_555 1_555
N2 C1 1_555 1_555
C1 C2 1_555 1_555
C2 C3 1_555 1_555
C3 N1 1_555 1_555
C4 N1 1_555 1_555
C5 C4 1_555 1_555
C6 C5 1_555 1_555
C7 C6 1_555 1_555
C8 C7 1_555 1_555
C9 C4 1_555 1_555
C10 C1 1_555 1_555
C11 C10 1_555 1_555
C12 C11 1_555 1_555
C13 C12 1_555 1_555
C14 C13 1_555 1_555
C15 C10 1_555 1_555
C16 C3 1_555 1_555
C17 C16 1_555 1_555
C18 C17 1_555 1_555
C19 C18 1_555 1_555
C20 C19 1_555 1_555
C21 C16 1_555 1_555
H1 C2 1_555 1_555
H2 C2 1_555 1_555
H3 C3 1_555 1_555
H4 C5 1_555 1_555
H5 C6 1_555 1_555
H6 C7 1_555 1_555
H7 C8 1_555 1_555
H8 C9 1_555 1_555
H9 C11 1_555 1_555
H10 C12 1_555 1_555
H11 C13 1_555 1_555
H12 C14 1_555 1_555
H13 C15 1_555 1_555
H14 C17 1_555 1_555
H15 C18 1_555 1_555
H16 C20 1_555 1_555
H17 C21 1_555 1_555
C8 C9 1_555 1_555
C14 C15 1_555 1_555
C20 C21 1_555 1_555

#END
