
#######################################################################
#
#                 Cambridge Crystallographic Data Centre
#                                CCDC 
#
#######################################################################
#
# If this CIF has been generated from an entry in the Cambridge 
# Structural Database, then it will include bibliographic, chemical, 
# crystal, experimental, refinement or atomic coordinate data resulting 
# from the CCDC's data processing and validation procedures.
#
#######################################################################

data_PEBCUX
_chemical_formula_moiety         'C19 H22 N2 O4 S1'
_chemical_name_systematic        
5,5-dimethyl-1-((4-nitrophenyl)sulfonyl)-2-phenylpiperidine
_symmetry_cell_setting           orthorhombic
_symmetry_space_group_name_H-M   'P b c n'
_symmetry_Int_Tables_number      60
_space_group_name_Hall           '-P 2n 2ab'
loop_
_symmetry_equiv_pos_site_id
_symmetry_equiv_pos_as_xyz
1 x,y,z
2 1/2-x,1/2-y,1/2+z
3 -x,y,1/2-z
4 1/2+x,1/2-y,-z
5 -x,-y,-z
6 1/2+x,1/2+y,1/2-z
7 x,-y,1/2+z
8 1/2-x,1/2+y,z
_cell_length_a                   16.4786(7)
_cell_length_b                   7.7790(4)
_cell_length_c                   28.3488(15)
_cell_angle_alpha                90
_cell_angle_beta                 90
_cell_angle_gamma                90
_cell_volume                     3633.95
_exptl_crystal_colour            colorless
_exptl_crystal_description       plate
_cell_formula_units_Z            8
loop_
_atom_site_label
_atom_site_type_symbol
_atom_site_fract_x
_atom_site_fract_y
_atom_site_fract_z
S1 S 0.60329(3) 1.04675(7) 0.40571(2)
N1 N 0.58678(9) 0.9049(2) 0.36547(5)
N2 N 0.76511(11) 0.6809(3) 0.56575(6)
O1 O 0.52658(8) 1.1058(2) 0.42280(5)
O2 O 0.66194(8) 1.1678(2) 0.38854(5)
O3 O 0.72211(10) 0.6090(3) 0.59505(5)
O4 O 0.83958(9) 0.6773(2) 0.56636(5)
C1 C 0.50555(11) 0.8327(3) 0.35570(7)
H1 H 0.4868 0.8738 0.3245
H2 H 0.4669 0.8752 0.3797
C2 C 0.50517(12) 0.6368(3) 0.35601(7)
C3 C 0.57216(12) 0.5745(3) 0.32252(7)
H3 H 0.5755 0.4475 0.3241
H4 H 0.5576 0.6063 0.2898
C4 C 0.65482(12) 0.6504(3) 0.33443(7)
H5 H 0.6950 0.6102 0.3109
H6 H 0.6721 0.6077 0.3658
C5 C 0.65464(11) 0.8469(3) 0.33507(7)
H7 H 0.7062 0.8846 0.3505
C6 C 0.65169(11) 0.9314(3) 0.28635(7)
C7 C 0.60433(12) 1.0750(3) 0.27717(7)
H8 H 0.5706 1.1198 0.3014
C8 C 0.60524(12) 1.1548(3) 0.23321(7)
H9 H 0.5725 1.2533 0.2277
C9 C 0.65384(12) 1.0903(3) 0.19751(7)
H10 H 0.6541 1.1430 0.1673
C10 C 0.70196(13) 0.9486(3) 0.20636(7)
H11 H 0.7358 0.9043 0.1821
C11 C 0.70142(12) 0.8703(3) 0.25027(7)
H12 H 0.7354 0.7738 0.2559
C12 C 0.42224(13) 0.5762(3) 0.33821(8)
H13 H 0.4196 0.4504 0.3397
H14 H 0.4146 0.6139 0.3055
H15 H 0.3794 0.6254 0.3580
C13 C 0.51831(14) 0.5677(3) 0.40624(7)
H16 H 0.5202 0.4418 0.4055
H17 H 0.4735 0.6051 0.4265
H18 H 0.5696 0.6122 0.4188
C14 C 0.65132(12) 0.9378(3) 0.45345(7)
C15 C 0.60428(12) 0.8683(3) 0.48931(7)
H19 H 0.5468 0.8781 0.4882
C16 C 0.64143(12) 0.7845(3) 0.52675(7)
H20 H 0.6103 0.7365 0.5517
C17 C 0.72512(12) 0.7732(3) 0.52661(7)
C18 C 0.77308(12) 0.8423(3) 0.49154(7)
H21 H 0.8305 0.8330 0.4929
C19 C 0.73540(12) 0.9255(3) 0.45443(7)
H22 H 0.7669 0.9740 0.4297
loop_
_geom_bond_atom_site_label_1
_geom_bond_atom_site_label_2
_geom_bond_site_symmetry_1
_geom_bond_site_symmetry_2
S1 N1 1_555 1_555
N1 C1 1_555 1_555
N2 O3 1_555 1_555
O1 S1 1_555 1_555
O2 S1 1_555 1_555
O4 N2 1_555 1_555
C1 H1 1_555 1_555
H2 C1 1_555 1_555
C2 C1 1_555 1_555
C3 C2 1_555 1_555
H3 C3 1_555 1_555
H4 C3 1_555 1_555
C4 C3 1_555 1_555
H5 C4 1_555 1_555
H6 C4 1_555 1_555
C5 N1 1_555 1_555
H7 C5 1_555 1_555
C6 C5 1_555 1_555
C7 C6 1_555 1_555
H8 C7 1_555 1_555
C8 C7 1_555 1_555
H9 C8 1_555 1_555
C9 C8 1_555 1_555
H10 C9 1_555 1_555
C10 C9 1_555 1_555
H11 C10 1_555 1_555
C11 C6 1_555 1_555
H12 C11 1_555 1_555
C12 C2 1_555 1_555
H13 C12 1_555 1_555
H14 C12 1_555 1_555
H15 C12 1_555 1_555
C13 C2 1_555 1_555
H16 C13 1_555 1_555
H17 C13 1_555 1_555
H18 C13 1_555 1_555
C14 S1 1_555 1_555
C15 C14 1_555 1_555
H19 C15 1_555 1_555
C16 C15 1_555 1_555
H20 C16 1_555 1_555
C17 N2 1_555 1_555
C18 C17 1_555 1_555
H21 C18 1_555 1_555
C19 C14 1_555 1_555
H22 C19 1_555 1_555
C4 C5 1_555 1_555
C10 C11 1_555 1_555
C16 C17 1_555 1_555
C18 C19 1_555 1_555

#END
