
#######################################################################
#
#                 Cambridge Crystallographic Data Centre
#                                CCDC 
#
#######################################################################
#
# If this CIF has been generated from an entry in the Cambridge 
# Structural Database, then it will include bibliographic, chemical, 
# crystal, experimental, refinement or atomic coordinate data resulting 
# from the CCDC's data processing and validation procedures.
#
#######################################################################

data_PEBFUX
_chemical_formula_moiety         'C14 H20 B10'
_chemical_name_systematic        
1,12-Diphenyl-1,2-dicarba-closo-dodecaborane(12)
_symmetry_cell_setting           orthorhombic
_symmetry_space_group_name_H-M   'P c a b'
_symmetry_Int_Tables_number      61
_space_group_name_Hall           '-P 2bc 2ac'
loop_
_symmetry_equiv_pos_site_id
_symmetry_equiv_pos_as_xyz
1 x,y,z
2 -x,1/2-y,1/2+z
3 1/2+x,-y,1/2-z
4 1/2-x,1/2+y,-z
5 -x,-y,-z
6 x,1/2+y,1/2-z
7 1/2-x,y,1/2+z
8 1/2+x,1/2-y,z
_cell_length_a                   8.374(3)
_cell_length_b                   10.973(4)
_cell_length_c                   18.447(2)
_cell_angle_alpha                90
_cell_angle_beta                 90
_cell_angle_gamma                90
_cell_volume                     1695.06
_cell_formula_units_Z            4
loop_
_atom_site_label
_atom_site_type_symbol
_atom_site_fract_x
_atom_site_fract_y
_atom_site_fract_z
C1 C 0.7284(3) 0.0487(2) 0.6174(1)
C2 C 0.7347(3) 0.1491(2) 0.6633(1)
C3 C 0.6175(4) 0.1675(3) 0.7154(1)
C4 C 0.4924(4) 0.0868(4) 0.7218(2)
C5 C 0.4849(4) -0.0123(4) 0.6767(2)
C6 C 0.6017(3) -0.0312(3) 0.6255(2)
B1 B 0.8591(3) 0.0263(2) 0.5606(1)
B2 B 0.9635(3) -0.1128(2) 0.5598(2)
B3 B 0.8318(3) -0.0742(2) 0.4895(1)
B4 B 0.8424(3) 0.0826(2) 0.4716(1)
B5 B 0.9868(3) 0.1406(2) 0.5309(1)
B6 B 1.0614(3) 0.0227(2) 0.5853(2)
H1 H 0.828(3) 0.204(2) 0.658(1)
H2 H 0.633(3) 0.237(3) 0.748(1)
H3 H 0.412(3) 0.098(2) 0.758(1)
H4 H 0.390(3) -0.078(3) 0.682(1)
H5 H 0.587(3) -0.100(3) 0.594(1)
H6 H 0.931(3) -0.184(2) 0.601(1)
H7 H 0.728(3) -0.117(3) 0.482(1)
H8 H 0.737(3) 0.131(2) 0.456(1)
H9 H 0.978(3) 0.228(3) 0.553(1)
H10 H 1.099(3) 0.037(2) 0.640(1)
B2D B 1.0365(3) 0.1128(2) 0.4402(2)
B1D B 1.1409(3) -0.0263(2) 0.4394(1)
C1D C 1.2716(3) -0.0487(2) 0.3826(1)
C2D C 1.2653(3) -0.1491(2) 0.3367(1)
C3D C 1.3825(4) -0.1675(3) 0.2846(1)
C4D C 1.5076(4) -0.0868(4) 0.2782(2)
C5D C 1.5151(4) 0.0123(4) 0.3233(2)
C6D C 1.3983(3) 0.0312(3) 0.3745(2)
H5D H 1.413(3) 0.100(3) 0.406(1)
H4D H 1.610(3) 0.078(3) 0.318(1)
H3D H 1.588(3) -0.098(2) 0.242(1)
H2D H 1.367(3) -0.237(3) 0.252(1)
H1D H 1.172(3) -0.204(2) 0.342(1)
B3D B 1.1682(3) 0.0742(2) 0.5105(1)
B4D B 1.1576(3) -0.0826(2) 0.5284(1)
B5D B 1.0132(3) -0.1406(2) 0.4691(1)
B6D B 0.9386(3) -0.0227(2) 0.4147(2)
H6D H 1.069(3) 0.184(2) 0.399(1)
H10D H 0.901(3) -0.037(2) 0.360(1)
H9D H 1.022(3) -0.228(3) 0.447(1)
H7D H 1.272(3) 0.117(3) 0.518(1)
H8D H 1.263(3) -0.131(2) 0.544(1)
loop_
_geom_bond_atom_site_label_1
_geom_bond_atom_site_label_2
_geom_bond_site_symmetry_1
_geom_bond_site_symmetry_2
C1 C2 1_555 1_555
C2 C3 1_555 1_555
C3 C4 1_555 1_555
C4 C5 1_555 1_555
C5 C6 1_555 1_555
C6 C1 1_555 1_555
B1 C1 1_555 1_555
B2 B1 1_555 1_555
B3 B1 1_555 1_555
B4 B1 1_555 1_555
B5 B1 1_555 1_555
B6 B1 1_555 1_555
H1 C2 1_555 1_555
H2 C3 1_555 1_555
H3 C4 1_555 1_555
H4 C5 1_555 1_555
H5 C6 1_555 1_555
H6 B2 1_555 1_555
H7 B3 1_555 1_555
H8 B4 1_555 1_555
H9 B5 1_555 1_555
H10 B6 1_555 1_555
B2D B4 1_555 1_555
B1D B2D 1_555 1_555
C1D B1D 1_555 1_555
C2D C1D 1_555 1_555
C3D C2D 1_555 1_555
C4D C3D 1_555 1_555
C5D C4D 1_555 1_555
C6D C1D 1_555 1_555
H5D C6D 1_555 1_555
H4D C5D 1_555 1_555
H3D C4D 1_555 1_555
H2D C3D 1_555 1_555
H1D C2D 1_555 1_555
B3D B5 1_555 1_555
B4D B2 1_555 1_555
B5D B2 1_555 1_555
B6D B3 1_555 1_555
H6D B2D 1_555 1_555
H10D B6D 1_555 1_555
H9D B5D 1_555 1_555
H7D B3D 1_555 1_555
H8D B4D 1_555 1_555
B2 B3 1_555 1_555
B2 B6 1_555 1_555
B3 B5D 1_555 1_555
B3 B4 1_555 1_555
B4 B5 1_555 1_555
B4 B6D 1_555 1_555
B5 B2D 1_555 1_555
B5 B6 1_555 1_555
B6 B4D 1_555 1_555
B6 B3D 1_555 1_555
B2D B3D 1_555 1_555
B2D B6D 1_555 1_555
B1D B3D 1_555 1_555
B1D B4D 1_555 1_555
B1D B5D 1_555 1_555
B1D B6D 1_555 1_555
C5D C6D 1_555 1_555
B3D B4D 1_555 1_555
B4D B5D 1_555 1_555
B5D B6D 1_555 1_555

#END
