
#######################################################################
#
#                 Cambridge Crystallographic Data Centre
#                                CCDC 
#
#######################################################################
#
# If this CIF has been generated from an entry in the Cambridge 
# Structural Database, then it will include bibliographic, chemical, 
# crystal, experimental, refinement or atomic coordinate data resulting 
# from the CCDC's data processing and validation procedures.
#
#######################################################################

data_PEBMER
_chemical_formula_moiety         'C22 H20 Cl1 N1 O8'
_chemical_name_systematic        
'10-(2-chloro-3,4,5-trimethoxyphenyl)-6a,7,9a,10-tetrahydro-6H-[1,3]dioxolo[4,5-h]furo[3,4-c][1]benzazepine-6,9(5H)-dione unknown solvate'
_symmetry_cell_setting           orthorhombic
_symmetry_space_group_name_H-M   'P 21 21 2'
_symmetry_Int_Tables_number      18
_space_group_name_Hall           'P 2 2ab'
loop_
_symmetry_equiv_pos_site_id
_symmetry_equiv_pos_as_xyz
1 x,y,z
2 -x,-y,z
3 1/2+x,1/2-y,-z
4 1/2-x,1/2+y,-z
_cell_length_a                   22.849(2)
_cell_length_b                   20.7710(13)
_cell_length_c                   9.7606(8)
_cell_angle_alpha                90
_cell_angle_beta                 90
_cell_angle_gamma                90
_cell_volume                     4632.35
_exptl_crystal_colour            colorless
_exptl_crystal_description       needle
_cell_formula_units_Z            8
loop_
_atom_site_label
_atom_site_type_symbol
_atom_site_fract_x
_atom_site_fract_y
_atom_site_fract_z
Cl1 Cl -0.02438(13) -0.25045(15) -0.0642(3)
O1 O -0.2097(4) -0.2965(5) 0.1205(11)
O2 O -0.2542(4) -0.3815(4) 0.0333(10)
O3 O -0.1521(5) -0.4713(4) -0.0928(13)
O4 O -0.0726(6) -0.3061(6) -0.6969(11)
O5 O -0.1062(4) -0.2081(4) -0.6212(9)
O6 O -0.0185(4) -0.1147(4) 0.0207(9)
O7 O -0.1114(5) -0.0293(4) 0.0188(10)
O8 O -0.2170(4) -0.0662(4) -0.0489(11)
N1 N -0.1140(6) -0.4088(6) -0.2581(12)
H1 H -0.0837 -0.4334 -0.2553
C1 C -0.2621(7) -0.4136(6) -0.1033(16)
H2 H -0.3004 -0.4039 -0.1413
H3 H -0.2580 -0.4600 -0.0952
C2 C -0.2129(6) -0.3851(6) -0.1940(13)
H4 H -0.2253 -0.3828 -0.2900
C3 C -0.1591(6) -0.4279(6) -0.1787(15)
C4 C -0.1086(6) -0.3540(7) -0.3464(12)
C5 C -0.0912(6) -0.3631(7) -0.4803(16)
H5 H -0.0803 -0.4032 -0.5139
C6 C -0.0911(6) -0.3102(8) -0.5587(13)
C7 C -0.0836(8) -0.2458(8) -0.7364(16)
H6 H -0.1120 -0.2461 -0.8102
H7 H -0.0479 -0.2262 -0.7705
C8 C -0.1124(6) -0.2539(7) -0.5175(14)
C9 C -0.1297(5) -0.2407(5) -0.3878(12)
H8 H -0.1403 -0.1997 -0.3585
C10 C -0.1300(5) -0.2963(5) -0.2997(11)
C11 C -0.1454(5) -0.2884(5) -0.1492(12)
H9 H -0.1184 -0.3154 -0.0965
C12 C -0.2066(5) -0.3167(5) -0.1323(12)
H10 H -0.2351 -0.2880 -0.1758
C13 C -0.2233(6) -0.3259(6) 0.0197(17)
C14 C -0.1378(5) -0.2188(5) -0.0993(11)
C15 C -0.0837(5) -0.1988(5) -0.0625(11)
C16 C -0.0757(5) -0.1358(6) -0.0220(12)
C17 C -0.1187(6) -0.0940(5) -0.0156(12)
C18 C -0.1759(5) -0.1135(5) -0.0516(12)
C19 C -0.1845(5) -0.1765(5) -0.0940(13)
H11 H -0.2217 -0.1904 -0.1189
C20 C 0.0184(6) -0.0970(6) -0.0876(17)
H12 H 0.0299 -0.0528 -0.0769
H13 H -0.0019 -0.1022 -0.1729
H14 H 0.0526 -0.1238 -0.0871
C21 C -0.1090(7) -0.0190(7) 0.1610(14)
H15 H -0.1325 -0.0506 0.2068
H16 H -0.1236 0.0233 0.1817
H17 H -0.0692 -0.0225 0.1916
C22 C -0.2697(7) -0.0770(6) -0.1054(16)
H18 H -0.2899 -0.1096 -0.0543
H19 H -0.2648 -0.0910 -0.1984
H20 H -0.2922 -0.0379 -0.1040
Cl2 Cl -0.46872(13) -0.27311(15) 0.4111(4)
O9 O -0.2809(4) -0.2262(5) 0.6175(9)
O10 O -0.2376(4) -0.1380(4) 0.5408(10)
O11 O -0.3376(5) -0.0481(4) 0.4161(14)
O12 O -0.4103(6) -0.1989(7) -0.2072(12)
O13 O -0.3787(5) -0.3024(5) -0.1360(11)
O14 O -0.4725(4) -0.4119(4) 0.4616(9)
O15 O -0.3798(4) -0.4941(4) 0.4845(9)
O16 O -0.2713(4) -0.4509(3) 0.4292(11)
N2 N -0.3770(5) -0.1107(5) 0.2496(12)
H21 H -0.4095 -0.0902 0.2582
C23 C -0.2304(7) -0.1022(6) 0.4128(18)
H22 H -0.1919 -0.1095 0.3738
H23 H -0.2358 -0.0564 0.4275
C24 C -0.2786(6) -0.1294(6) 0.3190(14)
H24 H -0.2653 -0.1290 0.2235
C25 C -0.3332(7) -0.0905(7) 0.3330(16)
C26 C -0.3772(7) -0.1602(8) 0.1513(16)
C27 C -0.3978(7) -0.1508(8) 0.022(2)
H25 H -0.4141 -0.1115 -0.0031
C28 C -0.3944(7) -0.1978(10) -0.0657(18)
C29 C -0.4032(7) -0.2606(9) -0.2427(16)
H26 H -0.3776 -0.2624 -0.3220
H27 H -0.4409 -0.2778 -0.2701
C30 C -0.3785(6) -0.2579(7) -0.0299(14)
C31 C -0.3584(5) -0.2727(6) 0.1073(13)
H28 H -0.3438 -0.3127 0.1323
C32 C -0.3632(6) -0.2209(6) 0.1991(15)
C33 C -0.3453(4) -0.2300(4) 0.3505(11)
H29 H -0.3726 -0.2048 0.4062
C34 C -0.2846(5) -0.2011(4) 0.3709(12)
H30 H -0.2554 -0.2282 0.3253
C35 C -0.2691(6) -0.1940(6) 0.5210(15)
C36 C -0.3523(5) -0.2998(5) 0.3919(11)
C37 C -0.4071(5) -0.3227(5) 0.4173(11)
C38 C -0.4163(6) -0.3871(7) 0.4467(12)
C39 C -0.3720(6) -0.4311(6) 0.4525(13)
C40 C -0.3147(6) -0.4066(5) 0.4255(12)
C41 C -0.3060(5) -0.3403(5) 0.3917(13)
H31 H -0.2688 -0.3252 0.3697
C42 C -0.4953(6) -0.4136(7) 0.5917(17)
H32 H -0.4706 -0.4394 0.6494
H33 H -0.5338 -0.4320 0.5889
H34 H -0.4975 -0.3707 0.6276
C43 C -0.3867(6) -0.5368(5) 0.3579(15)
H35 H -0.3765 -0.5803 0.3808
H36 H -0.3614 -0.5216 0.2865
H37 H -0.4266 -0.5354 0.3270
C44 C -0.2179(6) -0.4338(6) 0.3833(18)
H38 H -0.2071 -0.3931 0.4225
H39 H -0.2188 -0.4302 0.2853
H40 H -0.1898 -0.4659 0.4096
loop_
_geom_bond_atom_site_label_1
_geom_bond_atom_site_label_2
_geom_bond_site_symmetry_1
_geom_bond_site_symmetry_2
Cl1 C15 1_555 1_555
O1 C13 1_555 1_555
O2 C1 1_555 1_555
O3 C3 1_555 1_555
O4 C6 1_555 1_555
O5 C7 1_555 1_555
O6 C16 1_555 1_555
O7 C17 1_555 1_555
O8 C18 1_555 1_555
N1 H1 1_555 1_555
C1 H2 1_555 1_555
H3 C1 1_555 1_555
C2 C1 1_555 1_555
H4 C2 1_555 1_555
C3 N1 1_555 1_555
C4 N1 1_555 1_555
C5 C4 1_555 1_555
H5 C5 1_555 1_555
C6 C5 1_555 1_555
C7 O4 1_555 1_555
H6 C7 1_555 1_555
H7 C7 1_555 1_555
C8 O5 1_555 1_555
C9 C8 1_555 1_555
H8 C9 1_555 1_555
C10 C4 1_555 1_555
C11 C10 1_555 1_555
H9 C11 1_555 1_555
C12 C2 1_555 1_555
H10 C12 1_555 1_555
C13 O2 1_555 1_555
C14 C11 1_555 1_555
C15 C14 1_555 1_555
C16 C15 1_555 1_555
C17 C16 1_555 1_555
C18 C17 1_555 1_555
C19 C14 1_555 1_555
H11 C19 1_555 1_555
C20 O6 1_555 1_555
H12 C20 1_555 1_555
H13 C20 1_555 1_555
H14 C20 1_555 1_555
C21 O7 1_555 1_555
H15 C21 1_555 1_555
H16 C21 1_555 1_555
H17 C21 1_555 1_555
C22 O8 1_555 1_555
H18 C22 1_555 1_555
H19 C22 1_555 1_555
H20 C22 1_555 1_555
Cl2 C37 1_555 1_555
O9 C35 1_555 1_555
O10 C23 1_555 1_555
O11 C25 1_555 1_555
O12 C28 1_555 1_555
O13 C29 1_555 1_555
O14 C38 1_555 1_555
O15 C39 1_555 1_555
O16 C40 1_555 1_555
N2 H21 1_555 1_555
C23 H22 1_555 1_555
H23 C23 1_555 1_555
C24 C23 1_555 1_555
H24 C24 1_555 1_555
C25 N2 1_555 1_555
C26 N2 1_555 1_555
C27 C26 1_555 1_555
H25 C27 1_555 1_555
C28 C27 1_555 1_555
C29 O12 1_555 1_555
H26 C29 1_555 1_555
H27 C29 1_555 1_555
C30 O13 1_555 1_555
C31 C30 1_555 1_555
H28 C31 1_555 1_555
C32 C26 1_555 1_555
C33 C32 1_555 1_555
H29 C33 1_555 1_555
C34 C24 1_555 1_555
H30 C34 1_555 1_555
C35 O10 1_555 1_555
C36 C33 1_555 1_555
C37 C36 1_555 1_555
C38 C37 1_555 1_555
C39 C38 1_555 1_555
C40 C39 1_555 1_555
C41 C36 1_555 1_555
H31 C41 1_555 1_555
C42 O14 1_555 1_555
H32 C42 1_555 1_555
H33 C42 1_555 1_555
H34 C42 1_555 1_555
C43 O15 1_555 1_555
H35 C43 1_555 1_555
H36 C43 1_555 1_555
H37 C43 1_555 1_555
C44 O16 1_555 1_555
H38 C44 1_555 1_555
H39 C44 1_555 1_555
H40 C44 1_555 1_555
C2 C3 1_555 1_555
C6 C8 1_555 1_555
C9 C10 1_555 1_555
C11 C12 1_555 1_555
C12 C13 1_555 1_555
C18 C19 1_555 1_555
C24 C25 1_555 1_555
C28 C30 1_555 1_555
C31 C32 1_555 1_555
C33 C34 1_555 1_555
C34 C35 1_555 1_555
C40 C41 1_555 1_555

#END
