
#######################################################################
#
#                 Cambridge Crystallographic Data Centre
#                                CCDC 
#
#######################################################################
#
# If this CIF has been generated from an entry in the Cambridge 
# Structural Database, then it will include bibliographic, chemical, 
# crystal, experimental, refinement or atomic coordinate data resulting 
# from the CCDC's data processing and validation procedures.
#
#######################################################################

data_PEBZOO
_chemical_name_common            'L-proline resveratrol'
_chemical_formula_moiety         'C14 H12 O3,C5 H9 N1 O2'
_chemical_name_systematic        
'pyrrolidinium-2-carboxylate 5-(2-(4-hydroxyphenyl)vinyl)benzene-1,3-diol'
_symmetry_cell_setting           monoclinic
_symmetry_space_group_name_H-M   'P 21'
_symmetry_Int_Tables_number      4
_space_group_name_Hall           'P 2yb'
loop_
_symmetry_equiv_pos_site_id
_symmetry_equiv_pos_as_xyz
1 x,y,z
2 -x,1/2+y,-z
_cell_length_a                   11.4646(7)
_cell_length_b                   6.6519(4)
_cell_length_c                   11.6598(8)
_cell_angle_alpha                90
_cell_angle_beta                 102.463(4)
_cell_angle_gamma                90
_cell_volume                     868.239
_exptl_crystal_colour            colorless
_exptl_crystal_description       block
_cell_formula_units_Z            2
loop_
_atom_site_label
_atom_site_type_symbol
_atom_site_fract_x
_atom_site_fract_y
_atom_site_fract_z
C1 C 0.1169(3) 0.4366(5) 0.0579(3)
O1 O -0.2979(2) 0.3043(4) 0.5983(2)
O2 O 0.2039(2) 0.3411(4) -0.1057(2)
O3 O 0.2701(2) 0.9986(4) 0.0445(2)
H1 H 0.288(3) 1.055(8) 0.113(4)
C2 C 0.0306(3) 0.5529(6) 0.2288(3)
C3 C 0.2181(2) 0.8139(5) 0.0500(2)
C4 C 0.2358(3) 0.6675(5) -0.0287(2)
H2 H 0.2817 0.6946 -0.0836
C5 C 0.1843(3) 0.4800(5) -0.0249(2)
C6 C 0.0998(2) 0.5849(5) 0.1375(2)
C7 C -0.0219(3) 0.3885(5) 0.2545(3)
H3 H -0.0141 0.2741 0.2110
C8 C -0.0923(2) 0.3689(5) 0.3466(2)
C9 C -0.0990(3) 0.5233(6) 0.4263(3)
H4 H -0.0567 0.6416 0.4227
C10 C -0.1674(3) 0.5045(5) 0.5109(3)
H5 H -0.1710 0.6091 0.5630
C11 C -0.2295(2) 0.3297(5) 0.5165(2)
C12 C -0.1541(3) 0.1921(5) 0.3566(2)
H6 H -0.1495 0.0850 0.3065
C13 C -0.2221(3) 0.1741(5) 0.4401(2)
H7 H -0.2637 0.0554 0.4450
C14 C 0.1493(2) 0.7731(5) 0.1316(2)
H8 H 0.1363 0.8736 0.1829
H9 H 0.086(2) 0.314(6) 0.059(2)
H10 H 0.030(3) 0.668(6) 0.286(3)
H11 H 0.198(5) 0.219(11) -0.076(4)
H12 H -0.296(4) 0.414(9) 0.645(4)
O4 O 0.6737(2) 0.6100(4) 0.72960(17)
O5 O 0.5727(3) 0.7394(5) 0.56298(18)
N1 N 0.5178(2) 1.0773(4) 0.65396(19)
H13 H 0.4743 1.0159 0.5913
H14 H 0.5685 1.1606 0.6300
C15 C 0.5844(2) 0.9271(5) 0.7368(2)
H15 H 0.6599 0.9866 0.7787
C16 C 0.6111(2) 0.7443(5) 0.6700(2)
C17 C 0.4383(3) 1.1920(7) 0.7173(3)
H16 H 0.4668 1.3288 0.7325
H17 H 0.3573 1.1963 0.6708
C18 C 0.5049(3) 0.8907(6) 0.8229(3)
H18 H 0.4483 0.7836 0.7956
H19 H 0.5520 0.8553 0.8997
C19 C 0.4419(4) 1.0863(9) 0.8272(4)
H20 H 0.3614 1.0626 0.8377
H21 H 0.4840 1.1664 0.8927
loop_
_geom_bond_atom_site_label_1
_geom_bond_atom_site_label_2
_geom_bond_site_symmetry_1
_geom_bond_site_symmetry_2
C1 C5 1_555 1_555
O1 C11 1_555 1_555
O2 C5 1_555 1_555
O3 H1 1_555 1_555
C2 C6 1_555 1_555
C3 O3 1_555 1_555
C4 C3 1_555 1_555
H2 C4 1_555 1_555
C5 C4 1_555 1_555
C6 C1 1_555 1_555
C7 C2 1_555 1_555
H3 C7 1_555 1_555
C8 C7 1_555 1_555
C9 C8 1_555 1_555
H4 C9 1_555 1_555
C10 C9 1_555 1_555
H5 C10 1_555 1_555
C11 C10 1_555 1_555
C12 C8 1_555 1_555
H6 C12 1_555 1_555
C13 C11 1_555 1_555
H7 C13 1_555 1_555
C14 C3 1_555 1_555
H8 C14 1_555 1_555
H9 C1 1_555 1_555
H10 C2 1_555 1_555
H11 O2 1_555 1_555
H12 O1 1_555 1_555
O4 C16 1_555 1_555
O5 C16 1_555 1_555
N1 H13 1_555 1_555
H14 N1 1_555 1_555
C15 N1 1_555 1_555
H15 C15 1_555 1_555
C16 C15 1_555 1_555
C17 N1 1_555 1_555
H16 C17 1_555 1_555
H17 C17 1_555 1_555
C18 C15 1_555 1_555
H18 C18 1_555 1_555
H19 C18 1_555 1_555
C19 C17 1_555 1_555
H20 C19 1_555 1_555
H21 C19 1_555 1_555
C6 C14 1_555 1_555
C12 C13 1_555 1_555
C18 C19 1_555 1_555

#END
