
#######################################################################
#
#                 Cambridge Crystallographic Data Centre
#                                CCDC 
#
#######################################################################
#
# If this CIF has been generated from an entry in the Cambridge 
# Structural Database, then it will include bibliographic, chemical, 
# crystal, experimental, refinement or atomic coordinate data resulting 
# from the CCDC's data processing and validation procedures.
#
#######################################################################

data_PECLER
_chemical_formula_moiety         'C18 H26 O2'
_chemical_name_systematic        12-methoxypodocarpa-8(14),9(11),12-trien-3-ol
_symmetry_cell_setting           monoclinic
_symmetry_space_group_name_H-M   'C 2/c'
_symmetry_Int_Tables_number      15
_space_group_name_Hall           '-C 2yn'
loop_
_symmetry_equiv_pos_site_id
_symmetry_equiv_pos_as_xyz
1 x,y,z
2 -x,y,1/2-z
3 1/2+x,1/2+y,z
4 1/2-x,1/2+y,1/2-z
5 -x,-y,-z
6 x,-y,1/2+z
7 1/2-x,1/2-y,-z
8 1/2+x,1/2-y,1/2+z
_cell_length_a                   22.7991(13)
_cell_length_b                   7.4789(4)
_cell_length_c                   20.1804(12)
_cell_angle_alpha                90
_cell_angle_beta                 119.148(2)
_cell_angle_gamma                90
_cell_volume                     3005.25
_exptl_crystal_colour            colorless
_exptl_crystal_description       block
_cell_formula_units_Z            8
loop_
_atom_site_label
_atom_site_type_symbol
_atom_site_fract_x
_atom_site_fract_y
_atom_site_fract_z
O1 O 0.61214(8) 1.2726(2) 0.76579(9)
O2 O 0.95743(8) 0.8022(2) 1.16331(8)
H1 H 0.9558 0.8641 1.1959
C1 C 0.71347(10) 0.7855(3) 0.81707(11)
C2 C 0.64852(11) 0.7994(3) 0.75659(11)
H2 H 0.6287 0.6980 0.7275
C3 C 0.61204(10) 0.9557(3) 0.73752(11)
H3 H 0.5686 0.9595 0.6968
C4 C 0.64148(10) 1.1065(3) 0.78024(12)
C5 C 0.70513(10) 1.0954(3) 0.84198(11)
H4 H 0.7241 1.1973 0.8711
C6 C 0.74205(9) 0.9370(3) 0.86234(10)
C7 C 0.81324(9) 0.9354(2) 0.93085(10)
C8 C 0.83290(10) 0.7377(2) 0.95659(11)
H5 H 0.7976 0.6953 0.9671
C9 C 0.82417(11) 0.6246(3) 0.88975(12)
H6 H 0.8481 0.6791 0.8663
H7 H 0.8427 0.5063 0.9073
C10 C 0.75022(12) 0.6099(3) 0.83230(13)
H8 H 0.7457 0.5641 0.7851
H9 H 0.7294 0.5246 0.8507
C11 C 0.81511(10) 1.0387(3) 0.99781(11)
H10 H 0.8080 1.1648 0.9851
H11 H 0.7787 0.9975 1.0058
C12 C 0.88140(10) 1.0154(3) 1.07113(12)
H12 H 0.9176 1.0654 1.0647
H13 H 0.8796 1.0803 1.1117
C13 C 0.89567(10) 0.8212(3) 1.09262(11)
H14 H 0.8592 0.7750 1.1003
C14 C 0.89903(10) 0.7055(3) 1.03189(11)
C15 C 0.96359(10) 0.7425(3) 1.02774(14)
H15 H 1.0020 0.7198 1.0764
H16 H 0.9640 0.8651 1.0138
H17 H 0.9650 0.6657 0.9904
C16 C 0.90132(12) 0.5088(3) 1.05520(14)
H18 H 0.8617 0.4814 1.0586
H19 H 0.9404 0.4893 1.1036
H20 H 0.9033 0.4330 1.0179
C17 C 0.54891(11) 1.2947(4) 0.70030(14)
H21 H 0.5346 1.4166 0.6970
H22 H 0.5167 1.2171 0.7033
H23 H 0.5525 1.2654 0.6561
C18 C 0.85862(11) 1.0313(3) 0.90516(13)
H24 H 0.8430 1.1515 0.8902
H25 H 0.8572 0.9685 0.8629
H26 H 0.9039 1.0336 0.9463
loop_
_geom_bond_atom_site_label_1
_geom_bond_atom_site_label_2
_geom_bond_site_symmetry_1
_geom_bond_site_symmetry_2
O1 C4 1_555 1_555
O2 H1 1_555 1_555
C1 C2 1_555 1_555
C2 H2 1_555 1_555
C3 C2 1_555 1_555
H3 C3 1_555 1_555
C4 C3 1_555 1_555
C5 C4 1_555 1_555
H4 C5 1_555 1_555
C6 C1 1_555 1_555
C7 C6 1_555 1_555
C8 C7 1_555 1_555
H5 C8 1_555 1_555
C9 C8 1_555 1_555
H6 C9 1_555 1_555
H7 C9 1_555 1_555
C10 C1 1_555 1_555
H8 C10 1_555 1_555
H9 C10 1_555 1_555
C11 C7 1_555 1_555
H10 C11 1_555 1_555
H11 C11 1_555 1_555
C12 C11 1_555 1_555
H12 C12 1_555 1_555
H13 C12 1_555 1_555
C13 O2 1_555 1_555
H14 C13 1_555 1_555
C14 C8 1_555 1_555
C15 C14 1_555 1_555
H15 C15 1_555 1_555
H16 C15 1_555 1_555
H17 C15 1_555 1_555
C16 C14 1_555 1_555
H18 C16 1_555 1_555
H19 C16 1_555 1_555
H20 C16 1_555 1_555
C17 O1 1_555 1_555
H21 C17 1_555 1_555
H22 C17 1_555 1_555
H23 C17 1_555 1_555
C18 C7 1_555 1_555
H24 C18 1_555 1_555
H25 C18 1_555 1_555
H26 C18 1_555 1_555
C5 C6 1_555 1_555
C9 C10 1_555 1_555
C12 C13 1_555 1_555
C13 C14 1_555 1_555

#END
