
#######################################################################
#
#                 Cambridge Crystallographic Data Centre
#                                CCDC 
#
#######################################################################
#
# If this CIF has been generated from an entry in the Cambridge 
# Structural Database, then it will include bibliographic, chemical, 
# crystal, experimental, refinement or atomic coordinate data resulting 
# from the CCDC's data processing and validation procedures.
#
#######################################################################

data_PECNOC01
_chemical_formula_moiety         'C28 H32 N4 O3 P2'
_chemical_name_systematic        
"N,N',N'',N'''-tetrakis(4-Methylphenyl)diphosphoric tetraamide"
_symmetry_cell_setting           orthorhombic
_symmetry_space_group_name_H-M   'P c c n'
_symmetry_Int_Tables_number      56
_space_group_name_Hall           '-P 2ab 2ac'
loop_
_symmetry_equiv_pos_site_id
_symmetry_equiv_pos_as_xyz
1 x,y,z
2 1/2-x,1/2-y,z
3 -x,1/2+y,1/2-z
4 1/2+x,-y,1/2-z
5 -x,-y,-z
6 1/2+x,1/2+y,-z
7 x,1/2-y,1/2+z
8 1/2-x,y,1/2+z
_cell_length_a                   13.4363(9)
_cell_length_b                   20.3532(13)
_cell_length_c                   9.8851(6)
_cell_angle_alpha                90
_cell_angle_beta                 90
_cell_angle_gamma                90
_cell_volume                     2703.3
_exptl_crystal_colour            colorless
_exptl_crystal_description       block
_cell_formula_units_Z            4
loop_
_atom_site_label
_atom_site_type_symbol
_atom_site_fract_x
_atom_site_fract_y
_atom_site_fract_z
P1 P 0.66141(3) 0.711940(19) 0.54774(4)
O1 O 0.7500 0.7500 0.47179(14)
O2 O 0.62320(8) 0.74693(6) 0.66640(10)
N1 N 0.70297(10) 0.63958(7) 0.59323(13)
H1 H 0.7206(14) 0.6402(9) 0.6772(11)
N2 N 0.58768(9) 0.70329(6) 0.41932(12)
H2 H 0.6069(13) 0.7211(8) 0.3454(12)
C1 C 0.76183(11) 0.60001(7) 0.50390(16)
C2 C 0.86464(12) 0.59971(8) 0.51515(18)
H3 H 0.8964 0.6253 0.5830
C3 C 0.92079(13) 0.56202(8) 0.42709(19)
H4 H 0.9912 0.5616 0.4364
C4 C 0.87690(13) 0.52478(8) 0.32545(17)
C5 C 0.77378(12) 0.52519(8) 0.31648(17)
H5 H 0.7420 0.4997 0.2486
C6 C 0.71618(12) 0.56224(8) 0.40504(17)
H6 H 0.6457 0.5617 0.3978
C7 C 0.93964(15) 0.48668(9) 0.2267(2)
H7 H 0.9122 0.4424 0.2160
H8 H 1.0080 0.4837 0.2609
H9 H 0.9396 0.5091 0.1390
C8 C 0.48717(11) 0.68338(7) 0.42887(15)
C9 C 0.45075(12) 0.64930(8) 0.54057(16)
H10 H 0.4939 0.6382 0.6131
C10 C 0.35111(12) 0.63166(8) 0.54528(17)
H11 H 0.3270 0.6084 0.6218
C11 C 0.28565(12) 0.64707(8) 0.44133(17)
C12 C 0.32386(12) 0.68041(8) 0.32971(17)
H12 H 0.2808 0.6911 0.2567
C13 C 0.42303(11) 0.69835(7) 0.32283(16)
H13 H 0.4474 0.7209 0.2455
C14 C 0.17736(13) 0.62836(10) 0.44902(19)
H14 H 0.1714 0.5804 0.4543
H15 H 0.1428 0.6442 0.3681
H16 H 0.1474 0.6482 0.5296
P1A P 0.83859(3) 0.788060(19) 0.54774(4)
O2A O 0.87680(8) 0.75307(6) 0.66640(10)
N1A N 0.79703(10) 0.86042(7) 0.59323(13)
H1A H 0.7794(14) 0.8598(9) 0.6772(11)
N2A N 0.91232(9) 0.79671(6) 0.41932(12)
H2A H 0.8931(13) 0.7789(8) 0.3454(12)
C1A C 0.73817(11) 0.89999(7) 0.50390(16)
C2A C 0.63536(12) 0.90029(8) 0.51515(18)
H3A H 0.6036 0.8747 0.5830
C3A C 0.57921(13) 0.93798(8) 0.42709(19)
H4A H 0.5088 0.9384 0.4364
C4A C 0.62310(13) 0.97522(8) 0.32545(17)
C5A C 0.72622(12) 0.97481(8) 0.31648(17)
H5A H 0.7580 1.0003 0.2486
C6A C 0.78382(12) 0.93776(8) 0.40504(17)
H6A H 0.8543 0.9383 0.3978
C7A C 0.56036(15) 1.01332(9) 0.2267(2)
H7A H 0.5878 1.0576 0.2160
H8A H 0.4920 1.0163 0.2609
H9A H 0.5604 0.9909 0.1390
C8A C 1.01283(11) 0.81662(7) 0.42887(15)
C9A C 1.04925(12) 0.85070(8) 0.54057(16)
H10A H 1.0061 0.8618 0.6131
C10A C 1.14889(12) 0.86834(8) 0.54528(17)
H11A H 1.1730 0.8916 0.6218
C11A C 1.21435(12) 0.85293(8) 0.44133(17)
C12A C 1.17614(12) 0.81959(8) 0.32971(17)
H12A H 1.2192 0.8089 0.2567
C13A C 1.07697(11) 0.80165(7) 0.32283(16)
H13A H 1.0526 0.7791 0.2455
C14A C 1.32264(13) 0.87164(10) 0.44902(19)
H14A H 1.3286 0.9196 0.4543
H15A H 1.3572 0.8558 0.3681
H16A H 1.3526 0.8518 0.5296
loop_
_geom_bond_atom_site_label_1
_geom_bond_atom_site_label_2
_geom_bond_site_symmetry_1
_geom_bond_site_symmetry_2
P1 O1 1_555 1_555
O1 P1A 1_555 1_555
O2 P1 1_555 1_555
N1 P1 1_555 1_555
H1 N1 1_555 1_555
N2 P1 1_555 1_555
H2 N2 1_555 1_555
C1 N1 1_555 1_555
C2 C1 1_555 1_555
H3 C2 1_555 1_555
C3 C2 1_555 1_555
H4 C3 1_555 1_555
C4 C3 1_555 1_555
C5 C4 1_555 1_555
H5 C5 1_555 1_555
C6 C1 1_555 1_555
H6 C6 1_555 1_555
C7 C4 1_555 1_555
H7 C7 1_555 1_555
H8 C7 1_555 1_555
H9 C7 1_555 1_555
C8 N2 1_555 1_555
C9 C8 1_555 1_555
H10 C9 1_555 1_555
C10 C9 1_555 1_555
H11 C10 1_555 1_555
C11 C10 1_555 1_555
C12 C11 1_555 1_555
H12 C12 1_555 1_555
C13 C8 1_555 1_555
H13 C13 1_555 1_555
C14 C11 1_555 1_555
H14 C14 1_555 1_555
H15 C14 1_555 1_555
H16 C14 1_555 1_555
P1A O2A 1_555 1_555
N1A P1A 1_555 1_555
H1A N1A 1_555 1_555
N2A P1A 1_555 1_555
H2A N2A 1_555 1_555
C1A N1A 1_555 1_555
C2A C1A 1_555 1_555
H3A C2A 1_555 1_555
C3A C2A 1_555 1_555
H4A C3A 1_555 1_555
C4A C3A 1_555 1_555
C5A C4A 1_555 1_555
H5A C5A 1_555 1_555
C6A C1A 1_555 1_555
H6A C6A 1_555 1_555
C7A C4A 1_555 1_555
H7A C7A 1_555 1_555
H8A C7A 1_555 1_555
H9A C7A 1_555 1_555
C8A N2A 1_555 1_555
C9A C8A 1_555 1_555
H10A C9A 1_555 1_555
C10A C9A 1_555 1_555
H11A C10A 1_555 1_555
C11A C10A 1_555 1_555
C12A C11A 1_555 1_555
H12A C12A 1_555 1_555
C13A C8A 1_555 1_555
H13A C13A 1_555 1_555
C14A C11A 1_555 1_555
H14A C14A 1_555 1_555
H15A C14A 1_555 1_555
H16A C14A 1_555 1_555
C5 C6 1_555 1_555
C12 C13 1_555 1_555
C5A C6A 1_555 1_555
C12A C13A 1_555 1_555

#END
