
#######################################################################
#
#                 Cambridge Crystallographic Data Centre
#                                CCDC 
#
#######################################################################
#
# If this CIF has been generated from an entry in the Cambridge 
# Structural Database, then it will include bibliographic, chemical, 
# crystal, experimental, refinement or atomic coordinate data resulting 
# from the CCDC's data processing and validation procedures.
#
#######################################################################

data_PECWIG
_chemical_formula_moiety         'C27 H20 N2 O4'
_chemical_name_systematic        
(2R,3S)-3'-ethyl-1',3-diphenyl-3H,4H-spiro[furo[3,2-c]chromene-2,4'-pyrazole]-4,5'(1'H)-dione
_symmetry_cell_setting           orthorhombic
_symmetry_space_group_name_H-M   'P 21 21 21'
_symmetry_Int_Tables_number      19
_space_group_name_Hall           'P 2ac 2ab'
loop_
_symmetry_equiv_pos_site_id
_symmetry_equiv_pos_as_xyz
1 x,y,z
2 1/2-x,-y,1/2+z
3 -x,1/2+y,1/2-z
4 1/2+x,1/2-y,-z
_cell_length_a                   8.3497(11)
_cell_length_b                   9.7735(13)
_cell_length_c                   27.653(4)
_cell_angle_alpha                90
_cell_angle_beta                 90
_cell_angle_gamma                90
_cell_volume                     2256.64
_exptl_crystal_colour            colorless
_exptl_crystal_description       prismatic
_chemical_melting_point          '147-148 deg.C'
_cell_formula_units_Z            4
_chemical_properties_physical    ', Heat-sensitive'
_exptl_crystal_recrystallization_method dichloromethane
_exptl_crystal_preparation       ', Magnetic properties'
loop_
_atom_site_label
_atom_site_type_symbol
_atom_site_fract_x
_atom_site_fract_y
_atom_site_fract_z
N1 N 0.6685(3) 1.0908(3) 0.60073(8)
N2 N 0.6235(3) 0.9652(3) 0.57924(8)
O1 O 0.6885(3) 1.1765(2) 0.67839(7)
O2 O 0.6650(2) 0.8795(2) 0.69451(6)
O3 O 0.2468(3) 1.0438(2) 0.78751(8)
O4 O 0.4641(2) 0.9690(2) 0.82461(7)
C1 C 0.6494(3) 1.0895(3) 0.64961(9)
C2 C 0.5658(3) 0.9543(3) 0.66066(9)
C3 C 0.5671(3) 0.8871(3) 0.61169(10)
C4 C 0.5211(4) 0.7431(4) 0.60116(11)
H1 H 0.4162 0.7257 0.6149
H2 H 0.5967 0.6825 0.6169
C5 C 0.5164(6) 0.7095(4) 0.54801(14)
H3 H 0.4272 0.7552 0.5332
H4 H 0.5051 0.6124 0.5439
H5 H 0.6140 0.7394 0.5330
C6 C 0.4021(3) 0.9834(3) 0.68733(9)
H6 H 0.3731 1.0798 0.6828
C7 C 0.4588(3) 0.9627(3) 0.73857(9)
C8 C 0.6024(3) 0.9045(3) 0.73886(9)
C9 C 0.6890(3) 0.8707(3) 0.78204(10)
C10 C 0.8401(3) 0.8110(3) 0.78430(11)
H7 H 0.8933 0.7865 0.7561
C11 C 0.9097(4) 0.7887(4) 0.82844(13)
H8 H 1.0108 0.7490 0.8302
C12 C 0.8309(5) 0.8248(4) 0.87024(12)
H9 H 0.8792 0.8088 0.9000
C13 C 0.6822(4) 0.8839(4) 0.86870(11)
H10 H 0.6298 0.9081 0.8971
C14 C 0.6119(3) 0.9071(3) 0.82464(10)
C15 C 0.3768(4) 0.9955(3) 0.78249(11)
C16 C 0.2626(3) 0.8941(3) 0.67193(11)
C17 C 0.2233(4) 0.7754(3) 0.69651(11)
H11 H 0.2820 0.7503 0.7237
C18 C 0.0983(4) 0.6937(4) 0.68124(16)
H12 H 0.0744 0.6133 0.6977
C19 C 0.0107(5) 0.7307(5) 0.64238(19)
H13 H -0.0744 0.6761 0.6324
C20 C 0.0463(5) 0.8485(5) 0.61738(18)
H14 H -0.0140 0.8731 0.5905
C21 C 0.1728(4) 0.9309(4) 0.63247(14)
H15 H 0.1964 1.0110 0.6158
C22 C 0.7474(3) 1.1889(3) 0.57161(10)
C23 C 0.8194(4) 1.1499(4) 0.52897(12)
H16 H 0.8183 1.0588 0.5193
C24 C 0.8929(6) 1.2477(6) 0.50087(14)
H17 H 0.9416 1.2215 0.4721
C25 C 0.8962(5) 1.3813(4) 0.51416(13)
H18 H 0.9458 1.4461 0.4946
C26 C 0.8259(4) 1.4193(4) 0.55651(12)
H19 H 0.8281 1.5108 0.5658
C27 C 0.7514(4) 1.3245(3) 0.58587(11)
H20 H 0.7044 1.3514 0.6148
loop_
_geom_bond_atom_site_label_1
_geom_bond_atom_site_label_2
_geom_bond_site_symmetry_1
_geom_bond_site_symmetry_2
N1 N2 1_555 1_555
N2 C3 1_555 1_555
O1 C1 1_555 1_555
O2 C2 1_555 1_555
O3 C15 1_555 1_555
O4 C14 1_555 1_555
C1 N1 1_555 1_555
C2 C1 1_555 1_555
C3 C2 1_555 1_555
C4 C3 1_555 1_555
H1 C4 1_555 1_555
H2 C4 1_555 1_555
C5 C4 1_555 1_555
H3 C5 1_555 1_555
H4 C5 1_555 1_555
H5 C5 1_555 1_555
C6 C2 1_555 1_555
H6 C6 1_555 1_555
C7 C6 1_555 1_555
C8 O2 1_555 1_555
C9 C8 1_555 1_555
C10 C9 1_555 1_555
H7 C10 1_555 1_555
C11 C10 1_555 1_555
H8 C11 1_555 1_555
C12 C11 1_555 1_555
H9 C12 1_555 1_555
C13 C12 1_555 1_555
H10 C13 1_555 1_555
C14 C9 1_555 1_555
C15 O4 1_555 1_555
C16 C6 1_555 1_555
C17 C16 1_555 1_555
H11 C17 1_555 1_555
C18 C17 1_555 1_555
H12 C18 1_555 1_555
C19 C18 1_555 1_555
H13 C19 1_555 1_555
C20 C19 1_555 1_555
H14 C20 1_555 1_555
C21 C16 1_555 1_555
H15 C21 1_555 1_555
C22 N1 1_555 1_555
C23 C22 1_555 1_555
H16 C23 1_555 1_555
C24 C23 1_555 1_555
H17 C24 1_555 1_555
C25 C24 1_555 1_555
H18 C25 1_555 1_555
C26 C25 1_555 1_555
H19 C26 1_555 1_555
C27 C22 1_555 1_555
H20 C27 1_555 1_555
C7 C8 1_555 1_555
C7 C15 1_555 1_555
C13 C14 1_555 1_555
C20 C21 1_555 1_555
C26 C27 1_555 1_555

#END
