
#######################################################################
#
#                 Cambridge Crystallographic Data Centre
#                                CCDC 
#
#######################################################################
#
# If this CIF has been generated from an entry in the Cambridge 
# Structural Database, then it will include bibliographic, chemical, 
# crystal, experimental, refinement or atomic coordinate data resulting 
# from the CCDC's data processing and validation procedures.
#
#######################################################################

data_PEDHUD
_chemical_formula_moiety         'C30 H46 B2 O6 Si2'
_chemical_name_systematic        
4,4'-(2,2,6,6-Tetra-t-butyl-1,3,5,7,2,6,4,8-tetroxadisiladiborocane-4,8-diyl)dibenzaldehyde
_symmetry_cell_setting           triclinic
_symmetry_space_group_name_H-M   'P -1'
_symmetry_Int_Tables_number      2
_space_group_name_Hall           '-P 1'
loop_
_symmetry_equiv_pos_site_id
_symmetry_equiv_pos_as_xyz
1 x,y,z
2 -x,-y,-z
_cell_length_a                   8.4713(9)
_cell_length_b                   10.5851(7)
_cell_length_c                   10.6720(11)
_cell_angle_alpha                109.911(7)
_cell_angle_beta                 94.902(8)
_cell_angle_gamma                109.903(7)
_cell_volume                     823.765
_exptl_crystal_colour            colorless
_exptl_crystal_description       prismatic
_cell_formula_units_Z            1
loop_
_atom_site_label
_atom_site_type_symbol
_atom_site_fract_x
_atom_site_fract_y
_atom_site_fract_z
Si1 Si 0.38093(6) 0.39018(5) 0.11700(5)
O1 O 0.31425(16) 0.33333(13) -0.04928(13)
O2 O 0.42557(16) 0.47759(13) -0.17642(13)
B1 B 0.3021(2) 0.3648(2) -0.1623(2)
C1 C 0.4057(2) 0.23112(19) 0.14622(19)
C2 C 0.2421(3) 0.0900(2) 0.0774(2)
H1 H 0.2615 0.0099 0.0931
H2 H 0.2146 0.0657 -0.0212
H3 H 0.1459 0.1044 0.1164
C3 C 0.5542(3) 0.2060(2) 0.0818(2)
H4 H 0.5744 0.1266 0.0983
H5 H 0.6592 0.2957 0.1231
H6 H 0.5234 0.1796 -0.0170
C4 C 0.4542(3) 0.2661(2) 0.3002(2)
H7 H 0.3572 0.2746 0.3414
H8 H 0.5553 0.3586 0.3446
H9 H 0.4808 0.1874 0.3127
C5 C 0.2316(2) 0.4725(2) 0.2000(2)
C6 C 0.2965(3) 0.5470(2) 0.3570(2)
H10 H 0.2234 0.5973 0.3964
H11 H 0.4157 0.6181 0.3806
H12 H 0.2915 0.4729 0.3938
C7 C 0.2304(3) 0.5912(2) 0.1465(2)
H13 H 0.1891 0.5462 0.0467
H14 H 0.3475 0.6662 0.1710
H15 H 0.1538 0.6363 0.1879
C8 C 0.0462(3) 0.3589(3) 0.1633(3)
H16 H 0.0435 0.2856 0.2006
H17 H 0.0052 0.3109 0.0636
H18 H -0.0284 0.4076 0.2024
C9 C 0.1319(6) 0.2623(6) -0.2818(4)
C10 C 0.1112(5) 0.2906(5) -0.3988(4)
H19 H 0.1983 0.3697 -0.4079
C11 C -0.0370(5) 0.2030(4) -0.5026(3)
H20 H -0.0512 0.2223 -0.5825
C12 C -0.1644(4) 0.0871(4) -0.4893(3)
C13 C -0.1437(6) 0.0589(4) -0.3723(4)
H21 H -0.2308 -0.0203 -0.3633
C14 C 0.0045(7) 0.1464(5) -0.2686(4)
H22 H 0.0186 0.1271 -0.1886
O3 O -0.3549(3) -0.0010(3) -0.7097(3)
C15 C -0.3235(5) -0.0101(4) -0.6006(4)
H23 H -0.4076 -0.0857 -0.5846
Si1A Si 0.61907(6) 0.60982(5) -0.11700(5)
O1A O 0.68575(16) 0.66667(13) 0.04928(13)
O2A O 0.57443(16) 0.52241(13) 0.17642(13)
B1A B 0.6979(2) 0.6352(2) 0.1623(2)
C1A C 0.5943(2) 0.76888(19) -0.14622(19)
C2A C 0.7579(3) 0.9100(2) -0.0774(2)
H1A H 0.7385 0.9901 -0.0931
H2A H 0.7854 0.9343 0.0212
H3A H 0.8541 0.8956 -0.1164
C3A C 0.4458(3) 0.7940(2) -0.0818(2)
H4A H 0.4256 0.8734 -0.0983
H5A H 0.3408 0.7043 -0.1231
H6A H 0.4766 0.8204 0.0170
C4A C 0.5458(3) 0.7339(2) -0.3002(2)
H7A H 0.6428 0.7254 -0.3414
H8A H 0.4447 0.6414 -0.3446
H9A H 0.5192 0.8126 -0.3127
C5A C 0.7684(2) 0.5275(2) -0.2000(2)
C6A C 0.7035(3) 0.4530(2) -0.3570(2)
H10A H 0.7766 0.4027 -0.3964
H11A H 0.5843 0.3819 -0.3806
H12A H 0.7085 0.5271 -0.3938
C7A C 0.7696(3) 0.4088(2) -0.1465(2)
H13A H 0.8109 0.4538 -0.0467
H14A H 0.6525 0.3338 -0.1710
H15A H 0.8462 0.3637 -0.1879
C8A C 0.9538(3) 0.6411(3) -0.1633(3)
H16A H 0.9565 0.7144 -0.2006
H17A H 0.9948 0.6891 -0.0636
H18A H 1.0284 0.5924 -0.2024
C9A C 0.8681(6) 0.7377(6) 0.2818(4)
C10A C 0.8888(5) 0.7094(5) 0.3988(4)
H19A H 0.8017 0.6303 0.4079
C11A C 1.0370(5) 0.7970(4) 0.5026(3)
H20A H 1.0512 0.7777 0.5825
C12A C 1.1644(4) 0.9129(4) 0.4893(3)
C13A C 1.1437(6) 0.9411(4) 0.3723(4)
H21A H 1.2308 1.0203 0.3633
C14A C 0.9955(7) 0.8536(5) 0.2686(4)
H22A H 0.9814 0.8729 0.1886
O3A O 1.3549(3) 1.0010(3) 0.7097(3)
C15A C 1.3235(5) 1.0101(4) 0.6006(4)
H23A H 1.4076 1.0857 0.5846
C16? C 0.1314(12) 0.3042(12) -0.4087(11)
C17? C -0.0119(12) 0.2211(11) -0.5175(9)
C18? C -0.1467(11) 0.1052(10) -0.5112(8)
C19? C -0.1383(14) 0.0722(10) -0.3960(9)
C20? C 0.0050(16) 0.1553(13) -0.2871(9)
C21? C -0.2976(13) 0.0163(10) -0.6295(10)
C22? C 0.1398(14) 0.2712(14) -0.2935(10)
H24? H 0.2235 0.3835 -0.4131
H25? H -0.0177 0.2437 -0.5963
H26? H -0.2305 -0.0071 -0.3916
H27? H 0.0107 0.1327 -0.2084
H28? H -0.2905 0.0353 -0.7101
O4? O -0.4302(8) -0.0794(7) -0.6313(6)
loop_
_geom_bond_atom_site_label_1
_geom_bond_atom_site_label_2
_geom_bond_site_symmetry_1
_geom_bond_site_symmetry_2
Si1 O1 1_555 1_555
O1 B1 1_555 1_555
O2 B1 1_555 1_555
B1 C9 1_555 1_555
C1 Si1 1_555 1_555
C2 C1 1_555 1_555
H1 C2 1_555 1_555
H2 C2 1_555 1_555
H3 C2 1_555 1_555
C3 C1 1_555 1_555
H4 C3 1_555 1_555
H5 C3 1_555 1_555
H6 C3 1_555 1_555
C4 C1 1_555 1_555
H7 C4 1_555 1_555
H8 C4 1_555 1_555
H9 C4 1_555 1_555
C5 Si1 1_555 1_555
C6 C5 1_555 1_555
H10 C6 1_555 1_555
H11 C6 1_555 1_555
H12 C6 1_555 1_555
C7 C5 1_555 1_555
H13 C7 1_555 1_555
H14 C7 1_555 1_555
H15 C7 1_555 1_555
C8 C5 1_555 1_555
H16 C8 1_555 1_555
H17 C8 1_555 1_555
H18 C8 1_555 1_555
C9 C10 1_555 1_555
C10 H19 1_555 1_555
C11 C10 1_555 1_555
H20 C11 1_555 1_555
C12 C11 1_555 1_555
C13 C12 1_555 1_555
H21 C13 1_555 1_555
C14 C9 1_555 1_555
H22 C14 1_555 1_555
O3 C15 1_555 1_555
C15 C12 1_555 1_555
H23 C15 1_555 1_555
Si1A O2 1_555 1_555
O1A Si1A 1_555 1_555
O2A Si1 1_555 1_555
B1A O1A 1_555 1_555
C1A Si1A 1_555 1_555
C2A C1A 1_555 1_555
H1A C2A 1_555 1_555
H2A C2A 1_555 1_555
H3A C2A 1_555 1_555
C3A C1A 1_555 1_555
H4A C3A 1_555 1_555
H5A C3A 1_555 1_555
H6A C3A 1_555 1_555
C4A C1A 1_555 1_555
H7A C4A 1_555 1_555
H8A C4A 1_555 1_555
H9A C4A 1_555 1_555
C5A Si1A 1_555 1_555
C6A C5A 1_555 1_555
H10A C6A 1_555 1_555
H11A C6A 1_555 1_555
H12A C6A 1_555 1_555
C7A C5A 1_555 1_555
H13A C7A 1_555 1_555
H14A C7A 1_555 1_555
H15A C7A 1_555 1_555
C8A C5A 1_555 1_555
H16A C8A 1_555 1_555
H17A C8A 1_555 1_555
H18A C8A 1_555 1_555
C9A B1A 1_555 1_555
C10A C9A 1_555 1_555
H19A C10A 1_555 1_555
C11A C10A 1_555 1_555
H20A C11A 1_555 1_555
C12A C11A 1_555 1_555
C13A C12A 1_555 1_555
H21A C13A 1_555 1_555
C14A C9A 1_555 1_555
H22A C14A 1_555 1_555
O3A C15A 1_555 1_555
C15A C12A 1_555 1_555
H23A C15A 1_555 1_555
C13 C14 1_555 1_555
O2A B1A 1_555 1_555
C13A C14A 1_555 1_555

#END
