
#######################################################################
#
#                 Cambridge Crystallographic Data Centre
#                                CCDC 
#
#######################################################################
#
# If this CIF has been generated from an entry in the Cambridge 
# Structural Database, then it will include bibliographic, chemical, 
# crystal, experimental, refinement or atomic coordinate data resulting 
# from the CCDC's data processing and validation procedures.
#
#######################################################################

data_PEDSUO
_chemical_formula_moiety         'C25 H26 N6 O2,1.75(C1 H4 O1),0.25(C2 H6 O1)'
_chemical_name_systematic        
"5,5'-(Pentane-3,3-diyl)-2,2'-bis(3-hydroxyphenyldiazo)-bis(1H-pyrrole) ethanol methanol solvate"
_symmetry_cell_setting           triclinic
_symmetry_space_group_name_H-M   'P -1'
_symmetry_Int_Tables_number      2
_space_group_name_Hall           '-P 1'
loop_
_symmetry_equiv_pos_site_id
_symmetry_equiv_pos_as_xyz
1 x,y,z
2 -x,-y,-z
_cell_length_a                   12.3411(13)
_cell_length_b                   16.1081(19)
_cell_length_c                   16.199(3)
_cell_angle_alpha                107.542(2)
_cell_angle_beta                 100.831(2)
_cell_angle_gamma                109.597(2)
_cell_volume                     2738.81
_exptl_crystal_colour            red
_exptl_crystal_description       block
_cell_formula_units_Z            4
loop_
_atom_site_label
_atom_site_type_symbol
_atom_site_fract_x
_atom_site_fract_y
_atom_site_fract_z
O1 O 0.01205(14) -0.02499(10) 0.37020(10)
H1 H 0.0473 -0.0514 0.3388
O2 O 0.19973(15) 0.04240(11) -0.26076(10)
H2 H 0.1425 0.0438 -0.2969
N1 N 0.59441(16) 0.30620(11) 0.40180(11)
H8 H 0.5574 0.2432 0.3775
N2 N 0.44133(17) 0.33811(12) 0.46741(11)
N3 N 0.37463(16) 0.24761(11) 0.42560(11)
N4 N 0.64610(16) 0.25479(11) 0.19925(11)
H9 H 0.6335 0.3070 0.2087
N5 N 0.52437(17) 0.16655(12) 0.03623(11)
N6 N 0.49000(17) 0.23497(12) 0.04406(11)
C1 C 0.8754(2) 0.32625(17) 0.52581(14)
H12 H 0.9511 0.3810 0.5383
H13 H 0.8918 0.2883 0.5597
H14 H 0.8166 0.3495 0.5451
C2 C 0.8234(2) 0.26375(15) 0.42333(13)
H15 H 0.7516 0.2055 0.4126
H16 H 0.8849 0.2429 0.4045
C3 C 0.78470(19) 0.31366(14) 0.36096(13)
C4 C 0.8982(2) 0.39425(15) 0.35986(14)
H17 H 0.8695 0.4296 0.3270
H18 H 0.9458 0.4401 0.4237
C5 C 0.9829(2) 0.35985(17) 0.31567(17)
H19 H 1.0140 0.3263 0.3486
H20 H 1.0509 0.4151 0.3184
H21 H 0.9378 0.3161 0.2517
C6 C 0.70542(19) 0.35961(14) 0.39857(13)
C7 C 0.7303(2) 0.45640(14) 0.44303(14)
H22 H 0.8002 0.5096 0.4499
C8 C 0.6339(2) 0.46120(14) 0.47579(14)
H23 H 0.6274 0.5179 0.5096
C9 C 0.5494(2) 0.36716(14) 0.44941(13)
C10 C 0.2648(2) 0.21431(14) 0.44678(13)
C11 C 0.2231(2) 0.27152(15) 0.50418(14)
H24 H 0.2705 0.3386 0.5357
C12 C 0.1111(2) 0.22830(16) 0.51404(15)
H25 H 0.0818 0.2669 0.5522
C13 C 0.0400(2) 0.12933(16) 0.46941(14)
H26 H -0.0364 0.1010 0.4771
C14 C 0.0836(2) 0.07308(14) 0.41343(14)
C15 C 0.1947(2) 0.11493(14) 0.40141(13)
H27 H 0.2233 0.0763 0.3625
C16 C 0.7147(2) 0.23777(14) 0.26393(13)
C17 C 0.7104(2) 0.14654(15) 0.22214(14)
H28 H 0.7487 0.1157 0.2510
C18 C 0.6393(2) 0.10852(15) 0.12956(14)
H29 H 0.6216 0.0478 0.0845
C19 C 0.5998(2) 0.17630(14) 0.11642(13)
C20 C 0.4116(2) 0.22418(15) -0.03938(13)
C21 C 0.3987(2) 0.30709(15) -0.04114(15)
H30 H 0.4436 0.3666 0.0098
C22 C 0.3198(2) 0.30096(16) -0.11808(16)
H31 H 0.3119 0.3571 -0.1200
C23 C 0.2517(2) 0.21361(15) -0.19308(15)
H32 H 0.1974 0.2101 -0.2454
C24 C 0.2645(2) 0.13118(15) -0.19013(14)
C25 C 0.3449(2) 0.13611(15) -0.11449(14)
H33 H 0.3548 0.0804 -0.1135
O3 O 0.98731(16) 0.44926(11) 0.10964(12)
H3 H 1.0622 0.4823 0.1240
O4 O 0.70255(16) 0.16120(11) 0.64192(10)
H4 H 0.6702 0.1999 0.6527
N7 N 0.32986(16) 0.13253(11) 0.22332(11)
H10 H 0.3507 0.1714 0.2807
N8 N 0.42725(17) 0.02788(12) 0.24900(12)
N9 N 0.47220(17) 0.08668(12) 0.33313(11)
N10 N 0.41633(16) 0.34348(11) 0.19834(11)
H11 H 0.4396 0.3072 0.1597
N11 N 0.59730(17) 0.49586(12) 0.25354(11)
N12 N 0.64790(17) 0.44783(12) 0.21005(11)
C26 C 0.0120(2) 0.09014(17) 0.16812(18)
H34 H -0.0368 0.0822 0.1087
H35 H -0.0392 0.0818 0.2071
H36 H 0.0456 0.0421 0.1592
C27 C 0.1164(2) 0.19106(15) 0.21425(14)
H37 H 0.1612 0.1999 0.2760
H38 H 0.0814 0.2388 0.2219
C28 C 0.2081(2) 0.21173(14) 0.16103(13)
C29 C 0.1439(2) 0.20524(15) 0.06488(14)
H39 H 0.2059 0.2246 0.0353
H40 H 0.0869 0.1377 0.0263
C30 C 0.0737(3) 0.26818(18) 0.06857(16)
H41 H -0.0021 0.2381 0.0801
H42 H 0.0549 0.2750 0.0101
H43 H 0.1233 0.3316 0.1179
C31 C 0.2629(2) 0.13879(14) 0.14888(13)
C32 C 0.2513(2) 0.06519(15) 0.07085(14)
H44 H 0.2104 0.0528 0.0096
C33 C 0.3106(2) 0.01241(15) 0.09833(14)
H45 H 0.3165 -0.0422 0.0594
C34 C 0.3591(2) 0.05530(14) 0.19329(14)
C35 C 0.5473(2) 0.06278(14) 0.39227(14)
C36 C 0.5937(2) -0.00505(15) 0.36112(15)
H46 H 0.5693 -0.0437 0.2979
C37 C 0.6762(2) -0.01410(16) 0.42535(16)
H47 H 0.7097 -0.0588 0.4055
C38 C 0.7105(2) 0.04129(16) 0.51824(15)
H48 H 0.7666 0.0337 0.5611
C39 C 0.6631(2) 0.10780(15) 0.54889(14)
C40 C 0.5809(2) 0.11874(14) 0.48606(14)
H49 H 0.5477 0.1636 0.5063
C41 C 0.3082(2) 0.31309(14) 0.21561(13)
C42 C 0.3073(2) 0.39153(15) 0.28209(14)
H50 H 0.2442 0.3909 0.3080
C43 C 0.4161(2) 0.47171(15) 0.30393(14)
H51 H 0.4393 0.5350 0.3464
C44 C 0.4834(2) 0.44106(14) 0.25185(14)
C45 C 0.7647(2) 0.50532(14) 0.20962(13)
C46 C 0.8254(2) 0.60538(15) 0.25686(14)
H52 H 0.7880 0.6402 0.2900
C47 C 0.9409(2) 0.65250(15) 0.25434(15)
H53 H 0.9823 0.7201 0.2862
C48 C 0.9978(2) 0.60290(15) 0.20605(15)
H54 H 1.0771 0.6364 0.2053
C49 C 0.9366(2) 0.50322(16) 0.15868(15)
C50 C 0.8204(2) 0.45468(15) 0.16019(14)
H55 H 0.7788 0.3872 0.1277
O5 O 0.88209(17) 0.11591(12) 0.73090(11)
H5 H 0.8266 0.1326 0.7154
C51 C 0.9302(2) 0.15421(17) 0.82835(16)
H56 H 1.0060 0.1473 0.8464
H57 H 0.8713 0.1194 0.8524
H58 H 0.9464 0.2223 0.8530
O6 O 0.62156(17) 0.30057(12) 0.69246(12)
H6 H 0.6717 0.3499 0.7382
C52 C 0.5020(3) 0.27757(19) 0.7001(2)
H59 H 0.4946 0.2499 0.7460
H60 H 0.4416 0.2312 0.6409
H61 H 0.4883 0.3360 0.7186
O7 O 0.22574(16) 0.55274(12) 0.13145(11)
H7 H 0.2145 0.5923 0.1110
C53 C 0.2857(3) 0.5045(2) 0.07945(19)
H62 H 0.3582 0.5523 0.0772
H63 H 0.2301 0.4633 0.0172
H64 H 0.3095 0.4654 0.1087
O8 O 0.8360(10) 0.3286(8) 0.9404(11)
H65 H 0.8898 0.3468 0.9903
C54 C 0.7294(4) 0.2482(3) 0.9315(4)
H66 H 0.6958 0.2831 0.9733
H67 H 0.7691 0.2204 0.9676
C55 C 0.6152(5) 0.1605(3) 0.8719(4)
H68 H 0.5778 0.1697 0.8184
H69 H 0.5585 0.1494 0.9065
H70 H 0.6347 0.1050 0.8518
O9? O 0.8167(11) 0.3239(10) 0.9267(11)
H71? H 0.8416 0.3589 0.9827
C56? C 0.7140(14) 0.2358(9) 0.9079(14)
H72? H 0.7341 0.2083 0.9518
H73? H 0.6949 0.1900 0.8457
H74? H 0.6434 0.2494 0.9134
loop_
_geom_bond_atom_site_label_1
_geom_bond_atom_site_label_2
_geom_bond_site_symmetry_1
_geom_bond_site_symmetry_2
O1 H1 1_555 1_555
O2 H2 1_555 1_555
O3 H3 1_555 1_555
O4 H4 1_555 1_555
O5 H5 1_555 1_555
O6 H6 1_555 1_555
O7 H7 1_555 1_555
N1 H8 1_555 1_555
N2 N3 1_555 1_555
N3 C10 1_555 1_555
N4 H9 1_555 1_555
N5 N6 1_555 1_555
N6 C20 1_555 1_555
N7 H10 1_555 1_555
N8 N9 1_555 1_555
N9 C35 1_555 1_555
N10 H11 1_555 1_555
N11 N12 1_555 1_555
N12 C45 1_555 1_555
C1 H12 1_555 1_555
H13 C1 1_555 1_555
H14 C1 1_555 1_555
C2 C1 1_555 1_555
H15 C2 1_555 1_555
H16 C2 1_555 1_555
C3 C2 1_555 1_555
C4 C3 1_555 1_555
H17 C4 1_555 1_555
H18 C4 1_555 1_555
C5 C4 1_555 1_555
H19 C5 1_555 1_555
H20 C5 1_555 1_555
H21 C5 1_555 1_555
C6 N1 1_555 1_555
C7 C6 1_555 1_555
H22 C7 1_555 1_555
C8 C7 1_555 1_555
H23 C8 1_555 1_555
C9 N1 1_555 1_555
C10 C11 1_555 1_555
C11 H24 1_555 1_555
C12 C11 1_555 1_555
H25 C12 1_555 1_555
C13 C12 1_555 1_555
H26 C13 1_555 1_555
C14 O1 1_555 1_555
C15 C10 1_555 1_555
H27 C15 1_555 1_555
C16 N4 1_555 1_555
C17 C16 1_555 1_555
H28 C17 1_555 1_555
C18 C17 1_555 1_555
H29 C18 1_555 1_555
C19 N4 1_555 1_555
C20 C21 1_555 1_555
C21 H30 1_555 1_555
C22 C21 1_555 1_555
H31 C22 1_555 1_555
C23 C22 1_555 1_555
H32 C23 1_555 1_555
C24 O2 1_555 1_555
C25 C20 1_555 1_555
H33 C25 1_555 1_555
C26 H34 1_555 1_555
H35 C26 1_555 1_555
H36 C26 1_555 1_555
C27 C26 1_555 1_555
H37 C27 1_555 1_555
H38 C27 1_555 1_555
C28 C27 1_555 1_555
C29 C28 1_555 1_555
H39 C29 1_555 1_555
H40 C29 1_555 1_555
C30 C29 1_555 1_555
H41 C30 1_555 1_555
H42 C30 1_555 1_555
H43 C30 1_555 1_555
C31 N7 1_555 1_555
C32 C31 1_555 1_555
H44 C32 1_555 1_555
C33 C32 1_555 1_555
H45 C33 1_555 1_555
C34 N7 1_555 1_555
C35 C36 1_555 1_555
C36 H46 1_555 1_555
C37 C36 1_555 1_555
H47 C37 1_555 1_555
C38 C37 1_555 1_555
H48 C38 1_555 1_555
C39 O4 1_555 1_555
C40 C35 1_555 1_555
H49 C40 1_555 1_555
C41 N10 1_555 1_555
C42 C41 1_555 1_555
H50 C42 1_555 1_555
C43 C42 1_555 1_555
H51 C43 1_555 1_555
C44 N10 1_555 1_555
C45 C46 1_555 1_555
C46 H52 1_555 1_555
C47 C46 1_555 1_555
H53 C47 1_555 1_555
C48 C47 1_555 1_555
H54 C48 1_555 1_555
C49 O3 1_555 1_555
C50 C45 1_555 1_555
H55 C50 1_555 1_555
C51 O5 1_555 1_555
H56 C51 1_555 1_555
H57 C51 1_555 1_555
H58 C51 1_555 1_555
C52 O6 1_555 1_555
H59 C52 1_555 1_555
H60 C52 1_555 1_555
H61 C52 1_555 1_555
C53 O7 1_555 1_555
H62 C53 1_555 1_555
H63 C53 1_555 1_555
H64 C53 1_555 1_555
O8 H65 1_555 1_555
C54 O8 1_555 1_555
H66 C54 1_555 1_555
H67 C54 1_555 1_555
C55 C54 1_555 1_555
H68 C55 1_555 1_555
H69 C55 1_555 1_555
H70 C55 1_555 1_555
N2 C9 1_555 1_555
N5 C19 1_555 1_555
N8 C34 1_555 1_555
N11 C44 1_555 1_555
C3 C6 1_555 1_555
C3 C16 1_555 1_555
C8 C9 1_555 1_555
C13 C14 1_555 1_555
C14 C15 1_555 1_555
C18 C19 1_555 1_555
C23 C24 1_555 1_555
C24 C25 1_555 1_555
C28 C31 1_555 1_555
C28 C41 1_555 1_555
C33 C34 1_555 1_555
C38 C39 1_555 1_555
C39 C40 1_555 1_555
C43 C44 1_555 1_555
C48 C49 1_555 1_555
C49 C50 1_555 1_555

#END
