
#######################################################################
#
#                 Cambridge Crystallographic Data Centre
#                                CCDC 
#
#######################################################################
#
# If this CIF has been generated from an entry in the Cambridge 
# Structural Database, then it will include bibliographic, chemical, 
# crystal, experimental, refinement or atomic coordinate data resulting 
# from the CCDC's data processing and validation procedures.
#
#######################################################################

data_PEDZUT
_chemical_formula_moiety         'C19 H29 N1 O11'
_chemical_name_systematic        
Methyl-6-acetamido-6,8-dideoxy-2,3,4,7-tetra-O-acetyl-\b-D-erythro-L-galacto-octapyranoside
_symmetry_cell_setting           monoclinic
_symmetry_space_group_name_H-M   'P 21'
_symmetry_Int_Tables_number      4
_space_group_name_Hall           'P 2yb'
loop_
_symmetry_equiv_pos_site_id
_symmetry_equiv_pos_as_xyz
1 x,y,z
2 -x,1/2+y,-z
_cell_length_a                   11.811(4)
_cell_length_b                   9.151(6)
_cell_length_c                   11.331(4)
_cell_angle_alpha                90
_cell_angle_beta                 100.88(3)
_cell_angle_gamma                90
_cell_volume                     1202.67
_exptl_crystal_colour            colorless
_chemical_melting_point          '184.5 deg.C'
_cell_formula_units_Z            2
loop_
_atom_site_label
_atom_site_type_symbol
_atom_site_fract_x
_atom_site_fract_y
_atom_site_fract_z
C1 C -0.1533(11) -0.3575(17) -0.04204(13)
C2 C -0.0896(12) -0.3052(16) -0.1373(12)
C3 C -0.1393(13) -0.2857(15) -0.2535(13)
C4 C -0.2501(11) -0.2112(16) -0.2722(12)
C5 C -0.3232(12) -0.2661(16) -0.1927(13)
C6 C -0.4447(14) -0.2090(18) -0.1801(15)
C7 C -0.5282(15) -0.2302(19) -0.3092(16)
C8 C -0.6309(17) -0.1456(21) -0.3334(18)
C9 C -0.5520(16) -0.4785(20) -0.3896(17)
C10 C -0.5856(17) -0.6143(22) -0.3680(20)
C11 C -0.5201(16) -0.1262(20) -0.0289(17)
C12 C -0.5681(19) -0.1609(23) 0.0696(19)
C13 C -0.1677(16) -0.3944(20) 0.1478(17)
C14 C 0.1328(16) -0.3750(19) -0.1031(17)
C15 C 0.2053(17) -0.4792(21) -0.1191(19)
C16 C -0.0528(16) -0.2493(19) -0.4279(18)
C17 C 0.0184(19) -0.1897(24) -0.4825(19)
C18 C -0.2245(16) 0.0421(19) -0.3231(17)
C19 C -0.1906(19) 0.1982(25) -0.2527(21)
O1 O -0.1046(9) -0.3433(12) 0.0664(11)
O2 O 0.0075(11) -0.4070(14) -0.1244(12)
O3 O -0.0613(8) -0.2377(11) -0.3258(9)
O4 O -0.2247(9) -0.0552(11) -0.2299(10)
O5 O -0.2632(7) -0.2666(9) -0.0734(8)
O6 O -0.5580(9) -0.3932(11) -0.2983(9)
O7 O -0.4998(11) -0.4659(15) -0.4683(12)
O8 O -0.5144(12) 0.0119(16) -0.0461(13)
O9 O 0.1508(11) -0.2481(13) -0.0577(12)
O10 O -0.1369(12) -0.3292(15) -0.4876(13)
O11 O -0.2030(11) 0.0203(14) -0.4146(12)
N1 N -0.4971(13) -0.2241(16) -0.0923(14)
loop_
_geom_bond_atom_site_label_1
_geom_bond_atom_site_label_2
_geom_bond_site_symmetry_1
_geom_bond_site_symmetry_2
C1 C2 1_555 1_555
C2 C3 1_555 1_555
C3 C4 1_555 1_555
C4 C5 1_555 1_555
C5 C6 1_555 1_555
C6 C7 1_555 1_555
C7 C8 1_555 1_555
C9 C10 1_555 1_555
C11 C12 1_555 1_555
C13 O1 1_555 1_555
C14 C15 1_555 1_555
C16 C17 1_555 1_555
C18 C19 1_555 1_555
O1 C1 1_555 1_555
O2 C2 1_555 1_555
O3 C3 1_555 1_555
O4 C4 1_555 1_555
O5 C1 1_555 1_555
O6 C7 1_555 1_555
O7 C9 1_555 1_555
O8 C11 1_555 1_555
O9 C14 1_555 1_555
O10 C16 1_555 1_555
O11 C18 1_555 1_555
N1 C6 1_555 1_555
C5 O5 1_555 1_555
C9 O6 1_555 1_555
C11 N1 1_555 1_555
C14 O2 1_555 1_555
C16 O3 1_555 1_555
C18 O4 1_555 1_555

#END
