
#######################################################################
#
#                 Cambridge Crystallographic Data Centre
#                                CCDC 
#
#######################################################################
#
# If this CIF has been generated from an entry in the Cambridge 
# Structural Database, then it will include bibliographic, chemical, 
# crystal, experimental, refinement or atomic coordinate data resulting 
# from the CCDC's data processing and validation procedures.
#
#######################################################################

data_PEFHOZ01
_chemical_formula_moiety         'C28 H32 B2 O4,C7 H8'
_chemical_name_systematic        
'Pyrene-2,7-bis(4,4,5,5-tetramethyl-[1,3,2]dioxaborolane) toluene solvate'
_symmetry_cell_setting           monoclinic
_symmetry_space_group_name_H-M   'P 21/n'
_symmetry_Int_Tables_number      14
_space_group_name_Hall           '-P 2yn'
loop_
_symmetry_equiv_pos_site_id
_symmetry_equiv_pos_as_xyz
1 x,y,z
2 1/2-x,1/2+y,1/2-z
3 -x,-y,-z
4 1/2+x,1/2-y,1/2+z
_cell_length_a                   6.6050(4)
_cell_length_b                   19.8267(12)
_cell_length_c                   11.7290(7)
_cell_angle_alpha                90
_cell_angle_beta                 91.997(10)
_cell_angle_gamma                90
_cell_volume                     1535.04
_exptl_crystal_colour            colorless
_exptl_crystal_description       prism
_cell_formula_units_Z            2
loop_
_atom_site_label
_atom_site_type_symbol
_atom_site_fract_x
_atom_site_fract_y
_atom_site_fract_z
C15 C 0.3241(4) 0.46264(12) 0.5047(2)
H17 H 0.2016 0.4367 0.5077
C16 C 0.4775(5) 0.45435(12) 0.58665(19)
H18 H 0.4622 0.4227 0.6466
C17 C 0.3503(5) 0.50905(13) 0.4177(2)
H19 H 0.2464 0.5153 0.3605
C18 C 0.1533(6) 0.4250(2) 0.5154(4)
H20 H 0.1785 0.3786 0.4904
H21 H 0.0430 0.4446 0.4681
H22 H 0.1152 0.4247 0.5954
C15B C 0.6759(4) 0.53736(12) 0.4953(2)
H17B H 0.7984 0.5633 0.4923
C16B C 0.5225(5) 0.54565(12) 0.41335(19)
H18B H 0.5378 0.5773 0.3534
C17B C 0.6497(5) 0.49095(13) 0.5823(2)
H19B H 0.7536 0.4847 0.6395
C18B C 0.8467(6) 0.5750(2) 0.4846(4)
H20B H 0.8215 0.6214 0.5096
H21B H 0.9570 0.5554 0.5319
H22B H 0.8848 0.5753 0.4046
O1 O -0.2626(4) 0.71787(15) -0.3192(3)
O2 O -0.5630(3) 0.69575(10) -0.23235(18)
C1 C -0.0665(2) 0.59791(6) -0.19983(12)
H1 H -0.0079 0.6143 -0.2673
C2 C -0.2518(2) 0.62457(7) -0.16732(12)
C3 C -0.3348(2) 0.60101(6) -0.06745(12)
H2 H -0.4608 0.6188 -0.0449
C4 C -0.3202(2) 0.52754(7) 0.10516(12)
H3 H -0.4450 0.5453 0.1295
C5 C -0.2242(2) 0.48000(7) 0.16926(12)
H4 H -0.2830 0.4649 0.2375
C6 C -0.2382(2) 0.55190(6) 0.00097(11)
C7 C -0.05107(19) 0.52513(6) -0.03380(11)
C8 C 0.0351(2) 0.54808(6) -0.13627(11)
C9 C -0.4038(4) 0.77084(15) -0.3583(3)
C10 C -0.6132(4) 0.74323(13) -0.3258(2)
C11 C -0.3422(5) 0.83427(14) -0.2884(3)
H5 H -0.3541 0.8246 -0.2087
H6 H -0.2049 0.8464 -0.3030
H7 H -0.4307 0.8709 -0.3096
C12 C -0.3722(5) 0.78357(18) -0.4822(3)
H8 H -0.2374 0.8003 -0.4919
H9 H -0.3898 0.7420 -0.5236
H10 H -0.4689 0.8162 -0.5108
C13 C -0.7140(5) 0.70163(16) -0.4223(3)
H11 H -0.6214 0.6676 -0.4463
H12 H -0.8346 0.6807 -0.3957
H13 H -0.7484 0.7308 -0.4854
C14 C -0.7699(3) 0.78960(9) -0.28844(16)
H14 H -0.8806 0.7642 -0.2593
H15 H -0.7137 0.8183 -0.2295
H16 H -0.8176 0.8167 -0.3517
B1 B -0.3594(3) 0.68066(8) -0.23968(14)
O1B O 0.2626(4) 0.28213(15) 0.3192(3)
O2B O 0.5630(3) 0.30425(10) 0.23235(18)
C1B C 0.0665(2) 0.40209(6) 0.19983(12)
H1B H 0.0079 0.3857 0.2673
C2B C 0.2518(2) 0.37543(7) 0.16732(12)
C3B C 0.3348(2) 0.39899(6) 0.06745(12)
H2B H 0.4608 0.3812 0.0449
C4B C 0.3202(2) 0.47246(7) -0.10516(12)
H3B H 0.4450 0.4547 -0.1295
C5B C 0.2242(2) 0.52000(7) -0.16926(12)
H4B H 0.2830 0.5351 -0.2375
C6B C 0.2382(2) 0.44810(6) -0.00097(11)
C7B C 0.05107(19) 0.47487(6) 0.03380(11)
C8B C -0.0351(2) 0.45192(6) 0.13627(11)
C9B C 0.4038(4) 0.22916(15) 0.3583(3)
C10B C 0.6132(4) 0.25677(13) 0.3258(2)
C11B C 0.3422(5) 0.16573(14) 0.2884(3)
H5B H 0.3541 0.1754 0.2087
H6B H 0.2049 0.1536 0.3030
H7B H 0.4307 0.1291 0.3096
C12B C 0.3722(5) 0.21643(18) 0.4822(3)
H8B H 0.2374 0.1997 0.4919
H9B H 0.3898 0.2580 0.5236
H10B H 0.4689 0.1838 0.5108
C13B C 0.7140(5) 0.29837(16) 0.4223(3)
H11B H 0.6214 0.3324 0.4463
H12B H 0.8346 0.3193 0.3957
H13B H 0.7484 0.2692 0.4854
C14B C 0.7699(3) 0.21040(9) 0.28844(16)
H14B H 0.8806 0.2358 0.2593
H15B H 0.7137 0.1817 0.2295
H16B H 0.8176 0.1833 0.3517
B1B B 0.3594(3) 0.31934(8) 0.23968(14)
C19? C 0.5526(6) 0.22695(19) 0.2763(3)
C20? C 0.5653(7) 0.2889(2) 0.4714(3)
C21? C 0.3314(8) 0.1912(3) 0.4431(5)
C22? C 0.4639(8) 0.1684(2) 0.2125(4)
C23? C 0.4413(7) 0.2493(2) 0.3864(4)
H23? H 0.4853 0.3042 0.5331
H24? H 0.6201 0.3271 0.4326
H25? H 0.6741 0.2611 0.5010
H26? H 0.2389 0.1696 0.3896
H27? H 0.2575 0.2090 0.5054
H28? H 0.4290 0.1588 0.4715
H29? H 0.5210 0.1643 0.1386
H30? H 0.3204 0.1758 0.2038
H31? H 0.4889 0.1277 0.2552
H32? H 0.8393 0.2436 0.3347
H33? H 0.8258 0.2096 0.2140
H34? H 0.7856 0.1668 0.3233
O3? O 0.2887(8) 0.2963(2) 0.3390(4)
O4? O 0.5202(5) 0.28501(18) 0.2021(3)
loop_
_geom_bond_atom_site_label_1
_geom_bond_atom_site_label_2
_geom_bond_site_symmetry_1
_geom_bond_site_symmetry_2
O1 C9 1_555 1_555
O2 C10 1_555 1_555
C1 H1 1_555 1_555
C2 C1 1_555 1_555
C3 C2 1_555 1_555
H2 C3 1_555 1_555
C4 H3 1_555 1_555
C5 C4 1_555 1_555
H4 C5 1_555 1_555
C6 C3 1_555 1_555
C7 C6 1_555 1_555
C8 C1 1_555 1_555
C9 C10 1_555 1_555
C10 C13 1_555 1_555
C11 C9 1_555 1_555
H5 C11 1_555 1_555
H6 C11 1_555 1_555
H7 C11 1_555 1_555
C12 C9 1_555 1_555
H8 C12 1_555 1_555
H9 C12 1_555 1_555
H10 C12 1_555 1_555
C13 H11 1_555 1_555
H12 C13 1_555 1_555
H13 C13 1_555 1_555
C14 C10 1_555 1_555
H14 C14 1_555 1_555
H15 C14 1_555 1_555
H16 C14 1_555 1_555
B1 O1 1_555 1_555
C15 H17 1_555 1_555
C16 C15 1_555 1_555
H18 C16 1_555 1_555
C17 C15 1_555 1_555
H19 C17 1_555 1_555
C18 C15 1_555 1_555
H20 C18 1_555 1_555
H21 C18 1_555 1_555
H22 C18 1_555 1_555
O1B C9B 1_555 1_555
O2B C10B 1_555 1_555
C1B H1B 1_555 1_555
C2B C1B 1_555 1_555
C3B C2B 1_555 1_555
H2B C3B 1_555 1_555
C4B H3B 1_555 1_555
C5B C8 1_555 1_555
H4B C5B 1_555 1_555
C6B C3B 1_555 1_555
C7B C7 1_555 1_555
C8B C5 1_555 1_555
C9B C10B 1_555 1_555
C10B C13B 1_555 1_555
C11B C9B 1_555 1_555
H5B C11B 1_555 1_555
H6B C11B 1_555 1_555
H7B C11B 1_555 1_555
C12B C9B 1_555 1_555
H8B C12B 1_555 1_555
H9B C12B 1_555 1_555
H10B C12B 1_555 1_555
C13B H11B 1_555 1_555
H12B C13B 1_555 1_555
H13B C13B 1_555 1_555
C14B C10B 1_555 1_555
H14B C14B 1_555 1_555
H15B C14B 1_555 1_555
H16B C14B 1_555 1_555
B1B O1B 1_555 1_555
C15B H17B 1_555 1_555
C16B C17 1_555 1_555
H18B C16B 1_555 1_555
C17B C16 1_555 1_555
H19B C17B 1_555 1_555
C18B C15B 1_555 1_555
H20B C18B 1_555 1_555
H21B C18B 1_555 1_555
H22B C18B 1_555 1_555
O2 B1 1_555 1_555
C2 B1 1_555 1_555
C4 C6 1_555 1_555
C7 C8 1_555 1_555
O2B B1B 1_555 1_555
C1B C8B 1_555 1_555
C2B B1B 1_555 1_555
C4B C5B 1_555 1_555
C4B C6B 1_555 1_555
C6B C7B 1_555 1_555
C7B C8B 1_555 1_555
C15B C16B 1_555 1_555
C15B C17B 1_555 1_555

#END
