
#######################################################################
#
#                 Cambridge Crystallographic Data Centre
#                                CCDC 
#
#######################################################################
#
# If this CIF has been generated from an entry in the Cambridge 
# Structural Database, then it will include bibliographic, chemical, 
# crystal, experimental, refinement or atomic coordinate data resulting 
# from the CCDC's data processing and validation procedures.
#
#######################################################################

data_PEFKAP
_chemical_formula_moiety         'C18 H13 N1 O4'
_chemical_name_systematic        
6-hydroxy-5,8-dimethoxy-7H-azuleno[1,2,3-ij]isoquinolin-7-one
_symmetry_cell_setting           monoclinic
_symmetry_space_group_name_H-M   'P 21/c'
_symmetry_Int_Tables_number      14
_space_group_name_Hall           '-P 2ybc'
loop_
_symmetry_equiv_pos_site_id
_symmetry_equiv_pos_as_xyz
1 x,y,z
2 -x,1/2+y,1/2-z
3 -x,-y,-z
4 x,1/2-y,1/2+z
_cell_length_a                   7.5352(8)
_cell_length_b                   11.7589(10)
_cell_length_c                   15.6709(14)
_cell_angle_alpha                90
_cell_angle_beta                 95.301(6)
_cell_angle_gamma                90
_cell_volume                     1382.59
_cell_formula_units_Z            4
loop_
_atom_site_label
_atom_site_type_symbol
_atom_site_fract_x
_atom_site_fract_y
_atom_site_fract_z
O1 O 0.54328(16) 0.36644(9) 1.03187(6)
O2 O 0.88410(16) 0.01372(9) 0.68248(6)
O3 O 0.78735(15) 0.14481(8) 0.79350(6)
O4 O 0.66805(15) 0.27926(9) 0.89918(6)
H1 H 0.719(3) 0.2344(16) 0.8522(11)
N1 N 0.77072(17) -0.14905(11) 1.10291(8)
C1 C 0.4696(2) 0.42077(14) 1.10270(10)
H2 H 0.3632 0.3817 1.1151
H3 H 0.4415 0.4984 1.0882
H4 H 0.5550 0.4185 1.1521
C2 C 0.5948(2) 0.25608(12) 1.04246(9)
C3 C 0.66334(19) 0.20967(12) 0.96564(8)
C4 C 0.71887(18) 0.09720(11) 0.96793(8)
C5 C 0.79460(17) 0.01646(11) 0.90838(8)
C6 C 0.82195(19) 0.04583(12) 0.82175(9)
C7 C 0.8853(2) -0.03647(12) 0.76060(9)
C8 C 0.9180(3) -0.05291(17) 0.60945(12)
H5 H 1.0403 -0.0769 0.6147
H6 H 0.8948 -0.0081 0.5584
H7 H 0.8418 -0.1185 0.6061
C9 C 0.70592(18) 0.03720(12) 1.04505(9)
C10 C 0.64229(19) 0.08024(13) 1.11939(9)
C11 C 0.5852(2) 0.19528(13) 1.11619(9)
H8 H 0.5417 0.2289 1.1638
C12 C 0.6448(2) 0.00131(15) 1.18680(10)
H9 H 0.6050 0.0222 1.2390
C13 C 0.7068(2) -0.10765(15) 1.17499(10)
H10 H 0.7046 -0.1575 1.2209
C14 C 0.76775(19) -0.07325(12) 1.03899(9)
C15 C 0.82578(18) -0.08791(12) 0.95256(9)
C16 C 0.8998(2) -0.19043(13) 0.92652(10)
H11 H 0.9145 -0.2477 0.9675
C17 C 0.9523(2) -0.21494(13) 0.84768(10)
H12 H 1.0021 -0.2866 0.8419
C18 C 0.9412(2) -0.14625(13) 0.77392(10)
H13 H 0.9784 -0.1818 0.7256
loop_
_geom_bond_atom_site_label_1
_geom_bond_atom_site_label_2
_geom_bond_site_symmetry_1
_geom_bond_site_symmetry_2
O1 C1 1_555 1_555
O2 C7 1_555 1_555
O3 C6 1_555 1_555
O4 H1 1_555 1_555
N1 C13 1_555 1_555
C1 H2 1_555 1_555
H3 C1 1_555 1_555
H4 C1 1_555 1_555
C2 O1 1_555 1_555
C3 O4 1_555 1_555
C4 C3 1_555 1_555
C5 C4 1_555 1_555
C6 C5 1_555 1_555
C7 C6 1_555 1_555
C8 O2 1_555 1_555
H5 C8 1_555 1_555
H6 C8 1_555 1_555
H7 C8 1_555 1_555
C9 C4 1_555 1_555
C10 C9 1_555 1_555
C11 C2 1_555 1_555
H8 C11 1_555 1_555
C12 C10 1_555 1_555
H9 C12 1_555 1_555
C13 C12 1_555 1_555
H10 C13 1_555 1_555
C14 N1 1_555 1_555
C15 C5 1_555 1_555
C16 C15 1_555 1_555
H11 C16 1_555 1_555
C17 C16 1_555 1_555
H12 C17 1_555 1_555
C18 C7 1_555 1_555
H13 C18 1_555 1_555
C2 C3 1_555 1_555
C9 C14 1_555 1_555
C10 C11 1_555 1_555
C14 C15 1_555 1_555
C17 C18 1_555 1_555

#END
