
#######################################################################
#
#                 Cambridge Crystallographic Data Centre
#                                CCDC 
#
#######################################################################
#
# If this CIF has been generated from an entry in the Cambridge 
# Structural Database, then it will include bibliographic, chemical, 
# crystal, experimental, refinement or atomic coordinate data resulting 
# from the CCDC's data processing and validation procedures.
#
#######################################################################

data_PEFRAW
_chemical_formula_moiety         'C44 H46 O12'
_chemical_name_systematic        
22,22'-bi(23-oxo-6,7,9,10,12,13,15,16-octahydro-22H-1,21-methanodibenzo[n,q][1,4,7,10,13]pentaoxacyclooctadecine)
_symmetry_cell_setting           monoclinic
_symmetry_space_group_name_H-M   'P 21/c'
_symmetry_Int_Tables_number      14
_space_group_name_Hall           '-P 2ybc'
loop_
_symmetry_equiv_pos_site_id
_symmetry_equiv_pos_as_xyz
1 x,y,z
2 -x,1/2+y,1/2-z
3 -x,-y,-z
4 x,1/2-y,1/2+z
_cell_length_a                   12.5371(11)
_cell_length_b                   11.1205(10)
_cell_length_c                   13.4998(11)
_cell_angle_alpha                90
_cell_angle_beta                 92.7370(10)
_cell_angle_gamma                90
_cell_volume                     1879.98
_exptl_crystal_colour            colorless
_exptl_crystal_description       plate
_cell_formula_units_Z            2
loop_
_atom_site_label
_atom_site_type_symbol
_atom_site_fract_x
_atom_site_fract_y
_atom_site_fract_z
O1 O 0.4119(2) 0.2516(2) 0.04316(18)
O2 O 0.3537(2) -0.0542(2) -0.18685(18)
C1 C 0.5631(3) 0.1572(3) -0.0162(2)
C2 C 0.4590(3) -0.0656(3) -0.2054(2)
C3 C 0.5189(4) 0.2563(3) 0.0324(2)
C4 C 0.4958(3) 0.0487(3) -0.0442(2)
H1 H 0.4212 0.0740 -0.0543
C5 C 0.6045(5) -0.1323(4) -0.3013(3)
H2 H 0.6287 -0.1755 -0.3548
C6 C 0.5320(3) -0.0076(3) -0.1387(2)
C7 C 0.6404(3) -0.0101(3) -0.1571(3)
C8 C 0.4970(4) -0.1283(3) -0.2861(3)
H3 H 0.4492 -0.1676 -0.3298
C9 C 0.6712(3) 0.1585(4) -0.0350(3)
C10 C 0.7164(3) 0.0577(4) -0.0906(3)
C11 C 0.5832(5) 0.3518(4) 0.0633(3)
H4 H 0.5541 0.4161 0.0968
O3 O 0.8123(3) 0.0371(4) -0.0856(3)
C12 C 0.6773(4) -0.0730(4) -0.2384(3)
H5 H 0.7498 -0.0751 -0.2499
C13 C 0.7347(4) 0.2575(5) -0.0040(3)
H6 H 0.8070 0.2589 -0.0165
O4 O 0.2093(3) 0.3595(3) -0.0090(4)
O5 O 0.1309(3) 0.0058(4) -0.2388(3)
C14 C 0.2785(4) -0.1248(4) -0.2424(3)
H7 H 0.2978 -0.2091 -0.2372
H8 H 0.2779 -0.1019 -0.3117
C15 C 0.6900(5) 0.3517(4) 0.0444(3)
H9 H 0.7324 0.4165 0.0648
C16 C 0.3612(5) 0.3465(4) 0.0956(3)
H10 H 0.3782 0.4237 0.0669
H11 H 0.3865 0.3465 0.1646
C17 C 0.2465(6) 0.3270(5) 0.0885(5)
H12 H 0.2304 0.2432 0.1010
H13 H 0.2119 0.3759 0.1370
C18 C 0.1716(5) -0.1058(7) -0.2034(4)
H14 H 0.1240 -0.1704 -0.2252
H15 H 0.1765 -0.1056 -0.1315
O6 O -0.0077(13) 0.2078(16) -0.1410(13)
C19 C -0.0100(12) 0.1291(12) -0.2277(10)
H16 H 0.0324 0.1627 -0.2793
H17 H -0.0826 0.1177 -0.2541
C20 C 0.0971(10) 0.3643(13) -0.027(2)
H18 H 0.0721 0.4438 -0.0468
H19 H 0.0580 0.3351 0.0280
C21 C 0.0943(10) 0.2532(12) -0.1368(12)
H20 H 0.1094 0.2940 -0.1980
H21 H 0.1463 0.1895 -0.1250
C22 C 0.0370(9) 0.0117(12) -0.1903(8)
H22 H 0.0503 0.0131 -0.1189
H23 H -0.0094 -0.0555 -0.2080
O1B O 0.5881(2) -0.2516(2) -0.04316(18)
O2B O 0.6463(2) 0.0542(2) 0.18685(18)
C1B C 0.4369(3) -0.1572(3) 0.0162(2)
C2B C 0.5410(3) 0.0656(3) 0.2054(2)
C3B C 0.4811(4) -0.2563(3) -0.0324(2)
C4B C 0.5042(3) -0.0487(3) 0.0442(2)
H1B H 0.5788 -0.0740 0.0543
C5B C 0.3955(5) 0.1323(4) 0.3013(3)
H2B H 0.3713 0.1755 0.3548
C6B C 0.4680(3) 0.0076(3) 0.1387(2)
C7B C 0.3596(3) 0.0101(3) 0.1571(3)
C8B C 0.5030(4) 0.1283(3) 0.2861(3)
H3B H 0.5508 0.1676 0.3298
C9B C 0.3288(3) -0.1585(4) 0.0350(3)
C10B C 0.2836(3) -0.0577(4) 0.0906(3)
C11B C 0.4168(5) -0.3518(4) -0.0633(3)
H4B H 0.4459 -0.4161 -0.0968
O3B O 0.1877(3) -0.0371(4) 0.0856(3)
C12B C 0.3227(4) 0.0730(4) 0.2384(3)
H5B H 0.2502 0.0751 0.2499
C13B C 0.2653(4) -0.2575(5) 0.0040(3)
H6B H 0.1930 -0.2589 0.0165
O4B O 0.7907(3) -0.3595(3) 0.0090(4)
O5B O 0.8691(3) -0.0058(4) 0.2388(3)
C14B C 0.7215(4) 0.1248(4) 0.2424(3)
H7B H 0.7022 0.2091 0.2372
H8B H 0.7221 0.1019 0.3117
C15B C 0.3100(5) -0.3517(4) -0.0444(3)
H9B H 0.2676 -0.4165 -0.0648
C16B C 0.6388(5) -0.3465(4) -0.0956(3)
H10B H 0.6218 -0.4237 -0.0669
H11B H 0.6135 -0.3465 -0.1646
C17B C 0.7535(6) -0.3270(5) -0.0885(5)
H12B H 0.7696 -0.2432 -0.1010
H13B H 0.7881 -0.3759 -0.1370
C18B C 0.8284(5) 0.1058(7) 0.2034(4)
H14B H 0.8760 0.1704 0.2252
H15B H 0.8235 0.1056 0.1315
O6B O 1.0077(13) -0.2078(16) 0.1410(13)
C19B C 1.0100(12) -0.1291(12) 0.2277(10)
H16B H 0.9676 -0.1627 0.2793
H17B H 1.0826 -0.1177 0.2541
C20B C 0.9029(10) -0.3643(13) 0.027(2)
H18B H 0.9279 -0.4438 0.0468
H19B H 0.9420 -0.3351 -0.0280
C21B C 0.9057(10) -0.2532(12) 0.1368(12)
H20B H 0.8906 -0.2940 0.1980
H21B H 0.8537 -0.1895 0.1250
C22B C 0.9630(9) -0.0117(12) 0.1903(8)
H22B H 0.9497 -0.0131 0.1189
H23B H 1.0094 0.0555 0.2080
O7? O 0.0737(8) 0.2510(9) -0.1797(8)
C23? C 0.086(2) 0.315(3) -0.023(2)
H24? H 0.0810 0.2282 -0.0237
H25? H 0.0436 0.3457 0.0305
C24? C 0.0566(17) 0.3560(18) -0.0989(13)
H26? H 0.0982 0.4267 -0.1141
H27? H -0.0181 0.3786 -0.0983
C25? C 0.056(2) 0.1405(15) -0.1215(13)
H28? H 0.1204 0.1103 -0.0867
H29? H -0.0022 0.1465 -0.0773
C26? C 0.0291(13) 0.0781(17) -0.2131(11)
H30? H 0.0099 0.1349 -0.2655
H31? H -0.0306 0.0241 -0.2049
loop_
_geom_bond_atom_site_label_1
_geom_bond_atom_site_label_2
_geom_bond_site_symmetry_1
_geom_bond_site_symmetry_2
O1 C3 1_555 1_555
O2 C2 1_555 1_555
C1 C3 1_555 1_555
C2 C6 1_555 1_555
C3 C11 1_555 1_555
C4 C1 1_555 1_555
H1 C4 1_555 1_555
C5 H2 1_555 1_555
C6 C4 1_555 1_555
C7 C6 1_555 1_555
C8 C2 1_555 1_555
H3 C8 1_555 1_555
C9 C1 1_555 1_555
C10 C7 1_555 1_555
C11 H4 1_555 1_555
O3 C10 1_555 1_555
C12 C5 1_555 1_555
H5 C12 1_555 1_555
C13 C9 1_555 1_555
H6 C13 1_555 1_555
O4 C17 1_555 1_555
O5 C18 1_555 1_555
C14 O2 1_555 1_555
H7 C14 1_555 1_555
H8 C14 1_555 1_555
C15 C11 1_555 1_555
H9 C15 1_555 1_555
C16 O1 1_555 1_555
H10 C16 1_555 1_555
H11 C16 1_555 1_555
C17 C16 1_555 1_555
H12 C17 1_555 1_555
H13 C17 1_555 1_555
C18 C14 1_555 1_555
H14 C18 1_555 1_555
H15 C18 1_555 1_555
O6 C19 1_555 1_555
C19 H16 1_555 1_555
H17 C19 1_555 1_555
C20 O4 1_555 1_555
H18 C20 1_555 1_555
H19 C20 1_555 1_555
C21 O6 1_555 1_555
H20 C21 1_555 1_555
H21 C21 1_555 1_555
C22 O5 1_555 1_555
H22 C22 1_555 1_555
H23 C22 1_555 1_555
O1B C3B 1_555 1_555
O2B C2B 1_555 1_555
C1B C3B 1_555 1_555
C2B C6B 1_555 1_555
C3B C11B 1_555 1_555
C4B C4 1_555 1_555
H1B C4B 1_555 1_555
C5B H2B 1_555 1_555
C6B C4B 1_555 1_555
C7B C6B 1_555 1_555
C8B C2B 1_555 1_555
H3B C8B 1_555 1_555
C9B C1B 1_555 1_555
C10B C7B 1_555 1_555
C11B H4B 1_555 1_555
O3B C10B 1_555 1_555
C12B C5B 1_555 1_555
H5B C12B 1_555 1_555
C13B C9B 1_555 1_555
H6B C13B 1_555 1_555
O4B C17B 1_555 1_555
O5B C18B 1_555 1_555
C14B O2B 1_555 1_555
H7B C14B 1_555 1_555
H8B C14B 1_555 1_555
C15B C11B 1_555 1_555
H9B C15B 1_555 1_555
C16B O1B 1_555 1_555
H10B C16B 1_555 1_555
H11B C16B 1_555 1_555
C17B C16B 1_555 1_555
H12B C17B 1_555 1_555
H13B C17B 1_555 1_555
C18B C14B 1_555 1_555
H14B C18B 1_555 1_555
H15B C18B 1_555 1_555
O6B C19B 1_555 1_555
C19B H16B 1_555 1_555
H17B C19B 1_555 1_555
C20B O4B 1_555 1_555
H18B C20B 1_555 1_555
H19B C20B 1_555 1_555
C21B O6B 1_555 1_555
H20B C21B 1_555 1_555
H21B C21B 1_555 1_555
C22B O5B 1_555 1_555
H22B C22B 1_555 1_555
H23B C22B 1_555 1_555
C5 C8 1_555 1_555
C7 C12 1_555 1_555
C9 C10 1_555 1_555
C13 C15 1_555 1_555
C19 C22 1_555 1_555
C20 C21 1_555 1_555
C1B C4B 1_555 1_555
C5B C8B 1_555 1_555
C7B C12B 1_555 1_555
C9B C10B 1_555 1_555
C13B C15B 1_555 1_555
C19B C22B 1_555 1_555
C20B C21B 1_555 1_555

#END
