
#######################################################################
#
#                 Cambridge Crystallographic Data Centre
#                                CCDC 
#
#######################################################################
#
# If this CIF has been generated from an entry in the Cambridge 
# Structural Database, then it will include bibliographic, chemical, 
# crystal, experimental, refinement or atomic coordinate data resulting 
# from the CCDC's data processing and validation procedures.
#
#######################################################################

data_PEFWED
_chemical_formula_moiety         'C29 H15 B1 F3 N3 O2'
_chemical_name_systematic        
Trifluoroacetoxy((14)tribenzosubporphinato(1.1.1))boron(iii)
_symmetry_cell_setting           monoclinic
_symmetry_space_group_name_H-M   'P 21/n'
_symmetry_Int_Tables_number      14
_space_group_name_Hall           '-P 2yn'
loop_
_symmetry_equiv_pos_site_id
_symmetry_equiv_pos_as_xyz
1 x,y,z
2 1/2-x,1/2+y,1/2-z
3 -x,-y,-z
4 1/2+x,1/2-y,1/2+z
_cell_length_a                   9.5441(11)
_cell_length_b                   15.8360(17)
_cell_length_c                   15.4303(18)
_cell_angle_alpha                90
_cell_angle_beta                 102.245(7)
_cell_angle_gamma                90
_cell_volume                     2279.08
_exptl_crystal_colour            orange
_exptl_crystal_description       prism
_cell_formula_units_Z            4
_exptl_crystal_recrystallization_method 'toluene/trifluoroacetic acid/hexane'
loop_
_atom_site_label
_atom_site_type_symbol
_atom_site_fract_x
_atom_site_fract_y
_atom_site_fract_z
C1 C 0.1978(4) 0.2486(2) 0.8321(3)
C2 C 0.2342(4) 0.3209(2) 0.8894(3)
C3 C 0.1523(5) 0.3877(2) 0.9111(3)
H1 H 0.0539 0.3931 0.8834
C4 C 0.2174(5) 0.4456(2) 0.9733(3)
H2 H 0.1635 0.4921 0.9875
C5 C 0.3609(5) 0.4374(2) 1.0159(3)
H3 H 0.4021 0.4779 1.0593
C6 C 0.4446(5) 0.3720(2) 0.9966(3)
H4 H 0.5421 0.3665 1.0263
C7 C 0.3803(4) 0.3131(2) 0.9311(3)
C8 C 0.4366(4) 0.2368(2) 0.8992(3)
C9 C 0.5569(4) 0.1862(2) 0.9277(3)
H5 H 0.6402 0.2097 0.9646
C10 C 0.5566(4) 0.1005(2) 0.9025(3)
C11 C 0.6401(4) 0.0265(2) 0.9347(3)
C12 C 0.7735(4) 0.0168(2) 0.9932(3)
H6 H 0.8250 0.0645 1.0206
C13 C 0.8281(4) -0.0639(3) 1.0100(3)
H7 H 0.9191 -0.0718 1.0484
C14 C 0.7493(5) -0.1344(2) 0.9705(3)
H8 H 0.7893 -0.1892 0.9824
C15 C 0.6167(4) -0.1264(2) 0.9153(3)
H9 H 0.5633 -0.1746 0.8910
C16 C 0.5634(4) -0.0455(2) 0.8964(3)
C17 C 0.4305(4) -0.0152(2) 0.8394(3)
C18 C 0.3006(4) -0.0521(2) 0.7985(3)
H10 H 0.2946 -0.1116 0.7913
C19 C 0.1787(4) -0.0022(2) 0.7679(3)
C20 C 0.0257(4) -0.0181(2) 0.7494(3)
C21 C -0.0544(4) -0.0926(3) 0.7380(3)
H11 H -0.0091 -0.1462 0.7398
C22 C -0.2027(5) -0.0856(3) 0.7238(3)
H12 H -0.2591 -0.1355 0.7147
C23 C -0.2717(5) -0.0073(3) 0.7224(3)
H13 H -0.3734 -0.0049 0.7120
C24 C -0.1933(4) 0.0655(3) 0.7359(3)
H14 H -0.2401 0.1184 0.7370
C25 C -0.0450(4) 0.0619(2) 0.7479(3)
C26 C 0.0648(4) 0.1258(2) 0.7643(3)
C27 C 0.0689(4) 0.2103(2) 0.7917(3)
H15 H -0.0175 0.2420 0.7825
N1 N 0.3236(3) 0.20565(17) 0.8358(2)
N2 N 0.4398(3) 0.07074(17) 0.8426(2)
N3 N 0.1931(3) 0.08463(17) 0.7685(2)
B1 B 0.3343(5) 0.1269(2) 0.7862(3)
O1 O 0.3935(3) 0.14206(14) 0.70173(17)
O2 O 0.2363(3) 0.24030(16) 0.63411(18)
C28 C 0.3417(4) 0.1968(2) 0.6416(3)
C29 C 0.4306(5) 0.2026(3) 0.5689(3)
F1 F 0.4248(7) 0.2794(4) 0.5349(6)
F2 F 0.5600(8) 0.1812(7) 0.5931(6)
F3 F 0.3649(13) 0.1545(5) 0.4991(5)
F4? F 0.580(3) 0.214(3) 0.619(2)
F5? F 0.455(5) 0.1285(18) 0.541(3)
F6? F 0.415(4) 0.257(3) 0.520(3)
loop_
_geom_bond_atom_site_label_1
_geom_bond_atom_site_label_2
_geom_bond_site_symmetry_1
_geom_bond_site_symmetry_2
C1 C2 1_555 1_555
C2 C3 1_555 1_555
C3 H1 1_555 1_555
C4 C3 1_555 1_555
H2 C4 1_555 1_555
C5 C4 1_555 1_555
H3 C5 1_555 1_555
C6 C5 1_555 1_555
H4 C6 1_555 1_555
C7 C2 1_555 1_555
C8 C7 1_555 1_555
C9 C8 1_555 1_555
H5 C9 1_555 1_555
C10 C9 1_555 1_555
C11 C10 1_555 1_555
C12 C11 1_555 1_555
H6 C12 1_555 1_555
C13 C12 1_555 1_555
H7 C13 1_555 1_555
C14 C13 1_555 1_555
H8 C14 1_555 1_555
C15 C14 1_555 1_555
H9 C15 1_555 1_555
C16 C11 1_555 1_555
C17 C16 1_555 1_555
C18 C17 1_555 1_555
H10 C18 1_555 1_555
C19 C18 1_555 1_555
C20 C19 1_555 1_555
C21 C20 1_555 1_555
H11 C21 1_555 1_555
C22 C21 1_555 1_555
H12 C22 1_555 1_555
C23 C22 1_555 1_555
H13 C23 1_555 1_555
C24 C23 1_555 1_555
H14 C24 1_555 1_555
C25 C20 1_555 1_555
C26 C25 1_555 1_555
C27 C1 1_555 1_555
H15 C27 1_555 1_555
N1 C1 1_555 1_555
N2 C10 1_555 1_555
N3 C19 1_555 1_555
B1 N1 1_555 1_555
O1 B1 1_555 1_555
O2 C28 1_555 1_555
C28 O1 1_555 1_555
C29 C28 1_555 1_555
F1 C29 1_555 1_555
F2 C29 1_555 1_555
F3 C29 1_555 1_555
C6 C7 1_555 1_555
C8 N1 1_555 1_555
C15 C16 1_555 1_555
C17 N2 1_555 1_555
C24 C25 1_555 1_555
C26 C27 1_555 1_555
C26 N3 1_555 1_555
N2 B1 1_555 1_555
N3 B1 1_555 1_555

#END
