
#######################################################################
#
#                 Cambridge Crystallographic Data Centre
#                                CCDC 
#
#######################################################################
#
# If this CIF has been generated from an entry in the Cambridge 
# Structural Database, then it will include bibliographic, chemical, 
# crystal, experimental, refinement or atomic coordinate data resulting 
# from the CCDC's data processing and validation procedures.
#
#######################################################################

data_PEHFOA
_chemical_formula_moiety         'C31 H23 N1 O3,0.5(C6 H14)'
_chemical_name_systematic        
'4-(2-(diphenylmethyl)-1H-indol-3-yl)-3-methoxy-1H-isochromen-1-one n-hexane solvate'
_symmetry_cell_setting           triclinic
_symmetry_space_group_name_H-M   'P -1'
_symmetry_Int_Tables_number      2
_space_group_name_Hall           '-P 1'
loop_
_symmetry_equiv_pos_site_id
_symmetry_equiv_pos_as_xyz
1 x,y,z
2 -x,-y,-z
_cell_length_a                   9.861(5)
_cell_length_b                   10.455(5)
_cell_length_c                   15.398(8)
_cell_angle_alpha                89.660(9)
_cell_angle_beta                 76.844(9)
_cell_angle_gamma                63.337(8)
_cell_volume                     1372.97
_exptl_crystal_colour            colorless
_exptl_crystal_description       prismatic
_cell_formula_units_Z            2
loop_
_atom_site_label
_atom_site_type_symbol
_atom_site_fract_x
_atom_site_fract_y
_atom_site_fract_z
N1 N 0.3091(4) 0.2884(3) 0.2844(2)
O1 O 0.2925(4) 1.0246(3) 0.3315(2)
O2 O 0.2303(3) 0.8558(3) 0.37570(18)
O3 O 0.1460(3) 0.6988(3) 0.43124(18)
C1 C 0.2105(4) 0.4834(4) 0.2132(2)
C2 C 0.1251(5) 0.5664(4) 0.1550(2)
H1 H 0.1148 0.6584 0.1475
C3 C 0.0568(5) 0.5109(5) 0.1093(3)
H2 H -0.0002 0.5660 0.0705
C4 C 0.0705(5) 0.3741(5) 0.1194(3)
H3 H 0.0223 0.3396 0.0872
C5 C 0.1529(5) 0.2889(5) 0.1755(3)
H4 H 0.1622 0.1971 0.1822
C6 C 0.2231(4) 0.3460(4) 0.2225(2)
C7 C 0.3495(4) 0.3865(4) 0.3132(2)
C8 C 0.2921(4) 0.5062(4) 0.2723(2)
C9 C 0.3047(4) 0.6405(4) 0.2847(2)
C10 C 0.2299(4) 0.7279(4) 0.3613(3)
C11 C 0.3085(5) 0.9064(5) 0.3122(3)
C12 C 0.3993(5) 0.8134(4) 0.2285(3)
C13 C 0.3959(4) 0.6828(4) 0.2159(3)
C14 C 0.4878(5) 0.5952(5) 0.1355(3)
H5 H 0.4867 0.5085 0.1238
C15 C 0.5792(7) 0.6376(7) 0.0742(4)
H6 H 0.6420 0.5776 0.0215
C16 C 0.5806(7) 0.7671(7) 0.0885(4)
H7 H 0.6429 0.7938 0.0452
C17 C 0.4919(7) 0.8553(6) 0.1651(4)
H8 H 0.4928 0.9425 0.1752
C18 C 0.0674(7) 0.7922(6) 0.5118(3)
H9 H 0.1296 0.8361 0.5234
H10 H 0.0515 0.7384 0.5604
H11 H -0.0322 0.8656 0.5063
C19 C 0.4468(4) 0.3536(4) 0.3810(2)
H12 H 0.4875 0.4240 0.3768
C20 C 0.3552(4) 0.3739(4) 0.4777(2)
C21 C 0.4235(5) 0.3810(4) 0.5448(3)
H13 H 0.5256 0.3692 0.5298
C22 C 0.3447(5) 0.4049(5) 0.6332(3)
H14 H 0.3935 0.4095 0.6773
C23 C 0.1939(5) 0.4223(4) 0.6574(3)
H15 H 0.1397 0.4397 0.7175
C24 C 0.1251(5) 0.4137(5) 0.5916(3)
H16 H 0.0235 0.4243 0.6069
C25 C 0.2051(4) 0.3895(4) 0.5026(3)
H17 H 0.1567 0.3837 0.4586
C26 C 0.5889(4) 0.2077(4) 0.3574(3)
C27 C 0.5808(6) 0.0858(5) 0.3843(4)
H18 H 0.4861 0.0936 0.4186
C28 C 0.7084(9) -0.0474(6) 0.3622(5)
H19 H 0.6992 -0.1284 0.3812
C29 C 0.8464(10) -0.0618(8) 0.3132(5)
H20 H 0.9324 -0.1526 0.2976
C30 C 0.8608(7) 0.0581(9) 0.2860(4)
H21 H 0.9570 0.0493 0.2535
C31 C 0.7293(6) 0.1936(6) 0.3079(3)
H22 H 0.7378 0.2747 0.2884
H23 H 0.316(4) 0.196(4) 0.304(2)
C32 C 0.3395(16) 0.8779(16) 0.9193(8)
H24 H 0.3188 0.9338 0.8698
H25 H 0.4256 0.7841 0.8975
H26 H 0.3657 0.9252 0.9612
C33 C 0.194(2) 0.863(2) 0.9661(12)
H27 H 0.2066 0.8171 1.0206
H28 H 0.1698 0.8077 0.9268
C34 C 0.064(3) 1.022(2) 0.9870(17)
H29 H 0.0707 1.0748 1.0362
H30 H 0.0576 1.0751 0.9348
C32A C -0.3395(16) 1.1221(16) 1.0807(8)
H24A H -0.3188 1.0662 1.1302
H25A H -0.4256 1.2159 1.1025
H26A H -0.3657 1.0748 1.0388
C33A C -0.194(2) 1.137(2) 1.0339(12)
H27A H -0.2066 1.1829 0.9794
H28A H -0.1698 1.1923 1.0732
C34A C -0.064(3) 0.978(2) 1.0130(17)
H29A H -0.0707 0.9252 0.9638
H30A H -0.0576 0.9249 1.0652
loop_
_geom_bond_atom_site_label_1
_geom_bond_atom_site_label_2
_geom_bond_site_symmetry_1
_geom_bond_site_symmetry_2
N1 C6 1_555 1_555
O1 C11 1_555 1_555
O2 C10 1_555 1_555
O3 C10 1_555 1_555
C1 C2 1_555 1_555
C2 H1 1_555 1_555
C3 C2 1_555 1_555
H2 C3 1_555 1_555
C4 C3 1_555 1_555
H3 C4 1_555 1_555
C5 C4 1_555 1_555
H4 C5 1_555 1_555
C6 C1 1_555 1_555
C7 N1 1_555 1_555
C8 C1 1_555 1_555
C9 C8 1_555 1_555
C10 C9 1_555 1_555
C11 O2 1_555 1_555
C12 C11 1_555 1_555
C13 C9 1_555 1_555
C14 C13 1_555 1_555
H5 C14 1_555 1_555
C15 C14 1_555 1_555
H6 C15 1_555 1_555
C16 C15 1_555 1_555
H7 C16 1_555 1_555
C17 C12 1_555 1_555
H8 C17 1_555 1_555
C18 O3 1_555 1_555
H9 C18 1_555 1_555
H10 C18 1_555 1_555
H11 C18 1_555 1_555
C19 C7 1_555 1_555
H12 C19 1_555 1_555
C20 C19 1_555 1_555
C21 C20 1_555 1_555
H13 C21 1_555 1_555
C22 C21 1_555 1_555
H14 C22 1_555 1_555
C23 C22 1_555 1_555
H15 C23 1_555 1_555
C24 C23 1_555 1_555
H16 C24 1_555 1_555
C25 C20 1_555 1_555
H17 C25 1_555 1_555
C26 C19 1_555 1_555
C27 C26 1_555 1_555
H18 C27 1_555 1_555
C28 C27 1_555 1_555
H19 C28 1_555 1_555
C29 C28 1_555 1_555
H20 C29 1_555 1_555
C30 C29 1_555 1_555
H21 C30 1_555 1_555
C31 C26 1_555 1_555
H22 C31 1_555 1_555
H23 N1 1_555 1_555
C32 H24 1_555 1_555
H25 C32 1_555 1_555
H26 C32 1_555 1_555
C33 C32 1_555 1_555
H27 C33 1_555 1_555
H28 C33 1_555 1_555
C34 C33 1_555 1_555
H29 C34 1_555 1_555
H30 C34 1_555 1_555
C32A H24A 1_555 1_555
H25A C32A 1_555 1_555
H26A C32A 1_555 1_555
C33A C32A 1_555 1_555
H27A C33A 1_555 1_555
H28A C33A 1_555 1_555
C34A C34 1_555 1_555
H29A C34A 1_555 1_555
H30A C34A 1_555 1_555
C5 C6 1_555 1_555
C7 C8 1_555 1_555
C12 C13 1_555 1_555
C16 C17 1_555 1_555
C24 C25 1_555 1_555
C30 C31 1_555 1_555
C33A C34A 1_555 1_555

#END
