
#######################################################################
#
#                 Cambridge Crystallographic Data Centre
#                                CCDC 
#
#######################################################################
#
# If this CIF has been generated from an entry in the Cambridge 
# Structural Database, then it will include bibliographic, chemical, 
# crystal, experimental, refinement or atomic coordinate data resulting 
# from the CCDC's data processing and validation procedures.
#
#######################################################################

data_PEJDIU
_chemical_formula_moiety         'C38 H33 Cl2 N3 O4'
_chemical_name_systematic        
'diisopropyl 3-benzyl-4-(2-chlorophenyl)-5-[(2-chlorophenyl)ethynyl]-6,8-dihydroindeno[4,5-d][1,2,3]triazole-7,7(3H)-dicarboxylate'
_symmetry_cell_setting           orthorhombic
_symmetry_space_group_name_H-M   'P b c a'
_symmetry_Int_Tables_number      61
_space_group_name_Hall           '-P 2ac 2ab'
loop_
_symmetry_equiv_pos_site_id
_symmetry_equiv_pos_as_xyz
1 x,y,z
2 1/2-x,-y,1/2+z
3 -x,1/2+y,1/2-z
4 1/2+x,1/2-y,-z
5 -x,-y,-z
6 1/2+x,y,1/2-z
7 x,1/2-y,1/2+z
8 1/2-x,1/2+y,z
_cell_length_a                   9.1935(8)
_cell_length_b                   24.235(2)
_cell_length_c                   30.404(3)
_cell_angle_alpha                90
_cell_angle_beta                 90
_cell_angle_gamma                90
_cell_volume                     6774.15
_exptl_crystal_colour            colorless
_exptl_crystal_description       block
_cell_formula_units_Z            8
loop_
_atom_site_label
_atom_site_type_symbol
_atom_site_fract_x
_atom_site_fract_y
_atom_site_fract_z
C1 C 0.4814(4) 0.30029(10) 0.13958(11)
C2 C 0.4100(4) 0.34724(14) 0.15454(13)
H1 H 0.3258 0.3439 0.1713
C3 C 0.4644(5) 0.39923(11) 0.14447(16)
H2 H 0.4167 0.4306 0.1545
C4 C 0.5903(5) 0.40428(12) 0.11945(15)
H3 H 0.6267 0.4391 0.1127
C5 C 0.6617(4) 0.35733(16) 0.10449(12)
H4 H 0.7459 0.3607 0.0878
C6 C 0.6072(4) 0.30534(13) 0.11456(12)
C7 C 0.4596(4) 0.20828(16) 0.18272(12)
Cl1 Cl 0.41711(16) 0.35217(6) 0.00675(5)
N1 N 0.5665(4) 0.21017(14) 0.21406(11)
O1 O -0.1712(4) 0.13729(13) 0.15228(13)
C8 C 0.4168(4) 0.24388(15) 0.14827(12)
Cl2 Cl 0.69649(19) 0.24875(7) 0.09646(6)
N2 N 0.5601(4) 0.16458(15) 0.23953(12)
O2 O -0.1164(3) 0.05179(11) 0.17322(9)
C9 C 0.2998(4) 0.22640(14) 0.12347(11)
N3 N 0.4561(4) 0.13309(13) 0.22600(11)
O3 O -0.0410(3) 0.03570(13) 0.08013(10)
C10 C 0.2279(4) 0.17618(14) 0.13236(11)
O4 O 0.1989(3) 0.03663(13) 0.08976(10)
C11 C 0.0969(5) 0.15405(16) 0.10920(13)
H5 H 0.1173 0.1481 0.0783
H6 H 0.0157 0.1794 0.1118
C12 C 0.0622(4) 0.09838(15) 0.13260(12)
C13 C 0.1780(4) 0.09178(15) 0.16950(12)
H7 H 0.1322 0.0902 0.1982
H8 H 0.2347 0.0585 0.1652
C14 C 0.2711(4) 0.14147(14) 0.16561(11)
C15 C 0.3911(4) 0.15825(14) 0.19108(12)
C16 C 0.6703(4) 0.25307(19) 0.22550(15)
H9 H 0.6975 0.2732 0.1992
H10 H 0.7575 0.2362 0.2374
C17 C 0.6078(5) 0.29322(17) 0.25909(15)
C18 C 0.6110(7) 0.3484(2) 0.2519(2)
H11 H 0.6507 0.3620 0.2259
C19 C 0.5552(8) 0.3852(3) 0.2830(3)
H12 H 0.5591 0.4230 0.2779
C20 C 0.4954(8) 0.3656(3) 0.3207(2)
H13 H 0.4545 0.3898 0.3409
C21 C 0.4952(6) 0.3107(3) 0.32889(19)
H14 H 0.4574 0.2976 0.3553
C22 C 0.5501(5) 0.2741(2) 0.29868(16)
H15 H 0.5487 0.2365 0.3046
C23 C 0.2473(5) 0.25879(16) 0.08741(12)
C24 C 0.2021(5) 0.28335(17) 0.05633(13)
C25 C 0.1447(5) 0.31370(16) 0.01923(13)
C26 C 0.2345(6) 0.34661(17) -0.00622(13)
C27 C 0.1820(7) 0.37535(19) -0.04176(15)
H16 H 0.2436 0.3967 -0.0591
C28 C 0.0355(8) 0.3718(2) -0.05111(17)
H17 H -0.0025 0.3924 -0.0742
C29 C -0.0546(7) 0.3388(2) -0.02731(19)
H18 H -0.1525 0.3359 -0.0347
C30 C 0.0004(6) 0.3098(2) 0.00770(15)
H19 H -0.0610 0.2871 0.0240
C31 C 0.0650(5) 0.05244(16) 0.09821(13)
C32 C -0.0898(5) 0.09939(17) 0.15297(13)
C33 C -0.2565(5) 0.04623(18) 0.19526(15)
H20 H -0.2826 0.0814 0.2092
C34 C -0.2337(6) 0.0036(2) 0.22973(17)
H21 H -0.2105 -0.0310 0.2161
H22 H -0.3208 -0.0003 0.2468
H23 H -0.1550 0.0147 0.2485
C35 C -0.3681(6) 0.0316(3) 0.16190(19)
H24 H -0.3696 0.0592 0.1392
H25 H -0.4619 0.0297 0.1757
H26 H -0.3449 -0.0036 0.1492
C36 C 0.2207(6) -0.0049(2) 0.05499(17)
H27 H 0.1415 -0.0320 0.0558
C37 C 0.2222(8) 0.0235(3) 0.01101(18)
H28 H 0.1314 0.0423 0.0066
H29 H 0.2357 -0.0033 -0.0118
H30 H 0.3004 0.0497 0.0102
C38 C 0.3628(8) -0.0327(3) 0.0670(2)
H31 H 0.4402 -0.0061 0.0660
H32 H 0.3825 -0.0619 0.0465
H33 H 0.3558 -0.0477 0.0962
loop_
_geom_bond_atom_site_label_1
_geom_bond_atom_site_label_2
_geom_bond_site_symmetry_1
_geom_bond_site_symmetry_2
C1 C2 1_555 1_555
C2 H1 1_555 1_555
C3 C2 1_555 1_555
H2 C3 1_555 1_555
C4 C3 1_555 1_555
H3 C4 1_555 1_555
C5 C4 1_555 1_555
H4 C5 1_555 1_555
C6 C1 1_555 1_555
C7 N1 1_555 1_555
Cl1 C26 1_555 1_555
N1 N2 1_555 1_555
O1 C32 1_555 1_555
C8 C1 1_555 1_555
Cl2 C6 1_555 1_555
N2 N3 1_555 1_555
O2 C32 1_555 1_555
C9 C8 1_555 1_555
N3 C15 1_555 1_555
O3 C31 1_555 1_555
C10 C9 1_555 1_555
O4 C31 1_555 1_555
C11 C10 1_555 1_555
H5 C11 1_555 1_555
H6 C11 1_555 1_555
C12 C11 1_555 1_555
C13 C12 1_555 1_555
H7 C13 1_555 1_555
H8 C13 1_555 1_555
C14 C10 1_555 1_555
C15 C7 1_555 1_555
C16 N1 1_555 1_555
H9 C16 1_555 1_555
H10 C16 1_555 1_555
C17 C16 1_555 1_555
C18 C17 1_555 1_555
H11 C18 1_555 1_555
C19 C18 1_555 1_555
H12 C19 1_555 1_555
C20 C19 1_555 1_555
H13 C20 1_555 1_555
C21 C20 1_555 1_555
H14 C21 1_555 1_555
C22 C17 1_555 1_555
H15 C22 1_555 1_555
C23 C9 1_555 1_555
C24 C23 1_555 1_555
C25 C24 1_555 1_555
C26 C25 1_555 1_555
C27 C26 1_555 1_555
H16 C27 1_555 1_555
C28 C27 1_555 1_555
H17 C28 1_555 1_555
C29 C28 1_555 1_555
H18 C29 1_555 1_555
C30 C25 1_555 1_555
H19 C30 1_555 1_555
C31 C12 1_555 1_555
C32 C12 1_555 1_555
C33 O2 1_555 1_555
H20 C33 1_555 1_555
C34 C33 1_555 1_555
H21 C34 1_555 1_555
H22 C34 1_555 1_555
H23 C34 1_555 1_555
C35 C33 1_555 1_555
H24 C35 1_555 1_555
H25 C35 1_555 1_555
H26 C35 1_555 1_555
C36 O4 1_555 1_555
H27 C36 1_555 1_555
C37 C36 1_555 1_555
H28 C37 1_555 1_555
H29 C37 1_555 1_555
H30 C37 1_555 1_555
C38 C36 1_555 1_555
H31 C38 1_555 1_555
H32 C38 1_555 1_555
H33 C38 1_555 1_555
C5 C6 1_555 1_555
C7 C8 1_555 1_555
C13 C14 1_555 1_555
C14 C15 1_555 1_555
C21 C22 1_555 1_555
C29 C30 1_555 1_555

#END
