
#######################################################################
#
#                 Cambridge Crystallographic Data Centre
#                                CCDC 
#
#######################################################################
#
# If this CIF has been generated from an entry in the Cambridge 
# Structural Database, then it will include bibliographic, chemical, 
# crystal, experimental, refinement or atomic coordinate data resulting 
# from the CCDC's data processing and validation procedures.
#
#######################################################################

data_PEJTII
_chemical_formula_moiety         'C56 H72 N4 O16 S4,C4 H8 O1,7(C5 H5 N1)'
_chemical_name_systematic        
'1^3,6^,7^3,6^-tetramethoxo-4^4,6^,10^4,6^-tetra-isopentyl-1,7(2,7)-dinaphtha-4,10(1,3)-dibenza-3,5,9,11-tetra-aza-2,6,8,12-tetrathiadodecaphane 2,2,6,6,8,8,12,12-octaoxide pyridine clathrate pyridine tetrahydrofuran solvate'
_symmetry_cell_setting           monoclinic
_symmetry_space_group_name_H-M   'C 2/c'
_symmetry_Int_Tables_number      15
_space_group_name_Hall           '-C 2yn'
loop_
_symmetry_equiv_pos_site_id
_symmetry_equiv_pos_as_xyz
1 x,y,z
2 1/2+x,1/2+y,z
3 -x,y,1/2-z
4 1/2-x,1/2+y,1/2-z
5 -x,-y,-z
6 1/2-x,1/2-y,-z
7 x,-y,1/2+z
8 1/2+x,1/2-y,1/2+z
_cell_length_a                   32.659(7)
_cell_length_b                   11.398(2)
_cell_length_c                   26.898(6)
_cell_angle_alpha                90
_cell_angle_beta                 103.535(3)
_cell_angle_gamma                90
_cell_volume                     9734.63
_exptl_crystal_colour            colorless
_exptl_crystal_description       column
_cell_formula_units_Z            4
_exptl_crystal_recrystallization_method pyridine
loop_
_atom_site_label
_atom_site_type_symbol
_atom_site_fract_x
_atom_site_fract_y
_atom_site_fract_z
S1 S 0.14865(6) -0.06572(19) 0.85812(8)
S2 S -0.08803(6) -0.05935(19) 0.87658(9)
O1 O 0.18304(17) -0.1094(6) 0.8970(2)
O2 O 0.12763(17) -0.1421(5) 0.8176(2)
O3 O -0.08752(17) -0.1379(5) 0.8352(2)
O4 O -0.10127(18) -0.0995(5) 0.9201(2)
N1 N 0.1667(2) 0.0443(6) 0.8323(3)
H1 H 0.1912 0.0713 0.8468
N2 N -0.1183(2) 0.0491(6) 0.8539(3)
H2 H -0.1344 0.0771 0.8721
C1 C 0.1101(2) -0.0114(7) 0.8881(3)
C2 C 0.0689(2) -0.0469(7) 0.8708(3)
H3 H 0.0623 -0.0988 0.8434
C3 C 0.0366(2) -0.0073(6) 0.8930(3)
C4 C -0.0052(2) -0.0449(7) 0.8755(3)
H4 H -0.0122 -0.0979 0.8485
C5 C -0.0356(2) -0.0031(7) 0.8982(3)
C6 C -0.0263(2) 0.0798(7) 0.9388(3)
C7 C 0.0149(2) 0.1155(7) 0.9563(3)
H6 H 0.0216 0.1681 0.9834
C8 C 0.0469(2) 0.0740(7) 0.9339(3)
C9 C 0.0897(2) 0.1083(7) 0.9526(3)
H7 H 0.0970 0.1579 0.9808
C10 C 0.1201(2) 0.0691(7) 0.9297(3)
C11 C 0.1437(2) 0.0993(7) 0.7864(3)
C12 C 0.1391(2) 0.0442(7) 0.7396(3)
H8 H 0.1489 -0.0320 0.7383
C13 C -0.1200(2) 0.1011(7) 0.8053(3)
C14 C -0.1063(3) 0.2169(7) 0.8023(4)
C15 C -0.1109(3) 0.2716(8) 0.7565(4)
H9 H -0.1014 0.3483 0.7552
C16 C 0.1295(3) 0.2143(8) 0.7883(3)
O5 O -0.05876(17) 0.1141(5) 0.9575(2)
C17 C -0.0506(3) 0.1942(8) 0.9994(3)
H10 H -0.0315 0.1590 1.0281
H11 H -0.0766 0.2129 1.0085
H12 H -0.0384 0.2646 0.9896
O6 O 0.16142(16) 0.0982(5) 0.9443(2)
C18 C 0.1743(3) 0.1723(8) 0.9881(4)
H13 H 0.1611 0.2476 0.9810
H14 H 0.2044 0.1817 0.9957
H15 H 0.1662 0.1374 1.0168
O7 O -0.0889(2) 0.2696(5) 0.8487(2)
C19 C -0.0808(4) 0.3935(8) 0.8489(4)
H16 H -0.1056 0.4348 0.8303
H17 H -0.0578 0.4096 0.8327
C20 C -0.0695(3) 0.4329(8) 0.9036(4)
H18 H -0.0439 0.3933 0.9213
H19 H -0.0918 0.4110 0.9200
C21 C -0.0628(4) 0.5642(9) 0.9079(5)
H20 H -0.0857 0.6024 0.8832
C22 C -0.0220(5) 0.5993(12) 0.8960(6)
H21 H 0.0001 0.5486 0.9139
H22 H -0.0156 0.6789 0.9066
H23 H -0.0243 0.5929 0.8599
C23 C -0.0645(5) 0.6056(12) 0.9617(6)
H24 H -0.0917 0.5881 0.9676
H25 H -0.0597 0.6887 0.9643
H26 H -0.0431 0.5659 0.9866
O8 O 0.1350(2) 0.2618(6) 0.8365(2)
C24 C 0.1276(4) 0.3855(9) 0.8391(4)
H27 H 0.0981 0.4034 0.8248
H28 H 0.1446 0.4288 0.8202
C25 C 0.1396(4) 0.4167(8) 0.8945(4)
H29 H 0.1675 0.3858 0.9092
H30 H 0.1201 0.3793 0.9117
C26 C 0.1397(4) 0.5481(11) 0.9044(5)
H31 H 0.1577 0.5868 0.8850
C27 C 0.0975(6) 0.5993(13) 0.8901(7)
H32 H 0.0789 0.5558 0.9060
H33 H 0.0874 0.5963 0.8536
H34 H 0.0986 0.6794 0.9013
C28 C 0.1572(6) 0.5713(13) 0.9613(6)
H35 H 0.1601 0.6543 0.9671
H36 H 0.1843 0.5344 0.9722
H37 H 0.1383 0.5398 0.9804
S1B S -0.14865(6) -0.06572(19) 0.64188(8)
S2B S 0.08803(6) -0.05935(19) 0.62342(9)
O1B O -0.18304(17) -0.1094(6) 0.6030(2)
O2B O -0.12763(17) -0.1421(5) 0.6824(2)
O3B O 0.08752(17) -0.1379(5) 0.6648(2)
O4B O 0.10127(18) -0.0995(5) 0.5799(2)
N1B N -0.1667(2) 0.0443(6) 0.6677(3)
H1B H -0.1912 0.0713 0.6532
N2B N 0.1183(2) 0.0491(6) 0.6461(3)
H2B H 0.1344 0.0771 0.6279
C1B C -0.1101(2) -0.0114(7) 0.6119(3)
C2B C -0.0689(2) -0.0469(7) 0.6292(3)
H3B H -0.0623 -0.0988 0.6566
C3B C -0.0366(2) -0.0073(6) 0.6070(3)
C4B C 0.0052(2) -0.0449(7) 0.6245(3)
H4B H 0.0122 -0.0979 0.6515
C5B C 0.0356(2) -0.0031(7) 0.6018(3)
C6B C 0.0263(2) 0.0798(7) 0.5612(3)
C7B C -0.0149(2) 0.1155(7) 0.5437(3)
H6B H -0.0216 0.1681 0.5166
C8B C -0.0469(2) 0.0740(7) 0.5661(3)
C9B C -0.0897(2) 0.1083(7) 0.5474(3)
H7B H -0.0970 0.1579 0.5192
C10B C -0.1201(2) 0.0691(7) 0.5703(3)
C11B C -0.1437(2) 0.0993(7) 0.7136(3)
C12B C -0.1391(2) 0.0442(7) 0.7604(3)
H8B H -0.1489 -0.0320 0.7617
C13B C 0.1200(2) 0.1011(7) 0.6947(3)
C14B C 0.1063(3) 0.2169(7) 0.6977(4)
C15B C 0.1109(3) 0.2716(8) 0.7435(4)
H9B H 0.1014 0.3483 0.7448
C16B C -0.1295(3) 0.2143(8) 0.7117(3)
O5B O 0.05876(17) 0.1141(5) 0.5425(2)
C17B C 0.0506(3) 0.1942(8) 0.5006(3)
H10B H 0.0315 0.1590 0.4719
H11B H 0.0766 0.2129 0.4915
H12B H 0.0384 0.2646 0.5104
O6B O -0.16142(16) 0.0982(5) 0.5557(2)
C18B C -0.1743(3) 0.1723(8) 0.5119(4)
H13B H -0.1611 0.2476 0.5190
H14B H -0.2044 0.1817 0.5043
H15B H -0.1662 0.1374 0.4832
O7B O 0.0889(2) 0.2696(5) 0.6513(2)
C19B C 0.0808(4) 0.3935(8) 0.6511(4)
H16B H 0.1056 0.4348 0.6697
H17B H 0.0578 0.4096 0.6673
C20B C 0.0695(3) 0.4329(8) 0.5964(4)
H18B H 0.0439 0.3933 0.5787
H19B H 0.0918 0.4110 0.5800
C21B C 0.0628(4) 0.5642(9) 0.5921(5)
H20B H 0.0857 0.6024 0.6168
C22B C 0.0220(5) 0.5993(12) 0.6040(6)
H21B H -0.0001 0.5486 0.5861
H22B H 0.0156 0.6789 0.5934
H23B H 0.0243 0.5929 0.6401
C23B C 0.0645(5) 0.6056(12) 0.5383(6)
H24B H 0.0917 0.5881 0.5324
H25B H 0.0597 0.6887 0.5357
H26B H 0.0431 0.5659 0.5134
O8B O -0.1350(2) 0.2618(6) 0.6635(2)
C24B C -0.1276(4) 0.3855(9) 0.6609(4)
H27B H -0.0981 0.4034 0.6752
H28B H -0.1446 0.4288 0.6798
C25B C -0.1396(4) 0.4167(8) 0.6055(4)
H29B H -0.1675 0.3858 0.5908
H30B H -0.1201 0.3793 0.5883
C26B C -0.1397(4) 0.5481(11) 0.5956(5)
H31B H -0.1577 0.5868 0.6150
C27B C -0.0975(6) 0.5993(13) 0.6099(7)
H32B H -0.0789 0.5558 0.5940
H33B H -0.0874 0.5963 0.6464
H34B H -0.0986 0.6794 0.5987
C28B C -0.1572(6) 0.5713(13) 0.5387(6)
H35B H -0.1601 0.6543 0.5329
H36B H -0.1843 0.5344 0.5278
H37B H -0.1383 0.5398 0.5196
N3 N 0.2380(3) 0.1959(11) 0.8879(5)
C29 C 0.2661(4) 0.1143(13) 0.9055(6)
H38 H 0.2571 0.0475 0.9197
C30 C 0.3065(4) 0.1206(15) 0.9045(7)
H39 H 0.3249 0.0598 0.9174
C31 C 0.3205(4) 0.2193(15) 0.8840(6)
H40 H 0.3484 0.2257 0.8819
C32 C 0.2923(4) 0.3077(14) 0.8667(5)
H41 H 0.3007 0.3765 0.8533
C33 C 0.2518(4) 0.2913(14) 0.8697(6)
H42 H 0.2326 0.3513 0.8583
N4 N 0.2986(7) -0.0096(14) 0.7711(7)
C34 C 0.3313(5) 0.0506(14) 0.7620(7)
H43 H 0.3583 0.0193 0.7707
C35 C 0.3249(5) 0.1492(14) 0.7417(7)
H44 H 0.3479 0.1898 0.7353
C36 C 0.2882(7) 0.1984(15) 0.7289(8)
H45 H 0.2853 0.2724 0.7140
C37 C 0.2543(6) 0.142(2) 0.7374(10)
H46 H 0.2278 0.1763 0.7284
C38 C 0.2591(5) 0.0397(17) 0.7580(8)
H47 H 0.2360 -0.0007 0.7641
N5 N 0.1580(3) 0.1875(8) 0.5795(4)
C39 C 0.1851(4) 0.2631(12) 0.6049(5)
H48 H 0.1770 0.3093 0.6294
C40 C 0.2247(3) 0.2779(12) 0.5973(5)
H49 H 0.2432 0.3310 0.6171
C41 C 0.2367(3) 0.2152(12) 0.5610(5)
H50 H 0.2636 0.2232 0.5555
C42 C 0.2076(4) 0.1374(11) 0.5317(5)
H51 H 0.2140 0.0936 0.5053
C43 C 0.1696(3) 0.1292(9) 0.5438(4)
H52 H 0.1501 0.0772 0.5247
O9 O 0.0000 0.8406(15) 0.7500
C44 C 0.0349(4) 0.7757(17) 0.7473(5)
H53 H 0.0579 0.7929 0.7764
H54 H 0.0438 0.7951 0.7163
C45 C 0.0242(8) 0.6547(16) 0.7471(14)
H55 H 0.0424 0.6139 0.7755
H56 H 0.0264 0.6175 0.7154
C44B C -0.0349(4) 0.7757(17) 0.7527(5)
H53B H -0.0579 0.7929 0.7236
H54B H -0.0438 0.7951 0.7837
C45B C -0.0242(8) 0.6547(16) 0.7529(14)
H55B H -0.0424 0.6139 0.7245
H56B H -0.0264 0.6175 0.7846
H5? H -0.0631 -0.0297 0.8868
C46? C 0.0057(5) 0.1455(10) 0.7748(4)
H57? H 0.0093 0.0752 0.7929
C47? C 0.0123(5) 0.2516(13) 0.8003(5)
H58? H 0.0210 0.2532 0.8358
C48? C 0.0064(5) 0.3479(11) 0.7749(5)
H59? H 0.0115 0.4190 0.7922
loop_
_geom_bond_atom_site_label_1
_geom_bond_atom_site_label_2
_geom_bond_site_symmetry_1
_geom_bond_site_symmetry_2
S1 O1 1_555 1_555
S2 O3 1_555 1_555
O2 S1 1_555 1_555
O4 S2 1_555 1_555
N1 S1 1_555 1_555
H1 N1 1_555 1_555
N2 S2 1_555 1_555
H2 N2 1_555 1_555
C1 S1 1_555 1_555
C2 C1 1_555 1_555
H3 C2 1_555 1_555
C3 C2 1_555 1_555
C4 C3 1_555 1_555
H4 C4 1_555 1_555
C5 S2 1_555 1_555
C6 C5 1_555 1_555
C7 C6 1_555 1_555
H6 C7 1_555 1_555
C8 C3 1_555 1_555
C9 C8 1_555 1_555
H7 C9 1_555 1_555
C10 C1 1_555 1_555
C11 N1 1_555 1_555
C12 C11 1_555 1_555
H8 C12 1_555 1_555
C13 N2 1_555 1_555
C14 C13 1_555 1_555
C15 C14 1_555 1_555
H9 C15 1_555 1_555
C16 C11 1_555 1_555
O5 C6 1_555 1_555
C17 O5 1_555 1_555
H10 C17 1_555 1_555
H11 C17 1_555 1_555
H12 C17 1_555 1_555
O6 C10 1_555 1_555
C18 O6 1_555 1_555
H13 C18 1_555 1_555
H14 C18 1_555 1_555
H15 C18 1_555 1_555
O7 C14 1_555 1_555
C19 O7 1_555 1_555
H16 C19 1_555 1_555
H17 C19 1_555 1_555
C20 C19 1_555 1_555
H18 C20 1_555 1_555
H19 C20 1_555 1_555
C21 C20 1_555 1_555
H20 C21 1_555 1_555
C22 C21 1_555 1_555
H21 C22 1_555 1_555
H22 C22 1_555 1_555
H23 C22 1_555 1_555
C23 C21 1_555 1_555
H24 C23 1_555 1_555
H25 C23 1_555 1_555
H26 C23 1_555 1_555
O8 C16 1_555 1_555
C24 O8 1_555 1_555
H27 C24 1_555 1_555
H28 C24 1_555 1_555
C25 C24 1_555 1_555
H29 C25 1_555 1_555
H30 C25 1_555 1_555
C26 C25 1_555 1_555
H31 C26 1_555 1_555
C27 C26 1_555 1_555
H32 C27 1_555 1_555
H33 C27 1_555 1_555
H34 C27 1_555 1_555
C28 C26 1_555 1_555
H35 C28 1_555 1_555
H36 C28 1_555 1_555
H37 C28 1_555 1_555
N3 C29 1_555 1_555
C29 H38 1_555 1_555
C30 C29 1_555 1_555
H39 C30 1_555 1_555
C31 C30 1_555 1_555
H40 C31 1_555 1_555
C32 C31 1_555 1_555
H41 C32 1_555 1_555
C33 N3 1_555 1_555
H42 C33 1_555 1_555
N4 C34 1_555 1_555
C34 H43 1_555 1_555
C35 C34 1_555 1_555
H44 C35 1_555 1_555
C36 C35 1_555 1_555
H45 C36 1_555 1_555
C37 C36 1_555 1_555
H46 C37 1_555 1_555
C38 N4 1_555 1_555
H47 C38 1_555 1_555
N5 C39 1_555 1_555
C39 H48 1_555 1_555
C40 C39 1_555 1_555
H49 C40 1_555 1_555
C41 C40 1_555 1_555
H50 C41 1_555 1_555
C42 C41 1_555 1_555
H51 C42 1_555 1_555
C43 N5 1_555 1_555
H52 C43 1_555 1_555
O9 C44 1_555 1_555
C44 H53 1_555 1_555
H54 C44 1_555 1_555
C45 C44 1_555 1_555
H55 C45 1_555 1_555
H56 C45 1_555 1_555
S1B O1B 1_555 1_555
S2B O3B 1_555 1_555
O2B S1B 1_555 1_555
O4B S2B 1_555 1_555
N1B S1B 1_555 1_555
H1B N1B 1_555 1_555
N2B S2B 1_555 1_555
H2B N2B 1_555 1_555
C1B S1B 1_555 1_555
C2B C1B 1_555 1_555
H3B C2B 1_555 1_555
C3B C2B 1_555 1_555
C4B C3B 1_555 1_555
H4B C4B 1_555 1_555
C5B S2B 1_555 1_555
C6B C5B 1_555 1_555
C7B C6B 1_555 1_555
H6B C7B 1_555 1_555
C8B C3B 1_555 1_555
C9B C8B 1_555 1_555
H7B C9B 1_555 1_555
C10B C1B 1_555 1_555
C11B N1B 1_555 1_555
C12B C13 1_555 1_555
H8B C12B 1_555 1_555
C13B C12 1_555 1_555
C14B C13B 1_555 1_555
C15B C16 1_555 1_555
H9B C15B 1_555 1_555
C16B C15 1_555 1_555
O5B C6B 1_555 1_555
C17B O5B 1_555 1_555
H10B C17B 1_555 1_555
H11B C17B 1_555 1_555
H12B C17B 1_555 1_555
O6B C10B 1_555 1_555
C18B O6B 1_555 1_555
H13B C18B 1_555 1_555
H14B C18B 1_555 1_555
H15B C18B 1_555 1_555
O7B C14B 1_555 1_555
C19B O7B 1_555 1_555
H16B C19B 1_555 1_555
H17B C19B 1_555 1_555
C20B C19B 1_555 1_555
H18B C20B 1_555 1_555
H19B C20B 1_555 1_555
C21B C20B 1_555 1_555
H20B C21B 1_555 1_555
C22B C21B 1_555 1_555
H21B C22B 1_555 1_555
H22B C22B 1_555 1_555
H23B C22B 1_555 1_555
C23B C21B 1_555 1_555
H24B C23B 1_555 1_555
H25B C23B 1_555 1_555
H26B C23B 1_555 1_555
O8B C16B 1_555 1_555
C24B O8B 1_555 1_555
H27B C24B 1_555 1_555
H28B C24B 1_555 1_555
C25B C24B 1_555 1_555
H29B C25B 1_555 1_555
H30B C25B 1_555 1_555
C26B C25B 1_555 1_555
H31B C26B 1_555 1_555
C27B C26B 1_555 1_555
H32B C27B 1_555 1_555
H33B C27B 1_555 1_555
H34B C27B 1_555 1_555
C28B C26B 1_555 1_555
H35B C28B 1_555 1_555
H36B C28B 1_555 1_555
H37B C28B 1_555 1_555
C44B O9 1_555 1_555
H53B C44B 1_555 1_555
H54B C44B 1_555 1_555
C45B C45 1_555 1_555
H55B C45B 1_555 1_555
H56B C45B 1_555 1_555
C4 C5 1_555 1_555
C7 C8 1_555 1_555
C9 C10 1_555 1_555
C32 C33 1_555 1_555
C37 C38 1_555 1_555
C42 C43 1_555 1_555
N2B C13B 1_555 1_555
C4B C5B 1_555 1_555
C7B C8B 1_555 1_555
C9B C10B 1_555 1_555
C11B C12B 1_555 1_555
C11B C16B 1_555 1_555
C14B C15B 1_555 1_555
C44B C45B 1_555 1_555

#END
