
#######################################################################
#
#                 Cambridge Crystallographic Data Centre
#                                CCDC 
#
#######################################################################
#
# If this CIF has been generated from an entry in the Cambridge 
# Structural Database, then it will include bibliographic, chemical, 
# crystal, experimental, refinement or atomic coordinate data resulting 
# from the CCDC's data processing and validation procedures.
#
#######################################################################

data_PEKBAJ
_chemical_formula_moiety         'C12 H15 N3 2+,2(C1 F3 O3 S1 1-)'
_chemical_name_systematic        
'bis(pyridinium-2-ylmethyl)amine bis(trifluoromethanesulfonate)'
_symmetry_cell_setting           triclinic
_symmetry_space_group_name_H-M   'P -1'
_symmetry_Int_Tables_number      2
_space_group_name_Hall           '-P 1'
loop_
_symmetry_equiv_pos_site_id
_symmetry_equiv_pos_as_xyz
1 x,y,z
2 -x,-y,-z
_cell_length_a                   9.2070(10)
_cell_length_b                   9.2370(10)
_cell_length_c                   11.804(2)
_cell_angle_alpha                75.022(2)
_cell_angle_beta                 87.211(2)
_cell_angle_gamma                89.868(2)
_cell_volume                     968.562
_exptl_crystal_colour            colorless
_exptl_crystal_description       prism
_cell_formula_units_Z            2
loop_
_atom_site_label
_atom_site_type_symbol
_atom_site_fract_x
_atom_site_fract_y
_atom_site_fract_z
N1 N 0.31355(19) 0.3360(2) 0.11659(16)
C1 C 0.3812(2) 0.3029(3) 0.0121(2)
N2 N 0.1427(2) 0.3462(2) -0.07393(17)
C2 C 0.2878(2) 0.3505(2) -0.0917(2)
C3 C 0.3467(2) 0.3970(3) -0.2056(2)
C4 C 0.2560(3) 0.4413(3) -0.2976(2)
C5 C 0.1062(3) 0.4369(3) -0.2765(2)
C6 C 0.0506(3) 0.3877(3) -0.1619(2)
C7 C 0.4006(2) 0.2790(3) 0.2186(2)
N3 N 0.1656(2) 0.2379(2) 0.32597(16)
C8 C 0.3098(2) 0.2481(2) 0.33110(18)
C9 C 0.3692(3) 0.2243(3) 0.4404(2)
C10 C 0.2776(3) 0.1865(3) 0.5404(2)
C11 C 0.1283(3) 0.1771(3) 0.5315(2)
C12 C 0.0732(3) 0.2047(3) 0.4219(2)
H1 H 0.306(3) 0.436(4) 0.103(3)
H2 H 0.105(4) 0.315(4) 0.003(3)
H3 H 0.399(3) 0.195(3) 0.026(3)
H4 H 0.474(3) 0.350(3) -0.010(3)
H5 H 0.454(3) 0.400(3) -0.215(2)
H6 H 0.291(3) 0.469(4) -0.372(3)
H7 H 0.041(4) 0.470(4) -0.335(3)
H8 H -0.052(4) 0.375(4) -0.135(3)
H9 H 0.123(4) 0.253(5) 0.254(4)
H10 H 0.478(4) 0.351(4) 0.225(3)
H11 H 0.436(3) 0.180(3) 0.211(2)
H12 H 0.478(3) 0.234(3) 0.444(3)
H13 H 0.316(4) 0.162(5) 0.619(4)
H14 H 0.061(3) 0.153(3) 0.596(3)
H15 H -0.027(4) 0.201(4) 0.408(3)
O1 O -0.02432(18) 0.2449(2) 0.13950(16)
O2 O -0.2559(2) 0.33807(19) 0.06262(17)
O3 O -0.2430(2) 0.1933(2) 0.26669(16)
S1 S -0.18197(5) 0.22731(6) 0.14874(5)
C13 C -0.2082(3) 0.0549(3) 0.1035(2)
F1 F -0.34943(18) 0.0230(2) 0.1032(2)
F2 F -0.1513(2) 0.0663(2) -0.00389(15)
F3 F -0.1467(2) -0.06092(18) 0.17562(16)
O4 O 0.2790(2) 0.5938(2) 0.24716(17)
O5 O 0.4236(2) 0.6198(2) 0.40831(18)
O6 O 0.1605(2) 0.6038(3) 0.43396(17)
S2 S 0.28578(6) 0.64144(6) 0.35441(5)
C14 C 0.2751(3) 0.8441(3) 0.3023(3)
F4 F 0.3826(3) 0.8998(2) 0.2249(2)
F5 F 0.2828(3) 0.9064(2) 0.3925(2)
F6 F 0.1514(2) 0.8889(2) 0.25175(17)
loop_
_geom_bond_atom_site_label_1
_geom_bond_atom_site_label_2
_geom_bond_site_symmetry_1
_geom_bond_site_symmetry_2
N1 C1 1_555 1_555
C1 C2 1_555 1_555
N2 C2 1_555 1_555
C2 C3 1_555 1_555
C3 C4 1_555 1_555
C4 C5 1_555 1_555
C5 C6 1_555 1_555
C6 N2 1_555 1_555
C7 N1 1_555 1_555
N3 C8 1_555 1_555
C8 C7 1_555 1_555
C9 C8 1_555 1_555
C10 C9 1_555 1_555
C11 C10 1_555 1_555
C12 N3 1_555 1_555
O1 S1 1_555 1_555
O2 S1 1_555 1_555
O3 S1 1_555 1_555
S1 C13 1_555 1_555
C13 F1 1_555 1_555
F2 C13 1_555 1_555
F3 C13 1_555 1_555
O4 S2 1_555 1_555
O5 S2 1_555 1_555
O6 S2 1_555 1_555
S2 C14 1_555 1_555
C14 F4 1_555 1_555
F5 C14 1_555 1_555
F6 C14 1_555 1_555
H1 N1 1_555 1_555
H2 N2 1_555 1_555
H3 C1 1_555 1_555
H4 C1 1_555 1_555
H5 C3 1_555 1_555
H6 C4 1_555 1_555
H7 C5 1_555 1_555
H8 C6 1_555 1_555
H9 N3 1_555 1_555
H10 C7 1_555 1_555
H11 C7 1_555 1_555
H12 C9 1_555 1_555
H13 C10 1_555 1_555
H14 C11 1_555 1_555
H15 C12 1_555 1_555
C11 C12 1_555 1_555

#END
