
#######################################################################
#
#                 Cambridge Crystallographic Data Centre
#                                CCDC 
#
#######################################################################
#
# If this CIF has been generated from an entry in the Cambridge 
# Structural Database, then it will include bibliographic, chemical, 
# crystal, experimental, refinement or atomic coordinate data resulting 
# from the CCDC's data processing and validation procedures.
#
#######################################################################

data_PEKYIO
_chemical_compound_source        'Gliocladium virens'
_chemical_name_common            'Glioivirin monohydrate'
_chemical_formula_moiety         'C20 H20 N2 O8 S2,H2 O1'
_chemical_name_systematic        
'4,4a,8,9-Tetrahydro-4-hydroxy-9-(2-hydroxy-3,4-dimethoxyphenyl)-8,11a-(iminomethano)-1aH,7H,12H-[1,2,4]dithiazepino[4,3-b]oxireno[e][1,2]benzoxazine-7,13,dione monohydrate'
_chemical_properties_biological  
'Gliovirin has antibiotic activity against Pythium ultimum'
_symmetry_cell_setting           monoclinic
_symmetry_space_group_name_H-M   'P 21'
_symmetry_Int_Tables_number      4
_space_group_name_Hall           'P 2yb'
loop_
_symmetry_equiv_pos_site_id
_symmetry_equiv_pos_as_xyz
1 x,y,z
2 -x,1/2+y,-z
_cell_length_a                   9.312(1)
_cell_length_b                   9.399(3)
_cell_length_c                   12.370(2)
_cell_angle_alpha                90
_cell_angle_beta                 91.41(1)
_cell_angle_gamma                90
_cell_volume                     1082.34
_exptl_crystal_colour            colorless
_exptl_crystal_description       prism
_chemical_melting_point          247-249deg.C
_cell_formula_units_Z            2
_exptl_crystal_recrystallization_method acetone
loop_
_atom_site_label
_atom_site_type_symbol
_atom_site_fract_x
_atom_site_fract_y
_atom_site_fract_z
S1 S 0.91968(9) 0.4532(1) 0.64731(6)
S2 S 0.71211(9) 0.4439 0.59135(7)
O1 O 0.5318(3) 0.3262(4) 0.1981(2)
O2 O 0.9793(3) 0.3168(4) 0.1152(2)
O3 O 0.8706(2) 0.4195(3) 0.3359(2)
O4 O 1.1012(2) 0.2908(3) 0.4321(2)
O5 O 0.5799(3) 0.1151(4) 0.5132(3)
O6 O 1.4966(3) 0.2237(4) 0.9042(2)
O7 O 1.2484(3) 0.2319(4) 1.0098(2)
O8 O 0.9922(2) 0.2625(4) 0.8975(2)
N1 N 0.8593(3) 0.3221(3) 0.4206(2)
N2 N 0.8182(3) 0.1078(4) 0.5549(2)
C1 C 0.7217(3) 0.3200(4) 0.4719(2)
C2 C 0.6058(4) 0.3632(5) 0.3890(3)
C3 C 0.6444(3) 0.3122(5) 0.2781(3)
C4 C 0.5825(4) 0.1845(5) 0.2286(3)
C5 C 0.6627(4) 0.1098(5) 0.1442(3)
C6 C 0.7970(4) 0.1419(5) 0.1253(3)
C7 C 0.8828(4) 0.2492(5) 0.1877(3)
C8 C 0.7914(4) 0.3607(4) 0.2423(3)
C9 C 0.9820(3) 0.2713(4) 0.4671(2)
C10 C 0.9553(4) 0.1798(4) 0.5664(3)
C11 C 0.6982(4) 0.1692(5) 0.5155(3)
C12 C 0.9663(3) 0.2673(4) 0.6741(2)
C13 C 1.1111(3) 0.2634(4) 0.7306(3)
C14 C 1.2398(4) 0.2595(5) 0.6766(3)
C15 C 1.3708(3) 0.2480(5) 0.7302(3)
C16 C 1.3757(3) 0.2365(5) 0.8417(3)
C17 C 1.2471(3) 0.2394(4) 0.8988(3)
C18 C 1.1176(3) 0.2556(4) 0.8439(2)
C19 C 1.6284(4) 0.2154(8) 0.8511(4)
C20 C 1.2583(5) 0.0894(6) 1.0499(3)
H1 H 0.516(4) 0.335(5) 0.403(3)
H2 H 0.597(4) 0.465(6) 0.384(3)
H3 H 0.505(4) 0.130(5) 0.267(3)
H4 H 0.602(4) 0.044(5) 0.101(4)
H5 H 0.841(4) 0.091(5) 0.067(3)
H6 H 0.936(4) 0.205(4) 0.256(3)
H7 H 0.788(4) 0.433(5) 0.196(3)
H8 H 1.034(4) 0.113(5) 0.570(3)
H9 H 0.836(5) 0.037(7) 0.573(4)
H10 H 0.900(3) 0.227(4) 0.719(2)
H11 H 1.234(4) 0.263(5) 0.599(3)
H12 H 1.449(4) 0.241(5) 0.693(3)
H13 H 1.055(5) 0.351(6) 0.158(4)
H14 H 1.669(4) 0.192(5) 0.902(3)
H15 H 1.647(5) 0.288(6) 0.801(4)
H16 H 1.619(5) 0.147(7) 0.788(4)
H17 H 1.170(5) 0.026(7) 1.018(4)
H18 H 1.337(5) 0.031(6) 1.022(4)
H19 H 1.265(5) 0.093(6) 1.125(3)
H20 H 1.012(4) 0.284(5) 0.965(3)
O9 O 0.2219(3) 0.3816(5) 0.2399(3)
H21 H 0.301(8) 0.390(11) 0.210(7)
H22 H 0.197(7) 0.331(9) 0.313(5)
loop_
_geom_bond_atom_site_label_1
_geom_bond_atom_site_label_2
_geom_bond_site_symmetry_1
_geom_bond_site_symmetry_2
S1 S2 1_555 1_555
S2 C1 1_555 1_555
O1 C3 1_555 1_555
O2 C7 1_555 1_555
O3 N1 1_555 1_555
O4 C9 1_555 1_555
O5 C11 1_555 1_555
O6 C16 1_555 1_555
O7 C17 1_555 1_555
O8 C18 1_555 1_555
N1 C1 1_555 1_555
N2 C10 1_555 1_555
C1 C2 1_555 1_555
C2 C3 1_555 1_555
C3 C4 1_555 1_555
C4 O1 1_555 1_555
C5 C4 1_555 1_555
C6 C5 1_555 1_555
C7 C6 1_555 1_555
C8 O3 1_555 1_555
C9 N1 1_555 1_555
C10 C9 1_555 1_555
C11 N2 1_555 1_555
C12 S1 1_555 1_555
C13 C12 1_555 1_555
C14 C13 1_555 1_555
C15 C14 1_555 1_555
C16 C15 1_555 1_555
C17 C16 1_555 1_555
C18 C13 1_555 1_555
C19 O6 1_555 1_555
C20 O7 1_555 1_555
H1 C2 1_555 1_555
H2 C2 1_555 1_555
H3 C4 1_555 1_555
H4 C5 1_555 1_555
H5 C6 1_555 1_555
H6 C7 1_555 1_555
H7 C8 1_555 1_555
H8 C10 1_555 1_555
H9 N2 1_555 1_555
H10 C12 1_555 1_555
H11 C14 1_555 1_555
H12 C15 1_555 1_555
H13 O2 1_555 1_555
H14 C19 1_555 1_555
H15 C19 1_555 1_555
H16 C19 1_555 1_555
H17 C20 1_555 1_555
H18 C20 1_555 1_555
H19 C20 1_555 1_555
H20 O8 1_555 1_555
O9 H21 1_555 1_555
H22 O9 1_555 1_555
C1 C11 1_555 1_555
C3 C8 1_555 1_555
C7 C8 1_555 1_555
C10 C12 1_555 1_555
C17 C18 1_555 1_555

#END
