
#######################################################################
#
#                 Cambridge Crystallographic Data Centre
#                                CCDC 
#
#######################################################################
#
# If this CIF has been generated from an entry in the Cambridge 
# Structural Database, then it will include bibliographic, chemical, 
# crystal, experimental, refinement or atomic coordinate data resulting 
# from the CCDC's data processing and validation procedures.
#
#######################################################################

data_PELBUF
_chemical_formula_moiety         'C67 H68 N2'
_chemical_name_systematic        
2-((4,5-bis(4-butylphenyl)-3-phenyl-2H-pyrrol-2-ylidene)(phenyl)methyl)-4,5-bis(4-butylphenyl)-3-phenyl-1H-pyrrole
_symmetry_cell_setting           triclinic
_symmetry_space_group_name_H-M   'P -1'
_symmetry_Int_Tables_number      2
_space_group_name_Hall           '-P 1'
loop_
_symmetry_equiv_pos_site_id
_symmetry_equiv_pos_as_xyz
1 x,y,z
2 -x,-y,-z
_cell_length_a                   13.4626(7)
_cell_length_b                   14.6803(8)
_cell_length_c                   15.9634(7)
_cell_angle_alpha                94.288(4)
_cell_angle_beta                 98.319(4)
_cell_angle_gamma                115.215(5)
_cell_volume                     2791.3
_exptl_crystal_colour            red
_exptl_crystal_description       block
_cell_formula_units_Z            2
loop_
_atom_site_label
_atom_site_type_symbol
_atom_site_fract_x
_atom_site_fract_y
_atom_site_fract_z
N1 N 0.19243(14) 0.46281(15) 0.09513(11)
N2 N 0.36673(14) 0.61209(15) 0.06180(12)
H1 H 0.3252 0.5987 0.0997
C1 C -0.5559(4) 0.0668(4) 0.3351(3)
H2 H -0.5105 0.0478 0.3753
H3 H -0.6327 0.0318 0.3405
H4 H -0.5314 0.1391 0.3466
C2 C -0.5452(3) 0.0392(3) 0.2480(3)
H5 H -0.5963 0.0532 0.2076
H6 H -0.5674 -0.0334 0.2377
C3 C -0.4317(2) 0.0940(3) 0.2320(2)
H7 H -0.3804 0.0824 0.2740
H8 H -0.4109 0.1665 0.2402
C4 C -0.4175(2) 0.0621(3) 0.1395(2)
H9 H -0.4226 -0.0061 0.1351
H10 H -0.4780 0.0607 0.0974
C5 C -0.3063(2) 0.1347(2) 0.11976(18)
C6 C -0.2078(2) 0.1347(2) 0.15887(19)
H11 H -0.2104 0.0877 0.1955
C7 C -0.10573(19) 0.2033(2) 0.14460(17)
H12 H -0.0407 0.2016 0.1718
C8 C -0.09791(17) 0.27438(18) 0.09089(14)
C9 C -0.19662(18) 0.2739(2) 0.05173(16)
H13 H -0.1944 0.3206 0.0149
C10 C -0.2986(2) 0.2051(2) 0.06651(17)
H14 H -0.3637 0.2068 0.0395
C11 C 0.01159(17) 0.34669(18) 0.07406(14)
C12 C 0.11037(17) 0.41127(18) 0.13596(14)
C13 C 0.15421(16) 0.43547(18) 0.00764(14)
C14 C 0.03903(16) 0.36244(17) -0.00648(14)
C15 C 0.22776(16) 0.47735(17) -0.04927(14)
C16 C 0.33602(17) 0.55901(18) -0.02038(14)
C17 C 0.42920(17) 0.60518(18) -0.06229(14)
C18 C 0.51260(17) 0.68462(18) -0.00377(15)
C19 C 0.47052(17) 0.68716(18) 0.07353(14)
C20 C 0.62363(17) 0.75411(19) -0.02103(14)
C21 C 0.69092(18) 0.7130(2) -0.04923(16)
H15 H 0.6696 0.6436 -0.0518
C22 C 0.78934(18) 0.7750(2) -0.07346(17)
H16 H 0.8338 0.7464 -0.0916
C23 C 0.82335(17) 0.87787(19) -0.07141(16)
C24 C 0.75832(19) 0.9189(2) -0.04034(16)
H17 H 0.7809 0.9887 -0.0361
C25 C 0.65984(18) 0.85745(19) -0.01543(16)
H18 H 0.6174 0.8867 0.0055
C26 C 0.92478(19) 0.9414(2) -0.10705(18)
H19 H 0.9860 0.9259 -0.0850
H20 H 0.9477 1.0129 -0.0878
C27 C 0.9019(2) 0.9220(2) -0.20374(19)
H21 H 0.8362 0.9312 -0.2255
H22 H 0.8853 0.8518 -0.2225
C28 C 0.9989(2) 0.9914(3) -0.2419(2)
H23 H 1.0244 1.0609 -0.2146
H24 H 1.0602 0.9734 -0.2283
C29 C 0.9731(7) 0.9877(13) -0.3356(5)
H25 H 0.9536 0.9205 -0.3637
H26 H 1.0375 1.0362 -0.3538
H27 H 0.9114 1.0039 -0.3501
C30 C -0.04049(16) 0.31064(18) -0.08874(14)
C31 C -0.09033(19) 0.2053(2) -0.10783(17)
H28 H -0.0732 0.1673 -0.0693
C32 C -0.1650(2) 0.1569(2) -0.18352(19)
H29 H -0.1980 0.0862 -0.1959
C33 C -0.1912(2) 0.2121(3) -0.24105(19)
H30 H -0.2412 0.1790 -0.2925
C34 C -0.1435(2) 0.3159(2) -0.22244(17)
H31 H -0.1615 0.3534 -0.2612
C35 C -0.06885(18) 0.3653(2) -0.14648(15)
H32 H -0.0373 0.4359 -0.1340
C36 C 0.19126(16) 0.4352(2) -0.14126(14)
C37 C 0.16134(18) 0.3343(2) -0.16979(17)
H33 H 0.1633 0.2913 -0.1303
C38 C 0.1287(2) 0.2963(3) -0.2559(2)
H34 H 0.1084 0.2280 -0.2744
C39 C 0.1263(2) 0.3598(3) -0.3141(2)
H35 H 0.1050 0.3346 -0.3724
C40 C 0.1550(2) 0.4599(3) -0.28697(18)
H36 H 0.1524 0.5024 -0.3268
C41 C 0.18776(18) 0.4980(2) -0.20106(15)
H37 H 0.2076 0.5663 -0.1830
C42 C 0.44073(17) 0.5756(2) -0.14965(15)
C43 C 0.43478(18) 0.4815(2) -0.17603(16)
H38 H 0.4216 0.4342 -0.1383
C44 C 0.4479(2) 0.4563(2) -0.25707(18)
H39 H 0.4424 0.3920 -0.2740
C45 C 0.4691(2) 0.5258(3) -0.31280(19)
H40 H 0.4780 0.5089 -0.3676
C46 C 0.4773(2) 0.6199(3) -0.28775(19)
H41 H 0.4923 0.6672 -0.3255
C47 C 0.4633(2) 0.6457(2) -0.20621(17)
H42 H 0.4690 0.7101 -0.1896
C48 C 0.13173(18) 0.43326(19) 0.22930(14)
C49 C 0.0478(2) 0.4237(2) 0.27457(16)
H43 H -0.0264 0.3949 0.2460
C50 C 0.0739(3) 0.4564(3) 0.36086(19)
H44 H 0.0161 0.4484 0.3897
C51 C 0.1824(3) 0.5008(3) 0.40691(17)
C52 C 0.2647(2) 0.5067(3) 0.36155(18)
H45 H 0.3386 0.5336 0.3906
C53 C 0.2406(2) 0.4743(2) 0.27578(16)
H46 H 0.2982 0.4798 0.2476
C54 C 0.2100(3) 0.5431(4) 0.5016(2)
H47 H 0.1408 0.5212 0.5231
H48 H 0.2549 0.5145 0.5322
C55 C 0.2709(10) 0.6552(11) 0.5202(8)
H49 H 0.3310 0.6814 0.4886
H50 H 0.3012 0.6786 0.5810
C56 C 0.1622(9) 0.6911(9) 0.4842(6)
H51 H 0.1521 0.6859 0.4223
H52 H 0.0933 0.6408 0.4970
C57 C 0.1739(13) 0.7827(12) 0.5148(9)
H53 H 0.2437 0.8183 0.5549
H54 H 0.1133 0.7753 0.5432
H55 H 0.1732 0.8207 0.4685
C58 C 0.52245(17) 0.75049(19) 0.15699(15)
C59 C 0.4559(2) 0.7564(2) 0.21461(18)
H56 H 0.3785 0.7246 0.1971
C60 C 0.5017(2) 0.8076(3) 0.29618(19)
H57 H 0.4546 0.8094 0.3329
C61 C 0.6162(2) 0.8568(2) 0.32550(19)
C62 C 0.6819(2) 0.8536(2) 0.26794(19)
H58 H 0.7593 0.8877 0.2852
C63 C 0.63728(19) 0.8018(2) 0.18598(17)
H59 H 0.6849 0.8012 0.1494
C64 C 0.6660(3) 0.9080(3) 0.4170(2)
H60 H 0.6278 0.9474 0.4335
H61 H 0.7442 0.9547 0.4212
C65 C 0.6568(9) 0.8292(10) 0.4807(6)
H62 H 0.6814 0.8654 0.5389
H63 H 0.5788 0.7808 0.4742
C66 C 0.7220(9) 0.7728(8) 0.4687(5)
H64 H 0.7986 0.8213 0.4694
H65 H 0.6924 0.7315 0.4125
C67 C 0.7232(12) 0.7061(11) 0.5326(9)
H66 H 0.7190 0.7356 0.5869
H67 H 0.7913 0.6987 0.5379
H68 H 0.6603 0.6405 0.5148
C68? C 0.9848(19) 0.926(3) -0.3371(14)
C69? C 0.2062(13) 0.6413(12) 0.5194(9)
C70? C 0.2646(12) 0.7214(11) 0.4842(8)
C71? C 0.2584(14) 0.8134(11) 0.4959(8)
C72? C 0.7169(12) 0.8605(12) 0.4682(8)
C73? C 0.6265(12) 0.7492(12) 0.4820(8)
C74? C 0.6508(14) 0.6874(14) 0.5304(11)
H69? H 0.2591 0.5065 0.1197
H70? H 1.0699 1.0066 -0.2054
H71? H 0.9948 1.0548 -0.2491
H72? H 0.9135 0.9104 -0.3718
H73? H 0.9893 0.8635 -0.3286
H74? H 1.0434 0.9659 -0.3654
H75? H 0.1574 0.4938 0.5303
H76? H 0.2843 0.5514 0.5257
H77? H 0.1283 0.6280 0.5041
H78? H 0.2282 0.6622 0.5809
H79? H 0.2461 0.6988 0.4229
H80? H 0.3427 0.7369 0.5025
H81? H 0.1919 0.8078 0.4599
H82? H 0.3229 0.8662 0.4812
H83? H 0.2563 0.8300 0.5548
H84? H 0.7213 0.9771 0.4167
H85? H 0.6072 0.9123 0.4433
H86? H 0.7533 0.9030 0.5235
H87? H 0.7739 0.8530 0.4415
H88? H 0.5684 0.7599 0.5043
H89? H 0.5921 0.7100 0.4252
H90? H 0.7044 0.6704 0.5083
H91? H 0.5838 0.6262 0.5290
H92? H 0.6815 0.7215 0.5884
loop_
_geom_bond_atom_site_label_1
_geom_bond_atom_site_label_2
_geom_bond_site_symmetry_1
_geom_bond_site_symmetry_2
N1 C12 1_555 1_555
N2 H1 1_555 1_555
C1 H2 1_555 1_555
H3 C1 1_555 1_555
H4 C1 1_555 1_555
C2 C1 1_555 1_555
H5 C2 1_555 1_555
H6 C2 1_555 1_555
C3 C2 1_555 1_555
H7 C3 1_555 1_555
H8 C3 1_555 1_555
C4 C3 1_555 1_555
H9 C4 1_555 1_555
H10 C4 1_555 1_555
C5 C4 1_555 1_555
C6 C5 1_555 1_555
H11 C6 1_555 1_555
C7 C6 1_555 1_555
H12 C7 1_555 1_555
C8 C7 1_555 1_555
C9 C8 1_555 1_555
H13 C9 1_555 1_555
C10 C5 1_555 1_555
H14 C10 1_555 1_555
C11 C8 1_555 1_555
C12 C11 1_555 1_555
C13 N1 1_555 1_555
C14 C11 1_555 1_555
C15 C13 1_555 1_555
C16 N2 1_555 1_555
C17 C16 1_555 1_555
C18 C17 1_555 1_555
C19 N2 1_555 1_555
C20 C18 1_555 1_555
C21 C20 1_555 1_555
H15 C21 1_555 1_555
C22 C21 1_555 1_555
H16 C22 1_555 1_555
C23 C22 1_555 1_555
C24 C23 1_555 1_555
H17 C24 1_555 1_555
C25 C20 1_555 1_555
H18 C25 1_555 1_555
C26 C23 1_555 1_555
H19 C26 1_555 1_555
H20 C26 1_555 1_555
C27 C26 1_555 1_555
H21 C27 1_555 1_555
H22 C27 1_555 1_555
C28 C27 1_555 1_555
H23 C28 1_555 1_555
H24 C28 1_555 1_555
C29 C28 1_555 1_555
H25 C29 1_555 1_555
H26 C29 1_555 1_555
H27 C29 1_555 1_555
C30 C14 1_555 1_555
C31 C30 1_555 1_555
H28 C31 1_555 1_555
C32 C31 1_555 1_555
H29 C32 1_555 1_555
C33 C32 1_555 1_555
H30 C33 1_555 1_555
C34 C33 1_555 1_555
H31 C34 1_555 1_555
C35 C30 1_555 1_555
H32 C35 1_555 1_555
C36 C15 1_555 1_555
C37 C36 1_555 1_555
H33 C37 1_555 1_555
C38 C37 1_555 1_555
H34 C38 1_555 1_555
C39 C38 1_555 1_555
H35 C39 1_555 1_555
C40 C39 1_555 1_555
H36 C40 1_555 1_555
C41 C36 1_555 1_555
H37 C41 1_555 1_555
C42 C17 1_555 1_555
C43 C42 1_555 1_555
H38 C43 1_555 1_555
C44 C43 1_555 1_555
H39 C44 1_555 1_555
C45 C44 1_555 1_555
H40 C45 1_555 1_555
C46 C45 1_555 1_555
H41 C46 1_555 1_555
C47 C42 1_555 1_555
H42 C47 1_555 1_555
C48 C12 1_555 1_555
C49 C48 1_555 1_555
H43 C49 1_555 1_555
C50 C49 1_555 1_555
H44 C50 1_555 1_555
C51 C50 1_555 1_555
C52 C51 1_555 1_555
H45 C52 1_555 1_555
C53 C48 1_555 1_555
H46 C53 1_555 1_555
C54 C51 1_555 1_555
H47 C54 1_555 1_555
H48 C54 1_555 1_555
C55 C54 1_555 1_555
H49 C55 1_555 1_555
H50 C55 1_555 1_555
C56 C55 1_555 1_555
H51 C56 1_555 1_555
H52 C56 1_555 1_555
C57 C56 1_555 1_555
H53 C57 1_555 1_555
H54 C57 1_555 1_555
H55 C57 1_555 1_555
C58 C19 1_555 1_555
C59 C58 1_555 1_555
H56 C59 1_555 1_555
C60 C59 1_555 1_555
H57 C60 1_555 1_555
C61 C60 1_555 1_555
C62 C61 1_555 1_555
H58 C62 1_555 1_555
C63 C58 1_555 1_555
H59 C63 1_555 1_555
C64 C61 1_555 1_555
H60 C64 1_555 1_555
H61 C64 1_555 1_555
C65 C64 1_555 1_555
H62 C65 1_555 1_555
H63 C65 1_555 1_555
C66 C65 1_555 1_555
H64 C66 1_555 1_555
H65 C66 1_555 1_555
C67 C66 1_555 1_555
H66 C67 1_555 1_555
H67 C67 1_555 1_555
H68 C67 1_555 1_555
C9 C10 1_555 1_555
C13 C14 1_555 1_555
C15 C16 1_555 1_555
C18 C19 1_555 1_555
C24 C25 1_555 1_555
C34 C35 1_555 1_555
C40 C41 1_555 1_555
C46 C47 1_555 1_555
C52 C53 1_555 1_555
C62 C63 1_555 1_555

#END
