
#######################################################################
#
#                 Cambridge Crystallographic Data Centre
#                                CCDC 
#
#######################################################################
#
# If this CIF has been generated from an entry in the Cambridge 
# Structural Database, then it will include bibliographic, chemical, 
# crystal, experimental, refinement or atomic coordinate data resulting 
# from the CCDC's data processing and validation procedures.
#
#######################################################################

data_PELCIU
_chemical_formula_moiety         'C21 H23 N1 O5 S1'
_chemical_name_systematic        
'1-(Benzyl((4-methylphenyl)sulfonyl)amino)-3-methylbuta-1,2-dien-1-yl methyl carbonate'
_symmetry_cell_setting           triclinic
_symmetry_space_group_name_H-M   'P -1'
_symmetry_Int_Tables_number      2
_space_group_name_Hall           '-P 1'
loop_
_symmetry_equiv_pos_site_id
_symmetry_equiv_pos_as_xyz
1 x,y,z
2 -x,-y,-z
_cell_length_a                   10.8478(12)
_cell_length_b                   11.5786(13)
_cell_length_c                   17.841(2)
_cell_angle_alpha                80.352(2)
_cell_angle_beta                 80.707(2)
_cell_angle_gamma                76.854(2)
_cell_volume                     2133.45
_exptl_crystal_colour            colorless
_exptl_crystal_description       block
_cell_formula_units_Z            4
loop_
_atom_site_label
_atom_site_type_symbol
_atom_site_fract_x
_atom_site_fract_y
_atom_site_fract_z
O1 O 0.5407(2) 0.3144(2) 0.37163(12)
S2 S 0.84685(11) 0.25316(10) 0.36412(5)
C6 C 0.7292(4) -0.1270(4) 0.3317(2)
H6 H 0.7599 -0.1282 0.2801
C7 C 0.6361(5) -0.2214(5) 0.4477(3)
H7 H 0.6041 -0.2858 0.4758
O2 O 0.7786(3) 0.3595(2) 0.39396(13)
O5 O 0.9299(3) 0.1655(3) 0.40788(15)
C10 C 0.6858(5) -0.2244(5) 0.3731(3)
H10 H 0.6905 -0.2919 0.3500
C11 C 0.9544(5) 0.4296(4) 0.1610(2)
H11 H 0.9242 0.5017 0.1316
N1 N 0.7378(3) 0.1862(2) 0.34595(15)
C15 C 0.9322(3) 0.2932(3) 0.2759(2)
C18 C 1.1060(4) 0.2494(4) 0.1782(3)
H13 H 1.1801 0.1980 0.1604
C19 C 0.7282(3) -0.0295(3) 0.36425(18)
C20 C 0.6784(5) -0.0290(4) 0.4393(2)
H14 H 0.6747 0.0378 0.4628
C21 C 0.6303(4) 0.2602(3) 0.3147(2)
C25 C 1.0629(4) 0.3558(4) 0.1327(3)
C26 C 0.5236(6) 0.1855(7) 0.1532(4)
H22 H 0.5054 0.1301 0.1979
H23 H 0.5812 0.1431 0.1154
H24 H 0.4458 0.2241 0.1326
C27 C 0.5844(4) 0.2785(6) 0.1748(3)
C28 C 0.6183(5) 0.3802(6) 0.1140(3)
H25 H 0.6516 0.4336 0.1374
H26 H 0.5432 0.4233 0.0919
H27 H 0.6815 0.3476 0.0747
C30 C 1.1336(5) 0.3886(5) 0.0549(3)
H31 H 1.0889 0.3754 0.0159
H32 H 1.2181 0.3399 0.0508
H33 H 1.1388 0.4714 0.0484
C32 C 1.0423(4) 0.2185(4) 0.2485(2)
H34 H 1.0733 0.1467 0.2781
C33 C 0.8884(4) 0.4003(3) 0.2318(2)
H35 H 0.8149 0.4523 0.2499
C34 C 0.6336(6) -0.1249(5) 0.4807(3)
H36 H 0.6012 -0.1232 0.5321
C35 C 0.7873(4) 0.0698(3) 0.3179(2)
H37 H 0.8789 0.0486 0.3187
H38 H 0.7717 0.0774 0.2651
C39 C 0.6076(4) 0.2714(4) 0.2454(2)
O8 O 0.4303(2) 0.46432(19) 0.42366(11)
O9 O 0.5458(2) 0.5010(2) 0.30951(12)
C40 C 0.3760(4) 0.5900(3) 0.4230(2)
H41 H 0.4429 0.6329 0.4201
H42 H 0.3181 0.6021 0.4691
H43 H 0.3306 0.6187 0.3793
C41 C 0.5098(3) 0.4358(3) 0.36215(18)
S1 S 0.77394(9) 0.33944(9) 0.86600(5)
C1 C 0.9207(3) 0.3751(3) 0.72912(19)
H1 H 0.9710 0.3006 0.7435
C2 C 0.7741(4) 0.5952(3) 0.6852(3)
H2 H 0.7240 0.6698 0.6707
C3 C 0.2446(4) 0.2234(5) 0.8655(3)
H3 H 0.1694 0.2430 0.8432
C4 C 0.4651(4) 0.1714(4) 0.9302(2)
H4 H 0.5388 0.1549 0.9538
C5 C 0.3489(4) 0.2684(4) 0.8304(2)
H5 H 0.3435 0.3185 0.7840
C8 C 0.3612(5) 0.1235(4) 0.9659(3)
H8 H 0.3665 0.0735 1.0124
O3 O 0.8875(2) 0.2678(2) 0.89297(12)
O4 O 0.6881(3) 0.4194(2) 0.91238(14)
C9 C 0.7419(4) 0.5322(3) 0.7552(2)
H9 H 0.6704 0.5640 0.7874
C12 C 0.4612(3) 0.2418(3) 0.86182(18)
C13 C 0.8156(3) 0.4215(3) 0.77766(18)
C14 C 0.9510(4) 0.4401(4) 0.6590(2)
H12 H 1.0221 0.4084 0.6265
C16 C 0.8786(4) 0.5507(4) 0.6361(2)
C17 C 0.7621(3) 0.1414(3) 0.8160(2)
C22 C 0.2524(5) 0.1492(5) 0.9336(4)
H15 H 0.1828 0.1166 0.9576
C23 C 0.6731(7) 0.0504(5) 0.6534(4)
H16 H 0.6061 0.0471 0.6956
H17 H 0.7090 -0.0288 0.6410
H18 H 0.6389 0.1000 0.6097
C24 C 0.8830(7) 0.1281(5) 0.6150(3)
H19 H 0.9432 0.1574 0.6370
H20 H 0.8493 0.1874 0.5749
H21 H 0.9250 0.0559 0.5942
C29 C 0.9100(5) 0.6221(5) 0.5591(3)
H28 H 0.8633 0.6049 0.5224
H29 H 0.9998 0.6008 0.5424
H30 H 0.8867 0.7060 0.5635
C31 C 0.7765(6) 0.1029(4) 0.6756(3)
N2 N 0.6914(2) 0.2456(2) 0.84858(15)
C36 C 0.5684(3) 0.3006(3) 0.8210(2)
H39 H 0.5763 0.2961 0.7665
H40 H 0.5473 0.3846 0.8277
C37 C 0.7704(4) 0.1240(3) 0.7460(2)
O6 O 0.8157(2) 0.05418(19) 0.87329(11)
C38 C 0.9442(3) 0.0167(3) 0.86297(17)
O7 O 1.0152(2) 0.0460(2) 0.80979(12)
C42 C 1.1035(3) -0.1233(3) 0.9221(2)
H44 H 1.1248 -0.1717 0.8813
H45 H 1.1159 -0.1734 0.9700
H46 H 1.1575 -0.0659 0.9135
O10 O 0.9722(2) -0.06159(19) 0.92429(11)
loop_
_geom_bond_atom_site_label_1
_geom_bond_atom_site_label_2
_geom_bond_site_symmetry_1
_geom_bond_site_symmetry_2
O1 C21 1_555 1_555
S1 O3 1_555 1_555
S2 O2 1_555 1_555
C1 H1 1_555 1_555
C2 H2 1_555 1_555
C3 H3 1_555 1_555
C4 H4 1_555 1_555
C5 C3 1_555 1_555
H5 C5 1_555 1_555
C6 H6 1_555 1_555
C7 H7 1_555 1_555
C8 C4 1_555 1_555
H8 C8 1_555 1_555
O4 S1 1_555 1_555
C9 C2 1_555 1_555
H9 C9 1_555 1_555
O5 S2 1_555 1_555
C10 C6 1_555 1_555
H10 C10 1_555 1_555
C11 H11 1_555 1_555
N1 S2 1_555 1_555
C12 C4 1_555 1_555
C13 S1 1_555 1_555
C14 C1 1_555 1_555
H12 C14 1_555 1_555
C15 S2 1_555 1_555
C16 C2 1_555 1_555
C17 N2 1_555 1_555
C18 H13 1_555 1_555
C19 C6 1_555 1_555
C20 C19 1_555 1_555
H14 C20 1_555 1_555
C21 N1 1_555 1_555
C22 C3 1_555 1_555
H15 C22 1_555 1_555
C23 H16 1_555 1_555
H17 C23 1_555 1_555
H18 C23 1_555 1_555
C24 H19 1_555 1_555
H20 C24 1_555 1_555
H21 C24 1_555 1_555
C25 C11 1_555 1_555
C26 H22 1_555 1_555
H23 C26 1_555 1_555
H24 C26 1_555 1_555
C27 C26 1_555 1_555
C28 C27 1_555 1_555
H25 C28 1_555 1_555
H26 C28 1_555 1_555
H27 C28 1_555 1_555
C29 C16 1_555 1_555
H28 C29 1_555 1_555
H29 C29 1_555 1_555
H30 C29 1_555 1_555
C30 C25 1_555 1_555
H31 C30 1_555 1_555
H32 C30 1_555 1_555
H33 C30 1_555 1_555
C31 C23 1_555 1_555
N2 S1 1_555 1_555
C32 C15 1_555 1_555
H34 C32 1_555 1_555
C33 C11 1_555 1_555
H35 C33 1_555 1_555
C34 C7 1_555 1_555
H36 C34 1_555 1_555
C35 N1 1_555 1_555
H37 C35 1_555 1_555
H38 C35 1_555 1_555
C36 C12 1_555 1_555
H39 C36 1_555 1_555
H40 C36 1_555 1_555
C37 C17 1_555 1_555
O6 C17 1_555 1_555
C38 O6 1_555 1_555
O7 C38 1_555 1_555
C39 C21 1_555 1_555
O8 C40 1_555 1_555
O9 C41 1_555 1_555
C40 H41 1_555 1_555
H42 C40 1_555 1_555
H43 C40 1_555 1_555
C41 O1 1_555 1_555
C42 H44 1_555 1_555
H45 C42 1_555 1_555
H46 C42 1_555 1_555
O10 C38 1_555 1_555
C1 C13 1_555 1_555
C5 C12 1_555 1_555
C7 C10 1_555 1_555
C8 C22 1_555 1_555
C9 C13 1_555 1_555
C14 C16 1_555 1_555
C15 C33 1_555 1_555
C18 C25 1_555 1_555
C18 C32 1_555 1_555
C19 C35 1_555 1_555
C20 C34 1_555 1_555
C24 C31 1_555 1_555
C27 C39 1_555 1_555
C31 C37 1_555 1_555
N2 C36 1_555 1_555
O8 C41 1_555 1_555
C42 O10 1_555 1_555

#END
