
#######################################################################
#
#                 Cambridge Crystallographic Data Centre
#                                CCDC 
#
#######################################################################
#
# If this CIF has been generated from an entry in the Cambridge 
# Structural Database, then it will include bibliographic, chemical, 
# crystal, experimental, refinement or atomic coordinate data resulting 
# from the CCDC's data processing and validation procedures.
#
#######################################################################

data_PELHIZ
_chemical_formula_moiety         'C14 H19 F1 O2'
_chemical_name_systematic        
2-Fluoro-3-hydroxy-2,4,4-trimethyl-1-phenylpentan-1-one
_symmetry_cell_setting           monoclinic
_symmetry_space_group_name_H-M   'P 21/c'
_symmetry_Int_Tables_number      14
_space_group_name_Hall           '-P 2ybc'
loop_
_symmetry_equiv_pos_site_id
_symmetry_equiv_pos_as_xyz
1 x,y,z
2 -x,1/2+y,1/2-z
3 -x,-y,-z
4 x,1/2-y,1/2+z
_cell_length_a                   8.2696(8)
_cell_length_b                   17.9810(17)
_cell_length_c                   8.7670(8)
_cell_angle_alpha                90
_cell_angle_beta                 93.590(2)
_cell_angle_gamma                90
_cell_volume                     1301.06
_exptl_crystal_colour            colorless
_exptl_crystal_description       prismatic
_cell_formula_units_Z            4
loop_
_atom_site_label
_atom_site_type_symbol
_atom_site_fract_x
_atom_site_fract_y
_atom_site_fract_z
F1 F 0.14443(11) 0.44607(5) 0.97750(9)
O1 O 0.23540(15) 0.35946(6) 0.63838(12)
O2 O 0.16046(14) 0.28876(7) 1.06917(14)
C1 C 0.19290(16) 0.40729(7) 0.72403(15)
C2 C 0.14084(16) 0.38360(7) 0.88144(16)
C3 C 0.25147(16) 0.32354(7) 0.95748(16)
H1 H 0.2710 0.2862 0.8794
C4 C 0.41843(17) 0.34878(8) 1.02790(16)
C5 C 0.50569(19) 0.39800(9) 0.9181(2)
H2 H 0.4442 0.4426 0.8983
H3 H 0.5169 0.3718 0.8240
H4 H 0.6111 0.4106 0.9628
C6 C 0.5202(2) 0.27856(10) 1.0572(2)
H5 H 0.5330 0.2534 0.9622
H6 H 0.4666 0.2463 1.1251
H7 H 0.6247 0.2920 1.1027
C7 C 0.4063(2) 0.38920(11) 1.17966(19)
H8 H 0.5132 0.3990 1.2242
H9 H 0.3485 0.3587 1.2478
H10 H 0.3496 0.4353 1.1625
C8 C -0.03363(18) 0.35820(12) 0.8600(2)
H11 H -0.0746 0.3481 0.9580
H12 H -0.0394 0.3138 0.7990
H13 H -0.0975 0.3965 0.8095
C9 C 0.18363(15) 0.48597(7) 0.67080(14)
C10 C 0.08321(18) 0.53919(8) 0.72864(17)
H14 H 0.0199 0.5273 0.8092
C11 C 0.0767(2) 0.61000(9) 0.66727(19)
H15 H 0.0070 0.6452 0.7050
C12 C 0.1720(2) 0.62845(9) 0.55164(19)
H16 H 0.1688 0.6764 0.5120
C13 C 0.2720(2) 0.57650(10) 0.49394(19)
H17 H 0.3374 0.5894 0.4156
C14 C 0.27666(17) 0.50517(8) 0.55105(16)
H18 H 0.3426 0.4697 0.5090
H19 H 0.195(2) 0.2475(13) 1.078(2)
loop_
_geom_bond_atom_site_label_1
_geom_bond_atom_site_label_2
_geom_bond_site_symmetry_1
_geom_bond_site_symmetry_2
F1 C2 1_555 1_555
O1 C1 1_555 1_555
O2 C3 1_555 1_555
C1 C2 1_555 1_555
C2 C3 1_555 1_555
C3 H1 1_555 1_555
C4 C3 1_555 1_555
C5 C4 1_555 1_555
H2 C5 1_555 1_555
H3 C5 1_555 1_555
H4 C5 1_555 1_555
C6 C4 1_555 1_555
H5 C6 1_555 1_555
H6 C6 1_555 1_555
H7 C6 1_555 1_555
C7 C4 1_555 1_555
H8 C7 1_555 1_555
H9 C7 1_555 1_555
H10 C7 1_555 1_555
C8 C2 1_555 1_555
H11 C8 1_555 1_555
H12 C8 1_555 1_555
H13 C8 1_555 1_555
C9 C1 1_555 1_555
C10 C9 1_555 1_555
H14 C10 1_555 1_555
C11 C10 1_555 1_555
H15 C11 1_555 1_555
C12 C11 1_555 1_555
H16 C12 1_555 1_555
C13 C12 1_555 1_555
H17 C13 1_555 1_555
C14 C9 1_555 1_555
H18 C14 1_555 1_555
H19 O2 1_555 1_555
C13 C14 1_555 1_555

#END
