
#######################################################################
#
#                 Cambridge Crystallographic Data Centre
#                                CCDC 
#
#######################################################################
#
# If this CIF has been generated from an entry in the Cambridge 
# Structural Database, then it will include bibliographic, chemical, 
# crystal, experimental, refinement or atomic coordinate data resulting 
# from the CCDC's data processing and validation procedures.
#
#######################################################################

data_PELHAR
_chemical_formula_moiety         'C9 H7 Br1 N2 O4'
_chemical_name_systematic        
6-Bromo-3-hydroxy-3-(nitromethyl)-1,3-dihydro-2H-indol-2-one
_symmetry_cell_setting           orthorhombic
_symmetry_space_group_name_H-M   'P 21 21 21'
_symmetry_Int_Tables_number      19
_space_group_name_Hall           'P 2ac 2ab'
loop_
_symmetry_equiv_pos_site_id
_symmetry_equiv_pos_as_xyz
1 x,y,z
2 1/2+x,1/2-y,-z
3 -x,1/2+y,1/2-z
4 1/2-x,-y,1/2+z
_cell_length_a                   6.6802(12)
_cell_length_b                   7.3569(15)
_cell_length_c                   20.688(5)
_cell_angle_alpha                90
_cell_angle_beta                 90
_cell_angle_gamma                90
_cell_volume                     1016.72
_exptl_crystal_colour            yellow
_exptl_crystal_description       prism
_cell_formula_units_Z            4
loop_
_atom_site_label
_atom_site_type_symbol
_atom_site_fract_x
_atom_site_fract_y
_atom_site_fract_z
Br1 Br -0.02725(5) 0.61445(5) 0.334662(14)
O1 O 0.3959(3) 0.6845(3) -0.00291(10)
O2 O 0.6885(3) 0.6927(3) 0.10675(11)
H1 H 0.7278 0.7244 0.0704
O3 O 0.2903(4) 0.2907(4) 0.05625(13)
O4 O 0.5217(5) 0.0895(4) 0.06523(14)
N1 N 0.2034(4) 0.6878(4) 0.08966(13)
H2 H 0.0967 0.7399 0.0743
N2 N 0.4642(6) 0.2459(4) 0.06473(13)
C1 C 0.3686(5) 0.6511(5) 0.05463(14)
C2 C 0.5266(5) 0.5682(4) 0.10007(13)
C3 C 0.4146(4) 0.5560(4) 0.16298(14)
C4 C 0.2251(4) 0.6312(5) 0.15433(14)
C5 C 0.0897(5) 0.6462(5) 0.20364(14)
H3 H -0.0382 0.6964 0.1972
C6 C 0.1512(5) 0.5833(5) 0.26359(15)
C7 C 0.3367(5) 0.5081(5) 0.27473(15)
H4 H 0.3724 0.4674 0.3162
C8 C 0.4715(6) 0.4933(4) 0.22301(13)
H5 H 0.5986 0.4413 0.2292
C9 C 0.6141(5) 0.3929(5) 0.07351(14)
H6 H 0.6774 0.4184 0.0317
H7 H 0.7187 0.3500 0.1030
loop_
_geom_bond_atom_site_label_1
_geom_bond_atom_site_label_2
_geom_bond_site_symmetry_1
_geom_bond_site_symmetry_2
Br1 C6 1_555 1_555
O1 C1 1_555 1_555
O2 H1 1_555 1_555
O3 N2 1_555 1_555
O4 N2 1_555 1_555
N1 H2 1_555 1_555
N2 C9 1_555 1_555
C1 N1 1_555 1_555
C2 O2 1_555 1_555
C3 C2 1_555 1_555
C4 N1 1_555 1_555
C5 C4 1_555 1_555
H3 C5 1_555 1_555
C6 C5 1_555 1_555
C7 C6 1_555 1_555
H4 C7 1_555 1_555
C8 C3 1_555 1_555
H5 C8 1_555 1_555
C9 C2 1_555 1_555
H6 C9 1_555 1_555
H7 C9 1_555 1_555
C1 C2 1_555 1_555
C3 C4 1_555 1_555
C7 C8 1_555 1_555

#END
