
#######################################################################
#
#                 Cambridge Crystallographic Data Centre
#                                CCDC 
#
#######################################################################
#
# If this CIF has been generated from an entry in the Cambridge 
# Structural Database, then it will include bibliographic, chemical, 
# crystal, experimental, refinement or atomic coordinate data resulting 
# from the CCDC's data processing and validation procedures.
#
#######################################################################

data_PELTUY
_chemical_formula_moiety         'H5 N2 1+,C6 H4 N3 O4 1-'
_chemical_name_systematic        'hydrazinium dinitro(pyridin-2-yl)methanide'
_symmetry_cell_setting           monoclinic
_symmetry_space_group_name_H-M   'P 21/n'
_symmetry_Int_Tables_number      14
_space_group_name_Hall           '-P 2yn'
loop_
_symmetry_equiv_pos_site_id
_symmetry_equiv_pos_as_xyz
1 x,y,z
2 1/2-x,1/2+y,1/2-z
3 -x,-y,-z
4 1/2+x,1/2-y,1/2+z
_cell_length_a                   11.672(2)
_cell_length_b                   6.5976(13)
_cell_length_c                   12.193(2)
_cell_angle_alpha                90
_cell_angle_beta                 109.73(3)
_cell_angle_gamma                90
_cell_volume                     883.827
_exptl_crystal_colour            colorless
_exptl_crystal_description       block
_chemical_melting_point          '181 deg.C (dec.)'
_cell_formula_units_Z            4
_exptl_crystal_recrystallization_method methanol
loop_
_atom_site_label
_atom_site_type_symbol
_atom_site_fract_x
_atom_site_fract_y
_atom_site_fract_z
O1 O 0.46861(10) 0.78674(16) 0.25086(9)
O2 O 0.52811(10) 0.81199(17) 0.44001(9)
O3 O 0.66968(12) 0.51833(18) 0.55541(9)
O4 O 0.68938(11) 0.26768(17) 0.44746(10)
N1 N 0.52833(11) 0.71657(18) 0.35095(10)
N2 N 0.65096(11) 0.44168(19) 0.45767(10)
N3 N 0.49242(11) 0.3252(2) 0.18812(11)
C1 C 0.58874(13) 0.5391(2) 0.35338(12)
C2 C 0.58763(12) 0.4433(2) 0.24293(12)
C3 C 0.68313(13) 0.4786(2) 0.20099(13)
H1 H 0.7498 0.5625 0.2427
C4 C 0.67851(14) 0.3883(2) 0.09684(13)
H2 H 0.7423 0.4090 0.0661
C5 C 0.58007(15) 0.2681(2) 0.03850(13)
H3 H 0.5743 0.2056 -0.0333
C6 C 0.48983(14) 0.2410(2) 0.08728(14)
H4 H 0.4223 0.1578 0.0470
N4 N 0.65411(11) 0.87263(18) 0.68316(10)
H5 H 0.6888 0.7891 0.7373
H6 H 0.6129 0.8133 0.6203
H7 H 0.6087 0.9431 0.7100
N5 N 0.74168(11) 1.01456(19) 0.66812(11)
H8 H 0.8041 0.9511 0.6655
H9 H 0.7129 1.0718 0.6020
loop_
_geom_bond_atom_site_label_1
_geom_bond_atom_site_label_2
_geom_bond_site_symmetry_1
_geom_bond_site_symmetry_2
O1 N1 1_555 1_555
O2 N1 1_555 1_555
O3 N2 1_555 1_555
O4 N2 1_555 1_555
N1 C1 1_555 1_555
N2 C1 1_555 1_555
N3 C2 1_555 1_555
C1 C2 1_555 1_555
C2 C3 1_555 1_555
C3 H1 1_555 1_555
C4 C3 1_555 1_555
H2 C4 1_555 1_555
C5 C4 1_555 1_555
H3 C5 1_555 1_555
C6 N3 1_555 1_555
H4 C6 1_555 1_555
N4 H5 1_555 1_555
H6 N4 1_555 1_555
H7 N4 1_555 1_555
N5 N4 1_555 1_555
H8 N5 1_555 1_555
H9 N5 1_555 1_555
C5 C6 1_555 1_555

#END
