
#######################################################################
#
#                 Cambridge Crystallographic Data Centre
#                                CCDC 
#
#######################################################################
#
# If this CIF has been generated from an entry in the Cambridge 
# Structural Database, then it will include bibliographic, chemical, 
# crystal, experimental, refinement or atomic coordinate data resulting 
# from the CCDC's data processing and validation procedures.
#
#######################################################################

data_PEMGUK
_chemical_formula_moiety         'C13 H11 N5 O2'
_chemical_name_systematic        N^6^-(4-Methoxybenzoyl)adenine
_symmetry_cell_setting           monoclinic
_symmetry_space_group_name_H-M   'P 21/c'
_symmetry_Int_Tables_number      14
_space_group_name_Hall           '-P 2ybc'
loop_
_symmetry_equiv_pos_site_id
_symmetry_equiv_pos_as_xyz
1 x,y,z
2 -x,1/2+y,1/2-z
3 -x,-y,-z
4 x,1/2-y,1/2+z
_cell_length_a                   12.398(3)
_cell_length_b                   10.045(3)
_cell_length_c                   10.079(3)
_cell_angle_alpha                90
_cell_angle_beta                 98.804(4)
_cell_angle_gamma                90
_cell_volume                     1240.43
_exptl_crystal_colour            colorless
_exptl_crystal_description       block
_chemical_melting_point          '485-487 K'
_cell_formula_units_Z            4
_exptl_crystal_recrystallization_method methanol/chloroform
loop_
_atom_site_label
_atom_site_type_symbol
_atom_site_fract_x
_atom_site_fract_y
_atom_site_fract_z
O1 O 0.72524(13) 0.21529(14) 0.73182(14)
N1 N 0.70257(15) 0.29282(16) 0.51996(17)
H1 H 0.7033 0.2739 0.4369
N2 N 0.70629(16) 0.51967(18) 0.48331(19)
C1 C 0.78499(16) 0.0736(2) 0.57086(19)
C2 C 0.60082(16) 0.4499(2) 0.6450(2)
N3 N 0.54201(14) 0.38081(16) 0.72660(18)
H2 H 0.5388 0.2957 0.7348
O2 O 0.96307(14) -0.25004(16) 0.46960(17)
C3 C 0.73447(17) 0.1969(2) 0.6145(2)
C4 C 0.66873(17) 0.4208(2) 0.5525(2)
C5 C 0.88660(19) -0.1256(2) 0.6401(2)
H3 H 0.9149 -0.1846 0.7077
C6 C 0.82743(18) -0.0160(2) 0.6699(2)
H4 H 0.8158 -0.0021 0.7578
C7 C 0.79897(18) 0.0471(2) 0.4388(2)
H5 H 0.7687 0.1042 0.3704
C8 C 0.90348(18) -0.1472(2) 0.5096(2)
N4 N 0.51004(16) 0.59656(17) 0.7601(2)
C9 C 0.57877(17) 0.5841(2) 0.6663(2)
C10 C 0.85701(19) -0.0625(2) 0.4086(2)
H6 H 0.8651 -0.0797 0.3199
N5 N 0.61566(16) 0.68576(17) 0.5989(2)
C11 C 0.49034(19) 0.4719(2) 0.7913(3)
H7 H 0.4446 0.4493 0.8528
C12 C 0.6762(2) 0.6448(2) 0.5095(2)
H8 H 0.7013 0.7113 0.4578
C13 C 1.0177(2) -0.3348(2) 0.5707(3)
H9 H 1.0565 -0.4024 0.5300
H10 H 0.9653 -0.3758 0.6186
H11 H 1.0684 -0.2835 0.6319
loop_
_geom_bond_atom_site_label_1
_geom_bond_atom_site_label_2
_geom_bond_site_symmetry_1
_geom_bond_site_symmetry_2
O1 C3 1_555 1_555
N1 H1 1_555 1_555
N2 C4 1_555 1_555
C1 C3 1_555 1_555
C2 N3 1_555 1_555
N3 H2 1_555 1_555
O2 C8 1_555 1_555
C3 N1 1_555 1_555
C4 N1 1_555 1_555
C5 H3 1_555 1_555
C6 C1 1_555 1_555
H4 C6 1_555 1_555
C7 C1 1_555 1_555
H5 C7 1_555 1_555
C8 C5 1_555 1_555
N4 C9 1_555 1_555
C9 C2 1_555 1_555
C10 C7 1_555 1_555
H6 C10 1_555 1_555
N5 C9 1_555 1_555
C11 N3 1_555 1_555
H7 C11 1_555 1_555
C12 N2 1_555 1_555
H8 C12 1_555 1_555
C13 O2 1_555 1_555
H9 C13 1_555 1_555
H10 C13 1_555 1_555
H11 C13 1_555 1_555
C2 C4 1_555 1_555
C5 C6 1_555 1_555
C8 C10 1_555 1_555
N4 C11 1_555 1_555
N5 C12 1_555 1_555

#END
