
#######################################################################
#
#                 Cambridge Crystallographic Data Centre
#                                CCDC 
#
#######################################################################
#
# If this CIF has been generated from an entry in the Cambridge 
# Structural Database, then it will include bibliographic, chemical, 
# crystal, experimental, refinement or atomic coordinate data resulting 
# from the CCDC's data processing and validation procedures.
#
#######################################################################

data_PEMTOT
_chemical_compound_source        'Penicillium chrysogenum MT-12'
_chemical_name_common            'Chrysogenolide D'
_chemical_formula_moiety         'C26 H30 O10,0.76(C1 H4 O1),H2 O1'
_chemical_name_systematic        
"methyl 2,2,7a,11,12b-pentamethyl-4,8,12-trioxo-6a,7a,8,9a,9b,11,12,12b,13,13a-decahydro-2H,4H-spiro[furo[4,3,2-ij]oxireno[5,6]pyrano[4',3':4,5]cyclohepta[1,2-f][2]benzopyran-6,2'-oxirane]-12a(7H)-carboxylate methanol solvate monohydrate"
_symmetry_cell_setting           orthorhombic
_symmetry_space_group_name_H-M   'P 21 21 21'
_symmetry_Int_Tables_number      19
_space_group_name_Hall           'P 2ac 2ab'
loop_
_symmetry_equiv_pos_site_id
_symmetry_equiv_pos_as_xyz
1 x,y,z
2 1/2-x,-y,1/2+z
3 1/2+x,1/2-y,-z
4 -x,1/2+y,1/2-z
_cell_length_a                   9.4296(6)
_cell_length_b                   12.846(2)
_cell_length_c                   21.2671(13)
_cell_angle_alpha                90
_cell_angle_beta                 90
_cell_angle_gamma                90
_cell_volume                     2576.14
_exptl_crystal_colour            colorless
_exptl_crystal_description       plate
_chemical_melting_point          '490-492 K'
_cell_formula_units_Z            4
_chemical_properties_physical    ', Heat-sensitive,Oxygen-sensitive'
_exptl_crystal_recrystallization_method methanol/water
loop_
_atom_site_label
_atom_site_type_symbol
_atom_site_fract_x
_atom_site_fract_y
_atom_site_fract_z
O1 O 1.0005(3) 0.3711(2) 0.01983(13)
O2 O 1.2102(3) 0.3013(3) 0.04160(14)
O3 O 0.9000(3) 0.5113(3) -0.18913(16)
O4 O 0.8754(3) 0.5098(2) -0.02281(14)
O5 O 0.9763(3) 0.6611(2) -0.14684(14)
O6 O 1.5675(3) 0.4149(3) -0.05649(13)
O7 O 1.2085(3) 0.6338(3) -0.04476(15)
O8 O 1.5532(3) 0.6031(3) -0.21310(14)
O9 O 1.7163(3) 0.3985(3) -0.28166(14)
O10 O 1.8408(3) 0.2772(3) -0.23322(16)
C1 C 1.0884(4) 0.5063(3) -0.11092(18)
C2 C 1.1967(4) 0.4192(4) -0.20609(17)
H1 H 1.1281 0.3673 -0.1946
H2 H 1.2819 0.3857 -0.2203
H3 H 1.1590 0.4617 -0.2393
C3 C 1.0254(4) 0.3987(3) -0.09082(17)
H4 H 0.9721 0.3706 -0.1266
C4 C 1.5794(4) 0.4515(4) -0.28938(19)
C5 C 0.9756(4) 0.5575(4) -0.1538(2)
C6 C 1.3009(4) 0.5891(3) -0.17289(19)
H5 H 1.2275 0.6353 -0.1885
H6 H 1.3472 0.6237 -0.1379
C7 C 1.4857(4) 0.4477(3) -0.11006(18)
C8 C 0.9223(4) 0.4091(3) -0.03472(18)
H7 H 0.8400 0.3640 -0.0419
C9 C 0.9867(4) 0.5801(3) -0.00570(19)
H8 H 1.0257 0.5573 0.0347
C10 C 1.0688(4) 0.2048(4) -0.08188(19)
H9 H 0.9764 0.1991 -0.0632
H10 H 1.1300 0.1524 -0.0645
H11 H 1.0614 0.1950 -0.1265
C11 C 1.6454(4) 0.3462(4) -0.1768(2)
H12 H 1.6512 0.2977 -0.1444
C12 C 1.4098(4) 0.5715(3) -0.22511(19)
H13 H 1.3756 0.5906 -0.2671
C13 C 1.1306(4) 0.3132(3) -0.06816(18)
C14 C 1.5532(4) 0.4228(3) -0.17196(18)
C15 C 1.5268(4) 0.4945(3) -0.22595(18)
C16 C 1.1069(4) 0.5798(3) -0.05379(19)
C17 C 1.3275(4) 0.4328(3) -0.09946(17)
H14 H 1.3068 0.4663 -0.0591
C18 C 1.4774(5) 0.3712(4) -0.3165(2)
H15 H 1.5154 0.3441 -0.3551
H16 H 1.3874 0.4035 -0.3247
H17 H 1.4651 0.3154 -0.2870
C19 C 1.7398(4) 0.3347(4) -0.2318(2)
C20 C 1.2844(4) 0.3196(3) -0.09144(19)
H18 H 1.3468 0.2861 -0.0614
H19 H 1.2932 0.2835 -0.1313
C21 C 1.6118(5) 0.5382(4) -0.3359(2)
H20 H 1.6799 0.5850 -0.3179
H21 H 1.5262 0.5755 -0.3454
H22 H 1.6496 0.5087 -0.3739
C22 C 0.8774(5) 0.7165(4) -0.1878(2)
H23 H 0.9002 0.7022 -0.2310
H24 H 0.8845 0.7900 -0.1802
H25 H 0.7824 0.6937 -0.1792
C23 C 1.5599(4) 0.5250(4) -0.07119(19)
H26 H 1.6437 0.5579 -0.0886
H27 H 1.5033 0.5690 -0.0440
C24 C 1.1242(4) 0.3270(3) 0.00308(19)
C25 C 0.9211(5) 0.6866(4) 0.0037(2)
H28 H 0.8753 0.7082 -0.0345
H29 H 0.9938 0.7357 0.0145
H30 H 0.8525 0.6833 0.0370
C26 C 1.2304(4) 0.4879(3) -0.14853(18)
O11 O 0.9772(5) 0.4643(4) -0.3449(2)
H31 H 0.9156 0.4551 -0.3182
C27 C 0.9393(8) 0.4120(6) -0.4008(3)
H32 H 1.0206 0.4068 -0.4277
H33 H 0.8658 0.4501 -0.4219
H34 H 0.9056 0.3434 -0.3908
O12 O 1.2450(6) 0.5402(6) -0.3659(3)
H35 H 1.1621 0.5150 -0.3679
H36 H 1.2456 0.6017 -0.3803
loop_
_geom_bond_atom_site_label_1
_geom_bond_atom_site_label_2
_geom_bond_site_symmetry_1
_geom_bond_site_symmetry_2
O1 C8 1_555 1_555
O2 C24 1_555 1_555
O3 C5 1_555 1_555
O4 C8 1_555 1_555
O5 C5 1_555 1_555
O6 C7 1_555 1_555
O7 C16 1_555 1_555
O8 C12 1_555 1_555
O9 C4 1_555 1_555
O10 C19 1_555 1_555
C1 C3 1_555 1_555
C2 H1 1_555 1_555
H2 C2 1_555 1_555
H3 C2 1_555 1_555
C3 H4 1_555 1_555
C4 C15 1_555 1_555
C5 C1 1_555 1_555
C6 H5 1_555 1_555
H6 C6 1_555 1_555
C7 C14 1_555 1_555
C8 C3 1_555 1_555
H7 C8 1_555 1_555
C9 O4 1_555 1_555
H8 C9 1_555 1_555
C10 H9 1_555 1_555
H10 C10 1_555 1_555
H11 C10 1_555 1_555
C11 H12 1_555 1_555
C12 C6 1_555 1_555
H13 C12 1_555 1_555
C13 C3 1_555 1_555
C14 C11 1_555 1_555
C15 O8 1_555 1_555
C16 C1 1_555 1_555
C17 C7 1_555 1_555
H14 C17 1_555 1_555
C18 C4 1_555 1_555
H15 C18 1_555 1_555
H16 C18 1_555 1_555
H17 C18 1_555 1_555
C19 O9 1_555 1_555
C20 C13 1_555 1_555
H18 C20 1_555 1_555
H19 C20 1_555 1_555
C21 C4 1_555 1_555
H20 C21 1_555 1_555
H21 C21 1_555 1_555
H22 C21 1_555 1_555
C22 O5 1_555 1_555
H23 C22 1_555 1_555
H24 C22 1_555 1_555
H25 C22 1_555 1_555
C23 O6 1_555 1_555
H26 C23 1_555 1_555
H27 C23 1_555 1_555
C24 O1 1_555 1_555
C25 C9 1_555 1_555
H28 C25 1_555 1_555
H29 C25 1_555 1_555
H30 C25 1_555 1_555
C26 C1 1_555 1_555
O11 H31 1_555 1_555
C27 O11 1_555 1_555
H32 C27 1_555 1_555
H33 C27 1_555 1_555
H34 C27 1_555 1_555
O12 H35 1_555 1_555
H36 O12 1_555 1_555
C2 C26 1_555 1_555
C6 C26 1_555 1_555
C7 C23 1_555 1_555
C9 C16 1_555 1_555
C10 C13 1_555 1_555
C11 C19 1_555 1_555
C12 C15 1_555 1_555
C13 C24 1_555 1_555
C14 C15 1_555 1_555
C17 C20 1_555 1_555
C17 C26 1_555 1_555

#END
