
#######################################################################
#
#                 Cambridge Crystallographic Data Centre
#                                CCDC 
#
#######################################################################
#
# If this CIF has been generated from an entry in the Cambridge 
# Structural Database, then it will include bibliographic, chemical, 
# crystal, experimental, refinement or atomic coordinate data resulting 
# from the CCDC's data processing and validation procedures.
#
#######################################################################

data_PENREH
_chemical_formula_moiety         'C24 B1 F20 1-,C8 H15 N2 1+,C1 H2 Cl2'
_chemical_name_systematic        
'1-Butyl-3-methylimidazolium tetrakis(pentafluorophenyl)borate dichloromethane solvate'
_symmetry_cell_setting           monoclinic
_symmetry_space_group_name_H-M   'P 21/c'
_symmetry_Int_Tables_number      14
_space_group_name_Hall           '-P 2ybc'
loop_
_symmetry_equiv_pos_site_id
_symmetry_equiv_pos_as_xyz
1 x,y,z
2 -x,1/2+y,1/2-z
3 -x,-y,-z
4 x,1/2-y,1/2+z
_cell_length_a                   18.5317(5)
_cell_length_b                   11.0850(3)
_cell_length_c                   17.8002(5)
_cell_angle_alpha                90
_cell_angle_beta                 104.8898(11)
_cell_angle_gamma                90
_cell_volume                     3533.8
_exptl_crystal_colour            colorless
_cell_formula_units_Z            4
loop_
_atom_site_label
_atom_site_type_symbol
_atom_site_fract_x
_atom_site_fract_y
_atom_site_fract_z
F1 F 0.15583(5) 0.14132(8) 0.68643(5)
F2 F 0.02663(5) 0.15894(11) 0.58344(7)
F3 F -0.00095(5) 0.34019(11) 0.47597(6)
F4 F 0.10726(6) 0.50947(9) 0.47908(5)
F5 F 0.23754(5) 0.49649(8) 0.58487(5)
F6 F 0.44535(5) 0.35018(8) 0.77387(5)
F7 F 0.50473(5) 0.52214(9) 0.87428(6)
F8 F 0.41685(7) 0.69999(9) 0.90938(6)
F9 F 0.26822(7) 0.70257(9) 0.83769(6)
F10 F 0.20780(5) 0.53481(9) 0.73453(5)
F11 F 0.27541(5) 0.08648(8) 0.61297(5)
F12 F 0.33630(5) 0.02126(8) 0.49866(5)
F13 F 0.42637(5) 0.17718(10) 0.44685(5)
F14 F 0.45729(5) 0.39705(9) 0.51474(5)
F15 F 0.39883(5) 0.46390(8) 0.62925(5)
F16 F 0.20665(5) 0.30233(9) 0.81045(5)
F17 F 0.21623(6) 0.14513(10) 0.92575(6)
F18 F 0.31681(6) -0.03949(9) 0.94686(5)
F19 F 0.41115(6) -0.05610(9) 0.85210(6)
F20 F 0.40463(5) 0.09987(8) 0.73932(5)
C9 C 0.20411(8) 0.32101(13) 0.64334(8)
C10 C 0.14721(8) 0.23800(14) 0.63835(9)
C11 C 0.07885(9) 0.24400(16) 0.58420(10)
C12 C 0.06461(8) 0.33514(16) 0.53034(10)
C13 C 0.11888(9) 0.42030(15) 0.53203(9)
C14 C 0.18589(8) 0.41112(14) 0.58769(9)
C15 C 0.32330(8) 0.43296(13) 0.74736(8)
C16 C 0.39887(8) 0.43836(13) 0.78587(8)
C17 C 0.43111(9) 0.52602(14) 0.83839(9)
C18 C 0.38706(10) 0.61521(14) 0.85654(9)
C19 C 0.31234(10) 0.61538(14) 0.82036(9)
C20 C 0.28199(9) 0.52633(14) 0.76688(9)
C21 C 0.33554(7) 0.27678(13) 0.62960(8)
C22 C 0.32133(8) 0.16668(13) 0.59113(8)
C23 C 0.35085(8) 0.13132(13) 0.53126(8)
C24 C 0.39719(8) 0.20912(15) 0.50556(8)
C25 C 0.41283(8) 0.31978(14) 0.54032(8)
C26 C 0.38187(8) 0.35159(13) 0.60051(8)
C27 C 0.30216(8) 0.20732(13) 0.76566(8)
C28 C 0.25817(8) 0.21390(14) 0.81823(8)
C29 C 0.26178(9) 0.13342(15) 0.87814(9)
C30 C 0.31240(10) 0.04072(15) 0.88905(9)
C31 C 0.36000(9) 0.03220(14) 0.84124(9)
C32 C 0.35440(8) 0.11523(14) 0.78190(8)
B1 B 0.29139(9) 0.31069(15) 0.69654(9)
N1 N 0.24852(7) 0.77666(12) 0.61511(8)
N2 N 0.36371(7) 0.75509(11) 0.61341(8)
C1 C 0.29385(9) 0.73272(14) 0.57512(10)
C2 C 0.29123(9) 0.83016(15) 0.68103(9)
C3 C 0.36323(9) 0.81658(15) 0.68013(9)
C4 C 0.16599(9) 0.77435(16) 0.59082(11)
C5 C 0.13449(9) 0.89277(15) 0.55320(10)
C6 C 0.15138(10) 0.91663(18) 0.47584(11)
C7 C 0.12245(13) 1.0375(2) 0.44119(13)
C8 C 0.43057(9) 0.72310(16) 0.58771(10)
H1 H 0.27860 0.69170 0.52670
H2 H 0.27340 0.86950 0.72010
H3 H 0.40570 0.84430 0.71850
H4 H 0.14930 0.70760 0.55350
H5 H 0.14650 0.75910 0.63680
H6 H 0.07970 0.89250 0.54560
H7 H 0.15510 0.95970 0.58910
H8 H 0.12870 0.85190 0.43900
H9 H 0.20610 0.91360 0.48280
H10 H 0.06860 1.04240 0.43590
H11 H 0.14780 1.10240 0.47530
H12 H 0.13220 1.04600 0.38990
H13 H 0.45230 0.79630 0.57170
H14 H 0.41670 0.66720 0.54370
H15 H 0.46720 0.68450 0.63060
loop_
_geom_bond_atom_site_label_1
_geom_bond_atom_site_label_2
_geom_bond_site_symmetry_1
_geom_bond_site_symmetry_2
N1 C1 1_555 1_555
N2 C1 1_555 1_555
C1 H1 1_555 1_555
C2 N1 1_555 1_555
C3 N2 1_555 1_555
C4 N1 1_555 1_555
C5 C4 1_555 1_555
C6 C5 1_555 1_555
C7 C6 1_555 1_555
C8 N2 1_555 1_555
H2 C2 1_555 1_555
H3 C3 1_555 1_555
H4 C4 1_555 1_555
H5 C4 1_555 1_555
H6 C5 1_555 1_555
H7 C5 1_555 1_555
H8 C6 1_555 1_555
H9 C6 1_555 1_555
H10 C7 1_555 1_555
H11 C7 1_555 1_555
H12 C7 1_555 1_555
H13 C8 1_555 1_555
H14 C8 1_555 1_555
H15 C8 1_555 1_555
F1 C10 1_555 1_555
F2 C11 1_555 1_555
F3 C12 1_555 1_555
F4 C13 1_555 1_555
F5 C14 1_555 1_555
F6 C16 1_555 1_555
F7 C17 1_555 1_555
F8 C18 1_555 1_555
F9 C19 1_555 1_555
F10 C20 1_555 1_555
F11 C22 1_555 1_555
F12 C23 1_555 1_555
F13 C24 1_555 1_555
F14 C25 1_555 1_555
F15 C26 1_555 1_555
F16 C28 1_555 1_555
F17 C29 1_555 1_555
F18 C30 1_555 1_555
F19 C31 1_555 1_555
F20 C32 1_555 1_555
C9 C10 1_555 1_555
C10 C11 1_555 1_555
C11 C12 1_555 1_555
C12 C13 1_555 1_555
C13 C14 1_555 1_555
C14 C9 1_555 1_555
C15 C16 1_555 1_555
C16 C17 1_555 1_555
C17 C18 1_555 1_555
C18 C19 1_555 1_555
C19 C20 1_555 1_555
C20 C15 1_555 1_555
C21 C22 1_555 1_555
C22 C23 1_555 1_555
C23 C24 1_555 1_555
C24 C25 1_555 1_555
C25 C26 1_555 1_555
C26 C21 1_555 1_555
C27 C28 1_555 1_555
C28 C29 1_555 1_555
C29 C30 1_555 1_555
C30 C31 1_555 1_555
C31 C32 1_555 1_555
C32 C27 1_555 1_555
B1 C9 1_555 1_555
C2 C3 1_555 1_555
C15 B1 1_555 1_555
C21 B1 1_555 1_555
C27 B1 1_555 1_555

#END
