
#######################################################################
#
#                 Cambridge Crystallographic Data Centre
#                                CCDC 
#
#######################################################################
#
# If this CIF has been generated from an entry in the Cambridge 
# Structural Database, then it will include bibliographic, chemical, 
# crystal, experimental, refinement or atomic coordinate data resulting 
# from the CCDC's data processing and validation procedures.
#
#######################################################################

data_PENRIL
_chemical_formula_moiety         'C24 B1 F20 1-,C9 H17 N2 1+'
_chemical_name_systematic        
'1-Butyl-2,3-dimethylimidazolium tetrakis(pentafluorophenyl)borate'
_symmetry_cell_setting           monoclinic
_symmetry_space_group_name_H-M   'P 21/c'
_symmetry_Int_Tables_number      14
_space_group_name_Hall           '-P 2ybc'
loop_
_symmetry_equiv_pos_site_id
_symmetry_equiv_pos_as_xyz
1 x,y,z
2 -x,1/2+y,1/2-z
3 -x,-y,-z
4 x,1/2-y,1/2+z
_cell_length_a                   32.4863(10)
_cell_length_b                   11.0613(3)
_cell_length_c                   18.7999(6)
_cell_angle_alpha                90
_cell_angle_beta                 105.4764(11)
_cell_angle_gamma                90
_cell_volume                     6510.62
_exptl_crystal_colour            colorless
_cell_formula_units_Z            8
loop_
_atom_site_label
_atom_site_type_symbol
_atom_site_fract_x
_atom_site_fract_y
_atom_site_fract_z
F1 F 0.36948(4) 0.90275(10) 0.27480(6)
F2 F 0.40040(5) 0.96011(12) 0.41675(7)
F3 F 0.45526(4) 0.80742(14) 0.51023(6)
F4 F 0.47857(4) 0.59731(12) 0.45760(6)
F5 F 0.44915(4) 0.53863(10) 0.31642(6)
F6 F 0.44586(4) 0.91099(11) 0.22779(6)
F7 F 0.45336(5) 1.07159(12) 0.12871(8)
F8 F 0.40603(5) 1.05322(13) -0.01415(8)
F9 F 0.35064(5) 0.86659(14) -0.05498(7)
F10 F 0.34218(4) 0.70113(12) 0.04416(6)
F11 F 0.47522(3) 0.67214(10) 0.20413(6)
F12 F 0.51312(4) 0.51395(11) 0.13528(7)
F13 F 0.46775(4) 0.32474(12) 0.05873(7)
F14 F 0.38399(4) 0.29870(12) 0.05428(7)
F15 F 0.34499(4) 0.45780(11) 0.11692(7)
F16 F 0.30324(4) 0.83581(12) 0.13255(8)
F17 F 0.22583(4) 0.77331(16) 0.13742(10)
F18 F 0.21203(4) 0.56896(17) 0.20823(10)
F19 F 0.27997(5) 0.42575(14) 0.27465(9)
F20 F 0.35834(4) 0.48496(10) 0.26985(7)
C1 C 0.40842(5) 0.71949(16) 0.28678(9)
C2 C 0.39697(6) 0.82344(16) 0.31810(10)
C3 C 0.41209(6) 0.85474(18) 0.39143(11)
C4 C 0.43974(6) 0.7787(2) 0.43856(10)
C5 C 0.45157(6) 0.67271(18) 0.41170(10)
C6 C 0.43599(6) 0.64539(16) 0.33755(10)
C7 C 0.39157(6) 0.79938(16) 0.14271(10)
C8 C 0.42013(6) 0.89504(18) 0.15908(11)
C9 C 0.42536(7) 0.97993(18) 0.10801(12)
C10 C 0.40167(8) 0.9710(2) 0.03628(12)
C11 C 0.37352(7) 0.8769(2) 0.01609(11)
C12 C 0.36941(6) 0.79387(18) 0.06813(11)
C13 C 0.40802(6) 0.57408(16) 0.16598(9)
C14 C 0.45111(6) 0.57973(16) 0.16775(10)
C15 C 0.47166(6) 0.49869(18) 0.13335(10)
C16 C 0.44901(7) 0.40391(18) 0.09436(11)
C17 C 0.40660(7) 0.39286(18) 0.09134(10)
C18 C 0.38705(6) 0.47661(17) 0.12582(10)
C19 C 0.33566(6) 0.66129(17) 0.19851(10)
C20 C 0.30000(6) 0.73077(19) 0.16756(11)
C21 C 0.25893(6) 0.7007(2) 0.16995(13)
C22 C 0.25185(7) 0.5982(2) 0.20540(14)
C23 C 0.28606(7) 0.5270(2) 0.23889(13)
C24 C 0.32640(6) 0.56017(18) 0.23560(11)
B1 B 0.38591(6) 0.68893(18) 0.19886(11)
F21 F 0.12289(4) 0.42801(10) 0.39336(6)
F22 F 0.08993(4) 0.47795(11) 0.50517(7)
F23 F 0.04026(4) 0.31157(13) 0.55061(7)
F24 F 0.02371(4) 0.09660(12) 0.47990(6)
F25 F 0.05600(4) 0.04372(10) 0.36792(6)
F26 F 0.02740(3) 0.16248(10) 0.23038(6)
F27 F -0.00314(4) -0.00553(12) 0.12872(7)
F28 F 0.04999(6) -0.17546(13) 0.09569(8)
F29 F 0.13493(6) -0.16911(13) 0.16683(8)
F30 F 0.16634(4) -0.00051(13) 0.26569(7)
F31 F 0.14707(4) 0.01345(11) 0.40853(7)
F32 F 0.22375(6) -0.00867(16) 0.50382(8)
F33 F 0.28566(5) 0.1621(2) 0.50789(10)
F34 F 0.26716(5) 0.3581(2) 0.41810(10)
F35 F 0.19157(4) 0.38261(13) 0.32349(7)
F36 F 0.04790(4) 0.41247(10) 0.27069(6)
F37 F 0.03836(5) 0.56858(12) 0.16194(8)
F38 F 0.08947(6) 0.56105(15) 0.06893(8)
F39 F 0.15171(6) 0.39004(17) 0.08898(8)
F40 F 0.16315(4) 0.23309(14) 0.20041(7)
C25 C 0.09017(5) 0.23491(16) 0.37239(9)
C26 C 0.09783(5) 0.34209(16) 0.41220(9)
C27 C 0.08177(6) 0.36997(17) 0.47088(10)
C28 C 0.05649(6) 0.28695(19) 0.49369(10)
C29 C 0.04814(6) 0.17845(18) 0.45745(10)
C30 C 0.06496(6) 0.15419(16) 0.39861(10)
C31 C 0.09810(6) 0.08856(17) 0.25601(10)
C32 C 0.05542(6) 0.07939(17) 0.21778(10)
C33 C 0.03846(7) -0.00643(19) 0.16488(11)
C34 C 0.06530(9) -0.09113(19) 0.14764(12)
C35 C 0.10802(9) -0.0869(2) 0.18336(12)
C36 C 0.12353(7) 0.00125(19) 0.23557(11)
C37 C 0.16513(6) 0.19682(19) 0.35882(10)
C38 C 0.17630(7) 0.1007(2) 0.40801(11)
C39 C 0.21573(8) 0.0873(3) 0.45783(13)
C40 C 0.24667(8) 0.1721(3) 0.46004(15)
C41 C 0.23754(7) 0.2699(3) 0.41405(14)
C42 C 0.19759(6) 0.2811(2) 0.36513(12)
C43 C 0.10755(6) 0.31587(17) 0.24398(10)
C44 C 0.07543(6) 0.40231(17) 0.22889(10)
C45 C 0.06921(7) 0.48406(19) 0.17103(11)
C46 C 0.09506(8) 0.4810(2) 0.12448(11)
C47 C 0.12636(8) 0.3960(2) 0.13509(12)
C48 C 0.13171(7) 0.3161(2) 0.19326(11)
B2 B 0.11515(7) 0.20850(19) 0.30776(11)
N1 N 0.41201(7) 0.23391(16) 0.31620(10)
N2 N 0.34991(6) 0.17795(18) 0.25086(11)
C49 C 0.37226(9) 0.2125(2) 0.31785(13)
C50 C 0.41541(8) 0.2120(2) 0.24620(13)
C51 C 0.37728(8) 0.1779(2) 0.20563(13)
C52 C 0.30572(9) 0.1340(3) 0.23292(18)
C53 C 0.28187(11) 0.1396(3) 0.15673(18)
C54 C 0.23612(11) 0.0929(4) 0.1446(2)
C55 C 0.21020(15) 0.0895(5) 0.0705(2)
C56 C 0.35486(10) 0.2235(3) 0.38283(15)
C57 C 0.44709(9) 0.2738(2) 0.37886(14)
H1 H 0.44050 0.21980 0.22980
H2 H 0.37000 0.15730 0.15470
H3 H 0.30620 0.04890 0.24930
H4 H 0.29010 0.18130 0.26210
H5 H 0.29660 0.09070 0.12690
H6 H 0.28100 0.22430 0.13950
H7 H 0.23760 0.01010 0.16510
H8 H 0.22160 0.14430 0.17360
H9 H 0.20400 0.17220 0.05210
H10 H 0.18340 0.04750 0.06870
H11 H 0.22540 0.04650 0.03960
H12 H 0.37840 0.23190 0.42760
H13 H 0.33830 0.15090 0.38670
H14 H 0.33640 0.29480 0.37710
H15 H 0.43900 0.34920 0.39890
H16 H 0.47280 0.28730 0.36210
H17 H 0.45280 0.21140 0.41730
N3 N 0.08314(6) 0.73677(16) 0.38542(9)
N4 N 0.14565(6) 0.68927(16) 0.37499(10)
C58 C 0.12384(7) 0.72372(18) 0.42244(11)
C59 C 0.07869(9) 0.7096(2) 0.31252(13)
C60 C 0.11736(9) 0.6809(2) 0.30614(13)
C61 C 0.19126(9) 0.6680(2) 0.39153(17)
C62 C 0.21372(8) 0.7724(2) 0.36337(15)
C63 C 0.26065(9) 0.7606(3) 0.38699(18)
C64 C 0.28268(10) 0.8650(4) 0.3602(2)
C65 C 0.14176(8) 0.7434(3) 0.50303(13)
C66 C 0.04793(8) 0.7710(2) 0.41658(14)
H18 H 0.05290 0.71100 0.27400
H19 H 0.12420 0.65850 0.26190
H20 H 0.19660 0.59160 0.36800
H21 H 0.20320 0.65950 0.44550
H22 H 0.20410 0.77450 0.30880
H23 H 0.20540 0.84980 0.38200
H24 H 0.26900 0.68390 0.36750
H25 H 0.27020 0.75700 0.44160
H26 H 0.27380 0.86770 0.30610
H27 H 0.31370 0.85400 0.37720
H28 H 0.27480 0.94100 0.38000
H29 H 0.15550 0.82290 0.51140
H30 H 0.16290 0.68040 0.52320
H31 H 0.11870 0.73980 0.52760
H32 H 0.04250 0.70540 0.44790
H33 H 0.02220 0.78600 0.37650
H34 H 0.05560 0.84460 0.44620
loop_
_geom_bond_atom_site_label_1
_geom_bond_atom_site_label_2
_geom_bond_site_symmetry_1
_geom_bond_site_symmetry_2
F1 C2 1_555 1_555
F2 C3 1_555 1_555
F3 C4 1_555 1_555
F4 C5 1_555 1_555
F5 C6 1_555 1_555
F6 C8 1_555 1_555
F7 C9 1_555 1_555
F8 C10 1_555 1_555
F9 C11 1_555 1_555
F10 C12 1_555 1_555
F11 C14 1_555 1_555
F12 C15 1_555 1_555
F13 C16 1_555 1_555
F14 C17 1_555 1_555
F15 C18 1_555 1_555
F16 C20 1_555 1_555
F17 C21 1_555 1_555
F18 C22 1_555 1_555
F19 C23 1_555 1_555
F20 C24 1_555 1_555
C1 C2 1_555 1_555
C2 C3 1_555 1_555
C3 C4 1_555 1_555
C4 C5 1_555 1_555
C5 C6 1_555 1_555
C6 C1 1_555 1_555
C7 C8 1_555 1_555
C8 C9 1_555 1_555
C9 C10 1_555 1_555
C10 C11 1_555 1_555
C11 C12 1_555 1_555
C12 C7 1_555 1_555
C13 C14 1_555 1_555
C14 C15 1_555 1_555
C15 C16 1_555 1_555
C16 C17 1_555 1_555
C17 C18 1_555 1_555
C18 C13 1_555 1_555
C19 C20 1_555 1_555
C20 C21 1_555 1_555
C21 C22 1_555 1_555
C22 C23 1_555 1_555
C23 C24 1_555 1_555
C24 C19 1_555 1_555
B1 C1 1_555 1_555
F21 C26 1_555 1_555
F22 C27 1_555 1_555
F23 C28 1_555 1_555
F24 C29 1_555 1_555
F25 C30 1_555 1_555
F26 C32 1_555 1_555
F27 C33 1_555 1_555
F28 C34 1_555 1_555
F29 C35 1_555 1_555
F30 C36 1_555 1_555
F31 C38 1_555 1_555
F32 C39 1_555 1_555
F33 C40 1_555 1_555
F34 C41 1_555 1_555
F35 C42 1_555 1_555
F36 C44 1_555 1_555
F37 C45 1_555 1_555
F38 C46 1_555 1_555
F39 C47 1_555 1_555
F40 C48 1_555 1_555
C25 C26 1_555 1_555
C26 C27 1_555 1_555
C27 C28 1_555 1_555
C28 C29 1_555 1_555
C29 C30 1_555 1_555
C30 C25 1_555 1_555
C31 C32 1_555 1_555
C32 C33 1_555 1_555
C33 C34 1_555 1_555
C34 C35 1_555 1_555
C35 C36 1_555 1_555
C36 C31 1_555 1_555
C37 C38 1_555 1_555
C38 C39 1_555 1_555
C39 C40 1_555 1_555
C40 C41 1_555 1_555
C41 C42 1_555 1_555
C42 C37 1_555 1_555
C43 C44 1_555 1_555
C44 C45 1_555 1_555
C45 C46 1_555 1_555
C46 C47 1_555 1_555
C47 C48 1_555 1_555
C48 C43 1_555 1_555
B2 C25 1_555 1_555
N1 C49 1_555 1_555
N2 C49 1_555 1_555
C49 C56 1_555 1_555
C50 N1 1_555 1_555
C51 N2 1_555 1_555
C52 N2 1_555 1_555
C53 C52 1_555 1_555
C54 C53 1_555 1_555
C55 C54 1_555 1_555
C56 H12 1_555 1_555
C57 N1 1_555 1_555
H1 C50 1_555 1_555
H2 C51 1_555 1_555
H3 C52 1_555 1_555
H4 C52 1_555 1_555
H5 C53 1_555 1_555
H6 C53 1_555 1_555
H7 C54 1_555 1_555
H8 C54 1_555 1_555
H9 C55 1_555 1_555
H10 C55 1_555 1_555
H11 C55 1_555 1_555
H13 C56 1_555 1_555
H14 C56 1_555 1_555
H15 C57 1_555 1_555
H16 C57 1_555 1_555
H17 C57 1_555 1_555
N3 C58 1_555 1_555
N4 C58 1_555 1_555
C58 C65 1_555 1_555
C59 N3 1_555 1_555
C60 N4 1_555 1_555
C61 N4 1_555 1_555
C62 C61 1_555 1_555
C63 C62 1_555 1_555
C64 C63 1_555 1_555
C65 H29 1_555 1_555
C66 N3 1_555 1_555
H18 C59 1_555 1_555
H19 C60 1_555 1_555
H20 C61 1_555 1_555
H21 C61 1_555 1_555
H22 C62 1_555 1_555
H23 C62 1_555 1_555
H24 C63 1_555 1_555
H25 C63 1_555 1_555
H26 C64 1_555 1_555
H27 C64 1_555 1_555
H28 C64 1_555 1_555
H30 C65 1_555 1_555
H31 C65 1_555 1_555
H32 C66 1_555 1_555
H33 C66 1_555 1_555
H34 C66 1_555 1_555
C7 B1 1_555 1_555
C13 B1 1_555 1_555
C19 B1 1_555 1_555
C31 B2 1_555 1_555
C37 B2 1_555 1_555
C43 B2 1_555 1_555
C50 C51 1_555 1_555
C59 C60 1_555 1_555

#END
