
#######################################################################
#
#                 Cambridge Crystallographic Data Centre
#                                CCDC 
#
#######################################################################
#
# If this CIF has been generated from an entry in the Cambridge 
# Structural Database, then it will include bibliographic, chemical, 
# crystal, experimental, refinement or atomic coordinate data resulting 
# from the CCDC's data processing and validation procedures.
#
#######################################################################

data_PEPMON
_chemical_formula_moiety         
'C60 H68 N8 O12,C50 H38 F4 N2 2+,2(F6 P1 1-),8(C3 H6 O1)'
_chemical_name_systematic        
'[2]-[1,4-bis(10-((3,5-difluorobenzyl)ammoniomethyl)anthracen-9-yl)benzene]-[18,21,24,45,48,51,56,59,62,70,73,76-dodecaoxa-5,10,15,27,32,37,42,54-octaazanonacyclo[39.13.9.9^14,28^.2^6,9^.2^33,36^.1^3,53^.1^12,16^.1^26,30^.1^39,43^]octaconta-1,3(64),4,6,8,10,12(78),13,15,26(68),27,29,31,33,35,37,39(65),40,42,53,66,79-docosaene]-suitane bis(hexafluorophosphate) acetone solvate'
_symmetry_cell_setting           monoclinic
_symmetry_space_group_name_H-M   'P 21/n'
_symmetry_Int_Tables_number      14
_space_group_name_Hall           '-P 2yn'
loop_
_symmetry_equiv_pos_site_id
_symmetry_equiv_pos_as_xyz
1 x,y,z
2 1/2-x,1/2+y,1/2-z
3 -x,-y,-z
4 1/2+x,1/2-y,1/2+z
_cell_length_a                   16.3400(3)
_cell_length_b                   21.1680(3)
_cell_length_c                   20.7430(4)
_cell_angle_alpha                90
_cell_angle_beta                 110.5770(6)
_cell_angle_gamma                90
_cell_volume                     6716.95
_exptl_crystal_colour            'pale yellow'
_exptl_crystal_description       plates
_cell_formula_units_Z            2
loop_
_atom_site_label
_atom_site_type_symbol
_atom_site_fract_x
_atom_site_fract_y
_atom_site_fract_z
P1 P 0.82338(9) -0.13737(6) 0.48015(7)
F1 F 0.8240(2) -0.07547(12) 0.52224(15)
F2 F 0.8258(3) -0.19857(12) 0.43827(16)
F3 F 0.8262(4) -0.09595(14) 0.41843(18)
F4 F 0.92531(17) -0.1391(2) 0.5125(3)
F5 F 0.8166(4) -0.17865(17) 0.5409(2)
F6 F 0.72099(18) -0.1360(3) 0.4486(3)
C1 C 0.6404(3) 0.3590(2) 0.2250(2)
H1 H 0.6243 0.3515 0.1749
H2 H 0.6617 0.4030 0.2352
O1 O 0.70602(19) 0.31557(15) 0.26300(16)
C2 C 0.7844(3) 0.3239(3) 0.2491(3)
H3 H 0.8061 0.3676 0.2604
H4 H 0.7733 0.3164 0.1997
C3 C 0.8515(3) 0.2774(3) 0.2925(2)
H5 H 0.8266 0.2343 0.2864
H6 H 0.9035 0.2773 0.2785
O2 O 0.87568(19) 0.29640(15) 0.36296(16)
C4 C 0.9522(3) 0.2649(2) 0.4051(2)
H7 H 1.0009 0.2735 0.3884
H8 H 0.9420 0.2187 0.4034
C5 C 0.9753(3) 0.2883(2) 0.4777(2)
H9 H 1.0335 0.2720 0.5062
H10 H 0.9782 0.3350 0.4781
O3 O 0.91126(17) 0.26805(12) 0.50626(14)
C6 C 0.9417(3) 0.2212(2) 0.5559(3)
H11 H 0.9930 0.2372 0.5943
H12 H 0.9606 0.1842 0.5356
C7 C 0.8719(2) 0.20161(19) 0.5831(2)
C8 C 0.8646(3) 0.13937(19) 0.5995(2)
H13 H 0.9028 0.1085 0.5925
C9 C 0.8015(2) 0.12197(17) 0.6262(2)
C10 C 0.7475(2) 0.16906(17) 0.63548(19)
H14 H 0.7040 0.1590 0.6544
C11 C 0.7573(2) 0.23073(17) 0.61710(18)
N1 N 0.8195(2) 0.24760(15) 0.59204(17)
C12 C 0.6986(2) 0.28038(17) 0.6283(2)
H15 H 0.6373 0.2655 0.6094
H16 H 0.7138 0.2873 0.6784
O4 O 0.70593(16) 0.33846(11) 0.59640(13)
C13 C 0.6536(3) 0.38718(18) 0.6107(2)
H17 H 0.6711 0.3932 0.6610
H18 H 0.5912 0.3747 0.5925
C14 C 0.6657(3) 0.44727(18) 0.5777(2)
H19 H 0.6359 0.4822 0.5924
H20 H 0.7287 0.4575 0.5923
O5 O 0.62984(18) 0.44038(12) 0.50456(14)
C15 C 0.6092(3) 0.50021(18) 0.4706(2)
H21 H 0.6635 0.5244 0.4780
H22 H 0.5718 0.5248 0.4900
C16 C 0.5625(3) 0.49006(19) 0.3955(2)
H23 H 0.5526 0.5310 0.3710
H24 H 0.5980 0.4630 0.3766
O6 O 0.48039(18) 0.46011(13) 0.38624(15)
C17 C 0.4290(3) 0.44809(19) 0.3157(2)
H25 H 0.4317 0.4852 0.2875
H26 H 0.3672 0.4417 0.3113
C18 C 0.4612(3) 0.39036(18) 0.2890(2)
C19 C 0.4272(2) 0.33149(18) 0.2928(2)
H27 H 0.3800 0.3270 0.3091
C20 C 0.4627(2) 0.27862(18) 0.2725(2)
C21 C 0.5314(3) 0.28729(18) 0.2494(2)
H28 H 0.5573 0.2521 0.2355
C22 C 0.5626(3) 0.3482(2) 0.2468(2)
N2 N 0.5285(2) 0.39948(15) 0.26616(17)
C23 C 0.4307(3) 0.21446(18) 0.2777(2)
H29 H 0.4617 0.1790 0.2701
N3 N 0.3621(2) 0.20564(15) 0.29237(17)
C24 C 0.3344(3) 0.14302(18) 0.2967(2)
C25 C 0.2965(3) 0.13118(18) 0.3462(2)
H30 H 0.2886 0.1650 0.3736
C26 C 0.2705(3) 0.07132(18) 0.3559(2)
H31 H 0.2470 0.0634 0.3910
C27 C 0.2789(2) 0.02179(17) 0.3134(2)
C28 C 0.3135(3) 0.03375(18) 0.2633(2)
H32 H 0.3189 0.0004 0.2344
C29 C 0.3406(3) 0.09394(18) 0.2542(2)
H33 H 0.3637 0.1018 0.2188
N4 N 0.2602(2) -0.04181(15) 0.32376(17)
C30 C 0.7907(3) 0.05592(18) 0.6431(2)
H34 H 0.8214 0.0235 0.6295
C1B C 0.3596(3) -0.3590(2) 0.7750(2)
H1B H 0.3757 -0.3515 0.8251
H2B H 0.3383 -0.4030 0.7648
O1B O 0.29398(19) -0.31557(15) 0.73700(16)
C2B C 0.2156(3) -0.3239(3) 0.7509(3)
H3B H 0.1939 -0.3676 0.7396
H4B H 0.2267 -0.3164 0.8003
C3B C 0.1485(3) -0.2774(3) 0.7075(2)
H5B H 0.1734 -0.2343 0.7136
H6B H 0.0965 -0.2773 0.7215
O2B O 0.12432(19) -0.29640(15) 0.63704(16)
C4B C 0.0478(3) -0.2649(2) 0.5949(2)
H7B H -0.0009 -0.2735 0.6116
H8B H 0.0580 -0.2187 0.5966
C5B C 0.0247(3) -0.2883(2) 0.5223(2)
H9B H -0.0335 -0.2720 0.4938
H10B H 0.0218 -0.3350 0.5219
O3B O 0.08874(17) -0.26805(12) 0.49374(14)
C6B C 0.0583(3) -0.2212(2) 0.4441(3)
H11B H 0.0070 -0.2372 0.4057
H12B H 0.0394 -0.1842 0.4644
C7B C 0.1281(2) -0.20161(19) 0.4169(2)
C8B C 0.1354(3) -0.13937(19) 0.4005(2)
H13B H 0.0972 -0.1085 0.4075
C9B C 0.1985(2) -0.12197(17) 0.3738(2)
C10B C 0.2525(2) -0.16906(17) 0.36452(19)
H14B H 0.2960 -0.1590 0.3456
C11B C 0.2427(2) -0.23073(17) 0.38290(18)
N1B N 0.1805(2) -0.24760(15) 0.40796(17)
C12B C 0.3014(2) -0.28038(17) 0.3717(2)
H15B H 0.3627 -0.2655 0.3906
H16B H 0.2862 -0.2873 0.3216
O4B O 0.29407(16) -0.33846(11) 0.40360(13)
C13B C 0.3464(3) -0.38718(18) 0.3893(2)
H17B H 0.3289 -0.3932 0.3390
H18B H 0.4088 -0.3747 0.4075
C14B C 0.3343(3) -0.44727(18) 0.4223(2)
H19B H 0.3641 -0.4822 0.4076
H20B H 0.2713 -0.4575 0.4077
O5B O 0.37016(18) -0.44038(12) 0.49544(14)
C15B C 0.3908(3) -0.50021(18) 0.5294(2)
H21B H 0.3365 -0.5244 0.5220
H22B H 0.4282 -0.5248 0.5100
C16B C 0.4375(3) -0.49006(19) 0.6045(2)
H23B H 0.4474 -0.5310 0.6290
H24B H 0.4020 -0.4630 0.6234
O6B O 0.51961(18) -0.46011(13) 0.61376(15)
C17B C 0.5710(3) -0.44809(19) 0.6843(2)
H25B H 0.5683 -0.4852 0.7125
H26B H 0.6328 -0.4417 0.6887
C18B C 0.5388(3) -0.39036(18) 0.7110(2)
C19B C 0.5728(2) -0.33149(18) 0.7072(2)
H27B H 0.6200 -0.3270 0.6909
C20B C 0.5373(2) -0.27862(18) 0.7275(2)
C21B C 0.4686(3) -0.28729(18) 0.7506(2)
H28B H 0.4427 -0.2521 0.7645
C22B C 0.4374(3) -0.3482(2) 0.7532(2)
N2B N 0.4715(2) -0.39948(15) 0.73384(17)
C23B C 0.5693(3) -0.21446(18) 0.7223(2)
H29B H 0.5383 -0.1790 0.7299
N3B N 0.6379(2) -0.20564(15) 0.70763(17)
C24B C 0.6656(3) -0.14302(18) 0.7033(2)
C25B C 0.7035(3) -0.13118(18) 0.6538(2)
H30B H 0.7114 -0.1650 0.6264
C26B C 0.7295(3) -0.07132(18) 0.6441(2)
H31B H 0.7530 -0.0634 0.6090
C27B C 0.7211(2) -0.02179(17) 0.6866(2)
C28B C 0.6865(3) -0.03375(18) 0.7367(2)
H32B H 0.6811 -0.0004 0.7656
C29B C 0.6594(3) -0.09394(18) 0.7458(2)
H33B H 0.6363 -0.1018 0.7812
N4B N 0.7398(2) 0.04181(15) 0.67624(17)
C30B C 0.2093(3) -0.05592(18) 0.3569(2)
H34B H 0.1786 -0.0235 0.3705
C31 C 0.8514(3) 0.4817(2) 0.4740(3)
H35 H 0.8216 0.4956 0.4282
C32 C 0.9108(4) 0.5200(2) 0.5209(4)
F11 F 0.9259(3) 0.57844(16) 0.5006(2)
C33 C 0.9572(4) 0.5027(3) 0.5873(4)
H36 H 0.9980 0.5302 0.6188
C34 C 0.9405(3) 0.4426(2) 0.6053(3)
F12 F 0.9848(2) 0.42193(17) 0.67094(17)
C35 C 0.8812(3) 0.4021(2) 0.5621(2)
H37 H 0.8713 0.3614 0.5772
C36 C 0.8359(3) 0.42243(17) 0.4952(2)
C37 C 0.7721(3) 0.38180(17) 0.4410(2)
H38 H 0.7222 0.4083 0.4133
H39 H 0.8011 0.3654 0.4097
N5 N 0.7383(2) 0.32753(13) 0.46988(16)
H40 H 0.7179 0.3418 0.5034
H41 H 0.7829 0.2994 0.4899
C38 C 0.6652(2) 0.29453(17) 0.41378(19)
H42 H 0.6151 0.3239 0.3960
H43 H 0.6855 0.2843 0.3753
C39 C 0.6347(2) 0.23469(16) 0.43765(18)
C40 C 0.6760(2) 0.17683(17) 0.43406(19)
C41 C 0.7499(3) 0.17329(19) 0.4123(2)
H44 H 0.7713 0.2108 0.3987
C42 C 0.7899(3) 0.1177(2) 0.4108(3)
H45 H 0.8382 0.1165 0.3953
C43 C 0.7604(3) 0.0613(2) 0.4320(3)
H46 H 0.7902 0.0227 0.4322
C44 C 0.6900(3) 0.06164(18) 0.4519(2)
H47 H 0.6707 0.0232 0.4653
C45 C 0.6440(2) 0.11899(17) 0.4533(2)
C46 C 0.5703(2) 0.11931(16) 0.47278(19)
C47 C 0.5304(2) 0.17735(16) 0.47748(19)
C48 C 0.4552(2) 0.17994(19) 0.4982(2)
H48 H 0.4318 0.1418 0.5087
C49 C 0.4170(3) 0.23593(19) 0.5029(2)
H49 H 0.3676 0.2366 0.5170
C50 C 0.4499(3) 0.29275(19) 0.4872(2)
H50 H 0.4227 0.3315 0.4911
C51 C 0.5197(2) 0.29315(17) 0.4665(2)
H51 H 0.5406 0.3323 0.4561
C52 C 0.5630(2) 0.23569(16) 0.45994(18)
C53 C 0.5340(2) 0.05844(16) 0.48781(19)
C54 C 0.4852(2) 0.01962(17) 0.4333(2)
H52 H 0.4742 0.0325 0.3872
C55 C 0.5476(3) 0.03801(18) 0.5536(2)
H53 H 0.5802 0.0638 0.5913
C31B C 0.1486(3) -0.4817(2) 0.5260(3)
H35B H 0.1784 -0.4956 0.5718
C32B C 0.0892(4) -0.5200(2) 0.4791(4)
F11B F 0.0741(3) -0.57844(16) 0.4994(2)
C33B C 0.0428(4) -0.5027(3) 0.4127(4)
H36B H 0.0020 -0.5302 0.3812
C34B C 0.0595(3) -0.4426(2) 0.3947(3)
F12B F 0.0152(2) -0.42193(17) 0.32906(17)
C35B C 0.1188(3) -0.4021(2) 0.4379(2)
H37B H 0.1287 -0.3614 0.4228
C36B C 0.1641(3) -0.42243(17) 0.5048(2)
C37B C 0.2279(3) -0.38180(17) 0.5590(2)
H38B H 0.2778 -0.4083 0.5867
H39B H 0.1989 -0.3654 0.5903
N5B N 0.2617(2) -0.32753(13) 0.53012(16)
H40B H 0.2821 -0.3418 0.4966
H41B H 0.2171 -0.2994 0.5101
C38B C 0.3348(2) -0.29453(17) 0.58622(19)
H42B H 0.3849 -0.3239 0.6040
H43B H 0.3145 -0.2843 0.6247
C39B C 0.3653(2) -0.23469(16) 0.56235(18)
C40B C 0.3240(2) -0.17683(17) 0.56594(19)
C41B C 0.2501(3) -0.17329(19) 0.5877(2)
H44B H 0.2287 -0.2108 0.6013
C42B C 0.2101(3) -0.1177(2) 0.5892(3)
H45B H 0.1618 -0.1165 0.6047
C43B C 0.2396(3) -0.0613(2) 0.5680(3)
H46B H 0.2098 -0.0227 0.5678
C44B C 0.3100(3) -0.06164(18) 0.5481(2)
H47B H 0.3293 -0.0232 0.5347
C45B C 0.3560(2) -0.11899(17) 0.5467(2)
C46B C 0.4297(2) -0.11931(16) 0.52722(19)
C47B C 0.4696(2) -0.17735(16) 0.52252(19)
C48B C 0.5448(2) -0.17994(19) 0.5018(2)
H48B H 0.5682 -0.1418 0.4913
C49B C 0.5830(3) -0.23593(19) 0.4971(2)
H49B H 0.6324 -0.2366 0.4830
C50B C 0.5501(3) -0.29275(19) 0.5128(2)
H50B H 0.5773 -0.3315 0.5089
C51B C 0.4803(2) -0.29315(17) 0.5335(2)
H51B H 0.4594 -0.3323 0.5439
C52B C 0.4370(2) -0.23569(16) 0.54006(18)
C53B C 0.4660(2) -0.05844(16) 0.51219(19)
C54B C 0.5148(2) -0.01962(17) 0.5667(2)
H52B H 0.5258 -0.0325 0.6128
C55B C 0.4524(3) -0.03801(18) 0.4464(2)
H53B H 0.4198 -0.0638 0.4087
O7 O 0.9942(4) 0.3896(3) 0.2891(3)
C56 C 0.9115(8) 0.4611(5) 0.2045(6)
H54 H 0.9106 0.4843 0.2451
H55 H 0.8515 0.4502 0.1755
H56 H 0.9379 0.4875 0.1783
C57 C 0.9621(6) 0.4041(5) 0.2261(4)
C58 C 0.9764(10) 0.3592(8) 0.1774(6)
H57 H 1.0130 0.3243 0.2029
H58 H 1.0059 0.3807 0.1498
H59 H 0.9201 0.3426 0.1470
C59 C 0.9689(6) 0.0313(4) 0.3475(5)
H60 H 0.9133 0.0249 0.3547
H61 H 1.0167 0.0326 0.3922
H62 H 0.9787 -0.0037 0.3201
C60 C 0.9660(5) 0.0925(4) 0.3101(4)
O8 O 0.8990(4) 0.1251(3) 0.2954(3)
C61 C 1.0383(6) 0.1169(5) 0.2910(5)
H63 H 1.0211 0.1572 0.2666
H64 H 1.0524 0.0865 0.2609
H65 H 1.0897 0.1234 0.3326
C62 C 0.6759(10) 0.6782(6) 0.3683(7)
H66 H 0.6308 0.6600 0.3839
H67 H 0.6479 0.7015 0.3254
H68 H 0.7126 0.7070 0.4036
C63 C 0.7326(7) 0.6250(6) 0.3560(5)
O9 O 0.7128(5) 0.5708(4) 0.3643(4)
C64 C 0.8047(6) 0.6397(7) 0.3334(7)
H69 H 0.8337 0.6005 0.3282
H70 H 0.8466 0.6668 0.3675
H71 H 0.7826 0.6617 0.2890
C65 C 1.1860(8) 0.3122(8) 0.3143(7)
H72 H 1.2062 0.3265 0.2775
H73 H 1.1220 0.3122 0.2976
H74 H 1.2076 0.2694 0.3285
C66 C 1.2189(5) 0.3545(4) 0.3727(5)
O10 O 1.2609(6) 0.4009(4) 0.3701(6)
C67 C 1.1961(6) 0.3432(5) 0.4314(6)
H75 H 1.2232 0.3754 0.4664
H76 H 1.2170 0.3013 0.4501
H77 H 1.1324 0.3450 0.4185
F7? F 0.7637(8) -0.1043(7) 0.4125(5)
F8? F 0.9062(6) -0.1088(10) 0.4690(9)
F9? F 0.8843(8) -0.1701(8) 0.5478(6)
F10? F 0.7412(6) -0.1553(10) 0.4984(8)
loop_
_geom_bond_atom_site_label_1
_geom_bond_atom_site_label_2
_geom_bond_site_symmetry_1
_geom_bond_site_symmetry_2
P1 F1 1_555 1_555
F2 P1 1_555 1_555
F3 P1 1_555 1_555
F4 P1 1_555 1_555
F5 P1 1_555 1_555
F6 P1 1_555 1_555
C1 H1 1_555 1_555
H2 C1 1_555 1_555
O1 C1 1_555 1_555
C2 O1 1_555 1_555
H3 C2 1_555 1_555
H4 C2 1_555 1_555
C3 C2 1_555 1_555
H5 C3 1_555 1_555
H6 C3 1_555 1_555
O2 C3 1_555 1_555
C4 O2 1_555 1_555
H7 C4 1_555 1_555
H8 C4 1_555 1_555
C5 C4 1_555 1_555
H9 C5 1_555 1_555
H10 C5 1_555 1_555
O3 C5 1_555 1_555
C6 O3 1_555 1_555
H11 C6 1_555 1_555
H12 C6 1_555 1_555
C7 C6 1_555 1_555
C8 C7 1_555 1_555
H13 C8 1_555 1_555
C9 C8 1_555 1_555
C10 C9 1_555 1_555
H14 C10 1_555 1_555
C11 C10 1_555 1_555
N1 C7 1_555 1_555
C12 C11 1_555 1_555
H15 C12 1_555 1_555
H16 C12 1_555 1_555
O4 C12 1_555 1_555
C13 O4 1_555 1_555
H17 C13 1_555 1_555
H18 C13 1_555 1_555
C14 C13 1_555 1_555
H19 C14 1_555 1_555
H20 C14 1_555 1_555
O5 C14 1_555 1_555
C15 O5 1_555 1_555
H21 C15 1_555 1_555
H22 C15 1_555 1_555
C16 C15 1_555 1_555
H23 C16 1_555 1_555
H24 C16 1_555 1_555
O6 C16 1_555 1_555
C17 O6 1_555 1_555
H25 C17 1_555 1_555
H26 C17 1_555 1_555
C18 C17 1_555 1_555
C19 C18 1_555 1_555
H27 C19 1_555 1_555
C20 C19 1_555 1_555
C21 C20 1_555 1_555
H28 C21 1_555 1_555
C22 C1 1_555 1_555
N2 C18 1_555 1_555
C23 C20 1_555 1_555
H29 C23 1_555 1_555
N3 C23 1_555 1_555
C24 N3 1_555 1_555
C25 C24 1_555 1_555
H30 C25 1_555 1_555
C26 C25 1_555 1_555
H31 C26 1_555 1_555
C27 C26 1_555 1_555
C28 C27 1_555 1_555
H32 C28 1_555 1_555
C29 C24 1_555 1_555
H33 C29 1_555 1_555
N4 C27 1_555 1_555
C30 C9 1_555 1_555
H34 C30 1_555 1_555
C31 H35 1_555 1_555
C32 C31 1_555 1_555
F11 C32 1_555 1_555
C33 C32 1_555 1_555
H36 C33 1_555 1_555
C34 C33 1_555 1_555
F12 C34 1_555 1_555
C35 C34 1_555 1_555
H37 C35 1_555 1_555
C36 C31 1_555 1_555
C37 C36 1_555 1_555
H38 C37 1_555 1_555
H39 C37 1_555 1_555
N5 C37 1_555 1_555
H40 N5 1_555 1_555
H41 N5 1_555 1_555
C38 N5 1_555 1_555
H42 C38 1_555 1_555
H43 C38 1_555 1_555
C39 C38 1_555 1_555
C40 C39 1_555 1_555
C41 C40 1_555 1_555
H44 C41 1_555 1_555
C42 C41 1_555 1_555
H45 C42 1_555 1_555
C43 C42 1_555 1_555
H46 C43 1_555 1_555
C44 C43 1_555 1_555
H47 C44 1_555 1_555
C45 C40 1_555 1_555
C46 C45 1_555 1_555
C47 C46 1_555 1_555
C48 C47 1_555 1_555
H48 C48 1_555 1_555
C49 C48 1_555 1_555
H49 C49 1_555 1_555
O7 C57 1_555 1_555
C50 C49 1_555 1_555
H50 C50 1_555 1_555
C51 C50 1_555 1_555
H51 C51 1_555 1_555
C52 C39 1_555 1_555
C53 C46 1_555 1_555
C54 C53 1_555 1_555
H52 C54 1_555 1_555
C55 C53 1_555 1_555
H53 C55 1_555 1_555
C56 H54 1_555 1_555
H55 C56 1_555 1_555
H56 C56 1_555 1_555
C57 C56 1_555 1_555
C58 C57 1_555 1_555
H57 C58 1_555 1_555
H58 C58 1_555 1_555
H59 C58 1_555 1_555
C59 H60 1_555 1_555
H61 C59 1_555 1_555
H62 C59 1_555 1_555
C60 C59 1_555 1_555
O8 C60 1_555 1_555
C61 C60 1_555 1_555
H63 C61 1_555 1_555
H64 C61 1_555 1_555
H65 C61 1_555 1_555
C62 H66 1_555 1_555
H67 C62 1_555 1_555
H68 C62 1_555 1_555
C63 C62 1_555 1_555
O9 C63 1_555 1_555
C64 C63 1_555 1_555
H69 C64 1_555 1_555
H70 C64 1_555 1_555
H71 C64 1_555 1_555
C65 H72 1_555 1_555
H73 C65 1_555 1_555
H74 C65 1_555 1_555
C66 C65 1_555 1_555
O10 C66 1_555 1_555
C67 C66 1_555 1_555
H75 C67 1_555 1_555
H76 C67 1_555 1_555
H77 C67 1_555 1_555
C1B H1B 1_555 1_555
H2B C1B 1_555 1_555
O1B C1B 1_555 1_555
C2B O1B 1_555 1_555
H3B C2B 1_555 1_555
H4B C2B 1_555 1_555
C3B C2B 1_555 1_555
H5B C3B 1_555 1_555
H6B C3B 1_555 1_555
O2B C3B 1_555 1_555
C4B O2B 1_555 1_555
H7B C4B 1_555 1_555
H8B C4B 1_555 1_555
C5B C4B 1_555 1_555
H9B C5B 1_555 1_555
H10B C5B 1_555 1_555
O3B C5B 1_555 1_555
C6B O3B 1_555 1_555
H11B C6B 1_555 1_555
H12B C6B 1_555 1_555
C7B C6B 1_555 1_555
C8B C7B 1_555 1_555
H13B C8B 1_555 1_555
C9B C8B 1_555 1_555
C10B C9B 1_555 1_555
H14B C10B 1_555 1_555
C11B C10B 1_555 1_555
N1B C7B 1_555 1_555
C12B C11B 1_555 1_555
H15B C12B 1_555 1_555
H16B C12B 1_555 1_555
O4B C12B 1_555 1_555
C13B O4B 1_555 1_555
H17B C13B 1_555 1_555
H18B C13B 1_555 1_555
C14B C13B 1_555 1_555
H19B C14B 1_555 1_555
H20B C14B 1_555 1_555
O5B C14B 1_555 1_555
C15B O5B 1_555 1_555
H21B C15B 1_555 1_555
H22B C15B 1_555 1_555
C16B C15B 1_555 1_555
H23B C16B 1_555 1_555
H24B C16B 1_555 1_555
O6B C16B 1_555 1_555
C17B O6B 1_555 1_555
H25B C17B 1_555 1_555
H26B C17B 1_555 1_555
C18B C17B 1_555 1_555
C19B C18B 1_555 1_555
H27B C19B 1_555 1_555
C20B C19B 1_555 1_555
C21B C20B 1_555 1_555
H28B C21B 1_555 1_555
C22B C1B 1_555 1_555
N2B C18B 1_555 1_555
C23B C20B 1_555 1_555
H29B C23B 1_555 1_555
N3B C23B 1_555 1_555
C24B N3B 1_555 1_555
C25B C24B 1_555 1_555
H30B C25B 1_555 1_555
C26B C25B 1_555 1_555
H31B C26B 1_555 1_555
C27B C26B 1_555 1_555
C28B C27B 1_555 1_555
H32B C28B 1_555 1_555
C29B C24B 1_555 1_555
H33B C29B 1_555 1_555
N4B C30 1_555 1_555
C30B N4 1_555 1_555
H34B C30B 1_555 1_555
C31B H35B 1_555 1_555
C32B C31B 1_555 1_555
F11B C32B 1_555 1_555
C33B C32B 1_555 1_555
H36B C33B 1_555 1_555
C34B C33B 1_555 1_555
F12B C34B 1_555 1_555
C35B C34B 1_555 1_555
H37B C35B 1_555 1_555
C36B C31B 1_555 1_555
C37B C36B 1_555 1_555
H38B C37B 1_555 1_555
H39B C37B 1_555 1_555
N5B C37B 1_555 1_555
H40B N5B 1_555 1_555
H41B N5B 1_555 1_555
C38B N5B 1_555 1_555
H42B C38B 1_555 1_555
H43B C38B 1_555 1_555
C39B C38B 1_555 1_555
C40B C39B 1_555 1_555
C41B C40B 1_555 1_555
H44B C41B 1_555 1_555
C42B C41B 1_555 1_555
H45B C42B 1_555 1_555
C43B C42B 1_555 1_555
H46B C43B 1_555 1_555
C44B C43B 1_555 1_555
H47B C44B 1_555 1_555
C45B C40B 1_555 1_555
C46B C45B 1_555 1_555
C47B C46B 1_555 1_555
C48B C47B 1_555 1_555
H48B C48B 1_555 1_555
C49B C48B 1_555 1_555
H49B C49B 1_555 1_555
C50B C49B 1_555 1_555
H50B C50B 1_555 1_555
C51B C50B 1_555 1_555
H51B C51B 1_555 1_555
C52B C39B 1_555 1_555
C53B C46B 1_555 1_555
C54B C55 1_555 1_555
H52B C54B 1_555 1_555
C55B C54 1_555 1_555
H53B C55B 1_555 1_555
C11 N1 1_555 1_555
C21 C22 1_555 1_555
C22 N2 1_555 1_555
C28 C29 1_555 1_555
C35 C36 1_555 1_555
C44 C45 1_555 1_555
C47 C52 1_555 1_555
C51 C52 1_555 1_555
C9B C30B 1_555 1_555
C11B N1B 1_555 1_555
C21B C22B 1_555 1_555
C22B N2B 1_555 1_555
C27B N4B 1_555 1_555
C28B C29B 1_555 1_555
C35B C36B 1_555 1_555
C44B C45B 1_555 1_555
C47B C52B 1_555 1_555
C51B C52B 1_555 1_555
C53B C54B 1_555 1_555
C53B C55B 1_555 1_555

#END
