
#######################################################################
#
#                 Cambridge Crystallographic Data Centre
#                                CCDC 
#
#######################################################################
#
# If this CIF has been generated from an entry in the Cambridge 
# Structural Database, then it will include bibliographic, chemical, 
# crystal, experimental, refinement or atomic coordinate data resulting 
# from the CCDC's data processing and validation procedures.
#
#######################################################################

data_PEPNIJ
_chemical_formula_moiety         'C60 H48 N16 O12,3(C4 H12 N1 1+),O4 P1 3-'
_chemical_name_systematic        
"tris(Tetramethylammonium) phosphate 1,1',1''-(nitrilotris(4,1-phenylenecarbamoylimino-2,1-phenylene))tris(3-(4-nitrophenyl)urea) unknown solvate"
_symmetry_cell_setting           cubic
_symmetry_space_group_name_H-M   'P -4 3 n'
_symmetry_Int_Tables_number      218
_space_group_name_Hall           'P -4n 2 3'
loop_
_symmetry_equiv_pos_site_id
_symmetry_equiv_pos_as_xyz
1 x,y,z
2 -x,-y,z
3 -x,y,-z
4 x,-y,-z
5 z,x,y
6 z,-x,-y
7 -z,-x,y
8 -z,x,-y
9 y,z,x
10 -y,z,-x
11 y,-z,-x
12 -y,-z,x
13 1/2+y,1/2+x,1/2+z
14 1/2-y,1/2-x,1/2+z
15 1/2+y,1/2-x,1/2-z
16 1/2-y,1/2+x,1/2-z
17 1/2+x,1/2+z,1/2+y
18 1/2-x,1/2+z,1/2-y
19 1/2-x,1/2-z,1/2+y
20 1/2+x,1/2-z,1/2-y
21 1/2+z,1/2+y,1/2+x
22 1/2+z,1/2-y,1/2-x
23 1/2-z,1/2+y,1/2-x
24 1/2-z,1/2-y,1/2+x
_cell_length_a                   25.6857(13)
_cell_length_b                   25.6857(13)
_cell_length_c                   25.6857(13)
_cell_angle_alpha                90
_cell_angle_beta                 90
_cell_angle_gamma                90
_cell_volume                     16946.3
_exptl_crystal_colour            yellow
_exptl_crystal_description       block
_cell_formula_units_Z            8
loop_
_atom_site_label
_atom_site_type_symbol
_atom_site_fract_x
_atom_site_fract_y
_atom_site_fract_z
P1 P 0.20674(7) 0.79326(7) 0.79326(7)
O1 O 0.17168(19) 0.82832(19) 0.82832(19)
O2 O 0.19928(18) 0.80871(18) 0.73632(17)
O2F O 0.26368(17) 0.80072(18) 0.80871(18)
O2I O 0.19129(18) 0.73632(17) 0.80072(18)
O3 O 0.0494(4) 0.7283(4) 0.9297(4)
O4 O 0.0423(3) 0.7153(4) 0.6844(4)
O5 O 0.0624(4) 0.8537(5) 0.4608(3)
O6 O 0.1314(5) 0.9014(4) 0.4790(4)
N1 N 0.0979(4) 0.9021(4) 1.0979(4)
N2 N 0.1155(3) 0.7853(3) 0.9120(3)
H1 H 0.1401 0.7936 0.8896
N3 N 0.0970(3) 0.7199(3) 0.8551(3)
H2 H 0.1249 0.7314 0.8389
N4 N 0.0999(3) 0.7068(3) 0.7479(3)
H3 H 0.1312 0.7162 0.7581
N5 N 0.1164(3) 0.7635(3) 0.6810(3)
H4 H 0.1438 0.7732 0.6991
N6 N 0.1007(5) 0.8706(5) 0.4908(4)
C1 C 0.1029(4) 0.8720(4) 1.0511(4)
C2 C 0.0655(4) 0.8621(9) 1.0250(5)
H5 H 0.0334 0.8796 1.0302
C3 C 0.0714(6) 0.8200(8) 0.9829(6)
H6 H 0.0431 0.7970 0.9768
C4 C 0.1095(6) 0.8152(4) 0.9578(4)
C5 C 0.1564(6) 0.8271(4) 0.9861(6)
H7 H 0.1897 0.8165 0.9739
C6 C 0.1501(5) 0.8564(4) 1.0347(6)
H8 H 0.1799 0.8644 1.0550
C7 C 0.0842(5) 0.7445(4) 0.9021(4)
C8 C 0.0695(3) 0.6781(3) 0.8305(4)
C9 C 0.0409(5) 0.6419(4) 0.8616(5)
H9 H 0.0401 0.6454 0.8984
C10 C 0.0142(5) 0.6014(5) 0.8373(7)
H10 H -0.0074 0.5785 0.8568
C11 C 0.0194(4) 0.5956(4) 0.7879(6)
H11 H 0.0020 0.5670 0.7722
C12 C 0.0487(5) 0.6282(5) 0.7555(5)
H12 H 0.0526 0.6218 0.7193
C13 C 0.0721(3) 0.6713(4) 0.7805(3)
C14 C 0.0832(4) 0.7264(5) 0.7049(4)
C15 C 0.1109(4) 0.7858(4) 0.6332(3)
C16 C 0.0666(4) 0.7802(5) 0.6014(4)
H13 H 0.0387 0.7592 0.6137
C17 C 0.0620(5) 0.8024(6) 0.5558(5)
H14 H 0.0329 0.7955 0.5341
C18 C 0.1033(5) 0.8383(4) 0.5395(3)
C19 C 0.1451(5) 0.8466(4) 0.5702(4)
H15 H 0.1712 0.8708 0.5599
C20 C 0.1498(4) 0.8199(4) 0.6166(3)
H16 H 0.1799 0.8247 0.6375
O3E O -0.0703(4) 0.9506(4) 1.2717(4)
O4E O -0.3156(4) 0.9577(3) 1.2847(4)
O5E O -0.5392(3) 0.9376(4) 1.1463(5)
O6E O -0.5210(4) 0.8686(5) 1.0986(4)
N2E N -0.0880(3) 0.8845(3) 1.2147(3)
H1E H -0.1104 0.8599 1.2064
N3E N -0.1449(3) 0.9030(3) 1.2801(3)
H2E H -0.1611 0.8751 1.2686
N4E N -0.2521(3) 0.9001(3) 1.2932(3)
H3E H -0.2419 0.8688 1.2838
N5E N -0.3190(3) 0.8836(3) 1.2365(3)
H4E H -0.3009 0.8562 1.2268
N6E N -0.5092(4) 0.8993(5) 1.1294(5)
C1E C 0.0511(4) 0.8971(4) 1.1280(4)
C2E C 0.0250(5) 0.9345(4) 1.1379(9)
H5E H 0.0302 0.9666 1.1204
C3E C -0.0171(6) 0.9286(6) 1.1800(8)
H6E H -0.0232 0.9569 1.2030
C4E C -0.0422(4) 0.8905(6) 1.1848(4)
C5E C -0.0139(6) 0.8436(6) 1.1729(4)
H7E H -0.0261 0.8103 1.1835
C6E C 0.0347(6) 0.8499(5) 1.1436(4)
H8E H 0.0550 0.8201 1.1356
C7E C -0.0979(4) 0.9158(5) 1.2555(4)
C8E C -0.1695(4) 0.9305(3) 1.3219(3)
C9E C -0.1384(5) 0.9591(5) 1.3581(4)
H9E H -0.1016 0.9599 1.3546
C10E C -0.1627(7) 0.9858(5) 1.3986(5)
H10E H -0.1432 1.0074 1.4215
C11E C -0.2121(6) 0.9806(4) 1.4044(4)
H11E H -0.2278 0.9980 1.4330
C12E C -0.2445(5) 0.9513(5) 1.3718(5)
H12E H -0.2807 0.9474 1.3782
C13E C -0.2195(3) 0.9279(3) 1.3287(4)
C14E C -0.2951(4) 0.9168(4) 1.2736(5)
C15E C -0.3668(3) 0.8891(4) 1.2142(4)
C16E C -0.3986(4) 0.9334(4) 1.2198(5)
H13E H -0.3863 0.9613 1.2408
C17E C -0.4442(5) 0.9380(5) 1.1976(6)
H14E H -0.4659 0.9671 1.2045
C18E C -0.4605(3) 0.8967(5) 1.1617(4)
C19E C -0.4298(4) 0.8549(5) 1.1534(4)
H15E H -0.4401 0.8288 1.1292
C20E C -0.3834(3) 0.8502(4) 1.1801(4)
H16E H -0.3625 0.8201 1.1753
O3K O 0.2717(4) 1.0703(4) 1.0494(4)
O4K O 0.2847(4) 1.3156(4) 1.0423(3)
O5K O 0.1463(5) 1.5392(3) 1.0624(4)
O6K O 0.0986(4) 1.5210(4) 1.1314(5)
N2K N 0.2147(3) 1.0880(3) 1.1155(3)
H1K H 0.2064 1.1104 1.1401
N3K N 0.2801(3) 1.1449(3) 1.0970(3)
H2K H 0.2686 1.1611 1.1249
N4K N 0.2932(3) 1.2521(3) 1.0999(3)
H3K H 0.2838 1.2419 1.1312
N5K N 0.2365(3) 1.3190(3) 1.1164(3)
H4K H 0.2268 1.3009 1.1438
N6K N 0.1294(5) 1.5092(4) 1.1007(5)
C1K C 0.1280(4) 0.9489(4) 1.1029(4)
C2K C 0.1379(9) 0.9750(5) 1.0655(4)
H5K H 0.1204 0.9698 1.0334
C3K C 0.1800(8) 1.0171(6) 1.0714(6)
H6K H 0.2030 1.0232 1.0431
C4K C 0.1848(4) 1.0422(4) 1.1095(6)
C5K C 0.1729(4) 1.0139(6) 1.1564(6)
H7K H 0.1835 1.0261 1.1897
C6K C 0.1436(4) 0.9653(6) 1.1501(5)
H8K H 0.1356 0.9450 1.1799
C7K C 0.2555(4) 1.0979(4) 1.0842(5)
C8K C 0.3219(3) 1.1695(4) 1.0695(3)
C9K C 0.3581(4) 1.1384(5) 1.0409(5)
H9K H 0.3546 1.1016 1.0401
C10K C 0.3986(5) 1.1627(7) 1.0142(5)
H10K H 0.4215 1.1432 0.9926
C11K C 0.4044(4) 1.2121(6) 1.0194(4)
H11K H 0.4330 1.2278 1.0020
C12K C 0.3718(5) 1.2445(5) 1.0487(5)
H12K H 0.3782 1.2807 1.0526
C13K C 0.3287(4) 1.2195(3) 1.0721(3)
C14K C 0.2736(5) 1.2951(4) 1.0832(4)
C15K C 0.2142(4) 1.3668(3) 1.1109(4)
C16K C 0.2198(5) 1.3986(4) 1.0666(4)
H13K H 0.2408 1.3863 1.0387
C17K C 0.1976(6) 1.4442(5) 1.0620(5)
H14K H 0.2045 1.4659 1.0329
C18K C 0.1617(4) 1.4605(3) 1.1033(5)
C19K C 0.1534(4) 1.4298(4) 1.1451(5)
H15K H 0.1292 1.4401 1.1712
C20K C 0.1801(4) 1.3834(3) 1.1498(4)
H16K H 0.1753 1.3625 1.1799
N7 N 0.0667(10) 0.8767(10) 0.3206(5)
C21 C 0.0349(13) 0.9221(15) 0.3462(14)
H17 H 0.0566 0.9535 0.3478
H18 H 0.0244 0.9120 0.3814
H19 H 0.0038 0.9293 0.3252
C22 C 0.1212(11) 0.886(3) 0.3443(10)
H20 H 0.1479 0.8766 0.3187
H21 H 0.1254 0.8644 0.3754
H22 H 0.1249 0.9227 0.3537
C23 C 0.052(6) 0.8220(16) 0.3009(17)
H23 H 0.0167 0.8232 0.2855
H24 H 0.0519 0.7974 0.3300
H25 H 0.0768 0.8107 0.2745
C24 C 0.0817(10) 0.8952(18) 0.2646(7)
H26 H 0.0692 0.9308 0.2592
H27 H 0.0656 0.8720 0.2389
H28 H 0.1196 0.8942 0.2607
loop_
_geom_bond_atom_site_label_1
_geom_bond_atom_site_label_2
_geom_bond_site_symmetry_1
_geom_bond_site_symmetry_2
P1 O1 1_555 1_555
O2 P1 1_555 1_555
O3 C7 1_555 1_555
O4 C14 1_555 1_555
O5 N6 1_555 1_555
O6 N6 1_555 1_555
N1 C1 1_555 1_555
N2 H1 1_555 1_555
N3 H2 1_555 1_555
N4 H3 1_555 1_555
N5 H4 1_555 1_555
N6 C18 1_555 1_555
C1 C2 1_555 1_555
C2 H5 1_555 1_555
C3 C2 1_555 1_555
H6 C3 1_555 1_555
C4 N2 1_555 1_555
C5 C4 1_555 1_555
H7 C5 1_555 1_555
C6 C1 1_555 1_555
H8 C6 1_555 1_555
C7 N2 1_555 1_555
C8 N3 1_555 1_555
C9 C8 1_555 1_555
H9 C9 1_555 1_555
C10 C9 1_555 1_555
H10 C10 1_555 1_555
C11 C10 1_555 1_555
H11 C11 1_555 1_555
C12 C11 1_555 1_555
H12 C12 1_555 1_555
C13 N4 1_555 1_555
C14 N4 1_555 1_555
C15 N5 1_555 1_555
C16 C15 1_555 1_555
H13 C16 1_555 1_555
C17 C16 1_555 1_555
H14 C17 1_555 1_555
C18 C17 1_555 1_555
C19 C18 1_555 1_555
H15 C19 1_555 1_555
C20 C15 1_555 1_555
H16 C20 1_555 1_555
N7 C21 1_555 1_555
C21 H17 1_555 1_555
H18 C21 1_555 1_555
H19 C21 1_555 1_555
C22 N7 1_555 1_555
H20 C22 1_555 1_555
H21 C22 1_555 1_555
H22 C22 1_555 1_555
C23 N7 1_555 1_555
H23 C23 1_555 1_555
H24 C23 1_555 1_555
H25 C23 1_555 1_555
C24 N7 1_555 1_555
H26 C24 1_555 1_555
H27 C24 1_555 1_555
H28 C24 1_555 1_555
O2F P1 1_555 1_555
O2I P1 1_555 1_555
O3E C7E 1_555 1_555
O4E C14E 1_555 1_555
O5E N6E 1_555 1_555
O6E N6E 1_555 1_555
N2E H1E 1_555 1_555
N3E H2E 1_555 1_555
N4E H3E 1_555 1_555
N5E H4E 1_555 1_555
N6E C18E 1_555 1_555
C1E N1 1_555 1_555
C2E C1E 1_555 1_555
H5E C2E 1_555 1_555
C3E C2E 1_555 1_555
H6E C3E 1_555 1_555
C4E N2E 1_555 1_555
C5E C4E 1_555 1_555
H7E C5E 1_555 1_555
C6E C1E 1_555 1_555
H8E C6E 1_555 1_555
C7E N2E 1_555 1_555
C8E N3E 1_555 1_555
C9E C8E 1_555 1_555
H9E C9E 1_555 1_555
C10E C9E 1_555 1_555
H10E C10E 1_555 1_555
C11E C10E 1_555 1_555
H11E C11E 1_555 1_555
C12E C11E 1_555 1_555
H12E C12E 1_555 1_555
C13E N4E 1_555 1_555
C14E N4E 1_555 1_555
C15E N5E 1_555 1_555
C16E C15E 1_555 1_555
H13E C16E 1_555 1_555
C17E C16E 1_555 1_555
H14E C17E 1_555 1_555
C18E C17E 1_555 1_555
C19E C18E 1_555 1_555
H15E C19E 1_555 1_555
C20E C15E 1_555 1_555
H16E C20E 1_555 1_555
O3K C7K 1_555 1_555
O4K C14K 1_555 1_555
O5K N6K 1_555 1_555
O6K N6K 1_555 1_555
N2K H1K 1_555 1_555
N3K H2K 1_555 1_555
N4K H3K 1_555 1_555
N5K H4K 1_555 1_555
N6K C18K 1_555 1_555
C1K N1 1_555 1_555
C2K C1K 1_555 1_555
H5K C2K 1_555 1_555
C3K C2K 1_555 1_555
H6K C3K 1_555 1_555
C4K N2K 1_555 1_555
C5K C4K 1_555 1_555
H7K C5K 1_555 1_555
C6K C1K 1_555 1_555
H8K C6K 1_555 1_555
C7K N2K 1_555 1_555
C8K N3K 1_555 1_555
C9K C8K 1_555 1_555
H9K C9K 1_555 1_555
C10K C9K 1_555 1_555
H10K C10K 1_555 1_555
C11K C10K 1_555 1_555
H11K C11K 1_555 1_555
C12K C11K 1_555 1_555
H12K C12K 1_555 1_555
C13K N4K 1_555 1_555
C14K N4K 1_555 1_555
C15K N5K 1_555 1_555
C16K C15K 1_555 1_555
H13K C16K 1_555 1_555
C17K C16K 1_555 1_555
H14K C17K 1_555 1_555
C18K C17K 1_555 1_555
C19K C18K 1_555 1_555
H15K C19K 1_555 1_555
C20K C15K 1_555 1_555
H16K C20K 1_555 1_555
N3 C7 1_555 1_555
N5 C14 1_555 1_555
C3 C4 1_555 1_555
C5 C6 1_555 1_555
C8 C13 1_555 1_555
C12 C13 1_555 1_555
C19 C20 1_555 1_555
N3E C7E 1_555 1_555
N5E C14E 1_555 1_555
C3E C4E 1_555 1_555
C5E C6E 1_555 1_555
C8E C13E 1_555 1_555
C12E C13E 1_555 1_555
C19E C20E 1_555 1_555
N3K C7K 1_555 1_555
N5K C14K 1_555 1_555
C3K C4K 1_555 1_555
C5K C6K 1_555 1_555
C8K C13K 1_555 1_555
C12K C13K 1_555 1_555
C19K C20K 1_555 1_555

#END
