
#######################################################################
#
#                 Cambridge Crystallographic Data Centre
#                                CCDC 
#
#######################################################################
#
# If this CIF has been generated from an entry in the Cambridge 
# Structural Database, then it will include bibliographic, chemical, 
# crystal, experimental, refinement or atomic coordinate data resulting 
# from the CCDC's data processing and validation procedures.
#
#######################################################################

data_PEPNEF
_chemical_formula_moiety         
'2(C60 H48 N16 O12),6(K1 1+),6(C12 H24 O6),3(O4 S1 2-),3(C3 H6 O1)'
_chemical_name_systematic        
"Hexa-potassium hexakis(18-crown-6) bis(1,1',1''-(nitrilotris(4,1-phenylenecarbamoylimino-2,1-phenylene))tris(3-(4-nitrophenyl)urea) acetone solvate"
_symmetry_cell_setting           monoclinic
_symmetry_space_group_name_H-M   'C 2/c'
_symmetry_Int_Tables_number      15
_space_group_name_Hall           '-C 2yn'
loop_
_symmetry_equiv_pos_site_id
_symmetry_equiv_pos_as_xyz
1 x,y,z
2 -x,y,1/2-z
3 1/2+x,1/2+y,z
4 1/2-x,1/2+y,1/2-z
5 -x,-y,-z
6 x,-y,1/2+z
7 1/2-x,1/2-y,-z
8 1/2+x,1/2-y,1/2+z
_cell_length_a                   40.572(6)
_cell_length_b                   26.278(4)
_cell_length_c                   26.914(4)
_cell_angle_alpha                90
_cell_angle_beta                 114.449(3)
_cell_angle_gamma                90
_cell_volume                     26121.4
_exptl_crystal_colour            yellow
_exptl_crystal_description       stick
_cell_formula_units_Z            4
loop_
_atom_site_label
_atom_site_type_symbol
_atom_site_fract_x
_atom_site_fract_y
_atom_site_fract_z
K1 K 0.693067(19) 0.33201(3) 0.34003(3)
O1 O 0.42346(7) 0.22911(9) 0.34924(10)
O2 O 0.35858(8) 0.09691(11) 0.11781(11)
O3 O 0.39485(10) 0.06602(15) -0.11015(13)
O4 O 0.44638(11) 0.10406(18) -0.08068(14)
O5 O 0.46375(7) 0.61132(11) 0.46393(10)
O6 O 0.37462(9) 0.81781(10) 0.37136(12)
O7 O 0.2725(2) 0.9334(4) 0.1097(4)
O8 O 0.31434(15) 0.9810(2) 0.1557(3)
O9 O 0.68331(6) 0.43301(8) 0.35186(9)
O10 O 0.75440(7) 0.50024(10) 0.19791(11)
O11 O 0.73580(7) 0.62220(9) -0.04250(9)
O12 O 0.68089(7) 0.65058(9) -0.06458(9)
N1 N 0.52347(7) 0.42388(9) 0.35998(11)
N2 N 0.47855(8) 0.21831(9) 0.34501(11)
H1 H 0.4944 0.1945 0.3476
N3 N 0.43369(8) 0.15799(10) 0.30861(11)
H2 H 0.4504 0.1407 0.3031
N4 N 0.39787(8) 0.13263(10) 0.19911(11)
H3 H 0.4181 0.1501 0.2136
N5 N 0.41284(8) 0.13135(10) 0.12621(11)
H4 H 0.4319 0.1480 0.1491
N6 N 0.41977(12) 0.08907(17) -0.07478(15)
N7 N 0.42907(7) 0.57030(10) 0.38350(11)
H5 H 0.4071 0.5690 0.3573
N8 N 0.40562(7) 0.63719(9) 0.41216(11)
H6 H 0.3869 0.6333 0.3806
N9 N 0.37181(8) 0.73058(10) 0.37067(11)
H7 H 0.3660 0.7037 0.3493
N10 N 0.35030(9) 0.77431(12) 0.28969(13)
H8 H 0.3484 0.7440 0.2748
N11 N 0.2942(3) 0.9452(2) 0.1343(4)
N12 N 0.63987(7) 0.49458(10) 0.31276(11)
H9 H 0.6351 0.5218 0.2919
N13 N 0.69840(7) 0.50880(11) 0.32517(11)
H10 H 0.6904 0.5389 0.3111
N14 N 0.73035(8) 0.53355(12) 0.25397(12)
H11 H 0.7132 0.5540 0.2542
N15 N 0.71061(8) 0.56252(12) 0.16711(12)
H12 H 0.6933 0.5764 0.1743
N16 N 0.70863(9) 0.62876(10) -0.03271(12)
C1 C 0.51315(8) 0.37172(11) 0.35731(12)
C2 C 0.49674(8) 0.35375(12) 0.39070(13)
H13 H 0.4936 0.3761 0.4161
C3 C 0.48516(9) 0.30379(12) 0.38700(13)
H14 H 0.4739 0.2923 0.4096
C4 C 0.48984(8) 0.27040(11) 0.35086(12)
C5 C 0.50756(8) 0.28743(11) 0.31914(12)
H15 H 0.5122 0.2643 0.2957
C6 C 0.51843(8) 0.33763(11) 0.32154(13)
H16 H 0.5296 0.3490 0.2987
C7 C 0.44341(9) 0.20403(12) 0.33534(13)
C8 C 0.39815(10) 0.13664(13) 0.28929(15)
C9 C 0.38149(13) 0.12812(16) 0.32400(17)
H17 H 0.3935 0.1376 0.3613
C10 C 0.34740(13) 0.10582(19) 0.30515(18)
H18 H 0.3357 0.1013 0.3290
C11 C 0.33108(13) 0.09065(18) 0.25246(19)
H19 H 0.3087 0.0730 0.2406
C12 C 0.34578(12) 0.09993(15) 0.21537(17)
H20 H 0.3328 0.0912 0.1780
C13 C 0.38042(11) 0.12261(13) 0.23388(15)
C14 C 0.38718(10) 0.11845(13) 0.14538(15)
C15 C 0.41220(10) 0.12101(12) 0.07464(14)
C16 C 0.38220(12) 0.10303(18) 0.03041(16)
H21 H 0.3600 0.0973 0.0336
C17 C 0.38477(13) 0.09354(19) -0.01854(17)
H22 H 0.3642 0.0815 -0.0491
C18 C 0.41687(12) 0.10144(17) -0.02315(16)
C19 C 0.44645(12) 0.12174(16) 0.01937(16)
H23 H 0.4680 0.1294 0.0152
C20 C 0.44402(11) 0.13053(15) 0.06749(16)
H24 H 0.4646 0.1436 0.0973
C21 C 0.49988(8) 0.46183(11) 0.36641(13)
C22 C 0.51278(9) 0.49565(13) 0.40912(15)
H25 H 0.5375 0.4939 0.4343
C23 C 0.49044(9) 0.53240(13) 0.41628(15)
H26 H 0.5000 0.5557 0.4458
C24 C 0.45415(8) 0.53495(11) 0.38008(13)
C25 C 0.44099(8) 0.50030(12) 0.33644(13)
H27 H 0.4163 0.5015 0.3113
C26 C 0.46385(8) 0.46426(12) 0.32969(13)
H28 H 0.4548 0.4412 0.2998
C27 C 0.43502(9) 0.60684(13) 0.42329(13)
C28 C 0.40325(8) 0.67481(12) 0.44843(13)
C29 C 0.41737(8) 0.66550(12) 0.50456(13)
H29 H 0.4282 0.6335 0.5185
C30 C 0.41563(9) 0.70304(12) 0.54025(14)
H30 H 0.4261 0.6973 0.5785
C31 C 0.39857(9) 0.74845(12) 0.51933(14)
H31 H 0.3970 0.7737 0.5435
C32 C 0.38373(9) 0.75786(12) 0.46399(14)
H32 H 0.3716 0.7892 0.4505
C33 C 0.38623(9) 0.72192(12) 0.42746(13)
C34 C 0.36603(11) 0.77725(15) 0.34598(16)
C35 C 0.33693(10) 0.81662(11) 0.25427(12)
C36 C 0.34829(10) 0.86649(12) 0.26863(13)
H33 H 0.3660 0.8739 0.3042
C37 C 0.33371(14) 0.90549(11) 0.23094(19)
H34 H 0.3415 0.9396 0.2408
C38 C 0.30777(15) 0.89460(18) 0.17888(17)
C39 C 0.29641(14) 0.8447(2) 0.16451(13)
H35 H 0.2787 0.8373 0.1289
C40 C 0.31099(12) 0.80574(15) 0.20220(15)
H36 H 0.3032 0.7717 0.1924
C41 C 0.55253(8) 0.44050(11) 0.34672(12)
C42 C 0.58373(8) 0.41169(11) 0.36066(13)
H37 H 0.5857 0.3802 0.3790
C43 C 0.61229(8) 0.42761(12) 0.34857(13)
H38 H 0.6329 0.4063 0.3573
C44 C 0.61096(8) 0.47444(11) 0.32375(12)
C45 C 0.57963(9) 0.50355(12) 0.30907(14)
H39 H 0.5779 0.5352 0.2911
C46 C 0.55084(9) 0.48719(12) 0.32020(15)
H40 H 0.5298 0.5078 0.3098
C47 C 0.67449(9) 0.47566(12) 0.33143(13)
C48 C 0.73606(9) 0.49726(14) 0.34021(14)
C49 C 0.75685(10) 0.47573(16) 0.39029(15)
H41 H 0.7462 0.4681 0.4149
C50 C 0.79283(11) 0.4653(2) 0.40470(19)
H42 H 0.8072 0.4516 0.4397
C51 C 0.80847(11) 0.4747(2) 0.36803(19)
H43 H 0.8331 0.4660 0.3774
C52 C 0.78768(10) 0.49682(18) 0.31769(17)
H44 H 0.7983 0.5042 0.2930
C53 C 0.75140(9) 0.50815(14) 0.30349(15)
C54 C 0.73402(9) 0.52937(14) 0.20621(14)
C55 C 0.71175(9) 0.57594(13) 0.11769(14)
C56 C 0.68310(9) 0.60819(13) 0.08292(14)
H45 H 0.6646 0.6184 0.0939
C57 C 0.68208(9) 0.62447(12) 0.03411(13)
H46 H 0.6627 0.6453 0.0108
C58 C 0.70959(9) 0.61044(12) 0.01867(13)
C59 C 0.73853(9) 0.58044(12) 0.05279(14)
H47 H 0.7575 0.5719 0.0423
C60 C 0.73944(10) 0.56326(13) 0.10195(14)
H48 H 0.7590 0.5427 0.1251
O13 O 0.72566(6) 0.24944(9) 0.42073(10)
O14 O 0.76696(7) 0.29315(11) 0.36809(11)
O15 O 0.73300(7) 0.36535(11) 0.28351(11)
O16 O 0.65789(7) 0.36384(9) 0.22590(9)
O17 O 0.61720(6) 0.32181(8) 0.28012(9)
O18 O 0.65048(6) 0.24547(8) 0.35965(9)
C61 C 0.76194(10) 0.23427(16) 0.43272(16)
H49 H 0.7618 0.2058 0.4086
H50 H 0.7739 0.2225 0.4710
C62 C 0.78226(11) 0.27855(17) 0.42414(17)
H51 H 0.7812 0.3076 0.4469
H52 H 0.8080 0.2691 0.4355
C63 C 0.78515(12) 0.3364(2) 0.3594(2)
H53 H 0.8113 0.3291 0.3721
H54 H 0.7823 0.3659 0.3802
C64 C 0.76944(12) 0.3485(2) 0.3006(2)
H55 H 0.7839 0.3755 0.2934
H56 H 0.7701 0.3179 0.2796
C65 C 0.71605(11) 0.37915(17) 0.22712(16)
H57 H 0.7133 0.3488 0.2040
H58 H 0.7311 0.4044 0.2187
C66 C 0.67985(11) 0.40124(15) 0.21580(15)
H59 H 0.6826 0.4312 0.2395
H60 H 0.6681 0.4126 0.1773
C67 C 0.62302(9) 0.38231(14) 0.21763(14)
H61 H 0.6108 0.3967 0.1804
H62 H 0.6255 0.4096 0.2443
C68 C 0.60104(10) 0.33981(13) 0.22465(13)
H63 H 0.5761 0.3518 0.2157
H64 H 0.5998 0.3117 0.1995
C69 C 0.59820(9) 0.27962(13) 0.28754(14)
H65 H 0.5996 0.2507 0.2649
H66 H 0.5724 0.2885 0.2762
C70 C 0.61496(9) 0.26486(13) 0.34734(14)
H67 H 0.6164 0.2949 0.3704
H68 H 0.6000 0.2385 0.3546
C71 C 0.66718(10) 0.22613(14) 0.41361(14)
H69 H 0.6526 0.1978 0.4184
H70 H 0.6690 0.2532 0.4402
C72 C 0.70428(11) 0.20752(14) 0.42285(15)
H71 H 0.7157 0.1907 0.4589
H72 H 0.7024 0.1824 0.3944
K2 K 0.15595(3) 0.87993(3) 0.02622(4)
O19 O 0.14830(10) 0.78532(11) 0.06316(13)
O20 O 0.20862(13) 0.80741(16) 0.0345(2)
O21 O 0.20154(9) 0.89673(13) -0.02599(15)
O22 O 0.16389(7) 0.97999(10) -0.00888(10)
O23 O 0.10368(7) 0.95834(10) 0.01711(10)
O24 O 0.10803(7) 0.86784(11) 0.07535(10)
C73 C 0.1815(2) 0.7549(2) 0.0811(3)
H73 H 0.1764 0.7193 0.0877
H74 H 0.2000 0.7688 0.1155
C74 C 0.1954(3) 0.7564(3) 0.0368(4)
H75 H 0.2153 0.7315 0.0449
H76 H 0.1757 0.7476 0.0011
C75 C 0.2213(3) 0.8116(3) -0.0078(5)
H77 H 0.2019 0.8013 -0.0431
H78 H 0.2422 0.7886 0.0003
C76 C 0.2321(2) 0.8636(3) -0.0113(4)
H79 H 0.2511 0.8742 0.0243
H80 H 0.2421 0.8659 -0.0391
C77 C 0.21078(15) 0.9480(2) -0.0301(2)
H81 H 0.2222 0.9507 -0.0561
H82 H 0.2283 0.9603 0.0060
C78 C 0.17795(14) 0.97922(18) -0.04899(19)
H83 H 0.1837 1.0143 -0.0562
H84 H 0.1596 0.9651 -0.0834
C79 C 0.13180(12) 1.00966(16) -0.02554(17)
H85 H 0.1135 0.9965 -0.0606
H86 H 0.1372 1.0454 -0.0313
C80 C 0.11713(12) 1.00777(15) 0.01649(18)
H87 H 0.1364 1.0160 0.0528
H88 H 0.0974 1.0331 0.0080
C81 C 0.08795(11) 0.95323(17) 0.05606(17)
H89 H 0.0667 0.9760 0.0459
H90 H 0.1059 0.9631 0.0928
C82 C 0.07662(12) 0.89979(19) 0.05673(18)
H91 H 0.0642 0.8964 0.0814
H92 H 0.0596 0.8894 0.0196
C83 C 0.10008(14) 0.81510(18) 0.08105(18)
H93 H 0.0838 0.8012 0.0450
H94 H 0.0876 0.8124 0.1057
C84 C 0.13375(16) 0.78578(18) 0.1033(2)
H95 H 0.1512 0.8017 0.1374
H96 H 0.1289 0.7506 0.1116
K3 K 0.0000 0.75223(4) 0.7500
O25 O 0.02477(10) 0.84374(11) 0.72662(16)
O26 O 0.03744(8) 0.75183(12) 0.68194(13)
O27 O 0.02235(14) 0.66074(12) 0.72200(18)
C85 C 0.00636(17) 0.88656(17) 0.7272(3)
H97 H -0.0149 0.8899 0.6918
H98 H 0.0222 0.9164 0.7315
C86 C 0.03845(18) 0.8433(2) 0.6875(3)
H99 H 0.0546 0.8731 0.6931
H100 H 0.0182 0.8468 0.6510
C87 C 0.05848(19) 0.7973(3) 0.6885(3)
H101 H 0.0670 0.7990 0.6590
H102 H 0.0801 0.7956 0.7237
C88 C 0.05420(18) 0.7063(2) 0.6811(3)
H103 H 0.0775 0.7046 0.7139
H104 H 0.0598 0.7058 0.6487
C89 C 0.0337(2) 0.6626(2) 0.6800(3)
H105 H 0.0122 0.6616 0.6446
H106 H 0.0485 0.6321 0.6820
C90 C 0.0067(4) 0.61872(19) 0.7296(5)
H107 H 0.0246 0.5907 0.7380
H108 H -0.0136 0.6102 0.6945
O25A O -0.02477(10) 0.84374(11) 0.77338(16)
O26A O -0.03744(8) 0.75183(12) 0.81806(13)
O27A O -0.02235(14) 0.66074(12) 0.77800(18)
C85A C -0.00636(17) 0.88656(17) 0.7728(3)
H97A H 0.0149 0.8899 0.8082
H98A H -0.0222 0.9164 0.7685
C86A C -0.03845(18) 0.8433(2) 0.8125(3)
H99A H -0.0546 0.8731 0.8069
H100A H -0.0182 0.8468 0.8490
C87A C -0.05848(19) 0.7973(3) 0.8115(3)
H101A H -0.0670 0.7990 0.8410
H102A H -0.0801 0.7956 0.7763
C88A C -0.05420(18) 0.7063(2) 0.8189(3)
H103A H -0.0775 0.7046 0.7861
H104A H -0.0598 0.7058 0.8513
C89A C -0.0337(2) 0.6626(2) 0.8200(3)
H105A H -0.0122 0.6616 0.8554
H106A H -0.0485 0.6321 0.8180
C90A C -0.0067(4) 0.61872(19) 0.7704(5)
H107A H -0.0246 0.5907 0.7620
H108A H 0.0136 0.6102 0.8055
S1 S 0.15215(3) 0.88116(4) 0.73637(4)
O28 O 0.14252(9) 0.82829(12) 0.7362(2)
O29 O 0.12571(7) 0.91373(10) 0.74372(12)
O30 O 0.18884(7) 0.89159(9) 0.77911(10)
O31 O 0.15237(10) 0.8932(2) 0.68296(13)
S2 S 0.0000 0.64296(4) 0.2500
O32 O 0.03124(6) 0.67608(8) 0.28296(9)
O33 O -0.00975(7) 0.61094(8) 0.28677(10)
O32A O -0.03124(6) 0.67608(8) 0.21704(9)
O33A O 0.00975(7) 0.61094(8) 0.21323(10)
O34 O 0.19019(19) 0.7293(2) 0.2585(3)
C91 C 0.22413(16) 0.7282(3) 0.2078(2)
H109 H 0.2496 0.7287 0.2137
H110 H 0.2142 0.7628 0.1998
H111 H 0.2105 0.7059 0.1769
C92 C 0.22190(17) 0.7139(2) 0.2451(3)
C93 C 0.2529(2) 0.6810(3) 0.2841(3)
H112 H 0.2638 0.6621 0.2633
H113 H 0.2436 0.6570 0.3029
H114 H 0.2713 0.7028 0.3109
O35? O 0.2374(4) 0.9125(6) 0.1046(6)
C94? C 0.0535(3) 0.8079(5) 0.9190(4)
O36? O 0.0640(5) 0.7421(10) 0.8479(6)
C95? C 0.0581(3) 0.7549(4) 0.8684(12)
C96? C 0.0779(4) 0.7226(7) 0.9408(7)
O37? O 0.1311(2) 0.8228(3) -0.0693(3)
O38? O 0.19757(14) 0.94613(18) 0.10292(17)
H115? H 0.0585 0.7048 0.9464
H116? H 0.0883 0.7488 0.9690
H117? H 0.1072(6) 0.8582(8) -0.0759(10)
H118? H 0.0968 0.6982 0.9431
H119? H 0.0742 0.8311 0.9303
H120? H 0.0310 0.8272 0.9001
H121? H 0.0530 0.7913 0.9513
H122? H 0.1290(3) 0.8253(4) -0.1144(5)
loop_
_geom_bond_atom_site_label_1
_geom_bond_atom_site_label_2
_geom_bond_site_symmetry_1
_geom_bond_site_symmetry_2
O1 C7 1_555 1_555
O2 C14 1_555 1_555
O3 N6 1_555 1_555
O4 N6 1_555 1_555
O5 C27 1_555 1_555
O6 C34 1_555 1_555
O7 N11 1_555 1_555
O8 N11 1_555 1_555
O9 C47 1_555 1_555
O10 C54 1_555 1_555
O11 N16 1_555 1_555
O12 N16 1_555 1_555
N1 C1 1_555 1_555
N2 H1 1_555 1_555
N3 H2 1_555 1_555
N4 H3 1_555 1_555
N5 H4 1_555 1_555
N6 C18 1_555 1_555
N7 H5 1_555 1_555
N8 H6 1_555 1_555
N9 H7 1_555 1_555
N10 H8 1_555 1_555
N11 C38 1_555 1_555
N12 H9 1_555 1_555
N13 H10 1_555 1_555
N14 H11 1_555 1_555
N15 H12 1_555 1_555
N16 C58 1_555 1_555
C1 C2 1_555 1_555
C2 H13 1_555 1_555
C3 C2 1_555 1_555
H14 C3 1_555 1_555
C4 N2 1_555 1_555
C5 C4 1_555 1_555
H15 C5 1_555 1_555
C6 C1 1_555 1_555
H16 C6 1_555 1_555
C7 N2 1_555 1_555
C8 N3 1_555 1_555
C9 C8 1_555 1_555
H17 C9 1_555 1_555
C10 C9 1_555 1_555
H18 C10 1_555 1_555
C11 C10 1_555 1_555
H19 C11 1_555 1_555
C12 C11 1_555 1_555
H20 C12 1_555 1_555
C13 N4 1_555 1_555
C14 N4 1_555 1_555
C15 N5 1_555 1_555
C16 C15 1_555 1_555
H21 C16 1_555 1_555
C17 C16 1_555 1_555
H22 C17 1_555 1_555
C18 C17 1_555 1_555
C19 C18 1_555 1_555
H23 C19 1_555 1_555
C20 C15 1_555 1_555
H24 C20 1_555 1_555
C21 N1 1_555 1_555
C22 C21 1_555 1_555
H25 C22 1_555 1_555
C23 C22 1_555 1_555
H26 C23 1_555 1_555
C24 N7 1_555 1_555
C25 C24 1_555 1_555
H27 C25 1_555 1_555
C26 C21 1_555 1_555
H28 C26 1_555 1_555
C27 N7 1_555 1_555
C28 N8 1_555 1_555
C29 C28 1_555 1_555
H29 C29 1_555 1_555
C30 C29 1_555 1_555
H30 C30 1_555 1_555
C31 C30 1_555 1_555
H31 C31 1_555 1_555
C32 C31 1_555 1_555
H32 C32 1_555 1_555
C33 N9 1_555 1_555
C34 N9 1_555 1_555
C35 N10 1_555 1_555
C36 C35 1_555 1_555
H33 C36 1_555 1_555
C37 C36 1_555 1_555
H34 C37 1_555 1_555
C38 C37 1_555 1_555
C39 C38 1_555 1_555
H35 C39 1_555 1_555
C40 C35 1_555 1_555
H36 C40 1_555 1_555
C41 N1 1_555 1_555
C42 C41 1_555 1_555
H37 C42 1_555 1_555
C43 C42 1_555 1_555
H38 C43 1_555 1_555
C44 N12 1_555 1_555
C45 C44 1_555 1_555
H39 C45 1_555 1_555
C46 C41 1_555 1_555
H40 C46 1_555 1_555
C47 N12 1_555 1_555
C48 N13 1_555 1_555
C49 C48 1_555 1_555
H41 C49 1_555 1_555
C50 C49 1_555 1_555
H42 C50 1_555 1_555
C51 C50 1_555 1_555
H43 C51 1_555 1_555
C52 C51 1_555 1_555
H44 C52 1_555 1_555
C53 N14 1_555 1_555
C54 N14 1_555 1_555
C55 N15 1_555 1_555
C56 C55 1_555 1_555
H45 C56 1_555 1_555
C57 C56 1_555 1_555
H46 C57 1_555 1_555
C58 C57 1_555 1_555
C59 C58 1_555 1_555
H47 C59 1_555 1_555
C60 C55 1_555 1_555
H48 C60 1_555 1_555
O13 C61 1_555 1_555
O14 C62 1_555 1_555
O15 C64 1_555 1_555
O16 C66 1_555 1_555
O17 C68 1_555 1_555
O18 C70 1_555 1_555
C61 H49 1_555 1_555
H50 C61 1_555 1_555
C62 C61 1_555 1_555
H51 C62 1_555 1_555
H52 C62 1_555 1_555
C63 O14 1_555 1_555
H53 C63 1_555 1_555
H54 C63 1_555 1_555
C64 C63 1_555 1_555
H55 C64 1_555 1_555
H56 C64 1_555 1_555
C65 O15 1_555 1_555
H57 C65 1_555 1_555
H58 C65 1_555 1_555
C66 C65 1_555 1_555
H59 C66 1_555 1_555
H60 C66 1_555 1_555
C67 O16 1_555 1_555
H61 C67 1_555 1_555
H62 C67 1_555 1_555
C68 C67 1_555 1_555
H63 C68 1_555 1_555
H64 C68 1_555 1_555
C69 O17 1_555 1_555
H65 C69 1_555 1_555
H66 C69 1_555 1_555
C70 C69 1_555 1_555
H67 C70 1_555 1_555
H68 C70 1_555 1_555
C71 O18 1_555 1_555
H69 C71 1_555 1_555
H70 C71 1_555 1_555
C72 O13 1_555 1_555
H71 C72 1_555 1_555
H72 C72 1_555 1_555
O19 C73 1_555 1_555
O20 C74 1_555 1_555
O21 C76 1_555 1_555
O22 C78 1_555 1_555
O23 C80 1_555 1_555
O24 C82 1_555 1_555
C73 H73 1_555 1_555
H74 C73 1_555 1_555
C74 C73 1_555 1_555
H75 C74 1_555 1_555
H76 C74 1_555 1_555
C75 O20 1_555 1_555
H77 C75 1_555 1_555
H78 C75 1_555 1_555
C76 C75 1_555 1_555
H79 C76 1_555 1_555
H80 C76 1_555 1_555
C77 O21 1_555 1_555
H81 C77 1_555 1_555
H82 C77 1_555 1_555
C78 C77 1_555 1_555
H83 C78 1_555 1_555
H84 C78 1_555 1_555
C79 O22 1_555 1_555
H85 C79 1_555 1_555
H86 C79 1_555 1_555
C80 C79 1_555 1_555
H87 C80 1_555 1_555
H88 C80 1_555 1_555
C81 O23 1_555 1_555
H89 C81 1_555 1_555
H90 C81 1_555 1_555
C82 C81 1_555 1_555
H91 C82 1_555 1_555
H92 C82 1_555 1_555
C83 O24 1_555 1_555
H93 C83 1_555 1_555
H94 C83 1_555 1_555
C84 O19 1_555 1_555
H95 C84 1_555 1_555
H96 C84 1_555 1_555
O25 C85 1_555 1_555
O26 C87 1_555 1_555
O27 C89 1_555 1_555
C85 H97 1_555 1_555
H98 C85 1_555 1_555
C86 O25 1_555 1_555
H99 C86 1_555 1_555
H100 C86 1_555 1_555
C87 C86 1_555 1_555
H101 C87 1_555 1_555
H102 C87 1_555 1_555
C88 O26 1_555 1_555
H103 C88 1_555 1_555
H104 C88 1_555 1_555
C89 C88 1_555 1_555
H105 C89 1_555 1_555
H106 C89 1_555 1_555
C90 O27 1_555 1_555
H107 C90 1_555 1_555
H108 C90 1_555 1_555
S1 O28 1_555 1_555
O29 S1 1_555 1_555
O30 S1 1_555 1_555
O31 S1 1_555 1_555
S2 O32 1_555 1_555
O33 S2 1_555 1_555
O34 C92 1_555 1_555
C91 H109 1_555 1_555
H110 C91 1_555 1_555
H111 C91 1_555 1_555
C92 C91 1_555 1_555
C93 C92 1_555 1_555
H112 C93 1_555 1_555
H113 C93 1_555 1_555
H114 C93 1_555 1_555
O25A C85A 1_555 1_555
O26A C87A 1_555 1_555
O27A C89A 1_555 1_555
C85A C85 1_555 1_555
H97A C85A 1_555 1_555
H98A C85A 1_555 1_555
C86A O25A 1_555 1_555
H99A C86A 1_555 1_555
H100A C86A 1_555 1_555
C87A C86A 1_555 1_555
H101A C87A 1_555 1_555
H102A C87A 1_555 1_555
C88A O26A 1_555 1_555
H103A C88A 1_555 1_555
H104A C88A 1_555 1_555
C89A C88A 1_555 1_555
H105A C89A 1_555 1_555
H106A C89A 1_555 1_555
C90A C90 1_555 1_555
H107A C90A 1_555 1_555
H108A C90A 1_555 1_555
O32A S2 1_555 1_555
O33A S2 1_555 1_555
N3 C7 1_555 1_555
N5 C14 1_555 1_555
N8 C27 1_555 1_555
N10 C34 1_555 1_555
N13 C47 1_555 1_555
N15 C54 1_555 1_555
C3 C4 1_555 1_555
C5 C6 1_555 1_555
C8 C13 1_555 1_555
C12 C13 1_555 1_555
C19 C20 1_555 1_555
C23 C24 1_555 1_555
C25 C26 1_555 1_555
C28 C33 1_555 1_555
C32 C33 1_555 1_555
C39 C40 1_555 1_555
C43 C44 1_555 1_555
C45 C46 1_555 1_555
C48 C53 1_555 1_555
C52 C53 1_555 1_555
C59 C60 1_555 1_555
C71 C72 1_555 1_555
C83 C84 1_555 1_555
O27A C90A 1_555 1_555

#END
