
#######################################################################
#
#                 Cambridge Crystallographic Data Centre
#                                CCDC 
#
#######################################################################
#
# If this CIF has been generated from an entry in the Cambridge 
# Structural Database, then it will include bibliographic, chemical, 
# crystal, experimental, refinement or atomic coordinate data resulting 
# from the CCDC's data processing and validation procedures.
#
#######################################################################

data_PEQFID
_chemical_formula_moiety         'C13 H12 F3 N1 O4'
_chemical_name_systematic        
'methyl 4-[acetyl(2,2,2-trifluoroethyl)carbamoyl]benzoate'
_symmetry_cell_setting           monoclinic
_symmetry_space_group_name_H-M   'P 21/n'
_symmetry_Int_Tables_number      14
_space_group_name_Hall           '-P 2yn'
loop_
_symmetry_equiv_pos_site_id
_symmetry_equiv_pos_as_xyz
1 x,y,z
2 1/2-x,1/2+y,1/2-z
3 -x,-y,-z
4 1/2+x,1/2-y,1/2+z
_cell_length_a                   12.455(5)
_cell_length_b                   6.376(2)
_cell_length_c                   16.642(6)
_cell_angle_alpha                90
_cell_angle_beta                 96.688(4)
_cell_angle_gamma                90
_cell_volume                     1312.6
_exptl_crystal_colour            colorless
_exptl_crystal_description       block
_cell_formula_units_Z            4
loop_
_atom_site_label
_atom_site_type_symbol
_atom_site_fract_x
_atom_site_fract_y
_atom_site_fract_z
F1 F 0.42677(9) -0.1749(2) 0.53263(7)
F2 F 0.49340(10) -0.3864(2) 0.62616(8)
F3 F 0.53572(9) -0.0588(2) 0.63116(7)
O1 O 0.04291(11) 0.7687(2) 0.32345(9)
O2 O 0.21934(10) 0.84425(19) 0.34644(7)
O3 O 0.17010(10) -0.13391(19) 0.55865(8)
O4 O 0.24949(11) 0.36206(19) 0.67317(7)
N1 N 0.30547(11) 0.0417(2) 0.63568(8)
C1 C 0.15866(13) 0.5449(2) 0.40954(9)
C2 C 0.07405(13) 0.4221(3) 0.43066(10)
H1 H 0.001840 0.452636 0.408868
C3 C 0.09494(13) 0.2553(3) 0.48339(10)
H2 H 0.037215 0.169883 0.496970
C4 C 0.20021(12) 0.2128(2) 0.51646(9)
C5 C 0.28556(13) 0.3336(3) 0.49438(10)
H3 H 0.357740 0.302659 0.516160
C6 C 0.26491(13) 0.4980(3) 0.44087(10)
H4 H 0.322979 0.579357 0.425334
C7 C 0.13195(14) 0.7284(3) 0.35555(10)
C8 C 0.20084(16) 1.0264(3) 0.29539(12)
H5 H 0.169192 0.982890 0.241283
H6 H 0.269640 1.098105 0.291557
H7 H 0.151092 1.121928 0.318626
C9 C 0.21963(13) 0.0280(3) 0.57102(10)
C10 C 0.31555(14) 0.2221(3) 0.68414(10)
C11 C 0.40814(16) 0.2322(3) 0.75001(11)
H8 H 0.418892 0.377595 0.768260
H9 H 0.473911 0.181106 0.729380
H10 H 0.392233 0.144423 0.795497
C12 C 0.35980(13) -0.1552(3) 0.65991(10)
H11 H 0.307841 -0.272645 0.650550
H12 H 0.385755 -0.150566 0.718411
C13 C 0.45385(14) -0.1925(3) 0.61273(11)
loop_
_geom_bond_atom_site_label_1
_geom_bond_atom_site_label_2
_geom_bond_site_symmetry_1
_geom_bond_site_symmetry_2
F1 C13 1_555 1_555
F2 C13 1_555 1_555
F3 C13 1_555 1_555
O1 C7 1_555 1_555
O2 C7 1_555 1_555
O3 C9 1_555 1_555
O4 C10 1_555 1_555
N1 C9 1_555 1_555
C1 C2 1_555 1_555
C2 H1 1_555 1_555
C3 C2 1_555 1_555
H2 C3 1_555 1_555
C4 C3 1_555 1_555
C5 C4 1_555 1_555
H3 C5 1_555 1_555
C6 C1 1_555 1_555
H4 C6 1_555 1_555
C7 C1 1_555 1_555
C8 O2 1_555 1_555
H5 C8 1_555 1_555
H6 C8 1_555 1_555
H7 C8 1_555 1_555
C9 C4 1_555 1_555
C10 N1 1_555 1_555
C11 C10 1_555 1_555
H8 C11 1_555 1_555
H9 C11 1_555 1_555
H10 C11 1_555 1_555
C12 N1 1_555 1_555
H11 C12 1_555 1_555
H12 C12 1_555 1_555
C13 C12 1_555 1_555
C5 C6 1_555 1_555

#END
