
#######################################################################
#
#                 Cambridge Crystallographic Data Centre
#                                CCDC 
#
#######################################################################
#
# If this CIF has been generated from an entry in the Cambridge 
# Structural Database, then it will include bibliographic, chemical, 
# crystal, experimental, refinement or atomic coordinate data resulting 
# from the CCDC's data processing and validation procedures.
#
#######################################################################

data_PEQQUA
_chemical_formula_moiety         'C28 H19 N1 O4'
_chemical_name_systematic        
3,4-bis(1-benzofuran-2-yl)-1-[(4-methylphenyl)methyl]-1H-pyrrole-2,5-dione
_symmetry_cell_setting           monoclinic
_symmetry_space_group_name_H-M   'P 21/c'
_symmetry_Int_Tables_number      14
_space_group_name_Hall           '-P 2ybc'
loop_
_symmetry_equiv_pos_site_id
_symmetry_equiv_pos_as_xyz
1 x,y,z
2 -x,1/2+y,1/2-z
3 -x,-y,-z
4 x,1/2-y,1/2+z
_cell_length_a                   15.3980(13)
_cell_length_b                   4.6162(5)
_cell_length_c                   30.205(4)
_cell_angle_alpha                90
_cell_angle_beta                 91.500(9)
_cell_angle_gamma                90
_cell_volume                     2146.24
_cell_formula_units_Z            4
loop_
_atom_site_label
_atom_site_type_symbol
_atom_site_fract_x
_atom_site_fract_y
_atom_site_fract_z
O1 O 0.2246(2) 0.4718(8) 0.29836(12)
O2 O 0.4971(2) 0.6826(9) 0.31002(13)
C1 C 0.3449(3) 0.7366(10) 0.33061(15)
C2 C 0.4416(3) 0.7912(12) 0.33213(17)
N1 N 0.4576(3) 0.9913(10) 0.36487(14)
C3 C 0.2867(3) 0.2049(11) 0.24498(16)
C4 C 0.5926(3) 0.9004(11) 0.40877(16)
C5 C 0.3118(3) 0.5299(11) 0.29875(16)
O3 O 0.3761(3) 1.2616(10) 0.41258(14)
C6 C 0.3090(3) 0.9039(11) 0.36166(16)
C7 C 0.3520(3) 0.3721(11) 0.26734(15)
H1 H 0.4111 0.3730 0.2615
C8 C 0.5585(3) 0.8224(12) 0.44865(17)
H2 H 0.5043 0.8924 0.4564
C9 C 0.3820(4) 1.0810(12) 0.38397(18)
C10 C 0.6037(3) 0.6417(12) 0.47720(18)
H3 H 0.5801 0.5948 0.5043
C11 C 0.5437(4) 1.1018(13) 0.3775(2)
H4 H 0.5376 1.2894 0.3915
H5 H 0.5771 1.1285 0.3510
C12 C 0.6836(3) 0.5283(11) 0.46643(19)
C13 C 0.6723(4) 0.7885(13) 0.3985(2)
H6 H 0.6966 0.8381 0.3717
C14 C 0.2104(4) 0.2728(12) 0.26463(17)
C15 C 0.2850(4) 0.0086(13) 0.20943(19)
H7 H 0.3354 -0.0383 0.1947
C16 C 0.2241(4) 0.9567(13) 0.37665(17)
C17 C 0.7166(4) 0.6068(14) 0.4266(2)
H8 H 0.7703 0.5349 0.4185
O4 O 0.1546(4) 0.8350(14) 0.35626(18)
C18 C 0.1308(4) 0.1509(15) 0.2522(2)
H9 H 0.0800 0.1980 0.2665
C19 C 0.7330(4) 0.3291(14) 0.4981(2)
H10 H 0.7902 0.4052 0.5038
H11 H 0.7372 0.1398 0.4852
H12 H 0.7028 0.3165 0.5255
C20 C 0.2060(5) -0.1122(15) 0.1971(2)
H13 H 0.2034 -0.2456 0.1740
C21 C 0.1972(4) 1.1051(16) 0.4103(2)
H14 H 0.2339 1.2038 0.4300
C22 C 0.1310(5) -0.0395(15) 0.2182(2)
H15 H 0.0789 -0.1238 0.2088
C23 C -0.0396(4) 1.144(2) 0.4341(3)
H16 H -0.0810 1.2167 0.4530
C24 C -0.0651(2) 0.970(2) 0.3985(3)
H17 H -0.1235 0.9261 0.3936
C25 C -0.0032(4) 0.8603(16) 0.3703(3)
H18 H -0.0202 0.7438 0.3465
C26 C 0.0842(3) 0.9252(13) 0.37764(17)
C27 C 0.1096(3) 1.0993(13) 0.41321(17)
C28 C 0.0477(4) 1.2085(17) 0.4414(2)
H19 H 0.0648 1.3250 0.4652
loop_
_geom_bond_atom_site_label_1
_geom_bond_atom_site_label_2
_geom_bond_site_symmetry_1
_geom_bond_site_symmetry_2
O1 C5 1_555 1_555
O2 C2 1_555 1_555
C1 C2 1_555 1_555
C2 N1 1_555 1_555
N1 C9 1_555 1_555
C3 C7 1_555 1_555
C4 C8 1_555 1_555
C5 C1 1_555 1_555
O3 C9 1_555 1_555
C6 C1 1_555 1_555
C7 C5 1_555 1_555
H1 C7 1_555 1_555
C8 H2 1_555 1_555
C9 C6 1_555 1_555
C10 C8 1_555 1_555
H3 C10 1_555 1_555
C11 N1 1_555 1_555
H4 C11 1_555 1_555
H5 C11 1_555 1_555
C12 C10 1_555 1_555
C13 C4 1_555 1_555
H6 C13 1_555 1_555
C14 O1 1_555 1_555
C15 C3 1_555 1_555
H7 C15 1_555 1_555
C16 C6 1_555 1_555
C17 C12 1_555 1_555
H8 C17 1_555 1_555
O4 C16 1_555 1_555
C18 C14 1_555 1_555
H9 C18 1_555 1_555
C19 C12 1_555 1_555
H10 C19 1_555 1_555
H11 C19 1_555 1_555
H12 C19 1_555 1_555
C20 C15 1_555 1_555
H13 C20 1_555 1_555
C21 C16 1_555 1_555
H14 C21 1_555 1_555
C22 C18 1_555 1_555
H15 C22 1_555 1_555
C23 H16 1_555 1_555
C24 C23 1_555 1_555
H17 C24 1_555 1_555
C25 C24 1_555 1_555
H18 C25 1_555 1_555
C26 O4 1_555 1_555
C27 C21 1_555 1_555
C28 C23 1_555 1_555
H19 C28 1_555 1_555
C3 C14 1_555 1_555
C4 C11 1_555 1_555
C13 C17 1_555 1_555
C20 C22 1_555 1_555
C25 C26 1_555 1_555
C26 C27 1_555 1_555
C27 C28 1_555 1_555

#END
