
#######################################################################
#
#                 Cambridge Crystallographic Data Centre
#                                CCDC 
#
#######################################################################
#
# If this CIF has been generated from an entry in the Cambridge 
# Structural Database, then it will include bibliographic, chemical, 
# crystal, experimental, refinement or atomic coordinate data resulting 
# from the CCDC's data processing and validation procedures.
#
#######################################################################

data_PEQWAL
_chemical_formula_moiety         'C25 H7 F15'
_chemical_name_systematic        1,3,6,8,10-pentakis(Trifluoromethyl)perylene
_symmetry_cell_setting           triclinic
_symmetry_space_group_name_H-M   'P -1'
_symmetry_Int_Tables_number      2
_space_group_name_Hall           '-P 1'
loop_
_symmetry_equiv_pos_site_id
_symmetry_equiv_pos_as_xyz
1 x,y,z
2 -x,-y,-z
_cell_length_a                   8.2261(3)
_cell_length_b                   10.3652(4)
_cell_length_c                   13.1845(5)
_cell_angle_alpha                106.719(2)
_cell_angle_beta                 98.957(2)
_cell_angle_gamma                97.908(2)
_cell_volume                     1043.58
_exptl_crystal_colour            green
_exptl_crystal_description       equant
_cell_formula_units_Z            2
loop_
_atom_site_label
_atom_site_type_symbol
_atom_site_fract_x
_atom_site_fract_y
_atom_site_fract_z
C1 C 0.13874(11) -0.16697(9) 0.06226(7)
C2 C 0.12835(11) -0.21020(10) -0.05074(7)
H1 H 0.0697 -0.2999 -0.0930
C3 C 0.20105(11) -0.12541(10) -0.10060(7)
C4 C 0.27818(11) 0.01320(9) -0.04072(7)
C5 C 0.35372(13) 0.10544(10) -0.08848(7)
H2 H 0.3501 0.0769 -0.1642
C6 C 0.43205(13) 0.23562(10) -0.02587(8)
H3 H 0.4919 0.2936 -0.0574
C7 C 0.42576(12) 0.28550(9) 0.08462(7)
C8 C 0.33798(11) 0.20261(9) 0.13270(7)
C9 C 0.27978(10) 0.05976(9) 0.07230(7)
C10 C 0.22474(10) -0.03550(9) 0.12633(7)
C11 C 0.26460(11) 0.01277(9) 0.24578(7)
C12 C 0.28409(12) -0.07302(9) 0.30801(7)
H4 H 0.2918 -0.1657 0.2745
C13 C 0.29272(13) -0.02498(10) 0.42019(8)
H5 H 0.3086 -0.0849 0.4620
C14 C 0.27838(12) 0.10787(10) 0.47014(7)
C15 C 0.27339(11) 0.20365(9) 0.41122(7)
C16 C 0.25920(12) 0.34224(9) 0.45756(7)
H6 H 0.2538 0.3762 0.5318
C17 C 0.25329(12) 0.42697(9) 0.39449(8)
C18 C 0.27526(11) 0.38344(9) 0.28703(7)
H7 H 0.2746 0.4452 0.2460
C19 C 0.29786(11) 0.25100(9) 0.24094(7)
C20 C 0.27978(10) 0.15602(8) 0.29947(7)
C21 C 0.04440(12) -0.27154(9) 0.10305(8)
F1 F -0.02653(8) -0.21503(7) 0.18532(5)
F2 F 0.14201(9) -0.35303(7) 0.13508(6)
F3 F -0.08066(9) -0.35647(7) 0.02408(5)
C22 C 0.18872(12) -0.17839(11) -0.22122(8)
F4 F 0.11880(9) -0.31183(8) -0.26259(5)
F5 F 0.33881(8) -0.16389(7) -0.24899(5)
F6 F 0.09452(8) -0.11126(8) -0.27294(5)
C23 C 0.52432(13) 0.42933(10) 0.14392(8)
F7 F 0.65250(9) 0.45811(7) 0.09695(6)
F8 F 0.43135(9) 0.52697(6) 0.14227(6)
F9 F 0.59178(8) 0.44889(6) 0.24759(5)
C24 C 0.26512(17) 0.15002(11) 0.58729(8)
F10 F 0.27589(14) 0.04764(8) 0.62925(6)
F11 F 0.12008(12) 0.18988(10) 0.60081(7)
F12 F 0.38717(12) 0.25414(8) 0.65006(6)
C25 C 0.22500(15) 0.57084(10) 0.43985(9)
F13 F 0.2524(18) 0.6137(5) 0.5453(3)
F14 F 0.0798(7) 0.5866(7) 0.3988(10)
F15 F 0.3329(10) 0.6607(4) 0.4140(7)
F16? F 0.235(4) 0.6449(9) 0.3769(10)
F17? F 0.0758(11) 0.5717(7) 0.4643(19)
F18? F 0.3336(19) 0.6380(12) 0.5349(14)
F19? F 0.155(3) 0.5892(11) 0.5253(11)
F20? F 0.112(2) 0.6036(14) 0.3708(10)
F21? F 0.3549(9) 0.6624(7) 0.462(2)
loop_
_geom_bond_atom_site_label_1
_geom_bond_atom_site_label_2
_geom_bond_site_symmetry_1
_geom_bond_site_symmetry_2
C1 C2 1_555 1_555
C2 H1 1_555 1_555
C3 C2 1_555 1_555
C4 C3 1_555 1_555
C5 C4 1_555 1_555
H2 C5 1_555 1_555
C6 C5 1_555 1_555
H3 C6 1_555 1_555
C7 C6 1_555 1_555
C8 C7 1_555 1_555
C9 C4 1_555 1_555
C10 C1 1_555 1_555
C11 C10 1_555 1_555
C12 C11 1_555 1_555
H4 C12 1_555 1_555
C13 C12 1_555 1_555
H5 C13 1_555 1_555
C14 C13 1_555 1_555
C15 C14 1_555 1_555
C16 C15 1_555 1_555
H6 C16 1_555 1_555
C17 C16 1_555 1_555
C18 C17 1_555 1_555
H7 C18 1_555 1_555
C19 C8 1_555 1_555
C20 C11 1_555 1_555
C21 C1 1_555 1_555
F1 C21 1_555 1_555
F2 C21 1_555 1_555
F3 C21 1_555 1_555
C22 C3 1_555 1_555
F4 C22 1_555 1_555
F5 C22 1_555 1_555
F6 C22 1_555 1_555
C23 C7 1_555 1_555
F7 C23 1_555 1_555
F8 C23 1_555 1_555
F9 C23 1_555 1_555
C24 C14 1_555 1_555
F10 C24 1_555 1_555
F11 C24 1_555 1_555
F12 C24 1_555 1_555
C25 C17 1_555 1_555
F13 C25 1_555 1_555
F14 C25 1_555 1_555
F15 C25 1_555 1_555
C8 C9 1_555 1_555
C9 C10 1_555 1_555
C15 C20 1_555 1_555
C18 C19 1_555 1_555
C19 C20 1_555 1_555

#END
