
#######################################################################
#
#                 Cambridge Crystallographic Data Centre
#                                CCDC 
#
#######################################################################
#
# If this CIF has been generated from an entry in the Cambridge 
# Structural Database, then it will include bibliographic, chemical, 
# crystal, experimental, refinement or atomic coordinate data resulting 
# from the CCDC's data processing and validation procedures.
#
#######################################################################

data_PERQOV
_chemical_formula_moiety         'C12 H13 Cl1 N2 O2'
_chemical_name_systematic        
3-t-butyl-6-chloroquinazoline-2,4(1H,3H)-dione
_symmetry_cell_setting           monoclinic
_symmetry_space_group_name_H-M   'P 21/n'
_symmetry_Int_Tables_number      14
_space_group_name_Hall           '-P 2yn'
loop_
_symmetry_equiv_pos_site_id
_symmetry_equiv_pos_as_xyz
1 x,y,z
2 1/2-x,1/2+y,1/2-z
3 -x,-y,-z
4 1/2+x,1/2-y,1/2+z
_cell_length_a                   6.0707(13)
_cell_length_b                   9.794(2)
_cell_length_c                   19.823(4)
_cell_angle_alpha                90
_cell_angle_beta                 91.974(4)
_cell_angle_gamma                90
_cell_volume                     1177.91
_exptl_crystal_colour            white
_exptl_crystal_description       block
_cell_formula_units_Z            4
loop_
_atom_site_label
_atom_site_type_symbol
_atom_site_fract_x
_atom_site_fract_y
_atom_site_fract_z
Cl1 Cl 0.17679(7) 0.03785(4) 0.10771(2)
N1 N 0.58010(19) -0.37437(12) -0.10653(6)
C1 C 0.4529(2) -0.23847(14) -0.01190(7)
N2 N 0.7846(2) -0.36840(14) -0.00300(6)
H1 H 0.8982 -0.3934 0.0210
O1 O 0.8575(2) -0.52956(12) -0.08005(6)
C2 C 0.6501(2) -0.26801(14) 0.02282(7)
C3 C 0.3046(2) -0.14502(15) 0.01468(7)
H2 H 0.1707 -0.1268 -0.0077
C4 C 0.3603(2) -0.08033(15) 0.07471(7)
C5 C 0.7066(3) -0.19999(17) 0.08319(7)
H3 H 0.8400 -0.2180 0.1059
C6 C 0.7479(2) -0.42993(15) -0.06415(7)
C7 C 0.4042(2) -0.30177(16) -0.07822(7)
O2 O 0.2262(2) -0.28869(17) -0.10735(7)
C8 C 0.5611(3) -0.10561(16) 0.10859(8)
H4 H 0.5974 -0.0591 0.1483
C9 C 0.5755(2) -0.40791(15) -0.18199(7)
C10 C 0.4581(4) -0.54374(19) -0.19403(11)
H5 H 0.5334 -0.6142 -0.1687
H6 H 0.4580 -0.5658 -0.2412
H7 H 0.3089 -0.5368 -0.1798
C11 C 0.8116(3) -0.4112(2) -0.20672(9)
H8 H 0.8935 -0.4812 -0.1830
H9 H 0.8805 -0.3244 -0.1984
H10 H 0.8088 -0.4302 -0.2543
C12 C 0.4574(3) -0.2938(2) -0.22221(9)
H11 H 0.3076 -0.2871 -0.2086
H12 H 0.4595 -0.3143 -0.2695
H13 H 0.5314 -0.2086 -0.2136
loop_
_geom_bond_atom_site_label_1
_geom_bond_atom_site_label_2
_geom_bond_site_symmetry_1
_geom_bond_site_symmetry_2
Cl1 C4 1_555 1_555
N1 C6 1_555 1_555
C1 C2 1_555 1_555
N2 H1 1_555 1_555
O1 C6 1_555 1_555
C2 N2 1_555 1_555
C3 C1 1_555 1_555
H2 C3 1_555 1_555
C4 C3 1_555 1_555
C5 C2 1_555 1_555
H3 C5 1_555 1_555
C6 N2 1_555 1_555
C7 N1 1_555 1_555
O2 C7 1_555 1_555
C8 C4 1_555 1_555
H4 C8 1_555 1_555
C9 N1 1_555 1_555
C10 C9 1_555 1_555
H5 C10 1_555 1_555
H6 C10 1_555 1_555
H7 C10 1_555 1_555
C11 C9 1_555 1_555
H8 C11 1_555 1_555
H9 C11 1_555 1_555
H10 C11 1_555 1_555
C12 C9 1_555 1_555
H11 C12 1_555 1_555
H12 C12 1_555 1_555
H13 C12 1_555 1_555
C1 C7 1_555 1_555
C5 C8 1_555 1_555

#END
