
#######################################################################
#
#                 Cambridge Crystallographic Data Centre
#                                CCDC 
#
#######################################################################
#
# If this CIF has been generated from an entry in the Cambridge 
# Structural Database, then it will include bibliographic, chemical, 
# crystal, experimental, refinement or atomic coordinate data resulting 
# from the CCDC's data processing and validation procedures.
#
#######################################################################

data_PERXIW
_chemical_formula_moiety         'C56 H40 N4'
_chemical_name_systematic        
2,2'-(ethene-1,2-diyldi-4,1-phenylene)bis(1,4,5-triphenyl-1H-imidazole)
_symmetry_cell_setting           monoclinic
_symmetry_space_group_name_H-M   'C 2/c'
_symmetry_Int_Tables_number      15
_space_group_name_Hall           '-C 2yn'
loop_
_symmetry_equiv_pos_site_id
_symmetry_equiv_pos_as_xyz
1 x,y,z
2 -x,y,1/2-z
3 1/2+x,1/2+y,z
4 1/2-x,1/2+y,1/2-z
5 -x,-y,-z
6 x,-y,1/2+z
7 1/2-x,1/2-y,-z
8 1/2+x,1/2-y,1/2+z
_cell_length_a                   29.0061(17)
_cell_length_b                   10.0836(5)
_cell_length_c                   18.4668(11)
_cell_angle_alpha                90
_cell_angle_beta                 129.398(2)
_cell_angle_gamma                90
_cell_volume                     4173.87
_exptl_crystal_colour            yellow
_exptl_crystal_description       Columnar
_cell_formula_units_Z            4
loop_
_atom_site_label
_atom_site_type_symbol
_atom_site_fract_x
_atom_site_fract_y
_atom_site_fract_z
N1 N 0.10029(4) 0.63060(9) 0.48901(6)
N2 N 0.12996(4) 0.63072(9) 0.63315(6)
C1 C 0.13537(6) 1.03672(13) 0.36848(9)
H1 H 0.1371 1.0993 0.3318
C2 C 0.17811(6) 1.03779(13) 0.46507(10)
H2 H 0.2093 1.1016 0.4948
C3 C 0.17586(5) 0.94630(12) 0.51892(8)
H3 H 0.2055 0.9480 0.5852
C4 C 0.13046(5) 0.85184(11) 0.47671(8)
C5 C 0.12690(5) 0.75082(11) 0.53084(7)
C6 C 0.10222(5) 0.56094(11) 0.55128(7)
C7 C 0.07757(5) 0.42646(11) 0.53434(7)
C8 C 0.08138(5) 0.33983(11) 0.47958(7)
H4 H 0.1001 0.3685 0.4547
C9 C 0.05836(5) 0.21246(11) 0.46074(7)
H5 H 0.0615 0.1550 0.4233
C10 C 0.03053(5) 0.16757(11) 0.49635(7)
C11 C 0.00899(5) 0.03094(11) 0.47889(8)
H6 H 0.0077 -0.0181 0.4337
C12 C 0.02523(5) 0.25607(11) 0.54894(8)
H7 H 0.0054 0.2285 0.5721
C13 C 0.04821(5) 0.38274(11) 0.56784(8)
H8 H 0.0441 0.4410 0.6039
C14 C 0.14592(5) 0.75379(11) 0.62109(7)
C15 C 0.17830(5) 0.85281(11) 0.69704(7)
C16 C 0.22752(5) 0.81695(12) 0.78861(8)
H9 H 0.2404 0.7272 0.8025
C17 C 0.25763(5) 0.91158(14) 0.85913(8)
H10 H 0.2907 0.8860 0.9211
C18 C 0.23983(6) 1.04312(13) 0.83976(9)
H11 H 0.2608 1.1078 0.8881
C19 C 0.09007(6) 0.94371(14) 0.32567(9)
H12 H 0.0605 0.9428 0.2593
C20 C 0.08753(6) 0.85163(12) 0.37896(8)
H13 H 0.0563 0.7879 0.3487
C21 C 0.19134(6) 1.07966(13) 0.74954(9)
H14 H 0.1790 1.1698 0.7360
C22 C 0.16060(5) 0.98559(12) 0.67882(8)
H15 H 0.1271 1.0117 0.6173
C23 C 0.13347(5) 0.58866(11) 0.71086(7)
C24 C 0.16851(5) 0.48066(12) 0.76389(8)
H16 H 0.1940 0.4411 0.7543
C25 C 0.16586(6) 0.43082(12) 0.83136(8)
H17 H 0.1894 0.3562 0.8678
C26 C 0.12896(6) 0.48949(13) 0.84574(8)
H18 H 0.1268 0.4543 0.8912
C27 C 0.09522(6) 0.59999(13) 0.79335(8)
H19 H 0.0706 0.6414 0.8041
C28 C 0.09724(5) 0.65016(12) 0.72550(8)
H20 H 0.0741 0.7255 0.6896
N1D N -0.10029(4) -0.63060(9) 0.51099(6)
N2D N -0.12996(4) -0.63072(9) 0.36685(6)
C1D C -0.13537(6) -1.03672(13) 0.63152(9)
H1D H -0.1371 -1.0993 0.6682
C2D C -0.17811(6) -1.03779(13) 0.53493(10)
H2D H -0.2093 -1.1016 0.5052
C3D C -0.17586(5) -0.94630(12) 0.48108(8)
H3D H -0.2055 -0.9480 0.4148
C4D C -0.13046(5) -0.85184(11) 0.52329(8)
C5D C -0.12690(5) -0.75082(11) 0.46916(7)
C6D C -0.10222(5) -0.56094(11) 0.44872(7)
C7D C -0.07757(5) -0.42646(11) 0.46566(7)
C8D C -0.08138(5) -0.33983(11) 0.52042(7)
H4D H -0.1001 -0.3685 0.5453
C9D C -0.05836(5) -0.21246(11) 0.53926(7)
H5D H -0.0615 -0.1550 0.5767
C10D C -0.03053(5) -0.16757(11) 0.50365(7)
C11D C -0.00899(5) -0.03094(11) 0.52111(8)
H6D H -0.0077 0.0181 0.5663
C12D C -0.02523(5) -0.25607(11) 0.45106(8)
H7D H -0.0054 -0.2285 0.4279
C13D C -0.04821(5) -0.38274(11) 0.43216(8)
H8D H -0.0441 -0.4410 0.3961
C14D C -0.14592(5) -0.75379(11) 0.37891(7)
C15D C -0.17830(5) -0.85281(11) 0.30296(7)
C16D C -0.22752(5) -0.81695(12) 0.21139(8)
H9D H -0.2404 -0.7272 0.1975
C17D C -0.25763(5) -0.91158(14) 0.14087(8)
H10D H -0.2907 -0.8860 0.0789
C18D C -0.23983(6) -1.04312(13) 0.16024(9)
H11D H -0.2608 -1.1078 0.1119
C19D C -0.09007(6) -0.94371(14) 0.67433(9)
H12D H -0.0605 -0.9428 0.7407
C20D C -0.08753(6) -0.85163(12) 0.62104(8)
H13D H -0.0563 -0.7879 0.6513
C21D C -0.19134(6) -1.07966(13) 0.25046(9)
H14D H -0.1790 -1.1698 0.2640
C22D C -0.16060(5) -0.98559(12) 0.32118(8)
H15D H -0.1271 -1.0117 0.3827
C23D C -0.13347(5) -0.58866(11) 0.28914(7)
C24D C -0.16851(5) -0.48066(12) 0.23611(8)
H16D H -0.1940 -0.4411 0.2457
C25D C -0.16586(6) -0.43082(12) 0.16864(8)
H17D H -0.1894 -0.3562 0.1322
C26D C -0.12896(6) -0.48949(13) 0.15426(8)
H18D H -0.1268 -0.4543 0.1088
C27D C -0.09522(6) -0.59999(13) 0.20665(8)
H19D H -0.0706 -0.6414 0.1959
C28D C -0.09724(5) -0.65016(12) 0.27450(8)
H20D H -0.0741 -0.7255 0.3104
loop_
_geom_bond_atom_site_label_1
_geom_bond_atom_site_label_2
_geom_bond_site_symmetry_1
_geom_bond_site_symmetry_2
N1 C5 1_555 1_555
N2 C6 1_555 1_555
C1 H1 1_555 1_555
C2 C1 1_555 1_555
H2 C2 1_555 1_555
C3 C2 1_555 1_555
H3 C3 1_555 1_555
C4 C3 1_555 1_555
C5 C4 1_555 1_555
C6 N1 1_555 1_555
C7 C6 1_555 1_555
C8 C7 1_555 1_555
H4 C8 1_555 1_555
C9 C8 1_555 1_555
H5 C9 1_555 1_555
C10 C9 1_555 1_555
C11 C10 1_555 1_555
H6 C11 1_555 1_555
C12 C10 1_555 1_555
H7 C12 1_555 1_555
C13 C7 1_555 1_555
H8 C13 1_555 1_555
C14 N2 1_555 1_555
C15 C14 1_555 1_555
C16 C15 1_555 1_555
H9 C16 1_555 1_555
C17 C16 1_555 1_555
H10 C17 1_555 1_555
C18 C17 1_555 1_555
H11 C18 1_555 1_555
C19 C1 1_555 1_555
H12 C19 1_555 1_555
C20 C4 1_555 1_555
H13 C20 1_555 1_555
C21 C18 1_555 1_555
H14 C21 1_555 1_555
C22 C15 1_555 1_555
H15 C22 1_555 1_555
C23 N2 1_555 1_555
C24 C23 1_555 1_555
H16 C24 1_555 1_555
C25 C24 1_555 1_555
H17 C25 1_555 1_555
C26 C25 1_555 1_555
H18 C26 1_555 1_555
C27 C26 1_555 1_555
H19 C27 1_555 1_555
C28 C23 1_555 1_555
H20 C28 1_555 1_555
N1D C5D 1_555 1_555
N2D C6D 1_555 1_555
C1D H1D 1_555 1_555
C2D C1D 1_555 1_555
H2D C2D 1_555 1_555
C3D C2D 1_555 1_555
H3D C3D 1_555 1_555
C4D C3D 1_555 1_555
C5D C4D 1_555 1_555
C6D N1D 1_555 1_555
C7D C6D 1_555 1_555
C8D C7D 1_555 1_555
H4D C8D 1_555 1_555
C9D C8D 1_555 1_555
H5D C9D 1_555 1_555
C10D C9D 1_555 1_555
C11D C11 1_555 1_555
H6D C11D 1_555 1_555
C12D C10D 1_555 1_555
H7D C12D 1_555 1_555
C13D C7D 1_555 1_555
H8D C13D 1_555 1_555
C14D N2D 1_555 1_555
C15D C14D 1_555 1_555
C16D C15D 1_555 1_555
H9D C16D 1_555 1_555
C17D C16D 1_555 1_555
H10D C17D 1_555 1_555
C18D C17D 1_555 1_555
H11D C18D 1_555 1_555
C19D C1D 1_555 1_555
H12D C19D 1_555 1_555
C20D C4D 1_555 1_555
H13D C20D 1_555 1_555
C21D C18D 1_555 1_555
H14D C21D 1_555 1_555
C22D C15D 1_555 1_555
H15D C22D 1_555 1_555
C23D N2D 1_555 1_555
C24D C23D 1_555 1_555
H16D C24D 1_555 1_555
C25D C24D 1_555 1_555
H17D C25D 1_555 1_555
C26D C25D 1_555 1_555
H18D C26D 1_555 1_555
C27D C26D 1_555 1_555
H19D C27D 1_555 1_555
C28D C23D 1_555 1_555
H20D C28D 1_555 1_555
C5 C14 1_555 1_555
C12 C13 1_555 1_555
C19 C20 1_555 1_555
C21 C22 1_555 1_555
C27 C28 1_555 1_555
C5D C14D 1_555 1_555
C10D C11D 1_555 1_555
C12D C13D 1_555 1_555
C19D C20D 1_555 1_555
C21D C22D 1_555 1_555
C27D C28D 1_555 1_555

#END
