
#######################################################################
#
#                 Cambridge Crystallographic Data Centre
#                                CCDC 
#
#######################################################################
#
# If this CIF has been generated from an entry in the Cambridge 
# Structural Database, then it will include bibliographic, chemical, 
# crystal, experimental, refinement or atomic coordinate data resulting 
# from the CCDC's data processing and validation procedures.
#
#######################################################################

data_PESKUV
_chemical_compound_source        
'roots of Croton crassifolius Geisel. (Euphorbiaceae)'
_chemical_name_common            'Crassifolin C'
_chemical_formula_moiety         'C21 H24 O5'
_chemical_name_systematic        
'Methyl 5-(2-(3-furyl)-2-oxoethyl)-1,5,6-trimethyl-3-oxo-1,2,3,5,6,7-hexahydronaphthalene-1-carboxylate'
_symmetry_cell_setting           orthorhombic
_symmetry_space_group_name_H-M   'P 21 21 21'
_symmetry_Int_Tables_number      19
_space_group_name_Hall           'P 2ac 2ab'
loop_
_symmetry_equiv_pos_site_id
_symmetry_equiv_pos_as_xyz
1 x,y,z
2 1/2-x,-y,1/2+z
3 1/2+x,1/2-y,-z
4 -x,1/2+y,1/2-z
_cell_length_a                   8.8343(2)
_cell_length_b                   12.0172(4)
_cell_length_c                   17.6834(4)
_cell_angle_alpha                90
_cell_angle_beta                 90
_cell_angle_gamma                90
_cell_volume                     1877.33
_exptl_crystal_colour            'light colorless'
_exptl_crystal_description       block
_cell_formula_units_Z            4
loop_
_atom_site_label
_atom_site_type_symbol
_atom_site_fract_x
_atom_site_fract_y
_atom_site_fract_z
O1 O -0.03302(18) -0.02406(17) -0.30010(10)
O2 O -0.12752(18) -0.24623(16) -0.16519(11)
O3 O 0.21731(16) -0.00797(13) -0.30960(8)
C1 C -0.0122(2) -0.19008(19) -0.16340(12)
C2 C 0.4219(2) -0.22890(18) -0.17616(11)
C3 C 0.5562(2) -0.18783(18) -0.38686(11)
C4 C 0.2577(2) -0.05781(16) -0.16109(10)
C5 C 0.2645(2) -0.17971(16) -0.17220(10)
C6 C 0.4574(2) -0.22073(17) -0.32370(11)
C7 C 0.1358(2) -0.23872(17) -0.17512(12)
H1 H 0.1419 -0.3146 -0.1851
O4 O 0.34071(16) -0.27241(15) -0.33559(8)
C8 C 0.0888(2) -0.01477(17) -0.27098(13)
O5 O 0.74642(19) -0.11690(16) -0.45339(9)
C9 C 0.1000(3) 0.12037(18) -0.16704(14)
H2 H 0.1785 0.1598 -0.1934
H3 H 0.1116 0.1313 -0.1136
H4 H 0.0030 0.1480 -0.1828
C10 C 0.5166(3) -0.0583(2) -0.10458(13)
H5 H 0.5407 -0.0332 -0.0539
H6 H 0.5982 -0.0350 -0.1377
C11 C 0.5082(3) -0.1855(2) -0.10478(11)
H7 H 0.6121 -0.2139 -0.1075
C12 C 0.1111(2) -0.00393(16) -0.18520(12)
C13 C -0.0184(2) -0.06750(19) -0.14656(14)
H8 H -0.0124 -0.0563 -0.0923
H9 H -0.1145 -0.0378 -0.1638
C14 C 0.6860(3) -0.13046(19) -0.38360(13)
H10 H 0.7290 -0.1035 -0.3392
C15 C 0.4235(3) -0.35601(19) -0.17773(15)
H11 H 0.3714 -0.3818 -0.2220
H12 H 0.3739 -0.3842 -0.1334
H13 H 0.5263 -0.3819 -0.1788
C16 C 0.5084(2) -0.18464(19) -0.24604(11)
H14 H 0.5045 -0.1040 -0.2445
H15 H 0.6137 -0.2058 -0.2405
C17 C 0.6506(3) -0.1698(3) -0.50197(13)
H16 H 0.6647 -0.1744 -0.5540
C18 C 0.3737(2) -0.0037(2) -0.12956(11)
H17 H 0.3648 0.0727 -0.1228
C19 C 0.2027(3) -0.0107(3) -0.39117(13)
H18 H 0.1589 -0.0804 -0.4063
H19 H 0.3009 -0.0029 -0.4138
H20 H 0.1387 0.0492 -0.4074
C20 C 0.5348(3) -0.2138(2) -0.46520(12)
H21 H 0.4550 -0.2538 -0.4861
C21 C 0.4393(4) -0.2267(3) -0.03030(13)
H22 H 0.4372 -0.3066 -0.0301
H23 H 0.3380 -0.1986 -0.0254
H24 H 0.4995 -0.2007 0.0113
loop_
_geom_bond_atom_site_label_1
_geom_bond_atom_site_label_2
_geom_bond_site_symmetry_1
_geom_bond_site_symmetry_2
O1 C8 1_555 1_555
O2 C1 1_555 1_555
O3 C8 1_555 1_555
C1 C7 1_555 1_555
C2 C5 1_555 1_555
C3 C6 1_555 1_555
C4 C5 1_555 1_555
C5 C7 1_555 1_555
C6 O4 1_555 1_555
C7 H1 1_555 1_555
C8 C12 1_555 1_555
O5 C14 1_555 1_555
C9 H2 1_555 1_555
H3 C9 1_555 1_555
H4 C9 1_555 1_555
C10 H5 1_555 1_555
H6 C10 1_555 1_555
C11 C2 1_555 1_555
H7 C11 1_555 1_555
C12 C4 1_555 1_555
C13 C1 1_555 1_555
H8 C13 1_555 1_555
H9 C13 1_555 1_555
C14 C3 1_555 1_555
H10 C14 1_555 1_555
C15 C2 1_555 1_555
H11 C15 1_555 1_555
H12 C15 1_555 1_555
H13 C15 1_555 1_555
C16 C2 1_555 1_555
H14 C16 1_555 1_555
H15 C16 1_555 1_555
C17 O5 1_555 1_555
H16 C17 1_555 1_555
C18 C4 1_555 1_555
H17 C18 1_555 1_555
C19 O3 1_555 1_555
H18 C19 1_555 1_555
H19 C19 1_555 1_555
H20 C19 1_555 1_555
C20 C3 1_555 1_555
H21 C20 1_555 1_555
C21 C11 1_555 1_555
H22 C21 1_555 1_555
H23 C21 1_555 1_555
H24 C21 1_555 1_555
C6 C16 1_555 1_555
C9 C12 1_555 1_555
C10 C11 1_555 1_555
C10 C18 1_555 1_555
C12 C13 1_555 1_555
C17 C20 1_555 1_555

#END
