
#######################################################################
#
#                 Cambridge Crystallographic Data Centre
#                                CCDC 
#
#######################################################################
#
# If this CIF has been generated from an entry in the Cambridge 
# Structural Database, then it will include bibliographic, chemical, 
# crystal, experimental, refinement or atomic coordinate data resulting 
# from the CCDC's data processing and validation procedures.
#
#######################################################################

data_PESPEJ
_chemical_formula_moiety         'C13 H20 N2 O6,2(H2 O1)'
_chemical_name_systematic        
'bis(N-\a-amido-\a-aminoisobutyric acid)-1,1-cyclopropane dicarboxylate'
_symmetry_cell_setting           tetragonal
_symmetry_space_group_name_H-M   'I -4'
_symmetry_Int_Tables_number      82
_space_group_name_Hall           'I -4'
loop_
_symmetry_equiv_pos_site_id
_symmetry_equiv_pos_as_xyz
1 x,y,z
2 -x,-y,z
3 y,-x,-z
4 -y,x,-z
5 1/2+x,1/2+y,1/2+z
6 1/2-x,1/2-y,1/2+z
7 1/2+y,1/2-x,1/2-z
8 1/2-y,1/2+x,1/2-z
_cell_length_a                   18.75(2)
_cell_length_b                   18.75(2)
_cell_length_c                   9.518(9)
_cell_angle_alpha                90
_cell_angle_beta                 90
_cell_angle_gamma                90
_cell_volume                     3346.17
_exptl_crystal_colour            white
_exptl_crystal_description       needle
_cell_formula_units_Z            8
loop_
_atom_site_label
_atom_site_type_symbol
_atom_site_fract_x
_atom_site_fract_y
_atom_site_fract_z
C1 C 0.20048(18) 0.64205(19) 0.6338(4)
O1 O 0.16216(16) 0.66319(16) 0.7408(3)
H1 H 0.170(2) 0.706(2) 0.759(5)
O2 O 0.24207(15) 0.68021(14) 0.5730(3)
C2 C 0.19152(18) 0.56228(18) 0.6018(4)
C3 C 0.1199(2) 0.5319(2) 0.6470(5)
H2 H 0.0823 0.5569 0.5997
H3 H 0.1145 0.5374 0.7467
H4 H 0.1178 0.4822 0.6231
C4 C 0.2526(3) 0.5244(2) 0.6781(5)
H5 H 0.2512 0.4743 0.6569
H6 H 0.2476 0.5311 0.7776
H7 H 0.2973 0.5439 0.6477
N1 N 0.20289(16) 0.55230(15) 0.4503(3)
H8 H 0.2359 0.5237 0.4226
C5 C 0.16350(17) 0.58636(16) 0.3540(4)
O3 O 0.11328(12) 0.62492(13) 0.3875(3)
C6 C 0.18183(17) 0.57333(17) 0.2034(3)
C7 C 0.1193(2) 0.5602(2) 0.1067(5)
H9 H 0.1260 0.5272 0.0294
H10 H 0.0720 0.5597 0.1479
C8 C 0.1574(2) 0.6293(2) 0.1005(5)
H11 H 0.1332 0.6709 0.1378
H12 H 0.1873 0.6384 0.0193
C9 C 0.25302(17) 0.53867(17) 0.1778(4)
O4 O 0.30869(13) 0.57314(12) 0.1935(3)
N2 N 0.25313(14) 0.46983(13) 0.1459(3)
H13 H 0.2130 0.4481 0.1366
C10 C 0.31974(16) 0.42930(17) 0.1257(4)
C11 C 0.36815(18) 0.43868(18) 0.2532(4)
C12 C 0.3558(2) 0.4527(2) -0.0098(4)
H14 H 0.3267 0.4392 -0.0885
H15 H 0.4016 0.4302 -0.0173
H16 H 0.3617 0.5036 -0.0092
C13 C 0.3016(2) 0.35005(18) 0.1196(5)
H17 H 0.2820 0.3353 0.2081
H18 H 0.3440 0.3232 0.1003
H19 H 0.2672 0.3418 0.0465
O5 O 0.33298(14) 0.44414(15) 0.3731(3)
H20 H 0.364(2) 0.443(2) 0.434(5)
O6 O 0.43185(13) 0.43586(17) 0.2434(3)
O7 O 0.55992(17) 0.41568(18) 0.4060(3)
H21 H 0.524(3) 0.425(3) 0.375(6)
H22 H 0.592(3) 0.412(2) 0.340(6)
O8 O 0.18143(19) 0.79370(16) 0.8240(4)
H23 H 0.205(3) 0.802(3) 0.899(7)
H24 H 0.189(3) 0.830(3) 0.769(6)
loop_
_geom_bond_atom_site_label_1
_geom_bond_atom_site_label_2
_geom_bond_site_symmetry_1
_geom_bond_site_symmetry_2
C1 O1 1_555 1_555
O1 H1 1_555 1_555
O2 C1 1_555 1_555
C2 C1 1_555 1_555
C3 C2 1_555 1_555
H2 C3 1_555 1_555
H3 C3 1_555 1_555
H4 C3 1_555 1_555
C4 C2 1_555 1_555
H5 C4 1_555 1_555
H6 C4 1_555 1_555
H7 C4 1_555 1_555
N1 C2 1_555 1_555
H8 N1 1_555 1_555
C5 N1 1_555 1_555
O3 C5 1_555 1_555
C6 C5 1_555 1_555
C7 C6 1_555 1_555
H9 C7 1_555 1_555
H10 C7 1_555 1_555
C8 C6 1_555 1_555
H11 C8 1_555 1_555
H12 C8 1_555 1_555
C9 C6 1_555 1_555
O4 C9 1_555 1_555
N2 C9 1_555 1_555
H13 N2 1_555 1_555
C10 N2 1_555 1_555
C11 C10 1_555 1_555
C12 C10 1_555 1_555
H14 C12 1_555 1_555
H15 C12 1_555 1_555
H16 C12 1_555 1_555
C13 C10 1_555 1_555
H17 C13 1_555 1_555
H18 C13 1_555 1_555
H19 C13 1_555 1_555
O5 C11 1_555 1_555
H20 O5 1_555 1_555
O6 C11 1_555 1_555
O7 H21 1_555 1_555
H22 O7 1_555 1_555
O8 H23 1_555 1_555
H24 O8 1_555 1_555
C7 C8 1_555 1_555

#END
