
#######################################################################
#
#                 Cambridge Crystallographic Data Centre
#                                CCDC 
#
#######################################################################
#
# If this CIF has been generated from an entry in the Cambridge 
# Structural Database, then it will include bibliographic, chemical, 
# crystal, experimental, refinement or atomic coordinate data resulting 
# from the CCDC's data processing and validation procedures.
#
#######################################################################

data_PESXIX
_chemical_formula_moiety         'C42 H36 N2'
_chemical_name_systematic        
N^9^,N^9^,N^10^,N^10^-tetrakis(4-methylphenyl)anthracene-9,10-diamine
_symmetry_cell_setting           monoclinic
_symmetry_space_group_name_H-M   'P 21/n'
_symmetry_Int_Tables_number      14
_space_group_name_Hall           '-P 2yn'
loop_
_symmetry_equiv_pos_site_id
_symmetry_equiv_pos_as_xyz
1 x,y,z
2 1/2-x,1/2+y,1/2-z
3 -x,-y,-z
4 1/2+x,1/2-y,1/2+z
_cell_length_a                   10.517(2)
_cell_length_b                   11.132(2)
_cell_length_c                   13.349(3)
_cell_angle_alpha                90
_cell_angle_beta                 94.23(3)
_cell_angle_gamma                90
_cell_volume                     1558.58
_exptl_crystal_colour            yellow
_exptl_crystal_description       block
_cell_formula_units_Z            2
loop_
_atom_site_label
_atom_site_type_symbol
_atom_site_fract_x
_atom_site_fract_y
_atom_site_fract_z
N1 N 0.10814(12) 0.22001(12) 0.94034(10)
C1 C 0.63517(17) 0.29550(19) 1.07255(14)
H1 H 0.6563 0.3793 1.0694
H2 H 0.6873 0.2508 1.0297
H3 H 0.6502 0.2676 1.1404
C2 C 0.49654(15) 0.27806(16) 1.03809(12)
C3 C 0.40619(16) 0.36844(15) 1.04407(12)
H4 H 0.4324 0.4444 1.0707
C4 C 0.27887(16) 0.35120(15) 1.01232(12)
H5 H 0.2193 0.4146 1.0180
C5 C 0.23816(14) 0.24066(14) 0.97197(11)
C6 C 0.32752(16) 0.14923(15) 0.96644(13)
H6 H 0.3016 0.0731 0.9400
C7 C 0.45399(16) 0.16828(16) 0.99926(13)
H7 H 0.5133 0.1044 0.9951
C8 C 0.03254(15) 0.30374(14) 0.88351(11)
C9 C 0.08592(16) 0.38681(16) 0.82082(13)
H8 H 0.1758 0.3892 0.8172
C10 C 0.00931(17) 0.46583(16) 0.76388(13)
H9 H 0.0481 0.5220 0.7220
C11 C -0.12269(16) 0.46573(15) 0.76592(12)
C12 C -0.17479(16) 0.38134(16) 0.82736(14)
H10 H -0.2648 0.3780 0.8298
C13 C -0.09963(16) 0.30177(15) 0.88533(13)
H11 H -0.1386 0.2453 0.9267
C14 C -0.20607(19) 0.55138(18) 0.70321(15)
H12 H -0.1579 0.6218 0.6888
H13 H -0.2778 0.5740 0.7395
H14 H -0.2356 0.5130 0.6414
C15 C 0.05294(14) 0.10947(13) 0.96999(11)
C16 C 0.04110(14) 0.01304(14) 0.90201(11)
C17 C -0.01159(14) -0.09878(14) 0.93264(11)
C18 C -0.01754(16) -0.19719(15) 0.86386(12)
H15 H -0.0509 -0.2722 0.8835
C19 C 0.02438(16) -0.18443(17) 0.77007(13)
H16 H 0.0207 -0.2508 0.7253
C20 C 0.07318(16) -0.07324(17) 0.73907(12)
H17 H 0.1000 -0.0653 0.6730
C21 C 0.08221(15) 0.02236(16) 0.80238(11)
H18 H 0.1161 0.0961 0.7804
N1B N -0.10814(12) -0.22001(12) 1.05966(10)
C1B C -0.63517(17) -0.29550(19) 0.92745(14)
H1B H -0.6563 -0.3793 0.9306
H2B H -0.6873 -0.2508 0.9703
H3B H -0.6502 -0.2676 0.8596
C2B C -0.49654(15) -0.27806(16) 0.96191(12)
C3B C -0.40619(16) -0.36844(15) 0.95593(12)
H4B H -0.4324 -0.4444 0.9293
C4B C -0.27887(16) -0.35120(15) 0.98768(12)
H5B H -0.2193 -0.4146 0.9820
C5B C -0.23816(14) -0.24066(14) 1.02803(11)
C6B C -0.32752(16) -0.14923(15) 1.03356(13)
H6B H -0.3016 -0.0731 1.0600
C7B C -0.45399(16) -0.16828(16) 1.00074(13)
H7B H -0.5133 -0.1044 1.0049
C8B C -0.03254(15) -0.30374(14) 1.11649(11)
C9B C -0.08592(16) -0.38681(16) 1.17918(13)
H8B H -0.1758 -0.3892 1.1828
C10B C -0.00931(17) -0.46583(16) 1.23612(13)
H9B H -0.0481 -0.5220 1.2780
C11B C 0.12269(16) -0.46573(15) 1.23408(12)
C12B C 0.17479(16) -0.38134(16) 1.17264(14)
H10B H 0.2648 -0.3780 1.1702
C13B C 0.09963(16) -0.30177(15) 1.11467(13)
H11B H 0.1386 -0.2453 1.0733
C14B C 0.20607(19) -0.55138(18) 1.29679(15)
H12B H 0.1579 -0.6218 1.3112
H13B H 0.2778 -0.5740 1.2605
H14B H 0.2356 -0.5130 1.3586
C15B C -0.05294(14) -0.10947(13) 1.03001(11)
C16B C -0.04110(14) -0.01304(14) 1.09799(11)
C17B C 0.01159(14) 0.09878(14) 1.06736(11)
C18B C 0.01754(16) 0.19719(15) 1.13614(12)
H15B H 0.0509 0.2722 1.1165
C19B C -0.02438(16) 0.18443(17) 1.22993(13)
H16B H -0.0207 0.2508 1.2747
C20B C -0.07318(16) 0.07324(17) 1.26093(12)
H17B H -0.1000 0.0653 1.3270
C21B C -0.08221(15) -0.02236(16) 1.19762(11)
H18B H -0.1161 -0.0961 1.2196
loop_
_geom_bond_atom_site_label_1
_geom_bond_atom_site_label_2
_geom_bond_site_symmetry_1
_geom_bond_site_symmetry_2
N1 C5 1_555 1_555
C1 H1 1_555 1_555
H2 C1 1_555 1_555
H3 C1 1_555 1_555
C2 C1 1_555 1_555
C3 C2 1_555 1_555
H4 C3 1_555 1_555
C4 C3 1_555 1_555
H5 C4 1_555 1_555
C5 C4 1_555 1_555
C6 C5 1_555 1_555
H6 C6 1_555 1_555
C7 C2 1_555 1_555
H7 C7 1_555 1_555
C8 N1 1_555 1_555
C9 C8 1_555 1_555
H8 C9 1_555 1_555
C10 C9 1_555 1_555
H9 C10 1_555 1_555
C11 C10 1_555 1_555
C12 C11 1_555 1_555
H10 C12 1_555 1_555
C13 C8 1_555 1_555
H11 C13 1_555 1_555
C14 C11 1_555 1_555
H12 C14 1_555 1_555
H13 C14 1_555 1_555
H14 C14 1_555 1_555
C15 N1 1_555 1_555
C16 C15 1_555 1_555
C17 C16 1_555 1_555
C18 C17 1_555 1_555
H15 C18 1_555 1_555
C19 C18 1_555 1_555
H16 C19 1_555 1_555
C20 C19 1_555 1_555
H17 C20 1_555 1_555
C21 C16 1_555 1_555
H18 C21 1_555 1_555
N1B C5B 1_555 1_555
C1B H1B 1_555 1_555
H2B C1B 1_555 1_555
H3B C1B 1_555 1_555
C2B C1B 1_555 1_555
C3B C2B 1_555 1_555
H4B C3B 1_555 1_555
C4B C3B 1_555 1_555
H5B C4B 1_555 1_555
C5B C4B 1_555 1_555
C6B C5B 1_555 1_555
H6B C6B 1_555 1_555
C7B C2B 1_555 1_555
H7B C7B 1_555 1_555
C8B N1B 1_555 1_555
C9B C8B 1_555 1_555
H8B C9B 1_555 1_555
C10B C9B 1_555 1_555
H9B C10B 1_555 1_555
C11B C10B 1_555 1_555
C12B C11B 1_555 1_555
H10B C12B 1_555 1_555
C13B C8B 1_555 1_555
H11B C13B 1_555 1_555
C14B C11B 1_555 1_555
H12B C14B 1_555 1_555
H13B C14B 1_555 1_555
H14B C14B 1_555 1_555
C15B C17 1_555 1_555
C16B C15B 1_555 1_555
C17B C15 1_555 1_555
C18B C17B 1_555 1_555
H15B C18B 1_555 1_555
C19B C18B 1_555 1_555
H16B C19B 1_555 1_555
C20B C19B 1_555 1_555
H17B C20B 1_555 1_555
C21B C16B 1_555 1_555
H18B C21B 1_555 1_555
C6 C7 1_555 1_555
C12 C13 1_555 1_555
C20 C21 1_555 1_555
N1B C15B 1_555 1_555
C6B C7B 1_555 1_555
C12B C13B 1_555 1_555
C16B C17B 1_555 1_555
C20B C21B 1_555 1_555

#END
