
#######################################################################
#
#                 Cambridge Crystallographic Data Centre
#                                CCDC 
#
#######################################################################
#
# If this CIF has been generated from an entry in the Cambridge 
# Structural Database, then it will include bibliographic, chemical, 
# crystal, experimental, refinement or atomic coordinate data resulting 
# from the CCDC's data processing and validation procedures.
#
#######################################################################

data_PETCID
_chemical_formula_moiety         'C36 H22 F6 N2 O2 S2,2(C6 H5 Cl1)'
_chemical_name_systematic        
"(2E,2'E)-3,3'-(2,5-dimethoxy-1,4-phenylene)bis(2-(5-(4-(trifluoromethyl)phenyl)-2-thienyl)acrylonitrile) chlorobenzene solvate"
_symmetry_cell_setting           monoclinic
_symmetry_space_group_name_H-M   'P 21/c'
_symmetry_Int_Tables_number      14
_space_group_name_Hall           '-P 2ybc'
loop_
_symmetry_equiv_pos_site_id
_symmetry_equiv_pos_as_xyz
1 x,y,z
2 -x,1/2+y,1/2-z
3 -x,-y,-z
4 x,1/2-y,1/2+z
_cell_length_a                   23.7768(7)
_cell_length_b                   14.6140(5)
_cell_length_c                   5.8609(2)
_cell_angle_alpha                90
_cell_angle_beta                 91.440(2)
_cell_angle_gamma                90
_cell_volume                     2035.87
_exptl_crystal_colour            red
_exptl_crystal_description       Plate
_cell_formula_units_Z            2
_exptl_crystal_recrystallization_method 
'Re-crystallisation from solvent: Chlorobenzene'
_exptl_crystal_preparation       'Luminescent, n-type semiconducting property'
loop_
_atom_site_label
_atom_site_type_symbol
_atom_site_fract_x
_atom_site_fract_y
_atom_site_fract_z
Cl1 Cl 0.23102(13) 0.5830(2) 0.6825(4)
C1 C 0.28668(12) 0.60867(19) 0.8658(5)
C2 C 0.33929(15) 0.5869(2) 0.7898(5)
H1 H 0.3437 0.5586 0.6455
C3 C 0.38574(13) 0.6072(2) 0.9278(6)
H2 H 0.4224 0.5927 0.8781
C4 C 0.37905(13) 0.6474(2) 1.1331(6)
H3 H 0.4112 0.6619 1.2255
C5 C 0.32677(14) 0.66733(19) 1.2093(5)
H4 H 0.3228 0.6944 1.3553
C6 C 0.27986(12) 0.6485(2) 1.0761(5)
H5 H 0.2434 0.6626 1.1282
S1 S 0.20231(2) 0.42026(4) 0.11706(10)
F1 F 0.48098(7) 0.28238(12) 0.6664(3)
F2 F 0.49883(7) 0.39721(13) 0.4557(3)
F3 F 0.47681(7) 0.41763(14) 0.8039(3)
O1 O 0.10412(7) 0.58313(12) -0.4961(3)
N1 N -0.00041(10) 0.31169(17) 0.1544(4)
C7 C 0.05225(10) 0.54290(17) -0.5026(4)
C8 C 0.04249(10) 0.47567(16) -0.3363(4)
C9 C -0.01045(10) 0.43360(17) -0.3397(4)
H6 H -0.0179 0.3875 -0.2303
C10 C 0.11438(11) 0.6534(2) -0.6591(5)
H7 H 0.1523 0.6783 -0.6327
H8 H 0.0866 0.7024 -0.6429
H9 H 0.1113 0.6279 -0.8134
C11 C 0.08736(10) 0.45405(16) -0.1711(4)
H10 H 0.1226 0.4819 -0.1998
C12 C 0.08648(9) 0.40031(16) 0.0172(4)
C13 C 0.03701(10) 0.35255(17) 0.0891(4)
C14 C 0.13478(10) 0.38395(16) 0.1721(4)
C15 C 0.13388(10) 0.33792(16) 0.3757(4)
H11 H 0.1006 0.3125 0.4361
C16 C 0.18679(10) 0.33189(16) 0.4865(4)
H12 H 0.1927 0.3024 0.6296
C17 C 0.22893(10) 0.37247(16) 0.3692(4)
C18 C 0.28904(10) 0.37604(16) 0.4300(4)
C19 C 0.30824(10) 0.33955(17) 0.6400(4)
H13 H 0.2818 0.3158 0.7437
C20 C 0.36470(10) 0.33774(17) 0.6974(4)
H14 H 0.3770 0.3124 0.8395
C21 C 0.40387(10) 0.37277(17) 0.5486(4)
C22 C 0.38597(10) 0.41071(17) 0.3428(4)
H15 H 0.4126 0.4354 0.2415
C23 C 0.32901(10) 0.41259(17) 0.2851(4)
H16 H 0.3170 0.4392 0.1443
C24 C 0.46463(11) 0.36782(19) 0.6162(5)
S1B S -0.20231(2) 0.57974(4) -1.11706(10)
F1B F -0.48098(7) 0.71762(12) -1.6664(3)
F2B F -0.49883(7) 0.60279(13) -1.4557(3)
F3B F -0.47681(7) 0.58237(14) -1.8039(3)
O1B O -0.10412(7) 0.41687(12) -0.5039(3)
N1B N 0.00041(10) 0.68831(17) -1.1544(4)
C7B C -0.05225(10) 0.45710(17) -0.4974(4)
C8B C -0.04249(10) 0.52433(16) -0.6637(4)
C9B C 0.01045(10) 0.56640(17) -0.6603(4)
H6B H 0.0179 0.6125 -0.7697
C10B C -0.11438(11) 0.3466(2) -0.3409(5)
H7B H -0.1523 0.3217 -0.3673
H8B H -0.0866 0.2976 -0.3571
H9B H -0.1113 0.3721 -0.1866
C11B C -0.08736(10) 0.54595(16) -0.8289(4)
H10B H -0.1226 0.5181 -0.8002
C12B C -0.08648(9) 0.59969(16) -1.0172(4)
C13B C -0.03701(10) 0.64745(17) -1.0891(4)
C14B C -0.13478(10) 0.61605(16) -1.1721(4)
C15B C -0.13388(10) 0.66208(16) -1.3757(4)
H11B H -0.1006 0.6875 -1.4361
C16B C -0.18679(10) 0.66811(16) -1.4865(4)
H12B H -0.1927 0.6976 -1.6296
C17B C -0.22893(10) 0.62753(16) -1.3692(4)
C18B C -0.28904(10) 0.62396(16) -1.4300(4)
C19B C -0.30824(10) 0.66045(17) -1.6400(4)
H13B H -0.2818 0.6842 -1.7437
C20B C -0.36470(10) 0.66226(17) -1.6974(4)
H14B H -0.3770 0.6876 -1.8395
C21B C -0.40387(10) 0.62723(17) -1.5486(4)
C22B C -0.38597(10) 0.58929(17) -1.3428(4)
H15B H -0.4126 0.5646 -1.2415
C23B C -0.32901(10) 0.58741(17) -1.2851(4)
H16B H -0.3170 0.5608 -1.1443
C24B C -0.46463(11) 0.63218(19) -1.6162(5)
Cl2? Cl 0.2164(8) 0.6080(15) 0.738(4)
loop_
_geom_bond_atom_site_label_1
_geom_bond_atom_site_label_2
_geom_bond_site_symmetry_1
_geom_bond_site_symmetry_2
Cl1 C1 1_555 1_555
C1 C2 1_555 1_555
C2 H1 1_555 1_555
C3 C2 1_555 1_555
H2 C3 1_555 1_555
C4 C3 1_555 1_555
H3 C4 1_555 1_555
C5 C4 1_555 1_555
H4 C5 1_555 1_555
C6 C1 1_555 1_555
H5 C6 1_555 1_555
S1 C14 1_555 1_555
F1 C24 1_555 1_555
F2 C24 1_555 1_555
F3 C24 1_555 1_555
O1 C7 1_555 1_555
N1 C13 1_555 1_555
C7 C8 1_555 1_555
C8 C9 1_555 1_555
C9 H6 1_555 1_555
C10 O1 1_555 1_555
H7 C10 1_555 1_555
H8 C10 1_555 1_555
H9 C10 1_555 1_555
C11 C8 1_555 1_555
H10 C11 1_555 1_555
C12 C11 1_555 1_555
C13 C12 1_555 1_555
C14 C12 1_555 1_555
C15 C14 1_555 1_555
H11 C15 1_555 1_555
C16 C15 1_555 1_555
H12 C16 1_555 1_555
C17 S1 1_555 1_555
C18 C17 1_555 1_555
C19 C18 1_555 1_555
H13 C19 1_555 1_555
C20 C19 1_555 1_555
H14 C20 1_555 1_555
C21 C20 1_555 1_555
C22 C21 1_555 1_555
H15 C22 1_555 1_555
C23 C18 1_555 1_555
H16 C23 1_555 1_555
C24 C21 1_555 1_555
S1B C14B 1_555 1_555
F1B C24B 1_555 1_555
F2B C24B 1_555 1_555
F3B C24B 1_555 1_555
O1B C7B 1_555 1_555
N1B C13B 1_555 1_555
C7B C9 1_555 1_555
C8B C7B 1_555 1_555
C9B C7 1_555 1_555
H6B C9B 1_555 1_555
C10B O1B 1_555 1_555
H7B C10B 1_555 1_555
H8B C10B 1_555 1_555
H9B C10B 1_555 1_555
C11B C8B 1_555 1_555
H10B C11B 1_555 1_555
C12B C11B 1_555 1_555
C13B C12B 1_555 1_555
C14B C12B 1_555 1_555
C15B C14B 1_555 1_555
H11B C15B 1_555 1_555
C16B C15B 1_555 1_555
H12B C16B 1_555 1_555
C17B S1B 1_555 1_555
C18B C17B 1_555 1_555
C19B C18B 1_555 1_555
H13B C19B 1_555 1_555
C20B C19B 1_555 1_555
H14B C20B 1_555 1_555
C21B C20B 1_555 1_555
C22B C21B 1_555 1_555
H15B C22B 1_555 1_555
C23B C18B 1_555 1_555
H16B C23B 1_555 1_555
C24B C21B 1_555 1_555
C5 C6 1_555 1_555
C16 C17 1_555 1_555
C22 C23 1_555 1_555
C8B C9B 1_555 1_555
C16B C17B 1_555 1_555
C22B C23B 1_555 1_555

#END
