
#######################################################################
#
#                 Cambridge Crystallographic Data Centre
#                                CCDC 
#
#######################################################################
#
# If this CIF has been generated from an entry in the Cambridge 
# Structural Database, then it will include bibliographic, chemical, 
# crystal, experimental, refinement or atomic coordinate data resulting 
# from the CCDC's data processing and validation procedures.
#
#######################################################################

data_PETKIL
_chemical_formula_moiety         'C34 H38 N4 O4 S4'
_chemical_name_systematic        
5,5'-dioctyl-4H,4'H-[2,2'-bi[1,3]thiazolo[4,5-c]thieno[2,3-e]azepine]-4,4',6,6'(5H,5'H)-tetrone
_symmetry_cell_setting           triclinic
_symmetry_space_group_name_H-M   'P -1'
_symmetry_Int_Tables_number      2
_space_group_name_Hall           '-P 1'
loop_
_symmetry_equiv_pos_site_id
_symmetry_equiv_pos_as_xyz
1 x,y,z
2 -x,-y,-z
_cell_length_a                   4.708(7)
_cell_length_b                   7.149(11)
_cell_length_c                   25.52(4)
_cell_angle_alpha                84.80(4)
_cell_angle_beta                 86.02(4)
_cell_angle_gamma                74.19(3)
_cell_volume                     822.148
_exptl_crystal_colour            yellow
_exptl_crystal_description       plate
_cell_formula_units_Z            1
loop_
_atom_site_label
_atom_site_type_symbol
_atom_site_fract_x
_atom_site_fract_y
_atom_site_fract_z
S1 S 0.7124(4) 0.7362(2) 0.48221(7)
S2 S 0.9894(4) 1.0644(2) 0.42509(7)
O1 O 0.8930(13) 0.9312(8) 0.2452(2)
O2 O 0.4168(13) 0.5129(7) 0.3267(2)
N1 N 0.6521(12) 0.7361(7) 0.2928(2)
N2 N 0.4918(11) 0.5252(7) 0.4286(2)
C1 C 0.5366(14) 0.5535(9) 0.4764(3)
C2 C 0.5507(15) 0.6298(9) 0.3358(3)
C3 C 0.5969(14) 0.6508(9) 0.3921(3)
C4 C 0.7249(14) 0.7733(8) 0.4140(3)
C5 C 0.8554(14) 0.9196(9) 0.3879(3)
C6 C 1.1138(15) 1.1779(9) 0.3692(3)
H1 H 1.210815 1.278177 0.369503
C7 C 1.0565(16) 1.1068(9) 0.3244(3)
H2 H 1.112174 1.150403 0.289931
C8 C 0.9036(15) 0.9595(9) 0.3352(3)
C9 C 0.8171(16) 0.8753(9) 0.2889(3)
C10 C 0.5832(16) 0.6874(10) 0.2399(3)
H3 H 0.531839 0.808450 0.216313
H4 H 0.408730 0.634424 0.243990
C11 C 0.8413(17) 0.5390(10) 0.2141(3)
H5 H 0.971533 0.608689 0.193297
H6 H 0.958800 0.452425 0.241901
C12 C 0.7327(18) 0.4163(11) 0.1783(3)
H7 H 0.607829 0.344039 0.199661
H8 H 0.607321 0.504447 0.151748
C13 C 0.9799(18) 0.2713(11) 0.1499(3)
H9 H 1.119313 0.193472 0.176026
H10 H 1.089778 0.343930 0.125055
C14 C 0.8676(19) 0.1326(12) 0.1193(3)
H11 H 0.748330 0.065445 0.143821
H12 H 0.736501 0.210117 0.091934
C15 C 1.1157(19) -0.0207(11) 0.0930(3)
H13 H 1.226424 0.045693 0.066590
H14 H 1.254631 -0.092735 0.119956
C16 C 1.000(2) -0.1651(12) 0.0661(3)
H15 H 0.857054 -0.092635 0.039850
H16 H 0.893398 -0.233711 0.092740
C17 C 1.248(2) -0.3173(13) 0.0383(4)
H17 H 1.387307 -0.392483 0.064268
H18 H 1.353064 -0.250506 0.011528
H19 H 1.162125 -0.405545 0.021431
S1A S 0.2876(4) 0.2638(2) 0.51779(7)
S2A S 0.0106(4) -0.0644(2) 0.57491(7)
O1A O 0.1070(13) 0.0688(8) 0.7548(2)
O2A O 0.5832(13) 0.4871(7) 0.6733(2)
N1A N 0.3479(12) 0.2639(7) 0.7072(2)
N2A N 0.5082(11) 0.4748(7) 0.5714(2)
C1A C 0.4634(14) 0.4465(9) 0.5236(3)
C2A C 0.4493(15) 0.3702(9) 0.6642(3)
C3A C 0.4031(14) 0.3492(9) 0.6079(3)
C4A C 0.2751(14) 0.2267(8) 0.5860(3)
C5A C 0.1446(14) 0.0804(9) 0.6121(3)
C6A C -0.1138(15) -0.1779(9) 0.6308(3)
H1A H -0.210815 -0.278177 0.630497
C7A C -0.0565(16) -0.1068(9) 0.6756(3)
H2A H -0.112174 -0.150403 0.710069
C8A C 0.0964(15) 0.0405(9) 0.6648(3)
C9A C 0.1829(16) 0.1247(9) 0.7111(3)
C10A C 0.4168(16) 0.3126(10) 0.7601(3)
H3A H 0.468161 0.191550 0.783687
H4A H 0.591270 0.365576 0.756010
C11A C 0.1587(17) 0.4610(10) 0.7859(3)
H5A H 0.028467 0.391311 0.806703
H6A H 0.041200 0.547575 0.758099
C12A C 0.2673(18) 0.5837(11) 0.8217(3)
H7A H 0.392171 0.655961 0.800339
H8A H 0.392679 0.495553 0.848252
C13A C 0.0201(18) 0.7287(11) 0.8501(3)
H9A H -0.119313 0.806528 0.823974
H10A H -0.089778 0.656070 0.874945
C14A C 0.1324(19) 0.8674(12) 0.8807(3)
H11A H 0.251670 0.934555 0.856179
H12A H 0.263499 0.789883 0.908066
C15A C -0.1157(19) 1.0207(11) 0.9070(3)
H13A H -0.226424 0.954307 0.933410
H14A H -0.254631 1.092735 0.880044
C16A C 0.000(2) 1.1651(12) 0.9339(3)
H15A H 0.142946 1.092635 0.960150
H16A H 0.106602 1.233711 0.907260
C17A C -0.248(2) 1.3173(13) 0.9617(4)
H17A H -0.387307 1.392483 0.935732
H18A H -0.353064 1.250506 0.988472
H19A H -0.162125 1.405545 0.978569
loop_
_geom_bond_atom_site_label_1
_geom_bond_atom_site_label_2
_geom_bond_site_symmetry_1
_geom_bond_site_symmetry_2
S1 C1 1_555 1_555
S2 C5 1_555 1_555
O1 C9 1_555 1_555
O2 C2 1_555 1_555
N1 C2 1_555 1_555
N2 C1 1_555 1_555
C1 C1A 1_555 1_555
C2 C3 1_555 1_555
C3 N2 1_555 1_555
C4 S1 1_555 1_555
C5 C4 1_555 1_555
C6 S2 1_555 1_555
H1 C6 1_555 1_555
C7 C6 1_555 1_555
H2 C7 1_555 1_555
C8 C5 1_555 1_555
C9 N1 1_555 1_555
C10 N1 1_555 1_555
H3 C10 1_555 1_555
H4 C10 1_555 1_555
C11 C10 1_555 1_555
H5 C11 1_555 1_555
H6 C11 1_555 1_555
C12 C11 1_555 1_555
H7 C12 1_555 1_555
H8 C12 1_555 1_555
C13 C12 1_555 1_555
H9 C13 1_555 1_555
H10 C13 1_555 1_555
C14 C13 1_555 1_555
H11 C14 1_555 1_555
H12 C14 1_555 1_555
C15 C14 1_555 1_555
H13 C15 1_555 1_555
H14 C15 1_555 1_555
C16 C15 1_555 1_555
H15 C16 1_555 1_555
H16 C16 1_555 1_555
C17 C16 1_555 1_555
H17 C17 1_555 1_555
H18 C17 1_555 1_555
H19 C17 1_555 1_555
S1A C1A 1_555 1_555
S2A C5A 1_555 1_555
O1A C9A 1_555 1_555
O2A C2A 1_555 1_555
N1A C2A 1_555 1_555
N2A C1A 1_555 1_555
C2A C3A 1_555 1_555
C3A N2A 1_555 1_555
C4A S1A 1_555 1_555
C5A C4A 1_555 1_555
C6A S2A 1_555 1_555
H1A C6A 1_555 1_555
C7A C6A 1_555 1_555
H2A C7A 1_555 1_555
C8A C5A 1_555 1_555
C9A N1A 1_555 1_555
C10A N1A 1_555 1_555
H3A C10A 1_555 1_555
H4A C10A 1_555 1_555
C11A C10A 1_555 1_555
H5A C11A 1_555 1_555
H6A C11A 1_555 1_555
C12A C11A 1_555 1_555
H7A C12A 1_555 1_555
H8A C12A 1_555 1_555
C13A C12A 1_555 1_555
H9A C13A 1_555 1_555
H10A C13A 1_555 1_555
C14A C13A 1_555 1_555
H11A C14A 1_555 1_555
H12A C14A 1_555 1_555
C15A C14A 1_555 1_555
H13A C15A 1_555 1_555
H14A C15A 1_555 1_555
C16A C15A 1_555 1_555
H15A C16A 1_555 1_555
H16A C16A 1_555 1_555
C17A C16A 1_555 1_555
H17A C17A 1_555 1_555
H18A C17A 1_555 1_555
H19A C17A 1_555 1_555
C3 C4 1_555 1_555
C7 C8 1_555 1_555
C8 C9 1_555 1_555
C3A C4A 1_555 1_555
C7A C8A 1_555 1_555
C8A C9A 1_555 1_555

#END
