
#######################################################################
#
#                 Cambridge Crystallographic Data Centre
#                                CCDC 
#
#######################################################################
#
# If this CIF has been generated from an entry in the Cambridge 
# Structural Database, then it will include bibliographic, chemical, 
# crystal, experimental, refinement or atomic coordinate data resulting 
# from the CCDC's data processing and validation procedures.
#
#######################################################################

data_PETLOS
_chemical_formula_moiety         'C22 H30 O4 S2'
_chemical_name_systematic        "dihexyl 2,2'-bithiophene-5,5'-dicarboxylate"
_symmetry_cell_setting           triclinic
_symmetry_space_group_name_H-M   'P -1'
_symmetry_Int_Tables_number      2
_space_group_name_Hall           '-P 1'
loop_
_symmetry_equiv_pos_site_id
_symmetry_equiv_pos_as_xyz
1 x,y,z
2 -x,-y,-z
_cell_length_a                   4.768(1)
_cell_length_b                   5.510(2)
_cell_length_c                   23.298(13)
_cell_angle_alpha                91.29(4)
_cell_angle_beta                 95.04(3)
_cell_angle_gamma                106.78(3)
_cell_volume                     583.014
_exptl_crystal_colour            colorless
_cell_formula_units_Z            1
loop_
_atom_site_label
_atom_site_type_symbol
_atom_site_fract_x
_atom_site_fract_y
_atom_site_fract_z
S1 S 0.6403(2) 0.8961(1) 0.4312(1)
O1 O 0.5030(5) 1.2888(5) 0.2997(1)
O2 O 0.2539(5) 0.9123(4) 0.3304(1)
C1 C 0.9540(6) 1.0552(6) 0.4747(1)
C2 C 1.0815(7) 1.2836(6) 0.4527(2)
C3 C 0.9312(7) 1.3297(6) 0.4020(1)
C4 C 0.6843(7) 1.1380(6) 0.3850(1)
C5 C 0.4781(7) 1.1284(7) 0.3337(2)
C6 C 0.0407(8) 0.8672(7) 0.2800(1)
C7 C 0.1304(9) 0.7264(9) 0.2331(2)
C8 C -0.0981(11) 0.6332(11) 0.1841(2)
C9 C -0.0080(15) 0.4801(16) 0.1390(2)
C10 C -0.237(2) 0.353(2) 0.0960(4)
C11 C -0.128(3) 0.199(2) 0.0554(4)
H1 H 1.2533 1.3984 0.4700
H2 H 0.9937 1.4766 0.3819
H3 H 0.0246 1.0282 0.2664
H4 H -0.1508 0.7700 0.2903
H5 H 0.3051 0.8367 0.2188
H6 H 0.1825 0.5825 0.2492
H7 H -0.1424 0.7774 0.1664
H8 H -0.2765 0.5297 0.1985
H9 H 0.1501 0.5919 0.1203
H10 H 0.0695 0.3548 0.1580
H11 H -0.3091 0.4765 0.0751
H12 H -0.3993 0.2434 0.1142
H13 H -0.1566 0.2521 0.0169
H14 H -0.2337 0.0234 0.0573
H15 H 0.0783 0.2233 0.0657
S1A S 1.3597(2) 1.1039(1) 0.5688(1)
O1A O 1.4970(5) 0.7112(5) 0.7003(1)
O2A O 1.7461(5) 1.0877(4) 0.6696(1)
C1A C 1.0460(6) 0.9448(6) 0.5253(1)
C2A C 0.9185(7) 0.7164(6) 0.5473(2)
C3A C 1.0688(7) 0.6703(6) 0.5980(1)
C4A C 1.3157(7) 0.8620(6) 0.6150(1)
C5A C 1.5219(7) 0.8716(7) 0.6663(2)
C6A C 1.9593(8) 1.1328(7) 0.7200(1)
C7A C 1.8696(9) 1.2736(9) 0.7669(2)
C8A C 2.0981(11) 1.3668(11) 0.8159(2)
C9A C 2.0080(15) 1.5199(16) 0.8610(2)
C10A C 2.237(2) 1.647(2) 0.9040(4)
C11A C 2.128(3) 1.801(2) 0.9446(4)
H1A H 0.7467 0.6016 0.5300
H2A H 1.0063 0.5234 0.6181
H3A H 1.9754 0.9718 0.7336
H4A H 2.1508 1.2300 0.7097
H5A H 1.6949 1.1633 0.7812
H6A H 1.8175 1.4175 0.7508
H7A H 2.1424 1.2226 0.8336
H8A H 2.2765 1.4703 0.8015
H9A H 1.8499 1.4081 0.8797
H10A H 1.9305 1.6452 0.8420
H11A H 2.3091 1.5235 0.9249
H12A H 2.3993 1.7566 0.8858
H13A H 2.1566 1.7479 0.9831
H14A H 2.2337 1.9766 0.9427
H15A H 1.9217 1.7767 0.9343
loop_
_geom_bond_atom_site_label_1
_geom_bond_atom_site_label_2
_geom_bond_site_symmetry_1
_geom_bond_site_symmetry_2
S1 C1 1_555 1_555
O1 C5 1_555 1_555
O2 C5 1_555 1_555
C1 C2 1_555 1_555
C2 C3 1_555 1_555
C3 C4 1_555 1_555
C4 S1 1_555 1_555
C5 C4 1_555 1_555
C6 O2 1_555 1_555
C7 C6 1_555 1_555
C8 C7 1_555 1_555
C9 C8 1_555 1_555
C10 C9 1_555 1_555
C11 C10 1_555 1_555
H1 C2 1_555 1_555
H2 C3 1_555 1_555
H3 C6 1_555 1_555
H4 C6 1_555 1_555
H5 C7 1_555 1_555
H6 C7 1_555 1_555
H7 C8 1_555 1_555
H8 C8 1_555 1_555
H9 C9 1_555 1_555
H10 C9 1_555 1_555
H11 C10 1_555 1_555
H12 C10 1_555 1_555
H13 C11 1_555 1_555
H14 C11 1_555 1_555
H15 C11 1_555 1_555
S1A C1A 1_555 1_555
O1A C5A 1_555 1_555
O2A C5A 1_555 1_555
C1A C1 1_555 1_555
C2A C1A 1_555 1_555
C3A C2A 1_555 1_555
C4A S1A 1_555 1_555
C5A C4A 1_555 1_555
C6A O2A 1_555 1_555
C7A C6A 1_555 1_555
C8A C7A 1_555 1_555
C9A C8A 1_555 1_555
C10A C9A 1_555 1_555
C11A C10A 1_555 1_555
H1A C2A 1_555 1_555
H2A C3A 1_555 1_555
H3A C6A 1_555 1_555
H4A C6A 1_555 1_555
H5A C7A 1_555 1_555
H6A C7A 1_555 1_555
H7A C8A 1_555 1_555
H8A C8A 1_555 1_555
H9A C9A 1_555 1_555
H10A C9A 1_555 1_555
H11A C10A 1_555 1_555
H12A C10A 1_555 1_555
H13A C11A 1_555 1_555
H14A C11A 1_555 1_555
H15A C11A 1_555 1_555
C3A C4A 1_555 1_555

#END
