
#######################################################################
#
#                 Cambridge Crystallographic Data Centre
#                                CCDC 
#
#######################################################################
#
# If this CIF has been generated from an entry in the Cambridge 
# Structural Database, then it will include bibliographic, chemical, 
# crystal, experimental, refinement or atomic coordinate data resulting 
# from the CCDC's data processing and validation procedures.
#
#######################################################################

data_PETPUB
_chemical_formula_moiety         'C10 H8 N4,2(C6 H1 Br1 F4 O1)'
_chemical_name_systematic        
"bis(4-Bromo-2,3,5,6-tetrafluorophenol) 3,3'-diazene-1,2-diyldipyridine"
_symmetry_cell_setting           monoclinic
_symmetry_space_group_name_H-M   'P 21/c'
_symmetry_Int_Tables_number      14
_space_group_name_Hall           '-P 2ybc'
loop_
_symmetry_equiv_pos_site_id
_symmetry_equiv_pos_as_xyz
1 x,y,z
2 -x,1/2+y,1/2-z
3 -x,-y,-z
4 x,1/2-y,1/2+z
_cell_length_a                   18.2149(8)
_cell_length_b                   16.4379(7)
_cell_length_c                   7.4736(4)
_cell_angle_alpha                90
_cell_angle_beta                 99.631(2)
_cell_angle_gamma                90
_cell_volume                     2206.17
_exptl_crystal_colour            orange
_exptl_crystal_description       prism
_cell_formula_units_Z            4
loop_
_atom_site_label
_atom_site_type_symbol
_atom_site_fract_x
_atom_site_fract_y
_atom_site_fract_z
N1 N 0.29264(7) 0.32751(7) 0.40896(18)
C1 C 0.30085(8) 0.40847(8) 0.4039(2)
H1 H 0.3399 0.4303 0.3488
C2 C 0.25436(8) 0.46153(8) 0.47603(19)
N2 N 0.27126(7) 0.54567(7) 0.46323(17)
C3 C 0.19672(8) 0.43036(9) 0.5570(2)
H2 H 0.1644 0.4654 0.6084
C4 C 0.18814(8) 0.34703(9) 0.5601(2)
H3 H 0.1492 0.3236 0.6131
C5 C 0.23692(8) 0.29780(9) 0.4853(2)
H4 H 0.2305 0.2405 0.4884
N3 N 0.19879(7) 0.80875(7) 0.55643(17)
C6 C 0.18974(8) 0.72821(8) 0.5542(2)
H5 H 0.1444 0.7065 0.5807
C7 C 0.24367(7) 0.67506(8) 0.51482(18)
N4 N 0.22599(7) 0.59096(7) 0.52163(17)
C8 C 0.31036(8) 0.70602(8) 0.4763(2)
H6 H 0.3485 0.6708 0.4498
C9 C 0.31946(8) 0.78923(9) 0.4776(2)
H7 H 0.3640 0.8126 0.4505
C10 C 0.26286(8) 0.83857(9) 0.5190(2)
H8 H 0.2699 0.8958 0.5208
C11 C 0.42327(8) 0.18258(8) 0.29307(19)
O1 O 0.40806(6) 0.26162(6) 0.29728(17)
H9 H 0.3664(11) 0.2738(11) 0.336(3)
C12 C 0.37931(8) 0.12073(8) 0.3451(2)
F1 F 0.31726(5) 0.14030(5) 0.41067(14)
C13 C 0.39780(8) 0.04000(8) 0.3333(2)
F2 F 0.35257(5) -0.01624(5) 0.38514(13)
C14 C 0.46230(8) 0.01653(8) 0.27270(18)
Br1 Br 0.488727(9) -0.092590(8) 0.256845(19)
C15 C 0.50769(8) 0.07742(9) 0.22634(19)
F3 F 0.57247(5) 0.05899(5) 0.17431(13)
C16 C 0.48812(8) 0.15833(8) 0.2341(2)
F4 F 0.53358(5) 0.21526(5) 0.18432(14)
C17 C 0.07159(7) 0.95252(8) 0.68450(18)
O2 O 0.08600(6) 0.87391(6) 0.67382(15)
H10 H 0.1271(11) 0.8593(11) 0.634(2)
C18 C 0.11284(8) 1.01521(8) 0.62546(19)
F5 F 0.17296(5) 0.99637(5) 0.55136(14)
C19 C 0.09391(8) 1.09586(8) 0.6395(2)
F6 F 0.13703(5) 1.15257(5) 0.58130(14)
C20 C 0.03237(8) 1.11862(8) 0.71328(18)
Br2 Br 0.006115(8) 1.226936(8) 0.738025(19)
C21 C -0.00975(7) 1.05678(8) 0.77033(19)
F7 F -0.07127(5) 1.07446(5) 0.83880(14)
C22 C 0.00916(8) 0.97663(8) 0.75673(18)
F8 F -0.03455(5) 0.91892(5) 0.81072(14)
loop_
_geom_bond_atom_site_label_1
_geom_bond_atom_site_label_2
_geom_bond_site_symmetry_1
_geom_bond_site_symmetry_2
N1 C1 1_555 1_555
C1 H1 1_555 1_555
C2 C1 1_555 1_555
N2 C2 1_555 1_555
C3 C2 1_555 1_555
H2 C3 1_555 1_555
C4 C3 1_555 1_555
H3 C4 1_555 1_555
C5 N1 1_555 1_555
H4 C5 1_555 1_555
N3 C6 1_555 1_555
C6 H5 1_555 1_555
C7 C6 1_555 1_555
N4 N2 1_555 1_555
C8 C7 1_555 1_555
H6 C8 1_555 1_555
C9 C8 1_555 1_555
H7 C9 1_555 1_555
C10 N3 1_555 1_555
H8 C10 1_555 1_555
C11 O1 1_555 1_555
O1 H9 1_555 1_555
C12 C11 1_555 1_555
F1 C12 1_555 1_555
C13 C12 1_555 1_555
F2 C13 1_555 1_555
C14 C13 1_555 1_555
Br1 C14 1_555 1_555
C15 C14 1_555 1_555
F3 C15 1_555 1_555
C16 C11 1_555 1_555
F4 C16 1_555 1_555
C17 O2 1_555 1_555
O2 H10 1_555 1_555
C18 C17 1_555 1_555
F5 C18 1_555 1_555
C19 C18 1_555 1_555
F6 C19 1_555 1_555
C20 C19 1_555 1_555
Br2 C20 1_555 1_555
C21 C20 1_555 1_555
F7 C21 1_555 1_555
C22 C17 1_555 1_555
F8 C22 1_555 1_555
C4 C5 1_555 1_555
C7 N4 1_555 1_555
C9 C10 1_555 1_555
C15 C16 1_555 1_555
C21 C22 1_555 1_555

#END
