
#######################################################################
#
#                 Cambridge Crystallographic Data Centre
#                                CCDC 
#
#######################################################################
#
# If this CIF has been generated from an entry in the Cambridge 
# Structural Database, then it will include bibliographic, chemical, 
# crystal, experimental, refinement or atomic coordinate data resulting 
# from the CCDC's data processing and validation procedures.
#
#######################################################################

data_PEVFEE
_chemical_formula_moiety         'C27 H20 Br1 N1 O1 Se1'
_chemical_name_systematic        
3-(4-bromophenyl)-N-phenyl-3-[(phenylselanyl)methyl]-2-benzofuran-1(3H)-imine
_symmetry_cell_setting           monoclinic
_symmetry_space_group_name_H-M   'P 21/n'
_symmetry_Int_Tables_number      14
_space_group_name_Hall           '-P 2yn'
loop_
_symmetry_equiv_pos_site_id
_symmetry_equiv_pos_as_xyz
1 x,y,z
2 1/2-x,1/2+y,1/2-z
3 -x,-y,-z
4 1/2+x,1/2-y,1/2+z
_cell_length_a                   13.917(3)
_cell_length_b                   10.417(2)
_cell_length_c                   16.611(4)
_cell_angle_alpha                90
_cell_angle_beta                 103.506(4)
_cell_angle_gamma                90
_cell_volume                     2341.56
_exptl_crystal_colour            colorless
_exptl_crystal_description       block
_cell_formula_units_Z            4
loop_
_atom_site_label
_atom_site_type_symbol
_atom_site_fract_x
_atom_site_fract_y
_atom_site_fract_z
Br1 Br 0.78289(5) 0.54728(8) -0.04827(4)
C1 C 0.6926(4) 0.6433(5) -0.0018(3)
C2 C 0.7252(4) 0.7064(5) 0.0711(3)
H1 H 0.7918 0.7041 0.0978
C3 C 0.6598(4) 0.7734(4) 0.1050(3)
H2 H 0.6819 0.8145 0.1556
C4 C 0.5610(3) 0.7803(4) 0.0646(3)
C5 C 0.5308(4) 0.7172(5) -0.0096(3)
H3 H 0.4647 0.7212 -0.0376
C6 C 0.5959(4) 0.6484(6) -0.0434(4)
H4 H 0.5743 0.6060 -0.0937
C7 C 0.4904(3) 0.8562(4) 0.1046(3)
C8 C 0.4755(3) 0.7944(4) 0.1830(3)
C9 C 0.5073(3) 0.8771(4) 0.2480(3)
C10 C 0.4992(4) 0.8445(6) 0.3272(3)
H5 H 0.5192 0.9007 0.3714
C11 C 0.4603(4) 0.7261(7) 0.3377(4)
H6 H 0.4543 0.7016 0.3902
C12 C 0.4304(4) 0.6435(6) 0.2725(4)
H7 H 0.4050 0.5637 0.2819
C13 C 0.4368(4) 0.6754(5) 0.1940(4)
H8 H 0.4159 0.6193 0.1499
C14 C 0.5474(3) 0.9927(5) 0.2174(3)
C15 C 0.3939(3) 0.8907(4) 0.0441(3)
H9 H 0.3566 0.8124 0.0281
H10 H 0.4091 0.9265 -0.0053
C16 C 0.2255(8) 0.8861(11) 0.1170(6)
C17 C 0.2381(4) 0.8666(5) 0.2015(4)
H11 H 0.2854 0.9123 0.2395
C18 C 0.1782(4) 0.7768(5) 0.2277(4)
H12 H 0.1871 0.7588 0.2838
C19 C 0.1048(4) 0.7137(5) 0.1701(4)
H13 H 0.0647 0.6536 0.1877
C20 C 0.0915(4) 0.7405(5) 0.0862(4)
H14 H 0.0425 0.6983 0.0477
C21 C 0.1515(4) 0.8303(5) 0.0600(4)
H15 H 0.1410 0.8517 0.0043
C22 C 0.6272(4) 1.1884(4) 0.2206(3)
C23 C 0.6012(4) 1.3148(5) 0.2321(3)
H16 H 0.5537 1.3326 0.2617
C24 C 0.6458(5) 1.4137(5) 0.1994(4)
H17 H 0.6263 1.4979 0.2050
C25 C 0.7183(5) 1.3888(6) 0.1591(4)
H18 H 0.7493 1.4559 0.1384
C26 C 0.7454(4) 1.2644(6) 0.1491(3)
H19 H 0.7949 1.2473 0.1215
C27 C 0.6998(4) 1.1653(5) 0.1795(3)
H20 H 0.7185 1.0812 0.1721
N1 N 0.5839(3) 1.0888(4) 0.2590(2)
O1 O 0.5393(2) 0.9767(3) 0.13439(18)
Se1 Se 0.31032(4) 1.01203(5) 0.08570(4)
C28? C 0.2049(12) 0.9138(19) 0.1116(16)
C29? C 0.2199(11) 0.832(2) 0.1795(15)
H21? H 0.2790 0.8347 0.2195
C30? C 0.1463(15) 0.746(2) 0.1875(14)
H22? H 0.1563 0.6910 0.2330
C31? C 0.0579(13) 0.7416(18) 0.1277(14)
H23? H 0.0088 0.6840 0.1331
C32? C 0.0430(13) 0.824(2) 0.0599(12)
H24? H -0.0161 0.8207 0.0198
C33? C 0.1165(16) 0.910(2) 0.0518(12)
H25? H 0.1066 0.9644 0.0064
loop_
_geom_bond_atom_site_label_1
_geom_bond_atom_site_label_2
_geom_bond_site_symmetry_1
_geom_bond_site_symmetry_2
Br1 C1 1_555 1_555
C1 C2 1_555 1_555
C2 H1 1_555 1_555
C3 C2 1_555 1_555
H2 C3 1_555 1_555
C4 C3 1_555 1_555
C5 C4 1_555 1_555
H3 C5 1_555 1_555
C6 C1 1_555 1_555
H4 C6 1_555 1_555
C7 C4 1_555 1_555
C8 C7 1_555 1_555
C9 C8 1_555 1_555
C10 C9 1_555 1_555
H5 C10 1_555 1_555
C11 C10 1_555 1_555
H6 C11 1_555 1_555
C12 C11 1_555 1_555
H7 C12 1_555 1_555
C13 C8 1_555 1_555
H8 C13 1_555 1_555
C14 C9 1_555 1_555
C15 C7 1_555 1_555
H9 C15 1_555 1_555
H10 C15 1_555 1_555
C16 C17 1_555 1_555
C17 H11 1_555 1_555
C18 C17 1_555 1_555
H12 C18 1_555 1_555
C19 C18 1_555 1_555
H13 C19 1_555 1_555
C20 C19 1_555 1_555
H14 C20 1_555 1_555
C21 C16 1_555 1_555
H15 C21 1_555 1_555
C22 C23 1_555 1_555
C23 H16 1_555 1_555
C24 C23 1_555 1_555
H17 C24 1_555 1_555
C25 C24 1_555 1_555
H18 C25 1_555 1_555
C26 C25 1_555 1_555
H19 C26 1_555 1_555
C27 C22 1_555 1_555
H20 C27 1_555 1_555
N1 C14 1_555 1_555
O1 C7 1_555 1_555
Se1 C15 1_555 1_555
C5 C6 1_555 1_555
C12 C13 1_555 1_555
C14 O1 1_555 1_555
C16 Se1 1_555 1_555
C20 C21 1_555 1_555
C22 N1 1_555 1_555
C26 C27 1_555 1_555

#END
