
#######################################################################
#
#                 Cambridge Crystallographic Data Centre
#                                CCDC 
#
#######################################################################
#
# If this CIF has been generated from an entry in the Cambridge 
# Structural Database, then it will include bibliographic, chemical, 
# crystal, experimental, refinement or atomic coordinate data resulting 
# from the CCDC's data processing and validation procedures.
#
#######################################################################

data_PEVJUX
_chemical_formula_moiety         'C23 H21 Cl1 N2 O5'
_chemical_name_systematic        
"Ethyl 5'-(4-chlorophenyl)-2,2''-dioxo-1'',2'',4,5-tetrahydrodispiro[furan-3,2'-pyrrolidine-4',3''-indole]-3'-carboxylate"
_symmetry_cell_setting           orthorhombic
_symmetry_space_group_name_H-M   'P 21 21 21'
_symmetry_Int_Tables_number      19
_space_group_name_Hall           'P 2ac 2ab'
loop_
_symmetry_equiv_pos_site_id
_symmetry_equiv_pos_as_xyz
1 x,y,z
2 1/2-x,-y,1/2+z
3 1/2+x,1/2-y,-z
4 -x,1/2+y,1/2-z
_cell_length_a                   6.39013(18)
_cell_length_b                   16.4094(5)
_cell_length_c                   20.8853(6)
_cell_angle_alpha                90
_cell_angle_beta                 90
_cell_angle_gamma                90
_cell_volume                     2189.99
_exptl_crystal_colour            'dark colorless'
_exptl_crystal_description       block
_cell_formula_units_Z            4
loop_
_atom_site_label
_atom_site_type_symbol
_atom_site_fract_x
_atom_site_fract_y
_atom_site_fract_z
Cl1 Cl 0.70474(18) 0.07856(6) 0.42850(5)
O1 O 0.2603(4) 0.44154(17) 0.37980(12)
O2 O 0.4383(5) 0.6049(2) 0.54261(13)
O3 O 0.7503(5) 0.6627(2) 0.54808(14)
O4 O 0.4050(5) 0.65032(19) 0.32427(14)
O5 O 0.6640(5) 0.71095(18) 0.37709(13)
N1 N 0.4161(5) 0.4410(2) 0.28114(14)
H1 H 0.3224 0.4143 0.2603
N2 N 0.7055(5) 0.48120(18) 0.47748(12)
H2 H 0.6870 0.4567 0.5135
C1 C 0.5998(6) 0.4736(2) 0.25344(17)
C2 C 0.6587(8) 0.4763(3) 0.19006(18)
H3 H 0.5748 0.4535 0.1584
C3 C 0.8450(8) 0.5137(3) 0.17480(19)
H4 H 0.8863 0.5167 0.1322
C4 C 0.9714(7) 0.5467(3) 0.22145(18)
H5 H 1.0984 0.5705 0.2103
C5 C 0.9098(6) 0.5447(2) 0.28452(17)
H6 H 0.9947 0.5673 0.3160
C6 C 0.7216(5) 0.5088(2) 0.30115(14)
C7 C 0.6121(5) 0.4972(2) 0.36461(15)
C8 C 0.4063(6) 0.4567(2) 0.34408(17)
C9 C 0.5628(5) 0.5742(2) 0.40532(14)
H7 H 0.4202 0.5660 0.4213
C10 C 0.7045(5) 0.5690(2) 0.46467(15)
C11 C 0.7454(5) 0.4449(2) 0.41449(14)
H8 H 0.8929 0.4557 0.4047
C12 C 0.9285(6) 0.6030(3) 0.46139(18)
H9 H 1.0301 0.5597 0.4671
H10 H 0.9534 0.6290 0.4204
C13 C 0.9442(9) 0.6619(5) 0.5130(3)
H11 H 1.0586 0.6474 0.5413
H12 H 0.9720 0.7157 0.4956
C14 C 0.6132(6) 0.6129(2) 0.52124(17)
C15 C 0.5559(6) 0.6526(2) 0.36833(16)
C16 C 0.3880(9) 0.7205(3) 0.2804(3)
H13 H 0.2468 0.7232 0.2635
H14 H 0.4142 0.7704 0.3041
C17 C 0.5303(14) 0.7151(4) 0.2293(3)
H15 H 0.5115 0.7608 0.2012
H16 H 0.5060 0.6655 0.2061
H17 H 0.6706 0.7152 0.2457
C18 C 0.7206(5) 0.3531(2) 0.41420(13)
C19 C 0.8792(5) 0.3054(2) 0.38882(17)
H18 H 0.9913 0.3308 0.3686
C20 C 0.8761(5) 0.2218(2) 0.39252(18)
H19 H 0.9862 0.1910 0.3763
C21 C 0.7060(6) 0.1846(2) 0.42081(15)
C22 C 0.5448(6) 0.2285(2) 0.44533(16)
H20 H 0.4312 0.2023 0.4640
C23 C 0.5511(6) 0.3138(2) 0.44222(16)
H21 H 0.4412 0.3442 0.4590
loop_
_geom_bond_atom_site_label_1
_geom_bond_atom_site_label_2
_geom_bond_site_symmetry_1
_geom_bond_site_symmetry_2
Cl1 C21 1_555 1_555
O1 C8 1_555 1_555
O2 C14 1_555 1_555
O3 C13 1_555 1_555
O4 C15 1_555 1_555
O5 C15 1_555 1_555
N1 H1 1_555 1_555
N2 H2 1_555 1_555
C1 N1 1_555 1_555
C2 C1 1_555 1_555
H3 C2 1_555 1_555
C3 C2 1_555 1_555
H4 C3 1_555 1_555
C4 C3 1_555 1_555
H5 C4 1_555 1_555
C5 C4 1_555 1_555
H6 C5 1_555 1_555
C6 C1 1_555 1_555
C7 C6 1_555 1_555
C8 N1 1_555 1_555
C9 C7 1_555 1_555
H7 C9 1_555 1_555
C10 N2 1_555 1_555
C11 N2 1_555 1_555
H8 C11 1_555 1_555
C12 C10 1_555 1_555
H9 C12 1_555 1_555
H10 C12 1_555 1_555
C13 C12 1_555 1_555
H11 C13 1_555 1_555
H12 C13 1_555 1_555
C14 O3 1_555 1_555
C15 C9 1_555 1_555
C16 O4 1_555 1_555
H13 C16 1_555 1_555
H14 C16 1_555 1_555
C17 C16 1_555 1_555
H15 C17 1_555 1_555
H16 C17 1_555 1_555
H17 C17 1_555 1_555
C18 C11 1_555 1_555
C19 C18 1_555 1_555
H18 C19 1_555 1_555
C20 C19 1_555 1_555
H19 C20 1_555 1_555
C21 C20 1_555 1_555
C22 C21 1_555 1_555
H20 C22 1_555 1_555
C23 C18 1_555 1_555
H21 C23 1_555 1_555
C5 C6 1_555 1_555
C7 C8 1_555 1_555
C7 C11 1_555 1_555
C9 C10 1_555 1_555
C10 C14 1_555 1_555
C22 C23 1_555 1_555

#END
