
#######################################################################
#
#                 Cambridge Crystallographic Data Centre
#                                CCDC 
#
#######################################################################
#
# If this CIF has been generated from an entry in the Cambridge 
# Structural Database, then it will include bibliographic, chemical, 
# crystal, experimental, refinement or atomic coordinate data resulting 
# from the CCDC's data processing and validation procedures.
#
#######################################################################

data_PEVKUW
_chemical_formula_moiety         'C19 H16 O1,2(C6 H3 N3 O6)'
_chemical_name_systematic        
'2,5-Dibenzylidenecyclopentanone bis(1,3,5-trinitrobenzene)'
_symmetry_cell_setting           monoclinic
_symmetry_space_group_name_H-M   'P 21/c'
_symmetry_Int_Tables_number      14
_space_group_name_Hall           '-P 2ybc'
loop_
_symmetry_equiv_pos_site_id
_symmetry_equiv_pos_as_xyz
1 x,y,z
2 -x,1/2+y,1/2-z
3 -x,-y,-z
4 x,1/2-y,1/2+z
_cell_length_a                   7.493(2)
_cell_length_b                   27.384(6)
_cell_length_c                   7.491(2)
_cell_angle_alpha                90
_cell_angle_beta                 92.39(2)
_cell_angle_gamma                90
_cell_volume                     1535.73
_chemical_melting_point          169deg.C
_cell_formula_units_Z            2
loop_
_atom_site_label
_atom_site_type_symbol
_atom_site_fract_x
_atom_site_fract_y
_atom_site_fract_z
C1 C -0.0325(1) 0.1428(2) 0.1810(4)
C2 C -0.0030(4) 0.0935(1) 0.1705(4)
C3 C 0.0769(3) 0.0712(1) 0.3165(4)
C4 C 0.1269(4) 0.0959(1) 0.4699(4)
C5 C 0.0954(4) 0.1453(1) 0.4717(4)
C6 C 0.0156(3) 0.1701(1) 0.3293(4)
N1 N -0.1205(4) 0.1678(1) 0.0262(4)
N2 N 0.1498(4) 0.1728(1) 0.6352(4)
N3 N 0.1116(4) 0.0180(1) 0.3079(4)
O1 O -0.1711(4) 0.1425(1) -0.0983(1)
O2 O -0.1395(4) 0.2114(1) 0.0344(4)
O3 O 0.1354(4) 0.2164(1) 0.6300(4)
O4 O 0.2063(4) 0.1503(1) 0.7640(4)
O5 O 0.1858(4) -0.0010(1) 0.4357(4)
O6 O 0.0660(5) -0.0032(1) 0.1765(4)
H1 H -0.037(3) 0.0751(7) 0.067(3)
H2 H 0.187(3) 0.0816(7) 0.567(2)
H3 H -0.003(3) 0.2043(8) 0.338(2)
C7? C 0.536(2) -0.0175(7) 0.148(3)
C8? C 0.515(2) 0.0343(5) 0.131(1)
C9? C 0.447(1) 0.0484(4) -0.052(2)
C10? C 0.423(4) 0.000(1) -0.149(3)
C11? C 0.504(1) -0.0410(4) -0.043(2)
C12? C 0.552(1) 0.0626(2) 0.279(1)
C13? C 0.533(2) 0.1152(2) 0.307(1)
C14? C 0.602(2) 0.1345(5) 0.468(1)
C15? C 0.589(2) 0.1835(5) 0.512(2)
C16? C 0.524(4) 0.2140(6) 0.382(3)
C17? C 0.453(1) 0.1965(3) 0.221(2)
C18? C 0.462(3) 0.1472(3) 0.182(2)
C19? C 0.524(1) -0.0868(2) -0.066(1)
C20? C 0.485(2) -0.1171(3) -0.221(1)
C21? C 0.520(2) -0.1672(4) -0.210(1)
C22? C 0.488(5) -0.1985(6) -0.350(2)
C23? C 0.413(3) -0.1789(5) -0.506(2)
C24? C 0.390(2) -0.1293(4) -0.533(1)
C25? C 0.423(1) -0.0996(4) -0.387(1)
O7? O 0.594(1) -0.0407(1) 0.270(1)
H4? H 0.332(7) 0.066(2) -0.048(6)
H5? H 0.536(6) 0.070(1) -0.111(6)
H6? H 0.479(5) 0.001(1) -0.270(5)
H7? H 0.289(5) -0.001(1) -0.195(5)
H8? H 0.596(6) 0.043(1) 0.380(6)
H9? H 0.663(5) 0.112(1) 0.562(5)
H10? H 0.594(7) 0.201(2) 0.629(7)
H11? H 0.521(7) 0.247(1) 0.410(8)
H12? H 0.391(6) 0.220(2) 0.141(6)
H13? H 0.424(6) 0.133(1) 0.069(5)
H14? H 0.576(6) -0.102(2) 0.047(6)
H15? H 0.568(5) -0.177(2) -0.088(4)
H16? H 0.533(8) -0.232(2) -0.337(9)
H17? H 0.354(6) -0.195(2) -0.609(6)
H18? H 0.356(6) -0.114(2) -0.649(4)
H19? H 0.407(7) -0.066(1) -0.409(7)
loop_
_geom_bond_atom_site_label_1
_geom_bond_atom_site_label_2
_geom_bond_site_symmetry_1
_geom_bond_site_symmetry_2
C1 C2 1_555 1_555
C2 C3 1_555 1_555
C3 C4 1_555 1_555
C4 C5 1_555 1_555
C5 C6 1_555 1_555
C6 C1 1_555 1_555
N1 C1 1_555 1_555
N2 C5 1_555 1_555
N3 C3 1_555 1_555
O1 N1 1_555 1_555
O2 N1 1_555 1_555
O3 N2 1_555 1_555
O4 N2 1_555 1_555
O5 N3 1_555 1_555
O6 N3 1_555 1_555
H1 C2 1_555 1_555
H2 C4 1_555 1_555
H3 C6 1_555 1_555

#END
