
#######################################################################
#
#                 Cambridge Crystallographic Data Centre
#                                CCDC 
#
#######################################################################
#
# If this CIF has been generated from an entry in the Cambridge 
# Structural Database, then it will include bibliographic, chemical, 
# crystal, experimental, refinement or atomic coordinate data resulting 
# from the CCDC's data processing and validation procedures.
#
#######################################################################

data_PEVWES
_chemical_compound_source        'from Litsea excelsea'
_chemical_name_common            Valenc-1(10)-ene-8,11-diol
_chemical_formula_moiety         'C15 H26 O2'
_chemical_name_systematic        
(2S-(2\a,3\b,4a\a,5\a))-3-(2-Hydroxy-2-propyl)-4a,5-dimethyl-1,2,3,4,4a,5,6,7-octahydronaphthalen-2-ol
_symmetry_cell_setting           orthorhombic
_symmetry_space_group_name_H-M   'P 21 21 21'
_symmetry_Int_Tables_number      19
_space_group_name_Hall           'P 2ac 2ab'
loop_
_symmetry_equiv_pos_site_id
_symmetry_equiv_pos_as_xyz
1 x,y,z
2 1/2+x,1/2-y,-z
3 -x,1/2+y,1/2-z
4 1/2-x,-y,1/2+z
_cell_length_a                   14.070(4)
_cell_length_b                   13.027(6)
_cell_length_c                   7.64(1)
_cell_angle_alpha                90
_cell_angle_beta                 90
_cell_angle_gamma                90
_cell_volume                     1400.33
_chemical_melting_point          '176-178 deg.C'
_cell_formula_units_Z            4
loop_
_atom_site_label
_atom_site_type_symbol
_atom_site_fract_x
_atom_site_fract_y
_atom_site_fract_z
C1 C 0.4197(3) 0.5987(3) 0.3031(6)
C2 C 0.4240(4) 0.4846(4) 0.3042(8)
C3 C 0.4415(4) 0.4433(4) 0.4864(7)
C4 C 0.3806(3) 0.5006(3) 0.6209(7)
C5 C 0.4080(3) 0.6156(3) 0.6293(5)
C6 C 0.3272(3) 0.6748(3) 0.7213(6)
C7 C 0.3362(3) 0.7927(3) 0.7165(5)
C8 C 0.3397(3) 0.8252(3) 0.5230(6)
O1 O 0.3517(2) 0.9344(2) 0.5040(4)
C9 C 0.4215(4) 0.7729(3) 0.4310(6)
C10 C 0.4169(3) 0.6582(3) 0.4439(5)
C11 C 0.2585(3) 0.8474(3) 0.8248(6)
O2 O 0.2869(2) 0.9547(2) 0.8227(4)
C12 C 0.1602(4) 0.8375(4) 0.7505(8)
C13 C 0.2614(5) 0.8127(4) 1.0158(7)
C14 C 0.3832(4) 0.4462(4) 0.7995(8)
C15 C 0.5018(4) 0.6312(4) 0.7282(7)
H1 H 0.428(3) 0.637(3) 0.194(5)
H2 H 0.364(3) 0.458(3) 0.265(6)
H3 H 0.479(3) 0.463(4) 0.240(7)
H4 H 0.429(3) 0.365(3) 0.505(5)
H5 H 0.511(3) 0.449(3) 0.518(5)
H6 H 0.312(3) 0.498(3) 0.573(6)
H7 H 0.323(3) 0.650(3) 0.842(6)
H8 H 0.261(3) 0.649(2) 0.661(5)
H9 H 0.399(2) 0.808(2) 0.778(4)
H10 H 0.275(2) 0.803(2) 0.461(4)
H11 H 0.329(3) 0.965(3) 0.599(6)
H12 H 0.483(3) 0.805(3) 0.487(5)
H13 H 0.427(3) 0.796(3) 0.311(6)
H14 H 0.236(4) 0.994(3) 0.868(6)
H15 H 0.116(3) 0.868(3) 0.829(6)
H16 H 0.161(3) 0.876(4) 0.642(6)
H17 H 0.137(3) 0.764(3) 0.729(6)
H18 H 0.333(4) 0.819(4) 1.056(7)
H19 H 0.226(3) 0.855(3) 1.088(6)
H20 H 0.239(3) 0.737(3) 1.022(6)
H21 H 0.338(3) 0.482(3) 0.882(6)
H22 H 0.356(3) 0.377(3) 0.766(6)
H23 H 0.452(3) 0.438(4) 0.838(6)
H24 H 0.491(4) 0.613(4) 0.847(7)
H25 H 0.549(3) 0.589(3) 0.683(6)
H26 H 0.523(2) 0.706(3) 0.713(5)
loop_
_geom_bond_atom_site_label_1
_geom_bond_atom_site_label_2
_geom_bond_site_symmetry_1
_geom_bond_site_symmetry_2
C1 C2 1_555 1_555
C2 C3 1_555 1_555
C3 C4 1_555 1_555
C4 C5 1_555 1_555
C5 C6 1_555 1_555
C6 C7 1_555 1_555
C7 C8 1_555 1_555
C8 O1 1_555 1_555
O1 H11 1_555 1_555
C9 C8 1_555 1_555
C10 C1 1_555 1_555
C11 C7 1_555 1_555
O2 C11 1_555 1_555
C12 C11 1_555 1_555
C13 C11 1_555 1_555
C14 C4 1_555 1_555
C15 C5 1_555 1_555
H1 C1 1_555 1_555
H2 C2 1_555 1_555
H3 C2 1_555 1_555
H4 C3 1_555 1_555
H5 C3 1_555 1_555
H6 C4 1_555 1_555
H7 C6 1_555 1_555
H8 C6 1_555 1_555
H9 C7 1_555 1_555
H10 C8 1_555 1_555
H12 C9 1_555 1_555
H13 C9 1_555 1_555
H14 O2 1_555 1_555
H15 C12 1_555 1_555
H16 C12 1_555 1_555
H17 C12 1_555 1_555
H18 C13 1_555 1_555
H19 C13 1_555 1_555
H20 C13 1_555 1_555
H21 C14 1_555 1_555
H22 C14 1_555 1_555
H23 C14 1_555 1_555
H24 C15 1_555 1_555
H25 C15 1_555 1_555
H26 C15 1_555 1_555
C5 C10 1_555 1_555
C9 C10 1_555 1_555

#END
