
#######################################################################
#
#                 Cambridge Crystallographic Data Centre
#                                CCDC 
#
#######################################################################
#
# If this CIF has been generated from an entry in the Cambridge 
# Structural Database, then it will include bibliographic, chemical, 
# crystal, experimental, refinement or atomic coordinate data resulting 
# from the CCDC's data processing and validation procedures.
#
#######################################################################

data_PEWBAV
_chemical_formula_moiety         'C34 H55 N1 O2'
_chemical_name_systematic        
N,N-bis(3,5-Di-t-butyl-4-hydroxybenzyl)-N-butylamine
_symmetry_cell_setting           triclinic
_symmetry_space_group_name_H-M   'P -1'
_symmetry_Int_Tables_number      2
_space_group_name_Hall           '-P 1'
loop_
_symmetry_equiv_pos_site_id
_symmetry_equiv_pos_as_xyz
1 x,y,z
2 -x,-y,-z
_cell_length_a                   9.658(4)
_cell_length_b                   11.986(5)
_cell_length_c                   15.092(7)
_cell_angle_alpha                107.169(8)
_cell_angle_beta                 96.696(9)
_cell_angle_gamma                96.691(8)
_cell_volume                     1636.72
_exptl_crystal_colour            colorless
_exptl_crystal_description       block
_chemical_melting_point          '125 deg.C(dec.)'
_cell_formula_units_Z            2
loop_
_atom_site_label
_atom_site_type_symbol
_atom_site_fract_x
_atom_site_fract_y
_atom_site_fract_z
O1 O 0.9994(2) 1.28266(16) 0.54264(12)
H1 H 1.0686 1.3374 0.5704
O2 O 0.5253(2) 0.41150(15) 0.18166(13)
H2 H 0.5611 0.3527 0.1816
N1 N 0.8933(2) 0.87152(16) 0.14595(12)
C1 C 0.9939(3) 0.9811(2) 0.17421(16)
H3 H 0.9713 1.0254 0.1316
H4 H 1.0876 0.9616 0.1677
C2 C 0.9964(2) 1.05931(18) 0.27375(15)
C3 C 1.1101(2) 1.14691(18) 0.31774(16)
H5 H 1.1864 1.1533 0.2862
C4 C 1.1162(3) 1.22603(19) 0.40687(16)
C5 C 1.0008(3) 1.2100(2) 0.45248(16)
C6 C 0.8831(2) 1.12224(19) 0.41147(15)
C7 C 0.8846(2) 1.04963(18) 0.32109(15)
H6 H 0.8066 0.9919 0.2912
C8 C 0.9412(3) 0.7905(2) 0.19386(19)
H7 H 0.9752 0.8345 0.2594
H8 H 1.0201 0.7587 0.1667
C9 C 0.8286(2) 0.68903(19) 0.18821(15)
C10 C 0.8672(3) 0.5817(2) 0.19011(15)
H9 H 0.9620 0.5737 0.1926
C11 C 0.7707(3) 0.4864(2) 0.18852(15)
C12 C 0.6292(3) 0.5028(2) 0.18387(15)
C13 C 0.5827(2) 0.60900(19) 0.18027(14)
C14 C 0.6877(3) 0.70003(19) 0.18336(15)
H10 H 0.6618 0.7719 0.1821
C15 C 1.2423(3) 1.3255(2) 0.45085(17)
C16 C 1.3522(3) 1.3221(2) 0.3854(2)
H11 H 1.3874 1.2483 0.3734
H12 H 1.4287 1.3861 0.4145
H13 H 1.3094 1.3297 0.3272
C17 C 1.1928(3) 1.4473(2) 0.4682(2)
H14 H 1.2716 1.5090 0.4982
H15 H 1.1214 1.4528 0.5079
H16 H 1.1546 1.4556 0.4092
C18 C 1.3189(3) 1.3162(3) 0.54298(19)
H17 H 1.3452 1.2390 0.5321
H18 H 1.2572 1.3286 0.5893
H19 H 1.4021 1.3751 0.5651
C19 C 0.7580(3) 1.1047(2) 0.46249(16)
C20 C 0.8068(3) 1.0725(3) 0.5510(2)
H20 H 0.7280 1.0634 0.5830
H21 H 0.8786 1.1344 0.5918
H22 H 0.8442 0.9997 0.5335
C21 C 0.6434(3) 1.0053(3) 0.4002(2)
H23 H 0.5663 0.9968 0.4338
H24 H 0.6813 0.9327 0.3831
H25 H 0.6102 1.0238 0.3445
C22 C 0.6904(3) 1.2170(2) 0.4891(2)
H26 H 0.6648 1.2391 0.4339
H27 H 0.7566 1.2800 0.5340
H28 H 0.6075 1.2025 0.5160
C23 C 0.8174(3) 0.3681(2) 0.18908(17)
C24 C 0.9777(3) 0.3753(3) 0.1956(2)
H29 H 1.0232 0.4360 0.2522
H30 H 1.0069 0.3939 0.1423
H31 H 1.0035 0.3007 0.1966
C25 C 0.7776(4) 0.3330(3) 0.2738(2)
H32 H 0.8150 0.2627 0.2752
H33 H 0.6767 0.3183 0.2686
H34 H 0.8162 0.3960 0.3306
C26 C 0.7524(4) 0.2703(2) 0.0970(2)
H35 H 0.7887 0.2883 0.0454
H36 H 0.6516 0.2656 0.0879
H37 H 0.7763 0.1959 0.1002
C27 C 0.4263(2) 0.6238(2) 0.17205(16)
C28 C 0.3636(3) 0.6092(3) 0.2573(2)
H38 H 0.2667 0.6208 0.2511
H39 H 0.4159 0.6666 0.3135
H40 H 0.3690 0.5311 0.2608
C29 C 0.3414(3) 0.5362(3) 0.08125(18)
H41 H 0.2447 0.5486 0.0765
H42 H 0.3460 0.4568 0.0819
H43 H 0.3801 0.5481 0.0284
C30 C 0.4071(3) 0.7475(2) 0.1682(2)
H44 H 0.4470 0.7615 0.1164
H45 H 0.4540 0.8057 0.2257
H46 H 0.3083 0.7529 0.1602
C31 C 0.8508(12) 0.8307(9) 0.0420(4)
H47 H 0.8081 0.7481 0.0221
H48 H 0.9349 0.8360 0.0131
C32 C 0.7478(9) 0.9005(7) 0.0063(5)
H49 H 0.6667 0.9008 0.0387
H50 H 0.7932 0.9818 0.0210
C33 C 0.6979(6) 0.8495(5) -0.0987(4)
H51 H 0.6482 0.7696 -0.1129
H52 H 0.7793 0.8454 -0.1308
C34 C 0.6008(9) 0.9226(8) -0.1354(5)
H53 H 0.5227 0.9309 -0.1012
H54 H 0.5661 0.8837 -0.2009
H55 H 0.6522 0.9994 -0.1272
C35? C 0.8901(15) 0.7992(11) 0.0472(5)
H56? H 0.8344 0.7220 0.0353
H57? H 0.9853 0.7879 0.0365
C36? C 0.8268(7) 0.8595(8) -0.0196(4)
H58? H 0.8847 0.9357 -0.0082
H59? H 0.8293 0.8121 -0.0836
C37? C 0.6783(8) 0.8779(10) -0.0102(7)
H60? H 0.6764 0.9291 0.0527
H61? H 0.6212 0.8024 -0.0184
C38? C 0.6141(12) 0.9324(11) -0.0810(7)
H62? H 0.6761 1.0023 -0.0786
H63? H 0.5244 0.9529 -0.0663
H64? H 0.6012 0.8765 -0.1430
loop_
_geom_bond_atom_site_label_1
_geom_bond_atom_site_label_2
_geom_bond_site_symmetry_1
_geom_bond_site_symmetry_2
O1 H1 1_555 1_555
O2 H2 1_555 1_555
N1 C1 1_555 1_555
C1 H3 1_555 1_555
H4 C1 1_555 1_555
C2 C1 1_555 1_555
C3 C2 1_555 1_555
H5 C3 1_555 1_555
C4 C3 1_555 1_555
C5 O1 1_555 1_555
C6 C5 1_555 1_555
C7 C2 1_555 1_555
H6 C7 1_555 1_555
C8 N1 1_555 1_555
H7 C8 1_555 1_555
H8 C8 1_555 1_555
C9 C8 1_555 1_555
C10 C9 1_555 1_555
H9 C10 1_555 1_555
C11 C10 1_555 1_555
C12 O2 1_555 1_555
C13 C12 1_555 1_555
C14 C9 1_555 1_555
H10 C14 1_555 1_555
C15 C4 1_555 1_555
C16 C15 1_555 1_555
H11 C16 1_555 1_555
H12 C16 1_555 1_555
H13 C16 1_555 1_555
C17 C15 1_555 1_555
H14 C17 1_555 1_555
H15 C17 1_555 1_555
H16 C17 1_555 1_555
C18 C15 1_555 1_555
H17 C18 1_555 1_555
H18 C18 1_555 1_555
H19 C18 1_555 1_555
C19 C6 1_555 1_555
C20 C19 1_555 1_555
H20 C20 1_555 1_555
H21 C20 1_555 1_555
H22 C20 1_555 1_555
C21 C19 1_555 1_555
H23 C21 1_555 1_555
H24 C21 1_555 1_555
H25 C21 1_555 1_555
C22 C19 1_555 1_555
H26 C22 1_555 1_555
H27 C22 1_555 1_555
H28 C22 1_555 1_555
C23 C11 1_555 1_555
C24 C23 1_555 1_555
H29 C24 1_555 1_555
H30 C24 1_555 1_555
H31 C24 1_555 1_555
C25 C23 1_555 1_555
H32 C25 1_555 1_555
H33 C25 1_555 1_555
H34 C25 1_555 1_555
C26 C23 1_555 1_555
H35 C26 1_555 1_555
H36 C26 1_555 1_555
H37 C26 1_555 1_555
C27 C13 1_555 1_555
C28 C27 1_555 1_555
H38 C28 1_555 1_555
H39 C28 1_555 1_555
H40 C28 1_555 1_555
C29 C27 1_555 1_555
H41 C29 1_555 1_555
H42 C29 1_555 1_555
H43 C29 1_555 1_555
C30 C27 1_555 1_555
H44 C30 1_555 1_555
H45 C30 1_555 1_555
H46 C30 1_555 1_555
C31 N1 1_555 1_555
H47 C31 1_555 1_555
H48 C31 1_555 1_555
C32 C31 1_555 1_555
H49 C32 1_555 1_555
H50 C32 1_555 1_555
C33 C32 1_555 1_555
H51 C33 1_555 1_555
H52 C33 1_555 1_555
C34 C33 1_555 1_555
H53 C34 1_555 1_555
H54 C34 1_555 1_555
H55 C34 1_555 1_555
C4 C5 1_555 1_555
C6 C7 1_555 1_555
C11 C12 1_555 1_555
C13 C14 1_555 1_555

#END
