
#######################################################################
#
#                 Cambridge Crystallographic Data Centre
#                                CCDC 
#
#######################################################################
#
# If this CIF has been generated from an entry in the Cambridge 
# Structural Database, then it will include bibliographic, chemical, 
# crystal, experimental, refinement or atomic coordinate data resulting 
# from the CCDC's data processing and validation procedures.
#
#######################################################################

data_PEWFEF
_chemical_formula_moiety         'C25 H21 Br1 F3 N3 O4 S1'
_chemical_name_systematic        
"t-butyl 4''-bromo-1-methyl-2,2''-dioxo-5'-sulfanylidene-3'-(trifluoromethyl)-1,2-dihydrodispiro[indole-3,2'-pyrrolidine-4',3''-indole]-1''(2''H)-carboxylate"
_symmetry_cell_setting           orthorhombic
_symmetry_space_group_name_H-M   'P 21 21 21'
_symmetry_Int_Tables_number      19
_space_group_name_Hall           'P 2ac 2ab'
loop_
_symmetry_equiv_pos_site_id
_symmetry_equiv_pos_as_xyz
1 x,y,z
2 1/2-x,-y,1/2+z
3 -x,1/2+y,1/2-z
4 1/2+x,1/2-y,-z
_cell_length_a                   8.81190(10)
_cell_length_b                   10.41340(10)
_cell_length_c                   27.1396(3)
_cell_angle_alpha                90
_cell_angle_beta                 90
_cell_angle_gamma                90
_cell_volume                     2490.38
_exptl_crystal_colour            white
_exptl_crystal_description       block
_chemical_melting_point          '276.2-278.1 deg.C'
_cell_formula_units_Z            4
loop_
_atom_site_label
_atom_site_type_symbol
_atom_site_fract_x
_atom_site_fract_y
_atom_site_fract_z
S1 S 0.19454(12) 0.65705(8) 0.00971(3)
Br1 Br -0.22078(4) 0.51836(4) 0.05541(2)
F1 F 0.2707(3) 0.3380(2) 0.17552(8)
F2 F 0.0531(3) 0.4143(3) 0.19449(9)
F3 F 0.0715(3) 0.2215(2) 0.16649(9)
O1 O 0.2748(3) 0.8545(2) 0.20547(9)
O2 O 0.4627(3) 0.7107(3) 0.19312(12)
O3 O 0.4056(3) 0.5464(3) 0.11914(11)
O4 O -0.0804(3) 0.2242(3) 0.04038(10)
N1 N 0.2321(4) 0.6881(3) 0.15457(11)
N2 N 0.1932(3) 0.4053(3) 0.03050(11)
H1 H 0.2194 0.3854 0.0009
N3 N 0.1168(3) 0.0864(3) 0.05595(13)
C1 C 0.2570(5) 1.0475(4) 0.24942(17)
H2 H 0.2993 1.1040 0.2738
H3 H 0.2515 1.0914 0.2184
H4 H 0.1571 1.0217 0.2594
C2 C 0.3579(6) 0.8506(5) 0.29101(15)
H5 H 0.4094 0.8969 0.3166
H6 H 0.2555 0.8333 0.3011
H7 H 0.4096 0.7711 0.2849
C3 C 0.5145(5) 0.9672(5) 0.22805(17)
H8 H 0.5632 1.0156 0.2537
H9 H 0.5721 0.8908 0.2215
H10 H 0.5087 1.0184 0.1987
C4 C 0.3564(4) 0.9306(4) 0.24429(14)
C5 C 0.3372(4) 0.7515(4) 0.18603(13)
C6 C 0.2780(4) 0.5853(3) 0.12485(13)
C7 C 0.1351(4) 0.5309(4) 0.09890(12)
C8 C 0.0150(4) 0.6252(4) 0.11450(13)
C9 C 0.0742(4) 0.7135(4) 0.14793(14)
C10 C -0.0153(4) 0.8076(4) 0.16927(15)
H11 H 0.0250 0.8660 0.1916
C11 C -0.1679(5) 0.8113(4) 0.15597(15)
H12 H -0.2302 0.8736 0.1699
C12 C -0.2299(5) 0.7255(4) 0.12274(13)
H13 H -0.3323 0.7293 0.1146
C13 C -0.1365(4) 0.6340(4) 0.10187(13)
C14 C 0.1723(4) 0.5273(4) 0.04350(12)
C15 C 0.1705(4) 0.3066(3) 0.06774(12)
C16 C 0.0977(4) 0.3886(4) 0.10994(13)
H14 H -0.0122 0.3810 0.1051
C17 C 0.1258(4) 0.3410(4) 0.16162(14)
C18 C 0.0517(4) 0.2032(3) 0.05196(13)
C19 C 0.0319(5) -0.0319(4) 0.04824(16)
H15 H 0.0981 -0.1042 0.0527
H16 H -0.0499 -0.0365 0.0715
H17 H -0.0084 -0.0330 0.0154
C20 C 0.2710(4) 0.0963(3) 0.07020(12)
C21 C 0.3753(4) -0.0018(4) 0.07478(14)
H18 H 0.3478 -0.0872 0.0703
C22 C 0.5234(5) 0.0328(4) 0.08639(14)
H19 H 0.5962 -0.0310 0.0904
C23 C 0.5652(5) 0.1606(4) 0.09217(14)
H20 H 0.6655 0.1810 0.0994
C24 C 0.4586(4) 0.2581(4) 0.08727(14)
H21 H 0.4865 0.3438 0.0909
C25 C 0.3100(4) 0.2248(4) 0.07692(13)
loop_
_geom_bond_atom_site_label_1
_geom_bond_atom_site_label_2
_geom_bond_site_symmetry_1
_geom_bond_site_symmetry_2
S1 C14 1_555 1_555
Br1 C13 1_555 1_555
F1 C17 1_555 1_555
F2 C17 1_555 1_555
F3 C17 1_555 1_555
O1 C4 1_555 1_555
O2 C5 1_555 1_555
O3 C6 1_555 1_555
O4 C18 1_555 1_555
N1 C5 1_555 1_555
N2 H1 1_555 1_555
N3 C18 1_555 1_555
C1 H2 1_555 1_555
H3 C1 1_555 1_555
H4 C1 1_555 1_555
C2 H5 1_555 1_555
H6 C2 1_555 1_555
H7 C2 1_555 1_555
C3 H8 1_555 1_555
H9 C3 1_555 1_555
H10 C3 1_555 1_555
C4 C1 1_555 1_555
C5 O1 1_555 1_555
C6 N1 1_555 1_555
C7 C6 1_555 1_555
C8 C7 1_555 1_555
C9 N1 1_555 1_555
C10 C9 1_555 1_555
H11 C10 1_555 1_555
C11 C10 1_555 1_555
H12 C11 1_555 1_555
C12 C11 1_555 1_555
H13 C12 1_555 1_555
C13 C8 1_555 1_555
C14 N2 1_555 1_555
C15 N2 1_555 1_555
C16 C7 1_555 1_555
H14 C16 1_555 1_555
C17 C16 1_555 1_555
C18 C15 1_555 1_555
C19 N3 1_555 1_555
H15 C19 1_555 1_555
H16 C19 1_555 1_555
H17 C19 1_555 1_555
C20 N3 1_555 1_555
C21 C20 1_555 1_555
H18 C21 1_555 1_555
C22 C21 1_555 1_555
H19 C22 1_555 1_555
C23 C22 1_555 1_555
H20 C23 1_555 1_555
C24 C23 1_555 1_555
H21 C24 1_555 1_555
C25 C15 1_555 1_555
C2 C4 1_555 1_555
C3 C4 1_555 1_555
C7 C14 1_555 1_555
C8 C9 1_555 1_555
C12 C13 1_555 1_555
C15 C16 1_555 1_555
C20 C25 1_555 1_555
C24 C25 1_555 1_555

#END
