
#######################################################################
#
#                 Cambridge Crystallographic Data Centre
#                                CCDC 
#
#######################################################################
#
# If this CIF has been generated from an entry in the Cambridge 
# Structural Database, then it will include bibliographic, chemical, 
# crystal, experimental, refinement or atomic coordinate data resulting 
# from the CCDC's data processing and validation procedures.
#
#######################################################################

data_PEWLAH
_chemical_formula_moiety         'C14 H13 N3 S2'
_chemical_name_systematic        
'methyl 2-(phenyl(pyridin-2-yl)methylene)hydrazinecarbodithioate'
_symmetry_cell_setting           monoclinic
_symmetry_space_group_name_H-M   'P 21/n'
_symmetry_Int_Tables_number      14
_space_group_name_Hall           '-P 2yn'
loop_
_symmetry_equiv_pos_site_id
_symmetry_equiv_pos_as_xyz
1 x,y,z
2 1/2-x,1/2+y,1/2-z
3 -x,-y,-z
4 1/2+x,1/2-y,1/2+z
_cell_length_a                   12.5242(16)
_cell_length_b                   5.5115(7)
_cell_length_c                   20.520(3)
_cell_angle_alpha                90
_cell_angle_beta                 95.440(2)
_cell_angle_gamma                90
_cell_volume                     1410.06
_exptl_crystal_colour            yellow
_exptl_crystal_description       cuboid
_cell_formula_units_Z            4
loop_
_atom_site_label
_atom_site_type_symbol
_atom_site_fract_x
_atom_site_fract_y
_atom_site_fract_z
S1 S 0.43124(4) 0.19525(12) 0.15431(2)
S2 S 0.63566(4) 0.04277(9) 0.23370(2)
N1 N 0.50707(11) 0.3880(3) 0.26449(6)
H1 H 0.4506 0.4777 0.2610
N2 N 0.58292(11) 0.4185(3) 0.31662(6)
N3 N 0.40272(12) 0.7647(3) 0.30557(7)
C1 C 0.62205(16) -0.1674(4) 0.16654(9)
H2 H 0.6820 -0.2766 0.1699
H3 H 0.6200 -0.0798 0.1260
H4 H 0.5568 -0.2580 0.1679
C2 C 0.52060(13) 0.2179(3) 0.21864(8)
C3 C 0.56881(13) 0.5920(3) 0.35785(7)
C4 C 0.47808(13) 0.7647(3) 0.35761(7)
C5 C 0.47017(15) 0.9236(3) 0.40930(8)
H5 H 0.5215 0.9204 0.4451
C6 C 0.38652(16) 1.0859(4) 0.40774(9)
H6 H 0.3812 1.1934 0.4422
C7 C 0.31132(16) 1.0873(4) 0.35489(9)
H7 H 0.2542 1.1958 0.3525
C8 C 0.32262(15) 0.9233(4) 0.30533(9)
H8 H 0.2711 0.9234 0.2696
C9 C 0.65884(13) 0.6144(3) 0.41119(7)
C10 C 0.67733(16) 0.4376(3) 0.45856(8)
H9 H 0.6315 0.3050 0.4587
C11 C 0.76365(17) 0.4558(4) 0.50593(9)
H10 H 0.7747 0.3368 0.5380
C12 C 0.83247(16) 0.6480(4) 0.50563(9)
H11 H 0.8910 0.6585 0.5370
C13 C 0.81505(16) 0.8257(4) 0.45886(9)
H12 H 0.8618 0.9568 0.4587
C14 C 0.72831(15) 0.8102(4) 0.41211(8)
H13 H 0.7165 0.9324 0.3810
loop_
_geom_bond_atom_site_label_1
_geom_bond_atom_site_label_2
_geom_bond_site_symmetry_1
_geom_bond_site_symmetry_2
S1 C2 1_555 1_555
S2 C1 1_555 1_555
N1 H1 1_555 1_555
N2 N1 1_555 1_555
N3 C4 1_555 1_555
C1 H2 1_555 1_555
H3 C1 1_555 1_555
H4 C1 1_555 1_555
C2 S2 1_555 1_555
C3 N2 1_555 1_555
C4 C3 1_555 1_555
C5 C4 1_555 1_555
H5 C5 1_555 1_555
C6 C5 1_555 1_555
H6 C6 1_555 1_555
C7 C6 1_555 1_555
H7 C7 1_555 1_555
C8 N3 1_555 1_555
H8 C8 1_555 1_555
C9 C3 1_555 1_555
C10 C9 1_555 1_555
H9 C10 1_555 1_555
C11 C10 1_555 1_555
H10 C11 1_555 1_555
C12 C11 1_555 1_555
H11 C12 1_555 1_555
C13 C12 1_555 1_555
H12 C13 1_555 1_555
C14 C9 1_555 1_555
H13 C14 1_555 1_555
N1 C2 1_555 1_555
C7 C8 1_555 1_555
C13 C14 1_555 1_555

#END
