
#######################################################################
#
#                 Cambridge Crystallographic Data Centre
#                                CCDC 
#
#######################################################################
#
# If this CIF has been generated from an entry in the Cambridge 
# Structural Database, then it will include bibliographic, chemical, 
# crystal, experimental, refinement or atomic coordinate data resulting 
# from the CCDC's data processing and validation procedures.
#
#######################################################################

data_PEWROA
_chemical_formula_moiety         'C17 H19 N1 O4'
_chemical_name_systematic        
N-(2-(10-Hydroxy-9-oxo-8-oxadispiro[2.0.3.3]dec-10-yl)phenyl)acetamide
_symmetry_cell_setting           orthorhombic
_symmetry_space_group_name_H-M   'P b c a'
_symmetry_Int_Tables_number      61
_space_group_name_Hall           '-P 2ac 2ab'
loop_
_symmetry_equiv_pos_site_id
_symmetry_equiv_pos_as_xyz
1 x,y,z
2 1/2-x,-y,1/2+z
3 -x,1/2+y,1/2-z
4 1/2+x,1/2-y,-z
5 -x,-y,-z
6 1/2+x,y,1/2-z
7 x,1/2-y,1/2+z
8 1/2-x,1/2+y,z
_cell_length_a                   13.3795(7)
_cell_length_b                   12.7454(8)
_cell_length_c                   17.2339(10)
_cell_angle_alpha                90
_cell_angle_beta                 90
_cell_angle_gamma                90
_cell_volume                     2938.85
_exptl_crystal_colour            colorless
_exptl_crystal_description       block
_cell_formula_units_Z            8
loop_
_atom_site_label
_atom_site_type_symbol
_atom_site_fract_x
_atom_site_fract_y
_atom_site_fract_z
O1 O 0.48543(6) 0.32573(6) 0.25189(5)
O2 O 0.46040(5) 0.69019(6) 0.13529(4)
O3 O 0.40078(6) 0.50951(6) 0.05437(4)
O4 O 0.25286(5) 0.58773(5) 0.04356(4)
N1 N 0.48205(6) 0.49392(7) 0.20751(5)
C1 C 0.40227(7) 0.53318(7) 0.25300(5)
C2 C 0.38686(8) 0.49606(8) 0.32848(5)
H1 H 0.4303 0.4466 0.3494
C3 C 0.30728(9) 0.53264(9) 0.37211(5)
H2 H 0.2972 0.5073 0.4221
C4 C 0.24249(8) 0.60691(8) 0.34159(5)
H3 H 0.1884 0.6305 0.3706
C5 C 0.25896(7) 0.64609(7) 0.26708(5)
H4 H 0.2160 0.6968 0.2472
C6 C 0.33855(7) 0.61078(7) 0.22175(5)
C7 C 0.35910(6) 0.65811(7) 0.14104(5)
C8 C 0.34332(7) 0.57558(7) 0.07625(5)
C9 C 0.19922(7) 0.67758(7) 0.07738(5)
C10 C 0.10612(7) 0.63473(8) 0.12018(6)
H5 H 0.0816 0.6803 0.1610
H6 H 0.1133 0.5631 0.1384
C11 C 0.04821(8) 0.64482(9) 0.04275(6)
H7 H 0.0449 0.5802 0.0132
H8 H -0.0174 0.6763 0.0481
C12 C 0.12959(8) 0.72172(8) 0.01438(6)
H9 H 0.1523 0.7084 -0.0382
H10 H 0.1125 0.7951 0.0215
C13 C 0.28216(7) 0.73962(7) 0.11513(5)
C14 C 0.31740(8) 0.83967(7) 0.07690(6)
H11 H 0.3887 0.8536 0.0762
H12 H 0.2813 0.8641 0.0316
C15 C 0.26457(7) 0.84338(7) 0.15395(5)
H13 H 0.3041 0.8598 0.1995
H14 H 0.1968 0.8703 0.1549
C16 C 0.51473(7) 0.39299(8) 0.20581(6)
C17 C 0.58852(8) 0.36904(9) 0.14246(7)
H15 H 0.5934 0.2944 0.1357
H16 H 0.6528 0.3967 0.1563
H17 H 0.5665 0.4007 0.0949
H18 H 0.4712(11) 0.7298(13) 0.1738(10)
H19 H 0.4988(11) 0.5344(13) 0.1700(9)
loop_
_geom_bond_atom_site_label_1
_geom_bond_atom_site_label_2
_geom_bond_site_symmetry_1
_geom_bond_site_symmetry_2
O1 C16 1_555 1_555
O2 C7 1_555 1_555
O3 C8 1_555 1_555
O4 C8 1_555 1_555
N1 C1 1_555 1_555
C1 C2 1_555 1_555
C2 H1 1_555 1_555
C3 C2 1_555 1_555
H2 C3 1_555 1_555
C4 C3 1_555 1_555
H3 C4 1_555 1_555
C5 C4 1_555 1_555
H4 C5 1_555 1_555
C6 C1 1_555 1_555
C7 C6 1_555 1_555
C8 C7 1_555 1_555
C9 O4 1_555 1_555
C10 C9 1_555 1_555
H5 C10 1_555 1_555
H6 C10 1_555 1_555
C11 C10 1_555 1_555
H7 C11 1_555 1_555
H8 C11 1_555 1_555
C12 C9 1_555 1_555
H9 C12 1_555 1_555
H10 C12 1_555 1_555
C13 C7 1_555 1_555
C14 C13 1_555 1_555
H11 C14 1_555 1_555
H12 C14 1_555 1_555
C15 C13 1_555 1_555
H13 C15 1_555 1_555
H14 C15 1_555 1_555
C16 N1 1_555 1_555
C17 C16 1_555 1_555
H15 C17 1_555 1_555
H16 C17 1_555 1_555
H17 C17 1_555 1_555
H18 O2 1_555 1_555
H19 N1 1_555 1_555
C5 C6 1_555 1_555
C9 C13 1_555 1_555
C11 C12 1_555 1_555
C14 C15 1_555 1_555

#END
