
#######################################################################
#
#                 Cambridge Crystallographic Data Centre
#                                CCDC 
#
#######################################################################
#
# If this CIF has been generated from an entry in the Cambridge 
# Structural Database, then it will include bibliographic, chemical, 
# crystal, experimental, refinement or atomic coordinate data resulting 
# from the CCDC's data processing and validation procedures.
#
#######################################################################

data_PEWWEU
_chemical_compound_source        'leaves of Croton glabellus'
_chemical_formula_moiety         'C22 H36 O4'
_chemical_name_systematic        6-O-acetylaustroinulin
_symmetry_cell_setting           orthorhombic
_symmetry_space_group_name_H-M   'P 21 21 21'
_symmetry_Int_Tables_number      19
_space_group_name_Hall           'P 2ac 2ab'
loop_
_symmetry_equiv_pos_site_id
_symmetry_equiv_pos_as_xyz
1 x,y,z
2 1/2-x,-y,1/2+z
3 -x,1/2+y,1/2-z
4 1/2+x,1/2-y,-z
_cell_length_a                   6.0067(4)
_cell_length_b                   18.178(1)
_cell_length_c                   19.173(1)
_cell_angle_alpha                90
_cell_angle_beta                 90
_cell_angle_gamma                90
_cell_volume                     2093.5
_exptl_crystal_colour            colorless
_exptl_crystal_description       prism
_chemical_melting_point          162-165deg.C
_cell_formula_units_Z            4
loop_
_atom_site_label
_atom_site_type_symbol
_atom_site_fract_x
_atom_site_fract_y
_atom_site_fract_z
O1 O 0.2240(4) 0.30611(12) 0.14587(11)
O2 O 0.2742(6) 0.27537(12) 0.00831(14)
H1 H 0.158(8) 0.260(3) -0.009(3)
O3 O 0.1261(5) 0.39361(13) -0.08663(13)
H2 H 0.166(7) 0.354(2) -0.102(2)
O4 O 0.5663(7) 0.25515(16) 0.14530(18)
C1 C 0.1738(6) 0.57372(16) 0.09544(16)
H3 H 0.2316 0.6128 0.0662
H4 H 0.0149 0.5701 0.0870
C2 C 0.2117(7) 0.59378(18) 0.17116(17)
H5 H 0.3694 0.6018 0.1791
H6 H 0.1339 0.6392 0.1817
C3 C 0.1297(7) 0.53354(19) 0.21891(18)
H7 H -0.0310 0.5304 0.2147
H8 H 0.1632 0.5474 0.2666
C4 C 0.2280(6) 0.45709(18) 0.20525(16)
C5 C 0.2020(5) 0.43917(15) 0.12610(15)
H9 H 0.0410 0.4361 0.1184
C6 C 0.2934(6) 0.36549(16) 0.10028(15)
H10 H 0.4564 0.3675 0.0982
C7 C 0.2009(7) 0.34731(16) 0.02893(17)
H11 H 0.0381 0.3464 0.0324
C8 C 0.2651(7) 0.40428(17) -0.02629(17)
C9 C 0.1976(6) 0.48076(15) 0.00051(15)
H12 H 0.0354 0.4785 0.0055
C10 C 0.2849(5) 0.50068(16) 0.07425(15)
C11 C 0.2388(6) 0.54063(16) -0.05590(16)
H13 H 0.3510 0.5745 -0.0387
H14 H 0.2984 0.5171 -0.0973
C12 C 0.0376(6) 0.58369(17) -0.07609(15)
H15 H -0.0911 0.5562 -0.0828
C13 C 0.0158(6) 0.65587(17) -0.08588(15)
C14 C 0.1928(6) 0.70696(18) -0.07153(18)
H16 H 0.3229 0.6871 -0.0532
C15 C 0.1915(8) 0.77867(19) -0.0814(2)
H17 H 0.0657 0.8015 -0.0996
H18 H 0.3164 0.8065 -0.0701
C16 C -0.1959(6) 0.6870(2) -0.1141(2)
H19 H -0.1691 0.7075 -0.1595
H20 H -0.2492 0.7249 -0.0835
H21 H -0.3054 0.6487 -0.1176
C17 C 0.5070(7) 0.39524(19) -0.04829(18)
H22 H 0.5234 0.3504 -0.0743
H23 H 0.5999 0.3934 -0.0076
H24 H 0.5503 0.4362 -0.0769
C18 C 0.4692(6) 0.4524(2) 0.23132(18)
H25 H 0.4720 0.4586 0.2810
H26 H 0.5561 0.4905 0.2098
H27 H 0.5304 0.4053 0.2195
C19 C 0.0891(6) 0.4043(2) 0.25061(17)
H28 H 0.1739 0.3607 0.2600
H29 H -0.0450 0.3913 0.2263
H30 H 0.0519 0.4280 0.2938
C20 C 0.5384(5) 0.51204(17) 0.07465(18)
H31 H 0.5847 0.5319 0.0306
H32 H 0.6111 0.4657 0.0823
H33 H 0.5779 0.5456 0.1113
C21 C 0.3747(10) 0.2548(2) 0.1629(2)
C22 C 0.2693(10) 0.1978(2) 0.2085(2)
H34 H 0.3336 0.1506 0.1986
H35 H 0.1121 0.1962 0.1996
H36 H 0.2946 0.2100 0.2565
loop_
_geom_bond_atom_site_label_1
_geom_bond_atom_site_label_2
_geom_bond_site_symmetry_1
_geom_bond_site_symmetry_2
O1 C6 1_555 1_555
O2 H1 1_555 1_555
O3 H2 1_555 1_555
O4 C21 1_555 1_555
C1 H3 1_555 1_555
H4 C1 1_555 1_555
C2 C1 1_555 1_555
H5 C2 1_555 1_555
H6 C2 1_555 1_555
C3 C2 1_555 1_555
H7 C3 1_555 1_555
H8 C3 1_555 1_555
C4 C3 1_555 1_555
C5 C4 1_555 1_555
H9 C5 1_555 1_555
C6 C5 1_555 1_555
H10 C6 1_555 1_555
C7 O2 1_555 1_555
H11 C7 1_555 1_555
C8 O3 1_555 1_555
C9 C8 1_555 1_555
H12 C9 1_555 1_555
C10 C1 1_555 1_555
C11 C9 1_555 1_555
H13 C11 1_555 1_555
H14 C11 1_555 1_555
C12 C11 1_555 1_555
H15 C12 1_555 1_555
C13 C12 1_555 1_555
C14 C13 1_555 1_555
H16 C14 1_555 1_555
C15 C14 1_555 1_555
H17 C15 1_555 1_555
H18 C15 1_555 1_555
C16 C13 1_555 1_555
H19 C16 1_555 1_555
H20 C16 1_555 1_555
H21 C16 1_555 1_555
C17 C8 1_555 1_555
H22 C17 1_555 1_555
H23 C17 1_555 1_555
H24 C17 1_555 1_555
C18 C4 1_555 1_555
H25 C18 1_555 1_555
H26 C18 1_555 1_555
H27 C18 1_555 1_555
C19 C4 1_555 1_555
H28 C19 1_555 1_555
H29 C19 1_555 1_555
H30 C19 1_555 1_555
C20 C10 1_555 1_555
H31 C20 1_555 1_555
H32 C20 1_555 1_555
H33 C20 1_555 1_555
C21 O1 1_555 1_555
C22 C21 1_555 1_555
H34 C22 1_555 1_555
H35 C22 1_555 1_555
H36 C22 1_555 1_555
C5 C10 1_555 1_555
C6 C7 1_555 1_555
C7 C8 1_555 1_555
C9 C10 1_555 1_555

#END
