
#######################################################################
#
#                 Cambridge Crystallographic Data Centre
#                                CCDC 
#
#######################################################################
#
# If this CIF has been generated from an entry in the Cambridge 
# Structural Database, then it will include bibliographic, chemical, 
# crystal, experimental, refinement or atomic coordinate data resulting 
# from the CCDC's data processing and validation procedures.
#
#######################################################################

data_PEXJEK
_chemical_formula_moiety         'C27 H27 N3 O4 S1'
_chemical_name_systematic        
'ethyl 3-[(1-methyl-2-{[(4-methylphenyl)sulfonyl]amino}-1H-indol-3-yl)amino]-3-phenylprop-2-enoate'
_symmetry_cell_setting           triclinic
_symmetry_space_group_name_H-M   'P -1'
_symmetry_Int_Tables_number      2
_space_group_name_Hall           '-P 1'
loop_
_symmetry_equiv_pos_site_id
_symmetry_equiv_pos_as_xyz
1 x,y,z
2 -x,-y,-z
_cell_length_a                   10.9635(7)
_cell_length_b                   11.3910(9)
_cell_length_c                   12.2579(8)
_cell_angle_alpha                93.949(6)
_cell_angle_beta                 109.830(6)
_cell_angle_gamma                117.446(7)
_cell_volume                     1230.59
_exptl_crystal_colour            colorless
_exptl_crystal_description       block
_cell_formula_units_Z            2
loop_
_atom_site_label
_atom_site_type_symbol
_atom_site_fract_x
_atom_site_fract_y
_atom_site_fract_z
S1 S 0.76468(6) 0.83066(5) 0.37915(4)
O1 O 0.61868(16) 0.71730(16) 0.35237(13)
O2 O 0.82841(17) 0.95233(16) 0.47349(12)
O3 O 0.58863(18) 0.55774(19) -0.07847(13)
O4 O 0.70871(17) 0.65502(19) -0.19293(13)
N1 N 0.84001(19) 0.56067(18) 0.45754(14)
N2 N 0.88432(19) 0.77763(18) 0.42035(14)
H1 H 0.9653 0.8330 0.4130
N3 N 0.7871(2) 0.6085(2) 0.15917(14)
H2 H 0.7044 0.6076 0.1222
C1 C 0.8021(2) 0.4340(2) 0.39767(18)
C2 C 0.7818(3) 0.3185(3) 0.4387(2)
H3 H 0.7984 0.3199 0.5185
C3 C 0.7363(3) 0.2022(3) 0.3565(3)
H4 H 0.7199 0.1229 0.3811
C4 C 0.7138(3) 0.1994(3) 0.2371(3)
H5 H 0.6828 0.1187 0.1839
C5 C 0.7370(3) 0.3149(3) 0.1968(2)
H6 H 0.7235 0.3132 0.1175
C6 C 0.7810(2) 0.4345(2) 0.27752(18)
C7 C 0.8080(2) 0.5670(2) 0.26746(17)
C8 C 0.8446(2) 0.6417(2) 0.37801(17)
C9 C 0.8710(3) 0.6001(3) 0.58356(18)
H7 H 0.9577 0.5964 0.6329
H8 H 0.7849 0.5381 0.5968
H9 H 0.8909 0.6920 0.6043
C10 C 0.7668(2) 0.8832(2) 0.24798(17)
C11 C 0.8970(3) 0.9948(2) 0.25293(19)
H10 H 0.9828 1.0422 0.3255
C12 C 0.8990(3) 1.0352(3) 0.1502(2)
H11 H 0.9869 1.1094 0.1533
C13 C 0.7705(3) 0.9662(3) 0.0414(2)
C14 C 0.6435(3) 0.8558(3) 0.0392(2)
H12 H 0.5574 0.8089 -0.0332
C15 C 0.6388(3) 0.8118(3) 0.14051(19)
H13 H 0.5516 0.7358 0.1366
C16 C 0.7721(4) 1.0124(4) -0.0711(2)
H14 H 0.7737 1.0975 -0.0645
H15 H 0.6831 0.9439 -0.1399
H16 H 0.8606 1.0250 -0.0803
C17 C 0.8889(2) 0.6494(2) 0.11029(17)
C18 C 1.0499(2) 0.7001(2) 0.19192(17)
C19 C 1.1198(3) 0.6306(3) 0.1753(2)
H17 H 1.0641 0.5469 0.1172
C20 C 1.2726(3) 0.6847(3) 0.2447(2)
H18 H 1.3185 0.6367 0.2333
C21 C 1.3563(3) 0.8082(3) 0.3298(2)
H19 H 1.4592 0.8447 0.3752
C22 C 1.2880(3) 0.8782(3) 0.3481(2)
H20 H 1.3447 0.9622 0.4061
C23 C 1.1347(3) 0.8239(3) 0.28016(19)
H21 H 1.0885 0.8708 0.2939
C24 C 0.8539(3) 0.6547(3) -0.00589(18)
H22 H 0.9312 0.6854 -0.0318
C25 C 0.7045(3) 0.6158(2) -0.09206(18)
C26 C 0.5675(3) 0.6324(3) -0.2818(2)
H23 H 0.5215 0.6659 -0.2430
H24 H 0.4978 0.5348 -0.3202
C27 C 0.5975(4) 0.7049(4) -0.3720(3)
H25 H 0.5059 0.6973 -0.4268
H26 H 0.6334 0.6650 -0.4156
H27 H 0.6729 0.8000 -0.3327
loop_
_geom_bond_atom_site_label_1
_geom_bond_atom_site_label_2
_geom_bond_site_symmetry_1
_geom_bond_site_symmetry_2
S1 O1 1_555 1_555
O2 S1 1_555 1_555
O3 C25 1_555 1_555
O4 C25 1_555 1_555
N1 C1 1_555 1_555
N2 S1 1_555 1_555
H1 N2 1_555 1_555
N3 H2 1_555 1_555
C1 C2 1_555 1_555
C2 H3 1_555 1_555
C3 C2 1_555 1_555
H4 C3 1_555 1_555
C4 C3 1_555 1_555
H5 C4 1_555 1_555
C5 C4 1_555 1_555
H6 C5 1_555 1_555
C6 C1 1_555 1_555
C7 N3 1_555 1_555
C8 N1 1_555 1_555
C9 N1 1_555 1_555
H7 C9 1_555 1_555
H8 C9 1_555 1_555
H9 C9 1_555 1_555
C10 S1 1_555 1_555
C11 C10 1_555 1_555
H10 C11 1_555 1_555
C12 C11 1_555 1_555
H11 C12 1_555 1_555
C13 C12 1_555 1_555
C14 C13 1_555 1_555
H12 C14 1_555 1_555
C15 C10 1_555 1_555
H13 C15 1_555 1_555
C16 C13 1_555 1_555
H14 C16 1_555 1_555
H15 C16 1_555 1_555
H16 C16 1_555 1_555
C17 N3 1_555 1_555
C18 C17 1_555 1_555
C19 C18 1_555 1_555
H17 C19 1_555 1_555
C20 C19 1_555 1_555
H18 C20 1_555 1_555
C21 C20 1_555 1_555
H19 C21 1_555 1_555
C22 C21 1_555 1_555
H20 C22 1_555 1_555
C23 C18 1_555 1_555
H21 C23 1_555 1_555
C24 C17 1_555 1_555
H22 C24 1_555 1_555
C25 C24 1_555 1_555
C26 O4 1_555 1_555
H23 C26 1_555 1_555
H24 C26 1_555 1_555
C27 C26 1_555 1_555
H25 C27 1_555 1_555
H26 C27 1_555 1_555
H27 C27 1_555 1_555
N2 C8 1_555 1_555
C5 C6 1_555 1_555
C6 C7 1_555 1_555
C7 C8 1_555 1_555
C14 C15 1_555 1_555
C22 C23 1_555 1_555

#END
