
#######################################################################
#
#                 Cambridge Crystallographic Data Centre
#                                CCDC 
#
#######################################################################
#
# If this CIF has been generated from an entry in the Cambridge 
# Structural Database, then it will include bibliographic, chemical, 
# crystal, experimental, refinement or atomic coordinate data resulting 
# from the CCDC's data processing and validation procedures.
#
#######################################################################

data_PEXNIS
_chemical_formula_moiety         'C23 H31 N1 O3 Si1'
_chemical_name_systematic        
trans-(5R,6S)-5-((t-butyl(dimethyl)silyl)oxy)-6-(2-(naphthalen-1-yl)-2-oxoethyl)piperidin-2-one
_symmetry_cell_setting           orthorhombic
_symmetry_space_group_name_H-M   'P 21 21 21'
_symmetry_Int_Tables_number      19
_space_group_name_Hall           'P 2ac 2ab'
loop_
_symmetry_equiv_pos_site_id
_symmetry_equiv_pos_as_xyz
1 x,y,z
2 1/2-x,-y,1/2+z
3 -x,1/2+y,1/2-z
4 1/2+x,1/2-y,-z
_cell_length_a                   7.297(2)
_cell_length_b                   11.638(3)
_cell_length_c                   26.461(7)
_cell_angle_alpha                90
_cell_angle_beta                 90
_cell_angle_gamma                90
_cell_volume                     2247.13
_exptl_crystal_colour            colorless
_exptl_crystal_description       prismatic
_cell_formula_units_Z            4
loop_
_atom_site_label
_atom_site_type_symbol
_atom_site_fract_x
_atom_site_fract_y
_atom_site_fract_z
Si1 Si 0.88218(14) 0.28252(8) 0.78504(3)
N1 N 0.9059(4) 0.3310(3) 0.94983(11)
O1 O 1.0889(3) 0.2081(2) 0.98975(10)
O2 O 0.6565(5) 0.5944(3) 0.86918(12)
O3 O 0.9625(5) 0.3094(2) 0.84124(9)
C1 C 0.9905(5) 0.4129(3) 0.86841(12)
H1 H 0.9704 0.4789 0.8461
C2 C 1.1850(5) 0.4140(3) 0.88768(14)
H2 H 1.2059 0.4829 0.9075
H3 H 1.2694 0.4144 0.8594
C3 C 1.2190(5) 0.3090(3) 0.92000(13)
H4 H 1.2401 0.2438 0.8979
H5 H 1.3299 0.3213 0.9395
C4 C 1.0667(5) 0.2796(3) 0.95567(12)
C5 C 0.8564(5) 0.4170(3) 0.91206(12)
H6 H 0.7350 0.3971 0.8989
C6 C 0.8422(6) 0.5347(3) 0.93688(13)
H7 H 0.7891 0.5251 0.9702
H8 H 0.9649 0.5650 0.9413
C7 C 0.7309(6) 0.6212(3) 0.90850(14)
C8 C 0.7181(5) 0.7405(3) 0.92922(12)
C9 C 0.8588(6) 0.7837(4) 0.95785(15)
H9 H 0.9564 0.7360 0.9663
C10 C 0.8592(7) 0.8980(4) 0.97477(18)
H10 H 0.9575 0.9252 0.9936
C11 C 0.7211(8) 0.9672(4) 0.96410(15)
H11 H 0.7258 1.0433 0.9746
C12 C 0.5673(6) 0.9281(3) 0.93715(12)
C13 C 0.4160(8) 0.9995(4) 0.92875(15)
H12 H 0.4191 1.0749 0.9403
C14 C 0.2678(9) 0.9617(5) 0.90458(18)
H13 H 0.1685 1.0106 0.9000
C15 C 0.2600(7) 0.8502(5) 0.88623(18)
H14 H 0.1560 0.8255 0.8691
C16 C 0.4046(6) 0.7755(4) 0.89306(14)
H15 H 0.3976 0.7009 0.8807
C17 C 0.5634(5) 0.8126(3) 0.91890(11)
C18 C 1.0797(6) 0.2520(4) 0.74305(16)
H16 H 1.1560 0.3190 0.7408
H17 H 1.0358 0.2320 0.7100
H18 H 1.1494 0.1893 0.7566
C19 C 0.7497(8) 0.4086(4) 0.76095(18)
H19 H 0.6711 0.4371 0.7872
H20 H 0.6768 0.3854 0.7325
H21 H 0.8331 0.4680 0.7507
C20 C 0.7334(6) 0.1517(4) 0.79270(16)
C21 C 0.5572(7) 0.1858(6) 0.8203(3)
H22 H 0.4848 0.1185 0.8266
H23 H 0.4887 0.2385 0.7998
H24 H 0.5876 0.2219 0.8518
C22 C 0.6905(10) 0.1011(6) 0.7400(2)
H25 H 0.8030 0.0840 0.7228
H26 H 0.6214 0.1558 0.7207
H27 H 0.6202 0.0318 0.7438
C23 C 0.8315(9) 0.0606(4) 0.8239(2)
H28 H 0.8477 0.0880 0.8578
H29 H 0.9490 0.0447 0.8092
H30 H 0.7596 -0.0085 0.8244
H31 H 0.819(4) 0.316(3) 0.9682(10)
loop_
_geom_bond_atom_site_label_1
_geom_bond_atom_site_label_2
_geom_bond_site_symmetry_1
_geom_bond_site_symmetry_2
Si1 O3 1_555 1_555
N1 C4 1_555 1_555
O1 C4 1_555 1_555
O2 C7 1_555 1_555
O3 C1 1_555 1_555
C1 H1 1_555 1_555
C2 C1 1_555 1_555
H2 C2 1_555 1_555
H3 C2 1_555 1_555
C3 C2 1_555 1_555
H4 C3 1_555 1_555
H5 C3 1_555 1_555
C4 C3 1_555 1_555
C5 N1 1_555 1_555
H6 C5 1_555 1_555
C6 C5 1_555 1_555
H7 C6 1_555 1_555
H8 C6 1_555 1_555
C7 C6 1_555 1_555
C8 C7 1_555 1_555
C9 C8 1_555 1_555
H9 C9 1_555 1_555
C10 C9 1_555 1_555
H10 C10 1_555 1_555
C11 C10 1_555 1_555
H11 C11 1_555 1_555
C12 C11 1_555 1_555
C13 C12 1_555 1_555
H12 C13 1_555 1_555
C14 C13 1_555 1_555
H13 C14 1_555 1_555
C15 C14 1_555 1_555
H14 C15 1_555 1_555
C16 C15 1_555 1_555
H15 C16 1_555 1_555
C17 C8 1_555 1_555
C18 Si1 1_555 1_555
H16 C18 1_555 1_555
H17 C18 1_555 1_555
H18 C18 1_555 1_555
C19 Si1 1_555 1_555
H19 C19 1_555 1_555
H20 C19 1_555 1_555
H21 C19 1_555 1_555
C20 Si1 1_555 1_555
C21 C20 1_555 1_555
H22 C21 1_555 1_555
H23 C21 1_555 1_555
H24 C21 1_555 1_555
C22 C20 1_555 1_555
H25 C22 1_555 1_555
H26 C22 1_555 1_555
H27 C22 1_555 1_555
C23 C20 1_555 1_555
H28 C23 1_555 1_555
H29 C23 1_555 1_555
H30 C23 1_555 1_555
H31 N1 1_555 1_555
C1 C5 1_555 1_555
C12 C17 1_555 1_555
C16 C17 1_555 1_555

#END
