
#######################################################################
#
#                 Cambridge Crystallographic Data Centre
#                                CCDC 
#
#######################################################################
#
# If this CIF has been generated from an entry in the Cambridge 
# Structural Database, then it will include bibliographic, chemical, 
# crystal, experimental, refinement or atomic coordinate data resulting 
# from the CCDC's data processing and validation procedures.
#
#######################################################################

data_PEXPUD
_chemical_formula_moiety         'C22 H34 O6 S1 Si1'
_chemical_name_systematic        
4-t-Butyldimethylsilyloxy-8,8-ethylenedioxy-6-phenylsulfonyl-2-hydroxybicyclo(3.3.0)octane
_symmetry_cell_setting           triclinic
_symmetry_space_group_name_H-M   'P -1'
_symmetry_Int_Tables_number      2
_space_group_name_Hall           '-P 1'
loop_
_symmetry_equiv_pos_site_id
_symmetry_equiv_pos_as_xyz
1 x,y,z
2 -x,-y,-z
_cell_length_a                   9.852(3)
_cell_length_b                   11.547(3)
_cell_length_c                   13.224(3)
_cell_angle_alpha                62.14(3)
_cell_angle_beta                 63.77(3)
_cell_angle_gamma                75.56(3)
_cell_volume                     1191.31
_cell_formula_units_Z            2
loop_
_atom_site_label
_atom_site_type_symbol
_atom_site_fract_x
_atom_site_fract_y
_atom_site_fract_z
C1 C 0.5992(1) 0.0847(1) 0.1772(1)
C2 C 0.5593(2) 0.1550(1) 0.2615(1)
C3 C 0.4187(2) 0.0917(1) 0.3693(1)
C4 C 0.3278(1) 0.0842(1) 0.3063(1)
C5 C 0.4469(1) 0.0382(1) 0.2068(1)
C6 C 0.4717(1) -0.1112(1) 0.2523(1)
C7 C 0.6391(1) -0.1339(1) 0.1845(1)
C8 C 0.7081(1) -0.0381(1) 0.1969(1)
O1 O 0.7138(1) -0.0965(1) 0.3176(1)
C9 C 0.8674(2) -0.1417(2) 0.3036(1)
C10 C 0.9533(2) -0.1000(2) 0.1688(2)
O2 O 0.8564(1) -0.0075(1) 0.1133(1)
O3 O 0.2721(1) 0.2132(1) 0.2480(1)
Si1 Si 0.1066(1) 0.2641 0.2377
C11 C -0.0468(2) 0.1728(2) 0.3840(1)
C12 C 0.1043(2) 0.2342(2) 0.1128(2)
C13 C 0.0933(2) 0.4438(1) 0.2033(2)
C14 C -0.0636(2) 0.5026(2) 0.1991(2)
C15 C 0.2195(2) 0.5140(2) 0.0817(2)
C16 C 0.1069(2) 0.4572(2) 0.3075(2)
S1 S 0.3514(1) -0.1799 0.2289
O4 O 0.1982(1) -0.1525(1) 0.3002(1)
O5 O 0.3945(1) -0.1401(1) 0.0992(1)
C17 C 0.3953(1) -0.3497(1) 0.2958(1)
C18 C 0.5018(2) -0.4101(1) 0.2236(2)
C19 C 0.5404(2) -0.5429(2) 0.2790(2)
C20 C 0.4700(2) -0.6107(2) 0.4048(2)
C21 C 0.3636(2) -0.5491(2) 0.4757(2)
C22 C 0.3238(2) -0.4180(1) 0.4217(1)
O6 O 0.6776(1) 0.1589(1) 0.2934(1)
H1 H 0.6572(1) 0.1535(1) 0.0840(1)
H2 H 0.5399(2) 0.2592(1) 0.2135(1)
H3 H 0.3591(2) 0.1514(1) 0.4207(1)
H4 H 0.4457(2) -0.0048(1) 0.4304(1)
H5 H 0.2339(1) 0.0211(1) 0.3675(1)
H6 H 0.4092(1) 0.0758(1) 0.1312(1)
H7 H 0.4416(1) -0.1606(1) 0.3511(1)
H8 H 0.6778(1) -0.2341(1) 0.2281(1)
H9 H 0.6652(1) -0.1100(1) 0.0887(1)
H10 H 0.9098(2) -0.0977(2) 0.3395(1)
H11 H 0.8757(2) -0.2472(2) 0.3512(1)
H12 H 0.9810(2) -0.1827(2) 0.1446(2)
H13 H 1.0563(2) -0.0560(2) 0.1400(2)
H14 H -0.1549(2) 0.2083(2) 0.3747(1)
H15 H -0.0461(2) 0.1875(2) 0.4586(1)
H16 H -0.0288(2) 0.0695(2) 0.4037(1)
H17 H -0.0046(2) 0.2673(2) 0.1047(2)
H18 H 0.1238(2) 0.1305(2) 0.1343(2)
H19 H 0.1923(2) 0.2872(2) 0.0265(2)
H20 H -0.0760(2) 0.4942(2) 0.1257(2)
H21 H -0.0740(2) 0.6048(2) 0.1822(2)
H22 H -0.1508(2) 0.4502(2) 0.2863(2)
H23 H 0.2094(2) 0.5042(2) 0.0081(2)
H24 H 0.3279(2) 0.4712(2) 0.0878(2)
H25 H 0.2109(2) 0.6167(2) 0.0628(2)
H26 H 0.2162(2) 0.4165(2) 0.3123(2)
H27 H 0.0186(2) 0.4051(2) 0.3941(2)
H28 H 0.0954(2) 0.5597(2) 0.2899(2)
H29 H 0.5554(2) -0.3555(1) 0.1250(2)
H30 H 0.6247(2) -0.5924(2) 0.2237(2)
H31 H 0.4993(2) -0.7138(2) 0.4480(2)
H32 H 0.3104(2) -0.6035(2) 0.5744(2)
H33 H 0.2381(2) -0.3694(2) 0.4771(1)
H34 H 0.7033(2) 0.1062(2) 0.3167(2)
loop_
_geom_bond_atom_site_label_1
_geom_bond_atom_site_label_2
_geom_bond_site_symmetry_1
_geom_bond_site_symmetry_2
C1 C2 1_555 1_555
C2 C3 1_555 1_555
C3 C4 1_555 1_555
C4 C5 1_555 1_555
C5 C1 1_555 1_555
C6 C5 1_555 1_555
C7 C6 1_555 1_555
C8 C1 1_555 1_555
O1 C8 1_555 1_555
C9 O1 1_555 1_555
C10 C9 1_555 1_555
O2 C8 1_555 1_555
O3 C4 1_555 1_555
Si1 O3 1_555 1_555
C11 Si1 1_555 1_555
C12 Si1 1_555 1_555
C13 Si1 1_555 1_555
C14 C13 1_555 1_555
C15 C13 1_555 1_555
C16 C13 1_555 1_555
S1 C6 1_555 1_555
O4 S1 1_555 1_555
O5 S1 1_555 1_555
C17 S1 1_555 1_555
C18 C17 1_555 1_555
C19 C18 1_555 1_555
C20 C19 1_555 1_555
C21 C20 1_555 1_555
C22 C17 1_555 1_555
O6 C2 1_555 1_555
H1 C1 1_555 1_555
H2 C2 1_555 1_555
H3 C3 1_555 1_555
H4 C3 1_555 1_555
H5 C4 1_555 1_555
H6 C5 1_555 1_555
H7 C6 1_555 1_555
H8 C7 1_555 1_555
H9 C7 1_555 1_555
H10 C9 1_555 1_555
H11 C9 1_555 1_555
H12 C10 1_555 1_555
H13 C10 1_555 1_555
H14 C11 1_555 1_555
H15 C11 1_555 1_555
H16 C11 1_555 1_555
H17 C12 1_555 1_555
H18 C12 1_555 1_555
H19 C12 1_555 1_555
H20 C14 1_555 1_555
H21 C14 1_555 1_555
H22 C14 1_555 1_555
H23 C15 1_555 1_555
H24 C15 1_555 1_555
H25 C15 1_555 1_555
H26 C16 1_555 1_555
H27 C16 1_555 1_555
H28 C16 1_555 1_555
H29 C18 1_555 1_555
H30 C19 1_555 1_555
H31 C20 1_555 1_555
H32 C21 1_555 1_555
H33 C22 1_555 1_555
H34 O6 1_555 1_555
C7 C8 1_555 1_555
C10 O2 1_555 1_555
C21 C22 1_555 1_555

#END
