
#######################################################################
#
#                 Cambridge Crystallographic Data Centre
#                                CCDC 
#
#######################################################################
#
# If this CIF has been generated from an entry in the Cambridge 
# Structural Database, then it will include bibliographic, chemical, 
# crystal, experimental, refinement or atomic coordinate data resulting 
# from the CCDC's data processing and validation procedures.
#
#######################################################################

data_PEYBIE01
_chemical_formula_moiety         'C21 H22 N2 O5'
_chemical_name_systematic        
'Methyl (R,S)-1,2,4,5-tetrahydro-4-(2-phenylethyl)-3-oxo-1H-1,4-benzodiazepine-8-carboxylic acid-2-acetate'
_symmetry_cell_setting           monoclinic
_symmetry_space_group_name_H-M   'P 21/c'
_symmetry_Int_Tables_number      14
_space_group_name_Hall           '-P 2ybc'
loop_
_symmetry_equiv_pos_site_id
_symmetry_equiv_pos_as_xyz
1 x,y,z
2 -x,1/2+y,1/2-z
3 -x,-y,-z
4 x,1/2-y,1/2+z
_cell_length_a                   13.015(2)
_cell_length_b                   11.461(1)
_cell_length_c                   12.907(1)
_cell_angle_alpha                90
_cell_angle_beta                 105.26(1)
_cell_angle_gamma                90
_cell_volume                     1857.39
_cell_formula_units_Z            4
loop_
_atom_site_label
_atom_site_type_symbol
_atom_site_fract_x
_atom_site_fract_y
_atom_site_fract_z
O1 O 0.4014(1) 0.9191(2) 0.6830(1)
O2 O 0.2794(1) 0.7586(1) 0.8353(1)
O3 O 0.3660(1) 0.6088(2) 0.7848(1)
O4 O 0.0385(1) 0.9264(1) 0.1106(1)
O5 O 0.0030(1) 1.1170(2) 0.0964(1)
N1 N 0.2684(1) 1.0534(2) 0.6577(1)
N2 N 0.1741(1) 0.8528(2) 0.5053(1)
C1 C 0.3061(2) 0.9435(2) 0.6585(2)
C2 C 0.2215(2) 0.8487(2) 0.6219(2)
C3 C 0.1332(2) 0.9517(2) 0.4471(2)
C4 C 0.1024(2) 0.9422(2) 0.3349(2)
C5 C 0.0619(2) 1.0375(2) 0.2703(2)
C6 C 0.0494(2) 1.1448(2) 0.3161(2)
C7 C 0.0782(2) 1.1537(2) 0.4267(2)
C8 C 0.1202(2) 1.0605(2) 0.4932(2)
C9 C 0.1540(2) 1.0777(2) 0.6132(2)
C10 C 0.3415(2) 1.1538(2) 0.6773(2)
C11 C 0.3246(2) 1.2355(2) 0.7649(2)
C12 C 0.3424(2) 1.1777(2) 0.8728(2)
C13 C 0.2605(2) 1.1188(2) 0.9013(2)
C14 C 0.2792(2) 1.0628(3) 0.9993(2)
C15 C 0.3781(2) 1.0639(2) 1.0708(2)
C16 C 0.4600(2) 1.1226(3) 1.0438(2)
C17 C 0.4417(2) 1.1787(2) 0.9458(2)
C18 C 0.2694(2) 0.7284(2) 0.6479(2)
C19 C 0.3052(2) 0.7043(2) 0.7659(2)
C20 C 0.3997(2) 0.5664(3) 0.8938(2)
C21 C 0.0338(2) 1.0217(2) 0.1529(2)
H1 H 0.1640(2) 0.8600(3) 0.6610(2)
H2 H 0.1990(2) 0.7990(3) 0.4660(2)
H3 H 0.1090(2) 0.8680(3) 0.3020(2)
H4 H 0.0230(2) 1.2110(3) 0.2690(2)
H5 H 0.0720(2) 1.2290(3) 0.4600(2)
H6 H 0.1410(2) 1.1630(3) 0.6290(2)
H7 H 0.1120(2) 1.0280(3) 0.6520(2)
H8 H 0.4190(2) 1.1170(3) 0.6970(2)
H9 H 0.3320(2) 1.1950(3) 0.6090(2)
H10 H 0.2520(2) 1.2740(3) 0.7410(2)
H11 H 0.3770(2) 1.3010(3) 0.7700(2)
H12 H 0.1900(2) 1.1200(3) 0.8490(2)
H13 H 0.2180(2) 1.0220(3) 1.0150(2)
H14 H 0.3950(2) 1.0260(3) 1.1430(2)
H15 H 0.5320(2) 1.1230(3) 1.0900(2)
H16 H 0.5000(2) 1.2210(3) 0.9270(2)
H17 H 0.3300(2) 0.7190(3) 0.6170(2)
H18 H 0.2160(2) 0.6670(3) 0.6160(2)
H19 H 0.4540(2) 0.5040(3) 0.8940(2)
H20 H 0.3380(2) 0.5290(3) 0.9140(2)
H21 H 0.4310(2) 0.6250(3) 0.9460(3)
H22 H -0.0140(2) 1.0950(3) 0.0150(2)
loop_
_geom_bond_atom_site_label_1
_geom_bond_atom_site_label_2
_geom_bond_site_symmetry_1
_geom_bond_site_symmetry_2
O1 C1 1_555 1_555
O2 C19 1_555 1_555
O3 C19 1_555 1_555
O4 C21 1_555 1_555
O5 C21 1_555 1_555
N1 C1 1_555 1_555
N2 C2 1_555 1_555
C1 C2 1_555 1_555
C2 C18 1_555 1_555
C3 N2 1_555 1_555
C4 C3 1_555 1_555
C5 C4 1_555 1_555
C6 C5 1_555 1_555
C7 C6 1_555 1_555
C8 C3 1_555 1_555
C9 N1 1_555 1_555
C10 N1 1_555 1_555
C11 C10 1_555 1_555
C12 C11 1_555 1_555
C13 C12 1_555 1_555
C14 C13 1_555 1_555
C15 C14 1_555 1_555
C16 C15 1_555 1_555
C17 C12 1_555 1_555
C18 C19 1_555 1_555
C20 O3 1_555 1_555
C21 C5 1_555 1_555
H1 C2 1_555 1_555
H2 N2 1_555 1_555
H3 C4 1_555 1_555
H4 C6 1_555 1_555
H5 C7 1_555 1_555
H6 C9 1_555 1_555
H7 C9 1_555 1_555
H8 C10 1_555 1_555
H9 C10 1_555 1_555
H10 C11 1_555 1_555
H11 C11 1_555 1_555
H12 C13 1_555 1_555
H13 C14 1_555 1_555
H14 C15 1_555 1_555
H15 C16 1_555 1_555
H16 C17 1_555 1_555
H17 C18 1_555 1_555
H18 C18 1_555 1_555
H19 C20 1_555 1_555
H20 C20 1_555 1_555
H21 C20 1_555 1_555
H22 O5 1_555 1_555
C7 C8 1_555 1_555
C8 C9 1_555 1_555
C16 C17 1_555 1_555

#END
