
#######################################################################
#
#                 Cambridge Crystallographic Data Centre
#                                CCDC 
#
#######################################################################
#
# If this CIF has been generated from an entry in the Cambridge 
# Structural Database, then it will include bibliographic, chemical, 
# crystal, experimental, refinement or atomic coordinate data resulting 
# from the CCDC's data processing and validation procedures.
#
#######################################################################

data_PEYZEA
_chemical_name_common            'fluostatin D'
_chemical_formula_moiety         'C22 H18 O7,0.5(H2 O1)'
_chemical_name_systematic        
"4,5-Dihydroxy-1a-methyl-2,9-dioxo-2,9,10,10a-tetrahydro-1aH-indeno[1',2':7,8]naphtho[2,3-b]oxiren-10-yl 2-methylpropanoate hemihydrate"
_symmetry_cell_setting           monoclinic
_symmetry_space_group_name_H-M   'C 2'
_symmetry_Int_Tables_number      5
_space_group_name_Hall           'C 2y'
loop_
_symmetry_equiv_pos_site_id
_symmetry_equiv_pos_as_xyz
1 x,y,z
2 -x,y,-z
3 1/2+x,1/2+y,z
4 1/2-x,1/2+y,-z
_cell_length_a                   21.1483(8)
_cell_length_b                   6.7029(3)
_cell_length_c                   14.1506(5)
_cell_angle_alpha                90
_cell_angle_beta                 106.852(4)
_cell_angle_gamma                90
_cell_volume                     1919.78
_exptl_crystal_colour            brown
_cell_formula_units_Z            4
loop_
_atom_site_label
_atom_site_type_symbol
_atom_site_fract_x
_atom_site_fract_y
_atom_site_fract_z
C1 C 0.39185(12) -0.0525(5) 0.78863(17)
H1 H 0.42328(12) -0.1432(5) 0.77171(17)
C2 C 0.38174(15) -0.1171(5) 0.88511(19)
H2 H 0.42011(15) -0.1017(5) 0.94333(19)
C3 C 0.31769(16) -0.1105(6) 0.9039(2)
C4 C 0.25938(13) -0.0453(5) 0.82090(19)
C5 C 0.26653(11) -0.0420(5) 0.72022(16)
C6 C 0.20974(11) -0.0359(5) 0.64013(18)
H3 H 0.16874(11) -0.0326(5) 0.65199(18)
C7 C 0.21224(11) -0.0345(5) 0.54377(17)
C8 C 0.27345(11) -0.0376(5) 0.52607(16)
C9 C 0.29369(13) -0.0369(5) 0.43378(16)
C10 C 0.25849(15) -0.0343(5) 0.33398(17)
C11 C 0.29319(19) -0.0365(6) 0.26429(19)
H4 H 0.26983(19) -0.0366(6) 0.19758(19)
C12 C 0.3609(2) -0.0385(7) 0.2911(2)
H5 H 0.3828(2) -0.0390(7) 0.2428(2)
C13 C 0.39678(17) -0.0399(7) 0.3902(2)
H6 H 0.44272(17) -0.0404(7) 0.4095(2)
C14 C 0.36207(14) -0.0405(6) 0.45918(18)
C15 C 0.38913(13) -0.0422(6) 0.56885(18)
C16 C 0.33047(10) -0.0423(5) 0.60744(16)
C17 C 0.32901(11) -0.0462(5) 0.70417(16)
C18 C 0.3118(2) -0.0933(7) 1.0069(2)
H7 H 0.3490(10) -0.157(5) 1.0524(4)
H8 H 0.3107(17) 0.0450(7) 1.0240(10)
H9 H 0.2718(10) -0.157(5) 1.0101(7)
C19 C 0.48459(16) 0.1613(7) 0.8402(2)
C20 C 0.5054(3) 0.3776(9) 0.8437(4)
H10 H 0.4726(3) 0.4566(9) 0.8642(4)
C21 C 0.5039(3) 0.4426(11) 0.7443(5)
H11 H 0.4590(4) 0.447(12) 0.7032(18)
H12 H 0.523(4) 0.573(5) 0.7477(10)
H13 H 0.529(4) 0.350(7) 0.717(2)
C22 C 0.5717(3) 0.4018(10) 0.9227(4)
H14 H 0.5924(17) 0.523(6) 0.911(3)
H15 H 0.5647(4) 0.407(11) 0.9867(6)
H16 H 0.5997(14) 0.291(6) 0.920(4)
O1 O 0.34522(11) -0.2993(4) 0.88046(15)
O2 O 0.20797(12) 0.0007(5) 0.83706(17)
O3 O 0.15481(8) -0.0330(4) 0.46886(13)
H17 H 0.1253(5) 0.015(7) 0.4886(10)
O4 O 0.19138(10) -0.0341(4) 0.30425(13)
H18 H 0.17814(10) -0.029(9) 0.2438(2)
O5 O 0.44663(9) -0.0458(6) 0.61621(15)
O6 O 0.41916(9) 0.1460(4) 0.80152(14)
O7 O 0.51986(12) 0.0149(5) 0.8679(2)
O8? O 0.500000 0.5141(17) 0.500000
O9? O 0.4598(9) 0.3816(15) 0.4812(13)
O10? O 0.500000 0.4200(17) 0.500000
O11? O 0.5402(9) 0.5469(15) 0.5255(13)
loop_
_geom_bond_atom_site_label_1
_geom_bond_atom_site_label_2
_geom_bond_site_symmetry_1
_geom_bond_site_symmetry_2
C1 H1 1_555 1_555
C2 C1 1_555 1_555
H2 C2 1_555 1_555
C3 C2 1_555 1_555
C4 C3 1_555 1_555
C5 C4 1_555 1_555
C6 C5 1_555 1_555
H3 C6 1_555 1_555
C7 C6 1_555 1_555
C8 C7 1_555 1_555
C9 C8 1_555 1_555
C10 C9 1_555 1_555
C11 C10 1_555 1_555
H4 C11 1_555 1_555
C12 C11 1_555 1_555
H5 C12 1_555 1_555
C13 C12 1_555 1_555
H6 C13 1_555 1_555
C14 C9 1_555 1_555
C15 C14 1_555 1_555
C16 C8 1_555 1_555
C17 C1 1_555 1_555
C18 C3 1_555 1_555
H7 C18 1_555 1_555
H8 C18 1_555 1_555
H9 C18 1_555 1_555
C19 C20 1_555 1_555
C20 H10 1_555 1_555
C21 C20 1_555 1_555
H11 C21 1_555 1_555
H12 C21 1_555 1_555
H13 C21 1_555 1_555
C22 C20 1_555 1_555
H14 C22 1_555 1_555
H15 C22 1_555 1_555
H16 C22 1_555 1_555
O1 C2 1_555 1_555
O2 C4 1_555 1_555
O3 C7 1_555 1_555
H17 O3 1_555 1_555
O4 C10 1_555 1_555
H18 O4 1_555 1_555
O5 C15 1_555 1_555
O6 C1 1_555 1_555
O7 C19 1_555 1_555
C3 O1 1_555 1_555
C5 C17 1_555 1_555
C13 C14 1_555 1_555
C15 C16 1_555 1_555
C16 C17 1_555 1_555
C19 O6 1_555 1_555

#END
