
#######################################################################
#
#                 Cambridge Crystallographic Data Centre
#                                CCDC 
#
#######################################################################
#
# If this CIF has been generated from an entry in the Cambridge 
# Structural Database, then it will include bibliographic, chemical, 
# crystal, experimental, refinement or atomic coordinate data resulting 
# from the CCDC's data processing and validation procedures.
#
#######################################################################

data_PEZCIJ
_chemical_formula_moiety         'C18 H14 N2 O3'
_chemical_name_systematic        
2-(2-oxo-5-phenylpyrrolidin-3-yl)-1H-isoindole-1,3(2H)-dione
_symmetry_cell_setting           orthorhombic
_symmetry_space_group_name_H-M   'P c a 21'
_symmetry_Int_Tables_number      29
_space_group_name_Hall           'P 2c -2ac'
loop_
_symmetry_equiv_pos_site_id
_symmetry_equiv_pos_as_xyz
1 x,y,z
2 -x,-y,1/2+z
3 1/2+x,-y,z
4 1/2-x,y,1/2+z
_cell_length_a                   24.3818(13)
_cell_length_b                   6.2273(3)
_cell_length_c                   9.6478(5)
_cell_angle_alpha                90
_cell_angle_beta                 90
_cell_angle_gamma                90
_cell_volume                     1464.85
_exptl_crystal_colour            colorless
_exptl_crystal_description       block
_cell_formula_units_Z            4
loop_
_atom_site_label
_atom_site_type_symbol
_atom_site_fract_x
_atom_site_fract_y
_atom_site_fract_z
C1 C 0.61479(7) 0.4862(3) 0.55668(17)
C2 C 0.66214(7) 0.3773(3) 0.62345(18)
C3 C 0.66311(8) 0.2037(4) 0.7122(2)
H1 H 0.6303 0.1325 0.7393
C4 C 0.71447(9) 0.1368(4) 0.7608(3)
H2 H 0.7168 0.0175 0.8219
C5 C 0.76221(9) 0.2426(5) 0.7209(3)
H3 H 0.7964 0.1959 0.7570
C6 C 0.76091(8) 0.4155(4) 0.6292(3)
H4 H 0.7935 0.4863 0.6008
C7 C 0.71011(7) 0.4791(3) 0.5817(2)
C8 C 0.69494(7) 0.6506(3) 0.4818(2)
C9 C 0.60659(7) 0.7725(3) 0.37439(18)
H5 H 0.6332 0.8485 0.3125
C10 C 0.56946(7) 0.6319(3) 0.28371(17)
C11 C 0.56752(7) 0.9394(3) 0.43563(19)
H6 H 0.5863 1.0788 0.4493
H7 H 0.5525 0.8902 0.5255
C12 C 0.52187(7) 0.9580(2) 0.32533(17)
H8 H 0.5321 1.0695 0.2554
C13 C 0.46681(7) 1.0116(3) 0.38716(17)
C14 C 0.44009(7) 0.8664(3) 0.47392(18)
H9 H 0.4563 0.7308 0.4930
C15 C 0.38979(7) 0.9194(3) 0.53270(19)
H10 H 0.3718 0.8199 0.5919
C16 C 0.36567(8) 1.1178(3) 0.5051(2)
H11 H 0.3311 1.1531 0.5447
C17 C 0.39236(9) 1.2636(3) 0.4195(2)
H12 H 0.3762 1.3995 0.4011
C18 C 0.44271(8) 1.2108(3) 0.3607(2)
H13 H 0.4608 1.3110 0.3021
N1 N 0.63745(6) 0.6458(2) 0.47260(16)
N2 N 0.52333(6) 0.7441(2) 0.26058(15)
H14 H 0.4961 0.6936 0.2105
O1 O 0.56619(5) 0.4518(2) 0.56928(14)
O2 O 0.72382(6) 0.7718(3) 0.4179(2)
O3 O 0.58124(6) 0.4536(2) 0.24004(15)
loop_
_geom_bond_atom_site_label_1
_geom_bond_atom_site_label_2
_geom_bond_site_symmetry_1
_geom_bond_site_symmetry_2
C1 C2 1_555 1_555
C2 C3 1_555 1_555
C3 H1 1_555 1_555
C4 C3 1_555 1_555
H2 C4 1_555 1_555
C5 C4 1_555 1_555
H3 C5 1_555 1_555
C6 C5 1_555 1_555
H4 C6 1_555 1_555
C7 C2 1_555 1_555
C8 C7 1_555 1_555
C9 H5 1_555 1_555
C10 C9 1_555 1_555
C11 C9 1_555 1_555
H6 C11 1_555 1_555
H7 C11 1_555 1_555
C12 C11 1_555 1_555
H8 C12 1_555 1_555
C13 C12 1_555 1_555
C14 C13 1_555 1_555
H9 C14 1_555 1_555
C15 C14 1_555 1_555
H10 C15 1_555 1_555
C16 C15 1_555 1_555
H11 C16 1_555 1_555
C17 C16 1_555 1_555
H12 C17 1_555 1_555
C18 C13 1_555 1_555
H13 C18 1_555 1_555
N1 C1 1_555 1_555
N2 C10 1_555 1_555
H14 N2 1_555 1_555
O1 C1 1_555 1_555
O2 C8 1_555 1_555
O3 C10 1_555 1_555
C6 C7 1_555 1_555
C8 N1 1_555 1_555
C9 N1 1_555 1_555
C12 N2 1_555 1_555
C17 C18 1_555 1_555

#END
