
#######################################################################
#
#                 Cambridge Crystallographic Data Centre
#                                CCDC 
#
#######################################################################
#
# If this CIF has been generated from an entry in the Cambridge 
# Structural Database, then it will include bibliographic, chemical, 
# crystal, experimental, refinement or atomic coordinate data resulting 
# from the CCDC's data processing and validation procedures.
#
#######################################################################

data_PEZHEK
_chemical_formula_moiety         'C40 H52 N6 O9,2(C2 H6 O1 S1)'
_chemical_name_systematic        
'methyl 6-(butan-2-yl)-9-(hydroxymethyl)-21-methoxy-12-methyl-5,8,11,14-tetraoxo-19-{2-oxo-2-[(quinolin-8-yl)amino]ethyl}-4,7,10,13-tetraazabicyclo[18.3.1]tetracosa-1(24),20,22-triene-3-carboxylate dimethyl sulfoxide solvate'
_symmetry_cell_setting           monoclinic
_symmetry_space_group_name_H-M   'P 21'
_symmetry_Int_Tables_number      4
_space_group_name_Hall           'P 2yb'
loop_
_symmetry_equiv_pos_site_id
_symmetry_equiv_pos_as_xyz
1 x,y,z
2 -x,1/2+y,-z
_cell_length_a                   15.4887(13)
_cell_length_b                   9.8886(5)
_cell_length_c                   15.5031(10)
_cell_angle_alpha                90
_cell_angle_beta                 95.630(6)
_cell_angle_gamma                90
_cell_volume                     2363.02
_exptl_crystal_colour            'light colorless'
_exptl_crystal_description       cube
_cell_formula_units_Z            2
loop_
_atom_site_label
_atom_site_type_symbol
_atom_site_fract_x
_atom_site_fract_y
_atom_site_fract_z
S1 S 0.77413(9) -0.05718(11) 0.15278(8)
O1 O 0.7434(2) 0.0835(3) 0.17424(18)
C1 C 0.8459(4) -0.1106(5) 0.2434(3)
H1 H 0.8912 -0.0449 0.2550
H2 H 0.8709 -0.1963 0.2308
H3 H 0.8142 -0.1195 0.2933
C2 C 0.8537(3) -0.0362(5) 0.0778(3)
H4 H 0.8274 0.0056 0.0258
H5 H 0.8765 -0.1230 0.0641
H6 H 0.8999 0.0200 0.1033
S2 S 0.06776(11) 0.21854(14) 0.46482(9)
O2 O 0.0974(3) 0.2267(4) 0.3761(2)
C3 C 0.1553(4) 0.1628(6) 0.5373(3)
H7 H 0.1708 0.0723 0.5226
H8 H 0.1388 0.1642 0.5954
H9 H 0.2042 0.2216 0.5336
C4 C 0.0039(4) 0.0689(6) 0.4656(4)
H10 H -0.0479 0.0798 0.4269
H11 H -0.0115 0.0527 0.5233
H12 H 0.0366 -0.0065 0.4472
O3 O 0.6589(2) 0.7808(3) 0.3278(2)
O4 O 0.5995(2) 0.2785(3) 0.30953(19)
O5 O 0.8150(2) 0.3129(3) 0.46242(18)
O6 O 0.9639(2) 0.1642(3) 0.2472(2)
H13 H 1.0035 0.1844 0.2840
O7 O 0.2817(2) 0.6044(3) 0.1034(2)
N1 N 0.7344(2) 0.4701(3) 0.2609(2)
H14 H 0.7066 0.3972 0.2703
N2 N 0.6569(2) 0.0801(3) 0.3588(2)
H15 H 0.6608 -0.0055 0.3501
O8 O 0.1452(3) 0.2370(4) 0.0712(2)
N3 N 0.6049(2) 0.5780(3) 0.3619(2)
H16 H 0.6032 0.4927 0.3508
O9 O 0.8668(2) 0.5639(3) 0.2556(3)
O10 O 0.6589(3) 0.5058(4) 0.5271(2)
N4 N 0.8038(2) 0.2319(3) 0.3252(2)
H17 H 0.7831 0.1708 0.2896
N5 N 0.1232(3) -0.1311(4) 0.2794(2)
N6 N 0.1503(3) 0.0859(4) 0.1815(2)
H18 H 0.1654 0.0767 0.2361
C5 C 0.6013(3) 0.1528(4) 0.3048(3)
C6 C 0.6493(3) 0.6596(4) 0.3132(3)
O11 O 0.6050(4) 0.6906(4) 0.5788(2)
C7 C 0.7807(3) 0.2358(4) 0.4069(3)
C8 C 0.4154(3) 0.5777(5) 0.3495(3)
C9 C 0.7106(3) 0.1400(4) 0.4308(3)
H19 H 0.6719 0.1921 0.4646
C10 C 0.3844(3) 0.4642(5) 0.3033(3)
H20 H 0.3951 0.3794 0.3279
C11 C 0.1656(3) 0.2102(5) 0.1467(3)
C12 C 0.6849(3) 0.5920(4) 0.2356(3)
H21 H 0.7247 0.6561 0.2119
C13 C 0.1012(3) -0.1435(5) 0.1914(3)
C14 C 0.3380(3) 0.4716(5) 0.2219(3)
C15 C 0.9138(3) 0.2794(4) 0.2245(3)
H22 H 0.8724 0.2577 0.1754
H23 H 0.9515 0.3502 0.2065
C16 C 0.6111(4) 0.6144(5) 0.5209(3)
C17 C 0.8646(3) 0.3329(4) 0.2982(3)
H24 H 0.9072 0.3514 0.3478
C18 C 0.8207(3) 0.4670(5) 0.2702(3)
C19 C 0.0699(3) -0.2664(5) 0.1521(3)
C20 C 0.4525(3) 0.2525(4) 0.1516(3)
H25 H 0.4802 0.3249 0.1863
H26 H 0.4434 0.2845 0.0923
C21 C 0.5593(3) 0.6295(4) 0.4333(3)
H27 H 0.5489 0.7262 0.4232
C22 C 0.6115(3) 0.5617(4) 0.1636(3)
H28 H 0.5709 0.4999 0.1883
C23 C 0.1130(3) -0.0275(5) 0.1388(3)
C24 C 0.3647(3) 0.2237(4) 0.1836(3)
H29 H 0.3732 0.1967 0.2439
H30 H 0.3378 0.1487 0.1508
C25 C 0.6448(3) 0.4891(5) 0.0857(3)
H31 H 0.6694 0.4028 0.1050
H32 H 0.5959 0.4708 0.0432
C26 C 0.7504(3) 0.0280(5) 0.4899(3)
H33 H 0.7052 -0.0294 0.5073
H34 H 0.7814 0.0676 0.5404
H35 H 0.7897 -0.0246 0.4593
C27 C 0.3237(3) 0.6014(5) 0.1857(3)
C28 C 0.3031(3) 0.3462(4) 0.1749(3)
H36 H 0.2928 0.3685 0.1131
C29 C 0.5142(3) 0.1316(5) 0.1549(3)
H37 H 0.4874 0.0613 0.1177
H38 H 0.5667 0.1594 0.1305
C30 C 0.5399(3) 0.0702(4) 0.2440(3)
H39 H 0.4874 0.0543 0.2718
H40 H 0.5665 -0.0171 0.2358
C31 C 0.0483(3) -0.2700(5) 0.0617(3)
H41 H 0.0278 -0.3495 0.0349
C32 C 0.0908(3) -0.0363(5) 0.0510(3)
H42 H 0.0981 0.0384 0.0161
C33 C 0.3510(3) 0.7162(5) 0.2320(3)
H43 H 0.3387 0.8015 0.2086
C34 C 0.4716(3) 0.5611(5) 0.4345(3)
H44 H 0.4803 0.4655 0.4464
H45 H 0.4417 0.5994 0.4810
C35 C 0.0623(3) -0.3779(5) 0.2068(3)
H46 H 0.0422 -0.4601 0.1836
C36 C 0.1137(3) -0.2413(5) 0.3268(3)
H47 H 0.1277 -0.2346 0.3864
C37 C 0.3966(3) 0.7041(5) 0.3128(3)
H48 H 0.4149 0.7816 0.3432
C38 C 0.2145(3) 0.3107(4) 0.2073(3)
H49 H 0.2237 0.2723 0.2651
H50 H 0.1803 0.3924 0.2105
C39 C 0.5607(3) 0.6903(5) 0.1364(3)
H51 H 0.5318 0.7231 0.1842
H52 H 0.5185 0.6702 0.0885
H53 H 0.6000 0.7581 0.1193
C40 C 0.0576(3) -0.1564(6) 0.0136(3)
H54 H 0.0413 -0.1588 -0.0457
C41 C 0.0843(4) -0.3661(5) 0.2938(3)
H55 H 0.0798 -0.4397 0.3304
C42 C 0.2840(4) 0.7299(5) 0.0572(3)
H56 H 0.2609 0.7166 -0.0019
H57 H 0.3429 0.7608 0.0588
H58 H 0.2499 0.7961 0.0838
C43 C 0.7126(4) 0.5678(6) 0.0421(3)
H59 H 0.7248 0.5219 -0.0099
H60 H 0.7647 0.5745 0.0808
H61 H 0.6910 0.6569 0.0278
C44 C 0.7126(4) 0.4843(6) 0.6079(3)
H62 H 0.7380 0.3957 0.6078
H63 H 0.6776 0.4917 0.6555
H64 H 0.7577 0.5511 0.6139
loop_
_geom_bond_atom_site_label_1
_geom_bond_atom_site_label_2
_geom_bond_site_symmetry_1
_geom_bond_site_symmetry_2
S1 O1 1_555 1_555
C1 S1 1_555 1_555
H1 C1 1_555 1_555
H2 C1 1_555 1_555
H3 C1 1_555 1_555
C2 S1 1_555 1_555
H4 C2 1_555 1_555
H5 C2 1_555 1_555
H6 C2 1_555 1_555
S2 O2 1_555 1_555
C3 S2 1_555 1_555
H7 C3 1_555 1_555
H8 C3 1_555 1_555
H9 C3 1_555 1_555
C4 S2 1_555 1_555
H10 C4 1_555 1_555
H11 C4 1_555 1_555
H12 C4 1_555 1_555
O3 C6 1_555 1_555
O4 C5 1_555 1_555
O5 C7 1_555 1_555
O6 H13 1_555 1_555
O7 C27 1_555 1_555
N1 H14 1_555 1_555
N2 H15 1_555 1_555
O8 C11 1_555 1_555
N3 H16 1_555 1_555
O9 C18 1_555 1_555
O10 C16 1_555 1_555
N4 H17 1_555 1_555
N5 C13 1_555 1_555
N6 H18 1_555 1_555
C5 N2 1_555 1_555
C6 N3 1_555 1_555
O11 C16 1_555 1_555
C7 N4 1_555 1_555
C8 C10 1_555 1_555
C9 N2 1_555 1_555
H19 C9 1_555 1_555
C10 H20 1_555 1_555
C11 N6 1_555 1_555
C12 N1 1_555 1_555
H21 C12 1_555 1_555
C13 C19 1_555 1_555
C14 C10 1_555 1_555
C15 O6 1_555 1_555
H22 C15 1_555 1_555
H23 C15 1_555 1_555
C16 C21 1_555 1_555
C17 N4 1_555 1_555
H24 C17 1_555 1_555
C18 N1 1_555 1_555
C19 C31 1_555 1_555
C20 H25 1_555 1_555
H26 C20 1_555 1_555
C21 N3 1_555 1_555
H27 C21 1_555 1_555
C22 C12 1_555 1_555
H28 C22 1_555 1_555
C23 N6 1_555 1_555
C24 C20 1_555 1_555
H29 C24 1_555 1_555
H30 C24 1_555 1_555
C25 C22 1_555 1_555
H31 C25 1_555 1_555
H32 C25 1_555 1_555
C26 C9 1_555 1_555
H33 C26 1_555 1_555
H34 C26 1_555 1_555
H35 C26 1_555 1_555
C27 C14 1_555 1_555
C28 C14 1_555 1_555
H36 C28 1_555 1_555
C29 C20 1_555 1_555
H37 C29 1_555 1_555
H38 C29 1_555 1_555
C30 C5 1_555 1_555
H39 C30 1_555 1_555
H40 C30 1_555 1_555
C31 H41 1_555 1_555
C32 C23 1_555 1_555
H42 C32 1_555 1_555
C33 C27 1_555 1_555
H43 C33 1_555 1_555
C34 C8 1_555 1_555
H44 C34 1_555 1_555
H45 C34 1_555 1_555
C35 C19 1_555 1_555
H46 C35 1_555 1_555
C36 N5 1_555 1_555
H47 C36 1_555 1_555
C37 C8 1_555 1_555
H48 C37 1_555 1_555
C38 C11 1_555 1_555
H49 C38 1_555 1_555
H50 C38 1_555 1_555
C39 C22 1_555 1_555
H51 C39 1_555 1_555
H52 C39 1_555 1_555
H53 C39 1_555 1_555
C40 C31 1_555 1_555
H54 C40 1_555 1_555
C41 C35 1_555 1_555
H55 C41 1_555 1_555
C42 O7 1_555 1_555
H56 C42 1_555 1_555
H57 C42 1_555 1_555
H58 C42 1_555 1_555
C43 C25 1_555 1_555
H59 C43 1_555 1_555
H60 C43 1_555 1_555
H61 C43 1_555 1_555
C44 O10 1_555 1_555
H62 C44 1_555 1_555
H63 C44 1_555 1_555
H64 C44 1_555 1_555
C6 C12 1_555 1_555
C7 C9 1_555 1_555
C13 C23 1_555 1_555
C15 C17 1_555 1_555
C17 C18 1_555 1_555
C21 C34 1_555 1_555
C24 C28 1_555 1_555
C28 C38 1_555 1_555
C29 C30 1_555 1_555
C32 C40 1_555 1_555
C33 C37 1_555 1_555
C36 C41 1_555 1_555

#END
