
#######################################################################
#
#                 Cambridge Crystallographic Data Centre
#                                CCDC 
#
#######################################################################
#
# If this CIF has been generated from an entry in the Cambridge 
# Structural Database, then it will include bibliographic, chemical, 
# crystal, experimental, refinement or atomic coordinate data resulting 
# from the CCDC's data processing and validation procedures.
#
#######################################################################

data_PEZHUZ
_chemical_formula_moiety         'C19 H29 N1 O2 S1'
_chemical_name_systematic        
4-Methyl-2-(phenylsulfonyl)-6-propyloctahydro-2H-quinolizine
_symmetry_cell_setting           orthorhombic
_symmetry_space_group_name_H-M   'P b c a'
_symmetry_Int_Tables_number      61
_space_group_name_Hall           '-P 2ac 2ab'
loop_
_symmetry_equiv_pos_site_id
_symmetry_equiv_pos_as_xyz
1 x,y,z
2 1/2+x,1/2-y,-z
3 -x,1/2+y,1/2-z
4 1/2-x,-y,1/2+z
5 -x,-y,-z
6 1/2-x,1/2+y,z
7 x,1/2-y,1/2+z
8 1/2+x,y,1/2-z
_cell_length_a                   10.254(4)
_cell_length_b                   9.552(4)
_cell_length_c                   37.868(16)
_cell_angle_alpha                90
_cell_angle_beta                 90
_cell_angle_gamma                90
_cell_volume                     3709.03
_exptl_crystal_colour            colorless
_exptl_crystal_description       prism
_cell_formula_units_Z            8
loop_
_atom_site_label
_atom_site_type_symbol
_atom_site_fract_x
_atom_site_fract_y
_atom_site_fract_z
C1 C 0.6397(6) 0.4165(5) 0.21790(13)
C2 C 0.7195(6) 0.5216(5) 0.23149(14)
H1 H 0.7825 0.5660 0.2169
C3 C 0.7060(7) 0.5600(6) 0.26630(17)
H2 H 0.7594 0.6325 0.2756
C4 C 0.6174(8) 0.4958(8) 0.28757(17)
H3 H 0.6100 0.5232 0.3116
C5 C 0.5375(7) 0.3904(7) 0.27436(18)
H4 H 0.4756 0.3452 0.2891
C6 C 0.5501(6) 0.3526(6) 0.23910(17)
H5 H 0.4957 0.2813 0.2296
C7 C 0.6131(6) 0.5106(4) 0.14806(13)
H6 H 0.6671 0.5924 0.1557
C8 C 0.4704(7) 0.5494(5) 0.15230(12)
H7 H 0.4524 0.5723 0.1773
H8 H 0.4151 0.4687 0.1456
C9 C 0.4367(6) 0.6750(5) 0.12914(13)
H9 H 0.4928 0.7557 0.1364
C10 C 0.2954(7) 0.7144(6) 0.13526(14)
H10 H 0.2735 0.7967 0.1210
H11 H 0.2821 0.7360 0.1603
H12 H 0.2391 0.6360 0.1285
C11 C 0.4189(6) 0.7558(5) 0.06762(12)
H13 H 0.3230 0.7676 0.0714
C12 C 0.4844(6) 0.9006(5) 0.07455(14)
H14 H 0.4880 0.9171 0.1003
H15 H 0.5751 0.8978 0.0657
C13 C 0.4131(7) 1.0228(6) 0.05709(15)
H16 H 0.4150 1.0107 0.0311
H17 H 0.3208 1.0229 0.0647
C14 C 0.4757(6) 1.1622(5) 0.06675(15)
H18 H 0.4271 1.2386 0.0555
H19 H 0.5662 1.1635 0.0585
H20 H 0.4740 1.1742 0.0924
C15 C 0.4382(7) 0.7081(6) 0.02972(14)
H21 H 0.4101 0.7837 0.0135
H22 H 0.3825 0.6254 0.0252
C16 C 0.5800(8) 0.6703(6) 0.02171(14)
H23 H 0.5870 0.6324 -0.0025
H24 H 0.6353 0.7551 0.0233
C17 C 0.6264(6) 0.5622(5) 0.04804(13)
H25 H 0.7210 0.5465 0.0446
H26 H 0.5811 0.4726 0.0433
C18 C 0.6026(7) 0.6043(5) 0.08630(13)
H27 H 0.6588 0.6866 0.0922
C19 C 0.6412(6) 0.4820(5) 0.10953(12)
H28 H 0.5928 0.3975 0.1020
H29 H 0.7355 0.4631 0.1065
N1 N 0.4641(5) 0.6427(4) 0.09177(10)
O1 O 0.7975(4) 0.3384(3) 0.16786(9)
O2 O 0.5702(4) 0.2484(3) 0.16744(8)
S1 S 0.6595(2) 0.36330(13) 0.17372(4)
loop_
_geom_bond_atom_site_label_1
_geom_bond_atom_site_label_2
_geom_bond_site_symmetry_1
_geom_bond_site_symmetry_2
C1 C2 1_555 1_555
C2 H1 1_555 1_555
C3 C2 1_555 1_555
H2 C3 1_555 1_555
C4 C3 1_555 1_555
H3 C4 1_555 1_555
C5 C4 1_555 1_555
H4 C5 1_555 1_555
C6 C1 1_555 1_555
H5 C6 1_555 1_555
C7 H6 1_555 1_555
C8 C7 1_555 1_555
H7 C8 1_555 1_555
H8 C8 1_555 1_555
C9 C8 1_555 1_555
H9 C9 1_555 1_555
C10 C9 1_555 1_555
H10 C10 1_555 1_555
H11 C10 1_555 1_555
H12 C10 1_555 1_555
C11 H13 1_555 1_555
C12 C11 1_555 1_555
H14 C12 1_555 1_555
H15 C12 1_555 1_555
C13 C12 1_555 1_555
H16 C13 1_555 1_555
H17 C13 1_555 1_555
C14 C13 1_555 1_555
H18 C14 1_555 1_555
H19 C14 1_555 1_555
H20 C14 1_555 1_555
C15 C11 1_555 1_555
H21 C15 1_555 1_555
H22 C15 1_555 1_555
C16 C15 1_555 1_555
H23 C16 1_555 1_555
H24 C16 1_555 1_555
C17 C16 1_555 1_555
H25 C17 1_555 1_555
H26 C17 1_555 1_555
C18 C17 1_555 1_555
H27 C18 1_555 1_555
C19 C7 1_555 1_555
H28 C19 1_555 1_555
H29 C19 1_555 1_555
N1 C9 1_555 1_555
O1 S1 1_555 1_555
O2 S1 1_555 1_555
S1 C1 1_555 1_555
C5 C6 1_555 1_555
C7 S1 1_555 1_555
C11 N1 1_555 1_555
C18 C19 1_555 1_555
C18 N1 1_555 1_555

#END
