
#######################################################################
#
#                 Cambridge Crystallographic Data Centre
#                                CCDC 
#
#######################################################################
#
# If this CIF has been generated from an entry in the Cambridge 
# Structural Database, then it will include bibliographic, chemical, 
# crystal, experimental, refinement or atomic coordinate data resulting 
# from the CCDC's data processing and validation procedures.
#
#######################################################################

data_PEZJAI
_chemical_formula_moiety         'C26 H27 N3 O4'
_chemical_name_systematic        
'methyl 5-oxo-9-{2-oxo-2-[(quinolin-8-yl)amino]ethyl}-4-azabicyclo[8.2.2]tetradeca-1(12),10,13-triene-3-carboxylate'
_symmetry_cell_setting           orthorhombic
_symmetry_space_group_name_H-M   'P 21 21 21'
_symmetry_Int_Tables_number      19
_space_group_name_Hall           'P 2ac 2ab'
loop_
_symmetry_equiv_pos_site_id
_symmetry_equiv_pos_as_xyz
1 x,y,z
2 1/2-x,-y,1/2+z
3 1/2+x,1/2-y,-z
4 -x,1/2+y,1/2-z
_cell_length_a                   12.0991(6)
_cell_length_b                   12.8496(9)
_cell_length_c                   14.0321(13)
_cell_angle_alpha                90
_cell_angle_beta                 90
_cell_angle_gamma                90
_cell_volume                     2181.55
_exptl_crystal_colour            colorless
_exptl_crystal_description       block
_cell_formula_units_Z            4
loop_
_atom_site_label
_atom_site_type_symbol
_atom_site_fract_x
_atom_site_fract_y
_atom_site_fract_z
O1 O 0.6879(3) 0.5867(3) 0.0238(3)
O2 O 0.5834(4) 0.4427(3) 0.0112(3)
O3 O 0.2183(4) 0.6189(3) 0.6303(3)
N1 N 0.4322(3) 0.5673(3) 0.1313(3)
H1 H 0.3962 0.5116 0.1119
C1 C 0.3935(5) 0.8414(5) 0.7870(4)
N2 N 0.3783(4) 0.9346(4) 0.7445(4)
N3 N 0.3185(4) 0.7658(4) 0.6441(3)
H2 H 0.3382 0.8233 0.6147
C2 C 0.2511(5) 0.7001(5) 0.5955(4)
C3 C 0.6064(5) 0.5219(5) 0.0505(4)
C4 C 0.3607(4) 0.7510(4) 0.7382(4)
C5 C 0.5520(4) 0.5640(4) 0.1413(4)
H3 H 0.5792 0.6365 0.1523
C6 C 0.3757(5) 0.6563(4) 0.1517(4)
C7 C 0.5146(5) 0.5251(5) 0.3101(4)
C8 C 0.4431(5) 0.8293(6) 0.8787(5)
C9 C 0.7499(5) 0.5544(5) -0.0594(5)
H4 H 0.6989 0.5414 -0.1123
H5 H 0.7907 0.4905 -0.0448
H6 H 0.8020 0.6094 -0.0773
C10 C 0.2155(6) 0.7360(5) 0.4988(4)
H7 H 0.2642 0.7936 0.4779
H8 H 0.1391 0.7633 0.5027
C11 C 0.4256(6) 0.6685(6) 0.3947(5)
H9 H 0.4267 0.7381 0.4173
C12 C 0.5173(5) 0.6256(6) 0.3461(5)
H10 H 0.5820 0.6664 0.3380
C13 C 0.2196(6) 0.6499(6) 0.4257(5)
H11 H 0.1801 0.5919 0.4588
C14 C 0.4554(6) 0.7306(6) 0.9186(5)
H12 H 0.4876 0.7228 0.9799
C15 C 0.5879(5) 0.4956(5) 0.2271(4)
H13 H 0.5789 0.4209 0.2116
H14 H 0.6665 0.5086 0.2429
C16 C 0.4785(6) 0.9221(7) 0.9253(6)
H15 H 0.5141 0.9184 0.9856
C17 C 0.3323(5) 0.6039(6) 0.4084(4)
C18 C 0.3395(6) 0.5007(6) 0.3860(5)
H16 H 0.2822 0.4546 0.4050
C19 C 0.4614(7) 1.0145(7) 0.8837(7)
H17 H 0.4831 1.0770 0.9146
C20 C 0.4294(5) 0.4624(6) 0.3361(5)
H18 H 0.4315 0.3907 0.3195
C21 C 0.4222(7) 0.6485(7) 0.8706(6)
H19 H 0.4300 0.5816 0.8987
C22 C 0.3745(7) 0.6566(6) 0.7775(6)
H20 H 0.3528 0.5958 0.7438
C23 C 0.4111(8) 1.0176(6) 0.7939(7)
H21 H 0.3994 1.0841 0.7660
O4 O 0.4205(3) 0.7407(3) 0.1583(3)
C24 C 0.1497(10) 0.6659(9) 0.3372(9)
H22 H 0.0851 0.7092 0.3545
H23 H 0.1214 0.5974 0.3161
C25 C 0.2115(9) 0.7195(10) 0.2495(9)
H24 H 0.2770 0.7567 0.2747
H25 H 0.1613 0.7725 0.2221
C26 C 0.2523(6) 0.6441(5) 0.1637(6)
H26 H 0.2342 0.5708 0.1789
H27 H 0.2142 0.6631 0.1038
H28? H 0.1644 0.5944 0.4406
C27? C 0.1977(9) 0.6163(10) 0.2426(9)
H29? H 0.2342 0.5545 0.2706
H30? H 0.1215 0.5960 0.2249
C28? C 0.1917(11) 0.7062(9) 0.3222(9)
H31? H 0.1171 0.7379 0.3234
H32? H 0.2465 0.7615 0.3083
H33? H 0.2202 0.7118 0.1445
H34? H 0.2294 0.5935 0.1143
loop_
_geom_bond_atom_site_label_1
_geom_bond_atom_site_label_2
_geom_bond_site_symmetry_1
_geom_bond_site_symmetry_2
O1 C3 1_555 1_555
O2 C3 1_555 1_555
O3 C2 1_555 1_555
N1 H1 1_555 1_555
C1 N2 1_555 1_555
N2 C23 1_555 1_555
N3 H2 1_555 1_555
C2 N3 1_555 1_555
C3 C5 1_555 1_555
C4 C1 1_555 1_555
C5 N1 1_555 1_555
H3 C5 1_555 1_555
C6 N1 1_555 1_555
C7 C12 1_555 1_555
C8 C1 1_555 1_555
C9 O1 1_555 1_555
H4 C9 1_555 1_555
H5 C9 1_555 1_555
H6 C9 1_555 1_555
C10 C2 1_555 1_555
H7 C10 1_555 1_555
H8 C10 1_555 1_555
C11 H9 1_555 1_555
C12 C11 1_555 1_555
H10 C12 1_555 1_555
C13 C10 1_555 1_555
H11 C13 1_555 1_555
C14 C8 1_555 1_555
H12 C14 1_555 1_555
C15 C5 1_555 1_555
H13 C15 1_555 1_555
H14 C15 1_555 1_555
C16 C8 1_555 1_555
H15 C16 1_555 1_555
C17 C11 1_555 1_555
C18 C17 1_555 1_555
H16 C18 1_555 1_555
C19 C16 1_555 1_555
H17 C19 1_555 1_555
C20 C7 1_555 1_555
H18 C20 1_555 1_555
C21 C14 1_555 1_555
H19 C21 1_555 1_555
C22 C4 1_555 1_555
H20 C22 1_555 1_555
C23 C19 1_555 1_555
H21 C23 1_555 1_555
O4 C6 1_555 1_555
C24 C13 1_555 1_555
H22 C24 1_555 1_555
H23 C24 1_555 1_555
C25 C24 1_555 1_555
H24 C25 1_555 1_555
H25 C25 1_555 1_555
C26 C6 1_555 1_555
H26 C26 1_555 1_555
H27 C26 1_555 1_555
N3 C4 1_555 1_555
C7 C15 1_555 1_555
C13 C17 1_555 1_555
C18 C20 1_555 1_555
C21 C22 1_555 1_555
C25 C26 1_555 1_555

#END
