
#######################################################################
#
#                 Cambridge Crystallographic Data Centre
#                                CCDC 
#
#######################################################################
#
# If this CIF has been generated from an entry in the Cambridge 
# Structural Database, then it will include bibliographic, chemical, 
# crystal, experimental, refinement or atomic coordinate data resulting 
# from the CCDC's data processing and validation procedures.
#
#######################################################################

data_PEZNAL
_chemical_formula_moiety         'C25 H20 Cl1 F3 N2 O2'
_chemical_name_systematic        
ent-8-Chloro-5-(4-methoxybenzyl)-2-phenyl-9b-(trifluoromethyl)-1,2,5,9b-tetrahydro-4H-azeto[1,2-c]quinazolin-4-one
_symmetry_cell_setting           orthorhombic
_symmetry_space_group_name_H-M   'P 21 21 21'
_symmetry_Int_Tables_number      19
_space_group_name_Hall           'P 2ac 2ab'
loop_
_symmetry_equiv_pos_site_id
_symmetry_equiv_pos_as_xyz
1 x,y,z
2 1/2-x,-y,1/2+z
3 -x,1/2+y,1/2-z
4 1/2+x,1/2-y,-z
_cell_length_a                   8.821(8)
_cell_length_b                   10.413(9)
_cell_length_c                   24.10(2)
_cell_angle_alpha                90
_cell_angle_beta                 90
_cell_angle_gamma                90
_cell_volume                     2213.66
_exptl_crystal_colour            colorless
_exptl_crystal_description       prismatic
_cell_formula_units_Z            4
loop_
_atom_site_label
_atom_site_type_symbol
_atom_site_fract_x
_atom_site_fract_y
_atom_site_fract_z
Cl1 Cl 1.47369(12) 0.54600(12) 0.76888(4)
F1 F 0.81847(19) 0.88794(15) 0.80851(7)
F2 F 0.9471(2) 0.72913(15) 0.77766(6)
F3 F 0.86955(17) 0.73072(14) 0.86230(6)
N1 N 1.0410(2) 0.95298(16) 0.88822(7)
N2 N 1.1310(2) 0.79828(17) 0.95049(7)
O1 O 1.0512(2) 0.99557(16) 0.98070(6)
O2 O 0.8710(2) 0.28267(16) 1.06714(8)
C1 C 1.0992(3) 1.0712(2) 0.86023(9)
H1 H 1.2001 1.0932 0.8744
C2 C 1.1128(3) 0.9907(2) 0.80589(10)
H2 H 1.0387 1.0130 0.7778
H3 H 1.2144 0.9884 0.7905
C3 C 1.0706(3) 0.8700(2) 0.84034(9)
C4 C 1.1897(3) 0.7715(2) 0.85181(9)
C5 C 1.2726(3) 0.7152(3) 0.80988(11)
H4 H 1.2602 0.7418 0.7733
C6 C 1.3733(3) 0.6196(3) 0.82262(12)
C7 C 1.3918(3) 0.5791(3) 0.87664(12)
H5 H 1.4588 0.5126 0.8845
C8 C 1.3121(3) 0.6362(2) 0.91888(11)
H6 H 1.3257 0.6087 0.9553
C9 C 1.2111(3) 0.7350(2) 0.90734(9)
C10 C 1.0736(3) 0.9213(2) 0.94286(9)
C11 C 1.1488(3) 0.7544(2) 1.00840(9)
H7 H 1.1108 0.8207 1.0330
H8 H 1.2560 0.7435 1.0161
C12 C 1.0680(3) 0.6301(2) 1.02134(9)
C13 C 1.0697(3) 0.5850(2) 1.07606(10)
H9 H 1.1174 0.6333 1.1035
C14 C 1.0020(3) 0.4705(3) 1.08991(10)
H10 H 1.0032 0.4422 1.1265
C15 C 0.9321(3) 0.3974(2) 1.04950(10)
C16 C 0.9252(3) 0.4422(2) 0.99580(10)
H11 H 0.8752 0.3949 0.9686
C17 C 0.9931(3) 0.5575(2) 0.98256(9)
H12 H 0.9879 0.5870 0.9462
C18 C 0.7854(4) 0.2123(3) 1.02721(13)
H13 H 0.7066 0.2660 1.0125
H14 H 0.7410 0.1383 1.0446
H15 H 0.8509 0.1851 0.9977
C19 C 1.0003(3) 1.1877(2) 0.85884(9)
C20 C 0.8481(3) 1.1819(2) 0.86566(12)
H16 H 0.8022 1.1040 0.8743
C21 C 0.7609(4) 1.2911(3) 0.85984(14)
H17 H 0.6563 1.2859 0.8641
C22 C 0.8268(4) 1.4074(3) 0.84783(12)
H18 H 0.7674 1.4805 0.8437
C23 C 0.9788(4) 1.4142(2) 0.84206(11)
H19 H 1.0246 1.4928 0.8345
C24 C 1.0661(3) 1.3055(2) 0.84727(9)
H20 H 1.1707 1.3111 0.8430
C25 C 0.9263(3) 0.8051(2) 0.82177(9)
loop_
_geom_bond_atom_site_label_1
_geom_bond_atom_site_label_2
_geom_bond_site_symmetry_1
_geom_bond_site_symmetry_2
Cl1 C6 1_555 1_555
F1 C25 1_555 1_555
F2 C25 1_555 1_555
F3 C25 1_555 1_555
N1 C1 1_555 1_555
N2 C9 1_555 1_555
O1 C10 1_555 1_555
O2 C15 1_555 1_555
C1 H1 1_555 1_555
C2 C1 1_555 1_555
H2 C2 1_555 1_555
H3 C2 1_555 1_555
C3 N1 1_555 1_555
C4 C3 1_555 1_555
C5 C4 1_555 1_555
H4 C5 1_555 1_555
C6 C5 1_555 1_555
C7 C6 1_555 1_555
H5 C7 1_555 1_555
C8 C7 1_555 1_555
H6 C8 1_555 1_555
C9 C4 1_555 1_555
C10 N1 1_555 1_555
C11 N2 1_555 1_555
H7 C11 1_555 1_555
H8 C11 1_555 1_555
C12 C11 1_555 1_555
C13 C12 1_555 1_555
H9 C13 1_555 1_555
C14 C13 1_555 1_555
H10 C14 1_555 1_555
C15 C14 1_555 1_555
C16 C15 1_555 1_555
H11 C16 1_555 1_555
C17 C12 1_555 1_555
H12 C17 1_555 1_555
C18 O2 1_555 1_555
H13 C18 1_555 1_555
H14 C18 1_555 1_555
H15 C18 1_555 1_555
C19 C1 1_555 1_555
C20 C19 1_555 1_555
H16 C20 1_555 1_555
C21 C20 1_555 1_555
H17 C21 1_555 1_555
C22 C21 1_555 1_555
H18 C22 1_555 1_555
C23 C22 1_555 1_555
H19 C23 1_555 1_555
C24 C19 1_555 1_555
H20 C24 1_555 1_555
C25 C3 1_555 1_555
N2 C10 1_555 1_555
C2 C3 1_555 1_555
C8 C9 1_555 1_555
C16 C17 1_555 1_555
C23 C24 1_555 1_555

#END
