
#######################################################################
#
#                 Cambridge Crystallographic Data Centre
#                                CCDC 
#
#######################################################################
#
# If this CIF has been generated from an entry in the Cambridge 
# Structural Database, then it will include bibliographic, chemical, 
# crystal, experimental, refinement or atomic coordinate data resulting 
# from the CCDC's data processing and validation procedures.
#
#######################################################################

data_PEZNEO
_chemical_formula_moiety         'C56 H34 F6 N1 1+,Br1 1-,C1 H2 Cl2'
_chemical_name_systematic        
"(S,S)-bis(3-(3,4,5-trifluorophenyl)-1,1'-binaphthalene-2,2'-dimethylene)aminium bromide dichloromethane solvate"
_symmetry_cell_setting           tetragonal
_symmetry_space_group_name_H-M   'P 43'
_symmetry_Int_Tables_number      78
_space_group_name_Hall           'P 4cw'
loop_
_symmetry_equiv_pos_site_id
_symmetry_equiv_pos_as_xyz
1 x,y,z
2 -x,-y,1/2+z
3 -y,x,3/4+z
4 y,-x,1/4+z
_cell_length_a                   10.2941(4)
_cell_length_b                   10.2941(4)
_cell_length_c                   43.007(2)
_cell_angle_alpha                90
_cell_angle_beta                 90
_cell_angle_gamma                90
_cell_volume                     4557.39
_exptl_crystal_colour            colorless
_exptl_crystal_description       prism
_cell_formula_units_Z            4
_exptl_crystal_recrystallization_method dichloromethane/hexane
loop_
_atom_site_label
_atom_site_type_symbol
_atom_site_fract_x
_atom_site_fract_y
_atom_site_fract_z
Br1 Br -0.01510(7) 0.59797(7) 0.646532(19)
Cl1 Cl 0.16173(19) 0.43989(15) 0.73437(5)
Cl2 Cl -0.0553(2) 0.6118(2) 0.74752(6)
C57 C 0.0044(9) 0.4839(8) 0.7241(2)
H35 H -0.0534 0.4076 0.7263
H36 H 0.0031 0.5113 0.7021
F1 F 0.3351(3) 0.1864(3) 0.69964(11)
F2 F -0.1460(4) 1.2551(4) 0.64947(9)
F3 F 0.7644(3) 0.2863(4) 0.72417(9)
F4 F -0.3154(4) 1.0583(4) 0.63973(10)
N1 N 0.3235(4) 0.7811(4) 0.68665(10)
F5 F -0.2827(3) 0.8305(4) 0.66982(11)
C1 C 0.5382(4) 0.5562(5) 0.64817(13)
C2 C 0.1903(4) 0.7869(5) 0.70272(13)
H1 H 0.1231 0.8041 0.6868
H2 H 0.1716 0.7008 0.7119
C3 C 0.2585(5) 0.9721(5) 0.77816(14)
F6 F 0.5544(4) 0.1351(3) 0.73149(11)
C4 C -0.0075(5) 1.0099(5) 0.70048(13)
C5 C 0.2506(5) 0.8728(4) 0.75511(12)
C6 C 0.0971(5) 1.0915(5) 0.74792(14)
H3 H 0.0416 1.1647 0.7459
C7 C 0.3751(5) 0.5587(5) 0.79252(13)
C8 C 0.4351(4) 0.7868(5) 0.70998(13)
H4 H 0.5154 0.7556 0.6998
H5 H 0.4492 0.8783 0.7162
C9 C 0.4303(5) 0.3682(5) 0.67523(14)
H6 H 0.3524 0.3839 0.6640
C10 C 0.5304(5) 0.8198(5) 0.57089(14)
H7 H 0.4587 0.8758 0.5673
C11 C -0.0957(5) 0.9076(5) 0.69497(14)
H8 H -0.0860 0.8268 0.7054
C12 C 0.3407(5) 0.9668(5) 0.80496(14)
H9 H 0.3979 0.8951 0.8074
C13 C 0.6399(5) 0.5656(5) 0.62745(14)
H10 H 0.7131 0.5107 0.6304
C14 C 0.6562(5) 0.3146(5) 0.70753(15)
C15 C 0.3220(5) 0.7477(5) 0.76024(12)
C16 C 0.2269(5) 0.7904(5) 0.58471(13)
C17 C 0.0936(5) 0.9985(4) 0.72501(13)
C18 C 0.5272(5) 0.7310(5) 0.59717(13)
C19 C 0.1225(5) 0.8782(5) 0.57997(14)
C20 C 0.3392(6) 1.0608(5) 0.82677(15)
H11 H 0.3954 1.0547 0.8442
C21 C 0.3436(5) 0.8985(5) 0.66528(13)
H12 H 0.3182 0.9784 0.6765
H13 H 0.4370 0.9056 0.6600
C22 C 0.4221(5) 0.7210(5) 0.61802(13)
C23 C 0.4718(5) 0.5241(5) 0.77097(15)
H14 H 0.5265 0.4518 0.7750
C24 C 0.1793(4) 0.8885(4) 0.72785(13)
C25 C 0.4109(5) 0.7068(5) 0.73866(12)
C26 C 0.0919(5) 0.9721(5) 0.60315(15)
H15 H 0.0237 1.0325 0.5996
C27 C 0.1789(6) 0.6907(6) 0.53495(15)
H16 H 0.1960 0.6261 0.5197
C28 C 0.1765(6) 0.6234(6) 0.83495(15)
H17 H 0.1091 0.6445 0.8492
C29 C 0.2507(5) 0.6929(5) 0.56197(15)
H18 H 0.3160 0.6293 0.5654
C30 C 0.6543(5) 0.4189(5) 0.68773(14)
H19 H 0.7297 0.4709 0.6852
C31 C 0.3238(5) 0.6519(4) 0.66853(13)
H20 H 0.3339 0.5793 0.6835
H21 H 0.2389 0.6412 0.6580
C32 C -0.0251(5) 1.1280(5) 0.68505(14)
H22 H 0.0330 1.1981 0.6887
C33 C 0.5403(5) 0.4485(5) 0.67117(13)
C34 C -0.1265(6) 1.1425(6) 0.66470(15)
C35 C 0.7411(6) 0.7415(7) 0.55616(16)
H23 H 0.8109 0.7424 0.5417
C36 C 0.1791(6) 1.1814(5) 0.79778(16)
H24 H 0.1263 1.2564 0.7954
C37 C 0.3021(5) 0.8015(5) 0.61280(12)
C38 C 0.4300(4) 0.6434(4) 0.64459(13)
C39 C -0.2138(6) 1.0422(6) 0.65906(16)
C40 C -0.1951(5) 0.9262(6) 0.67451(15)
C41 C 0.6404(5) 0.6524(5) 0.60219(14)
C42 C 0.4875(5) 0.5939(5) 0.74418(14)
H25 H 0.5498 0.5670 0.7292
C43 C 0.4390(5) 0.2665(5) 0.69591(16)
C44 C 0.1606(5) 0.9758(5) 0.63063(14)
H26 H 0.1373 1.0366 0.6463
C45 C 0.1951(5) 0.6978(5) 0.80852(14)
H27 H 0.1387 0.7689 0.8046
C46 C 0.7460(5) 0.6597(6) 0.58134(15)
H28 H 0.8209 0.6077 0.5847
C47 C 0.3535(6) 0.4845(5) 0.82042(15)
H29 H 0.4075 0.4118 0.8247
C48 C 0.1786(5) 1.0846(4) 0.77439(13)
C49 C 0.5495(6) 0.2375(5) 0.71214(15)
C50 C 0.2964(5) 0.6703(5) 0.78721(13)
C51 C 0.0812(6) 0.7824(6) 0.52964(17)
H30 H 0.0345 0.7816 0.5106
C52 C 0.6335(5) 0.8241(6) 0.55147(15)
H31 H 0.6336 0.8833 0.5345
C53 C 0.2662(5) 0.8889(5) 0.63574(13)
C54 C 0.2586(7) 0.5157(6) 0.84058(17)
H32 H 0.2466 0.4649 0.8588
C55 C 0.2554(6) 1.1679(5) 0.82391(15)
H33 H 0.2513 1.2311 0.8400
C56 C 0.0530(5) 0.8723(6) 0.55157(15)
H34 H -0.0149 0.9328 0.5478
Br2 Br 0.1627(6) 0.3359(7) 0.63913(16)
loop_
_geom_bond_atom_site_label_1
_geom_bond_atom_site_label_2
_geom_bond_site_symmetry_1
_geom_bond_site_symmetry_2
Cl1 C57 1_555 1_555
Cl2 C57 1_555 1_555
F1 C43 1_555 1_555
F2 C34 1_555 1_555
F3 C14 1_555 1_555
F4 C39 1_555 1_555
N1 C2 1_555 1_555
F5 C40 1_555 1_555
C1 C13 1_555 1_555
C2 H1 1_555 1_555
H2 C2 1_555 1_555
C3 C5 1_555 1_555
F6 C49 1_555 1_555
C4 C11 1_555 1_555
C5 C15 1_555 1_555
C6 H3 1_555 1_555
C7 C23 1_555 1_555
C8 N1 1_555 1_555
H4 C8 1_555 1_555
H5 C8 1_555 1_555
C9 H6 1_555 1_555
C10 H7 1_555 1_555
C11 H8 1_555 1_555
C12 C3 1_555 1_555
H9 C12 1_555 1_555
C13 H10 1_555 1_555
C14 C30 1_555 1_555
C15 C25 1_555 1_555
C16 C19 1_555 1_555
C17 C4 1_555 1_555
C18 C10 1_555 1_555
C19 C26 1_555 1_555
C20 C12 1_555 1_555
H11 C20 1_555 1_555
C21 N1 1_555 1_555
H12 C21 1_555 1_555
H13 C21 1_555 1_555
C22 C18 1_555 1_555
C23 H14 1_555 1_555
C24 C2 1_555 1_555
C25 C8 1_555 1_555
C26 H15 1_555 1_555
C27 H16 1_555 1_555
C28 H17 1_555 1_555
C29 C16 1_555 1_555
H18 C29 1_555 1_555
C30 H19 1_555 1_555
C31 N1 1_555 1_555
H20 C31 1_555 1_555
H21 C31 1_555 1_555
C32 C4 1_555 1_555
H22 C32 1_555 1_555
C33 C1 1_555 1_555
C34 C32 1_555 1_555
C35 H23 1_555 1_555
C36 H24 1_555 1_555
C37 C16 1_555 1_555
C38 C1 1_555 1_555
C39 C34 1_555 1_555
C40 C11 1_555 1_555
C41 C13 1_555 1_555
C42 C23 1_555 1_555
H25 C42 1_555 1_555
C43 C9 1_555 1_555
C44 C26 1_555 1_555
H26 C44 1_555 1_555
C45 C28 1_555 1_555
H27 C45 1_555 1_555
C46 C35 1_555 1_555
H28 C46 1_555 1_555
C47 C7 1_555 1_555
H29 C47 1_555 1_555
C48 C3 1_555 1_555
C49 C14 1_555 1_555
C50 C7 1_555 1_555
C51 C27 1_555 1_555
H30 C51 1_555 1_555
C52 C10 1_555 1_555
H31 C52 1_555 1_555
C53 C21 1_555 1_555
C54 C28 1_555 1_555
H32 C54 1_555 1_555
C55 C20 1_555 1_555
H33 C55 1_555 1_555
C56 C19 1_555 1_555
H34 C56 1_555 1_555
C57 H35 1_555 1_555
H36 C57 1_555 1_555
C5 C24 1_555 1_555
C6 C17 1_555 1_555
C6 C48 1_555 1_555
C9 C33 1_555 1_555
C15 C50 1_555 1_555
C17 C24 1_555 1_555
C18 C41 1_555 1_555
C22 C37 1_555 1_555
C22 C38 1_555 1_555
C25 C42 1_555 1_555
C27 C29 1_555 1_555
C30 C33 1_555 1_555
C31 C38 1_555 1_555
C35 C52 1_555 1_555
C36 C48 1_555 1_555
C36 C55 1_555 1_555
C37 C53 1_555 1_555
C39 C40 1_555 1_555
C41 C46 1_555 1_555
C43 C49 1_555 1_555
C44 C53 1_555 1_555
C45 C50 1_555 1_555
C47 C54 1_555 1_555
C51 C56 1_555 1_555

#END
