
#######################################################################
#
#                 Cambridge Crystallographic Data Centre
#                                CCDC 
#
#######################################################################
#
# If this CIF has been generated from an entry in the Cambridge 
# Structural Database, then it will include bibliographic, chemical, 
# crystal, experimental, refinement or atomic coordinate data resulting 
# from the CCDC's data processing and validation procedures.
#
#######################################################################

data_PHCPDA
_chemical_formula_moiety         'C30 H31 P3'
_chemical_name_systematic        
2,6,10-Triphenyl-2,6,10-triphosphabicyclo(9.4.0)pentadeca-11(1),12,14-triene
_symmetry_cell_setting           monoclinic
_symmetry_space_group_name_H-M   'P 21/n'
_symmetry_Int_Tables_number      14
_space_group_name_Hall           '-P 2yn'
loop_
_symmetry_equiv_pos_site_id
_symmetry_equiv_pos_as_xyz
1 x,y,z
2 1/2-x,1/2+y,1/2-z
3 -x,-y,-z
4 1/2+x,1/2-y,1/2+z
_cell_length_a                   10.823(1)
_cell_length_b                   17.934(1)
_cell_length_c                   13.122(1)
_cell_angle_alpha                90
_cell_angle_beta                 93.15(1)
_cell_angle_gamma                90
_cell_volume                     2543.13
_exptl_crystal_colour            colorless
_chemical_melting_point          163-6deg.C
_cell_formula_units_Z            4
loop_
_atom_site_label
_atom_site_type_symbol
_atom_site_fract_x
_atom_site_fract_y
_atom_site_fract_z
P1 P 0.58374 0.11051 0.61587
P2 P 0.34370 0.00323 0.66848
P3 P 0.21081 0.14208 0.38122
C1 C 0.54910 0.19370 0.53400
C2 C 0.41200 0.19710 0.49480
C3 C 0.37940 0.14700 0.40370
C4 C 0.17730 0.05560 0.45300
C5 C 0.14280 0.07380 0.56270
C6 C 0.17230 0.01180 0.63820
C7 C 0.37640 0.09110 0.73880
C8 C 0.48140 0.13440 0.72110
C9 C 0.50680 0.19710 0.78090
C10 C 0.42820 0.21840 0.85550
C11 C 0.32460 0.17780 0.87130
C12 C 0.29870 0.11500 0.81400
C13 C 0.73540 0.13890 0.67590
C14 C 0.80960 0.19230 0.63250
C15 C 0.92480 0.20980 0.67890
C16 C 0.96570 0.17390 0.76850
C17 C 0.89130 0.12050 0.81180
C18 C 0.77620 0.10300 0.76550
C19 C 0.34090 -0.06390 0.77690
C20 C 0.39620 -0.04910 0.87310
C21 C 0.39280 -0.10230 0.95010
C22 C 0.33410 -0.17030 0.93100
C23 C 0.27880 -0.18520 0.83490
C24 C 0.28220 -0.13200 0.75780
C25 C 0.18700 0.10960 0.24870
C26 C 0.06410 0.10640 0.21160
C27 C 0.03570 0.08500 0.11110
C28 C 0.13020 0.06670 0.04770
C29 C 0.25310 0.06990 0.08480
C30 C 0.28150 0.09140 0.18530
loop_
_geom_bond_atom_site_label_1
_geom_bond_atom_site_label_2
_geom_bond_site_symmetry_1
_geom_bond_site_symmetry_2
P1 C1 1_555 1_555
P2 C6 1_555 1_555
P3 C3 1_555 1_555
C1 C2 1_555 1_555
C2 C3 1_555 1_555
C4 P3 1_555 1_555
C5 C4 1_555 1_555
C6 C5 1_555 1_555
C7 P2 1_555 1_555
C8 P1 1_555 1_555
C9 C8 1_555 1_555
C10 C9 1_555 1_555
C11 C10 1_555 1_555
C12 C7 1_555 1_555
C13 P1 1_555 1_555
C14 C13 1_555 1_555
C15 C14 1_555 1_555
C16 C15 1_555 1_555
C17 C16 1_555 1_555
C18 C13 1_555 1_555
C19 P2 1_555 1_555
C20 C19 1_555 1_555
C21 C20 1_555 1_555
C22 C21 1_555 1_555
C23 C22 1_555 1_555
C24 C19 1_555 1_555
C25 P3 1_555 1_555
C26 C25 1_555 1_555
C27 C26 1_555 1_555
C28 C27 1_555 1_555
C29 C28 1_555 1_555
C30 C25 1_555 1_555
C7 C8 1_555 1_555
C11 C12 1_555 1_555
C17 C18 1_555 1_555
C23 C24 1_555 1_555
C29 C30 1_555 1_555

#END
