
#######################################################################
#
#                 Cambridge Crystallographic Data Centre
#                                CCDC 
#
#######################################################################
#
# If this CIF has been generated from an entry in the Cambridge 
# Structural Database, then it will include bibliographic, chemical, 
# crystal, experimental, refinement or atomic coordinate data resulting 
# from the CCDC's data processing and validation procedures.
#
#######################################################################

data_PIBDAI
_chemical_formula_moiety         'C34 H34 Br2 O6'
_chemical_name_systematic        
'3,4,7,7-tetramethyl-1-[(3-methylphenyl)methyl]hexahydro-1H-3,7a-epoxycyclopenta[c]pyran-5,6-diyl bis(4-bromobenzoate)'
_symmetry_cell_setting           orthorhombic
_symmetry_space_group_name_H-M   'P 21 21 21'
_symmetry_Int_Tables_number      19
_space_group_name_Hall           'P 2ac 2ab'
loop_
_symmetry_equiv_pos_site_id
_symmetry_equiv_pos_as_xyz
1 x,y,z
2 1/2-x,-y,1/2+z
3 -x,1/2+y,1/2-z
4 1/2+x,1/2-y,-z
_cell_length_a                   12.1102(4)
_cell_length_b                   15.9084(5)
_cell_length_c                   16.4050(5)
_cell_angle_alpha                90
_cell_angle_beta                 90
_cell_angle_gamma                90
_cell_volume                     3160.49
_exptl_crystal_colour            colorless
_exptl_crystal_description       block
_cell_formula_units_Z            4
loop_
_atom_site_label
_atom_site_type_symbol
_atom_site_fract_x
_atom_site_fract_y
_atom_site_fract_z
Br1 Br -0.12898(3) 0.07956(3) 1.01839(2)
O1 O 0.73830(16) 0.21955(13) 0.78347(13)
C1 C 0.5115(2) 0.17251(18) 0.77128(18)
H1 H 0.4895 0.1884 0.8280
C2 C 0.2918(2) 0.08219(19) 0.80878(19)
C3 C 0.3835(2) 0.2179(2) 0.51019(19)
Br2 Br 0.62155(3) 0.11684(2) 0.19498(2)
O2 O 0.63823(17) 0.20123(12) 0.66949(11)
C4 C 0.4094(2) 0.15396(18) 0.71785(19)
H2 H 0.4189 0.0988 0.6894
C5 C 0.1865(2) 0.0837(2) 0.85664(18)
C6 C 0.4435(3) 0.19067(19) 0.43519(18)
O3 O 0.30796(17) 0.15327(14) 0.76529(13)
C7 C 0.3990(2) 0.22485(18) 0.65492(17)
H3 H 0.3214 0.2461 0.6519
C8 C 0.1729(3) 0.0224(2) 0.9159(2)
H4 H 0.2283 -0.0192 0.9235
C9 C 0.3869(3) 0.1920(2) 0.3615(2)
H5 H 0.3118 0.2090 0.3603
O4 O 0.35569(19) 0.02474(14) 0.80863(15)
C10 C 0.4797(2) 0.29598(19) 0.68093(18)
C11 C 0.0794(3) 0.0216(2) 0.96393(19)
H6 H 0.0705 -0.0196 1.0054
C12 C 0.4389(3) 0.1689(2) 0.2905(2)
H7 H 0.4001 0.1692 0.2401
O5 O 0.43357(17) 0.18928(13) 0.57762(12)
C13 C 0.5680(2) 0.24633(18) 0.72714(17)
C14 C -0.0007(3) 0.0813(2) 0.95080(19)
C15 C 0.5492(3) 0.14514(19) 0.2936(2)
O6 O 0.3018(2) 0.2620(2) 0.51009(16)
C16 C 0.6582(2) 0.28745(18) 0.77881(18)
H8 H 0.6913 0.3348 0.7471
C17 C 0.0088(3) 0.1426(2) 0.8902(2)
H9 H -0.0485 0.1823 0.8811
C18 C 0.6072(3) 0.1437(2) 0.3667(2)
H10 H 0.6826 0.1273 0.3678
C19 C 0.6331(3) 0.3182(2) 0.86506(18)
H11 H 0.5719 0.3594 0.8633
H12 H 0.6094 0.2702 0.8992
C20 C 0.1041(3) 0.1437(2) 0.8441(2)
H13 H 0.1137 0.1856 0.8035
C21 C 0.5539(3) 0.1663(2) 0.43776(19)
H14 H 0.5924 0.1653 0.4882
C22 C 0.7342(3) 0.3589(2) 0.90265(19)
C23 C 0.7992(3) 0.3160(2) 0.9587(2)
H15 H 0.7796 0.2609 0.9757
C24 C 0.8938(3) 0.3551(3) 0.9898(2)
H16 H 0.9395 0.3255 1.0271
C25 C 0.9218(3) 0.4354(3) 0.9674(2)
H17 H 0.9857 0.4610 0.9901
C26 C 0.8583(3) 0.4795(3) 0.9120(2)
C27 C 0.7645(3) 0.4400(2) 0.88021(19)
H18 H 0.7200 0.4696 0.8421
C28 C 0.8888(4) 0.5682(3) 0.8871(3)
H19 H 0.9083 0.5691 0.8291
H20 H 0.9521 0.5873 0.9194
H21 H 0.8259 0.6057 0.8966
C29 C 0.7908(3) 0.1052(2) 0.6933(2)
H22 H 0.7613 0.0602 0.6589
H23 H 0.8350 0.0808 0.7374
H24 H 0.8373 0.1424 0.6603
C30 C 0.6969(2) 0.15495(19) 0.72906(19)
C31 C 0.6044(2) 0.10572(18) 0.77175(19)
H25 H 0.5817 0.0580 0.7357
C32 C 0.6339(3) 0.0706(2) 0.8554(2)
H26 H 0.5709 0.0392 0.8773
H27 H 0.6521 0.1170 0.8924
H28 H 0.6977 0.0330 0.8504
C33 C 0.5269(3) 0.3465(2) 0.6100(2)
H29 H 0.5691 0.3091 0.5742
H30 H 0.5756 0.3906 0.6312
H31 H 0.4664 0.3722 0.5792
C34 C 0.4176(3) 0.3542(2) 0.7397(2)
H32 H 0.4676 0.3985 0.7588
H33 H 0.3910 0.3216 0.7864
H34 H 0.3547 0.3797 0.7114
loop_
_geom_bond_atom_site_label_1
_geom_bond_atom_site_label_2
_geom_bond_site_symmetry_1
_geom_bond_site_symmetry_2
Br1 C14 1_555 1_555
O1 C16 1_555 1_555
C1 H1 1_555 1_555
C2 C5 1_555 1_555
C3 C6 1_555 1_555
Br2 C15 1_555 1_555
O2 C13 1_555 1_555
C4 C1 1_555 1_555
H2 C4 1_555 1_555
C5 C8 1_555 1_555
C6 C9 1_555 1_555
O3 C2 1_555 1_555
C7 C4 1_555 1_555
H3 C7 1_555 1_555
C8 H4 1_555 1_555
C9 H5 1_555 1_555
O4 C2 1_555 1_555
C10 C7 1_555 1_555
C11 C8 1_555 1_555
H6 C11 1_555 1_555
C12 C9 1_555 1_555
H7 C12 1_555 1_555
O5 C3 1_555 1_555
C13 C1 1_555 1_555
C14 C11 1_555 1_555
C15 C12 1_555 1_555
O6 C3 1_555 1_555
C16 C13 1_555 1_555
H8 C16 1_555 1_555
C17 C14 1_555 1_555
H9 C17 1_555 1_555
C18 C15 1_555 1_555
H10 C18 1_555 1_555
C19 C16 1_555 1_555
H11 C19 1_555 1_555
H12 C19 1_555 1_555
C20 C5 1_555 1_555
H13 C20 1_555 1_555
C21 C6 1_555 1_555
H14 C21 1_555 1_555
C22 C19 1_555 1_555
C23 C22 1_555 1_555
H15 C23 1_555 1_555
C24 C23 1_555 1_555
H16 C24 1_555 1_555
C25 C24 1_555 1_555
H17 C25 1_555 1_555
C26 C25 1_555 1_555
C27 C22 1_555 1_555
H18 C27 1_555 1_555
C28 C26 1_555 1_555
H19 C28 1_555 1_555
H20 C28 1_555 1_555
H21 C28 1_555 1_555
C29 H22 1_555 1_555
H23 C29 1_555 1_555
H24 C29 1_555 1_555
C30 O1 1_555 1_555
C31 C1 1_555 1_555
H25 C31 1_555 1_555
C32 C31 1_555 1_555
H26 C32 1_555 1_555
H27 C32 1_555 1_555
H28 C32 1_555 1_555
C33 C10 1_555 1_555
H29 C33 1_555 1_555
H30 C33 1_555 1_555
H31 C33 1_555 1_555
C34 C10 1_555 1_555
H32 C34 1_555 1_555
H33 C34 1_555 1_555
H34 C34 1_555 1_555
O2 C30 1_555 1_555
C4 O3 1_555 1_555
C7 O5 1_555 1_555
C10 C13 1_555 1_555
C17 C20 1_555 1_555
C18 C21 1_555 1_555
C26 C27 1_555 1_555
C29 C30 1_555 1_555
C30 C31 1_555 1_555

#END
