
#######################################################################
#
#                 Cambridge Crystallographic Data Centre
#                                CCDC 
#
#######################################################################
#
# If this CIF has been generated from an entry in the Cambridge 
# Structural Database, then it will include bibliographic, chemical, 
# crystal, experimental, refinement or atomic coordinate data resulting 
# from the CCDC's data processing and validation procedures.
#
#######################################################################

data_PIBJES
_chemical_formula_moiety         'C16 H14 Br1 N1 O3 S1'
_chemical_name_systematic        
4-[2-(4-bromophenyl)-2-phenylethyl]-1,2\l^6^,3-oxathiazole-2,2(5H)-dione
_symmetry_cell_setting           monoclinic
_symmetry_space_group_name_H-M   'P 21'
_symmetry_Int_Tables_number      4
_space_group_name_Hall           'P 2yb'
loop_
_symmetry_equiv_pos_site_id
_symmetry_equiv_pos_as_xyz
1 x,y,z
2 -x,1/2+y,-z
_cell_length_a                   6.4119(17)
_cell_length_b                   8.676(2)
_cell_length_c                   14.040(4)
_cell_angle_alpha                90
_cell_angle_beta                 94.972(6)
_cell_angle_gamma                90
_cell_volume                     778.101
_exptl_crystal_colour            colorless
_exptl_crystal_description       block
_cell_formula_units_Z            2
loop_
_atom_site_label
_atom_site_type_symbol
_atom_site_fract_x
_atom_site_fract_y
_atom_site_fract_z
Br1 Br 1.02241(18) 0.07507(13) 1.00863(7)
S1 S -0.1159(3) 0.4532(2) 0.48349(16)
O1 O -0.2310(9) 0.3151(9) 0.4695(5)
O2 O -0.2324(9) 0.5928(8) 0.4820(5)
O3 O 0.0560(9) 0.4657(9) 0.4091(5)
N1 N 0.0437(10) 0.4395(8) 0.5827(5)
C1 C 0.3904(12) 0.6097(8) 0.7569(6)
C2 C 0.5555(13) 0.3484(8) 0.8039(7)
C3 C 0.4999(11) 0.3198(10) 0.8947(6)
H1 H 0.3685 0.3525 0.9139
C4 C 0.8289(17) 0.1882(9) 0.9260(8)
C5 C 0.6470(13) 0.2391(10) 0.9594(7)
H2 H 0.6188 0.2215 1.0238
C6 C 0.8722(14) 0.2211(9) 0.8325(7)
H3 H 1.0016 0.1881 0.8113
C7 C 0.4179(14) 0.4087(10) 0.6294(7)
H4 H 0.5332 0.4755 0.6112
H5 H 0.4630 0.3005 0.6221
C8 C 0.2323(12) 0.4364(10) 0.5603(6)
C9 C 0.3899(11) 0.4370(9) 0.7365(6)
H6 H 0.2488 0.3965 0.7491
C10 C 0.7340(14) 0.2994(10) 0.7705(7)
H7 H 0.7631 0.3184 0.7064
C11 C 0.2045(16) 0.6872(11) 0.7673(7)
H8 H 0.0757 0.6326 0.7609
C12 C 0.2613(12) 0.4534(11) 0.4572(6)
H9 H 0.3443 0.5469 0.4462
H10 H 0.3352 0.3627 0.4338
C13 C 0.205(2) 0.8428(12) 0.7869(9)
H11 H 0.0772 0.8936 0.7955
C14 C 0.5824(17) 0.6894(11) 0.7663(10)
H12 H 0.7094 0.6351 0.7606
C15 C 0.587(2) 0.8460(12) 0.7838(11)
H13 H 0.7156 0.9013 0.7892
C16 C 0.3856(18) 0.9244(12) 0.7939(8)
H14 H 0.3828 1.0323 0.8053
loop_
_geom_bond_atom_site_label_1
_geom_bond_atom_site_label_2
_geom_bond_site_symmetry_1
_geom_bond_site_symmetry_2
Br1 C4 1_555 1_555
S1 O1 1_555 1_555
O2 S1 1_555 1_555
O3 S1 1_555 1_555
N1 S1 1_555 1_555
C1 C9 1_555 1_555
C2 C3 1_555 1_555
C3 H1 1_555 1_555
C4 C5 1_555 1_555
C5 C3 1_555 1_555
H2 C5 1_555 1_555
C6 C4 1_555 1_555
H3 C6 1_555 1_555
C7 H4 1_555 1_555
H5 C7 1_555 1_555
C8 N1 1_555 1_555
C9 C2 1_555 1_555
H6 C9 1_555 1_555
C10 C2 1_555 1_555
H7 C10 1_555 1_555
C11 C1 1_555 1_555
H8 C11 1_555 1_555
C12 O3 1_555 1_555
H9 C12 1_555 1_555
H10 C12 1_555 1_555
C13 C11 1_555 1_555
H11 C13 1_555 1_555
C14 C1 1_555 1_555
H12 C14 1_555 1_555
C15 C14 1_555 1_555
H13 C15 1_555 1_555
C16 C13 1_555 1_555
H14 C16 1_555 1_555
C6 C10 1_555 1_555
C7 C8 1_555 1_555
C7 C9 1_555 1_555
C8 C12 1_555 1_555
C15 C16 1_555 1_555

#END
