
#######################################################################
#
#                 Cambridge Crystallographic Data Centre
#                                CCDC 
#
#######################################################################
#
# If this CIF has been generated from an entry in the Cambridge 
# Structural Database, then it will include bibliographic, chemical, 
# crystal, experimental, refinement or atomic coordinate data resulting 
# from the CCDC's data processing and validation procedures.
#
#######################################################################

data_PIBTIF
_chemical_formula_moiety         'C24 H35 N2 O4 1+,C24 H20 B1 1-'
_chemical_name_systematic        
'4-(2-(4-(bis(2-(2-methoxyethoxy)ethyl)amino)phenyl)vinyl)-1-methylpyridinium tetraphenylborate'
_symmetry_cell_setting           monoclinic
_symmetry_space_group_name_H-M   'P 21/n'
_symmetry_Int_Tables_number      14
_space_group_name_Hall           '-P 2yn'
loop_
_symmetry_equiv_pos_site_id
_symmetry_equiv_pos_as_xyz
1 x,y,z
2 1/2-x,1/2+y,1/2-z
3 -x,-y,-z
4 1/2+x,1/2-y,1/2+z
_cell_length_a                   11.498(5)
_cell_length_b                   20.358(5)
_cell_length_c                   18.085(5)
_cell_angle_alpha                90
_cell_angle_beta                 97.436(5)
_cell_angle_gamma                90
_cell_volume                     4197.67
_exptl_crystal_colour            red
_exptl_crystal_description       block
_cell_formula_units_Z            4
loop_
_atom_site_label
_atom_site_type_symbol
_atom_site_fract_x
_atom_site_fract_y
_atom_site_fract_z
N1 N 0.6122(2) 0.31404(14) 1.30267(15)
O1 O 0.1199(2) -0.00877(12) 0.74978(13)
C1 C 0.3888(3) 0.04377(19) 0.88807(18)
C2 C 0.4717(3) 0.14960(18) 1.09358(17)
H1 H 0.4496 0.1296 1.1358
N2 N 0.3614(2) 0.01077(16) 0.82220(15)
C3 C 0.5561(3) 0.24240(17) 1.17289(16)
C4 C 0.3809(3) 0.05677(17) 1.02039(18)
H2 H 0.3561 0.0406 1.0638
C5 C 0.4439(3) 0.11504(17) 1.02383(17)
O2 O 0.5444(2) -0.03538(17) 0.72996(15)
C6 C 0.5452(3) 0.21578(16) 1.24283(17)
H3 H 0.5184 0.1729 1.2463
C7 C 0.5262(3) 0.20761(18) 1.10342(18)
H4 H 0.5471 0.2277 1.0609
C8 C 0.3536(3) 0.02209(17) 0.95540(19)
H5 H 0.3109 -0.0167 0.9560
C9 C 0.1658(3) -0.04303(18) 0.8153(2)
H6 H 0.1293 -0.0860 0.8158
H7 H 0.1482 -0.0190 0.8588
C10 C 0.4800(3) 0.13639(18) 0.95708(18)
H8 H 0.5235 0.1749 0.9568
C11 C 0.5732(3) 0.25158(18) 1.30545(18)
H9 H 0.5655 0.2329 1.3515
O3 O -0.0987(3) 0.07228(16) 0.69544(16)
C12 C 0.4533(3) 0.1022(2) 0.89210(18)
H10 H 0.4790 0.1183 0.8489
C13 C 0.6002(3) 0.30633(17) 1.17253(18)
H11 H 0.6120 0.3257 1.1275
C14 C 0.2963(3) -0.05067(19) 0.8181(2)
H12 H 0.3249 -0.0772 0.8612
H13 H 0.3123 -0.0744 0.7740
C15 C 0.6261(3) 0.34045(17) 1.2365(2)
H14 H 0.6541 0.3832 1.2346
C16 C -0.0508(4) 0.0170(2) 0.6654(2)
H15 H 0.0081 0.0304 0.6347
H16 H -0.1118 -0.0067 0.6342
C17 C 0.0031(4) -0.0265(2) 0.7259(2)
H17 H -0.0417 -0.0241 0.7677
H18 H 0.0006 -0.0716 0.7083
C18 C 0.3912(3) 0.0380(2) 0.7522(2)
H19 H 0.3725 0.0845 0.7510
H20 H 0.3413 0.0173 0.7114
C19 C 0.6399(4) 0.35272(19) 1.3714(2)
H21 H 0.7171 0.3416 1.3949
H22 H 0.5837 0.3431 1.4048
H23 H 0.6369 0.3987 1.3595
C20 C 0.5158(4) 0.0303(3) 0.7382(2)
H24 H 0.5277 0.0542 0.6933
H25 H 0.5674 0.0491 0.7795
C21 C 0.6558(4) -0.0398(3) 0.7032(2)
H26 H 0.6459 -0.0340 0.6496
H27 H 0.7069 -0.0051 0.7254
C22 C -0.1620(4) 0.1069(3) 0.6415(3)
H28 H -0.1112 0.1242 0.6081
H29 H -0.2006 0.1424 0.6633
H30 H -0.2197 0.0788 0.6144
C23 C 0.7077(5) -0.1022(3) 0.7220(4)
H31 H 0.6517 -0.1370 0.7078
H32 H 0.7753 -0.1088 0.6959
C24 C 0.7994(6) -0.1478(4) 0.8264(5)
H33 H 0.8656 -0.1545 0.7999
H34 H 0.7525 -0.1870 0.8236
H35 H 0.8264 -0.1380 0.8776
O4 O 0.7418(4) -0.1031(3) 0.7990(3)
C25 C 0.8904(3) 0.20597(16) -0.01732(16)
C26 C 0.7986(3) 0.32506(15) 0.01230(15)
C27 C 0.9385(3) 0.26654(14) 0.11699(15)
C28 C 1.0281(3) 0.30912(16) -0.00487(16)
C29 C 0.6904(3) 0.30856(16) -0.02747(15)
H36 H 0.6823 0.2675 -0.0501
C30 C 0.8595(3) 0.23184(15) 0.15503(16)
H37 H 0.7943 0.2129 0.1272
C31 C 1.0323(3) 0.29400(17) 0.16280(17)
H38 H 1.0874 0.3184 0.1413
C32 C 0.9112(3) 0.14475(18) 0.01570(19)
H39 H 0.9386 0.1429 0.0664
C33 C 0.8527(3) 0.20368(19) -0.09385(18)
H40 H 0.8394 0.2431 -0.1196
B1 B 0.9132(3) 0.27622(18) 0.02648(18)
C34 C 0.8011(3) 0.38719(17) 0.04424(18)
H41 H 0.8703 0.4009 0.0723
C35 C 1.1377(3) 0.27680(19) 0.00560(18)
H42 H 1.1439 0.2377 0.0323
C36 C 0.5944(3) 0.35032(19) -0.03489(18)
H43 H 0.5241 0.3368 -0.0618
C37 C 1.0285(3) 0.36721(18) -0.04526(19)
H44 H 0.9595 0.3915 -0.0534
C38 C 0.7069(4) 0.42973(18) 0.0368(2)
H45 H 0.7141 0.4711 0.0587
C39 C 0.8729(3) 0.22414(17) 0.23175(18)
H46 H 0.8177 0.2006 0.2542
C40 C 0.9680(4) 0.2513(2) 0.2745(2)
H47 H 0.9787 0.2461 0.3260
C41 C 0.6026(3) 0.4108(2) -0.00299(19)
H48 H 0.5384 0.4390 -0.0081
C42 C 1.2368(3) 0.3006(2) -0.0221(2)
H49 H 1.3071 0.2776 -0.0135
C43 C 0.8343(3) 0.1453(3) -0.1331(2)
H50 H 0.8089 0.1464 -0.1841
C44 C 1.1263(4) 0.3907(2) -0.0740(2)
H51 H 1.1207 0.4293 -0.1018
C45 C 0.8929(4) 0.0855(2) -0.0238(3)
H52 H 0.9080 0.0458 0.0010
C46 C 1.0462(4) 0.2860(2) 0.2401(2)
H53 H 1.1106 0.3049 0.2687
C47 C 1.2310(4) 0.3582(3) -0.0621(2)
H54 H 1.2969 0.3746 -0.0807
C48 C 0.8531(4) 0.0858(3) -0.0979(3)
H55 H 0.8390 0.0467 -0.1240
loop_
_geom_bond_atom_site_label_1
_geom_bond_atom_site_label_2
_geom_bond_site_symmetry_1
_geom_bond_site_symmetry_2
N1 C11 1_555 1_555
O1 C9 1_555 1_555
C1 N2 1_555 1_555
C2 H1 1_555 1_555
N2 C14 1_555 1_555
C3 C6 1_555 1_555
C4 H2 1_555 1_555
C5 C2 1_555 1_555
O2 C20 1_555 1_555
C6 H3 1_555 1_555
C7 C2 1_555 1_555
H4 C7 1_555 1_555
C8 C1 1_555 1_555
H5 C8 1_555 1_555
C9 H6 1_555 1_555
H7 C9 1_555 1_555
C10 C5 1_555 1_555
H8 C10 1_555 1_555
C11 C6 1_555 1_555
H9 C11 1_555 1_555
O3 C16 1_555 1_555
C12 C1 1_555 1_555
H10 C12 1_555 1_555
C13 C3 1_555 1_555
H11 C13 1_555 1_555
C14 C9 1_555 1_555
H12 C14 1_555 1_555
H13 C14 1_555 1_555
C15 N1 1_555 1_555
H14 C15 1_555 1_555
C16 H15 1_555 1_555
H16 C16 1_555 1_555
C17 O1 1_555 1_555
H17 C17 1_555 1_555
H18 C17 1_555 1_555
C18 N2 1_555 1_555
H19 C18 1_555 1_555
H20 C18 1_555 1_555
C19 N1 1_555 1_555
H21 C19 1_555 1_555
H22 C19 1_555 1_555
H23 C19 1_555 1_555
C20 C18 1_555 1_555
H24 C20 1_555 1_555
H25 C20 1_555 1_555
C21 O2 1_555 1_555
H26 C21 1_555 1_555
H27 C21 1_555 1_555
C22 O3 1_555 1_555
H28 C22 1_555 1_555
H29 C22 1_555 1_555
H30 C22 1_555 1_555
C23 C21 1_555 1_555
H31 C23 1_555 1_555
H32 C23 1_555 1_555
C24 H33 1_555 1_555
H34 C24 1_555 1_555
H35 C24 1_555 1_555
O4 C23 1_555 1_555
C25 C32 1_555 1_555
C26 C29 1_555 1_555
C27 C30 1_555 1_555
C28 B1 1_555 1_555
C29 H36 1_555 1_555
C30 H37 1_555 1_555
C31 C27 1_555 1_555
H38 C31 1_555 1_555
C32 H39 1_555 1_555
C33 C25 1_555 1_555
H40 C33 1_555 1_555
B1 C25 1_555 1_555
C34 C26 1_555 1_555
H41 C34 1_555 1_555
C35 C28 1_555 1_555
H42 C35 1_555 1_555
C36 C29 1_555 1_555
H43 C36 1_555 1_555
C37 C28 1_555 1_555
H44 C37 1_555 1_555
C38 C34 1_555 1_555
H45 C38 1_555 1_555
C39 C30 1_555 1_555
H46 C39 1_555 1_555
C40 C39 1_555 1_555
H47 C40 1_555 1_555
C41 C36 1_555 1_555
H48 C41 1_555 1_555
C42 C35 1_555 1_555
H49 C42 1_555 1_555
C43 C33 1_555 1_555
H50 C43 1_555 1_555
C44 C37 1_555 1_555
H51 C44 1_555 1_555
C45 C32 1_555 1_555
H52 C45 1_555 1_555
C46 C31 1_555 1_555
H53 C46 1_555 1_555
C47 C42 1_555 1_555
H54 C47 1_555 1_555
C48 C43 1_555 1_555
H55 C48 1_555 1_555
C3 C7 1_555 1_555
C4 C5 1_555 1_555
C4 C8 1_555 1_555
C10 C12 1_555 1_555
C13 C15 1_555 1_555
C16 C17 1_555 1_555
C24 O4 1_555 1_555
C26 B1 1_555 1_555
C27 B1 1_555 1_555
C38 C41 1_555 1_555
C40 C46 1_555 1_555
C44 C47 1_555 1_555
C45 C48 1_555 1_555

#END
