
#######################################################################
#
#                 Cambridge Crystallographic Data Centre
#                                CCDC 
#
#######################################################################
#
# If this CIF has been generated from an entry in the Cambridge 
# Structural Database, then it will include bibliographic, chemical, 
# crystal, experimental, refinement or atomic coordinate data resulting 
# from the CCDC's data processing and validation procedures.
#
#######################################################################

data_PICFEM
_chemical_formula_moiety         'C9 H6 N2 O6,C11 H12 O4'
_chemical_name_systematic        
'2,4-Dinitrocinnamic acid 2,5-dimethoxycinnamic acid'
_symmetry_cell_setting           triclinic
_symmetry_space_group_name_H-M   'P -1'
_symmetry_Int_Tables_number      2
_space_group_name_Hall           '-P 1'
loop_
_symmetry_equiv_pos_site_id
_symmetry_equiv_pos_as_xyz
1 x,y,z
2 -x,-y,-z
_cell_length_a                   9.008(3)
_cell_length_b                   10.088(3)
_cell_length_c                   11.874(2)
_cell_angle_alpha                97.51(2)
_cell_angle_beta                 97.51(2)
_cell_angle_gamma                103.17(3)
_cell_volume                     1027.14
_cell_formula_units_Z            2
loop_
_atom_site_label
_atom_site_type_symbol
_atom_site_fract_x
_atom_site_fract_y
_atom_site_fract_z
C1 C -0.1969(5) 0.2783(4) 0.6531(3)
C2 C -0.2700(5) 0.3748(4) 0.6991(3)
C3 C -0.3172(5) 0.3774(5) 0.8056(4)
C4 C -0.2927(5) 0.2741(4) 0.8662(3)
C5 C -0.2206(6) 0.1774(5) 0.8264(4)
C6 C -0.1731(6) 0.1810(5) 0.7228(4)
C7 C -0.1415(6) 0.2766(5) 0.5424(4)
C8 C -0.0742(6) 0.1891(5) 0.4945(4)
C9 C -0.0251(5) 0.1970(5) 0.3837(4)
N1 N -0.3076(5) 0.4821(4) 0.6331(4)
N2 N -0.3486(5) 0.2719(5) 0.9766(3)
O1 O -0.3422(8) 0.4475(7) 0.5264(5)
O3 O -0.3449(5) 0.5742(4) 0.6813(3)
O4 O -0.3405(5) 0.1739(5) 1.0242(3)
O5 O -0.4004(5) 0.3648(4) 1.0149(3)
O6 O 0.0483(4) 0.1100(3) 0.3472(3)
O7 O -0.0513(5) 0.2859(4) 0.3281(3)
H1 H -0.371(5) 0.444(4) 0.838(4)
H2 H -0.218(5) 0.106(5) 0.875(4)
H3 H -0.125(5) 0.115(4) 0.697(3)
H4 H -0.165(7) 0.336(6) 0.502(5)
H5 H -0.065(5) 0.116(4) 0.525(4)
H6 H 0.081(7) 0.125(6) 0.255(6)
C10 C 0.2778(4) 0.1540(4) -0.1837(3)
C11 C 0.2683(5) 0.2511(4) -0.2574(4)
C12 C 0.3205(5) 0.2368(5) -0.3616(4)
C13 C 0.3836(5) 0.1295(4) -0.3943(4)
C14 C 0.3981(5) 0.0337(4) -0.3213(3)
C15 C 0.3440(5) 0.0457(4) -0.2193(4)
C16 C 0.2224(5) 0.1568(4) -0.0738(4)
C17 C 0.1548(6) 0.2419(5) -0.0197(4)
C18 C 0.1021(5) 0.2230(5) 0.0892(4)
C19 C 0.2262(9) 0.4732(6) -0.2763(5)
C20 C 0.4851(9) -0.1669(7) -0.2871(6)
O8 O 0.0311(5) 0.3120(4) 0.1270(3)
O9 O 0.1240(4) 0.1283(3) 0.1415(3)
O10 O 0.2054(4) 0.3564(3) -0.2196(2)
O11 O 0.4662(4) -0.0673(3) -0.3606(2)
H7 H 0.313(4) 0.300(4) -0.406(3)
H8 H 0.423(4) 0.117(4) -0.467(3)
H9 H 0.345(4) -0.017(4) -0.174(3)
H10 H 0.236(4) 0.085(3) -0.039(3)
H11 H 0.131(4) 0.311(4) -0.047(3)
H12 H 0.344(7) 0.511(5) -0.278(4)
H13 H 0.171(6) 0.450(5) -0.364(5)
H14 H 0.183(4) 0.534(4) -0.228(3)
H15 H 0.534(4) -0.224(4) -0.336(3)
H16 H 0.548(6) -0.121(5) -0.213(4)
H17 H 0.381(6) -0.215(5) -0.272(4)
H18 H 0.002(6) 0.302(6) 0.196(5)
O2? O -0.2054(17) 0.5221(11) 0.5689(11)
loop_
_geom_bond_atom_site_label_1
_geom_bond_atom_site_label_2
_geom_bond_site_symmetry_1
_geom_bond_site_symmetry_2
C1 C2 1_555 1_555
C2 C3 1_555 1_555
C3 C4 1_555 1_555
C4 C5 1_555 1_555
C5 C6 1_555 1_555
C6 C1 1_555 1_555
C7 C1 1_555 1_555
C8 C7 1_555 1_555
C9 C8 1_555 1_555
N1 C2 1_555 1_555
N2 C4 1_555 1_555
O1 N1 1_555 1_555
O3 N1 1_555 1_555
O4 N2 1_555 1_555
O5 N2 1_555 1_555
O6 C9 1_555 1_555
O7 C9 1_555 1_555
H1 C3 1_555 1_555
H2 C5 1_555 1_555
H3 C6 1_555 1_555
H4 C7 1_555 1_555
H5 C8 1_555 1_555
H6 O6 1_555 1_555
C10 C11 1_555 1_555
C11 C12 1_555 1_555
C12 C13 1_555 1_555
C13 C14 1_555 1_555
C14 C15 1_555 1_555
C15 C10 1_555 1_555
C16 C10 1_555 1_555
C17 C16 1_555 1_555
C18 C17 1_555 1_555
C19 O10 1_555 1_555
C20 O11 1_555 1_555
O8 C18 1_555 1_555
O9 C18 1_555 1_555
O10 C11 1_555 1_555
O11 C14 1_555 1_555
H7 C12 1_555 1_555
H8 C13 1_555 1_555
H9 C15 1_555 1_555
H10 C16 1_555 1_555
H11 C17 1_555 1_555
H12 C19 1_555 1_555
H13 C19 1_555 1_555
H14 C19 1_555 1_555
H15 C20 1_555 1_555
H16 C20 1_555 1_555
H17 C20 1_555 1_555
H18 O8 1_555 1_555

#END
