
#######################################################################
#
#                 Cambridge Crystallographic Data Centre
#                                CCDC 
#
#######################################################################
#
# If this CIF has been generated from an entry in the Cambridge 
# Structural Database, then it will include bibliographic, chemical, 
# crystal, experimental, refinement or atomic coordinate data resulting 
# from the CCDC's data processing and validation procedures.
#
#######################################################################

data_PICFEO01
_chemical_formula_moiety         'C30 H16'
_chemical_name_systematic        (+)-(P)-2,15-diethynylhexahelicene
_symmetry_cell_setting           monoclinic
_symmetry_space_group_name_H-M   'P 21'
_symmetry_Int_Tables_number      4
_space_group_name_Hall           'P 2yb'
loop_
_symmetry_equiv_pos_site_id
_symmetry_equiv_pos_as_xyz
1 x,y,z
2 -x,1/2+y,-z
_cell_length_a                   7.28350(10)
_cell_length_b                   13.17080(10)
_cell_length_c                   10.05140(10)
_cell_angle_alpha                90
_cell_angle_beta                 92.8580(10)
_cell_angle_gamma                90
_cell_volume                     963.027
_exptl_crystal_colour            'light yellow'
_exptl_crystal_description       block
_cell_formula_units_Z            2
loop_
_atom_site_label
_atom_site_type_symbol
_atom_site_fract_x
_atom_site_fract_y
_atom_site_fract_z
C1 C 0.3136(4) 0.6047(2) 0.0798(3)
H1 H 0.1999 0.5893 0.0338
C2 C 0.4558(4) 0.62384(19) 0.1373(2)
C3 C 0.6313(3) 0.64161(18) 0.2056(2)
C4 C 0.7751(3) 0.6876(2) 0.1391(2)
H2 H 0.7562 0.7088 0.0491
C5 C 0.9428(3) 0.7016(2) 0.2052(3)
H3 H 1.0375 0.7360 0.1618
C6 C 0.9770(3) 0.66562(18) 0.3365(2)
C7 C 0.8351(3) 0.61454(18) 0.4025(2)
C8 C 0.6606(3) 0.60965(18) 0.3360(2)
H4 H 0.5600 0.5836 0.3821
C9 C 1.1502(3) 0.68336(19) 0.4049(3)
H5 H 1.2473 0.7138 0.3593
C10 C 1.1767(3) 0.65705(19) 0.5342(2)
H6 H 1.2904 0.6729 0.5799
C11 C 1.0379(3) 0.60595(19) 0.6038(2)
C12 C 0.8727(3) 0.57410(17) 0.5360(2)
C13 C 1.0625(3) 0.5928(2) 0.7444(2)
H7 H 1.1762 0.6104 0.7889
C14 C 0.9237(4) 0.5552(2) 0.8144(2)
H8 H 0.9338 0.5562 0.9089
C15 C 0.7634(3) 0.5143(2) 0.7488(2)
C16 C 0.7469(3) 0.51054(19) 0.6071(2)
C17 C 0.6185(4) 0.4781(2) 0.8262(3)
H9 H 0.6302 0.4817 0.9206
C18 C 0.4644(4) 0.4389(2) 0.7660(3)
H10 H 0.3611 0.4246 0.8170
C19 C 0.4558(3) 0.41870(19) 0.6269(3)
C20 C 0.6046(3) 0.44458(18) 0.5486(2)
C21 C 0.2977(4) 0.3684(2) 0.5681(3)
H11 H 0.1939 0.3578 0.6201
C22 C 0.2923(3) 0.3356(2) 0.4409(3)
H12 H 0.1829 0.3065 0.4022
C23 C 0.4516(3) 0.34476(19) 0.3644(2)
C24 C 0.6095(3) 0.39703(18) 0.4179(2)
C25 C 0.4556(4) 0.2996(2) 0.2369(3)
H13 H 0.3508 0.2635 0.2024
C26 C 0.6064(4) 0.3066(2) 0.1622(3)
H14 H 0.6039 0.2791 0.0747
C27 C 0.7668(4) 0.35530(19) 0.2162(3)
C28 C 0.7683(3) 0.39628(18) 0.3431(2)
H15 H 0.8791 0.4246 0.3808
C29 C 0.9266(4) 0.3643(2) 0.1391(3)
C30 C 1.0579(4) 0.3758(2) 0.0746(3)
H16 H 1.1626 0.3850 0.0231
loop_
_geom_bond_atom_site_label_1
_geom_bond_atom_site_label_2
_geom_bond_site_symmetry_1
_geom_bond_site_symmetry_2
C1 H1 1_555 1_555
C2 C1 1_555 1_555
C3 C2 1_555 1_555
C4 C3 1_555 1_555
H2 C4 1_555 1_555
C5 C4 1_555 1_555
H3 C5 1_555 1_555
C6 C5 1_555 1_555
C7 C6 1_555 1_555
C8 C3 1_555 1_555
H4 C8 1_555 1_555
C9 C6 1_555 1_555
H5 C9 1_555 1_555
C10 C9 1_555 1_555
H6 C10 1_555 1_555
C11 C10 1_555 1_555
C12 C7 1_555 1_555
C13 C11 1_555 1_555
H7 C13 1_555 1_555
C14 C13 1_555 1_555
H8 C14 1_555 1_555
C15 C14 1_555 1_555
C16 C12 1_555 1_555
C17 C15 1_555 1_555
H9 C17 1_555 1_555
C18 C17 1_555 1_555
H10 C18 1_555 1_555
C19 C18 1_555 1_555
C20 C16 1_555 1_555
C21 C19 1_555 1_555
H11 C21 1_555 1_555
C22 C21 1_555 1_555
H12 C22 1_555 1_555
C23 C22 1_555 1_555
C24 C20 1_555 1_555
C25 C23 1_555 1_555
H13 C25 1_555 1_555
C26 C25 1_555 1_555
H14 C26 1_555 1_555
C27 C26 1_555 1_555
C28 C24 1_555 1_555
H15 C28 1_555 1_555
C29 C27 1_555 1_555
C30 C29 1_555 1_555
H16 C30 1_555 1_555
C7 C8 1_555 1_555
C11 C12 1_555 1_555
C15 C16 1_555 1_555
C19 C20 1_555 1_555
C23 C24 1_555 1_555
C27 C28 1_555 1_555

#END
