
#######################################################################
#
#                 Cambridge Crystallographic Data Centre
#                                CCDC 
#
#######################################################################
#
# If this CIF has been generated from an entry in the Cambridge 
# Structural Database, then it will include bibliographic, chemical, 
# crystal, experimental, refinement or atomic coordinate data resulting 
# from the CCDC's data processing and validation procedures.
#
#######################################################################

data_PICVEF
_chemical_formula_moiety         'C14 H16 B2 F4 N4'
_chemical_name_systematic        
5,5,12,12-tetrafluoro-2-ethyl-1,3-dimethyl-5H,12H-pyrido[1',2':4,5][1,2,4,3]triazaborolo[2,1-a]pyrrolo[1,2-d][1,2,4,3]triazaborinine-6,13-diium-5,12-diide
_symmetry_cell_setting           monoclinic
_symmetry_space_group_name_H-M   'P 21/c'
_symmetry_Int_Tables_number      14
_space_group_name_Hall           '-P 2ybc'
loop_
_symmetry_equiv_pos_site_id
_symmetry_equiv_pos_as_xyz
1 x,y,z
2 -x,1/2+y,1/2-z
3 -x,-y,-z
4 x,1/2-y,1/2+z
_cell_length_a                   15.4709(15)
_cell_length_b                   7.8893(8)
_cell_length_c                   14.6026(14)
_cell_angle_alpha                90
_cell_angle_beta                 116.1100(10)
_cell_angle_gamma                90
_cell_volume                     1600.43
_exptl_crystal_colour            colorless
_exptl_crystal_description       block
_cell_formula_units_Z            4
loop_
_atom_site_label
_atom_site_type_symbol
_atom_site_fract_x
_atom_site_fract_y
_atom_site_fract_z
B1 B 0.34969(12) 0.5010(2) 0.25623(15)
B2 B 0.10937(13) 0.2752(3) 0.06564(16)
C1 C 0.33884(13) 0.7599(2) 0.36205(14)
C2 C 0.26581(14) 0.8581(2) 0.36732(14)
C3 C 0.17808(13) 0.7958(2) 0.29474(14)
C4 C 0.20018(11) 0.6575(2) 0.24832(13)
C5 C 0.14001(11) 0.5463(2) 0.17491(13)
H1 H 0.0741 0.5661 0.1468
C6 C 0.27913(11) 0.2224(2) 0.15261(12)
C7 C 0.36537(12) 0.1338(2) 0.17881(15)
H2 H 0.4244 0.1820 0.2214
C8 C 0.36009(14) -0.0244(3) 0.14013(17)
H3 H 0.4164 -0.0857 0.1568
C9 C 0.27164(15) -0.0968(3) 0.07575(18)
H4 H 0.2688 -0.2057 0.0502
C10 C 0.19038(14) -0.0068(2) 0.05118(16)
H5 H 0.1311 -0.0534 0.0078
C11 C 0.44537(15) 0.7780(3) 0.42241(19)
H6 H 0.4746 0.6677 0.4371
H7 H 0.4592 0.8360 0.4851
H8 H 0.4707 0.8418 0.3838
C12 C 0.27897(18) 1.0048(3) 0.43960(16)
H9 H 0.2312 0.9957 0.4655
H10 H 0.3420 0.9957 0.4972
C13 C 0.2704(3) 1.1715(3) 0.3925(2)
H11 H 0.3184 1.1827 0.3680
H12 H 0.2795 1.2582 0.4420
H13 H 0.2075 1.1828 0.3365
C14 C 0.07946(16) 0.8579(3) 0.2720(2)
H14 H 0.0765 0.8849 0.3347
H15 H 0.0332 0.7713 0.2367
H16 H 0.0654 0.9575 0.2301
F1 F 0.39690(7) 0.57058(14) 0.20314(9)
F2 F 0.41603(7) 0.40989(14) 0.33745(8)
F3 F 0.07163(9) 0.33120(17) -0.03318(9)
F4 F 0.03941(8) 0.21074(17) 0.08790(12)
N1 N 0.29967(9) 0.63703(18) 0.29060(11)
N2 N 0.26855(8) 0.37845(17) 0.18472(10)
N3 N 0.17004(9) 0.41483(17) 0.14251(10)
N4 N 0.19454(9) 0.15154(17) 0.08938(11)
loop_
_geom_bond_atom_site_label_1
_geom_bond_atom_site_label_2
_geom_bond_site_symmetry_1
_geom_bond_site_symmetry_2
B1 F1 1_555 1_555
B2 F3 1_555 1_555
C1 C2 1_555 1_555
C2 C3 1_555 1_555
C3 C4 1_555 1_555
C4 C5 1_555 1_555
C5 H1 1_555 1_555
C6 C7 1_555 1_555
C7 H2 1_555 1_555
C8 C7 1_555 1_555
H3 C8 1_555 1_555
C9 C8 1_555 1_555
H4 C9 1_555 1_555
C10 C9 1_555 1_555
H5 C10 1_555 1_555
C11 C1 1_555 1_555
H6 C11 1_555 1_555
H7 C11 1_555 1_555
H8 C11 1_555 1_555
C12 C2 1_555 1_555
H9 C12 1_555 1_555
H10 C12 1_555 1_555
C13 C12 1_555 1_555
H11 C13 1_555 1_555
H12 C13 1_555 1_555
H13 C13 1_555 1_555
C14 C3 1_555 1_555
H14 C14 1_555 1_555
H15 C14 1_555 1_555
H16 C14 1_555 1_555
F2 B1 1_555 1_555
F4 B2 1_555 1_555
N1 B1 1_555 1_555
N2 B1 1_555 1_555
N3 B2 1_555 1_555
N4 B2 1_555 1_555
C1 N1 1_555 1_555
C4 N1 1_555 1_555
C5 N3 1_555 1_555
C6 N2 1_555 1_555
C6 N4 1_555 1_555
C10 N4 1_555 1_555
N2 N3 1_555 1_555

#END
