
#######################################################################
#
#                 Cambridge Crystallographic Data Centre
#                                CCDC 
#
#######################################################################
#
# If this CIF has been generated from an entry in the Cambridge 
# Structural Database, then it will include bibliographic, chemical, 
# crystal, experimental, refinement or atomic coordinate data resulting 
# from the CCDC's data processing and validation procedures.
#
#######################################################################

data_PICVUV
_chemical_formula_moiety         'C16 H16 B2 F4 N4 S1'
_chemical_name_systematic        
2-ethyl-5,5,13,13-tetrafluoro-1,3-dimethyl-5H,13H-pyrrolo[1'',2'':4',5'][1,2,4,3]triazaborinino[2',1':1,2][1,2,4,3]triazaborolo[5,4-b][1,3]benzothiazole-6,14-diium-5,13-diide
_symmetry_cell_setting           triclinic
_symmetry_space_group_name_H-M   'P -1'
_symmetry_Int_Tables_number      2
_space_group_name_Hall           '-P 1'
loop_
_symmetry_equiv_pos_site_id
_symmetry_equiv_pos_as_xyz
1 x,y,z
2 -x,-y,-z
_cell_length_a                   8.1516(15)
_cell_length_b                   14.056(3)
_cell_length_c                   15.921(3)
_cell_angle_alpha                95.854(2)
_cell_angle_beta                 92.639(2)
_cell_angle_gamma                90.507(2)
_cell_volume                     1812.6
_exptl_crystal_colour            colorless
_exptl_crystal_description       block
_cell_formula_units_Z            4
loop_
_atom_site_label
_atom_site_type_symbol
_atom_site_fract_x
_atom_site_fract_y
_atom_site_fract_z
B1 B 0.4665(4) 0.5915(2) 0.1662(2)
B2 B 0.6531(4) 0.8427(2) 0.2681(2)
C1 C 0.1777(4) 0.6773(2) 0.12504(18)
C2 C 0.0777(4) 0.6015(2) 0.0922(2)
H1 H 0.1153 0.5390 0.0881
C3 C -0.0812(4) 0.6222(3) 0.0655(2)
H2 H -0.1518 0.5726 0.0435
C4 C -0.1363(4) 0.7149(3) 0.07092(19)
H3 H -0.2435 0.7265 0.0525
C5 C -0.0360(4) 0.7911(2) 0.10320(19)
H4 H -0.0733 0.8536 0.1062
C6 C 0.1219(4) 0.7707(2) 0.13085(18)
C7 C 0.3999(4) 0.7563(2) 0.18915(18)
C8 C 0.7442(3) 0.6388(2) 0.24921(18)
H5 H 0.7754 0.5750 0.2441
C9 C 0.8521(3) 0.7059(2) 0.29069(17)
C10 C 1.0066(4) 0.6932(2) 0.33090(18)
C11 C 1.0608(4) 0.7840(2) 0.36449(19)
C12 C 0.9405(4) 0.8492(2) 0.34441(18)
C13 C 1.0904(5) 0.6004(3) 0.3372(3)
H6 H 1.2065 0.6092 0.3328
H7 H 1.0491 0.5545 0.2922
H8 H 1.0695 0.5777 0.3906
C14 C 1.2156(5) 0.8082(3) 0.4167(2)
H9 H 1.2527 0.8719 0.4074
H10 H 1.3003 0.7636 0.3987
C15 C 1.1923(7) 0.8044(4) 0.5104(3)
H11 H 1.1022 0.8442 0.5275
H12 H 1.2906 0.8269 0.5420
H13 H 1.1693 0.7397 0.5209
C16 C 0.9393(5) 0.9543(3) 0.3672(3)
H14 H 0.9435 0.9862 0.3168
H15 H 1.0331 0.9731 0.4041
H16 H 0.8407 0.9715 0.3954
F1 F 0.4160(2) 0.52202(13) 0.21331(15)
F2 F 0.5185(3) 0.55409(16) 0.09045(14)
F3 F 0.5652(2) 0.88485(16) 0.33327(14)
F4 F 0.6738(3) 0.90734(13) 0.20970(14)
N1 N 0.3386(3) 0.67146(17) 0.15814(16)
N2 N 0.6001(3) 0.65984(16) 0.21657(16)
N3 N 0.5518(3) 0.75511(17) 0.22329(16)
N4 N 0.8142(3) 0.80181(17) 0.29993(14)
S1 S 0.27228(9) 0.85120(5) 0.17888(5)
B3 B 0.9629(4) 0.0993(2) 0.1346(2)
B4 B 0.8226(4) 0.3366(2) 0.2696(2)
C17 C 1.2513(3) 0.1876(2) 0.10327(17)
C18 C 1.3319(4) 0.1188(2) 0.0535(2)
H17 H 1.2856 0.0583 0.0388
C19 C 1.4839(4) 0.1427(3) 0.0260(2)
H18 H 1.5413 0.0972 -0.0072
C20 C 1.5522(4) 0.2329(3) 0.0469(2)
H19 H 1.6542 0.2472 0.0271
C21 C 1.4719(4) 0.3021(2) 0.0966(2)
H20 H 1.5181 0.3627 0.1107
C22 C 1.3210(3) 0.2784(2) 0.12465(17)
C23 C 1.0520(3) 0.25802(19) 0.18114(17)
C24 C 0.7056(3) 0.1378(2) 0.22463(18)
H21 H 0.6653 0.0759 0.2104
C25 C 0.6140(3) 0.1996(2) 0.27605(18)
C26 C 0.4653(3) 0.1840(2) 0.31441(19)
C27 C 0.4289(4) 0.2697(3) 0.3604(2)
C28 C 0.5538(4) 0.3355(2) 0.34974(19)
C29 C 0.3695(4) 0.0928(3) 0.3063(3)
H22 H 0.3947 0.0588 0.3545
H23 H 0.3975 0.0545 0.2557
H24 H 0.2543 0.1064 0.3035
C30 C 0.2841(5) 0.2896(3) 0.4141(2)
H25 H 0.1928 0.2486 0.3915
H26 H 0.2514 0.3554 0.4113
C31 C 0.3195(7) 0.2733(6) 0.5051(3)
H27 H 0.3517 0.2082 0.5084
H28 H 0.2227 0.2859 0.5363
H29 H 0.4068 0.3156 0.5287
C32 C 0.5728(5) 0.4370(3) 0.3873(2)
H30 H 0.6519 0.4408 0.4341
H31 H 0.4690 0.4599 0.4066
H32 H 0.6096 0.4756 0.3453
F5 F 0.8893(2) 0.07615(16) 0.05644(13)
F6 F 1.0180(3) 0.02050(13) 0.16926(15)
F7 F 0.9272(3) 0.37128(17) 0.33560(14)
F8 F 0.7909(3) 0.40900(13) 0.21875(14)
N5 N 1.0971(3) 0.17895(16) 0.13589(15)
N6 N 0.8458(3) 0.16087(16) 0.19459(16)
N7 N 0.9080(3) 0.25378(16) 0.21627(16)
N8 N 0.6661(3) 0.29328(17) 0.29888(15)
S2 S 1.18986(9) 0.35169(5) 0.18718(5)
loop_
_geom_bond_atom_site_label_1
_geom_bond_atom_site_label_2
_geom_bond_site_symmetry_1
_geom_bond_site_symmetry_2
B1 F1 1_555 1_555
B2 F3 1_555 1_555
C1 C2 1_555 1_555
C2 H1 1_555 1_555
C3 C2 1_555 1_555
H2 C3 1_555 1_555
C4 C3 1_555 1_555
H3 C4 1_555 1_555
C5 C4 1_555 1_555
H4 C5 1_555 1_555
C6 C1 1_555 1_555
C7 N1 1_555 1_555
C8 H5 1_555 1_555
C9 C8 1_555 1_555
C10 C9 1_555 1_555
C11 C10 1_555 1_555
C12 C11 1_555 1_555
C13 C10 1_555 1_555
H6 C13 1_555 1_555
H7 C13 1_555 1_555
H8 C13 1_555 1_555
C14 C11 1_555 1_555
H9 C14 1_555 1_555
H10 C14 1_555 1_555
C15 C14 1_555 1_555
H11 C15 1_555 1_555
H12 C15 1_555 1_555
H13 C15 1_555 1_555
C16 C12 1_555 1_555
H14 C16 1_555 1_555
H15 C16 1_555 1_555
H16 C16 1_555 1_555
F2 B1 1_555 1_555
F4 B2 1_555 1_555
N1 B1 1_555 1_555
N2 B1 1_555 1_555
N3 B2 1_555 1_555
N4 B2 1_555 1_555
S1 C6 1_555 1_555
B3 F5 1_555 1_555
B4 F7 1_555 1_555
C17 C18 1_555 1_555
C18 H17 1_555 1_555
C19 C18 1_555 1_555
H18 C19 1_555 1_555
C20 C19 1_555 1_555
H19 C20 1_555 1_555
C21 C20 1_555 1_555
H20 C21 1_555 1_555
C22 C17 1_555 1_555
C23 N5 1_555 1_555
C24 H21 1_555 1_555
C25 C24 1_555 1_555
C26 C25 1_555 1_555
C27 C26 1_555 1_555
C28 C27 1_555 1_555
C29 C26 1_555 1_555
H22 C29 1_555 1_555
H23 C29 1_555 1_555
H24 C29 1_555 1_555
C30 C27 1_555 1_555
H25 C30 1_555 1_555
H26 C30 1_555 1_555
C31 C30 1_555 1_555
H27 C31 1_555 1_555
H28 C31 1_555 1_555
H29 C31 1_555 1_555
C32 C28 1_555 1_555
H30 C32 1_555 1_555
H31 C32 1_555 1_555
H32 C32 1_555 1_555
F6 B3 1_555 1_555
F8 B4 1_555 1_555
N5 B3 1_555 1_555
N6 B3 1_555 1_555
N7 B4 1_555 1_555
N8 B4 1_555 1_555
S2 C22 1_555 1_555
C1 N1 1_555 1_555
C5 C6 1_555 1_555
C7 N3 1_555 1_555
C7 S1 1_555 1_555
C8 N2 1_555 1_555
C9 N4 1_555 1_555
C12 N4 1_555 1_555
N2 N3 1_555 1_555
C17 N5 1_555 1_555
C21 C22 1_555 1_555
C23 N7 1_555 1_555
C23 S2 1_555 1_555
C24 N6 1_555 1_555
C25 N8 1_555 1_555
C28 N8 1_555 1_555
N6 N7 1_555 1_555

#END
