
#######################################################################
#
#                 Cambridge Crystallographic Data Centre
#                                CCDC 
#
#######################################################################
#
# If this CIF has been generated from an entry in the Cambridge 
# Structural Database, then it will include bibliographic, chemical, 
# crystal, experimental, refinement or atomic coordinate data resulting 
# from the CCDC's data processing and validation procedures.
#
#######################################################################

data_PIDBIP
_chemical_formula_moiety         'C42 H38 N4 O4,2(C1 H2 Cl2)'
_chemical_name_systematic        
"2,3,11,12-Tetrapropoxybenzo[a]benzo[5',6']cycloocta[1',2':4,5]benzo[1,2-e][8]annulene-6,8,15,17-tetracarbonitrile dichloromethane solvate"
_symmetry_cell_setting           monoclinic
_symmetry_space_group_name_H-M   'P 21/c'
_symmetry_Int_Tables_number      14
_space_group_name_Hall           '-P 2ybc'
loop_
_symmetry_equiv_pos_site_id
_symmetry_equiv_pos_as_xyz
1 x,y,z
2 -x,1/2+y,1/2-z
3 -x,-y,-z
4 x,1/2-y,1/2+z
_cell_length_a                   11.631(3)
_cell_length_b                   19.631(5)
_cell_length_c                   9.047(2)
_cell_angle_alpha                90
_cell_angle_beta                 104.192(5)
_cell_angle_gamma                90
_cell_volume                     2002.64
_exptl_crystal_colour            'pale yellow'
_exptl_crystal_description       prismatic
_cell_formula_units_Z            2
loop_
_atom_site_label
_atom_site_type_symbol
_atom_site_fract_x
_atom_site_fract_y
_atom_site_fract_z
C1 C 0.5612(3) 0.0184(2) -0.1049(4)
H1 H 0.6029 0.0309 -0.1763
C2 C 0.5292(3) 0.0686(2) -0.0150(4)
C3 C 0.5574(3) 0.14165(19) -0.0445(4)
C4 C 0.6254(3) 0.1850(2) 0.0526(5)
H2 H 0.6360 0.2277 0.0136
C5 C 0.6855(3) 0.17362(19) 0.2132(4)
C6 C 0.4666(3) 0.0497(2) 0.0924(4)
C7 C 0.4280(4) 0.0998(2) 0.1938(5)
C8 C 0.4990(3) 0.1412(2) 0.2940(5)
H3 H 0.4617 0.1677 0.3535
C9 C 0.6285(3) 0.15016(19) 0.3224(4)
C10 C 0.5139(4) 0.1635(2) -0.2007(5)
N1 N 0.4806(3) 0.18042(18) -0.3253(4)
C11 C 0.3050(4) 0.0961(2) 0.1973(5)
N2 N 0.2076(4) 0.09236(19) 0.2022(5)
C12 C 0.8063(3) 0.19084(19) 0.2587(4)
H4 H 0.8436 0.2088 0.1875
C13 C 0.8707(3) 0.18164(19) 0.4076(5)
C14 C 0.6942(3) 0.14165(19) 0.4738(5)
H5 H 0.6560 0.1268 0.5469
C15 C 0.8135(3) 0.1548(2) 0.5159(4)
O1 O 0.9870(2) 0.19710(14) 0.4631(3)
C16 C 1.0550(3) 0.2219(2) 0.3611(5)
H6 H 1.0145 0.2595 0.3007
H7 H 1.0672 0.1859 0.2929
C17 C 1.1717(4) 0.2450(2) 0.4611(5)
H8 H 1.1566 0.2775 0.5349
H9 H 1.2118 0.2061 0.5170
C18 C 1.2524(4) 0.2774(2) 0.3745(5)
H10 H 1.2684 0.2455 0.3015
H11 H 1.3255 0.2902 0.4443
H12 H 1.2149 0.3171 0.3223
O2 O 0.8846(2) 0.14629(13) 0.6589(3)
C19 C 0.8349(4) 0.1124(2) 0.7703(4)
H13 H 0.8064 0.0675 0.7338
H14 H 0.7687 0.1384 0.7880
C20 C 0.9300(4) 0.1063(2) 0.9154(5)
H15 H 0.9495 0.1513 0.9587
H16 H 1.0009 0.0873 0.8930
C21 C 0.8918(4) 0.0615(2) 1.0309(5)
H17 H 0.8212 0.0800 1.0526
H18 H 0.9538 0.0599 1.1231
H19 H 0.8760 0.0164 0.9903
C1B C 0.4388(3) -0.0184(2) 0.1049(4)
H1B H 0.3971 -0.0309 0.1763
C2B C 0.4708(3) -0.0686(2) 0.0150(4)
C3B C 0.4426(3) -0.14165(19) 0.0445(4)
C4B C 0.3746(3) -0.1850(2) -0.0526(5)
H2B H 0.3640 -0.2277 -0.0136
C5B C 0.3145(3) -0.17362(19) -0.2132(4)
C6B C 0.5334(3) -0.0497(2) -0.0924(4)
C7B C 0.5720(4) -0.0998(2) -0.1938(5)
C8B C 0.5010(3) -0.1412(2) -0.2940(5)
H3B H 0.5383 -0.1677 -0.3535
C9B C 0.3715(3) -0.15016(19) -0.3224(4)
C10B C 0.4861(4) -0.1635(2) 0.2007(5)
N1B N 0.5194(3) -0.18042(18) 0.3253(4)
C11B C 0.6950(4) -0.0961(2) -0.1973(5)
N2B N 0.7924(4) -0.09236(19) -0.2022(5)
C12B C 0.1937(3) -0.19084(19) -0.2587(4)
H4B H 0.1564 -0.2088 -0.1875
C13B C 0.1293(3) -0.18164(19) -0.4076(5)
C14B C 0.3058(3) -0.14165(19) -0.4738(5)
H5B H 0.3440 -0.1268 -0.5469
C15B C 0.1865(3) -0.1548(2) -0.5159(4)
O1B O 0.0130(2) -0.19710(14) -0.4631(3)
C16B C -0.0550(3) -0.2219(2) -0.3611(5)
H6B H -0.0145 -0.2595 -0.3007
H7B H -0.0672 -0.1859 -0.2929
C17B C -0.1717(4) -0.2450(2) -0.4611(5)
H8B H -0.1566 -0.2775 -0.5349
H9B H -0.2118 -0.2061 -0.5170
C18B C -0.2524(4) -0.2774(2) -0.3745(5)
H10B H -0.2684 -0.2455 -0.3015
H11B H -0.3255 -0.2902 -0.4443
H12B H -0.2149 -0.3171 -0.3223
O2B O 0.1154(2) -0.14629(13) -0.6589(3)
C19B C 0.1651(4) -0.1124(2) -0.7703(4)
H13B H 0.1936 -0.0675 -0.7338
H14B H 0.2313 -0.1384 -0.7880
C20B C 0.0700(4) -0.1063(2) -0.9154(5)
H15B H 0.0505 -0.1513 -0.9587
H16B H -0.0009 -0.0873 -0.8930
C21B C 0.1082(4) -0.0615(2) -1.0309(5)
H17B H 0.1788 -0.0800 -1.0526
H18B H 0.0462 -0.0599 -1.1231
H19B H 0.1240 -0.0164 -0.9903
Cl1 Cl 0.4100(2) 0.01804(13) 0.5182(3)
C22 C 0.2813(10) 0.0523(6) 0.5476(12)
Cl2 Cl 0.2552(7) 0.0307(4) 0.7003(10)
H20 H 0.2148 0.0372 0.4670
H21 H 0.2854 0.1016 0.5423
Cl3? Cl 0.0000 0.0000 0.5000
C23? C 0.1321(8) 0.0588(5) 0.5720(11)
Cl4? Cl 0.2573(4) 0.0293(2) 0.7215(5)
H22? H 0.1573 0.0747 0.4834
H23? H 0.1034 0.0983 0.6165
loop_
_geom_bond_atom_site_label_1
_geom_bond_atom_site_label_2
_geom_bond_site_symmetry_1
_geom_bond_site_symmetry_2
C1 H1 1_555 1_555
C2 C1 1_555 1_555
C3 C2 1_555 1_555
C4 C3 1_555 1_555
H2 C4 1_555 1_555
C5 C4 1_555 1_555
C6 C2 1_555 1_555
C7 C6 1_555 1_555
C8 C7 1_555 1_555
H3 C8 1_555 1_555
C9 C5 1_555 1_555
C10 C3 1_555 1_555
N1 C10 1_555 1_555
C11 C7 1_555 1_555
N2 C11 1_555 1_555
C12 C5 1_555 1_555
H4 C12 1_555 1_555
C13 C12 1_555 1_555
C14 C9 1_555 1_555
H5 C14 1_555 1_555
C15 C13 1_555 1_555
O1 C13 1_555 1_555
C16 O1 1_555 1_555
H6 C16 1_555 1_555
H7 C16 1_555 1_555
C17 C16 1_555 1_555
H8 C17 1_555 1_555
H9 C17 1_555 1_555
C18 C17 1_555 1_555
H10 C18 1_555 1_555
H11 C18 1_555 1_555
H12 C18 1_555 1_555
O2 C15 1_555 1_555
C19 O2 1_555 1_555
H13 C19 1_555 1_555
H14 C19 1_555 1_555
C20 C19 1_555 1_555
H15 C20 1_555 1_555
H16 C20 1_555 1_555
C21 C20 1_555 1_555
H17 C21 1_555 1_555
H18 C21 1_555 1_555
H19 C21 1_555 1_555
Cl1 C22 1_555 1_555
C22 Cl2 1_555 1_555
H20 C22 1_555 1_555
H21 C22 1_555 1_555
C1B C6 1_555 1_555
H1B C1B 1_555 1_555
C2B C1B 1_555 1_555
C3B C2B 1_555 1_555
C4B C3B 1_555 1_555
H2B C4B 1_555 1_555
C5B C4B 1_555 1_555
C6B C1 1_555 1_555
C7B C6B 1_555 1_555
C8B C7B 1_555 1_555
H3B C8B 1_555 1_555
C9B C5B 1_555 1_555
C10B C3B 1_555 1_555
N1B C10B 1_555 1_555
C11B C7B 1_555 1_555
N2B C11B 1_555 1_555
C12B C5B 1_555 1_555
H4B C12B 1_555 1_555
C13B C12B 1_555 1_555
C14B C9B 1_555 1_555
H5B C14B 1_555 1_555
C15B C13B 1_555 1_555
O1B C13B 1_555 1_555
C16B O1B 1_555 1_555
H6B C16B 1_555 1_555
H7B C16B 1_555 1_555
C17B C16B 1_555 1_555
H8B C17B 1_555 1_555
H9B C17B 1_555 1_555
C18B C17B 1_555 1_555
H10B C18B 1_555 1_555
H11B C18B 1_555 1_555
H12B C18B 1_555 1_555
O2B C15B 1_555 1_555
C19B O2B 1_555 1_555
H13B C19B 1_555 1_555
H14B C19B 1_555 1_555
C20B C19B 1_555 1_555
H15B C20B 1_555 1_555
H16B C20B 1_555 1_555
C21B C20B 1_555 1_555
H17B C21B 1_555 1_555
H18B C21B 1_555 1_555
H19B C21B 1_555 1_555
C8 C9 1_555 1_555
C14 C15 1_555 1_555
C2B C6B 1_555 1_555
C8B C9B 1_555 1_555
C14B C15B 1_555 1_555

#END
