
#######################################################################
#
#                 Cambridge Crystallographic Data Centre
#                                CCDC 
#
#######################################################################
#
# If this CIF has been generated from an entry in the Cambridge 
# Structural Database, then it will include bibliographic, chemical, 
# crystal, experimental, refinement or atomic coordinate data resulting 
# from the CCDC's data processing and validation procedures.
#
#######################################################################

data_PIDDIS
_chemical_formula_moiety         'C19 H22 O8'
_chemical_name_systematic        
2,2-dimethyl-3a,4,8,9,18,18a-hexahydro-2H-[1,3]dioxolo[4,5-d][2,7,12]benzotrioxacyclopentadecine-6,11,16(7H)-trione
_symmetry_cell_setting           monoclinic
_symmetry_space_group_name_H-M   'P 21'
_symmetry_Int_Tables_number      4
_space_group_name_Hall           'P 2yb'
loop_
_symmetry_equiv_pos_site_id
_symmetry_equiv_pos_as_xyz
1 x,y,z
2 -x,1/2+y,-z
_cell_length_a                   8.6882(5)
_cell_length_b                   12.3098(6)
_cell_length_c                   9.0164(5)
_cell_angle_alpha                90
_cell_angle_beta                 108.547(6)
_cell_angle_gamma                90
_cell_volume                     914.221
_cell_formula_units_Z            2
loop_
_atom_site_label
_atom_site_type_symbol
_atom_site_fract_x
_atom_site_fract_y
_atom_site_fract_z
C1 C 0.7306(2) 0.7315(2) 0.3069(2)
C2 C 0.7654(2) 0.61548(18) 0.2808(2)
C3 C 0.8979(3) 0.5689(2) 0.3925(2)
H1 H 0.9640 0.6114 0.4729
C4 C 0.9324(3) 0.4595(2) 0.3847(3)
H2 H 1.0206 0.4286 0.4605
C5 C 0.8358(3) 0.3963(2) 0.2645(3)
H3 H 0.8585 0.3228 0.2596
C6 C 0.7058(3) 0.4422(2) 0.1516(2)
H4 H 0.6414 0.3993 0.0706
C7 C 0.6698(2) 0.55149(18) 0.1573(2)
C8 C 0.5363(2) 0.60424(19) 0.0323(2)
C9 C 0.2967(3) 0.5719(2) -0.1813(2)
H5 H 0.2496 0.5151 -0.2566
H6 H 0.3295 0.6311 -0.2356
C10 C 0.1728(2) 0.61192(18) -0.1086(2)
H7 H 0.2115 0.6781 -0.0478
C11 C 0.1210(2) 0.52736(19) -0.0092(2)
H8 H 0.1310 0.4546 -0.0492
C12 C 0.2109(3) 0.53070(18) 0.1643(2)
H9 H 0.1550 0.4869 0.2205
H10 H 0.3200 0.5023 0.1855
C13 C 0.2867(3) 0.6626(2) 0.3658(2)
C14 C 0.2801(3) 0.7818(2) 0.3983(3)
H11 H 0.2034 0.7935 0.4548
H12 H 0.2399 0.8202 0.2994
C15 C 0.4429(3) 0.8300(2) 0.4923(3)
H13 H 0.4243 0.8998 0.5335
H14 H 0.4931 0.7828 0.5807
C16 C 0.5596(3) 0.8455(2) 0.4006(3)
H15 H 0.5099 0.8894 0.3085
H16 H 0.6572 0.8819 0.4644
C17 C -0.1018(2) 0.62776(19) -0.1616(2)
C18 C -0.1235(3) 0.7384(2) -0.0956(3)
H17 H -0.0215 0.7624 -0.0247
H18 H -0.2016 0.7328 -0.0409
H19 H -0.1611 0.7896 -0.1797
C19 C -0.2515(3) 0.5854(2) -0.2807(3)
H20 H -0.2862 0.6355 -0.3665
H21 H -0.3359 0.5772 -0.2340
H22 H -0.2287 0.5162 -0.3182
O1 O 0.51846(19) 0.70065(13) 0.01419(19)
O2 O 0.43645(17) 0.53008(14) -0.05992(17)
O3 O 0.2169(2) 0.64220(13) 0.21299(16)
O4 O 0.3443(2) 0.59332(15) 0.46121(18)
O5 O 0.59930(18) 0.73804(13) 0.35508(18)
O6 O 0.8156(2) 0.80756(15) 0.3014(2)
O7 O 0.02576(16) 0.63268(13) -0.23113(15)
O8 O -0.04630(18) 0.55115(15) -0.03672(18)
loop_
_geom_bond_atom_site_label_1
_geom_bond_atom_site_label_2
_geom_bond_site_symmetry_1
_geom_bond_site_symmetry_2
C1 C2 1_555 1_555
C2 C3 1_555 1_555
C3 H1 1_555 1_555
C4 C3 1_555 1_555
H2 C4 1_555 1_555
C5 C4 1_555 1_555
H3 C5 1_555 1_555
C6 C5 1_555 1_555
H4 C6 1_555 1_555
C7 C2 1_555 1_555
C8 C7 1_555 1_555
C9 H5 1_555 1_555
H6 C9 1_555 1_555
C10 C9 1_555 1_555
H7 C10 1_555 1_555
C11 C10 1_555 1_555
H8 C11 1_555 1_555
C12 C11 1_555 1_555
H9 C12 1_555 1_555
H10 C12 1_555 1_555
C13 C14 1_555 1_555
C14 H11 1_555 1_555
H12 C14 1_555 1_555
C15 C14 1_555 1_555
H13 C15 1_555 1_555
H14 C15 1_555 1_555
C16 C15 1_555 1_555
H15 C16 1_555 1_555
H16 C16 1_555 1_555
C17 C18 1_555 1_555
C18 H17 1_555 1_555
H18 C18 1_555 1_555
H19 C18 1_555 1_555
C19 C17 1_555 1_555
H20 C19 1_555 1_555
H21 C19 1_555 1_555
H22 C19 1_555 1_555
O1 C8 1_555 1_555
O2 C8 1_555 1_555
O3 C12 1_555 1_555
O4 C13 1_555 1_555
O5 C1 1_555 1_555
O6 C1 1_555 1_555
O7 C10 1_555 1_555
O8 C11 1_555 1_555
C6 C7 1_555 1_555
C9 O2 1_555 1_555
C13 O3 1_555 1_555
C16 O5 1_555 1_555
C17 O7 1_555 1_555
C17 O8 1_555 1_555

#END
