
#######################################################################
#
#                 Cambridge Crystallographic Data Centre
#                                CCDC 
#
#######################################################################
#
# If this CIF has been generated from an entry in the Cambridge 
# Structural Database, then it will include bibliographic, chemical, 
# crystal, experimental, refinement or atomic coordinate data resulting 
# from the CCDC's data processing and validation procedures.
#
#######################################################################

data_PIDFAK
_chemical_formula_moiety         'C16 H14 N4'
_chemical_name_systematic        1,4-bis(2-Pyrrolylmethyleneamino)benzene
_symmetry_cell_setting           monoclinic
_symmetry_space_group_name_H-M   'P 21/n'
_symmetry_Int_Tables_number      14
_space_group_name_Hall           '-P 2yn'
loop_
_symmetry_equiv_pos_site_id
_symmetry_equiv_pos_as_xyz
1 x,y,z
2 1/2-x,1/2+y,1/2-z
3 -x,-y,-z
4 1/2+x,1/2-y,1/2+z
_cell_length_a                   10.894(2)
_cell_length_b                   9.1577(18)
_cell_length_c                   14.177(3)
_cell_angle_alpha                90
_cell_angle_beta                 90.888(3)
_cell_angle_gamma                90
_cell_volume                     1414.18
_exptl_crystal_colour            'pale yellow'
_exptl_crystal_description       rods
_chemical_melting_point          '213-214 deg.C'
_cell_formula_units_Z            4
_exptl_crystal_recrystallization_method ethanol/acetonitrile
loop_
_atom_site_label
_atom_site_type_symbol
_atom_site_fract_x
_atom_site_fract_y
_atom_site_fract_z
N1 N 1.03635(15) 0.25811(16) 0.47965(10)
N2 N 0.61311(15) 0.18870(17) 0.69895(11)
N3 N 1.26607(16) 0.29191(18) 0.37897(12)
H1 H 1.202(2) 0.282(3) 0.3317(17)
N4 N 0.39234(16) 0.1457(2) 0.80862(12)
H2 H 0.448(2) 0.194(2) 0.8458(15)
C1 C 0.93038(17) 0.2435(2) 0.53581(12)
C2 C 0.86049(17) 0.1172(2) 0.52628(14)
H3 H 0.8843 0.0454 0.4839
C3 C 0.75662(17) 0.0971(2) 0.57865(13)
H4 H 0.7125 0.0106 0.5725
C4 C 0.71660(17) 0.2038(2) 0.64063(12)
C5 C 0.78536(19) 0.3313(2) 0.64796(14)
H5 H 0.7597 0.4050 0.6882
C6 C 0.89067(18) 0.3509(2) 0.59688(13)
H6 H 0.9354 0.4369 0.6035
C7 C 1.13766(19) 0.2888(2) 0.52113(13)
H7 H 1.1372 0.3014 0.5862
C8 C 1.25157(18) 0.3052(2) 0.47438(14)
C9 C 1.3664(2) 0.3286(3) 0.51274(16)
H8 H 1.3847 0.3417 0.5765
C10 C 1.4503(2) 0.3293(3) 0.44022(19)
H9 H 1.5347 0.3426 0.4464
C11 C 1.3864(2) 0.3072(3) 0.35860(17)
H10 H 1.4197 0.3031 0.2986
C12 C 0.52212(19) 0.1128(2) 0.66933(14)
H11 H 0.5276 0.0699 0.6101
C13 C 0.41295(18) 0.0893(2) 0.72090(13)
C14 C 0.3076(2) 0.0178(3) 0.69430(16)
H12 H 0.2948 -0.0315 0.6376
C15 C 0.2233(2) 0.0311(3) 0.76602(17)
H13 H 0.1439 -0.0061 0.7661
C16 C 0.27835(19) 0.1084(3) 0.83575(16)
H14 H 0.2434 0.1322 0.8932
loop_
_geom_bond_atom_site_label_1
_geom_bond_atom_site_label_2
_geom_bond_site_symmetry_1
_geom_bond_site_symmetry_2
N1 C1 1_555 1_555
N2 C4 1_555 1_555
N3 H1 1_555 1_555
N4 H2 1_555 1_555
C1 C2 1_555 1_555
C2 H3 1_555 1_555
C3 C2 1_555 1_555
H4 C3 1_555 1_555
C4 C3 1_555 1_555
C5 C4 1_555 1_555
H5 C5 1_555 1_555
C6 C1 1_555 1_555
H6 C6 1_555 1_555
C7 N1 1_555 1_555
H7 C7 1_555 1_555
C8 N3 1_555 1_555
C9 C8 1_555 1_555
H8 C9 1_555 1_555
C10 C9 1_555 1_555
H9 C10 1_555 1_555
C11 N3 1_555 1_555
H10 C11 1_555 1_555
C12 N2 1_555 1_555
H11 C12 1_555 1_555
C13 N4 1_555 1_555
C14 C13 1_555 1_555
H12 C14 1_555 1_555
C15 C14 1_555 1_555
H13 C15 1_555 1_555
C16 N4 1_555 1_555
H14 C16 1_555 1_555
C5 C6 1_555 1_555
C7 C8 1_555 1_555
C10 C11 1_555 1_555
C12 C13 1_555 1_555
C15 C16 1_555 1_555

#END
