
#######################################################################
#
#                 Cambridge Crystallographic Data Centre
#                                CCDC 
#
#######################################################################
#
# If this CIF has been generated from an entry in the Cambridge 
# Structural Database, then it will include bibliographic, chemical, 
# crystal, experimental, refinement or atomic coordinate data resulting 
# from the CCDC's data processing and validation procedures.
#
#######################################################################

data_PIDJIV
_chemical_formula_moiety         'C32 H54 Br2 Si6'
_chemical_name_systematic        
meso-5,10-Dibromo-4,5,9,10-tetrakis(trimethylsilyl)-2,7-bis(trimethylsilylethynyl)tricyclo(6.2.0.0^3,6^)deca-1,3,6,8-tetraene
_symmetry_cell_setting           monoclinic
_symmetry_space_group_name_H-M   'P 21/c'
_symmetry_Int_Tables_number      14
_space_group_name_Hall           '-P 2ybc'
loop_
_symmetry_equiv_pos_site_id
_symmetry_equiv_pos_as_xyz
1 x,y,z
2 -x,1/2+y,1/2-z
3 -x,-y,-z
4 x,1/2-y,1/2+z
_cell_length_a                   12.868(3)
_cell_length_b                   12.519(3)
_cell_length_c                   12.905(3)
_cell_angle_alpha                90
_cell_angle_beta                 103.15(3)
_cell_angle_gamma                90
_cell_volume                     2024.41
_exptl_crystal_colour            yellow
_chemical_melting_point          219-220deg.C
_cell_formula_units_Z            2
loop_
_atom_site_label
_atom_site_type_symbol
_atom_site_fract_x
_atom_site_fract_y
_atom_site_fract_z
Br1 Br 0.2410(1) 0.2120(1) 0.1230(1)
Si1 Si 0.2818(1) 0.0897(1) -0.0775(1)
Si2 Si 0.0272(1) 0.3140(1) -0.1371(1)
Si3 Si -0.3773(1) 0.1576(1) -0.3277(1)
C1 C 0.1720(2) 0.1303(2) -0.0079(2)
C2 C 0.0670(2) 0.1808(2) -0.0725(2)
C3 C 0.0101(2) 0.0920(2) -0.0555(2)
C4 C 0.0995(2) 0.0422(2) 0.0164(2)
C5 C 0.2139(3) 0.0409(3) -0.2124(3)
C6 C 0.3594(2) -0.0196(3) 0.0018(3)
C7 C 0.3703(3) 0.2048(3) -0.0899(3)
C8 C -0.0275(3) 0.2918(3) -0.2821(3)
C9 C -0.0768(3) 0.3667(3) -0.0700(3)
C10 C 0.1436(3) 0.4062(3) -0.1156(3)
C11 C -0.0967(2) 0.0457(2) -0.0785(2)
C12 C -0.1845(2) 0.0853(2) -0.1570(2)
C13 C -0.2599(2) 0.1159(2) -0.2250(2)
C14 C -0.3358(3) 0.1687(3) -0.4564(3)
C15 C -0.4231(3) 0.2879(3) -0.2853(3)
C16 C -0.4822(3) 0.0536(3) -0.3362(3)
H1 H 0.2665 0.0193 -0.2503
H2 H 0.1709 0.0971 -0.2509
H3 H 0.1693 -0.0190 -0.2056
H4 H 0.4155 -0.0418 -0.0314
H5 H 0.3132 -0.0790 0.0052
H6 H 0.3898 0.0055 0.0725
H7 H 0.4050 0.2296 -0.0203
H8 H 0.3284 0.2615 -0.1286
H9 H 0.4232 0.1825 -0.1273
H10 H -0.0483 0.3590 -0.3164
H11 H -0.0884 0.2455 -0.2921
H12 H 0.0263 0.2594 -0.3127
H13 H -0.1010 0.4352 -0.0994
H14 H -0.0469 0.3740 0.0049
H15 H -0.1358 0.3179 -0.0812
H16 H 0.1709 0.4170 -0.0406
H17 H 0.1215 0.4735 -0.1491
H18 H 0.1984 0.3758 -0.1460
H19 H -0.3957 0.1906 -0.5112
H20 H -0.3104 0.1007 -0.4746
H21 H -0.2799 0.2208 -0.4497
H22 H -0.4845 0.3116 -0.3373
H23 H -0.3671 0.3399 -0.2788
H24 H -0.4417 0.2794 -0.2178
H25 H -0.5445 0.0738 -0.3890
H26 H -0.5004 0.0468 -0.2683
H27 H -0.4558 -0.0135 -0.3554
C11B C 0.0967(2) -0.0457(2) 0.0785(2)
C4B C -0.0995(2) -0.0422(2) -0.0164(2)
C3B C -0.0101(2) -0.0920(2) 0.0555(2)
C12B C 0.1845(2) -0.0853(2) 0.1570(2)
C1B C -0.1720(2) -0.1303(2) 0.0079(2)
C2B C -0.0670(2) -0.1808(2) 0.0725(2)
C13B C 0.2599(2) -0.1159(2) 0.2250(2)
Br1B Br -0.2410(1) -0.2120(1) -0.1230(1)
Si1B Si -0.2818(1) -0.0897(1) 0.0775(1)
Si2B Si -0.0272(1) -0.3140(1) 0.1371(1)
Si3B Si 0.3773(1) -0.1576(1) 0.3277(1)
C5B C -0.2139(3) -0.0409(3) 0.2124(3)
C6B C -0.3594(2) 0.0196(3) -0.0018(3)
C7B C -0.3703(3) -0.2048(3) 0.0899(3)
C8B C 0.0275(3) -0.2918(3) 0.2821(3)
C9B C 0.0768(3) -0.3667(3) 0.0700(3)
C10B C -0.1436(3) -0.4062(3) 0.1156(3)
C14B C 0.3358(3) -0.1687(3) 0.4564(3)
C15B C 0.4231(3) -0.2879(3) 0.2853(3)
C16B C 0.4822(3) -0.0536(3) 0.3362(3)
H1B H -0.2665 -0.0193 0.2503
H2B H -0.1709 -0.0971 0.2509
H3B H -0.1693 0.0190 0.2056
H4B H -0.4155 0.0418 0.0314
H5B H -0.3132 0.0790 -0.0052
H6B H -0.3898 -0.0055 -0.0725
H7B H -0.4050 -0.2296 0.0203
H8B H -0.3284 -0.2615 0.1286
H9B H -0.4232 -0.1825 0.1273
H10B H 0.0483 -0.3590 0.3164
H11B H 0.0884 -0.2455 0.2921
H12B H -0.0263 -0.2594 0.3127
H13B H 0.1010 -0.4352 0.0994
H14B H 0.0469 -0.3740 -0.0049
H15B H 0.1358 -0.3179 0.0812
H16B H -0.1709 -0.4170 0.0406
H17B H -0.1215 -0.4735 0.1491
H18B H -0.1984 -0.3758 0.1460
H19B H 0.3957 -0.1906 0.5112
H20B H 0.3104 -0.1007 0.4746
H21B H 0.2799 -0.2208 0.4497
H22B H 0.4845 -0.3116 0.3373
H23B H 0.3671 -0.3399 0.2788
H24B H 0.4417 -0.2794 0.2178
H25B H 0.5445 -0.0738 0.3890
H26B H 0.5004 -0.0468 0.2683
H27B H 0.4558 0.0135 0.3554
loop_
_geom_bond_atom_site_label_1
_geom_bond_atom_site_label_2
_geom_bond_site_symmetry_1
_geom_bond_site_symmetry_2
Br1 C1 1_555 1_555
Si1 C1 1_555 1_555
Si2 C2 1_555 1_555
Si3 C13 1_555 1_555
C1 C2 1_555 1_555
C2 C3 1_555 1_555
C3 C4 1_555 1_555
C4 C1 1_555 1_555
C5 Si1 1_555 1_555
C6 Si1 1_555 1_555
C7 Si1 1_555 1_555
C8 Si2 1_555 1_555
C9 Si2 1_555 1_555
C10 Si2 1_555 1_555
C11 C3 1_555 1_555
C12 C11 1_555 1_555
C13 C12 1_555 1_555
C14 Si3 1_555 1_555
C15 Si3 1_555 1_555
C16 Si3 1_555 1_555
H1 C5 1_555 1_555
H2 C5 1_555 1_555
H3 C5 1_555 1_555
H4 C6 1_555 1_555
H5 C6 1_555 1_555
H6 C6 1_555 1_555
H7 C7 1_555 1_555
H8 C7 1_555 1_555
H9 C7 1_555 1_555
H10 C8 1_555 1_555
H11 C8 1_555 1_555
H12 C8 1_555 1_555
H13 C9 1_555 1_555
H14 C9 1_555 1_555
H15 C9 1_555 1_555
H16 C10 1_555 1_555
H17 C10 1_555 1_555
H18 C10 1_555 1_555
H19 C14 1_555 1_555
H20 C14 1_555 1_555
H21 C14 1_555 1_555
H22 C15 1_555 1_555
H23 C15 1_555 1_555
H24 C15 1_555 1_555
H25 C16 1_555 1_555
H26 C16 1_555 1_555
H27 C16 1_555 1_555
C11B C4 1_555 1_555
C4B C11 1_555 1_555
C3B C11B 1_555 1_555
C12B C11B 1_555 1_555
C1B C4B 1_555 1_555
C2B C3B 1_555 1_555
C13B C12B 1_555 1_555
Br1B C1B 1_555 1_555
Si1B C1B 1_555 1_555
Si2B C2B 1_555 1_555
Si3B C13B 1_555 1_555
C5B Si1B 1_555 1_555
C6B Si1B 1_555 1_555
C7B Si1B 1_555 1_555
C8B Si2B 1_555 1_555
C9B Si2B 1_555 1_555
C10B Si2B 1_555 1_555
C14B Si3B 1_555 1_555
C15B Si3B 1_555 1_555
C16B Si3B 1_555 1_555
H1B C5B 1_555 1_555
H2B C5B 1_555 1_555
H3B C5B 1_555 1_555
H4B C6B 1_555 1_555
H5B C6B 1_555 1_555
H6B C6B 1_555 1_555
H7B C7B 1_555 1_555
H8B C7B 1_555 1_555
H9B C7B 1_555 1_555
H10B C8B 1_555 1_555
H11B C8B 1_555 1_555
H12B C8B 1_555 1_555
H13B C9B 1_555 1_555
H14B C9B 1_555 1_555
H15B C9B 1_555 1_555
H16B C10B 1_555 1_555
H17B C10B 1_555 1_555
H18B C10B 1_555 1_555
H19B C14B 1_555 1_555
H20B C14B 1_555 1_555
H21B C14B 1_555 1_555
H22B C15B 1_555 1_555
H23B C15B 1_555 1_555
H24B C15B 1_555 1_555
H25B C16B 1_555 1_555
H26B C16B 1_555 1_555
H27B C16B 1_555 1_555
C4B C3B 1_555 1_555
C1B C2B 1_555 1_555

#END
