
#######################################################################
#
#                 Cambridge Crystallographic Data Centre
#                                CCDC 
#
#######################################################################
#
# If this CIF has been generated from an entry in the Cambridge 
# Structural Database, then it will include bibliographic, chemical, 
# crystal, experimental, refinement or atomic coordinate data resulting 
# from the CCDC's data processing and validation procedures.
#
#######################################################################

data_PIDLEW
_chemical_formula_moiety         'C28 H38 O4'
_chemical_name_systematic        '3-(acetyloxy)androstan-17-yl benzoate'
_symmetry_cell_setting           orthorhombic
_symmetry_space_group_name_H-M   'P 21 21 21'
_symmetry_Int_Tables_number      19
_space_group_name_Hall           'P 2ac 2ab'
loop_
_symmetry_equiv_pos_site_id
_symmetry_equiv_pos_as_xyz
1 x,y,z
2 1/2-x,-y,1/2+z
3 1/2+x,1/2-y,-z
4 -x,1/2+y,1/2-z
_cell_length_a                   7.7029(4)
_cell_length_b                   14.6019(6)
_cell_length_c                   21.1006(9)
_cell_angle_alpha                90
_cell_angle_beta                 90
_cell_angle_gamma                90
_cell_volume                     2373.33
_exptl_crystal_colour            colorless
_exptl_crystal_description       block
_cell_formula_units_Z            4
_exptl_crystal_recrystallization_method acetone/hexane
loop_
_atom_site_label
_atom_site_type_symbol
_atom_site_fract_x
_atom_site_fract_y
_atom_site_fract_z
O1 O -0.1489(3) -0.34535(12) -0.12552(8)
C1 C -0.1072(4) -0.40086(16) -0.32555(12)
O2 O 0.1060(3) -0.29378(16) -0.08806(10)
C2 C 0.0925(4) -0.37654(16) -0.49725(12)
H1 H 0.0727 -0.3252 -0.5278
C3 C 0.0203(4) -0.54167(16) -0.47787(12)
H2 H -0.0309 -0.5976 -0.4967
H3 H 0.1422 -0.5556 -0.4666
O3 O 0.1707(3) -0.54436(13) -0.70104(9)
O4 O 0.1173(3) -0.42891(12) -0.63345(8)
C4 C -0.0679(4) -0.37038(18) -0.18587(12)
H4 H 0.0558 -0.3882 -0.1786
C5 C -0.0792(4) -0.51733(17) -0.41781(12)
H5 H -0.0706 -0.5687 -0.3874
H6 H -0.2034 -0.5087 -0.4283
C6 C -0.0066(4) -0.31881(17) -0.29637(12)
H7 H 0.1148 -0.3408 -0.2891
C7 C 0.0043(4) -0.35032(17) -0.43455(11)
H8 H -0.1169 -0.3311 -0.4451
C8 C -0.0094(4) -0.43002(17) -0.38670(11)
H9 H 0.1122 -0.4442 -0.3733
C9 C -0.0763(4) -0.29017(18) -0.23150(12)
H10 H -0.0064 -0.2387 -0.2147
H11 H -0.1979 -0.2692 -0.2357
C10 C 0.0636(3) -0.40316(17) -0.74183(12)
C11 C -0.1691(4) -0.45178(18) -0.21071(12)
H12 H -0.2940 -0.4360 -0.2129
H13 H -0.1557 -0.5041 -0.1812
C12 C 0.0071(4) -0.23840(17) -0.34254(12)
H14 H -0.1105 -0.2145 -0.3517
H15 H 0.0753 -0.1886 -0.3228
C13 C -0.1044(4) -0.47949(18) -0.27682(12)
H16 H -0.1776 -0.5302 -0.2928
H17 H 0.0159 -0.5027 -0.2731
C14 C 0.0179(4) -0.46471(17) -0.52753(12)
C15 C -0.0258(4) -0.32294(17) -0.72895(13)
H18 H -0.0484 -0.3058 -0.6863
C16 C 0.0938(4) -0.26753(17) -0.40414(12)
H19 H 0.2168 -0.2829 -0.3956
H20 H 0.0917 -0.2156 -0.4343
C17 C 0.3292(4) -0.46146(19) -0.55036(13)
H21 H 0.4026 -0.4312 -0.5827
H22 H 0.3905 -0.5166 -0.5347
C18 C -0.1649(4) -0.45258(19) -0.55427(12)
H23 H -0.1648 -0.4030 -0.5856
H24 H -0.2451 -0.4373 -0.5198
H25 H -0.2022 -0.5096 -0.5746
C19 C 0.0971(4) -0.42706(19) -0.80470(12)
H26 H 0.1586 -0.4819 -0.8139
C20 C -0.2976(4) -0.37614(18) -0.34034(12)
H27 H -0.3008 -0.3240 -0.3695
H28 H -0.3576 -0.3599 -0.3010
H29 H -0.3553 -0.4288 -0.3599
C21 C -0.0823(4) -0.2678(2) -0.77812(14)
H30 H -0.1446 -0.2131 -0.7691
C22 C -0.0470(4) -0.30814(18) -0.08119(13)
C23 C 0.2903(4) -0.39500(19) -0.49494(13)
H31 H 0.3231 -0.4231 -0.4540
H32 H 0.3560 -0.3372 -0.5002
C24 C 0.1536(4) -0.48750(19) -0.57852(12)
H33 H 0.1499 -0.5538 -0.5903
C25 C 0.0417(4) -0.3717(2) -0.85348(13)
H34 H 0.0654 -0.3882 -0.8961
C26 C 0.1234(4) -0.46687(17) -0.69128(12)
C27 C -0.0487(4) -0.2917(2) -0.84043(13)
H35 H -0.0872 -0.2535 -0.8741
C28 C -0.1462(4) -0.28989(19) -0.02168(13)
H36 H -0.1745 -0.3481 -0.0010
H37 H -0.2537 -0.2572 -0.0319
H38 H -0.0756 -0.2524 0.0069
loop_
_geom_bond_atom_site_label_1
_geom_bond_atom_site_label_2
_geom_bond_site_symmetry_1
_geom_bond_site_symmetry_2
O1 C4 1_555 1_555
C1 C6 1_555 1_555
O2 C22 1_555 1_555
C2 H1 1_555 1_555
C3 H2 1_555 1_555
H3 C3 1_555 1_555
O3 C26 1_555 1_555
O4 C24 1_555 1_555
C4 H4 1_555 1_555
C5 C3 1_555 1_555
H5 C5 1_555 1_555
H6 C5 1_555 1_555
C6 H7 1_555 1_555
C7 C2 1_555 1_555
H8 C7 1_555 1_555
C8 C1 1_555 1_555
H9 C8 1_555 1_555
C9 C4 1_555 1_555
H10 C9 1_555 1_555
H11 C9 1_555 1_555
C10 C15 1_555 1_555
C11 C4 1_555 1_555
H12 C11 1_555 1_555
H13 C11 1_555 1_555
C12 C6 1_555 1_555
H14 C12 1_555 1_555
H15 C12 1_555 1_555
C13 C1 1_555 1_555
H16 C13 1_555 1_555
H17 C13 1_555 1_555
C14 C2 1_555 1_555
C15 H18 1_555 1_555
C16 C7 1_555 1_555
H19 C16 1_555 1_555
H20 C16 1_555 1_555
C17 H21 1_555 1_555
H22 C17 1_555 1_555
C18 C14 1_555 1_555
H23 C18 1_555 1_555
H24 C18 1_555 1_555
H25 C18 1_555 1_555
C19 C10 1_555 1_555
H26 C19 1_555 1_555
C20 C1 1_555 1_555
H27 C20 1_555 1_555
H28 C20 1_555 1_555
H29 C20 1_555 1_555
C21 C15 1_555 1_555
H30 C21 1_555 1_555
C22 O1 1_555 1_555
C23 C2 1_555 1_555
H31 C23 1_555 1_555
H32 C23 1_555 1_555
C24 C14 1_555 1_555
H33 C24 1_555 1_555
C25 C19 1_555 1_555
H34 C25 1_555 1_555
C26 O4 1_555 1_555
C27 C21 1_555 1_555
H35 C27 1_555 1_555
C28 C22 1_555 1_555
H36 C28 1_555 1_555
H37 C28 1_555 1_555
H38 C28 1_555 1_555
C3 C14 1_555 1_555
C5 C8 1_555 1_555
C6 C9 1_555 1_555
C7 C8 1_555 1_555
C10 C26 1_555 1_555
C11 C13 1_555 1_555
C12 C16 1_555 1_555
C17 C23 1_555 1_555
C17 C24 1_555 1_555
C25 C27 1_555 1_555

#END
