
#######################################################################
#
#                 Cambridge Crystallographic Data Centre
#                                CCDC 
#
#######################################################################
#
# If this CIF has been generated from an entry in the Cambridge 
# Structural Database, then it will include bibliographic, chemical, 
# crystal, experimental, refinement or atomic coordinate data resulting 
# from the CCDC's data processing and validation procedures.
#
#######################################################################

data_PIDMOH
_chemical_formula_moiety         'C8 H8 Cl6 Si2'
_chemical_name_systematic        1,2-bis(trichlorosilyl)-4,5-dimethylbenzene
_symmetry_cell_setting           triclinic
_symmetry_space_group_name_H-M   'P -1'
_symmetry_Int_Tables_number      2
_space_group_name_Hall           '-P 1'
loop_
_symmetry_equiv_pos_site_id
_symmetry_equiv_pos_as_xyz
1 x,y,z
2 -x,-y,-z
_cell_length_a                   9.1268(8)
_cell_length_b                   9.5234(9)
_cell_length_c                   10.1718(9)
_cell_angle_alpha                77.516(7)
_cell_angle_beta                 87.755(7)
_cell_angle_gamma                62.147(7)
_cell_volume                     761.247
_exptl_crystal_colour            colorless
_exptl_crystal_description       block
_cell_formula_units_Z            2
loop_
_atom_site_label
_atom_site_type_symbol
_atom_site_fract_x
_atom_site_fract_y
_atom_site_fract_z
Si1 Si 0.37897(6) 0.35221(6) 0.19154(5)
Cl1 Cl 0.36984(8) 0.57391(6) 0.16654(5)
Cl2 Cl 0.61874(6) 0.19272(7) 0.17598(6)
Cl3 Cl 0.23580(7) 0.37047(7) 0.03518(5)
Si2 Si 0.24082(6) 0.03638(6) 0.29742(5)
Cl4 Cl 0.24874(8) -0.16354(7) 0.42751(6)
Cl5 Cl 0.02466(7) 0.14156(7) 0.18161(6)
Cl6 Cl 0.43009(6) -0.05101(6) 0.17723(5)
C1 C 0.2992(2) 0.2991(2) 0.35589(16)
C2 C 0.2477(2) 0.17712(19) 0.39632(16)
C3 C 0.1851(2) 0.1623(2) 0.52379(17)
H1 H 0.150758 0.081009 0.551211
C4 C 0.1704(2) 0.2608(2) 0.61284(16)
C5 C 0.2248(2) 0.3772(2) 0.57420(17)
C6 C 0.2866(2) 0.3944(2) 0.44734(17)
H2 H 0.322123 0.475060 0.421673
C7 C 0.0999(2) 0.2370(2) 0.74771(18)
H3 H 0.188380 0.190614 0.819959
H4 H 0.053046 0.162557 0.750110
H5 H 0.012446 0.342277 0.760570
C8 C 0.2159(3) 0.4854(2) 0.66640(19)
H6 H 0.100913 0.545514 0.689238
H7 H 0.254241 0.562706 0.620569
H8 H 0.286904 0.418305 0.749178
loop_
_geom_bond_atom_site_label_1
_geom_bond_atom_site_label_2
_geom_bond_site_symmetry_1
_geom_bond_site_symmetry_2
Si1 Cl1 1_555 1_555
Cl2 Si1 1_555 1_555
Cl3 Si1 1_555 1_555
Si2 Cl4 1_555 1_555
Cl5 Si2 1_555 1_555
Cl6 Si2 1_555 1_555
C1 Si1 1_555 1_555
C2 Si2 1_555 1_555
C3 C2 1_555 1_555
H1 C3 1_555 1_555
C4 C3 1_555 1_555
C5 C4 1_555 1_555
C6 C1 1_555 1_555
H2 C6 1_555 1_555
C7 C4 1_555 1_555
H3 C7 1_555 1_555
H4 C7 1_555 1_555
H5 C7 1_555 1_555
C8 C5 1_555 1_555
H6 C8 1_555 1_555
H7 C8 1_555 1_555
H8 C8 1_555 1_555
C1 C2 1_555 1_555
C5 C6 1_555 1_555

#END
