
#######################################################################
#
#                 Cambridge Crystallographic Data Centre
#                                CCDC 
#
#######################################################################
#
# If this CIF has been generated from an entry in the Cambridge 
# Structural Database, then it will include bibliographic, chemical, 
# crystal, experimental, refinement or atomic coordinate data resulting 
# from the CCDC's data processing and validation procedures.
#
#######################################################################

data_PIDNAU
_chemical_formula_moiety         'C14 H12 F3 N1 O1'
_chemical_name_systematic        
(2S,3R)-1,1,1-trifluoro-3-(quinolin-4-yl)pent-4-en-2-ol
_symmetry_cell_setting           orthorhombic
_symmetry_space_group_name_H-M   'P 21 21 21'
_symmetry_Int_Tables_number      19
_space_group_name_Hall           'P 2ac 2ab'
loop_
_symmetry_equiv_pos_site_id
_symmetry_equiv_pos_as_xyz
1 x,y,z
2 1/2-x,-y,1/2+z
3 -x,1/2+y,1/2-z
4 1/2+x,1/2-y,-z
_cell_length_a                   7.0471(10)
_cell_length_b                   9.5750(14)
_cell_length_c                   18.299(3)
_cell_angle_alpha                90
_cell_angle_beta                 90
_cell_angle_gamma                90
_cell_volume                     1234.74
_exptl_crystal_colour            colorless
_exptl_crystal_description       prisms
_chemical_melting_point          '146 deg.C'
_cell_formula_units_Z            4
loop_
_atom_site_label
_atom_site_type_symbol
_atom_site_fract_x
_atom_site_fract_y
_atom_site_fract_z
C1 C 0.2879(4) 0.6696(3) 0.45449(15)
H1 H 0.165168 0.702069 0.467624
C2 C 0.3747(4) 0.7280(3) 0.39196(15)
H2 H 0.310308 0.797278 0.364311
C3 C 0.5525(4) 0.6843(3) 0.37122(14)
C4 C 0.6429(4) 0.5797(3) 0.41446(14)
C5 C 0.8275(4) 0.5258(3) 0.40020(15)
H3 H 0.896651 0.559442 0.359253
C6 C 0.9073(4) 0.4265(3) 0.44445(15)
H4 H 1.030446 0.391804 0.433636
C7 C 0.8088(4) 0.3751(3) 0.50577(17)
H5 H 0.865699 0.306555 0.536240
C8 C 0.6303(4) 0.4242(3) 0.52146(15)
H6 H 0.563857 0.389082 0.562719
C9 C 0.5447(4) 0.5267(3) 0.47670(14)
C10 C 0.6520(4) 0.7469(3) 0.30535(13)
H7 H 0.723813 0.670437 0.280447
C11 C 0.5169(4) 0.8094(3) 0.25044(16)
H8 H 0.457789 0.895936 0.261669
C12 C 0.4771(5) 0.7488(3) 0.18733(15)
H9 H 0.534523 0.662225 0.174977
H10 H 0.390988 0.791902 0.154337
C13 C 0.7984(4) 0.8550(3) 0.33396(14)
H11 H 0.882884 0.807282 0.370045
C14 C 0.9214(4) 0.9132(3) 0.27286(16)
N1 N 0.3668(3) 0.5728(3) 0.49569(12)
O1 O 0.7086(3) 0.9665(2) 0.36926(10)
F1 F 0.8294(2) 0.99956(19) 0.22768(9)
F2 F 1.0688(2) 0.9870(2) 0.30047(10)
F3 F 0.9971(3) 0.8108(2) 0.23200(10)
H12 H 0.748(8) 0.967(5) 0.412(3)
loop_
_geom_bond_atom_site_label_1
_geom_bond_atom_site_label_2
_geom_bond_site_symmetry_1
_geom_bond_site_symmetry_2
C1 H1 1_555 1_555
C2 C1 1_555 1_555
H2 C2 1_555 1_555
C3 C2 1_555 1_555
C4 C3 1_555 1_555
C5 C4 1_555 1_555
H3 C5 1_555 1_555
C6 C5 1_555 1_555
H4 C6 1_555 1_555
C7 C6 1_555 1_555
H5 C7 1_555 1_555
C8 C7 1_555 1_555
H6 C8 1_555 1_555
C9 C4 1_555 1_555
C10 C3 1_555 1_555
H7 C10 1_555 1_555
C11 C10 1_555 1_555
H8 C11 1_555 1_555
C12 C11 1_555 1_555
H9 C12 1_555 1_555
H10 C12 1_555 1_555
C13 C10 1_555 1_555
H11 C13 1_555 1_555
C14 C13 1_555 1_555
N1 C1 1_555 1_555
O1 C13 1_555 1_555
F1 C14 1_555 1_555
F2 C14 1_555 1_555
F3 C14 1_555 1_555
H12 O1 1_555 1_555
C8 C9 1_555 1_555
C9 N1 1_555 1_555

#END
