
#######################################################################
#
#                 Cambridge Crystallographic Data Centre
#                                CCDC 
#
#######################################################################
#
# If this CIF has been generated from an entry in the Cambridge 
# Structural Database, then it will include bibliographic, chemical, 
# crystal, experimental, refinement or atomic coordinate data resulting 
# from the CCDC's data processing and validation procedures.
#
#######################################################################

data_PIDWIJ
_chemical_formula_moiety         'C24 H20 F1 N3 O3'
_chemical_name_systematic        
N-(2,6-Dimethylphenyl)-2-(2-(3-(4-fluorophenyl)-1,2,4-oxadiazol-5-yl)phenoxy)acetamide
_symmetry_cell_setting           monoclinic
_symmetry_space_group_name_H-M   'P 21/n'
_symmetry_Int_Tables_number      14
_space_group_name_Hall           '-P 2yn'
loop_
_symmetry_equiv_pos_site_id
_symmetry_equiv_pos_as_xyz
1 x,y,z
2 1/2-x,1/2+y,1/2-z
3 -x,-y,-z
4 1/2+x,1/2-y,1/2+z
_cell_length_a                   12.143(2)
_cell_length_b                   8.1850(16)
_cell_length_c                   20.942(4)
_cell_angle_alpha                90
_cell_angle_beta                 90.52(3)
_cell_angle_gamma                90
_cell_volume                     2081.35
_exptl_crystal_colour            colorless
_exptl_crystal_description       block
_cell_formula_units_Z            4
_exptl_crystal_recrystallization_method ethanol
loop_
_atom_site_label
_atom_site_type_symbol
_atom_site_fract_x
_atom_site_fract_y
_atom_site_fract_z
F1 F 0.05710(18) 0.7016(4) 0.08884(12)
O1 O 0.7445(2) 0.7632(3) 0.24191(13)
O2 O 0.74434(17) 0.4689(3) 0.11923(11)
N1 N 0.5387(2) 0.3739(3) 0.07762(12)
O3 O 0.55041(18) 0.1689(3) 0.00964(12)
N2 N 0.6089(2) 0.6340(3) 0.18616(12)
H1 H 0.5957 0.5695 0.1546
N3 N 0.4409(2) 0.2251(4) 0.00633(16)
C1 C 0.4811(3) 0.4186(4) 0.2616(2)
H2 H 0.5457 0.3947 0.2371
H3 H 0.4204 0.3550 0.2457
H4 H 0.4946 0.3918 0.3056
C2 C 0.4541(3) 0.5981(4) 0.25586(15)
C3 C 0.3632(3) 0.6629(5) 0.28712(17)
H5 H 0.3183 0.5947 0.3110
C4 C 0.3390(3) 0.8283(5) 0.28291(18)
H6 H 0.2802 0.8713 0.3056
C5 C 0.4019(3) 0.9287(5) 0.24517(19)
H7 H 0.3840 1.0389 0.2419
C6 C 0.4915(3) 0.8687(4) 0.21183(16)
C7 C 0.5167(2) 0.7029(4) 0.21884(15)
C8 C 0.5560(3) 0.9776(4) 0.16775(19)
H8 H 0.5270 1.0866 0.1695
H9 H 0.5501 0.9370 0.1249
H10 H 0.6320 0.9785 0.1808
C9 C 0.7146(3) 0.6637(4) 0.20175(16)
C10 C 0.7989(3) 0.5645(4) 0.16690(16)
H11 H 0.8522 0.6363 0.1471
H12 H 0.8377 0.4936 0.1966
C11 C 0.7882(3) 0.3249(4) 0.09914(15)
C12 C 0.8973(3) 0.2815(4) 0.10980(16)
H13 H 0.9441 0.3500 0.1328
C13 C 0.9357(3) 0.1344(5) 0.08572(18)
H14 H 1.0085 0.1041 0.0931
C14 C 0.8677(3) 0.0332(5) 0.05122(19)
H15 H 0.8948 -0.0643 0.0348
C15 C 0.7596(3) 0.0755(4) 0.04087(18)
H16 H 0.7136 0.0058 0.0179
C16 C 0.7184(2) 0.2222(4) 0.06460(15)
C17 C 0.6031(3) 0.2631(4) 0.05289(15)
C18 C 0.4396(2) 0.3447(4) 0.04745(15)
C19 C 0.3389(2) 0.4393(4) 0.05900(15)
C20 C 0.2395(3) 0.3867(5) 0.03430(18)
H17 H 0.2363 0.2905 0.0107
C21 C 0.1448(3) 0.4754(5) 0.0442(2)
H18 H 0.0778 0.4404 0.0273
C22 C 0.1512(3) 0.6158(6) 0.07934(18)
C23 C 0.2473(3) 0.6716(5) 0.10450(18)
H19 H 0.2492 0.7677 0.1282
C24 C 0.3427(3) 0.5828(5) 0.09434(16)
H20 H 0.4094 0.6193 0.1112
loop_
_geom_bond_atom_site_label_1
_geom_bond_atom_site_label_2
_geom_bond_site_symmetry_1
_geom_bond_site_symmetry_2
F1 C22 1_555 1_555
O1 C9 1_555 1_555
O2 C10 1_555 1_555
N1 C17 1_555 1_555
O3 N3 1_555 1_555
N2 H1 1_555 1_555
N3 C18 1_555 1_555
C1 H2 1_555 1_555
H3 C1 1_555 1_555
H4 C1 1_555 1_555
C2 C1 1_555 1_555
C3 C2 1_555 1_555
H5 C3 1_555 1_555
C4 C3 1_555 1_555
H6 C4 1_555 1_555
C5 C4 1_555 1_555
H7 C5 1_555 1_555
C6 C5 1_555 1_555
C7 N2 1_555 1_555
C8 C6 1_555 1_555
H8 C8 1_555 1_555
H9 C8 1_555 1_555
H10 C8 1_555 1_555
C9 N2 1_555 1_555
C10 C9 1_555 1_555
H11 C10 1_555 1_555
H12 C10 1_555 1_555
C11 O2 1_555 1_555
C12 C11 1_555 1_555
H13 C12 1_555 1_555
C13 C12 1_555 1_555
H14 C13 1_555 1_555
C14 C13 1_555 1_555
H15 C14 1_555 1_555
C15 C14 1_555 1_555
H16 C15 1_555 1_555
C16 C11 1_555 1_555
C17 O3 1_555 1_555
C18 N1 1_555 1_555
C19 C18 1_555 1_555
C20 C19 1_555 1_555
H17 C20 1_555 1_555
C21 C20 1_555 1_555
H18 C21 1_555 1_555
C22 C21 1_555 1_555
C23 C22 1_555 1_555
H19 C23 1_555 1_555
C24 C19 1_555 1_555
H20 C24 1_555 1_555
C2 C7 1_555 1_555
C6 C7 1_555 1_555
C15 C16 1_555 1_555
C16 C17 1_555 1_555
C23 C24 1_555 1_555

#END
