
#######################################################################
#
#                 Cambridge Crystallographic Data Centre
#                                CCDC 
#
#######################################################################
#
# If this CIF has been generated from an entry in the Cambridge 
# Structural Database, then it will include bibliographic, chemical, 
# crystal, experimental, refinement or atomic coordinate data resulting 
# from the CCDC's data processing and validation procedures.
#
#######################################################################

data_PIDXUY
_chemical_formula_moiety         'C23 H26 B10'
_chemical_name_systematic        
1-(4-(anthracen-9-yl)-2-methylphenyl)-1,2-dicarba-closo-dodecaborane(11)
_symmetry_cell_setting           monoclinic
_symmetry_space_group_name_H-M   'P 21/n'
_symmetry_Int_Tables_number      14
_space_group_name_Hall           '-P 2yn'
loop_
_symmetry_equiv_pos_site_id
_symmetry_equiv_pos_as_xyz
1 x,y,z
2 1/2-x,1/2+y,1/2-z
3 -x,-y,-z
4 1/2+x,1/2-y,1/2+z
_cell_length_a                   10.254(3)
_cell_length_b                   10.653(3)
_cell_length_c                   20.389(6)
_cell_angle_alpha                90
_cell_angle_beta                 90.245(4)
_cell_angle_gamma                90
_cell_volume                     2227.19
_exptl_crystal_colour            colorless
_exptl_crystal_description       block
_cell_formula_units_Z            4
loop_
_atom_site_label
_atom_site_type_symbol
_atom_site_fract_x
_atom_site_fract_y
_atom_site_fract_z
C1 C 0.49534(16) 0.82634(16) 0.39541(8)
C2 C 0.86920(16) 0.34548(17) 0.48058(8)
C3 C 0.70011(16) 0.72137(16) 0.41366(8)
H1 H 0.790415 0.725201 0.417562
C4 C 0.71911(16) 0.48725(16) 0.42296(8)
C5 C 0.80301(16) 0.29758(17) 0.36919(8)
C6 C 0.63982(17) 0.60526(17) 0.41938(8)
C7 C 0.72168(16) 0.40717(17) 0.36784(9)
C8 C 0.63157(16) 0.83302(16) 0.40229(8)
C9 C 0.79144(16) 0.45735(17) 0.47944(8)
C10 C 0.40568(16) 0.93269(16) 0.37509(8)
C11 C 0.87436(16) 0.26950(17) 0.42550(9)
H2 H 0.926651 0.198182 0.426182
C12 C 0.64668(17) 0.43019(17) 0.30961(9)
H3 H 0.593876 0.501047 0.307294
C13 C 0.93986(17) 0.31546(18) 0.53893(9)
H4 H 0.989822 0.242638 0.540320
C14 C 0.50481(17) 0.60241(17) 0.41825(9)
H5 H 0.461199 0.527082 0.425258
C15 C 0.45789(17) 1.06902(16) 0.34577(8)
C16 C 0.85950(18) 0.50236(19) 0.59138(9)
H6 H 0.857206 0.553787 0.628216
C17 C 0.80779(18) 0.21902(17) 0.31252(9)
H7 H 0.862961 0.149733 0.312440
C18 C 0.43453(17) 0.71106(17) 0.40674(9)
H8 H 0.343924 0.707255 0.406546
C19 C 0.93562(17) 0.39100(19) 0.59239(9)
H9 H 0.982723 0.369814 0.629866
C20 C 0.78993(17) 0.53440(17) 0.53697(9)
H10 H 0.740536 0.607610 0.537125
C21 C 0.71285(17) 0.95107(17) 0.39782(9)
H11 H 0.798611 0.934912 0.414900
H12 H 0.672491 1.016557 0.422923
H13 H 0.719067 0.976727 0.352809
C22 C 0.65136(18) 0.35039(19) 0.25778(9)
H14 H 0.599872 0.366117 0.221027
C23 C 0.73364(19) 0.24332(18) 0.25884(9)
H15 H 0.736669 0.189953 0.222786
B1 B 0.39270(19) 1.06696(18) 0.42286(9)
B2 B 0.3605(2) 1.1917(2) 0.36692(10)
B3 B 0.2308(2) 1.12059(19) 0.41123(10)
B4 B 0.26196(19) 0.8951(2) 0.33522(10)
B5 B 0.26281(19) 0.95684(19) 0.41644(10)
B6 B 0.3602(2) 1.1287(2) 0.28616(10)
B7 B 0.1505(2) 1.0144(2) 0.35720(10)
B8 B 0.3925(2) 0.9646(2) 0.29109(9)
B9 B 0.2105(2) 1.1598(2) 0.32655(10)
B10 B 0.2307(2) 1.0194(2) 0.27952(10)
H16 H 0.4524(19) 1.0750(18) 0.4637(9)
H17 H 0.2387(18) 0.8002(19) 0.3274(9)
H18 H 0.4580(19) 0.919(2) 0.2590(10)
H19 H 0.409(2) 1.181(2) 0.2461(10)
H20 H 0.410(2) 1.282(2) 0.3780(10)
H21 H 0.185(2) 1.172(2) 0.4497(10)
H22 H 0.554(2) 1.083(2) 0.3419(10)
H23 H 0.144(2) 1.234(2) 0.3104(11)
H24 H 0.2478(19) 0.8986(19) 0.4577(10)
H25 H 0.048(2) 0.991(2) 0.3582(10)
H26 H 0.186(2) 1.003(2) 0.2287(11)
loop_
_geom_bond_atom_site_label_1
_geom_bond_atom_site_label_2
_geom_bond_site_symmetry_1
_geom_bond_site_symmetry_2
C1 C8 1_555 1_555
C2 C9 1_555 1_555
C3 H1 1_555 1_555
C4 C6 1_555 1_555
C5 C7 1_555 1_555
C6 C3 1_555 1_555
C7 C4 1_555 1_555
C8 C3 1_555 1_555
C9 C4 1_555 1_555
C10 C1 1_555 1_555
C11 C2 1_555 1_555
H2 C11 1_555 1_555
C12 C7 1_555 1_555
H3 C12 1_555 1_555
C13 C2 1_555 1_555
H4 C13 1_555 1_555
C14 C6 1_555 1_555
H5 C14 1_555 1_555
C15 C10 1_555 1_555
C16 H6 1_555 1_555
C17 C5 1_555 1_555
H7 C17 1_555 1_555
C18 C1 1_555 1_555
H8 C18 1_555 1_555
C19 C13 1_555 1_555
H9 C19 1_555 1_555
C20 C9 1_555 1_555
H10 C20 1_555 1_555
C21 C8 1_555 1_555
H11 C21 1_555 1_555
H12 C21 1_555 1_555
H13 C21 1_555 1_555
C22 C12 1_555 1_555
H14 C22 1_555 1_555
C23 C17 1_555 1_555
H15 C23 1_555 1_555
B1 C10 1_555 1_555
B2 C15 1_555 1_555
B3 B1 1_555 1_555
B4 C10 1_555 1_555
B5 C10 1_555 1_555
B6 C15 1_555 1_555
B7 B3 1_555 1_555
B8 C10 1_555 1_555
B9 B2 1_555 1_555
B10 B4 1_555 1_555
H16 B1 1_555 1_555
H17 B4 1_555 1_555
H18 B8 1_555 1_555
H19 B6 1_555 1_555
H20 B2 1_555 1_555
H21 B3 1_555 1_555
H22 C15 1_555 1_555
H23 B9 1_555 1_555
H24 B5 1_555 1_555
H25 B7 1_555 1_555
H26 B10 1_555 1_555
C5 C11 1_555 1_555
C14 C18 1_555 1_555
C15 B1 1_555 1_555
C15 B8 1_555 1_555
C16 C19 1_555 1_555
C16 C20 1_555 1_555
C22 C23 1_555 1_555
B1 B2 1_555 1_555
B1 B5 1_555 1_555
B2 B3 1_555 1_555
B2 B6 1_555 1_555
B3 B5 1_555 1_555
B3 B9 1_555 1_555
B4 B5 1_555 1_555
B4 B7 1_555 1_555
B4 B8 1_555 1_555
B5 B7 1_555 1_555
B6 B8 1_555 1_555
B6 B9 1_555 1_555
B6 B10 1_555 1_555
B7 B9 1_555 1_555
B7 B10 1_555 1_555
B8 B10 1_555 1_555
B9 B10 1_555 1_555

#END
