
#######################################################################
#
#                 Cambridge Crystallographic Data Centre
#                                CCDC 
#
#######################################################################
#
# If this CIF has been generated from an entry in the Cambridge 
# Structural Database, then it will include bibliographic, chemical, 
# crystal, experimental, refinement or atomic coordinate data resulting 
# from the CCDC's data processing and validation procedures.
#
#######################################################################

data_PIFDIT
_chemical_formula_moiety         'C94 H92 O8 Si8'
_chemical_name_systematic        
'2,4,6,8-tetrakis(4-(biphenyl-4-ylethynyl)phenyl)-2,4-bis((ethyl(dimethyl)silyl)oxy)-6,8-bis((trimethylsilyl)oxy)-1,3,5,7,2,4,6,8-tetroxatetrasilocane unknown solvate'
_symmetry_cell_setting           rhombohedral
_symmetry_space_group_name_H-M   'R -3'
_symmetry_Int_Tables_number      148
_space_group_name_Hall           '-R 3'
loop_
_symmetry_equiv_pos_site_id
_symmetry_equiv_pos_as_xyz
1 x,y,z
2 -y,x-y,z
3 -x+y,-x,z
4 2/3+x,1/3+y,1/3+z
5 2/3-y,1/3+x-y,1/3+z
6 2/3-x+y,1/3-x,1/3+z
7 1/3+x,2/3+y,2/3+z
8 1/3-y,2/3+x-y,2/3+z
9 1/3-x+y,2/3-x,2/3+z
10 -x,-y,-z
11 y,-x+y,-z
12 x-y,x,-z
13 1/3-x,2/3-y,2/3-z
14 1/3+y,2/3-x+y,2/3-z
15 1/3+x-y,2/3+x,2/3-z
16 2/3-x,1/3-y,1/3-z
17 2/3+y,1/3-x+y,1/3-z
18 2/3+x-y,1/3+x,1/3-z
_cell_length_a                   68.514(6)
_cell_length_b                   68.514(6)
_cell_length_c                   10.8220(10)
_cell_angle_alpha                90
_cell_angle_beta                 90
_cell_angle_gamma                120
_cell_volume                     43994.3
_exptl_crystal_description       block
_cell_formula_units_Z            18
loop_
_atom_site_label
_atom_site_type_symbol
_atom_site_fract_x
_atom_site_fract_y
_atom_site_fract_z
Si1 Si 0.49503(2) 0.33703(2) 0.30202(12)
Si2 Si 0.53022(2) 0.38780(2) 0.30472(11)
Si3 Si 0.54487(2) 0.38521(2) 0.04258(12)
Si4 Si 0.49695(2) 0.34201(2) 0.01143(11)
Si5 Si 0.482146(19) 0.29562(2) -0.10999(10)
O1 O 0.51036(4) 0.36326(5) 0.3448(2)
O2 O 0.54456(4) 0.38526(5) 0.1918(3)
O3 O 0.52202(4) 0.36327(4) -0.0048(2)
O4 O 0.49178(5) 0.33545(5) 0.1556(3)
O5 O 0.54732(4) 0.39917(5) 0.4188(2)
O6 O 0.49661(5) 0.32135(5) -0.0633(3)
Si6 Si 0.51989(3) 0.30934(3) 0.35895(16)
O7 O 0.50715(5) 0.32423(6) 0.3490(4)
C1 C 0.54329(8) 0.32159(15) 0.4734(5)
H1 H 0.5546 0.3369 0.4476
H2 H 0.5503 0.3122 0.4783
H3 H 0.5373 0.3222 0.5547
C2 C 0.53309(10) 0.31214(12) 0.2042(4)
H4 H 0.5213 0.3061 0.1406
H5 H 0.5412 0.3037 0.2036
H6 H 0.5437 0.3281 0.1871
C3 C 0.49597(10) 0.28393(5) 0.4300(5)
H7 H 0.5012 0.2817 0.5114
H8 H 0.4839 0.2876 0.4464
C4 C 0.48671(12) 0.26482(6) 0.3746(6)
H9 H 0.4921 0.2635 0.2959
H10 H 0.4745 0.2520 0.4123
C5 C 0.50302(6) 0.28681(8) -0.1427(9)
H11 H 0.5135 0.2966 -0.2065
H12 H 0.4953 0.2712 -0.1718
H13 H 0.5114 0.2880 -0.0671
C6 C 0.46215(8) 0.27979(9) 0.0147(4)
H14 H 0.4705 0.2807 0.0900
H15 H 0.4528 0.2640 -0.0099
H16 H 0.4525 0.2863 0.0305
C7 C 0.46312(5) 0.29443(8) -0.2347(4)
H17 H 0.4661 0.3101 -0.2440
H18 H 0.4688 0.2911 -0.3111
C8 C 0.44087(7) 0.28141(9) -0.2393(7)
H19 H 0.4331 0.2713 -0.1735
H20 H 0.4327 0.2822 -0.3084
C9 C 0.46660(3) 0.32460(4) 0.3799(2)
C10 C 0.44859(4) 0.30558(4) 0.3277(2)
H21 H 0.4506 0.2996 0.2527
C11 C 0.42765(3) 0.29530(4) 0.3852(3)
H22 H 0.4153 0.2823 0.3495
C12 C 0.42471(4) 0.30405(5) 0.4950(3)
C13 C 0.44272(5) 0.32307(5) 0.5473(2)
H23 H 0.4407 0.3291 0.6223
C14 C 0.46366(4) 0.33335(4) 0.4897(2)
H24 H 0.4760 0.3463 0.5254
C15 C 0.40304(6) 0.29377(6) 0.5562(3)
C16 C 0.38512(6) 0.28513(6) 0.6100(3)
C17 C 0.36372(3) 0.27659(3) 0.67121(16)
C18 C 0.35654(3) 0.29164(3) 0.7033(2)
H25 H 0.3658 0.3073 0.6863
C19 C 0.33576(4) 0.28384(4) 0.7603(2)
H26 H 0.3309 0.2941 0.7822
C20 C 0.32216(3) 0.26100(4) 0.7852(2)
C21 C 0.32934(3) 0.24595(3) 0.7531(2)
H27 H 0.3200 0.2303 0.7701
C22 C 0.35012(3) 0.25375(3) 0.69611(18)
H28 H 0.3550 0.2435 0.6742
C23 C 0.29949(3) 0.25299(3) 0.84952(17)
C24 C 0.28851(4) 0.26536(3) 0.8399(2)
H29 H 0.2948 0.2786 0.7906
C25 C 0.26835(4) 0.25835(5) 0.9023(2)
H30 H 0.2609 0.2668 0.8957
C26 C 0.25917(3) 0.23898(5) 0.9744(2)
H31 H 0.2454 0.2342 1.0171
C27 C 0.27015(4) 0.22661(4) 0.9841(2)
H32 H 0.2639 0.2134 1.0334
C28 C 0.29031(4) 0.23361(3) 0.92165(19)
H33 H 0.2978 0.2252 0.9283
C29 C 0.51725(3) 0.40461(4) 0.25243(18)
C30 C 0.49556(3) 0.39331(4) 0.2039(2)
H34 H 0.4867 0.3774 0.2110
C31 C 0.48683(4) 0.40532(5) 0.1450(2)
H35 H 0.4720 0.3976 0.1118
C32 C 0.49979(5) 0.42862(5) 0.1346(2)
C33 C 0.52147(5) 0.43992(4) 0.1832(2)
H36 H 0.5303 0.4558 0.1761
C34 C 0.53020(3) 0.42792(4) 0.2421(2)
H37 H 0.5450 0.4356 0.2752
C35 C 0.49035(7) 0.44057(7) 0.0662(4)
C36 C 0.48210(6) 0.45003(7) 0.0091(4)
C37 C 0.47241(3) 0.46091(3) -0.05963(18)
C38 C 0.46228(4) 0.45278(3) -0.17379(19)
H38 H 0.4621 0.4400 -0.2089
C39 C 0.45246(4) 0.46339(4) -0.23656(18)
H39 H 0.4455 0.4578 -0.3146
C40 C 0.45278(4) 0.48215(4) -0.1852(2)
C41 C 0.46292(4) 0.49028(3) -0.0710(2)
H40 H 0.4631 0.5031 -0.0359
C42 C 0.47274(3) 0.47966(4) -0.00825(18)
H41 H 0.4797 0.4852 0.0698
C43 C 0.44206(3) 0.49327(3) -0.25273(19)
C44 C 0.44329(4) 0.49548(4) -0.38060(19)
H42 H 0.4507 0.4894 -0.4274
C45 C 0.43365(4) 0.50659(5) -0.43995(19)
H43 H 0.4345 0.5081 -0.5273
C46 C 0.42277(4) 0.51550(4) -0.3714(3)
H44 H 0.4162 0.5231 -0.4120
C47 C 0.42153(4) 0.51329(4) -0.2436(3)
H45 H 0.4141 0.5194 -0.1967
C48 C 0.43118(4) 0.50218(4) -0.18422(18)
H46 H 0.4303 0.5007 -0.0968
C49 C 0.54642(4) 0.41136(4) -0.02142(19)
C50 C 0.52752(4) 0.41024(4) -0.0761(2)
H47 H 0.5140 0.3962 -0.0830
C51 C 0.52844(5) 0.42971(5) -0.1205(2)
H48 H 0.5155 0.4289 -0.1578
C52 C 0.54826(6) 0.45032(4) -0.1103(2)
C53 C 0.56716(5) 0.45145(4) -0.0556(2)
H49 H 0.5807 0.4655 -0.0486
C54 C 0.56624(4) 0.43197(4) -0.0112(2)
H50 H 0.5792 0.4327 0.0261
C55 C 0.54814(7) 0.47021(7) -0.1607(4)
C56 C 0.54653(7) 0.48562(8) -0.2070(4)
C57 C 0.54137(4) 0.50114(3) -0.26092(18)
C58 C 0.51940(3) 0.49339(4) -0.3006(2)
H51 H 0.5083 0.4780 -0.2910
C59 C 0.51362(4) 0.50823(5) -0.3544(2)
H52 H 0.4986 0.5029 -0.3815
C60 C 0.52981(5) 0.53082(4) -0.3685(2)
C61 C 0.55177(4) 0.53857(3) -0.3288(2)
H53 H 0.5628 0.5540 -0.3384
C62 C 0.55755(3) 0.52373(4) -0.2750(2)
H54 H 0.5726 0.5290 -0.2479
C63 C 0.52334(4) 0.54676(4) -0.4302(2)
C64 C 0.50115(4) 0.54197(4) -0.4208(2)
H55 H 0.4906 0.5294 -0.3732
C65 C 0.49435(4) 0.55551(5) -0.4809(3)
H56 H 0.4792 0.5522 -0.4745
C66 C 0.50976(6) 0.57383(5) -0.5505(3)
H57 H 0.5051 0.5831 -0.5916
C67 C 0.53195(5) 0.57862(4) -0.5599(2)
H58 H 0.5425 0.5911 -0.6075
C68 C 0.53875(4) 0.56509(4) -0.4998(2)
H59 H 0.5539 0.5684 -0.5062
C69 C 0.47579(3) 0.34889(3) -0.0534(2)
C70 C 0.45855(4) 0.34811(4) 0.01813(19)
H60 H 0.4567 0.3430 0.1013
C71 C 0.44409(4) 0.35473(5) -0.0321(2)
H61 H 0.4323 0.3542 0.0168
C72 C 0.44687(4) 0.36214(5) -0.1538(2)
C73 C 0.46410(5) 0.36293(5) -0.2253(2)
H62 H 0.4660 0.3680 -0.3085
C74 C 0.47856(4) 0.35631(4) -0.17505(19)
H63 H 0.4903 0.3568 -0.2239
C75 C 0.43224(7) 0.36971(7) -0.2076(3)
C76 C 0.42125(7) 0.37654(7) -0.2613(4)
C77 C 0.41011(3) 0.38641(4) -0.32878(19)
C78 C 0.40565(4) 0.38171(4) -0.4539(2)
H64 H 0.4084 0.3709 -0.4923
C79 C 0.39713(4) 0.39289(5) -0.52289(18)
H65 H 0.3941 0.3897 -0.6084
C80 C 0.39306(4) 0.40876(5) -0.4668(2)
C81 C 0.39752(4) 0.41345(4) -0.3416(3)
H66 H 0.3947 0.4243 -0.3033
C82 C 0.40604(4) 0.40228(4) -0.27264(19)
H67 H 0.4091 0.4055 -0.1871
C83 C 0.38509(3) 0.42140(4) -0.5455(2)
C84 C 0.37013(4) 0.41044(5) -0.6418(2)
H68 H 0.3648 0.3949 -0.6571
C85 C 0.36289(5) 0.42217(7) -0.7158(2)
H69 H 0.3527 0.4147 -0.7817
C86 C 0.37061(6) 0.44486(7) -0.6935(3)
H70 H 0.3657 0.4529 -0.7441
C87 C 0.38558(6) 0.45581(5) -0.5972(3)
H71 H 0.3909 0.4713 -0.5819
C88 C 0.39282(4) 0.44409(4) -0.5232(3)
H72 H 0.4030 0.4516 -0.4573
O8 O 0.56701(5) 0.38462(6) -0.0076(3)
C89 C 0.59042(13) 0.37272(12) 0.1723(4)
H73 H 0.5992 0.3878 0.2089
H74 H 0.5990 0.3648 0.1779
H75 H 0.5762 0.3641 0.2170
Si7 Si 0.58447(3) 0.37544(3) 0.00510(16)
C90 C 0.5707(2) 0.34858(7) -0.0882(6)
H76 H 0.5567 0.3375 -0.0480
H77 H 0.5809 0.3425 -0.0937
H78 H 0.5674 0.3518 -0.1715
C91 C 0.61042(8) 0.39765(10) -0.0738(7)
H79 H 0.6073 0.3981 -0.1617
H80 H 0.6226 0.3942 -0.0646
H81 H 0.6150 0.4123 -0.0363
C92 C 0.53167(12) 0.37317(10) 0.6393(6)
H82 H 0.5187 0.3751 0.6564
H83 H 0.5376 0.3709 0.7172
H84 H 0.5270 0.3600 0.5858
C93 C 0.57815(6) 0.39292(9) 0.5703(7)
H85 H 0.5787 0.3853 0.4946
H86 H 0.5757 0.3831 0.6414
H87 H 0.5925 0.4070 0.5806
C94 C 0.55747(10) 0.42749(6) 0.6051(6)
H88 H 0.5689 0.4394 0.5527
H89 H 0.5621 0.4307 0.6918
H90 H 0.5430 0.4269 0.5943
Si8 Si 0.55436(3) 0.39927(3) 0.55933(13)
H91 H 0.4960 0.2552 0.3405
Si9? Si 0.57991(5) 0.36890(5) -0.0163(3)
O9? O 0.56462(6) 0.37844(9) 0.0418(9)
Si10? Si 0.54323(4) 0.40614(5) 0.5545(3)
C95? C 0.5622(2) 0.43386(10) 0.6341(11)
H92? H 0.5779 0.4388 0.6142
H93? H 0.5600 0.4319 0.7236
H94? H 0.5585 0.4452 0.6056
C96? C 0.56213(10) 0.39837(15) 0.6434(14)
H95? H 0.5751 0.4012 0.5919
H96? H 0.5536 0.3824 0.6657
H97? H 0.5675 0.4075 0.7187
C97? C 0.52403(7) 0.41821(10) 0.568(3)
H98? H 0.5318 0.4338 0.5374
H99? H 0.5198 0.4180 0.6545
H100? H 0.5104 0.4092 0.5184
C98? C 0.60731(10) 0.3866(4) -0.0991(12)
H101? H 0.6052 0.3953 -0.1645
H102? H 0.6124 0.3769 -0.1357
H103? H 0.6186 0.3970 -0.0403
C99? C 0.58979(15) 0.3635(2) 0.1340(7)
H104? H 0.5921 0.3752 0.1935
H105? H 0.6040 0.3636 0.1212
H106? H 0.5784 0.3487 0.1660
C100? C 0.5656(7) 0.34221(10) -0.1096(10)
H107? H 0.5630 0.3294 -0.0576
H108? H 0.5751 0.3434 -0.1799
H109? H 0.5511 0.3399 -0.1400
C101? C 0.46317(19) 0.27454(18) 0.0032(9)
H110? H 0.4719 0.2745 0.0748
H111? H 0.4557 0.2596 -0.0350
H112? H 0.4518 0.2783 0.0301
C102? C 0.49429(8) 0.27709(9) -0.129(3)
H113? H 0.5058 0.2832 -0.1944
H114? H 0.4823 0.2619 -0.1526
H115? H 0.5012 0.2763 -0.0515
C103? C 0.48257(7) 0.29927(16) -0.2791(4)
H116? H 0.4960 0.3139 -0.3005
H117? H 0.4844 0.2872 -0.3183
C104? C 0.46480(10) 0.2989(2) -0.3278(6)
H118? H 0.4641 0.3007 -0.4144
C105? C 0.50581(12) 0.27070(9) 0.358(2)
H119? H 0.5216 0.2765 0.3651
C106? C 0.49771(12) 0.28387(7) 0.370(2)
H120? H 0.4864 0.2776 0.4375
H121? H 0.4894 0.2828 0.2934
Si11? Si 0.51650(6) 0.31438(6) 0.4037(3)
C107? C 0.5260(5) 0.3291(2) 0.5550(8)
H122? H 0.5373 0.3449 0.5411
H123? H 0.5326 0.3218 0.6045
H124? H 0.5131 0.3282 0.5990
C108? C 0.54005(10) 0.3101(2) 0.353(2)
H125? H 0.5373 0.3044 0.2678
H126? H 0.5410 0.2992 0.4074
H127? H 0.5543 0.3245 0.3561
O10? O 0.50788(9) 0.32367(11) 0.2879(6)
H128? H 0.4527 0.2968 -0.2763
loop_
_geom_bond_atom_site_label_1
_geom_bond_atom_site_label_2
_geom_bond_site_symmetry_1
_geom_bond_site_symmetry_2
Si1 O1 1_555 1_555
Si2 O1 1_555 1_555
Si3 O2 1_555 1_555
Si4 O3 1_555 1_555
Si5 O6 1_555 1_555
O2 Si2 1_555 1_555
O3 Si3 1_555 1_555
O4 Si1 1_555 1_555
O5 Si2 1_555 1_555
O6 Si4 1_555 1_555
Si6 O7 1_555 1_555
O7 Si1 1_555 1_555
C1 Si6 1_555 1_555
H1 C1 1_555 1_555
H2 C1 1_555 1_555
H3 C1 1_555 1_555
C2 Si6 1_555 1_555
H4 C2 1_555 1_555
H5 C2 1_555 1_555
H6 C2 1_555 1_555
C3 Si6 1_555 1_555
H7 C3 1_555 1_555
H8 C3 1_555 1_555
C4 C3 1_555 1_555
H9 C4 1_555 1_555
H10 C4 1_555 1_555
C5 Si5 1_555 1_555
H11 C5 1_555 1_555
H12 C5 1_555 1_555
H13 C5 1_555 1_555
C6 Si5 1_555 1_555
H14 C6 1_555 1_555
H15 C6 1_555 1_555
H16 C6 1_555 1_555
C7 Si5 1_555 1_555
H17 C7 1_555 1_555
H18 C7 1_555 1_555
C8 C7 1_555 1_555
H19 C8 1_555 1_555
H20 C8 1_555 1_555
C9 Si1 1_555 1_555
C10 C9 1_555 1_555
H21 C10 1_555 1_555
C11 C10 1_555 1_555
H22 C11 1_555 1_555
C12 C11 1_555 1_555
C13 C12 1_555 1_555
H23 C13 1_555 1_555
C14 C9 1_555 1_555
H24 C14 1_555 1_555
C15 C12 1_555 1_555
C16 C15 1_555 1_555
C17 C16 1_555 1_555
C18 C17 1_555 1_555
H25 C18 1_555 1_555
C19 C18 1_555 1_555
H26 C19 1_555 1_555
C20 C19 1_555 1_555
C21 C20 1_555 1_555
H27 C21 1_555 1_555
C22 C17 1_555 1_555
H28 C22 1_555 1_555
C23 C20 1_555 1_555
C24 C23 1_555 1_555
H29 C24 1_555 1_555
C25 C24 1_555 1_555
H30 C25 1_555 1_555
C26 C25 1_555 1_555
H31 C26 1_555 1_555
C27 C26 1_555 1_555
H32 C27 1_555 1_555
C28 C23 1_555 1_555
H33 C28 1_555 1_555
C29 Si2 1_555 1_555
C30 C29 1_555 1_555
H34 C30 1_555 1_555
C31 C30 1_555 1_555
H35 C31 1_555 1_555
C32 C31 1_555 1_555
C33 C32 1_555 1_555
H36 C33 1_555 1_555
C34 C29 1_555 1_555
H37 C34 1_555 1_555
C35 C32 1_555 1_555
C36 C35 1_555 1_555
C37 C36 1_555 1_555
C38 C37 1_555 1_555
H38 C38 1_555 1_555
C39 C38 1_555 1_555
H39 C39 1_555 1_555
C40 C39 1_555 1_555
C41 C40 1_555 1_555
H40 C41 1_555 1_555
C42 C37 1_555 1_555
H41 C42 1_555 1_555
C43 C40 1_555 1_555
C44 C43 1_555 1_555
H42 C44 1_555 1_555
C45 C44 1_555 1_555
H43 C45 1_555 1_555
C46 C45 1_555 1_555
H44 C46 1_555 1_555
C47 C46 1_555 1_555
H45 C47 1_555 1_555
C48 C43 1_555 1_555
H46 C48 1_555 1_555
C49 Si3 1_555 1_555
C50 C49 1_555 1_555
H47 C50 1_555 1_555
C51 C50 1_555 1_555
H48 C51 1_555 1_555
C52 C51 1_555 1_555
C53 C52 1_555 1_555
H49 C53 1_555 1_555
C54 C49 1_555 1_555
H50 C54 1_555 1_555
C55 C52 1_555 1_555
C56 C55 1_555 1_555
C57 C56 1_555 1_555
C58 C57 1_555 1_555
H51 C58 1_555 1_555
C59 C58 1_555 1_555
H52 C59 1_555 1_555
C60 C59 1_555 1_555
C61 C60 1_555 1_555
H53 C61 1_555 1_555
C62 C57 1_555 1_555
H54 C62 1_555 1_555
C63 C60 1_555 1_555
C64 C63 1_555 1_555
H55 C64 1_555 1_555
C65 C64 1_555 1_555
H56 C65 1_555 1_555
C66 C65 1_555 1_555
H57 C66 1_555 1_555
C67 C66 1_555 1_555
H58 C67 1_555 1_555
C68 C63 1_555 1_555
H59 C68 1_555 1_555
C69 Si4 1_555 1_555
C70 C69 1_555 1_555
H60 C70 1_555 1_555
C71 C70 1_555 1_555
H61 C71 1_555 1_555
C72 C71 1_555 1_555
C73 C72 1_555 1_555
H62 C73 1_555 1_555
C74 C69 1_555 1_555
H63 C74 1_555 1_555
C75 C72 1_555 1_555
C76 C75 1_555 1_555
C77 C76 1_555 1_555
C78 C77 1_555 1_555
H64 C78 1_555 1_555
C79 C78 1_555 1_555
H65 C79 1_555 1_555
C80 C79 1_555 1_555
C81 C80 1_555 1_555
H66 C81 1_555 1_555
C82 C77 1_555 1_555
H67 C82 1_555 1_555
C83 C80 1_555 1_555
C84 C83 1_555 1_555
H68 C84 1_555 1_555
C85 C84 1_555 1_555
H69 C85 1_555 1_555
C86 C85 1_555 1_555
H70 C86 1_555 1_555
C87 C86 1_555 1_555
H71 C87 1_555 1_555
C88 C83 1_555 1_555
H72 C88 1_555 1_555
O8 Si3 1_555 1_555
C89 H73 1_555 1_555
H74 C89 1_555 1_555
H75 C89 1_555 1_555
Si7 O8 1_555 1_555
C90 Si7 1_555 1_555
H76 C90 1_555 1_555
H77 C90 1_555 1_555
H78 C90 1_555 1_555
C91 Si7 1_555 1_555
H79 C91 1_555 1_555
H80 C91 1_555 1_555
H81 C91 1_555 1_555
C92 H82 1_555 1_555
H83 C92 1_555 1_555
H84 C92 1_555 1_555
C93 H85 1_555 1_555
H86 C93 1_555 1_555
H87 C93 1_555 1_555
C94 H88 1_555 1_555
H89 C94 1_555 1_555
H90 C94 1_555 1_555
Si8 O5 1_555 1_555
H91 C4 1_555 1_555
Si4 O4 1_555 1_555
C13 C14 1_555 1_555
C21 C22 1_555 1_555
C27 C28 1_555 1_555
C33 C34 1_555 1_555
C41 C42 1_555 1_555
C47 C48 1_555 1_555
C53 C54 1_555 1_555
C61 C62 1_555 1_555
C67 C68 1_555 1_555
C73 C74 1_555 1_555
C81 C82 1_555 1_555
C87 C88 1_555 1_555
C89 Si7 1_555 1_555
C92 Si8 1_555 1_555
C93 Si8 1_555 1_555
C94 Si8 1_555 1_555

#END
