
#######################################################################
#
#                 Cambridge Crystallographic Data Centre
#                                CCDC 
#
#######################################################################
#
# If this CIF has been generated from an entry in the Cambridge 
# Structural Database, then it will include bibliographic, chemical, 
# crystal, experimental, refinement or atomic coordinate data resulting 
# from the CCDC's data processing and validation procedures.
#
#######################################################################

data_PIGBEN
_chemical_formula_moiety         'C20 H21 B1 N2 O6'
_chemical_name_systematic        
(E)-2,4-dinitro-4'-(4,4,5,5-tetramethyl-1,3,2-dioxaborolan-2-yl)stilbene
_symmetry_cell_setting           orthorhombic
_symmetry_space_group_name_H-M   'P n a 21'
_symmetry_Int_Tables_number      33
_space_group_name_Hall           'P 2c -2n'
loop_
_symmetry_equiv_pos_site_id
_symmetry_equiv_pos_as_xyz
1 x,y,z
2 -x,-y,1/2+z
3 1/2+x,1/2-y,z
4 1/2-x,1/2+y,1/2+z
_cell_length_a                   13.7068(18)
_cell_length_b                   7.4595(8)
_cell_length_c                   38.371(5)
_cell_angle_alpha                90
_cell_angle_beta                 90
_cell_angle_gamma                90
_cell_volume                     3923.28
_exptl_crystal_colour            yellow
_exptl_crystal_description       plate
_chemical_melting_point          '176 deg.C'
_cell_formula_units_Z            8
_exptl_crystal_recrystallization_method 'n-pentane/ethyl acetate'
loop_
_atom_site_label
_atom_site_type_symbol
_atom_site_fract_x
_atom_site_fract_y
_atom_site_fract_z
B1 B 0.67482(18) 0.3071(4) 0.81423(7)
C1 C 0.93084(16) 0.6638(3) 0.55314(6)
C2 C 0.84271(16) 0.5969(3) 0.56479(6)
H1 H 0.7908 0.5808 0.5495
C3 C 0.83326(16) 0.5545(3) 0.59972(6)
H2 H 0.7739 0.5091 0.6075
C4 C 0.90875(15) 0.5766(3) 0.62386(6)
C5 C 0.99710(15) 0.6420(3) 0.60988(6)
C6 C 1.00918(16) 0.6850(3) 0.57515(6)
H3 H 1.0687 0.7272 0.5669
C7 C 0.89408(15) 0.5236(3) 0.66040(5)
H4 H 0.9477 0.4860 0.6733
C8 C 0.80682(15) 0.5274(3) 0.67559(6)
H5 H 0.7561 0.5715 0.6620
C9 C 0.78006(15) 0.4715(3) 0.71086(5)
C10 C 0.68311(16) 0.4930(3) 0.72115(6)
H6 H 0.6388 0.5455 0.7059
C11 C 0.65189(16) 0.4377(3) 0.75367(6)
H7 H 0.5866 0.4516 0.7596
C12 C 0.71544(15) 0.3619(3) 0.77764(6)
C13 C 0.81286(15) 0.3421(3) 0.76763(6)
H8 H 0.8571 0.2928 0.7833
C14 C 0.84529(15) 0.3940(3) 0.73492(6)
H9 H 0.9104 0.3777 0.7288
C15 C 0.56324(16) 0.2416(3) 0.85594(6)
C16 C 0.52282(18) 0.0567(3) 0.84806(6)
H10 H 0.5704 -0.0112 0.8353
H11 H 0.4645 0.0680 0.8344
H12 H 0.5080 -0.0037 0.8695
C17 C 0.48923(19) 0.3501(4) 0.87621(7)
H13 H 0.5153 0.4671 0.8809
H14 H 0.4749 0.2907 0.8978
H15 H 0.4305 0.3616 0.8628
C18 C 0.66784(16) 0.2378(3) 0.87175(6)
C19 C 0.6944(2) 0.4086(4) 0.89106(7)
H16 H 0.6786 0.5105 0.8769
H17 H 0.7630 0.4088 0.8961
H18 H 0.6583 0.4146 0.9125
C20 C 0.69135(17) 0.0752(4) 0.89397(7)
H19 H 0.6734 -0.0318 0.8816
H20 H 0.6555 0.0817 0.9154
H21 H 0.7600 0.0728 0.8989
N1 N 0.94264(16) 0.7126(3) 0.51641(5)
N2 N 1.08209(13) 0.6739(2) 0.63211(5)
O1 O 0.72896(11) 0.2327(2) 0.84025(4)
O2 O 0.57900(10) 0.3297(2) 0.82232(4)
O3 O 1.01788(14) 0.7896(2) 0.50781(5)
O4 O 0.87630(13) 0.6754(3) 0.49618(4)
O5 O 1.16361(11) 0.6568(2) 0.61883(4)
O6 O 1.06887(11) 0.7207(2) 0.66254(4)
B2 B 0.42417(18) -0.2609(3) 1.02877(7)
C21 C 0.69172(16) -0.6690(3) 1.28431(6)
C22 C 0.60035(16) -0.6784(3) 1.26927(6)
H22 H 0.5467 -0.7165 1.2821
C23 C 0.59048(16) -0.6302(3) 1.23479(6)
H23 H 0.5298 -0.6429 1.2243
C24 C 0.66829(15) -0.5627(3) 1.21489(6)
C25 C 0.75899(16) -0.5553(3) 1.23198(6)
C26 C 0.77179(16) -0.6100(3) 1.26618(6)
H24 H 0.8331 -0.6067 1.2766
C27 C 0.65086(16) -0.5135(3) 1.17825(6)
H25 H 0.6995 -0.5341 1.1618
C28 C 0.56703(15) -0.4401(3) 1.16810(6)
H26 H 0.5226 -0.4139 1.1857
C29 C 0.53618(15) -0.3957(3) 1.13259(5)
C30 C 0.43888(15) -0.3470(3) 1.12712(6)
H27 H 0.3963 -0.3423 1.1460
C31 C 0.40495(16) -0.3057(3) 1.09420(6)
H28 H 0.3397 -0.2754 1.0913
C32 C 0.46661(16) -0.3086(3) 1.06512(6)
C33 C 0.56424(15) -0.3544(3) 1.07088(6)
H29 H 0.6074 -0.3555 1.0522
C34 C 0.59806(16) -0.3980(3) 1.10363(6)
H30 H 0.6632 -0.4296 1.1065
C35 C 0.31072(16) -0.1869(3) 0.98787(6)
C36 C 0.23013(17) -0.2860(4) 0.96902(7)
H31 H 0.2506 -0.4068 0.9644
H32 H 0.2161 -0.2265 0.9474
H33 H 0.1726 -0.2876 0.9833
C37 C 0.28001(18) 0.0055(4) 0.99549(6)
H34 H 0.3317 0.0663 1.0075
H35 H 0.2225 0.0051 1.0098
H36 H 0.2664 0.0662 0.9740
C38 C 0.41341(16) -0.2024(3) 0.97059(6)
C39 C 0.44140(17) -0.0477(4) 0.94738(6)
H37 H 0.4312 0.0631 0.9596
H38 H 0.4019 -0.0495 0.9267
H39 H 0.5089 -0.0581 0.9410
C40 C 0.42981(18) -0.3793(4) 0.95201(7)
H40 H 0.4119 -0.4763 0.9672
H41 H 0.4974 -0.3902 0.9458
H42 H 0.3905 -0.3833 0.9313
N3 N 0.70567(16) -0.7250(3) 1.32056(5)
N4 N 0.84547(13) -0.4829(3) 1.21480(5)
O7 O 0.47834(10) -0.2026(2) 1.00112(4)
O8 O 0.32626(10) -0.2721(2) 1.02183(4)
O9 O 0.63317(14) -0.7409(3) 1.33911(5)
O10 O 0.78972(13) -0.7518(2) 1.33057(5)
O11 O 0.83653(11) -0.3943(2) 1.18823(4)
O12 O 0.92522(13) -0.5158(2) 1.22838(5)
loop_
_geom_bond_atom_site_label_1
_geom_bond_atom_site_label_2
_geom_bond_site_symmetry_1
_geom_bond_site_symmetry_2
B1 C12 1_555 1_555
B2 C32 1_555 1_555
C1 C2 1_555 1_555
C2 H1 1_555 1_555
C3 C2 1_555 1_555
H2 C3 1_555 1_555
C4 C3 1_555 1_555
C5 C4 1_555 1_555
C6 C1 1_555 1_555
H3 C6 1_555 1_555
C7 C4 1_555 1_555
H4 C7 1_555 1_555
C8 C7 1_555 1_555
H5 C8 1_555 1_555
C9 C8 1_555 1_555
C10 C9 1_555 1_555
H6 C10 1_555 1_555
C11 C10 1_555 1_555
H7 C11 1_555 1_555
C12 C11 1_555 1_555
C13 C12 1_555 1_555
H8 C13 1_555 1_555
C14 C9 1_555 1_555
H9 C14 1_555 1_555
C15 C16 1_555 1_555
C16 H10 1_555 1_555
H11 C16 1_555 1_555
H12 C16 1_555 1_555
C17 C15 1_555 1_555
H13 C17 1_555 1_555
H14 C17 1_555 1_555
H15 C17 1_555 1_555
C18 C15 1_555 1_555
C19 C18 1_555 1_555
H16 C19 1_555 1_555
H17 C19 1_555 1_555
H18 C19 1_555 1_555
C20 C18 1_555 1_555
H19 C20 1_555 1_555
H20 C20 1_555 1_555
H21 C20 1_555 1_555
C21 C22 1_555 1_555
C22 H22 1_555 1_555
C23 C22 1_555 1_555
H23 C23 1_555 1_555
C24 C23 1_555 1_555
C25 C24 1_555 1_555
C26 C21 1_555 1_555
H24 C26 1_555 1_555
C27 C24 1_555 1_555
H25 C27 1_555 1_555
C28 C27 1_555 1_555
H26 C28 1_555 1_555
C29 C28 1_555 1_555
C30 C29 1_555 1_555
H27 C30 1_555 1_555
C31 C30 1_555 1_555
H28 C31 1_555 1_555
C32 C31 1_555 1_555
C33 C32 1_555 1_555
H29 C33 1_555 1_555
C34 C29 1_555 1_555
H30 C34 1_555 1_555
C35 C36 1_555 1_555
C36 H31 1_555 1_555
H32 C36 1_555 1_555
H33 C36 1_555 1_555
C37 C35 1_555 1_555
H34 C37 1_555 1_555
H35 C37 1_555 1_555
H36 C37 1_555 1_555
C38 C35 1_555 1_555
C39 C38 1_555 1_555
H37 C39 1_555 1_555
H38 C39 1_555 1_555
H39 C39 1_555 1_555
C40 C38 1_555 1_555
H40 C40 1_555 1_555
H41 C40 1_555 1_555
H42 C40 1_555 1_555
N1 C1 1_555 1_555
N2 C5 1_555 1_555
N3 C21 1_555 1_555
N4 C25 1_555 1_555
O1 B1 1_555 1_555
O2 B1 1_555 1_555
O3 N1 1_555 1_555
O4 N1 1_555 1_555
O5 N2 1_555 1_555
O6 N2 1_555 1_555
O7 B2 1_555 1_555
O8 B2 1_555 1_555
O9 N3 1_555 1_555
O10 N3 1_555 1_555
O11 N4 1_555 1_555
O12 N4 1_555 1_555
C5 C6 1_555 1_555
C13 C14 1_555 1_555
C15 O2 1_555 1_555
C18 O1 1_555 1_555
C25 C26 1_555 1_555
C33 C34 1_555 1_555
C35 O8 1_555 1_555
C38 O7 1_555 1_555

#END
