
#######################################################################
#
#                 Cambridge Crystallographic Data Centre
#                                CCDC 
#
#######################################################################
#
# If this CIF has been generated from an entry in the Cambridge 
# Structural Database, then it will include bibliographic, chemical, 
# crystal, experimental, refinement or atomic coordinate data resulting 
# from the CCDC's data processing and validation procedures.
#
#######################################################################

data_PIGKOG
_chemical_formula_moiety         'C22 H19 Cl1 O4'
_chemical_name_systematic        
'Ethyl 3-(4-chlorobenzoyl)-1,3a,4,9b-tetrahydrocyclopenta(c)chromene-1-carboxylate'
_symmetry_cell_setting           triclinic
_symmetry_space_group_name_H-M   'P 1'
_symmetry_Int_Tables_number      1
_space_group_name_Hall           'P 1'
loop_
_symmetry_equiv_pos_site_id
_symmetry_equiv_pos_as_xyz
1 x,y,z
_cell_length_a                   5.8258(14)
_cell_length_b                   7.3327(17)
_cell_length_c                   11.202(3)
_cell_angle_alpha                83.000(5)
_cell_angle_beta                 80.568(5)
_cell_angle_gamma                80.848(5)
_cell_volume                     463.797
_exptl_crystal_colour            colorless
_exptl_crystal_description       prismatic
_cell_formula_units_Z            1
loop_
_atom_site_label
_atom_site_type_symbol
_atom_site_fract_x
_atom_site_fract_y
_atom_site_fract_z
Cl1 Cl 0.2413(5) 1.5499(3) 1.0538(3)
O1 O -0.3097(16) 0.8562(11) 0.9693(7)
O2 O -0.4238(14) 0.5049(9) 0.7033(7)
O3 O 0.3821(12) 0.9504(9) 0.5013(6)
O4 O 0.1934(12) 0.8795(9) 0.3624(6)
C1 C -0.155(2) 0.9278(15) 0.8987(9)
C2 C -0.0969(16) 0.8717(12) 0.7742(8)
C3 C -0.0277(17) 0.9658(12) 0.6713(7)
H1 H 0.0023 1.0873 0.6676
C4 C -0.0002(15) 0.8672(10) 0.5616(7)
H2 H -0.1411 0.9017 0.5220
C5 C 0.0107(15) 0.6614(10) 0.6204(8)
H3 H 0.1745 0.6131 0.6292
C6 C -0.1307(17) 0.6766(10) 0.7478(7)
H4 H -0.0690 0.5797 0.8073
C7 C -0.3911(17) 0.6757(12) 0.7457(9)
H5 H -0.4777 0.6869 0.8268
H6 H -0.4508 0.7805 0.6923
C8 C -0.292(2) 0.4642(12) 0.5952(9)
C9 C -0.0806(16) 0.5304(11) 0.5533(8)
C10 C 0.0476(16) 0.4668(11) 0.4468(8)
H7 H 0.1900 0.5092 0.4164
C11 C -0.031(2) 0.3419(13) 0.3843(11)
H8 H 0.0579 0.3015 0.3131
C12 C -0.240(2) 0.2791(13) 0.4288(11)
H9 H -0.2972 0.1991 0.3861
C13 C -0.3644(19) 0.3332(12) 0.5349(10)
H10 H -0.4999 0.2821 0.5679
C14 C -0.0552(18) 1.0851(12) 0.9314(8)
C15 C 0.1666(17) 1.1263(13) 0.8821(9)
H11 H 0.2559 1.0568 0.8223
C16 C 0.259(2) 1.2701(14) 0.9203(9)
H12 H 0.4081 1.2967 0.8855
C17 C 0.131(2) 1.3702(14) 1.0084(9)
C18 C -0.089(2) 1.3307(16) 1.0610(10)
H13 H -0.1762 1.4007 1.1212
C19 C -0.1800(18) 1.1880(15) 1.0248(9)
H14 H -0.3261 1.1595 1.0628
C20 C 0.2095(17) 0.9038(10) 0.4738(8)
C21 C 0.383(2) 0.9106(14) 0.2666(9)
H15 H 0.4366 1.0269 0.2739
H16 H 0.3277 0.9201 0.1886
C22 C 0.584(2) 0.7548(18) 0.2720(11)
H17 H 0.6277 0.7370 0.3520
H18 H 0.7156 0.7852 0.2136
H19 H 0.5367 0.6428 0.2540
loop_
_geom_bond_atom_site_label_1
_geom_bond_atom_site_label_2
_geom_bond_site_symmetry_1
_geom_bond_site_symmetry_2
Cl1 C17 1_555 1_555
O1 C1 1_555 1_555
O2 C7 1_555 1_555
O3 C20 1_555 1_555
O4 C20 1_555 1_555
C1 C2 1_555 1_555
C2 C3 1_555 1_555
C3 H1 1_555 1_555
C4 C3 1_555 1_555
H2 C4 1_555 1_555
C5 C4 1_555 1_555
H3 C5 1_555 1_555
C6 C2 1_555 1_555
H4 C6 1_555 1_555
C7 C6 1_555 1_555
H5 C7 1_555 1_555
H6 C7 1_555 1_555
C8 O2 1_555 1_555
C9 C5 1_555 1_555
C10 C9 1_555 1_555
H7 C10 1_555 1_555
C11 C10 1_555 1_555
H8 C11 1_555 1_555
C12 C11 1_555 1_555
H9 C12 1_555 1_555
C13 C8 1_555 1_555
H10 C13 1_555 1_555
C14 C1 1_555 1_555
C15 C14 1_555 1_555
H11 C15 1_555 1_555
C16 C15 1_555 1_555
H12 C16 1_555 1_555
C17 C16 1_555 1_555
C18 C17 1_555 1_555
H13 C18 1_555 1_555
C19 C14 1_555 1_555
H14 C19 1_555 1_555
C20 C4 1_555 1_555
C21 O4 1_555 1_555
H15 C21 1_555 1_555
H16 C21 1_555 1_555
C22 C21 1_555 1_555
H17 C22 1_555 1_555
H18 C22 1_555 1_555
H19 C22 1_555 1_555
C5 C6 1_555 1_555
C8 C9 1_555 1_555
C12 C13 1_555 1_555
C18 C19 1_555 1_555

#END
