
#######################################################################
#
#                 Cambridge Crystallographic Data Centre
#                                CCDC 
#
#######################################################################
#
# If this CIF has been generated from an entry in the Cambridge 
# Structural Database, then it will include bibliographic, chemical, 
# crystal, experimental, refinement or atomic coordinate data resulting 
# from the CCDC's data processing and validation procedures.
#
#######################################################################

data_PIGREC
_chemical_formula_moiety         'C14 H22 O6'
_chemical_name_systematic        
'Ethyl 4-acetoxy-2,7-dioxabicyclo(4.4.0)decan-3-ylacetate'
_symmetry_cell_setting           monoclinic
_symmetry_space_group_name_H-M   'C 2/c'
_symmetry_Int_Tables_number      15
_space_group_name_Hall           '-C 2yn'
loop_
_symmetry_equiv_pos_site_id
_symmetry_equiv_pos_as_xyz
1 x,y,z
2 1/2+x,1/2+y,z
3 -x,y,1/2-z
4 1/2-x,1/2+y,1/2-z
5 -x,-y,-z
6 1/2-x,1/2-y,-z
7 x,-y,1/2+z
8 1/2+x,1/2-y,1/2+z
_cell_length_a                   14.351(5)
_cell_length_b                   8.573(2)
_cell_length_c                   24.690(9)
_cell_angle_alpha                90
_cell_angle_beta                 98.59(2)
_cell_angle_gamma                90
_cell_volume                     3003.56
_cell_formula_units_Z            8
loop_
_atom_site_label
_atom_site_type_symbol
_atom_site_fract_x
_atom_site_fract_y
_atom_site_fract_z
O1 O 0.5127(1) 0.4743(2) 0.61408(7)
O2 O 0.2534(1) 0.5134(2) 0.50745(7)
C1 C 0.2199(2) 0.4999(3) 0.6012(1)
C2 C 0.4163(2) 0.5199(3) 0.5935(1)
O3 O 0.2776(1) 0.6311(2) 0.62124(7)
C3 C 0.3625(2) 0.3759(3) 0.5711(1)
C4 C 0.3736(2) 0.5906(3) 0.6405(1)
C5 C 0.2590(2) 0.4169(3) 0.5550(1)
O4 O 0.3666(2) 0.7229(3) 0.74917(8)
C6 C 0.1213(2) 0.5627(3) 0.5826(1)
C7 C 0.5824(2) 0.5614(3) 0.5983(1)
C8 C 0.4221(2) 0.7390(3) 0.6625(1)
O5 O 0.3861(1) 0.9563(2) 0.71217(8)
C9 C 0.6772(2) 0.5108(4) 0.6261(1)
C10 C 0.1590(2) 0.5614(4) 0.4877(1)
O6 O 0.5686(1) 0.6682(3) 0.56711(9)
C11 C 0.3873(2) 0.8002(3) 0.7127(1)
C12 C 0.1173(2) 0.6550(4) 0.5297(1)
C13 C 0.3590(2) 1.0333(4) 0.7604(1)
C14 C 0.3636(3) 1.2049(5) 0.7499(2)
H1 H 0.081(2) 0.479(3) 0.578(1)
H2 H 0.163(2) 0.626(3) 0.455(1)
H3 H 0.488(2) 0.717(3) 0.676(1)
H4 H 0.688(2) 0.399(4) 0.626(1)
H5 H 0.152(2) 0.756(3) 0.535(1)
H6 H 0.352(3) 1.250(5) 0.782(1)
H7 H 0.683(2) 0.545(4) 0.657(1)
H8 H 0.219(2) 0.425(3) 0.6361(9)
H9 H 0.375(1) 0.512(3) 0.6730(8)
H10 H 0.418(1) 0.601(3) 0.5617(9)
H11 H 0.100(2) 0.625(3) 0.614(1)
H12 H 0.391(2) 0.330(2) 0.5401(9)
H13 H 0.368(2) 0.292(3) 0.6016(9)
H14 H 0.420(2) 0.819(3) 0.630(1)
H15 H 0.222(2) 0.318(3) 0.546(1)
H16 H 0.123(2) 0.466(3) 0.473(1)
H17 H 0.730(2) 0.561(4) 0.604(1)
H18 H 0.051(2) 0.688(3) 0.514(1)
H19 H 0.292(2) 0.999(4) 0.765(1)
H20 H 0.309(5) 1.262(9) 0.718(3)
H21 H 0.429(3) 1.249(6) 0.750(2)
H22 H 0.409(2) 1.002(4) 0.791(1)
loop_
_geom_bond_atom_site_label_1
_geom_bond_atom_site_label_2
_geom_bond_site_symmetry_1
_geom_bond_site_symmetry_2
O1 C2 1_555 1_555
O2 C5 1_555 1_555
C1 O3 1_555 1_555
C2 C3 1_555 1_555
O3 C4 1_555 1_555
C3 C5 1_555 1_555
C4 C2 1_555 1_555
C5 C1 1_555 1_555
O4 C11 1_555 1_555
C6 C1 1_555 1_555
C7 O1 1_555 1_555
C8 C4 1_555 1_555
O5 C11 1_555 1_555
C9 C7 1_555 1_555
C10 O2 1_555 1_555
O6 C7 1_555 1_555
C11 C8 1_555 1_555
C12 C6 1_555 1_555
C13 O5 1_555 1_555
C14 C13 1_555 1_555
H1 C6 1_555 1_555
H2 C10 1_555 1_555
H3 C8 1_555 1_555
H4 C9 1_555 1_555
H5 C12 1_555 1_555
H6 C14 1_555 1_555
H7 C9 1_555 1_555
H8 C1 1_555 1_555
H9 C4 1_555 1_555
H10 C2 1_555 1_555
H11 C6 1_555 1_555
H12 C3 1_555 1_555
H13 C3 1_555 1_555
H14 C8 1_555 1_555
H15 C5 1_555 1_555
H16 C10 1_555 1_555
H17 C9 1_555 1_555
H18 C12 1_555 1_555
H19 C13 1_555 1_555
H20 C14 1_555 1_555
H21 C14 1_555 1_555
H22 C13 1_555 1_555
C10 C12 1_555 1_555

#END
