
#######################################################################
#
#                 Cambridge Crystallographic Data Centre
#                                CCDC 
#
#######################################################################
#
# If this CIF has been generated from an entry in the Cambridge 
# Structural Database, then it will include bibliographic, chemical, 
# crystal, experimental, refinement or atomic coordinate data resulting 
# from the CCDC's data processing and validation procedures.
#
#######################################################################

data_PIGSUU
_chemical_formula_moiety         'C17 H13 N1 O3'
_chemical_name_systematic        
"4-(4'-Formylphenoxymethyl)carbostyril unknown solvate"
_symmetry_cell_setting           monoclinic
_symmetry_space_group_name_H-M   'C 2/c'
_symmetry_Int_Tables_number      15
_space_group_name_Hall           '-C 2yn'
loop_
_symmetry_equiv_pos_site_id
_symmetry_equiv_pos_as_xyz
1 x,y,z
2 1/2+x,1/2+y,z
3 -x,y,1/2-z
4 1/2-x,1/2+y,1/2-z
5 -x,-y,-z
6 1/2-x,1/2-y,-z
7 x,-y,1/2+z
8 1/2+x,1/2-y,1/2+z
_cell_length_a                   25.1558(15)
_cell_length_b                   6.3024(4)
_cell_length_c                   22.7027(14)
_cell_angle_alpha                90
_cell_angle_beta                 122.084(3)
_cell_angle_gamma                90
_cell_volume                     3049.6
_exptl_crystal_colour            colorless
_exptl_crystal_description       rod
_chemical_melting_point          '260-261 deg.C'
_cell_formula_units_Z            8
_exptl_crystal_recrystallization_method ethanol
loop_
_atom_site_label
_atom_site_type_symbol
_atom_site_fract_x
_atom_site_fract_y
_atom_site_fract_z
C1 C 0.11042(7) 0.5405(3) 0.50501(8)
C2 C 0.10472(7) 0.5757(3) 0.56439(8)
C3 C 0.07386(7) 0.4207(3) 0.57967(8)
C4 C 0.08592(8) 0.3646(3) 0.46610(9)
C5 C 0.05294(7) 0.2078(3) 0.48102(8)
C6 C 0.19363(8) 0.9787(3) 0.43205(10)
C7 C 0.17289(7) 0.7757(3) 0.40651(8)
C8 C 0.22623(8) 1.0239(3) 0.35038(9)
C9 C 0.22008(9) 1.1003(3) 0.40351(10)
C10 C 0.06686(9) 0.4446(3) 0.63648(9)
C11 C 0.12760(8) 0.7564(3) 0.60677(9)
C12 C 0.14276(9) 0.7078(3) 0.48835(9)
C13 C 0.17791(9) 0.6980(3) 0.35269(9)
C14 C 0.08971(9) 0.6242(4) 0.67674(10)
C15 C 0.20449(9) 0.8214(3) 0.32525(10)
C16 C 0.11989(9) 0.7812(3) 0.66187(10)
C17 C 0.25658(9) 1.1492(4) 0.32158(11)
O1 O 0.14707(5) 0.63852(18) 0.43117(6)
O2 O 0.02853(6) 0.04427(19) 0.44490(6)
O3 O 0.27661(7) 1.3266(2) 0.33908(8)
N1 N 0.04945(6) 0.2439(2) 0.53771(7)
H1 H 0.1877(8) 0.739(3) 0.5321(9)
H2 H 0.1338(8) 0.921(3) 0.6930(8)
H3 H 0.2591(9) 1.071(3) 0.2821(10)
H4 H 0.1489(8) 0.869(3) 0.5984(8)
H5 H 0.2340(8) 1.242(3) 0.4205(9)
H6 H 0.0874(7) 0.339(3) 0.4263(9)
H7 H 0.0451(8) 0.332(3) 0.6451(9)
H8 H 0.1895(8) 1.038(3) 0.4689(9)
H9 H 0.1623(8) 0.557(3) 0.3346(9)
H10 H 0.1190(8) 0.843(3) 0.4770(8)
H11 H 0.0261(8) 0.149(3) 0.5451(9)
H12 H 0.2090(8) 0.766(3) 0.2889(10)
H13 H 0.0808(8) 0.644(3) 0.7131(9)
loop_
_geom_bond_atom_site_label_1
_geom_bond_atom_site_label_2
_geom_bond_site_symmetry_1
_geom_bond_site_symmetry_2
C1 C2 1_555 1_555
C2 C3 1_555 1_555
C3 C10 1_555 1_555
C4 C1 1_555 1_555
C5 C4 1_555 1_555
C6 C7 1_555 1_555
C7 C13 1_555 1_555
C8 C9 1_555 1_555
C9 C6 1_555 1_555
C10 C14 1_555 1_555
C11 C2 1_555 1_555
C12 C1 1_555 1_555
C13 C15 1_555 1_555
C14 C16 1_555 1_555
C15 C8 1_555 1_555
C16 C11 1_555 1_555
C17 C8 1_555 1_555
O1 C7 1_555 1_555
O2 C5 1_555 1_555
O3 C17 1_555 1_555
N1 C3 1_555 1_555
H1 C12 1_555 1_555
H2 C16 1_555 1_555
H3 C17 1_555 1_555
H4 C11 1_555 1_555
H5 C9 1_555 1_555
H6 C4 1_555 1_555
H7 C10 1_555 1_555
H8 C6 1_555 1_555
H9 C13 1_555 1_555
H10 C12 1_555 1_555
H11 N1 1_555 1_555
H12 C15 1_555 1_555
H13 C14 1_555 1_555
C5 N1 1_555 1_555
C12 O1 1_555 1_555

#END
