
#######################################################################
#
#                 Cambridge Crystallographic Data Centre
#                                CCDC 
#
#######################################################################
#
# If this CIF has been generated from an entry in the Cambridge 
# Structural Database, then it will include bibliographic, chemical, 
# crystal, experimental, refinement or atomic coordinate data resulting 
# from the CCDC's data processing and validation procedures.
#
#######################################################################

data_PIHCUE
_chemical_formula_moiety         'C20 H23 N1 O5 S1'
_chemical_name_systematic        
2,3-bis(Ethoxycarbonyl)-5-morpholinyl-4-phenylthiophene
_symmetry_cell_setting           triclinic
_symmetry_space_group_name_H-M   'P -1'
_symmetry_Int_Tables_number      2
_space_group_name_Hall           '-P 1'
loop_
_symmetry_equiv_pos_site_id
_symmetry_equiv_pos_as_xyz
1 x,y,z
2 -x,-y,-z
_cell_length_a                   10.395(3)
_cell_length_b                   11.193(5)
_cell_length_c                   8.618(2)
_cell_angle_alpha                100.60(2)
_cell_angle_beta                 92.29(2)
_cell_angle_gamma                87.14(3)
_cell_volume                     983.892
_chemical_melting_point          100-100.5deg.C
_cell_formula_units_Z            2
_exptl_crystal_recrystallization_method acetone
loop_
_atom_site_label
_atom_site_type_symbol
_atom_site_fract_x
_atom_site_fract_y
_atom_site_fract_z
S1 S 0.4307(7) 0.5733(6) 0.2414(9)
O1 O 0.2605(2) 0.1394(2) 0.1619(3)
O2 O 0.4724(2) 0.8374(2) 0.3045(3)
O3 O 0.6854(2) 0.8212(2) 0.3532(2)
O4 O 0.8558(2) 0.6139(2) 0.4579(2)
O5 O 0.8812(2) 0.5880(2) 0.1978(3)
N1 N 0.4356(2) 0.3274(2) 0.1734(2)
C1 C 0.5073(3) 0.4302(2) 0.2139(3)
C2 C 0.6403(3) 0.4360(2) 0.2382(3)
C3 C 0.6763(3) 0.5595(2) 0.2833(3)
C4 C 0.5750(3) 0.6429(2) 0.2859(3)
C5 C 0.2971(3) 0.3466(3) 0.1394(4)
C6 C 0.2406(3) 0.2290(3) 0.0661(4)
C7 C 0.3946(3) 0.1193(3) 0.1906(4)
C8 C 0.4547(3) 0.2340(2) 0.2728(3)
C9 C 0.7341(2) 0.3303(2) 0.2094(3)
C10 C 0.7204(3) 0.2407(2) 0.0758(3)
C11 C 0.8082(3) 0.1419(2) 0.0471(4)
C12 C 0.9124(3) 0.1335(3) 0.1488(4)
C13 C 0.9284(3) 0.2232(3) 0.2795(4)
C14 C 0.8389(3) 0.3186(2) 0.3112(3)
C15 C 0.8126(3) 0.5923(2) 0.3250(3)
C16 C 1.0260(4) 0.5932(5) 0.2227(6)
C17 C 1.0563(5) 0.7173(7) 0.2498(8)
C18 C 0.5693(3) 0.7763(2) 0.3150(3)
C19 C 0.6913(3) 0.9536(2) 0.3895(4)
C20 C 0.8106(4) 0.9833(3) 0.4858(5)
loop_
_geom_bond_atom_site_label_1
_geom_bond_atom_site_label_2
_geom_bond_site_symmetry_1
_geom_bond_site_symmetry_2
S1 C1 1_555 1_555
O1 C6 1_555 1_555
O2 C18 1_555 1_555
O3 C18 1_555 1_555
O4 C15 1_555 1_555
O5 C15 1_555 1_555
N1 C1 1_555 1_555
C1 C2 1_555 1_555
C2 C3 1_555 1_555
C3 C4 1_555 1_555
C4 S1 1_555 1_555
C5 N1 1_555 1_555
C6 C5 1_555 1_555
C7 O1 1_555 1_555
C8 N1 1_555 1_555
C9 C2 1_555 1_555
C10 C9 1_555 1_555
C11 C10 1_555 1_555
C12 C11 1_555 1_555
C13 C12 1_555 1_555
C14 C9 1_555 1_555
C15 C3 1_555 1_555
C16 O5 1_555 1_555
C17 C16 1_555 1_555
C18 C4 1_555 1_555
C19 O3 1_555 1_555
C20 C19 1_555 1_555
C7 C8 1_555 1_555
C13 C14 1_555 1_555

#END
