
#######################################################################
#
#                 Cambridge Crystallographic Data Centre
#                                CCDC 
#
#######################################################################
#
# If this CIF has been generated from an entry in the Cambridge 
# Structural Database, then it will include bibliographic, chemical, 
# crystal, experimental, refinement or atomic coordinate data resulting 
# from the CCDC's data processing and validation procedures.
#
#######################################################################

data_PIHSUW
_chemical_formula_moiety         'C17 H13 Cl1 N4 O3'
_chemical_name_systematic        
N'-(2-Chloro-5-nitrobenzylidene)-2-(1H-indol-3-yl)acetohydrazide
_symmetry_cell_setting           monoclinic
_symmetry_space_group_name_H-M   'C 2/c'
_symmetry_Int_Tables_number      15
_space_group_name_Hall           '-C 2yn'
loop_
_symmetry_equiv_pos_site_id
_symmetry_equiv_pos_as_xyz
1 x,y,z
2 -x,y,1/2-z
3 1/2+x,1/2+y,z
4 1/2-x,1/2+y,1/2-z
5 -x,-y,-z
6 x,-y,1/2+z
7 1/2-x,1/2-y,-z
8 1/2+x,1/2-y,1/2+z
_cell_length_a                   29.178(2)
_cell_length_b                   8.1950(10)
_cell_length_c                   14.3720(10)
_cell_angle_alpha                90
_cell_angle_beta                 109.446(2)
_cell_angle_gamma                90
_cell_volume                     3240.51
_exptl_crystal_colour            yellow
_exptl_crystal_description       'cut from needle'
_cell_formula_units_Z            8
loop_
_atom_site_label
_atom_site_type_symbol
_atom_site_fract_x
_atom_site_fract_y
_atom_site_fract_z
Cl1 Cl 0.03524(2) 0.24265(7) 0.38270(5)
N1 N 0.21000(6) 1.4085(2) 0.47711(14)
N2 N 0.14338(6) 0.7353(2) 0.40539(15)
N3 N 0.09525(6) 0.7282(2) 0.39628(13)
N4 N -0.08041(8) 0.8419(3) 0.35798(17)
O1 O 0.20979(5) 0.87982(18) 0.42002(13)
O2 O -0.06032(7) 0.9724(2) 0.3643(2)
O3 O -0.12298(7) 0.8294(2) 0.34707(17)
C1 C 0.16556(7) 1.1860(3) 0.41583(17)
C2 C 0.17876(7) 1.2615(2) 0.33810(16)
C3 C 0.17038(8) 1.2271(3) 0.23852(18)
H1 H 0.1514 1.1383 0.2082
C4 C 0.19085(9) 1.3279(3) 0.18637(19)
H2 H 0.1855 1.3060 0.1201
C5 C 0.21920(9) 1.4609(3) 0.23005(19)
H3 H 0.2328 1.5254 0.1929
C6 C 0.22745(8) 1.4987(3) 0.32679(19)
H4 H 0.2461 1.5888 0.3559
C7 C 0.20709(7) 1.3981(2) 0.37999(16)
C8 C 0.18571(8) 1.2771(3) 0.49779(17)
H5 H 0.1834 1.2541 0.5595
C9 C 0.13727(7) 1.0316(3) 0.40921(19)
H6 H 0.1098 1.0324 0.3483
H7 H 0.1246 1.0281 0.4636
C10 C 0.16700(8) 0.8803(3) 0.41199(17)
C11 C 0.07699(7) 0.5864(3) 0.39440(16)
H8 H 0.0963 0.4940 0.4010
C12 C 0.02547(7) 0.5709(3) 0.38183(15)
C13 C 0.00238(8) 0.4207(3) 0.37391(16)
C14 C -0.04702(8) 0.4072(3) 0.35914(18)
H9 H -0.0614 0.3048 0.3536
C15 C -0.07454(8) 0.5450(3) 0.35268(18)
H10 H -0.1077 0.5381 0.3424
C16 C -0.05161(8) 0.6939(3) 0.36195(17)
C17 C -0.00315(8) 0.7093(3) 0.37570(17)
H11 H 0.0108 0.8124 0.3810
H12 H 0.2320(7) 1.468(3) 0.5213(14)
H13 H 0.1607(8) 0.643(2) 0.4092(19)
loop_
_geom_bond_atom_site_label_1
_geom_bond_atom_site_label_2
_geom_bond_site_symmetry_1
_geom_bond_site_symmetry_2
Cl1 C13 1_555 1_555
N1 C7 1_555 1_555
N2 N3 1_555 1_555
N3 C11 1_555 1_555
N4 O2 1_555 1_555
O1 C10 1_555 1_555
O3 N4 1_555 1_555
C1 C2 1_555 1_555
C2 C3 1_555 1_555
C3 H1 1_555 1_555
C4 C3 1_555 1_555
H2 C4 1_555 1_555
C5 C4 1_555 1_555
H3 C5 1_555 1_555
C6 C5 1_555 1_555
H4 C6 1_555 1_555
C7 C2 1_555 1_555
C8 N1 1_555 1_555
H5 C8 1_555 1_555
C9 C1 1_555 1_555
H6 C9 1_555 1_555
H7 C9 1_555 1_555
C10 N2 1_555 1_555
C11 H8 1_555 1_555
C12 C11 1_555 1_555
C13 C12 1_555 1_555
C14 C13 1_555 1_555
H9 C14 1_555 1_555
C15 C14 1_555 1_555
H10 C15 1_555 1_555
C16 N4 1_555 1_555
C17 C12 1_555 1_555
H11 C17 1_555 1_555
H12 N1 1_555 1_555
H13 N2 1_555 1_555
C1 C8 1_555 1_555
C6 C7 1_555 1_555
C9 C10 1_555 1_555
C15 C16 1_555 1_555
C16 C17 1_555 1_555

#END
