
#######################################################################
#
#                 Cambridge Crystallographic Data Centre
#                                CCDC 
#
#######################################################################
#
# If this CIF has been generated from an entry in the Cambridge 
# Structural Database, then it will include bibliographic, chemical, 
# crystal, experimental, refinement or atomic coordinate data resulting 
# from the CCDC's data processing and validation procedures.
#
#######################################################################

data_PIJVEL
_chemical_formula_moiety         'C28 H30 O3'
_chemical_name_systematic        
4-(3-Ethynyl-8-hydroxy-5-(2-(4-hydroxyphenyl)propan-2-yl)-2,8-dimethylnona-3,4-dien-6-yn-2-yl)phenol
_symmetry_cell_setting           orthorhombic
_symmetry_space_group_name_H-M   'P 21 21 21'
_symmetry_Int_Tables_number      19
_space_group_name_Hall           'P 2ac 2ab'
loop_
_symmetry_equiv_pos_site_id
_symmetry_equiv_pos_as_xyz
1 x,y,z
2 1/2+x,1/2-y,-z
3 -x,1/2+y,1/2-z
4 1/2-x,-y,1/2+z
_cell_length_a                   6.3443(8)
_cell_length_b                   18.518(2)
_cell_length_c                   19.686(2)
_cell_angle_alpha                90
_cell_angle_beta                 90
_cell_angle_gamma                90
_cell_volume                     2312.79
_exptl_crystal_colour            colorless
_exptl_crystal_description       needle
_cell_formula_units_Z            4
loop_
_atom_site_label
_atom_site_type_symbol
_atom_site_fract_x
_atom_site_fract_y
_atom_site_fract_z
O1 O 0.4526(3) -0.18861(12) -0.06134(11)
H1 H 0.5384 -0.2332 -0.0596
O2 O 1.2640(9) 0.2083(2) 0.2911(3)
H2 H 1.3921 0.2141 0.2819
O3 O 1.1699(3) -0.19148(11) 0.04421(11)
H3 H 1.2617 -0.1841 0.0041
C1 C 1.3136(7) 0.1871(2) -0.1508(2)
C2 C 1.2039(6) 0.1385(2) -0.13363(18)
C3 C 1.0610(6) 0.08266(18) -0.11415(19)
C4 C 1.0358(5) 0.06737(16) -0.04968(19)
C5 C 0.9960(5) 0.05262(17) 0.01475(19)
C6 C 1.0902(5) -0.0102(2) 0.04515(18)
C7 C 1.1507(5) -0.0660(2) 0.06916(18)
C8 C 1.2172(5) -0.13742(18) 0.09496(18)
C9 C 1.0854(6) -0.15803(18) 0.15712(18)
H4 H 0.9201 -0.1623 0.1426
H5 H 1.1026 -0.1167 0.1961
H6 H 1.1395 -0.2098 0.1770
C10 C 1.4533(5) -0.13785(19) 0.11129(18)
H7 H 1.4985 -0.1910 0.1302
H8 H 1.4868 -0.0973 0.1499
H9 H 1.5426 -0.1256 0.0654
C11 C 0.9375(5) 0.04326(17) -0.17121(17)
C12 C 0.7961(6) 0.0981(2) -0.20761(19)
H10 H 0.7017 0.0704 -0.2458
H11 H 0.8938 0.1389 -0.2321
H12 H 0.6923 0.1239 -0.1708
C13 C 1.0997(5) 0.01456(19) -0.22262(17)
H13 H 1.2071 -0.0226 -0.1971
H14 H 1.1889 0.0596 -0.2437
H15 H 1.0181 -0.0137 -0.2634
C14 C 0.8104(5) -0.01799(18) -0.14016(17)
C15 C 0.6063(5) -0.00835(18) -0.11700(17)
H16 H 0.5354 0.0446 -0.1204
C16 C 0.4896(5) -0.06502(19) -0.08936(19)
H17 H 0.3303 -0.0557 -0.0722
C17 C 0.5758(5) -0.13201(18) -0.08401(17)
C18 C 0.7824(6) -0.1429(2) -0.1034(2)
H18 H 0.8561 -0.1950 -0.0969
C19 C 0.8942(6) -0.0854(2) -0.1313(2)
H19 H 1.0554 -0.0946 -0.1468
C20 C 0.8452(5) 0.09796(17) 0.05782(17)
C21 C 0.6637(6) 0.0484(2) 0.0800(2)
H20 H 0.5845 0.0270 0.0352
H21 H 0.5516 0.0791 0.1104
H22 H 0.7263 0.0039 0.1101
C22 C 0.7547(6) 0.16070(19) 0.0167(2)
H23 H 0.8832 0.1936 -0.0030
H24 H 0.6545 0.1937 0.0493
H25 H 0.6617 0.1396 -0.0254
C23 C 0.9540(16) 0.1248(5) 0.1191(5)
C24 C 0.8630(13) 0.1210(3) 0.1835(3)
H26 H 0.7103 0.0959 0.1889
C25 C 0.9621(13) 0.1484(3) 0.2412(3)
H27 H 0.8868 0.1452 0.2903
C26 C 1.1598(13) 0.1801(4) 0.2343(3)
C27 C 1.2561(11) 0.1863(4) 0.1721(5)
H28 H 1.4095 0.2110 0.1673
C28 C 1.1500(14) 0.1596(4) 0.1150(4)
H29 H 1.2221 0.1661 0.0656
H30 H 1.396(6) 0.227(2) -0.163(2)
O4? O 1.4152(14) 0.2235(5) 0.2534(4)
H31? H 1.4077 0.2768 0.2513
C29? C 0.994(3) 0.1325(9) 0.1159(9)
C30? C 0.966(2) 0.1213(5) 0.1841(5)
H32? H 0.8369 0.0875 0.2004
C31? C 1.095(2) 0.1511(7) 0.2329(5)
H33? H 1.0672 0.1429 0.2865
C32? C 1.2699(18) 0.1939(5) 0.2083(7)
C33? C 1.3010(15) 0.2054(5) 0.1388(6)
H34? H 1.4297 0.2389 0.1215
C34? C 1.1669(17) 0.1738(5) 0.0925(7)
H35? H 1.1936 0.1805 0.0387
loop_
_geom_bond_atom_site_label_1
_geom_bond_atom_site_label_2
_geom_bond_site_symmetry_1
_geom_bond_site_symmetry_2
O1 H1 1_555 1_555
O2 H2 1_555 1_555
O3 H3 1_555 1_555
C1 C2 1_555 1_555
C2 C3 1_555 1_555
C3 C4 1_555 1_555
C4 C5 1_555 1_555
C5 C6 1_555 1_555
C6 C7 1_555 1_555
C7 C8 1_555 1_555
C8 O3 1_555 1_555
C9 C8 1_555 1_555
H4 C9 1_555 1_555
H5 C9 1_555 1_555
H6 C9 1_555 1_555
C10 C8 1_555 1_555
H7 C10 1_555 1_555
H8 C10 1_555 1_555
H9 C10 1_555 1_555
C11 C3 1_555 1_555
C12 C11 1_555 1_555
H10 C12 1_555 1_555
H11 C12 1_555 1_555
H12 C12 1_555 1_555
C13 C11 1_555 1_555
H13 C13 1_555 1_555
H14 C13 1_555 1_555
H15 C13 1_555 1_555
C14 C11 1_555 1_555
C15 C14 1_555 1_555
H16 C15 1_555 1_555
C16 C15 1_555 1_555
H17 C16 1_555 1_555
C17 O1 1_555 1_555
C18 C17 1_555 1_555
H18 C18 1_555 1_555
C19 C14 1_555 1_555
H19 C19 1_555 1_555
C20 C5 1_555 1_555
C21 C20 1_555 1_555
H20 C21 1_555 1_555
H21 C21 1_555 1_555
H22 C21 1_555 1_555
C22 C20 1_555 1_555
H23 C22 1_555 1_555
H24 C22 1_555 1_555
H25 C22 1_555 1_555
C23 C20 1_555 1_555
C24 C23 1_555 1_555
H26 C24 1_555 1_555
C25 C24 1_555 1_555
H27 C25 1_555 1_555
C26 O2 1_555 1_555
C27 C26 1_555 1_555
H28 C27 1_555 1_555
C28 C23 1_555 1_555
H29 C28 1_555 1_555
H30 C1 1_555 1_555
C16 C17 1_555 1_555
C18 C19 1_555 1_555
C25 C26 1_555 1_555
C27 C28 1_555 1_555

#END
