
#######################################################################
#
#                 Cambridge Crystallographic Data Centre
#                                CCDC 
#
#######################################################################
#
# If this CIF has been generated from an entry in the Cambridge 
# Structural Database, then it will include bibliographic, chemical, 
# crystal, experimental, refinement or atomic coordinate data resulting 
# from the CCDC's data processing and validation procedures.
#
#######################################################################

data_PIKGAR
_chemical_formula_moiety         'C17 H20 O6'
_chemical_name_systematic        Arctolide
_symmetry_cell_setting           monoclinic
_symmetry_space_group_name_H-M   'P 21'
_symmetry_Int_Tables_number      4
_space_group_name_Hall           'P 2yb'
loop_
_symmetry_equiv_pos_site_id
_symmetry_equiv_pos_as_xyz
1 x,y,z
2 -x,1/2+y,-z
_cell_length_a                   9.205(2)
_cell_length_b                   7.831(2)
_cell_length_c                   10.752(2)
_cell_angle_alpha                90
_cell_angle_beta                 90.97(3)
_cell_angle_gamma                90
_cell_volume                     774.94
_chemical_melting_point          '142-144 deg.C'
_cell_formula_units_Z            2
loop_
_atom_site_label
_atom_site_type_symbol
_atom_site_fract_x
_atom_site_fract_y
_atom_site_fract_z
C1 C -0.6672(4) -0.3633(8) -0.2184(3)
C2 C -0.5622(4) -0.4130(9) -0.1104(4)
C3 C -0.4078(4) -0.4222(8) -0.1617(4)
C4 C -0.4231(4) -0.3794(8) -0.2981(4)
C5 C -0.5807(4) -0.4127(8) -0.3367(4)
C6 C -0.6248(4) -0.3281(8) -0.4587(4)
C7 C -0.7884(4) -0.3146(8) -0.4796(3)
C8 C -0.8497(4) -0.1520(8) -0.4232(3)
C9 C -0.8659(5) -0.1504(8) -0.2839(4)
C10 C -0.7228(4) -0.1810(8) -0.2154(3)
C11 C -0.8484(4) -0.2991(8) -0.6092(4)
C12 C -0.9910(5) -0.2134(8) -0.5955(4)
C13 C -0.7949(5) -0.3379(10) -0.7177(4)
C14 C -0.6240(6) -0.0375(9) -0.1917(5)
C15 C -0.3230(5) -0.3143(10) -0.3686(4)
C16 C -0.1737(5) -0.3324(9) -0.0865(4)
C17 C -0.0992(5) -0.2095(11) -0.0015(5)
O1 O -0.3181(3) -0.3008(7) -0.0945(3)
O2 O -0.5925(4) -0.5969(6) -0.3489(3)
O3 O -0.9927(4) -0.1357 -0.4832(3)
O4 O -0.7179(4) -0.0996(7) -0.0956(3)
O5 O -1.0951(3) -0.2070(7) -0.6659(3)
O6 O -0.1157(3) -0.4445(8) -0.1423(3)
loop_
_geom_bond_atom_site_label_1
_geom_bond_atom_site_label_2
_geom_bond_site_symmetry_1
_geom_bond_site_symmetry_2
C1 C2 1_555 1_555
C2 C3 1_555 1_555
C3 C4 1_555 1_555
C4 C5 1_555 1_555
C5 C1 1_555 1_555
C6 C5 1_555 1_555
C7 C6 1_555 1_555
C8 C7 1_555 1_555
C9 C8 1_555 1_555
C10 C1 1_555 1_555
C11 C7 1_555 1_555
C12 C11 1_555 1_555
C13 C11 1_555 1_555
C14 C10 1_555 1_555
C15 C4 1_555 1_555
C16 C17 1_555 1_555
O1 C3 1_555 1_555
O2 C5 1_555 1_555
O3 C8 1_555 1_555
O4 C10 1_555 1_555
O5 C12 1_555 1_555
O6 C16 1_555 1_555
C9 C10 1_555 1_555
C12 O3 1_555 1_555
C14 O4 1_555 1_555
C16 O1 1_555 1_555

#END
