
#######################################################################
#
#                 Cambridge Crystallographic Data Centre
#                                CCDC 
#
#######################################################################
#
# If this CIF has been generated from an entry in the Cambridge 
# Structural Database, then it will include bibliographic, chemical, 
# crystal, experimental, refinement or atomic coordinate data resulting 
# from the CCDC's data processing and validation procedures.
#
#######################################################################

data_PIKZIV
_chemical_formula_moiety         'C27 H19 F6 N3 O2,0.5(C2 H6 O1)'
_chemical_name_systematic        
"1-benzyl-4',5'-bis(trifluoromethyl)dispiro[indole-3,2'-pyrrolidine-3',3''-indole]-2,2''(1H,1''H)-dione ethanol solvate"
_symmetry_cell_setting           trigonal
_symmetry_space_group_name_H-M   'P 32'
_symmetry_Int_Tables_number      145
_space_group_name_Hall           'P 32'
loop_
_symmetry_equiv_pos_site_id
_symmetry_equiv_pos_as_xyz
1 x,y,z
2 -y,x-y,2/3+z
3 -x+y,-x,1/3+z
_cell_length_a                   10.7298(2)
_cell_length_b                   10.7298(2)
_cell_length_c                   38.7099(9)
_cell_angle_alpha                90
_cell_angle_beta                 90
_cell_angle_gamma                120
_cell_volume                     3859.54
_exptl_crystal_colour            colorless
_exptl_crystal_description       block
_cell_formula_units_Z            6
loop_
_atom_site_label
_atom_site_type_symbol
_atom_site_fract_x
_atom_site_fract_y
_atom_site_fract_z
C1 C 0.1208(4) 0.2789(4) 0.62780(9)
C2 C 0.1493(4) 0.1679(3) 0.60830(8)
C3 C 0.0019(4) 0.0346(4) 0.60899(9)
C4 C -0.0929(4) 0.0666(4) 0.62587(10)
C5 C -0.2383(5) -0.0304(6) 0.62766(14)
H1 H -0.3009 -0.0082 0.6391
C6 C -0.2878(5) -0.1628(6) 0.61163(14)
H2 H -0.3855 -0.2302 0.6123
C7 C -0.1957(5) -0.1961(5) 0.59487(12)
H3 H -0.2317 -0.2854 0.5843
C8 C -0.0494(5) -0.0981(4) 0.59359(10)
H4 H 0.0131 -0.1214 0.5825
C9 C 0.2848(4) 0.1666(4) 0.66465(8)
C10 C 0.2813(4) 0.1616(3) 0.62451(8)
C11 C 0.2809(4) 0.0229(4) 0.61720(9)
C12 C 0.2772(4) -0.0422(4) 0.64877(10)
C13 C 0.2722(6) -0.1719(5) 0.65077(13)
H5 H 0.2685 -0.2140 0.6720
C14 C 0.2726(7) -0.2383(5) 0.62036(16)
H6 H 0.2689 -0.3267 0.6211
C15 C 0.2784(6) -0.1760(5) 0.58890(13)
H7 H 0.2792 -0.2226 0.5687
C16 C 0.2832(4) -0.0445(4) 0.58695(11)
H8 H 0.2878 -0.0024 0.5656
C17 C 0.4065(4) 0.2993(4) 0.60837(8)
H9 H 0.4113 0.3825 0.6201
C18 C 0.3548(4) 0.2967(4) 0.57088(8)
H10 H 0.3835 0.2402 0.5565
C19 C 0.5529(4) 0.3117(5) 0.61122(10)
C20 C 0.4108(4) 0.4433(4) 0.55469(10)
C21 C -0.0868(6) 0.2748(6) 0.65788(13)
H11 H -0.1676 0.2665 0.6448
H12 H -0.0184 0.3764 0.6609
C22 C -0.1391(5) 0.2073(5) 0.69278(12)
C23 C -0.0460(6) 0.2009(8) 0.71639(15)
H13 H 0.0503 0.2382 0.7106
C24 C -0.0937(8) 0.1402(10) 0.74832(16)
H14 H -0.0305 0.1334 0.7636
C25 C -0.2334(8) 0.0896(9) 0.75783(15)
H15 H -0.2646 0.0510 0.7797
C26 C -0.3272(6) 0.0961(7) 0.73503(15)
H16 H -0.4225 0.0616 0.7414
C27 C -0.2807(5) 0.1534(6) 0.70276(13)
H17 H -0.3456 0.1560 0.6873
F1 F 0.5701(3) 0.2677(3) 0.64225(7)
F2 F 0.5777(3) 0.2348(4) 0.58790(8)
F3 F 0.6581(3) 0.4473(3) 0.60797(8)
F4 F 0.5521(3) 0.5051(3) 0.54841(8)
F5 F 0.3481(4) 0.4321(3) 0.52461(7)
F6 F 0.3949(4) 0.5351(3) 0.57366(8)
N1 N -0.0184(4) 0.2092(4) 0.63817(9)
N2 N 0.2796(4) 0.0460(3) 0.67588(8)
H18 H 0.296(4) 0.037(4) 0.6963(12)
N3 N 0.1981(3) 0.2219(3) 0.57302(7)
H19 H 0.152(5) 0.146(5) 0.5588(12)
O1 O 0.2060(3) 0.4058(3) 0.63231(7)
O2 O 0.2924(4) 0.2635(3) 0.68256(6)
C28 C 1.1148(4) 0.3483(4) 0.47143(9)
C29 C 0.9869(4) 0.2234(4) 0.49198(8)
C30 C 1.0304(4) 0.1089(4) 0.49175(8)
C31 C 1.1572(4) 0.1597(5) 0.47296(9)
C32 C 1.2274(6) 0.0815(6) 0.47014(12)
H20 H 1.3123 0.1161 0.4576
C33 C 1.1669(7) -0.0493(7) 0.48659(13)
H21 H 1.2125 -0.1034 0.4853
C34 C 1.0407(7) -0.1024(6) 0.50491(12)
H22 H 1.0018 -0.1922 0.5154
C35 C 0.9703(5) -0.0231(5) 0.50799(10)
H23 H 0.8855 -0.0582 0.5206
C36 C 0.8421(4) 0.1756(4) 0.43486(8)
C37 C 0.8393(4) 0.1850(4) 0.47504(8)
C38 C 0.7176(4) 0.0378(4) 0.48448(9)
C39 C 0.6614(4) -0.0408(4) 0.45417(10)
C40 C 0.5457(6) -0.1796(5) 0.45417(13)
H24 H 0.5097 -0.2308 0.4337
C41 C 0.4858(6) -0.2389(5) 0.48573(15)
H25 H 0.4065 -0.3314 0.4866
C42 C 0.5412(6) -0.1637(5) 0.51623(13)
H26 H 0.5000 -0.2070 0.5372
C43 C 0.6568(5) -0.0254(4) 0.51581(10)
H27 H 0.6934 0.0248 0.5363
C44 C 0.8251(4) 0.3139(4) 0.48818(8)
H28 H 0.8959 0.4002 0.4758
C45 C 0.8750(4) 0.3276(4) 0.52634(9)
H29 H 0.7898 0.2671 0.5404
C46 C 0.6788(5) 0.2994(5) 0.48303(11)
C47 C 0.9475(5) 0.4775(5) 0.54144(12)
C48 C 1.3296(4) 0.3814(6) 0.43924(12)
H30 H 1.4128 0.3990 0.4528
H31 H 1.3381 0.4739 0.4341
C49 C 1.3303(5) 0.3102(5) 0.40605(10)
C50 C 1.2076(5) 0.2067(7) 0.38972(12)
H32 H 1.1183 0.1770 0.3998
C51 C 1.2142(7) 0.1466(7) 0.35900(14)
H33 H 1.1302 0.0769 0.3484
C52 C 1.3426(8) 0.1889(8) 0.34420(15)
H34 H 1.3473 0.1499 0.3231
C53 C 1.4671(8) 0.2899(8) 0.3602(2)
H35 H 1.5557 0.3171 0.3500
C54 C 1.4622(6) 0.3512(6) 0.39118(15)
H36 H 1.5467 0.4192 0.4019
F7 F 0.6259(3) 0.2469(4) 0.45190(8)
F8 F 0.6864(4) 0.4273(4) 0.48524(10)
F9 F 0.5796(3) 0.2143(4) 0.50601(8)
F10 F 1.0546(4) 0.5762(3) 0.52316(9)
F11 F 0.8551(4) 0.5250(4) 0.54533(10)
F12 F 0.9957(5) 0.4758(4) 0.57279(9)
N4 N 1.2003(3) 0.2966(4) 0.45971(8)
N5 N 0.7391(4) 0.0429(3) 0.42575(8)
H37 H 0.723(4) 0.023(4) 0.4053(11)
N6 N 0.9651(3) 0.2624(3) 0.52661(7)
H38 H 1.037(5) 0.299(4) 0.5389(10)
O3 O 1.1375(3) 0.4690(3) 0.46747(7)
O4 O 0.9249(3) 0.2711(3) 0.41569(6)
C55 C 0.355(2) 0.823(3) 0.3632(5)
H39 H 0.2712 0.7612 0.3494
H40 H 0.4138 0.9092 0.3498
C56 C 0.305(3) 0.866(3) 0.3942(5)
H41 H 0.2622 0.7868 0.4101
H42 H 0.2358 0.8927 0.3875
H43 H 0.3858 0.9464 0.4051
O5 O 0.4360(15) 0.7507(17) 0.3674(4)
H44 H 0.4759 0.7531 0.3492
C57? C 0.400(4) 0.890(5) 0.3718(15)
H45? H 0.4147 0.9383 0.3497
H46? H 0.4280 0.9597 0.3905
C58? C 0.249(5) 0.764(6) 0.3761(16)
H47? H 0.2085 0.7075 0.3556
H48? H 0.1890 0.8007 0.3840
H49? H 0.2561 0.7050 0.3938
O6? O 0.472(4) 0.806(4) 0.3738(10)
H50? H 0.5349 0.8623 0.3606
loop_
_geom_bond_atom_site_label_1
_geom_bond_atom_site_label_2
_geom_bond_site_symmetry_1
_geom_bond_site_symmetry_2
C1 C2 1_555 1_555
C2 C3 1_555 1_555
C3 C4 1_555 1_555
C4 C5 1_555 1_555
C5 H1 1_555 1_555
C6 C5 1_555 1_555
H2 C6 1_555 1_555
C7 C6 1_555 1_555
H3 C7 1_555 1_555
C8 C3 1_555 1_555
H4 C8 1_555 1_555
C9 C10 1_555 1_555
C10 C2 1_555 1_555
C11 C10 1_555 1_555
C12 C11 1_555 1_555
C13 C12 1_555 1_555
H5 C13 1_555 1_555
C14 C13 1_555 1_555
H6 C14 1_555 1_555
C15 C14 1_555 1_555
H7 C15 1_555 1_555
C16 C11 1_555 1_555
H8 C16 1_555 1_555
C17 C10 1_555 1_555
H9 C17 1_555 1_555
C18 C17 1_555 1_555
H10 C18 1_555 1_555
C19 C17 1_555 1_555
C20 C18 1_555 1_555
C21 H11 1_555 1_555
H12 C21 1_555 1_555
C22 C21 1_555 1_555
C23 C22 1_555 1_555
H13 C23 1_555 1_555
C24 C23 1_555 1_555
H14 C24 1_555 1_555
C25 C24 1_555 1_555
H15 C25 1_555 1_555
C26 C25 1_555 1_555
H16 C26 1_555 1_555
C27 C22 1_555 1_555
H17 C27 1_555 1_555
F1 C19 1_555 1_555
F2 C19 1_555 1_555
F3 C19 1_555 1_555
F4 C20 1_555 1_555
F5 C20 1_555 1_555
F6 C20 1_555 1_555
N1 C1 1_555 1_555
N2 C9 1_555 1_555
H18 N2 1_555 1_555
N3 C2 1_555 1_555
H19 N3 1_555 1_555
O1 C1 1_555 1_555
O2 C9 1_555 1_555
C28 C29 1_555 1_555
C29 C30 1_555 1_555
C30 C31 1_555 1_555
C31 C32 1_555 1_555
C32 H20 1_555 1_555
C33 C32 1_555 1_555
H21 C33 1_555 1_555
C34 C33 1_555 1_555
H22 C34 1_555 1_555
C35 C30 1_555 1_555
H23 C35 1_555 1_555
C36 C37 1_555 1_555
C37 C29 1_555 1_555
C38 C37 1_555 1_555
C39 C38 1_555 1_555
C40 C39 1_555 1_555
H24 C40 1_555 1_555
C41 C40 1_555 1_555
H25 C41 1_555 1_555
C42 C41 1_555 1_555
H26 C42 1_555 1_555
C43 C38 1_555 1_555
H27 C43 1_555 1_555
C44 C37 1_555 1_555
H28 C44 1_555 1_555
C45 C44 1_555 1_555
H29 C45 1_555 1_555
C46 C44 1_555 1_555
C47 C45 1_555 1_555
C48 H30 1_555 1_555
H31 C48 1_555 1_555
C49 C48 1_555 1_555
C50 C49 1_555 1_555
H32 C50 1_555 1_555
C51 C50 1_555 1_555
H33 C51 1_555 1_555
C52 C51 1_555 1_555
H34 C52 1_555 1_555
C53 C52 1_555 1_555
H35 C53 1_555 1_555
C54 C49 1_555 1_555
H36 C54 1_555 1_555
F7 C46 1_555 1_555
F8 C46 1_555 1_555
F9 C46 1_555 1_555
F10 C47 1_555 1_555
F11 C47 1_555 1_555
F12 C47 1_555 1_555
N4 C28 1_555 1_555
N5 C36 1_555 1_555
H37 N5 1_555 1_555
N6 C29 1_555 1_555
H38 N6 1_555 1_555
O3 C28 1_555 1_555
O4 C36 1_555 1_555
C55 H39 1_555 1_555
H40 C55 1_555 1_555
C56 C55 1_555 1_555
H41 C56 1_555 1_555
H42 C56 1_555 1_555
H43 C56 1_555 1_555
O5 C55 1_555 1_555
H44 O5 1_555 1_555
C4 N1 1_555 1_555
C7 C8 1_555 1_555
C12 N2 1_555 1_555
C15 C16 1_555 1_555
C18 N3 1_555 1_555
C21 N1 1_555 1_555
C26 C27 1_555 1_555
C31 N4 1_555 1_555
C34 C35 1_555 1_555
C39 N5 1_555 1_555
C42 C43 1_555 1_555
C45 N6 1_555 1_555
C48 N4 1_555 1_555
C53 C54 1_555 1_555

#END
