
#######################################################################
#
#                 Cambridge Crystallographic Data Centre
#                                CCDC 
#
#######################################################################
#
# If this CIF has been generated from an entry in the Cambridge 
# Structural Database, then it will include bibliographic, chemical, 
# crystal, experimental, refinement or atomic coordinate data resulting 
# from the CCDC's data processing and validation procedures.
#
#######################################################################

data_PILJAW
_chemical_formula_moiety         'C11 H14 O3'
_chemical_name_systematic        
'(1SR,8aRS)-1,2,3,5,6,7,8,8a-Octahydro-3-oxonaphthalene-1-carboxylic acid'
_symmetry_cell_setting           monoclinic
_symmetry_space_group_name_H-M   'P 21/c'
_symmetry_Int_Tables_number      14
_space_group_name_Hall           '-P 2ybc'
loop_
_symmetry_equiv_pos_site_id
_symmetry_equiv_pos_as_xyz
1 x,y,z
2 -x,1/2+y,1/2-z
3 -x,-y,-z
4 x,1/2-y,1/2+z
_cell_length_a                   5.2691(3)
_cell_length_b                   16.1279(11)
_cell_length_c                   11.9181(7)
_cell_angle_alpha                90
_cell_angle_beta                 98.252(3)
_cell_angle_gamma                90
_cell_volume                     1002.31
_exptl_crystal_colour            colorless
_exptl_crystal_description       parallelepiped
_chemical_melting_point          '352 K'
_cell_formula_units_Z            4
_exptl_crystal_recrystallization_method 'diethyl ether/hexane'
loop_
_atom_site_label
_atom_site_type_symbol
_atom_site_fract_x
_atom_site_fract_y
_atom_site_fract_z
C1 C 0.4880(2) 0.16063(8) 0.05233(11)
H1 H 0.6262 0.1271 0.0248
O1 O 0.98255(17) 0.29981(6) 0.18075(8)
C2 C 0.5929(2) 0.24841(8) 0.07921(11)
H2 H 0.6534 0.2720 0.0111
H3 H 0.4536 0.2843 0.0991
O2 O 0.04242(18) 0.16180(7) -0.03204(9)
C3 C 0.8103(2) 0.24758(8) 0.17578(11)
O3 O 0.34570(18) 0.18208(6) -0.14192(8)
H4 H 0.2185 0.1869 -0.1928
C4 C 0.7986(3) 0.18636(8) 0.26462(12)
H5 H 0.9289 0.1866 0.3286
C5 C 0.6117(3) 0.12961(8) 0.25999(11)
C6 C 0.5812(3) 0.07688(9) 0.36134(12)
H6 H 0.4392 0.0995 0.3982
H7 H 0.7401 0.0806 0.4166
C7 C 0.5259(3) -0.01464(9) 0.33257(12)
H8 H 0.6802 -0.0408 0.3094
H9 H 0.4843 -0.0440 0.4006
C8 C 0.3024(3) -0.02239(9) 0.23702(13)
H10 H 0.2720 -0.0816 0.2175
H11 H 0.1450 0.0003 0.2619
C9 C 0.4120(2) 0.11763(8) 0.15658(11)
H12 H 0.2484 0.1433 0.1730
C10 C 0.3614(3) 0.02474(9) 0.13348(12)
H13 H 0.2152 0.0187 0.0719
H14 H 0.5140 -0.0002 0.1071
C11 C 0.2656(2) 0.16697(8) -0.04338(12)
loop_
_geom_bond_atom_site_label_1
_geom_bond_atom_site_label_2
_geom_bond_site_symmetry_1
_geom_bond_site_symmetry_2
C1 H1 1_555 1_555
O1 C3 1_555 1_555
C2 C1 1_555 1_555
H2 C2 1_555 1_555
H3 C2 1_555 1_555
O2 C11 1_555 1_555
C3 C2 1_555 1_555
O3 H4 1_555 1_555
C4 C3 1_555 1_555
H5 C4 1_555 1_555
C5 C4 1_555 1_555
C6 C5 1_555 1_555
H6 C6 1_555 1_555
H7 C6 1_555 1_555
C7 C6 1_555 1_555
H8 C7 1_555 1_555
H9 C7 1_555 1_555
C8 C7 1_555 1_555
H10 C8 1_555 1_555
H11 C8 1_555 1_555
C9 C1 1_555 1_555
H12 C9 1_555 1_555
C10 C8 1_555 1_555
H13 C10 1_555 1_555
H14 C10 1_555 1_555
C11 C1 1_555 1_555
O3 C11 1_555 1_555
C5 C9 1_555 1_555
C9 C10 1_555 1_555

#END
