
#######################################################################
#
#                 Cambridge Crystallographic Data Centre
#                                CCDC 
#
#######################################################################
#
# If this CIF has been generated from an entry in the Cambridge 
# Structural Database, then it will include bibliographic, chemical, 
# crystal, experimental, refinement or atomic coordinate data resulting 
# from the CCDC's data processing and validation procedures.
#
#######################################################################

data_PILKAX
_chemical_formula_moiety         'C25 H20 N1 P1'
_chemical_name_systematic        N-Benzylidene-o-(diphenylphosphino)aniline
_symmetry_cell_setting           monoclinic
_symmetry_space_group_name_H-M   'P 21/c'
_symmetry_Int_Tables_number      14
_space_group_name_Hall           '-P 2ybc'
loop_
_symmetry_equiv_pos_site_id
_symmetry_equiv_pos_as_xyz
1 x,y,z
2 -x,1/2+y,1/2-z
3 -x,-y,-z
4 x,1/2-y,1/2+z
_cell_length_a                   15.076(3)
_cell_length_b                   6.6127(13)
_cell_length_c                   20.297(4)
_cell_angle_alpha                90
_cell_angle_beta                 98.46(3)
_cell_angle_gamma                90
_cell_volume                     2001.45
_exptl_crystal_colour            colorless
_exptl_crystal_description       prism
_cell_formula_units_Z            4
_exptl_crystal_recrystallization_method ethanol
loop_
_atom_site_label
_atom_site_type_symbol
_atom_site_fract_x
_atom_site_fract_y
_atom_site_fract_z
P1 P 0.20484(4) 0.75168(8) 0.17396(3)
N1 N 0.18326(12) 1.0677(3) 0.27147(9)
C1 C 0.10879(14) 1.0673(3) 0.22061(11)
C2 C 0.11152(13) 0.9309(3) 0.16779(11)
C3 C 0.30187(14) 0.9120(3) 0.16743(11)
C4 C 0.03873(15) 0.9284(3) 0.11698(12)
H1 H 0.0399 0.8428 0.0808
C5 C 0.18483(14) 0.6353(3) 0.09123(11)
C6 C 0.03371(15) 1.1869(3) 0.22255(12)
H2 H 0.0318 1.2740 0.2583
C7 C 0.12690(16) 0.4726(3) 0.08273(13)
H3 H 0.1007 0.4263 0.1186
C8 C -0.03791(15) 1.1780(4) 0.17219(13)
H4 H -0.0882 1.2583 0.1739
C9 C 0.29742(16) 1.1050(4) 0.14107(14)
H5 H 0.2418 1.1607 0.1250
C10 C -0.03491(15) 1.0496(4) 0.11909(13)
H6 H -0.0828 1.0449 0.0846
C11 C 0.10727(18) 0.3773(4) 0.02167(14)
H7 H 0.0674 0.2691 0.0168
C12 C 0.21333(15) 1.2371(3) 0.29366(12)
H8 H 0.1866 1.3548 0.2752
C13 C 0.28912(15) 1.2531(4) 0.34766(12)
C14 C 0.1455(2) 0.4401(4) -0.03098(15)
H9 H 0.1326 0.3742 -0.0718
C15 C 0.38576(16) 0.8340(4) 0.19137(14)
H10 H 0.3907 0.7053 0.2100
C16 C 0.22344(18) 0.6974(4) 0.03667(14)
H11 H 0.2634 0.8055 0.0410
C17 C 0.2034(2) 0.6011(4) -0.02407(15)
H12 H 0.2292 0.6455 -0.0604
C18 C 0.34628(19) 1.0935(4) 0.36478(15)
H13 H 0.3392 0.9737 0.3406
C19 C 0.3737(2) 1.2162(4) 0.13814(16)
H14 H 0.3695 1.3458 0.1202
C20 C 0.45611(19) 1.1356(5) 0.16167(17)
H15 H 0.5078 1.2108 0.1598
C21 C 0.30210(18) 1.4321(5) 0.38267(17)
H16 H 0.2654 1.5426 0.3700
C22 C 0.3692(2) 1.4476(6) 0.4362(2)
H17 H 0.3772 1.5679 0.4601
C23 C 0.46217(18) 0.9470(6) 0.18761(18)
H18 H 0.5182 0.8925 0.2031
C24 C 0.4143(2) 1.1115(6) 0.41809(18)
H19 H 0.4537 1.0046 0.4295
C25 C 0.4237(3) 1.2881(7) 0.45426(18)
H20 H 0.4677 1.2981 0.4914
loop_
_geom_bond_atom_site_label_1
_geom_bond_atom_site_label_2
_geom_bond_site_symmetry_1
_geom_bond_site_symmetry_2
P1 C2 1_555 1_555
N1 C1 1_555 1_555
C1 C2 1_555 1_555
C2 C4 1_555 1_555
C3 P1 1_555 1_555
C4 H1 1_555 1_555
C5 P1 1_555 1_555
C6 C1 1_555 1_555
H2 C6 1_555 1_555
C7 C5 1_555 1_555
H3 C7 1_555 1_555
C8 C6 1_555 1_555
H4 C8 1_555 1_555
C9 C3 1_555 1_555
H5 C9 1_555 1_555
C10 C4 1_555 1_555
H6 C10 1_555 1_555
C11 C7 1_555 1_555
H7 C11 1_555 1_555
C12 N1 1_555 1_555
H8 C12 1_555 1_555
C13 C12 1_555 1_555
C14 C11 1_555 1_555
H9 C14 1_555 1_555
C15 C3 1_555 1_555
H10 C15 1_555 1_555
C16 C5 1_555 1_555
H11 C16 1_555 1_555
C17 C14 1_555 1_555
H12 C17 1_555 1_555
C18 C13 1_555 1_555
H13 C18 1_555 1_555
C19 C9 1_555 1_555
H14 C19 1_555 1_555
C20 C19 1_555 1_555
H15 C20 1_555 1_555
C21 C13 1_555 1_555
H16 C21 1_555 1_555
C22 C21 1_555 1_555
H17 C22 1_555 1_555
C23 C15 1_555 1_555
H18 C23 1_555 1_555
C24 C18 1_555 1_555
H19 C24 1_555 1_555
C25 C22 1_555 1_555
H20 C25 1_555 1_555
C8 C10 1_555 1_555
C16 C17 1_555 1_555
C20 C23 1_555 1_555
C24 C25 1_555 1_555

#END
