
#######################################################################
#
#                 Cambridge Crystallographic Data Centre
#                                CCDC 
#
#######################################################################
#
# If this CIF has been generated from an entry in the Cambridge 
# Structural Database, then it will include bibliographic, chemical, 
# crystal, experimental, refinement or atomic coordinate data resulting 
# from the CCDC's data processing and validation procedures.
#
#######################################################################

data_PILMUT
_chemical_formula_moiety         'C20 H21 Br1 N4 O2'
_chemical_name_systematic        
6-((4-Bromophenyl)iminomethyl)-1,3-dimethyl-7-(3-methylbut-2-en-1-yl)-1,2,3,4-tetrahydro-7H-pyrrolo(2,3-d)pyrimidine-2,4-dione
_symmetry_cell_setting           triclinic
_symmetry_space_group_name_H-M   'P -1'
_symmetry_Int_Tables_number      2
_space_group_name_Hall           '-P 1'
loop_
_symmetry_equiv_pos_site_id
_symmetry_equiv_pos_as_xyz
1 x,y,z
2 -x,-y,-z
_cell_length_a                   9.202(3)
_cell_length_b                   9.989(3)
_cell_length_c                   10.454(4)
_cell_angle_alpha                87.363(19)
_cell_angle_beta                 80.67(2)
_cell_angle_gamma                84.187(19)
_cell_volume                     942.902
_exptl_crystal_colour            yellow
_exptl_crystal_description       block
_cell_formula_units_Z            2
_exptl_crystal_recrystallization_method ethanol
loop_
_atom_site_label
_atom_site_type_symbol
_atom_site_fract_x
_atom_site_fract_y
_atom_site_fract_z
Br1 Br -0.31222(3) 0.56793(3) -0.43672(2)
O1 O 0.49380(19) -0.31916(16) -0.03864(18)
O2 O 0.5675(2) -0.1746(2) 0.34797(19)
N1 N 0.04816(19) 0.25040(18) -0.06728(17)
N2 N 0.24412(17) 0.08034(16) 0.10161(16)
N3 N 0.51882(19) -0.25241(18) 0.1613(2)
N4 N 0.41031(19) -0.03963(18) 0.24052(17)
C1 C 0.2032(2) 0.05049(19) -0.01682(19)
C2 C 0.2768(2) -0.07013(19) -0.05594(19)
H1 H 0.2701 -0.1133 -0.1314
C3 C 0.3637(2) -0.11688(19) 0.03721(19)
C4 C 0.4618(2) -0.2366(2) 0.0448(2)
C5 C 0.5032(2) -0.1569(2) 0.2555(2)
C6 C 0.3406(2) -0.02355(19) 0.13358(18)
C7 C 0.1079(2) 0.1321(2) -0.0913(2)
H2 H 0.0877 0.0942 -0.1654
C8 C 0.6116(3) -0.3776(3) 0.1821(3)
H3 H 0.7129 -0.3662 0.1473
H4 H 0.5793 -0.4496 0.1393
H5 H 0.6032 -0.3988 0.2734
C9 C 0.4161(3) 0.0690(3) 0.3280(2)
H6 H 0.4493 0.1465 0.2784
H7 H 0.4836 0.0401 0.3871
H8 H 0.3193 0.0917 0.3760
C10 C 0.1651(2) 0.18875(19) 0.18428(19)
H9 H 0.1207 0.2582 0.1309
H10 H 0.2347 0.2290 0.2277
C11 C 0.0472(2) 0.1348(2) 0.2832(2)
H11 H 0.0700 0.0514 0.3222
C12 C -0.0866(2) 0.1957(2) 0.3201(2)
C13 C -0.1929(3) 0.1296(4) 0.4228(3)
H12 H -0.1501 0.0415 0.4443
H13 H -0.2836 0.1222 0.3906
H14 H -0.2126 0.1830 0.4988
C14 C -0.1424(3) 0.3286(3) 0.2669(3)
H15 H -0.0719 0.3563 0.1950
H16 H -0.1560 0.3942 0.3332
H17 H -0.2351 0.3209 0.2383
C15 C -0.1998(2) 0.4639(2) -0.3244(2)
C16 C -0.0756(3) 0.3820(2) -0.3740(2)
H18 H -0.0476 0.3755 -0.4632
C17 C 0.0068(2) 0.3100(2) -0.2911(2)
H19 H 0.0906 0.2550 -0.3248
C18 C -0.0334(2) 0.3183(2) -0.15775(19)
C19 C -0.1572(2) 0.4033(2) -0.1098(2)
H20 H -0.1837 0.4118 -0.0207
C20 C -0.2421(2) 0.4754(2) -0.1920(2)
H21 H -0.3260 0.5306 -0.1588
loop_
_geom_bond_atom_site_label_1
_geom_bond_atom_site_label_2
_geom_bond_site_symmetry_1
_geom_bond_site_symmetry_2
Br1 C15 1_555 1_555
O1 C4 1_555 1_555
O2 C5 1_555 1_555
N1 C7 1_555 1_555
N2 C1 1_555 1_555
N3 C4 1_555 1_555
N4 C5 1_555 1_555
C1 C2 1_555 1_555
C2 H1 1_555 1_555
C3 C2 1_555 1_555
C4 C3 1_555 1_555
C5 N3 1_555 1_555
C6 N2 1_555 1_555
C7 C1 1_555 1_555
H2 C7 1_555 1_555
C8 N3 1_555 1_555
H3 C8 1_555 1_555
H4 C8 1_555 1_555
H5 C8 1_555 1_555
C9 N4 1_555 1_555
H6 C9 1_555 1_555
H7 C9 1_555 1_555
H8 C9 1_555 1_555
C10 N2 1_555 1_555
H9 C10 1_555 1_555
H10 C10 1_555 1_555
C11 C10 1_555 1_555
H11 C11 1_555 1_555
C12 C11 1_555 1_555
C13 C12 1_555 1_555
H12 C13 1_555 1_555
H13 C13 1_555 1_555
H14 C13 1_555 1_555
C14 C12 1_555 1_555
H15 C14 1_555 1_555
H16 C14 1_555 1_555
H17 C14 1_555 1_555
C15 C16 1_555 1_555
C16 H18 1_555 1_555
C17 C16 1_555 1_555
H19 C17 1_555 1_555
C18 N1 1_555 1_555
C19 C18 1_555 1_555
H20 C19 1_555 1_555
C20 C15 1_555 1_555
H21 C20 1_555 1_555
N4 C6 1_555 1_555
C3 C6 1_555 1_555
C17 C18 1_555 1_555
C19 C20 1_555 1_555

#END
