
#######################################################################
#
#                 Cambridge Crystallographic Data Centre
#                                CCDC 
#
#######################################################################
#
# If this CIF has been generated from an entry in the Cambridge 
# Structural Database, then it will include bibliographic, chemical, 
# crystal, experimental, refinement or atomic coordinate data resulting 
# from the CCDC's data processing and validation procedures.
#
#######################################################################

data_PILNEE
_chemical_compound_source        'Lobelia chinensis Lour'
_chemical_name_common            'Alisol F 24-acetate'
_chemical_formula_moiety         'C32 H50 O6'
_chemical_name_systematic        
(24R)-24-Acetoxy-11\b,25-dihydroxy-16\b,23\b-epoxyprotost-13(17)-en-3-one
_chemical_properties_biological  
'activity for inhibiting formation of urinary oxalate calcium calculi; Lobelia chinensis Lour is a Chinese herbal medicine'
_symmetry_cell_setting           monoclinic
_symmetry_space_group_name_H-M   'P 21'
_symmetry_Int_Tables_number      4
_space_group_name_Hall           'P 2yb'
loop_
_symmetry_equiv_pos_site_id
_symmetry_equiv_pos_as_xyz
1 x,y,z
2 -x,1/2+y,-z
_cell_length_a                   6.525(4)
_cell_length_b                   15.885(10)
_cell_length_c                   14.401(9)
_cell_angle_alpha                90
_cell_angle_beta                 100.475(10)
_cell_angle_gamma                90
_cell_volume                     1467.78
_exptl_crystal_colour            colorless
_exptl_crystal_description       prism
_cell_formula_units_Z            2
_exptl_crystal_recrystallization_method methanol
loop_
_atom_site_label
_atom_site_type_symbol
_atom_site_fract_x
_atom_site_fract_y
_atom_site_fract_z
O1 O 0.5063(9) 1.1516(4) 0.2720(4)
O2 O 0.2109(9) 0.8135(3) 0.4045(3)
H1 H 0.2120 0.7918 0.4562
O3 O 0.7078(9) 0.4694(3) 0.2211(3)
O4 O 1.0287(8) 0.3572(3) 0.2271(4)
O5 O 0.8746(14) 0.2837(6) 0.1019(4)
O6 O 0.7817(9) 0.2528(3) 0.4048(4)
H2 H 0.6889 0.2314 0.3659
C1 C 0.5384(12) 0.9359(5) 0.3534(5)
H3 H 0.4649 0.9368 0.4062
H4 H 0.6501 0.8949 0.3675
C2 C 0.6326(15) 1.0232(5) 0.3431(6)
H5 H 0.6314 1.0541 0.4010
H6 H 0.7773 1.0155 0.3374
C3 C 0.5303(11) 1.0768(5) 0.2622(5)
C4 C 0.4809(12) 1.0350(5) 0.1647(5)
C5 C 0.4810(11) 0.9379(5) 0.1782(5)
H7 H 0.6285 0.9222 0.1935
C6 C 0.3929(13) 0.8873(5) 0.0909(5)
H8 H 0.4321 0.9132 0.0357
H9 H 0.2420 0.8864 0.0822
C7 C 0.4770(14) 0.7981(5) 0.1020(5)
H10 H 0.6161 0.7979 0.0871
H11 H 0.3903 0.7627 0.0559
C8 C 0.4879(10) 0.7578(5) 0.2008(5)
C9 C 0.3477(11) 0.8093(5) 0.2591(4)
H12 H 0.2051 0.8026 0.2242
C10 C 0.3867(11) 0.9081(5) 0.2639(5)
C11 C 0.3472(12) 0.7679(5) 0.3552(5)
H13 H 0.4887 0.7704 0.3923
C12 C 0.2799(12) 0.6763(5) 0.3456(5)
H14 H 0.2947 0.6509 0.4077
H15 H 0.1343 0.6730 0.3158
C13 C 0.4099(12) 0.6295(4) 0.2876(5)
C14 C 0.4086(11) 0.6647(5) 0.1904(5)
C15 C 0.5620(13) 0.6021(5) 0.1531(5)
H16 H 0.4849 0.5622 0.1090
H17 H 0.6580 0.6326 0.1214
C16 C 0.6790(12) 0.5568(5) 0.2389(5)
H18 H 0.8152 0.5836 0.2591
C17 C 0.5477(12) 0.5702(4) 0.3132(5)
C18 C 0.5973(14) 0.5198(5) 0.4025(5)
H19 H 0.4731 0.5186 0.4319
C19 C 0.6453(12) 0.4289(5) 0.3749(5)
H20 H 0.7017 0.3974 0.4315
H21 H 0.5168 0.4018 0.3451
C20 C 0.7985(12) 0.4269(4) 0.3083(5)
H22 H 0.9246 0.4572 0.3375
C21 C 0.8607(11) 0.3405(5) 0.2789(5)
H23 H 0.7430 0.3145 0.2366
C22 C 0.9502(11) 0.2777(5) 0.3590(5)
C23 C 1.0319(14) 0.2005(5) 0.3158(6)
H24 H 0.9253 0.1784 0.2671
H25 H 1.0709 0.1585 0.3637
H26 H 1.1514 0.2157 0.2891
C24 C 1.1135(13) 0.3150(6) 0.4342(6)
H27 H 1.0593 0.3647 0.4591
H28 H 1.2336 0.3296 0.4078
H29 H 1.1524 0.2748 0.4841
C25 C 0.2861(14) 1.0721(5) 0.1050(6)
H30 H 0.2588 1.0445 0.0447
H31 H 0.3064 1.1312 0.0962
H32 H 0.1698 1.0640 0.1365
C26 C 0.6698(13) 1.0584(6) 0.1182(6)
H33 H 0.6526 1.0337 0.0565
H34 H 0.7955 1.0375 0.1564
H35 H 0.6782 1.1185 0.1131
C27 C 0.1778(13) 0.9489(6) 0.2643(5)
H36 H 0.1942 1.0090 0.2670
H37 H 0.1237 0.9300 0.3183
H38 H 0.0828 0.9338 0.2077
C28 C 0.7171(11) 0.7592(5) 0.2526(6)
H39 H 0.7263 0.7351 0.3143
H40 H 0.7663 0.8162 0.2582
H41 H 0.8012 0.7270 0.2173
C29 C 0.1928(12) 0.6566(6) 0.1275(5)
H42 H 0.1967 0.6800 0.0664
H43 H 0.0921 0.6865 0.1559
H44 H 0.1545 0.5983 0.1210
C30 C 0.7728(18) 0.5592(6) 0.4713(5)
H45 H 0.7997 0.5264 0.5281
H46 H 0.7346 0.6154 0.4859
H47 H 0.8960 0.5611 0.4436
C31 C 1.0144(18) 0.3278(7) 0.1390(6)
C32 C 1.193(2) 0.3555(10) 0.0980(8)
H48 H 1.2844 0.3889 0.1434
H49 H 1.1447 0.3885 0.0425
H50 H 1.2671 0.3071 0.0814
loop_
_geom_bond_atom_site_label_1
_geom_bond_atom_site_label_2
_geom_bond_site_symmetry_1
_geom_bond_site_symmetry_2
O1 C3 1_555 1_555
O2 H1 1_555 1_555
O3 C16 1_555 1_555
O4 C21 1_555 1_555
O5 C31 1_555 1_555
O6 H2 1_555 1_555
C1 H3 1_555 1_555
H4 C1 1_555 1_555
C2 C1 1_555 1_555
H5 C2 1_555 1_555
H6 C2 1_555 1_555
C3 C2 1_555 1_555
C4 C3 1_555 1_555
C5 C4 1_555 1_555
H7 C5 1_555 1_555
C6 C5 1_555 1_555
H8 C6 1_555 1_555
H9 C6 1_555 1_555
C7 C6 1_555 1_555
H10 C7 1_555 1_555
H11 C7 1_555 1_555
C8 C7 1_555 1_555
C9 C8 1_555 1_555
H12 C9 1_555 1_555
C10 C1 1_555 1_555
C11 O2 1_555 1_555
H13 C11 1_555 1_555
C12 C11 1_555 1_555
H14 C12 1_555 1_555
H15 C12 1_555 1_555
C13 C12 1_555 1_555
C14 C8 1_555 1_555
C15 C14 1_555 1_555
H16 C15 1_555 1_555
H17 C15 1_555 1_555
C16 C15 1_555 1_555
H18 C16 1_555 1_555
C17 C13 1_555 1_555
C18 C17 1_555 1_555
H19 C18 1_555 1_555
C19 C18 1_555 1_555
H20 C19 1_555 1_555
H21 C19 1_555 1_555
C20 O3 1_555 1_555
H22 C20 1_555 1_555
C21 C20 1_555 1_555
H23 C21 1_555 1_555
C22 O6 1_555 1_555
C23 C22 1_555 1_555
H24 C23 1_555 1_555
H25 C23 1_555 1_555
H26 C23 1_555 1_555
C24 C22 1_555 1_555
H27 C24 1_555 1_555
H28 C24 1_555 1_555
H29 C24 1_555 1_555
C25 C4 1_555 1_555
H30 C25 1_555 1_555
H31 C25 1_555 1_555
H32 C25 1_555 1_555
C26 C4 1_555 1_555
H33 C26 1_555 1_555
H34 C26 1_555 1_555
H35 C26 1_555 1_555
C27 C10 1_555 1_555
H36 C27 1_555 1_555
H37 C27 1_555 1_555
H38 C27 1_555 1_555
C28 C8 1_555 1_555
H39 C28 1_555 1_555
H40 C28 1_555 1_555
H41 C28 1_555 1_555
C29 C14 1_555 1_555
H42 C29 1_555 1_555
H43 C29 1_555 1_555
H44 C29 1_555 1_555
C30 C18 1_555 1_555
H45 C30 1_555 1_555
H46 C30 1_555 1_555
H47 C30 1_555 1_555
C31 O4 1_555 1_555
C32 C31 1_555 1_555
H48 C32 1_555 1_555
H49 C32 1_555 1_555
H50 C32 1_555 1_555
C5 C10 1_555 1_555
C9 C10 1_555 1_555
C9 C11 1_555 1_555
C13 C14 1_555 1_555
C16 C17 1_555 1_555
C19 C20 1_555 1_555
C21 C22 1_555 1_555

#END
