
#######################################################################
#
#                 Cambridge Crystallographic Data Centre
#                                CCDC 
#
#######################################################################
#
# If this CIF has been generated from an entry in the Cambridge 
# Structural Database, then it will include bibliographic, chemical, 
# crystal, experimental, refinement or atomic coordinate data resulting 
# from the CCDC's data processing and validation procedures.
#
#######################################################################

data_PILVIQ
_chemical_formula_moiety         'C20 H23 F1 N3 O4 P1 S1'
_chemical_name_systematic        
'(S)-Diethyl ((4-fluorophenyl)(5-(4-methoxyphenyl)-1,3,4-thiadiazol-2-ylamino)methyl)phosphonate'
_symmetry_cell_setting           triclinic
_symmetry_space_group_name_H-M   'P -1'
_symmetry_Int_Tables_number      2
_space_group_name_Hall           '-P 1'
loop_
_symmetry_equiv_pos_site_id
_symmetry_equiv_pos_as_xyz
1 x,y,z
2 -x,-y,-z
_cell_length_a                   9.4140(19)
_cell_length_b                   10.227(2)
_cell_length_c                   12.923(3)
_cell_angle_alpha                110.44(3)
_cell_angle_beta                 98.80(3)
_cell_angle_gamma                100.58(3)
_cell_volume                     1113.74
_exptl_crystal_colour            colorless
_exptl_crystal_description       block
_chemical_melting_point          '465 K'
_cell_formula_units_Z            2
_exptl_crystal_recrystallization_method acetone
loop_
_atom_site_label
_atom_site_type_symbol
_atom_site_fract_x
_atom_site_fract_y
_atom_site_fract_z
P1 P 0.43635(9) 0.67087(8) -0.10499(7)
S1 S 0.87296(9) 0.75456(8) 0.24611(7)
F1 F 0.9354(3) 0.4665(3) -0.3671(2)
N1 N 0.6691(3) 0.7228(3) 0.0607(2)
H1 H 0.6079 0.6613 0.0747
N2 N 0.8756(3) 0.9250(3) 0.1405(2)
N3 N 0.9991(3) 0.9880(3) 0.2313(2)
O1 O 0.3723(3) 0.7941(3) -0.0351(2)
O2 O 0.4072(3) 0.6740(2) -0.22638(19)
O3 O 0.3799(2) 0.5289(2) -0.1037(2)
O4 O 1.4759(3) 1.0977(3) 0.6845(2)
C1 C 0.1394(13) 0.7103(15) 0.0092(13)
H2 H 0.1483 0.6129 -0.0121
H3 H 0.0362 0.7101 -0.0028
H4 H 0.1875 0.7645 0.0880
C3 C 0.2111(4) 0.7775(5) -0.0612(4)
H8 H 0.1692 0.7176 -0.1410
H9 H 0.1914 0.8713 -0.0466
C4 C 0.287(3) 0.5362(15) -0.4207(9)
H10 H 0.1913 0.5461 -0.4063
H11 H 0.2747 0.4448 -0.4812
H12 H 0.3300 0.6126 -0.4421
C6 C 0.3732(8) 0.5430(6) -0.3294(4)
H16 H 0.4667 0.5280 -0.3475
H17 H 0.3287 0.4625 -0.3116
C7 C 0.6343(3) 0.7417(3) -0.0464(3)
H18 H 0.6603 0.8452 -0.0307
C8 C 0.7176(3) 0.6676(3) -0.1318(3)
C9 C 0.7093(4) 0.5201(4) -0.1631(3)
H19 H 0.6543 0.4677 -0.1300
C10 C 0.7820(5) 0.4521(4) -0.2427(4)
H20 H 0.7770 0.3543 -0.2638
C11 C 0.8619(4) 0.5325(4) -0.2896(3)
C12 C 0.8720(4) 0.6766(4) -0.2615(3)
H21 H 0.9266 0.7281 -0.2954
C13 C 0.7994(3) 0.7430(3) -0.1818(3)
H22 H 0.8057 0.8410 -0.1613
C14 C 0.7997(3) 0.8036(3) 0.1388(3)
C15 C 1.0132(3) 0.9141(3) 0.2943(3)
C16 C 1.1326(3) 0.9586(3) 0.3959(3)
C17 C 1.2501(4) 1.0796(4) 0.4250(3)
H23 H 1.2531 1.1326 0.3794
C18 C 1.3619(4) 1.1212(4) 0.5212(3)
H24 H 1.4403 1.2015 0.5391
C19 C 1.3596(4) 1.0462(4) 0.5914(3)
C20 C 1.2444(4) 0.9278(4) 0.5645(3)
H25 H 1.2419 0.8754 0.6105
C21 C 1.1308(4) 0.8862(4) 0.4678(3)
H26 H 1.0515 0.8072 0.4513
C22 C 1.4839(6) 1.0152(6) 0.7528(4)
H27 H 1.5718 1.0605 0.8136
H28 H 1.4877 0.9196 0.7071
H29 H 1.3977 1.0099 0.7839
C2? C 0.146(4) 0.794(6) 0.024(3)
H5? H 0.1728 0.7332 0.0620
H6? H 0.0400 0.7665 -0.0049
H7? H 0.1771 0.8926 0.0761
C5? C 0.3900(4) 0.5599(19) -0.4201(13)
H13? H 0.3191 0.4835 -0.4836
H14? H 0.4887 0.5582 -0.4299
H15? H 0.3724 0.6510 -0.4156
loop_
_geom_bond_atom_site_label_1
_geom_bond_atom_site_label_2
_geom_bond_site_symmetry_1
_geom_bond_site_symmetry_2
P1 O1 1_555 1_555
S1 C14 1_555 1_555
F1 C11 1_555 1_555
N1 H1 1_555 1_555
N2 N3 1_555 1_555
N3 C15 1_555 1_555
O1 C3 1_555 1_555
O2 P1 1_555 1_555
O3 P1 1_555 1_555
O4 C19 1_555 1_555
C1 H2 1_555 1_555
H3 C1 1_555 1_555
H4 C1 1_555 1_555
C3 C1 1_555 1_555
H8 C3 1_555 1_555
H9 C3 1_555 1_555
C4 H10 1_555 1_555
H11 C4 1_555 1_555
H12 C4 1_555 1_555
C6 O2 1_555 1_555
H16 C6 1_555 1_555
H17 C6 1_555 1_555
C7 P1 1_555 1_555
H18 C7 1_555 1_555
C8 C7 1_555 1_555
C9 C8 1_555 1_555
H19 C9 1_555 1_555
C10 C9 1_555 1_555
H20 C10 1_555 1_555
C11 C10 1_555 1_555
C12 C11 1_555 1_555
H21 C12 1_555 1_555
C13 C8 1_555 1_555
H22 C13 1_555 1_555
C14 N1 1_555 1_555
C15 S1 1_555 1_555
C16 C15 1_555 1_555
C17 C16 1_555 1_555
H23 C17 1_555 1_555
C18 C17 1_555 1_555
H24 C18 1_555 1_555
C19 C18 1_555 1_555
C20 C19 1_555 1_555
H25 C20 1_555 1_555
C21 C16 1_555 1_555
H26 C21 1_555 1_555
C22 O4 1_555 1_555
H27 C22 1_555 1_555
H28 C22 1_555 1_555
H29 C22 1_555 1_555
N1 C7 1_555 1_555
N2 C14 1_555 1_555
C4 C6 1_555 1_555
C12 C13 1_555 1_555
C20 C21 1_555 1_555

#END
