
#######################################################################
#
#                 Cambridge Crystallographic Data Centre
#                                CCDC 
#
#######################################################################
#
# If this CIF has been generated from an entry in the Cambridge 
# Structural Database, then it will include bibliographic, chemical, 
# crystal, experimental, refinement or atomic coordinate data resulting 
# from the CCDC's data processing and validation procedures.
#
#######################################################################

data_PILZUH
_chemical_compound_source        'Chloranthus multistachys'
_chemical_formula_moiety         'C15 H20 O4'
_chemical_name_systematic        
5-Hydroxy-3,5,8a-trimethyl-4a,6,7,8a,9,9a-hexahydronaphtho[2,3-b]furan-2,8(4H,5H)-dione
_symmetry_cell_setting           orthorhombic
_symmetry_space_group_name_H-M   'P 21 21 21'
_symmetry_Int_Tables_number      19
_space_group_name_Hall           'P 2ac 2ab'
loop_
_symmetry_equiv_pos_site_id
_symmetry_equiv_pos_as_xyz
1 x,y,z
2 1/2-x,-y,1/2+z
3 1/2+x,1/2-y,-z
4 -x,1/2+y,1/2-z
_cell_length_a                   9.257(4)
_cell_length_b                   11.034(5)
_cell_length_c                   13.416(2)
_cell_angle_alpha                90
_cell_angle_beta                 90
_cell_angle_gamma                90
_cell_volume                     1370.33
_exptl_crystal_colour            colorless
_exptl_crystal_description       block
_cell_formula_units_Z            4
_exptl_crystal_recrystallization_method acetone
loop_
_atom_site_label
_atom_site_type_symbol
_atom_site_fract_x
_atom_site_fract_y
_atom_site_fract_z
O1 O -1.1014(2) -0.2095(3) -0.65595(13)
O2 O -1.09394(17) -0.17353(12) -1.01391(10)
H1 H -1.0814 -0.1452 -1.0698
O3 O -0.45168(16) 0.09915(13) -0.71852(11)
O4 O -0.58892(14) -0.06733(12) -0.71321(10)
C1 C -1.0977(2) -0.1968(2) -0.74437(16)
C2 C -1.2298(2) -0.2029(3) -0.8085(2)
H2 H -1.2287 -0.2779 -0.8462
H3 H -1.3149 -0.2034 -0.7663
C3 C -1.2385(2) -0.0982(3) -0.8790(2)
H4 H -1.2568 -0.0253 -0.8406
H5 H -1.3207 -0.1107 -0.9226
C4 C -1.10580(19) -0.07695(17) -0.94315(14)
C5 C -0.96997(17) -0.07369(14) -0.87655(12)
H6 H -0.9793 0.0001 -0.8364
C6 C -0.82854(18) -0.05827(17) -0.93576(12)
H7 H -0.8106 -0.1299 -0.9758
H8 H -0.8361 0.0109 -0.9801
C7 C -0.70789(17) -0.03967(15) -0.86422(12)
C8 C -0.69383(18) -0.12451(15) -0.77757(14)
H9 H -0.6555 -0.2023 -0.8009
C9 C -0.83595(19) -0.14547(18) -0.72478(14)
H10 H -0.8637 -0.0725 -0.6893
H11 H -0.8248 -0.2101 -0.6764
C10 C -0.95496(18) -0.17951(15) -0.79969(14)
C11 C -0.61243(18) 0.05048(15) -0.85461(13)
C12 C -0.54002(18) 0.03376(16) -0.75877(15)
C13 C -0.5799(2) 0.15477(19) -0.92099(17)
H12 H -0.6377 0.1492 -0.9802
H13 H -0.4795 0.1534 -0.9388
H14 H -0.6015 0.2291 -0.8869
C14 C -0.9215(2) -0.30307(15) -0.84829(18)
H15 H -0.9136 -0.3639 -0.7975
H16 H -0.8322 -0.2979 -0.8844
H17 H -0.9981 -0.3243 -0.8933
C15 C -1.1262(3) 0.0432(2) -0.99652(18)
H18 H -1.2111 0.0394 -1.0375
H19 H -1.0434 0.0594 -1.0375
H20 H -1.1370 0.1068 -0.9483
loop_
_geom_bond_atom_site_label_1
_geom_bond_atom_site_label_2
_geom_bond_site_symmetry_1
_geom_bond_site_symmetry_2
O1 C1 1_555 1_555
O2 H1 1_555 1_555
O3 C12 1_555 1_555
O4 C8 1_555 1_555
C1 C2 1_555 1_555
C2 H2 1_555 1_555
H3 C2 1_555 1_555
C3 C2 1_555 1_555
H4 C3 1_555 1_555
H5 C3 1_555 1_555
C4 O2 1_555 1_555
C5 C4 1_555 1_555
H6 C5 1_555 1_555
C6 C5 1_555 1_555
H7 C6 1_555 1_555
H8 C6 1_555 1_555
C7 C6 1_555 1_555
C8 C7 1_555 1_555
H9 C8 1_555 1_555
C9 C8 1_555 1_555
H10 C9 1_555 1_555
H11 C9 1_555 1_555
C10 C1 1_555 1_555
C11 C7 1_555 1_555
C12 O4 1_555 1_555
C13 C11 1_555 1_555
H12 C13 1_555 1_555
H13 C13 1_555 1_555
H14 C13 1_555 1_555
C14 C10 1_555 1_555
H15 C14 1_555 1_555
H16 C14 1_555 1_555
H17 C14 1_555 1_555
C15 C4 1_555 1_555
H18 C15 1_555 1_555
H19 C15 1_555 1_555
H20 C15 1_555 1_555
C3 C4 1_555 1_555
C5 C10 1_555 1_555
C9 C10 1_555 1_555
C11 C12 1_555 1_555

#END
