
#######################################################################
#
#                 Cambridge Crystallographic Data Centre
#                                CCDC 
#
#######################################################################
#
# If this CIF has been generated from an entry in the Cambridge 
# Structural Database, then it will include bibliographic, chemical, 
# crystal, experimental, refinement or atomic coordinate data resulting 
# from the CCDC's data processing and validation procedures.
#
#######################################################################

data_PIMSEM
_chemical_formula_moiety         
'C36 H40 O8,0.39(C6 H14),C8 Cl2 N2 O2,3.23(C1 H1 Cl3)'
_chemical_name_systematic        
'2,3,7,8,12,13,17,18-octamethoxy-5,10,15,20-tetrahydrotetrabenzo[a,d,g,j][12]annulene 4,5-dichloro-3,6-dioxocyclohexa-1,4-diene-1,2-dicarbonitrile hexane chloroform solvate'
_symmetry_cell_setting           triclinic
_symmetry_space_group_name_H-M   'P -1'
_symmetry_Int_Tables_number      2
_space_group_name_Hall           '-P 1'
loop_
_symmetry_equiv_pos_site_id
_symmetry_equiv_pos_as_xyz
1 x,y,z
2 -x,-y,-z
_cell_length_a                   10.0667(4)
_cell_length_b                   16.1954(7)
_cell_length_c                   19.0021(8)
_cell_angle_alpha                111.109(4)
_cell_angle_beta                 94.141(4)
_cell_angle_gamma                100.255(4)
_cell_volume                     2812.4
_exptl_crystal_colour            brown
_exptl_crystal_description       plate
_cell_formula_units_Z            2
loop_
_atom_site_label
_atom_site_type_symbol
_atom_site_fract_x
_atom_site_fract_y
_atom_site_fract_z
Cl1 Cl 0.14229(12) -0.00465(7) 0.30880(7)
Cl2 Cl 0.42704(13) 0.03694(8) 0.41439(6)
O1 O 0.6286(3) 0.1781(2) 0.39550(15)
O2 O 0.1572(3) 0.10131(19) 0.21267(15)
N1 N 0.7075(5) 0.3224(3) 0.2956(3)
N2 N 0.3523(5) 0.2627(3) 0.1580(2)
C1 C 0.5215(4) 0.1593(3) 0.3534(2)
C2 C 0.5031(4) 0.2047(2) 0.2991(2)
C3 C 0.3824(4) 0.1848(3) 0.2526(2)
C4 C 0.2627(4) 0.1177(3) 0.2541(2)
C5 C 0.2823(4) 0.0723(3) 0.3088(2)
C6 C 0.4022(5) 0.0901(3) 0.3532(2)
C7 C 0.6193(5) 0.2703(3) 0.2976(2)
C8 C 0.3653(5) 0.2284(3) 0.2000(2)
O3 O -0.0825(3) -0.2987(2) -0.06152(17)
O4 O -0.1244(3) -0.1485(2) 0.03648(16)
O5 O 0.5044(3) -0.07997(17) 0.23740(14)
O6 O 0.7336(3) 0.03666(17) 0.27213(14)
C9 C 0.3876(4) -0.1496(2) -0.0725(2)
H1 H 0.384562 -0.213035 -0.106183
H2 H 0.459374 -0.132934 -0.028293
C10 C 0.3330(4) 0.0233(2) 0.03900(19)
H3 H 0.286637 0.073977 0.060489
H4 H 0.375544 0.031489 -0.004078
C11 C 0.2517(4) -0.1453(2) -0.04367(18)
C12 C 0.1481(4) -0.2242(2) -0.0677(2)
H5 H 0.163506 -0.279121 -0.103146
C13 C 0.0229(4) -0.2240(3) -0.0408(2)
C14 C -0.0002(4) -0.1438(3) 0.0108(2)
C15 C 0.1006(4) -0.0653(3) 0.0346(2)
H6 H 0.083679 -0.010599 0.069755
C16 C 0.2267(4) -0.0644(2) 0.00838(18)
C17 C -0.0548(5) -0.3847(3) -0.1052(2)
H7 H -0.030997 -0.384751 -0.154332
H8 H -0.135957 -0.432650 -0.113948
H9 H 0.021567 -0.395546 -0.077256
C18 C -0.1364(5) -0.0722(3) 0.1016(3)
H10 H -0.126221 -0.018244 0.088648
H11 H -0.064935 -0.061733 0.143654
H12 H -0.226206 -0.084206 0.117171
C19 C 0.4452(4) 0.0298(2) 0.09990(18)
C20 C 0.4207(4) -0.0271(2) 0.14076(19)
H13 H 0.334823 -0.068262 0.129530
C21 C 0.5189(4) -0.0248(2) 0.19719(19)
C22 C 0.6447(4) 0.0379(2) 0.21510(19)
C23 C 0.6701(4) 0.0919(2) 0.17388(19)
H14 H 0.756576 0.132325 0.184783
C24 C 0.5716(4) 0.0890(2) 0.11576(18)
C25 C 0.3808(4) -0.1485(3) 0.2172(2)
H15 H 0.369642 -0.186628 0.162815
H16 H 0.302865 -0.119517 0.227495
H17 H 0.385403 -0.186031 0.247416
C26 C 0.8581(4) 0.1039(3) 0.2962(2)
H18 H 0.908108 0.097647 0.252818
H19 H 0.914032 0.095845 0.336628
H20 H 0.837683 0.164389 0.315621
O3A O 1.0825(3) 0.2987(2) 0.06152(17)
O4A O 1.1244(3) 0.1485(2) -0.03648(16)
O5A O 0.4956(3) 0.07997(17) -0.23740(14)
O6A O 0.2664(3) -0.03666(17) -0.27213(14)
C9A C 0.6124(4) 0.1496(2) 0.0725(2)
H1A H 0.615438 0.213035 0.106183
H2A H 0.540626 0.132934 0.028293
C10A C 0.6670(4) -0.0233(2) -0.03900(19)
H3A H 0.713363 -0.073977 -0.060489
H4A H 0.624456 -0.031489 0.004078
C11A C 0.7483(4) 0.1453(2) 0.04367(18)
C12A C 0.8519(4) 0.2242(2) 0.0677(2)
H5A H 0.836494 0.279121 0.103146
C13A C 0.9771(4) 0.2240(3) 0.0408(2)
C14A C 1.0002(4) 0.1438(3) -0.0108(2)
C15A C 0.8994(4) 0.0653(3) -0.0346(2)
H6A H 0.916321 0.010599 -0.069755
C16A C 0.7733(4) 0.0644(2) -0.00838(18)
C17A C 1.0548(5) 0.3847(3) 0.1052(2)
H7A H 1.030997 0.384751 0.154332
H8A H 1.135957 0.432650 0.113948
H9A H 0.978433 0.395546 0.077256
C18A C 1.1364(5) 0.0722(3) -0.1016(3)
H10A H 1.126221 0.018244 -0.088648
H11A H 1.064935 0.061733 -0.143654
H12A H 1.226206 0.084206 -0.117171
C19A C 0.5548(4) -0.0298(2) -0.09990(18)
C20A C 0.5793(4) 0.0271(2) -0.14076(19)
H13A H 0.665177 0.068262 -0.129530
C21A C 0.4811(4) 0.0248(2) -0.19719(19)
C22A C 0.3553(4) -0.0379(2) -0.21510(19)
C23A C 0.3299(4) -0.0919(2) -0.17388(19)
H14A H 0.243424 -0.132325 -0.184783
C24A C 0.4284(4) -0.0890(2) -0.11576(18)
C25A C 0.6192(4) 0.1485(3) -0.2172(2)
H15A H 0.630358 0.186628 -0.162815
H16A H 0.697135 0.119517 -0.227495
H17A H 0.614597 0.186031 -0.247416
C26A C 0.1419(4) -0.1039(3) -0.2962(2)
H18A H 0.091892 -0.097647 -0.252818
H19A H 0.085968 -0.095845 -0.336628
H20A H 0.162317 -0.164389 -0.315621
O7 O 0.1313(3) 0.21159(18) 0.42205(15)
O8 O 0.0721(3) 0.27248(19) 0.31886(15)
O9 O 0.2455(3) 0.7409(2) 0.33212(16)
O10 O 0.3563(3) 0.6419(2) 0.22291(16)
C27 C 0.6037(4) 0.3995(2) 0.49256(18)
H21 H 0.663672 0.362694 0.462446
H22 H 0.641338 0.463644 0.500860
C28 C 0.5204(4) 0.4835(2) 0.3803(2)
H23 H 0.562238 0.457376 0.333963
H24 H 0.594807 0.513140 0.424136
C29 C 0.4619(4) 0.3701(2) 0.44595(18)
C30 C 0.3638(4) 0.3040(2) 0.45572(18)
H25 H 0.387015 0.278928 0.491859
C31 C 0.2344(4) 0.2740(2) 0.4146(2)
C32 C 0.2004(4) 0.3077(2) 0.3586(2)
C33 C 0.2964(4) 0.3741(2) 0.34923(19)
H26 H 0.273113 0.397677 0.312039
C34 C 0.4266(4) 0.4078(2) 0.39262(19)
C35 C 0.1530(5) 0.1847(3) 0.4851(2)
H27 H 0.226310 0.151208 0.478034
H28 H 0.068846 0.145703 0.487950
H29 H 0.178807 0.238657 0.532433
C36 C 0.0371(5) 0.3035(3) 0.2596(2)
H30 H 0.099899 0.289608 0.222049
H31 H 0.044079 0.369193 0.281762
H32 H -0.056597 0.272916 0.234608
C37 C 0.4479(4) 0.5547(2) 0.37137(19)
C38 C 0.4375(4) 0.5651(2) 0.3008(2)
H33 H 0.477103 0.528525 0.260319
C39 C 0.3704(4) 0.6276(3) 0.2899(2)
C40 C 0.3118(4) 0.6815(2) 0.3486(2)
C41 C 0.3233(4) 0.6728(2) 0.4188(2)
H34 H 0.284626 0.710077 0.459351
C42 C 0.3916(4) 0.6094(2) 0.43023(19)
C43 C 0.4364(7) 0.5992(4) 0.1665(3)
H35 H 0.423076 0.616831 0.122710
H36 H 0.407613 0.533122 0.149665
H37 H 0.533132 0.618470 0.188601
C44 C 0.1911(6) 0.8004(3) 0.3927(3)
H38 H 0.152149 0.842006 0.374949
H39 H 0.264144 0.835349 0.435718
H40 H 0.119742 0.764777 0.409082
O7A O 0.8687(3) 0.78841(18) 0.57795(15)
O8A O 0.9279(3) 0.72752(19) 0.68114(15)
O9A O 0.7545(3) 0.2591(2) 0.66788(16)
O10A O 0.6437(3) 0.3581(2) 0.77709(16)
C27A C 0.3963(4) 0.6005(2) 0.50744(18)
H21A H 0.336328 0.637306 0.537554
H22A H 0.358662 0.536356 0.499140
C28A C 0.4796(4) 0.5165(2) 0.6197(2)
H23A H 0.437762 0.542624 0.666037
H24A H 0.405193 0.486860 0.575864
C29A C 0.5381(4) 0.6299(2) 0.55405(18)
C30A C 0.6362(4) 0.6960(2) 0.54428(18)
H25A H 0.612985 0.721072 0.508141
C31A C 0.7656(4) 0.7260(2) 0.5854(2)
C32A C 0.7996(4) 0.6923(2) 0.6414(2)
C33A C 0.7036(4) 0.6259(2) 0.65077(19)
H26A H 0.726887 0.602323 0.687961
C34A C 0.5734(4) 0.5922(2) 0.60738(19)
C35A C 0.8470(5) 0.8153(3) 0.5149(2)
H27A H 0.773690 0.848792 0.521966
H28A H 0.931154 0.854297 0.512050
H29A H 0.821193 0.761343 0.467567
C36A C 0.9629(5) 0.6965(3) 0.7404(2)
H30A H 0.900101 0.710392 0.777951
H31A H 0.955921 0.630807 0.718238
H32A H 1.056597 0.727084 0.765392
C37A C 0.5521(4) 0.4453(2) 0.62863(19)
C38A C 0.5625(4) 0.4349(2) 0.6992(2)
H33A H 0.522897 0.471475 0.739681
C39A C 0.6296(4) 0.3724(3) 0.7101(2)
C40A C 0.6882(4) 0.3185(2) 0.6514(2)
C41A C 0.6767(4) 0.3272(2) 0.5812(2)
H34A H 0.715374 0.289923 0.540649
C42A C 0.6084(4) 0.3906(2) 0.56977(19)
C43A C 0.5636(7) 0.4008(4) 0.8335(3)
H35A H 0.576924 0.383169 0.877290
H36A H 0.592387 0.466878 0.850335
H37A H 0.466868 0.381530 0.811399
C44A C 0.8089(6) 0.1996(3) 0.6073(3)
H38A H 0.847851 0.157994 0.625051
H39A H 0.735856 0.164651 0.564282
H40A H 0.880258 0.235223 0.590918
Cl3 Cl 0.40243(12) 0.16992(8) 0.62441(6)
Cl4 Cl 0.17937(17) 0.01258(9) 0.55791(7)
Cl5 Cl 0.16951(19) 0.15483(12) 0.70049(12)
C45 C 0.2752(4) 0.0951(3) 0.6431(2)
H41 H 0.320159 0.063499 0.671320
Cl6 Cl 0.015(2) 0.7605(8) 0.1527(15)
Cl7 Cl -0.0621(5) 0.6021(3) 0.1872(4)
Cl8 Cl 0.1085(10) 0.6009(3) 0.0721(2)
C46 C 0.0647(15) 0.6667(7) 0.1598(7)
H42 H 0.147465 0.688286 0.199485
Cl12 Cl 0.3299(8) 0.3962(4) -0.0225(4)
Cl13 Cl 0.4469(3) 0.23781(14) -0.06030(14)
Cl14 Cl 0.5482(3) 0.38852(14) 0.0795(2)
C48 C 0.4020(8) 0.3254(5) 0.0139(4)
H44 H 0.334042 0.298418 0.039906
C51 C -0.0718(9) 0.5580(6) 0.3669(5)
H47 H -0.117064 0.603220 0.358641
H48 H -0.126350 0.497004 0.336557
H49 H 0.018980 0.564406 0.351454
C52 C -0.0582(9) 0.5723(6) 0.4502(6)
H50 H 0.005267 0.630949 0.480814
H51 H -0.148127 0.573596 0.467950
C53 C -0.0041(9) 0.4956(8) 0.4599(5)
H52 H -0.065120 0.436984 0.426871
H53 H 0.087651 0.496387 0.444296
C51A C 0.0718(9) 0.4420(6) 0.6331(5)
H47A H 0.117064 0.396780 0.641359
H48A H 0.126350 0.502996 0.663443
H49A H -0.018980 0.435594 0.648546
C52A C 0.0582(9) 0.4277(6) 0.5498(6)
H50A H -0.005267 0.369051 0.519186
H51A H 0.148127 0.426404 0.532050
C53A C 0.0041(9) 0.5044(8) 0.5401(5)
H52A H 0.065120 0.563016 0.573129
H53A H -0.087651 0.503613 0.555704
Cl9? Cl 0.030(5) 0.7674(18) 0.152(3)
Cl10? Cl -0.0489(13) 0.5844(9) 0.139(2)
Cl11? Cl 0.171(2) 0.636(2) 0.0634(6)
C47? C 0.088(3) 0.6700(14) 0.1441(16)
H43? H 0.154321 0.683742 0.190636
Cl15? Cl 0.3074(17) 0.4120(8) -0.0248(9)
Cl16? Cl 0.3599(11) 0.2445(4) -0.1144(6)
Cl17? Cl 0.5266(9) 0.3475(10) 0.0273(8)
C49? C 0.3626(16) 0.3180(10) -0.0203(8)
H45? H 0.299364 0.287272 0.005487
Cl18? Cl -0.2402(7) 0.4540(4) 0.2061(4)
Cl19? Cl -0.2079(6) 0.6222(4) 0.3276(5)
Cl20? Cl 0.0239(6) 0.5421(4) 0.3017(6)
C50? C -0.1536(14) 0.5197(10) 0.2972(10)
H46? H -0.179085 0.487582 0.332047
loop_
_geom_bond_atom_site_label_1
_geom_bond_atom_site_label_2
_geom_bond_site_symmetry_1
_geom_bond_site_symmetry_2
Cl1 C5 1_555 1_555
Cl2 C6 1_555 1_555
O1 C1 1_555 1_555
O2 C4 1_555 1_555
N1 C7 1_555 1_555
N2 C8 1_555 1_555
C1 C2 1_555 1_555
C2 C3 1_555 1_555
C3 C4 1_555 1_555
C4 C5 1_555 1_555
C5 C6 1_555 1_555
C6 C1 1_555 1_555
C7 C2 1_555 1_555
C8 C3 1_555 1_555
O3 C13 1_555 1_555
O4 C14 1_555 1_555
O5 C21 1_555 1_555
O6 C22 1_555 1_555
C9 H1 1_555 1_555
H2 C9 1_555 1_555
C10 H3 1_555 1_555
H4 C10 1_555 1_555
C11 C9 1_555 1_555
C12 C11 1_555 1_555
H5 C12 1_555 1_555
C13 C12 1_555 1_555
C14 C13 1_555 1_555
C15 C14 1_555 1_555
H6 C15 1_555 1_555
C16 C10 1_555 1_555
C17 O3 1_555 1_555
H7 C17 1_555 1_555
H8 C17 1_555 1_555
H9 C17 1_555 1_555
C18 O4 1_555 1_555
H10 C18 1_555 1_555
H11 C18 1_555 1_555
H12 C18 1_555 1_555
C19 C10 1_555 1_555
C20 C19 1_555 1_555
H13 C20 1_555 1_555
C21 C20 1_555 1_555
C22 C21 1_555 1_555
C23 C22 1_555 1_555
H14 C23 1_555 1_555
C24 C19 1_555 1_555
C25 O5 1_555 1_555
H15 C25 1_555 1_555
H16 C25 1_555 1_555
H17 C25 1_555 1_555
C26 O6 1_555 1_555
H18 C26 1_555 1_555
H19 C26 1_555 1_555
H20 C26 1_555 1_555
O7 C31 1_555 1_555
O8 C32 1_555 1_555
O9 C40 1_555 1_555
O10 C39 1_555 1_555
C27 H21 1_555 1_555
H22 C27 1_555 1_555
C28 H23 1_555 1_555
H24 C28 1_555 1_555
C29 C27 1_555 1_555
C30 C29 1_555 1_555
H25 C30 1_555 1_555
C31 C30 1_555 1_555
C32 C31 1_555 1_555
C33 C32 1_555 1_555
H26 C33 1_555 1_555
C34 C28 1_555 1_555
C35 O7 1_555 1_555
H27 C35 1_555 1_555
H28 C35 1_555 1_555
H29 C35 1_555 1_555
C36 O8 1_555 1_555
H30 C36 1_555 1_555
H31 C36 1_555 1_555
H32 C36 1_555 1_555
C37 C28 1_555 1_555
C38 C37 1_555 1_555
H33 C38 1_555 1_555
C39 C38 1_555 1_555
C40 C39 1_555 1_555
C41 C40 1_555 1_555
H34 C41 1_555 1_555
C42 C37 1_555 1_555
C43 O10 1_555 1_555
H35 C43 1_555 1_555
H36 C43 1_555 1_555
H37 C43 1_555 1_555
C44 O9 1_555 1_555
H38 C44 1_555 1_555
H39 C44 1_555 1_555
H40 C44 1_555 1_555
Cl3 C45 1_555 1_555
Cl4 C45 1_555 1_555
Cl5 C45 1_555 1_555
C45 H41 1_555 1_555
Cl6 C46 1_555 1_555
Cl7 C46 1_555 1_555
Cl8 C46 1_555 1_555
C46 H42 1_555 1_555
Cl12 C48 1_555 1_555
Cl13 C48 1_555 1_555
Cl14 C48 1_555 1_555
C48 H44 1_555 1_555
C51 H47 1_555 1_555
H48 C51 1_555 1_555
H49 C51 1_555 1_555
C52 C51 1_555 1_555
H50 C52 1_555 1_555
H51 C52 1_555 1_555
C53 C52 1_555 1_555
H52 C53 1_555 1_555
H53 C53 1_555 1_555
O3A C13A 1_555 1_555
O4A C14A 1_555 1_555
O5A C21A 1_555 1_555
O6A C22A 1_555 1_555
C9A C24 1_555 1_555
H1A C9A 1_555 1_555
H2A C9A 1_555 1_555
C10A H3A 1_555 1_555
H4A C10A 1_555 1_555
C11A C9A 1_555 1_555
C12A C11A 1_555 1_555
H5A C12A 1_555 1_555
C13A C12A 1_555 1_555
C14A C13A 1_555 1_555
C15A C14A 1_555 1_555
H6A C15A 1_555 1_555
C16A C10A 1_555 1_555
C17A O3A 1_555 1_555
H7A C17A 1_555 1_555
H8A C17A 1_555 1_555
H9A C17A 1_555 1_555
C18A O4A 1_555 1_555
H10A C18A 1_555 1_555
H11A C18A 1_555 1_555
H12A C18A 1_555 1_555
C19A C10A 1_555 1_555
C20A C19A 1_555 1_555
H13A C20A 1_555 1_555
C21A C20A 1_555 1_555
C22A C21A 1_555 1_555
C23A C22A 1_555 1_555
H14A C23A 1_555 1_555
C24A C9 1_555 1_555
C25A O5A 1_555 1_555
H15A C25A 1_555 1_555
H16A C25A 1_555 1_555
H17A C25A 1_555 1_555
C26A O6A 1_555 1_555
H18A C26A 1_555 1_555
H19A C26A 1_555 1_555
H20A C26A 1_555 1_555
O7A C31A 1_555 1_555
O8A C32A 1_555 1_555
O9A C40A 1_555 1_555
O10A C39A 1_555 1_555
C27A C42 1_555 1_555
H21A C27A 1_555 1_555
H22A C27A 1_555 1_555
C28A H23A 1_555 1_555
H24A C28A 1_555 1_555
C29A C27A 1_555 1_555
C30A C29A 1_555 1_555
H25A C30A 1_555 1_555
C31A C30A 1_555 1_555
C32A C31A 1_555 1_555
C33A C32A 1_555 1_555
H26A C33A 1_555 1_555
C34A C28A 1_555 1_555
C35A O7A 1_555 1_555
H27A C35A 1_555 1_555
H28A C35A 1_555 1_555
H29A C35A 1_555 1_555
C36A O8A 1_555 1_555
H30A C36A 1_555 1_555
H31A C36A 1_555 1_555
H32A C36A 1_555 1_555
C37A C28A 1_555 1_555
C38A C37A 1_555 1_555
H33A C38A 1_555 1_555
C39A C38A 1_555 1_555
C40A C39A 1_555 1_555
C41A C40A 1_555 1_555
H34A C41A 1_555 1_555
C42A C27 1_555 1_555
C43A O10A 1_555 1_555
H35A C43A 1_555 1_555
H36A C43A 1_555 1_555
H37A C43A 1_555 1_555
C44A O9A 1_555 1_555
H38A C44A 1_555 1_555
H39A C44A 1_555 1_555
H40A C44A 1_555 1_555
C51A H47A 1_555 1_555
H48A C51A 1_555 1_555
H49A C51A 1_555 1_555
C52A C51A 1_555 1_555
H50A C52A 1_555 1_555
H51A C52A 1_555 1_555
C53A C53 1_555 1_555
H52A C53A 1_555 1_555
H53A C53A 1_555 1_555
C11 C16 1_555 1_555
C15 C16 1_555 1_555
C23 C24 1_555 1_555
C29 C34 1_555 1_555
C33 C34 1_555 1_555
C41 C42 1_555 1_555
C11A C16A 1_555 1_555
C15A C16A 1_555 1_555
C19A C24A 1_555 1_555
C23A C24A 1_555 1_555
C29A C34A 1_555 1_555
C33A C34A 1_555 1_555
C37A C42A 1_555 1_555
C41A C42A 1_555 1_555
C52A C53A 1_555 1_555

#END
