
#######################################################################
#
#                 Cambridge Crystallographic Data Centre
#                                CCDC 
#
#######################################################################
#
# If this CIF has been generated from an entry in the Cambridge 
# Structural Database, then it will include bibliographic, chemical, 
# crystal, experimental, refinement or atomic coordinate data resulting 
# from the CCDC's data processing and validation procedures.
#
#######################################################################

data_PIMYOB
_chemical_formula_moiety         'C12 H15 N1 O2'
_chemical_name_systematic        
'Methyl 2-methyl-1,2,3,4-tetrahydroquinoline-3-carboxylate'
_symmetry_cell_setting           tetragonal
_symmetry_space_group_name_H-M   'P 41 21 2'
_symmetry_Int_Tables_number      92
_space_group_name_Hall           'P 4abw 2nw'
loop_
_symmetry_equiv_pos_site_id
_symmetry_equiv_pos_as_xyz
1 x,y,z
2 1/2-y,1/2+x,1/4+z
3 1/2+y,1/2-x,3/4+z
4 1/2+x,1/2-y,3/4-z
5 1/2-x,1/2+y,1/4-z
6 -x,-y,1/2+z
7 y,x,-z
8 -y,-x,1/2-z
_cell_length_a                   7.68240(10)
_cell_length_b                   7.68240(10)
_cell_length_c                   36.8746(5)
_cell_angle_alpha                90
_cell_angle_beta                 90
_cell_angle_gamma                90
_cell_volume                     2176.31
_exptl_crystal_colour            colorless
_exptl_crystal_description       block
_cell_formula_units_Z            8
loop_
_atom_site_label
_atom_site_type_symbol
_atom_site_fract_x
_atom_site_fract_y
_atom_site_fract_z
N1 N 0.11478(15) 0.22085(15) 0.05828(3)
H1 H 0.008(2) 0.181(2) 0.0655(4)
O1 O 0.56209(14) -0.06704(13) 0.07595(3)
O2 O 0.72008(12) 0.17606(14) 0.07947(3)
C1 C 0.12350(18) 0.39386(18) 0.04718(3)
C2 C -0.02914(19) 0.4825(2) 0.03777(4)
H2 H -0.1386 0.4262 0.0402
C3 C -0.0216(2) 0.6519(2) 0.02496(4)
H3 H -0.1261 0.7101 0.0185
C4 C 0.1366(3) 0.7379(2) 0.02147(4)
H4 H 0.1412 0.8540 0.0127
C5 C 0.2873(2) 0.65055(18) 0.03109(3)
H5 H 0.3959 0.7086 0.0289
C6 C 0.28426(17) 0.47976(17) 0.04393(3)
C7 C 0.45090(16) 0.38907(17) 0.05442(3)
H6 H 0.4895 0.4317 0.0784
H7 H 0.5427 0.4178 0.0366
C8 C 0.42714(15) 0.19105(16) 0.05596(3)
H8 H 0.4125 0.1486 0.0305
C9 C 0.26108(16) 0.14312(16) 0.07701(3)
H9 H 0.2471 0.0138 0.0760
C10 C 0.27160(18) 0.19697(17) 0.11714(3)
H10 H 0.2871 0.3233 0.1188
H11 H 0.3706 0.1384 0.1286
H12 H 0.1638 0.1635 0.1295
C11 C 0.58636(17) 0.10309(18) 0.07155(3)
C12 C 0.7017(2) -0.1597(2) 0.09372(5)
H13 H 0.8095 -0.1451 0.0798
H14 H 0.6725 -0.2837 0.0952
H15 H 0.7179 -0.1133 0.1182
loop_
_geom_bond_atom_site_label_1
_geom_bond_atom_site_label_2
_geom_bond_site_symmetry_1
_geom_bond_site_symmetry_2
N1 H1 1_555 1_555
O1 C11 1_555 1_555
O2 C11 1_555 1_555
C1 N1 1_555 1_555
C2 C1 1_555 1_555
H2 C2 1_555 1_555
C3 C2 1_555 1_555
H3 C3 1_555 1_555
C4 C3 1_555 1_555
H4 C4 1_555 1_555
C5 C4 1_555 1_555
H5 C5 1_555 1_555
C6 C1 1_555 1_555
C7 C6 1_555 1_555
H6 C7 1_555 1_555
H7 C7 1_555 1_555
C8 C7 1_555 1_555
H8 C8 1_555 1_555
C9 N1 1_555 1_555
H9 C9 1_555 1_555
C10 C9 1_555 1_555
H10 C10 1_555 1_555
H11 C10 1_555 1_555
H12 C10 1_555 1_555
C11 C8 1_555 1_555
C12 O1 1_555 1_555
H13 C12 1_555 1_555
H14 C12 1_555 1_555
H15 C12 1_555 1_555
C5 C6 1_555 1_555
C8 C9 1_555 1_555

#END
