
#######################################################################
#
#                 Cambridge Crystallographic Data Centre
#                                CCDC 
#
#######################################################################
#
# If this CIF has been generated from an entry in the Cambridge 
# Structural Database, then it will include bibliographic, chemical, 
# crystal, experimental, refinement or atomic coordinate data resulting 
# from the CCDC's data processing and validation procedures.
#
#######################################################################

data_PINYUJ
_chemical_formula_moiety         'C32 H26 N4 O6'
_chemical_name_systematic        
'ethyl 2-amino-3,6-dicyano-6a-(3-methoxyphenyl)-5-(3-methylphenyl)-4-(4-nitrophenyl)-6,6a-dihydro-5H-cyclopenta[b]furan-6-carboxylate unknown solvate'
_symmetry_cell_setting           monoclinic
_symmetry_space_group_name_H-M   'C 2/c'
_symmetry_Int_Tables_number      15
_space_group_name_Hall           '-C 2yn'
loop_
_symmetry_equiv_pos_site_id
_symmetry_equiv_pos_as_xyz
1 x,y,z
2 -x,y,1/2-z
3 1/2+x,1/2+y,z
4 1/2-x,1/2+y,1/2-z
5 -x,-y,-z
6 x,-y,1/2+z
7 1/2-x,1/2-y,-z
8 1/2+x,1/2-y,1/2+z
_cell_length_a                   19.2831(9)
_cell_length_b                   14.1684(6)
_cell_length_c                   23.4998(11)
_cell_angle_alpha                90
_cell_angle_beta                 96.936(2)
_cell_angle_gamma                90
_cell_volume                     6373.41
_exptl_crystal_colour            yellow
_exptl_crystal_description       block
_cell_formula_units_Z            8
loop_
_atom_site_label
_atom_site_type_symbol
_atom_site_fract_x
_atom_site_fract_y
_atom_site_fract_z
O1 O 0.17261(6) 0.68576(9) 0.43663(5)
O2 O 0.30909(9) 0.79251(10) 0.39005(7)
C1 C 0.19725(9) 0.63633(12) 0.38879(8)
C2 C 0.07363(11) 0.47092(14) 0.44629(9)
C3 C 0.12124(9) 0.63145(13) 0.45313(8)
C4 C 0.17977(9) 0.53420(13) 0.39863(8)
C5 C 0.28664(9) 0.53357(13) 0.36010(9)
H1 H 0.2777 0.5421 0.3185
C6 C 0.12047(9) 0.54010(13) 0.43117(8)
C7 C 0.22641(9) 0.47587(13) 0.37978(8)
N1 N 0.08146(9) 0.67273(12) 0.48706(7)
H2 H 0.0891 0.7305 0.4972
H3 H 0.0477 0.6421 0.4992
C8 C 0.16026(9) 0.68011(13) 0.33454(8)
C9 C 0.13937(10) 0.62638(15) 0.28615(9)
H4 H 0.1476 0.5617 0.2866
C10 C 0.27791(9) 0.63194(13) 0.38983(8)
C11 C 0.31088(10) 0.63038(13) 0.44987(10)
C12 C 0.35929(10) 0.49166(14) 0.37470(10)
O3 O 0.32255(10) 0.71061(12) 0.31128(8)
C13 C 0.22204(10) 0.37311(13) 0.37374(9)
C14 C 0.14725(11) 0.77736(14) 0.33280(10)
H5 H 0.1608 0.8145 0.3649
N2 N 0.03441(11) 0.41764(14) 0.45992(10)
O4 O 0.08856(11) 0.60980(14) 0.19146(7)
C15 C 0.37740(11) 0.44333(15) 0.42513(10)
H6 H 0.3434 0.4324 0.4492
N3 N 0.33820(11) 0.62967(13) 0.49575(9)
C16 C 0.09372(13) 0.76466(18) 0.23562(11)
H7 H 0.0715 0.7931 0.2027
C17 C 0.11459(13) 0.81778(17) 0.28382(11)
H8 H 0.1063 0.8825 0.2830
C18 C 0.24517(12) 0.32902(15) 0.32669(10)
H9 H 0.2681 0.3645 0.3014
C19 C 0.30696(10) 0.71525(15) 0.35853(10)
C20 C 0.10614(11) 0.66920(17) 0.23695(9)
C21 C 0.40969(11) 0.50645(17) 0.33858(11)
H10 H 0.3985 0.5385 0.3042
C22 C 0.44497(12) 0.41025(16) 0.44128(11)
O5 O 0.15308(18) 0.03960(18) 0.3729(2)
C23 C 0.23492(14) 0.23381(17) 0.31653(12)
H11 H 0.2501 0.2057 0.2845
C24 C 0.49419(13) 0.42644(19) 0.40437(14)
H12 H 0.5397 0.4052 0.4141
N4 N 0.18558(16) 0.08212(18) 0.3405(2)
C25 C 0.20278(13) 0.18223(16) 0.35340(15)
C26 C 0.32475(18) 0.88169(17) 0.36228(14)
H13 H 0.3710 0.8788 0.3500
H14 H 0.2911 0.8924 0.3288
C27 C 0.18259(16) 0.22205(19) 0.40468(16)
H15 H 0.1633 0.1850 0.4314
C28 C 0.47710(13) 0.4732(2) 0.35387(14)
H16 H 0.5109 0.4829 0.3294
C29 C 0.19285(14) 0.31765(17) 0.41312(13)
H17 H 0.1798 0.3455 0.4461
O6 O 0.2084(2) 0.04840(16) 0.29748(15)
C30 C 0.3215(2) 0.9583(2) 0.40317(16)
H18 H 0.2776 0.9562 0.4184
H19 H 0.3260 1.0177 0.3842
H20 H 0.3589 0.9517 0.4338
C31 C 0.46315(16) 0.3619(2) 0.49776(14)
H21 H 0.4503 0.2965 0.4942
H22 H 0.4383 0.3912 0.5261
H23 H 0.5125 0.3670 0.5093
C32 C 0.04925(19) 0.6469(3) 0.14158(13)
H24 H 0.0075 0.6760 0.1518
H25 H 0.0370 0.5968 0.1148
H26 H 0.0767 0.6931 0.1244
loop_
_geom_bond_atom_site_label_1
_geom_bond_atom_site_label_2
_geom_bond_site_symmetry_1
_geom_bond_site_symmetry_2
O1 C1 1_555 1_555
O2 C19 1_555 1_555
C1 C4 1_555 1_555
C2 C6 1_555 1_555
C3 O1 1_555 1_555
C4 C6 1_555 1_555
C5 H1 1_555 1_555
C6 C3 1_555 1_555
C7 C4 1_555 1_555
N1 C3 1_555 1_555
H2 N1 1_555 1_555
H3 N1 1_555 1_555
C8 C1 1_555 1_555
C9 C8 1_555 1_555
H4 C9 1_555 1_555
C10 C1 1_555 1_555
C11 C10 1_555 1_555
C12 C5 1_555 1_555
O3 C19 1_555 1_555
C13 C7 1_555 1_555
C14 C8 1_555 1_555
H5 C14 1_555 1_555
N2 C2 1_555 1_555
O4 C20 1_555 1_555
C15 C12 1_555 1_555
H6 C15 1_555 1_555
N3 C11 1_555 1_555
C16 H7 1_555 1_555
C17 C14 1_555 1_555
H8 C17 1_555 1_555
C18 C13 1_555 1_555
H9 C18 1_555 1_555
C19 C10 1_555 1_555
C20 C9 1_555 1_555
C21 C12 1_555 1_555
H10 C21 1_555 1_555
C22 C15 1_555 1_555
O5 N4 1_555 1_555
C23 C18 1_555 1_555
H11 C23 1_555 1_555
C24 C22 1_555 1_555
H12 C24 1_555 1_555
N4 C25 1_555 1_555
C25 C23 1_555 1_555
C26 O2 1_555 1_555
H13 C26 1_555 1_555
H14 C26 1_555 1_555
C27 C25 1_555 1_555
H15 C27 1_555 1_555
C28 C21 1_555 1_555
H16 C28 1_555 1_555
C29 C13 1_555 1_555
H17 C29 1_555 1_555
O6 N4 1_555 1_555
C30 C26 1_555 1_555
H18 C30 1_555 1_555
H19 C30 1_555 1_555
H20 C30 1_555 1_555
C31 C22 1_555 1_555
H21 C31 1_555 1_555
H22 C31 1_555 1_555
H23 C31 1_555 1_555
C32 O4 1_555 1_555
H24 C32 1_555 1_555
H25 C32 1_555 1_555
H26 C32 1_555 1_555
C5 C7 1_555 1_555
C5 C10 1_555 1_555
C16 C17 1_555 1_555
C16 C20 1_555 1_555
C24 C28 1_555 1_555
C27 C29 1_555 1_555

#END
