
#######################################################################
#
#                 Cambridge Crystallographic Data Centre
#                                CCDC 
#
#######################################################################
#
# If this CIF has been generated from an entry in the Cambridge 
# Structural Database, then it will include bibliographic, chemical, 
# crystal, experimental, refinement or atomic coordinate data resulting 
# from the CCDC's data processing and validation procedures.
#
#######################################################################

data_PINZAQ
_chemical_formula_moiety         'C32 H26 N4 O7'
_chemical_name_systematic        
'ethyl 2-amino-3,6-dicyano-5,6a-bis(4-methoxyphenyl)-4-(4-nitrophenyl)-6,6a-dihydro-5H-cyclopenta[b]furan-6-carboxylate'
_symmetry_cell_setting           monoclinic
_symmetry_space_group_name_H-M   'P 21/c'
_symmetry_Int_Tables_number      14
_space_group_name_Hall           '-P 2ybc'
loop_
_symmetry_equiv_pos_site_id
_symmetry_equiv_pos_as_xyz
1 x,y,z
2 -x,1/2+y,1/2-z
3 -x,-y,-z
4 x,1/2-y,1/2+z
_cell_length_a                   13.0781(8)
_cell_length_b                   16.9366(9)
_cell_length_c                   13.9466(7)
_cell_angle_alpha                90
_cell_angle_beta                 108.598(2)
_cell_angle_gamma                90
_cell_volume                     2927.83
_exptl_crystal_colour            yellow
_exptl_crystal_description       block
_cell_formula_units_Z            4
loop_
_atom_site_label
_atom_site_type_symbol
_atom_site_fract_x
_atom_site_fract_y
_atom_site_fract_z
O1 O 0.34863(15) 0.12854(11) 0.65675(14)
O2 O 0.33711(18) 0.48779(12) 0.75631(18)
C1 C -0.0209(2) 0.10963(17) 0.6534(2)
C2 C 0.1601(2) 0.11479(17) 0.8058(2)
H1 H 0.1500 0.1648 0.8370
C3 C 0.2294(2) 0.37611(17) 0.7422(2)
H2 H 0.1742 0.4091 0.7463
N1 N 0.3431(2) 0.12091(16) 0.4936(2)
H3 H 0.4120 0.1149 0.5159
H4 H 0.3099 0.1211 0.4296
O3 O 0.1016(2) -0.13967(14) 1.04606(18)
C4 C 0.1650(2) 0.13647(17) 0.6398(2)
C5 C 0.1785(2) 0.13824(17) 0.5408(2)
C6 C 0.1027(2) 0.14374(18) 0.4435(2)
C7 C 0.0819(3) -0.08817(19) 0.8778(2)
H5 H 0.0564 -0.1360 0.8464
C8 C 0.2886(2) 0.12974(17) 0.5574(2)
C9 C 0.0951(2) -0.02449(17) 0.8213(2)
H6 H 0.0782 -0.0302 0.7516
C10 C 0.2944(2) 0.24526(17) 0.7253(2)
C11 C 0.0969(2) 0.11859(17) 0.6919(2)
C12 C 0.2127(2) 0.29567(17) 0.7317(2)
H7 H 0.1460 0.2749 0.7288
N2 N 0.0418(2) 0.1498(2) 0.3637(2)
C13 C 0.3288(2) 0.40775(17) 0.7466(2)
C14 C 0.2753(2) 0.15660(17) 0.7097(2)
C15 C 0.1327(2) 0.04759(17) 0.8650(2)
O4 O 0.4589(2) 0.1243(2) 0.9144(2)
C16 C -0.0744(2) 0.08356(18) 0.5552(2)
H8 H -0.0343 0.0686 0.5138
O5 O 0.3329(2) 0.18956(16) 0.95717(19)
C17 C 0.1539(2) 0.05485(19) 0.9689(2)
H9 H 0.1766 0.1032 1.0000
C18 C -0.0829(3) 0.12920(19) 0.7147(2)
H10 H -0.0488 0.1443 0.7814
C19 C 0.3102(2) 0.02791(19) 0.7930(2)
C20 C 0.3936(2) 0.27802(18) 0.7319(2)
H11 H 0.4493 0.2450 0.7290
C21 C -0.2435(3) 0.1024(2) 0.5802(3)
C22 C 0.1417(3) -0.00800(19) 1.0264(2)
H12 H 0.1567 -0.0020 1.0958
C23 C -0.1857(3) 0.0796(2) 0.5183(3)
H13 H -0.2207 0.0618 0.4529
C24 C 0.3592(3) 0.1460(2) 0.9029(2)
C25 C 0.1070(3) -0.08034(19) 0.9814(2)
C26 C 0.4117(3) 0.35862(18) 0.7426(2)
H14 H 0.4790 0.3794 0.7472
C27 C -0.1947(3) 0.1265(2) 0.6779(3)
H15 H -0.2356 0.1408 0.7188
C28 C 0.2811(2) 0.10985(17) 0.8069(2)
N3 N 0.3311(3) -0.03524(18) 0.7790(3)
O6 O -0.4125(2) 0.1336(2) 0.5894(3)
N4 N -0.3622(3) 0.1009(2) 0.5397(3)
C29 C 0.4265(3) 0.5242(2) 0.7355(3)
H16 H 0.4923 0.5094 0.7867
H17 H 0.4185 0.5806 0.7354
H18 H 0.4287 0.5071 0.6706
O7 O -0.4051(2) 0.0682(2) 0.4592(3)
C30 C 0.0713(4) -0.2157(2) 1.0050(3)
H19 H -0.0033 -0.2153 0.9641
H20 H 0.0817 -0.2532 1.0589
H21 H 0.1150 -0.2304 0.9640
C31 C 0.5403(4) 0.1577(4) 1.0040(4)
H22 H 0.5113 0.2047 1.0255
H23 H 0.5563 0.1197 1.0588
C32 C 0.6347(5) 0.1769(5) 0.9844(5)
H24 H 0.6656 0.1300 0.9665
H25 H 0.6849 0.2000 1.0437
H26 H 0.6191 0.2139 0.9295
loop_
_geom_bond_atom_site_label_1
_geom_bond_atom_site_label_2
_geom_bond_site_symmetry_1
_geom_bond_site_symmetry_2
O1 C8 1_555 1_555
O2 C13 1_555 1_555
C1 C11 1_555 1_555
C2 H1 1_555 1_555
C3 H2 1_555 1_555
N1 H3 1_555 1_555
H4 N1 1_555 1_555
O3 C25 1_555 1_555
C4 C5 1_555 1_555
C5 C6 1_555 1_555
C6 N2 1_555 1_555
C7 H5 1_555 1_555
C8 N1 1_555 1_555
C9 C7 1_555 1_555
H6 C9 1_555 1_555
C10 C12 1_555 1_555
C11 C2 1_555 1_555
C12 C3 1_555 1_555
H7 C12 1_555 1_555
C13 C3 1_555 1_555
C14 O1 1_555 1_555
C15 C2 1_555 1_555
O4 C24 1_555 1_555
C16 C1 1_555 1_555
H8 C16 1_555 1_555
O5 C24 1_555 1_555
C17 C15 1_555 1_555
H9 C17 1_555 1_555
C18 C1 1_555 1_555
H10 C18 1_555 1_555
C19 C28 1_555 1_555
C20 C10 1_555 1_555
H11 C20 1_555 1_555
C21 C23 1_555 1_555
C22 C17 1_555 1_555
H12 C22 1_555 1_555
C23 C16 1_555 1_555
H13 C23 1_555 1_555
C24 C28 1_555 1_555
C25 C7 1_555 1_555
C26 C13 1_555 1_555
H14 C26 1_555 1_555
C27 C18 1_555 1_555
H15 C27 1_555 1_555
C28 C2 1_555 1_555
N3 C19 1_555 1_555
O6 N4 1_555 1_555
N4 C21 1_555 1_555
C29 O2 1_555 1_555
H16 C29 1_555 1_555
H17 C29 1_555 1_555
H18 C29 1_555 1_555
O7 N4 1_555 1_555
C30 O3 1_555 1_555
H19 C30 1_555 1_555
H20 C30 1_555 1_555
H21 C30 1_555 1_555
C31 O4 1_555 1_555
H22 C31 1_555 1_555
H23 C31 1_555 1_555
C32 C31 1_555 1_555
H24 C32 1_555 1_555
H25 C32 1_555 1_555
H26 C32 1_555 1_555
C4 C11 1_555 1_555
C4 C14 1_555 1_555
C5 C8 1_555 1_555
C9 C15 1_555 1_555
C10 C14 1_555 1_555
C14 C28 1_555 1_555
C20 C26 1_555 1_555
C21 C27 1_555 1_555
C22 C25 1_555 1_555

#END
