
#######################################################################
#
#                 Cambridge Crystallographic Data Centre
#                                CCDC 
#
#######################################################################
#
# If this CIF has been generated from an entry in the Cambridge 
# Structural Database, then it will include bibliographic, chemical, 
# crystal, experimental, refinement or atomic coordinate data resulting 
# from the CCDC's data processing and validation procedures.
#
#######################################################################

data_PIPMOT
_chemical_formula_moiety         'C10 H6 O6 S2 2-,2(C4 H12 N1 O3 1+)'
_chemical_name_systematic        
'bis(1,3-dihydroxy-2-(hydroxymethyl)propan-2-aminium) naphthalene-1,5-disulfonate'
_symmetry_cell_setting           triclinic
_symmetry_space_group_name_H-M   'P -1'
_symmetry_Int_Tables_number      2
_space_group_name_Hall           '-P 1'
loop_
_symmetry_equiv_pos_site_id
_symmetry_equiv_pos_as_xyz
1 x,y,z
2 -x,-y,-z
_cell_length_a                   6.9003(9)
_cell_length_b                   9.0333(12)
_cell_length_c                   10.0882(15)
_cell_angle_alpha                110.159(13)
_cell_angle_beta                 90.394(12)
_cell_angle_gamma                90.414(11)
_cell_volume                     590.256
_exptl_crystal_colour            colorless
_exptl_crystal_description       block
_cell_formula_units_Z            1
loop_
_atom_site_label
_atom_site_type_symbol
_atom_site_fract_x
_atom_site_fract_y
_atom_site_fract_z
N1 N 0.3122(4) 0.4266(3) 0.1180(2)
H1 H 0.3433 0.4053 0.0279
H2 H 0.4020 0.4900 0.1732
H3 H 0.1977 0.4740 0.1344
O1 O -0.0137(3) 0.2305(3) 0.0273(2)
H4 H -0.0071 0.2698 -0.0347
O2 O 0.3401(4) 0.4355(3) 0.3902(2)
H5 H 0.3152 0.4450 0.4720
O3 O 0.5833(3) 0.1977(3) 0.0062(2)
H6 H 0.7019 0.2000 0.0116
C1 C 0.3012(5) 0.2760(4) 0.1493(3)
C2 C 0.1670(5) 0.1623(4) 0.0400(3)
H7 H 0.2303 0.1280 -0.0510
H8 H 0.1441 0.0700 0.0662
C3 C 0.2227(5) 0.3141(4) 0.2971(3)
H9 H 0.0895 0.3486 0.3005
H10 H 0.2261 0.2211 0.3244
C4 C 0.5049(5) 0.2110(4) 0.1387(3)
H11 H 0.5857 0.2809 0.2137
H12 H 0.5017 0.1083 0.1494
O4 O 0.0162(3) 1.3738(3) 0.8302(2)
O5 O 0.3642(3) 1.3682(3) 0.8142(2)
O6 O 0.1717(3) 1.4381(3) 0.6427(2)
S1 S 0.18228(12) 1.34697(10) 0.73500(8)
C5 C 0.3160(5) 1.0485(4) 0.6379(3)
H13 H 0.4222 1.0904 0.6963
C6 C 0.1690(5) 1.1442(4) 0.6291(3)
C7 C 0.0036(5) 1.0822(4) 0.5396(3)
C8 C -0.1540(5) 1.1776(4) 0.5263(3)
H14 H -0.1508 1.2853 0.5769
C9 C -0.3078(5) 1.1143(4) 0.4415(3)
H15 H -0.4095 1.1787 0.4353
O4A O -0.0162(3) 0.6262(3) 0.1698(2)
O5A O -0.3642(3) 0.6318(3) 0.1858(2)
O6A O -0.1717(3) 0.5619(3) 0.3573(2)
S1A S -0.18228(12) 0.65303(10) 0.26500(8)
C5A C -0.3160(5) 0.9515(4) 0.3621(3)
H13A H -0.4222 0.9096 0.3037
C6A C -0.1690(5) 0.8558(4) 0.3709(3)
C7A C -0.0036(5) 0.9178(4) 0.4604(3)
C8A C 0.1540(5) 0.8224(4) 0.4737(3)
H14A H 0.1508 0.7147 0.4231
C9A C 0.3078(5) 0.8857(4) 0.5585(3)
H15A H 0.4095 0.8213 0.5647
loop_
_geom_bond_atom_site_label_1
_geom_bond_atom_site_label_2
_geom_bond_site_symmetry_1
_geom_bond_site_symmetry_2
N1 H1 1_555 1_555
H2 N1 1_555 1_555
H3 N1 1_555 1_555
O1 H4 1_555 1_555
O2 H5 1_555 1_555
O3 H6 1_555 1_555
C1 N1 1_555 1_555
C2 O1 1_555 1_555
H7 C2 1_555 1_555
H8 C2 1_555 1_555
C3 O2 1_555 1_555
H9 C3 1_555 1_555
H10 C3 1_555 1_555
C4 O3 1_555 1_555
H11 C4 1_555 1_555
H12 C4 1_555 1_555
O4 S1 1_555 1_555
O5 S1 1_555 1_555
O6 S1 1_555 1_555
S1 C6 1_555 1_555
C5 H13 1_555 1_555
C6 C5 1_555 1_555
C7 C6 1_555 1_555
C8 C7 1_555 1_555
H14 C8 1_555 1_555
C9 C8 1_555 1_555
H15 C9 1_555 1_555
O4A S1A 1_555 1_555
O5A S1A 1_555 1_555
O6A S1A 1_555 1_555
S1A C6A 1_555 1_555
C5A C9 1_555 1_555
H13A C5A 1_555 1_555
C6A C5A 1_555 1_555
C7A C7 1_555 1_555
C8A C7A 1_555 1_555
H14A C8A 1_555 1_555
C9A C5 1_555 1_555
H15A C9A 1_555 1_555
C1 C2 1_555 1_555
C1 C3 1_555 1_555
C1 C4 1_555 1_555
C6A C7A 1_555 1_555
C8A C9A 1_555 1_555

#END
