
#######################################################################
#
#                 Cambridge Crystallographic Data Centre
#                                CCDC 
#
#######################################################################
#
# If this CIF has been generated from an entry in the Cambridge 
# Structural Database, then it will include bibliographic, chemical, 
# crystal, experimental, refinement or atomic coordinate data resulting 
# from the CCDC's data processing and validation procedures.
#
#######################################################################

data_PIPTEN
_chemical_name_common            '(+-)-Diethyl (7)helicene-2,17-dicarboxylate'
_chemical_formula_moiety         'C36 H26 O4'
_chemical_name_systematic        
"(+-)-Diethyl dinaphtho(2,1-c:1',2'-g)phenanthrene-2,17-dicarboxylate"
_symmetry_cell_setting           triclinic
_symmetry_space_group_name_H-M   'P -1'
_symmetry_Int_Tables_number      2
_space_group_name_Hall           '-P 1'
loop_
_symmetry_equiv_pos_site_id
_symmetry_equiv_pos_as_xyz
1 x,y,z
2 -x,-y,-z
_cell_length_a                   7.793(3)
_cell_length_b                   12.764(4)
_cell_length_c                   14.872(4)
_cell_angle_alpha                111.496(7)
_cell_angle_beta                 102.180(7)
_cell_angle_gamma                93.431(9)
_cell_volume                     1330.05
_exptl_crystal_colour            yellow
_chemical_melting_point          '246-247 deg.C'
_cell_formula_units_Z            2
loop_
_atom_site_label
_atom_site_type_symbol
_atom_site_fract_x
_atom_site_fract_y
_atom_site_fract_z
C1 C 0.6148(9) 0.6061(6) 0.1585(7)
C2 C 0.7519(7) 0.5345(4) 0.1438(4)
O1 O 0.7236(4) 0.4417(2) 0.1754(3)
C3 C 0.7880(5) 0.4612(4) 0.2717(4)
O2 O 0.8690(4) 0.5517(2) 0.3320(2)
C4 C 0.7526(4) 0.3595(3) 0.2933(3)
C5 C 0.8462(5) 0.3585(4) 0.3848(3)
C6 C 0.8247(5) 0.2632(4) 0.4049(3)
C7 C 0.7049(5) 0.1655(4) 0.3351(3)
C8 C 0.5967(4) 0.1697(3) 0.2478(2)
C9 C 0.6291(4) 0.2666(3) 0.2260(2)
C10 C 0.6992(6) 0.0612(4) 0.3499(3)
C11 C 0.6022(6) -0.0345(4) 0.2770(4)
C12 C 0.4889(5) -0.0338(3) 0.1887(3)
C13 C 0.4701(4) 0.0705(3) 0.1789(2)
C14 C 0.3977(6) -0.1381(3) 0.1096(4)
C15 C 0.3003(5) -0.1376(3) 0.0235(3)
C16 C 0.2656(4) -0.0339(3) 0.0146(3)
C17 C 0.3306(4) 0.0701(3) 0.0975(2)
C18 C 0.1630(5) -0.0364(4) -0.0775(3)
C19 C 0.1281(5) 0.0620(4) -0.0871(3)
C20 C 0.1682(4) 0.1661(3) -0.0025(3)
C21 C 0.2497(4) 0.1685(3) 0.0924(2)
C22 C 0.1230(5) 0.2671(4) -0.0136(3)
C23 C 0.1559(5) 0.3666(4) 0.0668(3)
C24 C 0.2146(4) 0.3692(3) 0.1646(3)
C25 C 0.2433(4) 0.2676(3) 0.1786(3)
C26 C 0.2424(5) 0.4739(3) 0.2491(3)
C27 C 0.2888(5) 0.4783(3) 0.3428(3)
C28 C 0.2908(4) 0.3766(3) 0.3601(3)
C29 C 0.2586(4) 0.2705(3) 0.2783(2)
C30 C 0.3155(5) 0.3803(3) 0.4578(3)
C31 C 0.2962(5) 0.2828(4) 0.4746(3)
C32 C 0.2471(4) 0.1767(3) 0.3933(3)
C33 C 0.2278(4) 0.1715(3) 0.2976(2)
C34 C 0.2094(5) 0.0748(4) 0.4153(3)
O3 O 0.2251(4) 0.0770(3) 0.4979(2)
O4 O 0.1500(4) -0.0191(2) 0.3331(2)
C35 C 0.0878(8) -0.1249(5) 0.3467(4)
C36 C 0.2320(10) -0.1867(6) 0.3476(5)
H1 H 0.640 0.681 0.153
H2 H 0.611 0.620 0.229
H3 H 0.498 0.564 0.112
H4 H 0.751 0.502 0.071
H5 H 0.870 0.582 0.184
H6 H 0.929 0.428 0.435
H7 H 0.894 0.262 0.469
H8 H 0.562 0.268 0.161
H9 H 0.767 0.059 0.414
H10 H 0.610 -0.109 0.285
H11 H 0.407 -0.212 0.118
H12 H 0.252 -0.211 -0.035
H13 H 0.117 -0.111 -0.135
H14 H 0.073 0.061 -0.155
H15 H 0.066 0.265 -0.081
H16 H 0.139 0.439 0.057
H17 H 0.227 0.546 0.238
H18 H 0.322 0.554 0.400
H19 H 0.348 0.456 0.516
H20 H 0.317 0.287 0.544
H21 H 0.191 0.096 0.240
H22 H -0.016 -0.171 0.290
H23 H 0.053 -0.104 0.411
H24 H 0.199 -0.251 0.367
H25 H 0.326 -0.129 0.404
H26 H 0.278 -0.216 0.287
loop_
_geom_bond_atom_site_label_1
_geom_bond_atom_site_label_2
_geom_bond_site_symmetry_1
_geom_bond_site_symmetry_2
C1 C2 1_555 1_555
C2 O1 1_555 1_555
O1 C3 1_555 1_555
C3 O2 1_555 1_555
C4 C3 1_555 1_555
C5 C4 1_555 1_555
C6 C5 1_555 1_555
C7 C6 1_555 1_555
C8 C7 1_555 1_555
C9 C4 1_555 1_555
C10 C7 1_555 1_555
C11 C10 1_555 1_555
C12 C11 1_555 1_555
C13 C8 1_555 1_555
C14 C12 1_555 1_555
C15 C14 1_555 1_555
C16 C15 1_555 1_555
C17 C13 1_555 1_555
C18 C16 1_555 1_555
C19 C18 1_555 1_555
C20 C19 1_555 1_555
C21 C17 1_555 1_555
C22 C20 1_555 1_555
C23 C22 1_555 1_555
C24 C23 1_555 1_555
C25 C21 1_555 1_555
C26 C24 1_555 1_555
C27 C26 1_555 1_555
C28 C27 1_555 1_555
C29 C25 1_555 1_555
C30 C28 1_555 1_555
C31 C30 1_555 1_555
C32 C31 1_555 1_555
C33 C29 1_555 1_555
C34 C32 1_555 1_555
O3 C34 1_555 1_555
O4 C34 1_555 1_555
C35 O4 1_555 1_555
C36 C35 1_555 1_555
H1 C1 1_555 1_555
H2 C1 1_555 1_555
H3 C1 1_555 1_555
H4 C2 1_555 1_555
H5 C2 1_555 1_555
H6 C5 1_555 1_555
H7 C6 1_555 1_555
H8 C9 1_555 1_555
H9 C10 1_555 1_555
H10 C11 1_555 1_555
H11 C14 1_555 1_555
H12 C15 1_555 1_555
H13 C18 1_555 1_555
H14 C19 1_555 1_555
H15 C22 1_555 1_555
H16 C23 1_555 1_555
H17 C26 1_555 1_555
H18 C27 1_555 1_555
H19 C30 1_555 1_555
H20 C31 1_555 1_555
H21 C33 1_555 1_555
H22 C35 1_555 1_555
H23 C35 1_555 1_555
H24 C36 1_555 1_555
H25 C36 1_555 1_555
H26 C36 1_555 1_555
C8 C9 1_555 1_555
C12 C13 1_555 1_555
C16 C17 1_555 1_555
C20 C21 1_555 1_555
C24 C25 1_555 1_555
C28 C29 1_555 1_555
C32 C33 1_555 1_555

#END
