
#######################################################################
#
#                 Cambridge Crystallographic Data Centre
#                                CCDC 
#
#######################################################################
#
# If this CIF has been generated from an entry in the Cambridge 
# Structural Database, then it will include bibliographic, chemical, 
# crystal, experimental, refinement or atomic coordinate data resulting 
# from the CCDC's data processing and validation procedures.
#
#######################################################################

data_PIPVAL
_chemical_formula_moiety         'C6 H8 N2 O5'
_chemical_name_systematic        'Ethyl (-)-(S)-alloxanate'
_symmetry_cell_setting           monoclinic
_symmetry_space_group_name_H-M   'P 21'
_symmetry_Int_Tables_number      4
_space_group_name_Hall           'P 2yb'
loop_
_symmetry_equiv_pos_site_id
_symmetry_equiv_pos_as_xyz
1 x,y,z
2 -x,1/2+y,-z
_cell_length_a                   7.156(1)
_cell_length_b                   6.466(1)
_cell_length_c                   8.419(2)
_cell_angle_alpha                90
_cell_angle_beta                 91.69(1)
_cell_angle_gamma                90
_cell_volume                     389.384
_exptl_crystal_colour            colorless
_chemical_melting_point          '136-137 deg.C'
_cell_formula_units_Z            2
loop_
_atom_site_label
_atom_site_type_symbol
_atom_site_fract_x
_atom_site_fract_y
_atom_site_fract_z
N1 N 0.3732(1) 0.2282(2) 0.3117(1)
N2 N 0.2163(1) 0.4825(2) 0.4240(1)
O1 O 0.1035(2) 0.1489(2) 0.4394(1)
O2 O 0.3993(1) 0.7633(1) 0.3631(1)
O3 O 0.6591(1) 0.4173(2) 0.3003(1)
O4 O 0.5674(1) 0.4908(2) -0.0038(1)
O5 O 0.2646(1) 0.4336(2) 0.0436(1)
C1 C 0.2189(2) 0.2702(2) 0.3946(1)
C2 C 0.3592(2) 0.5816(2) 0.3545(1)
C3 C 0.4691(2) 0.4142(2) 0.2636(1)
C4 C 0.4427(2) 0.4515(2) 0.0829(1)
C5 C 0.2087(2) 0.4464(3) -0.1245(1)
C6 C 0.0326(2) 0.3270(3) -0.1462(2)
H1 H 0.3841(1) 0.1126(2) 0.2549(1)
H2 H 0.1319(1) 0.5545(2) 0.4850(1)
H3 H 0.6874(1) 0.4094(2) 0.4207(1)
H4 H 0.3083(2) 0.3853(3) -0.1909(1)
H5 H 0.1866(2) 0.5934(3) -0.1568(1)
H6 H -0.0113(2) 0.3298(3) -0.2601(2)
H7 H 0.0564(2) 0.1808(3) -0.1127(2)
H8 H -0.0653(2) 0.3889(3) -0.1127(2)
loop_
_geom_bond_atom_site_label_1
_geom_bond_atom_site_label_2
_geom_bond_site_symmetry_1
_geom_bond_site_symmetry_2
N1 C1 1_555 1_555
N2 C1 1_555 1_555
O1 C1 1_555 1_555
O2 C2 1_555 1_555
O3 C3 1_555 1_555
O4 C4 1_555 1_555
O5 C4 1_555 1_555
C2 N2 1_555 1_555
C3 N1 1_555 1_555
C4 C3 1_555 1_555
C5 O5 1_555 1_555
C6 C5 1_555 1_555
H1 N1 1_555 1_555
H2 N2 1_555 1_555
H3 O3 1_555 1_555
H4 C5 1_555 1_555
H5 C5 1_555 1_555
H6 C6 1_555 1_555
H7 C6 1_555 1_555
H8 C6 1_555 1_555
C2 C3 1_555 1_555

#END
