
#######################################################################
#
#                 Cambridge Crystallographic Data Centre
#                                CCDC 
#
#######################################################################
#
# If this CIF has been generated from an entry in the Cambridge 
# Structural Database, then it will include bibliographic, chemical, 
# crystal, experimental, refinement or atomic coordinate data resulting 
# from the CCDC's data processing and validation procedures.
#
#######################################################################

data_PIQHIJ
_chemical_formula_moiety         
'C40 H34 N4 O2 2+,2(C7 H7 O3 S1 1-),2(C1 H4 O1)'
_chemical_name_systematic        
'22,29-dioxa-5,12,21,30-tetra-azaheptacyclo[30.2.2.2^2,5^.2^7,10^.2^12,15^.2^16,19^.2^24,27^]hexatetraconta-1(34),2,4,7,9,12,14,16,18,20,24,26,30,32,35,37,39,41,43,45-icosaene-5,12-di-ium bis(p-toluenesulfonate) methanol solvate'
_symmetry_cell_setting           monoclinic
_symmetry_space_group_name_H-M   'P 21/n'
_symmetry_Int_Tables_number      14
_space_group_name_Hall           '-P 2yn'
loop_
_symmetry_equiv_pos_site_id
_symmetry_equiv_pos_as_xyz
1 x,y,z
2 1/2-x,1/2+y,1/2-z
3 -x,-y,-z
4 1/2+x,1/2-y,1/2+z
_cell_length_a                   9.7408(3)
_cell_length_b                   12.8906(3)
_cell_length_c                   39.6425(10)
_cell_angle_alpha                90
_cell_angle_beta                 92.180(2)
_cell_angle_gamma                90
_cell_volume                     4974.1
_exptl_crystal_colour            colorless
_exptl_crystal_description       block
_cell_formula_units_Z            4
loop_
_atom_site_label
_atom_site_type_symbol
_atom_site_fract_x
_atom_site_fract_y
_atom_site_fract_z
S1 S 1.32670(8) 0.51000(7) 0.72132(2)
O1 O 1.3169(3) 0.6215(2) 0.72425(7)
O2 O 1.2787(3) 0.4547(3) 0.75031(7)
O3 O 1.4615(3) 0.4762(3) 0.71145(9)
C1 C 1.2129(3) 0.4739(3) 0.68723(8)
C2 C 1.2456(5) 0.3959(4) 0.66542(11)
H1 H 1.329934 0.359228 0.668028
C3 C 1.1497(6) 0.3721(4) 0.63892(12)
H2 H 1.169478 0.317918 0.623618
C4 C 1.0272(6) 0.4264(4) 0.63481(12)
C5 C 0.9958(5) 0.4998(3) 0.65800(11)
H3 H 0.909499 0.534145 0.656331
C6 C 1.0879(4) 0.5242(3) 0.68372(10)
H4 H 1.065540 0.576661 0.699425
C7 C 0.9269(8) 0.4016(6) 0.60562(16)
H5 H 0.842130 0.373218 0.614423
H6 H 0.968165 0.350509 0.590753
H7 H 0.905896 0.465113 0.592847
S2 S 1.56358(9) -0.06530(7) 0.64612(2)
O4 O 1.4750(3) -0.0482(2) 0.67392(6)
O5 O 1.7041(3) -0.0844(2) 0.65759(7)
O6 O 1.5118(4) -0.1412(2) 0.62216(7)
C8 C 1.5700(3) 0.0542(3) 0.62386(8)
C9 C 1.6410(4) 0.0558(3) 0.59416(9)
H8 H 1.680385 -0.006206 0.585950
C10 C 1.6544(4) 0.1472(3) 0.57655(9)
H9 H 1.703968 0.147338 0.556370
C11 C 1.5971(4) 0.2387(3) 0.58762(9)
C12 C 1.5291(4) 0.2365(3) 0.61756(10)
H10 H 1.490784 0.298845 0.625866
C13 C 1.5153(4) 0.1455(3) 0.63577(10)
H11 H 1.468507 0.145870 0.656359
C14 C 1.6078(5) 0.3358(4) 0.56714(12)
H12 H 1.697791 0.338240 0.556903
H13 H 1.597509 0.396308 0.581789
H14 H 1.535256 0.336348 0.549334
O7 O 1.3363(5) 0.3499(3) 0.45421(8)
O8 O 1.2305(3) -0.0990(2) 0.56118(7)
N1 N 1.3342(5) 0.3948(3) 0.48660(9)
N2 N 1.1439(3) -0.0301(3) 0.57816(8)
N3 N 0.8278(3) 0.4053(2) 0.74302(7)
N4 N 1.0521(3) 0.8011(2) 0.66392(7)
C15 C 1.4255(8) 0.2606(4) 0.45622(13)
H15 H 1.513615 0.280452 0.467694
H16 H 1.445288 0.237351 0.433106
C16 C 1.3627(6) 0.1722(4) 0.47511(11)
C17 C 1.2430(7) 0.1228(5) 0.46335(12)
H17 H 1.197337 0.147359 0.443300
C18 C 1.1893(5) 0.0398(4) 0.47994(11)
H18 H 1.107669 0.007729 0.471201
C19 C 1.2524(4) 0.0024(4) 0.50914(10)
C20 C 1.3691(6) 0.0517(4) 0.52165(12)
H19 H 1.413199 0.028077 0.542014
C21 C 1.4228(6) 0.1360(5) 0.50461(13)
H20 H 1.503059 0.169241 0.513657
C22 C 1.1985(5) -0.0942(4) 0.52554(10)
H21 H 1.097516 -0.096977 0.521759
H22 H 1.238001 -0.155758 0.514556
C23 C 1.1876(4) -0.0206(3) 0.60852(9)
H23 H 1.269089 -0.055730 0.615882
C24 C 1.1722(3) 0.0585(3) 0.66472(9)
H24 H 1.255265 0.023759 0.671080
C25 C 1.1110(3) 0.1227(3) 0.68768(8)
H25 H 1.152626 0.132027 0.709531
C26 C 0.9884(3) 0.1740(2) 0.67903(8)
C27 C 0.9264(4) 0.1542(3) 0.64729(9)
H26 H 0.840118 0.184932 0.641438
C28 C 0.9885(4) 0.0909(3) 0.62429(9)
H27 H 0.945279 0.079179 0.602742
C29 C 0.9301(3) 0.2512(2) 0.70217(8)
C30 C 1.0079(3) 0.2924(3) 0.72933(8)
H28 H 1.098354 0.267341 0.734051
C31 C 0.9552(3) 0.3684(3) 0.74922(8)
H29 H 1.009396 0.395351 0.767628
C32 C 0.7479(3) 0.3661(3) 0.71765(8)
H30 H 0.656962 0.391418 0.713935
C33 C 0.7968(3) 0.2902(3) 0.69717(8)
H31 H 0.739393 0.263599 0.679299
C34 C 0.7768(3) 0.4944(3) 0.76340(8)
H32 H 0.808585 0.486520 0.787283
H33 H 0.675064 0.495101 0.762467
C35 C 0.8304(3) 0.5942(2) 0.74945(8)
C36 C 0.7540(3) 0.6446(3) 0.72407(8)
H34 H 0.664430 0.620596 0.717739
C37 C 0.8085(3) 0.7300(3) 0.70794(8)
H35 H 0.755885 0.764478 0.690664
C38 C 0.9400(3) 0.7655(2) 0.71698(8)
C39 C 1.0123(3) 0.7193(3) 0.74379(8)
H36 H 1.099259 0.746040 0.751094
C40 C 0.9576(3) 0.6335(3) 0.76007(8)
H37 H 1.007378 0.602054 0.778431
C41 C 1.0056(4) 0.8482(3) 0.69611(8)
H38 H 0.938569 0.904265 0.690984
H39 H 1.085140 0.878552 0.708883
C42 C 1.1826(4) 0.7670(3) 0.66143(9)
H40 H 1.247290 0.776977 0.679694
C43 C 1.2222(4) 0.7180(3) 0.63251(9)
H41 H 1.314791 0.696189 0.630722
C44 C 1.1276(4) 0.7000(3) 0.60578(9)
C45 C 0.9956(4) 0.7371(3) 0.60942(9)
H42 H 0.928539 0.727219 0.591684
C46 C 0.9602(4) 0.7879(3) 0.63823(8)
H43 H 0.869513 0.814015 0.640003
C47 C 1.1639(4) 0.6436(3) 0.57489(9)
C48 C 1.2702(4) 0.5717(3) 0.57541(11)
H44 H 1.322969 0.560326 0.595731
C49 C 1.3002(5) 0.5162(4) 0.54669(11)
H45 H 1.373439 0.467530 0.547586
C50 C 1.2256(5) 0.5306(3) 0.51684(10)
C51 C 1.1214(5) 0.6030(4) 0.51602(10)
H46 H 1.070224 0.615073 0.495518
C52 C 1.0904(5) 0.6583(3) 0.54468(10)
H47 H 1.017422 0.707249 0.543607
C53 C 1.2483(6) 0.4703(3) 0.48608(11)
H48 H 1.199096 0.487345 0.465685
C54 C 1.1143(3) 0.0439(3) 0.63250(8)
O9 O 1.5373(9) 0.5092(5) 0.64174(15)
H49 H 1.505206 0.513730 0.661052
C55 C 1.6085(7) 0.5963(5) 0.63501(16)
H50 H 1.639165 0.593662 0.611768
H51 H 1.688504 0.601533 0.650652
H52 H 1.549258 0.657013 0.637723
O10 O 1.0158(10) 0.2121(6) 0.54260(16)
C56 C 1.1788(13) 0.2430(8) 0.5540(3)
H53 H 1.232185 0.251863 0.533701
H54 H 1.219260 0.187334 0.567921
H55 H 1.179899 0.307854 0.566878
loop_
_geom_bond_atom_site_label_1
_geom_bond_atom_site_label_2
_geom_bond_site_symmetry_1
_geom_bond_site_symmetry_2
S1 O1 1_555 1_555
O2 S1 1_555 1_555
O3 S1 1_555 1_555
C1 S1 1_555 1_555
C2 C1 1_555 1_555
H1 C2 1_555 1_555
C3 C2 1_555 1_555
H2 C3 1_555 1_555
C4 C3 1_555 1_555
C5 C4 1_555 1_555
H3 C5 1_555 1_555
C6 C1 1_555 1_555
H4 C6 1_555 1_555
C7 C4 1_555 1_555
H5 C7 1_555 1_555
H6 C7 1_555 1_555
H7 C7 1_555 1_555
S2 O4 1_555 1_555
O5 S2 1_555 1_555
O6 S2 1_555 1_555
C8 S2 1_555 1_555
C9 C8 1_555 1_555
H8 C9 1_555 1_555
C10 C9 1_555 1_555
H9 C10 1_555 1_555
C11 C10 1_555 1_555
C12 C11 1_555 1_555
H10 C12 1_555 1_555
C13 C8 1_555 1_555
H11 C13 1_555 1_555
C14 C11 1_555 1_555
H12 C14 1_555 1_555
H13 C14 1_555 1_555
H14 C14 1_555 1_555
O7 N1 1_555 1_555
O8 N2 1_555 1_555
N1 C53 1_555 1_555
N2 C23 1_555 1_555
N3 C31 1_555 1_555
N4 C41 1_555 1_555
C15 O7 1_555 1_555
H15 C15 1_555 1_555
H16 C15 1_555 1_555
C16 C15 1_555 1_555
C17 C16 1_555 1_555
H17 C17 1_555 1_555
C18 C17 1_555 1_555
H18 C18 1_555 1_555
C19 C18 1_555 1_555
C20 C19 1_555 1_555
H19 C20 1_555 1_555
C21 C16 1_555 1_555
H20 C21 1_555 1_555
C22 O8 1_555 1_555
H21 C22 1_555 1_555
H22 C22 1_555 1_555
C23 H23 1_555 1_555
C24 H24 1_555 1_555
C25 C24 1_555 1_555
H25 C25 1_555 1_555
C26 C25 1_555 1_555
C27 C26 1_555 1_555
H26 C27 1_555 1_555
C28 C27 1_555 1_555
H27 C28 1_555 1_555
C29 C26 1_555 1_555
C30 C29 1_555 1_555
H28 C30 1_555 1_555
C31 C30 1_555 1_555
H29 C31 1_555 1_555
C32 N3 1_555 1_555
H30 C32 1_555 1_555
C33 C29 1_555 1_555
H31 C33 1_555 1_555
C34 N3 1_555 1_555
H32 C34 1_555 1_555
H33 C34 1_555 1_555
C35 C34 1_555 1_555
C36 C35 1_555 1_555
H34 C36 1_555 1_555
C37 C36 1_555 1_555
H35 C37 1_555 1_555
C38 C37 1_555 1_555
C39 C38 1_555 1_555
H36 C39 1_555 1_555
C40 C35 1_555 1_555
H37 C40 1_555 1_555
C41 C38 1_555 1_555
H38 C41 1_555 1_555
H39 C41 1_555 1_555
C42 N4 1_555 1_555
H40 C42 1_555 1_555
C43 C42 1_555 1_555
H41 C43 1_555 1_555
C44 C43 1_555 1_555
C45 C44 1_555 1_555
H42 C45 1_555 1_555
C46 N4 1_555 1_555
H43 C46 1_555 1_555
C47 C44 1_555 1_555
C48 C47 1_555 1_555
H44 C48 1_555 1_555
C49 C48 1_555 1_555
H45 C49 1_555 1_555
C50 C49 1_555 1_555
C51 C50 1_555 1_555
H46 C51 1_555 1_555
C52 C47 1_555 1_555
H47 C52 1_555 1_555
C53 C50 1_555 1_555
H48 C53 1_555 1_555
C54 C23 1_555 1_555
O9 H49 1_555 1_555
C55 O9 1_555 1_555
H50 C55 1_555 1_555
H51 C55 1_555 1_555
H52 C55 1_555 1_555
O10 C56 1_555 1_555
C56 H53 1_555 1_555
H54 C56 1_555 1_555
H55 C56 1_555 1_555
C5 C6 1_555 1_555
C12 C13 1_555 1_555
C19 C22 1_555 1_555
C20 C21 1_555 1_555
C24 C54 1_555 1_555
C28 C54 1_555 1_555
C32 C33 1_555 1_555
C39 C40 1_555 1_555
C45 C46 1_555 1_555
C51 C52 1_555 1_555

#END
