
#######################################################################
#
#                 Cambridge Crystallographic Data Centre
#                                CCDC 
#
#######################################################################
#
# If this CIF has been generated from an entry in the Cambridge 
# Structural Database, then it will include bibliographic, chemical, 
# crystal, experimental, refinement or atomic coordinate data resulting 
# from the CCDC's data processing and validation procedures.
#
#######################################################################

data_PIQHOP
_chemical_formula_moiety         'C40 H34 N4 O2 2+,2(Cl1 1-)'
_chemical_name_systematic        
'22,29-dioxa-5,12,21,30-tetra-azaheptacyclo[30.2.2.2^2,5^.2^7,10^.2^12,15^.2^16,19^.2^24,27^]hexatetraconta-1(34),2,4,7,9,12,14,16,18,20,24,26,30,32,35,37,39,41,43,45-icosaene-5,12-di-ium dichloride unknown solvate'
_symmetry_cell_setting           monoclinic
_symmetry_space_group_name_H-M   'P 21/c'
_symmetry_Int_Tables_number      14
_space_group_name_Hall           '-P 2ybc'
loop_
_symmetry_equiv_pos_site_id
_symmetry_equiv_pos_as_xyz
1 x,y,z
2 -x,1/2+y,1/2-z
3 -x,-y,-z
4 x,1/2-y,1/2+z
_cell_length_a                   15.9769(5)
_cell_length_b                   16.2675(5)
_cell_length_c                   33.7182(10)
_cell_angle_alpha                90
_cell_angle_beta                 101.610(2)
_cell_angle_gamma                90
_cell_volume                     8584.2
_exptl_crystal_colour            colorless
_exptl_crystal_description       prism
_cell_formula_units_Z            8
loop_
_atom_site_label
_atom_site_type_symbol
_atom_site_fract_x
_atom_site_fract_y
_atom_site_fract_z
Cl1 Cl 0.01455(11) 1.00033(10) 0.32539(5)
Cl2 Cl 0.45113(11) 0.94151(10) 0.17624(5)
Cl3 Cl 0.99088(11) 0.93634(10) 0.17416(5)
Cl4 Cl 0.44707(11) 0.50737(10) 0.17753(5)
O1 O 0.6656(4) 0.7366(4) 0.54922(16)
O2 O 1.1013(4) 0.7239(4) 0.54672(17)
N1 N 0.5368(4) 0.7293(3) 0.22785(17)
N2 N 0.9461(4) 0.7227(3) 0.22584(16)
N3 N 1.0750(5) 0.7523(5) 0.5069(2)
N4 N 0.6616(5) 0.7622(5) 0.5084(2)
C1 C 0.5404(4) 0.7310(5) 0.1833(2)
H1 H 0.512956 0.781736 0.170637
H2 H 0.509267 0.683153 0.169351
C2 C 0.6332(4) 0.7283(4) 0.17914(19)
C3 C 0.6789(5) 0.8015(4) 0.1761(2)
H3 H 0.650121 0.852943 0.173708
C4 C 0.7635(5) 0.7982(4) 0.1767(2)
H4 H 0.793610 0.848325 0.175724
C5 C 0.8078(4) 0.7260(4) 0.1785(2)
C6 C 0.7625(5) 0.6545(4) 0.1808(2)
H5 H 0.791927 0.603526 0.182499
C7 C 0.6758(5) 0.6542(4) 0.1806(2)
H6 H 0.646112 0.603800 0.181443
C8 C 0.9037(5) 0.7235(5) 0.1830(2)
H7 H 0.920013 0.673694 0.169523
H8 H 0.922796 0.772148 0.169609
C9 C 0.9588(4) 0.6488(4) 0.2460(2)
H9 H 0.949374 0.598986 0.231047
C10 C 0.9844(4) 0.6457(4) 0.2865(2)
H10 H 0.992178 0.594014 0.299829
C11 C 0.9994(5) 0.7173(4) 0.3089(2)
C12 C 0.9898(5) 0.7914(4) 0.2884(2)
H11 H 1.001521 0.841713 0.302760
C13 C 0.9633(4) 0.7914(4) 0.2471(2)
H12 H 0.956969 0.842504 0.233229
C14 C 1.0255(4) 0.7149(4) 0.3544(2)
C15 C 1.0449(6) 0.6394(5) 0.3742(2)
H13 H 1.043717 0.590966 0.358371
C16 C 1.0656(7) 0.6328(6) 0.4155(2)
H14 H 1.079028 0.580768 0.427914
C17 C 1.0666(6) 0.7050(5) 0.4395(2)
C18 C 1.0493(6) 0.7792(5) 0.4194(3)
H15 H 1.052615 0.827912 0.435135
C19 C 1.0276(5) 0.7865(5) 0.3778(2)
H16 H 1.014333 0.838545 0.365364
C20 C 1.0897(6) 0.6940(6) 0.4837(2)
H17 H 1.115202 0.644216 0.494868
C21 C 1.0794(7) 0.7846(6) 0.5736(3)
H18 H 1.098971 0.839120 0.566084
H19 H 1.109628 0.772198 0.601536
C22 C 0.9844(6) 0.7880(6) 0.5724(3)
C23 C 0.9476(8) 0.8556(6) 0.5837(3)
H20 H 0.982092 0.902553 0.591936
C24 C 0.8629(8) 0.8597(6) 0.5839(3)
H21 H 0.839819 0.909760 0.591523
C25 C 0.8099(6) 0.7942(5) 0.5736(2)
C26 C 0.8485(7) 0.7213(6) 0.5648(4)
H22 H 0.815685 0.672423 0.559235
C27 C 0.9317(7) 0.7208(6) 0.5644(3)
H23 H 0.956297 0.670538 0.558023
C28 C 0.7172(6) 0.7960(6) 0.5746(3)
H24 H 0.710693 0.787094 0.602899
H25 H 0.694894 0.851566 0.566450
C29 C 0.6326(6) 0.7023(5) 0.4841(3)
H26 H 0.623193 0.650544 0.495556
C30 C 0.6139(5) 0.7104(5) 0.4407(3)
C31 C 0.5982(5) 0.6409(5) 0.4182(2)
H27 H 0.598030 0.589366 0.431487
C32 C 0.5821(5) 0.6434(5) 0.3755(2)
H28 H 0.574710 0.594155 0.360074
C33 C 0.5775(5) 0.7192(4) 0.3565(2)
C34 C 0.5911(5) 0.7912(5) 0.3795(2)
H29 H 0.587782 0.843209 0.366436
C35 C 0.6094(6) 0.7865(5) 0.4214(2)
H30 H 0.618906 0.835472 0.437007
C36 C 0.5586(4) 0.7247(4) 0.3109(2)
C37 C 0.5533(4) 0.7972(4) 0.2902(2)
H31 H 0.556767 0.847459 0.304763
C38 C 0.5432(5) 0.7990(4) 0.2489(2)
H32 H 0.540708 0.850313 0.235214
C39 C 0.5403(4) 0.6565(4) 0.2469(2)
H33 H 0.535011 0.606940 0.231701
C40 C 0.5515(5) 0.6535(4) 0.2883(2)
H34 H 0.554328 0.601736 0.301570
O3 O 0.3575(5) 0.9945(3) 0.54737(17)
O4 O 0.3969(5) 0.5529(4) 0.54930(19)
N5 N 0.2415(3) 0.9179(3) 0.22775(16)
N6 N 0.2378(4) 0.5229(3) 0.22860(17)
N7 N 0.4020(6) 0.5591(4) 0.50628(19)
N8 N 0.3206(5) 0.9681(4) 0.5072(2)
C41 C 0.2205(4) 0.8979(4) 0.18369(19)
H35 H 0.264622 0.921241 0.170120
H36 H 0.164712 0.922500 0.171210
C42 C 0.2166(4) 0.8043(3) 0.17809(17)
C43 C 0.2904(5) 0.7608(4) 0.1740(2)
H37 H 0.340073 0.789390 0.170250
C44 C 0.2896(5) 0.6737(5) 0.1756(2)
H38 H 0.340137 0.643567 0.174744
C45 C 0.2165(4) 0.6335(4) 0.17843(19)
C46 C 0.1429(5) 0.6760(4) 0.1812(2)
H39 H 0.092621 0.646843 0.183591
C47 C 0.1426(5) 0.7623(4) 0.1805(2)
H40 H 0.091728 0.791646 0.181614
C48 C 0.2180(5) 0.5400(4) 0.1837(2)
H41 H 0.161829 0.516265 0.171122
H42 H 0.262219 0.515386 0.170634
C49 C 0.1731(5) 0.5157(4) 0.2484(2)
H43 H 0.115948 0.514371 0.233436
C50 C 0.1884(4) 0.5102(4) 0.2898(2)
H44 H 0.141968 0.505159 0.303363
C51 C 0.2731(4) 0.5119(4) 0.3124(2)
C52 C 0.3365(5) 0.5152(4) 0.2903(2)
H45 H 0.394518 0.512854 0.304076
C53 C 0.3184(4) 0.5216(4) 0.2492(2)
H46 H 0.363882 0.525146 0.235012
C54 C 0.2902(4) 0.5110(4) 0.3576(2)
C55 C 0.2269(5) 0.4917(4) 0.3785(2)
H47 H 0.171471 0.477044 0.364202
C56 C 0.2446(5) 0.4939(5) 0.4203(2)
H48 H 0.201187 0.478674 0.434416
C57 C 0.3236(6) 0.5176(5) 0.4422(2)
C58 C 0.3860(5) 0.5362(5) 0.4209(3)
H49 H 0.441059 0.551484 0.435446
C59 C 0.3714(5) 0.5336(5) 0.3795(2)
H50 H 0.415880 0.546839 0.365699
C60 C 0.3358(5) 0.5229(5) 0.4863(2)
H51 H 0.294839 0.499743 0.499891
C61 C 0.4569(7) 0.6127(6) 0.5716(3)
H52 H 0.475461 0.593709 0.599946
H53 H 0.508087 0.615609 0.559339
C62 C 0.4201(6) 0.6937(5) 0.5717(2)
C63 C 0.3360(6) 0.7086(7) 0.5633(4)
H54 H 0.297516 0.663591 0.558295
C64 C 0.3014(7) 0.7924(7) 0.5618(5)
H55 H 0.242171 0.802482 0.552475
C65 C 0.3579(5) 0.8564(5) 0.5743(2)
C66 C 0.4427(6) 0.8386(6) 0.5855(3)
H56 H 0.481175 0.881601 0.595762
C67 C 0.4750(6) 0.7609(6) 0.5826(3)
H57 H 0.535091 0.752634 0.587983
C68 C 0.3240(7) 0.9422(5) 0.5758(2)
H58 H 0.260761 0.941467 0.568602
H59 H 0.341247 0.964501 0.603551
C69 C 0.3637(6) 0.9940(5) 0.4833(2)
H60 H 0.413347 1.025564 0.493542
C70 C 0.3407(5) 0.9776(4) 0.4394(2)
C71 C 0.4049(6) 0.9824(6) 0.4177(2)
H61 H 0.461770 0.995082 0.430852
C72 C 0.3847(5) 0.9681(5) 0.3749(2)
H62 H 0.427954 0.971870 0.359361
C73 C 0.2994(4) 0.9480(4) 0.3560(2)
C74 C 0.2386(5) 0.9391(5) 0.3789(2)
H63 H 0.182323 0.922931 0.366450
C75 C 0.2592(5) 0.9537(5) 0.4207(2)
H64 H 0.216574 0.947083 0.436384
C76 C 0.2788(4) 0.9377(4) 0.31114(19)
C77 C 0.3433(5) 0.9304(4) 0.2890(2)
H65 H 0.401345 0.931388 0.302721
C78 C 0.3239(4) 0.9217(5) 0.2477(2)
H66 H 0.368644 0.918389 0.232944
C79 C 0.1769(4) 0.9282(4) 0.2479(2)
H67 H 0.119515 0.928817 0.233211
C80 C 0.1932(4) 0.9378(4) 0.2893(2)
H68 H 0.147386 0.944480 0.303160
loop_
_geom_bond_atom_site_label_1
_geom_bond_atom_site_label_2
_geom_bond_site_symmetry_1
_geom_bond_site_symmetry_2
O1 N4 1_555 1_555
O2 N3 1_555 1_555
N1 C1 1_555 1_555
N2 C8 1_555 1_555
N3 C20 1_555 1_555
N4 C29 1_555 1_555
C1 H1 1_555 1_555
H2 C1 1_555 1_555
C2 C1 1_555 1_555
C3 C2 1_555 1_555
H3 C3 1_555 1_555
C4 C3 1_555 1_555
H4 C4 1_555 1_555
C5 C4 1_555 1_555
C6 C5 1_555 1_555
H5 C6 1_555 1_555
C7 C2 1_555 1_555
H6 C7 1_555 1_555
C8 C5 1_555 1_555
H7 C8 1_555 1_555
H8 C8 1_555 1_555
C9 N2 1_555 1_555
H9 C9 1_555 1_555
C10 C9 1_555 1_555
H10 C10 1_555 1_555
C11 C10 1_555 1_555
C12 C11 1_555 1_555
H11 C12 1_555 1_555
C13 N2 1_555 1_555
H12 C13 1_555 1_555
C14 C11 1_555 1_555
C15 C14 1_555 1_555
H13 C15 1_555 1_555
C16 C15 1_555 1_555
H14 C16 1_555 1_555
C17 C16 1_555 1_555
C18 C17 1_555 1_555
H15 C18 1_555 1_555
C19 C14 1_555 1_555
H16 C19 1_555 1_555
C20 C17 1_555 1_555
H17 C20 1_555 1_555
C21 O2 1_555 1_555
H18 C21 1_555 1_555
H19 C21 1_555 1_555
C22 C21 1_555 1_555
C23 C22 1_555 1_555
H20 C23 1_555 1_555
C24 C23 1_555 1_555
H21 C24 1_555 1_555
C25 C24 1_555 1_555
C26 C25 1_555 1_555
H22 C26 1_555 1_555
C27 C22 1_555 1_555
H23 C27 1_555 1_555
C28 O1 1_555 1_555
H24 C28 1_555 1_555
H25 C28 1_555 1_555
C29 H26 1_555 1_555
C30 C29 1_555 1_555
C31 C30 1_555 1_555
H27 C31 1_555 1_555
C32 C31 1_555 1_555
H28 C32 1_555 1_555
C33 C32 1_555 1_555
C34 C33 1_555 1_555
H29 C34 1_555 1_555
C35 C30 1_555 1_555
H30 C35 1_555 1_555
C36 C33 1_555 1_555
C37 C36 1_555 1_555
H31 C37 1_555 1_555
C38 N1 1_555 1_555
H32 C38 1_555 1_555
C39 N1 1_555 1_555
H33 C39 1_555 1_555
C40 C36 1_555 1_555
H34 C40 1_555 1_555
O3 N8 1_555 1_555
O4 N7 1_555 1_555
N5 C41 1_555 1_555
N6 C48 1_555 1_555
N7 C60 1_555 1_555
N8 C69 1_555 1_555
C41 H35 1_555 1_555
H36 C41 1_555 1_555
C42 C41 1_555 1_555
C43 C42 1_555 1_555
H37 C43 1_555 1_555
C44 C43 1_555 1_555
H38 C44 1_555 1_555
C45 C44 1_555 1_555
C46 C45 1_555 1_555
H39 C46 1_555 1_555
C47 C42 1_555 1_555
H40 C47 1_555 1_555
C48 C45 1_555 1_555
H41 C48 1_555 1_555
H42 C48 1_555 1_555
C49 N6 1_555 1_555
H43 C49 1_555 1_555
C50 C49 1_555 1_555
H44 C50 1_555 1_555
C51 C50 1_555 1_555
C52 C51 1_555 1_555
H45 C52 1_555 1_555
C53 N6 1_555 1_555
H46 C53 1_555 1_555
C54 C51 1_555 1_555
C55 C54 1_555 1_555
H47 C55 1_555 1_555
C56 C55 1_555 1_555
H48 C56 1_555 1_555
C57 C56 1_555 1_555
C58 C57 1_555 1_555
H49 C58 1_555 1_555
C59 C54 1_555 1_555
H50 C59 1_555 1_555
C60 C57 1_555 1_555
H51 C60 1_555 1_555
C61 O4 1_555 1_555
H52 C61 1_555 1_555
H53 C61 1_555 1_555
C62 C61 1_555 1_555
C63 C62 1_555 1_555
H54 C63 1_555 1_555
C64 C63 1_555 1_555
H55 C64 1_555 1_555
C65 C64 1_555 1_555
C66 C65 1_555 1_555
H56 C66 1_555 1_555
C67 C62 1_555 1_555
H57 C67 1_555 1_555
C68 O3 1_555 1_555
H58 C68 1_555 1_555
H59 C68 1_555 1_555
C69 H60 1_555 1_555
C70 C69 1_555 1_555
C71 C70 1_555 1_555
H61 C71 1_555 1_555
C72 C71 1_555 1_555
H62 C72 1_555 1_555
C73 C72 1_555 1_555
C74 C73 1_555 1_555
H63 C74 1_555 1_555
C75 C70 1_555 1_555
H64 C75 1_555 1_555
C76 C73 1_555 1_555
C77 C76 1_555 1_555
H65 C77 1_555 1_555
C78 N5 1_555 1_555
H66 C78 1_555 1_555
C79 N5 1_555 1_555
H67 C79 1_555 1_555
C80 C76 1_555 1_555
H68 C80 1_555 1_555
C6 C7 1_555 1_555
C12 C13 1_555 1_555
C18 C19 1_555 1_555
C25 C28 1_555 1_555
C26 C27 1_555 1_555
C34 C35 1_555 1_555
C37 C38 1_555 1_555
C39 C40 1_555 1_555
C46 C47 1_555 1_555
C52 C53 1_555 1_555
C58 C59 1_555 1_555
C65 C68 1_555 1_555
C66 C67 1_555 1_555
C74 C75 1_555 1_555
C77 C78 1_555 1_555
C79 C80 1_555 1_555

#END
