
#######################################################################
#
#                 Cambridge Crystallographic Data Centre
#                                CCDC 
#
#######################################################################
#
# If this CIF has been generated from an entry in the Cambridge 
# Structural Database, then it will include bibliographic, chemical, 
# crystal, experimental, refinement or atomic coordinate data resulting 
# from the CCDC's data processing and validation procedures.
#
#######################################################################

data_PIRCOI
_chemical_formula_moiety         'C42 H44 N4 O8'
_chemical_name_systematic        
trans-(13,17-bis(Methoxycarbonylethyl)-2,7,12,18-tetramethyl-8-vinyl-2,3-(4',5'-bis(methoxycarbonyl)benzo))porphyrin
_chemical_properties_biological  
'Photosensitizer drug used in photodynamic therapy of tumours'
_symmetry_cell_setting           triclinic
_symmetry_space_group_name_H-M   'P -1'
_symmetry_Int_Tables_number      2
_space_group_name_Hall           '-P 1'
loop_
_symmetry_equiv_pos_site_id
_symmetry_equiv_pos_as_xyz
1 x,y,z
2 -x,-y,-z
_cell_length_a                   10.695(6)
_cell_length_b                   13.895(5)
_cell_length_c                   14.188(5)
_cell_angle_alpha                71.22(3)
_cell_angle_beta                 71.57(4)
_cell_angle_gamma                72.41(4)
_cell_volume                     1846.05
_exptl_crystal_colour            red
_chemical_melting_point          '138-142 deg.C'
_cell_formula_units_Z            2
loop_
_atom_site_label
_atom_site_type_symbol
_atom_site_fract_x
_atom_site_fract_y
_atom_site_fract_z
N1 N 0.5204(4) 0.7857(3) 0.8810(3)
N2 N 0.3379(4) 0.8619(3) 0.7367(3)
N3 N 0.5747(4) 0.8433(3) 0.5689(3)
N4 N 0.7556(4) 0.7648(3) 0.7075(3)
C1 C 0.6190(5) 0.7497(4) 0.9315(4)
C2 C 0.5648(5) 0.7599(4) 1.0420(4)
C3 C 0.6027(5) 0.6667(4) 1.1312(3)
C4 C 0.5039(5) 0.6839(4) 1.2313(3)
C5 C 0.3756(5) 0.7383(4) 1.2344(4)
C6 C 0.3241(5) 0.7809(4) 1.1424(4)
C7 C 0.6132(7) 0.5620(5) 1.1138(5)
C8 C 0.5160(9) 0.4231(6) 1.1439(8)
C9 C 0.5523(5) 0.6324(4) 1.3253(4)
C10 C 0.5260(6) 0.6303(4) 1.4983(4)
C11 C 0.6058(5) 0.8554(4) 1.0499(4)
O1 O 0.7147(5) 0.5146(3) 1.0662(4)
O2 O 0.5053(5) 0.5271(4) 1.1529(5)
O3 O 0.6542(4) 0.5640(3) 1.3278(3)
O4 O 0.4750(4) 0.6689(3) 1.4064(3)
C12 C 0.4130(5) 0.7843(4) 1.0516(4)
C13 C 0.3973(5) 0.8081(4) 0.9463(3)
C14 C 0.2723(5) 0.8445(4) 0.9224(4)
C15 C 0.2435(5) 0.8682(4) 0.8279(3)
C16 C 0.1129(5) 0.9057(4) 0.8069(4)
C17 C -0.0182(5) 0.9249(4) 0.8854(4)
C18 C 0.1317(5) 0.9224(4) 0.7023(3)
C19 C 0.0302(5) 0.9634(4) 0.6421(4)
C20 C -0.0924(6) 1.0156(6) 0.6670(5)
C21 C 0.2741(5) 0.8949(3) 0.6581(3)
C22 C 0.3403(5) 0.9042(4) 0.5557(4)
C23 C 0.4789(5) 0.8823(3) 0.5127(3)
C24 C 0.5409(5) 0.8969(4) 0.4037(3)
C25 C 0.4662(5) 0.9411(4) 0.3204(3)
C26 C 0.6764(5) 0.8643(4) 0.3941(3)
C27 C 0.7882(5) 0.8576(4) 0.2982(4)
C28 C 0.8277(5) 0.7501(5) 0.2792(4)
C29 C 0.9432(6) 0.7378(5) 0.1881(4)
C30 C 1.0847(7) 0.6218(6) 0.0883(5)
O5 O 1.0053(4) 0.8034(3) 0.1361(3)
O6 O 0.9719(4) 0.6429(3) 0.1722(3)
C31 C 0.6956(5) 0.8325(4) 0.4980(3)
C32 C 0.8230(5) 0.7964(4) 0.5195(4)
C33 C 0.8502(5) 0.7649(4) 0.6149(4)
C34 C 0.9813(5) 0.7219(4) 0.6380(4)
C35 C 1.1131(5) 0.7079(5) 0.5587(4)
C36 C 1.1587(7) 0.6032(6) 0.5345(5)
C37 C 1.1398(6) 0.6008(6) 0.4365(5)
C38 C 1.1860(10) 0.4917(6) 0.3305(6)
O7 O 1.0937(5) 0.6734(4) 0.3741(3)
O8 O 1.1847(5) 0.5031(4) 0.4252(4)
C39 C 0.9620(5) 0.6959(4) 0.7423(4)
C40 C 1.0691(5) 0.6460(5) 0.8015(4)
C41 C 0.8203(5) 0.7230(4) 0.7873(4)
C42 C 0.7554(5) 0.7181(4) 0.8887(4)
H1 H 0.5337 0.7940 0.8133
H2 H 0.5610 0.8281 0.6375
H3 H 0.6906 0.6668 1.1353
H4 H 0.3172 0.7502 1.2986
H5 H 0.2288 0.8046 1.1468
H6 H 0.4289 0.4064 1.1751
H7 H 0.5422 0.4216 1.0730
H8 H 0.5814 0.3730 1.1788
H9 H 0.4628 0.6612 1.5514
H10 H 0.5371 0.5559 1.5204
H11 H 0.6116 0.6477 1.4839
H12 H 0.5726 0.8627 1.1191
H13 H 0.7024 0.8455 1.0303
H14 H 0.5667 0.9172 1.0046
H15 H 0.1956 0.8545 0.9789
H16 H -0.0928 0.9502 0.8534
H17 H -0.0278 0.8604 0.9359
H18 H -0.0172 0.9753 0.9180
H19 H 0.0572 0.9480 0.5763
H20 H -0.1364 1.0318 0.6126
H21 H -0.1423 0.9763 0.7287
H23 H 0.2835 0.9295 0.5082
H24 H 0.5288 0.9432 0.2545
H25 H 0.4057 0.8978 0.3305
H26 H 0.4152 1.0104 0.3235
H27 H 0.8661 0.8742 0.3037
H28 H 0.7513 0.7358 0.2690
H29 H 0.8515 0.6997 0.3390
H30 H 1.0964 0.5522 0.0833
H31 H 1.0703 0.6706 0.0251
H32 H 1.1643 0.6279 0.1017
H33 H 0.8998 0.7948 0.4618
H34 H 1.1805 0.7189 0.5831
H35 H 1.1040 0.7605 0.4963
H36 H 1.1113 0.5562 0.5901
H37 H 1.2534 0.5778 0.5323
H38 H 1.2195 0.4200 0.3280
H39 H 1.0950 0.5150 0.3226
H40 H 1.2421 0.5335 0.2762
H41 H 1.1562 0.6349 0.7545
H42 H 1.0671 0.6911 0.8411
H43 H 1.0529 0.5803 0.8465
H44 H 0.8128 0.6889 0.9358
H22? H -0.0887 1.0791 0.6783
loop_
_geom_bond_atom_site_label_1
_geom_bond_atom_site_label_2
_geom_bond_site_symmetry_1
_geom_bond_site_symmetry_2
N1 C1 1_555 1_555
N2 C15 1_555 1_555
N3 C23 1_555 1_555
N4 C33 1_555 1_555
C1 C2 1_555 1_555
C2 C3 1_555 1_555
C3 C4 1_555 1_555
C4 C5 1_555 1_555
C5 C6 1_555 1_555
C6 C12 1_555 1_555
C7 C3 1_555 1_555
C8 O2 1_555 1_555
C9 C4 1_555 1_555
C10 O4 1_555 1_555
C11 C2 1_555 1_555
O1 C7 1_555 1_555
O2 C7 1_555 1_555
O3 C9 1_555 1_555
O4 C9 1_555 1_555
C12 C2 1_555 1_555
C13 N1 1_555 1_555
C14 C13 1_555 1_555
C15 C14 1_555 1_555
C16 C15 1_555 1_555
C17 C16 1_555 1_555
C18 C16 1_555 1_555
C19 C18 1_555 1_555
C20 C19 1_555 1_555
C21 N2 1_555 1_555
C22 C21 1_555 1_555
C23 C22 1_555 1_555
C24 C23 1_555 1_555
C25 C24 1_555 1_555
C26 C24 1_555 1_555
C27 C26 1_555 1_555
C28 C27 1_555 1_555
C29 C28 1_555 1_555
C30 O6 1_555 1_555
O5 C29 1_555 1_555
O6 C29 1_555 1_555
C31 N3 1_555 1_555
C32 C31 1_555 1_555
C33 C32 1_555 1_555
C34 C33 1_555 1_555
C35 C34 1_555 1_555
C36 C35 1_555 1_555
C37 C36 1_555 1_555
C38 O8 1_555 1_555
O7 C37 1_555 1_555
O8 C37 1_555 1_555
C39 C34 1_555 1_555
C40 C39 1_555 1_555
C41 N4 1_555 1_555
C42 C1 1_555 1_555
H1 N1 1_555 1_555
H2 N3 1_555 1_555
H3 C3 1_555 1_555
H4 C5 1_555 1_555
H5 C6 1_555 1_555
H6 C8 1_555 1_555
H7 C8 1_555 1_555
H8 C8 1_555 1_555
H9 C10 1_555 1_555
H10 C10 1_555 1_555
H11 C10 1_555 1_555
H12 C11 1_555 1_555
H13 C11 1_555 1_555
H14 C11 1_555 1_555
H15 C14 1_555 1_555
H16 C17 1_555 1_555
H17 C17 1_555 1_555
H18 C17 1_555 1_555
H19 C19 1_555 1_555
H20 C20 1_555 1_555
H21 C20 1_555 1_555
H23 C22 1_555 1_555
H24 C25 1_555 1_555
H25 C25 1_555 1_555
H26 C25 1_555 1_555
H27 C27 1_555 1_555
H28 C28 1_555 1_555
H29 C28 1_555 1_555
H30 C30 1_555 1_555
H31 C30 1_555 1_555
H32 C30 1_555 1_555
H33 C32 1_555 1_555
H34 C35 1_555 1_555
H35 C35 1_555 1_555
H36 C36 1_555 1_555
H37 C36 1_555 1_555
H38 C38 1_555 1_555
H39 C38 1_555 1_555
H40 C38 1_555 1_555
H41 C40 1_555 1_555
H42 C40 1_555 1_555
H43 C40 1_555 1_555
H44 C42 1_555 1_555
C12 C13 1_555 1_555
C18 C21 1_555 1_555
C26 C31 1_555 1_555
C39 C41 1_555 1_555
C41 C42 1_555 1_555

#END
