
#######################################################################
#
#                 Cambridge Crystallographic Data Centre
#                                CCDC 
#
#######################################################################
#
# If this CIF has been generated from an entry in the Cambridge 
# Structural Database, then it will include bibliographic, chemical, 
# crystal, experimental, refinement or atomic coordinate data resulting 
# from the CCDC's data processing and validation procedures.
#
#######################################################################

data_PIRKAF
_chemical_formula_moiety         'C13 H16 O4'
_chemical_name_systematic        
'methyl 1-methylidene-8-oxohexahydro-1H-3a,6-epoxyazulene-8a(4H)-carboxylate'
_symmetry_cell_setting           triclinic
_symmetry_space_group_name_H-M   'P -1'
_symmetry_Int_Tables_number      2
_space_group_name_Hall           '-P 1'
loop_
_symmetry_equiv_pos_site_id
_symmetry_equiv_pos_as_xyz
1 x,y,z
2 -x,-y,-z
_cell_length_a                   7.140(3)
_cell_length_b                   8.234(3)
_cell_length_c                   21.457(5)
_cell_angle_alpha                91.441(4)
_cell_angle_beta                 93.581(9)
_cell_angle_gamma                108.385(14)
_cell_volume                     1193.41
_exptl_crystal_colour            colorless
_exptl_crystal_description       Prism
_cell_formula_units_Z            4
_exptl_crystal_recrystallization_method n-hexane/dichloromethane
loop_
_atom_site_label
_atom_site_type_symbol
_atom_site_fract_x
_atom_site_fract_y
_atom_site_fract_z
O1 O 0.5592(5) 0.0032(4) 0.13982(15)
O2 O 0.0111(4) -0.3752(4) 0.08098(14)
O3 O 0.5575(5) -0.1846(4) 0.02667(15)
O4 O 0.5991(6) -0.1979(5) 0.20107(18)
C1 C 0.3602(6) -0.2816(5) 0.1119(2)
C2 C 0.3924(7) -0.2283(5) 0.04470(19)
C3 C 0.3635(7) -0.4646(6) 0.1190(2)
C4 C 0.1491(6) -0.2960(6) 0.1334(2)
C5 C 0.5189(6) -0.1590(6) 0.1561(2)
C6 C 0.1162(8) -0.4254(6) 0.1839(2)
H1 H -0.0237 -0.4756 0.1897
H2 H 0.1848 -0.3727 0.2234
C7 C 0.2153(7) -0.2379(6) 0.0017(2)
H3 H 0.1804 -0.3419 -0.0248
H4 H 0.2481 -0.1412 -0.0251
C8 C 0.1060(8) -0.1288(7) 0.1447(2)
H5 H 0.2186 -0.0432 0.1666
H6 H -0.0087 -0.1458 0.1688
C9 C 0.0394(7) -0.2369(6) 0.0374(2)
H7 H -0.0785 -0.2599 0.0084
C10 C 0.0655(8) -0.0753(7) 0.0774(2)
H8 H -0.0533 -0.0418 0.0742
H9 H 0.1762 0.0187 0.0654
C11 C 0.7040(9) 0.1326(7) 0.1799(3)
H10 H 0.7204 0.2434 0.1636
H11 H 0.8282 0.1102 0.1813
H12 H 0.6595 0.1301 0.2212
C12 C 0.4867(9) -0.5296(8) 0.0925(3)
C13 C 0.2021(9) -0.5591(7) 0.1590(3)
H13 H 0.2554 -0.6102 0.1932
H14 H 0.1012 -0.6489 0.1344
O5 O 0.9724(4) 0.1017(4) 0.42148(15)
O6 O 1.5471(5) 0.3073(4) 0.47036(16)
O7 O 1.4937(6) 0.4589(5) 0.35666(17)
C14 C 1.3023(6) 0.1853(6) 0.38734(19)
C15 C 1.3723(6) 0.2583(6) 0.45384(19)
C16 C 1.3034(8) -0.0006(6) 0.3810(2)
C17 C 1.2181(7) 0.2602(6) 0.4981(2)
H15 H 1.2644 0.3651 0.5242
H16 H 1.1999 0.1647 0.5252
C18 C 1.0783(6) 0.1638(6) 0.3680(2)
C19 C 1.4316(8) 0.2914(8) 0.3401(2)
C20 C 1.0316(8) 0.3288(7) 0.3573(2)
H17 H 0.9032 0.3061 0.3348
H18 H 1.1315 0.4064 0.3340
O8 O 1.4695(9) 0.2366(7) 0.2927(2)
C21 C 1.0219(7) 0.2483(6) 0.4645(2)
H19 H 0.9200 0.2343 0.4943
C22 C 1.0325(8) 0.4033(7) 0.4234(2)
H20 H 0.9189 0.4423 0.4276
H21 H 1.1526 0.4979 0.4342
C23 C 1.0194(9) 0.0218(8) 0.3179(3)
H22 H 1.0649 0.0647 0.2780
H23 H 0.8768 -0.0308 0.3134
C24 C 1.6121(11) 0.5740(9) 0.3136(3)
H24 H 1.6461 0.6898 0.3302
H25 H 1.5378 0.5626 0.2740
H26 H 1.7308 0.5456 0.3082
C25 C 1.4360(10) -0.0605(8) 0.4077(3)
C26 C 1.1209(10) -0.1064(8) 0.3409(3)
H27 H 1.0338 -0.1921 0.3653
H28 H 1.1577 -0.1636 0.3058
H29? H 0.4608 -0.6464 0.1037
H30? H 0.6202 -0.4643 0.1066
H31? H 0.4690 -0.5255 0.0479
H32? H 1.5637 -0.0008 0.3937
H33? H 1.4025 -0.1805 0.3967
H34? H 1.4390 -0.0442 0.4522
loop_
_geom_bond_atom_site_label_1
_geom_bond_atom_site_label_2
_geom_bond_site_symmetry_1
_geom_bond_site_symmetry_2
O1 C5 1_555 1_555
O2 C4 1_555 1_555
O3 C2 1_555 1_555
O4 C5 1_555 1_555
C1 C2 1_555 1_555
C2 C7 1_555 1_555
C3 C1 1_555 1_555
C4 C1 1_555 1_555
C5 C1 1_555 1_555
C6 C4 1_555 1_555
H1 C6 1_555 1_555
H2 C6 1_555 1_555
C7 H3 1_555 1_555
H4 C7 1_555 1_555
C8 C4 1_555 1_555
H5 C8 1_555 1_555
H6 C8 1_555 1_555
C9 O2 1_555 1_555
H7 C9 1_555 1_555
C10 C8 1_555 1_555
H8 C10 1_555 1_555
H9 C10 1_555 1_555
C11 O1 1_555 1_555
H10 C11 1_555 1_555
H11 C11 1_555 1_555
H12 C11 1_555 1_555
C12 C3 1_555 1_555
C13 C3 1_555 1_555
H13 C13 1_555 1_555
H14 C13 1_555 1_555
O5 C18 1_555 1_555
O6 C15 1_555 1_555
O7 C19 1_555 1_555
C14 C15 1_555 1_555
C15 C17 1_555 1_555
C16 C14 1_555 1_555
C17 H15 1_555 1_555
H16 C17 1_555 1_555
C18 C14 1_555 1_555
C19 C14 1_555 1_555
C20 C18 1_555 1_555
H17 C20 1_555 1_555
H18 C20 1_555 1_555
O8 C19 1_555 1_555
C21 O5 1_555 1_555
H19 C21 1_555 1_555
C22 C20 1_555 1_555
H20 C22 1_555 1_555
H21 C22 1_555 1_555
C23 C18 1_555 1_555
H22 C23 1_555 1_555
H23 C23 1_555 1_555
C24 O7 1_555 1_555
H24 C24 1_555 1_555
H25 C24 1_555 1_555
H26 C24 1_555 1_555
C25 C16 1_555 1_555
C26 C16 1_555 1_555
H27 C26 1_555 1_555
H28 C26 1_555 1_555
C6 C13 1_555 1_555
C7 C9 1_555 1_555
C9 C10 1_555 1_555
C17 C21 1_555 1_555
C21 C22 1_555 1_555
C23 C26 1_555 1_555

#END
