
#######################################################################
#
#                 Cambridge Crystallographic Data Centre
#                                CCDC 
#
#######################################################################
#
# If this CIF has been generated from an entry in the Cambridge 
# Structural Database, then it will include bibliographic, chemical, 
# crystal, experimental, refinement or atomic coordinate data resulting 
# from the CCDC's data processing and validation procedures.
#
#######################################################################

data_PIRLEJ
_chemical_formula_moiety         'C24 H18 O1'
_chemical_name_systematic        
2-Phenyl-2',3'-dihydro-1'H,3H-1,2'-biinden-1'-one
_symmetry_cell_setting           orthorhombic
_symmetry_space_group_name_H-M   'P 21 21 21'
_symmetry_Int_Tables_number      19
_space_group_name_Hall           'P 2ac 2ab'
loop_
_symmetry_equiv_pos_site_id
_symmetry_equiv_pos_as_xyz
1 x,y,z
2 1/2-x,-y,1/2+z
3 1/2+x,1/2-y,-z
4 -x,1/2+y,1/2-z
_cell_length_a                   7.9684(17)
_cell_length_b                   11.671(2)
_cell_length_c                   18.419(4)
_cell_angle_alpha                90
_cell_angle_beta                 90
_cell_angle_gamma                90
_cell_volume                     1712.95
_exptl_crystal_description       Prism
_cell_formula_units_Z            4
loop_
_atom_site_label
_atom_site_type_symbol
_atom_site_fract_x
_atom_site_fract_y
_atom_site_fract_z
C1 C 0.2073(8) 0.2511(5) 0.0257(3)
H1 H 0.1727 0.1756 0.0197
C2 C 0.2102(9) 0.3229(6) -0.0336(3)
H2 H 0.1783 0.2953 -0.0789
C3 C 0.2610(7) 0.4371(7) -0.0261(3)
H3 H 0.2656 0.4848 -0.0665
C4 C 0.3045(7) 0.4787(5) 0.0421(3)
H4 H 0.3350 0.5550 0.0480
C5 C 0.3020(6) 0.4033(4) 0.1025(3)
H5 H 0.3321 0.4309 0.1481
C6 C 0.2554(5) 0.2896(4) 0.0950(2)
C7 C 0.2428(5) 0.2105(3) 0.1572(2)
C8 C 0.1103(6) 0.1187(4) 0.1598(3)
H6 H -0.0013 0.1520 0.1590
H7 H 0.1216 0.0665 0.1191
C9 C 0.1420(5) 0.0591(4) 0.2293(3)
C10 C 0.0591(6) -0.0311(4) 0.2640(4)
H8 H -0.0333 -0.0653 0.2420
C11 C 0.1135(7) -0.0693(4) 0.3299(4)
H9 H 0.0596 -0.1312 0.3515
C12 C 0.2486(7) -0.0174(4) 0.3658(3)
H10 H 0.2831 -0.0434 0.4111
C13 C 0.3304(6) 0.0744(4) 0.3322(3)
H11 H 0.4200 0.1102 0.3553
C14 C 0.2784(5) 0.1119(3) 0.2648(2)
C15 C 0.3389(5) 0.2051(3) 0.2175(2)
C16 C 0.4893(5) 0.2762(3) 0.2400(2)
H12 H 0.5162 0.3273 0.1994
C17 C 0.6462(5) 0.2062(4) 0.2564(2)
C18 C 0.7169(5) 0.2515(3) 0.3254(2)
C19 C 0.8671(6) 0.2205(4) 0.3593(3)
H13 H 0.9390 0.1662 0.3393
C20 C 0.9036(8) 0.2757(5) 0.4249(3)
H14 H 1.0045 0.2598 0.4482
C21 C 0.7971(9) 0.3509(5) 0.4553(3)
H15 H 0.8232 0.3828 0.5001
C22 C 0.6490(7) 0.3820(4) 0.4209(3)
H16 H 0.5777 0.4358 0.4419
C23 C 0.6086(5) 0.3318(4) 0.3551(2)
C24 C 0.4580(6) 0.3526(4) 0.3076(3)
H17 H 0.4501 0.4327 0.2940
H18 H 0.3554 0.3303 0.3322
O1 O 0.6922(7) 0.1344(6) 0.2200(3)
loop_
_geom_bond_atom_site_label_1
_geom_bond_atom_site_label_2
_geom_bond_site_symmetry_1
_geom_bond_site_symmetry_2
C1 H1 1_555 1_555
C2 C1 1_555 1_555
H2 C2 1_555 1_555
C3 C2 1_555 1_555
H3 C3 1_555 1_555
C4 C3 1_555 1_555
H4 C4 1_555 1_555
C5 C4 1_555 1_555
H5 C5 1_555 1_555
C6 C1 1_555 1_555
C7 C6 1_555 1_555
C8 C7 1_555 1_555
H6 C8 1_555 1_555
H7 C8 1_555 1_555
C9 C8 1_555 1_555
C10 C9 1_555 1_555
H8 C10 1_555 1_555
C11 C10 1_555 1_555
H9 C11 1_555 1_555
C12 C11 1_555 1_555
H10 C12 1_555 1_555
C13 C12 1_555 1_555
H11 C13 1_555 1_555
C14 C9 1_555 1_555
C15 C7 1_555 1_555
C16 C15 1_555 1_555
H12 C16 1_555 1_555
C17 C16 1_555 1_555
C18 C17 1_555 1_555
C19 C18 1_555 1_555
H13 C19 1_555 1_555
C20 C19 1_555 1_555
H14 C20 1_555 1_555
C21 C20 1_555 1_555
H15 C21 1_555 1_555
C22 C21 1_555 1_555
H16 C22 1_555 1_555
C23 C18 1_555 1_555
C24 C16 1_555 1_555
H17 C24 1_555 1_555
H18 C24 1_555 1_555
O1 C17 1_555 1_555
C5 C6 1_555 1_555
C13 C14 1_555 1_555
C14 C15 1_555 1_555
C22 C23 1_555 1_555
C23 C24 1_555 1_555

#END
