
#######################################################################
#
#                 Cambridge Crystallographic Data Centre
#                                CCDC 
#
#######################################################################
#
# If this CIF has been generated from an entry in the Cambridge 
# Structural Database, then it will include bibliographic, chemical, 
# crystal, experimental, refinement or atomic coordinate data resulting 
# from the CCDC's data processing and validation procedures.
#
#######################################################################

data_PIRYIB
_chemical_formula_moiety         'C31 H20 O6'
_chemical_name_systematic        
3,13-bis[(prop-2-yn-1-yl)oxy]-8H,16H-8,16-methanodinaphtho[2,1-d:1',2'-g][1,3]dioxocine-4,12-dicarbaldehyde
_symmetry_cell_setting           triclinic
_symmetry_space_group_name_H-M   'P -1'
_symmetry_Int_Tables_number      2
_space_group_name_Hall           '-P 1'
loop_
_symmetry_equiv_pos_site_id
_symmetry_equiv_pos_as_xyz
1 x,y,z
2 -x,-y,-z
_cell_length_a                   13.878(2)
_cell_length_b                   14.720(3)
_cell_length_c                   14.815(2)
_cell_angle_alpha                109.871(5)
_cell_angle_beta                 117.441(5)
_cell_angle_gamma                92.628(6)
_cell_volume                     2450.56
_exptl_crystal_colour            yellow
_exptl_crystal_description       needle
_cell_formula_units_Z            4
loop_
_atom_site_label
_atom_site_type_symbol
_atom_site_fract_x
_atom_site_fract_y
_atom_site_fract_z
C1 C 1.0591(3) 0.4944(2) 0.7161(3)
H1 H 1.1370 0.5233 0.7535
O1 O 0.79998(14) 0.39178(14) 0.49696(14)
C2 C 0.9624(2) 0.4586(2) 0.6696(2)
O2 O 0.70673(18) 0.3953(2) 0.20872(19)
C3 C 0.8426(2) 0.41451(19) 0.6125(2)
H2 H 0.8295 0.3532 0.6231
H3 H 0.8053 0.4620 0.6419
O3 O 0.19320(15) 0.17088(18) -0.00635(15)
C4 C 0.6881(2) 0.35246(18) 0.4243(2)
O4 O 0.13714(15) 0.03220(17) 0.01161(15)
O5 O 0.3171(2) -0.23639(17) 0.2967(2)
C5 C 0.6161(2) 0.32048(18) 0.4551(2)
H4 H 0.6443 0.3264 0.5293
O6 O 0.41021(14) -0.01516(13) 0.57670(15)
C6 C 0.5047(2) 0.28057(19) 0.3781(2)
H5 H 0.4569 0.2596 0.4007
C7 C 0.5309(2) 0.3020(2) 0.2353(2)
C8 C 0.6473(2) 0.34542(19) 0.3166(2)
C9 C 0.7262(2) 0.3898(2) 0.2949(2)
H6 H 0.8011 0.4174 0.3552
C10 C 0.4840(2) 0.2898(2) 0.1231(2)
H7 H 0.5305 0.3118 0.0999
C11 C 0.3739(2) 0.2474(3) 0.0485(2)
H8 H 0.3445 0.2399 -0.0263
C12 C 0.3030(2) 0.2145(2) 0.0799(2)
C13 C 0.3412(2) 0.2257(2) 0.1878(2)
C14 C 0.2576(2) 0.1956(2) 0.2187(2)
H9 H 0.2776 0.2435 0.2948
C15 C 0.1217(2) 0.1292(3) 0.0204(2)
H10 H 0.0428 0.1219 -0.0366
C16 C 0.1408(2) 0.1957(3) 0.1320(2)
H11 H 0.0831 0.1705 0.1450
H12 H 0.1373 0.2640 0.1365
C17 C 0.4576(2) 0.26925(19) 0.2669(2)
C18 C 0.25047(18) 0.0904(2) 0.2123(2)
C19 C 0.1918(2) 0.0152(2) 0.1076(2)
C20 C 0.1834(2) -0.0845(2) 0.0905(2)
H13 H 0.1436 -0.1348 0.0168
C21 C 0.2315(2) -0.1105(2) 0.1781(2)
H14 H 0.2276 -0.1787 0.1648
C22 C 0.37289(18) 0.01332(18) 0.4904(2)
C23 C 0.33252(18) -0.06193(18) 0.3846(2)
C24 C 0.28790(18) -0.03689(18) 0.2899(2)
C25 C 0.29344(18) 0.06468(18) 0.30551(19)
C26 C 0.33536(18) 0.13660(18) 0.4157(2)
H15 H 0.3369 0.2043 0.4274
C27 C 0.37334(19) 0.11284(18) 0.5052(2)
H16 H 0.4001 0.1633 0.5774
C28 C 0.4987(3) -0.0297(3) 0.8226(3)
H17 H 0.5174 -0.0615 0.8725
C29 C 0.4757(2) 0.0095(2) 0.7611(2)
C30 C 0.3370(2) -0.1633(2) 0.3779(3)
H18 H 0.3576 -0.1725 0.4443
C31 C 0.4465(2) 0.0591(2) 0.6852(2)
H19 H 0.3859 0.0924 0.6846
H20 H 0.5124 0.1101 0.7093
O7 O 0.1235(2) -0.19796(17) 0.4008(2)
O8 O 0.03120(19) 0.18876(15) 0.29305(18)
O9 O 0.13203(18) 0.34715(15) 0.36000(19)
O10 O 0.19710(16) -0.06439(16) 0.70587(17)
C32 C 0.2672(4) -0.1008(4) 0.8601(3)
C33 C 0.2908(5) -0.1614(5) 0.8942(4)
H21 H 0.3101 -0.2112 0.9221
C34 C 0.2397(3) -0.0230(3) 0.8233(3)
H22 H 0.3071 0.0321 0.8618
H23 H 0.1826 0.0036 0.8396
C35 C 0.1741(2) 0.0977(2) 0.7030(2)
H24 H 0.1897 0.1242 0.7778
C36 C 0.1502(2) 0.1556(2) 0.6448(2)
H25 H 0.1496 0.2226 0.6805
C37 C 0.12633(19) 0.12056(18) 0.5337(2)
C38 C 0.0644(2) 0.1390(2) 0.3623(2)
C39 C 0.1025(2) 0.18289(18) 0.4740(2)
C40 C 0.1545(2) -0.1462(2) 0.4964(3)
H26 H 0.1858 -0.1759 0.5480
C41 C 0.1758(2) -0.0011(2) 0.6527(2)
C42 C 0.14944(19) -0.04237(18) 0.5424(2)
C43 C 0.12087(18) 0.01760(18) 0.4798(2)
C44 C 0.08569(19) -0.02061(18) 0.3651(2)
H27 H 0.0826 -0.0884 0.3278
C45 C 0.0563(2) 0.03758(19) 0.3070(2)
H28 H 0.0303 0.0099 0.2295
C46 C 0.1183(3) 0.2951(2) 0.5247(3)
H29 H 0.1174 0.3162 0.5959
C47 C 0.2282(3) 0.34882(19) 0.5452(3)
C48 C 0.0325(3) 0.2916(2) 0.3381(3)
H30 H -0.0323 0.3048 0.2801
C49 C 0.0220(3) 0.3207(2) 0.4401(3)
H31 H -0.0507 0.2837 0.4215
H32 H 0.0263 0.3929 0.4708
C50 C 0.2263(3) 0.36899(19) 0.4610(3)
C51 C 0.3251(3) 0.41402(19) 0.4715(3)
H33 H 0.3211 0.4271 0.4115
C52 C 0.4251(3) 0.4388(2) 0.5651(3)
H34 H 0.4853 0.4796 0.5720
O11 O 0.6665(2) 0.5114(2) 0.7137(2)
C53 C 0.3506(7) 0.3644(6) 0.6497(7)
C54 C 0.4508(7) 0.4090(6) 0.6585(8)
C55 C 0.3633(5) 0.3394(5) 0.7373(5)
H35 H 0.2983 0.3125 0.7351
C56 C 0.4657(5) 0.3523(5) 0.8252(5)
H36 H 0.4709 0.3334 0.8823
C57 C 0.5627(5) 0.3928(4) 0.8324(5)
C58 C 0.5579(5) 0.4231(5) 0.7532(5)
O12 O 0.6684(4) 0.4086(4) 0.9244(4)
C59 C 0.6658(6) 0.4643(6) 0.7682(6)
H37 H 0.7335 0.4547 0.8190
C60 C 0.6829(6) 0.3332(6) 0.9581(6)
H38 H 0.6440 0.2684 0.8929
H39 H 0.6518 0.3385 1.0073
C61 C 0.8045(7) 0.3406(5) 1.0189(5)
C62 C 0.9034(9) 0.3459(7) 1.0674(7)
H40 H 0.9815 0.3501 1.1056
H41? H 0.4946 0.4578 0.5706
C63? C 0.3131(8) 0.3884(6) 0.6411(8)
C64? C 0.4155(9) 0.4336(8) 0.6532(9)
C65? C 0.3171(6) 0.3891(5) 0.7379(5)
H42? H 0.2504 0.3613 0.7324
C66? C 0.4134(7) 0.4283(6) 0.8400(6)
H43? H 0.4127 0.4272 0.9034
C67? C 0.5124(6) 0.4698(6) 0.8507(5)
C68? C 0.5163(6) 0.4712(6) 0.7601(6)
O13? O 0.6077(5) 0.5135(5) 0.9533(4)
C69? C 0.6268(7) 0.5111(6) 0.7773(7)
H44? H 0.6817 0.5447 0.8541
C70? C 0.6336(7) 0.4687(6) 1.0286(6)
H45? H 0.7049 0.5084 1.0982
H46? H 0.5739 0.4658 1.0473
C71? C 0.6431(9) 0.3738(9) 0.9808(7)
C72? C 0.6292(10) 0.2750(10) 0.9373(8)
H47? H 0.6193 0.2049 0.9065
loop_
_geom_bond_atom_site_label_1
_geom_bond_atom_site_label_2
_geom_bond_site_symmetry_1
_geom_bond_site_symmetry_2
C1 H1 1_555 1_555
O1 C3 1_555 1_555
C2 C1 1_555 1_555
O2 C9 1_555 1_555
C3 C2 1_555 1_555
H2 C3 1_555 1_555
H3 C3 1_555 1_555
O3 C12 1_555 1_555
C4 O1 1_555 1_555
O4 C15 1_555 1_555
O5 C30 1_555 1_555
C5 C4 1_555 1_555
H4 C5 1_555 1_555
O6 C22 1_555 1_555
C6 C5 1_555 1_555
H5 C6 1_555 1_555
C7 C8 1_555 1_555
C8 C4 1_555 1_555
C9 C8 1_555 1_555
H6 C9 1_555 1_555
C10 C7 1_555 1_555
H7 C10 1_555 1_555
C11 C10 1_555 1_555
H8 C11 1_555 1_555
C12 C11 1_555 1_555
C13 C12 1_555 1_555
C14 C13 1_555 1_555
H9 C14 1_555 1_555
C15 O3 1_555 1_555
H10 C15 1_555 1_555
C16 C14 1_555 1_555
H11 C16 1_555 1_555
H12 C16 1_555 1_555
C17 C6 1_555 1_555
C18 C14 1_555 1_555
C19 O4 1_555 1_555
C20 C19 1_555 1_555
H13 C20 1_555 1_555
C21 C20 1_555 1_555
H14 C21 1_555 1_555
C22 C23 1_555 1_555
C23 C24 1_555 1_555
C24 C21 1_555 1_555
C25 C18 1_555 1_555
C26 C25 1_555 1_555
H15 C26 1_555 1_555
C27 C22 1_555 1_555
H16 C27 1_555 1_555
C28 H17 1_555 1_555
C29 C28 1_555 1_555
C30 C23 1_555 1_555
H18 C30 1_555 1_555
C31 O6 1_555 1_555
H19 C31 1_555 1_555
H20 C31 1_555 1_555
O7 C40 1_555 1_555
O8 C38 1_555 1_555
O9 C48 1_555 1_555
O10 C34 1_555 1_555
C32 C33 1_555 1_555
C33 H21 1_555 1_555
C34 C32 1_555 1_555
H22 C34 1_555 1_555
H23 C34 1_555 1_555
C35 H24 1_555 1_555
C36 C35 1_555 1_555
H25 C36 1_555 1_555
C37 C36 1_555 1_555
C38 C39 1_555 1_555
C39 C37 1_555 1_555
C40 H26 1_555 1_555
C41 O10 1_555 1_555
C42 C40 1_555 1_555
C43 C37 1_555 1_555
C44 C43 1_555 1_555
H27 C44 1_555 1_555
C45 C38 1_555 1_555
H28 C45 1_555 1_555
C46 C39 1_555 1_555
H29 C46 1_555 1_555
C47 C46 1_555 1_555
C48 O8 1_555 1_555
H30 C48 1_555 1_555
C49 C46 1_555 1_555
H31 C49 1_555 1_555
H32 C49 1_555 1_555
C50 O9 1_555 1_555
C51 C50 1_555 1_555
H33 C51 1_555 1_555
C52 C51 1_555 1_555
H34 C52 1_555 1_555
O11 C59 1_555 1_555
C53 C47 1_555 1_555
C54 C52 1_555 1_555
C55 C53 1_555 1_555
H35 C55 1_555 1_555
C56 C55 1_555 1_555
H36 C56 1_555 1_555
C57 C56 1_555 1_555
C58 C54 1_555 1_555
O12 C57 1_555 1_555
C59 C58 1_555 1_555
H37 C59 1_555 1_555
C60 O12 1_555 1_555
H38 C60 1_555 1_555
H39 C60 1_555 1_555
C61 C60 1_555 1_555
C62 C61 1_555 1_555
H40 C62 1_555 1_555
C7 C17 1_555 1_555
C13 C17 1_555 1_555
C15 C16 1_555 1_555
C18 C19 1_555 1_555
C24 C25 1_555 1_555
C26 C27 1_555 1_555
C29 C31 1_555 1_555
C35 C41 1_555 1_555
C41 C42 1_555 1_555
C42 C43 1_555 1_555
C44 C45 1_555 1_555
C47 C50 1_555 1_555
C48 C49 1_555 1_555
C53 C54 1_555 1_555
C57 C58 1_555 1_555

#END
