
#######################################################################
#
#                 Cambridge Crystallographic Data Centre
#                                CCDC 
#
#######################################################################
#
# If this CIF has been generated from an entry in the Cambridge 
# Structural Database, then it will include bibliographic, chemical, 
# crystal, experimental, refinement or atomic coordinate data resulting 
# from the CCDC's data processing and validation procedures.
#
#######################################################################

data_PITNIQ
_chemical_formula_moiety         'C17 H25 N1 O3 S2'
_chemical_name_systematic        
4-(1,4-Dioxa-7,13-dithia-10-azacyclopentadec-10-yl)benzaldehyde
_symmetry_cell_setting           triclinic
_symmetry_space_group_name_H-M   'P -1'
_symmetry_Int_Tables_number      2
_space_group_name_Hall           '-P 1'
loop_
_symmetry_equiv_pos_site_id
_symmetry_equiv_pos_as_xyz
1 x,y,z
2 -x,-y,-z
_cell_length_a                   8.2478(5)
_cell_length_b                   14.6186(8)
_cell_length_c                   16.6302(11)
_cell_angle_alpha                102.024(3)
_cell_angle_beta                 104.054(2)
_cell_angle_gamma                104.931(2)
_cell_volume                     1799.23
_chemical_melting_point          86deg.C
_cell_formula_units_Z            4
_exptl_crystal_recrystallization_method hexane
loop_
_atom_site_label
_atom_site_type_symbol
_atom_site_fract_x
_atom_site_fract_y
_atom_site_fract_z
S1 S 0.91417(13) 0.90217(7) 0.24500(7)
S2 S -0.01746(14) 0.84751(8) -0.00550(8)
O1 O 0.5322(4) 0.69612(18) 0.13247(17)
O2 O 0.2183(4) 0.68081(19) 0.00386(18)
O3 O 0.5934(5) 1.4488(2) 0.1742(2)
N1 N 0.5061(4) 0.9881(2) 0.1289(2)
C1 C 0.6010(5) 0.9420(3) 0.1863(3)
C2 C 0.7586(6) 0.9264(3) 0.1611(3)
C3 C 0.7872(5) 0.7866(3) 0.2561(3)
C4 C 0.7088(5) 0.7004(3) 0.1735(3)
C5 C 0.4536(6) 0.6177(3) 0.0534(3)
C6 C 0.2580(6) 0.5969(3) 0.0221(3)
C7 C 0.0349(6) 0.6597(3) -0.0370(3)
C8 C 0.0055(6) 0.7416(3) -0.0747(3)
C9 C 0.1862(6) 0.9000(3) 0.0834(3)
C10 C 0.3527(5) 0.9222(3) 0.0562(3)
C11 C 0.5497(5) 1.0885(2) 0.1481(2)
C12 C 0.7063(5) 1.1520(3) 0.2140(3)
C13 C 0.7478(5) 1.2535(3) 0.2313(2)
C14 C 0.6367(5) 1.2965(3) 0.1862(2)
C15 C 0.4811(5) 1.2338(3) 0.1218(2)
C16 C 0.4371(5) 1.1326(3) 0.1025(2)
C17 C 0.6824(7) 1.4038(3) 0.2070(3)
H3 H 0.518(7) 0.876(4) 0.184(3)
H4 H 0.643(6) 0.974(4) 0.237(3)
H5 H 0.834(6) 0.994(4) 0.151(3)
H6 H 0.729(7) 0.880(4) 0.113(4)
H7 H 0.868(8) 0.779(4) 0.300(4)
H8 H 0.700(6) 0.801(3) 0.280(3)
H9 H 0.783(6) 0.711(3) 0.134(3)
H10 H 0.706(7) 0.642(4) 0.185(3)
H11 H 0.471(5) 0.557(3) 0.059(3)
H12 H 0.509(7) 0.640(4) 0.009(4)
H13 H 0.214(7) 0.546(4) -0.030(3)
H14 H 0.224(6) 0.583(4) 0.071(3)
H15 H -0.029(6) 0.654(3) 0.004(3)
H16 H -0.010(8) 0.595(5) -0.083(4)
H17 H -0.114(8) 0.709(4) -0.130(4)
H18 H 0.112(7) 0.772(4) -0.100(3)
H19 H 0.175(7) 0.967(4) 0.119(4)
H20 H 0.208(9) 0.858(5) 0.128(4)
H21 H 0.380(6) 0.855(3) 0.030(3)
H22 H 0.340(6) 0.945(3) 0.006(3)
H23 H 0.784(8) 1.120(4) 0.241(4)
H24 H 0.854(6) 1.299(3) 0.278(3)
H25 H 0.420(7) 1.262(4) 0.088(3)
H26 H 0.328(5) 1.097(3) 0.060(2)
H27 H 0.801(7) 1.442(4) 0.256(3)
S3 S 0.11193(14) 0.59530(7) 0.22773(7)
S4 S 1.00547(15) 0.68721(8) 0.46347(8)
O4 O 0.4384(3) 0.80487(17) 0.35303(16)
O5 O 0.7599(4) 0.83379(19) 0.48558(18)
O6 O 0.4662(5) 0.0735(2) 0.3441(2)
N2 N 0.4813(5) 0.5262(2) 0.3965(2)
C18 C 0.3402(6) 0.5658(3) 0.3642(3)
C19 C 0.3171(6) 0.5689(3) 0.2707(3)
C20 C 0.1958(5) 0.7202(3) 0.2225(2)
C21 C 0.2661(5) 0.8013(3) 0.3066(3)
C22 C 0.5028(6) 0.8780(3) 0.4344(2)
C23 C 0.6975(6) 0.9114(3) 0.4666(3)
C24 C 0.9462(6) 0.8665(3) 0.5233(3)
C25 C 1.0051(6) 0.7858(3) 0.5497(3)
H1 H 0.9275 0.7563 0.5810
H2 H 1.1263 0.8158 0.5912
C26 C 0.7757(6) 0.6282(3) 0.3998(3)
C27 C 0.6525(5) 0.5966(3) 0.4503(2)
C28 C 0.4566(5) 0.4262(3) 0.3714(2)
C29 C 0.2921(5) 0.3575(3) 0.3161(3)
C30 C 0.2642(5) 0.2570(3) 0.2974(3)
C31 C 0.3954(5) 0.2194(3) 0.3332(2)
C32 C 0.5582(5) 0.2872(3) 0.3865(2)
C33 C 0.5908(5) 0.3875(3) 0.4046(2)
C34 C 0.3618(7) 0.1129(3) 0.3152(3)
H28 H 0.366(7) 0.628(4) 0.402(4)
H29 H 0.222(6) 0.529(3) 0.375(3)
H30 H 0.318(6) 0.497(3) 0.226(3)
H31 H 0.418(6) 0.625(3) 0.271(3)
H32 H 0.291(7) 0.726(4) 0.191(3)
H33 H 0.092(7) 0.730(4) 0.187(3)
H34 H 0.278(6) 0.862(4) 0.296(3)
H35 H 0.180(8) 0.792(4) 0.341(4)
H36 H 0.455(10) 0.855(5) 0.489(5)
H37 H 0.454(7) 0.936(4) 0.432(4)
H38 H 0.757(8) 0.946(4) 0.428(4)
H39 H 0.723(8) 0.959(5) 0.515(4)
H40 H 0.986(7) 0.922(4) 0.573(4)
H41 H 0.999(7) 0.893(4) 0.480(4)
H42 H 0.734(7) 0.674(4) 0.373(3)
H43 H 0.791(7) 0.571(4) 0.360(4)
H44 H 0.694(7) 0.562(4) 0.482(4)
H45 H 0.635(5) 0.650(3) 0.480(3)
H46 H 0.197(8) 0.376(4) 0.288(4)
H47 H 0.167(7) 0.209(4) 0.250(3)
H48 H 0.658(7) 0.262(4) 0.402(3)
H49 H 0.697(6) 0.432(3) 0.436(3)
H50 H 0.265(8) 0.080(4) 0.276(4)
loop_
_geom_bond_atom_site_label_1
_geom_bond_atom_site_label_2
_geom_bond_site_symmetry_1
_geom_bond_site_symmetry_2
S1 C2 1_555 1_555
S2 C8 1_555 1_555
O1 C4 1_555 1_555
O2 C6 1_555 1_555
O3 C17 1_555 1_555
N1 C1 1_555 1_555
C1 C2 1_555 1_555
C2 H5 1_555 1_555
C3 S1 1_555 1_555
C4 C3 1_555 1_555
C5 O1 1_555 1_555
C6 C5 1_555 1_555
C7 O2 1_555 1_555
C8 C7 1_555 1_555
C9 S2 1_555 1_555
C10 N1 1_555 1_555
C11 N1 1_555 1_555
C12 C11 1_555 1_555
C13 C12 1_555 1_555
C14 C13 1_555 1_555
C15 C14 1_555 1_555
C16 C11 1_555 1_555
C17 C14 1_555 1_555
S3 C19 1_555 1_555
S4 C25 1_555 1_555
O4 C21 1_555 1_555
O5 C23 1_555 1_555
O6 C34 1_555 1_555
N2 C18 1_555 1_555
C18 C19 1_555 1_555
C19 H30 1_555 1_555
C20 S3 1_555 1_555
C21 C20 1_555 1_555
C22 O4 1_555 1_555
C23 C22 1_555 1_555
C24 O5 1_555 1_555
C25 C24 1_555 1_555
H1 C25 1_555 1_555
H2 C25 1_555 1_555
C26 S4 1_555 1_555
C27 N2 1_555 1_555
C28 N2 1_555 1_555
C29 C28 1_555 1_555
C30 C29 1_555 1_555
C31 C30 1_555 1_555
C32 C31 1_555 1_555
C33 C28 1_555 1_555
C34 C31 1_555 1_555
H3 C1 1_555 1_555
H4 C1 1_555 1_555
H6 C2 1_555 1_555
H7 C3 1_555 1_555
H8 C3 1_555 1_555
H9 C4 1_555 1_555
H10 C4 1_555 1_555
H11 C5 1_555 1_555
H12 C5 1_555 1_555
H13 C6 1_555 1_555
H14 C6 1_555 1_555
H15 C7 1_555 1_555
H16 C7 1_555 1_555
H17 C8 1_555 1_555
H18 C8 1_555 1_555
H19 C9 1_555 1_555
H20 C9 1_555 1_555
H21 C10 1_555 1_555
H22 C10 1_555 1_555
H23 C12 1_555 1_555
H24 C13 1_555 1_555
H25 C15 1_555 1_555
H26 C16 1_555 1_555
H27 C17 1_555 1_555
H28 C18 1_555 1_555
H29 C18 1_555 1_555
H31 C19 1_555 1_555
H32 C20 1_555 1_555
H33 C20 1_555 1_555
H34 C21 1_555 1_555
H35 C21 1_555 1_555
H36 C22 1_555 1_555
H37 C22 1_555 1_555
H38 C23 1_555 1_555
H39 C23 1_555 1_555
H40 C24 1_555 1_555
H41 C24 1_555 1_555
H42 C26 1_555 1_555
H43 C26 1_555 1_555
H44 C27 1_555 1_555
H45 C27 1_555 1_555
H46 C29 1_555 1_555
H47 C30 1_555 1_555
H48 C32 1_555 1_555
H49 C33 1_555 1_555
H50 C34 1_555 1_555
C9 C10 1_555 1_555
C15 C16 1_555 1_555
C26 C27 1_555 1_555
C32 C33 1_555 1_555

#END
