
#######################################################################
#
#                 Cambridge Crystallographic Data Centre
#                                CCDC 
#
#######################################################################
#
# If this CIF has been generated from an entry in the Cambridge 
# Structural Database, then it will include bibliographic, chemical, 
# crystal, experimental, refinement or atomic coordinate data resulting 
# from the CCDC's data processing and validation procedures.
#
#######################################################################

data_PIWBON
_chemical_compound_source        'Coleus forskohlii'
_chemical_name_common            
'5beta,9beta,10alpha,12beta-9,12-cyclo-7,13E-labdadien-15-oic acid'
_chemical_formula_moiety         'C20 H30 O2'
_chemical_name_systematic        'Forskoditerpene A'
_symmetry_cell_setting           monoclinic
_symmetry_space_group_name_H-M   'C 2'
_symmetry_Int_Tables_number      5
_space_group_name_Hall           'C 2y'
loop_
_symmetry_equiv_pos_site_id
_symmetry_equiv_pos_as_xyz
1 x,y,z
2 -x,y,-z
3 1/2+x,1/2+y,z
4 1/2-x,1/2+y,-z
_cell_length_a                   29.215(2)
_cell_length_b                   7.667(2)
_cell_length_c                   16.656(2)
_cell_angle_alpha                90
_cell_angle_beta                 91.63(4)
_cell_angle_gamma                90
_cell_volume                     3729.29
_exptl_crystal_colour            colorless
_exptl_crystal_description       needle
_chemical_melting_point          '148.0-150.0 deg.C'
_cell_formula_units_Z            8
_exptl_crystal_recrystallization_method ethanol
loop_
_atom_site_label
_atom_site_type_symbol
_atom_site_fract_x
_atom_site_fract_y
_atom_site_fract_z
O1 O 0.73733(16) 0.6048(5) 1.1477(2)
O2 O 0.76468(13) 0.4216(5) 1.2397(2)
H1 H 0.7728 0.5133 1.2610
C1 C 0.6376(2) -0.1288(9) 0.9110(4)
H2 H 0.6435 -0.2356 0.9408
H3 H 0.6669 -0.0741 0.9015
C2 C 0.6147(2) -0.1757(11) 0.8294(4)
H4 H 0.6350 -0.2495 0.7993
H5 H 0.5867 -0.2400 0.8381
C3 C 0.6039(2) -0.0125(12) 0.7820(4)
H6 H 0.5893 -0.0455 0.7313
H7 H 0.6324 0.0458 0.7702
C4 C 0.57290(15) 0.1158(10) 0.8247(3)
C5 C 0.59405(13) 0.1507(7) 0.9103(2)
H8 H 0.6226 0.2131 0.9004
C6 C 0.60907(15) -0.0061(6) 0.9626(3)
C7 C 0.56528(19) 0.2823(10) 0.9579(4)
H9 H 0.5694 0.3974 0.9350
H10 H 0.5332 0.2518 0.9507
C8 C 0.57645(19) 0.2909(9) 1.0448(3)
H11 H 0.5601 0.3694 1.0755
C9 C 0.60744(17) 0.1969(8) 1.0813(3)
C10 C 0.63591(17) 0.0730(7) 1.0354(3)
C11 C 0.6735(2) -0.0280(8) 1.0779(4)
H12 H 0.6768 -0.0145 1.1356
H13 H 0.6801 -0.1441 1.0581
C12 C 0.68620(15) 0.1235(7) 1.0266(3)
H14 H 0.6990 0.0907 0.9749
C13 C 0.70363(13) 0.2913(6) 1.0593(3)
C14 C 0.69557(19) 0.4426(8) 1.0041(3)
H15 H 0.7073 0.5469 1.0290
H16 H 0.6633 0.4554 0.9932
H17 H 0.7109 0.4225 0.9548
C15 C 0.72580(16) 0.3007(7) 1.1304(3)
H18 H 0.7314 0.1952 1.1564
C16 C 0.74214(14) 0.4558(6) 1.1719(2)
C17 C 0.6130(3) 0.2035(15) 1.1728(3)
H19 H 0.5924 0.2887 1.1937
H20 H 0.6440 0.2347 1.1874
H21 H 0.6061 0.0910 1.1948
C18 C 0.52341(19) 0.0410(15) 0.8258(4)
H22 H 0.5235 -0.0663 0.8555
H23 H 0.5126 0.0197 0.7717
H24 H 0.5036 0.1235 0.8509
C19 C 0.5725(3) 0.2875(16) 0.7766(4)
H25 H 0.6029 0.3353 0.7765
H26 H 0.5522 0.3692 0.8009
H27 H 0.5622 0.2650 0.7223
C20 C 0.5683(2) -0.1106(10) 0.9985(4)
H28 H 0.5502 -0.0339 1.0303
H29 H 0.5801 -0.2036 1.0317
H30 H 0.5496 -0.1584 0.9556
O3 O 0.70256(12) 0.2088(5) 0.69126(19)
O4 O 0.73431(19) 0.3965(5) 0.7763(3)
H31 H 0.7438 0.3061 0.7972
C21 C 0.58144(18) 0.9181(8) 0.4686(3)
H32 H 0.5701 0.8602 0.5158
H33 H 0.5930 1.0317 0.4850
C22 C 0.5420(2) 0.9426(11) 0.4078(4)
H34 H 0.5179 1.0101 0.4318
H35 H 0.5526 1.0061 0.3615
C23 C 0.5239(2) 0.7694(11) 0.3821(4)
H36 H 0.4980 0.7876 0.3453
H37 H 0.5127 0.7092 0.4288
C24 C 0.55830(19) 0.6521(9) 0.3414(3)
C25 C 0.60252(15) 0.6379(7) 0.3974(3)
H38 H 0.5929 0.5683 0.4434
C26 C 0.62106(16) 0.8101(7) 0.4349(2)
C27 C 0.64120(19) 0.5316(9) 0.3606(3)
H39 H 0.6323 0.4097 0.3595
H40 H 0.6445 0.5689 0.3054
C28 C 0.68605(17) 0.5467(7) 0.4029(3)
H41 H 0.7101 0.4809 0.3836
C29 C 0.69469(14) 0.6468(6) 0.4664(2)
C30 C 0.65587(14) 0.7468(6) 0.5020(2)
C31 C 0.66354(17) 0.8469(6) 0.5784(3)
H42 H 0.6944 0.8493 0.6016
H43 H 0.6463 0.9538 0.5850
C32 C 0.63801(14) 0.6793(6) 0.5815(2)
H44 H 0.6049 0.6943 0.5867
C33 C 0.65591(13) 0.5130(6) 0.6173(2)
C34 C 0.63388(19) 0.3543(7) 0.5818(3)
H45 H 0.6469 0.2521 0.6068
H46 H 0.6390 0.3509 0.5252
H47 H 0.6016 0.3576 0.5906
C35 C 0.68850(15) 0.5133(6) 0.6752(2)
H48 H 0.6994 0.6213 0.6926
C36 C 0.70855(16) 0.3589(7) 0.7135(2)
C37 C 0.74289(15) 0.6689(7) 0.5003(3)
H49 H 0.7633 0.5949 0.4717
H50 H 0.7438 0.6375 0.5562
H51 H 0.7522 0.7883 0.4947
C38 C 0.5680(2) 0.7208(12) 0.2570(3)
H52 H 0.5399 0.7257 0.2257
H53 H 0.5891 0.6442 0.2314
H54 H 0.5810 0.8356 0.2610
C39 C 0.5376(2) 0.4706(12) 0.3333(4)
H55 H 0.5106 0.4755 0.2991
H56 H 0.5296 0.4286 0.3854
H57 H 0.5595 0.3930 0.3105
C40 C 0.6470(2) 0.9266(9) 0.3772(3)
H58 H 0.6263 0.9676 0.3355
H59 H 0.6712 0.8610 0.3538
H60 H 0.6597 1.0244 0.4061
loop_
_geom_bond_atom_site_label_1
_geom_bond_atom_site_label_2
_geom_bond_site_symmetry_1
_geom_bond_site_symmetry_2
O1 C16 1_555 1_555
O2 H1 1_555 1_555
C1 H2 1_555 1_555
H3 C1 1_555 1_555
C2 C1 1_555 1_555
H4 C2 1_555 1_555
H5 C2 1_555 1_555
C3 C2 1_555 1_555
H6 C3 1_555 1_555
H7 C3 1_555 1_555
C4 C3 1_555 1_555
C5 C4 1_555 1_555
H8 C5 1_555 1_555
C6 C1 1_555 1_555
C7 C5 1_555 1_555
H9 C7 1_555 1_555
H10 C7 1_555 1_555
C8 C7 1_555 1_555
H11 C8 1_555 1_555
C9 C8 1_555 1_555
C10 C6 1_555 1_555
C11 C10 1_555 1_555
H12 C11 1_555 1_555
H13 C11 1_555 1_555
C12 C10 1_555 1_555
H14 C12 1_555 1_555
C13 C12 1_555 1_555
C14 C13 1_555 1_555
H15 C14 1_555 1_555
H16 C14 1_555 1_555
H17 C14 1_555 1_555
C15 C13 1_555 1_555
H18 C15 1_555 1_555
C16 O2 1_555 1_555
C17 C9 1_555 1_555
H19 C17 1_555 1_555
H20 C17 1_555 1_555
H21 C17 1_555 1_555
C18 C4 1_555 1_555
H22 C18 1_555 1_555
H23 C18 1_555 1_555
H24 C18 1_555 1_555
C19 C4 1_555 1_555
H25 C19 1_555 1_555
H26 C19 1_555 1_555
H27 C19 1_555 1_555
C20 C6 1_555 1_555
H28 C20 1_555 1_555
H29 C20 1_555 1_555
H30 C20 1_555 1_555
O3 C36 1_555 1_555
O4 H31 1_555 1_555
C21 H32 1_555 1_555
H33 C21 1_555 1_555
C22 C21 1_555 1_555
H34 C22 1_555 1_555
H35 C22 1_555 1_555
C23 C22 1_555 1_555
H36 C23 1_555 1_555
H37 C23 1_555 1_555
C24 C23 1_555 1_555
C25 C24 1_555 1_555
H38 C25 1_555 1_555
C26 C21 1_555 1_555
C27 C25 1_555 1_555
H39 C27 1_555 1_555
H40 C27 1_555 1_555
C28 C27 1_555 1_555
H41 C28 1_555 1_555
C29 C28 1_555 1_555
C30 C26 1_555 1_555
C31 C30 1_555 1_555
H42 C31 1_555 1_555
H43 C31 1_555 1_555
C32 C30 1_555 1_555
H44 C32 1_555 1_555
C33 C32 1_555 1_555
C34 C33 1_555 1_555
H45 C34 1_555 1_555
H46 C34 1_555 1_555
H47 C34 1_555 1_555
C35 C33 1_555 1_555
H48 C35 1_555 1_555
C36 O4 1_555 1_555
C37 C29 1_555 1_555
H49 C37 1_555 1_555
H50 C37 1_555 1_555
H51 C37 1_555 1_555
C38 C24 1_555 1_555
H52 C38 1_555 1_555
H53 C38 1_555 1_555
H54 C38 1_555 1_555
C39 C24 1_555 1_555
H55 C39 1_555 1_555
H56 C39 1_555 1_555
H57 C39 1_555 1_555
C40 C26 1_555 1_555
H58 C40 1_555 1_555
H59 C40 1_555 1_555
H60 C40 1_555 1_555
C5 C6 1_555 1_555
C9 C10 1_555 1_555
C11 C12 1_555 1_555
C15 C16 1_555 1_555
C25 C26 1_555 1_555
C29 C30 1_555 1_555
C31 C32 1_555 1_555
C35 C36 1_555 1_555

#END
