
#######################################################################
#
#                 Cambridge Crystallographic Data Centre
#                                CCDC 
#
#######################################################################
#
# If this CIF has been generated from an entry in the Cambridge 
# Structural Database, then it will include bibliographic, chemical, 
# crystal, experimental, refinement or atomic coordinate data resulting 
# from the CCDC's data processing and validation procedures.
#
#######################################################################

data_PIWMAM
_chemical_formula_moiety         'C20 H19 B1 O1 S1'
_chemical_name_systematic        
1-(4-phenyl-4H-[1]benzoborolo[3,2-b]thiophen-4-yl)oxolan-1-ium
_symmetry_cell_setting           monoclinic
_symmetry_space_group_name_H-M   'P 21/c'
_symmetry_Int_Tables_number      14
_space_group_name_Hall           '-P 2ybc'
loop_
_symmetry_equiv_pos_site_id
_symmetry_equiv_pos_as_xyz
1 x,y,z
2 -x,1/2+y,1/2-z
3 -x,-y,-z
4 x,1/2-y,1/2+z
_cell_length_a                   19.1273(19)
_cell_length_b                   11.9546(12)
_cell_length_c                   16.6175(16)
_cell_angle_alpha                90
_cell_angle_beta                 113.827(2)
_cell_angle_gamma                90
_cell_volume                     3475.89
_exptl_crystal_colour            colorless
_exptl_crystal_description       block
_cell_formula_units_Z            8
loop_
_atom_site_label
_atom_site_type_symbol
_atom_site_fract_x
_atom_site_fract_y
_atom_site_fract_z
O1 O 0.57760(17) 0.0253(3) 0.2177(2)
S1 S 0.42618(9) 0.33846(13) 0.02714(9)
B1 B 0.5481(3) 0.1457(4) 0.2360(3)
C1 C 0.5698(4) -0.1083(8) 0.1123(6)
H1 H 0.5780 -0.1851 0.1330
H2 H 0.5429 -0.1087 0.0488
C2 C 0.5253(4) -0.0474(5) 0.1526(5)
H3 H 0.4850 -0.0043 0.1085
H4 H 0.5023 -0.0993 0.1797
C3 C 0.6431(4) -0.0501(7) 0.1383(5)
H5 H 0.6433 -0.0046 0.0900
H6 H 0.6845 -0.1037 0.1540
C4 C 0.6527(3) 0.0213(6) 0.2147(5)
H7 H 0.6901 -0.0107 0.2684
H8 H 0.6693 0.0958 0.2072
C5 C 0.4621(2) 0.1297(4) 0.2321(3)
C6 C 0.4336(3) 0.0711(4) 0.2842(3)
H9 H 0.4661 0.0274 0.3305
C7 C 0.3561(3) 0.0774(5) 0.2672(4)
H10 H 0.3365 0.0375 0.3016
C8 C 0.3090(3) 0.1433(5) 0.1994(4)
H11 H 0.2575 0.1474 0.1893
C9 C 0.3331(3) 0.2013(5) 0.1474(4)
H12 H 0.2993 0.2444 0.1016
C10 C 0.4107(2) 0.1959(4) 0.1633(3)
C11 C 0.4530(3) 0.2503(4) 0.1177(3)
C12 C 0.5292(2) 0.2267(4) 0.1518(3)
C13 C 0.5663(3) 0.2813(4) 0.1037(3)
H13 H 0.6184 0.2751 0.1179
C14 C 0.5186(3) 0.3431(4) 0.0354(3)
H14 H 0.5340 0.3833 -0.0025
C15 C 0.6100(2) 0.1860(4) 0.3300(3)
C16 C 0.6297(2) 0.2978(4) 0.3472(3)
H15 H 0.6106 0.3491 0.3014
C17 C 0.6766(3) 0.3356(5) 0.4301(3)
H16 H 0.6878 0.4114 0.4395
C18 C 0.7065(3) 0.2620(5) 0.4982(3)
H17 H 0.7377 0.2875 0.5542
C19 C 0.6903(3) 0.1509(5) 0.4839(3)
H18 H 0.7117 0.1001 0.5297
C20 C 0.6420(3) 0.1138(4) 0.4011(3)
H19 H 0.6307 0.0379 0.3927
O2 O 0.9359(2) 0.0336(3) 0.1532(2)
S2 S 1.0906(2) 0.3390(2) 0.1061(2)
B2 B 0.9657(3) 0.1546(5) 0.1987(3)
C21 C 0.9011(3) 0.2002(4) 0.2284(3)
C22 C 0.8757(3) 0.1376(6) 0.2826(4)
H20 H 0.8937 0.0651 0.2983
C23 C 0.8233(4) 0.1829(7) 0.3134(4)
H21 H 0.8069 0.1408 0.3495
C24 C 0.7966(3) 0.2898(8) 0.2899(5)
H22 H 0.7625 0.3203 0.3109
C25 C 0.8193(3) 0.3508(6) 0.2367(4)
H23 H 0.8006 0.4230 0.2207
C26 C 0.8700(3) 0.3062(5) 0.2063(3)
H24 H 0.8843 0.3493 0.1689
C27 C 0.8602(4) 0.0264(7) 0.0839(5)
H25 H 0.8435 0.0990 0.0570
H26 H 0.8240 -0.0004 0.1068
C28 C 0.8662(5) -0.0540(8) 0.0187(5)
H27 H 0.8254 -0.1087 0.0027
H28 H 0.8622 -0.0147 -0.0341
C29 C 0.9403(5) -0.1093(7) 0.0594(5)
H29 H 0.9648 -0.1136 0.0185
H30 H 0.9345 -0.1845 0.0778
C30 C 0.9859(4) -0.0397(6) 0.1363(4)
H31 H 1.0122 -0.0869 0.1872
H32 H 1.0239 0.0025 0.1242
C31 C 0.9980(4) 0.3437(6) 0.0255(5)
H33 H 0.9828 0.3828 -0.0272
C32 C 0.9520(5) 0.2826(6) 0.0505(4)
H34 H 0.9001 0.2740 0.0159
C33 C 1.1028(3) 0.1997(5) 0.2610(4)
C34 C 1.1795(3) 0.2051(6) 0.3208(5)
H35 H 1.2145 0.2494 0.3096
C35 C 1.0747(3) 0.0771(5) 0.3565(3)
H36 H 1.0407 0.0341 0.3707
C36 C 1.0494(2) 0.1362(4) 0.2780(3)
C37 C 0.9883(4) 0.2324(5) 0.1338(3)
C38 C 1.1510(3) 0.0830(6) 0.4135(4)
H37 H 1.1695 0.0439 0.4664
C39 C 1.0656(4) 0.2537(5) 0.1756(4)
C40 C 1.1990(3) 0.1490(6) 0.3891(4)
H38 H 1.2504 0.1513 0.4274
loop_
_geom_bond_atom_site_label_1
_geom_bond_atom_site_label_2
_geom_bond_site_symmetry_1
_geom_bond_site_symmetry_2
O1 B1 1_555 1_555
S1 C11 1_555 1_555
B1 C5 1_555 1_555
C1 H1 1_555 1_555
H2 C1 1_555 1_555
C2 O1 1_555 1_555
H3 C2 1_555 1_555
H4 C2 1_555 1_555
C3 C1 1_555 1_555
H5 C3 1_555 1_555
H6 C3 1_555 1_555
C4 O1 1_555 1_555
H7 C4 1_555 1_555
H8 C4 1_555 1_555
C5 C6 1_555 1_555
C6 H9 1_555 1_555
C7 C6 1_555 1_555
H10 C7 1_555 1_555
C8 C7 1_555 1_555
H11 C8 1_555 1_555
C9 C8 1_555 1_555
H12 C9 1_555 1_555
C10 C5 1_555 1_555
C11 C10 1_555 1_555
C12 B1 1_555 1_555
C13 C12 1_555 1_555
H13 C13 1_555 1_555
C14 S1 1_555 1_555
H14 C14 1_555 1_555
C15 B1 1_555 1_555
C16 C15 1_555 1_555
H15 C16 1_555 1_555
C17 C16 1_555 1_555
H16 C17 1_555 1_555
C18 C17 1_555 1_555
H17 C18 1_555 1_555
C19 C18 1_555 1_555
H18 C19 1_555 1_555
C20 C15 1_555 1_555
H19 C20 1_555 1_555
O2 B2 1_555 1_555
S2 C31 1_555 1_555
B2 C21 1_555 1_555
C21 C22 1_555 1_555
C22 H20 1_555 1_555
C23 C22 1_555 1_555
H21 C23 1_555 1_555
C24 C23 1_555 1_555
H22 C24 1_555 1_555
C25 C24 1_555 1_555
H23 C25 1_555 1_555
C26 C21 1_555 1_555
H24 C26 1_555 1_555
C27 O2 1_555 1_555
H25 C27 1_555 1_555
H26 C27 1_555 1_555
C28 C27 1_555 1_555
H27 C28 1_555 1_555
H28 C28 1_555 1_555
C29 C28 1_555 1_555
H29 C29 1_555 1_555
H30 C29 1_555 1_555
C30 O2 1_555 1_555
H31 C30 1_555 1_555
H32 C30 1_555 1_555
C31 H33 1_555 1_555
C32 C31 1_555 1_555
H34 C32 1_555 1_555
C33 C34 1_555 1_555
C34 H35 1_555 1_555
C35 H36 1_555 1_555
C36 B2 1_555 1_555
C37 B2 1_555 1_555
C38 C35 1_555 1_555
H37 C38 1_555 1_555
C39 S2 1_555 1_555
C40 C34 1_555 1_555
H38 C40 1_555 1_555
C1 C2 1_555 1_555
C3 C4 1_555 1_555
C9 C10 1_555 1_555
C11 C12 1_555 1_555
C13 C14 1_555 1_555
C19 C20 1_555 1_555
C25 C26 1_555 1_555
C29 C30 1_555 1_555
C32 C37 1_555 1_555
C33 C36 1_555 1_555
C33 C39 1_555 1_555
C35 C36 1_555 1_555
C37 C39 1_555 1_555
C38 C40 1_555 1_555

#END
