
#######################################################################
#
#                 Cambridge Crystallographic Data Centre
#                                CCDC 
#
#######################################################################
#
# If this CIF has been generated from an entry in the Cambridge 
# Structural Database, then it will include bibliographic, chemical, 
# crystal, experimental, refinement or atomic coordinate data resulting 
# from the CCDC's data processing and validation procedures.
#
#######################################################################

data_PIWVUN
_chemical_formula_moiety         'C24 H18 N4 O5 S1'
_chemical_name_systematic        
cis-2-Amino-5-(benzoyl)-1-((4-nitrophenyl)sulfonyl)-4-phenyl-4,5-dihydro-1H-pyrrole-3-carbonitrile
_chemical_properties_biological  
'Some antiproliferative effect (as a 1:2 cis:trans ratio of isomers) against two cancer cell lines, HeLa and MCF7/AZ, as models for human cervical and breast adenocarcinoma, respectively'
_symmetry_cell_setting           monoclinic
_symmetry_space_group_name_H-M   'P 21'
_symmetry_Int_Tables_number      4
_space_group_name_Hall           'P 2yb'
loop_
_symmetry_equiv_pos_site_id
_symmetry_equiv_pos_as_xyz
1 x,y,z
2 -x,1/2+y,-z
_cell_length_a                   9.1332(13)
_cell_length_b                   20.872(3)
_cell_length_c                   22.915(3)
_cell_angle_alpha                90
_cell_angle_beta                 90.255(2)
_cell_angle_gamma                90
_cell_volume                     4368.2
_exptl_crystal_colour            orange
_exptl_crystal_description       needle
_chemical_melting_point          '201 deg.C'
_cell_formula_units_Z            8
loop_
_atom_site_label
_atom_site_type_symbol
_atom_site_fract_x
_atom_site_fract_y
_atom_site_fract_z
S1 S -0.28829(6) -0.78088(3) -0.38410(2)
O1 O -0.90811(18) -0.68857(8) -0.26092(7)
N1 N -0.7864(2) -0.69324(9) -0.23762(9)
C1 C -0.6663(3) -0.72168(11) -0.27231(10)
O5 O -0.75881(19) -0.67509(8) -0.18813(7)
N5 N -0.2197(2) -0.84919(9) -0.36081(8)
C5 C -0.6920(3) -0.73556(13) -0.33023(11)
H1 H -0.7871 -0.7310 -0.3467
O9 O -0.17764(18) -0.73294(8) -0.37506(7)
N9 N 0.0128(2) -0.95329(10) -0.20178(9)
C9 C -0.5753(3) -0.75631(13) -0.36396(10)
H5 H -0.5896 -0.7663 -0.4040
O13 O -0.34457(18) -0.79277(8) -0.44126(6)
N13 N -0.0485(2) -0.80895(9) -0.28972(9)
H9 H 0.0065 -0.8148 -0.2585
H10 H -0.0516 -0.7711 -0.3066
C13 C -0.4378(3) -0.76232(10) -0.33863(10)
O17 O -0.13908(18) -0.90714(8) -0.46033(7)
C17 C -0.4154(3) -0.75054(11) -0.27961(10)
H17 H -0.3210 -0.7561 -0.2628
C21 C -0.5316(3) -0.73064(12) -0.24555(10)
H21 H -0.5193 -0.7233 -0.2049
C25 C -0.2929(2) -0.91055(11) -0.37589(9)
H25 H -0.4014 -0.9044 -0.3763
C29 C -0.2417(3) -0.93338(11) -0.43652(10)
C33 C -0.3203(3) -0.98863(11) -0.46405(10)
C37 C -0.2831(3) -1.00708(13) -0.52087(11)
H29 H -0.2116 -0.9834 -0.5418
C41 C -0.3494(3) -1.05939(13) -0.54674(11)
H33 H -0.3250 -1.0708 -0.5856
C45 C -0.4514(3) -1.09534(12) -0.51641(11)
H37 H -0.4937 -1.1323 -0.5338
C49 C -0.4918(3) -1.07688(12) -0.46019(11)
H41 H -0.5628 -1.1010 -0.4394
C53 C -0.4282(3) -1.02342(11) -0.43461(10)
H45 H -0.4580 -1.0103 -0.3968
C57 C -0.2489(2) -0.95808(11) -0.32515(9)
H49 H -0.1998 -0.9966 -0.3422
C61 C -0.3777(2) -0.97941(11) -0.28840(9)
C65 C -0.4190(3) -1.04386(11) -0.28692(10)
H53 H -0.3639 -1.0747 -0.3080
C69 C -0.5401(3) -1.06326(12) -0.25482(10)
H57 H -0.5675 -1.1072 -0.2540
C73 C -0.6208(3) -1.01839(12) -0.22400(10)
H61 H -0.7035 -1.0317 -0.2021
C77 C -0.5815(3) -0.95472(12) -0.22501(10)
H65 H -0.6376 -0.9240 -0.2042
C81 C -0.4592(3) -0.93533(12) -0.25664(10)
H69 H -0.4312 -0.8915 -0.2565
C85 C -0.1368(2) -0.91847(11) -0.29180(10)
C89 C -0.0550(3) -0.93924(11) -0.24260(10)
C93 C -0.1274(2) -0.85755(11) -0.31144(9)
S2 S -0.54338(6) -0.99371(3) 0.00253(2)
O2 O 0.06677(18) -1.07983(8) -0.13014(8)
N2 N -0.0567(2) -1.07698(9) -0.15235(9)
C2 C -0.1777(2) -1.05303(11) -0.11582(10)
O6 O -0.0847(2) -1.09368(8) -0.20229(8)
N6 N -0.6080(2) -0.92397(9) -0.02086(8)
C6 C -0.1439(3) -1.01952(12) -0.06557(10)
H2 H -0.0450 -1.0105 -0.0556
O10 O -0.65865(18) -1.03964(8) -0.00398(7)
N10 N -0.8478(2) -0.81385(10) -0.17482(9)
C10 C -0.2576(2) -0.99926(12) -0.02986(10)
H6 H -0.2381 -0.9751 0.0044
O14 O -0.47871(17) -0.98092(8) 0.05812(7)
N14 N -0.7805(2) -0.96306(9) -0.09106(8)
H11 H -0.8370 -0.9565 -0.1217
H12 H -0.7766 -1.0012 -0.0748
C14 C -0.4012(2) -1.01527(10) -0.04550(9)
O18 O -0.67185(17) -0.86809(8) 0.08153(7)
C18 C -0.4326(3) -1.04889(12) -0.09630(10)
H18 H -0.5310 -1.0591 -0.1062
C22 C -0.3188(3) -1.06749(12) -0.13255(10)
H22 H -0.3378 -1.0896 -0.1680
C26 C -0.5301(2) -0.86404(10) -0.00597(9)
H26 H -0.4220 -0.8709 -0.0087
C30 C -0.5703(2) -0.84250(11) 0.05624(9)
C34 C -0.4851(2) -0.78944(11) 0.08381(9)
C38 C -0.5114(3) -0.77612(11) 0.14256(10)
H30 H -0.5815 -0.8006 0.1634
C42 C -0.4354(3) -0.72720(12) 0.17066(10)
H34 H -0.4521 -0.7188 0.2108
C46 C -0.3349(3) -0.69053(11) 0.13976(10)
H38 H -0.2842 -0.6567 0.1588
C50 C -0.3083(3) -0.70309(11) 0.08140(10)
H42 H -0.2403 -0.6777 0.0604
C54 C -0.3817(3) -0.75311(11) 0.05373(10)
H46 H -0.3612 -0.7626 0.0141
C58 C -0.5808(2) -0.81415(11) -0.05386(9)
H50 H -0.6314 -0.7774 -0.0345
C62 C -0.4543(2) -0.78890(11) -0.09036(9)
C66 C -0.3629(3) -0.83080(12) -0.12076(9)
H54 H -0.3831 -0.8754 -0.1206
C70 C -0.2431(3) -0.80776(13) -0.15110(10)
H58 H -0.1806 -0.8368 -0.1710
C74 C -0.2140(3) -0.74278(13) -0.15253(10)
H62 H -0.1315 -0.7272 -0.1733
C78 C -0.3052(3) -0.70032(13) -0.12369(10)
H66 H -0.2861 -0.6556 -0.1251
C82 C -0.4244(3) -0.72327(11) -0.09271(10)
H70 H -0.4864 -0.6940 -0.0729
C86 C -0.6922(2) -0.85301(11) -0.08846(9)
C90 C -0.7782(3) -0.83003(11) -0.13547(10)
C94 C -0.7004(2) -0.91498(11) -0.06927(9)
S3 S -0.96883(6) -0.50092(3) -0.10576(2)
O3 O -1.56804(18) -0.58233(8) -0.25092(8)
N3 N -1.4414(2) -0.58544(9) -0.26917(9)
C3 C -1.3234(2) -0.56258(11) -0.23007(9)
O7 O -1.40705(19) -0.60716(8) -0.31686(7)
N7 N -0.9001(2) -0.43308(9) -0.13177(8)
C7 C -1.1832(3) -0.58628(11) -0.23863(10)
H3 H -1.1629 -0.6147 -0.2699
O11 O -1.03689(17) -0.48338(8) -0.05216(7)
N11 N -0.6726(2) -0.33210(10) -0.29402(9)
C11 C -1.0737(3) -0.56741(11) -0.20029(10)
H7 H -0.9767 -0.5830 -0.2047
O15 O -0.85394(17) -0.54757(8) -0.10730(7)
N15 N -0.7355(2) -0.47841(9) -0.20194(9)
H13 H -0.6821 -0.4746 -0.2336
H14 H -0.7388 -0.5152 -0.1833
C15 C -1.1075(2) -0.52523(10) -0.15512(9)
O19 O -0.82326(18) -0.36794(8) -0.03439(7)
C19 C -1.2481(2) -0.50130(11) -0.14753(10)
H19 H -1.2684 -0.4721 -0.1168
C23 C -1.3588(3) -0.52063(11) -0.18542(10)
H23 H -1.4562 -0.5055 -0.1808
C27 C -0.9750(2) -0.37173(10) -0.12000(9)
H27 H -1.0834 -0.3785 -0.1201
C31 C -0.9263(2) -0.34441(11) -0.06046(9)
C35 C -1.0081(2) -0.28840(11) -0.03657(9)
C39 C -0.9701(3) -0.26522(13) 0.01897(10)
H31 H -0.8952 -0.2859 0.0409
C43 C -1.0411(3) -0.21234(13) 0.04211(11)
H35 H -1.0151 -0.1973 0.0799
C47 C -1.1491(3) -0.18143(12) 0.01074(11)
H39 H -1.1957 -0.1446 0.0265
C51 C -1.1898(3) -0.20421(11) -0.04412(10)
H43 H -1.2653 -0.1834 -0.0656
C55 C -1.1199(3) -0.25738(11) -0.06731(10)
H47 H -1.1484 -0.2729 -0.1046
C59 C -0.9314(2) -0.32679(11) -0.17228(9)
H51 H -0.8819 -0.2875 -0.1568
C63 C -1.0628(2) -0.30735(11) -0.20968(9)
C67 C -1.1494(3) -0.35362(11) -0.23696(9)
H55 H -1.1240 -0.3976 -0.2338
C71 C -1.2725(3) -0.33563(12) -0.26871(10)
H59 H -1.3317 -0.3674 -0.2868
C75 C -1.3094(3) -0.27158(12) -0.27419(9)
H63 H -1.3937 -0.2596 -0.2960
C79 C -1.2235(3) -0.22491(12) -0.24790(10)
H67 H -1.2482 -0.1809 -0.2519
C83 C -1.1002(3) -0.24311(11) -0.21548(9)
H71 H -1.0414 -0.2113 -0.1973
C87 C -0.8211(2) -0.36781(11) -0.20452(10)
C91 C -0.7392(3) -0.34741(11) -0.25360(10)
C95 C -0.8122(2) -0.42798(11) -0.18203(10)
S4 S -0.78678(6) -0.79006(3) -0.50105(2)
O4 O -1.2473(2) -0.69157(8) -0.70453(7)
N4 N -1.2791(2) -0.70539(9) -0.65399(9)
C4 C -1.1622(3) -0.73145(11) -0.61638(10)
O8 O -1.40216(19) -0.69871(9) -0.63310(8)
N8 N -0.7182(2) -0.85839(9) -0.52424(8)
C8 C -1.1873(3) -0.73886(14) -0.55758(11)
H4 H -1.2807 -0.7300 -0.5414
O12 O -0.84331(18) -0.80145(8) -0.44430(7)
N12 N -0.4660(2) -0.96627(10) -0.67512(9)
C12 C -1.0715(3) -0.75969(14) -0.52243(11)
H8 H -1.0856 -0.7660 -0.4818
O16 O -0.67587(19) -0.74242(8) -0.51013(7)
N16 N -0.5392(2) -0.81921(10) -0.59201(9)
H15 H -0.4792 -0.8259 -0.6213
H16 H -0.5461 -0.7808 -0.5765
C16 C -0.9367(3) -0.77106(11) -0.54694(10)
O20 O -0.64258(19) -0.91328(9) -0.42260(7)
C20 C -0.9147(3) -0.76504(12) -0.60656(10)
H20 H -0.8216 -0.7741 -0.6230
C24 C -1.0297(3) -0.74579(12) -0.64175(10)
H24 H -1.0176 -0.7425 -0.6828
C28 C -0.7913(3) -0.91949(11) -0.50872(9)
H28 H -0.9001 -0.9144 -0.5110
C32 C -0.7456(3) -0.93961(12) -0.44681(10)
C36 C -0.8319(3) -0.99177(12) -0.41825(10)
C40 C -0.8070(3) -1.00351(13) -0.35860(10)
H32 H -0.7345 -0.9798 -0.3380
C44 C -0.8883(3) -1.04965(13) -0.32991(11)
H36 H -0.8729 -1.0569 -0.2894
C48 C -0.9922(3) -1.08541(12) -0.35998(12)
H40 H -1.0476 -1.1170 -0.3400
C52 C -1.0152(3) -1.07512(12) -0.41882(11)
H44 H -1.0845 -1.1004 -0.4395
C56 C -0.9365(3) -1.02748(12) -0.44793(10)
H48 H -0.9547 -1.0195 -0.4881
C60 C -0.7377(3) -0.96875(11) -0.55624(9)
H52 H -0.6876 -1.0054 -0.5364
C64 C -0.8614(2) -0.99473(11) -0.59466(9)
C68 C -0.9534(3) -0.95294(12) -0.62524(10)
H56 H -0.9369 -0.9080 -0.6235
C72 C -1.0690(3) -0.97701(13) -0.65823(11)
H60 H -1.1314 -0.9483 -0.6788
C76 C -1.0942(3) -1.04199(13) -0.66145(11)
H64 H -1.1742 -1.0580 -0.6837
C80 C -1.0026(3) -1.08363(12) -0.63214(11)
H68 H -1.0188 -1.1285 -0.6347
C84 C -0.8859(3) -1.06011(12) -0.59870(10)
H72 H -0.8231 -1.0891 -0.5787
C88 C -0.6246(2) -0.92953(12) -0.58925(10)
C92 C -0.5373(3) -0.95180(11) -0.63605(10)
C96 C -0.6205(2) -0.86764(11) -0.57103(10)
loop_
_geom_bond_atom_site_label_1
_geom_bond_atom_site_label_2
_geom_bond_site_symmetry_1
_geom_bond_site_symmetry_2
S1 N5 1_555 1_555
S2 N6 1_555 1_555
S3 N7 1_555 1_555
S4 N8 1_555 1_555
O1 N1 1_555 1_555
O2 N2 1_555 1_555
O3 N3 1_555 1_555
O4 N4 1_555 1_555
N1 C1 1_555 1_555
N2 C2 1_555 1_555
N3 C3 1_555 1_555
N4 C4 1_555 1_555
C1 C5 1_555 1_555
C2 C6 1_555 1_555
C3 C7 1_555 1_555
C4 C8 1_555 1_555
O5 N1 1_555 1_555
O6 N2 1_555 1_555
O7 N3 1_555 1_555
O8 N4 1_555 1_555
N5 C25 1_555 1_555
N6 C26 1_555 1_555
N7 C27 1_555 1_555
N8 C28 1_555 1_555
C5 H1 1_555 1_555
C6 H2 1_555 1_555
C7 H3 1_555 1_555
C8 H4 1_555 1_555
O9 S1 1_555 1_555
O10 S2 1_555 1_555
O11 S3 1_555 1_555
O12 S4 1_555 1_555
N9 C89 1_555 1_555
N10 C90 1_555 1_555
N11 C91 1_555 1_555
N12 C92 1_555 1_555
C9 C5 1_555 1_555
H5 C9 1_555 1_555
C10 C6 1_555 1_555
H6 C10 1_555 1_555
C11 C7 1_555 1_555
H7 C11 1_555 1_555
C12 C8 1_555 1_555
H8 C12 1_555 1_555
O13 S1 1_555 1_555
O14 S2 1_555 1_555
O15 S3 1_555 1_555
O16 S4 1_555 1_555
N13 H9 1_555 1_555
H10 N13 1_555 1_555
N14 H11 1_555 1_555
H12 N14 1_555 1_555
N15 H13 1_555 1_555
H14 N15 1_555 1_555
N16 H15 1_555 1_555
H16 N16 1_555 1_555
C13 S1 1_555 1_555
C14 S2 1_555 1_555
C15 S3 1_555 1_555
C16 S4 1_555 1_555
O17 C29 1_555 1_555
O18 C30 1_555 1_555
O19 C31 1_555 1_555
O20 C32 1_555 1_555
C17 C13 1_555 1_555
H17 C17 1_555 1_555
C18 C14 1_555 1_555
H18 C18 1_555 1_555
C19 C15 1_555 1_555
H19 C19 1_555 1_555
C20 C16 1_555 1_555
H20 C20 1_555 1_555
C21 C1 1_555 1_555
H21 C21 1_555 1_555
C22 C2 1_555 1_555
H22 C22 1_555 1_555
C23 C3 1_555 1_555
H23 C23 1_555 1_555
C24 C4 1_555 1_555
H24 C24 1_555 1_555
C25 H25 1_555 1_555
C26 H26 1_555 1_555
C27 H27 1_555 1_555
C28 H28 1_555 1_555
C29 C25 1_555 1_555
C30 C26 1_555 1_555
C31 C27 1_555 1_555
C32 C28 1_555 1_555
C33 C29 1_555 1_555
C34 C30 1_555 1_555
C35 C31 1_555 1_555
C36 C32 1_555 1_555
C37 C33 1_555 1_555
H29 C37 1_555 1_555
C38 C34 1_555 1_555
H30 C38 1_555 1_555
C39 C35 1_555 1_555
H31 C39 1_555 1_555
C40 C36 1_555 1_555
H32 C40 1_555 1_555
C41 C37 1_555 1_555
H33 C41 1_555 1_555
C42 C38 1_555 1_555
H34 C42 1_555 1_555
C43 C39 1_555 1_555
H35 C43 1_555 1_555
C44 C40 1_555 1_555
H36 C44 1_555 1_555
C45 C41 1_555 1_555
H37 C45 1_555 1_555
C46 C42 1_555 1_555
H38 C46 1_555 1_555
C47 C43 1_555 1_555
H39 C47 1_555 1_555
C48 C44 1_555 1_555
H40 C48 1_555 1_555
C49 C45 1_555 1_555
H41 C49 1_555 1_555
C50 C46 1_555 1_555
H42 C50 1_555 1_555
C51 C47 1_555 1_555
H43 C51 1_555 1_555
C52 C48 1_555 1_555
H44 C52 1_555 1_555
C53 C33 1_555 1_555
H45 C53 1_555 1_555
C54 C34 1_555 1_555
H46 C54 1_555 1_555
C55 C35 1_555 1_555
H47 C55 1_555 1_555
C56 C36 1_555 1_555
H48 C56 1_555 1_555
C57 C25 1_555 1_555
H49 C57 1_555 1_555
C58 C26 1_555 1_555
H50 C58 1_555 1_555
C59 C27 1_555 1_555
H51 C59 1_555 1_555
C60 C28 1_555 1_555
H52 C60 1_555 1_555
C61 C57 1_555 1_555
C62 C58 1_555 1_555
C63 C59 1_555 1_555
C64 C60 1_555 1_555
C65 C61 1_555 1_555
H53 C65 1_555 1_555
C66 C62 1_555 1_555
H54 C66 1_555 1_555
C67 C63 1_555 1_555
H55 C67 1_555 1_555
C68 C64 1_555 1_555
H56 C68 1_555 1_555
C69 C65 1_555 1_555
H57 C69 1_555 1_555
C70 C66 1_555 1_555
H58 C70 1_555 1_555
C71 C67 1_555 1_555
H59 C71 1_555 1_555
C72 C68 1_555 1_555
H60 C72 1_555 1_555
C73 C69 1_555 1_555
H61 C73 1_555 1_555
C74 C70 1_555 1_555
H62 C74 1_555 1_555
C75 C71 1_555 1_555
H63 C75 1_555 1_555
C76 C72 1_555 1_555
H64 C76 1_555 1_555
C77 C73 1_555 1_555
H65 C77 1_555 1_555
C78 C74 1_555 1_555
H66 C78 1_555 1_555
C79 C75 1_555 1_555
H67 C79 1_555 1_555
C80 C76 1_555 1_555
H68 C80 1_555 1_555
C81 C61 1_555 1_555
H69 C81 1_555 1_555
C82 C62 1_555 1_555
H70 C82 1_555 1_555
C83 C63 1_555 1_555
H71 C83 1_555 1_555
C84 C64 1_555 1_555
H72 C84 1_555 1_555
C85 C57 1_555 1_555
C86 C58 1_555 1_555
C87 C59 1_555 1_555
C88 C60 1_555 1_555
C89 C85 1_555 1_555
C90 C86 1_555 1_555
C91 C87 1_555 1_555
C92 C88 1_555 1_555
C93 N5 1_555 1_555
C94 N6 1_555 1_555
C95 N7 1_555 1_555
C96 N8 1_555 1_555
C9 C13 1_555 1_555
C10 C14 1_555 1_555
C11 C15 1_555 1_555
C12 C16 1_555 1_555
N13 C93 1_555 1_555
N14 C94 1_555 1_555
N15 C95 1_555 1_555
N16 C96 1_555 1_555
C17 C21 1_555 1_555
C18 C22 1_555 1_555
C19 C23 1_555 1_555
C20 C24 1_555 1_555
C49 C53 1_555 1_555
C50 C54 1_555 1_555
C51 C55 1_555 1_555
C52 C56 1_555 1_555
C77 C81 1_555 1_555
C78 C82 1_555 1_555
C79 C83 1_555 1_555
C80 C84 1_555 1_555
C85 C93 1_555 1_555
C86 C94 1_555 1_555
C87 C95 1_555 1_555
C88 C96 1_555 1_555

#END
