
#######################################################################
#
#                 Cambridge Crystallographic Data Centre
#                                CCDC 
#
#######################################################################
#
# If this CIF has been generated from an entry in the Cambridge 
# Structural Database, then it will include bibliographic, chemical, 
# crystal, experimental, refinement or atomic coordinate data resulting 
# from the CCDC's data processing and validation procedures.
#
#######################################################################

data_PIWZAZ
_chemical_formula_moiety         'C26 H17 B1 N4 O2,C1 H4 O1'
_chemical_name_systematic        
"6,12'-dihydrospiro[benzimidazo[1,2-c][1,3,2]benzoxazaborinine-6,6'-[3,1]benzimidazo[1,2-c][1,3,2]benzoxazaborinine] methanol solvate"
_symmetry_cell_setting           monoclinic
_symmetry_space_group_name_H-M   'P 21/n'
_symmetry_Int_Tables_number      14
_space_group_name_Hall           '-P 2yn'
loop_
_symmetry_equiv_pos_site_id
_symmetry_equiv_pos_as_xyz
1 x,y,z
2 1/2-x,1/2+y,1/2-z
3 -x,-y,-z
4 1/2+x,1/2-y,1/2+z
_cell_length_a                   9.6544(5)
_cell_length_b                   14.1558(8)
_cell_length_c                   16.4314(9)
_cell_angle_alpha                90
_cell_angle_beta                 97.730(5)
_cell_angle_gamma                90
_cell_volume                     2225.2
_exptl_crystal_colour            colorless
_exptl_crystal_description       block
_cell_formula_units_Z            4
loop_
_atom_site_label
_atom_site_type_symbol
_atom_site_fract_x
_atom_site_fract_y
_atom_site_fract_z
O1 O 0.0118(2) 0.23512(19) 0.41151(14)
O2 O 0.2079(3) 0.14433(19) 0.37671(16)
N1 N 0.1923(3) 0.18456(19) 0.52022(16)
N2 N 0.1487(3) 0.1085(2) 0.63057(17)
H1 H 0.1045 0.0772 0.6638
N3 N 0.2407(3) 0.3083(2) 0.41679(16)
N4 N 0.3912(3) 0.4051(2) 0.36224(19)
C1 C -0.0812(4) 0.1788(3) 0.4418(2)
C2 C -0.2166(4) 0.1732(3) 0.4017(3)
H2 H -0.2427 0.2083 0.3542
C3 C -0.3126(4) 0.1157(3) 0.4323(3)
H3 H -0.4031 0.1119 0.4049
C4 C -0.2769(4) 0.0639(3) 0.5027(3)
H4 H -0.3427 0.0246 0.5218
C5 C -0.1447(4) 0.0697(3) 0.5450(2)
H5 H -0.1214 0.0357 0.5933
C6 C -0.0454(3) 0.1271(3) 0.5150(2)
C7 C 0.0954(4) 0.1385(2) 0.5557(2)
C8 C 0.2874(4) 0.1364(3) 0.6455(2)
C9 C 0.3865(5) 0.1251(3) 0.7134(2)
H6 H 0.3659 0.0946 0.7604
C10 C 0.5174(5) 0.1610(3) 0.7082(3)
H7 H 0.5871 0.1545 0.7528
C11 C 0.5481(4) 0.2068(3) 0.6378(3)
H8 H 0.6378 0.2301 0.6363
C12 C 0.4485(4) 0.2184(3) 0.5705(2)
H9 H 0.4694 0.2488 0.5234
C13 C 0.3160(3) 0.1832(2) 0.5752(2)
C14 C 0.2957(4) 0.1550(3) 0.3214(2)
C15 C 0.3220(4) 0.0799(3) 0.2720(2)
H10 H 0.2777 0.0225 0.2779
C16 C 0.4119(5) 0.0881(3) 0.2146(3)
H11 H 0.4254 0.0371 0.1809
C17 C 0.4818(5) 0.1708(3) 0.2066(3)
H12 H 0.5456 0.1754 0.1692
C18 C 0.4573(4) 0.2465(3) 0.2540(3)
H13 H 0.5040 0.3029 0.2475
C19 C 0.3647(4) 0.2419(3) 0.3118(2)
C20 C 0.3357(4) 0.3207(3) 0.3630(2)
C21 C 0.3295(4) 0.4548(3) 0.4226(2)
C22 C 0.3498(5) 0.5470(3) 0.4486(3)
H14 H 0.4122 0.5858 0.4260
C23 C 0.2765(5) 0.5808(3) 0.5086(3)
H15 H 0.2889 0.6428 0.5266
C24 C 0.1812(5) 0.5204(4) 0.5430(3)
H16 H 0.1321 0.5429 0.5839
C25 C 0.1622(4) 0.4288(3) 0.5155(2)
H17 H 0.0992 0.3892 0.5370
C26 C 0.2369(4) 0.3968(3) 0.4562(2)
B1 B 0.1623(4) 0.2193(3) 0.4282(3)
O3 O -0.0460(4) -0.0178(2) 0.24728(19)
H18 H -0.0032 -0.0407 0.2122
C27 C -0.0864(5) 0.0734(3) 0.2249(3)
H19 H -0.1015 0.0783 0.1661
H20 H -0.0143 0.1168 0.2466
H21 H -0.1713 0.0885 0.2465
loop_
_geom_bond_atom_site_label_1
_geom_bond_atom_site_label_2
_geom_bond_site_symmetry_1
_geom_bond_site_symmetry_2
O1 C1 1_555 1_555
O2 C14 1_555 1_555
N1 C7 1_555 1_555
N2 H1 1_555 1_555
N3 C20 1_555 1_555
N4 C20 1_555 1_555
C1 C2 1_555 1_555
C2 H2 1_555 1_555
C3 C2 1_555 1_555
H3 C3 1_555 1_555
C4 C3 1_555 1_555
H4 C4 1_555 1_555
C5 C4 1_555 1_555
H5 C5 1_555 1_555
C6 C1 1_555 1_555
C7 N2 1_555 1_555
C8 N2 1_555 1_555
C9 C8 1_555 1_555
H6 C9 1_555 1_555
C10 C9 1_555 1_555
H7 C10 1_555 1_555
C11 C10 1_555 1_555
H8 C11 1_555 1_555
C12 C11 1_555 1_555
H9 C12 1_555 1_555
C13 N1 1_555 1_555
C14 C15 1_555 1_555
C15 H10 1_555 1_555
C16 C15 1_555 1_555
H11 C16 1_555 1_555
C17 C16 1_555 1_555
H12 C17 1_555 1_555
C18 C17 1_555 1_555
H13 C18 1_555 1_555
C19 C14 1_555 1_555
C20 C19 1_555 1_555
C21 N4 1_555 1_555
C22 C21 1_555 1_555
H14 C22 1_555 1_555
C23 C22 1_555 1_555
H15 C23 1_555 1_555
C24 C23 1_555 1_555
H16 C24 1_555 1_555
C25 C24 1_555 1_555
H17 C25 1_555 1_555
C26 N3 1_555 1_555
B1 O1 1_555 1_555
O3 H18 1_555 1_555
C27 O3 1_555 1_555
H19 C27 1_555 1_555
H20 C27 1_555 1_555
H21 C27 1_555 1_555
O2 B1 1_555 1_555
N1 B1 1_555 1_555
N3 B1 1_555 1_555
C5 C6 1_555 1_555
C6 C7 1_555 1_555
C8 C13 1_555 1_555
C12 C13 1_555 1_555
C18 C19 1_555 1_555
C21 C26 1_555 1_555
C25 C26 1_555 1_555

#END
