
#######################################################################
#
#                 Cambridge Crystallographic Data Centre
#                                CCDC 
#
#######################################################################
#
# If this CIF has been generated from an entry in the Cambridge 
# Structural Database, then it will include bibliographic, chemical, 
# crystal, experimental, refinement or atomic coordinate data resulting 
# from the CCDC's data processing and validation procedures.
#
#######################################################################

data_PIXNUH
_chemical_formula_moiety         'C15 H14 N2'
_chemical_name_systematic        2-Benzyl-1-methyl-1H-benzimidazole
_symmetry_cell_setting           monoclinic
_symmetry_space_group_name_H-M   'P 21/c'
_symmetry_Int_Tables_number      14
_space_group_name_Hall           '-P 2ybc'
loop_
_symmetry_equiv_pos_site_id
_symmetry_equiv_pos_as_xyz
1 x,y,z
2 -x,1/2+y,1/2-z
3 -x,-y,-z
4 x,1/2-y,1/2+z
_cell_length_a                   8.661(4)
_cell_length_b                   19.052(8)
_cell_length_c                   7.320(3)
_cell_angle_alpha                90
_cell_angle_beta                 94.550(5)
_cell_angle_gamma                90
_cell_volume                     1204.06
_exptl_crystal_colour            colorless
_exptl_crystal_description       block
_cell_formula_units_Z            4
loop_
_atom_site_label
_atom_site_type_symbol
_atom_site_fract_x
_atom_site_fract_y
_atom_site_fract_z
N1 N 0.40712(15) 0.54959(7) 0.73554(17)
N2 N 0.28931(15) 0.48115(7) 0.92912(17)
C1 C 0.37037(17) 0.48520(8) 0.7767(2)
C2 C 0.34697(18) 0.59075(9) 0.8682(2)
C3 C 0.3527(2) 0.66269(10) 0.8937(3)
H1 H 0.4042 0.6915 0.8158
C4 C 0.2802(3) 0.69038(11) 1.0374(3)
H2 H 0.2816 0.7387 1.0556
C5 C 0.2053(2) 0.64808(12) 1.1555(3)
H3 H 0.1570 0.6686 1.2511
C6 C 0.2003(2) 0.57659(11) 1.1355(2)
H4 H 0.1509 0.5481 1.2161
C7 C 0.27229(17) 0.54880(9) 0.9897(2)
C8 C 0.2364(2) 0.41877(10) 1.0179(2)
H5 H 0.2826 0.4167 1.1414
H6 H 0.2658 0.3780 0.9519
H7 H 0.1257 0.4202 1.0192
C9 C 0.41252(18) 0.42264(9) 0.6715(2)
H8 H 0.4615 0.3888 0.7566
H9 H 0.4888 0.4366 0.5884
C10 C 0.28015(18) 0.38643(8) 0.5610(2)
C11 C 0.3063(3) 0.32250(10) 0.4805(3)
H10 H 0.4031 0.3014 0.4985
C12 C 0.1880(4) 0.28948(11) 0.3721(3)
H11 H 0.2062 0.2464 0.3183
C13 C 0.0454(3) 0.32016(12) 0.3445(3)
H12 H -0.0329 0.2982 0.2714
C14 C 0.0188(2) 0.38228(12) 0.4236(3)
H13 H -0.0784 0.4030 0.4057
C15 C 0.1349(2) 0.41550(10) 0.5311(2)
H14 H 0.1145 0.4585 0.5845
loop_
_geom_bond_atom_site_label_1
_geom_bond_atom_site_label_2
_geom_bond_site_symmetry_1
_geom_bond_site_symmetry_2
N1 C1 1_555 1_555
N2 C1 1_555 1_555
C1 C9 1_555 1_555
C2 N1 1_555 1_555
C3 C2 1_555 1_555
H1 C3 1_555 1_555
C4 C3 1_555 1_555
H2 C4 1_555 1_555
C5 C4 1_555 1_555
H3 C5 1_555 1_555
C6 C5 1_555 1_555
H4 C6 1_555 1_555
C7 N2 1_555 1_555
C8 N2 1_555 1_555
H5 C8 1_555 1_555
H6 C8 1_555 1_555
H7 C8 1_555 1_555
C9 H8 1_555 1_555
H9 C9 1_555 1_555
C10 C9 1_555 1_555
C11 C10 1_555 1_555
H10 C11 1_555 1_555
C12 C11 1_555 1_555
H11 C12 1_555 1_555
C13 C12 1_555 1_555
H12 C13 1_555 1_555
C14 C13 1_555 1_555
H13 C14 1_555 1_555
C15 C10 1_555 1_555
H14 C15 1_555 1_555
C2 C7 1_555 1_555
C6 C7 1_555 1_555
C14 C15 1_555 1_555

#END
