
#######################################################################
#
#                 Cambridge Crystallographic Data Centre
#                                CCDC 
#
#######################################################################
#
# If this CIF has been generated from an entry in the Cambridge 
# Structural Database, then it will include bibliographic, chemical, 
# crystal, experimental, refinement or atomic coordinate data resulting 
# from the CCDC's data processing and validation procedures.
#
#######################################################################

data_PIXTUO
_chemical_formula_moiety         'C26 H18 Cl2 N4 O2,0.25(C2 H3 N1)'
_chemical_name_systematic        
'6-amino-3-(3-(benzyloxy)phenyl)-4-(3,4-dichlorophenyl)-2,4-dihydropyrano[2,3-c]pyrazole-5-carbonitrile acetonitrile solvate'
_symmetry_cell_setting           orthorhombic
_symmetry_space_group_name_H-M   'P 21 21 2'
_symmetry_Int_Tables_number      18
_space_group_name_Hall           'P 2 2ab'
loop_
_symmetry_equiv_pos_site_id
_symmetry_equiv_pos_as_xyz
1 x,y,z
2 1/2+x,1/2-y,-z
3 1/2-x,1/2+y,-z
4 -x,-y,z
_cell_length_a                   11.3928(3)
_cell_length_b                   45.6707(13)
_cell_length_c                   9.7882(3)
_cell_angle_alpha                90
_cell_angle_beta                 90
_cell_angle_gamma                90
_cell_volume                     5092.97
_exptl_crystal_colour            colorless
_exptl_crystal_description       plate
_cell_formula_units_Z            8
loop_
_atom_site_label
_atom_site_type_symbol
_atom_site_fract_x
_atom_site_fract_y
_atom_site_fract_z
C1 C 1.3793(4) 0.92581(9) 0.6183(4)
C2 C 1.3785(3) 0.89807(9) 0.5667(4)
C3 C 1.3508(4) 0.87040(9) 0.6483(4)
H1 H 1.4136 0.8556 0.6300
C4 C 1.3551(3) 0.87854(9) 0.7967(4)
C5 C 1.3637(3) 0.90766(9) 0.8383(4)
C6 C 1.3651(3) 0.86296(9) 0.9184(4)
C7 C 1.4013(4) 0.89430(9) 0.4250(4)
C8 C 1.2338(4) 0.85787(9) 0.6001(4)
C9 C 1.2331(4) 0.83840(9) 0.4897(4)
H2 H 1.3051 0.8324 0.4496
C10 C 1.1282(4) 0.82785(10) 0.4387(4)
C11 C 1.0227(4) 0.83636(11) 0.4961(5)
C12 C 1.0222(4) 0.85538(12) 0.6066(5)
H3 H 0.9500 0.8611 0.6473
C13 C 1.1271(4) 0.86593(10) 0.6572(4)
H4 H 1.1262 0.8790 0.7327
C14 C 1.3667(3) 0.83141(9) 0.9480(4)
C15 C 1.3368(3) 0.81171(9) 0.8452(4)
H5 H 1.3141 0.8189 0.7580
C16 C 1.3400(4) 0.78166(9) 0.8687(4)
C17 C 1.3743(4) 0.77090(10) 0.9947(4)
H6 H 1.3790 0.7504 1.0105
C18 C 1.4019(4) 0.79073(10) 1.0975(4)
H7 H 1.4232 0.7835 1.1852
C19 C 1.3992(4) 0.82066(10) 1.0758(4)
H8 H 1.4192 0.8338 1.1474
C20 C 1.2724(4) 0.73516(10) 0.7867(5)
H9 H 1.2339 0.7339 0.8772
H10 H 1.3429 0.7225 0.7881
C21 C 1.1896(4) 0.72495(9) 0.6782(5)
C22 C 1.1544(4) 0.74261(10) 0.5698(5)
H11 H 1.1866 0.7617 0.5596
C23 C 1.0718(5) 0.73233(12) 0.4761(5)
H12 H 1.0469 0.7446 0.4034
C24 C 1.0256(4) 0.70442(12) 0.4880(5)
H13 H 0.9690 0.6976 0.4243
C25 C 1.0631(4) 0.68656(11) 0.5940(5)
H14 H 1.0328 0.6673 0.6022
C26 C 1.1437(4) 0.69658(10) 0.6872(4)
H15 H 1.1688 0.6840 0.7589
N1 N 1.3768(3) 0.88325(8) 1.0187(3)
H16 H 1.3819 0.8814 1.1100
N2 N 1.3762(3) 0.91141(7) 0.9711(3)
N3 N 1.3975(4) 0.95081(8) 0.5513(4)
H17 H 1.3862 0.9681 0.6116
H18 H 1.4206 0.9521 0.4524
N4 N 1.4208(4) 0.88969(9) 0.3127(4)
O1 O 1.3637(3) 0.93148(6) 0.7547(3)
O2 O 1.3062(3) 0.76483(7) 0.7599(3)
Cl1 Cl 1.13212(10) 0.80389(3) 0.30061(11)
Cl2 Cl 0.89028(10) 0.82339(3) 0.43242(12)
C27 C 0.3483(4) 0.98914(9) 1.0848(4)
C28 C 0.3456(4) 1.01702(9) 1.1340(4)
C29 C 0.3427(4) 1.04509(9) 1.0491(4)
H19 H 0.4143 1.0569 1.0707
C30 C 0.3485(4) 1.03578(9) 0.9020(4)
C31 C 0.3549(4) 1.00636(9) 0.8641(4)
C32 C 0.3460(4) 1.05049(9) 0.7770(4)
C33 C 0.3490(5) 1.02060(10) 1.2770(4)
C34 C 0.2345(4) 1.06340(10) 1.0830(4)
C35 C 0.1282(4) 1.05725(13) 1.0202(5)
H20 H 0.1231 1.0416 0.9565
C36 C 0.0289(5) 1.07383(16) 1.0501(6)
C37 C 0.0359(5) 1.09606(15) 1.1463(7)
C38 C 0.1400(6) 1.10197(15) 1.2098(6)
H21 H 0.1444 1.1173 1.2754
C39 C 0.2401(5) 1.08561(11) 1.1787(5)
H22 H 0.3122 1.0898 1.2234
C40 C 0.3365(4) 1.08174(10) 0.7410(4)
C41 C 0.3518(4) 1.10311(9) 0.8402(4)
H23 H 0.3694 1.0975 0.9314
C42 C 0.3414(3) 1.13280(9) 0.8074(4)
C43 C 0.3176(4) 1.14100(10) 0.6744(5)
H24 H 0.3099 1.1611 0.6512
C44 C 0.3052(4) 1.11961(11) 0.5757(5)
H25 H 0.2910 1.1253 0.4838
C45 C 0.3128(4) 1.09016(10) 0.6072(4)
H26 H 0.3020 1.0758 0.5381
C46 C 0.3395(4) 1.18212(9) 0.8909(5)
H27 H 0.3842 1.1880 0.8086
H28 H 0.3706 1.1934 0.9694
C47 C 0.2127(4) 1.18974(10) 0.8708(5)
C48 C 0.1251(5) 1.17830(13) 0.9533(6)
H29 H 0.1440 1.1648 1.0239
C49 C 0.0073(5) 1.18690(14) 0.9313(7)
H30 H -0.0533 1.1794 0.9881
C50 C -0.0194(5) 1.20599(13) 0.8282(7)
H31 H -0.0990 1.2113 0.8126
C51 C 0.0663(5) 1.21752(13) 0.7475(7)
H32 H 0.0467 1.2310 0.6772
C52 C 0.1810(5) 1.20957(11) 0.7681(5)
H33 H 0.2403 1.2177 0.7113
N5 N 0.3495(4) 1.02947(8) 0.6803(3)
H34 H 0.3518 1.0317 0.5897
N6 N 0.3563(4) 1.00194(8) 0.7303(3)
N7 N 0.3471(4) 0.96429(8) 1.1604(4)
H35 H 0.3471 0.9466 1.1001
H36 H 0.3035 0.9648 1.2483
N8 N 0.3546(6) 1.02506(11) 1.3912(4)
O3 O 0.3568(3) 0.98281(7) 0.9498(3)
O4 O 0.3579(3) 1.15140(6) 0.9151(3)
Cl3 Cl -0.10081(14) 1.06611(6) 0.9667(2)
Cl4 Cl -0.08672(19) 1.11697(6) 1.1866(3)
N9 N 0.1491(10) 0.9613(3) 0.3745(12)
C53 C 0.0700(12) 0.9559(4) 0.4267(15)
C54 C -0.0423(11) 0.9497(4) 0.4971(15)
H37 H -0.0457 0.9607 0.5828
H38 H -0.0476 0.9287 0.5167
H39 H -0.1079 0.9555 0.4383
loop_
_geom_bond_atom_site_label_1
_geom_bond_atom_site_label_2
_geom_bond_site_symmetry_1
_geom_bond_site_symmetry_2
C1 C2 1_555 1_555
C2 C3 1_555 1_555
C3 H1 1_555 1_555
C4 C3 1_555 1_555
C5 C4 1_555 1_555
C6 C4 1_555 1_555
C7 C2 1_555 1_555
C8 C3 1_555 1_555
C9 C8 1_555 1_555
H2 C9 1_555 1_555
C10 C9 1_555 1_555
C11 C10 1_555 1_555
C12 C11 1_555 1_555
H3 C12 1_555 1_555
C13 C8 1_555 1_555
H4 C13 1_555 1_555
C14 C6 1_555 1_555
C15 C14 1_555 1_555
H5 C15 1_555 1_555
C16 C15 1_555 1_555
C17 C16 1_555 1_555
H6 C17 1_555 1_555
C18 C17 1_555 1_555
H7 C18 1_555 1_555
C19 C14 1_555 1_555
H8 C19 1_555 1_555
C20 H9 1_555 1_555
H10 C20 1_555 1_555
C21 C20 1_555 1_555
C22 C21 1_555 1_555
H11 C22 1_555 1_555
C23 C22 1_555 1_555
H12 C23 1_555 1_555
C24 C23 1_555 1_555
H13 C24 1_555 1_555
C25 C24 1_555 1_555
H14 C25 1_555 1_555
C26 C21 1_555 1_555
H15 C26 1_555 1_555
N1 C6 1_555 1_555
H16 N1 1_555 1_555
N2 C5 1_555 1_555
N3 C1 1_555 1_555
H17 N3 1_555 1_555
H18 N3 1_555 1_555
N4 C7 1_555 1_555
O1 C1 1_555 1_555
O2 C16 1_555 1_555
Cl1 C10 1_555 1_555
Cl2 C11 1_555 1_555
C27 C28 1_555 1_555
C28 C29 1_555 1_555
C29 H19 1_555 1_555
C30 C29 1_555 1_555
C31 C30 1_555 1_555
C32 C30 1_555 1_555
C33 C28 1_555 1_555
C34 C29 1_555 1_555
C35 C34 1_555 1_555
H20 C35 1_555 1_555
C36 C35 1_555 1_555
C37 C36 1_555 1_555
C38 C37 1_555 1_555
H21 C38 1_555 1_555
C39 C34 1_555 1_555
H22 C39 1_555 1_555
C40 C32 1_555 1_555
C41 C40 1_555 1_555
H23 C41 1_555 1_555
C42 C41 1_555 1_555
C43 C42 1_555 1_555
H24 C43 1_555 1_555
C44 C43 1_555 1_555
H25 C44 1_555 1_555
C45 C40 1_555 1_555
H26 C45 1_555 1_555
C46 H27 1_555 1_555
H28 C46 1_555 1_555
C47 C46 1_555 1_555
C48 C47 1_555 1_555
H29 C48 1_555 1_555
C49 C48 1_555 1_555
H30 C49 1_555 1_555
C50 C49 1_555 1_555
H31 C50 1_555 1_555
C51 C50 1_555 1_555
H32 C51 1_555 1_555
C52 C47 1_555 1_555
H33 C52 1_555 1_555
N5 C32 1_555 1_555
H34 N5 1_555 1_555
N6 C31 1_555 1_555
N7 C27 1_555 1_555
H35 N7 1_555 1_555
H36 N7 1_555 1_555
N8 C33 1_555 1_555
O3 C27 1_555 1_555
O4 C42 1_555 1_555
Cl3 C36 1_555 1_555
Cl4 C37 1_555 1_555
N9 C53 1_555 1_555
C53 C54 1_555 1_555
C54 H37 1_555 1_555
H38 C54 1_555 1_555
H39 C54 1_555 1_555
C5 O1 1_555 1_555
C12 C13 1_555 1_555
C18 C19 1_555 1_555
C20 O2 1_555 1_555
C25 C26 1_555 1_555
N1 N2 1_555 1_555
C31 O3 1_555 1_555
C38 C39 1_555 1_555
C44 C45 1_555 1_555
C46 O4 1_555 1_555
C51 C52 1_555 1_555
N5 N6 1_555 1_555

#END
