
#######################################################################
#
#                 Cambridge Crystallographic Data Centre
#                                CCDC 
#
#######################################################################
#
# If this CIF has been generated from an entry in the Cambridge 
# Structural Database, then it will include bibliographic, chemical, 
# crystal, experimental, refinement or atomic coordinate data resulting 
# from the CCDC's data processing and validation procedures.
#
#######################################################################

data_PIZPIY
_chemical_formula_moiety         'C25 H30 N2 O6 S1'
_chemical_name_systematic        
'Methyl 3-hydroxy-6-methoxy-9-methyl-10-(p-toluenesulfonyl)-1,2,3,4-tetrahydro-9H-9a,4a-(epiminoethano)carbazole-4-carboxylate'
_symmetry_cell_setting           orthorhombic
_symmetry_space_group_name_H-M   'P b c n'
_symmetry_Int_Tables_number      60
_space_group_name_Hall           '-P 2n 2ab'
loop_
_symmetry_equiv_pos_site_id
_symmetry_equiv_pos_as_xyz
1 x,y,z
2 1/2-x,1/2-y,1/2+z
3 -x,y,1/2-z
4 1/2+x,1/2-y,-z
5 -x,-y,-z
6 1/2+x,1/2+y,1/2-z
7 x,-y,1/2+z
8 1/2-x,1/2+y,z
_cell_length_a                   23.6020(4)
_cell_length_b                   9.1197(2)
_cell_length_c                   21.8029(4)
_cell_angle_alpha                90
_cell_angle_beta                 90
_cell_angle_gamma                90
_cell_volume                     4692.93
_exptl_crystal_colour            colorless
_chemical_melting_point          168-170deg.C
_cell_formula_units_Z            8
_exptl_crystal_recrystallization_method ethanol
loop_
_atom_site_label
_atom_site_type_symbol
_atom_site_fract_x
_atom_site_fract_y
_atom_site_fract_z
S1 S 0.645002(13) 0.90493(3) 0.312299(14)
O1 O 0.64645(4) 0.30945(10) 0.32751(4)
O2 O 0.61339(4) 0.16151(9) 0.45466(4)
O3 O 0.66504(5) 0.33712(11) 0.49863(5)
O4 O 0.59539(4) 0.71749(10) 0.63853(4)
O5 O 0.58853(4) 0.94020(11) 0.29329(5)
O6 O 0.68033(4) 1.01774(10) 0.33868(4)
N1 N 0.54297(4) 0.70608(11) 0.39212(4)
N2 N 0.64115(4) 0.77706(11) 0.36354(5)
C1 C 0.59768(5) 0.40180(12) 0.41882(5)
H1 H 0.5583 0.4080 0.4355
C2 C 0.59624(5) 0.65649(12) 0.36674(5)
C3 C 0.69466(5) 0.73561(13) 0.39487(6)
H2 H 0.7013 0.7981 0.4313
H3 H 0.7274 0.7451 0.3667
C4 C 0.68580(5) 0.57666(13) 0.41348(5)
H4 H 0.7052 0.5552 0.4527
H5 H 0.7004 0.5094 0.3816
C5 C 0.62151(5) 0.56088(12) 0.42036(5)
C6 C 0.59650(5) 0.64102(12) 0.47554(5)
C7 C 0.61093(5) 0.64006(13) 0.53679(5)
H6 H 0.6423 0.5842 0.5509
C8 C 0.57835(5) 0.72333(13) 0.57805(5)
C9 C 0.53239(5) 0.80452(13) 0.55768(6)
H7 H 0.5108 0.8604 0.5861
C10 C 0.51758(5) 0.80469(13) 0.49538(5)
H8 H 0.4861 0.8601 0.4812
C11 C 0.54972(5) 0.72263(13) 0.45527(5)
C12 C 0.58933(5) 0.57867(13) 0.30569(5)
H9 H 0.6272 0.5605 0.2876
H10 H 0.5679 0.6424 0.2772
C13 C 0.55827(5) 0.43346(14) 0.31302(5)
H11 H 0.5203 0.4508 0.3309
H12 H 0.5532 0.3868 0.2724
C14 C 0.59215(5) 0.33274(13) 0.35457(5)
H13 H 0.5721 0.2366 0.3581
C15 C 0.62991(5) 0.30075(13) 0.46179(5)
C16 C 0.64219(6) 0.05638(14) 0.49324(7)
H14 H 0.6365 0.0825 0.5364
H15 H 0.6828 0.0571 0.4838
H16 H 0.6268 -0.0418 0.4857
C17 C 0.57554(6) 0.83154(15) 0.67763(6)
H17 H 0.5346 0.8211 0.6836
H18 H 0.5836 0.9269 0.6588
H19 H 0.5948 0.8251 0.7174
C18 C 0.49930(5) 0.78663(17) 0.36042(6)
H20 H 0.5069 0.8920 0.3638
H21 H 0.4624 0.7645 0.3789
H22 H 0.4989 0.7581 0.3171
C19 C 0.68190(5) 0.83727(13) 0.24781(5)
C20 C 0.74069(5) 0.83994(15) 0.24683(6)
H23 H 0.7612 0.8862 0.2789
C21 C 0.76906(6) 0.77411(16) 0.19838(6)
H24 H 0.8093 0.7762 0.1975
C22 C 0.73998(6) 0.70511(15) 0.15102(6)
C23 C 0.68088(6) 0.70984(16) 0.15161(6)
H25 H 0.6603 0.6671 0.1187
C24 C 0.65190(5) 0.77581(16) 0.19929(6)
H26 H 0.6117 0.7791 0.1989
C25 C 0.77123(7) 0.62638(19) 0.10059(7)
H27 H 0.7711 0.5207 0.1088
H28 H 0.8104 0.6618 0.0988
H29 H 0.7525 0.6454 0.0613
H30 H 0.6566(8) 0.224(2) 0.3336(9)
loop_
_geom_bond_atom_site_label_1
_geom_bond_atom_site_label_2
_geom_bond_site_symmetry_1
_geom_bond_site_symmetry_2
S1 O5 1_555 1_555
O1 C14 1_555 1_555
O2 C15 1_555 1_555
O3 C15 1_555 1_555
O4 C8 1_555 1_555
O6 S1 1_555 1_555
N1 C2 1_555 1_555
N2 S1 1_555 1_555
C1 H1 1_555 1_555
C2 N2 1_555 1_555
C3 N2 1_555 1_555
H2 C3 1_555 1_555
H3 C3 1_555 1_555
C4 C3 1_555 1_555
H4 C4 1_555 1_555
H5 C4 1_555 1_555
C5 C1 1_555 1_555
C6 C5 1_555 1_555
C7 C6 1_555 1_555
H6 C7 1_555 1_555
C8 C7 1_555 1_555
C9 C8 1_555 1_555
H7 C9 1_555 1_555
C10 C9 1_555 1_555
H8 C10 1_555 1_555
C11 N1 1_555 1_555
C12 C2 1_555 1_555
H9 C12 1_555 1_555
H10 C12 1_555 1_555
C13 C12 1_555 1_555
H11 C13 1_555 1_555
H12 C13 1_555 1_555
C14 C1 1_555 1_555
H13 C14 1_555 1_555
C15 C1 1_555 1_555
C16 O2 1_555 1_555
H14 C16 1_555 1_555
H15 C16 1_555 1_555
H16 C16 1_555 1_555
C17 O4 1_555 1_555
H17 C17 1_555 1_555
H18 C17 1_555 1_555
H19 C17 1_555 1_555
C18 N1 1_555 1_555
H20 C18 1_555 1_555
H21 C18 1_555 1_555
H22 C18 1_555 1_555
C19 S1 1_555 1_555
C20 C19 1_555 1_555
H23 C20 1_555 1_555
C21 C20 1_555 1_555
H24 C21 1_555 1_555
C22 C21 1_555 1_555
C23 C22 1_555 1_555
H25 C23 1_555 1_555
C24 C19 1_555 1_555
H26 C24 1_555 1_555
C25 C22 1_555 1_555
H27 C25 1_555 1_555
H28 C25 1_555 1_555
H29 C25 1_555 1_555
H30 O1 1_555 1_555
C2 C5 1_555 1_555
C4 C5 1_555 1_555
C6 C11 1_555 1_555
C10 C11 1_555 1_555
C13 C14 1_555 1_555
C23 C24 1_555 1_555

#END
