
#######################################################################
#
#                 Cambridge Crystallographic Data Centre
#                                CCDC 
#
#######################################################################
#
# If this CIF has been generated from an entry in the Cambridge 
# Structural Database, then it will include bibliographic, chemical, 
# crystal, experimental, refinement or atomic coordinate data resulting 
# from the CCDC's data processing and validation procedures.
#
#######################################################################

data_PMPZOL04
_chemical_name_common            Edaravone
_chemical_formula_moiety         'C10 H10 N2 O1,C10 H10 N2 O1'
_chemical_name_systematic        
'5-Methyl-2-phenyl-1,2-dihydro-3H-pyrazol-3-one 3-methyl-1-phenyl-1H-pyrazol-5-ol'
_chemical_properties_biological  
'widely used for the treatment of acute cerebral infarction'
_symmetry_cell_setting           monoclinic
_symmetry_space_group_name_H-M   'P 21/c'
_symmetry_Int_Tables_number      14
_space_group_name_Hall           '-P 2ybc'
loop_
_symmetry_equiv_pos_site_id
_symmetry_equiv_pos_as_xyz
1 x,y,z
2 -x,1/2+y,1/2-z
3 -x,-y,-z
4 x,1/2-y,1/2+z
_cell_length_a                   10.336(2)
_cell_length_b                   11.154(2)
_cell_length_c                   15.863(3)
_cell_angle_alpha                90
_cell_angle_beta                 95.157(3)
_cell_angle_gamma                90
_cell_volume                     1821.41
_exptl_crystal_colour            colorless
_exptl_crystal_description       block
_cell_formula_units_Z            4
_exptl_crystal_recrystallization_method methanol
loop_
_atom_site_label
_atom_site_type_symbol
_atom_site_fract_x
_atom_site_fract_y
_atom_site_fract_z
O1 O 0.76081(11) 0.23408(9) 0.09473(8)
N1 N 0.80235(11) 0.03414(9) 0.07061(8)
N2 N 0.76341(13) -0.04917(10) 0.00921(8)
C1 C 0.91015(13) 0.01075(12) 0.12978(9)
C2 C 0.92942(16) 0.07840(15) 0.20276(10)
H1 H 0.8722 0.1399 0.2131
C3 C 1.03427(19) 0.05375(19) 0.26009(12)
H2 H 1.0481 0.0997 0.3090
C4 C 1.1181(2) -0.0372(2) 0.24600(13)
H3 H 1.1881 -0.0536 0.2853
C5 C 1.09872(17) -0.10395(18) 0.17403(14)
H4 H 1.1557 -0.1661 0.1647
C6 C 0.99550(15) -0.08041(15) 0.11475(11)
H5 H 0.9837 -0.1255 0.0653
C7 C 0.73814(14) 0.14046(12) 0.05144(10)
C8 C 0.65398(16) 0.11675(14) -0.02083(10)
H6 H 0.5970 0.1713 -0.0486
C9 C 0.66976(15) 0.00076(14) -0.04331(10)
C10 C 0.6047(2) -0.07170(17) -0.11335(11)
H7 H 0.6586 -0.0744 -0.1596
H8 H 0.5227 -0.0359 -0.1321
H9 H 0.5908 -0.1517 -0.0937
H19 H 0.7692(17) -0.1287(9) 0.0208(11)
O2 O 0.63865(11) 0.42520(9) 0.07652(7)
N3 N 0.69321(11) 0.62596(9) 0.06745(7)
N4 N 0.76998(12) 0.70070(10) 0.02382(8)
C11 C 0.61818(14) 0.67394(12) 0.12999(8)
C12 C 0.49765(15) 0.62664(14) 0.14196(10)
H10 H 0.4655 0.5611 0.1104
C13 C 0.42556(18) 0.67832(19) 0.20167(12)
H11 H 0.3450 0.6462 0.2108
C14 C 0.4708(2) 0.7760(2) 0.24752(12)
H12 H 0.4205 0.8110 0.2866
C15 C 0.5904(2) 0.82150(17) 0.23553(11)
H13 H 0.6213 0.8876 0.2669
C16 C 0.66614(18) 0.77067(13) 0.17737(10)
H14 H 0.7482 0.8012 0.1703
C17 C 0.70530(13) 0.51085(11) 0.04194(9)
C18 C 0.79096(15) 0.51055(13) -0.01882(10)
H15 H 0.8190 0.4445 -0.0479
C19 C 0.82756(15) 0.62954(13) -0.02813(10)
C20 C 0.91583(19) 0.68181(17) -0.08846(13)
H16 H 0.9060 0.7674 -0.0900
H17 H 0.8938 0.6496 -0.1440
H18 H 1.0042 0.6619 -0.0700
H20 H 0.6823(16) 0.3585(12) 0.0773(12)
loop_
_geom_bond_atom_site_label_1
_geom_bond_atom_site_label_2
_geom_bond_site_symmetry_1
_geom_bond_site_symmetry_2
O1 C7 1_555 1_555
O2 C17 1_555 1_555
N1 N2 1_555 1_555
N2 C9 1_555 1_555
N3 N4 1_555 1_555
N4 C19 1_555 1_555
C1 N1 1_555 1_555
C2 C1 1_555 1_555
H1 C2 1_555 1_555
C3 C2 1_555 1_555
H2 C3 1_555 1_555
C4 C3 1_555 1_555
H3 C4 1_555 1_555
C5 C4 1_555 1_555
H4 C5 1_555 1_555
C6 C1 1_555 1_555
H5 C6 1_555 1_555
C7 N1 1_555 1_555
C8 C7 1_555 1_555
H6 C8 1_555 1_555
C9 C8 1_555 1_555
C10 C9 1_555 1_555
H7 C10 1_555 1_555
H8 C10 1_555 1_555
H9 C10 1_555 1_555
C11 N3 1_555 1_555
C12 C11 1_555 1_555
H10 C12 1_555 1_555
C13 C12 1_555 1_555
H11 C13 1_555 1_555
C14 C13 1_555 1_555
H12 C14 1_555 1_555
C15 C14 1_555 1_555
H13 C15 1_555 1_555
C16 C11 1_555 1_555
H14 C16 1_555 1_555
C17 N3 1_555 1_555
C18 C17 1_555 1_555
H15 C18 1_555 1_555
C19 C18 1_555 1_555
C20 C19 1_555 1_555
H16 C20 1_555 1_555
H17 C20 1_555 1_555
H18 C20 1_555 1_555
H19 N2 1_555 1_555
H20 O2 1_555 1_555
C5 C6 1_555 1_555
C15 C16 1_555 1_555

#END
