
#######################################################################
#
#                 Cambridge Crystallographic Data Centre
#                                CCDC 
#
#######################################################################
#
# If this CIF has been generated from an entry in the Cambridge 
# Structural Database, then it will include bibliographic, chemical, 
# crystal, experimental, refinement or atomic coordinate data resulting 
# from the CCDC's data processing and validation procedures.
#
#######################################################################

data_POBNUP
_chemical_formula_moiety         'C12 F24 O6'
_chemical_name_systematic        Perfluoro-18-crown-6
_symmetry_cell_setting           monoclinic
_symmetry_space_group_name_H-M   'P 21/n'
_symmetry_Int_Tables_number      14
_space_group_name_Hall           '-P 2yn'
loop_
_symmetry_equiv_pos_site_id
_symmetry_equiv_pos_as_xyz
1 x,y,z
2 1/2-x,1/2+y,1/2-z
3 -x,-y,-z
4 1/2+x,1/2-y,1/2+z
_cell_length_a                   9.8203(10)
_cell_length_b                   11.8778(20)
_cell_length_c                   17.8395(21)
_cell_angle_alpha                90
_cell_angle_beta                 95.162(15)
_cell_angle_gamma                90
_cell_volume                     2072.42
_exptl_crystal_colour            colorless
_cell_formula_units_Z            4
loop_
_atom_site_label
_atom_site_type_symbol
_atom_site_fract_x
_atom_site_fract_y
_atom_site_fract_z
O1 O 0.4250(2) 0.04186(14) 0.16014(9)
C1 C 0.4030(2) 0.1118(2) 0.09874(13)
F1 F 0.28877(15) 0.17255(13) 0.10215(10)
F2 F 0.39063(15) 0.05554(13) 0.03409(8)
C2 C 0.5253(2) 0.1937(2) 0.10070(14)
F3 F 0.5261(2) 0.25738(13) 0.16238(9)
F4 F 0.51069(15) 0.26140(13) 0.04107(9)
O2 O 0.6414(2) 0.12913(13) 0.10135(9)
C3 C 0.7652(2) 0.1778(2) 0.08911(14)
F5 F 0.77459(14) 0.28455(12) 0.11234(8)
F6 F 0.7833(2) 0.17539(14) 0.01593(8)
C4 C 0.8774(2) 0.1072(2) 0.13237(13)
F7 F 0.87012(15) 0.00122(12) 0.10813(8)
F8 F 0.99921(14) 0.14812(13) 0.11973(9)
O3 O 0.8579(2) 0.11649(14) 0.20810(9)
C5 C 0.8854(2) 0.0291(2) 0.25665(14)
F9 F 1.00925(15) -0.01456(14) 0.25084(8)
F10 F 0.7946(2) -0.05405(13) 0.24483(8)
C6 C 0.8781(2) 0.0754(2) 0.33672(13)
F11 F 0.97767(14) 0.15040(13) 0.35279(8)
F12 F 0.8985(2) -0.00888(13) 0.38616(8)
O4 O 0.7506(2) 0.12247(14) 0.33917(9)
C7 C 0.7214(2) 0.1891(2) 0.39899(13)
F13 F 0.76629(14) 0.14390(13) 0.46504(8)
F14 F 0.7792(2) 0.29055(13) 0.39504(9)
C8 C 0.5653(3) 0.2032(2) 0.39429(13)
F15 F 0.5331(2) 0.26538(13) 0.45244(9)
F16 F 0.52261(15) 0.25825(13) 0.33139(9)
O5 O 0.5099(2) 0.09735(14) 0.39545(9)
C9 C 0.3740(2) 0.0813(2) 0.40716(13)
F17 F 0.29442(14) 0.16513(12) 0.37934(8)
F18 F 0.3593(2) 0.07280(12) 0.48057(7)
C10 C 0.3300(2) -0.0299(2) 0.36793(13)
F19 F 0.20157(14) -0.05357(13) 0.38145(8)
F20 F 0.40975(14) -0.11402(12) 0.39561(7)
O6 O 0.3372(2) -0.01436(14) 0.29151(9)
C11 C 0.3759(2) -0.0992(2) 0.24629(14)
F21 F 0.5076(2) -0.12537(15) 0.26149(9)
F22 F 0.3030(2) -0.19229(13) 0.25382(9)
C12 C 0.3539(2) -0.0569(2) 0.16438(13)
F23 F 0.3997(2) -0.13496(13) 0.11926(8)
F24 F 0.22036(14) -0.04346(13) 0.14439(8)
loop_
_geom_bond_atom_site_label_1
_geom_bond_atom_site_label_2
_geom_bond_site_symmetry_1
_geom_bond_site_symmetry_2
O1 C1 1_555 1_555
C1 F1 1_555 1_555
F2 C1 1_555 1_555
C2 C1 1_555 1_555
F3 C2 1_555 1_555
F4 C2 1_555 1_555
O2 C2 1_555 1_555
C3 O2 1_555 1_555
F5 C3 1_555 1_555
F6 C3 1_555 1_555
C4 C3 1_555 1_555
F7 C4 1_555 1_555
F8 C4 1_555 1_555
O3 C4 1_555 1_555
C5 O3 1_555 1_555
F9 C5 1_555 1_555
F10 C5 1_555 1_555
C6 C5 1_555 1_555
F11 C6 1_555 1_555
F12 C6 1_555 1_555
O4 C6 1_555 1_555
C7 O4 1_555 1_555
F13 C7 1_555 1_555
F14 C7 1_555 1_555
C8 C7 1_555 1_555
F15 C8 1_555 1_555
F16 C8 1_555 1_555
O5 C8 1_555 1_555
C9 O5 1_555 1_555
F17 C9 1_555 1_555
F18 C9 1_555 1_555
C10 C9 1_555 1_555
F19 C10 1_555 1_555
F20 C10 1_555 1_555
O6 C10 1_555 1_555
C11 O6 1_555 1_555
F21 C11 1_555 1_555
F22 C11 1_555 1_555
C12 O1 1_555 1_555
F23 C12 1_555 1_555
F24 C12 1_555 1_555
C11 C12 1_555 1_555

#END
