
#######################################################################
#
#                 Cambridge Crystallographic Data Centre
#                                CCDC 
#
#######################################################################
#
# If this CIF has been generated from an entry in the Cambridge 
# Structural Database, then it will include bibliographic, chemical, 
# crystal, experimental, refinement or atomic coordinate data resulting 
# from the CCDC's data processing and validation procedures.
#
#######################################################################

data_POBVUZ
_chemical_formula_moiety         'C35 H36 B2 F2 N2'
_chemical_name_systematic        
10-(3-(Dimesitylboryl)phenyl)-5,5-difluoro-3,7-dimethyl-5H-4\l^5^,5\l^5^-dipyrrolo[1,2-c:2',1'-f][1,3,2]diazaborinine
_symmetry_cell_setting           triclinic
_symmetry_space_group_name_H-M   'P -1'
_symmetry_Int_Tables_number      2
_space_group_name_Hall           '-P 1'
loop_
_symmetry_equiv_pos_site_id
_symmetry_equiv_pos_as_xyz
1 x,y,z
2 -x,-y,-z
_cell_length_a                   8.3027(11)
_cell_length_b                   11.3660(16)
_cell_length_c                   16.543(2)
_cell_angle_alpha                80.372(9)
_cell_angle_beta                 80.281(9)
_cell_angle_gamma                70.038(9)
_cell_volume                     1436.12
_cell_formula_units_Z            2
loop_
_atom_site_label
_atom_site_type_symbol
_atom_site_fract_x
_atom_site_fract_y
_atom_site_fract_z
C1 C 0.7332(4) 0.3725(3) 0.1870(2)
C2 C 1.1980(4) 0.0044(3) 0.3891(2)
C3 C 0.5746(4) 0.4344(3) 0.2332(2)
C4 C 0.6322(4) 0.2373(3) 0.0904(2)
C5 C 1.1597(4) -0.1940(3) 0.3757(2)
C6 C 0.9174(4) 0.1282(3) 0.1645(2)
C7 C 0.4074(4) 0.2077(3) -0.0097(2)
C8 C 0.4337(4) 0.1358(3) 0.0664(2)
H1 H 0.3752 0.0778 0.0845
C9 C 0.4973(4) 0.2925(3) -0.0359(2)
H2 H 0.4826 0.3405 -0.0871
C10 C 1.1938(5) -0.3619(4) 0.4705(2)
C11 C 0.5446(4) 0.1477(3) 0.1162(2)
C12 C 1.2630(4) 0.0515(4) 0.5020(2)
C13 C 1.1097(4) -0.0251(3) 0.2582(2)
C14 C 1.1578(4) -0.0721(3) 0.3425(2)
C15 C 0.6095(4) 0.3078(3) 0.0127(2)
C16 C 0.6890(5) 0.5934(3) 0.2592(2)
C17 C 1.0996(4) -0.2801(3) 0.3470(2)
H3 H 1.0539 -0.2689 0.2976
C18 C 0.5658(5) 0.0649(4) 0.1982(2)
H4 H 0.6454 0.0833 0.2261
H5 H 0.6095 -0.0221 0.1887
H6 H 0.4560 0.0811 0.2317
C19 C 1.2324(5) 0.1607(4) 0.4438(2)
H7 H 1.2385 0.2383 0.4512
C20 C 1.1917(4) 0.1309(4) 0.3737(2)
H8 H 1.1651 0.1847 0.3254
C21 C 1.1330(5) -0.0604(4) 0.1168(2)
H9 H 1.1886 -0.1092 0.0741
C22 C 0.8430(5) 0.5335(3) 0.2130(2)
H10 H 0.9320 0.5679 0.2049
C23 C 0.9986(5) 0.0483(3) 0.1024(2)
H11 H 0.9600 0.0700 0.0507
C24 C 0.9781(4) 0.0902(3) 0.2418(2)
H12 H 0.9305 0.1423 0.2833
C25 C 1.1855(4) -0.0972(3) 0.1940(2)
H13 H 1.2743 -0.1726 0.2034
C26 C 0.5563(5) 0.5435(3) 0.2675(2)
H14 H 0.4512 0.5837 0.2968
C27 C 0.2836(5) 0.1929(4) -0.0619(2)
H15 H 0.2344 0.1298 -0.0338
H16 H 0.3447 0.1677 -0.1141
H17 H 0.1932 0.2717 -0.0708
C28 C 1.3156(5) 0.0352(4) 0.5854(2)
H18 H 1.3262 -0.0489 0.6112
H19 H 1.2300 0.0947 0.6183
H20 H 1.4246 0.0492 0.5809
C29 C 0.7126(5) 0.3957(3) -0.0218(2)
H21 H 0.7831 0.3964 0.0184
H22 H 0.6353 0.4792 -0.0345
H23 H 0.7850 0.3671 -0.0711
C30 C 1.1211(5) -0.3837(4) 0.4059(2)
H24 H 1.0926 -0.4552 0.4034
C31 C 0.4248(5) 0.3846(4) 0.2498(2)
H25 H 0.4534 0.3103 0.2228
H26 H 0.3255 0.4475 0.2289
H27 H 0.3996 0.3640 0.3082
C32 C 0.6655(5) 0.7115(4) 0.2964(2)
H28 H 0.7703 0.7325 0.2840
H29 H 0.6379 0.6976 0.3551
H30 H 0.5733 0.7796 0.2736
C33 C 1.0403(5) 0.3681(4) 0.1282(2)
H31 H 1.0412 0.2933 0.1082
H32 H 1.1315 0.3472 0.1622
H33 H 1.0572 0.4284 0.0823
C34 C 1.2450(6) -0.4465(4) 0.5463(2)
H34 H 1.2912 -0.4063 0.5790
H35 H 1.3312 -0.5236 0.5317
H36 H 1.1460 -0.4647 0.5774
B1 B 0.7602(5) 0.2493(4) 0.1477(2)
B2 B 1.2899(5) -0.1847(4) 0.5060(3)
F1 F 1.4686(3) -0.2380(2) 0.50021(13)
F2 F 1.2188(3) -0.1952(2) 0.58683(12)
N1 N 1.2428(4) -0.0419(3) 0.46881(16)
N2 N 1.2159(4) -0.2473(3) 0.45213(18)
C35 C 0.8691(5) 0.4238(3) 0.1784(2)
loop_
_geom_bond_atom_site_label_1
_geom_bond_atom_site_label_2
_geom_bond_site_symmetry_1
_geom_bond_site_symmetry_2
C1 C3 1_555 1_555
C2 C14 1_555 1_555
C3 C26 1_555 1_555
C4 C11 1_555 1_555
C5 C14 1_555 1_555
C6 C23 1_555 1_555
C7 C8 1_555 1_555
C8 H1 1_555 1_555
C9 C7 1_555 1_555
H2 C9 1_555 1_555
C10 C30 1_555 1_555
C11 C8 1_555 1_555
C12 C19 1_555 1_555
C13 C14 1_555 1_555
C15 C4 1_555 1_555
C16 C22 1_555 1_555
C17 C5 1_555 1_555
H3 C17 1_555 1_555
C18 C11 1_555 1_555
H4 C18 1_555 1_555
H5 C18 1_555 1_555
H6 C18 1_555 1_555
C19 H7 1_555 1_555
C20 C2 1_555 1_555
H8 C20 1_555 1_555
C21 H9 1_555 1_555
C22 H10 1_555 1_555
C23 C21 1_555 1_555
H11 C23 1_555 1_555
C24 C6 1_555 1_555
H12 C24 1_555 1_555
C25 C13 1_555 1_555
H13 C25 1_555 1_555
C26 C16 1_555 1_555
H14 C26 1_555 1_555
C27 C7 1_555 1_555
H15 C27 1_555 1_555
H16 C27 1_555 1_555
H17 C27 1_555 1_555
C28 C12 1_555 1_555
H18 C28 1_555 1_555
H19 C28 1_555 1_555
H20 C28 1_555 1_555
C29 C15 1_555 1_555
H21 C29 1_555 1_555
H22 C29 1_555 1_555
H23 C29 1_555 1_555
C30 C17 1_555 1_555
H24 C30 1_555 1_555
C31 C3 1_555 1_555
H25 C31 1_555 1_555
H26 C31 1_555 1_555
H27 C31 1_555 1_555
C32 C16 1_555 1_555
H28 C32 1_555 1_555
H29 C32 1_555 1_555
H30 C32 1_555 1_555
C33 H31 1_555 1_555
H32 C33 1_555 1_555
H33 C33 1_555 1_555
C34 C10 1_555 1_555
H34 C34 1_555 1_555
H35 C34 1_555 1_555
H36 C34 1_555 1_555
B1 C1 1_555 1_555
B2 F1 1_555 1_555
F2 B2 1_555 1_555
N1 C2 1_555 1_555
N2 C5 1_555 1_555
C35 C1 1_555 1_555
C4 B1 1_555 1_555
C6 B1 1_555 1_555
C9 C15 1_555 1_555
C10 N2 1_555 1_555
C12 N1 1_555 1_555
C13 C24 1_555 1_555
C19 C20 1_555 1_555
C21 C25 1_555 1_555
C22 C35 1_555 1_555
C33 C35 1_555 1_555
B2 N1 1_555 1_555
B2 N2 1_555 1_555

#END
