
#######################################################################
#
#                 Cambridge Crystallographic Data Centre
#                                CCDC 
#
#######################################################################
#
# If this CIF has been generated from an entry in the Cambridge 
# Structural Database, then it will include bibliographic, chemical, 
# crystal, experimental, refinement or atomic coordinate data resulting 
# from the CCDC's data processing and validation procedures.
#
#######################################################################

data_POBWAG
_chemical_formula_moiety         'C37 H40 B2 F2 N2'
_chemical_name_systematic        
10-(3-(Dimesitylboryl)phenyl)-5,5-difluoro-1,3,7,9-tetramethyl-5H-6\l^5^,5\l^5^-dipyrrolo[1,2-c:2',1'-f][1,3,2]diazaborinine
_symmetry_cell_setting           monoclinic
_symmetry_space_group_name_H-M   'P c'
_symmetry_Int_Tables_number      7
_space_group_name_Hall           'P -2yc'
loop_
_symmetry_equiv_pos_site_id
_symmetry_equiv_pos_as_xyz
1 x,y,z
2 x,-y,1/2+z
_cell_length_a                   20.3206(14)
_cell_length_b                   11.9014(9)
_cell_length_c                   13.1195(9)
_cell_angle_alpha                90
_cell_angle_beta                 91.995(4)
_cell_angle_gamma                90
_cell_volume                     3170.94
_cell_formula_units_Z            4
loop_
_atom_site_label
_atom_site_type_symbol
_atom_site_fract_x
_atom_site_fract_y
_atom_site_fract_z
C1 C 0.1148(2) 0.4384(4) 0.2789(3)
C2 C 0.1293(2) 0.5370(4) 0.2271(3)
C3 C 0.0183(2) 0.7922(4) 0.2164(3)
C4 C 0.1739(2) 0.5364(4) 0.1478(4)
C5 C 0.1230(3) 0.2575(4) 0.3179(4)
C6 C -0.0420(2) 0.9776(4) 0.1389(3)
C7 C 0.2395(2) 0.4594(4) 0.0350(4)
C8 C -0.1316(3) 0.7184(5) -0.0889(4)
H1 H -0.1370 0.7318 -0.1586
C9 C 0.0710(2) 0.4174(4) 0.3604(3)
C10 C 0.2381(2) 0.5746(4) 0.0158(4)
H2 H 0.2601 0.6114 -0.0354
C11 C 0.0478(2) 0.6889(4) 0.1933(3)
H3 H 0.0334 0.6497 0.1354
C12 C 0.0981(2) 0.6442(4) 0.2554(3)
C13 C 0.1981(2) 0.6248(4) 0.0867(4)
C14 C 0.2775(3) 0.3731(5) -0.0209(4)
H4 H 0.2696 0.3002 0.0075
H5 H 0.3237 0.3900 -0.0146
H6 H 0.2637 0.3735 -0.0917
C15 C 0.0768(2) 0.3035(4) 0.3801(4)
H7 H 0.0532 0.2641 0.4280
C16 C -0.0820(2) 0.7661(4) 0.0767(4)
C17 C 0.0119(2) 1.0471(4) 0.1183(3)
C18 C -0.0918(2) 0.7894(4) -0.0313(4)
C19 C -0.1081(2) 1.1469(4) 0.1501(3)
H8 H -0.1487 1.1806 0.1603
C20 C -0.1153(2) 0.6747(4) 0.1179(4)
C21 C 0.0046(3) 1.1635(4) 0.1159(4)
H9 H 0.0412 1.2082 0.1045
C22 C 0.1472(3) 0.1391(4) 0.3151(4)
H10 H 0.1798 0.1322 0.2643
H11 H 0.1110 0.0897 0.2987
H12 H 0.1663 0.1193 0.3806
C23 C -0.0550(3) 1.2137(4) 0.1300(4)
C24 C -0.1573(3) 0.6071(5) 0.0561(5)
H13 H -0.1806 0.5486 0.0852
C25 C -0.1030(2) 1.0290(4) 0.1559(3)
C26 C -0.1616(3) 0.9632(5) 0.1849(4)
H14 H -0.1981 1.0132 0.1938
H15 H -0.1519 0.9239 0.2475
H16 H -0.1727 0.9101 0.1320
C27 C 0.0889(3) 0.8014(4) 0.3697(4)
H17 H 0.1024 0.8386 0.4292
C28 C -0.1122(3) 0.6509(5) 0.2314(5)
H18 H -0.1380 0.5854 0.2452
H19 H -0.1294 0.7140 0.2674
H20 H -0.0674 0.6380 0.2536
C29 C 0.0411(2) 0.8475(4) 0.3059(4)
H21 H 0.0232 0.9169 0.3222
C30 C 0.1168(3) 0.6999(4) 0.3453(4)
H22 H 0.1485 0.6681 0.3892
C31 C -0.0614(3) 0.8859(4) -0.0815(3)
H23 H -0.0351 0.9274 -0.0324
H24 H -0.0953 0.9338 -0.1103
H25 H -0.0341 0.8596 -0.1347
C32 C 0.1872(3) 0.7475(4) 0.0948(4)
H26 H 0.1585 0.7625 0.1498
H27 H 0.1675 0.7750 0.0321
H28 H 0.2286 0.7846 0.1078
C33 C -0.0614(3) 1.3400(4) 0.1277(5)
H29 H -0.1060 1.3607 0.1402
H30 H -0.0495 1.3675 0.0620
H31 H -0.0326 1.3721 0.1795
C34 C 0.0276(3) 0.4952(4) 0.4158(4)
H32 H 0.0321 0.5698 0.3891
H33 H 0.0400 0.4949 0.4871
H34 H -0.0173 0.4712 0.4069
C35 C 0.0786(2) 0.9978(4) 0.0947(4)
H35 H 0.0767 0.9174 0.0994
H36 H 0.1113 1.0259 0.1428
H37 H 0.0900 1.0190 0.0269
C36 C -0.1642(3) 0.6270(4) -0.0469(4)
C37 C -0.2098(3) 0.5520(6) -0.1102(6)
H38 H -0.2098 0.5753 -0.1802
H39 H -0.2537 0.5575 -0.0857
H40 H -0.1950 0.4756 -0.1048
B1 B -0.0363(3) 0.8446(4) 0.1430(4)
B2 B 0.1929(3) 0.3202(5) 0.1673(4)
N1 N 0.14548(19) 0.3384(3) 0.2539(3)
N2 N 0.20150(18) 0.4355(3) 0.1144(3)
F1 F 0.16703(14) 0.2439(2) 0.0967(2)
F2 F 0.25291(13) 0.2806(2) 0.2042(2)
C38 C 0.4945(3) -0.6245(5) 0.0446(4)
H41 H 0.5232 -0.6612 0.0020
C39 C 0.6340(2) -0.0061(4) 0.1482(4)
C40 C 0.5479(3) -0.1608(4) 0.1434(4)
H42 H 0.5217 -0.1178 0.0989
C41 C 0.3790(2) -0.2151(4) -0.0007(4)
C42 C 0.4066(2) -0.5125(4) 0.1642(3)
C43 C 0.4539(3) -0.4475(4) 0.1134(4)
C44 C 0.6774(2) 0.0050(5) 0.0686(4)
C45 C 0.7053(3) -0.0760(5) 0.0013(4)
C46 C 0.5257(3) -0.2653(5) 0.1734(4)
C47 C 0.3378(2) -0.1263(4) -0.0290(4)
H43 H 0.3241 -0.1170 -0.0969
C48 C 0.4502(3) -0.6853(4) 0.0954(4)
C49 C 0.7475(3) 0.0948(5) -0.0297(4)
C50 C 0.4468(3) -0.8119(5) 0.0845(5)
H44 H 0.4126 -0.8407 0.1258
H45 H 0.4882 -0.8442 0.1063
H46 H 0.4374 -0.8310 0.0144
C51 C 0.6112(3) 0.2676(5) 0.2436(5)
C52 C 0.3582(3) -0.4573(5) 0.2337(4)
H47 H 0.3645 -0.3773 0.2330
H48 H 0.3653 -0.4849 0.3020
H49 H 0.3141 -0.4746 0.2103
C53 C 0.4057(3) -0.6275(4) 0.1547(4)
H50 H 0.3743 -0.6682 0.1890
C54 C 0.6154(3) 0.0864(6) 0.2039(4)
C55 C 0.4029(3) -0.2302(4) 0.1011(4)
C56 C 0.3790(3) -0.1539(5) 0.1752(4)
C57 C 0.4983(3) -0.5065(4) 0.0545(4)
C58 C 0.5727(3) 0.0969(6) 0.2905(5)
C59 C 0.6944(3) -0.1991(6) -0.0021(5)
H51 H 0.6626 -0.2195 0.0469
H52 H 0.7352 -0.2371 0.0136
H53 H 0.6785 -0.2203 -0.0691
C60 C 0.5721(3) 0.2104(6) 0.3105(5)
H54 H 0.5486 0.2441 0.3619
C61 C 0.3967(3) -0.2974(5) -0.0834(4)
H55 H 0.4250 -0.3547 -0.0549
H56 H 0.4191 -0.2584 -0.1361
H57 H 0.3573 -0.3313 -0.1118
C62 C 0.6090(3) -0.1181(5) 0.1784(4)
C63 C 0.3375(3) -0.0662(5) 0.1442(5)
H58 H 0.3231 -0.0159 0.1928
C64 C 0.3938(3) -0.1684(6) 0.2876(5)
H59 H 0.4229 -0.2313 0.2983
H60 H 0.3536 -0.1816 0.3219
H61 H 0.4146 -0.1017 0.3144
C65 C 0.5501(4) -0.4480(5) -0.0075(5)
H62 H 0.5489 -0.3686 0.0055
H63 H 0.5412 -0.4616 -0.0788
H64 H 0.5929 -0.4768 0.0116
C66 C 0.7466(3) -0.0183(5) -0.0576(4)
H65 H 0.7710 -0.0493 -0.1092
C67 C 0.3173(3) -0.0517(5) 0.0443(6)
C68 C 0.6232(4) -0.2838(6) 0.2795(5)
H66 H 0.6482 -0.3252 0.3268
C69 C 0.7863(3) 0.1909(5) -0.0695(4)
H67 H 0.7753 0.2583 -0.0338
H68 H 0.7762 0.2004 -0.1410
H69 H 0.8325 0.1758 -0.0593
C70 C 0.5393(3) 0.0089(7) 0.3499(6)
H70 H 0.5473 -0.0634 0.3202
H71 H 0.4928 0.0232 0.3488
H72 H 0.5563 0.0098 0.4191
C71 C 0.6251(3) 0.3908(6) 0.2375(5)
H73 H 0.6536 0.4050 0.1822
H74 H 0.6459 0.4156 0.3003
H75 H 0.5845 0.4308 0.2261
C72 C 0.5647(3) -0.3260(5) 0.2419(4)
H76 H 0.5510 -0.3966 0.2628
C73 C 0.2713(3) 0.0471(6) 0.0144(7)
H77 H 0.2621 0.0458 -0.0579
H78 H 0.2923 0.1168 0.0328
H79 H 0.2308 0.0403 0.0496
C74 C 0.6456(4) -0.1806(6) 0.2481(5)
H80 H 0.6857 -0.1531 0.2740
B3 B 0.4585(3) -0.3155(5) 0.1284(4)
B4 B 0.6863(3) 0.2224(6) 0.0955(6)
N3 N 0.6380(2) 0.1929(4) 0.1796(4)
N4 N 0.7045(2) 0.1091(4) 0.0452(3)
F3 F 0.74434(15) 0.2681(3) 0.1442(3)
F4 F 0.66103(17) 0.2961(3) 0.0258(3)
loop_
_geom_bond_atom_site_label_1
_geom_bond_atom_site_label_2
_geom_bond_site_symmetry_1
_geom_bond_site_symmetry_2
C1 C2 1_555 1_555
C2 C4 1_555 1_555
C3 C11 1_555 1_555
C4 C13 1_555 1_555
C5 C15 1_555 1_555
C6 C17 1_555 1_555
C7 C10 1_555 1_555
C8 H1 1_555 1_555
C9 C1 1_555 1_555
C10 H2 1_555 1_555
C11 H3 1_555 1_555
C12 C2 1_555 1_555
C13 C10 1_555 1_555
C14 C7 1_555 1_555
H4 C14 1_555 1_555
H5 C14 1_555 1_555
H6 C14 1_555 1_555
C15 C9 1_555 1_555
H7 C15 1_555 1_555
C16 C18 1_555 1_555
C17 C21 1_555 1_555
C18 C8 1_555 1_555
C19 H8 1_555 1_555
C20 C16 1_555 1_555
C21 H9 1_555 1_555
C22 C5 1_555 1_555
H10 C22 1_555 1_555
H11 C22 1_555 1_555
H12 C22 1_555 1_555
C23 C19 1_555 1_555
C24 C20 1_555 1_555
H13 C24 1_555 1_555
C25 C6 1_555 1_555
C26 C25 1_555 1_555
H14 C26 1_555 1_555
H15 C26 1_555 1_555
H16 C26 1_555 1_555
C27 H17 1_555 1_555
C28 C20 1_555 1_555
H18 C28 1_555 1_555
H19 C28 1_555 1_555
H20 C28 1_555 1_555
C29 C3 1_555 1_555
H21 C29 1_555 1_555
C30 C12 1_555 1_555
H22 C30 1_555 1_555
C31 C18 1_555 1_555
H23 C31 1_555 1_555
H24 C31 1_555 1_555
H25 C31 1_555 1_555
C32 C13 1_555 1_555
H26 C32 1_555 1_555
H27 C32 1_555 1_555
H28 C32 1_555 1_555
C33 C23 1_555 1_555
H29 C33 1_555 1_555
H30 C33 1_555 1_555
H31 C33 1_555 1_555
C34 C9 1_555 1_555
H32 C34 1_555 1_555
H33 C34 1_555 1_555
H34 C34 1_555 1_555
C35 C17 1_555 1_555
H35 C35 1_555 1_555
H36 C35 1_555 1_555
H37 C35 1_555 1_555
C36 C8 1_555 1_555
C37 C36 1_555 1_555
H38 C37 1_555 1_555
H39 C37 1_555 1_555
H40 C37 1_555 1_555
B1 C3 1_555 1_555
B2 N1 1_555 1_555
N1 C1 1_555 1_555
N2 C4 1_555 1_555
F1 B2 1_555 1_555
F2 B2 1_555 1_555
C38 H41 1_555 1_555
C39 C44 1_555 1_555
C40 H42 1_555 1_555
C41 C47 1_555 1_555
C42 C43 1_555 1_555
C43 C57 1_555 1_555
C44 C45 1_555 1_555
C45 C59 1_555 1_555
C46 C40 1_555 1_555
C47 H43 1_555 1_555
C48 C38 1_555 1_555
C49 C66 1_555 1_555
C50 C48 1_555 1_555
H44 C50 1_555 1_555
H45 C50 1_555 1_555
H46 C50 1_555 1_555
C51 C60 1_555 1_555
C52 C42 1_555 1_555
H47 C52 1_555 1_555
H48 C52 1_555 1_555
H49 C52 1_555 1_555
C53 C42 1_555 1_555
H50 C53 1_555 1_555
C54 C39 1_555 1_555
C55 C41 1_555 1_555
C56 C55 1_555 1_555
C57 C38 1_555 1_555
C58 C54 1_555 1_555
C59 H51 1_555 1_555
H52 C59 1_555 1_555
H53 C59 1_555 1_555
C60 C58 1_555 1_555
H54 C60 1_555 1_555
C61 C41 1_555 1_555
H55 C61 1_555 1_555
H56 C61 1_555 1_555
H57 C61 1_555 1_555
C62 C39 1_555 1_555
C63 C56 1_555 1_555
H58 C63 1_555 1_555
C64 C56 1_555 1_555
H59 C64 1_555 1_555
H60 C64 1_555 1_555
H61 C64 1_555 1_555
C65 C57 1_555 1_555
H62 C65 1_555 1_555
H63 C65 1_555 1_555
H64 C65 1_555 1_555
C66 C45 1_555 1_555
H65 C66 1_555 1_555
C67 C47 1_555 1_555
C68 H66 1_555 1_555
C69 C49 1_555 1_555
H67 C69 1_555 1_555
H68 C69 1_555 1_555
H69 C69 1_555 1_555
C70 C58 1_555 1_555
H70 C70 1_555 1_555
H71 C70 1_555 1_555
H72 C70 1_555 1_555
C71 C51 1_555 1_555
H73 C71 1_555 1_555
H74 C71 1_555 1_555
H75 C71 1_555 1_555
C72 C46 1_555 1_555
H76 C72 1_555 1_555
C73 C67 1_555 1_555
H77 C73 1_555 1_555
H78 C73 1_555 1_555
H79 C73 1_555 1_555
C74 C62 1_555 1_555
H80 C74 1_555 1_555
B3 C43 1_555 1_555
B4 N3 1_555 1_555
N3 C51 1_555 1_555
N4 C44 1_555 1_555
F3 B4 1_555 1_555
F4 B4 1_555 1_555
C5 N1 1_555 1_555
C6 B1 1_555 1_555
C7 N2 1_555 1_555
C11 C12 1_555 1_555
C16 B1 1_555 1_555
C19 C25 1_555 1_555
C21 C23 1_555 1_555
C24 C36 1_555 1_555
C27 C29 1_555 1_555
C27 C30 1_555 1_555
B2 N2 1_555 1_555
C40 C62 1_555 1_555
C46 B3 1_555 1_555
C48 C53 1_555 1_555
C49 N4 1_555 1_555
C54 N3 1_555 1_555
C55 B3 1_555 1_555
C63 C67 1_555 1_555
C68 C72 1_555 1_555
C68 C74 1_555 1_555
B4 N4 1_555 1_555

#END
