
#######################################################################
#
#                 Cambridge Crystallographic Data Centre
#                                CCDC 
#
#######################################################################
#
# If this CIF has been generated from an entry in the Cambridge 
# Structural Database, then it will include bibliographic, chemical, 
# crystal, experimental, refinement or atomic coordinate data resulting 
# from the CCDC's data processing and validation procedures.
#
#######################################################################

data_POCLIE
_chemical_name_common            3-Carboxyethyl-7-diethylaminocoumarin
_chemical_formula_moiety         'C16 H19 N1 O4'
_chemical_name_systematic        
'ethyl 7-(diethylamino)-2-oxo-2H-chromene-3-carboxylate'
_symmetry_cell_setting           monoclinic
_symmetry_space_group_name_H-M   'P 21/c'
_symmetry_Int_Tables_number      14
_space_group_name_Hall           '-P 2ybc'
loop_
_symmetry_equiv_pos_site_id
_symmetry_equiv_pos_as_xyz
1 x,y,z
2 -x,1/2+y,1/2-z
3 -x,-y,-z
4 x,1/2-y,1/2+z
_cell_length_a                   6.7440(13)
_cell_length_b                   15.846(3)
_cell_length_c                   13.375(3)
_cell_angle_alpha                90
_cell_angle_beta                 97.36(3)
_cell_angle_gamma                90
_cell_volume                     1417.55
_exptl_crystal_colour            yellow
_exptl_crystal_description       irregular
_cell_formula_units_Z            4
loop_
_atom_site_label
_atom_site_type_symbol
_atom_site_fract_x
_atom_site_fract_y
_atom_site_fract_z
O1 O 1.0894(2) 0.60909(8) 0.93454(10)
O2 O 1.2433(2) 0.71660(9) 1.01541(10)
O3 O 0.6908(2) 0.81595(8) 1.06463(10)
O4 O 1.0082(2) 0.81339(9) 1.14060(11)
N1 N 0.7981(3) 0.38150(10) 0.73439(11)
C1 C 0.5482(4) 0.26566(13) 0.73554(16)
H1 H 0.6490 0.2226 0.7439
H2 H 0.4291 0.2435 0.6976
H3 H 0.5189 0.2838 0.8005
C2 C 0.6234(3) 0.34014(13) 0.67963(14)
H4 H 0.6571 0.3207 0.6151
H5 H 0.5165 0.3812 0.6665
C3 C 1.0472(3) 0.40868(14) 0.61688(15)
H6 H 0.9472 0.4015 0.5596
H7 H 1.1743 0.3901 0.6000
H8 H 1.0555 0.4672 0.6355
C4 C 0.9912(3) 0.35682(13) 0.70477(15)
H9 H 0.9865 0.2976 0.6861
H10 H 1.0939 0.3636 0.7620
C5 C 0.5715(3) 0.53557(12) 0.89029(14)
H11 H 0.4456 0.5487 0.9072
C6 C 0.5926(3) 0.46752(12) 0.82963(14)
H12 H 0.4814 0.4346 0.8074
C7 C 0.7815(3) 0.44616(12) 0.79986(13)
C8 C 0.9476(3) 0.49510(13) 0.83948(13)
H13 H 1.0744 0.4817 0.8239
C9 C 0.9222(3) 0.56272(12) 0.90120(14)
C10 C 0.7357(3) 0.58612(12) 0.92771(14)
C11 C 0.7248(3) 0.65933(12) 0.98691(13)
H14 H 0.6012 0.6763 1.0036
C12 C 1.0858(3) 0.68110(12) 0.99430(14)
C13 C 0.8907(3) 0.70605(12) 1.02051(14)
C14 C 0.8761(3) 0.78307(12) 1.08209(14)
C15 C 0.6555(3) 0.89054(12) 1.12375(15)
H15 H 0.7443 0.9359 1.1096
H16 H 0.6791 0.8778 1.1952
C16 C 0.4419(3) 0.91564(13) 1.09400(15)
H17 H 0.4228 0.9318 1.0242
H18 H 0.4098 0.9624 1.1346
H19 H 0.3562 0.8689 1.1040
loop_
_geom_bond_atom_site_label_1
_geom_bond_atom_site_label_2
_geom_bond_site_symmetry_1
_geom_bond_site_symmetry_2
O1 C9 1_555 1_555
O2 C12 1_555 1_555
O3 C14 1_555 1_555
O4 C14 1_555 1_555
N1 C2 1_555 1_555
C1 H1 1_555 1_555
H2 C1 1_555 1_555
H3 C1 1_555 1_555
C2 C1 1_555 1_555
H4 C2 1_555 1_555
H5 C2 1_555 1_555
C3 H6 1_555 1_555
H7 C3 1_555 1_555
H8 C3 1_555 1_555
C4 N1 1_555 1_555
H9 C4 1_555 1_555
H10 C4 1_555 1_555
C5 H11 1_555 1_555
C6 C5 1_555 1_555
H12 C6 1_555 1_555
C7 N1 1_555 1_555
C8 C7 1_555 1_555
H13 C8 1_555 1_555
C9 C8 1_555 1_555
C10 C5 1_555 1_555
C11 C10 1_555 1_555
H14 C11 1_555 1_555
C12 O1 1_555 1_555
C13 C11 1_555 1_555
C14 C13 1_555 1_555
C15 O3 1_555 1_555
H15 C15 1_555 1_555
H16 C15 1_555 1_555
C16 C15 1_555 1_555
H17 C16 1_555 1_555
H18 C16 1_555 1_555
H19 C16 1_555 1_555
C3 C4 1_555 1_555
C6 C7 1_555 1_555
C9 C10 1_555 1_555
C12 C13 1_555 1_555

#END
