
#######################################################################
#
#                 Cambridge Crystallographic Data Centre
#                                CCDC 
#
#######################################################################
#
# If this CIF has been generated from an entry in the Cambridge 
# Structural Database, then it will include bibliographic, chemical, 
# crystal, experimental, refinement or atomic coordinate data resulting 
# from the CCDC's data processing and validation procedures.
#
#######################################################################

data_POCWUB
_chemical_formula_moiety         'C20 H17 N1 S1'
_chemical_name_systematic        9-ethyl-3-(2-(2-thienyl)vinyl)-9H-carbazole
_symmetry_cell_setting           monoclinic
_symmetry_space_group_name_H-M   'P 21'
_symmetry_Int_Tables_number      4
_space_group_name_Hall           'P 2yb'
loop_
_symmetry_equiv_pos_site_id
_symmetry_equiv_pos_as_xyz
1 x,y,z
2 -x,1/2+y,-z
_cell_length_a                   11.8160(2)
_cell_length_b                   5.5980(1)
_cell_length_c                   24.4572(3)
_cell_angle_alpha                90
_cell_angle_beta                 97.619(1)
_cell_angle_gamma                90
_cell_volume                     1603.46
_exptl_crystal_colour            yellow
_exptl_crystal_description       prism
_cell_formula_units_Z            4
_exptl_crystal_recrystallization_method ethanol
loop_
_atom_site_label
_atom_site_type_symbol
_atom_site_fract_x
_atom_site_fract_y
_atom_site_fract_z
C1 C 0.8675(4) 1.3335(10) 0.16353(17)
H1 H 0.8986 1.4615 0.1464
C2 C 0.8210(4) 1.1426(9) 0.13720(17)
H2 H 0.8159 1.1202 0.0993
C3 C 0.7773(3) 0.9651(7) 0.17656(14)
H3 H 0.7412 0.8214 0.1662
C4 C 0.7982(4) 1.0457(10) 0.22792(16)
C5 C 0.7685(4) 0.8997(11) 0.27360(19)
H4 H 0.7299 0.7572 0.2647
C6 C 0.7912(4) 0.9519(11) 0.32433(18)
H5 H 0.8248 1.1001 0.3324
C7 C 0.7701(4) 0.8036(10) 0.37221(17)
C8 C 0.7002(4) 0.6004(10) 0.36859(17)
H6 H 0.6618 0.5578 0.3343
C9 C 0.6857(3) 0.4581(9) 0.41460(16)
H7 H 0.6389 0.3239 0.4115
C10 C 0.7453(3) 0.5292(8) 0.46510(14)
C11 C 0.8145(3) 0.7348(8) 0.46936(15)
C12 C 0.8267(3) 0.8707(9) 0.42300(17)
H8 H 0.8726 1.0061 0.4261
C13 C 0.8629(3) 0.7568(7) 0.52641(15)
C14 C 0.9367(3) 0.9160(9) 0.55630(19)
H9 H 0.9684 1.0415 0.5386
C15 C 0.9628(3) 0.8866(10) 0.61296(19)
H10 H 1.0101 0.9960 0.6334
C16 C 0.9187(4) 0.6952(10) 0.63918(18)
H11 H 0.9372 0.6783 0.6771
C17 C 0.8492(3) 0.5318(10) 0.61087(16)
H12 H 0.8212 0.4029 0.6290
C18 C 0.8204(3) 0.5609(8) 0.55385(15)
C19 C 0.6769(3) 0.2304(8) 0.53176(18)
H13 H 0.7185 0.1408 0.5619
H14 H 0.6597 0.1229 0.5007
C20 C 0.5668(4) 0.3189(11) 0.5491(2)
H15 H 0.5832 0.4218 0.5805
H16 H 0.5223 0.1854 0.5585
H17 H 0.5247 0.4061 0.5192
N1 N 0.7490(3) 0.4252(7) 0.51630(13)
S1 S 0.86285(13) 1.3138(3) 0.23193(5)
C21 C 0.9211(4) 0.6107(11) -0.0460(2)
H18 H 0.9867 0.5327 -0.0537
C22 C 0.8740(4) 0.8019(12) -0.07454(19)
H19 H 0.9029 0.8681 -0.1047
C23 C 0.7755(4) 0.8907(9) -0.05324(16)
H20 H 0.7344 1.0235 -0.0675
C24 C 0.7481(3) 0.7618(8) -0.01015(15)
C25 C 0.6537(3) 0.7954(9) 0.02122(14)
H21 H 0.6087 0.9306 0.0135
C26 C 0.6259(3) 0.6496(8) 0.06005(14)
H22 H 0.6668 0.5074 0.0642
C27 C 0.5393(3) 0.6815(8) 0.09756(15)
C28 C 0.4613(3) 0.8705(8) 0.09231(15)
H23 H 0.4611 0.9749 0.0627
C29 C 0.3850(3) 0.9080(8) 0.12919(16)
H24 H 0.3333 1.0340 0.1248
C30 C 0.3877(3) 0.7504(8) 0.17343(15)
C31 C 0.4647(3) 0.5585(8) 0.17965(14)
C32 C 0.5398(3) 0.5229(8) 0.14110(14)
H25 H 0.5898 0.3939 0.1445
C33 C 0.4481(3) 0.4404(7) 0.23069(14)
C34 C 0.4996(3) 0.2434(9) 0.25940(16)
H26 H 0.5559 0.1567 0.2450
C35 C 0.4662(4) 0.1805(10) 0.30880(17)
H27 H 0.5010 0.0521 0.3285
C36 C 0.3796(4) 0.3085(11) 0.32997(17)
H28 H 0.3580 0.2633 0.3637
C37 C 0.3259(4) 0.4990(9) 0.30222(16)
H29 H 0.2682 0.5817 0.3165
C38 C 0.3604(3) 0.5645(8) 0.25216(15)
C39 C 0.2323(4) 0.9137(9) 0.22438(19)
H30 H 0.2446 1.0637 0.2062
H31 H 0.2327 0.9462 0.2634
C40 C 0.1150(4) 0.8125(14) 0.2006(3)
H32 H 0.1134 0.7840 0.1618
H33 H 0.0565 0.9253 0.2063
H34 H 0.1019 0.6652 0.2189
N2 N 0.3242(3) 0.7528(6) 0.21746(13)
S2 S 0.84528(11) 0.5321(3) 0.00521(5)
loop_
_geom_bond_atom_site_label_1
_geom_bond_atom_site_label_2
_geom_bond_site_symmetry_1
_geom_bond_site_symmetry_2
C1 H1 1_555 1_555
C2 C1 1_555 1_555
H2 C2 1_555 1_555
C3 C2 1_555 1_555
H3 C3 1_555 1_555
C4 C3 1_555 1_555
C5 C4 1_555 1_555
H4 C5 1_555 1_555
C6 C5 1_555 1_555
H5 C6 1_555 1_555
C7 C6 1_555 1_555
C8 C7 1_555 1_555
H6 C8 1_555 1_555
C9 C8 1_555 1_555
H7 C9 1_555 1_555
C10 C9 1_555 1_555
C11 C10 1_555 1_555
C12 C7 1_555 1_555
H8 C12 1_555 1_555
C13 C11 1_555 1_555
C14 C13 1_555 1_555
H9 C14 1_555 1_555
C15 C14 1_555 1_555
H10 C15 1_555 1_555
C16 C15 1_555 1_555
H11 C16 1_555 1_555
C17 C16 1_555 1_555
H12 C17 1_555 1_555
C18 C13 1_555 1_555
C19 H13 1_555 1_555
H14 C19 1_555 1_555
C20 C19 1_555 1_555
H15 C20 1_555 1_555
H16 C20 1_555 1_555
H17 C20 1_555 1_555
N1 C10 1_555 1_555
S1 C1 1_555 1_555
C21 H18 1_555 1_555
C22 C21 1_555 1_555
H19 C22 1_555 1_555
C23 C22 1_555 1_555
H20 C23 1_555 1_555
C24 C23 1_555 1_555
C25 C24 1_555 1_555
H21 C25 1_555 1_555
C26 C25 1_555 1_555
H22 C26 1_555 1_555
C27 C26 1_555 1_555
C28 C27 1_555 1_555
H23 C28 1_555 1_555
C29 C28 1_555 1_555
H24 C29 1_555 1_555
C30 C29 1_555 1_555
C31 C30 1_555 1_555
C32 C27 1_555 1_555
H25 C32 1_555 1_555
C33 C31 1_555 1_555
C34 C33 1_555 1_555
H26 C34 1_555 1_555
C35 C34 1_555 1_555
H27 C35 1_555 1_555
C36 C35 1_555 1_555
H28 C36 1_555 1_555
C37 C36 1_555 1_555
H29 C37 1_555 1_555
C38 C33 1_555 1_555
C39 H30 1_555 1_555
H31 C39 1_555 1_555
C40 C39 1_555 1_555
H32 C40 1_555 1_555
H33 C40 1_555 1_555
H34 C40 1_555 1_555
N2 C30 1_555 1_555
S2 C21 1_555 1_555
C4 S1 1_555 1_555
C11 C12 1_555 1_555
C17 C18 1_555 1_555
C18 N1 1_555 1_555
C19 N1 1_555 1_555
C24 S2 1_555 1_555
C31 C32 1_555 1_555
C37 C38 1_555 1_555
C38 N2 1_555 1_555
C39 N2 1_555 1_555

#END
