
#######################################################################
#
#                 Cambridge Crystallographic Data Centre
#                                CCDC 
#
#######################################################################
#
# If this CIF has been generated from an entry in the Cambridge 
# Structural Database, then it will include bibliographic, chemical, 
# crystal, experimental, refinement or atomic coordinate data resulting 
# from the CCDC's data processing and validation procedures.
#
#######################################################################

data_PODBIU
_chemical_formula_moiety         'C14 H10 N6,C2 H6 O1,2(H2 O1)'
_chemical_name_systematic        
'2,7-bis(1H-imidazol-1-yl)quinoline ethanol solvate dihydrate'
_symmetry_cell_setting           triclinic
_symmetry_space_group_name_H-M   'P -1'
_symmetry_Int_Tables_number      2
_space_group_name_Hall           '-P 1'
loop_
_symmetry_equiv_pos_site_id
_symmetry_equiv_pos_as_xyz
1 x,y,z
2 -x,-y,-z
_cell_length_a                   6.943(2)
_cell_length_b                   9.009(3)
_cell_length_c                   13.760(3)
_cell_angle_alpha                96.793(2)
_cell_angle_beta                 97.431(3)
_cell_angle_gamma                107.080(2)
_cell_volume                     804.648
_exptl_crystal_colour            colorless
_exptl_crystal_description       block
_cell_formula_units_Z            2
_exptl_crystal_recrystallization_method '95% ethanol'
loop_
_atom_site_label
_atom_site_type_symbol
_atom_site_fract_x
_atom_site_fract_y
_atom_site_fract_z
N1 N 0.2464(7) 0.4544(5) 0.5065(3)
N2 N 0.2583(7) 0.5298(5) 0.3539(3)
N3 N 0.2669(8) 0.5905(5) 0.1966(3)
N4 N 0.2882(10) 0.6001(7) 0.0391(4)
N5 N 0.2292(7) 0.3621(5) 0.6542(3)
N6 N 0.1770(9) 0.1159(6) 0.6799(4)
C1 C 0.2648(8) 0.5732(6) 0.4523(4)
C2 C 0.2720(8) 0.6400(6) 0.2981(4)
C3 C 0.2891(9) 0.7972(7) 0.3330(5)
H5 H 0.2962 0.8702 0.2900
C4 C 0.2948(9) 0.8388(7) 0.4314(5)
H6 H 0.3053 0.9418 0.4567
C5 C 0.2851(8) 0.7277(6) 0.4953(4)
C6 C 0.2909(9) 0.7577(7) 0.5971(5)
H7 H 0.3054 0.8588 0.6282
C7 C 0.2752(9) 0.6391(7) 0.6514(4)
H8 H 0.2799 0.6575 0.7198
C8 C 0.2520(8) 0.4896(6) 0.6017(4)
C9 C 0.2892(11) 0.6807(8) 0.1233(5)
H9 H 0.3034 0.7876 0.1328
C10 C 0.2645(13) 0.4516(9) 0.0575(5)
H10 H 0.2571 0.3668 0.0098
C11 C 0.2535(12) 0.4433(8) 0.1524(5)
H11 H 0.2393 0.3547 0.1827
C12 C 0.2005(10) 0.2102(7) 0.6144(5)
H12 H 0.1980 0.1770 0.5474
C13 C 0.1937(11) 0.2132(8) 0.7680(5)
H13 H 0.1836 0.1794 0.8289
C14 C 0.2258(10) 0.3606(7) 0.7544(4)
H14 H 0.2428 0.4468 0.8029
O1 O 0.1862(8) 0.1568(5) 0.3402(4)
H1 H 0.1818 0.2469 0.3641
H2 H 0.0690 0.0920 0.3398
O2 O 0.7143(8) 0.9429(5) 0.8425(4)
H3 H 0.6011 0.8812 0.8510
H4 H 0.7403 0.8967 0.7906
O3 O 0.3355(9) 0.7780(7) 0.8865(3)
H15 H 0.3288 0.7168 0.9365
C15 C 0.300(4) 0.923(3) 0.916(2)
H16 H 0.2912 0.9727 0.8575
H17 H 0.4210 0.9900 0.9619
C16 C 0.122(4) 0.924(3) 0.963(2)
H18 H 0.1490 0.9125 1.0310
H19 H 0.0048 0.8387 0.9284
H20 H 0.0947 1.0221 0.9587
C17? C 0.134(3) 0.989(2) 0.9384(15)
H21? H 0.2237 1.0377 1.0003
H22? H -0.0024 0.9426 0.9508
H23? H 0.1337 1.0660 0.8961
C18? C 0.206(3) 0.862(2) 0.8886(14)
H24? H 0.0781 0.7765 0.8756
H25? H 0.2160 0.8978 0.8249
loop_
_geom_bond_atom_site_label_1
_geom_bond_atom_site_label_2
_geom_bond_site_symmetry_1
_geom_bond_site_symmetry_2
N1 C1 1_555 1_555
N2 C1 1_555 1_555
N3 C2 1_555 1_555
N4 C9 1_555 1_555
N5 C8 1_555 1_555
N6 C12 1_555 1_555
O1 H1 1_555 1_555
H2 O1 1_555 1_555
O2 H3 1_555 1_555
H4 O2 1_555 1_555
C1 C5 1_555 1_555
C2 N2 1_555 1_555
C3 C2 1_555 1_555
H5 C3 1_555 1_555
C4 C3 1_555 1_555
H6 C4 1_555 1_555
C5 C4 1_555 1_555
C6 C5 1_555 1_555
H7 C6 1_555 1_555
C7 C6 1_555 1_555
H8 C7 1_555 1_555
C8 N1 1_555 1_555
C9 N3 1_555 1_555
H9 C9 1_555 1_555
C10 N4 1_555 1_555
H10 C10 1_555 1_555
C11 N3 1_555 1_555
H11 C11 1_555 1_555
C12 N5 1_555 1_555
H12 C12 1_555 1_555
C13 N6 1_555 1_555
H13 C13 1_555 1_555
C14 N5 1_555 1_555
H14 C14 1_555 1_555
O3 H15 1_555 1_555
C15 O3 1_555 1_555
H16 C15 1_555 1_555
H17 C15 1_555 1_555
C16 C15 1_555 1_555
H18 C16 1_555 1_555
H19 C16 1_555 1_555
H20 C16 1_555 1_555
C7 C8 1_555 1_555
C10 C11 1_555 1_555
C13 C14 1_555 1_555

#END
