
#######################################################################
#
#                 Cambridge Crystallographic Data Centre
#                                CCDC 
#
#######################################################################
#
# If this CIF has been generated from an entry in the Cambridge 
# Structural Database, then it will include bibliographic, chemical, 
# crystal, experimental, refinement or atomic coordinate data resulting 
# from the CCDC's data processing and validation procedures.
#
#######################################################################

data_POFPEG
_chemical_name_common            'PDB Chemical Component code: 3IP'
_chemical_formula_moiety         'C12 H12 N2 O1'
_chemical_name_systematic        3-Benzyloxypyridin-2-amine
_symmetry_cell_setting           orthorhombic
_symmetry_space_group_name_H-M   'P b c a'
_symmetry_Int_Tables_number      61
_space_group_name_Hall           '-P 2ac 2ab'
loop_
_symmetry_equiv_pos_site_id
_symmetry_equiv_pos_as_xyz
1 x,y,z
2 1/2-x,-y,1/2+z
3 1/2+x,1/2-y,-z
4 -x,1/2+y,1/2-z
5 -x,-y,-z
6 1/2+x,y,1/2-z
7 1/2-x,1/2+y,z
8 x,1/2-y,1/2+z
_cell_length_a                   12.852(3)
_cell_length_b                   7.4068(15)
_cell_length_c                   22.561(4)
_cell_angle_alpha                90
_cell_angle_beta                 90
_cell_angle_gamma                90
_cell_volume                     2147.63
_exptl_crystal_colour            colorless
_exptl_crystal_description       Block
_cell_formula_units_Z            8
loop_
_atom_site_label
_atom_site_type_symbol
_atom_site_fract_x
_atom_site_fract_y
_atom_site_fract_z
C1 C 0.66421(18) 0.4734(3) -0.00746(11)
H1 H 0.6925 0.3609 0.0012
C2 C 0.65962(19) 0.5359(4) -0.06581(11)
H2 H 0.6860 0.4667 -0.0967
C3 C 0.61591(19) 0.6997(4) -0.07666(11)
H3 H 0.6124 0.7391 -0.1157
C4 C 0.58293(17) 0.7505(3) 0.02173(10)
C5 C 0.62616(17) 0.5814(3) 0.03648(10)
C6 C 0.65634(19) 0.3704(3) 0.11541(11)
H4 H 0.7283 0.3488 0.1046
H5 H 0.6135 0.2785 0.0969
C7 C 0.64405(17) 0.3635(3) 0.18162(11)
C8 C 0.5582(2) 0.4375(3) 0.20964(11)
H6 H 0.5056 0.4899 0.1871
C9 C 0.5499(2) 0.4343(4) 0.27071(12)
H7 H 0.4922 0.4855 0.2891
C10 C 0.6265(3) 0.3558(4) 0.30437(13)
H8 H 0.6213 0.3540 0.3455
C11 C 0.7103(3) 0.2807(4) 0.27693(13)
H9 H 0.7617 0.2256 0.2996
C12 C 0.7201(2) 0.2850(3) 0.21579(12)
H10 H 0.7784 0.2346 0.1978
N1 N 0.54785(16) 0.8603(3) 0.06572(8)
H11 H 0.5227 0.9648 0.0572
H12 H 0.5508 0.8253 0.1020
N2 N 0.57740(15) 0.8083(3) -0.03408(8)
O1 O 0.62485(13) 0.5449(2) 0.09615(7)
loop_
_geom_bond_atom_site_label_1
_geom_bond_atom_site_label_2
_geom_bond_site_symmetry_1
_geom_bond_site_symmetry_2
C1 H1 1_555 1_555
C2 C1 1_555 1_555
H2 C2 1_555 1_555
C3 C2 1_555 1_555
H3 C3 1_555 1_555
C4 C5 1_555 1_555
C5 C1 1_555 1_555
C6 H4 1_555 1_555
H5 C6 1_555 1_555
C7 C6 1_555 1_555
C8 C7 1_555 1_555
H6 C8 1_555 1_555
C9 C8 1_555 1_555
H7 C9 1_555 1_555
C10 C9 1_555 1_555
H8 C10 1_555 1_555
C11 C10 1_555 1_555
H9 C11 1_555 1_555
C12 C7 1_555 1_555
H10 C12 1_555 1_555
N1 C4 1_555 1_555
H11 N1 1_555 1_555
H12 N1 1_555 1_555
N2 C3 1_555 1_555
O1 C5 1_555 1_555
C4 N2 1_555 1_555
C6 O1 1_555 1_555
C11 C12 1_555 1_555

#END
