
#######################################################################
#
#                 Cambridge Crystallographic Data Centre
#                                CCDC 
#
#######################################################################
#
# If this CIF has been generated from an entry in the Cambridge 
# Structural Database, then it will include bibliographic, chemical, 
# crystal, experimental, refinement or atomic coordinate data resulting 
# from the CCDC's data processing and validation procedures.
#
#######################################################################

data_POFRUY
_chemical_formula_moiety         'C25 H22 Br2 O2'
_chemical_name_systematic        
bis(3-bromomethyl-2-methoxy-1-naphthyl)methane
_symmetry_cell_setting           triclinic
_symmetry_space_group_name_H-M   'P -1'
_symmetry_Int_Tables_number      2
_space_group_name_Hall           '-P 1'
loop_
_symmetry_equiv_pos_site_id
_symmetry_equiv_pos_as_xyz
1 x,y,z
2 -x,-y,-z
_cell_length_a                   10.6812(3)
_cell_length_b                   11.1429(4)
_cell_length_c                   18.4311(6)
_cell_angle_alpha                99.3270(10)
_cell_angle_beta                 98.3260(10)
_cell_angle_gamma                96.2960(10)
_cell_volume                     2121.84
_exptl_crystal_colour            colorless
_exptl_crystal_description       block
_cell_formula_units_Z            4
_exptl_crystal_recrystallization_method dichloromethane
loop_
_atom_site_label
_atom_site_type_symbol
_atom_site_fract_x
_atom_site_fract_y
_atom_site_fract_z
Br1 Br 0.68949(6) 0.53790(6) 0.94933(4)
Br2 Br 0.15252(7) 1.26868(6) 0.81324(4)
O1 O 0.4066(4) 0.6110(3) 0.8623(2)
O2 O 0.1981(4) 0.9873(4) 0.7210(2)
C1 C 0.4635(5) 0.7316(5) 0.8845(3)
C2 C 0.5619(5) 0.7565(5) 0.9475(3)
C3 C 0.6255(5) 0.8719(5) 0.9705(3)
H1 H 0.6919 0.8879 1.0125
C4 C 0.5947(5) 0.9682(5) 0.9333(3)
C5 C 0.6642(5) 1.0863(5) 0.9536(3)
H2 H 0.7345 1.1014 0.9933
C6 C 0.6342(6) 1.1803(5) 0.9181(3)
H3 H 0.6831 1.2594 0.9328
C7 C 0.5298(5) 1.1581(5) 0.8595(3)
H4 H 0.5083 1.2231 0.8345
C8 C 0.4587(5) 1.0448(5) 0.8378(3)
H5 H 0.3881 1.0323 0.7983
C9 C 0.4892(5) 0.9457(5) 0.8736(3)
C10 C 0.4211(5) 0.8242(5) 0.8502(3)
C11 C 0.4446(7) 0.5474(6) 0.7968(4)
H6 H 0.4382 0.5978 0.7579
H7 H 0.3885 0.4693 0.7790
H8 H 0.5330 0.5316 0.8087
C12 C 0.5882(6) 0.6603(6) 0.9942(4)
H9 H 0.5059 0.6172 1.0012
H10 H 0.6349 0.7010 1.0440
C13 C 0.3048(5) 0.7976(5) 0.7883(3)
H11 H 0.3281 0.8296 0.7442
H12 H 0.2809 0.7076 0.7735
C14 C 0.1470(5) 0.9488(5) 0.7794(3)
C15 C 0.0549(5) 1.0166(5) 0.8078(3)
C16 C -0.0010(5) 0.9820(5) 0.8653(3)
H13 H -0.0608 1.0291 0.8855
C17 C 0.0295(5) 0.8775(5) 0.8945(3)
C18 C -0.0321(6) 0.8375(6) 0.9509(4)
H14 H -0.0941 0.8830 0.9700
C19 C -0.0049(6) 0.7361(6) 0.9784(4)
H15 H -0.0461 0.7118 1.0171
C20 C 0.0852(6) 0.6667(6) 0.9491(4)
H16 H 0.1018 0.5937 0.9669
C21 C 0.1490(5) 0.7032(5) 0.8951(3)
H17 H 0.2101 0.6558 0.8766
C22 C 0.1247(5) 0.8112(5) 0.8667(3)
C23 C 0.1905(5) 0.8540(5) 0.8109(3)
C24 C 0.1469(6) 0.9104(6) 0.6506(3)
H18 H 0.1588 0.8252 0.6535
H19 H 0.1912 0.9374 0.6119
H20 H 0.0556 0.9158 0.6384
C25 C 0.0176(6) 1.1246(6) 0.7760(4)
H21 H -0.0643 1.1447 0.7906
H22 H 0.0056 1.1049 0.7209
Br3 Br 0.56974(7) 0.93399(6) 0.41869(5)
Br4 Br 0.75222(7) 0.32634(6) 0.74313(5)
O3 O 0.8614(4) 0.8227(3) 0.4593(2)
O4 O 0.9745(3) 0.4825(3) 0.6532(2)
C26 C 0.7776(5) 0.7143(5) 0.4496(3)
C27 C 0.6639(5) 0.7017(5) 0.3961(3)
C28 C 0.5789(6) 0.5975(6) 0.3849(3)
H23 H 0.5016 0.5900 0.3508
C29 C 0.6038(5) 0.4998(5) 0.4235(3)
C30 C 0.5189(6) 0.3890(6) 0.4085(4)
H24 H 0.4429 0.3807 0.3732
C31 C 0.5443(6) 0.2931(6) 0.4442(4)
H25 H 0.4871 0.2185 0.4328
C32 C 0.6551(6) 0.3061(5) 0.4973(4)
H26 H 0.6721 0.2399 0.5223
C33 C 0.7398(6) 0.4133(5) 0.5141(3)
H27 H 0.8148 0.4199 0.5501
C34 C 0.7157(5) 0.5142(5) 0.4778(3)
C35 C 0.8012(5) 0.6269(5) 0.4929(3)
C36 C 0.9685(6) 0.8085(6) 0.4207(4)
H28 H 1.0170 0.7473 0.4398
H29 H 1.0238 0.8873 0.4290
H30 H 0.9375 0.7814 0.3672
C37 C 0.6374(6) 0.8036(6) 0.3563(4)
H31 H 0.5747 0.7714 0.3103
H32 H 0.7171 0.8386 0.3416
C38 C 0.9161(5) 0.6505(5) 0.5552(3)
H33 H 0.9686 0.5830 0.5475
H34 H 0.9693 0.7278 0.5526
C39 C 0.9041(5) 0.5749(5) 0.6763(3)
C40 C 0.8609(5) 0.5745(5) 0.7451(3)
C41 C 0.7961(5) 0.6662(5) 0.7709(3)
H35 H 0.7642 0.6653 0.8163
C42 C 0.7752(5) 0.7620(5) 0.7320(3)
C43 C 0.7128(6) 0.8609(6) 0.7612(4)
H36 H 0.6834 0.8615 0.8075
C44 C 0.6945(6) 0.9555(6) 0.7231(4)
H37 H 0.6532 1.0214 0.7434
C45 C 0.7362(5) 0.9554(5) 0.6550(4)
H38 H 0.7240 1.0218 0.6294
C46 C 0.7948(5) 0.8601(5) 0.6244(3)
H39 H 0.8222 0.8611 0.5777
C47 C 0.8148(5) 0.7603(4) 0.6617(3)
C48 C 0.8787(5) 0.6599(5) 0.6321(3)
C49 C 1.1086(5) 0.5184(5) 0.6793(3)
H40 H 1.1388 0.5881 0.6571
H41 H 1.1548 0.4494 0.6649
H42 H 1.1239 0.5423 0.7337
C50 C 0.8807(6) 0.4714(6) 0.7862(4)
H43 H 0.8744 0.4981 0.8393
H44 H 0.9674 0.4490 0.7837
loop_
_geom_bond_atom_site_label_1
_geom_bond_atom_site_label_2
_geom_bond_site_symmetry_1
_geom_bond_site_symmetry_2
Br1 C12 1_555 1_555
Br2 C25 1_555 1_555
O1 C1 1_555 1_555
O2 C14 1_555 1_555
C1 C2 1_555 1_555
C2 C3 1_555 1_555
C3 H1 1_555 1_555
C4 C3 1_555 1_555
C5 C4 1_555 1_555
H2 C5 1_555 1_555
C6 C5 1_555 1_555
H3 C6 1_555 1_555
C7 C6 1_555 1_555
H4 C7 1_555 1_555
C8 C7 1_555 1_555
H5 C8 1_555 1_555
C9 C4 1_555 1_555
C10 C1 1_555 1_555
C11 O1 1_555 1_555
H6 C11 1_555 1_555
H7 C11 1_555 1_555
H8 C11 1_555 1_555
C12 C2 1_555 1_555
H9 C12 1_555 1_555
H10 C12 1_555 1_555
C13 C10 1_555 1_555
H11 C13 1_555 1_555
H12 C13 1_555 1_555
C14 C15 1_555 1_555
C15 C16 1_555 1_555
C16 H13 1_555 1_555
C17 C16 1_555 1_555
C18 C17 1_555 1_555
H14 C18 1_555 1_555
C19 C18 1_555 1_555
H15 C19 1_555 1_555
C20 C19 1_555 1_555
H16 C20 1_555 1_555
C21 C20 1_555 1_555
H17 C21 1_555 1_555
C22 C17 1_555 1_555
C23 C13 1_555 1_555
C24 O2 1_555 1_555
H18 C24 1_555 1_555
H19 C24 1_555 1_555
H20 C24 1_555 1_555
C25 C15 1_555 1_555
H21 C25 1_555 1_555
H22 C25 1_555 1_555
Br3 C37 1_555 1_555
Br4 C50 1_555 1_555
O3 C26 1_555 1_555
O4 C39 1_555 1_555
C26 C27 1_555 1_555
C27 C28 1_555 1_555
C28 H23 1_555 1_555
C29 C28 1_555 1_555
C30 C29 1_555 1_555
H24 C30 1_555 1_555
C31 C30 1_555 1_555
H25 C31 1_555 1_555
C32 C31 1_555 1_555
H26 C32 1_555 1_555
C33 C32 1_555 1_555
H27 C33 1_555 1_555
C34 C29 1_555 1_555
C35 C26 1_555 1_555
C36 O3 1_555 1_555
H28 C36 1_555 1_555
H29 C36 1_555 1_555
H30 C36 1_555 1_555
C37 C27 1_555 1_555
H31 C37 1_555 1_555
H32 C37 1_555 1_555
C38 C35 1_555 1_555
H33 C38 1_555 1_555
H34 C38 1_555 1_555
C39 C40 1_555 1_555
C40 C41 1_555 1_555
C41 H35 1_555 1_555
C42 C41 1_555 1_555
C43 C42 1_555 1_555
H36 C43 1_555 1_555
C44 C43 1_555 1_555
H37 C44 1_555 1_555
C45 C44 1_555 1_555
H38 C45 1_555 1_555
C46 C45 1_555 1_555
H39 C46 1_555 1_555
C47 C42 1_555 1_555
C48 C38 1_555 1_555
C49 O4 1_555 1_555
H40 C49 1_555 1_555
H41 C49 1_555 1_555
H42 C49 1_555 1_555
C50 C40 1_555 1_555
H43 C50 1_555 1_555
H44 C50 1_555 1_555
C8 C9 1_555 1_555
C9 C10 1_555 1_555
C14 C23 1_555 1_555
C21 C22 1_555 1_555
C22 C23 1_555 1_555
C33 C34 1_555 1_555
C34 C35 1_555 1_555
C39 C48 1_555 1_555
C46 C47 1_555 1_555
C47 C48 1_555 1_555

#END
