
#######################################################################
#
#                 Cambridge Crystallographic Data Centre
#                                CCDC 
#
#######################################################################
#
# If this CIF has been generated from an entry in the Cambridge 
# Structural Database, then it will include bibliographic, chemical, 
# crystal, experimental, refinement or atomic coordinate data resulting 
# from the CCDC's data processing and validation procedures.
#
#######################################################################

data_POFVUB
_chemical_name_common            '9-Benzyl-2-methylsulfonyl-6-azapurine 6-oxide'
_chemical_formula_moiety         'C12 H11 N5 O3 S1'
_chemical_name_systematic        
'5-Benzyl-3-methylsulfonyl-5H-imidazo(4,5-e)-1,2,4-triazine 1-oxide'
_symmetry_cell_setting           monoclinic
_symmetry_space_group_name_H-M   'P 21/n'
_symmetry_Int_Tables_number      14
_space_group_name_Hall           '-P 2yn'
loop_
_symmetry_equiv_pos_site_id
_symmetry_equiv_pos_as_xyz
1 x,y,z
2 1/2-x,1/2+y,1/2-z
3 -x,-y,-z
4 1/2+x,1/2-y,1/2+z
_cell_length_a                   6.794(2)
_cell_length_b                   14.834(2)
_cell_length_c                   13.759(2)
_cell_angle_alpha                90
_cell_angle_beta                 104.04(2)
_cell_angle_gamma                90
_cell_volume                     1345.24
_chemical_melting_point          '216-218 deg.C'
_cell_formula_units_Z            4
loop_
_atom_site_label
_atom_site_type_symbol
_atom_site_fract_x
_atom_site_fract_y
_atom_site_fract_z
S1 S 0.37398(14) 0.52247(6) 0.15810(7)
O1 O 0.8572(4) 0.72767(18) 0.06943(19)
O2 O 0.5020(4) 0.53436(18) 0.25571(18)
O3 O 0.3878(5) 0.44068(16) 0.10663(20)
N1 N 0.6761(4) 0.70326(18) 0.04942(20)
N2 N 0.6218(4) 0.63804(18) 0.10680(19)
N3 N 0.2730(4) 0.64197(17) 0.01012(19)
N4 N 0.2256(4) 0.75833(18) -0.11758(19)
N5 N 0.549(4) 0.80709(18) -0.09088(21)
C1 C 0.4275(5) 0.61299(20) 0.08096(23)
C2 C 0.3346(5) 0.70789(21) -0.04031(22)
C3 C 0.3624(5) 0.8156(23) -0.1449(3)
C4 C 0.5321(5) 0.74073(22) -0.02551(23)
C5 C 0.1226(6) 0.5420(3) 0.1619(3)
C6 C 0.0083(5) 0.74895(24) -0.16263(24)
C7 C -0.0387(5) 0.68736(22) -0.25257(24)
C8 C -0.2396(5) 0.68008(24) -0.3063(3)
C9 C -0.2924(6) 0.6217(3) -0.3867(3)
C10 C -0.1472(6) 0.5700(3) -0.4136(3)
C11 C 0.0531(6) 0.5779(3) -0.3622(3)
C12 C 0.1078(5) 0.63598(24) -0.2818(3)
H1 H 0.320 0.862 -0.203
H2 H 0.106 0.603 0.193
H3 H 0.028 0.541 0.093
H4 H 0.073 0.495 0.204
H5 H -0.064 0.724 -0.110
H6 H -0.057 0.810 -0.183
H7 H -0.351 0.719 -0.287
H8 H -0.441 0.617 -0.426
H9 H -0.191 0.526 -0.473
H10 H 0.160 0.537 -0.384
H11 H 0.258 0.642 -0.244
loop_
_geom_bond_atom_site_label_1
_geom_bond_atom_site_label_2
_geom_bond_site_symmetry_1
_geom_bond_site_symmetry_2
S1 O2 1_555 1_555
O1 N1 1_555 1_555
O3 S1 1_555 1_555
N1 N2 1_555 1_555
N2 C1 1_555 1_555
N3 C1 1_555 1_555
N4 C2 1_555 1_555
N5 C3 1_555 1_555
C1 S1 1_555 1_555
C2 N3 1_555 1_555
C3 N4 1_555 1_555
C4 N1 1_555 1_555
C5 S1 1_555 1_555
C6 N4 1_555 1_555
C7 C6 1_555 1_555
C8 C7 1_555 1_555
C9 C8 1_555 1_555
C10 C9 1_555 1_555
C11 C10 1_555 1_555
C12 C7 1_555 1_555
H1 C3 1_555 1_555
H2 C5 1_555 1_555
H3 C5 1_555 1_555
H4 C5 1_555 1_555
H5 C6 1_555 1_555
H6 C6 1_555 1_555
H7 C8 1_555 1_555
H8 C9 1_555 1_555
H9 C10 1_555 1_555
H10 C11 1_555 1_555
H11 C12 1_555 1_555
N5 C4 1_555 1_555
C2 C4 1_555 1_555
C11 C12 1_555 1_555

#END
