
#######################################################################
#
#                 Cambridge Crystallographic Data Centre
#                                CCDC 
#
#######################################################################
#
# If this CIF has been generated from an entry in the Cambridge 
# Structural Database, then it will include bibliographic, chemical, 
# crystal, experimental, refinement or atomic coordinate data resulting 
# from the CCDC's data processing and validation procedures.
#
#######################################################################

data_POGBUI
_chemical_formula_moiety         'C13 H15 F5 N2'
_chemical_name_systematic        
'7-Difluoromethyl-8-trifluoromethyl-1,9-diazatricyclo(7.3.1.0^6,13^) trideca-6(13),7-diene'
_symmetry_cell_setting           monoclinic
_symmetry_space_group_name_H-M   'P 21/c'
_symmetry_Int_Tables_number      14
_space_group_name_Hall           '-P 2ybc'
loop_
_symmetry_equiv_pos_site_id
_symmetry_equiv_pos_as_xyz
1 x,y,z
2 -x,1/2+y,1/2-z
3 -x,-y,-z
4 x,1/2-y,1/2+z
_cell_length_a                   8.752(2)
_cell_length_b                   15.637(6)
_cell_length_c                   9.559(4)
_cell_angle_alpha                90
_cell_angle_beta                 102.15(3)
_cell_angle_gamma                90
_cell_volume                     1278.89
_exptl_crystal_colour            colorless
_cell_formula_units_Z            4
loop_
_atom_site_label
_atom_site_type_symbol
_atom_site_fract_x
_atom_site_fract_y
_atom_site_fract_z
F1 F 0.8892(2) 0.2037(1) 0.7179(2)
F2 F 1.0157(2) 0.3215(1) 0.7380(2)
F3 F 0.8988(2) 0.2763(1) 0.5308(2)
F4 F 0.8026(2) 0.4511(1) 1.0001(2)
F5 F 0.8596(2) 0.5315(1) 0.8334(2)
N1 N 0.5983(2) 0.3095(1) 0.6025(2)
N2 N 0.3297(2) 0.3561(1) 0.5714(2)
C1 C 0.7435(3) 0.3322(2) 0.6823(3)
C2 C 0.7236(3) 0.4028(2) 0.7627(3)
C3 C 0.5624(3) 0.4252(2) 0.7322(2)
C4 C 0.4879(3) 0.3661(2) 0.6321(2)
C5 C 0.2917(4) 0.2934(2) 0.4528(4)
C6 C 0.3931(4) 0.2128(2) 0.4913(4)
C7 C 0.5622(2) 0.2383(1) 0.5001(2)
C8 C 0.4886(2) 0.4960(1) 0.8010(2)
C9 C 0.3666(3) 0.5481(2) 0.7003(3)
C10 C 0.2211(3) 0.4977(2) 0.6359(3)
C11 C 0.2406(3) 0.4341(2) 0.5218(3)
C12 C 0.8845(3) 0.2842(2) 0.6676(3)
C13 C 0.8461(3) 0.4473(2) 0.8703(3)
H1 H 0.3108(4) 0.3190(2) 0.3633(4)
H2 H 0.1799(4) 0.2776(2) 0.4372(4)
H3 H 0.3796(4) 0.1890(2) 0.5839(4)
H4 H 0.3620(4) 0.1686(2) 0.4166(4)
H5 H 0.6294(2) 0.1885(1) 0.5347(2)
H6 H 0.5819(2) 0.2557(1) 0.4059(2)
H7 H 0.5720(2) 0.5352(1) 0.8492(2)
H8 H 0.4393(2) 0.4708(1) 0.8757(2)
H9 H 0.3364(3) 0.5976(2) 0.7531(3)
H10 H 0.4132(3) 0.5706(2) 0.6219(3)
H11 H 0.1372(3) 0.5383(2) 0.5941(3)
H12 H 0.1863(3) 0.4664(2) 0.7138(3)
H13 H 0.1354(3) 0.4169(2) 0.4689(3)
H14 H 0.2931(3) 0.4635(2) 0.4531(3)
H15 H 0.9488(3) 0.4173(2) 0.8800(3)
C14? C 0.2866(12) 0.2698(6) 0.5109(13)
C15? C 0.3933(9) 0.2406(10) 0.4243(14)
H16? H 0.2874(12) 0.2288(6) 0.5900(13)
H17? H 0.1792(12) 0.2716(6) 0.4517(13)
H18? H 0.3830(9) 0.2785(10) 0.3399(14)
H19? H 0.3617(9) 0.1824(10) 0.3889(14)
loop_
_geom_bond_atom_site_label_1
_geom_bond_atom_site_label_2
_geom_bond_site_symmetry_1
_geom_bond_site_symmetry_2
F1 C12 1_555 1_555
F2 C12 1_555 1_555
F3 C12 1_555 1_555
F4 C13 1_555 1_555
F5 C13 1_555 1_555
N1 C1 1_555 1_555
N2 C4 1_555 1_555
C1 C2 1_555 1_555
C2 C3 1_555 1_555
C3 C4 1_555 1_555
C4 N1 1_555 1_555
C5 N2 1_555 1_555
C6 C5 1_555 1_555
C7 N1 1_555 1_555
C8 C3 1_555 1_555
C9 C8 1_555 1_555
C10 C9 1_555 1_555
C11 N2 1_555 1_555
C12 C1 1_555 1_555
C13 C2 1_555 1_555
H1 C5 1_555 1_555
H2 C5 1_555 1_555
H3 C6 1_555 1_555
H4 C6 1_555 1_555
H5 C7 1_555 1_555
H6 C7 1_555 1_555
H7 C8 1_555 1_555
H8 C8 1_555 1_555
H9 C9 1_555 1_555
H10 C9 1_555 1_555
H11 C10 1_555 1_555
H12 C10 1_555 1_555
H13 C11 1_555 1_555
H14 C11 1_555 1_555
H15 C13 1_555 1_555
C6 C7 1_555 1_555
C10 C11 1_555 1_555

#END
