
#######################################################################
#
#                 Cambridge Crystallographic Data Centre
#                                CCDC 
#
#######################################################################
#
# If this CIF has been generated from an entry in the Cambridge 
# Structural Database, then it will include bibliographic, chemical, 
# crystal, experimental, refinement or atomic coordinate data resulting 
# from the CCDC's data processing and validation procedures.
#
#######################################################################

data_POHLIJ
_chemical_compound_source        
'crude extract of the fungus Cercospora sp., endophytic to the medicinal plant Fallopia japonica'
_chemical_name_common            'Cercosporene E'
_chemical_formula_moiety         'C40 H50 O8'
_chemical_name_systematic        
5,5'-ethane-1,2-diylbis(2,7-dihydroxy-1-isopropyl-8a,10a-dimethyl-7,8,8a,9,10,10a-hexahydrobenzo[f]azulene-3,6-dione)
_symmetry_cell_setting           monoclinic
_symmetry_space_group_name_H-M   'C 2'
_symmetry_Int_Tables_number      5
_space_group_name_Hall           'C 2y'
loop_
_symmetry_equiv_pos_site_id
_symmetry_equiv_pos_as_xyz
1 x,y,z
2 -x,y,-z
3 1/2+x,1/2+y,z
4 1/2-x,1/2+y,-z
_cell_length_a                   12.8255(6)
_cell_length_b                   11.1968(4)
_cell_length_c                   12.6545(6)
_cell_angle_alpha                90
_cell_angle_beta                 107.183(5)
_cell_angle_gamma                90
_cell_volume                     1736.13
_chemical_melting_point          '112-115 deg.C'
_cell_formula_units_Z            2
loop_
_atom_site_label
_atom_site_type_symbol
_atom_site_fract_x
_atom_site_fract_y
_atom_site_fract_z
O1 O 0.02019(9) 0.58439(10) 0.18511(9)
H1 H -0.0123 0.5916 0.1173
C1 C 0.32110(12) 0.59983(14) 0.28817(12)
O2 O 0.12903(9) 0.60942(13) 0.01292(9)
C2 C 0.65881(16) 0.4957(2) 0.23688(17)
H2 H 0.6921 0.4373 0.2960
H3 H 0.6724 0.4672 0.1680
O3 O 0.82881(11) 0.6040(3) 0.28844(12)
H4 H 0.8475 0.6392 0.2383
C3 C 0.39553(14) 0.49211(15) 0.33781(13)
H5 H 0.3964 0.4822 0.4158
H6 H 0.3627 0.4191 0.2974
C4 C 0.51369(14) 0.50157(16) 0.33432(13)
H7 H 0.5555 0.4353 0.3791
H8 H 0.5445 0.5770 0.3714
C5 C 0.18746(13) 0.57080(16) 0.41178(13)
H9 H 0.2602 0.5667 0.4692
C6 C 0.20700(12) 0.58455(14) 0.30083(13)
C7 C 0.12889(12) 0.59040(13) 0.20187(12)
O4 O 0.72226(12) 0.77805(16) 0.15217(13)
C8 C 0.71449(14) 0.6148(3) 0.26799(16)
H10 H 0.7006 0.6423 0.3378
C9 C 0.48654(12) 0.60842(15) 0.15026(12)
C10 C 0.37151(13) 0.71810(15) 0.34244(14)
H11 H 0.3833 0.7137 0.4225
H12 H 0.3218 0.7842 0.3116
H13 H 0.4414 0.7315 0.3277
C11 C 0.53501(14) 0.49872(16) 0.21920(13)
C12 C 0.12600(19) 0.4542(2) 0.41823(18)
H14 H 0.0544 0.4556 0.3623
H15 H 0.1163 0.4468 0.4919
H16 H 0.1682 0.3860 0.4046
C13 C 0.17752(12) 0.60310(15) 0.11207(13)
C14 C 0.66501(15) 0.70494(19) 0.17890(16)
C15 C 0.12592(15) 0.67882(18) 0.43857(15)
H17 H 0.1680 0.7517 0.4378
H18 H 0.1162 0.6684 0.5120
H19 H 0.0544 0.6853 0.3831
C16 C 0.54482(14) 0.70063(16) 0.12884(14)
C17 C 0.29696(12) 0.60538(14) 0.16387(13)
C18 C 0.48546(18) 0.38396(16) 0.15852(15)
H20 H 0.5035 0.3782 0.0886
H21 H 0.4060 0.3858 0.1434
H22 H 0.5153 0.3146 0.2048
C19 C 0.49363(16) 0.80632(15) 0.05891(16)
H23 H 0.5268 0.8803 0.0972
H24 H 0.4149 0.8081 0.0527
C20 C 0.36650(12) 0.61002(14) 0.10369(13)
H25 H 0.3368 0.6147 0.0256
O1A O 0.97981(9) 0.58439(10) -0.18511(9)
H1A H 1.0123 0.5916 -0.1173
C1A C 0.67890(12) 0.59983(14) -0.28817(12)
O2A O 0.87097(9) 0.60942(13) -0.01292(9)
C2A C 0.34119(16) 0.4957(2) -0.23688(17)
H2A H 0.3079 0.4373 -0.2960
H3A H 0.3276 0.4672 -0.1680
O3A O 0.17119(11) 0.6040(3) -0.28844(12)
H4A H 0.1525 0.6392 -0.2383
C3A C 0.60447(14) 0.49211(15) -0.33781(13)
H5A H 0.6036 0.4822 -0.4158
H6A H 0.6373 0.4191 -0.2974
C4A C 0.48631(14) 0.50157(16) -0.33432(13)
H7A H 0.4445 0.4353 -0.3791
H8A H 0.4555 0.5770 -0.3714
C5A C 0.81254(13) 0.57080(16) -0.41178(13)
H9A H 0.7398 0.5667 -0.4692
C6A C 0.79300(12) 0.58455(14) -0.30083(13)
C7A C 0.87111(12) 0.59040(13) -0.20187(12)
O4A O 0.27774(12) 0.77805(16) -0.15217(13)
C8A C 0.28551(14) 0.6148(3) -0.26799(16)
H10A H 0.2994 0.6423 -0.3378
C9A C 0.51346(12) 0.60842(15) -0.15026(12)
C10A C 0.62849(13) 0.71810(15) -0.34244(14)
H11A H 0.6167 0.7137 -0.4225
H12A H 0.6782 0.7842 -0.3116
H13A H 0.5586 0.7315 -0.3277
C11A C 0.46499(14) 0.49872(16) -0.21920(13)
C12A C 0.87400(19) 0.4542(2) -0.41823(18)
H14A H 0.9456 0.4556 -0.3623
H15A H 0.8837 0.4468 -0.4919
H16A H 0.8318 0.3860 -0.4046
C13A C 0.82248(12) 0.60310(15) -0.11207(13)
C14A C 0.33499(15) 0.70494(19) -0.17890(16)
C15A C 0.87408(15) 0.67882(18) -0.43857(15)
H17A H 0.8320 0.7517 -0.4378
H18A H 0.8838 0.6684 -0.5120
H19A H 0.9456 0.6853 -0.3831
C16A C 0.45518(14) 0.70063(16) -0.12884(14)
C17A C 0.70304(12) 0.60538(14) -0.16387(13)
C18A C 0.51454(18) 0.38396(16) -0.15852(15)
H20A H 0.4965 0.3782 -0.0886
H21A H 0.5940 0.3858 -0.1434
H22A H 0.4847 0.3146 -0.2048
C19A C 0.50637(16) 0.80632(15) -0.05891(16)
H23A H 0.4732 0.8803 -0.0972
H24A H 0.5851 0.8081 -0.0527
C20A C 0.63350(12) 0.61002(14) -0.10369(13)
H25A H 0.6632 0.6147 -0.0256
loop_
_geom_bond_atom_site_label_1
_geom_bond_atom_site_label_2
_geom_bond_site_symmetry_1
_geom_bond_site_symmetry_2
O1 H1 1_555 1_555
C1 C3 1_555 1_555
O2 C13 1_555 1_555
C2 H2 1_555 1_555
H3 C2 1_555 1_555
O3 H4 1_555 1_555
C3 H5 1_555 1_555
H6 C3 1_555 1_555
C4 C3 1_555 1_555
H7 C4 1_555 1_555
H8 C4 1_555 1_555
C5 H9 1_555 1_555
C6 C1 1_555 1_555
C7 O1 1_555 1_555
O4 C14 1_555 1_555
C8 C2 1_555 1_555
H10 C8 1_555 1_555
C9 C11 1_555 1_555
C10 C1 1_555 1_555
H11 C10 1_555 1_555
H12 C10 1_555 1_555
H13 C10 1_555 1_555
C11 C2 1_555 1_555
C12 C5 1_555 1_555
H14 C12 1_555 1_555
H15 C12 1_555 1_555
H16 C12 1_555 1_555
C13 C7 1_555 1_555
C14 C8 1_555 1_555
C15 C5 1_555 1_555
H17 C15 1_555 1_555
H18 C15 1_555 1_555
H19 C15 1_555 1_555
C16 C9 1_555 1_555
C17 C1 1_555 1_555
C18 C11 1_555 1_555
H20 C18 1_555 1_555
H21 C18 1_555 1_555
H22 C18 1_555 1_555
C19 C16 1_555 1_555
H23 C19 1_555 1_555
H24 C19 1_555 1_555
C20 C9 1_555 1_555
H25 C20 1_555 1_555
O1A H1A 1_555 1_555
C1A C3A 1_555 1_555
O2A C13A 1_555 1_555
C2A H2A 1_555 1_555
H3A C2A 1_555 1_555
O3A H4A 1_555 1_555
C3A H5A 1_555 1_555
H6A C3A 1_555 1_555
C4A C3A 1_555 1_555
H7A C4A 1_555 1_555
H8A C4A 1_555 1_555
C5A H9A 1_555 1_555
C6A C1A 1_555 1_555
C7A O1A 1_555 1_555
O4A C14A 1_555 1_555
C8A C2A 1_555 1_555
H10A C8A 1_555 1_555
C9A C11A 1_555 1_555
C10A C1A 1_555 1_555
H11A C10A 1_555 1_555
H12A C10A 1_555 1_555
H13A C10A 1_555 1_555
C11A C2A 1_555 1_555
C12A C5A 1_555 1_555
H14A C12A 1_555 1_555
H15A C12A 1_555 1_555
H16A C12A 1_555 1_555
C13A C7A 1_555 1_555
C14A C8A 1_555 1_555
C15A C5A 1_555 1_555
H17A C15A 1_555 1_555
H18A C15A 1_555 1_555
H19A C15A 1_555 1_555
C16A C9A 1_555 1_555
C17A C1A 1_555 1_555
C18A C11A 1_555 1_555
H20A C18A 1_555 1_555
H21A C18A 1_555 1_555
H22A C18A 1_555 1_555
C19A C19 1_555 1_555
H23A C19A 1_555 1_555
H24A C19A 1_555 1_555
C20A C9A 1_555 1_555
H25A C20A 1_555 1_555
O3 C8 1_555 1_555
C4 C11 1_555 1_555
C5 C6 1_555 1_555
C6 C7 1_555 1_555
C13 C17 1_555 1_555
C14 C16 1_555 1_555
C17 C20 1_555 1_555
O3A C8A 1_555 1_555
C4A C11A 1_555 1_555
C5A C6A 1_555 1_555
C6A C7A 1_555 1_555
C13A C17A 1_555 1_555
C14A C16A 1_555 1_555
C16A C19A 1_555 1_555
C17A C20A 1_555 1_555

#END
