
#######################################################################
#
#                 Cambridge Crystallographic Data Centre
#                                CCDC 
#
#######################################################################
#
# If this CIF has been generated from an entry in the Cambridge 
# Structural Database, then it will include bibliographic, chemical, 
# crystal, experimental, refinement or atomic coordinate data resulting 
# from the CCDC's data processing and validation procedures.
#
#######################################################################

data_POHNOQ
_chemical_formula_moiety         'C29 H29 N5 O4'
_chemical_name_systematic        
N,N'-bis(2-((4-Oxopent-2-en-2-yl)amino)phenyl)pyridine-2,6-dicarboxamide
_symmetry_cell_setting           monoclinic
_symmetry_space_group_name_H-M   'P 2/c'
_symmetry_Int_Tables_number      13
_space_group_name_Hall           '-P 2yc'
loop_
_symmetry_equiv_pos_site_id
_symmetry_equiv_pos_as_xyz
1 x,y,z
2 -x,y,1/2-z
3 -x,-y,-z
4 x,-y,1/2+z
_cell_length_a                   19.434(8)
_cell_length_b                   8.851(3)
_cell_length_c                   16.399(7)
_cell_angle_alpha                90.00
_cell_angle_beta                 113.087(16)
_cell_angle_gamma                90.00
_cell_volume                     2594.88
_chemical_melting_point          102-104deg.C
_cell_formula_units_Z            4
loop_
_atom_site_label
_atom_site_type_symbol
_atom_site_fract_x
_atom_site_fract_y
_atom_site_fract_z
O1 O 0.43442(9) 0.97218(19) 0.65515(12)
O3 O 0.64072(11) 0.5865(2) 0.66692(14)
N4 N 0.5000 0.6406(3) 0.7500
N5 N 0.60832(10) 0.7980(2) 0.72219(12)
H3 H 0.5785 0.8340 0.7447
N6 N 0.55461(11) 1.0613(2) 0.62930(13)
H4 H 0.5328 1.0091 0.6564
C4 C 0.50749(14) 1.1534(3) 0.56565(15)
C5 C 0.63199(13) 1.0340(3) 0.65984(15)
C6 C 0.65878(13) 0.8993(3) 0.70631(16)
C7 C 0.55032(13) 0.5621(2) 0.73006(15)
C8 C 0.39838(13) 1.0667(3) 0.59706(16)
C11 C 0.73425(14) 0.8643(3) 0.73880(18)
H5 H 0.7512 0.7744 0.7695
C12 C 0.60465(13) 0.6495(3) 0.70404(16)
C15 C 0.43273(14) 1.1539(3) 0.54996(16)
H8 H 0.4018 1.2162 0.5048
C17 C 0.53567(16) 1.2564(3) 0.51316(18)
H10 H 0.5887 1.2432 0.5316
H11 H 0.5253 1.3593 0.5229
H12 H 0.5111 1.2328 0.4513
C18 C 0.55303(15) 0.4050(3) 0.73109(16)
H13 H 0.5900 0.3542 0.7192
C22 C 0.78469(16) 0.9618(4) 0.7260(2)
H16 H 0.8353 0.9376 0.7474
C24 C 0.68430(15) 1.1324(3) 0.64972(19)
H18 H 0.6684 1.2245 0.6212
C25 C 0.5000 0.3262(4) 0.7500
H19 H 0.5000 0.2211 0.7500
C27 C 0.31735(15) 1.0906(4) 0.5775(2)
H21 H 0.3023 1.0246 0.6140
H22 H 0.2883 1.0689 0.5162
H23 H 0.3094 1.1936 0.5899
C28 C 0.75910(16) 1.0951(4) 0.6814(2)
H24 H 0.7927 1.1610 0.6724
O1A O 0.56558(9) 0.97218(19) 0.84485(12)
O3A O 0.35928(11) 0.5865(2) 0.83308(14)
N5A N 0.39168(10) 0.7980(2) 0.77781(12)
H3A H 0.4215 0.8340 0.7553
N6A N 0.44539(11) 1.0613(2) 0.87070(13)
H4A H 0.4672 1.0091 0.8436
C4A C 0.49251(14) 1.1534(3) 0.93435(15)
C5A C 0.36801(13) 1.0340(3) 0.84016(15)
C6A C 0.34122(13) 0.8993(3) 0.79369(16)
C7A C 0.44968(13) 0.5621(2) 0.76994(15)
C8A C 0.60162(13) 1.0667(3) 0.90294(16)
C11A C 0.26575(14) 0.8643(3) 0.76120(18)
H5A H 0.2488 0.7744 0.7305
C12A C 0.39535(13) 0.6495(3) 0.79596(16)
C15A C 0.56727(14) 1.1539(3) 0.95004(16)
H8A H 0.5982 1.2162 0.9952
C17A C 0.46433(16) 1.2564(3) 0.98684(18)
H10A H 0.4113 1.2432 0.9684
H11A H 0.4747 1.3593 0.9771
H12A H 0.4889 1.2328 1.0487
C18A C 0.44697(15) 0.4050(3) 0.76891(16)
H13A H 0.4100 0.3542 0.7808
C22A C 0.21531(16) 0.9618(4) 0.7740(2)
H16A H 0.1647 0.9376 0.7526
C24A C 0.31570(15) 1.1324(3) 0.85028(19)
H18A H 0.3316 1.2245 0.8788
C27A C 0.68265(15) 1.0906(4) 0.9225(2)
H21A H 0.6977 1.0246 0.8860
H22A H 0.7117 1.0689 0.9838
H23A H 0.6906 1.1936 0.9101
C28A C 0.24090(16) 1.0951(4) 0.8186(2)
H24A H 0.2073 1.1610 0.8276
O2 O 0.85268(10) 0.8325(2) 0.54082(12)
N1 N 0.93093(11) 0.3726(2) 0.57539(14)
H1 H 0.9562 0.4121 0.6263
N2 N 1.0000 0.7852(3) 0.7500
N3 N 0.88354(10) 0.6290(2) 0.63348(13)
H2 H 0.9135 0.5965 0.6845
O4 O 1.06036(11) 0.4663(2) 0.69801(14)
C1 C 0.85306(13) 0.3958(3) 0.54577(15)
C2 C 0.94862(12) 0.8634(3) 0.68443(15)
C3 C 0.82924(13) 0.5268(3) 0.57535(15)
C9 C 0.97359(16) 0.3000(3) 0.53911(18)
C10 C 0.88997(12) 0.7741(3) 0.61195(16)
C13 C 0.75396(14) 0.5567(3) 0.54989(18)
H6 H 0.7390 0.6425 0.5713
C14 C 0.94751(14) 1.0201(3) 0.68145(17)
H7 H 0.9119 1.0707 0.6339
C16 C 1.05040(16) 0.3123(3) 0.57828(19)
H9 H 1.0778 0.2580 0.5527
C19 C 1.0000 1.0996(4) 0.7500
H14 H 1.0000 1.2047 0.7500
C20 C 0.79848(15) 0.2960(3) 0.49218(18)
H15 H 0.8127 0.2055 0.4745
C21 C 1.09138(15) 0.4001(3) 0.65405(19)
C23 C 0.72376(16) 0.3304(3) 0.46524(19)
H17 H 0.6882 0.2644 0.4276
C26 C 0.70057(15) 0.4607(3) 0.49295(19)
H20 H 0.6499 0.4835 0.4737
C29 C 1.17427(16) 0.4160(4) 0.6802(2)
H25 H 1.1949 0.4775 0.7325
H26 H 1.1837 0.4629 0.6328
H27 H 1.1972 0.3180 0.6921
C30 C 0.93727(18) 0.2085(4) 0.4554(2)
H28 H 0.8839 0.2123 0.4367
H29 H 0.9538 0.1055 0.4666
H30 H 0.9510 0.2495 0.4097
O2A O 1.14732(10) 0.8325(2) 0.95918(12)
N1A N 1.06907(11) 0.3726(2) 0.92461(14)
H1A H 1.0438 0.4121 0.8737
N3A N 1.11646(10) 0.6290(2) 0.86652(13)
H2A H 1.0865 0.5965 0.8155
O4A O 0.93964(11) 0.4663(2) 0.80199(14)
C1A C 1.14694(13) 0.3958(3) 0.95423(15)
C2A C 1.05138(12) 0.8634(3) 0.81557(15)
C3A C 1.17076(13) 0.5268(3) 0.92465(15)
C9A C 1.02641(16) 0.3000(3) 0.96089(18)
C10A C 1.11003(12) 0.7741(3) 0.88805(16)
C13A C 1.24604(14) 0.5567(3) 0.95011(18)
H6A H 1.2610 0.6425 0.9287
C14A C 1.05249(14) 1.0201(3) 0.81855(17)
H7A H 1.0881 1.0707 0.8661
C16A C 0.94960(16) 0.3123(3) 0.92172(19)
H9A H 0.9222 0.2580 0.9473
C20A C 1.20152(15) 0.2960(3) 1.00782(18)
H15A H 1.1873 0.2055 1.0255
C21A C 0.90862(15) 0.4001(3) 0.84595(19)
C23A C 1.27624(16) 0.3304(3) 1.03476(19)
H17A H 1.3118 0.2644 1.0724
C26A C 1.29943(15) 0.4607(3) 1.00705(19)
H20A H 1.3501 0.4835 1.0263
C29A C 0.82573(16) 0.4160(4) 0.8198(2)
H25A H 0.8051 0.4775 0.7675
H26A H 0.8163 0.4629 0.8672
H27A H 0.8028 0.3180 0.8079
C30A C 1.06273(18) 0.2085(4) 1.0446(2)
H28A H 1.1161 0.2123 1.0633
H29A H 1.0462 0.1055 1.0334
H30A H 1.0490 0.2495 1.0903
loop_
_geom_bond_atom_site_label_1
_geom_bond_atom_site_label_2
_geom_bond_site_symmetry_1
_geom_bond_site_symmetry_2
O1 C8 1_555 1_555
O2 C10 1_555 1_555
N1 H1 1_555 1_555
N2 C2 1_555 1_555
N3 H2 1_555 1_555
O3 C12 1_555 1_555
N4 C7 1_555 1_555
N5 H3 1_555 1_555
N6 H4 1_555 1_555
O4 C21 1_555 1_555
C1 N1 1_555 1_555
C2 C10 1_555 1_555
C3 N3 1_555 1_555
C4 N6 1_555 1_555
C5 N6 1_555 1_555
C6 N5 1_555 1_555
C7 C12 1_555 1_555
C8 C15 1_555 1_555
C9 N1 1_555 1_555
C10 N3 1_555 1_555
C11 C6 1_555 1_555
H5 C11 1_555 1_555
C12 N5 1_555 1_555
C13 C3 1_555 1_555
H6 C13 1_555 1_555
C14 C2 1_555 1_555
H7 C14 1_555 1_555
C15 C4 1_555 1_555
H8 C15 1_555 1_555
C16 C9 1_555 1_555
H9 C16 1_555 1_555
C17 C4 1_555 1_555
H10 C17 1_555 1_555
H11 C17 1_555 1_555
H12 C17 1_555 1_555
C18 C7 1_555 1_555
H13 C18 1_555 1_555
C19 C14 1_555 1_555
H14 C19 1_555 1_555
C20 C1 1_555 1_555
H15 C20 1_555 1_555
C21 C16 1_555 1_555
C22 C11 1_555 1_555
H16 C22 1_555 1_555
C23 C20 1_555 1_555
H17 C23 1_555 1_555
C24 C5 1_555 1_555
H18 C24 1_555 1_555
C25 C18 1_555 1_555
H19 C25 1_555 1_555
C26 C13 1_555 1_555
H20 C26 1_555 1_555
C27 C8 1_555 1_555
H21 C27 1_555 1_555
H22 C27 1_555 1_555
H23 C27 1_555 1_555
C28 C22 1_555 1_555
H24 C28 1_555 1_555
C29 C21 1_555 1_555
H25 C29 1_555 1_555
H26 C29 1_555 1_555
H27 C29 1_555 1_555
C30 C9 1_555 1_555
H28 C30 1_555 1_555
H29 C30 1_555 1_555
H30 C30 1_555 1_555
O1A C8A 1_555 1_555
O2A C10A 1_555 1_555
N1A H1A 1_555 1_555
N3A H2A 1_555 1_555
O3A C12A 1_555 1_555
N5A H3A 1_555 1_555
N6A H4A 1_555 1_555
O4A C21A 1_555 1_555
C1A N1A 1_555 1_555
C2A N2 1_555 1_555
C3A N3A 1_555 1_555
C4A N6A 1_555 1_555
C5A N6A 1_555 1_555
C6A N5A 1_555 1_555
C7A N4 1_555 1_555
C8A C15A 1_555 1_555
C9A N1A 1_555 1_555
C10A N3A 1_555 1_555
C11A C6A 1_555 1_555
H5A C11A 1_555 1_555
C12A N5A 1_555 1_555
C13A C3A 1_555 1_555
H6A C13A 1_555 1_555
C14A C19 1_555 1_555
H7A C14A 1_555 1_555
C15A C4A 1_555 1_555
H8A C15A 1_555 1_555
C16A C9A 1_555 1_555
H9A C16A 1_555 1_555
C17A C4A 1_555 1_555
H10A C17A 1_555 1_555
H11A C17A 1_555 1_555
H12A C17A 1_555 1_555
C18A C25 1_555 1_555
H13A C18A 1_555 1_555
C20A C1A 1_555 1_555
H15A C20A 1_555 1_555
C21A C16A 1_555 1_555
C22A C11A 1_555 1_555
H16A C22A 1_555 1_555
C23A C20A 1_555 1_555
H17A C23A 1_555 1_555
C24A C5A 1_555 1_555
H18A C24A 1_555 1_555
C26A C13A 1_555 1_555
H20A C26A 1_555 1_555
C27A C8A 1_555 1_555
H21A C27A 1_555 1_555
H22A C27A 1_555 1_555
H23A C27A 1_555 1_555
C28A C22A 1_555 1_555
H24A C28A 1_555 1_555
C29A C21A 1_555 1_555
H25A C29A 1_555 1_555
H26A C29A 1_555 1_555
H27A C29A 1_555 1_555
C30A C9A 1_555 1_555
H28A C30A 1_555 1_555
H29A C30A 1_555 1_555
H30A C30A 1_555 1_555
C1 C3 1_555 1_555
C5 C6 1_555 1_555
C23 C26 1_555 1_555
C24 C28 1_555 1_555
C1A C3A 1_555 1_555
C2A C10A 1_555 1_555
C2A C14A 1_555 1_555
C5A C6A 1_555 1_555
C7A C12A 1_555 1_555
C7A C18A 1_555 1_555
C23A C26A 1_555 1_555
C24A C28A 1_555 1_555

#END
