
#######################################################################
#
#                 Cambridge Crystallographic Data Centre
#                                CCDC 
#
#######################################################################
#
# If this CIF has been generated from an entry in the Cambridge 
# Structural Database, then it will include bibliographic, chemical, 
# crystal, experimental, refinement or atomic coordinate data resulting 
# from the CCDC's data processing and validation procedures.
#
#######################################################################

data_POJNEJ
_chemical_formula_moiety         'C25 H17 O2 P1'
_chemical_name_systematic        
'8-Phenyl-5,8-dihydrobenzo[c]phosphindolo[3,2-g]chromene 8-oxide'
_symmetry_cell_setting           monoclinic
_symmetry_space_group_name_H-M   'P 21/c'
_symmetry_Int_Tables_number      14
_space_group_name_Hall           '-P 2ybc'
loop_
_symmetry_equiv_pos_site_id
_symmetry_equiv_pos_as_xyz
1 x,y,z
2 -x,1/2+y,1/2-z
3 -x,-y,-z
4 x,1/2-y,1/2+z
_cell_length_a                   9.9322(13)
_cell_length_b                   17.755(2)
_cell_length_c                   11.6816(15)
_cell_angle_alpha                90
_cell_angle_beta                 112.870(2)
_cell_angle_gamma                90
_cell_volume                     1898.07
_exptl_crystal_colour            colorless
_exptl_crystal_description       block
_cell_formula_units_Z            4
loop_
_atom_site_label
_atom_site_type_symbol
_atom_site_fract_x
_atom_site_fract_y
_atom_site_fract_z
O1 O 0.85447(17) -0.15935(8) 0.09550(15)
C1 C 0.8527(2) 0.25550(11) -0.0835(2)
H1 H 0.9456 0.2367 -0.0677
C2 C 0.8088(3) 0.32294(13) -0.1467(2)
H2 H 0.8731 0.3497 -0.1718
P1 P 0.90214(6) -0.09492(3) 0.18229(5)
C3 C 0.9380(2) 0.11388(11) 0.07569(18)
H3 H 1.0165 0.1436 0.0788
O2 O 0.53788(16) 0.12171(9) -0.02986(17)
C4 C 0.7954(2) 0.14227(11) 0.02051(18)
C5 C 1.2443(2) 0.03094(13) 0.2102(2)
H4 H 1.2558 0.0782 0.1810
C6 C 0.7033(2) 0.02467(12) 0.0680(2)
H5 H 0.6252 -0.0053 0.0651
C7 C 0.8120(3) -0.17878(14) 0.3370(2)
H6 H 0.8149 -0.2191 0.2872
C8 C 0.8439(3) -0.04788(14) 0.3866(2)
H7 H 0.8695 0.0003 0.3711
C9 C 1.3515(3) -0.08321(14) 0.3197(2)
H8 H 1.4344 -0.1114 0.3639
C10 C 0.6706(3) 0.35044(14) -0.1726(3)
H9 H 0.6416 0.3957 -0.2152
C11 C 0.6182(2) 0.24416(12) -0.0698(2)
C12 C 0.9631(2) 0.04213(11) 0.12545(17)
C13 C 0.8502(2) -0.10743(11) 0.3125(2)
C14 C 0.8443(2) -0.00257(11) 0.11912(18)
C15 C 0.7582(2) 0.21585(11) -0.04348(19)
C16 C 1.0924(2) -0.06894(11) 0.23314(18)
C17 C 0.6798(2) 0.09709(12) 0.0212(2)
C18 C 1.1058(2) 0.00332(11) 0.18973(18)
C19 C 1.3651(2) -0.01340(15) 0.2751(2)
H10 H 1.4579 0.0048 0.2888
C20 C 0.5211(3) 0.20156(13) -0.0219(3)
H11 H 0.5444 0.2154 0.0640
H12 H 0.4202 0.2153 -0.0696
C21 C 1.2145(2) -0.11168(13) 0.2990(2)
H13 H 1.2045 -0.1590 0.3289
C22 C 0.5753(3) 0.31106(13) -0.1355(2)
H14 H 0.4814 0.3294 -0.1546
C23 C 0.7694(3) -0.19028(19) 0.4358(3)
H15 H 0.7439 -0.2383 0.4523
C24 C 0.7651(3) -0.1308(2) 0.5085(3)
H16 H 0.7386 -0.1387 0.5756
C25 C 0.7993(3) -0.06004(19) 0.4838(3)
H17 H 0.7928 -0.0198 0.5323
loop_
_geom_bond_atom_site_label_1
_geom_bond_atom_site_label_2
_geom_bond_site_symmetry_1
_geom_bond_site_symmetry_2
O1 P1 1_555 1_555
C1 H1 1_555 1_555
C2 C1 1_555 1_555
H2 C2 1_555 1_555
P1 C13 1_555 1_555
C3 H3 1_555 1_555
O2 C17 1_555 1_555
C4 C3 1_555 1_555
C5 H4 1_555 1_555
C6 H5 1_555 1_555
C7 H6 1_555 1_555
C8 H7 1_555 1_555
C9 H8 1_555 1_555
C10 C2 1_555 1_555
H9 C10 1_555 1_555
C11 C15 1_555 1_555
C12 C3 1_555 1_555
C13 C7 1_555 1_555
C14 P1 1_555 1_555
C15 C1 1_555 1_555
C16 P1 1_555 1_555
C17 C4 1_555 1_555
C18 C5 1_555 1_555
C19 C5 1_555 1_555
H10 C19 1_555 1_555
C20 O2 1_555 1_555
H11 C20 1_555 1_555
H12 C20 1_555 1_555
C21 C9 1_555 1_555
H13 C21 1_555 1_555
C22 C10 1_555 1_555
H14 C22 1_555 1_555
C23 C7 1_555 1_555
H15 C23 1_555 1_555
C24 C23 1_555 1_555
H16 C24 1_555 1_555
C25 C8 1_555 1_555
H17 C25 1_555 1_555
C4 C15 1_555 1_555
C6 C14 1_555 1_555
C6 C17 1_555 1_555
C8 C13 1_555 1_555
C9 C19 1_555 1_555
C11 C20 1_555 1_555
C11 C22 1_555 1_555
C12 C14 1_555 1_555
C12 C18 1_555 1_555
C16 C18 1_555 1_555
C16 C21 1_555 1_555
C24 C25 1_555 1_555

#END
