
#######################################################################
#
#                 Cambridge Crystallographic Data Centre
#                                CCDC 
#
#######################################################################
#
# If this CIF has been generated from an entry in the Cambridge 
# Structural Database, then it will include bibliographic, chemical, 
# crystal, experimental, refinement or atomic coordinate data resulting 
# from the CCDC's data processing and validation procedures.
#
#######################################################################

data_POKBUO
_chemical_formula_moiety         'C26 H31 O3 P1'
_chemical_name_systematic        
'2-Isopropyl-5-methylcyclohexyl (2-hydroxy-1-naphthyl)phenylphosphinate'
_symmetry_cell_setting           monoclinic
_symmetry_space_group_name_H-M   'P 21'
_symmetry_Int_Tables_number      4
_space_group_name_Hall           'P 2yb'
loop_
_symmetry_equiv_pos_site_id
_symmetry_equiv_pos_as_xyz
1 x,y,z
2 -x,1/2+y,-z
_cell_length_a                   8.7050(6)
_cell_length_b                   16.1758(12)
_cell_length_c                   8.9250(11)
_cell_angle_alpha                90
_cell_angle_beta                 115.013(2)
_cell_angle_gamma                90
_cell_volume                     1138.87
_exptl_crystal_colour            colorless
_exptl_crystal_description       needle
_cell_formula_units_Z            2
loop_
_atom_site_label
_atom_site_type_symbol
_atom_site_fract_x
_atom_site_fract_y
_atom_site_fract_z
P1 P 0.86262(11) 0.36132(5) 0.28067(11)
O1 O 0.6948(3) 0.3546(2) 0.1372(3)
O2 O 0.9783(4) 0.43384(15) 0.2716(4)
C1 C 0.9895(5) 0.2735(2) 0.2915(5)
C2 C 0.6692(4) 0.3627(3) 0.4563(5)
C3 C 0.8298(4) 0.3714(2) 0.4651(4)
C4 C 0.9309(6) 0.3928(2) 0.7669(5)
O3 O 0.5302(3) 0.3484(3) 0.3145(4)
H1 H 0.5578 0.3448 0.2376
C5 C 0.9468(6) 0.5227(2) 0.2863(6)
H2 H 0.9557 0.5336 0.3977
C6 C 0.9100(7) 0.1971(3) 0.2598(7)
H3 H 0.7948 0.1940 0.2337
C7 C 0.9672(5) 0.3862(2) 0.6262(5)
C8 C 1.0874(6) 0.5696(3) 0.2624(6)
H4 H 1.0721 0.5586 0.1490
C9 C 1.1377(5) 0.3942(2) 0.6519(5)
H5 H 1.1650 0.3904 0.5620
C10 C 0.7711(6) 0.5467(3) 0.1606(6)
H6 H 0.6870 0.5173 0.1846
H7 H 0.7577 0.5304 0.0512
C11 C 0.6372(5) 0.3674(4) 0.5977(6)
H8 H 0.5272 0.3603 0.5875
C12 C 1.2493(6) 0.2031(3) 0.3362(7)
H9 H 1.3649 0.2054 0.3638
C13 C 1.0653(7) 0.4061(3) 0.9239(6)
H10 H 1.0420 0.4097 1.0162
C14 C 1.2651(6) 0.4075(3) 0.8075(6)
H11 H 1.3769 0.4123 0.8216
C15 C 0.7406(6) 0.6391(3) 0.1622(7)
H12 H 0.7410 0.6531 0.2692
C16 C 0.7629(6) 0.3820(3) 0.7473(6)
H13 H 0.7388 0.3850 0.8393
C17 C 1.2272(7) 0.4137(3) 0.9429(6)
H14 H 1.3134 0.4232 1.0474
C18 C 1.1599(5) 0.2747(3) 0.3263(5)
H15 H 1.2158 0.3253 0.3436
C19 C 1.3281(6) 0.5721(4) 0.5547(6)
H16 H 1.4377 0.5489 0.6207
H17 H 1.2488 0.5539 0.5966
H18 H 1.3353 0.6313 0.5591
C20 C 1.0535(7) 0.6625(3) 0.2716(7)
H19 H 1.0624 0.6755 0.3811
H20 H 1.1391 0.6942 0.2542
C21 C 0.9988(7) 0.1256(3) 0.2663(7)
H21 H 0.9430 0.0750 0.2439
C22 C 1.1677(7) 0.1287(3) 0.3053(7)
H22 H 1.2274 0.0802 0.3110
C23 C 1.3957(8) 0.5720(4) 0.3102(8)
H23 H 1.4029 0.6313 0.3143
H24 H 1.3590 0.5538 0.1980
H25 H 1.5051 0.5489 0.3769
C24 C 0.5681(8) 0.6625(4) 0.0275(8)
H26 H 0.5685 0.6547 -0.0789
H27 H 0.5447 0.7194 0.0403
H28 H 0.4823 0.6282 0.0363
C25 C 0.8818(7) 0.6872(3) 0.1454(7)
H29 H 0.8763 0.6782 0.0358
H30 H 0.8651 0.7457 0.1569
C26 C 1.2688(6) 0.5435(3) 0.3761(6)
H31 H 1.2710 0.4829 0.3776
loop_
_geom_bond_atom_site_label_1
_geom_bond_atom_site_label_2
_geom_bond_site_symmetry_1
_geom_bond_site_symmetry_2
P1 O1 1_555 1_555
O2 P1 1_555 1_555
C1 P1 1_555 1_555
C2 C3 1_555 1_555
C3 P1 1_555 1_555
C4 C7 1_555 1_555
O3 C2 1_555 1_555
H1 O3 1_555 1_555
C5 O2 1_555 1_555
H2 C5 1_555 1_555
C6 C1 1_555 1_555
H3 C6 1_555 1_555
C7 C3 1_555 1_555
C8 C5 1_555 1_555
H4 C8 1_555 1_555
C9 C7 1_555 1_555
H5 C9 1_555 1_555
C10 C5 1_555 1_555
H6 C10 1_555 1_555
H7 C10 1_555 1_555
C11 C2 1_555 1_555
H8 C11 1_555 1_555
C12 H9 1_555 1_555
C13 C4 1_555 1_555
H10 C13 1_555 1_555
C14 C9 1_555 1_555
H11 C14 1_555 1_555
C15 C10 1_555 1_555
H12 C15 1_555 1_555
C16 C4 1_555 1_555
H13 C16 1_555 1_555
C17 C13 1_555 1_555
H14 C17 1_555 1_555
C18 C1 1_555 1_555
H15 C18 1_555 1_555
C19 H16 1_555 1_555
H17 C19 1_555 1_555
H18 C19 1_555 1_555
C20 C8 1_555 1_555
H19 C20 1_555 1_555
H20 C20 1_555 1_555
C21 C6 1_555 1_555
H21 C21 1_555 1_555
C22 C12 1_555 1_555
H22 C22 1_555 1_555
C23 H23 1_555 1_555
H24 C23 1_555 1_555
H25 C23 1_555 1_555
C24 C15 1_555 1_555
H26 C24 1_555 1_555
H27 C24 1_555 1_555
H28 C24 1_555 1_555
C25 C15 1_555 1_555
H29 C25 1_555 1_555
H30 C25 1_555 1_555
C26 C8 1_555 1_555
H31 C26 1_555 1_555
C11 C16 1_555 1_555
C12 C18 1_555 1_555
C14 C17 1_555 1_555
C19 C26 1_555 1_555
C20 C25 1_555 1_555
C21 C22 1_555 1_555
C23 C26 1_555 1_555

#END
