
#######################################################################
#
#                 Cambridge Crystallographic Data Centre
#                                CCDC 
#
#######################################################################
#
# If this CIF has been generated from an entry in the Cambridge 
# Structural Database, then it will include bibliographic, chemical, 
# crystal, experimental, refinement or atomic coordinate data resulting 
# from the CCDC's data processing and validation procedures.
#
#######################################################################

data_POKQOX
_chemical_formula_moiety         'C14 H22 O4'
_chemical_name_systematic        
5,6,7-Trihydroxy-2,2,6-trimethyltricyclo[5.3.1.0^1,5^]undecan-8-one
_symmetry_cell_setting           orthorhombic
_symmetry_space_group_name_H-M   'P 21 21 21'
_symmetry_Int_Tables_number      19
_space_group_name_Hall           'P 2ac 2ab'
loop_
_symmetry_equiv_pos_site_id
_symmetry_equiv_pos_as_xyz
1 x,y,z
2 1/2+x,1/2-y,-z
3 -x,1/2+y,1/2-z
4 1/2-x,-y,1/2+z
_cell_length_a                   6.7289(1)
_cell_length_b                   12.3792(3)
_cell_length_c                   15.9416(3)
_cell_angle_alpha                90
_cell_angle_beta                 90
_cell_angle_gamma                90
_cell_volume                     1327.91
_exptl_crystal_colour            colorless
_exptl_crystal_description       'Thin rod'
_cell_formula_units_Z            4
loop_
_atom_site_label
_atom_site_type_symbol
_atom_site_fract_x
_atom_site_fract_y
_atom_site_fract_z
C1 C 0.4944(4) 0.75660(15) 0.36397(12)
H1 H 0.6089 0.7274 0.3932
H2 H 0.3880 0.7038 0.3659
C2 C 0.5473(4) 0.78310(16) 0.27365(13)
H3 H 0.5253 0.7211 0.2376
H4 H 0.6854 0.8048 0.2692
C3 C 0.4091(3) 0.87632(16) 0.24940(12)
C4 C 0.4150(3) 0.94614(13) 0.33037(11)
C5 C 0.2441(3) 1.02654(14) 0.34013(14)
H5 H 0.1194 0.9873 0.3396
H6 H 0.2442 1.0752 0.2924
C6 C 0.2565(3) 1.09328(17) 0.42081(15)
H7 H 0.1924 1.1623 0.4110
H8 H 0.1817 1.0563 0.4642
C7 C 0.4614(3) 1.11378(16) 0.45281(14)
C8 C 0.6203(3) 1.02975(15) 0.43302(13)
C9 C 0.5774(3) 0.91530(15) 0.46969(11)
C10 C 0.4271(3) 0.86375(14) 0.40506(11)
C11 C 0.6120(3) 1.00862(14) 0.33927(13)
H9 H 0.7241 0.9654 0.3209
H10 H 0.6092 1.0756 0.3077
C12 C 0.1990(4) 0.8335(2) 0.23162(16)
H11 H 0.1460 0.8011 0.2815
H12 H 0.2048 0.7805 0.1878
H13 H 0.1150 0.8921 0.2144
C13 C 0.4839(5) 0.9361(2) 0.17158(14)
H14 H 0.4042 0.9993 0.1624
H15 H 0.4747 0.8894 0.1236
H16 H 0.6199 0.9571 0.1798
C14 C 0.5082(4) 0.9161(2) 0.56049(12)
H17 H 0.6052 0.9523 0.5945
H18 H 0.4924 0.8431 0.5798
H19 H 0.3834 0.9533 0.5645
O1 O 0.5063(3) 1.19415(14) 0.49148(13)
O2 O 0.8076(2) 1.06662(12) 0.46072(12)
H20 H 0.7952 1.1262 0.4825
O3 O 0.7605(2) 0.85586(11) 0.46502(10)
H21 H 0.8538 0.8963 0.4754
O4 O 0.2360(2) 0.85069(11) 0.44239(9)
H22 H 0.2351 0.7956 0.4710
loop_
_geom_bond_atom_site_label_1
_geom_bond_atom_site_label_2
_geom_bond_site_symmetry_1
_geom_bond_site_symmetry_2
C1 H1 1_555 1_555
H2 C1 1_555 1_555
C2 C1 1_555 1_555
H3 C2 1_555 1_555
H4 C2 1_555 1_555
C3 C2 1_555 1_555
C4 C3 1_555 1_555
C5 C4 1_555 1_555
H5 C5 1_555 1_555
H6 C5 1_555 1_555
C6 C5 1_555 1_555
H7 C6 1_555 1_555
H8 C6 1_555 1_555
C7 C6 1_555 1_555
C8 C7 1_555 1_555
C9 C8 1_555 1_555
C10 C1 1_555 1_555
C11 C4 1_555 1_555
H9 C11 1_555 1_555
H10 C11 1_555 1_555
C12 C3 1_555 1_555
H11 C12 1_555 1_555
H12 C12 1_555 1_555
H13 C12 1_555 1_555
C13 C3 1_555 1_555
H14 C13 1_555 1_555
H15 C13 1_555 1_555
H16 C13 1_555 1_555
C14 C9 1_555 1_555
H17 C14 1_555 1_555
H18 C14 1_555 1_555
H19 C14 1_555 1_555
O1 C7 1_555 1_555
O2 C8 1_555 1_555
H20 O2 1_555 1_555
O3 C9 1_555 1_555
H21 O3 1_555 1_555
O4 C10 1_555 1_555
H22 O4 1_555 1_555
C4 C10 1_555 1_555
C8 C11 1_555 1_555
C9 C10 1_555 1_555

#END
