
#######################################################################
#
#                 Cambridge Crystallographic Data Centre
#                                CCDC 
#
#######################################################################
#
# If this CIF has been generated from an entry in the Cambridge 
# Structural Database, then it will include bibliographic, chemical, 
# crystal, experimental, refinement or atomic coordinate data resulting 
# from the CCDC's data processing and validation procedures.
#
#######################################################################

data_POKRUE
_chemical_formula_moiety         'C15 H26 O2'
_chemical_name_systematic        
4,8,11,11-tetramethylbicyclo[8.1.0]undec-8-ene-4,5-diol
_symmetry_cell_setting           orthorhombic
_symmetry_space_group_name_H-M   'P 21 21 21'
_symmetry_Int_Tables_number      19
_space_group_name_Hall           'P 2ac 2ab'
loop_
_symmetry_equiv_pos_site_id
_symmetry_equiv_pos_as_xyz
1 x,y,z
2 1/2-x,-y,1/2+z
3 -x,1/2+y,1/2-z
4 1/2+x,1/2-y,-z
_cell_length_a                   6.0571(4)
_cell_length_b                   8.2736(6)
_cell_length_c                   29.211(2)
_cell_angle_alpha                90
_cell_angle_beta                 90
_cell_angle_gamma                90
_cell_volume                     1463.88
_exptl_crystal_colour            colorless
_exptl_crystal_description       prismatic
_cell_formula_units_Z            4
loop_
_atom_site_label
_atom_site_type_symbol
_atom_site_fract_x
_atom_site_fract_y
_atom_site_fract_z
O1 O 0.6248(3) 0.4531(2) 0.29415(6)
H1 H 0.594(6) 0.518(4) 0.2717(11)
O2 O 0.4707(3) 0.1664(2) 0.27614(6)
H2 H 0.580(7) 0.242(5) 0.2725(11)
C1 C 0.2118(4) 0.0197(3) 0.44704(8)
C2 C 0.1049(4) 0.1795(3) 0.43620(7)
H3 H -0.0404 0.1965 0.4501
C3 C 0.1148(4) 0.0448(3) 0.39993(8)
H4 H -0.0254 -0.0111 0.3945
C4 C 0.4588(5) 0.0076(4) 0.45344(9)
H5 H 0.4957 0.0332 0.4846
H6 H 0.5312 0.0823 0.4332
H7 H 0.5064 -0.1004 0.4466
C5 C 0.0842(5) -0.0921(4) 0.47870(9)
H8 H 0.1323 -0.2014 0.4741
H9 H -0.0707 -0.0841 0.4721
H10 H 0.1103 -0.0614 0.5099
C6 C 0.2292(4) 0.3293(3) 0.42526(7)
H11 H 0.3799 0.3295 0.4313
C7 C 0.1430(4) 0.4631(3) 0.40749(7)
C8 C 0.2853(4) 0.5889(3) 0.38505(8)
H12 H 0.4333 0.5840 0.3977
H13 H 0.2258 0.6956 0.3912
C9 C 0.2946(4) 0.5606(3) 0.33274(8)
H14 H 0.1452 0.5497 0.3212
H15 H 0.3600 0.6547 0.3183
C10 C 0.4278(3) 0.4097(2) 0.31913(7)
H16 H 0.4770 0.3592 0.3477
C11 C 0.3025(4) 0.2778(3) 0.29195(7)
C12 C 0.1444(4) 0.1805(3) 0.32215(7)
H17 H 0.0522 0.1144 0.3025
H18 H 0.0484 0.2556 0.3381
C13 C 0.2544(4) 0.0702(3) 0.35776(7)
H19 H 0.2846 -0.0339 0.3438
H20 H 0.3945 0.1172 0.3668
C14 C -0.1022(4) 0.4894(4) 0.40204(10)
H21 H -0.1375 0.4989 0.3701
H22 H -0.1445 0.5867 0.4177
H23 H -0.1806 0.3993 0.4149
C15 C 0.1820(4) 0.3451(3) 0.25020(8)
H24 H 0.2787 0.4161 0.2337
H25 H 0.0539 0.4040 0.2600
H26 H 0.1376 0.2576 0.2307
loop_
_geom_bond_atom_site_label_1
_geom_bond_atom_site_label_2
_geom_bond_site_symmetry_1
_geom_bond_site_symmetry_2
O1 H1 1_555 1_555
O2 H2 1_555 1_555
C1 C2 1_555 1_555
C2 H3 1_555 1_555
C3 C1 1_555 1_555
H4 C3 1_555 1_555
C4 C1 1_555 1_555
H5 C4 1_555 1_555
H6 C4 1_555 1_555
H7 C4 1_555 1_555
C5 C1 1_555 1_555
H8 C5 1_555 1_555
H9 C5 1_555 1_555
H10 C5 1_555 1_555
C6 C2 1_555 1_555
H11 C6 1_555 1_555
C7 C6 1_555 1_555
C8 C7 1_555 1_555
H12 C8 1_555 1_555
H13 C8 1_555 1_555
C9 C8 1_555 1_555
H14 C9 1_555 1_555
H15 C9 1_555 1_555
C10 O1 1_555 1_555
H16 C10 1_555 1_555
C11 O2 1_555 1_555
C12 C11 1_555 1_555
H17 C12 1_555 1_555
H18 C12 1_555 1_555
C13 C3 1_555 1_555
H19 C13 1_555 1_555
H20 C13 1_555 1_555
C14 C7 1_555 1_555
H21 C14 1_555 1_555
H22 C14 1_555 1_555
H23 C14 1_555 1_555
C15 C11 1_555 1_555
H24 C15 1_555 1_555
H25 C15 1_555 1_555
H26 C15 1_555 1_555
C2 C3 1_555 1_555
C9 C10 1_555 1_555
C10 C11 1_555 1_555
C12 C13 1_555 1_555

#END
