
#######################################################################
#
#                 Cambridge Crystallographic Data Centre
#                                CCDC 
#
#######################################################################
#
# If this CIF has been generated from an entry in the Cambridge 
# Structural Database, then it will include bibliographic, chemical, 
# crystal, experimental, refinement or atomic coordinate data resulting 
# from the CCDC's data processing and validation procedures.
#
#######################################################################

data_POMKEH
_chemical_formula_moiety         'C18 H49 B4 N4 Na1 Si1'
_chemical_name_systematic        
nido-exo-2-Trimethylsilyl-3-methyl-2,3-dicarboborane(5)-bis(tetramethylethylenediamine)-sodium
_symmetry_cell_setting           monoclinic
_symmetry_space_group_name_H-M   'P 21/n'
_symmetry_Int_Tables_number      14
_space_group_name_Hall           '-P 2yn'
loop_
_symmetry_equiv_pos_site_id
_symmetry_equiv_pos_as_xyz
1 x,y,z
2 1/2-x,1/2+y,1/2-z
3 -x,-y,-z
4 1/2+x,1/2-y,1/2+z
_cell_length_a                   14.569
_cell_length_b                   13.593
_cell_length_c                   14.593
_cell_angle_alpha                90
_cell_angle_beta                 94.11
_cell_angle_gamma                90
_cell_volume                     2882.51
_exptl_crystal_colour            colorless
_cell_formula_units_Z            4
_chemical_properties_physical    Air-sensitive
loop_
_atom_site_label
_atom_site_type_symbol
_atom_site_fract_x
_atom_site_fract_y
_atom_site_fract_z
Na1 Na 0.5925(1) 0.5890(1) 0.7531(1)
Si1 Si 0.3767(1) 0.1380(1) 0.7872(1)
B1 B 0.4997(4) 0.3041(5) 0.7060(4)
C1 C 0.4382(3) 0.2573(3) 0.7899(3)
C2 C 0.4026(3) 0.3490(3) 0.7509(3)
B2 B 0.4744(5) 0.4271(4) 0.7397(5)
B3 B 0.5720(5) 0.3807(5) 0.7756(5)
B4 B 0.5415(5) 0.2637(5) 0.8138(4)
C3 C 0.3062(4) 0.3546(4) 0.7088(4)
C4 C 0.4453(5) 0.0459(5) 0.8530(6)
C5 C 0.2674(4) 0.1491(4) 0.8441(4)
C6 C 0.3514(5) 0.0892(5) 0.6708(5)
N1 N 0.5691(3) 0.7278(4) 0.6371(4)
N2 N 0.6880(4) 0.5510(4) 0.6153(3)
C7 C 0.6125(6) 0.6992(6) 0.5536(5)
C8 C 0.6978(5) 0.6448(6) 0.5709(5)
C9 C 0.4739(5) 0.7484(6) 0.6127(5)
C10 C 0.6112(5) 0.8140(5) 0.6793(5)
C11 C 0.7786(5) 0.5105(5) 0.6388(5)
C12 C 0.6362(4) 0.4808(5) 0.5576(4)
N3 N 0.7092(3) 0.6205(3) 0.8894(3)
N4 N 0.5053(4) 0.6726(4) 0.8852(3)
C13 C 0.6560(6) 0.6461(7) 0.9642(5)
C14 C 0.5725(7) 0.6601(10) 0.9577(5)
C15 C 0.7737(5) 0.6966(6) 0.8752(5)
C16 C 0.7565(5) 0.5313(5) 0.9129(5)
C17 C 0.4694(6) 0.7678(5) 0.8869(6)
C18 C 0.4310(6) 0.6089(5) 0.8970(5)
H1 H 0.5045(34) 0.2740(37) 0.6427(35)
H2 H 0.4552(35) 0.4862(37) 0.6934(35)
H3 H 0.6405(37) 0.4012(35) 0.7714(32)
H4 H 0.5852(35) 0.2050(39) 0.8358(33)
H5 H 0.5567(34) 0.3464(38) 0.8467(37)
H6 H 0.2668 0.3842 0.7510
H7 H 0.3045 0.3929 0.6535
H8 H 0.2853 0.2891 0.6946
H9 H 0.5036 0.0365 0.8275
H10 H 0.4552 0.0700 0.9147
H11 H 0.4130 -0.0156 0.8532
H12 H 0.2791 0.1740 0.9054
H13 H 0.2279 0.1937 0.8090
H14 H 0.2381 0.0860 0.8464
H15 H 0.4076 0.0821 0.6410
H16 H 0.3217 0.0265 0.6740
H17 H 0.3115 0.1342 0.6366
H18 H 0.6239 0.7589 0.5187
H19 H 0.5690 0.6583 0.5160
H20 H 0.7245 0.6330 0.5122
H21 H 0.7411 0.6856 0.6087
H22 H 0.4690 0.8010 0.5688
H23 H 0.4431 0.6912 0.5871
H24 H 0.4459 0.7679 0.6673
H25 H 0.6048 0.8692 0.6382
H26 H 0.5823 0.8288 0.7347
H27 H 0.6753 0.8007 0.6937
H28 H 0.8100 0.4974 0.5846
H29 H 0.8131 0.5573 0.6765
H30 H 0.7725 0.4505 0.6725
H31 H 0.6710 0.4657 0.5060
H32 H 0.6280 0.4221 0.5926
H33 H 0.5771 0.5065 0.5362
H34 H 0.6845 0.7056 0.9913
H35 H 0.6677 0.5936 1.0096
H36 H 0.5485 0.6064 0.9938
H37 H 0.5657 0.7196 0.9945
H38 H 0.8143 0.7032 0.9296
H39 H 0.8087 0.6789 0.8244
H40 H 0.7428 0.7579 0.8622
H41 H 0.8004 0.5429 0.9640
H42 H 0.7145 0.4807 0.9284
H43 H 0.7882 0.5110 0.8606
H44 H 0.4414 0.7780 0.9436
H45 H 0.5180 0.8148 0.8818
H46 H 0.4241 0.7761 0.8364
H47 H 0.3939 0.6324 0.9441
H48 H 0.3944 0.6061 0.8396
H49 H 0.4537 0.5444 0.9128
loop_
_geom_bond_atom_site_label_1
_geom_bond_atom_site_label_2
_geom_bond_site_symmetry_1
_geom_bond_site_symmetry_2
Na1 N1 1_555 1_555
Si1 C1 1_555 1_555
B1 C1 1_555 1_555
C1 C2 1_555 1_555
C2 B1 1_555 1_555
B2 B1 1_555 1_555
B3 B1 1_555 1_555
B4 B1 1_555 1_555
C3 C2 1_555 1_555
C4 Si1 1_555 1_555
C5 Si1 1_555 1_555
C6 Si1 1_555 1_555
N1 C7 1_555 1_555
N2 Na1 1_555 1_555
C7 C8 1_555 1_555
C8 N2 1_555 1_555
C9 N1 1_555 1_555
C10 N1 1_555 1_555
C11 N2 1_555 1_555
C12 N2 1_555 1_555
N3 Na1 1_555 1_555
N4 Na1 1_555 1_555
C13 N3 1_555 1_555
C14 N4 1_555 1_555
C15 N3 1_555 1_555
C16 N3 1_555 1_555
C17 N4 1_555 1_555
C18 N4 1_555 1_555
H1 B1 1_555 1_555
H2 Na1 1_555 1_555
H3 Na1 1_555 1_555
H4 B4 1_555 1_555
H5 B3 1_555 1_555
H6 C3 1_555 1_555
H7 C3 1_555 1_555
H8 C3 1_555 1_555
H9 C4 1_555 1_555
H10 C4 1_555 1_555
H11 C4 1_555 1_555
H12 C5 1_555 1_555
H13 C5 1_555 1_555
H14 C5 1_555 1_555
H15 C6 1_555 1_555
H16 C6 1_555 1_555
H17 C6 1_555 1_555
H18 C7 1_555 1_555
H19 C7 1_555 1_555
H20 C8 1_555 1_555
H21 C8 1_555 1_555
H22 C9 1_555 1_555
H23 C9 1_555 1_555
H24 C9 1_555 1_555
H25 C10 1_555 1_555
H26 C10 1_555 1_555
H27 C10 1_555 1_555
H28 C11 1_555 1_555
H29 C11 1_555 1_555
H30 C11 1_555 1_555
H31 C12 1_555 1_555
H32 C12 1_555 1_555
H33 C12 1_555 1_555
H34 C13 1_555 1_555
H35 C13 1_555 1_555
H36 C14 1_555 1_555
H37 C14 1_555 1_555
H38 C15 1_555 1_555
H39 C15 1_555 1_555
H40 C15 1_555 1_555
H41 C16 1_555 1_555
H42 C16 1_555 1_555
H43 C16 1_555 1_555
H44 C17 1_555 1_555
H45 C17 1_555 1_555
H46 C17 1_555 1_555
H47 C18 1_555 1_555
H48 C18 1_555 1_555
H49 C18 1_555 1_555
C1 B4 1_555 1_555
C2 B2 1_555 1_555
B2 H2 1_555 1_555
B2 B3 1_555 1_555
B3 B4 1_555 1_555
B3 H3 1_555 1_555
B4 H5 1_555 1_555
C13 C14 1_555 1_555

#END
