
#######################################################################
#
#                 Cambridge Crystallographic Data Centre
#                                CCDC 
#
#######################################################################
#
# If this CIF has been generated from an entry in the Cambridge 
# Structural Database, then it will include bibliographic, chemical, 
# crystal, experimental, refinement or atomic coordinate data resulting 
# from the CCDC's data processing and validation procedures.
#
#######################################################################

data_POMTUH
_chemical_formula_moiety         'C11 H11 F6 N1,C4 H6 O5'
_chemical_name_systematic        
'(S)-1-(3,5-bis(Trifluoromethyl)phenyl)-N-methylethylamine (R)-2-hydroxybutanedioic acid'
_symmetry_cell_setting           monoclinic
_symmetry_space_group_name_H-M   'P 21'
_symmetry_Int_Tables_number      4
_space_group_name_Hall           'P 2yb'
loop_
_symmetry_equiv_pos_site_id
_symmetry_equiv_pos_as_xyz
1 x,y,z
2 -x,1/2+y,-z
_cell_length_a                   6.6770(13)
_cell_length_b                   8.4510(17)
_cell_length_c                   16.366(3)
_cell_angle_alpha                90
_cell_angle_beta                 100.05(3)
_cell_angle_gamma                90
_cell_volume                     909.319
_exptl_crystal_colour            colorless
_exptl_crystal_description       needle
_cell_formula_units_Z            2
_exptl_crystal_recrystallization_method 'ethyl acetate'
loop_
_atom_site_label
_atom_site_type_symbol
_atom_site_fract_x
_atom_site_fract_y
_atom_site_fract_z
F1 F 0.9058(17) 0.4852(16) 0.9973(8)
F2 F 0.9270(13) 0.6270(13) 0.8772(6)
F3 F 1.0892(15) 0.4013(14) 0.9084(6)
F7 F 0.5055(13) -0.0158(14) 0.9651(7)
F8 F 0.3781(15) -0.0926(12) 0.8429(6)
F9 F 0.6975(13) -0.0918(12) 0.8664(6)
N1 N 0.3387(7) 0.3503(6) 0.6045(3)
H1 H 0.2534 0.2888 0.5744
C1 C 0.8859(12) 0.4933(11) 0.9164(5)
C2 C 0.5244(14) -0.0104(14) 0.8816(5)
C3 C 0.5326(11) 0.1454(10) 0.8548(4)
C4 C 0.4157(10) 0.2037(8) 0.7869(4)
H2 H 0.3136 0.1408 0.7574
C5 C 0.4445(9) 0.3611(9) 0.7587(4)
C6 C 0.5931(11) 0.4465(10) 0.8000(4)
H3 H 0.6137 0.5488 0.7821
C7 C 0.7249(13) 0.3856(12) 0.8723(5)
C8 C 0.6962(12) 0.2426(12) 0.8978(5)
H4 H 0.7817 0.2026 0.9441
C9 C 0.3017(8) 0.4239(8) 0.6855(3)
H5 H 0.3274 0.5377 0.6823
C10 C 0.0783(9) 0.4033(9) 0.6903(4)
H6 H 0.0507 0.4508 0.7405
H7 H 0.0461 0.2926 0.6902
H8 H -0.0033 0.4535 0.6433
C11 C 0.5373(9) 0.3961(9) 0.5832(4)
H9 H 0.5542 0.3455 0.5323
H10 H 0.6447 0.3636 0.6269
H11 H 0.5419 0.5088 0.5766
O1 O 0.6777(8) 0.0742(7) 0.6474(4)
O2 O 0.5220(7) -0.1471(5) 0.6689(3)
H12 H 0.4226 -0.0912 0.6526
O3 O 0.8263(6) -0.2740(5) 0.5576(3)
H13 H 0.8825 -0.3437 0.5351
O4 O 1.1965(6) 0.0264(5) 0.6157(3)
O5 O 0.9516(7) 0.0076(6) 0.5086(3)
H14 H 1.0184 0.0743 0.4888
C12 C 0.6858(11) -0.0671(9) 0.6676(4)
C13 C 0.8797(9) -0.1508(8) 0.6891(4)
H15 H 0.8587 -0.2481 0.7179
H16 H 0.9744 -0.0857 0.7265
C14 C 0.9715(8) -0.1898(7) 0.6122(3)
H17 H 1.0894 -0.2588 0.6292
C15 C 1.0461(9) -0.0360(7) 0.5766(4)
F4? F 0.7985(16) 0.6070(16) 0.9651(7)
F5? F 1.000(2) 0.4376(16) 0.9758(7)
F6? F 0.9991(17) 0.5461(16) 0.8769(7)
F10? F 0.5831(15) -0.0443(15) 0.9665(8)
F11? F 0.3083(15) -0.0556(14) 0.8707(6)
F12? F 0.6174(16) -0.1374(14) 0.8609(7)
loop_
_geom_bond_atom_site_label_1
_geom_bond_atom_site_label_2
_geom_bond_site_symmetry_1
_geom_bond_site_symmetry_2
F1 C1 1_555 1_555
F2 C1 1_555 1_555
F3 C1 1_555 1_555
F7 C2 1_555 1_555
F8 C2 1_555 1_555
F9 C2 1_555 1_555
N1 H1 1_555 1_555
C1 C7 1_555 1_555
C2 C3 1_555 1_555
C3 C4 1_555 1_555
C4 H2 1_555 1_555
C5 C4 1_555 1_555
C6 C5 1_555 1_555
H3 C6 1_555 1_555
C7 C6 1_555 1_555
C8 C3 1_555 1_555
H4 C8 1_555 1_555
C9 N1 1_555 1_555
H5 C9 1_555 1_555
C10 C9 1_555 1_555
H6 C10 1_555 1_555
H7 C10 1_555 1_555
H8 C10 1_555 1_555
C11 N1 1_555 1_555
H9 C11 1_555 1_555
H10 C11 1_555 1_555
H11 C11 1_555 1_555
O1 C12 1_555 1_555
O2 H12 1_555 1_555
O3 H13 1_555 1_555
O4 C15 1_555 1_555
O5 H14 1_555 1_555
C12 O2 1_555 1_555
C13 C12 1_555 1_555
H15 C13 1_555 1_555
H16 C13 1_555 1_555
C14 O3 1_555 1_555
H17 C14 1_555 1_555
C15 O5 1_555 1_555
C5 C9 1_555 1_555
C7 C8 1_555 1_555
C13 C14 1_555 1_555
C14 C15 1_555 1_555

#END
