
#######################################################################
#
#                 Cambridge Crystallographic Data Centre
#                                CCDC 
#
#######################################################################
#
# If this CIF has been generated from an entry in the Cambridge 
# Structural Database, then it will include bibliographic, chemical, 
# crystal, experimental, refinement or atomic coordinate data resulting 
# from the CCDC's data processing and validation procedures.
#
#######################################################################

data_POMXIZ
_chemical_formula_moiety         'C21 H21 N1 O3'
_chemical_name_systematic        
(E)-N-(2,3,4-Trimethoxy-6-methylbenzylidene)naphthalen-1-amine
_symmetry_cell_setting           orthorhombic
_symmetry_space_group_name_H-M   'P b c a'
_symmetry_Int_Tables_number      61
_space_group_name_Hall           '-P 2ac 2ab'
loop_
_symmetry_equiv_pos_site_id
_symmetry_equiv_pos_as_xyz
1 x,y,z
2 1/2-x,-y,1/2+z
3 -x,1/2+y,1/2-z
4 1/2+x,1/2-y,-z
5 -x,-y,-z
6 1/2+x,y,1/2-z
7 x,1/2-y,1/2+z
8 1/2-x,1/2+y,z
_cell_length_a                   10.9225(14)
_cell_length_b                   14.7630(16)
_cell_length_c                   22.514(2)
_cell_angle_alpha                90
_cell_angle_beta                 90
_cell_angle_gamma                90
_cell_volume                     3630.36
_exptl_crystal_colour            'light yellow'
_exptl_crystal_description       Plate
_cell_formula_units_Z            8
_exptl_crystal_recrystallization_method ethanol
loop_
_atom_site_label
_atom_site_type_symbol
_atom_site_fract_x
_atom_site_fract_y
_atom_site_fract_z
N1 N 0.1079(2) 0.32182(15) 0.65758(10)
O1 O -0.20286(18) 0.26652(12) 0.57093(9)
O2 O -0.34730(17) 0.11513(12) 0.58640(8)
O3 O -0.29401(19) -0.00497(13) 0.67264(8)
C1 C 0.0044(3) 0.30050(17) 0.63498(12)
H1 H -0.0271 0.3393 0.6063
C2 C -0.0689(2) 0.22122(17) 0.64990(12)
C3 C -0.1715(3) 0.20404(17) 0.61366(11)
C4 C -0.2445(2) 0.12749(19) 0.62117(11)
C5 C -0.2172(3) 0.06808(17) 0.66764(12)
C6 C -0.1196(3) 0.08606(19) 0.70516(12)
H2 H -0.1040 0.0467 0.7365
C7 C -0.0440(3) 0.16116(18) 0.69743(12)
C8 C -0.1737(5) 0.2453(3) 0.51222(15)
H3 H -0.1021 0.2076 0.5114
H4 H -0.1579 0.3001 0.4905
H5 H -0.2409 0.2136 0.4943
C9 C -0.3371(3) 0.0441(2) 0.54325(14)
H6 H -0.2605 0.0495 0.5227
H7 H -0.4032 0.0487 0.5153
H8 H -0.3408 -0.0136 0.5629
C10 C -0.2751(4) -0.0653(2) 0.72126(16)
H9 H -0.1990 -0.0969 0.7160
H10 H -0.3410 -0.1083 0.7229
H11 H -0.2725 -0.0315 0.7576
C11 C 0.0612(3) 0.1741(2) 0.73974(14)
H12 H 0.1370 0.1649 0.7190
H13 H 0.0548 0.1313 0.7717
H14 H 0.0590 0.2345 0.7555
C12 C 0.1640(3) 0.40259(17) 0.63702(12)
C13 C 0.1017(3) 0.48289(18) 0.63178(13)
H15 H 0.0191 0.4855 0.6415
C14 C 0.1619(3) 0.56103(19) 0.61192(15)
H16 H 0.1181 0.6148 0.6086
C15 C 0.2820(3) 0.56022(19) 0.59751(14)
H17 H 0.3198 0.6130 0.5843
C16 C 0.3507(3) 0.47867(18) 0.60249(13)
C17 C 0.2925(3) 0.39934(17) 0.62421(11)
C18 C 0.3634(3) 0.32002(19) 0.63141(13)
H18 H 0.3272 0.2681 0.6469
C19 C 0.4841(3) 0.3187(2) 0.61596(15)
H19 H 0.5294 0.2659 0.6209
C20 C 0.5401(3) 0.3956(2) 0.59289(15)
H20 H 0.6220 0.3934 0.5818
C21 C 0.4760(3) 0.4741(2) 0.58642(14)
H21 H 0.5148 0.5252 0.5713
loop_
_geom_bond_atom_site_label_1
_geom_bond_atom_site_label_2
_geom_bond_site_symmetry_1
_geom_bond_site_symmetry_2
N1 C1 1_555 1_555
O1 C3 1_555 1_555
O2 C4 1_555 1_555
O3 C5 1_555 1_555
C1 H1 1_555 1_555
C2 C1 1_555 1_555
C3 C2 1_555 1_555
C4 C3 1_555 1_555
C5 C4 1_555 1_555
C6 C5 1_555 1_555
H2 C6 1_555 1_555
C7 C2 1_555 1_555
C8 O1 1_555 1_555
H3 C8 1_555 1_555
H4 C8 1_555 1_555
H5 C8 1_555 1_555
C9 O2 1_555 1_555
H6 C9 1_555 1_555
H7 C9 1_555 1_555
H8 C9 1_555 1_555
C10 O3 1_555 1_555
H9 C10 1_555 1_555
H10 C10 1_555 1_555
H11 C10 1_555 1_555
C11 C7 1_555 1_555
H12 C11 1_555 1_555
H13 C11 1_555 1_555
H14 C11 1_555 1_555
C12 N1 1_555 1_555
C13 C12 1_555 1_555
H15 C13 1_555 1_555
C14 C13 1_555 1_555
H16 C14 1_555 1_555
C15 C14 1_555 1_555
H17 C15 1_555 1_555
C16 C15 1_555 1_555
C17 C12 1_555 1_555
C18 C17 1_555 1_555
H18 C18 1_555 1_555
C19 C18 1_555 1_555
H19 C19 1_555 1_555
C20 C19 1_555 1_555
H20 C20 1_555 1_555
C21 C16 1_555 1_555
H21 C21 1_555 1_555
C6 C7 1_555 1_555
C16 C17 1_555 1_555
C20 C21 1_555 1_555

#END
