
#######################################################################
#
#                 Cambridge Crystallographic Data Centre
#                                CCDC 
#
#######################################################################
#
# If this CIF has been generated from an entry in the Cambridge 
# Structural Database, then it will include bibliographic, chemical, 
# crystal, experimental, refinement or atomic coordinate data resulting 
# from the CCDC's data processing and validation procedures.
#
#######################################################################

data_PONQIT
_chemical_formula_moiety         'C12 H14 N2 O2'
_chemical_name_systematic        
'4-Methyl-2-n-propyl-1H-benzimidazole-6-carboxylic acid'
_symmetry_cell_setting           tetragonal
_symmetry_space_group_name_H-M   'I 41/a'
_symmetry_Int_Tables_number      88
_space_group_name_Hall           '-I 4ad'
loop_
_symmetry_equiv_pos_site_id
_symmetry_equiv_pos_as_xyz
1 x,y,z
2 3/4-y,1/4+x,1/4+z
3 1/2+x,1/2+y,1/2+z
4 1/4-y,3/4+x,3/4+z
5 1/4+y,1/4-x,1/4+z
6 1/2-x,-y,1/2+z
7 3/4+y,3/4-x,3/4+z
8 -x,1/2-y,z
9 -x,-y,-z
10 1/4+y,3/4-x,3/4-z
11 1/2-x,1/2-y,1/2-z
12 3/4+y,1/4-x,1/4-z
13 3/4-y,3/4+x,3/4-z
14 1/2+x,y,1/2-z
15 1/4-y,1/4+x,1/4-z
16 x,1/2+y,-z
_cell_length_a                   12.0548(17)
_cell_length_b                   12.0548(17)
_cell_length_c                   31.899(6)
_cell_angle_alpha                90
_cell_angle_beta                 90
_cell_angle_gamma                90
_cell_volume                     4635.51
_exptl_crystal_colour            colorless
_exptl_crystal_description       block
_cell_formula_units_Z            16
_exptl_crystal_recrystallization_method acetone
loop_
_atom_site_label
_atom_site_type_symbol
_atom_site_fract_x
_atom_site_fract_y
_atom_site_fract_z
O1 O 0.7815(2) 0.4947(2) 0.07388(7)
O2 O 0.7256(2) 0.32125(18) 0.07006(6)
H1 H 0.7077 0.3341 0.0944
N1 N 0.8807(2) 0.3584(2) -0.11544(7)
N2 N 0.8170(2) 0.2123(2) -0.08282(7)
H2 H 0.7940 0.1458 -0.0785
C1 C 0.6545(5) 0.2486(5) -0.18175(17)
H3 H 0.5891 0.2171 -0.1941
H4 H 0.6843 0.3042 -0.2001
H5 H 0.6358 0.2818 -0.1553
C2 C 0.7407(4) 0.1577(5) -0.17491(18)
H6 H 0.7097 0.1043 -0.1554
H7 H 0.7513 0.1195 -0.2014
C3 C 0.8501(3) 0.1904(3) -0.15925(10)
H8 H 0.8860 0.2355 -0.1805
H9 H 0.8945 0.1239 -0.1557
C4 C 0.8509(3) 0.2525(3) -0.11926(9)
C5 C 0.8656(2) 0.3874(3) -0.07355(9)
C6 C 0.8820(2) 0.4885(2) -0.05283(9)
C7 C 0.8539(2) 0.4896(3) -0.01107(9)
H10 H 0.8653 0.5543 0.0042
C8 C 0.8085(2) 0.3966(2) 0.00960(9)
C9 C 0.7938(3) 0.2969(2) -0.01128(9)
H11 H 0.7645 0.2350 0.0021
C10 C 0.8246(3) 0.2941(2) -0.05289(9)
C11 C 0.9269(3) 0.5876(3) -0.07572(11)
H12 H 0.9410 0.5681 -0.1044
H13 H 0.9947 0.6112 -0.0627
H14 H 0.8737 0.6467 -0.0747
C12 C 0.7704(3) 0.4069(2) 0.05433(9)
loop_
_geom_bond_atom_site_label_1
_geom_bond_atom_site_label_2
_geom_bond_site_symmetry_1
_geom_bond_site_symmetry_2
O1 C12 1_555 1_555
O2 H1 1_555 1_555
N1 C4 1_555 1_555
N2 H2 1_555 1_555
C1 H3 1_555 1_555
H4 C1 1_555 1_555
H5 C1 1_555 1_555
C2 C1 1_555 1_555
H6 C2 1_555 1_555
H7 C2 1_555 1_555
C3 C2 1_555 1_555
H8 C3 1_555 1_555
H9 C3 1_555 1_555
C4 N2 1_555 1_555
C5 N1 1_555 1_555
C6 C5 1_555 1_555
C7 C6 1_555 1_555
H10 C7 1_555 1_555
C8 C7 1_555 1_555
C9 C8 1_555 1_555
H11 C9 1_555 1_555
C10 N2 1_555 1_555
C11 C6 1_555 1_555
H12 C11 1_555 1_555
H13 C11 1_555 1_555
H14 C11 1_555 1_555
C12 O2 1_555 1_555
C3 C4 1_555 1_555
C5 C10 1_555 1_555
C8 C12 1_555 1_555
C9 C10 1_555 1_555

#END
