
#######################################################################
#
#                 Cambridge Crystallographic Data Centre
#                                CCDC 
#
#######################################################################
#
# If this CIF has been generated from an entry in the Cambridge 
# Structural Database, then it will include bibliographic, chemical, 
# crystal, experimental, refinement or atomic coordinate data resulting 
# from the CCDC's data processing and validation procedures.
#
#######################################################################

data_PONRIU
_chemical_formula_moiety         'C12 H15 Cl1 O4'
_chemical_name_systematic        'Methyl 4-(3-chloropropoxy)-3-methoxybenzoate'
_symmetry_cell_setting           monoclinic
_symmetry_space_group_name_H-M   'P 21/c'
_symmetry_Int_Tables_number      14
_space_group_name_Hall           '-P 2ybc'
loop_
_symmetry_equiv_pos_site_id
_symmetry_equiv_pos_as_xyz
1 x,y,z
2 -x,1/2+y,1/2-z
3 -x,-y,-z
4 x,1/2-y,1/2+z
_cell_length_a                   8.4980(17)
_cell_length_b                   17.349(4)
_cell_length_c                   8.8440(18)
_cell_angle_alpha                90
_cell_angle_beta                 106.46(3)
_cell_angle_gamma                90
_cell_volume                     1250.45
_exptl_crystal_colour            colorless
_exptl_crystal_description       block
_chemical_melting_point          '384 K'
_cell_formula_units_Z            4
_exptl_crystal_recrystallization_method 'ethyl acetate'
loop_
_atom_site_label
_atom_site_type_symbol
_atom_site_fract_x
_atom_site_fract_y
_atom_site_fract_z
Cl1 Cl 0.27901(16) 0.58276(8) 0.10729(14)
O1 O 0.3056(3) 0.60776(15) 0.5453(3)
O2 O 0.1798(3) 0.50211(15) 0.6779(3)
O3 O -0.2908(4) 0.74808(19) 0.7610(4)
O4 O -0.2715(3) 0.62804(17) 0.8531(4)
C1 C 0.4233(6) 0.5519(3) 0.2872(5)
H1 H 0.3693 0.5170 0.3424
H2 H 0.5119 0.5239 0.2627
C2 C 0.4929(5) 0.6187(3) 0.3921(5)
H3 H 0.5409 0.6546 0.3337
H4 H 0.5803 0.6000 0.4807
C3 C 0.3697(5) 0.6615(2) 0.4548(5)
H5 H 0.4223 0.7043 0.5207
H6 H 0.2819 0.6817 0.3684
C4 C 0.1809(5) 0.6315(2) 0.6028(4)
C5 C 0.1190(5) 0.7053(2) 0.5911(5)
H7 H 0.1656 0.7438 0.5444
C6 C -0.0123(5) 0.7224(2) 0.6489(5)
H8 H -0.0547 0.7722 0.6390
C7 C -0.0814(5) 0.6657(2) 0.7216(4)
C8 C -0.0174(5) 0.5915(2) 0.7335(4)
H9 H -0.0638 0.5533 0.7811
C9 C 0.1129(4) 0.5731(2) 0.6768(4)
C10 C 0.1078(5) 0.4411(2) 0.7422(5)
H10 H 0.1631 0.3937 0.7342
H11 H -0.0061 0.4366 0.6849
H12 H 0.1176 0.4517 0.8511
C11 C -0.2236(5) 0.6865(2) 0.7781(5)
C12 C -0.4095(6) 0.6411(3) 0.9117(6)
H13 H -0.4308 0.5957 0.9646
H14 H -0.5039 0.6531 0.8255
H15 H -0.3865 0.6835 0.9846
loop_
_geom_bond_atom_site_label_1
_geom_bond_atom_site_label_2
_geom_bond_site_symmetry_1
_geom_bond_site_symmetry_2
Cl1 C1 1_555 1_555
O1 C3 1_555 1_555
O2 C9 1_555 1_555
O3 C11 1_555 1_555
O4 C11 1_555 1_555
C1 H1 1_555 1_555
H2 C1 1_555 1_555
C2 C1 1_555 1_555
H3 C2 1_555 1_555
H4 C2 1_555 1_555
C3 C2 1_555 1_555
H5 C3 1_555 1_555
H6 C3 1_555 1_555
C4 O1 1_555 1_555
C5 C4 1_555 1_555
H7 C5 1_555 1_555
C6 C5 1_555 1_555
H8 C6 1_555 1_555
C7 C6 1_555 1_555
C8 C7 1_555 1_555
H9 C8 1_555 1_555
C9 C4 1_555 1_555
C10 O2 1_555 1_555
H10 C10 1_555 1_555
H11 C10 1_555 1_555
H12 C10 1_555 1_555
C11 C7 1_555 1_555
C12 O4 1_555 1_555
H13 C12 1_555 1_555
H14 C12 1_555 1_555
H15 C12 1_555 1_555
C8 C9 1_555 1_555

#END
