
#######################################################################
#
#                 Cambridge Crystallographic Data Centre
#                                CCDC 
#
#######################################################################
#
# If this CIF has been generated from an entry in the Cambridge 
# Structural Database, then it will include bibliographic, chemical, 
# crystal, experimental, refinement or atomic coordinate data resulting 
# from the CCDC's data processing and validation procedures.
#
#######################################################################

data_POPPIU
_chemical_formula_moiety         'C22 H28 N2 O2'
_chemical_name_systematic        
(R,R)-2-(3,5-Diisopropyl-1,2,3,10b-tetrahydroimidazo[1,5-c][1,3]benzoxazin-1-yl)phenol
_symmetry_cell_setting           orthorhombic
_symmetry_space_group_name_H-M   'P 21 21 21'
_symmetry_Int_Tables_number      19
_space_group_name_Hall           'P 2ac 2ab'
loop_
_symmetry_equiv_pos_site_id
_symmetry_equiv_pos_as_xyz
1 x,y,z
2 1/2-x,-y,1/2+z
3 -x,1/2+y,1/2-z
4 1/2+x,1/2-y,-z
_cell_length_a                   9.79070(10)
_cell_length_b                   18.3356(2)
_cell_length_c                   22.0661(2)
_cell_angle_alpha                90
_cell_angle_beta                 90
_cell_angle_gamma                90
_cell_volume                     3961.27
_exptl_crystal_colour            colorless
_exptl_crystal_description       plate
_cell_formula_units_Z            8
loop_
_atom_site_label
_atom_site_type_symbol
_atom_site_fract_x
_atom_site_fract_y
_atom_site_fract_z
N1 N 0.30389(10) 0.72470(6) 0.33087(4)
H1 H 0.2496 0.7391 0.3002
C1 C 0.22232(12) 0.70325(7) 0.38351(5)
H2 H 0.1556 0.7426 0.3939
N2 N 0.33079(10) 0.70006(5) 0.42928(4)
C2 C 0.14772(16) 0.63146(9) 0.37334(6)
H3 H 0.1010 0.6184 0.4122
C3 C 0.03644(17) 0.64211(12) 0.32514(7)
H4 H 0.0792 0.6514 0.2857
H5 H -0.0211 0.6837 0.3363
H6 H -0.0198 0.5980 0.3226
C4 C 0.24254(19) 0.56885(8) 0.35721(7)
H7 H 0.2831 0.5777 0.3173
H8 H 0.1906 0.5232 0.3563
H9 H 0.3151 0.5653 0.3876
C5 C 0.29189(12) 0.68934(6) 0.49104(5)
H10 H 0.2230 0.6491 0.4917
C6 C 0.41160(12) 0.66520(7) 0.53083(5)
H11 H 0.4873 0.7014 0.5263
C7 C 0.46327(15) 0.59097(7) 0.51022(7)
H12 H 0.3918 0.5543 0.5165
H13 H 0.5444 0.5777 0.5338
H14 H 0.4869 0.5931 0.4671
C8 C 0.37008(15) 0.66233(9) 0.59730(6)
H15 H 0.3392 0.7107 0.6103
H16 H 0.4486 0.6473 0.6219
H17 H 0.2957 0.6271 0.6025
O1 O 0.22632(8) 0.75385(4) 0.51703(4)
C9 C 0.30091(12) 0.81680(7) 0.51052(5)
C10 C 0.27821(13) 0.87209(7) 0.55250(6)
H18 H 0.2162 0.8648 0.5850
C11 C 0.34640(14) 0.93773(7) 0.54659(6)
H19 H 0.3306 0.9758 0.5749
C12 C 0.43791(14) 0.94801(6) 0.49935(6)
H20 H 0.4844 0.9932 0.4952
C13 C 0.46144(12) 0.89227(6) 0.45813(5)
H21 H 0.5248 0.8996 0.4261
C14 C 0.39355(11) 0.82573(6) 0.46306(5)
C15 C 0.42002(11) 0.76402(6) 0.41909(5)
H22 H 0.5175 0.7484 0.4228
C16 C 0.39059(12) 0.78552(6) 0.35158(5)
H23 H 0.3382 0.8323 0.3500
C17 C 0.51791(12) 0.79144(7) 0.31333(5)
C18 C 0.56168(15) 0.85772(8) 0.28995(6)
H24 H 0.5077 0.9002 0.2960
C19 C 0.68389(16) 0.86284(9) 0.25772(6)
H25 H 0.7134 0.9085 0.2422
C20 C 0.76146(14) 0.80106(10) 0.24850(6)
H26 H 0.8458 0.8046 0.2274
C21 C 0.71794(14) 0.73405(9) 0.26962(5)
H27 H 0.7708 0.6916 0.2621
C22 C 0.59614(12) 0.72911(7) 0.30198(5)
O2 O 0.55563(9) 0.66222(5) 0.32225(4)
H28 H 0.4716 0.6631 0.3298
N3 N 0.44838(11) 0.73061(5) 0.15590(4)
H29 H 0.5166 0.7359 0.1829
C23 C 0.48406(12) 0.67614(6) 0.11016(5)
H30 H 0.5796 0.6844 0.0957
C24 C 0.46884(14) 0.59770(7) 0.13334(5)
H31 H 0.4798 0.5647 0.0976
C25 C 0.58194(15) 0.57889(7) 0.17792(6)
H32 H 0.5671 0.6054 0.2159
H33 H 0.6704 0.5928 0.1607
H34 H 0.5812 0.5263 0.1859
C26 C 0.32856(15) 0.58244(8) 0.16045(6)
H35 H 0.3189 0.5300 0.1679
H36 H 0.2576 0.5985 0.1321
H37 H 0.3190 0.6090 0.1988
N4 N 0.38697(10) 0.69291(5) 0.06135(4)
C27 C 0.43050(12) 0.66990(6) 0.00230(5)
H38 H 0.4844 0.6241 0.0080
C28 C 0.31170(14) 0.65119(7) -0.03998(6)
H39 H 0.2489 0.6941 -0.0421
C29 C 0.23233(13) 0.58613(7) -0.01545(6)
H40 H 0.1510 0.5780 -0.0404
H41 H 0.2046 0.5959 0.0264
H42 H 0.2903 0.5426 -0.0166
C30 C 0.3646(2) 0.63504(9) -0.10325(6)
H43 H 0.4081 0.6788 -0.1199
H44 H 0.2884 0.6205 -0.1293
H45 H 0.4316 0.5954 -0.1013
O3 O 0.52155(8) 0.72267(4) -0.02629(4)
C31 C 0.45921(12) 0.78929(6) -0.03386(5)
C32 C 0.48737(12) 0.82934(7) -0.08572(6)
H46 H 0.5473 0.8106 -0.1158
C33 C 0.42687(13) 0.89714(7) -0.09305(6)
H47 H 0.4479 0.9257 -0.1277
C34 C 0.33563(13) 0.92359(7) -0.05002(6)
H48 H 0.2935 0.9698 -0.0555
C35 C 0.30665(12) 0.88194(6) 0.00097(5)
H49 H 0.2432 0.8996 0.0300
C36 C 0.36918(11) 0.81484(6) 0.01004(5)
C37 C 0.34361(12) 0.77022(6) 0.06652(5)
H50 H 0.2441 0.7720 0.0765
C38 C 0.42684(12) 0.79900(6) 0.12163(5)
H51 H 0.5166 0.8188 0.1076
C39 C 0.35205(13) 0.85573(7) 0.15819(5)
C40 C 0.38603(14) 0.92924(7) 0.15423(6)
H52 H 0.4603 0.9436 0.1292
C41 C 0.31392(16) 0.98195(7) 0.18594(6)
H53 H 0.3381 1.0320 0.1825
C42 C 0.20648(16) 0.96094(7) 0.22267(6)
H54 H 0.1567 0.9968 0.2445
C43 C 0.17073(14) 0.88817(8) 0.22793(6)
H55 H 0.0970 0.8742 0.2534
C44 C 0.24314(13) 0.83554(7) 0.19585(5)
O4 O 0.20621(9) 0.76404(5) 0.20259(4)
H56 H 0.2697 0.7371 0.1902
loop_
_geom_bond_atom_site_label_1
_geom_bond_atom_site_label_2
_geom_bond_site_symmetry_1
_geom_bond_site_symmetry_2
N1 H1 1_555 1_555
C1 N1 1_555 1_555
H2 C1 1_555 1_555
N2 C1 1_555 1_555
C2 C1 1_555 1_555
H3 C2 1_555 1_555
C3 C2 1_555 1_555
H4 C3 1_555 1_555
H5 C3 1_555 1_555
H6 C3 1_555 1_555
C4 C2 1_555 1_555
H7 C4 1_555 1_555
H8 C4 1_555 1_555
H9 C4 1_555 1_555
C5 N2 1_555 1_555
H10 C5 1_555 1_555
C6 C5 1_555 1_555
H11 C6 1_555 1_555
C7 C6 1_555 1_555
H12 C7 1_555 1_555
H13 C7 1_555 1_555
H14 C7 1_555 1_555
C8 C6 1_555 1_555
H15 C8 1_555 1_555
H16 C8 1_555 1_555
H17 C8 1_555 1_555
O1 C5 1_555 1_555
C9 O1 1_555 1_555
C10 C9 1_555 1_555
H18 C10 1_555 1_555
C11 C10 1_555 1_555
H19 C11 1_555 1_555
C12 C11 1_555 1_555
H20 C12 1_555 1_555
C13 C12 1_555 1_555
H21 C13 1_555 1_555
C14 C9 1_555 1_555
C15 N2 1_555 1_555
H22 C15 1_555 1_555
C16 N1 1_555 1_555
H23 C16 1_555 1_555
C17 C16 1_555 1_555
C18 C17 1_555 1_555
H24 C18 1_555 1_555
C19 C18 1_555 1_555
H25 C19 1_555 1_555
C20 C19 1_555 1_555
H26 C20 1_555 1_555
C21 C20 1_555 1_555
H27 C21 1_555 1_555
C22 C17 1_555 1_555
O2 C22 1_555 1_555
H28 O2 1_555 1_555
N3 H29 1_555 1_555
C23 N3 1_555 1_555
H30 C23 1_555 1_555
C24 C23 1_555 1_555
H31 C24 1_555 1_555
C25 C24 1_555 1_555
H32 C25 1_555 1_555
H33 C25 1_555 1_555
H34 C25 1_555 1_555
C26 C24 1_555 1_555
H35 C26 1_555 1_555
H36 C26 1_555 1_555
H37 C26 1_555 1_555
N4 C23 1_555 1_555
C27 N4 1_555 1_555
H38 C27 1_555 1_555
C28 C27 1_555 1_555
H39 C28 1_555 1_555
C29 C28 1_555 1_555
H40 C29 1_555 1_555
H41 C29 1_555 1_555
H42 C29 1_555 1_555
C30 C28 1_555 1_555
H43 C30 1_555 1_555
H44 C30 1_555 1_555
H45 C30 1_555 1_555
O3 C27 1_555 1_555
C31 O3 1_555 1_555
C32 C31 1_555 1_555
H46 C32 1_555 1_555
C33 C32 1_555 1_555
H47 C33 1_555 1_555
C34 C33 1_555 1_555
H48 C34 1_555 1_555
C35 C34 1_555 1_555
H49 C35 1_555 1_555
C36 C31 1_555 1_555
C37 N4 1_555 1_555
H50 C37 1_555 1_555
C38 N3 1_555 1_555
H51 C38 1_555 1_555
C39 C38 1_555 1_555
C40 C39 1_555 1_555
H52 C40 1_555 1_555
C41 C40 1_555 1_555
H53 C41 1_555 1_555
C42 C41 1_555 1_555
H54 C42 1_555 1_555
C43 C42 1_555 1_555
H55 C43 1_555 1_555
C44 C39 1_555 1_555
O4 C44 1_555 1_555
H56 O4 1_555 1_555
C13 C14 1_555 1_555
C14 C15 1_555 1_555
C15 C16 1_555 1_555
C21 C22 1_555 1_555
C35 C36 1_555 1_555
C36 C37 1_555 1_555
C37 C38 1_555 1_555
C43 C44 1_555 1_555

#END
