
#######################################################################
#
#                 Cambridge Crystallographic Data Centre
#                                CCDC 
#
#######################################################################
#
# If this CIF has been generated from an entry in the Cambridge 
# Structural Database, then it will include bibliographic, chemical, 
# crystal, experimental, refinement or atomic coordinate data resulting 
# from the CCDC's data processing and validation procedures.
#
#######################################################################

data_POQJOW
_chemical_formula_moiety         'C18 H15 Cl1 P1 1+,C1 F3 O3 S1 1-'
_chemical_name_systematic        
'chloro(triphenyl)phosphonium trifluoromethanesulfonate'
_symmetry_cell_setting           monoclinic
_symmetry_space_group_name_H-M   'P 21/n'
_symmetry_Int_Tables_number      14
_space_group_name_Hall           '-P 2yn'
loop_
_symmetry_equiv_pos_site_id
_symmetry_equiv_pos_as_xyz
1 x,y,z
2 1/2-x,1/2+y,1/2-z
3 -x,-y,-z
4 1/2+x,1/2-y,1/2+z
_cell_length_a                   11.255(2)
_cell_length_b                   9.1501(18)
_cell_length_c                   18.658(4)
_cell_angle_alpha                90
_cell_angle_beta                 93.04(3)
_cell_angle_gamma                90
_cell_volume                     1918.78
_exptl_crystal_colour            colorless
_exptl_crystal_description       plate
_cell_formula_units_Z            4
_exptl_crystal_recrystallization_method 'dichloromethane/diethyl ether'
loop_
_atom_site_label
_atom_site_type_symbol
_atom_site_fract_x
_atom_site_fract_y
_atom_site_fract_z
F1 F 0.271(2) 0.0662(17) 0.1453(12)
F2 F 0.3239(7) 0.0676(18) 0.0359(9)
F3 F 0.15785(16) 0.1655(2) 0.05803(11)
C1 C 0.2713(4) 0.1503(4) 0.0843(2)
S1 S 0.34008(12) 0.32752(10) 0.09975(5)
O1 O 0.2657(9) 0.3954(14) 0.1503(6)
O2 O 0.3327(5) 0.3908(7) 0.0278(3)
O3 O 0.45726(18) 0.2889(3) 0.12787(12)
C3 C 0.93178(17) 1.0989(2) 0.25583(11)
C4 C 1.02145(17) 1.1897(2) 0.23177(11)
H1 H 1.0350 1.1961 0.1820
C5 C 1.09015(18) 1.2698(2) 0.28126(11)
H2 H 1.1517 1.3311 0.2656
C6 C 1.06943(18) 1.2610(2) 0.35354(12)
H3 H 1.1159 1.3180 0.3871
C7 C 0.98165(19) 1.1699(2) 0.37755(12)
H4 H 0.9688 1.1637 0.4274
C8 C 0.91270(18) 1.0879(2) 0.32882(11)
H5 H 0.8528 1.0246 0.3450
C9 C 0.81241(17) 1.1054(2) 0.11216(10)
C10 C 0.89505(19) 1.1047(2) 0.05958(11)
H6 H 0.9617 1.0409 0.0635
C11 C 0.8795(2) 1.1977(2) 0.00132(12)
H7 H 0.9365 1.1991 -0.0345
C12 C 0.78164(18) 1.2886(2) -0.00505(11)
H8 H 0.7719 1.3527 -0.0450
C13 C 0.69758(18) 1.2867(2) 0.04650(11)
H9 H 0.6295 1.3479 0.0413
C14 C 0.71267(17) 1.1959(2) 0.10561(11)
H10 H 0.6556 1.1952 0.1414
C15 C 0.91020(17) 0.8295(2) 0.16827(11)
C16 C 0.85264(18) 0.7427(2) 0.11516(11)
H11 H 0.7802 0.7743 0.0917
C17 C 0.90240(19) 0.6106(2) 0.09734(12)
H12 H 0.8637 0.5504 0.0618
C18 C 1.00860(19) 0.5658(2) 0.13122(12)
H13 H 1.0426 0.4751 0.1185
C19 C 1.06565(19) 0.6516(2) 0.18336(12)
H14 H 1.1385 0.6195 0.2061
C20 C 1.01710(18) 0.7845(2) 0.20268(11)
H15 H 1.0559 0.8437 0.2386
P1 P 0.84357(4) 0.99832(5) 0.19080(3)
Cl1 Cl 0.68872(4) 0.95565(5) 0.23320(3)
F4? F 0.253(5) 0.064(4) 0.138(3)
F5? F 0.3482(19) 0.070(4) 0.039(2)
F6? F 0.4420(3) 0.1257(5) 0.1319(2)
C2? C 0.3340(8) 0.1302(9) 0.1001(5)
S2? S 0.2782(3) 0.3171(2) 0.08889(11)
O4? O 0.291(2) 0.374(3) 0.1617(14)
O5? O 0.3621(12) 0.3796(18) 0.0419(8)
O6? O 0.1589(4) 0.2966(6) 0.0621(3)
loop_
_geom_bond_atom_site_label_1
_geom_bond_atom_site_label_2
_geom_bond_site_symmetry_1
_geom_bond_site_symmetry_2
F1 C1 1_555 1_555
F2 C1 1_555 1_555
F3 C1 1_555 1_555
C1 S1 1_555 1_555
S1 O1 1_555 1_555
O2 S1 1_555 1_555
O3 S1 1_555 1_555
C3 C4 1_555 1_555
C4 H1 1_555 1_555
C5 C4 1_555 1_555
H2 C5 1_555 1_555
C6 C5 1_555 1_555
H3 C6 1_555 1_555
C7 C6 1_555 1_555
H4 C7 1_555 1_555
C8 C3 1_555 1_555
H5 C8 1_555 1_555
C9 C10 1_555 1_555
C10 H6 1_555 1_555
C11 C10 1_555 1_555
H7 C11 1_555 1_555
C12 C11 1_555 1_555
H8 C12 1_555 1_555
C13 C12 1_555 1_555
H9 C13 1_555 1_555
C14 C9 1_555 1_555
H10 C14 1_555 1_555
C15 C16 1_555 1_555
C16 H11 1_555 1_555
C17 C16 1_555 1_555
H12 C17 1_555 1_555
C18 C17 1_555 1_555
H13 C18 1_555 1_555
C19 C18 1_555 1_555
H14 C19 1_555 1_555
C20 C15 1_555 1_555
H15 C20 1_555 1_555
P1 C3 1_555 1_555
Cl1 P1 1_555 1_555
C7 C8 1_555 1_555
C9 P1 1_555 1_555
C13 C14 1_555 1_555
C15 P1 1_555 1_555
C19 C20 1_555 1_555

#END
