
#######################################################################
#
#                 Cambridge Crystallographic Data Centre
#                                CCDC 
#
#######################################################################
#
# If this CIF has been generated from an entry in the Cambridge 
# Structural Database, then it will include bibliographic, chemical, 
# crystal, experimental, refinement or atomic coordinate data resulting 
# from the CCDC's data processing and validation procedures.
#
#######################################################################

data_POQJEL
_chemical_formula_moiety         'C19 H18 Cl1 N5 O1 S1'
_chemical_name_systematic        
2-((3-Chlorophenyl)(5-methyl-3-oxo-2-phenyl-2,3-dihydro-1H-pyrazol-4-yl)methylene)-N''-methylhydrazinecarbothioamide
_symmetry_cell_setting           monoclinic
_symmetry_space_group_name_H-M   'P 21/c'
_symmetry_Int_Tables_number      14
_space_group_name_Hall           '-P 2ybc'
loop_
_symmetry_equiv_pos_site_id
_symmetry_equiv_pos_as_xyz
1 x,y,z
2 -x,1/2+y,1/2-z
3 -x,-y,-z
4 x,1/2-y,1/2+z
_cell_length_a                   7.2743(2)
_cell_length_b                   24.0163(7)
_cell_length_c                   11.6800(3)
_cell_angle_alpha                90
_cell_angle_beta                 110.354(2)
_cell_angle_gamma                90
_cell_volume                     1913.11
_exptl_crystal_colour            yellow
_cell_formula_units_Z            4
_chemical_properties_physical    light-sensitive
_exptl_crystal_preparation       'fluorescent;irradiated product; photochromic'
loop_
_atom_site_label
_atom_site_type_symbol
_atom_site_fract_x
_atom_site_fract_y
_atom_site_fract_z
Cl1 Cl 1.19507(6) 0.476861(19) 0.91187(5)
S1 S 0.18872(5) 0.222874(14) 0.37193(3)
O1 O 0.68479(14) 0.22460(4) 0.68000(8)
N1 N 0.72825(15) 0.23192(4) 0.88500(9)
N2 N 0.72729(15) 0.27440(4) 0.96379(9)
H1 H 0.7167 0.2659 1.0324
N3 N 0.48356(15) 0.34628(4) 0.56779(9)
N4 N 0.39226(15) 0.29605(4) 0.53458(9)
H2 H 0.4222 0.2676 0.5825
N5 N 0.27027(17) 0.32896(5) 0.33897(10)
H3 H 0.3347 0.3581 0.3724
C1 C 0.7588(2) 0.13271(5) 0.85633(11)
H4 H 0.6596 0.1351 0.7780
C2 C 0.8484(2) 0.08219(6) 0.90004(13)
H5 H 0.8104 0.0497 0.8510
C3 C 0.9930(2) 0.07859(6) 1.01481(14)
H6 H 1.0545 0.0439 1.0436
C4 C 1.0472(2) 0.12573(6) 1.08715(12)
H7 H 1.1450 0.1231 1.1660
C5 C 0.95975(18) 0.17667(5) 1.04534(11)
H8 H 0.9968 0.2089 1.0951
C6 C 0.81722(17) 0.17990(5) 0.92958(10)
C7 C 0.68474(16) 0.25381(5) 0.76917(10)
C8 C 0.64449(17) 0.31162(5) 0.77857(10)
C9 C 0.66929(17) 0.32138(5) 0.90065(10)
C10 C 0.6315(2) 0.37171(5) 0.96387(11)
H9 H 0.7498 0.3949 0.9917
H10 H 0.5968 0.3602 1.0343
H11 H 0.5232 0.3931 0.9071
C11 C 0.59495(17) 0.35328(5) 0.68087(10)
C12 C 0.68185(19) 0.40987(5) 0.70961(11)
C13 C 0.5759(2) 0.45674(6) 0.65228(14)
H12 H 0.4451 0.4527 0.5973
C14 C 0.6611(3) 0.50916(6) 0.67536(17)
H13 H 0.5877 0.5408 0.6361
C15 C 0.8518(3) 0.51590(6) 0.75502(16)
H14 H 0.9107 0.5517 0.7698
C16 C 0.9548(2) 0.46927(6) 0.81258(14)
C17 C 0.87232(19) 0.41652(5) 0.79160(12)
H15 H 0.9452 0.3852 0.8328
C18 C 0.28644(18) 0.28615(5) 0.41384(11)
C19 C 0.1715(3) 0.32594(7) 0.20723(12)
H16 H 0.0300 0.3219 0.1886
H17 H 0.2207 0.2938 0.1750
H18 H 0.1973 0.3601 0.1694
loop_
_geom_bond_atom_site_label_1
_geom_bond_atom_site_label_2
_geom_bond_site_symmetry_1
_geom_bond_site_symmetry_2
Cl1 C16 1_555 1_555
S1 C18 1_555 1_555
O1 C7 1_555 1_555
N1 N2 1_555 1_555
N2 H1 1_555 1_555
N3 N4 1_555 1_555
N4 H2 1_555 1_555
N5 H3 1_555 1_555
C1 H4 1_555 1_555
C2 C1 1_555 1_555
H5 C2 1_555 1_555
C3 C2 1_555 1_555
H6 C3 1_555 1_555
C4 C3 1_555 1_555
H7 C4 1_555 1_555
C5 C4 1_555 1_555
H8 C5 1_555 1_555
C6 N1 1_555 1_555
C7 N1 1_555 1_555
C8 C7 1_555 1_555
C9 N2 1_555 1_555
C10 C9 1_555 1_555
H9 C10 1_555 1_555
H10 C10 1_555 1_555
H11 C10 1_555 1_555
C11 N3 1_555 1_555
C12 C11 1_555 1_555
C13 C12 1_555 1_555
H12 C13 1_555 1_555
C14 C13 1_555 1_555
H13 C14 1_555 1_555
C15 C14 1_555 1_555
H14 C15 1_555 1_555
C16 C15 1_555 1_555
C17 C12 1_555 1_555
H15 C17 1_555 1_555
C18 N4 1_555 1_555
C19 N5 1_555 1_555
H16 C19 1_555 1_555
H17 C19 1_555 1_555
H18 C19 1_555 1_555
N5 C18 1_555 1_555
C1 C6 1_555 1_555
C5 C6 1_555 1_555
C8 C9 1_555 1_555
C8 C11 1_555 1_555
C16 C17 1_555 1_555

#END
