
#######################################################################
#
#                 Cambridge Crystallographic Data Centre
#                                CCDC 
#
#######################################################################
#
# If this CIF has been generated from an entry in the Cambridge 
# Structural Database, then it will include bibliographic, chemical, 
# crystal, experimental, refinement or atomic coordinate data resulting 
# from the CCDC's data processing and validation procedures.
#
#######################################################################

data_POQMEP
_chemical_formula_moiety         'C24 H22 N2 O7'
_chemical_name_systematic        
'methyl 3-((2-hydroxy-3-((2-methoxybenzoyl)amino)benzoyl)amino)-2-methoxybenzoate'
_symmetry_cell_setting           monoclinic
_symmetry_space_group_name_H-M   'P 21/c'
_symmetry_Int_Tables_number      14
_space_group_name_Hall           '-P 2ybc'
loop_
_symmetry_equiv_pos_site_id
_symmetry_equiv_pos_as_xyz
1 x,y,z
2 -x,1/2+y,1/2-z
3 -x,-y,-z
4 x,1/2-y,1/2+z
_cell_length_a                   14.0883(19)
_cell_length_b                   9.8136(14)
_cell_length_c                   16.084(2)
_cell_angle_alpha                90
_cell_angle_beta                 112.581(4)
_cell_angle_gamma                90
_cell_volume                     2053.25
_exptl_crystal_colour            colorless
_exptl_crystal_description       block
_cell_formula_units_Z            4
loop_
_atom_site_label
_atom_site_type_symbol
_atom_site_fract_x
_atom_site_fract_y
_atom_site_fract_z
O1 O -0.25962(9) 1.10261(12) -0.11106(8)
O2 O -0.21849(8) 1.04537(12) 0.15590(7)
O3 O -0.07775(9) 0.86347(12) -0.04946(7)
H1 H -0.0518 0.8131 -0.0774
O4 O 0.03469(9) 0.67541(13) -0.07022(7)
O5 O 0.29386(9) 0.41305(12) 0.15819(7)
O6 O 0.47972(9) 0.26647(13) 0.16800(8)
O7 O 0.42610(8) 0.09950(12) 0.06499(8)
N1 N -0.15028(10) 1.00367(14) 0.05096(9)
H2 H -0.1598(15) 1.018(2) -0.0041(15)
N2 N 0.14407(10) 0.55602(14) 0.04913(9)
H3 H 0.1665(15) 0.542(2) 0.1065(15)
C1 C -0.30978(11) 1.18684(16) -0.07327(11)
C2 C -0.38141(12) 1.28338(17) -0.12386(11)
H4 H -0.3962 1.2932 -0.1864
C3 C -0.43103(12) 1.36498(17) -0.08274(12)
H5 H -0.4798 1.4305 -0.1174
C4 C -0.41015(12) 1.35191(17) 0.00837(12)
H6 H -0.4443 1.4079 0.0364
C5 C -0.33869(12) 1.25592(17) 0.05813(11)
H7 H -0.3240 1.2476 0.1207
C6 C -0.28772(11) 1.17121(16) 0.01925(10)
C7 C -0.28382(14) 1.11132(19) -0.20564(11)
H8 H -0.3561 1.0868 -0.2385
H9 H -0.2399 1.0485 -0.2221
H10 H -0.2721 1.2046 -0.2212
C8 C -0.21629(11) 1.06692(16) 0.08151(10)
C9 C -0.03984(11) 0.82848(16) 0.03871(10)
C10 C -0.07763(11) 0.90279(16) 0.09495(11)
C11 C -0.04068(12) 0.87395(17) 0.18648(11)
H11 H -0.0643 0.9249 0.2250
C12 C 0.03123(12) 0.76980(17) 0.22176(11)
H12 H 0.0556 0.7494 0.2842
C13 C 0.06711(12) 0.69633(16) 0.16676(11)
H13 H 0.1155 0.6252 0.1918
C14 C 0.03330(11) 0.72498(16) 0.07445(10)
C15 C 0.07018(11) 0.65051(16) 0.01184(10)
C16 C 0.19452(11) 0.47171(16) 0.00827(10)
C17 C 0.27377(12) 0.39090(16) 0.06879(10)
C18 C 0.32758(12) 0.29954(16) 0.03595(10)
C19 C 0.30037(12) 0.28884(16) -0.05720(11)
H14 H 0.3345 0.2250 -0.0805
C20 C 0.22385(12) 0.37110(17) -0.11538(11)
H15 H 0.2072 0.3645 -0.1783
C21 C 0.17079(12) 0.46320(16) -0.08350(11)
H16 H 0.1189 0.5196 -0.1242
C22 C 0.29160(14) 0.29793(18) 0.21317(11)
H17 H 0.2501 0.2249 0.1747
H18 H 0.2613 0.3256 0.2562
H19 H 0.3618 0.2650 0.2460
C23 C 0.41855(12) 0.22288(16) 0.09803(11)
C24 C 0.51297(12) 0.01737(17) 0.12084(12)
H20 H 0.5771 0.0647 0.1288
H21 H 0.5112 -0.0708 0.0917
H22 H 0.5092 0.0028 0.1798
loop_
_geom_bond_atom_site_label_1
_geom_bond_atom_site_label_2
_geom_bond_site_symmetry_1
_geom_bond_site_symmetry_2
O1 C1 1_555 1_555
O2 C8 1_555 1_555
O3 H1 1_555 1_555
O4 C15 1_555 1_555
O5 C17 1_555 1_555
O6 C23 1_555 1_555
O7 C23 1_555 1_555
N1 H2 1_555 1_555
N2 H3 1_555 1_555
C1 C2 1_555 1_555
C2 H4 1_555 1_555
C3 C2 1_555 1_555
H5 C3 1_555 1_555
C4 C3 1_555 1_555
H6 C4 1_555 1_555
C5 C4 1_555 1_555
H7 C5 1_555 1_555
C6 C1 1_555 1_555
C7 O1 1_555 1_555
H8 C7 1_555 1_555
H9 C7 1_555 1_555
H10 C7 1_555 1_555
C8 N1 1_555 1_555
C9 O3 1_555 1_555
C10 N1 1_555 1_555
C11 C10 1_555 1_555
H11 C11 1_555 1_555
C12 C11 1_555 1_555
H12 C12 1_555 1_555
C13 C12 1_555 1_555
H13 C13 1_555 1_555
C14 C9 1_555 1_555
C15 N2 1_555 1_555
C16 N2 1_555 1_555
C17 C16 1_555 1_555
C18 C17 1_555 1_555
C19 C18 1_555 1_555
H14 C19 1_555 1_555
C20 C19 1_555 1_555
H15 C20 1_555 1_555
C21 C16 1_555 1_555
H16 C21 1_555 1_555
C22 O5 1_555 1_555
H17 C22 1_555 1_555
H18 C22 1_555 1_555
H19 C22 1_555 1_555
C23 C18 1_555 1_555
C24 O7 1_555 1_555
H20 C24 1_555 1_555
H21 C24 1_555 1_555
H22 C24 1_555 1_555
C5 C6 1_555 1_555
C6 C8 1_555 1_555
C9 C10 1_555 1_555
C13 C14 1_555 1_555
C14 C15 1_555 1_555
C20 C21 1_555 1_555

#END
