
#######################################################################
#
#                 Cambridge Crystallographic Data Centre
#                                CCDC 
#
#######################################################################
#
# If this CIF has been generated from an entry in the Cambridge 
# Structural Database, then it will include bibliographic, chemical, 
# crystal, experimental, refinement or atomic coordinate data resulting 
# from the CCDC's data processing and validation procedures.
#
#######################################################################

data_POQNOZ
_chemical_formula_moiety         'C13 H13 Br1 N1 1+,C12 H4 N4 1-'
_chemical_name_systematic        
'4-methyl-1-(4-bromobenzyl)pyridinium 7,7,8,8-tetracyanoquinodimethane monoanion'
_symmetry_cell_setting           triclinic
_symmetry_space_group_name_H-M   'P -1'
_symmetry_Int_Tables_number      2
_space_group_name_Hall           '-P 1'
loop_
_symmetry_equiv_pos_site_id
_symmetry_equiv_pos_as_xyz
1 x,y,z
2 -x,-y,-z
_cell_length_a                   7.505(2)
_cell_length_b                   11.921(3)
_cell_length_c                   13.146(4)
_cell_angle_alpha                110.071(4)
_cell_angle_beta                 93.465(5)
_cell_angle_gamma                102.187(5)
_cell_volume                     1068.44
_cell_formula_units_Z            2
_exptl_crystal_preparation       'magnetic properties'
loop_
_atom_site_label
_atom_site_type_symbol
_atom_site_fract_x
_atom_site_fract_y
_atom_site_fract_z
Br1 Br 0.25727(8) 0.48053(6) 0.66172(5)
N5 N 0.3003(5) 0.3710(3) 0.1214(3)
C13 C 0.2629(6) 0.2471(4) 0.0889(4)
H5 H 0.1500 0.2037 0.0976
C14 C 0.3870(6) 0.1854(4) 0.0440(4)
H6 H 0.3582 0.1000 0.0218
C15 C 0.5571(6) 0.2473(4) 0.0303(3)
C16 C 0.5869(6) 0.3726(4) 0.0601(3)
H7 H 0.6966 0.4173 0.0491
C17 C 0.4593(6) 0.4327(4) 0.1053(3)
H8 H 0.4833 0.5178 0.1253
C18 C 0.1683(7) 0.4389(5) 0.1799(4)
H9 H 0.0434 0.3955 0.1443
H10 H 0.1930 0.5205 0.1763
C19 C 0.1860(6) 0.4498(4) 0.2988(4)
C20 C 0.0986(7) 0.3549(4) 0.3296(4)
H11 H 0.0251 0.2833 0.2766
C21 C 0.1180(7) 0.3643(5) 0.4368(4)
H12 H 0.0573 0.2999 0.4564
C22 C 0.2280(6) 0.4696(5) 0.5150(4)
C23 C 0.3165(6) 0.5665(5) 0.4862(4)
H13 H 0.3905 0.6381 0.5390
C24 C 0.2924(6) 0.5548(4) 0.3773(4)
H14 H 0.3500 0.6197 0.3574
C25 C 0.6985(7) 0.1789(4) -0.0134(4)
H15 H 0.8068 0.2358 -0.0175
H16 H 0.6496 0.1187 -0.0852
H17 H 0.7297 0.1383 0.0343
N1 N 1.1200(7) 0.3477(4) 0.8800(3)
N2 N 1.0222(6) -0.0363(4) 0.8568(3)
N3 N 0.5890(8) 0.1154(5) 0.2436(4)
N4 N 0.4701(6) -0.2687(4) 0.2208(3)
C1 C 1.0657(6) 0.2453(4) 0.8281(3)
C2 C 0.9965(5) 0.1190(4) 0.7648(3)
C3 C 1.0121(6) 0.0339(4) 0.8160(3)
C4 C 0.9001(5) 0.0781(4) 0.6567(3)
C5 C 0.8704(5) 0.1632(4) 0.6082(3)
H1 H 0.9134 0.2472 0.6481
C6 C 0.7804(5) 0.1248(4) 0.5047(3)
H2 H 0.7617 0.1830 0.4756
C7 C 0.7144(5) -0.0027(3) 0.4400(3)
C8 C 0.7403(5) -0.0867(3) 0.4894(3)
H3 H 0.6966 -0.1708 0.4499
C9 C 0.8284(6) -0.0475(3) 0.5943(3)
H4 H 0.8410 -0.1056 0.6249
C10 C 0.6016(7) 0.0441(4) 0.2827(4)
C11 C 0.6238(6) -0.0420(4) 0.3319(3)
C12 C 0.5401(6) -0.1677(4) 0.2694(3)
loop_
_geom_bond_atom_site_label_1
_geom_bond_atom_site_label_2
_geom_bond_site_symmetry_1
_geom_bond_site_symmetry_2
Br1 C22 1_555 1_555
N1 C1 1_555 1_555
N2 C3 1_555 1_555
N3 C10 1_555 1_555
N4 C12 1_555 1_555
N5 C13 1_555 1_555
C1 C2 1_555 1_555
C2 C3 1_555 1_555
C4 C2 1_555 1_555
C5 C4 1_555 1_555
H1 C5 1_555 1_555
C6 C5 1_555 1_555
H2 C6 1_555 1_555
C7 C6 1_555 1_555
C8 C7 1_555 1_555
H3 C8 1_555 1_555
C9 C4 1_555 1_555
H4 C9 1_555 1_555
C10 C11 1_555 1_555
C11 C7 1_555 1_555
C12 C11 1_555 1_555
C13 H5 1_555 1_555
C14 C13 1_555 1_555
H6 C14 1_555 1_555
C15 C14 1_555 1_555
C16 C15 1_555 1_555
H7 C16 1_555 1_555
C17 N5 1_555 1_555
H8 C17 1_555 1_555
C18 N5 1_555 1_555
H9 C18 1_555 1_555
H10 C18 1_555 1_555
C19 C18 1_555 1_555
C20 C19 1_555 1_555
H11 C20 1_555 1_555
C21 C20 1_555 1_555
H12 C21 1_555 1_555
C22 C21 1_555 1_555
C23 C22 1_555 1_555
H13 C23 1_555 1_555
C24 C19 1_555 1_555
H14 C24 1_555 1_555
C25 C15 1_555 1_555
H15 C25 1_555 1_555
H16 C25 1_555 1_555
H17 C25 1_555 1_555
C8 C9 1_555 1_555
C16 C17 1_555 1_555
C23 C24 1_555 1_555

#END
