
#######################################################################
#
#                 Cambridge Crystallographic Data Centre
#                                CCDC 
#
#######################################################################
#
# If this CIF has been generated from an entry in the Cambridge 
# Structural Database, then it will include bibliographic, chemical, 
# crystal, experimental, refinement or atomic coordinate data resulting 
# from the CCDC's data processing and validation procedures.
#
#######################################################################

data_POQPAO
_chemical_formula_moiety         'C46 H56 N2'
_chemical_name_systematic        
4,4'-(anthracene-9,10-diyldiethene-2,1-diyl)bis(N,N-dibutylaniline)
_symmetry_cell_setting           triclinic
_symmetry_space_group_name_H-M   'P -1'
_symmetry_Int_Tables_number      2
_space_group_name_Hall           '-P 1'
loop_
_symmetry_equiv_pos_site_id
_symmetry_equiv_pos_as_xyz
1 x,y,z
2 -x,-y,-z
_cell_length_a                   5.3350(11)
_cell_length_b                   9.4535(19)
_cell_length_c                   19.215(4)
_cell_angle_alpha                102.01(3)
_cell_angle_beta                 94.61(3)
_cell_angle_gamma                90.23(3)
_cell_volume                     944.605
_exptl_crystal_colour            yellow
_exptl_crystal_description       platelet
_cell_formula_units_Z            1
loop_
_atom_site_label
_atom_site_type_symbol
_atom_site_fract_x
_atom_site_fract_y
_atom_site_fract_z
C1 C -0.3477(8) 0.5782(6) 0.4624(3)
C2 C -0.5137(9) 0.6510(5) 0.5105(3)
C3 C -0.3312(8) 0.4275(6) 0.4533(3)
C4 C -0.1964(9) 0.6601(5) 0.4229(3)
H1 H -0.0550 0.7100 0.4478
C5 C -0.1017(10) 0.7426(6) 0.3133(3)
C6 C -0.2413(9) 0.6690(6) 0.3576(3)
H2 H -0.3869 0.6204 0.3348
C7 C -0.6980(10) 0.8720(6) 0.5678(3)
H3 H -0.7058 0.9723 0.5762
C8 C -0.5349(9) 0.8040(6) 0.5236(3)
H4 H -0.4337 0.8577 0.5010
C9 C 0.1623(11) 0.8742(6) 0.2216(4)
C10 C 0.2325(10) 0.8939(6) 0.2930(4)
H5 H 0.3707 0.9537 0.3121
C11 C -0.1577(9) 0.3490(6) 0.4081(3)
H6 H -0.0524 0.3991 0.3849
N1 N 0.2908(11) 0.9393(6) 0.1761(3)
C12 C 0.1057(10) 0.8283(6) 0.3373(3)
H7 H 0.1633 0.8428 0.3853
C13 C -0.1760(11) 0.7252(8) 0.2421(4)
H8 H -0.3193 0.6692 0.2237
C14 C -0.8576(11) 0.7942(7) 0.6017(3)
H9 H -0.9740 0.8428 0.6310
C15 C -0.0475(12) 0.7870(8) 0.1970(3)
H10 H -0.1026 0.7699 0.1487
C16 C 0.2132(16) 0.9151(10) 0.0995(5)
H11 H 0.2784 0.9934 0.0801
H12 H 0.0311 0.9148 0.0924
C17 C 0.4768(16) 1.0522(10) 0.2043(4)
H13 H 0.5841 1.0588 0.1666
H14 H 0.5812 1.0219 0.2420
C18 C 0.215(3) 0.7464(16) -0.0184(6)
H15 H 0.0333 0.7533 -0.0226
H16 H 0.2844 0.8207 -0.0397
C19 C 0.285(3) 0.606(2) -0.0569(8)
H17 H 0.4622 0.5928 -0.0470
H18 H 0.2486 0.5989 -0.1072
H19 H 0.1921 0.5316 -0.0420
C20 C 0.3091(18) 0.7731(13) 0.0604(5)
H20 H 0.2510 0.6950 0.0812
H21 H 0.4916 0.7751 0.0651
C21 C 0.207(2) 1.4176(15) 0.2346(7)
H22 H 0.2569 1.4559 0.2841
H23 H 0.0277 1.4216 0.2264
H24 H 0.2855 1.4740 0.2059
C22 C 0.388(4) 1.2007(18) 0.2333(12)
H25 H 0.3097 1.1882 0.2756
H26 H 0.5438 1.2536 0.2514
C23 C 0.281(4) 1.276(3) 0.2165(15)
H27 H 0.1190 1.2262 0.2059
H28 H 0.3418 1.2744 0.1701
C1A C -0.6523(8) 0.4218(6) 0.5376(3)
C2A C -0.4863(9) 0.3490(5) 0.4895(3)
C3A C -0.6688(8) 0.5725(6) 0.5467(3)
C4A C -0.8036(9) 0.3399(5) 0.5771(3)
H1A H -0.9450 0.2900 0.5522
C5A C -0.8983(10) 0.2574(6) 0.6867(3)
C6A C -0.7587(9) 0.3310(6) 0.6424(3)
H2A H -0.6131 0.3796 0.6652
C7A C -0.3020(10) 0.1280(6) 0.4322(3)
H3A H -0.2942 0.0277 0.4238
C8A C -0.4651(9) 0.1960(6) 0.4764(3)
H4A H -0.5663 0.1423 0.4990
C9A C -1.1623(11) 0.1258(6) 0.7784(4)
C10A C -1.2325(10) 0.1061(6) 0.7070(4)
H5A H -1.3707 0.0463 0.6879
C11A C -0.8423(9) 0.6510(6) 0.5919(3)
H6A H -0.9476 0.6009 0.6151
N1A N -1.2908(11) 0.0607(6) 0.8239(3)
C12A C -1.1057(10) 0.1717(6) 0.6627(3)
H7A H -1.1633 0.1572 0.6147
C13A C -0.8240(11) 0.2748(8) 0.7579(4)
H8A H -0.6807 0.3308 0.7763
C14A C -0.1424(11) 0.2058(7) 0.3983(3)
H9A H -0.0260 0.1572 0.3690
C15A C -0.9525(12) 0.2130(8) 0.8030(3)
H10A H -0.8974 0.2301 0.8513
C16A C -1.2132(16) 0.0849(10) 0.9005(5)
H11A H -1.2784 0.0066 0.9199
H12A H -1.0311 0.0852 0.9076
C17A C -1.4768(16) -0.0522(10) 0.7957(4)
H13A H -1.5841 -0.0588 0.8334
H14A H -1.5812 -0.0219 0.7580
C18A C -1.215(3) 0.2536(16) 1.0184(6)
H15A H -1.0333 0.2467 1.0226
H16A H -1.2844 0.1793 1.0397
C19A C -1.285(3) 0.394(2) 1.0569(8)
H17A H -1.4622 0.4072 1.0470
H18A H -1.2486 0.4011 1.1072
H19A H -1.1921 0.4684 1.0420
C20A C -1.3091(18) 0.2269(13) 0.9396(5)
H20A H -1.2510 0.3050 0.9188
H21A H -1.4916 0.2249 0.9349
C21A C -1.207(2) -0.4176(15) 0.7654(7)
H22A H -1.2569 -0.4559 0.7159
H23A H -1.0277 -0.4216 0.7736
H24A H -1.2855 -0.4740 0.7941
C22A C -1.388(4) -0.2007(18) 0.7667(12)
H25A H -1.3097 -0.1882 0.7244
H26A H -1.5438 -0.2536 0.7486
C23A C -1.281(4) -0.276(3) 0.7835(15)
H27A H -1.1190 -0.2262 0.7941
H28A H -1.3418 -0.2744 0.8299
loop_
_geom_bond_atom_site_label_1
_geom_bond_atom_site_label_2
_geom_bond_site_symmetry_1
_geom_bond_site_symmetry_2
C1 C2 1_555 1_555
C2 C8 1_555 1_555
C3 C1 1_555 1_555
C4 C1 1_555 1_555
H1 C4 1_555 1_555
C5 C6 1_555 1_555
C6 C4 1_555 1_555
H2 C6 1_555 1_555
C7 H3 1_555 1_555
C8 C7 1_555 1_555
H4 C8 1_555 1_555
C9 C10 1_555 1_555
C10 H5 1_555 1_555
C11 C3 1_555 1_555
H6 C11 1_555 1_555
N1 C9 1_555 1_555
C12 C5 1_555 1_555
H7 C12 1_555 1_555
C13 C5 1_555 1_555
H8 C13 1_555 1_555
C14 C7 1_555 1_555
H9 C14 1_555 1_555
C15 C9 1_555 1_555
H10 C15 1_555 1_555
C16 N1 1_555 1_555
H11 C16 1_555 1_555
H12 C16 1_555 1_555
C17 N1 1_555 1_555
H13 C17 1_555 1_555
H14 C17 1_555 1_555
C18 H15 1_555 1_555
H16 C18 1_555 1_555
C19 C18 1_555 1_555
H17 C19 1_555 1_555
H18 C19 1_555 1_555
H19 C19 1_555 1_555
C20 C16 1_555 1_555
H20 C20 1_555 1_555
H21 C20 1_555 1_555
C21 H22 1_555 1_555
H23 C21 1_555 1_555
H24 C21 1_555 1_555
C22 C17 1_555 1_555
H25 C22 1_555 1_555
H26 C22 1_555 1_555
C23 C21 1_555 1_555
H27 C23 1_555 1_555
H28 C23 1_555 1_555
C1A C2A 1_555 1_555
C2A C3 1_555 1_555
C3A C2 1_555 1_555
C4A C1A 1_555 1_555
H1A C4A 1_555 1_555
C5A C6A 1_555 1_555
C6A C4A 1_555 1_555
H2A C6A 1_555 1_555
C7A H3A 1_555 1_555
C8A C2A 1_555 1_555
H4A C8A 1_555 1_555
C9A C10A 1_555 1_555
C10A H5A 1_555 1_555
C11A C14 1_555 1_555
H6A C11A 1_555 1_555
N1A C9A 1_555 1_555
C12A C5A 1_555 1_555
H7A C12A 1_555 1_555
C13A C5A 1_555 1_555
H8A C13A 1_555 1_555
C14A C11 1_555 1_555
H9A C14A 1_555 1_555
C15A C9A 1_555 1_555
H10A C15A 1_555 1_555
C16A N1A 1_555 1_555
H11A C16A 1_555 1_555
H12A C16A 1_555 1_555
C17A N1A 1_555 1_555
H13A C17A 1_555 1_555
H14A C17A 1_555 1_555
C18A H15A 1_555 1_555
H16A C18A 1_555 1_555
C19A C18A 1_555 1_555
H17A C19A 1_555 1_555
H18A C19A 1_555 1_555
H19A C19A 1_555 1_555
C20A C16A 1_555 1_555
H20A C20A 1_555 1_555
H21A C20A 1_555 1_555
C21A H22A 1_555 1_555
H23A C21A 1_555 1_555
H24A C21A 1_555 1_555
C22A C17A 1_555 1_555
H25A C22A 1_555 1_555
H26A C22A 1_555 1_555
C23A C21A 1_555 1_555
H27A C23A 1_555 1_555
H28A C23A 1_555 1_555
C10 C12 1_555 1_555
C13 C15 1_555 1_555
C18 C20 1_555 1_555
C22 C23 1_555 1_555
C1A C3A 1_555 1_555
C3A C11A 1_555 1_555
C7A C8A 1_555 1_555
C7A C14A 1_555 1_555
C10A C12A 1_555 1_555
C13A C15A 1_555 1_555
C18A C20A 1_555 1_555
C22A C23A 1_555 1_555

#END
