
#######################################################################
#
#                 Cambridge Crystallographic Data Centre
#                                CCDC 
#
#######################################################################
#
# If this CIF has been generated from an entry in the Cambridge 
# Structural Database, then it will include bibliographic, chemical, 
# crystal, experimental, refinement or atomic coordinate data resulting 
# from the CCDC's data processing and validation procedures.
#
#######################################################################

data_PORGAF
_chemical_formula_moiety         'C11 H17 N3 O2'
_chemical_name_systematic        
3-Hydroxy-4-((4-methyl-1-piperazinyl)methyl)-2(1H)-pyridinone
_symmetry_cell_setting           triclinic
_symmetry_space_group_name_H-M   'P -1'
_symmetry_Int_Tables_number      2
_space_group_name_Hall           '-P 1'
loop_
_symmetry_equiv_pos_site_id
_symmetry_equiv_pos_as_xyz
1 x,y,z
2 -x,-y,-z
_cell_length_a                   4.704(2)
_cell_length_b                   6.049(2)
_cell_length_c                   20.849(9)
_cell_angle_alpha                97.79(3)
_cell_angle_beta                 94.58(5)
_cell_angle_gamma                98.06(4)
_cell_volume                     579.004
_exptl_crystal_colour            colorless
_exptl_crystal_description       irregular
_cell_formula_units_Z            2
loop_
_atom_site_label
_atom_site_type_symbol
_atom_site_fract_x
_atom_site_fract_y
_atom_site_fract_z
O1 O 0.2614(4) 0.2331(4) 0.00603(9)
O2 O 0.1846(5) -0.0978(4) 0.08706(9)
H1 H 0.0773 -0.0791 0.0547
N1 N 0.6704(5) 0.4122(4) 0.07172(11)
H2 H 0.6936 0.5150 0.0457
N2 N 0.6599(6) 0.0260(5) 0.27201(11)
N3 N 0.6138(6) 0.1193(5) 0.41036(11)
C1 C 0.4392(7) 0.2402(6) 0.05640(14)
C2 C 0.4080(7) 0.0787(6) 0.10090(14)
C3 C 0.5927(7) 0.0977(6) 0.15739(14)
C4 C 0.8293(7) 0.2812(5) 0.16855(14)
H3 H 0.9613 0.2978 0.2064
C5 C 0.8678(7) 0.4313(6) 0.12592(14)
H4 H 1.0289 0.5485 0.1332
C6 C 0.5436(7) -0.0701(6) 0.20402(13)
H5 H 0.3339 -0.1226 0.2027
H6 H 0.6369 -0.2028 0.1898
C7 C 0.6517(7) -0.1543(6) 0.31289(14)
H7 H 0.7671 -0.2691 0.2952
H8 H 0.4503 -0.2292 0.3124
C8 C 0.7732(7) -0.0559(6) 0.38276(14)
H9 H 0.7626 -0.1783 0.4100
H10 H 0.9788 0.0091 0.3834
C9 C 0.6169(7) 0.2958(6) 0.36824(14)
H11 H 0.8178 0.3702 0.3677
H12 H 0.5034 0.4116 0.3861
C10 C 0.4905(7) 0.1969(6) 0.29904(14)
H13 H 0.2873 0.1269 0.2992
H14 H 0.4940 0.3185 0.2716
C11 C 0.7460(8) 0.2159(6) 0.47657(14)
H15 H 0.7346 0.0975 0.5044
H16 H 0.6425 0.3363 0.4944
H17 H 0.9487 0.2781 0.4749
loop_
_geom_bond_atom_site_label_1
_geom_bond_atom_site_label_2
_geom_bond_site_symmetry_1
_geom_bond_site_symmetry_2
O1 C1 1_555 1_555
O2 H1 1_555 1_555
N1 H2 1_555 1_555
N2 C6 1_555 1_555
N3 C8 1_555 1_555
C1 N1 1_555 1_555
C2 O2 1_555 1_555
C3 C2 1_555 1_555
C4 C3 1_555 1_555
H3 C4 1_555 1_555
C5 N1 1_555 1_555
H4 C5 1_555 1_555
C6 C3 1_555 1_555
H5 C6 1_555 1_555
H6 C6 1_555 1_555
C7 N2 1_555 1_555
H7 C7 1_555 1_555
H8 C7 1_555 1_555
C8 C7 1_555 1_555
H9 C8 1_555 1_555
H10 C8 1_555 1_555
C9 N3 1_555 1_555
H11 C9 1_555 1_555
H12 C9 1_555 1_555
C10 N2 1_555 1_555
H13 C10 1_555 1_555
H14 C10 1_555 1_555
C11 N3 1_555 1_555
H15 C11 1_555 1_555
H16 C11 1_555 1_555
H17 C11 1_555 1_555
C1 C2 1_555 1_555
C4 C5 1_555 1_555
C9 C10 1_555 1_555

#END
