
#######################################################################
#
#                 Cambridge Crystallographic Data Centre
#                                CCDC 
#
#######################################################################
#
# If this CIF has been generated from an entry in the Cambridge 
# Structural Database, then it will include bibliographic, chemical, 
# crystal, experimental, refinement or atomic coordinate data resulting 
# from the CCDC's data processing and validation procedures.
#
#######################################################################

data_PORPIW
_chemical_formula_moiety         'C40 H35 N3 O2 S1'
_chemical_name_systematic        
"(Z,Z)-Methyl (1,3,4'-tribenzyl-2'-(phenylimino)-1,3-dihydrospiro(benzimidazole-2,3'-thiophen)-5'(4'H)-ylidene)acetate unknown solvate"
_symmetry_cell_setting           monoclinic
_symmetry_space_group_name_H-M   'C 2/c'
_symmetry_Int_Tables_number      15
_space_group_name_Hall           '-C 2yn'
loop_
_symmetry_equiv_pos_site_id
_symmetry_equiv_pos_as_xyz
1 x,y,z
2 -x,y,1/2-z
3 1/2+x,1/2+y,z
4 1/2-x,1/2+y,1/2-z
5 -x,-y,-z
6 x,-y,1/2+z
7 1/2-x,1/2-y,-z
8 1/2+x,1/2-y,1/2+z
_cell_length_a                   20.827(4)
_cell_length_b                   14.580(3)
_cell_length_c                   26.455(5)
_cell_angle_alpha                90
_cell_angle_beta                 111.30(3)
_cell_angle_gamma                90
_cell_volume                     7484.52
_exptl_crystal_colour            yellow
_exptl_crystal_description       prism
_chemical_melting_point          '125-126 deg.C'
_cell_formula_units_Z            8
_exptl_crystal_recrystallization_method 'ethyl acetate/ethanol/hexane'
loop_
_atom_site_label
_atom_site_type_symbol
_atom_site_fract_x
_atom_site_fract_y
_atom_site_fract_z
S1 S 0.23254(3) 0.27409(4) 0.24583(2)
N1 N 0.36769(8) 0.23129(11) 0.37738(6)
N2 N 0.34702(8) 0.38288(11) 0.38703(6)
N3 N 0.35780(9) 0.35827(12) 0.28218(6)
C1 C 0.43050(10) 0.27371(14) 0.40623(7)
C2 C 0.49617(10) 0.23843(16) 0.42762(8)
H1 H 0.5048 0.1770 0.4231
C3 C 0.54949(11) 0.29828(19) 0.45645(9)
H2 H 0.5944 0.2762 0.4714
C4 C 0.53686(12) 0.38832(19) 0.46303(9)
H3 H 0.5733 0.4263 0.4826
C5 C 0.47035(12) 0.42494(16) 0.44093(8)
H4 H 0.4620 0.4866 0.4451
C6 C 0.41783(10) 0.36637(14) 0.41277(7)
C7 C 0.31678(10) 0.30358(13) 0.35238(7)
C8 C 0.24371(10) 0.28035(14) 0.35103(7)
H5 H 0.2208 0.3393 0.3504
C9 C 0.20452(10) 0.23458(15) 0.29732(7)
C10 C 0.30980(10) 0.32021(13) 0.29274(7)
C11 C 0.36628(12) 0.14603(14) 0.34804(8)
H6 H 0.3997 0.1505 0.3304
H7 H 0.3211 0.1395 0.3198
C12 C 0.38153(10) 0.06065(14) 0.38275(8)
C13 C 0.38538(13) -0.02235(16) 0.35839(10)
H8 H 0.3800 -0.0236 0.3219
C14 C 0.39708(16) -0.10354(18) 0.38766(14)
H9 H 0.3992 -0.1588 0.3708
C15 C 0.40543(15) -0.1020(2) 0.44091(14)
H10 H 0.4132 -0.1565 0.4605
C16 C 0.40253(14) -0.0206(2) 0.46617(11)
H11 H 0.4087 -0.0202 0.5028
C17 C 0.39034(12) 0.06130(17) 0.43719(9)
H12 H 0.3881 0.1163 0.4543
C18 C 0.32263(12) 0.47469(14) 0.36752(8)
H13 H 0.2852 0.4692 0.3327
H14 H 0.3597 0.5077 0.3617
C19 C 0.29781(11) 0.53070(14) 0.40474(8)
C20 C 0.29232(15) 0.62495(17) 0.39781(11)
H15 H 0.3079 0.6528 0.3728
C21 C 0.26391(17) 0.67828(19) 0.42773(12)
H16 H 0.2604 0.7415 0.4227
C22 C 0.24079(16) 0.6371(2) 0.46503(12)
H17 H 0.2206 0.6722 0.4846
C23 C 0.24767(14) 0.5450(2) 0.47302(10)
H18 H 0.2330 0.5175 0.4987
C24 C 0.27641(12) 0.49159(16) 0.44330(8)
H19 H 0.2813 0.4287 0.4495
C25 C 0.24424(10) 0.23093(15) 0.40201(8)
H20 H 0.2548 0.1669 0.3989
H21 H 0.2816 0.2560 0.4327
C26 C 0.17888(11) 0.23519(15) 0.41492(8)
C27 C 0.13979(14) 0.31299(19) 0.40907(12)
H22 H 0.1519 0.3657 0.3948
C28 C 0.08238(16) 0.3144(2) 0.42406(15)
H23 H 0.0565 0.3678 0.4195
C29 C 0.06352(14) 0.2386(2) 0.44541(11)
H24 H 0.0250 0.2397 0.4553
C30 C 0.10180(17) 0.1618(2) 0.45194(12)
H25 H 0.0899 0.1098 0.4669
C31 C 0.15907(14) 0.15956(19) 0.43653(11)
H26 H 0.1844 0.1056 0.4410
C32 C 0.35222(10) 0.37201(14) 0.22752(8)
C33 C 0.40319(12) 0.33683(17) 0.21139(9)
H27 H 0.4391 0.3031 0.2357
C34 C 0.40114(14) 0.35148(19) 0.15920(10)
H28 H 0.4354 0.3272 0.1484
C35 C 0.34909(14) 0.40135(19) 0.12352(9)
H29 H 0.3478 0.4111 0.0884
C36 C 0.29866(14) 0.43714(19) 0.13931(10)
H30 H 0.2631 0.4710 0.1148
C37 C 0.30015(12) 0.42344(17) 0.19148(9)
H31 H 0.2661 0.4489 0.2022
C38 C 0.15316(11) 0.17502(16) 0.28824(8)
H32 H 0.1422 0.1552 0.3175
C39 C 0.11314(11) 0.13934(16) 0.23410(9)
C40 C 0.01872(13) 0.0463(2) 0.18418(10)
H33 H -0.0146 0.0065 0.1901
H34 H 0.0454 0.0122 0.1677
H35 H -0.0046 0.0956 0.1606
O1 O 0.12245(10) 0.15915(15) 0.19307(7)
O2 O 0.06374(8) 0.08311(12) 0.23534(6)
loop_
_geom_bond_atom_site_label_1
_geom_bond_atom_site_label_2
_geom_bond_site_symmetry_1
_geom_bond_site_symmetry_2
S1 C9 1_555 1_555
N1 C1 1_555 1_555
N2 C6 1_555 1_555
N3 C10 1_555 1_555
C1 C2 1_555 1_555
C2 H1 1_555 1_555
C3 C2 1_555 1_555
H2 C3 1_555 1_555
C4 C3 1_555 1_555
H3 C4 1_555 1_555
C5 C4 1_555 1_555
H4 C5 1_555 1_555
C6 C1 1_555 1_555
C7 N1 1_555 1_555
C8 C7 1_555 1_555
H5 C8 1_555 1_555
C9 C8 1_555 1_555
C10 S1 1_555 1_555
C11 N1 1_555 1_555
H6 C11 1_555 1_555
H7 C11 1_555 1_555
C12 C11 1_555 1_555
C13 C12 1_555 1_555
H8 C13 1_555 1_555
C14 C13 1_555 1_555
H9 C14 1_555 1_555
C15 C14 1_555 1_555
H10 C15 1_555 1_555
C16 C15 1_555 1_555
H11 C16 1_555 1_555
C17 C12 1_555 1_555
H12 C17 1_555 1_555
C18 N2 1_555 1_555
H13 C18 1_555 1_555
H14 C18 1_555 1_555
C19 C18 1_555 1_555
C20 C19 1_555 1_555
H15 C20 1_555 1_555
C21 C20 1_555 1_555
H16 C21 1_555 1_555
C22 C21 1_555 1_555
H17 C22 1_555 1_555
C23 C22 1_555 1_555
H18 C23 1_555 1_555
C24 C19 1_555 1_555
H19 C24 1_555 1_555
C25 C8 1_555 1_555
H20 C25 1_555 1_555
H21 C25 1_555 1_555
C26 C25 1_555 1_555
C27 C26 1_555 1_555
H22 C27 1_555 1_555
C28 C27 1_555 1_555
H23 C28 1_555 1_555
C29 C28 1_555 1_555
H24 C29 1_555 1_555
C30 C29 1_555 1_555
H25 C30 1_555 1_555
C31 C26 1_555 1_555
H26 C31 1_555 1_555
C32 N3 1_555 1_555
C33 C32 1_555 1_555
H27 C33 1_555 1_555
C34 C33 1_555 1_555
H28 C34 1_555 1_555
C35 C34 1_555 1_555
H29 C35 1_555 1_555
C36 C35 1_555 1_555
H30 C36 1_555 1_555
C37 C32 1_555 1_555
H31 C37 1_555 1_555
C38 C9 1_555 1_555
H32 C38 1_555 1_555
C39 C38 1_555 1_555
C40 H33 1_555 1_555
H34 C40 1_555 1_555
H35 C40 1_555 1_555
O1 C39 1_555 1_555
O2 C39 1_555 1_555
N2 C7 1_555 1_555
C5 C6 1_555 1_555
C7 C10 1_555 1_555
C16 C17 1_555 1_555
C23 C24 1_555 1_555
C30 C31 1_555 1_555
C36 C37 1_555 1_555
C40 O2 1_555 1_555

#END
