
#######################################################################
#
#                 Cambridge Crystallographic Data Centre
#                                CCDC 
#
#######################################################################
#
# If this CIF has been generated from an entry in the Cambridge 
# Structural Database, then it will include bibliographic, chemical, 
# crystal, experimental, refinement or atomic coordinate data resulting 
# from the CCDC's data processing and validation procedures.
#
#######################################################################

data_PORQAP
_chemical_formula_moiety         'C36 H35 N3 O2 S1,C3 H6 O1'
_chemical_name_systematic        
"(Z,Z)-Methyl 2-(1,3,4'-tribenzyl-2'-(phenylimino)-4',5'-dihydro-2'H-spiro(imidazolidine-2,3'-thiophene)-5'-ylidene)acetate acetone solvate"
_symmetry_cell_setting           monoclinic
_symmetry_space_group_name_H-M   'P 21/a'
_symmetry_Int_Tables_number      14
_space_group_name_Hall           '-P 2yab'
loop_
_symmetry_equiv_pos_site_id
_symmetry_equiv_pos_as_xyz
1 x,y,z
2 1/2-x,1/2+y,-z
3 -x,-y,-z
4 1/2+x,1/2-y,z
_cell_length_a                   19.773(2)
_cell_length_b                   9.6285(8)
_cell_length_c                   20.595(2)
_cell_angle_alpha                90
_cell_angle_beta                 118.257(3)
_cell_angle_gamma                90
_cell_volume                     3453.72
_exptl_crystal_colour            colorless
_exptl_crystal_description       block
_chemical_melting_point          '101-102 deg.C'
_cell_formula_units_Z            4
_exptl_crystal_recrystallization_method 'ethyl acetate/hexane'
loop_
_atom_site_label
_atom_site_type_symbol
_atom_site_fract_x
_atom_site_fract_y
_atom_site_fract_z
S1 S 0.26816(4) 0.76716(7) 0.16434(4)
O1 O 0.12406(12) 0.7467(2) 0.03847(11)
O2 O 0.01875(13) 0.8463(3) 0.03282(12)
N1 N 0.38594(14) 0.9690(2) 0.35465(12)
N2 N 0.29645(13) 0.8174(2) 0.35130(12)
N3 N 0.40495(13) 0.7148(2) 0.28599(12)
C1 C 0.34229(16) 0.7835(3) 0.25750(15)
C2 C 0.32108(16) 0.8870(3) 0.30233(14)
C3 C 0.25796(17) 0.9820(3) 0.24442(15)
H1 H 0.2856 1.0531 0.2304
C4 C 0.21147(17) 0.8964(3) 0.17553(15)
C5 C 0.40964(12) 0.6104(3) 0.23544(10)
C6 C 0.38705(15) 0.4741(3) 0.23663(14)
H2 H 0.3687 0.4479 0.2699
C7 C 0.39138(18) 0.3763(3) 0.18911(16)
H3 H 0.3759 0.2831 0.1899
C8 C 0.4183(2) 0.4147(3) 0.14040(14)
H4 H 0.4213 0.3478 0.1079
C9 C 0.4409(3) 0.5510(4) 0.13922(16)
H5 H 0.4593 0.5772 0.1059
C10 C 0.4366(2) 0.6488(3) 0.18673(15)
H6 H 0.4520 0.7420 0.1859
C11 C 0.42416(17) 0.8914(3) 0.42431(15)
H7 H 0.4348 0.9526 0.4667
H8 H 0.4731 0.8510 0.4311
C12 C 0.36789(17) 0.7776(3) 0.41729(16)
H9 H 0.3862 0.6857 0.4106
H10 H 0.3602 0.7745 0.4614
C13 C 0.43811(18) 1.0263(3) 0.33095(15)
H11 H 0.4131 1.0332 0.2782
H12 H 0.4820 0.9667 0.3463
C14 C 0.4642(3) 1.1736(2) 0.36635(13)
C15 C 0.5307(4) 1.2255(6) 0.36808(12)
H13 H 0.5574 1.1718 0.3488
C16 C 0.5580(5) 1.3558(6) 0.39808(15)
H14 H 0.6034 1.3912 0.3993
C17 C 0.5190(5) 1.4342(3) 0.4263(2)
H15 H 0.5377 1.5233 0.4469
C18 C 0.4525(4) 1.3824(4) 0.4246(3)
H16 H 0.4258 1.4360 0.4439
C19 C 0.4251(3) 1.2521(4) 0.3946(3)
H17 H 0.3797 1.2167 0.3934
C20 C 0.24055(16) 0.7009(3) 0.31918(16)
H18 H 0.2634 0.6263 0.3054
H19 H 0.1956 0.7318 0.2760
C21 C 0.21968(16) 0.6520(3) 0.37626(12)
C22 C 0.1758(3) 0.7364(3) 0.3966(3)
H20 H 0.1589 0.8246 0.3739
C23 C 0.1567(4) 0.6918(4) 0.4500(3)
H21 H 0.1267 0.7495 0.4639
C24 C 0.1814(3) 0.5628(5) 0.48312(16)
H22 H 0.1684 0.5323 0.5196
C25 C 0.2253(2) 0.4784(5) 0.4628(2)
H23 H 0.2423 0.3902 0.4855
C26 C 0.24446(18) 0.5230(4) 0.4094(2)
H24 H 0.2745 0.4653 0.3955
C27 C 0.21300(18) 1.0631(3) 0.27527(15)
H25 H 0.1712 1.0028 0.2725
H26 H 0.2478 1.0819 0.3281
C28 C 0.17766(18) 1.2010(3) 0.23762(15)
C29 C 0.21211(19) 1.2876(3) 0.2084(2)
H27 H 0.2585 1.2594 0.2091
C30 C 0.1797(2) 1.4166(3) 0.1776(2)
H28 H 0.2038 1.4744 0.1571
C31 C 0.1126(2) 1.4593(4) 0.17705(19)
H29 H 0.0907 1.5468 0.1566
C32 C 0.0776(2) 1.3743(4) 0.20635(17)
H30 H 0.0317 1.4036 0.2063
C33 C 0.1097(2) 1.2453(3) 0.23611(16)
H31 H 0.0849 1.1869 0.2556
C34 C 0.13689(18) 0.9157(4) 0.12806(16)
H32 H 0.1102 0.9888 0.1372
C35 C 0.09492(18) 0.8283(4) 0.06257(16)
C36 C -0.0272(2) 0.7581(5) -0.02900(19)
H33 H -0.0143 0.7753 -0.0687
H34 H -0.0817 0.7784 -0.0466
H35 H -0.0170 0.6606 -0.0137
O3 O 0.3624(2) 0.0602(4) 0.13996(17)
C37 C 0.2486(3) 0.0785(7) 0.0291(3)
H36 H 0.2313 0.1320 0.0589
H37 H 0.2152 -0.0024 0.0080
H38 H 0.2464 0.1370 -0.0108
C38 C 0.3268(2) 0.0324(4) 0.07504(19)
C39 C 0.3676(3) -0.0509(4) 0.0461(3)
H39 H 0.4179 -0.0772 0.0865
H40 H 0.3747 0.0031 0.0094
H41 H 0.3379 -0.1348 0.0230
C40? C 0.4765(2) 0.6988(3) 0.2183(2)
C41? C 0.4809(3) 1.1624(3) 0.36138(11)
C42? C 0.5531(4) 1.1912(7) 0.36879(15)
C43? C 0.5877(5) 1.3186(8) 0.39690(17)
C44? C 0.5502(5) 1.4171(5) 0.41760(17)
C45? C 0.4780(5) 1.3882(2) 0.4102(2)
C46? C 0.4433(3) 1.2609(3) 0.3821(2)
C47? C 0.20844(17) 0.6678(3) 0.37256(13)
C48? C 0.1462(3) 0.7436(3) 0.3674(3)
C49? C 0.1164(3) 0.7157(4) 0.4150(4)
C50? C 0.1488(3) 0.6119(5) 0.4679(2)
C51? C 0.2110(2) 0.5361(5) 0.47307(15)
C52? C 0.24080(15) 0.5641(4) 0.42541(16)
C53? C 0.42769(13) 0.6408(2) 0.24213(11)
C54? C 0.40058(12) 0.5062(3) 0.22170(10)
C55? C 0.42224(17) 0.4294(3) 0.17739(13)
C56? C 0.4710(2) 0.4874(4) 0.15351(19)
C57? C 0.4981(3) 0.6220(4) 0.1739(3)
H42? H 0.4950 0.7908 0.2322
H43? H 0.4096 1.0366 0.2784
H44? H 0.4764 0.9566 0.3405
H45? H 0.5787 1.1239 0.3546
H46? H 0.6371 1.3383 0.4020
H47? H 0.5739 1.5041 0.4368
H48? H 0.4523 1.4556 0.4243
H49? H 0.3940 1.2412 0.3770
H50? H 0.2658 0.6206 0.3131
H51? H 0.1997 0.7271 0.2718
H52? H 0.1241 0.8145 0.3312
H53? H 0.0739 0.7675 0.4115
H54? H 0.1284 0.5929 0.5004
H55? H 0.2331 0.4653 0.5092
H56? H 0.2833 0.5123 0.4290
H57? H 0.3672 0.4665 0.2380
H58? H 0.4037 0.3374 0.1634
H59? H 0.4858 0.4349 0.1232
H60? H 0.5314 0.6616 0.1576
loop_
_geom_bond_atom_site_label_1
_geom_bond_atom_site_label_2
_geom_bond_site_symmetry_1
_geom_bond_site_symmetry_2
S1 C1 1_555 1_555
O1 C35 1_555 1_555
O2 C35 1_555 1_555
O3 C38 1_555 1_555
N1 C2 1_555 1_555
N2 C2 1_555 1_555
N3 C1 1_555 1_555
C1 C2 1_555 1_555
C2 C3 1_555 1_555
C3 H1 1_555 1_555
C4 S1 1_555 1_555
C5 N3 1_555 1_555
C6 C5 1_555 1_555
H2 C6 1_555 1_555
C7 C6 1_555 1_555
H3 C7 1_555 1_555
C8 C7 1_555 1_555
H4 C8 1_555 1_555
C9 C8 1_555 1_555
H5 C9 1_555 1_555
C10 C5 1_555 1_555
H6 C10 1_555 1_555
C11 N1 1_555 1_555
H7 C11 1_555 1_555
H8 C11 1_555 1_555
C12 N2 1_555 1_555
H9 C12 1_555 1_555
H10 C12 1_555 1_555
C13 N1 1_555 1_555
H11 C13 1_555 1_555
H12 C13 1_555 1_555
C14 C13 1_555 1_555
C15 C14 1_555 1_555
H13 C15 1_555 1_555
C16 C15 1_555 1_555
H14 C16 1_555 1_555
C17 C16 1_555 1_555
H15 C17 1_555 1_555
C18 C17 1_555 1_555
H16 C18 1_555 1_555
C19 C14 1_555 1_555
H17 C19 1_555 1_555
C20 N2 1_555 1_555
H18 C20 1_555 1_555
H19 C20 1_555 1_555
C21 C20 1_555 1_555
C22 C21 1_555 1_555
H20 C22 1_555 1_555
C23 C22 1_555 1_555
H21 C23 1_555 1_555
C24 C23 1_555 1_555
H22 C24 1_555 1_555
C25 C24 1_555 1_555
H23 C25 1_555 1_555
C26 C21 1_555 1_555
H24 C26 1_555 1_555
C27 C3 1_555 1_555
H25 C27 1_555 1_555
H26 C27 1_555 1_555
C28 C27 1_555 1_555
C29 C28 1_555 1_555
H27 C29 1_555 1_555
C30 C29 1_555 1_555
H28 C30 1_555 1_555
C31 C30 1_555 1_555
H29 C31 1_555 1_555
C32 C31 1_555 1_555
H30 C32 1_555 1_555
C33 C28 1_555 1_555
H31 C33 1_555 1_555
C34 C4 1_555 1_555
H32 C34 1_555 1_555
C35 C34 1_555 1_555
C36 O2 1_555 1_555
H33 C36 1_555 1_555
H34 C36 1_555 1_555
H35 C36 1_555 1_555
C37 H36 1_555 1_555
H37 C37 1_555 1_555
H38 C37 1_555 1_555
C38 C37 1_555 1_555
C39 C38 1_555 1_555
H39 C39 1_555 1_555
H40 C39 1_555 1_555
H41 C39 1_555 1_555
C3 C4 1_555 1_555
C9 C10 1_555 1_555
C11 C12 1_555 1_555
C18 C19 1_555 1_555
C25 C26 1_555 1_555
C32 C33 1_555 1_555

#END
