
#######################################################################
#
#                 Cambridge Crystallographic Data Centre
#                                CCDC 
#
#######################################################################
#
# If this CIF has been generated from an entry in the Cambridge 
# Structural Database, then it will include bibliographic, chemical, 
# crystal, experimental, refinement or atomic coordinate data resulting 
# from the CCDC's data processing and validation procedures.
#
#######################################################################

data_PORVAU
_chemical_formula_moiety         'C6 H8 N1 1+,C6 N4 1-'
_chemical_name_systematic        'N-Methylpyridinium tetracyanoethylenide'
_symmetry_cell_setting           monoclinic
_symmetry_space_group_name_H-M   'P 21/n'
_symmetry_Int_Tables_number      14
_space_group_name_Hall           '-P 2yn'
loop_
_symmetry_equiv_pos_site_id
_symmetry_equiv_pos_as_xyz
1 x,y,z
2 1/2-x,1/2+y,1/2-z
3 -x,-y,-z
4 1/2+x,1/2-y,1/2+z
_cell_length_a                   6.8018(1)
_cell_length_b                   10.1299(3)
_cell_length_c                   16.5594(4)
_cell_angle_alpha                90
_cell_angle_beta                 95.4264(17)
_cell_angle_gamma                90
_cell_volume                     1135.86
_exptl_crystal_colour            red
_exptl_crystal_description       prism
_cell_formula_units_Z            4
_chemical_properties_physical    'air- and moisture-sensitive'
_exptl_crystal_recrystallization_method acetonitrile
loop_
_atom_site_label
_atom_site_type_symbol
_atom_site_fract_x
_atom_site_fract_y
_atom_site_fract_z
N1 N 0.08708(15) 0.52884(11) 0.20628(6)
N2 N 0.27227(14) 0.78648(10) 0.01297(6)
N3 N 0.35756(13) 0.46565(9) -0.12404(6)
N4 N 0.21165(16) 0.21457(10) 0.08267(6)
C1 C 0.12754(14) 0.54274(10) 0.14086(6)
C2 C 0.17615(14) 0.55549(10) 0.05969(6)
C3 C 0.22697(14) 0.68352(10) 0.03385(6)
C4 C 0.21544(14) 0.44138(10) 0.01380(6)
C5 C 0.29401(13) 0.45315(9) -0.06228(6)
C6 C 0.21328(14) 0.31467(10) 0.05002(6)
N5 N 0.69750(14) 0.31159(8) 0.27072(5)
C7 C 0.51302(16) 0.35880(11) 0.27207(7)
C8 C 0.46509(17) 0.43589(11) 0.33529(7)
C9 C 0.60758(19) 0.46446(11) 0.39742(7)
C10 C 0.79581(19) 0.41545(12) 0.39528(7)
C11 C 0.83818(17) 0.33915(11) 0.33092(7)
C12 C 0.7452(3) 0.22673(14) 0.20272(8)
H1 H 0.4203(19) 0.3359(13) 0.2267(8)
H2 H 0.334(2) 0.4715(14) 0.3346(8)
H3 H 0.581(2) 0.5198(14) 0.4411(9)
H4 H 0.900(2) 0.4323(14) 0.4365(9)
H5 H 0.964(2) 0.3021(14) 0.3253(8)
H6 H 0.782(4) 0.137(2) 0.2270(14)
H7 H 0.621(4) 0.226(2) 0.1603(14)
H8 H 0.864(4) 0.261(3) 0.1819(15)
H9? H 0.669(6) 0.141(4) 0.201(2)
H10? H 0.732(7) 0.272(4) 0.154(3)
H11? H 0.892(7) 0.196(5) 0.219(3)
loop_
_geom_bond_atom_site_label_1
_geom_bond_atom_site_label_2
_geom_bond_site_symmetry_1
_geom_bond_site_symmetry_2
N1 C1 1_555 1_555
N2 C3 1_555 1_555
N3 C5 1_555 1_555
N4 C6 1_555 1_555
N5 C7 1_555 1_555
C1 C2 1_555 1_555
C2 C3 1_555 1_555
C4 C2 1_555 1_555
C5 C4 1_555 1_555
C6 C4 1_555 1_555
C7 C8 1_555 1_555
C8 C9 1_555 1_555
C9 C10 1_555 1_555
C10 C11 1_555 1_555
C11 N5 1_555 1_555
C12 N5 1_555 1_555
H1 C7 1_555 1_555
H2 C8 1_555 1_555
H3 C9 1_555 1_555
H4 C10 1_555 1_555
H5 C11 1_555 1_555
H6 C12 1_555 1_555
H7 C12 1_555 1_555
H8 C12 1_555 1_555

#END
