
#######################################################################
#
#                 Cambridge Crystallographic Data Centre
#                                CCDC 
#
#######################################################################
#
# If this CIF has been generated from an entry in the Cambridge 
# Structural Database, then it will include bibliographic, chemical, 
# crystal, experimental, refinement or atomic coordinate data resulting 
# from the CCDC's data processing and validation procedures.
#
#######################################################################

data_POTPIZ
_chemical_formula_moiety         'C10 H9 N2 1+,C16 H9 O9 1-'
_chemical_name_systematic        
"4,4'-Bipyridinium 2-carboxy-6-(3,5-dicarboxyphenoxy)benzoate"
_symmetry_cell_setting           triclinic
_symmetry_space_group_name_H-M   'P -1'
_symmetry_Int_Tables_number      2
_space_group_name_Hall           '-P 1'
loop_
_symmetry_equiv_pos_site_id
_symmetry_equiv_pos_as_xyz
1 x,y,z
2 -x,-y,-z
_cell_length_a                   9.842(4)
_cell_length_b                   10.672(4)
_cell_length_c                   11.177(5)
_cell_angle_alpha                103.183(7)
_cell_angle_beta                 92.187(6)
_cell_angle_gamma                100.528(6)
_cell_volume                     1119.87
_exptl_crystal_colour            colorless
_exptl_crystal_description       block
_cell_formula_units_Z            2
loop_
_atom_site_label
_atom_site_type_symbol
_atom_site_fract_x
_atom_site_fract_y
_atom_site_fract_z
C1 C 0.18458(16) 0.89868(14) 0.34402(14)
C2 C 0.18365(17) 1.02513(15) 0.41635(15)
C3 C 0.07271(18) 1.08561(16) 0.40065(16)
H1 H 0.0742 1.1703 0.4467
C4 C -0.03944(18) 1.02172(16) 0.31779(16)
H2 H -0.1146 1.0619 0.3104
C5 C -0.03990(18) 0.89770(16) 0.24562(16)
H3 H -0.1153 0.8539 0.1896
C6 C 0.07261(17) 0.83942(14) 0.25741(14)
C7 C 0.05828(17) 0.60456(15) 0.19451(14)
C8 C 0.12328(17) 0.51281(15) 0.12369(14)
H4 H 0.1785 0.5355 0.0633
C9 C 0.10643(17) 0.38733(15) 0.14238(14)
C10 C 0.02357(17) 0.35340(15) 0.23240(15)
H5 H 0.0130 0.2696 0.2462
C11 C -0.04354(16) 0.44594(15) 0.30181(14)
C12 C -0.02689(16) 0.57225(15) 0.28260(14)
H6 H -0.0724 0.6337 0.3284
C13 C -0.13416(17) 0.41505(16) 0.39961(15)
C14 C 0.18301(19) 0.29280(16) 0.06551(15)
C15 C 0.30667(16) 0.83033(15) 0.34831(14)
C16 C 0.29905(18) 1.09957(16) 0.50980(16)
O1 O 0.32969(18) 1.21722(14) 0.53747(17)
O2 O 0.36442(13) 1.02416(12) 0.55956(12)
H7 H 0.4320 1.0695 0.6042
O3 O 0.40904(12) 0.86677(12) 0.29393(11)
O4 O 0.29497(12) 0.73820(11) 0.40290(11)
O5 O 0.08216(13) 0.72662(10) 0.16781(10)
O6 O -0.19789(16) 0.49222(13) 0.45541(13)
O7 O -0.13689(14) 0.29810(11) 0.41945(12)
H8 H -0.1849 0.2889 0.4764
O8 O 0.15481(16) 0.17517(12) 0.08563(13)
H9 H 0.2044 0.1294 0.0466
O9 O 0.26265(14) 0.32394(12) -0.00759(12)
C17 C 0.4718(2) 0.43875(19) 0.7696(2)
H10 H 0.4473 0.3593 0.7918
C18 C 0.4171(2) 0.54409(17) 0.82594(18)
H11 H 0.3563 0.5359 0.8866
C19 C 0.45204(17) 0.66323(16) 0.79296(15)
C20 C 0.5430(2) 0.6687(2) 0.70205(19)
H12 H 0.5686 0.7462 0.6766
C21 C 0.5957(2) 0.5600(2) 0.6492(2)
H13 H 0.6573 0.5646 0.5885
C22 C 0.3669(2) 1.00074(19) 0.87287(19)
H14 H 0.3896 1.0781 0.8467
C23 C 0.4227(2) 0.8955(2) 0.8167(2)
H15 H 0.4810 0.9035 0.7542
C24 C 0.39424(17) 0.77970(15) 0.85117(15)
C25 C 0.2881(4) 0.7721(3) 0.9278(3)
H16 H 0.2519 0.6921 0.9453
C26 C 0.2345(5) 0.8811(4) 0.9789(5)
H17 H 0.1609 0.8718 1.0281
N1 N 0.55930(18) 0.44929(16) 0.68392(16)
H18 H 0.5960 0.3730 0.6406
N2 N 0.28414(16) 0.99823(14) 0.96038(13)
C27? C 0.3531(2) 0.79199(19) 0.9738(2)
H19? H 0.3604 0.7288 1.0175
C28? C 0.3016(10) 0.9035(8) 1.0240(7)
H20? H 0.2774 0.9157 1.1049
loop_
_geom_bond_atom_site_label_1
_geom_bond_atom_site_label_2
_geom_bond_site_symmetry_1
_geom_bond_site_symmetry_2
C1 C2 1_555 1_555
C2 C3 1_555 1_555
C3 H1 1_555 1_555
C4 C3 1_555 1_555
H2 C4 1_555 1_555
C5 C4 1_555 1_555
H3 C5 1_555 1_555
C6 C1 1_555 1_555
C7 C8 1_555 1_555
C8 H4 1_555 1_555
C9 C8 1_555 1_555
C10 C9 1_555 1_555
H5 C10 1_555 1_555
C11 C10 1_555 1_555
C12 C7 1_555 1_555
H6 C12 1_555 1_555
C13 C11 1_555 1_555
C14 C9 1_555 1_555
C15 C1 1_555 1_555
C16 C2 1_555 1_555
O1 C16 1_555 1_555
O2 C16 1_555 1_555
H7 O2 1_555 1_555
O3 C15 1_555 1_555
O4 C15 1_555 1_555
O5 C6 1_555 1_555
O6 C13 1_555 1_555
O7 C13 1_555 1_555
H8 O7 1_555 1_555
O8 C14 1_555 1_555
H9 O8 1_555 1_555
O9 C14 1_555 1_555
C17 H10 1_555 1_555
C18 C17 1_555 1_555
H11 C18 1_555 1_555
C19 C18 1_555 1_555
C20 C19 1_555 1_555
H12 C20 1_555 1_555
C21 C20 1_555 1_555
H13 C21 1_555 1_555
C22 H14 1_555 1_555
C23 C22 1_555 1_555
H15 C23 1_555 1_555
C24 C19 1_555 1_555
C25 C24 1_555 1_555
H16 C25 1_555 1_555
C26 C25 1_555 1_555
H17 C26 1_555 1_555
N1 C17 1_555 1_555
H18 N1 1_555 1_555
N2 C22 1_555 1_555
C5 C6 1_555 1_555
C7 O5 1_555 1_555
C11 C12 1_555 1_555
C21 N1 1_555 1_555
C23 C24 1_555 1_555
C26 N2 1_555 1_555

#END
