
#######################################################################
#
#                 Cambridge Crystallographic Data Centre
#                                CCDC 
#
#######################################################################
#
# If this CIF has been generated from an entry in the Cambridge 
# Structural Database, then it will include bibliographic, chemical, 
# crystal, experimental, refinement or atomic coordinate data resulting 
# from the CCDC's data processing and validation procedures.
#
#######################################################################

data_POVGUE
_chemical_formula_moiety         'C17 H14 F3 N3 O2 S1,C10 H8 N2,0.5(C4 H8 O1)'
_chemical_name_systematic        
"4-(5-(4-methylphenyl)-3-(trifluoromethyl)-1H-pyrazol-1-yl)benzenesulfonamide 4,4'-bipyridine tetrahydrofuran solvate"
_symmetry_cell_setting           monoclinic
_symmetry_space_group_name_H-M   'C 2/c'
_symmetry_Int_Tables_number      15
_space_group_name_Hall           '-C 2yn'
loop_
_symmetry_equiv_pos_site_id
_symmetry_equiv_pos_as_xyz
1 x,y,z
2 -x,y,1/2-z
3 1/2+x,1/2+y,z
4 1/2-x,1/2+y,1/2-z
5 -x,-y,-z
6 x,-y,1/2+z
7 1/2-x,1/2-y,-z
8 1/2+x,1/2-y,1/2+z
_cell_length_a                   21.952(4)
_cell_length_b                   9.4776(17)
_cell_length_c                   27.112(4)
_cell_angle_alpha                90
_cell_angle_beta                 92.885(12)
_cell_angle_gamma                90
_cell_volume                     5633.56
_cell_formula_units_Z            8
loop_
_atom_site_label
_atom_site_type_symbol
_atom_site_fract_x
_atom_site_fract_y
_atom_site_fract_z
H1 H 1.1287(16) 0.422(4) 0.1831(14)
S1 S 1.06967(4) 0.29066(10) 0.13672(3)
F1 F 0.67199(15) 0.5334(6) 0.29637(10)
O1 O 1.06216(10) 0.2873(3) 0.08406(8)
O2 O 1.08868(10) 0.1667(3) 0.16311(9)
N1 N 0.82409(10) 0.4473(3) 0.20173(8)
N2 N 1.11679(13) 0.4116(4) 0.15002(12)
N3 N 0.81335(11) 0.4474(3) 0.25052(9)
F2 F 0.73554(17) 0.3984(4) 0.32835(11)
C1 C 0.99766(12) 0.3399(3) 0.15789(10)
C2 C 0.96916(13) 0.4593(3) 0.13888(11)
H2 H 0.9884 0.5150 0.1161
C3 C 0.91214(13) 0.4960(3) 0.15378(11)
H3 H 0.8929 0.5768 0.1414
C4 C 0.88411(12) 0.4120(3) 0.18707(10)
C5 C 0.77394(13) 0.4878(3) 0.17310(11)
C6 C 0.77062(13) 0.4904(3) 0.11877(11)
C7 C 0.79275(14) 0.3819(4) 0.09102(12)
H4 H 0.8113 0.3048 0.1068
C8 C 0.78779(15) 0.3862(4) 0.03999(12)
H5 H 0.8036 0.3123 0.0220
C9 C 0.75994(15) 0.4975(4) 0.01523(12)
C10 C 0.7554(2) 0.5019(5) -0.04091(13)
H6 H 0.7887 0.5561 -0.0526
H7 H 0.7175 0.5448 -0.0519
H8 H 0.7572 0.4076 -0.0537
C11 C 0.96996(13) 0.2581(3) 0.19216(10)
H9 H 0.9896 0.1785 0.2052
C12 C 0.91254(13) 0.2947(3) 0.20717(10)
H10 H 0.8936 0.2406 0.2305
C13 C 0.75585(15) 0.4891(4) 0.25178(12)
C14 C 0.72949(14) 0.5168(4) 0.20518(11)
H11 H 0.6900 0.5484 0.1974
C15 C 0.73685(16) 0.6038(4) 0.04320(12)
H12 H 0.7172 0.6794 0.0274
C16 C 0.74190(14) 0.6017(4) 0.09396(11)
H13 H 0.7259 0.6756 0.1118
C17 C 0.7271(2) 0.4979(7) 0.29963(16)
F3 F 0.7529(3) 0.6001(6) 0.32741(15)
H14 H 1.1116(16) 0.493(4) 0.1346(14)
N4 N 0.92304(19) -0.1857(4) 0.10033(14)
N5 N 0.90676(15) 0.3481(4) -0.08307(12)
C18 C 0.92763(18) 0.3742(5) -0.03726(15)
H15 H 0.9389 0.4663 -0.0292
C19 C 0.93362(17) 0.2734(4) -0.00091(13)
H16 H 0.9487 0.2983 0.0306
C20 C 0.91744(13) 0.1362(4) -0.01094(11)
C21 C 0.92095(14) 0.0252(4) 0.02756(12)
C22 C 0.9258(2) 0.0568(4) 0.07686(13)
H17 H 0.9287 0.1502 0.0872
C23 C 0.9265(2) -0.0501(6) 0.11097(16)
H18 H 0.9297 -0.0250 0.1442
C24 C 0.9168(2) -0.2136(5) 0.05294(18)
H19 H 0.9129 -0.3078 0.0437
C25 C 0.91578(18) -0.1148(5) 0.01579(14)
H20 H 0.9116 -0.1428 -0.0171
C26 C 0.8925(2) 0.2164(6) -0.09294(15)
H21 H 0.8785 0.1944 -0.1250
C27 C 0.89701(19) 0.1085(5) -0.05895(14)
H22 H 0.8863 0.0171 -0.0683
O3 O 0.5000 0.4394(6) 0.2500
C28 C 0.5443(4) 0.3559(9) 0.2313(3)
H23 H 0.5475 0.3755 0.1964
H24 H 0.5833 0.3761 0.2481
C29 C 0.5298(4) 0.2201(8) 0.2376(4)
H25 H 0.5611 0.1729 0.2581
H26 H 0.5257 0.1720 0.2060
C28A C 0.4557(4) 0.3559(9) 0.2687(3)
H23A H 0.4525 0.3755 0.3036
H24A H 0.4167 0.3761 0.2519
C29A C 0.4702(4) 0.2201(8) 0.2624(4)
H25A H 0.4389 0.1729 0.2419
H26A H 0.4743 0.1720 0.2940
loop_
_geom_bond_atom_site_label_1
_geom_bond_atom_site_label_2
_geom_bond_site_symmetry_1
_geom_bond_site_symmetry_2
H1 N2 1_555 1_555
S1 O1 1_555 1_555
F1 C17 1_555 1_555
O2 S1 1_555 1_555
N1 N3 1_555 1_555
N2 S1 1_555 1_555
N3 C13 1_555 1_555
F2 C17 1_555 1_555
C1 S1 1_555 1_555
C2 C1 1_555 1_555
H2 C2 1_555 1_555
C3 C2 1_555 1_555
H3 C3 1_555 1_555
C4 N1 1_555 1_555
C5 N1 1_555 1_555
C6 C5 1_555 1_555
C7 C6 1_555 1_555
H4 C7 1_555 1_555
C8 C7 1_555 1_555
H5 C8 1_555 1_555
C9 C8 1_555 1_555
C10 C9 1_555 1_555
H6 C10 1_555 1_555
H7 C10 1_555 1_555
H8 C10 1_555 1_555
C11 C1 1_555 1_555
H9 C11 1_555 1_555
C12 C4 1_555 1_555
H10 C12 1_555 1_555
C13 C14 1_555 1_555
C14 C5 1_555 1_555
H11 C14 1_555 1_555
C15 C9 1_555 1_555
H12 C15 1_555 1_555
C16 C6 1_555 1_555
H13 C16 1_555 1_555
C17 C13 1_555 1_555
F3 C17 1_555 1_555
H14 N2 1_555 1_555
N4 C23 1_555 1_555
N5 C18 1_555 1_555
C18 H15 1_555 1_555
C19 C18 1_555 1_555
H16 C19 1_555 1_555
C20 C19 1_555 1_555
C21 C20 1_555 1_555
C22 C21 1_555 1_555
H17 C22 1_555 1_555
C23 C22 1_555 1_555
H18 C23 1_555 1_555
C24 N4 1_555 1_555
H19 C24 1_555 1_555
C25 C21 1_555 1_555
H20 C25 1_555 1_555
C26 N5 1_555 1_555
H21 C26 1_555 1_555
C27 C20 1_555 1_555
H22 C27 1_555 1_555
O3 C28 1_555 1_555
C28 H23 1_555 1_555
H24 C28 1_555 1_555
C29 C28 1_555 1_555
H25 C29 1_555 1_555
H26 C29 1_555 1_555
C28A O3 1_555 1_555
H23A C28A 1_555 1_555
H24A C28A 1_555 1_555
C29A C29 1_555 1_555
H25A C29A 1_555 1_555
H26A C29A 1_555 1_555
C3 C4 1_555 1_555
C11 C12 1_555 1_555
C15 C16 1_555 1_555
C24 C25 1_555 1_555
C26 C27 1_555 1_555
C28A C29A 1_555 1_555

#END
