
#######################################################################
#
#                 Cambridge Crystallographic Data Centre
#                                CCDC 
#
#######################################################################
#
# If this CIF has been generated from an entry in the Cambridge 
# Structural Database, then it will include bibliographic, chemical, 
# crystal, experimental, refinement or atomic coordinate data resulting 
# from the CCDC's data processing and validation procedures.
#
#######################################################################

data_POVHIT
_chemical_formula_moiety         'C17 H14 F3 N3 O2 S1,C12 H10 N2,0.5(C4 H8 O1)'
_chemical_name_systematic        
"4-(5-(4-methylphenyl)-3-(trifluoromethyl)-1H-pyrazol-1-yl)benzenesulfonamide 4,4'-ethene-1,2-diyldipyridine tetrahydrofuran solvate"
_symmetry_cell_setting           monoclinic
_symmetry_space_group_name_H-M   'C 2/c'
_symmetry_Int_Tables_number      15
_space_group_name_Hall           '-C 2yn'
loop_
_symmetry_equiv_pos_site_id
_symmetry_equiv_pos_as_xyz
1 x,y,z
2 -x,y,1/2-z
3 1/2+x,1/2+y,z
4 1/2-x,1/2+y,1/2-z
5 -x,-y,-z
6 x,-y,1/2+z
7 1/2-x,1/2-y,-z
8 1/2+x,1/2-y,1/2+z
_cell_length_a                   21.606(3)
_cell_length_b                   10.0057(16)
_cell_length_c                   27.794(5)
_cell_angle_alpha                90
_cell_angle_beta                 91.919(6)
_cell_angle_gamma                90
_cell_volume                     6005.22
_cell_formula_units_Z            8
loop_
_atom_site_label
_atom_site_type_symbol
_atom_site_fract_x
_atom_site_fract_y
_atom_site_fract_z
S1 S 0.56744(5) 0.20014(12) 0.14092(4)
O1 O 0.56074(16) 0.1988(4) 0.09004(12)
C1 C 0.2575(3) 0.5034(7) -0.0269(2)
H1 H 0.2850 0.5752 -0.0345
H2 H 0.2159 0.5273 -0.0365
H3 H 0.2694 0.4241 -0.0437
O2 O 0.58464(15) 0.0799(3) 0.16580(13)
F1 F 0.2309(5) 0.3245(10) 0.3303(3)
N1 N 0.30842(19) 0.3593(4) 0.25379(16)
C2 C 0.2505(3) 0.4067(6) 0.2558(2)
F2 F 0.1651(2) 0.4442(6) 0.30121(16)
N2 N 0.61708(18) 0.3117(4) 0.15412(19)
C3 C 0.49536(19) 0.2513(4) 0.16231(15)
C4 C 0.4695(2) 0.3709(5) 0.14637(17)
H4 H 0.4912 0.4251 0.1256
C5 C 0.4122(2) 0.4102(4) 0.16087(18)
H5 H 0.3950 0.4905 0.1502
C6 C 0.3806(2) 0.3285(4) 0.19151(17)
N3 N 0.31965(16) 0.3668(4) 0.20603(15)
C7 C 0.2709(2) 0.4183(5) 0.17902(18)
C8 C 0.2689(2) 0.4363(5) 0.12686(17)
C9 C 0.2422(2) 0.5510(5) 0.1078(2)
H6 H 0.2267 0.6153 0.1284
C10 C 0.2383(2) 0.5717(6) 0.0581(2)
H7 H 0.2201 0.6495 0.0460
C11 C 0.2611(2) 0.4780(6) 0.02646(19)
C12 C 0.2203(4) 0.4104(13) 0.3028(3)
F3 F 0.2450(4) 0.5050(14) 0.3287(3)
C13 C 0.2255(2) 0.4449(6) 0.2109(2)
H8 H 0.1865 0.4808 0.2040
C14 C 0.2912(2) 0.3429(5) 0.09522(19)
H9 H 0.3093 0.2646 0.1071
C15 C 0.2868(2) 0.3649(5) 0.0455(2)
H10 H 0.3018 0.3002 0.0249
C16 C 0.4064(2) 0.2117(4) 0.20938(16)
H11 H 0.3853 0.1598 0.2312
C17 C 0.4639(2) 0.1732(4) 0.19437(16)
H12 H 0.4816 0.0942 0.2059
H13 H 0.632(3) 0.323(6) 0.189(2)
H14 H 0.610(3) 0.386(6) 0.131(2)
N4 N 0.3998(2) 0.4441(5) -0.09760(18)
C18 C 0.3837(3) 0.3205(6) -0.1089(2)
H15 H 0.3666 0.3050 -0.1395
C19 C 0.3907(3) 0.2132(6) -0.0783(3)
H16 H 0.3788 0.1280 -0.0883
C20 C 0.4155(3) 0.2338(7) -0.0328(3)
C21 C 0.4260(3) 0.1297(8) 0.0081(3)
H17 H 0.4429 0.1589 0.0375
C22 C 0.4136(3) 0.0144(7) 0.0038(3)
H18 H 0.3982 -0.0124 -0.0264
C23 C 0.4200(2) -0.0922(5) 0.04146(19)
C24 C 0.4422(3) -0.0716(6) 0.0866(2)
H19 H 0.4550 0.0135 0.0960
C25 C 0.4462(4) -0.1756(7) 0.1191(2)
H20 H 0.4627 -0.1589 0.1498
N5 N 0.4277(3) -0.2974(6) 0.1084(2)
C26 C 0.4239(3) 0.4596(6) -0.0544(3)
H21 H 0.4353 0.5460 -0.0455
C27 C 0.4341(3) 0.3612(6) -0.0207(2)
H22 H 0.4527 0.3799 0.0091
C28 C 0.4017(3) -0.2171(6) 0.0309(2)
H23 H 0.3860 -0.2362 0.0001
C29 C 0.4057(3) -0.3168(6) 0.0642(3)
H24 H 0.3923 -0.4020 0.0554
C30 C 0.4705(7) 0.6356(11) 0.2628(5)
H25 H 0.4399 0.5799 0.2462
H26 H 0.4767 0.6031 0.2955
C31 C 0.4517(6) 0.7704(13) 0.2626(4)
H27 H 0.4172 0.7828 0.2398
H28 H 0.4383 0.7958 0.2943
O3 O 0.5000 0.8475(9) 0.2500
C30A C 0.5295(7) 0.6356(11) 0.2372(5)
H25A H 0.5601 0.5799 0.2538
H26A H 0.5233 0.6031 0.2045
C31A C 0.5483(6) 0.7704(13) 0.2374(4)
H27A H 0.5828 0.7828 0.2602
H28A H 0.5617 0.7958 0.2057
loop_
_geom_bond_atom_site_label_1
_geom_bond_atom_site_label_2
_geom_bond_site_symmetry_1
_geom_bond_site_symmetry_2
S1 O1 1_555 1_555
C1 H1 1_555 1_555
H2 C1 1_555 1_555
H3 C1 1_555 1_555
O2 S1 1_555 1_555
F1 C12 1_555 1_555
N1 C2 1_555 1_555
C2 C12 1_555 1_555
F2 C12 1_555 1_555
N2 S1 1_555 1_555
C3 S1 1_555 1_555
C4 C3 1_555 1_555
H4 C4 1_555 1_555
C5 C4 1_555 1_555
H5 C5 1_555 1_555
C6 C5 1_555 1_555
N3 N1 1_555 1_555
C7 N3 1_555 1_555
C8 C7 1_555 1_555
C9 C8 1_555 1_555
H6 C9 1_555 1_555
C10 C9 1_555 1_555
H7 C10 1_555 1_555
C11 C1 1_555 1_555
C12 F3 1_555 1_555
C13 C2 1_555 1_555
H8 C13 1_555 1_555
C14 C8 1_555 1_555
H9 C14 1_555 1_555
C15 C11 1_555 1_555
H10 C15 1_555 1_555
C16 C6 1_555 1_555
H11 C16 1_555 1_555
C17 C3 1_555 1_555
H12 C17 1_555 1_555
H13 N2 1_555 1_555
H14 N2 1_555 1_555
N4 C18 1_555 1_555
C18 H15 1_555 1_555
C19 C18 1_555 1_555
H16 C19 1_555 1_555
C20 C19 1_555 1_555
C21 C20 1_555 1_555
H17 C21 1_555 1_555
C22 C21 1_555 1_555
H18 C22 1_555 1_555
C23 C22 1_555 1_555
C24 C23 1_555 1_555
H19 C24 1_555 1_555
C25 C24 1_555 1_555
H20 C25 1_555 1_555
N5 C25 1_555 1_555
C26 N4 1_555 1_555
H21 C26 1_555 1_555
C27 C20 1_555 1_555
H22 C27 1_555 1_555
C28 C23 1_555 1_555
H23 C28 1_555 1_555
C29 N5 1_555 1_555
H24 C29 1_555 1_555
C30 H25 1_555 1_555
H26 C30 1_555 1_555
C31 C30 1_555 1_555
H27 C31 1_555 1_555
H28 C31 1_555 1_555
O3 C31 1_555 1_555
C30A C30 1_555 1_555
H25A C30A 1_555 1_555
H26A C30A 1_555 1_555
C31A O3 1_555 1_555
H27A C31A 1_555 1_555
H28A C31A 1_555 1_555
C6 N3 1_555 1_555
C7 C13 1_555 1_555
C10 C11 1_555 1_555
C14 C15 1_555 1_555
C16 C17 1_555 1_555
C26 C27 1_555 1_555
C28 C29 1_555 1_555
C30A C31A 1_555 1_555

#END
