
#######################################################################
#
#                 Cambridge Crystallographic Data Centre
#                                CCDC 
#
#######################################################################
#
# If this CIF has been generated from an entry in the Cambridge 
# Structural Database, then it will include bibliographic, chemical, 
# crystal, experimental, refinement or atomic coordinate data resulting 
# from the CCDC's data processing and validation procedures.
#
#######################################################################

data_POVHEP
_chemical_formula_moiety         'C17 H14 F3 N3 O2 S1,C12 H10 N2,0.5(C3 H6 O1)'
_chemical_name_systematic        
"4-(5-(4-methylphenyl)-3-(trifluoromethyl)-1H-pyrazol-1-yl)benzenesulfonamide 4,4'-ethene-1,2-diyldipyridine acetone solvate"
_symmetry_cell_setting           monoclinic
_symmetry_space_group_name_H-M   'C 2/c'
_symmetry_Int_Tables_number      15
_space_group_name_Hall           '-C 2yn'
loop_
_symmetry_equiv_pos_site_id
_symmetry_equiv_pos_as_xyz
1 x,y,z
2 -x,y,1/2-z
3 1/2+x,1/2+y,z
4 1/2-x,1/2+y,1/2-z
5 -x,-y,-z
6 x,-y,1/2+z
7 1/2-x,1/2-y,-z
8 1/2+x,1/2-y,1/2+z
_cell_length_a                   21.3705(11)
_cell_length_b                   10.0269(4)
_cell_length_c                   27.7028(11)
_cell_angle_alpha                90
_cell_angle_beta                 91.927(4)
_cell_angle_gamma                90
_cell_volume                     5932.8
_cell_formula_units_Z            8
loop_
_atom_site_label
_atom_site_type_symbol
_atom_site_fract_x
_atom_site_fract_y
_atom_site_fract_z
S1 S 1.06788(4) 0.29350(10) 0.14038(3)
F1 F 0.65457(17) 0.0799(5) 0.29944(14)
O1 O 1.08584(13) 0.4147(3) 0.16407(11)
C1 C 0.7581(2) -0.0075(6) -0.02651(16)
H1 H 0.7609 0.0753 -0.0437
H2 H 0.7192 -0.0507 -0.0353
H3 H 0.7924 -0.0641 -0.0347
O2 O 1.05953(14) 0.2905(3) 0.08892(10)
N1 N 0.81589(13) 0.1402(3) 0.20685(11)
C2 C 0.76654(16) 0.0673(4) 0.12712(13)
N2 N 1.11843(16) 0.1835(4) 0.15419(15)
N3 N 0.80204(15) 0.1535(4) 0.25390(12)
F2 F 0.7214(4) 0.2000(9) 0.3283(3)
C3 C 0.99473(15) 0.2449(4) 0.16319(12)
C4 C 0.96857(17) 0.1244(4) 0.14825(14)
H4 H 0.9905 0.0678 0.1283
C5 C 0.90981(17) 0.0889(4) 0.16316(14)
H5 H 0.8920 0.0081 0.1535
C6 C 0.87772(15) 0.1747(4) 0.19250(13)
C7 C 0.76657(17) 0.0899(4) 0.17955(14)
C8 C 0.78969(18) 0.1603(4) 0.09480(15)
H6 H 0.8074 0.2394 0.1064
C9 C 0.78648(18) 0.1357(4) 0.04587(15)
H7 H 0.8020 0.1991 0.0249
C10 C 0.76073(18) 0.0193(5) 0.02701(15)
C11 C 0.96342(16) 0.3275(4) 0.19407(13)
H8 H 0.9818 0.4067 0.2048
C12 C 0.90439(17) 0.2919(4) 0.20895(13)
H9 H 0.8830 0.3468 0.2299
C13 C 0.7434(2) 0.1103(5) 0.25582(16)
C14 C 0.7193(2) 0.0701(5) 0.21084(16)
H10 H 0.6794 0.0369 0.2036
C15 C 0.73714(19) -0.0712(4) 0.05940(15)
H11 H 0.7191 -0.1497 0.0477
C16 C 0.73965(18) -0.0483(4) 0.10866(15)
H12 H 0.7232 -0.1109 0.1295
C17 C 0.7102(3) 0.1169(11) 0.3008(2)
F3 F 0.7337(4) 0.0175(12) 0.3298(2)
H13 H 1.133(2) 0.184(5) 0.1832(18)
H14 H 1.118(2) 0.107(5) 0.1382(17)
O3 O 0.0000 0.6435(10) 0.2500
C18 C 0.0000 0.7602(14) 0.2500
C19 C 0.0518(6) 0.8378(14) 0.2326(4)
H15 H 0.0877 0.8262 0.2540
H16 H 0.0403 0.9304 0.2315
H17 H 0.0616 0.8083 0.2008
C19A C -0.0518(6) 0.8378(14) 0.2674(4)
H15A H -0.0877 0.8262 0.2460
H16A H -0.0403 0.9304 0.2685
H17A H -0.0616 0.8083 0.2992
N4 N 0.9347(2) 0.7984(4) 0.11169(16)
C20 C 0.9547(3) 0.6768(5) 0.11944(18)
H18 H 0.9741 0.6587 0.1493
C21 C 0.9493(2) 0.5741(5) 0.08707(17)
H19 H 0.9641 0.4897 0.0954
C22 C 0.92196(17) 0.5958(4) 0.04239(14)
C23 C 0.91314(19) 0.4948(5) 0.00431(16)
H20 H 0.8964 0.5234 -0.0253
C24 C 0.9266(2) 0.3706(5) 0.00857(17)
H21 H 0.9443 0.3425 0.0380
C25 C 0.91649(18) 0.2676(4) -0.02948(15)
C26 C 0.8892(2) 0.2897(5) -0.07459(18)
H22 H 0.8767 0.3753 -0.0835
C27 C 0.8805(2) 0.1847(5) -0.10674(18)
H23 H 0.8612 0.2022 -0.1366
N5 N 0.89838(17) 0.0604(4) -0.09694(14)
C28 C 0.9081(3) 0.8195(5) 0.0686(2)
H24 H 0.8931 0.9047 0.0617
C29 C 0.9012(2) 0.7239(5) 0.03342(18)
H25 H 0.8825 0.7454 0.0036
C30 C 0.9341(2) 0.1391(5) -0.01993(17)
H26 H 0.9531 0.1179 0.0098
C31 C 0.9240(2) 0.0415(5) -0.05364(18)
H27 H 0.9361 -0.0448 -0.0454
loop_
_geom_bond_atom_site_label_1
_geom_bond_atom_site_label_2
_geom_bond_site_symmetry_1
_geom_bond_site_symmetry_2
S1 O1 1_555 1_555
F1 C17 1_555 1_555
C1 H1 1_555 1_555
H2 C1 1_555 1_555
H3 C1 1_555 1_555
O2 S1 1_555 1_555
N1 N3 1_555 1_555
C2 C7 1_555 1_555
N2 S1 1_555 1_555
N3 C13 1_555 1_555
F2 C17 1_555 1_555
C3 S1 1_555 1_555
C4 C3 1_555 1_555
H4 C4 1_555 1_555
C5 C4 1_555 1_555
H5 C5 1_555 1_555
C6 N1 1_555 1_555
C7 N1 1_555 1_555
C8 C2 1_555 1_555
H6 C8 1_555 1_555
C9 C8 1_555 1_555
H7 C9 1_555 1_555
C10 C1 1_555 1_555
C11 C3 1_555 1_555
H8 C11 1_555 1_555
C12 C6 1_555 1_555
H9 C12 1_555 1_555
C13 C14 1_555 1_555
C14 C7 1_555 1_555
H10 C14 1_555 1_555
C15 C10 1_555 1_555
H11 C15 1_555 1_555
C16 C2 1_555 1_555
H12 C16 1_555 1_555
C17 C13 1_555 1_555
F3 C17 1_555 1_555
H13 N2 1_555 1_555
H14 N2 1_555 1_555
O3 C18 1_555 1_555
C18 C19 1_555 1_555
C19 H15 1_555 1_555
H16 C19 1_555 1_555
H17 C19 1_555 1_555
N4 C20 1_555 1_555
C20 H18 1_555 1_555
C21 C20 1_555 1_555
H19 C21 1_555 1_555
C22 C21 1_555 1_555
C23 C22 1_555 1_555
H20 C23 1_555 1_555
C24 C23 1_555 1_555
H21 C24 1_555 1_555
C25 C24 1_555 1_555
C26 C25 1_555 1_555
H22 C26 1_555 1_555
C27 C26 1_555 1_555
H23 C27 1_555 1_555
N5 C27 1_555 1_555
C28 N4 1_555 1_555
H24 C28 1_555 1_555
C29 C22 1_555 1_555
H25 C29 1_555 1_555
C30 C25 1_555 1_555
H26 C30 1_555 1_555
C31 N5 1_555 1_555
H27 C31 1_555 1_555
C19A C18 1_555 1_555
H15A C19A 1_555 1_555
H16A C19A 1_555 1_555
H17A C19A 1_555 1_555
C5 C6 1_555 1_555
C9 C10 1_555 1_555
C11 C12 1_555 1_555
C15 C16 1_555 1_555
C28 C29 1_555 1_555
C30 C31 1_555 1_555

#END
