
#######################################################################
#
#                 Cambridge Crystallographic Data Centre
#                                CCDC 
#
#######################################################################
#
# If this CIF has been generated from an entry in the Cambridge 
# Structural Database, then it will include bibliographic, chemical, 
# crystal, experimental, refinement or atomic coordinate data resulting 
# from the CCDC's data processing and validation procedures.
#
#######################################################################

data_POWBAE
_chemical_formula_moiety         'C10 H6 N4 O2'
_chemical_name_systematic        
2-Amino-1,2,3-triazolo(4,5-b)(1,4-naphthoquinone)
_symmetry_cell_setting           tetragonal
_symmetry_space_group_name_H-M   'P 43 21 2'
_symmetry_Int_Tables_number      96
_space_group_name_Hall           'P 4nw 2abw'
loop_
_symmetry_equiv_pos_site_id
_symmetry_equiv_pos_as_xyz
1 x,y,z
2 1/2-y,1/2+x,3/4+z
3 1/2+x,1/2-y,1/4-z
4 -x,-y,1/2+z
5 y,x,-z
6 1/2+y,1/2-x,1/4+z
7 1/2-x,1/2+y,3/4-z
8 -y,-x,1/2-z
_cell_length_a                   5.8612(1)
_cell_length_b                   5.8612(1)
_cell_length_c                   51.443(1)
_cell_angle_alpha                90
_cell_angle_beta                 90
_cell_angle_gamma                90
_cell_volume                     1767.26
_exptl_crystal_colour            'pale yellow'
_cell_formula_units_Z            8
loop_
_atom_site_label
_atom_site_type_symbol
_atom_site_fract_x
_atom_site_fract_y
_atom_site_fract_z
O1 O 0.3988(3) 0.8032(3) 0.0891(1)
O2 O 0.2561(4) 0.0381(3) 0.0308(1)
N1 N 0.6968(4) 0.6716(5) 0.0455(1)
N2 N 0.7620(4) 0.5376(5) 0.0262(1)
N3 N 0.6403(4) 0.3524(5) 0.0213(1)
N4 N 0.9815(11) 0.5327(17) 0.0163(1)
C1 C 0.3653(5) 0.6320(5) 0.0761(1)
C2 C 0.5094(4) 0.5647(4) 0.0542(1)
C3 C 0.4750(5) 0.3687(5) 0.0395(1)
C4 C 0.2859(5) 0.2098(5) 0.0440(1)
C5 C 0.1361(5) 0.2743(4) 0.0662(1)
C6 C -0.0480(5) 0.1328(5) 0.0723(1)
C7 C -0.1919(5) 0.1850(5) 0.0929(1)
C8 C -0.1556(5) 0.3803(5) 0.1076(1)
C9 C 0.0252(4) 0.5242(4) 0.1016(1)
C10 C 0.1718(4) 0.4741(4) 0.0812(1)
H1 H -0.0749(5) -0.007(5) 0.0623(1)
H2 H -0.3158(5) 0.0866(5) 0.0969(1)
H3 H -0.2541(5) 0.4155(5) 0.1217(1)
H4 H 0.0487(4) 0.6586(4) 0.1116(1)
H5 H 1.0276(83) 0.6936(62) 0.0171(9)
H6 H 0.979(12) 0.441(10) 0.0009(9)
N5? N 0.9262(13) 0.6522(21) 0.0072(2)
H7? H 1.006(17) 0.81(13) 0.0066(25)
H8? H 0.965(10) 0.5166(87) -0.0025(10)
loop_
_geom_bond_atom_site_label_1
_geom_bond_atom_site_label_2
_geom_bond_site_symmetry_1
_geom_bond_site_symmetry_2
O1 C1 1_555 1_555
O2 C4 1_555 1_555
N1 N2 1_555 1_555
N2 N3 1_555 1_555
N3 C3 1_555 1_555
N4 N2 1_555 1_555
C1 C2 1_555 1_555
C2 N1 1_555 1_555
C3 C2 1_555 1_555
C4 C3 1_555 1_555
C5 C4 1_555 1_555
C6 C5 1_555 1_555
C7 C6 1_555 1_555
C8 C7 1_555 1_555
C9 C8 1_555 1_555
C10 C1 1_555 1_555
H1 C6 1_555 1_555
H2 C7 1_555 1_555
H3 C8 1_555 1_555
H4 C9 1_555 1_555
H5 N4 1_555 1_555
H6 N4 1_555 1_555
C5 C10 1_555 1_555
C9 C10 1_555 1_555

#END
