
#######################################################################
#
#                 Cambridge Crystallographic Data Centre
#                                CCDC 
#
#######################################################################
#
# If this CIF has been generated from an entry in the Cambridge 
# Structural Database, then it will include bibliographic, chemical, 
# crystal, experimental, refinement or atomic coordinate data resulting 
# from the CCDC's data processing and validation procedures.
#
#######################################################################

data_POWNOF
_chemical_formula_moiety         'C20 H30 N4 O4'
_chemical_name_systematic        
"Di-n-butyl 3,3'-(2,2'-bi-1H-imidazole-1,1'-diyl)dipropanoate"
_symmetry_cell_setting           monoclinic
_symmetry_space_group_name_H-M   'P 21/c'
_symmetry_Int_Tables_number      14
_space_group_name_Hall           '-P 2ybc'
loop_
_symmetry_equiv_pos_site_id
_symmetry_equiv_pos_as_xyz
1 x,y,z
2 -x,1/2+y,1/2-z
3 -x,-y,-z
4 x,1/2-y,1/2+z
_cell_length_a                   7.0321(14)
_cell_length_b                   17.484(4)
_cell_length_c                   8.9681(18)
_cell_angle_alpha                90
_cell_angle_beta                 100.80(3)
_cell_angle_gamma                90
_cell_volume                     1083.09
_exptl_crystal_colour            colorless
_exptl_crystal_description       plate
_cell_formula_units_Z            2
_exptl_crystal_recrystallization_method '95% ethanol'
loop_
_atom_site_label
_atom_site_type_symbol
_atom_site_fract_x
_atom_site_fract_y
_atom_site_fract_z
N1 N 0.3460(3) 0.51573(11) 0.30746(19)
N2 N 0.6689(3) 0.51901(13) 0.3698(2)
C1 C 0.1400(3) 0.50398(14) 0.3101(3)
H1 H 0.0628 0.5297 0.2237
H2 H 0.1099 0.5268 0.4016
O1 O 0.2468(3) 0.32667(12) 0.1854(2)
O2 O 0.0366(3) 0.40123(12) 0.0365(2)
C2 C 0.5051(3) 0.50815(13) 0.4210(2)
C3 C 0.1171(4) 0.38275(15) 0.1612(3)
C4 C 0.6104(4) 0.53329(17) 0.2169(3)
H3 H 0.6939 0.5428 0.1501
C5 C 0.4159(4) 0.53160(15) 0.1774(2)
H4 H 0.3431 0.5396 0.0809
C6 C 0.0864(4) 0.41992(15) 0.3056(3)
H5 H 0.1644 0.3940 0.3914
H6 H -0.0484 0.4147 0.3144
C7 C 0.2854(6) 0.2868(2) 0.0492(4)
H7 H 0.3139 0.3238 -0.0242
H8 H 0.1724 0.2577 0.0027
C8 C 0.4524(6) 0.2349(2) 0.0943(5)
H9 H 0.4239 0.2005 0.1722
H10 H 0.4664 0.2039 0.0072
C9 C 0.6387(6) 0.2728(2) 0.1520(5)
H11 H 0.6290 0.3010 0.2434
H12 H 0.6653 0.3092 0.0770
C10 C 0.8074(6) 0.2163(3) 0.1876(7)
H13 H 0.9241 0.2435 0.2285
H14 H 0.8229 0.1904 0.0962
H15 H 0.7809 0.1795 0.2605
N1B N 0.6540(3) 0.48427(11) 0.69254(19)
N2B N 0.3311(3) 0.48099(13) 0.6302(2)
C1B C 0.8600(3) 0.49602(14) 0.6899(3)
H1B H 0.9372 0.4703 0.7763
H2B H 0.8901 0.4732 0.5984
O1B O 0.7532(3) 0.67333(12) 0.8146(2)
O2B O 0.9634(3) 0.59877(12) 0.9635(2)
C2B C 0.4949(3) 0.49185(13) 0.5790(2)
C3B C 0.8829(4) 0.61725(15) 0.8388(3)
C4B C 0.3896(4) 0.46671(17) 0.7831(3)
H3B H 0.3061 0.4572 0.8499
C5B C 0.5841(4) 0.46840(15) 0.8226(2)
H4B H 0.6569 0.4604 0.9191
C6B C 0.9136(4) 0.58008(15) 0.6944(3)
H5B H 0.8356 0.6060 0.6086
H6B H 1.0484 0.5853 0.6856
C7B C 0.7146(6) 0.7132(2) 0.9508(4)
H7B H 0.6861 0.6762 1.0242
H8B H 0.8276 0.7423 0.9973
C8B C 0.5476(6) 0.7651(2) 0.9057(5)
H9B H 0.5761 0.7995 0.8278
H10B H 0.5336 0.7961 0.9928
C9B C 0.3613(6) 0.7272(2) 0.8480(5)
H11B H 0.3710 0.6990 0.7566
H12B H 0.3347 0.6908 0.9230
C10B C 0.1926(6) 0.7837(3) 0.8124(7)
H13B H 0.0759 0.7565 0.7715
H14B H 0.1771 0.8096 0.9038
H15B H 0.2191 0.8205 0.7395
loop_
_geom_bond_atom_site_label_1
_geom_bond_atom_site_label_2
_geom_bond_site_symmetry_1
_geom_bond_site_symmetry_2
N1 C1 1_555 1_555
N2 C2 1_555 1_555
C1 H1 1_555 1_555
H2 C1 1_555 1_555
O1 C3 1_555 1_555
O2 C3 1_555 1_555
C2 N1 1_555 1_555
C3 C6 1_555 1_555
C4 N2 1_555 1_555
H3 C4 1_555 1_555
C5 N1 1_555 1_555
H4 C5 1_555 1_555
C6 C1 1_555 1_555
H5 C6 1_555 1_555
H6 C6 1_555 1_555
C7 O1 1_555 1_555
H7 C7 1_555 1_555
H8 C7 1_555 1_555
C8 C7 1_555 1_555
H9 C8 1_555 1_555
H10 C8 1_555 1_555
C9 C8 1_555 1_555
H11 C9 1_555 1_555
H12 C9 1_555 1_555
C10 C9 1_555 1_555
H13 C10 1_555 1_555
H14 C10 1_555 1_555
H15 C10 1_555 1_555
N1B C1B 1_555 1_555
N2B C2B 1_555 1_555
C1B H1B 1_555 1_555
H2B C1B 1_555 1_555
O1B C3B 1_555 1_555
O2B C3B 1_555 1_555
C2B C2 1_555 1_555
C3B C6B 1_555 1_555
C4B N2B 1_555 1_555
H3B C4B 1_555 1_555
C5B N1B 1_555 1_555
H4B C5B 1_555 1_555
C6B C1B 1_555 1_555
H5B C6B 1_555 1_555
H6B C6B 1_555 1_555
C7B O1B 1_555 1_555
H7B C7B 1_555 1_555
H8B C7B 1_555 1_555
C8B C7B 1_555 1_555
H9B C8B 1_555 1_555
H10B C8B 1_555 1_555
C9B C8B 1_555 1_555
H11B C9B 1_555 1_555
H12B C9B 1_555 1_555
C10B C9B 1_555 1_555
H13B C10B 1_555 1_555
H14B C10B 1_555 1_555
H15B C10B 1_555 1_555
C4 C5 1_555 1_555
N1B C2B 1_555 1_555
C4B C5B 1_555 1_555

#END
