
#######################################################################
#
#                 Cambridge Crystallographic Data Centre
#                                CCDC 
#
#######################################################################
#
# If this CIF has been generated from an entry in the Cambridge 
# Structural Database, then it will include bibliographic, chemical, 
# crystal, experimental, refinement or atomic coordinate data resulting 
# from the CCDC's data processing and validation procedures.
#
#######################################################################

data_POWQIB
_chemical_formula_moiety         'C17 H14 N6,4(H2 O1)'
_chemical_name_systematic        
'bis(3-(2-Pyridyl)pyrazol-1-yl)methane tetrahydrate'
_symmetry_cell_setting           orthorhombic
_symmetry_space_group_name_H-M   'P 21 21 2'
_symmetry_Int_Tables_number      18
_space_group_name_Hall           'P 2 2ab'
loop_
_symmetry_equiv_pos_site_id
_symmetry_equiv_pos_as_xyz
1 x,y,z
2 -x,-y,z
3 1/2+x,1/2-y,-z
4 1/2-x,1/2+y,-z
_cell_length_a                   8.801(5)
_cell_length_b                   23.367(8)
_cell_length_c                   4.495(2)
_cell_angle_alpha                90
_cell_angle_beta                 90
_cell_angle_gamma                90
_cell_volume                     924.41
_cell_formula_units_Z            2
loop_
_atom_site_label
_atom_site_type_symbol
_atom_site_fract_x
_atom_site_fract_y
_atom_site_fract_z
C1 C 2.0000 0.0000 -0.2980(7)
N1 N 1.8842(2) 0.0276(1) -0.1162(4)
N2 N 1.9201(2) 0.0736(1) 0.0539(4)
C2 C 1.7900(3) 0.0867(1) 0.1942(5)
C3 C 1.6724(3) 0.0491(1) 0.1108(5)
C4 C 1.7370(3) 0.0121(1) -0.0878(5)
N3 N 1.6430(2) 0.1461(1) 0.5173(4)
C5 C 1.7815(3) 0.1355(1) 0.4008(5)
C6 C 1.9080(3) 0.1685(1) 0.4735(5)
C7 C 1.8906(3) 0.2138(1) 0.6683(6)
C8 C 1.7496(3) 0.2255(1) 0.7868(5)
C9 C 1.6305(3) 0.1904(1) 0.7068(6)
H1 H 1.9514 -0.0290 -0.4276
H2 H 2.0486 0.0290 -0.4276
H3 H 1.5701(3) 0.0494(1) 0.1782(5)
H4 H 1.6878(3) -0.0186(1) -0.1870(5)
H5 H 2.0047(3) 0.1601(1) 0.3904(5)
H6 H 1.9756(3) 0.2368(1) 0.7204(6)
H7 H 1.7350(3) 0.2567(1) 0.9192(5)
H8 H 1.5335(3) 0.1980(1) 0.7908(6)
N1A N 2.1158(2) -0.0276(1) -0.1162(4)
N2A N 2.0799(2) -0.0736(1) 0.0539(4)
C2A C 2.2100(3) -0.0867(1) 0.1942(5)
C3A C 2.3276(3) -0.0491(1) 0.1108(5)
C4A C 2.2630(3) -0.0121(1) -0.0878(5)
H4A H 2.3122(3) 0.0186(1) -0.1870(5)
H3A H 2.4299(3) -0.0494(1) 0.1782(5)
C5A C 2.2185(3) -0.1355(1) 0.4008(5)
N3A N 2.3570(2) -0.1461(1) 0.5173(4)
C9A C 2.3695(3) -0.1904(1) 0.7068(6)
C8A C 2.2504(3) -0.2255(1) 0.7868(5)
C7A C 2.1094(3) -0.2138(1) 0.6683(6)
C6A C 2.0920(3) -0.1685(1) 0.4735(5)
H5A H 1.9953(3) -0.1601(1) 0.3904(5)
H6A H 2.0244(3) -0.2368(1) 0.7204(6)
H7A H 2.2650(3) -0.2567(1) 0.9192(5)
H8A H 2.4665(3) -0.1980(1) 0.7908(6)
O1 O 1.2014(2) 0.1391(1) -0.0314(5)
H10 H 1.2433(36) 0.1278(11) -0.2025(67)
H11 H 1.1232(39) 0.1212(13) -0.0011(67)
O2 O 1.3467(2) 0.1014(1) 0.4746(4)
H9 H 1.3088(41) 0.1156(12) 0.3069(68)
H12 H 1.4439(38) 0.1161(12) 0.4826(66)
loop_
_geom_bond_atom_site_label_1
_geom_bond_atom_site_label_2
_geom_bond_site_symmetry_1
_geom_bond_site_symmetry_2
C1 N1 1_555 1_555
N1 N2 1_555 1_555
N2 C2 1_555 1_555
C2 C3 1_555 1_555
C3 C4 1_555 1_555
C4 N1 1_555 1_555
N3 C5 1_555 1_555
C5 C2 1_555 1_555
C6 C5 1_555 1_555
C7 C6 1_555 1_555
C8 C7 1_555 1_555
C9 N3 1_555 1_555
O1 H10 1_555 1_555
O2 H9 1_555 1_555
H1 C1 1_555 1_555
H2 C1 1_555 1_555
H3 C3 1_555 1_555
H4 C4 1_555 1_555
H5 C6 1_555 1_555
H6 C7 1_555 1_555
H7 C8 1_555 1_555
H8 C9 1_555 1_555
H11 O1 1_555 1_555
H12 O2 1_555 1_555
N1A C1 1_555 1_555
N2A N1A 1_555 1_555
C2A N2A 1_555 1_555
C3A C2A 1_555 1_555
C4A N1A 1_555 1_555
H4A C4A 1_555 1_555
H3A C3A 1_555 1_555
C5A C2A 1_555 1_555
N3A C5A 1_555 1_555
C9A N3A 1_555 1_555
C8A C9A 1_555 1_555
C7A C8A 1_555 1_555
C6A C5A 1_555 1_555
H5A C6A 1_555 1_555
H6A C7A 1_555 1_555
H7A C8A 1_555 1_555
H8A C9A 1_555 1_555
C8 C9 1_555 1_555
C3A C4A 1_555 1_555
C7A C6A 1_555 1_555

#END
