
#######################################################################
#
#                 Cambridge Crystallographic Data Centre
#                                CCDC 
#
#######################################################################
#
# If this CIF has been generated from an entry in the Cambridge 
# Structural Database, then it will include bibliographic, chemical, 
# crystal, experimental, refinement or atomic coordinate data resulting 
# from the CCDC's data processing and validation procedures.
#
#######################################################################

data_POXPOI
_chemical_formula_moiety         'C18 H16 O4 S2'
_chemical_name_systematic        
2,4-Diphenyl-1,5-dithia-octa-2,3-diene-1,1,5,5-tetrone
_symmetry_cell_setting           monoclinic
_symmetry_space_group_name_H-M   'P 21/c'
_symmetry_Int_Tables_number      14
_space_group_name_Hall           '-P 2ybc'
loop_
_symmetry_equiv_pos_site_id
_symmetry_equiv_pos_as_xyz
1 x,y,z
2 -x,1/2+y,1/2-z
3 -x,-y,-z
4 x,1/2-y,1/2+z
_cell_length_a                   11.306(2)
_cell_length_b                   10.818(2)
_cell_length_c                   14.594(3)
_cell_angle_alpha                90
_cell_angle_beta                 111.03(3)
_cell_angle_gamma                90
_cell_volume                     1666.08
_exptl_crystal_colour            colorless
_exptl_crystal_description       prism
_chemical_melting_point          182-184deg.C
_cell_formula_units_Z            4
loop_
_atom_site_label
_atom_site_type_symbol
_atom_site_fract_x
_atom_site_fract_y
_atom_site_fract_z
C1 C 0.73629(15) 0.82507(16) 0.25965(11)
C2 C 0.76395(16) 0.89383(16) 0.19692(12)
C3 C 0.81210(16) 0.96085(15) 0.14469(12)
C4 C 1.03324(18) 0.83706(18) 0.27486(13)
H1 H 0.9797 0.7644 0.2642
H2 H 1.1178 0.8089 0.2828
C5 C 1.03877(18) 0.8977(2) 0.37143(13)
H3 H 1.1259 0.8958 0.4168
H4 H 1.0148 0.9838 0.3584
C6 C 0.95552(17) 0.83953(19) 0.42173(12)
H5 H 0.9936 0.8553 0.4917
H6 H 0.9548 0.7507 0.4123
C7 C 0.68524(14) 0.69815(17) 0.23928(12)
C8 C 0.62848(19) 0.63757(19) 0.29653(15)
H7 H 0.6232 0.6760 0.3519
C9 C 0.5799(2) 0.5203(2) 0.27120(19)
H8 H 0.5420 0.4801 0.3098
C10 C 0.5869(2) 0.4626(2) 0.1901(2)
H9 H 0.5545 0.3831 0.1742
C11 C 0.64202(19) 0.5221(2) 0.13150(16)
H10 H 0.6453 0.4837 0.0755
C12 C 0.69150(17) 0.63774(18) 0.15663(13)
H11 H 0.7301 0.6770 0.1180
C13 C 0.74928(16) 1.06152(16) 0.07535(12)
C14 C 0.6412(2) 1.1152(2) 0.08116(16)
H12 H 0.6099 1.0884 0.1286
C15 C 0.5794(2) 1.2083(2) 0.01691(16)
H13 H 0.5055 1.2425 0.0203
C16 C 0.62672(19) 1.25057(18) -0.05184(14)
H14 H 0.5858 1.3140 -0.0945
C17 C 0.73414(18) 1.19894(19) -0.05719(13)
H15 H 0.7666 1.2282 -0.1033
C18 C 0.79549(18) 1.10375(18) 0.00502(13)
H16 H 0.8676 1.0682 -0.0004
O1 O 0.98544(14) 0.85808(14) 0.08795(10)
O2 O 1.04037(12) 1.04687(12) 0.18791(10)
O3 O 0.79771(16) 1.02417(14) 0.36863(11)
O4 O 0.73493(14) 0.84175(16) 0.44122(9)
S1 S 0.97655(4) 0.93003(4) 0.16723(3)
S2 S 0.79727(5) 0.89268(5) 0.38011(3)
loop_
_geom_bond_atom_site_label_1
_geom_bond_atom_site_label_2
_geom_bond_site_symmetry_1
_geom_bond_site_symmetry_2
C1 C2 1_555 1_555
C2 C3 1_555 1_555
C3 C13 1_555 1_555
C4 H1 1_555 1_555
H2 C4 1_555 1_555
C5 C4 1_555 1_555
H3 C5 1_555 1_555
H4 C5 1_555 1_555
C6 C5 1_555 1_555
H5 C6 1_555 1_555
H6 C6 1_555 1_555
C7 C1 1_555 1_555
C8 C7 1_555 1_555
H7 C8 1_555 1_555
C9 C8 1_555 1_555
H8 C9 1_555 1_555
C10 C9 1_555 1_555
H9 C10 1_555 1_555
C11 C10 1_555 1_555
H10 C11 1_555 1_555
C12 C7 1_555 1_555
H11 C12 1_555 1_555
C13 C14 1_555 1_555
C14 H12 1_555 1_555
C15 C14 1_555 1_555
H13 C15 1_555 1_555
C16 C15 1_555 1_555
H14 C16 1_555 1_555
C17 C16 1_555 1_555
H15 C17 1_555 1_555
C18 C13 1_555 1_555
H16 C18 1_555 1_555
O1 S1 1_555 1_555
O2 S1 1_555 1_555
O3 S2 1_555 1_555
O4 S2 1_555 1_555
S1 C3 1_555 1_555
S2 C1 1_555 1_555
C4 S1 1_555 1_555
C6 S2 1_555 1_555
C11 C12 1_555 1_555
C17 C18 1_555 1_555

#END
