
#######################################################################
#
#                 Cambridge Crystallographic Data Centre
#                                CCDC 
#
#######################################################################
#
# If this CIF has been generated from an entry in the Cambridge 
# Structural Database, then it will include bibliographic, chemical, 
# crystal, experimental, refinement or atomic coordinate data resulting 
# from the CCDC's data processing and validation procedures.
#
#######################################################################

data_POXSEB
_chemical_formula_moiety         'C21 H20 I1 N1 O2'
_chemical_name_systematic        
7-Iodo-8-methyl-4-((4-methylphenyl)imino)-6-phenyl-5-oxaspiro[2.5]oct-6-en-8-ol
_symmetry_cell_setting           monoclinic
_symmetry_space_group_name_H-M   'P 21/c'
_symmetry_Int_Tables_number      14
_space_group_name_Hall           '-P 2ybc'
loop_
_symmetry_equiv_pos_site_id
_symmetry_equiv_pos_as_xyz
1 x,y,z
2 -x,1/2+y,1/2-z
3 -x,-y,-z
4 x,1/2-y,1/2+z
_cell_length_a                   11.9745(17)
_cell_length_b                   11.4131(16)
_cell_length_c                   28.156(4)
_cell_angle_alpha                90
_cell_angle_beta                 94.435(2)
_cell_angle_gamma                90
_cell_volume                     3836.45
_exptl_crystal_colour            colorless
_exptl_crystal_description       block
_chemical_melting_point          135-136deg.C
_cell_formula_units_Z            8
loop_
_atom_site_label
_atom_site_type_symbol
_atom_site_fract_x
_atom_site_fract_y
_atom_site_fract_z
C1 C 0.5500(2) 0.4778(2) 0.12041(10)
C2 C 0.6009(2) 0.5527(3) 0.16094(10)
C3 C 0.7018(2) 0.6141(3) 0.14276(10)
C4 C 0.7773(2) 0.5361(3) 0.11798(10)
C5 C 0.6114(2) 0.4296(3) 0.08857(10)
C6 C 0.5773(2) 0.3449(3) 0.05033(10)
C7 C 0.5937(3) 0.3689(3) 0.00321(11)
H1 H 0.6282 0.4384 -0.0048
C8 C 0.5592(3) 0.2901(3) -0.03185(12)
H2 H 0.5698 0.3072 -0.0635
C9 C 0.5097(3) 0.1872(3) -0.02067(13)
H3 H 0.4861 0.1346 -0.0446
C10 C 0.4949(3) 0.1616(3) 0.02575(14)
H4 H 0.4618 0.0911 0.0335
C11 C 0.5288(3) 0.2397(3) 0.06116(12)
H5 H 0.5190 0.2214 0.0927
C12 C 0.6373(3) 0.4730(3) 0.20243(11)
H6 H 0.6698 0.5191 0.2284
H7 H 0.6916 0.4178 0.1927
H8 H 0.5734 0.4315 0.2124
C13 C 0.7505(3) 0.7176(3) 0.16921(13)
C14 C 0.6893(3) 0.7364(3) 0.12218(13)
C15 C 0.9550(2) 0.4852(3) 0.09229(11)
C16 C 1.0331(3) 0.5476(3) 0.06971(12)
H9 H 1.0339 0.6289 0.0719
C17 C 1.1104(3) 0.4921(3) 0.04377(12)
H10 H 1.1609 0.5367 0.0280
C18 C 1.1144(3) 0.3726(4) 0.04083(12)
C19 C 1.0389(3) 0.3105(3) 0.06494(14)
H11 H 1.0416 0.2291 0.0644
C20 C 0.9589(3) 0.3650(3) 0.09007(14)
H12 H 0.9077 0.3203 0.1055
C21 C 1.1986(3) 0.3118(4) 0.01164(15)
H13 H 1.1615 0.2844 -0.0177
H14 H 1.2309 0.2466 0.0293
H15 H 1.2566 0.3661 0.0049
I1 I 0.377891(17) 0.44812(2) 0.118381(8)
N1 N 0.8818(2) 0.5497(2) 0.12017(9)
O1 O 0.72722(16) 0.45128(19) 0.08906(7)
O2 O 0.52644(17) 0.64087(18) 0.17428(7)
H16 H 0.4899 0.6162 0.1956
H17 H 0.621(2) 0.772(2) 0.1226(9)
H18 H 0.730(3) 0.754(3) 0.0978(11)
H19 H 0.714(2) 0.738(2) 0.1975(11)
H20 H 0.831(3) 0.727(3) 0.1719(11)
C22 C 0.9327(2) 0.0727(3) 0.21977(11)
C23 C 0.9070(2) 0.0768(3) 0.27193(11)
C24 C 0.7935(2) 0.1363(3) 0.27333(10)
C25 C 0.7055(2) 0.0911(3) 0.23845(10)
C26 C 0.8520(2) 0.0540(3) 0.18577(11)
C27 C 0.8583(2) 0.0342(3) 0.13432(11)
C28 C 0.9310(3) -0.0470(3) 0.11750(13)
H21 H 0.9768 -0.0911 0.1388
C29 C 0.9359(3) -0.0629(3) 0.06914(14)
H22 H 0.9853 -0.1174 0.0580
C30 C 0.8686(3) 0.0012(4) 0.03769(14)
H23 H 0.8730 -0.0090 0.0051
C31 C 0.7949(3) 0.0801(4) 0.05377(14)
H24 H 0.7485 0.1230 0.0322
C32 C 0.7890(3) 0.0962(3) 0.10187(13)
H25 H 0.7378 0.1494 0.1127
C33 C 0.9025(3) -0.0474(3) 0.29149(13)
H26 H 0.9736 -0.0849 0.2891
H27 H 0.8453 -0.0909 0.2734
H28 H 0.8858 -0.0447 0.3243
C34 C 0.7925(4) 0.2679(3) 0.28103(14)
C35 C 0.7619(3) 0.1876(3) 0.31924(13)
C36 C 0.5218(2) 0.0630(3) 0.20617(10)
C37 C 0.4435(2) 0.1449(3) 0.18961(11)
H29 H 0.4461 0.2205 0.2020
C38 C 0.3611(3) 0.1147(3) 0.15460(12)
H30 H 0.3099 0.1714 0.1433
C39 C 0.3528(2) 0.0038(3) 0.13621(11)
C40 C 0.4299(3) -0.0779(3) 0.15375(12)
H31 H 0.4255 -0.1543 0.1423
C41 C 0.5137(3) -0.0486(3) 0.18807(11)
H32 H 0.5654 -0.1051 0.1991
C42 C 0.2622(3) -0.0291(4) 0.09823(13)
H33 H 0.2958 -0.0619 0.0714
H34 H 0.2201 0.0395 0.0884
H35 H 0.2131 -0.0858 0.1108
I2 I 1.098581(17) 0.09592(2) 0.204754(9)
N2 N 0.6019(2) 0.0962(2) 0.24411(8)
O3 O 0.73993(16) 0.0474(2) 0.19699(7)
O4 O 0.98670(19) 0.1457(2) 0.29920(8)
H36 H 1.0249 0.1034 0.3175
H37 H 0.816(3) 0.176(3) 0.3444(11)
H38 H 0.686(3) 0.183(3) 0.3261(11)
H39 H 0.731(3) 0.309(3) 0.2657(11)
H40 H 0.870(3) 0.307(3) 0.2812(12)
loop_
_geom_bond_atom_site_label_1
_geom_bond_atom_site_label_2
_geom_bond_site_symmetry_1
_geom_bond_site_symmetry_2
C1 C2 1_555 1_555
C2 C3 1_555 1_555
C3 C4 1_555 1_555
C4 N1 1_555 1_555
C5 C1 1_555 1_555
C6 C5 1_555 1_555
C7 C6 1_555 1_555
H1 C7 1_555 1_555
C8 C7 1_555 1_555
H2 C8 1_555 1_555
C9 C8 1_555 1_555
H3 C9 1_555 1_555
C10 C9 1_555 1_555
H4 C10 1_555 1_555
C11 C6 1_555 1_555
H5 C11 1_555 1_555
C12 C2 1_555 1_555
H6 C12 1_555 1_555
H7 C12 1_555 1_555
H8 C12 1_555 1_555
C13 C3 1_555 1_555
C14 C3 1_555 1_555
C15 C16 1_555 1_555
C16 H9 1_555 1_555
C17 C16 1_555 1_555
H10 C17 1_555 1_555
C18 C17 1_555 1_555
C19 C18 1_555 1_555
H11 C19 1_555 1_555
C20 C15 1_555 1_555
H12 C20 1_555 1_555
C21 C18 1_555 1_555
H13 C21 1_555 1_555
H14 C21 1_555 1_555
H15 C21 1_555 1_555
I1 C1 1_555 1_555
N1 C15 1_555 1_555
O1 C4 1_555 1_555
O2 C2 1_555 1_555
H16 O2 1_555 1_555
H17 C14 1_555 1_555
H18 C14 1_555 1_555
H19 C13 1_555 1_555
H20 C13 1_555 1_555
C22 C23 1_555 1_555
C23 C24 1_555 1_555
C24 C25 1_555 1_555
C25 N2 1_555 1_555
C26 C22 1_555 1_555
C27 C26 1_555 1_555
C28 C27 1_555 1_555
H21 C28 1_555 1_555
C29 C28 1_555 1_555
H22 C29 1_555 1_555
C30 C29 1_555 1_555
H23 C30 1_555 1_555
C31 C30 1_555 1_555
H24 C31 1_555 1_555
C32 C27 1_555 1_555
H25 C32 1_555 1_555
C33 C23 1_555 1_555
H26 C33 1_555 1_555
H27 C33 1_555 1_555
H28 C33 1_555 1_555
C34 C24 1_555 1_555
C35 C24 1_555 1_555
C36 C37 1_555 1_555
C37 H29 1_555 1_555
C38 C37 1_555 1_555
H30 C38 1_555 1_555
C39 C38 1_555 1_555
C40 C39 1_555 1_555
H31 C40 1_555 1_555
C41 C36 1_555 1_555
H32 C41 1_555 1_555
C42 C39 1_555 1_555
H33 C42 1_555 1_555
H34 C42 1_555 1_555
H35 C42 1_555 1_555
I2 C22 1_555 1_555
N2 C36 1_555 1_555
O3 C25 1_555 1_555
O4 C23 1_555 1_555
H36 O4 1_555 1_555
H37 C35 1_555 1_555
H38 C35 1_555 1_555
H39 C34 1_555 1_555
H40 C34 1_555 1_555
C5 O1 1_555 1_555
C10 C11 1_555 1_555
C13 C14 1_555 1_555
C19 C20 1_555 1_555
C26 O3 1_555 1_555
C31 C32 1_555 1_555
C34 C35 1_555 1_555
C40 C41 1_555 1_555

#END
