
#######################################################################
#
#                 Cambridge Crystallographic Data Centre
#                                CCDC 
#
#######################################################################
#
# If this CIF has been generated from an entry in the Cambridge 
# Structural Database, then it will include bibliographic, chemical, 
# crystal, experimental, refinement or atomic coordinate data resulting 
# from the CCDC's data processing and validation procedures.
#
#######################################################################

data_POXTIG
_chemical_formula_moiety         'C13 H12 O4'
_chemical_name_systematic        
3-Acetyl-4-hydroxy-6-phenyl-5,6-dihydro-2H-pyran-2-one
_symmetry_cell_setting           monoclinic
_symmetry_space_group_name_H-M   'P 21/c'
_symmetry_Int_Tables_number      14
_space_group_name_Hall           '-P 2ybc'
loop_
_symmetry_equiv_pos_site_id
_symmetry_equiv_pos_as_xyz
1 x,y,z
2 -x,1/2+y,1/2-z
3 -x,-y,-z
4 x,1/2-y,1/2+z
_cell_length_a                   11.911(3)
_cell_length_b                   16.494(4)
_cell_length_c                   5.7210(15)
_cell_angle_alpha                90
_cell_angle_beta                 91.806(4)
_cell_angle_gamma                90
_cell_volume                     1123.39
_exptl_crystal_colour            colorless
_exptl_crystal_description       block
_chemical_melting_point          122-124deg.C
_cell_formula_units_Z            4
loop_
_atom_site_label
_atom_site_type_symbol
_atom_site_fract_x
_atom_site_fract_y
_atom_site_fract_z
C1 C -0.05306(16) 0.10342(12) 0.8505(4)
H1 H -0.0245 0.0814 0.9897
C2 C -0.16753(16) 0.10281(13) 0.8023(4)
H2 H -0.2155 0.0801 0.9096
C3 C -0.21122(17) 0.13521(13) 0.5985(4)
H3 H -0.2884 0.1349 0.5680
C4 C 0.14473(14) 0.13850(11) 0.7340(3)
H4 H 0.1761 0.1832 0.6440
C5 C -0.14012(18) 0.16826(13) 0.4396(4)
H5 H -0.1692 0.1901 0.3006
C6 C -0.02553(17) 0.16906(12) 0.4861(4)
H6 H 0.0220 0.1916 0.3776
C7 C 0.01933(15) 0.13692(11) 0.6911(3)
C8 C 0.27479(15) 0.15395(11) 1.0646(3)
C9 C 0.35948(15) 0.11477(11) 0.9208(3)
C10 C 0.47594(17) 0.12223(13) 0.9759(4)
C11 C 0.32416(16) 0.06559(12) 0.7312(4)
C12 C 0.5248(2) 0.17456(16) 1.1629(5)
H7 H 0.6050 0.1690 1.1676
H8 H 0.4959 0.1586 1.3107
H9 H 0.5051 0.2300 1.1316
O1 O 0.29324(11) 0.18333(9) 1.2554(2)
O2 O 0.39317(12) 0.02439(10) 0.6110(3)
O3 O 0.54629(12) 0.08229(10) 0.8539(3)
C13 C 0.20244(15) 0.06055(12) 0.6664(4)
H10 H 0.1689 0.0152 0.7463
H11 H 0.1928 0.0518 0.4993
O4 O 0.16683(10) 0.15392(8) 0.9818(2)
H12 H 0.4623(19) 0.043(2) 0.677(6)
loop_
_geom_bond_atom_site_label_1
_geom_bond_atom_site_label_2
_geom_bond_site_symmetry_1
_geom_bond_site_symmetry_2
C1 H1 1_555 1_555
C2 C1 1_555 1_555
H2 C2 1_555 1_555
C3 C2 1_555 1_555
H3 C3 1_555 1_555
C4 H4 1_555 1_555
C5 C3 1_555 1_555
H5 C5 1_555 1_555
C6 C5 1_555 1_555
H6 C6 1_555 1_555
C7 C1 1_555 1_555
C8 C9 1_555 1_555
C9 C10 1_555 1_555
C10 C12 1_555 1_555
C11 C9 1_555 1_555
C12 H7 1_555 1_555
H8 C12 1_555 1_555
H9 C12 1_555 1_555
O1 C8 1_555 1_555
O2 C11 1_555 1_555
O3 C10 1_555 1_555
C13 C4 1_555 1_555
H10 C13 1_555 1_555
H11 C13 1_555 1_555
O4 C4 1_555 1_555
H12 O2 1_555 1_555
C4 C7 1_555 1_555
C6 C7 1_555 1_555
C8 O4 1_555 1_555
C11 C13 1_555 1_555

#END
