
#######################################################################
#
#                 Cambridge Crystallographic Data Centre
#                                CCDC 
#
#######################################################################
#
# If this CIF has been generated from an entry in the Cambridge 
# Structural Database, then it will include bibliographic, chemical, 
# crystal, experimental, refinement or atomic coordinate data resulting 
# from the CCDC's data processing and validation procedures.
#
#######################################################################

data_POXVIH
_chemical_formula_moiety         'C15 H11 N1 O4 S2'
_chemical_name_systematic        
1-(4,5-bis(Methoxycarbonyl)-1,3-dithiol-2-ylidene)-1-cyano-1-phenylmethane
_symmetry_cell_setting           monoclinic
_symmetry_space_group_name_H-M   'P 21/n'
_symmetry_Int_Tables_number      14
_space_group_name_Hall           '-P 2yn'
loop_
_symmetry_equiv_pos_site_id
_symmetry_equiv_pos_as_xyz
1 x,y,z
2 1/2-x,1/2+y,1/2-z
3 -x,-y,-z
4 1/2+x,1/2-y,1/2+z
_cell_length_a                   12.944(4)
_cell_length_b                   7.391(3)
_cell_length_c                   16.178(8)
_cell_angle_alpha                90
_cell_angle_beta                 103.07(3)
_cell_angle_gamma                90
_cell_volume                     1507.64
_exptl_crystal_colour            orange
_exptl_crystal_description       block
_chemical_melting_point          146-148deg.C
_cell_formula_units_Z            4
_exptl_crystal_recrystallization_method dichloromethane/methanol
loop_
_atom_site_label
_atom_site_type_symbol
_atom_site_fract_x
_atom_site_fract_y
_atom_site_fract_z
S1 S 0.5243(1) 0.1404(1) 0.3723(1)
S2 S 0.6327(1) 0.2306(1) 0.5463(1)
O1 O 0.7868(2) -0.0772(3) 0.3506(1)
O2 O 0.6498(1) 0.0485(3) 0.2586(1)
O3 O 0.8503(1) 0.1279(3) 0.5983(1)
O4 O 0.8923(2) 0.1867(4) 0.4745(1)
N1 N 0.4363(2) 0.3764(4) 0.6454(2)
C1 C 0.4287(2) 0.3371(4) 0.5758(2)
C2 C 0.4203(2) 0.2851(3) 0.4894(2)
C3 C 0.5125(2) 0.2267(3) 0.4700(1)
C4 C 0.6612(2) 0.1043(3) 0.4004(1)
C5 C 0.7115(2) 0.1511(4) 0.4801(2)
C6 C 0.3149(2) 0.3027(3) 0.4313(2)
C7 C 0.3011(2) 0.3291(5) 0.3443(2)
C8 C 0.2013(3) 0.3502(6) 0.2928(2)
C9 C 0.1130(3) 0.3478(6) 0.3265(2)
C10 C 0.1251(2) 0.3270(5) 0.4128(2)
C11 C 0.2244(2) 0.3064(4) 0.4641(2)
C12 C 0.7090(2) 0.0156(4) 0.3356(2)
C13 C 0.6825(3) -0.0405(7) 0.1884(2)
C14 C 0.8287(2) 0.1551(4) 0.5152(2)
C15 C 0.9624(3) 0.1333(8) 0.6416(3)
H1 H 0.3629(25) 0.3397(45) 0.3218(19)
H2 H 0.1996(26) 0.3673(51) 0.2338(21)
H3 H 0.0451(27) 0.3503(47) 0.2894(20)
H4 H 0.0645(28) 0.3346(51) 0.4410(22)
H5 H 0.2321(21) 0.2921(38) 0.5197(18)
H6 H 0.6673(35) -0.1744(67) 0.1943(29)
H7 H 0.7494(32) -0.0285(56) 0.1909(23)
H8 H 0.6353(35) 0.0252(63) 0.1381(28)
H9 H 0.9593(35) 0.0747(67) 0.6973(31)
H10 H 0.9823(31) 0.2523(59) 0.6456(26)
H11 H 1.0001(33) 0.0491(61) 0.6124(26)
loop_
_geom_bond_atom_site_label_1
_geom_bond_atom_site_label_2
_geom_bond_site_symmetry_1
_geom_bond_site_symmetry_2
S1 C3 1_555 1_555
S2 C3 1_555 1_555
O1 C12 1_555 1_555
O2 C12 1_555 1_555
O3 C14 1_555 1_555
O4 C14 1_555 1_555
N1 C1 1_555 1_555
C1 C2 1_555 1_555
C2 C3 1_555 1_555
C4 S1 1_555 1_555
C5 S2 1_555 1_555
C6 C2 1_555 1_555
C7 C6 1_555 1_555
C8 C7 1_555 1_555
C9 C8 1_555 1_555
C10 C9 1_555 1_555
C11 C6 1_555 1_555
C12 C4 1_555 1_555
C13 O2 1_555 1_555
C14 C5 1_555 1_555
C15 O3 1_555 1_555
H1 C7 1_555 1_555
H2 C8 1_555 1_555
H3 C9 1_555 1_555
H4 C10 1_555 1_555
H5 C11 1_555 1_555
H6 C13 1_555 1_555
H7 C13 1_555 1_555
H8 C13 1_555 1_555
H9 C15 1_555 1_555
H10 C15 1_555 1_555
H11 C15 1_555 1_555
C4 C5 1_555 1_555
C10 C11 1_555 1_555

#END
