
#######################################################################
#
#                 Cambridge Crystallographic Data Centre
#                                CCDC 
#
#######################################################################
#
# If this CIF has been generated from an entry in the Cambridge 
# Structural Database, then it will include bibliographic, chemical, 
# crystal, experimental, refinement or atomic coordinate data resulting 
# from the CCDC's data processing and validation procedures.
#
#######################################################################

data_POXZAE
_chemical_formula_moiety         'C14 H16 O4'
_chemical_name_systematic        
(2E,4E)-5-(3,4,5-Trimethoxyphenyl)-2,4-pentadienal
_symmetry_cell_setting           monoclinic
_symmetry_space_group_name_H-M   'P 21/c'
_symmetry_Int_Tables_number      14
_space_group_name_Hall           '-P 2ybc'
loop_
_symmetry_equiv_pos_site_id
_symmetry_equiv_pos_as_xyz
1 x,y,z
2 -x,1/2+y,1/2-z
3 -x,-y,-z
4 x,1/2-y,1/2+z
_cell_length_a                   10.869(2)
_cell_length_b                   14.124(3)
_cell_length_c                   17.504(3)
_cell_angle_alpha                90
_cell_angle_beta                 103.901(3)
_cell_angle_gamma                90
_cell_volume                     2608.41
_exptl_crystal_colour            yellow
_exptl_crystal_description       prismatic
_chemical_melting_point          119-121deg.C
_cell_formula_units_Z            8
loop_
_atom_site_label
_atom_site_type_symbol
_atom_site_fract_x
_atom_site_fract_y
_atom_site_fract_z
O1 O 0.26280(18) 0.22842(13) 0.20055(10)
O2 O 0.23024(16) 0.40319(12) 0.25031(9)
O3 O 0.18919(16) 0.43502(12) 0.39070(9)
O4 O 0.0873(2) -0.31053(16) 0.50164(14)
C1 C 0.2021(2) 0.17379(17) 0.39303(13)
C2 C 0.2238(2) 0.1591(2) 0.31941(14)
C3 C 0.2357(2) 0.23488(17) 0.27158(13)
C4 C 0.2194(2) 0.32741(17) 0.29709(13)
C5 C 0.2005(2) 0.34209(18) 0.37068(13)
C6 C 0.1930(2) 0.26607(18) 0.41942(14)
C7 C 0.1861(2) 0.09530(19) 0.44403(15)
C8 C 0.1802(2) 0.00311(19) 0.42779(14)
C9 C 0.1581(2) -0.06814(19) 0.48021(15)
C10 C 0.1431(2) -0.1609(2) 0.46318(15)
C11 C 0.1133(3) -0.2285(2) 0.51694(16)
H1 H 0.1139 -0.2077 0.5674
C12 C 0.2855(3) 0.1372(2) 0.17248(16)
H2 H 0.3424 0.1028 0.2136
H3 H 0.3226 0.1438 0.1282
H4 H 0.2068 0.1035 0.1567
C13 C 0.1339(3) 0.4098(2) 0.17970(14)
H5 H 0.1555 0.3703 0.1402
H6 H 0.1263 0.4743 0.1619
H7 H 0.0548 0.3891 0.1892
C14 C 0.1793(3) 0.45521(19) 0.46792(15)
H8 H 0.1044 0.4259 0.4769
H9 H 0.1744 0.5225 0.4744
H10 H 0.2525 0.4310 0.5049
H23 H 0.243(2) 0.0979(19) 0.3017(14)
H24 H 0.1839(19) 0.2738(14) 0.4707(12)
H25 H 0.1763(19) 0.1105(15) 0.4954(12)
H26 H 0.1934(17) -0.0184(14) 0.3794(11)
H27 H 0.1538(19) -0.0507(15) 0.5317(12)
H28 H 0.156(2) -0.1828(15) 0.4144(12)
O5 O 0.18711(19) 0.73300(13) 0.29168(11)
O6 O 0.22993(15) 0.90513(12) 0.24262(9)
O7 O 0.38629(16) 0.93370(11) 0.14870(10)
O8 O 0.5110(2) 0.18641(15) 0.06153(14)
C15 C 0.4040(2) 0.67375(17) 0.16744(13)
C16 C 0.3253(2) 0.66100(18) 0.21769(14)
H11 H 0.3114 0.6005 0.2347
C17 C 0.2668(2) 0.73832(18) 0.24292(14)
C18 C 0.2891(2) 0.82904(17) 0.21800(13)
C19 C 0.3703(2) 0.84235(17) 0.16955(13)
C20 C 0.4280(2) 0.76499(17) 0.14421(14)
C21 C 0.4610(2) 0.59413(18) 0.13531(16)
C22 C 0.4470(2) 0.50226(19) 0.14663(15)
C23 C 0.4988(2) 0.42964(18) 0.10730(14)
H12 H 0.5516 0.4488 0.0755
C24 C 0.4790(3) 0.33676(19) 0.11160(16)
C25 C 0.5310(3) 0.2702(2) 0.06603(16)
H13 H 0.5854 0.2942 0.0371
C26 C 0.1536(4) 0.6413(2) 0.3136(2)
H14 H 0.1101 0.6075 0.2674
H15 H 0.0992 0.6472 0.3492
H16 H 0.2289 0.6074 0.3389
C27 C 0.1057(2) 0.9200(2) 0.19340(17)
H17 H 0.1115 0.9302 0.1402
H18 H 0.0680 0.9744 0.2115
H19 H 0.0542 0.8653 0.1955
C28 C 0.4769(3) 0.95240(19) 0.10499(18)
H20 H 0.5580 0.9286 0.1329
H21 H 0.4826 1.0195 0.0977
H22 H 0.4519 0.9219 0.0546
H29 H 0.481(2) 0.7720(15) 0.1077(12)
H30 H 0.503(2) 0.6082(17) 0.0972(13)
H31 H 0.406(2) 0.4841(16) 0.1890(13)
H32 H 0.438(2) 0.3140(16) 0.1511(13)
loop_
_geom_bond_atom_site_label_1
_geom_bond_atom_site_label_2
_geom_bond_site_symmetry_1
_geom_bond_site_symmetry_2
O1 C3 1_555 1_555
O2 C4 1_555 1_555
O3 C5 1_555 1_555
O4 C11 1_555 1_555
O5 C17 1_555 1_555
O6 C18 1_555 1_555
O7 C19 1_555 1_555
O8 C25 1_555 1_555
C1 C2 1_555 1_555
C2 C3 1_555 1_555
C3 C4 1_555 1_555
C4 C5 1_555 1_555
C5 C6 1_555 1_555
C6 C1 1_555 1_555
C7 C1 1_555 1_555
C8 C7 1_555 1_555
C9 C8 1_555 1_555
C10 C9 1_555 1_555
C11 C10 1_555 1_555
H1 C11 1_555 1_555
C12 O1 1_555 1_555
H2 C12 1_555 1_555
H3 C12 1_555 1_555
H4 C12 1_555 1_555
C13 O2 1_555 1_555
H5 C13 1_555 1_555
H6 C13 1_555 1_555
H7 C13 1_555 1_555
C14 O3 1_555 1_555
H8 C14 1_555 1_555
H9 C14 1_555 1_555
H10 C14 1_555 1_555
C15 C16 1_555 1_555
C16 H11 1_555 1_555
C17 C16 1_555 1_555
C18 C17 1_555 1_555
C19 C18 1_555 1_555
C20 C15 1_555 1_555
C21 C15 1_555 1_555
C22 C21 1_555 1_555
C23 C22 1_555 1_555
H12 C23 1_555 1_555
C24 C23 1_555 1_555
C25 C24 1_555 1_555
H13 C25 1_555 1_555
C26 O5 1_555 1_555
H14 C26 1_555 1_555
H15 C26 1_555 1_555
H16 C26 1_555 1_555
C27 O6 1_555 1_555
H17 C27 1_555 1_555
H18 C27 1_555 1_555
H19 C27 1_555 1_555
C28 O7 1_555 1_555
H20 C28 1_555 1_555
H21 C28 1_555 1_555
H22 C28 1_555 1_555
H23 C2 1_555 1_555
H24 C6 1_555 1_555
H25 C7 1_555 1_555
H26 C8 1_555 1_555
H27 C9 1_555 1_555
H28 C10 1_555 1_555
H29 C20 1_555 1_555
H30 C21 1_555 1_555
H31 C22 1_555 1_555
H32 C24 1_555 1_555
C19 C20 1_555 1_555

#END
