
#######################################################################
#
#                 Cambridge Crystallographic Data Centre
#                                CCDC 
#
#######################################################################
#
# If this CIF has been generated from an entry in the Cambridge 
# Structural Database, then it will include bibliographic, chemical, 
# crystal, experimental, refinement or atomic coordinate data resulting 
# from the CCDC's data processing and validation procedures.
#
#######################################################################

data_POYJUK
_chemical_formula_moiety         'C17 H16 Br1 N1 O3'
_chemical_name_systematic        
4-(3-Bromophenyl)-3-nitro-2-phenyltetrahydro-2H-pyran
_symmetry_cell_setting           monoclinic
_symmetry_space_group_name_H-M   'P 21'
_symmetry_Int_Tables_number      4
_space_group_name_Hall           'P 2yb'
loop_
_symmetry_equiv_pos_site_id
_symmetry_equiv_pos_as_xyz
1 x,y,z
2 -x,1/2+y,-z
_cell_length_a                   10.1519(9)
_cell_length_b                   11.2090(10)
_cell_length_c                   14.0068(13)
_cell_angle_alpha                90
_cell_angle_beta                 97.0000(10)
_cell_angle_gamma                90
_cell_volume                     1581.99
_exptl_crystal_colour            colorless
_exptl_crystal_description       block
_cell_formula_units_Z            4
loop_
_atom_site_label
_atom_site_type_symbol
_atom_site_fract_x
_atom_site_fract_y
_atom_site_fract_z
Br1 Br -0.13470(4) 0.53840(2) 0.18655(2)
C1 C -0.1272(2) 0.0426(3) 0.25413(16)
H1 H -0.1489 0.1037 0.2998
O1 O -0.1602(2) -0.17275(16) 0.22784(14)
N1 N 0.0182(2) 0.0524(2) 0.24453(15)
C2 C -0.1302(3) 0.3907(2) 0.11884(19)
C3 C -0.1662(3) 0.1805(2) 0.11099(19)
C4 C -0.2225(3) -0.0432(3) 0.0924(2)
H2 H -0.2901 -0.0299 0.0383
H3 H -0.1388 -0.0567 0.0675
C5 C -0.2578(3) -0.1513(3) 0.1467(2)
H4 H -0.3439 -0.1398 0.1686
H5 H -0.2635 -0.2201 0.1044
C6 C -0.0918(3) 0.3924(3) 0.0281(2)
H6 H -0.0682 0.4636 0.0006
O2 O 0.0815(2) 0.1248(2) 0.29512(17)
C7 C -0.1686(3) 0.2877(3) 0.1598(2)
H7 H -0.1964 0.2896 0.2207
C8 C -0.1257(3) 0.1812(3) 0.0197(2)
H8 H -0.1233 0.1102 -0.0144
C9 C -0.1568(3) -0.0806(3) 0.29585(19)
H9 H -0.2451 -0.0761 0.3172
O3 O 0.0656(2) -0.01093(19) 0.18736(16)
C10 C -0.2111(3) 0.0673(2) 0.15661(18)
H10 H -0.3012 0.0836 0.1716
C11 C -0.0890(3) 0.2870(3) -0.0207(2)
H11 H -0.0622 0.2864 -0.0819
C12 C -0.0597(3) -0.1112(3) 0.38265(19)
C13 C 0.0357(4) -0.1973(3) 0.3795(3)
H12 H 0.0390 -0.2421 0.3239
C14 C -0.0629(4) -0.0465(4) 0.4660(2)
H13 H -0.1270 0.0123 0.4683
C15 C 0.1222(5) -0.1523(5) 0.5421(3)
H14 H 0.1834 -0.1661 0.5959
C16 C 0.0267(5) -0.0672(5) 0.5449(3)
H15 H 0.0226 -0.0233 0.6008
C17 C 0.1277(4) -0.2170(4) 0.4602(3)
H16 H 0.1932 -0.2746 0.4583
Br2 Br 0.37114(5) -0.12184(4) 0.28158(3)
C18 C 0.6204(3) -0.2489(3) 0.87622(19)
O4 O 0.6649(2) -0.06331(19) 0.80420(15)
C19 C 0.6620(3) -0.3621(3) 0.9072(2)
H17 H 0.7295 -0.3996 0.8793
C20 C 0.5200(3) -0.1949(3) 0.9200(2)
H18 H 0.4892 -0.1198 0.8998
O5 O 0.4232(2) -0.1461(3) 0.68631(18)
C21 C 0.6056(3) -0.4187(3) 0.9778(2)
H19 H 0.6336 -0.4952 0.9964
N2 N 0.4829(3) -0.2389(3) 0.68217(17)
C22 C 0.6817(3) -0.1873(3) 0.7975(2)
H20 H 0.7774 -0.2029 0.8088
C23 C 0.5423(3) -0.1547(3) 0.4560(2)
H21 H 0.5002 -0.0872 0.4763
C24 C 0.7001(3) -0.3121(3) 0.4846(2)
H22 H 0.7660 -0.3512 0.5248
C25 C 0.4654(3) -0.2524(3) 0.9938(2)
H23 H 0.4002 -0.2149 1.0242
C26 C 0.5070(3) -0.1995(3) 0.3649(2)
C27 C 0.7289(4) 0.0006(3) 0.7355(3)
H24 H 0.8232 -0.0171 0.7449
H25 H 0.7181 0.0855 0.7453
C28 C 0.6403(3) -0.2105(3) 0.5171(2)
C29 C 0.5081(3) -0.3646(3) 1.0217(2)
H26 H 0.4709 -0.4039 1.0704
C30 C 0.6318(3) -0.2366(3) 0.6965(2)
H27 H 0.6634 -0.3190 0.6932
C31 C 0.6878(3) -0.1651(3) 0.6178(2)
H28 H 0.7836 -0.1803 0.6271
C32 C 0.6733(4) -0.0312(3) 0.6336(2)
H29 H 0.7206 0.0125 0.5886
H30 H 0.5804 -0.0090 0.6223
C33 C 0.5652(4) -0.2988(3) 0.3321(3)
H31 H 0.5400 -0.3276 0.2703
C34 C 0.6619(4) -0.3551(3) 0.3931(3)
H32 H 0.7023 -0.4232 0.3724
O6 O 0.4290(3) -0.3349(3) 0.6678(2)
loop_
_geom_bond_atom_site_label_1
_geom_bond_atom_site_label_2
_geom_bond_site_symmetry_1
_geom_bond_site_symmetry_2
Br1 C2 1_555 1_555
C1 H1 1_555 1_555
O1 C5 1_555 1_555
N1 C1 1_555 1_555
C2 C6 1_555 1_555
C3 C7 1_555 1_555
C4 H2 1_555 1_555
H3 C4 1_555 1_555
C5 C4 1_555 1_555
H4 C5 1_555 1_555
H5 C5 1_555 1_555
C6 H6 1_555 1_555
O2 N1 1_555 1_555
C7 C2 1_555 1_555
H7 C7 1_555 1_555
C8 C3 1_555 1_555
H8 C8 1_555 1_555
C9 C1 1_555 1_555
H9 C9 1_555 1_555
O3 N1 1_555 1_555
C10 C1 1_555 1_555
H10 C10 1_555 1_555
C11 C6 1_555 1_555
H11 C11 1_555 1_555
C12 C9 1_555 1_555
C13 C12 1_555 1_555
H12 C13 1_555 1_555
C14 C12 1_555 1_555
H13 C14 1_555 1_555
C15 H14 1_555 1_555
C16 C14 1_555 1_555
H15 C16 1_555 1_555
C17 C13 1_555 1_555
H16 C17 1_555 1_555
Br2 C26 1_555 1_555
C18 C19 1_555 1_555
O4 C22 1_555 1_555
C19 H17 1_555 1_555
C20 C18 1_555 1_555
H18 C20 1_555 1_555
O5 N2 1_555 1_555
C21 C19 1_555 1_555
H19 C21 1_555 1_555
N2 C30 1_555 1_555
C22 C18 1_555 1_555
H20 C22 1_555 1_555
C23 H21 1_555 1_555
C24 H22 1_555 1_555
C25 C20 1_555 1_555
H23 C25 1_555 1_555
C26 C23 1_555 1_555
C27 O4 1_555 1_555
H24 C27 1_555 1_555
H25 C27 1_555 1_555
C28 C23 1_555 1_555
C29 C21 1_555 1_555
H26 C29 1_555 1_555
C30 C22 1_555 1_555
H27 C30 1_555 1_555
C31 C28 1_555 1_555
H28 C31 1_555 1_555
C32 C27 1_555 1_555
H29 C32 1_555 1_555
H30 C32 1_555 1_555
C33 C26 1_555 1_555
H31 C33 1_555 1_555
C34 C24 1_555 1_555
H32 C34 1_555 1_555
O6 N2 1_555 1_555
O1 C9 1_555 1_555
C3 C10 1_555 1_555
C4 C10 1_555 1_555
C8 C11 1_555 1_555
C15 C16 1_555 1_555
C15 C17 1_555 1_555
C24 C28 1_555 1_555
C25 C29 1_555 1_555
C30 C31 1_555 1_555
C31 C32 1_555 1_555
C33 C34 1_555 1_555

#END
