
#######################################################################
#
#                 Cambridge Crystallographic Data Centre
#                                CCDC 
#
#######################################################################
#
# If this CIF has been generated from an entry in the Cambridge 
# Structural Database, then it will include bibliographic, chemical, 
# crystal, experimental, refinement or atomic coordinate data resulting 
# from the CCDC's data processing and validation procedures.
#
#######################################################################

data_POYPIE
_chemical_formula_moiety         'C19 H20 I1 N1 O1'
_chemical_name_systematic        
4-(3-Iodo-1,3-diphenylprop-2-en-1-yl)morpholine
_symmetry_cell_setting           monoclinic
_symmetry_space_group_name_H-M   'P 21/c'
_symmetry_Int_Tables_number      14
_space_group_name_Hall           '-P 2ybc'
loop_
_symmetry_equiv_pos_site_id
_symmetry_equiv_pos_as_xyz
1 x,y,z
2 -x,1/2+y,1/2-z
3 -x,-y,-z
4 x,1/2-y,1/2+z
_cell_length_a                   10.6819(17)
_cell_length_b                   9.4115(15)
_cell_length_c                   17.492(3)
_cell_angle_alpha                90
_cell_angle_beta                 92.723(4)
_cell_angle_gamma                90
_cell_volume                     1756.53
_exptl_crystal_colour            colorless
_exptl_crystal_description       prismatic
_cell_formula_units_Z            4
loop_
_atom_site_label
_atom_site_type_symbol
_atom_site_fract_x
_atom_site_fract_y
_atom_site_fract_z
I1 I 0.21738(3) 1.34137(3) 0.04750(2)
N1 N 0.4272(2) 0.8548(3) 0.10096(14)
O1 O 0.5905(3) 0.7529(3) 0.22256(15)
C1 C 0.2080(3) 1.1249(3) 0.07985(18)
C2 C 0.2881(3) 1.0371(3) 0.04857(16)
H1 H 0.3408 1.0752 0.0131
C3 C 0.3007(3) 0.8808(3) 0.06580(16)
H2 H 0.2376 0.8531 0.1019
C4 C 0.2792(3) 0.7988(3) -0.00767(17)
C5 C 0.1725(3) 0.7172(4) -0.0203(2)
H3 H 0.1157 0.7083 0.0180
C6 C 0.1499(3) 0.6491(4) -0.0895(2)
H4 H 0.0778 0.5948 -0.0975
C7 C 0.2334(4) 0.6610(4) -0.1466(2)
H5 H 0.2177 0.6154 -0.1932
C8 C 0.3397(4) 0.7403(4) -0.1344(2)
H6 H 0.3972 0.7475 -0.1725
C9 C 0.3620(3) 0.8096(4) -0.06561(19)
H7 H 0.4340 0.8644 -0.0582
C10 C 0.4497(3) 0.7041(4) 0.1138(2)
H8 H 0.4437 0.6540 0.0653
H9 H 0.3864 0.6661 0.1461
C11 C 0.5772(4) 0.6811(4) 0.1514(2)
H10 H 0.5908 0.5802 0.1595
H11 H 0.6405 0.7152 0.1179
C12 C 0.5699(4) 0.8995(5) 0.2106(2)
H12 H 0.6334 0.9365 0.1782
H13 H 0.5779 0.9486 0.2593
C13 C 0.4422(3) 0.9285(4) 0.17381(17)
H14 H 0.3782 0.8970 0.2075
H15 H 0.4319 1.0299 0.1658
C14 C 0.1106(3) 1.0902(3) 0.13393(17)
C15 C 0.1153(4) 1.1476(3) 0.2060(2)
H16 H 0.1803 1.2086 0.2213
C16 C 0.0225(4) 1.1144(5) 0.2561(2)
H17 H 0.0255 1.1532 0.3051
C17 C -0.0733(4) 1.0248(5) 0.2339(2)
H18 H -0.1353 1.0031 0.2676
C18 C -0.0775(3) 0.9678(4) 0.1630(2)
H19 H -0.1426 0.9066 0.1480
C19 C 0.0134(3) 0.9994(4) 0.11258(19)
H20 H 0.0094 0.9594 0.0639
loop_
_geom_bond_atom_site_label_1
_geom_bond_atom_site_label_2
_geom_bond_site_symmetry_1
_geom_bond_site_symmetry_2
I1 C1 1_555 1_555
N1 C3 1_555 1_555
O1 C11 1_555 1_555
C1 C2 1_555 1_555
C2 H1 1_555 1_555
C3 C2 1_555 1_555
H2 C3 1_555 1_555
C4 C3 1_555 1_555
C5 C4 1_555 1_555
H3 C5 1_555 1_555
C6 C5 1_555 1_555
H4 C6 1_555 1_555
C7 C6 1_555 1_555
H5 C7 1_555 1_555
C8 C7 1_555 1_555
H6 C8 1_555 1_555
C9 C4 1_555 1_555
H7 C9 1_555 1_555
C10 N1 1_555 1_555
H8 C10 1_555 1_555
H9 C10 1_555 1_555
C11 C10 1_555 1_555
H10 C11 1_555 1_555
H11 C11 1_555 1_555
C12 O1 1_555 1_555
H12 C12 1_555 1_555
H13 C12 1_555 1_555
C13 N1 1_555 1_555
H14 C13 1_555 1_555
H15 C13 1_555 1_555
C14 C1 1_555 1_555
C15 C14 1_555 1_555
H16 C15 1_555 1_555
C16 C15 1_555 1_555
H17 C16 1_555 1_555
C17 C16 1_555 1_555
H18 C17 1_555 1_555
C18 C17 1_555 1_555
H19 C18 1_555 1_555
C19 C14 1_555 1_555
H20 C19 1_555 1_555
C8 C9 1_555 1_555
C12 C13 1_555 1_555
C18 C19 1_555 1_555

#END
