
#######################################################################
#
#                 Cambridge Crystallographic Data Centre
#                                CCDC 
#
#######################################################################
#
# If this CIF has been generated from an entry in the Cambridge 
# Structural Database, then it will include bibliographic, chemical, 
# crystal, experimental, refinement or atomic coordinate data resulting 
# from the CCDC's data processing and validation procedures.
#
#######################################################################

data_POYXUW
_chemical_formula_moiety         'C16 H13 N3 O1'
_chemical_name_systematic        N-(5-Phenyl-1H-pyrazol-3-yl)benzamide
_symmetry_cell_setting           orthorhombic
_symmetry_space_group_name_H-M   'P b c a'
_symmetry_Int_Tables_number      61
_space_group_name_Hall           '-P 2ac 2ab'
loop_
_symmetry_equiv_pos_site_id
_symmetry_equiv_pos_as_xyz
1 x,y,z
2 1/2-x,-y,1/2+z
3 1/2+x,1/2-y,-z
4 -x,1/2+y,1/2-z
5 -x,-y,-z
6 1/2+x,y,1/2-z
7 1/2-x,1/2+y,z
8 x,1/2-y,1/2+z
_cell_length_a                   21.129(4)
_cell_length_b                   11.264(2)
_cell_length_c                   10.767(2)
_cell_angle_alpha                90
_cell_angle_beta                 90
_cell_angle_gamma                90
_cell_volume                     2562.51
_exptl_crystal_colour            colorless
_chemical_melting_point          194-196deg.C
_cell_formula_units_Z            8
_exptl_crystal_recrystallization_method ethanol
loop_
_atom_site_label
_atom_site_type_symbol
_atom_site_fract_x
_atom_site_fract_y
_atom_site_fract_z
O1 O 0.44633(9) 0.36301(18) 0.04896(17)
N1 N 0.46929(11) 0.16812(24) 0.01757(22)
N2 N 0.51266(11) 0.03903(23) 0.16438(20)
N3 N 0.55025(12) 0.05175(24) 0.26730(22)
C1 C 0.43938(14) 0.2706(3) -0.01047(25)
C2 C 0.50576(13) 0.1509(3) 0.1251(3)
C3 C 0.56552(14) 0.1661(3) 0.29042(24)
C4 C 0.53700(14) 0.2323(3) 0.1992(3)
C5 C 0.60922(14) 0.2015(3) 0.3897(3)
C6 C 0.62258(15) 0.3210(3) 0.4067(3)
C7 C 0.66563(16) 0.3565(3) 0.4975(3)
C8 C 0.69430(16) 0.2741(3) 0.5731(3)
C9 C 0.68085(15) 0.1556(3) 0.5571(3)
C10 C 0.63865(15) 0.1186(3) 0.4666(3)
C11 C 0.39511(13) 0.2665(3) -0.11918(25)
C12 C 0.38156(15) 0.3708(3) -0.1815(3)
C13 C 0.33909(16) 0.3701(3) -0.2804(3)
C14 C 0.31054(16) 0.2656(4) -0.3169(3)
C15 C 0.32338(16) 0.1612(3) -0.2550(3)
C16 C 0.36579(15) 0.1619(3) -0.1558(3)
H1 H 0.4682(12) 0.102(3) -0.0372(23)
H2 H 0.5584(14) -0.017(3) 0.319(3)
H3 H 0.5376(11) 0.3145(22) 0.1915(20)
H4 H 0.6009(12) 0.380(3) 0.3568(24)
H5 H 0.6728(12) 0.442(3) 0.5082(23)
H6 H 0.7274(13) 0.2994(24) 0.6335(23)
H7 H 0.7014(13) 0.096(3) 0.6097(24)
H8 H 0.6292(12) 0.0365(24) 0.4544(23)
H9 H 0.4015(12) 0.447(3) -0.1519(25)
H10 H 0.3306(13) 0.449(3) -0.3213(25)
H11 H 0.2788(13) 0.267(3) -0.3905(25)
H12 H 0.3021(14) 0.085(3) -0.2786(24)
H13 H 0.3737(13) 0.080(3) -0.1139(23)
loop_
_geom_bond_atom_site_label_1
_geom_bond_atom_site_label_2
_geom_bond_site_symmetry_1
_geom_bond_site_symmetry_2
O1 C1 1_555 1_555
N1 C1 1_555 1_555
N2 N3 1_555 1_555
N3 C3 1_555 1_555
C1 C11 1_555 1_555
C2 N1 1_555 1_555
C3 C4 1_555 1_555
C4 C2 1_555 1_555
C5 C3 1_555 1_555
C6 C5 1_555 1_555
C7 C6 1_555 1_555
C8 C7 1_555 1_555
C9 C8 1_555 1_555
C10 C5 1_555 1_555
C11 C12 1_555 1_555
C12 C13 1_555 1_555
C13 C14 1_555 1_555
C14 C15 1_555 1_555
C15 C16 1_555 1_555
C16 C11 1_555 1_555
H1 N1 1_555 1_555
H2 N3 1_555 1_555
H3 C4 1_555 1_555
H4 C6 1_555 1_555
H5 C7 1_555 1_555
H6 C8 1_555 1_555
H7 C9 1_555 1_555
H8 C10 1_555 1_555
H9 C12 1_555 1_555
H10 C13 1_555 1_555
H11 C14 1_555 1_555
H12 C15 1_555 1_555
H13 C16 1_555 1_555
N2 C2 1_555 1_555
C9 C10 1_555 1_555

#END
