
#######################################################################
#
#                 Cambridge Crystallographic Data Centre
#                                CCDC 
#
#######################################################################
#
# If this CIF has been generated from an entry in the Cambridge 
# Structural Database, then it will include bibliographic, chemical, 
# crystal, experimental, refinement or atomic coordinate data resulting 
# from the CCDC's data processing and validation procedures.
#
#######################################################################

data_POZHAO01
_chemical_formula_moiety         'C20 H14 O2'
_chemical_name_systematic        3-methyl-1-phenyl-9H-xanthen-9-one
_symmetry_cell_setting           triclinic
_symmetry_space_group_name_H-M   'P -1'
_symmetry_Int_Tables_number      2
_space_group_name_Hall           '-P 1'
loop_
_symmetry_equiv_pos_site_id
_symmetry_equiv_pos_as_xyz
1 x,y,z
2 -x,-y,-z
_cell_length_a                   5.5067(17)
_cell_length_b                   11.771(4)
_cell_length_c                   12.366(4)
_cell_angle_alpha                113.928(6)
_cell_angle_beta                 93.703(7)
_cell_angle_gamma                93.718(6)
_cell_volume                     727.487
_exptl_crystal_colour            colorless
_exptl_crystal_description       prismatic
_cell_formula_units_Z            2
loop_
_atom_site_label
_atom_site_type_symbol
_atom_site_fract_x
_atom_site_fract_y
_atom_site_fract_z
O1 O 0.2742(2) 0.00386(9) 0.12978(10)
O2 O 0.5114(2) 0.36871(9) 0.33937(9)
C1 C 0.6805(3) 0.06118(13) 0.31467(13)
C2 C 0.8794(3) 0.10445(15) 0.39930(14)
H1 H 0.9658 0.0468 0.4153
C3 C 0.9564(3) 0.23196(15) 0.46224(13)
C4 C 0.8260(3) 0.31624(15) 0.43841(13)
H2 H 0.8725 0.4014 0.4794
C5 C 0.6264(3) 0.27514(14) 0.35405(13)
C6 C 0.5482(3) 0.14839(13) 0.28942(12)
C7 C 0.3405(3) 0.11171(13) 0.19703(13)
C8 C 0.2154(3) 0.21603(13) 0.19082(13)
C9 C 0.3068(3) 0.33885(13) 0.26076(13)
C10 C 0.1939(4) 0.43804(15) 0.25411(16)
H3 H 0.2585 0.5199 0.3005
C11 C -0.0135(4) 0.41383(17) 0.17836(17)
H4 H -0.0905 0.4799 0.1735
C12 C -0.1105(3) 0.29234(18) 0.10877(16)
H5 H -0.2526 0.2770 0.0581
C13 C 0.0036(3) 0.19467(15) 0.11484(14)
H6 H -0.0614 0.1131 0.0676
C14 C 1.1754(3) 0.27316(19) 0.55326(16)
H7 H 1.2139 0.3618 0.5817
H8 H 1.3125 0.2314 0.5176
H9 H 1.1395 0.2526 0.6185
C15 C 0.6102(3) -0.07659(13) 0.25489(13)
C16 C 0.7470(3) -0.15407(14) 0.17058(14)
H10 H 0.8825 -0.1201 0.1487
C17 C 0.6845(3) -0.28099(15) 0.11877(15)
H11 H 0.7778 -0.3320 0.0617
C18 C 0.4874(3) -0.33316(15) 0.14989(16)
H12 H 0.4457 -0.4191 0.1139
C19 C 0.3525(3) -0.25836(16) 0.23403(19)
H13 H 0.2185 -0.2932 0.2561
C20 C 0.4140(3) -0.13110(16) 0.28665(18)
H14 H 0.3215 -0.0810 0.3447
loop_
_geom_bond_atom_site_label_1
_geom_bond_atom_site_label_2
_geom_bond_site_symmetry_1
_geom_bond_site_symmetry_2
O1 C7 1_555 1_555
O2 C5 1_555 1_555
C1 C2 1_555 1_555
C2 H1 1_555 1_555
C3 C2 1_555 1_555
C4 C3 1_555 1_555
H2 C4 1_555 1_555
C5 C4 1_555 1_555
C6 C1 1_555 1_555
C7 C6 1_555 1_555
C8 C7 1_555 1_555
C9 O2 1_555 1_555
C10 C9 1_555 1_555
H3 C10 1_555 1_555
C11 C10 1_555 1_555
H4 C11 1_555 1_555
C12 C11 1_555 1_555
H5 C12 1_555 1_555
C13 C8 1_555 1_555
H6 C13 1_555 1_555
C14 C3 1_555 1_555
H7 C14 1_555 1_555
H8 C14 1_555 1_555
H9 C14 1_555 1_555
C15 C1 1_555 1_555
C16 C15 1_555 1_555
H10 C16 1_555 1_555
C17 C16 1_555 1_555
H11 C17 1_555 1_555
C18 C17 1_555 1_555
H12 C18 1_555 1_555
C19 C18 1_555 1_555
H13 C19 1_555 1_555
C20 C15 1_555 1_555
H14 C20 1_555 1_555
C5 C6 1_555 1_555
C8 C9 1_555 1_555
C12 C13 1_555 1_555
C19 C20 1_555 1_555

#END
