
#######################################################################
#
#                 Cambridge Crystallographic Data Centre
#                                CCDC 
#
#######################################################################
#
# If this CIF has been generated from an entry in the Cambridge 
# Structural Database, then it will include bibliographic, chemical, 
# crystal, experimental, refinement or atomic coordinate data resulting 
# from the CCDC's data processing and validation procedures.
#
#######################################################################

data_PUCNOR
_chemical_formula_moiety         'C19 H20 Cl1 N5,0.5(C2 H3 N1)'
_chemical_name_systematic        
'4,6-bis(3,5-Dimethylphenylamino)-2-chloro-1,3,5-triazine acetonitrile solvate'
_symmetry_cell_setting           monoclinic
_symmetry_space_group_name_H-M   'P 21/m'
_symmetry_Int_Tables_number      11
_space_group_name_Hall           '-P 2yb'
loop_
_symmetry_equiv_pos_site_id
_symmetry_equiv_pos_as_xyz
1 x,y,z
2 -x,1/2+y,-z
3 -x,-y,-z
4 x,1/2-y,z
_cell_length_a                   5.9733(7)
_cell_length_b                   30.794(4)
_cell_length_c                   10.4696(12)
_cell_angle_alpha                90
_cell_angle_beta                 96.178(2)
_cell_angle_gamma                90
_cell_volume                     1914.61
_exptl_crystal_colour            colorless
_exptl_crystal_description       prism
_cell_formula_units_Z            4
_exptl_crystal_recrystallization_method acetonitrile
loop_
_atom_site_label
_atom_site_type_symbol
_atom_site_fract_x
_atom_site_fract_y
_atom_site_fract_z
Cl1 Cl -0.9508(2) 0.32076(5) 0.18039(16)
N1 N -1.1614(6) 0.2500 0.2560(3)
N2 N -0.9685(8) 0.31323(15) 0.3119(5)
N3 N -0.7609(5) 0.2500 0.2609(3)
N4 N -1.3567(8) 0.30807(15) 0.3015(5)
N5 N -1.5811(8) 0.31508(16) 0.3167(5)
C1 C -0.9599(9) 0.26837(18) 0.2395(5)
C2 C -1.1555(9) 0.28967(18) 0.2909(6)
C3 C -0.7771(9) 0.29278(18) 0.2973(6)
C4 C -1.3886(9) 0.3536(2) 0.3239(6)
C5 C -1.5474(13) 0.3655(3) 0.4083(8)
C6 C -1.5934(13) 0.4094(3) 0.4281(6)
C7 C -1.475(2) 0.4412(4) 0.3655(13)
C8 C -1.3144(19) 0.4280(5) 0.2850(16)
C9 C -1.2736(12) 0.38469(19) 0.2625(6)
C10 C -1.7708(14) 0.4232(3) 0.5154(9)
C11 C -1.1808(19) 0.4600(4) 0.2152(12)
C12 C -1.5643(11) 0.3607(2) 0.3440(9)
C13 C -1.6989(10) 0.3804(2) 0.4268(6)
C14 C -1.6863(14) 0.4253(3) 0.4484(8)
C15 C -1.528(3) 0.4501(6) 0.3892(18)
C16 C -1.391(2) 0.4305(5) 0.3042(17)
C17 C -1.4125(12) 0.3847(2) 0.2816(7)
C18 C -1.8307(13) 0.4472(3) 0.5384(8)
C19 C -1.2276(19) 0.4597(4) 0.2366(12)
N5_2 N -0.5811(8) 0.31508(16) 0.3167(5)
C1C C -0.9599(9) 0.23163(18) 0.2395(5)
C2C C -1.1555(9) 0.21033(18) 0.2909(6)
C3C C -0.7771(9) 0.20722(18) 0.2973(6)
C3_2 C -1.7771(9) 0.29278(18) 0.2973(6)
Cl2 Cl 1.0573(2) 0.68048(5) 0.47876(15)
N6 N 0.8525(5) 0.7500 0.3877(3)
N7 N 1.0470(8) 0.68924(16) 0.3130(5)
N8 N 1.2522(5) 0.7500 0.3932(3)
N9 N 0.6571(8) 0.69108(16) 0.3080(5)
N10 N 0.4373(8) 0.69479(16) 0.3139(5)
C20 C 1.0553(9) 0.73206(18) 0.4127(5)
C21 C 0.8588(9) 0.71003(18) 0.3353(6)
C22 C 1.2369(9) 0.71159(19) 0.3400(6)
C23 C 0.6107(14) 0.6510(2) 0.2418(9)
C24 C 0.4319(15) 0.6261(3) 0.2751(8)
C25 C 0.379(5) 0.5865(11) 0.2173(18)
C26 C 0.495(3) 0.5733(6) 0.1140(19)
C27 C 0.672(2) 0.5983(4) 0.0784(9)
C28 C 0.7316(13) 0.6372(4) 0.1395(9)
C29 C 0.1927(13) 0.5583(3) 0.2566(9)
C30 C 0.8037(12) 0.5852(2) -0.0346(7)
C31 C 0.4667(13) 0.6557(2) 0.2415(6)
C32 C 0.3383(15) 0.6188(3) 0.2500(10)
C33 C 0.383(5) 0.5830(10) 0.1790(18)
C34 C 0.554(2) 0.5835(5) 0.1009(17)
C35 C 0.6854(17) 0.6203(5) 0.0895(10)
C36 C 0.6435(14) 0.6566(3) 0.1649(10)
C37 C 0.2454(14) 0.5410(2) 0.1918(10)
C38 C 0.8657(13) 0.6225(3) -0.0002(7)
N10_2 N 1.4373(8) 0.69479(16) 0.3139(5)
C20C C 1.0553(9) 0.76794(18) 0.4127(5)
C21C C 0.8588(9) 0.78997(18) 0.3353(6)
C22C C 1.2369(9) 0.78841(19) 0.3400(6)
C22_2 C 0.2369(9) 0.71159(19) 0.3400(6)
N11 N 0.0610(13) 0.7651(2) 0.0816(7)
C39 C 0.2392(14) 0.7363(2) 0.0525(6)
C40 C 0.473(3) 0.764(3) 0.0112(18)
C41 C 0.470(5) 0.7500 0.023(12)
N11C N 0.0610(13) 0.7349(2) 0.0816(7)
C39C C 0.2392(14) 0.7637(2) 0.0525(6)
C40C C 0.473(3) 0.736(3) 0.0112(18)
loop_
_geom_bond_atom_site_label_1
_geom_bond_atom_site_label_2
_geom_bond_site_symmetry_1
_geom_bond_site_symmetry_2
Cl1 N2 1_555 1_555
Cl2 N7 1_555 1_555
N1 C1 1_555 1_555
N2 C1 1_555 1_555
N3 C1 1_555 1_555
N4 N5 1_555 1_555
N5 C4 1_555 1_555
N6 C20 1_555 1_555
N7 C20 1_555 1_555
N8 C20 1_555 1_555
N9 N10 1_555 1_555
N10 C31 1_555 1_555
N11 C39 1_555 1_555
C1 Cl1 1_555 1_555
C2 Cl1 1_555 1_555
C3 Cl1 1_555 1_555
C4 N4 1_555 1_555
C5 C4 1_555 1_555
C6 C5 1_555 1_555
C7 C6 1_555 1_555
C8 C7 1_555 1_555
C9 C4 1_555 1_555
C10 C6 1_555 1_555
C11 C8 1_555 1_555
C12 N5 1_555 1_555
C13 C5 1_555 1_555
C14 C6 1_555 1_555
C15 C6 1_555 1_555
C16 C7 1_555 1_555
C17 C4 1_555 1_555
C18 C10 1_555 1_555
C19 C8 1_555 1_555
C20 Cl2 1_555 1_555
C21 Cl2 1_555 1_555
C22 N7 1_555 1_555
C23 N9 1_555 1_555
C24 C23 1_555 1_555
C25 C24 1_555 1_555
C26 C25 1_555 1_555
C27 C26 1_555 1_555
C28 C23 1_555 1_555
C29 C25 1_555 1_555
C30 C27 1_555 1_555
C31 N9 1_555 1_555
C32 C24 1_555 1_555
C33 C24 1_555 1_555
C34 C25 1_555 1_555
C35 C27 1_555 1_555
C36 C23 1_555 1_555
C37 C25 1_555 1_555
C38 C27 1_555 1_555
C39 C40 1_555 1_555
C40 C41 1_555 1_555
C41 C39 1_555 1_555
N5_2 C3 1_555 1_555
N10_2 C22 1_555 1_555
N11C N11 1_555 1_555
C1C N1 1_555 1_555
C2C N1 1_555 1_555
C3C N3 1_555 1_555
C3_2 N5 1_555 1_555
C20C N6 1_555 1_555
C21C N6 1_555 1_555
C22C N8 1_555 1_555
C22_2 N10 1_555 1_555
C39C N11 1_555 1_555
C40C C39 1_555 1_555
N1 C2 1_555 1_555
N2 C2 1_555 1_555
N2 C3 1_555 1_555
N3 C3 1_555 1_555
N3 C1C 1_555 1_555
N4 C2 1_555 1_555
N6 C21 1_555 1_555
N7 C21 1_555 1_555
N8 C22 1_555 1_555
N8 C20C 1_555 1_555
N9 C21 1_555 1_555
C1 C2 1_555 1_555
C1 C3 1_555 1_555
C1 C1C 1_555 1_555
C4 C12 1_555 1_555
C5 C12 1_555 1_555
C5 C17 1_555 1_555
C6 C12 1_555 1_555
C6 C13 1_555 1_555
C7 C14 1_555 1_555
C7 C15 1_555 1_555
C8 C9 1_555 1_555
C8 C16 1_555 1_555
C8 C17 1_555 1_555
C9 C16 1_555 1_555
C9 C17 1_555 1_555
C10 C13 1_555 1_555
C10 C14 1_555 1_555
C11 C19 1_555 1_555
C12 C13 1_555 1_555
C12 C17 1_555 1_555
C13 C14 1_555 1_555
C14 C15 1_555 1_555
C14 C18 1_555 1_555
C15 C16 1_555 1_555
C16 C17 1_555 1_555
C16 C19 1_555 1_555
C20 C21 1_555 1_555
C20 C22 1_555 1_555
C20 C20C 1_555 1_555
C23 C31 1_555 1_555
C24 C31 1_555 1_555
C25 C32 1_555 1_555
C25 C33 1_555 1_555
C26 C33 1_555 1_555
C26 C34 1_555 1_555
C27 C28 1_555 1_555
C27 C34 1_555 1_555
C28 C35 1_555 1_555
C28 C36 1_555 1_555
C29 C33 1_555 1_555
C29 C37 1_555 1_555
C30 C38 1_555 1_555
C31 C32 1_555 1_555
C31 C36 1_555 1_555
C32 C33 1_555 1_555
C33 C34 1_555 1_555
C33 C37 1_555 1_555
C34 C35 1_555 1_555
C35 C36 1_555 1_555
C35 C38 1_555 1_555
C39 N11C 1_555 1_555
C39 C39C 1_555 1_555
C40 C39C 1_555 1_555
C40 C40C 1_555 1_555
C41 C39C 1_555 1_555
C41 C40C 1_555 1_555
N11C C39C 1_555 1_555
C1C C2C 1_555 1_555
C1C C3C 1_555 1_555
C20C C21C 1_555 1_555
C20C C22C 1_555 1_555
C39C C40C 1_555 1_555

#END
