
#######################################################################
#
#                 Cambridge Crystallographic Data Centre
#                                CCDC 
#
#######################################################################
#
# If this CIF has been generated from an entry in the Cambridge 
# Structural Database, then it will include bibliographic, chemical, 
# crystal, experimental, refinement or atomic coordinate data resulting 
# from the CCDC's data processing and validation procedures.
#
#######################################################################

data_PUCNIM
_chemical_formula_moiety         'C50 H26 N2 O2'
_chemical_name_systematic        
9,18-bis(Isoquinolin-4-yl)tetrabenzo[a,de,j,mn]tetracene-4,13-dione
_symmetry_cell_setting           monoclinic
_symmetry_space_group_name_H-M   'P 21/c'
_symmetry_Int_Tables_number      14
_space_group_name_Hall           '-P 2ybc'
loop_
_symmetry_equiv_pos_site_id
_symmetry_equiv_pos_as_xyz
1 x,y,z
2 -x,1/2+y,1/2-z
3 -x,-y,-z
4 x,1/2-y,1/2+z
_cell_length_a                   11.5675(5)
_cell_length_b                   24.3565(11)
_cell_length_c                   12.0597(5)
_cell_angle_alpha                90
_cell_angle_beta                 98.503(2)
_cell_angle_gamma                90
_cell_volume                     3360.4
_exptl_crystal_colour            yellow
_exptl_crystal_description       prismoid
_chemical_melting_point          '633 K'
_cell_formula_units_Z            4
_exptl_crystal_recrystallization_method 'ethyl acetate'
loop_
_atom_site_label
_atom_site_type_symbol
_atom_site_fract_x
_atom_site_fract_y
_atom_site_fract_z
O1 O 0.76363(15) 0.65641(7) 0.56751(14)
C1 C 0.3998(2) 0.57365(9) 0.36312(19)
H1 H 0.3432 0.5516 0.3185
C2 C 0.1185(2) 0.46296(9) 0.43357(19)
H2 H 0.1050 0.4279 0.4638
C3 C 0.2770(3) 0.91209(11) 0.4428(3)
H3 H 0.2609 0.9498 0.4531
O2 O -0.15789(16) 0.70481(7) -0.03497(14)
N1 N 0.14309(18) 0.50380(8) 0.50411(16)
N2 N 0.2001(2) 0.87610(9) 0.4686(2)
C4 C 0.5086(2) 0.55241(10) 0.3986(2)
H4 H 0.5267 0.5160 0.3784
C5 C 0.2258(2) 0.82231(10) 0.4535(2)
H5 H 0.1708 0.7957 0.4702
C6 C 0.5677(2) 0.63684(9) 0.49243(18)
C7 C 0.45582(19) 0.66012(9) 0.45655(17)
C8 C 0.5922(2) 0.58393(9) 0.4637(2)
H6 H 0.6673 0.5688 0.4888
C9 C 0.1567(2) 0.55373(9) 0.45795(19)
H7 H 0.1750 0.5837 0.5079
C10 C 0.6247(2) 0.72205(9) 0.60564(17)
C11 C 0.14619(18) 0.56464(8) 0.34542(17)
C12 C 0.12652(18) 0.51972(9) 0.26933(18)
C13 C 0.32507(19) 0.80353(9) 0.41588(17)
C14 C 0.4074(2) 0.84284(9) 0.38729(18)
C15 C 0.6612(2) 0.67098(9) 0.55485(19)
C16 C 0.5109(2) 0.82950(9) 0.34429(17)
H8 H 0.5298 0.7921 0.3337
C17 C 0.1260(2) 0.52381(10) 0.15288(19)
H9 H 0.1368 0.5585 0.1198
C18 C 0.7007(2) 0.74527(10) 0.69330(19)
H10 H 0.7762 0.7298 0.7145
C19 C 0.5842(2) 0.86989(9) 0.31766(19)
H11 H 0.6534 0.8601 0.2887
C20 C 0.6676(2) 0.79038(10) 0.7496(2)
H12 H 0.7194 0.8063 0.8095
C21 C 0.1099(2) 0.47774(10) 0.0871(2)
H13 H 0.1123 0.4806 0.0090
C22 C 0.0900(2) 0.42638(10) 0.1336(2)
H14 H 0.0762 0.3952 0.0863
C23 C 0.5565(2) 0.81229(10) 0.7170(2)
H15 H 0.5331 0.8437 0.7548
C24 C 0.5588(2) 0.92536(10) 0.3324(2)
H16 H 0.6108 0.9530 0.3141
C25 C 0.43377(19) 0.71700(9) 0.47819(17)
C26 C 0.5124(2) 0.74399(9) 0.57098(17)
C27 C 0.11049(19) 0.46733(9) 0.31575(19)
C28 C 0.4802(2) 0.78946(9) 0.63125(18)
H17 H 0.4043 0.8047 0.6124
C29 C 0.3813(2) 0.89890(10) 0.4010(2)
C30 C 0.0905(2) 0.42103(10) 0.2454(2)
H18 H 0.0774 0.3861 0.2764
C31 C 0.4596(3) 0.93948(11) 0.3730(3)
H19 H 0.4424 0.9772 0.3828
C32 C 0.17601(19) 0.73433(9) 0.24507(17)
C33 C 0.26117(19) 0.71070(9) 0.33280(17)
C34 C 0.34388(19) 0.74290(9) 0.40832(17)
C35 C 0.1937(2) 0.78486(9) 0.19314(19)
H20 H 0.2616 0.8057 0.2196
C36 C 0.1156(2) 0.80484(10) 0.1054(2)
H21 H 0.1296 0.8393 0.0731
C37 C 0.07653(19) 0.70293(9) 0.20038(17)
C38 C 0.0171(2) 0.77515(10) 0.06383(19)
H22 H -0.0373 0.7895 0.0042
C39 C -0.00226(19) 0.72467(9) 0.10887(17)
C40 C -0.1332(2) 0.64335(9) 0.11875(18)
C41 C -0.1018(2) 0.69151(9) 0.05563(19)
C42 C -0.2426(2) 0.61969(10) 0.0859(2)
H23 H -0.2904 0.6324 0.0201
C43 C -0.2820(2) 0.57825(10) 0.1476(2)
H24 H -0.3561 0.5619 0.1238
C44 C -0.2134(2) 0.56039(10) 0.2446(2)
H25 H -0.2414 0.5326 0.2890
C45 C 0.05841(19) 0.64880(9) 0.24387(17)
C46 C -0.05924(19) 0.62411(9) 0.21373(18)
C47 C -0.1044(2) 0.58305(9) 0.27682(19)
H26 H -0.0584 0.5705 0.3438
C48 C 0.26017(19) 0.65332(9) 0.34305(17)
C49 C 0.15384(19) 0.62280(8) 0.30600(17)
C50 C 0.36961(19) 0.62760(9) 0.39125(17)
loop_
_geom_bond_atom_site_label_1
_geom_bond_atom_site_label_2
_geom_bond_site_symmetry_1
_geom_bond_site_symmetry_2
O1 C15 1_555 1_555
C1 H1 1_555 1_555
C2 H2 1_555 1_555
C3 H3 1_555 1_555
O2 C41 1_555 1_555
N1 C2 1_555 1_555
N2 C3 1_555 1_555
C4 C1 1_555 1_555
H4 C4 1_555 1_555
C5 N2 1_555 1_555
H5 C5 1_555 1_555
C6 C7 1_555 1_555
C7 C25 1_555 1_555
C8 C4 1_555 1_555
H6 C8 1_555 1_555
C9 N1 1_555 1_555
H7 C9 1_555 1_555
C10 C15 1_555 1_555
C11 C9 1_555 1_555
C12 C11 1_555 1_555
C13 C5 1_555 1_555
C14 C13 1_555 1_555
C15 C6 1_555 1_555
C16 C14 1_555 1_555
H8 C16 1_555 1_555
C17 C12 1_555 1_555
H9 C17 1_555 1_555
C18 C10 1_555 1_555
H10 C18 1_555 1_555
C19 C16 1_555 1_555
H11 C19 1_555 1_555
C20 C18 1_555 1_555
H12 C20 1_555 1_555
C21 C17 1_555 1_555
H13 C21 1_555 1_555
C22 C21 1_555 1_555
H14 C22 1_555 1_555
C23 C20 1_555 1_555
H15 C23 1_555 1_555
C24 C19 1_555 1_555
H16 C24 1_555 1_555
C25 C26 1_555 1_555
C26 C10 1_555 1_555
C27 C2 1_555 1_555
C28 C23 1_555 1_555
H17 C28 1_555 1_555
C29 C3 1_555 1_555
C30 C22 1_555 1_555
H18 C30 1_555 1_555
C31 C24 1_555 1_555
H19 C31 1_555 1_555
C32 C33 1_555 1_555
C33 C34 1_555 1_555
C34 C13 1_555 1_555
C35 C32 1_555 1_555
H20 C35 1_555 1_555
C36 C35 1_555 1_555
H21 C36 1_555 1_555
C37 C32 1_555 1_555
C38 C36 1_555 1_555
H22 C38 1_555 1_555
C39 C37 1_555 1_555
C40 C41 1_555 1_555
C41 C39 1_555 1_555
C42 C40 1_555 1_555
H23 C42 1_555 1_555
C43 C42 1_555 1_555
H24 C43 1_555 1_555
C44 C43 1_555 1_555
H25 C44 1_555 1_555
C45 C37 1_555 1_555
C46 C40 1_555 1_555
C47 C44 1_555 1_555
H26 C47 1_555 1_555
C48 C33 1_555 1_555
C49 C11 1_555 1_555
C50 C1 1_555 1_555
C6 C8 1_555 1_555
C7 C50 1_555 1_555
C12 C27 1_555 1_555
C14 C29 1_555 1_555
C25 C34 1_555 1_555
C26 C28 1_555 1_555
C27 C30 1_555 1_555
C29 C31 1_555 1_555
C38 C39 1_555 1_555
C45 C46 1_555 1_555
C45 C49 1_555 1_555
C46 C47 1_555 1_555
C48 C49 1_555 1_555
C48 C50 1_555 1_555

#END
