
#######################################################################
#
#                 Cambridge Crystallographic Data Centre
#                                CCDC 
#
#######################################################################
#
# If this CIF has been generated from an entry in the Cambridge 
# Structural Database, then it will include bibliographic, chemical, 
# crystal, experimental, refinement or atomic coordinate data resulting 
# from the CCDC's data processing and validation procedures.
#
#######################################################################

data_PUDTUE01
_chemical_formula_moiety         'C1 H6 N3 1+,C6 H4 Cl1 O3 S1 1-,0.67(C9 H12)'
_chemical_name_systematic        
'Guanidinium 4-chlorobenzenesulfonate mesitylene clathrate'
_symmetry_cell_setting           hexagonal
_symmetry_space_group_name_H-M   'P 63/m'
_symmetry_Int_Tables_number      176
_space_group_name_Hall           '-P 6c'
loop_
_symmetry_equiv_pos_site_id
_symmetry_equiv_pos_as_xyz
1 x,y,z
2 x-y,x,1/2+z
3 -y,x-y,z
4 -x,-y,1/2+z
5 -x+y,-x,z
6 y,-x+y,1/2+z
7 -x,-y,-z
8 -x+y,-x,1/2-z
9 y,-x+y,-z
10 x,y,1/2-z
11 x-y,x,-z
12 -y,x-y,1/2-z
_cell_length_a                   19.690(3)
_cell_length_b                   19.690(3)
_cell_length_c                   7.6026(12)
_cell_angle_alpha                90
_cell_angle_beta                 90
_cell_angle_gamma                120
_cell_volume                     2552.61
_exptl_crystal_colour            colorless
_exptl_crystal_description       needle
_cell_formula_units_Z            6
loop_
_atom_site_label
_atom_site_type_symbol
_atom_site_fract_x
_atom_site_fract_y
_atom_site_fract_z
Cl1 Cl 0.15036(14) 0.70710(11) 0.2500
S1 S 0.03458(8) 0.34785(8) 0.2500
O1 O -0.01182(15) 0.31545(16) 0.0903(4)
O2 O 0.1052(2) 0.3415(2) 0.2500
C10 C 0.0664(3) 0.4488(3) 0.2500
C11 C 0.1356(5) 0.5002(5) 0.1480(11)
H11 H 0.1619 0.4802 0.0839
C12 C 0.1616(5) 0.5797(5) 0.1485(13)
H12 H 0.2061 0.6148 0.0861
C13 C 0.0223(4) 0.4765(5) 0.1899(9)
H13 H -0.0273 0.4416 0.1458
C14 C 0.0474(5) 0.5561(5) 0.1903(10)
H14 H 0.0145 0.5736 0.1477
C15 C 0.1170(4) 0.6067(4) 0.2500
O1I O -0.01182(15) 0.31545(16) 0.4097(4)
C11I C 0.1356(5) 0.5002(5) 0.3520(11)
H11I H 0.1619 0.4802 0.4161
C12I C 0.1616(5) 0.5797(5) 0.3515(13)
H12I H 0.2061 0.6148 0.4139
C13I C 0.0223(4) 0.4765(5) 0.3101(9)
H13I H -0.0273 0.4416 0.3542
C14I C 0.0474(5) 0.5561(5) 0.3097(10)
H14I H 0.0145 0.5736 0.3523
N1 N 0.3259(2) 0.1616(2) 0.0997(5)
H15 H 0.3289 0.1195 0.0987
H16 H 0.3244 0.1830 0.0022
N2 N 0.3205(3) 0.2593(3) 0.2500
H17 H 0.3199 0.2809 0.3480
H18 H 0.3190 0.2804 0.1520
C16 C 0.3237(3) 0.1933(3) 0.2500
N1I N 0.3259(2) 0.1616(2) 0.4003(5)
H15I H 0.3289 0.1195 0.4013
H16I H 0.3244 0.1830 0.4978
C1 C 0.6737(6) 0.4050(6) 0.2112(7)
H1 H 0.6784 0.4540 0.2263
C2 C 0.6011(6) 0.3401(6) 0.2003(15)
C3 C 0.5295(8) 0.3447(8) 0.1487(18)
H2 H 0.4849 0.2928 0.1425
H3 H 0.5380 0.3697 0.0359
H4 H 0.5201 0.3747 0.2348
C1I C 0.6737(6) 0.4050(6) 0.2888(7)
C1K C 0.5950(6) 0.2687(8) 0.2888(7)
C1B C 0.5950(6) 0.2687(8) 0.2112(7)
C1D C 0.7313(8) 0.3263(6) 0.2112(7)
C1G C 0.7313(8) 0.3263(6) 0.2888(7)
H1I H 0.6784 0.4540 0.2737
H1B H 0.5460 0.2244 0.2263
H1K H 0.5460 0.2244 0.2737
H1D H 0.7756 0.3216 0.2263
H1G H 0.7756 0.3216 0.2737
C2I C 0.6011(6) 0.3401(6) 0.2997(15)
C2B C 0.6599(6) 0.2610(8) 0.2003(15)
C2D C 0.7390(8) 0.3989(6) 0.2003(15)
C2G C 0.7390(8) 0.3989(6) 0.2997(15)
C2K C 0.6599(6) 0.2610(8) 0.2997(15)
C3G C 0.8152(11) 0.4705(8) 0.3513(18)
C3D C 0.8152(11) 0.4705(8) 0.1487(18)
C3B C 0.6553(8) 0.1848(11) 0.1487(18)
C3K C 0.6553(8) 0.1848(11) 0.3513(18)
C3I C 0.5295(8) 0.3447(8) 0.3513(18)
H2D H 0.8079 0.5151 0.1425
H2G H 0.8079 0.5151 0.3575
H2K H 0.7072 0.1921 0.3575
H2B H 0.7072 0.1921 0.1425
H2I H 0.4849 0.2928 0.3575
H3D H 0.8317 0.4620 0.0359
H3G H 0.8317 0.4620 0.4641
H3K H 0.6303 0.1683 0.4641
H3B H 0.6303 0.1683 0.0359
H3I H 0.5380 0.3697 0.4641
H4D H 0.8546 0.4799 0.2348
H4G H 0.8546 0.4799 0.2652
H4K H 0.6253 0.1454 0.2652
H4B H 0.6253 0.1454 0.2348
H4I H 0.5201 0.3747 0.2652
C4? C 0.1106(16) 0.0363(15) 0.594(2)
C5? C 0.1031(11) -0.0236(14) 0.493(3)
H5? H 0.1082 -0.0640 0.5514
H6? H 0.1524 0.0080 0.4352
C6? C 0.0936(15) -0.0217(10) 0.314(3)
C7? C 0.0693(14) 0.0275(16) 0.2500
H7? H 0.0302 0.0149 0.1668
C8? C 0.113(2) 0.0982(13) 0.330(3)
C9? C 0.1029(7) 0.1604(6) 0.2500
H8? H 0.1250 0.2053 0.3259
H9? H 0.0480 0.1419 0.2335
H10? H 0.1291 0.1746 0.1383
loop_
_geom_bond_atom_site_label_1
_geom_bond_atom_site_label_2
_geom_bond_site_symmetry_1
_geom_bond_site_symmetry_2
C1 H1 1_555 1_555
H1 C1I 1_555 1_555
C2 C1 1_555 1_555
C3 C2 1_555 1_555
H2 C3 1_555 1_555
H3 C3 1_555 1_555
H4 C3 1_555 1_555
Cl1 C15 1_555 1_555
S1 O1 1_555 1_555
O2 S1 1_555 1_555
C10 S1 1_555 1_555
C11 C10 1_555 1_555
H11 C11 1_555 1_555
C12 C11 1_555 1_555
H12 C12 1_555 1_555
C13 C10 1_555 1_555
H13 C13 1_555 1_555
C14 C13 1_555 1_555
H14 C14 1_555 1_555
C15 C12 1_555 1_555
N1 H15 1_555 1_555
H16 N1 1_555 1_555
N2 H17 1_555 1_555
H18 N2 1_555 1_555
C16 N1 1_555 1_555
C1I C1 1_555 1_555
C1K C2 1_555 1_555
C1B C2 1_555 1_555
C1D C1G 1_555 1_555
C1G H1D 1_555 1_555
H1I C1 1_555 1_555
H1B C1K 1_555 1_555
H1K C1K 1_555 1_555
H1D C1D 1_555 1_555
H1G C1D 1_555 1_555
C2I C1 1_555 1_555
C2B C1K 1_555 1_555
C2D C1 1_555 1_555
C2G C1 1_555 1_555
C2K C1K 1_555 1_555
C3G C2G 1_555 1_555
C3D C2D 1_555 1_555
C3B C2B 1_555 1_555
C3K C2K 1_555 1_555
C3I C3 1_555 1_555
H2D C3D 1_555 1_555
H2G C3G 1_555 1_555
H2K C3K 1_555 1_555
H2B C3B 1_555 1_555
H2I C3I 1_555 1_555
H3D C3D 1_555 1_555
H3G C3G 1_555 1_555
H3K C3K 1_555 1_555
H3B C3B 1_555 1_555
H3I C3I 1_555 1_555
H4D C3G 1_555 1_555
H4G C3G 1_555 1_555
H4K C3B 1_555 1_555
H4B C3B 1_555 1_555
H4I C3 1_555 1_555
O1I S1 1_555 1_555
C11I C10 1_555 1_555
H11I C11I 1_555 1_555
C12I C12 1_555 1_555
H12I C12I 1_555 1_555
C13I C10 1_555 1_555
H13I C13I 1_555 1_555
C14I C13 1_555 1_555
H14I C14I 1_555 1_555
N1I C16 1_555 1_555
H15I N1I 1_555 1_555
H16I N1I 1_555 1_555
H1 H1I 1_555 1_555
C2 C1I 1_555 1_555
C2 C2I 1_555 1_555
H4 C3I 1_555 1_555
H4 H4I 1_555 1_555
C11 C11I 1_555 1_555
C13 C13I 1_555 1_555
C14 C15 1_555 1_555
C14 C13I 1_555 1_555
C14 C14I 1_555 1_555
C15 C12I 1_555 1_555
C15 C14I 1_555 1_555
N2 C16 1_555 1_555
C1I H1I 1_555 1_555
C1I C2I 1_555 1_555
C1I C2D 1_555 1_555
C1I C2G 1_555 1_555
C1K C1B 1_555 1_555
C1K C2I 1_555 1_555
C1B H1B 1_555 1_555
C1B H1K 1_555 1_555
C1B C2I 1_555 1_555
C1B C2B 1_555 1_555
C1B C2K 1_555 1_555
C1D C2B 1_555 1_555
C1D C2D 1_555 1_555
C1D C2G 1_555 1_555
C1D C2K 1_555 1_555
C1G H1G 1_555 1_555
C1G C2B 1_555 1_555
C1G C2D 1_555 1_555
C1G C2G 1_555 1_555
C1G C2K 1_555 1_555
H1B H1K 1_555 1_555
H1D H1G 1_555 1_555
C2I C3I 1_555 1_555
C2B C2K 1_555 1_555
C2D C2G 1_555 1_555
C3G C3D 1_555 1_555
C3D H4D 1_555 1_555
C3D H4G 1_555 1_555
C3B C3K 1_555 1_555
C3K H4K 1_555 1_555
C3K H4B 1_555 1_555
C3I H4I 1_555 1_555
H4D H4G 1_555 1_555
H4K H4B 1_555 1_555
C11I C12I 1_555 1_555
C13I C14I 1_555 1_555

#END
