
#######################################################################
#
#                 Cambridge Crystallographic Data Centre
#                                CCDC 
#
#######################################################################
#
# If this CIF has been generated from an entry in the Cambridge 
# Structural Database, then it will include bibliographic, chemical, 
# crystal, experimental, refinement or atomic coordinate data resulting 
# from the CCDC's data processing and validation procedures.
#
#######################################################################

data_PUGKOS
_chemical_formula_moiety         'C17 H28 O4'
_chemical_name_systematic        
7,11,18,21-Tetraoxatrispiro[5.2.2.5.2.2]heneicosane
_symmetry_cell_setting           monoclinic
_symmetry_space_group_name_H-M   'P 21'
_symmetry_Int_Tables_number      4
_space_group_name_Hall           'P 2yb'
loop_
_symmetry_equiv_pos_site_id
_symmetry_equiv_pos_as_xyz
1 x,y,z
2 -x,1/2+y,-z
_cell_length_a                   11.1256(5)
_cell_length_b                   13.9106(7)
_cell_length_c                   11.6500(6)
_cell_angle_alpha                90
_cell_angle_beta                 118.002(1)
_cell_angle_gamma                90
_cell_volume                     1591.92
_exptl_crystal_colour            colorless
_exptl_crystal_description       block
_chemical_melting_point          '386-387 K'
_cell_formula_units_Z            4
_exptl_crystal_recrystallization_method ethanol
loop_
_atom_site_label
_atom_site_type_symbol
_atom_site_fract_x
_atom_site_fract_y
_atom_site_fract_z
O1 O 0.23696(16) 0.49997(11) 0.73537(14)
O2 O 0.42168(15) 0.47553(13) 0.93942(16)
O3 O 0.25850(16) 0.23362(13) 0.67497(16)
O4 O 0.10089(15) 0.21168(13) 0.75154(18)
C1 C 0.3257(2) 0.54471(16) 0.8557(2)
C2 C 0.4058(2) 0.61848(19) 0.8249(3)
H1 H 0.4468 0.5878 0.7769
H2 H 0.4787 0.6430 0.9055
C3 C 0.3178(3) 0.7017(2) 0.7456(3)
H3 H 0.2521 0.6786 0.6605
H4 H 0.3747 0.7493 0.7336
C4 C 0.2428(3) 0.7485(2) 0.8119(3)
H5 H 0.3079 0.7780 0.8928
H6 H 0.1828 0.7985 0.7563
C5 C 0.1607(3) 0.6742(2) 0.8389(3)
H7 H 0.0903 0.6491 0.7572
H8 H 0.1164 0.7043 0.8843
C6 C 0.2487(2) 0.59221(18) 0.9201(2)
H9 H 0.1919 0.5447 0.9323
H10 H 0.3135 0.6163 1.0050
C7 C 0.1655(2) 0.41903(17) 0.7462(2)
H11 H 0.1130 0.3904 0.6610
H12 H 0.1024 0.4399 0.7769
C8 C 0.2615(2) 0.34349(16) 0.8395(2)
C9 C 0.3594(3) 0.39432(18) 0.9644(2)
H13 H 0.3104 0.4151 1.0102
H14 H 0.4295 0.3495 1.0199
C10 C 0.3419(2) 0.29263(18) 0.7810(2)
H15 H 0.3856 0.3404 0.7524
H16 H 0.4126 0.2537 0.8475
C11 C 0.1797(3) 0.26731(19) 0.8654(2)
H17 H 0.2410 0.2254 0.9347
H18 H 0.1197 0.2980 0.8935
C12 C 0.1781(2) 0.16498(17) 0.7002(2)
C13 C 0.0764(2) 0.1282(2) 0.5673(3)
H19 H 0.0317 0.1825 0.5110
H20 H 0.0073 0.0907 0.5754
C14 C 0.1431(3) 0.0666(2) 0.5054(3)
H21 H 0.0735 0.0419 0.4231
H22 H 0.2044 0.1062 0.4879
C15 C 0.2212(3) -0.0162(2) 0.5910(3)
H23 H 0.2670 -0.0512 0.5507
H24 H 0.1587 -0.0599 0.6008
C16 C 0.3257(3) 0.0201(2) 0.7239(3)
H25 H 0.3704 -0.0344 0.7797
H26 H 0.3945 0.0572 0.7147
C17 C 0.2613(3) 0.0820(2) 0.7872(2)
H27 H 0.3323 0.1078 0.8679
H28 H 0.2026 0.0423 0.8081
O5 O 0.69505(15) 0.27388(10) 0.85086(14)
O6 O 0.83677(14) 0.33303(11) 0.76920(15)
O7 O 0.75739(13) 0.02803(10) 0.76038(13)
O8 O 0.56565(13) 0.04986(11) 0.55912(14)
C18 C 0.75704(19) 0.35744(14) 0.83150(18)
C19 C 0.8575(3) 0.39214(17) 0.9659(2)
H29 H 0.9274 0.3437 1.0079
H30 H 0.8106 0.4004 1.0175
C20 C 0.9240(3) 0.4863(2) 0.9620(2)
H31 H 0.9829 0.5078 1.0501
H32 H 0.9799 0.4763 0.9194
C21 C 0.8190(3) 0.56338(17) 0.8899(3)
H33 H 0.8645 0.6214 0.8846
H34 H 0.7693 0.5784 0.9374
C22 C 0.7201(3) 0.52960(17) 0.7538(2)
H35 H 0.7686 0.5208 0.7038
H36 H 0.6509 0.5784 0.7109
C23 C 0.6521(2) 0.43532(15) 0.7575(2)
H37 H 0.5940 0.4137 0.6693
H38 H 0.5953 0.4459 0.7989
C24 C 0.61688(19) 0.21936(15) 0.7364(2)
H39 H 0.5395 0.2571 0.6765
H40 H 0.5825 0.1621 0.7587
C25 C 0.70167(19) 0.19016(14) 0.67041(18)
C26 C 0.7655(2) 0.28130(15) 0.6507(2)
H41 H 0.8280 0.2645 0.6175
H42 H 0.6948 0.3218 0.5868
C27 C 0.81339(19) 0.11917(14) 0.7551(2)
H43 H 0.8764 0.1111 0.7200
H44 H 0.8637 0.1449 0.8424
C28 C 0.6117(2) 0.14090(16) 0.54104(19)
H45 H 0.5337 0.1814 0.4897
H46 H 0.6626 0.1328 0.4932
C29 C 0.67397(18) -0.01425(14) 0.63682(18)
C30 C 0.6074(2) -0.10035(16) 0.6639(2)
H47 H 0.5378 -0.1260 0.5822
H48 H 0.5634 -0.0798 0.7146
C31 C 0.7096(3) -0.17909(17) 0.7372(3)
H49 H 0.7735 -0.1559 0.8230
H50 H 0.6622 -0.2341 0.7480
C32 C 0.7866(3) -0.20990(19) 0.6659(3)
H51 H 0.7241 -0.2391 0.5836
H52 H 0.8543 -0.2576 0.7170
C33 C 0.8567(2) -0.1242(2) 0.6411(3)
H53 H 0.9014 -0.1450 0.5912
H54 H 0.9257 -0.0991 0.7235
C34 C 0.7545(2) -0.04497(18) 0.5671(2)
H55 H 0.6920 -0.0678 0.4807
H56 H 0.8027 0.0102 0.5579
loop_
_geom_bond_atom_site_label_1
_geom_bond_atom_site_label_2
_geom_bond_site_symmetry_1
_geom_bond_site_symmetry_2
O1 C1 1_555 1_555
O2 C1 1_555 1_555
O3 C10 1_555 1_555
O4 C11 1_555 1_555
C1 C2 1_555 1_555
C2 H1 1_555 1_555
H2 C2 1_555 1_555
C3 C2 1_555 1_555
H3 C3 1_555 1_555
H4 C3 1_555 1_555
C4 C3 1_555 1_555
H5 C4 1_555 1_555
H6 C4 1_555 1_555
C5 C4 1_555 1_555
H7 C5 1_555 1_555
H8 C5 1_555 1_555
C6 C1 1_555 1_555
H9 C6 1_555 1_555
H10 C6 1_555 1_555
C7 O1 1_555 1_555
H11 C7 1_555 1_555
H12 C7 1_555 1_555
C8 C7 1_555 1_555
C9 O2 1_555 1_555
H13 C9 1_555 1_555
H14 C9 1_555 1_555
C10 C8 1_555 1_555
H15 C10 1_555 1_555
H16 C10 1_555 1_555
C11 C8 1_555 1_555
H17 C11 1_555 1_555
H18 C11 1_555 1_555
C12 O3 1_555 1_555
C13 C12 1_555 1_555
H19 C13 1_555 1_555
H20 C13 1_555 1_555
C14 C13 1_555 1_555
H21 C14 1_555 1_555
H22 C14 1_555 1_555
C15 C14 1_555 1_555
H23 C15 1_555 1_555
H24 C15 1_555 1_555
C16 C15 1_555 1_555
H25 C16 1_555 1_555
H26 C16 1_555 1_555
C17 C12 1_555 1_555
H27 C17 1_555 1_555
H28 C17 1_555 1_555
O5 C18 1_555 1_555
O6 C18 1_555 1_555
O7 C27 1_555 1_555
O8 C28 1_555 1_555
C18 C19 1_555 1_555
C19 H29 1_555 1_555
H30 C19 1_555 1_555
C20 C19 1_555 1_555
H31 C20 1_555 1_555
H32 C20 1_555 1_555
C21 C20 1_555 1_555
H33 C21 1_555 1_555
H34 C21 1_555 1_555
C22 C21 1_555 1_555
H35 C22 1_555 1_555
H36 C22 1_555 1_555
C23 C18 1_555 1_555
H37 C23 1_555 1_555
H38 C23 1_555 1_555
C24 O5 1_555 1_555
H39 C24 1_555 1_555
H40 C24 1_555 1_555
C25 C24 1_555 1_555
C26 O6 1_555 1_555
H41 C26 1_555 1_555
H42 C26 1_555 1_555
C27 C25 1_555 1_555
H43 C27 1_555 1_555
H44 C27 1_555 1_555
C28 C25 1_555 1_555
H45 C28 1_555 1_555
H46 C28 1_555 1_555
C29 O7 1_555 1_555
C30 C29 1_555 1_555
H47 C30 1_555 1_555
H48 C30 1_555 1_555
C31 C30 1_555 1_555
H49 C31 1_555 1_555
H50 C31 1_555 1_555
C32 C31 1_555 1_555
H51 C32 1_555 1_555
H52 C32 1_555 1_555
C33 C32 1_555 1_555
H53 C33 1_555 1_555
H54 C33 1_555 1_555
C34 C29 1_555 1_555
H55 C34 1_555 1_555
H56 C34 1_555 1_555
O4 C12 1_555 1_555
C5 C6 1_555 1_555
C8 C9 1_555 1_555
C16 C17 1_555 1_555
O8 C29 1_555 1_555
C22 C23 1_555 1_555
C25 C26 1_555 1_555
C33 C34 1_555 1_555

#END
