
#######################################################################
#
#                 Cambridge Crystallographic Data Centre
#                                CCDC 
#
#######################################################################
#
# If this CIF has been generated from an entry in the Cambridge 
# Structural Database, then it will include bibliographic, chemical, 
# crystal, experimental, refinement or atomic coordinate data resulting 
# from the CCDC's data processing and validation procedures.
#
#######################################################################

data_PUGQEO
_chemical_formula_moiety         'C13 H16 N1 1+,Cl1 1-'
_chemical_name_systematic        '1-(3-Phenylprop-2-ynyl)pyrrolidinium chloride'
_symmetry_cell_setting           monoclinic
_symmetry_space_group_name_H-M   'P 21/c'
_symmetry_Int_Tables_number      14
_space_group_name_Hall           '-P 2ybc'
loop_
_symmetry_equiv_pos_site_id
_symmetry_equiv_pos_as_xyz
1 x,y,z
2 -x,1/2+y,1/2-z
3 -x,-y,-z
4 x,1/2-y,1/2+z
_cell_length_a                   10.9504(2)
_cell_length_b                   11.3553(3)
_cell_length_c                   11.1951(2)
_cell_angle_alpha                90
_cell_angle_beta                 117.0080(10)
_cell_angle_gamma                90
_cell_volume                     1240.24
_exptl_crystal_colour            colorless
_exptl_crystal_description       block
_cell_formula_units_Z            4
_exptl_crystal_recrystallization_method chloroform/methanol
loop_
_atom_site_label
_atom_site_type_symbol
_atom_site_fract_x
_atom_site_fract_y
_atom_site_fract_z
C1 C 0.6296(3) 0.8606(2) 0.7343(3)
C2 C 0.4916(3) 0.8723(3) 0.6473(3)
H1 H 0.4636 0.9243 0.5755
C3 C 0.3957(3) 0.8078(3) 0.6660(4)
H2 H 0.3032 0.8162 0.6069
C4 C 0.4359(4) 0.7315(3) 0.7707(4)
H3 H 0.3708 0.6878 0.7831
C5 C 0.5724(4) 0.7188(3) 0.8581(4)
H4 H 0.5991 0.6663 0.9294
C6 C 0.6697(3) 0.7830(2) 0.8413(3)
H5 H 0.7620 0.7746 0.9013
C7 C 0.7303(3) 0.9288(2) 0.7156(3)
C8 C 0.8158(3) 0.9840(2) 0.7040(3)
C9 C 0.9214(3) 1.0575(2) 0.6955(3)
H6 H 0.9276 1.1316 0.7410
H7 H 0.8952 1.0748 0.6021
C10 C 1.1669(3) 1.0766(3) 0.7524(3)
H8 H 1.1679 1.0699 0.6665
H9 H 1.1513 1.1584 0.7666
C11 C 1.2991(3) 1.0342(3) 0.8625(3)
H10 H 1.3503 1.0994 0.9190
H11 H 1.3545 0.9971 0.8258
C12 C 1.2620(4) 0.9460(3) 0.9424(3)
H12 H 1.2790 0.8662 0.9227
H13 H 1.3153 0.9601 1.0378
C13 C 1.1110(3) 0.9647(3) 0.8992(3)
H14 H 1.0679 0.8928 0.9081
H15 H 1.0967 1.0265 0.9513
N1 N 1.0572(2) 0.99964(19) 0.7561(2)
H16 H 1.051(3) 0.9386(17) 0.707(2)
Cl1 Cl 0.03151(7) 0.70879(6) 0.07738(7)
loop_
_geom_bond_atom_site_label_1
_geom_bond_atom_site_label_2
_geom_bond_site_symmetry_1
_geom_bond_site_symmetry_2
C1 C2 1_555 1_555
C2 H1 1_555 1_555
C3 C2 1_555 1_555
H2 C3 1_555 1_555
C4 C3 1_555 1_555
H3 C4 1_555 1_555
C5 C4 1_555 1_555
H4 C5 1_555 1_555
C6 C1 1_555 1_555
H5 C6 1_555 1_555
C7 C1 1_555 1_555
C8 C7 1_555 1_555
C9 C8 1_555 1_555
H6 C9 1_555 1_555
H7 C9 1_555 1_555
C10 H8 1_555 1_555
H9 C10 1_555 1_555
C11 C10 1_555 1_555
H10 C11 1_555 1_555
H11 C11 1_555 1_555
C12 C11 1_555 1_555
H12 C12 1_555 1_555
H13 C12 1_555 1_555
C13 C12 1_555 1_555
H14 C13 1_555 1_555
H15 C13 1_555 1_555
N1 C9 1_555 1_555
H16 N1 1_555 1_555
C5 C6 1_555 1_555
C10 N1 1_555 1_555
C13 N1 1_555 1_555

#END
