
#######################################################################
#
#                 Cambridge Crystallographic Data Centre
#                                CCDC 
#
#######################################################################
#
# If this CIF has been generated from an entry in the Cambridge 
# Structural Database, then it will include bibliographic, chemical, 
# crystal, experimental, refinement or atomic coordinate data resulting 
# from the CCDC's data processing and validation procedures.
#
#######################################################################

data_PUGVUJ
_chemical_name_common            
(S)-3-[(S,E)-4-(4-Chlorophenyl)-1-nitrobut-3-en-2-yl]thian-4-one
_chemical_formula_moiety         'C15 H16 Cl1 N1 O3 S1'
_chemical_name_systematic        
3-(4-(4-Chlorophenyl)-1-nitrobut-3-en-2-yl)tetrahydro-4H-thiopyran-4-one
_symmetry_cell_setting           orthorhombic
_symmetry_space_group_name_H-M   'P 21 21 21'
_symmetry_Int_Tables_number      19
_space_group_name_Hall           'P 2ac 2ab'
loop_
_symmetry_equiv_pos_site_id
_symmetry_equiv_pos_as_xyz
1 x,y,z
2 1/2-x,-y,1/2+z
3 1/2+x,1/2-y,-z
4 -x,1/2+y,1/2-z
_cell_length_a                   5.5220(2)
_cell_length_b                   8.3833(3)
_cell_length_c                   34.7414(12)
_cell_angle_alpha                90
_cell_angle_beta                 90
_cell_angle_gamma                90
_cell_volume                     1608.27
_exptl_crystal_colour            colorless
_exptl_crystal_description       block
_cell_formula_units_Z            4
_exptl_crystal_recrystallization_method 'ethanol/ethyl acetate'
loop_
_atom_site_label
_atom_site_type_symbol
_atom_site_fract_x
_atom_site_fract_y
_atom_site_fract_z
C1 C -0.1203(6) 0.9836(3) 0.01706(6)
S1 S 0.55221(10) 0.17716(7) 0.117335(15)
Cl1 Cl -0.1215(2) 1.11399(9) -0.022097(18)
C2 C 0.0659(3) 0.5010(2) 0.16547(4)
H1 H -0.0877 0.4429 0.1634
O1 O 0.0671(3) 0.22754(16) 0.21132(4)
C3 C 0.2745(3) 0.3803(2) 0.16338(4)
H2 H 0.4264 0.4371 0.1684
N1 N -0.1196(3) 0.7113(2) 0.20576(4)
C4 C 0.2912(4) 0.3026(2) 0.12328(5)
H3 H 0.2954 0.3859 0.1039
H4 H 0.1466 0.2394 0.1189
C5 C 0.0775(3) 0.6222(2) 0.13348(5)
H5 H 0.2189 0.6816 0.1310
C6 C 0.0736(3) 0.5865(2) 0.20462(5)
H6 H 0.0481 0.5101 0.2252
H7 H 0.2309 0.6356 0.2083
C7 C 0.2507(3) 0.2460(2) 0.19269(5)
C8 C -0.0980(3) 0.6500(2) 0.10879(5)
H8 H -0.2357 0.5869 0.1113
O2 O -0.0587(3) 0.84976(18) 0.20651(5)
C9 C 0.4615(4) 0.1319(3) 0.19524(6)
H9 H 0.4315 0.0550 0.2155
H10 H 0.6073 0.1906 0.2017
C10 C 0.0781(4) 0.8818(2) 0.07241(5)
H11 H 0.2076 0.8847 0.0895
O3 O -0.3289(3) 0.6674(2) 0.20483(5)
C11 C -0.1020(3) 0.7694(2) 0.07758(5)
C12 C 0.4989(5) 0.0446(3) 0.15734(6)
H12 H 0.3568 -0.0196 0.1519
H13 H 0.6359 -0.0270 0.1599
C13 C -0.2923(4) 0.7687(3) 0.05161(6)
H14 H -0.4169 0.6951 0.0547
C14 C -0.3010(5) 0.8756(3) 0.02114(6)
H15 H -0.4291 0.8732 0.0038
C15 C 0.0704(5) 0.9901(3) 0.04238(6)
H16 H 0.1920 1.0658 0.0394
loop_
_geom_bond_atom_site_label_1
_geom_bond_atom_site_label_2
_geom_bond_site_symmetry_1
_geom_bond_site_symmetry_2
C1 Cl1 1_555 1_555
S1 C4 1_555 1_555
C2 H1 1_555 1_555
O1 C7 1_555 1_555
C3 C2 1_555 1_555
H2 C3 1_555 1_555
N1 C6 1_555 1_555
C4 C3 1_555 1_555
H3 C4 1_555 1_555
H4 C4 1_555 1_555
C5 C2 1_555 1_555
H5 C5 1_555 1_555
C6 C2 1_555 1_555
H6 C6 1_555 1_555
H7 C6 1_555 1_555
C7 C3 1_555 1_555
C8 C5 1_555 1_555
H8 C8 1_555 1_555
O2 N1 1_555 1_555
C9 C7 1_555 1_555
H9 C9 1_555 1_555
H10 C9 1_555 1_555
C10 H11 1_555 1_555
O3 N1 1_555 1_555
C11 C8 1_555 1_555
C12 S1 1_555 1_555
H12 C12 1_555 1_555
H13 C12 1_555 1_555
C13 C11 1_555 1_555
H14 C13 1_555 1_555
C14 C1 1_555 1_555
H15 C14 1_555 1_555
C15 C1 1_555 1_555
H16 C15 1_555 1_555
C9 C12 1_555 1_555
C10 C11 1_555 1_555
C10 C15 1_555 1_555
C13 C14 1_555 1_555

#END
