
#######################################################################
#
#                 Cambridge Crystallographic Data Centre
#                                CCDC 
#
#######################################################################
#
# If this CIF has been generated from an entry in the Cambridge 
# Structural Database, then it will include bibliographic, chemical, 
# crystal, experimental, refinement or atomic coordinate data resulting 
# from the CCDC's data processing and validation procedures.
#
#######################################################################

data_PUGWOE
_chemical_formula_moiety         'C14 H10 F6 N6'
_chemical_name_systematic        
4,6-bis(5-methyl-3-(trifluoromethyl)-1H-pyrazol-1-yl)pyrimidine
_chemical_properties_biological  'high herbicidal activity'
_symmetry_cell_setting           monoclinic
_symmetry_space_group_name_H-M   'C 2/c'
_symmetry_Int_Tables_number      15
_space_group_name_Hall           '-C 2yn'
loop_
_symmetry_equiv_pos_site_id
_symmetry_equiv_pos_as_xyz
1 x,y,z
2 -x,y,1/2-z
3 1/2+x,1/2+y,z
4 1/2-x,1/2+y,1/2-z
5 -x,-y,-z
6 x,-y,1/2+z
7 1/2-x,1/2-y,-z
8 1/2+x,1/2-y,1/2+z
_cell_length_a                   8.5387(14)
_cell_length_b                   16.110(6)
_cell_length_c                   11.022(5)
_cell_angle_alpha                90
_cell_angle_beta                 99.295(5)
_cell_angle_gamma                90
_cell_volume                     1496.26
_exptl_crystal_colour            colorless
_exptl_crystal_description       block
_cell_formula_units_Z            4
loop_
_atom_site_label
_atom_site_type_symbol
_atom_site_fract_x
_atom_site_fract_y
_atom_site_fract_z
F1 F 0.53252(12) 0.61885(7) 0.61601(11)
F2 F 0.39212(17) 0.66320(8) 0.45033(11)
F3 F 0.31154(14) 0.67824(7) 0.62363(12)
N1 N 0.22004(15) 0.52452(8) 0.43231(12)
N2 N 0.16127(15) 0.44751(8) 0.45125(11)
N3 N 0.07685(16) 0.32384(8) 0.35077(13)
C1 C 0.30268(18) 0.54413(10) 0.54059(14)
C2 C 0.29725(19) 0.48203(10) 0.62924(14)
H1 H 0.3470 0.4829 0.7128
C3 C 0.20539(18) 0.42006(10) 0.57018(14)
C4 C 0.1508(2) 0.34123(11) 0.62036(16)
H2 H 0.1750 0.3423 0.7103
H3 H 0.2054 0.2942 0.5892
H4 H 0.0360 0.3353 0.5945
C5 C 0.07580(17) 0.40647(10) 0.34787(13)
C6 C 0.0000 0.45258(14) 0.2500
H5 H 0.0000 0.5115 0.2500
C7 C 0.0000 0.28736(15) 0.2500
H6 H 0.0000 0.2284 0.2500
C8 C 0.3840(2) 0.62608(11) 0.55639(15)
F1A F -0.53252(12) 0.61885(7) -0.11601(11)
F2A F -0.39212(17) 0.66320(8) 0.04967(11)
F3A F -0.31154(14) 0.67824(7) -0.12363(12)
N1A N -0.22004(15) 0.52452(8) 0.06769(12)
N2A N -0.16127(15) 0.44751(8) 0.04875(11)
N3A N -0.07685(16) 0.32384(8) 0.14923(13)
C1A C -0.30268(18) 0.54413(10) -0.04059(14)
C2A C -0.29725(19) 0.48203(10) -0.12924(14)
H1A H -0.3470 0.4829 -0.2128
C3A C -0.20539(18) 0.42006(10) -0.07018(14)
C4A C -0.1508(2) 0.34123(11) -0.12036(16)
H2A H -0.1750 0.3423 -0.2103
H3A H -0.2054 0.2942 -0.0892
H4A H -0.0360 0.3353 -0.0945
C5A C -0.07580(17) 0.40647(10) 0.15213(13)
C8A C -0.3840(2) 0.62608(11) -0.05639(15)
loop_
_geom_bond_atom_site_label_1
_geom_bond_atom_site_label_2
_geom_bond_site_symmetry_1
_geom_bond_site_symmetry_2
F1 C8 1_555 1_555
F2 C8 1_555 1_555
F3 C8 1_555 1_555
N1 N2 1_555 1_555
N2 C3 1_555 1_555
N3 C5 1_555 1_555
C1 N1 1_555 1_555
C2 C1 1_555 1_555
H1 C2 1_555 1_555
C3 C2 1_555 1_555
C4 C3 1_555 1_555
H2 C4 1_555 1_555
H3 C4 1_555 1_555
H4 C4 1_555 1_555
C5 N2 1_555 1_555
C6 C5 1_555 1_555
H5 C6 1_555 1_555
C7 N3 1_555 1_555
H6 C7 1_555 1_555
C8 C1 1_555 1_555
F1A C8A 1_555 1_555
F2A C8A 1_555 1_555
F3A C8A 1_555 1_555
N1A N2A 1_555 1_555
N2A C3A 1_555 1_555
N3A C7 1_555 1_555
C1A N1A 1_555 1_555
C2A C1A 1_555 1_555
H1A C2A 1_555 1_555
C3A C2A 1_555 1_555
C4A C3A 1_555 1_555
H2A C4A 1_555 1_555
H3A C4A 1_555 1_555
H4A C4A 1_555 1_555
C5A C6 1_555 1_555
C8A C1A 1_555 1_555
N2A C5A 1_555 1_555
N3A C5A 1_555 1_555

#END
