
#######################################################################
#
#                 Cambridge Crystallographic Data Centre
#                                CCDC 
#
#######################################################################
#
# If this CIF has been generated from an entry in the Cambridge 
# Structural Database, then it will include bibliographic, chemical, 
# crystal, experimental, refinement or atomic coordinate data resulting 
# from the CCDC's data processing and validation procedures.
#
#######################################################################

data_PUHPEP
_chemical_formula_moiety         'C74 H92'
_chemical_name_systematic        
17,45-di-t-butylundecacyclo[31.23.1.1^5,29^.1^6,28^.1^10,24^.1^11,23^.1^15,19^.1^34,56^.1^38,52^.1^39,51^.1^43,47^]hexahexaconta-1(57),5(62),6(63),10(64),11(65),15(66),16,18,23,28,33,38(59),39(60),43(61),44,46,51,56(58)-octadecaene
_symmetry_cell_setting           triclinic
_symmetry_space_group_name_H-M   'P -1'
_symmetry_Int_Tables_number      2
_space_group_name_Hall           '-P 1'
loop_
_symmetry_equiv_pos_site_id
_symmetry_equiv_pos_as_xyz
1 x,y,z
2 -x,-y,-z
_cell_length_a                   9.481(3)
_cell_length_b                   17.890(5)
_cell_length_c                   18.394(6)
_cell_angle_alpha                67.515(12)
_cell_angle_beta                 86.533(12)
_cell_angle_gamma                78.039(10)
_cell_volume                     2819.53
_exptl_crystal_colour            colorless
_exptl_crystal_description       platelet
_chemical_melting_point          'above 573 K'
_cell_formula_units_Z            2
loop_
_atom_site_label
_atom_site_type_symbol
_atom_site_fract_x
_atom_site_fract_y
_atom_site_fract_z
C1 C 0.2866(3) -0.31461(18) 0.91278(19)
H1 H 0.3283 -0.3729 0.9449
H2 H 0.2251 -0.2916 0.9478
C2 C 0.4117(3) -0.26762(18) 0.8861(2)
H3 H 0.4800 -0.2865 0.9312
H4 H 0.4637 -0.2834 0.8442
C3 C 0.3701(3) -0.17349(18) 0.85544(19)
H5 H 0.3124 -0.1570 0.8955
H6 H 0.4589 -0.1505 0.8475
C4 C 0.2842(3) -0.13714(17) 0.77879(18)
C5 C 0.3497(3) -0.14191(18) 0.71072(19)
H7 H 0.4508 -0.1621 0.7119
C6 C 0.2728(3) -0.11826(19) 0.64086(19)
C7 C 0.1230(3) -0.08986(19) 0.6426(2)
H8 H 0.0670 -0.0745 0.5961
C8 C 0.0535(3) -0.08326(18) 0.7093(2)
C9 C 0.1371(3) -0.10507(17) 0.77644(19)
H9 H 0.0929 -0.0979 0.8217
C10 C -0.1084(3) -0.0566(2) 0.7097(2)
H10 H -0.1346 -0.0485 0.7595
H11 H -0.1370 -0.0024 0.6661
C11 C -0.1946(4) -0.1140(2) 0.7019(3)
H12 H -0.1621 -0.1255 0.6543
H13 H -0.2965 -0.0846 0.6920
C12 C -0.1909(3) -0.19853(19) 0.7714(2)
H14 H -0.2126 -0.1885 0.8206
H15 H -0.2678 -0.2242 0.7624
C13 C -0.0478(3) -0.25868(17) 0.78215(19)
C14 C 0.0478(3) -0.26769(17) 0.84081(19)
H16 H 0.0157 -0.2415 0.8767
C15 C 0.1898(3) -0.31365(17) 0.84956(19)
C16 C 0.2350(3) -0.35508(17) 0.79825(19)
C17 C 0.1370(3) -0.34515(17) 0.73967(19)
H17 H 0.1690 -0.3705 0.7031
C18 C -0.0032(3) -0.30094(18) 0.73158(19)
C19 C -0.1040(3) -0.30308(19) 0.67167(19)
H18 H -0.0456 -0.3238 0.6343
H19 H -0.1548 -0.2460 0.6413
C20 C -0.2175(3) -0.35719(19) 0.7073(2)
H20 H -0.2624 -0.3434 0.7518
H21 H -0.2942 -0.3417 0.6670
C21 C -0.1633(3) -0.45146(18) 0.7371(2)
H22 H -0.2487 -0.4776 0.7478
H23 H -0.1110 -0.4644 0.6939
C22 C -0.0656(3) -0.49226(17) 0.81023(19)
C23 C -0.1163(3) -0.50824(17) 0.88683(19)
C24 C -0.0186(3) -0.54897(16) 0.94902(19)
H24 H -0.0547 -0.5657 1.0009
C25 C 0.1307(3) -0.56699(16) 0.93972(19)
C26 C 0.1825(3) -0.54761(16) 0.8632(2)
C27 C 0.0817(3) -0.51644(16) 0.80111(19)
H25 H 0.1154 -0.5115 0.7501
C28 C 0.3433(3) -0.56025(17) 0.8451(2)
H26 H 0.3982 -0.5775 0.8949
H27 H 0.3670 -0.6064 0.8265
C29 C 0.3964(3) -0.48630(18) 0.7845(2)
H28 H 0.3424 -0.4698 0.7345
H29 H 0.4991 -0.5047 0.7748
C30 C 0.3837(3) -0.40891(18) 0.8044(2)
H30 H 0.4209 -0.4270 0.8589
H31 H 0.4480 -0.3742 0.7691
C31 C -0.2739(3) -0.48043(19) 0.90259(19)
H32 H -0.3271 -0.5231 0.9040
H33 H -0.3139 -0.4291 0.8579
C32 C 0.2273(3) -0.60114(17) 1.01291(19)
H34 H 0.3015 -0.6482 1.0110
H35 H 0.1685 -0.6221 1.0600
C33 C 0.3031(3) -0.53544(18) 1.02096(19)
H36 H 0.4084 -0.5532 1.0171
H37 H 0.2720 -0.4827 0.9759
C34 C 0.3466(4) -0.1280(2) 0.5679(2)
C35 C 0.3472(5) -0.2162(3) 0.5725(3)
H38 H 0.2477 -0.2235 0.5720
H39 H 0.3965 -0.2567 0.6213
H40 H 0.3979 -0.2244 0.5273
C36 C 0.2693(4) -0.0657(3) 0.4928(2)
H41 H 0.1706 -0.0741 0.4921
H42 H 0.3206 -0.0730 0.4473
H43 H 0.2668 -0.0097 0.4903
C37 C 0.5046(4) -0.1178(3) 0.5655(2)
H44 H 0.5484 -0.1211 0.5169
H45 H 0.5583 -0.1617 0.6110
H46 H 0.5074 -0.0640 0.5671
C1A C -0.2866(3) -0.68539(18) 1.08722(19)
H1A H -0.3283 -0.6271 1.0551
H2A H -0.2251 -0.7084 1.0522
C2A C -0.4117(3) -0.73238(18) 1.1139(2)
H3A H -0.4800 -0.7135 1.0688
H4A H -0.4637 -0.7166 1.1558
C3A C -0.3701(3) -0.82651(18) 1.14456(19)
H5A H -0.3124 -0.8430 1.1045
H6A H -0.4589 -0.8495 1.1525
C4A C -0.2842(3) -0.86286(17) 1.22121(18)
C5A C -0.3497(3) -0.85809(18) 1.28928(19)
H7A H -0.4508 -0.8379 1.2881
C6A C -0.2728(3) -0.88174(19) 1.35914(19)
C7A C -0.1230(3) -0.91014(19) 1.3574(2)
H8A H -0.0670 -0.9255 1.4039
C8A C -0.0535(3) -0.91674(18) 1.2907(2)
C9A C -0.1371(3) -0.89493(17) 1.22356(19)
H9A H -0.0929 -0.9021 1.1783
C10A C 0.1084(3) -0.9434(2) 1.2903(2)
H10A H 0.1346 -0.9515 1.2405
H11A H 0.1370 -0.9976 1.3339
C11A C 0.1946(4) -0.8860(2) 1.2981(3)
H12A H 0.1621 -0.8745 1.3457
H13A H 0.2965 -0.9154 1.3080
C12A C 0.1909(3) -0.80147(19) 1.2286(2)
H14A H 0.2126 -0.8115 1.1794
H15A H 0.2678 -0.7758 1.2376
C13A C 0.0478(3) -0.74132(17) 1.21785(19)
C14A C -0.0478(3) -0.73231(17) 1.15919(19)
H16A H -0.0157 -0.7585 1.1233
C15A C -0.1898(3) -0.68635(17) 1.15044(19)
C16A C -0.2350(3) -0.64492(17) 1.20175(19)
C17A C -0.1370(3) -0.65485(17) 1.26033(19)
H17A H -0.1690 -0.6295 1.2969
C18A C 0.0032(3) -0.69906(18) 1.26842(19)
C19A C 0.1040(3) -0.69692(19) 1.32833(19)
H18A H 0.0456 -0.6762 1.3657
H19A H 0.1548 -0.7540 1.3587
C20A C 0.2175(3) -0.64281(19) 1.2927(2)
H20A H 0.2624 -0.6566 1.2482
H21A H 0.2942 -0.6583 1.3330
C21A C 0.1633(3) -0.54854(18) 1.2629(2)
H22A H 0.2487 -0.5224 1.2522
H23A H 0.1110 -0.5356 1.3061
C22A C 0.0656(3) -0.50774(17) 1.18977(19)
C23A C 0.1163(3) -0.49176(17) 1.11317(19)
C24A C 0.0186(3) -0.45103(16) 1.05098(19)
H24A H 0.0547 -0.4343 0.9991
C25A C -0.1307(3) -0.43301(16) 1.06028(19)
C26A C -0.1825(3) -0.45239(16) 1.1368(2)
C27A C -0.0817(3) -0.48356(16) 1.19889(19)
H25A H -0.1154 -0.4885 1.2499
C28A C -0.3433(3) -0.43975(17) 1.1549(2)
H26A H -0.3982 -0.4225 1.1051
H27A H -0.3670 -0.3936 1.1735
C29A C -0.3964(3) -0.51370(18) 1.2155(2)
H28A H -0.3424 -0.5302 1.2655
H29A H -0.4991 -0.4953 1.2252
C30A C -0.3837(3) -0.59109(18) 1.1956(2)
H30A H -0.4209 -0.5730 1.1411
H31A H -0.4480 -0.6258 1.2309
C31A C 0.2739(3) -0.51957(19) 1.09741(19)
H32A H 0.3271 -0.4769 1.0960
H33A H 0.3139 -0.5709 1.1421
C32A C -0.2273(3) -0.39886(17) 0.98709(19)
H34A H -0.3015 -0.3518 0.9890
H35A H -0.1685 -0.3779 0.9400
C33A C -0.3031(3) -0.46456(18) 0.97904(19)
H36A H -0.4084 -0.4468 0.9829
H37A H -0.2720 -0.5173 1.0241
C34A C -0.3466(4) -0.8720(2) 1.4321(2)
C35A C -0.3472(5) -0.7838(3) 1.4275(3)
H38A H -0.2477 -0.7765 1.4280
H39A H -0.3965 -0.7433 1.3787
H40A H -0.3979 -0.7756 1.4727
C36A C -0.2693(4) -0.9343(3) 1.5072(2)
H41A H -0.1706 -0.9259 1.5079
H42A H -0.3206 -0.9270 1.5527
H43A H -0.2668 -0.9903 1.5097
C37A C -0.5046(4) -0.8822(3) 1.4345(2)
H44A H -0.5484 -0.8789 1.4831
H45A H -0.5583 -0.8383 1.3890
H46A H -0.5074 -0.9360 1.4329
C38 C -0.1406(3) 0.17831(19) 0.6929(2)
H47 H -0.2341 0.1987 0.7126
H48 H -0.1367 0.1198 0.7015
C39 C -0.1371(4) 0.2276(3) 0.6041(2)
H49 H -0.1338 0.2852 0.5961
H50 H -0.2290 0.2289 0.5805
C40 C -0.0128(3) 0.1970(3) 0.5581(2)
H51 H -0.0071 0.1373 0.5711
H52 H -0.0355 0.2261 0.5011
C41 C 0.1335(3) 0.2097(2) 0.5745(2)
C42 C 0.1557(4) 0.2888(2) 0.5590(2)
H53 H 0.0814 0.3349 0.5331
C43 C 0.2847(4) 0.3024(2) 0.5805(2)
C44 C 0.3900(3) 0.2334(2) 0.6185(2)
H54 H 0.4777 0.2409 0.6346
C45 C 0.3714(4) 0.1532(2) 0.6339(2)
C46 C 0.2443(4) 0.1429(2) 0.6096(2)
H55 H 0.2326 0.0890 0.6172
C47 C 0.4830(4) 0.0798(2) 0.6830(2)
H56 H 0.5794 0.0867 0.6608
H57 H 0.4626 0.0292 0.6795
C48 C 0.4866(3) 0.0683(2) 0.7702(2)
H58 H 0.5691 0.0233 0.7966
H59 H 0.5054 0.1195 0.7730
C49 C 0.3502(3) 0.04817(19) 0.8169(2)
H60 H 0.3202 0.0041 0.8051
H61 H 0.3761 0.0252 0.8736
C50 C 0.2207(3) 0.11872(17) 0.80236(18)
C51 C 0.2198(3) 0.18682(17) 0.82368(18)
C52 C 0.0997(3) 0.25114(17) 0.80088(19)
H62 H 0.1010 0.2985 0.8123
C53 C -0.0228(3) 0.25063(18) 0.76215(19)
C54 C -0.0202(3) 0.18191(18) 0.74197(19)
C55 C 0.0995(3) 0.11781(18) 0.76399(19)
H63 H 0.0985 0.0707 0.7522
C56 C -0.1526(3) 0.31955(18) 0.7493(2)
H64 H -0.1892 0.3380 0.6947
H65 H -0.1216 0.3668 0.7547
C57 C -0.2770(3) 0.2969(2) 0.8059(2)
H66 H -0.3639 0.3403 0.7841
H67 H -0.2975 0.2448 0.8058
C58 C -0.2566(3) 0.28571(17) 0.8919(2)
H68 H -0.2303 0.3365 0.8917
H69 H -0.3512 0.2820 0.9174
C59 C -0.1462(3) 0.21248(18) 0.94356(19)
C60 C -0.1733(3) 0.13140(18) 0.97692(18)
C61 C -0.0691(3) 0.06968(18) 1.02799(18)
H70 H -0.0922 0.0170 1.0560
C62 C 0.0674(3) 0.08142(17) 1.04001(18)
C63 C 0.0971(3) 0.16115(18) 1.00378(19)
C64 C -0.0141(3) 0.22473(18) 0.96141(19)
H71 H 0.0009 0.2798 0.9436
C65 C 0.2445(3) 0.17987(18) 1.00841(19)
H72 H 0.3136 0.1268 1.0321
H73 H 0.2391 0.2096 1.0445
C66 C 0.3055(3) 0.23117(18) 0.93013(19)
H74 H 0.2341 0.2831 0.9054
H75 H 0.3935 0.2464 0.9420
C67 C 0.3434(3) 0.19112(19) 0.86967(19)
H76 H 0.4095 0.2217 0.8315
H77 H 0.3976 0.1341 0.8974
C68 C 0.1795(3) 0.00708(18) 1.08726(19)
H78 H 0.1308 -0.0392 1.1170
H79 H 0.2268 0.0207 1.1258
C69 C 0.2972(3) -0.02122(18) 1.03461(19)
H80 H 0.2754 0.0162 0.9790
H81 H 0.3917 -0.0147 1.0490
C70 C 0.3108(3) -0.11055(18) 1.0408(2)
H82 H 0.3855 -0.1212 1.0040
H83 H 0.3447 -0.1483 1.0948
C71 C 0.3031(4) 0.3910(2) 0.5637(3)
C72 C 0.1781(6) 0.4323(3) 0.6034(4)
H84 H 0.1864 0.4031 0.6606
H85 H 0.0854 0.4297 0.5847
H86 H 0.1840 0.4902 0.5897
C73 C 0.2887(7) 0.4422(3) 0.4756(3)
H87 H 0.2963 0.4991 0.4659
H88 H 0.1949 0.4422 0.4560
H89 H 0.3658 0.4184 0.4481
C74 C 0.4408(6) 0.3944(3) 0.5969(4)
H90 H 0.5228 0.3691 0.5734
H91 H 0.4442 0.3643 0.6541
H92 H 0.4455 0.4521 0.5851
C38A C 0.1406(3) -0.17831(19) 1.3071(2)
H47A H 0.2341 -0.1987 1.2874
H48A H 0.1367 -0.1198 1.2985
C39A C 0.1371(4) -0.2276(3) 1.3959(2)
H49A H 0.1338 -0.2852 1.4039
H50A H 0.2290 -0.2289 1.4195
C40A C 0.0128(3) -0.1970(3) 1.4419(2)
H51A H 0.0071 -0.1373 1.4289
H52A H 0.0355 -0.2261 1.4989
C41A C -0.1335(3) -0.2097(2) 1.4255(2)
C42A C -0.1557(4) -0.2888(2) 1.4410(2)
H53A H -0.0814 -0.3349 1.4669
C43A C -0.2847(4) -0.3024(2) 1.4195(2)
C44A C -0.3900(3) -0.2334(2) 1.3815(2)
H54A H -0.4777 -0.2409 1.3654
C45A C -0.3714(4) -0.1532(2) 1.3661(2)
C46A C -0.2443(4) -0.1429(2) 1.3904(2)
H55A H -0.2326 -0.0890 1.3828
C47A C -0.4830(4) -0.0798(2) 1.3170(2)
H56A H -0.5794 -0.0867 1.3392
H57A H -0.4626 -0.0292 1.3205
C48A C -0.4866(3) -0.0683(2) 1.2298(2)
H58A H -0.5691 -0.0233 1.2034
H59A H -0.5054 -0.1195 1.2270
C49A C -0.3502(3) -0.04817(19) 1.1831(2)
H60A H -0.3202 -0.0041 1.1949
H61A H -0.3761 -0.0252 1.1264
C50A C -0.2207(3) -0.11872(17) 1.19764(18)
C51A C -0.2198(3) -0.18682(17) 1.17632(18)
C52A C -0.0997(3) -0.25114(17) 1.19912(19)
H62A H -0.1010 -0.2985 1.1877
C53A C 0.0228(3) -0.25063(18) 1.23785(19)
C54A C 0.0202(3) -0.18191(18) 1.25803(19)
C55A C -0.0995(3) -0.11781(18) 1.23601(19)
H63A H -0.0985 -0.0707 1.2478
C56A C 0.1526(3) -0.31955(18) 1.2507(2)
H64A H 0.1892 -0.3380 1.3053
H65A H 0.1216 -0.3668 1.2453
C57A C 0.2770(3) -0.2969(2) 1.1941(2)
H66A H 0.3639 -0.3403 1.2159
H67A H 0.2975 -0.2448 1.1942
C58A C 0.2566(3) -0.28571(17) 1.1081(2)
H68A H 0.2303 -0.3365 1.1083
H69A H 0.3512 -0.2820 1.0826
C59A C 0.1462(3) -0.21248(18) 1.05644(19)
C60A C 0.1733(3) -0.13140(18) 1.02308(18)
C61A C 0.0691(3) -0.06968(18) 0.97201(18)
H70A H 0.0922 -0.0170 0.9440
C62A C -0.0674(3) -0.08142(17) 0.95999(18)
C63A C -0.0971(3) -0.16115(18) 0.99622(19)
C64A C 0.0141(3) -0.22473(18) 1.03859(19)
H71A H -0.0009 -0.2798 1.0564
C65A C -0.2445(3) -0.17987(18) 0.99159(19)
H72A H -0.3136 -0.1268 0.9679
H73A H -0.2391 -0.2096 0.9555
C66A C -0.3055(3) -0.23117(18) 1.06987(19)
H74A H -0.2341 -0.2831 1.0946
H75A H -0.3935 -0.2464 1.0580
C67A C -0.3434(3) -0.19112(19) 1.13033(19)
H76A H -0.4095 -0.2217 1.1685
H77A H -0.3976 -0.1341 1.1026
C68A C -0.1795(3) -0.00708(18) 0.91274(19)
H78A H -0.1308 0.0392 0.8830
H79A H -0.2268 -0.0207 0.8742
C69A C -0.2972(3) 0.02122(18) 0.96539(19)
H80A H -0.2754 -0.0162 1.0210
H81A H -0.3917 0.0147 0.9510
C70A C -0.3108(3) 0.11055(18) 0.9592(2)
H82A H -0.3855 0.1212 0.9960
H83A H -0.3447 0.1483 0.9052
C71A C -0.3031(4) -0.3910(2) 1.4363(3)
C72A C -0.1781(6) -0.4323(3) 1.3966(4)
H84A H -0.1864 -0.4031 1.3394
H85A H -0.0854 -0.4297 1.4153
H86A H -0.1840 -0.4902 1.4103
C73A C -0.2887(7) -0.4422(3) 1.5244(3)
H87A H -0.2963 -0.4991 1.5341
H88A H -0.1949 -0.4422 1.5440
H89A H -0.3658 -0.4184 1.5519
C74A C -0.4408(6) -0.3944(3) 1.4031(4)
H90A H -0.5228 -0.3691 1.4266
H91A H -0.4442 -0.3643 1.3459
H92A H -0.4455 -0.4521 1.4149
loop_
_geom_bond_atom_site_label_1
_geom_bond_atom_site_label_2
_geom_bond_site_symmetry_1
_geom_bond_site_symmetry_2
C1 H1 1_555 1_555
H2 C1 1_555 1_555
C2 C1 1_555 1_555
H3 C2 1_555 1_555
H4 C2 1_555 1_555
C3 C2 1_555 1_555
H5 C3 1_555 1_555
H6 C3 1_555 1_555
C4 C3 1_555 1_555
C5 C4 1_555 1_555
H7 C5 1_555 1_555
C6 C5 1_555 1_555
C7 C6 1_555 1_555
H8 C7 1_555 1_555
C8 C7 1_555 1_555
C9 C4 1_555 1_555
H9 C9 1_555 1_555
C10 C8 1_555 1_555
H10 C10 1_555 1_555
H11 C10 1_555 1_555
C11 C10 1_555 1_555
H12 C11 1_555 1_555
H13 C11 1_555 1_555
C12 C11 1_555 1_555
H14 C12 1_555 1_555
H15 C12 1_555 1_555
C13 C12 1_555 1_555
C14 C13 1_555 1_555
H16 C14 1_555 1_555
C15 C1 1_555 1_555
C16 C15 1_555 1_555
C17 C16 1_555 1_555
H17 C17 1_555 1_555
C18 C13 1_555 1_555
C19 C18 1_555 1_555
H18 C19 1_555 1_555
H19 C19 1_555 1_555
C20 C19 1_555 1_555
H20 C20 1_555 1_555
H21 C20 1_555 1_555
C21 C20 1_555 1_555
H22 C21 1_555 1_555
H23 C21 1_555 1_555
C22 C21 1_555 1_555
C23 C22 1_555 1_555
C24 C23 1_555 1_555
H24 C24 1_555 1_555
C25 C24 1_555 1_555
C26 C25 1_555 1_555
C27 C22 1_555 1_555
H25 C27 1_555 1_555
C28 C26 1_555 1_555
H26 C28 1_555 1_555
H27 C28 1_555 1_555
C29 C28 1_555 1_555
H28 C29 1_555 1_555
H29 C29 1_555 1_555
C30 C16 1_555 1_555
H30 C30 1_555 1_555
H31 C30 1_555 1_555
C31 C23 1_555 1_555
H32 C31 1_555 1_555
H33 C31 1_555 1_555
C32 C25 1_555 1_555
H34 C32 1_555 1_555
H35 C32 1_555 1_555
C33 C32 1_555 1_555
H36 C33 1_555 1_555
H37 C33 1_555 1_555
C34 C6 1_555 1_555
C35 C34 1_555 1_555
H38 C35 1_555 1_555
H39 C35 1_555 1_555
H40 C35 1_555 1_555
C36 C34 1_555 1_555
H41 C36 1_555 1_555
H42 C36 1_555 1_555
H43 C36 1_555 1_555
C37 C34 1_555 1_555
H44 C37 1_555 1_555
H45 C37 1_555 1_555
H46 C37 1_555 1_555
C38 H47 1_555 1_555
H48 C38 1_555 1_555
C39 C38 1_555 1_555
H49 C39 1_555 1_555
H50 C39 1_555 1_555
C40 C39 1_555 1_555
H51 C40 1_555 1_555
H52 C40 1_555 1_555
C41 C40 1_555 1_555
C42 C41 1_555 1_555
H53 C42 1_555 1_555
C43 C42 1_555 1_555
C44 C43 1_555 1_555
H54 C44 1_555 1_555
C45 C44 1_555 1_555
C46 C41 1_555 1_555
H55 C46 1_555 1_555
C47 C45 1_555 1_555
H56 C47 1_555 1_555
H57 C47 1_555 1_555
C48 C47 1_555 1_555
H58 C48 1_555 1_555
H59 C48 1_555 1_555
C49 C48 1_555 1_555
H60 C49 1_555 1_555
H61 C49 1_555 1_555
C50 C49 1_555 1_555
C51 C50 1_555 1_555
C52 C51 1_555 1_555
H62 C52 1_555 1_555
C53 C52 1_555 1_555
C54 C38 1_555 1_555
C55 C50 1_555 1_555
H63 C55 1_555 1_555
C56 C53 1_555 1_555
H64 C56 1_555 1_555
H65 C56 1_555 1_555
C57 C56 1_555 1_555
H66 C57 1_555 1_555
H67 C57 1_555 1_555
C58 C57 1_555 1_555
H68 C58 1_555 1_555
H69 C58 1_555 1_555
C59 C58 1_555 1_555
C60 C59 1_555 1_555
C61 C60 1_555 1_555
H70 C61 1_555 1_555
C62 C61 1_555 1_555
C63 C62 1_555 1_555
C64 C59 1_555 1_555
H71 C64 1_555 1_555
C65 C63 1_555 1_555
H72 C65 1_555 1_555
H73 C65 1_555 1_555
C66 C65 1_555 1_555
H74 C66 1_555 1_555
H75 C66 1_555 1_555
C67 C51 1_555 1_555
H76 C67 1_555 1_555
H77 C67 1_555 1_555
C68 C62 1_555 1_555
H78 C68 1_555 1_555
H79 C68 1_555 1_555
C69 C68 1_555 1_555
H80 C69 1_555 1_555
H81 C69 1_555 1_555
C70 C69 1_555 1_555
H82 C70 1_555 1_555
H83 C70 1_555 1_555
C71 C43 1_555 1_555
C72 C71 1_555 1_555
H84 C72 1_555 1_555
H85 C72 1_555 1_555
H86 C72 1_555 1_555
C73 C71 1_555 1_555
H87 C73 1_555 1_555
H88 C73 1_555 1_555
H89 C73 1_555 1_555
C74 C71 1_555 1_555
H90 C74 1_555 1_555
H91 C74 1_555 1_555
H92 C74 1_555 1_555
C1A H1A 1_555 1_555
H2A C1A 1_555 1_555
C2A C1A 1_555 1_555
H3A C2A 1_555 1_555
H4A C2A 1_555 1_555
C3A C2A 1_555 1_555
H5A C3A 1_555 1_555
H6A C3A 1_555 1_555
C4A C3A 1_555 1_555
C5A C4A 1_555 1_555
H7A C5A 1_555 1_555
C6A C5A 1_555 1_555
C7A C6A 1_555 1_555
H8A C7A 1_555 1_555
C8A C7A 1_555 1_555
C9A C4A 1_555 1_555
H9A C9A 1_555 1_555
C10A C8A 1_555 1_555
H10A C10A 1_555 1_555
H11A C10A 1_555 1_555
C11A C10A 1_555 1_555
H12A C11A 1_555 1_555
H13A C11A 1_555 1_555
C12A C11A 1_555 1_555
H14A C12A 1_555 1_555
H15A C12A 1_555 1_555
C13A C12A 1_555 1_555
C14A C13A 1_555 1_555
H16A C14A 1_555 1_555
C15A C1A 1_555 1_555
C16A C15A 1_555 1_555
C17A C16A 1_555 1_555
H17A C17A 1_555 1_555
C18A C13A 1_555 1_555
C19A C18A 1_555 1_555
H18A C19A 1_555 1_555
H19A C19A 1_555 1_555
C20A C19A 1_555 1_555
H20A C20A 1_555 1_555
H21A C20A 1_555 1_555
C21A C20A 1_555 1_555
H22A C21A 1_555 1_555
H23A C21A 1_555 1_555
C22A C21A 1_555 1_555
C23A C22A 1_555 1_555
C24A C23A 1_555 1_555
H24A C24A 1_555 1_555
C25A C24A 1_555 1_555
C26A C25A 1_555 1_555
C27A C22A 1_555 1_555
H25A C27A 1_555 1_555
C28A C26A 1_555 1_555
H26A C28A 1_555 1_555
H27A C28A 1_555 1_555
C29A C28A 1_555 1_555
H28A C29A 1_555 1_555
H29A C29A 1_555 1_555
C30A C16A 1_555 1_555
H30A C30A 1_555 1_555
H31A C30A 1_555 1_555
C31A C33 1_555 1_555
H32A C31A 1_555 1_555
H33A C31A 1_555 1_555
C32A C25A 1_555 1_555
H34A C32A 1_555 1_555
H35A C32A 1_555 1_555
C33A C31 1_555 1_555
H36A C33A 1_555 1_555
H37A C33A 1_555 1_555
C34A C6A 1_555 1_555
C35A C34A 1_555 1_555
H38A C35A 1_555 1_555
H39A C35A 1_555 1_555
H40A C35A 1_555 1_555
C36A C34A 1_555 1_555
H41A C36A 1_555 1_555
H42A C36A 1_555 1_555
H43A C36A 1_555 1_555
C37A C34A 1_555 1_555
H44A C37A 1_555 1_555
H45A C37A 1_555 1_555
H46A C37A 1_555 1_555
C38A H47A 1_555 1_555
H48A C38A 1_555 1_555
C39A C38A 1_555 1_555
H49A C39A 1_555 1_555
H50A C39A 1_555 1_555
C40A C39A 1_555 1_555
H51A C40A 1_555 1_555
H52A C40A 1_555 1_555
C41A C40A 1_555 1_555
C42A C41A 1_555 1_555
H53A C42A 1_555 1_555
C43A C42A 1_555 1_555
C44A C43A 1_555 1_555
H54A C44A 1_555 1_555
C45A C44A 1_555 1_555
C46A C41A 1_555 1_555
H55A C46A 1_555 1_555
C47A C45A 1_555 1_555
H56A C47A 1_555 1_555
H57A C47A 1_555 1_555
C48A C47A 1_555 1_555
H58A C48A 1_555 1_555
H59A C48A 1_555 1_555
C49A C48A 1_555 1_555
H60A C49A 1_555 1_555
H61A C49A 1_555 1_555
C50A C49A 1_555 1_555
C51A C50A 1_555 1_555
C52A C51A 1_555 1_555
H62A C52A 1_555 1_555
C53A C52A 1_555 1_555
C54A C38A 1_555 1_555
C55A C50A 1_555 1_555
H63A C55A 1_555 1_555
C56A C53A 1_555 1_555
H64A C56A 1_555 1_555
H65A C56A 1_555 1_555
C57A C56A 1_555 1_555
H66A C57A 1_555 1_555
H67A C57A 1_555 1_555
C58A C57A 1_555 1_555
H68A C58A 1_555 1_555
H69A C58A 1_555 1_555
C59A C58A 1_555 1_555
C60A C70 1_555 1_555
C61A C60A 1_555 1_555
H70A C61A 1_555 1_555
C62A C61A 1_555 1_555
C63A C62A 1_555 1_555
C64A C59A 1_555 1_555
H71A C64A 1_555 1_555
C65A C63A 1_555 1_555
H72A C65A 1_555 1_555
H73A C65A 1_555 1_555
C66A C65A 1_555 1_555
H74A C66A 1_555 1_555
H75A C66A 1_555 1_555
C67A C51A 1_555 1_555
H76A C67A 1_555 1_555
H77A C67A 1_555 1_555
C68A C62A 1_555 1_555
H78A C68A 1_555 1_555
H79A C68A 1_555 1_555
C69A C68A 1_555 1_555
H80A C69A 1_555 1_555
H81A C69A 1_555 1_555
C70A C60 1_555 1_555
H82A C70A 1_555 1_555
H83A C70A 1_555 1_555
C71A C43A 1_555 1_555
C72A C71A 1_555 1_555
H84A C72A 1_555 1_555
H85A C72A 1_555 1_555
H86A C72A 1_555 1_555
C73A C71A 1_555 1_555
H87A C73A 1_555 1_555
H88A C73A 1_555 1_555
H89A C73A 1_555 1_555
C74A C71A 1_555 1_555
H90A C74A 1_555 1_555
H91A C74A 1_555 1_555
H92A C74A 1_555 1_555
C8 C9 1_555 1_555
C14 C15 1_555 1_555
C17 C18 1_555 1_555
C26 C27 1_555 1_555
C29 C30 1_555 1_555
C45 C46 1_555 1_555
C53 C54 1_555 1_555
C54 C55 1_555 1_555
C63 C64 1_555 1_555
C66 C67 1_555 1_555
C8A C9A 1_555 1_555
C14A C15A 1_555 1_555
C17A C18A 1_555 1_555
C23A C31A 1_555 1_555
C26A C27A 1_555 1_555
C29A C30A 1_555 1_555
C32A C33A 1_555 1_555
C45A C46A 1_555 1_555
C53A C54A 1_555 1_555
C54A C55A 1_555 1_555
C59A C60A 1_555 1_555
C63A C64A 1_555 1_555
C66A C67A 1_555 1_555
C69A C70A 1_555 1_555

#END
