
#######################################################################
#
#                 Cambridge Crystallographic Data Centre
#                                CCDC 
#
#######################################################################
#
# If this CIF has been generated from an entry in the Cambridge 
# Structural Database, then it will include bibliographic, chemical, 
# crystal, experimental, refinement or atomic coordinate data resulting 
# from the CCDC's data processing and validation procedures.
#
#######################################################################

data_PUHQIU
_chemical_formula_moiety         'C10 H11 Cl1 F1 N1 O2 S1'
_chemical_name_systematic        
N-(2-(4-chlorophenyl)-1-fluorovinyl)-N-methylmethanesulfonamide
_symmetry_cell_setting           monoclinic
_symmetry_space_group_name_H-M   'P 21/c'
_symmetry_Int_Tables_number      14
_space_group_name_Hall           '-P 2ybc'
loop_
_symmetry_equiv_pos_site_id
_symmetry_equiv_pos_as_xyz
1 x,y,z
2 -x,1/2+y,1/2-z
3 -x,-y,-z
4 x,1/2-y,1/2+z
_cell_length_a                   40.4099(16)
_cell_length_b                   5.8008(2)
_cell_length_c                   10.2725(4)
_cell_angle_alpha                90
_cell_angle_beta                 97.224(2)
_cell_angle_gamma                90
_cell_volume                     2388.86
_cell_formula_units_Z            8
loop_
_atom_site_label
_atom_site_type_symbol
_atom_site_fract_x
_atom_site_fract_y
_atom_site_fract_z
S1 S 0.04869(2) 0.52289(14) 0.60443(8)
Cl1 Cl 0.23631(3) 1.2895(2) 0.42900(13)
F1 F 0.10804(7) 0.8730(5) 0.7516(3)
C1 C 0.10913(8) 0.6811(6) 0.6751(3)
C2 C 0.13100(9) 0.6620(6) 0.5924(4)
H1 H 0.1304 0.5225 0.5476
C3 C 0.15663(8) 0.8268(6) 0.5584(3)
C4 C 0.19852(10) 0.9060(8) 0.4159(4)
H2 H 0.2098 0.8629 0.3462
C5 C 0.05504(8) 0.5851(6) 0.4767(3)
H3 H 0.0677 0.4657 0.4415
H4 H 0.0674 0.7268 0.4807
H5 H 0.0343 0.6052 0.4214
O1 O 0.03322(8) 0.3075(5) 0.6231(3)
N1 N 0.08547(8) 0.5165(5) 0.6978(3)
C6 C 0.17450(9) 0.7643(7) 0.4566(4)
H6 H 0.1701 0.6231 0.4151
O2 O 0.02520(12) 0.7415(9) 0.6680(5)
C7 C 0.18868(10) 1.1804(7) 0.5814(4)
H7 H 0.1936 1.3206 0.6234
C8 C 0.16413(10) 1.0369(7) 0.6206(4)
H8 H 0.1526 1.0820 0.6893
C9 C 0.08654(12) 0.4232(8) 0.8324(4)
H9 H 0.1090 0.4289 0.8755
H10 H 0.0789 0.2663 0.8282
H11 H 0.0724 0.5138 0.8807
C10 C 0.20559(9) 1.1120(7) 0.4796(4)
S2 S 0.45122(2) 1.02302(15) 0.55603(8)
F2 F 0.39204(7) 1.3737(5) 0.6416(3)
O3 O 0.44471(8) 1.0850(7) 0.4214(3)
C11 C 0.39073(9) 1.1800(6) 0.5661(4)
N2 N 0.41452(8) 1.0167(5) 0.6123(3)
O4 O 0.46678(8) 0.8077(5) 0.5907(3)
C12 C 0.29468(8) 1.6049(7) 0.2704(4)
C13 C 0.34310(9) 1.3210(7) 0.4007(4)
C14 C 0.36879(9) 1.1598(7) 0.4612(4)
H12 H 0.3696 1.0200 0.4174
C15 C 0.30173(10) 1.3964(8) 0.2155(4)
H13 H 0.2904 1.3507 0.1353
C16 C 0.33519(11) 1.5327(7) 0.4544(4)
H14 H 0.3463 1.5791 0.5349
C17 C 0.47457(11) 1.2410(8) 0.6422(5)
H15 H 0.4961 1.2505 0.6124
H16 H 0.4772 1.2062 0.7343
H17 H 0.4632 1.3856 0.6272
C18 C 0.32586(10) 1.2567(8) 0.2817(4)
H18 H 0.3306 1.1157 0.2452
C19 C 0.31092(10) 1.6741(7) 0.3888(4)
H19 H 0.3057 1.8146 0.4249
C20 C 0.41321(12) 0.9238(8) 0.7461(4)
H20 H 0.3907 0.9297 0.7663
H21 H 0.4273 1.0147 0.8086
H22 H 0.4208 0.7669 0.7499
Cl2 Cl 0.26447(3) 1.7819(2) 0.18541(13)
loop_
_geom_bond_atom_site_label_1
_geom_bond_atom_site_label_2
_geom_bond_site_symmetry_1
_geom_bond_site_symmetry_2
S1 C5 1_555 1_555
Cl1 C10 1_555 1_555
F1 C1 1_555 1_555
C1 C2 1_555 1_555
C2 H1 1_555 1_555
C3 C2 1_555 1_555
C4 H2 1_555 1_555
C5 H3 1_555 1_555
H4 C5 1_555 1_555
H5 C5 1_555 1_555
O1 S1 1_555 1_555
N1 S1 1_555 1_555
C6 C3 1_555 1_555
H6 C6 1_555 1_555
O2 S1 1_555 1_555
C7 H7 1_555 1_555
C8 C3 1_555 1_555
H8 C8 1_555 1_555
C9 N1 1_555 1_555
H9 C9 1_555 1_555
H10 C9 1_555 1_555
H11 C9 1_555 1_555
C10 C4 1_555 1_555
S2 O3 1_555 1_555
F2 C11 1_555 1_555
C11 N2 1_555 1_555
N2 S2 1_555 1_555
O4 S2 1_555 1_555
C12 C15 1_555 1_555
C13 C14 1_555 1_555
C14 C11 1_555 1_555
H12 C14 1_555 1_555
C15 H13 1_555 1_555
C16 C13 1_555 1_555
H14 C16 1_555 1_555
C17 S2 1_555 1_555
H15 C17 1_555 1_555
H16 C17 1_555 1_555
H17 C17 1_555 1_555
C18 C13 1_555 1_555
H18 C18 1_555 1_555
C19 C12 1_555 1_555
H19 C19 1_555 1_555
C20 N2 1_555 1_555
H20 C20 1_555 1_555
H21 C20 1_555 1_555
H22 C20 1_555 1_555
Cl2 C12 1_555 1_555
C1 N1 1_555 1_555
C4 C6 1_555 1_555
C7 C8 1_555 1_555
C7 C10 1_555 1_555
C15 C18 1_555 1_555
C16 C19 1_555 1_555

#END
