
#######################################################################
#
#                 Cambridge Crystallographic Data Centre
#                                CCDC 
#
#######################################################################
#
# If this CIF has been generated from an entry in the Cambridge 
# Structural Database, then it will include bibliographic, chemical, 
# crystal, experimental, refinement or atomic coordinate data resulting 
# from the CCDC's data processing and validation procedures.
#
#######################################################################

data_PUJBAZ
_chemical_formula_moiety         'C24 H23 N3 O4 S1'
_chemical_name_systematic        
"1'-benzyl-1-methyl-4'-(4-nitrophenyl)-1H-spiro[2,1-benzothiazole-3,3'-pyrrolidine] 2,2-dioxide"
_symmetry_cell_setting           monoclinic
_symmetry_space_group_name_H-M   'C 2/c'
_symmetry_Int_Tables_number      15
_space_group_name_Hall           '-C 2yn'
loop_
_symmetry_equiv_pos_site_id
_symmetry_equiv_pos_as_xyz
1 x,y,z
2 -x,y,1/2-z
3 1/2+x,1/2+y,z
4 1/2-x,1/2+y,1/2-z
5 -x,-y,-z
6 x,-y,1/2+z
7 1/2-x,1/2-y,-z
8 1/2+x,1/2-y,1/2+z
_cell_length_a                   22.357(5)
_cell_length_b                   8.3398(17)
_cell_length_c                   25.720(5)
_cell_angle_alpha                90
_cell_angle_beta                 104.88(3)
_cell_angle_gamma                90
_cell_volume                     4634.75
_exptl_crystal_colour            colorless
_exptl_crystal_description       block
_cell_formula_units_Z            8
loop_
_atom_site_label
_atom_site_type_symbol
_atom_site_fract_x
_atom_site_fract_y
_atom_site_fract_z
S1 S 0.25395(2) 0.77462(5) 0.11527(2)
O1 O 0.24741(7) 0.81722(18) 0.06033(5)
O2 O 0.31488(6) 0.79042(18) 0.15082(6)
O3 O -0.04657(9) 0.8761(4) -0.08323(9)
O4 O -0.08915(7) 0.8194(3) -0.02048(7)
N1 N 0.20164(7) 0.87312(18) 0.13791(6)
N2 N 0.27482(6) 0.38096(18) 0.08400(6)
N3 N -0.04472(8) 0.8212(2) -0.03926(7)
C1 C 0.18435(8) 0.7799(2) 0.17722(7)
C2 C 0.15759(8) 0.8369(2) 0.21655(7)
H1 H 0.1507 0.9459 0.2199
C3 C 0.14138(8) 0.7260(3) 0.25098(7)
H2 H 0.1226 0.7617 0.2772
C4 C 0.15258(9) 0.5640(3) 0.24723(7)
H3 H 0.1416 0.4922 0.2709
C5 C 0.18033(8) 0.5085(2) 0.20809(7)
H4 H 0.1883 0.3997 0.2056
C6 C 0.19597(7) 0.6163(2) 0.17282(6)
C7 C 0.20344(9) 1.0482(2) 0.13950(8)
H5 H 0.2291 1.0830 0.1735
H6 H 0.1623 1.0892 0.1350
H7 H 0.2201 1.0876 0.1111
C8 C 0.22378(7) 0.5778(2) 0.12670(6)
C9 C 0.27535(8) 0.4522(2) 0.13680(7)
H8 H 0.3151 0.5019 0.1526
H9 H 0.2680 0.3702 0.1612
C10 C 0.22147(8) 0.4470(2) 0.04347(7)
H10 H 0.2020 0.3650 0.0180
H11 H 0.2341 0.5349 0.0240
C11 C 0.17782(7) 0.5051(2) 0.07597(6)
H12 H 0.1614 0.4078 0.0886
C12 C 0.12166(8) 0.6003(2) 0.04661(7)
C13 C 0.11774(9) 0.6734(3) -0.00270(8)
H13 H 0.1519 0.6730 -0.0171
C14 C 0.06340(9) 0.7469(3) -0.03061(8)
H14 H 0.0606 0.7941 -0.0639
C15 C 0.01360(8) 0.7490(2) -0.00829(8)
C16 C 0.01579(9) 0.6806(3) 0.04070(7)
H15 H -0.0182 0.6841 0.0552
C17 C 0.07028(8) 0.6059(3) 0.06788(7)
H16 H 0.0726 0.5585 0.1011
C18 C 0.33320(8) 0.4039(2) 0.06934(7)
H17 H 0.3442 0.5167 0.0723
H18 H 0.3281 0.3717 0.0322
C19 C 0.38485(8) 0.3072(2) 0.10527(7)
C20 C 0.43868(9) 0.3812(3) 0.13425(8)
H19 H 0.4430 0.4917 0.1318
C21 C 0.48627(9) 0.2916(3) 0.16701(9)
H20 H 0.5222 0.3425 0.1863
C22 C 0.48037(9) 0.1277(3) 0.17099(8)
H21 H 0.5122 0.0679 0.1928
C23 C 0.42683(9) 0.0530(3) 0.14245(8)
H22 H 0.4227 -0.0575 0.1450
C24 C 0.37905(8) 0.1424(2) 0.10980(7)
H23 H 0.3430 0.0913 0.0909
loop_
_geom_bond_atom_site_label_1
_geom_bond_atom_site_label_2
_geom_bond_site_symmetry_1
_geom_bond_site_symmetry_2
S1 O1 1_555 1_555
O2 S1 1_555 1_555
O3 N3 1_555 1_555
O4 N3 1_555 1_555
N1 S1 1_555 1_555
N2 C9 1_555 1_555
N3 C15 1_555 1_555
C1 N1 1_555 1_555
C2 C1 1_555 1_555
H1 C2 1_555 1_555
C3 C2 1_555 1_555
H2 C3 1_555 1_555
C4 C3 1_555 1_555
H3 C4 1_555 1_555
C5 C4 1_555 1_555
H4 C5 1_555 1_555
C6 C1 1_555 1_555
C7 N1 1_555 1_555
H5 C7 1_555 1_555
H6 C7 1_555 1_555
H7 C7 1_555 1_555
C8 S1 1_555 1_555
C9 C8 1_555 1_555
H8 C9 1_555 1_555
H9 C9 1_555 1_555
C10 N2 1_555 1_555
H10 C10 1_555 1_555
H11 C10 1_555 1_555
C11 C8 1_555 1_555
H12 C11 1_555 1_555
C12 C11 1_555 1_555
C13 C12 1_555 1_555
H13 C13 1_555 1_555
C14 C13 1_555 1_555
H14 C14 1_555 1_555
C15 C14 1_555 1_555
C16 C15 1_555 1_555
H15 C16 1_555 1_555
C17 C12 1_555 1_555
H16 C17 1_555 1_555
C18 N2 1_555 1_555
H17 C18 1_555 1_555
H18 C18 1_555 1_555
C19 C18 1_555 1_555
C20 C19 1_555 1_555
H19 C20 1_555 1_555
C21 C20 1_555 1_555
H20 C21 1_555 1_555
C22 C21 1_555 1_555
H21 C22 1_555 1_555
C23 C22 1_555 1_555
H22 C23 1_555 1_555
C24 C19 1_555 1_555
H23 C24 1_555 1_555
C5 C6 1_555 1_555
C6 C8 1_555 1_555
C10 C11 1_555 1_555
C16 C17 1_555 1_555
C23 C24 1_555 1_555

#END
