
#######################################################################
#
#                 Cambridge Crystallographic Data Centre
#                                CCDC 
#
#######################################################################
#
# If this CIF has been generated from an entry in the Cambridge 
# Structural Database, then it will include bibliographic, chemical, 
# crystal, experimental, refinement or atomic coordinate data resulting 
# from the CCDC's data processing and validation procedures.
#
#######################################################################

data_PUJFEH
_chemical_formula_moiety         'C24 H21 N3 O1'
_chemical_name_systematic        
3-phenyl-11-(pyridin-3-yl)-2,3,4,5,10,11-hexahydro-1H-dibenzo[b,e][1,4]diazepin-1-one
_symmetry_cell_setting           monoclinic
_symmetry_space_group_name_H-M   'P 21/c'
_symmetry_Int_Tables_number      14
_space_group_name_Hall           '-P 2ybc'
loop_
_symmetry_equiv_pos_site_id
_symmetry_equiv_pos_as_xyz
1 x,y,z
2 -x,1/2+y,1/2-z
3 -x,-y,-z
4 x,1/2-y,1/2+z
_cell_length_a                   11.625(5)
_cell_length_b                   19.055(9)
_cell_length_c                   8.741(4)
_cell_angle_alpha                90
_cell_angle_beta                 95.547(6)
_cell_angle_gamma                90
_cell_volume                     1927.19
_cell_formula_units_Z            4
loop_
_atom_site_label
_atom_site_type_symbol
_atom_site_fract_x
_atom_site_fract_y
_atom_site_fract_z
C1 C 0.6467(2) 0.16880(13) 0.7844(2)
C2 C 0.7392(2) 0.15537(16) 0.9137(3)
H1 H 0.7611 0.1997 0.9625
H2 H 0.8068 0.1366 0.8710
C3 C 0.7042(3) 0.1053(2) 1.0346(3)
H3 H 0.6974 0.0588 0.9869
C4 C 0.58916(19) 0.12330(15) 1.0819(2)
H4 H 0.5975 0.1634 1.1506
H5 H 0.5621 0.0842 1.1398
C5 C 0.49762(18) 0.14034(11) 0.9522(2)
C6 C 0.52690(18) 0.16131(11) 0.8118(2)
C7 C 0.44211(18) 0.17963(11) 0.6757(2)
H6 H 0.4844 0.2107 0.6116
C8 C 0.25569(19) 0.19068(11) 0.7931(2)
C9 C 0.27818(18) 0.15123(11) 0.9281(2)
C10 C 0.1853(2) 0.12926(13) 1.0058(2)
H7 H 0.1998 0.1033 1.0957
C11 C 0.0728(2) 0.14491(15) 0.9530(3)
H8 H 0.0123 0.1304 1.0077
C12 C 0.0507(2) 0.18208(16) 0.8190(3)
H9 H -0.0250 0.1923 0.7814
C13 C 0.1405(2) 0.20405(14) 0.7410(3)
H10 H 0.1242 0.2288 0.6499
C14 C 0.8002(2) 0.10058(15) 1.1665(3)
C15 C 0.8272(3) 0.15129(16) 1.2757(4)
H11 H 0.7829 0.1919 1.2758
C16 C 0.9200(3) 0.14232(19) 1.3855(4)
H12 H 0.9371 0.1769 1.4593
C17 C 0.9859(3) 0.0843(2) 1.3869(4)
H13 H 1.0489 0.0790 1.4601
C18 C 0.9594(3) 0.0335(2) 1.2806(4)
H14 H 1.0037 -0.0072 1.2816
C19 C 0.8670(3) 0.04193(16) 1.1712(3)
H15 H 0.8500 0.0067 1.0989
C20 C 0.3669(2) 0.05390(12) 0.6270(2)
H16 H 0.3652 0.0463 0.7319
C21 C 0.40568(17) 0.11744(11) 0.5741(2)
C22 C 0.4068(2) 0.12389(12) 0.4174(2)
H17 H 0.4330 0.1661 0.3802
C23 C 0.3357(2) 0.01452(14) 0.3704(3)
H18 H 0.3112 -0.0208 0.3013
C24 C 0.3311(2) 0.00211(13) 0.5236(3)
H19 H 0.3042 -0.0406 0.5574
N1 N 0.38914(15) 0.13385(9) 0.99780(18)
H20 H 0.3881 0.1154 1.0874
N2 N 0.34315(16) 0.22084(9) 0.71693(19)
H21 H 0.3390 0.2647 0.6935
N3 N 0.37325(19) 0.07435(11) 0.3148(2)
O1 O 0.67599(15) 0.18698(11) 0.65819(19)
C25? C 0.7020(10) 0.1461(7) 1.0603(13)
H22? H 0.7068 0.1931 1.1057
loop_
_geom_bond_atom_site_label_1
_geom_bond_atom_site_label_2
_geom_bond_site_symmetry_1
_geom_bond_site_symmetry_2
C1 C2 1_555 1_555
C2 H1 1_555 1_555
H2 C2 1_555 1_555
C3 C2 1_555 1_555
H3 C3 1_555 1_555
C4 C3 1_555 1_555
H4 C4 1_555 1_555
H5 C4 1_555 1_555
C5 C4 1_555 1_555
C6 C1 1_555 1_555
C7 C6 1_555 1_555
H6 C7 1_555 1_555
C8 C9 1_555 1_555
C9 C10 1_555 1_555
C10 H7 1_555 1_555
C11 C10 1_555 1_555
H8 C11 1_555 1_555
C12 C11 1_555 1_555
H9 C12 1_555 1_555
C13 C8 1_555 1_555
H10 C13 1_555 1_555
C14 C3 1_555 1_555
C15 C14 1_555 1_555
H11 C15 1_555 1_555
C16 C15 1_555 1_555
H12 C16 1_555 1_555
C17 C16 1_555 1_555
H13 C17 1_555 1_555
C18 C17 1_555 1_555
H14 C18 1_555 1_555
C19 C14 1_555 1_555
H15 C19 1_555 1_555
C20 H16 1_555 1_555
C21 C7 1_555 1_555
C22 C21 1_555 1_555
H17 C22 1_555 1_555
C23 H18 1_555 1_555
C24 C20 1_555 1_555
H19 C24 1_555 1_555
N1 C5 1_555 1_555
H20 N1 1_555 1_555
N2 C7 1_555 1_555
H21 N2 1_555 1_555
N3 C22 1_555 1_555
O1 C1 1_555 1_555
C5 C6 1_555 1_555
C8 N2 1_555 1_555
C9 N1 1_555 1_555
C12 C13 1_555 1_555
C18 C19 1_555 1_555
C20 C21 1_555 1_555
C23 C24 1_555 1_555
C23 N3 1_555 1_555

#END
