
#######################################################################
#
#                 Cambridge Crystallographic Data Centre
#                                CCDC 
#
#######################################################################
#
# If this CIF has been generated from an entry in the Cambridge 
# Structural Database, then it will include bibliographic, chemical, 
# crystal, experimental, refinement or atomic coordinate data resulting 
# from the CCDC's data processing and validation procedures.
#
#######################################################################

data_PUKLIR
_chemical_name_common            
(2R,3S)-2-Benzyl-3-(2,3,4,6-tetra-O-acetyl-beta-D-glucopyranosyloxy)butanolide
_chemical_formula_moiety         'C25 H30 O12'
_chemical_name_systematic        
'2-(Acetoxymethyl)-6-((4-benzyl-5-oxotetrahydrofuran-3-yl)oxy)tetrahydro-2H-pyran-3,4,5-triyl triacetate'
_symmetry_cell_setting           orthorhombic
_symmetry_space_group_name_H-M   'P 21 21 21'
_symmetry_Int_Tables_number      19
_space_group_name_Hall           'P 2ac 2ab'
loop_
_symmetry_equiv_pos_site_id
_symmetry_equiv_pos_as_xyz
1 x,y,z
2 1/2-x,-y,1/2+z
3 -x,1/2+y,1/2-z
4 1/2+x,1/2-y,-z
_cell_length_a                   10.6142(2)
_cell_length_b                   11.0984(2)
_cell_length_c                   22.9714(3)
_cell_angle_alpha                90
_cell_angle_beta                 90
_cell_angle_gamma                90
_cell_volume                     2706.05
_exptl_crystal_colour            colorless
_exptl_crystal_description       block
_cell_formula_units_Z            4
_exptl_crystal_recrystallization_method 'ether/ethyl acetate'
loop_
_atom_site_label
_atom_site_type_symbol
_atom_site_fract_x
_atom_site_fract_y
_atom_site_fract_z
O1 O 0.47650(16) 0.31851(14) 0.32119(7)
O2 O 0.58032(14) 0.48590(14) 0.29725(6)
O3 O 0.49559(12) 0.47669(12) 0.17568(6)
O4 O 0.44988(12) 0.58270(12) 0.09414(6)
O5 O 0.73101(12) 0.40529(12) 0.12561(6)
O6 O 0.71425(13) 0.39829(13) 0.00188(6)
O7 O 0.61363(13) 0.62268(12) -0.04400(6)
O8 O 0.29897(12) 0.61966(13) -0.00230(6)
O9 O 0.64011(15) 0.22826(13) 0.14807(7)
O10 O 0.89389(19) 0.49770(18) -0.01722(12)
O11 O 0.5236(2) 0.4937(2) -0.10623(7)
O12 O 0.2865(2) 0.7043(2) -0.09013(8)
C1 C 0.4778(2) 0.41371(19) 0.29662(9)
C2 C 0.37455(19) 0.47400(18) 0.26180(8)
H1 H 0.3281 0.5283 0.2891
C3 C 0.45018(18) 0.55428(17) 0.22133(8)
H2 H 0.4010 0.6247 0.2064
C4 C 0.5581(2) 0.59050(19) 0.26080(9)
H3 H 0.6341 0.6103 0.2377
H4 H 0.5350 0.6613 0.2847
C5 C 0.2771(2) 0.38840(18) 0.23518(9)
H5 H 0.3174 0.3409 0.2038
H6 H 0.2477 0.3314 0.2654
C6 C 0.16563(19) 0.45524(18) 0.21066(10)
C7 C 0.0715(2) 0.4974(2) 0.24720(10)
H7 H 0.0756 0.4808 0.2877
C8 C -0.0285(2) 0.5636(2) 0.22519(15)
H8 H -0.0916 0.5928 0.2509
C9 C -0.0377(3) 0.5875(2) 0.16642(15)
H9 H -0.1064 0.6328 0.1515
C10 C 0.0552(3) 0.5443(3) 0.12938(13)
H10 H 0.0493 0.5591 0.0887
C11 C 0.1569(2) 0.4795(2) 0.15118(10)
H11 H 0.2207 0.4516 0.1255
C12 C 0.54911(18) 0.53583(18) 0.12866(8)
H12 H 0.6062 0.6018 0.1421
C13 C 0.62123(18) 0.44333(18) 0.09365(8)
H13 H 0.5661 0.3723 0.0854
C14 C 0.66843(17) 0.49655(17) 0.03700(8)
H14 H 0.7380 0.5551 0.0448
C15 C 0.56170(18) 0.55880(17) 0.00501(8)
H15 H 0.4997 0.4974 -0.0089
C16 C 0.49602(18) 0.64833(18) 0.04534(8)
H16 H 0.5582 0.7100 0.0589
C17 C 0.38565(19) 0.71066(19) 0.01696(9)
H17 H 0.3439 0.7650 0.0452
H18 H 0.4148 0.7593 -0.0166
C18 C 0.7291(2) 0.29459(19) 0.15016(9)
C19 C 0.8527(3) 0.2666(2) 0.17810(13)
H19 H 0.8493 0.1860 0.1955
H20 H 0.8703 0.3262 0.2085
H21 H 0.9195 0.2692 0.1487
C20 C 0.8281(2) 0.4122(2) -0.02386(12)
C21 C 0.8550(4) 0.3043(3) -0.06145(19)
H22 H 0.9370 0.3143 -0.0804
H23 H 0.7892 0.2967 -0.0912
H24 H 0.8562 0.2315 -0.0373
C22 C 0.5904(2) 0.5778(2) -0.09765(9)
C23 C 0.6610(2) 0.6479(2) -0.14304(10)
H25 H 0.6431 0.6142 -0.1816
H26 H 0.7516 0.6428 -0.1353
H27 H 0.6343 0.7324 -0.1419
C24 C 0.26186(19) 0.6221(2) -0.05781(9)
C25 C 0.1842(2) 0.5152(3) -0.07186(11)
H28 H 0.1585 0.5186 -0.1128
H29 H 0.1091 0.5144 -0.0470
H30 H 0.2334 0.4419 -0.0650
loop_
_geom_bond_atom_site_label_1
_geom_bond_atom_site_label_2
_geom_bond_site_symmetry_1
_geom_bond_site_symmetry_2
O1 C1 1_555 1_555
O2 C1 1_555 1_555
O3 C3 1_555 1_555
O4 C12 1_555 1_555
O5 C13 1_555 1_555
O6 C14 1_555 1_555
O7 C15 1_555 1_555
O8 C17 1_555 1_555
O9 C18 1_555 1_555
O10 C20 1_555 1_555
O11 C22 1_555 1_555
O12 C24 1_555 1_555
C1 C2 1_555 1_555
C2 H1 1_555 1_555
C3 C2 1_555 1_555
H2 C3 1_555 1_555
C4 O2 1_555 1_555
H3 C4 1_555 1_555
H4 C4 1_555 1_555
C5 C2 1_555 1_555
H5 C5 1_555 1_555
H6 C5 1_555 1_555
C6 C5 1_555 1_555
C7 C6 1_555 1_555
H7 C7 1_555 1_555
C8 C7 1_555 1_555
H8 C8 1_555 1_555
C9 C8 1_555 1_555
H9 C9 1_555 1_555
C10 C9 1_555 1_555
H10 C10 1_555 1_555
C11 C6 1_555 1_555
H11 C11 1_555 1_555
C12 O3 1_555 1_555
H12 C12 1_555 1_555
C13 C12 1_555 1_555
H13 C13 1_555 1_555
C14 C13 1_555 1_555
H14 C14 1_555 1_555
C15 C14 1_555 1_555
H15 C15 1_555 1_555
C16 O4 1_555 1_555
H16 C16 1_555 1_555
C17 C16 1_555 1_555
H17 C17 1_555 1_555
H18 C17 1_555 1_555
C18 O5 1_555 1_555
C19 C18 1_555 1_555
H19 C19 1_555 1_555
H20 C19 1_555 1_555
H21 C19 1_555 1_555
C20 O6 1_555 1_555
C21 C20 1_555 1_555
H22 C21 1_555 1_555
H23 C21 1_555 1_555
H24 C21 1_555 1_555
C22 O7 1_555 1_555
C23 C22 1_555 1_555
H25 C23 1_555 1_555
H26 C23 1_555 1_555
H27 C23 1_555 1_555
C24 O8 1_555 1_555
C25 C24 1_555 1_555
H28 C25 1_555 1_555
H29 C25 1_555 1_555
H30 C25 1_555 1_555
C3 C4 1_555 1_555
C10 C11 1_555 1_555
C15 C16 1_555 1_555

#END
