
#######################################################################
#
#                 Cambridge Crystallographic Data Centre
#                                CCDC 
#
#######################################################################
#
# If this CIF has been generated from an entry in the Cambridge 
# Structural Database, then it will include bibliographic, chemical, 
# crystal, experimental, refinement or atomic coordinate data resulting 
# from the CCDC's data processing and validation procedures.
#
#######################################################################

data_PULYUS
_chemical_formula_moiety         'C26 H28 N2 O2'
_chemical_name_systematic        
N,N'-bis(2,6-dimethylphenyl)-N,N'-dimethylisophthalamide
_symmetry_cell_setting           monoclinic
_symmetry_space_group_name_H-M   'P 21/n'
_symmetry_Int_Tables_number      14
_space_group_name_Hall           '-P 2yn'
loop_
_symmetry_equiv_pos_site_id
_symmetry_equiv_pos_as_xyz
1 x,y,z
2 1/2-x,1/2+y,1/2-z
3 -x,-y,-z
4 1/2+x,1/2-y,1/2+z
_cell_length_a                   7.5187(3)
_cell_length_b                   14.507(6)
_cell_length_c                   20.119(2)
_cell_angle_alpha                90
_cell_angle_beta                 97.725(7)
_cell_angle_gamma                90
_cell_volume                     2174.54
_exptl_crystal_colour            colorless
_exptl_crystal_description       blocks
_cell_formula_units_Z            4
loop_
_atom_site_label
_atom_site_type_symbol
_atom_site_fract_x
_atom_site_fract_y
_atom_site_fract_z
C1 C 0.2086(5) 0.1294(2) 0.78403(13)
H1 H 0.2781 0.1838 0.7964
H2 H 0.2389 0.0825 0.8173
H3 H 0.0832 0.1438 0.7813
N1 N 0.2478(3) 0.09627(15) 0.71878(10)
C2 C 0.1603(4) 0.13782(17) 0.66352(13)
O1 O 0.0498(3) 0.19961(14) 0.66900(10)
C3 C 0.1931(4) 0.10879(17) 0.59489(12)
C4 C 0.1759(4) 0.17761(18) 0.54619(12)
H4 H 0.1555 0.2380 0.5586
C5 C 0.1884(4) 0.15801(18) 0.47977(13)
C6 C 0.1540(4) 0.2301(2) 0.42600(13)
O2 O 0.0444(3) 0.21472(16) 0.37612(10)
N2 N 0.2417(3) 0.31139(15) 0.43490(11)
C7 C 0.2037(6) 0.3820(2) 0.38279(18)
H5 H 0.2821 0.3736 0.3493
H6 H 0.2230 0.4420 0.4026
H7 H 0.0812 0.3767 0.3624
C8 C 0.2174(4) 0.06781(19) 0.46170(14)
H8 H 0.2235 0.0534 0.4170
C9 C 0.2374(5) -0.0008(2) 0.50946(14)
H9 H 0.2594 -0.0610 0.4969
C10 C 0.2251(4) 0.01907(18) 0.57574(13)
H10 H 0.2382 -0.0277 0.6076
C11 C 0.4058(4) 0.03980(17) 0.72010(11)
C12 C 0.5668(4) 0.07933(18) 0.70715(13)
C13 C 0.7173(4) 0.0229(2) 0.71190(14)
H11 H 0.8258 0.0472 0.7026
C14 C 0.7087(4) -0.0686(2) 0.73029(15)
H12 H 0.8109 -0.1053 0.7332
C15 C 0.5504(4) -0.10536(19) 0.74427(14)
H13 H 0.5467 -0.1667 0.7576
C16 C 0.3950(4) -0.05262(17) 0.73893(12)
C17 C 0.5822(5) 0.1794(2) 0.69011(18)
H14 H 0.7063 0.1952 0.6906
H15 H 0.5317 0.2162 0.7226
H16 H 0.5183 0.1909 0.6463
C18 C 0.2209(4) -0.0963(2) 0.75056(16)
H17 H 0.1546 -0.1137 0.7083
H18 H 0.1520 -0.0531 0.7727
H19 H 0.2449 -0.1500 0.7781
C19 C 0.3991(4) 0.32478(18) 0.48320(13)
C20 C 0.5572(4) 0.28044(19) 0.47332(14)
C21 C 0.7076(5) 0.2936(2) 0.52087(18)
H20 H 0.8146 0.2641 0.5157
C22 C 0.6994(6) 0.3498(3) 0.57543(17)
H21 H 0.8001 0.3569 0.6073
C23 C 0.5444(6) 0.3951(2) 0.58307(16)
H22 H 0.5418 0.4339 0.6197
C24 C 0.3901(5) 0.38442(19) 0.53713(14)
C25 C 0.5687(5) 0.2198(2) 0.41327(17)
H23 H 0.5219 0.1599 0.4212
H24 H 0.6918 0.2143 0.4059
H25 H 0.4998 0.2467 0.3744
C26 C 0.2215(6) 0.4355(3) 0.5465(2)
H26 H 0.2050 0.4340 0.5930
H27 H 0.1208 0.4068 0.5201
H28 H 0.2312 0.4983 0.5324
loop_
_geom_bond_atom_site_label_1
_geom_bond_atom_site_label_2
_geom_bond_site_symmetry_1
_geom_bond_site_symmetry_2
C1 H1 1_555 1_555
H2 C1 1_555 1_555
H3 C1 1_555 1_555
N1 C1 1_555 1_555
C2 N1 1_555 1_555
O1 C2 1_555 1_555
C3 C2 1_555 1_555
C4 C3 1_555 1_555
H4 C4 1_555 1_555
C5 C4 1_555 1_555
C6 C5 1_555 1_555
O2 C6 1_555 1_555
N2 C6 1_555 1_555
C7 N2 1_555 1_555
H5 C7 1_555 1_555
H6 C7 1_555 1_555
H7 C7 1_555 1_555
C8 C5 1_555 1_555
H8 C8 1_555 1_555
C9 C8 1_555 1_555
H9 C9 1_555 1_555
C10 C3 1_555 1_555
H10 C10 1_555 1_555
C11 N1 1_555 1_555
C12 C11 1_555 1_555
C13 C12 1_555 1_555
H11 C13 1_555 1_555
C14 C13 1_555 1_555
H12 C14 1_555 1_555
C15 C14 1_555 1_555
H13 C15 1_555 1_555
C16 C11 1_555 1_555
C17 C12 1_555 1_555
H14 C17 1_555 1_555
H15 C17 1_555 1_555
H16 C17 1_555 1_555
C18 C16 1_555 1_555
H17 C18 1_555 1_555
H18 C18 1_555 1_555
H19 C18 1_555 1_555
C19 N2 1_555 1_555
C20 C19 1_555 1_555
C21 C20 1_555 1_555
H20 C21 1_555 1_555
C22 C21 1_555 1_555
H21 C22 1_555 1_555
C23 C22 1_555 1_555
H22 C23 1_555 1_555
C24 C19 1_555 1_555
C25 C20 1_555 1_555
H23 C25 1_555 1_555
H24 C25 1_555 1_555
H25 C25 1_555 1_555
C26 C24 1_555 1_555
H26 C26 1_555 1_555
H27 C26 1_555 1_555
H28 C26 1_555 1_555
C9 C10 1_555 1_555
C15 C16 1_555 1_555
C23 C24 1_555 1_555

#END
