
#######################################################################
#
#                 Cambridge Crystallographic Data Centre
#                                CCDC 
#
#######################################################################
#
# If this CIF has been generated from an entry in the Cambridge 
# Structural Database, then it will include bibliographic, chemical, 
# crystal, experimental, refinement or atomic coordinate data resulting 
# from the CCDC's data processing and validation procedures.
#
#######################################################################

data_PUMCUV
_chemical_formula_moiety         'C13 H21 N1 O1 Si1'
_chemical_name_systematic        N-(1-(Phenyldimethylsilyl)propyl)acetamide
_symmetry_cell_setting           monoclinic
_symmetry_space_group_name_H-M   'P 21/n'
_symmetry_Int_Tables_number      14
_space_group_name_Hall           '-P 2yn'
loop_
_symmetry_equiv_pos_site_id
_symmetry_equiv_pos_as_xyz
1 x,y,z
2 1/2-x,1/2+y,1/2-z
3 -x,-y,-z
4 1/2+x,1/2-y,1/2+z
_cell_length_a                   10.545(1)
_cell_length_b                   9.728(2)
_cell_length_c                   14.599(1)
_cell_angle_alpha                90
_cell_angle_beta                 91.953(9)
_cell_angle_gamma                90
_cell_volume                     1496.72
_exptl_crystal_colour            colorless
_exptl_crystal_description       prismatic
_cell_formula_units_Z            4
_exptl_crystal_recrystallization_method dichloromethane/hexane
loop_
_atom_site_label
_atom_site_type_symbol
_atom_site_fract_x
_atom_site_fract_y
_atom_site_fract_z
Si1 Si 0.55698(8) 0.24123(9) 0.28666(6)
O1 O 0.2209(2) 0.4112(2) 0.2753(2)
N1 N 0.2984(2) 0.1959(2) 0.2845(2)
C1 C 0.1134(4) 0.2354(4) 0.1878(3)
C2 C 0.2155(3) 0.2887(3) 0.2528(2)
C3 C 0.4033(3) 0.2294(3) 0.3495(2)
C4 C 0.4092(3) 0.1255(4) 0.4290(2)
C5 C 0.2891(5) 0.1260(7) 0.4848(4)
C6 C 0.5363(4) 0.3713(4) 0.1943(3)
C7 C 0.5958(4) 0.0696(4) 0.2390(3)
C8 C 0.6850(3) 0.2951(3) 0.3717(2)
C9 C 0.6699(4) 0.4047(5) 0.4307(3)
C10 C 0.7613(7) 0.4451(7) 0.4938(4)
C11 C 0.8721(8) 0.3755(8) 0.4999(4)
C12 C 0.8946(5) 0.2683(7) 0.4426(5)
C13 C 0.7997(4) 0.2265(4) 0.3782(3)
H1 H 0.1227 0.1270 0.1652
H2 H 0.0174 0.2694 0.2064
H3 H 0.0932 0.2982 0.1199
H4 H 0.2860 0.0911 0.2699
H5 H 0.3778 0.3351 0.3759
H6 H 0.4879 0.1638 0.4810
H7 H 0.4342 0.0224 0.3986
H8 H 0.2651 0.2214 0.5018
H9 H 0.2144 0.0939 0.4482
H10 H 0.2938 0.0747 0.5388
H11 H 0.4818 0.3390 0.1459
H12 H 0.4961 0.4544 0.2188
H13 H 0.6148 0.3991 0.1709
H14 H 0.5199 0.0308 0.1960
H15 H 0.5905 -0.0248 0.2898
H16 H 0.6829 0.0717 0.1888
H17 H 0.5855 0.4605 0.4235
H18 H 0.7452 0.5359 0.5493
H19 H 0.9609 0.4005 0.5473
H20 H 0.9744 0.2121 0.4440
H21 H 0.8165 0.1306 0.3208
loop_
_geom_bond_atom_site_label_1
_geom_bond_atom_site_label_2
_geom_bond_site_symmetry_1
_geom_bond_site_symmetry_2
Si1 C3 1_555 1_555
O1 C2 1_555 1_555
N1 C2 1_555 1_555
C1 C2 1_555 1_555
C3 N1 1_555 1_555
C4 C3 1_555 1_555
C5 C4 1_555 1_555
C6 Si1 1_555 1_555
C7 Si1 1_555 1_555
C8 Si1 1_555 1_555
C9 C8 1_555 1_555
C10 C9 1_555 1_555
C11 C10 1_555 1_555
C12 C11 1_555 1_555
C13 C8 1_555 1_555
H1 C1 1_555 1_555
H2 C1 1_555 1_555
H3 C1 1_555 1_555
H4 N1 1_555 1_555
H5 C3 1_555 1_555
H6 C4 1_555 1_555
H7 C4 1_555 1_555
H8 C5 1_555 1_555
H9 C5 1_555 1_555
H10 C5 1_555 1_555
H11 C6 1_555 1_555
H12 C6 1_555 1_555
H13 C6 1_555 1_555
H14 C7 1_555 1_555
H15 C7 1_555 1_555
H16 C7 1_555 1_555
H17 C9 1_555 1_555
H18 C10 1_555 1_555
H19 C11 1_555 1_555
H20 C12 1_555 1_555
H21 C13 1_555 1_555
C12 C13 1_555 1_555

#END
