
#######################################################################
#
#                 Cambridge Crystallographic Data Centre
#                                CCDC 
#
#######################################################################
#
# If this CIF has been generated from an entry in the Cambridge 
# Structural Database, then it will include bibliographic, chemical, 
# crystal, experimental, refinement or atomic coordinate data resulting 
# from the CCDC's data processing and validation procedures.
#
#######################################################################

data_PUMDUY
_chemical_name_common            'Methyl (S)-naproxenate'
_chemical_formula_moiety         'C15 H16 O3'
_chemical_name_systematic        'Methyl (S)-2-(6-methoxy-2-naphthyl)propanoate'
_symmetry_cell_setting           orthorhombic
_symmetry_space_group_name_H-M   'P 21 21 21'
_symmetry_Int_Tables_number      19
_space_group_name_Hall           'P 2ac 2ab'
loop_
_symmetry_equiv_pos_site_id
_symmetry_equiv_pos_as_xyz
1 x,y,z
2 1/2-x,-y,1/2+z
3 -x,1/2+y,1/2-z
4 1/2+x,1/2-y,-z
_cell_length_a                   5.89120(10)
_cell_length_b                   7.9258(2)
_cell_length_c                   28.6878(5)
_cell_angle_alpha                90
_cell_angle_beta                 90
_cell_angle_gamma                90
_cell_volume                     1339.5
_exptl_crystal_colour            colorless
_exptl_crystal_description       bar
_cell_formula_units_Z            4
loop_
_atom_site_label
_atom_site_type_symbol
_atom_site_fract_x
_atom_site_fract_y
_atom_site_fract_z
O1 O -0.7816(3) -0.06767(19) 0.09103(5)
O2 O -0.7481(4) 0.4282(2) -0.17584(5)
O3 O -0.5808(6) 0.2374(3) -0.21732(10)
C1 C -0.6851(3) -0.0694(2) 0.00872(7)
H1 H -0.5529 -0.1309 0.0137
C2 C -0.8241(3) -0.0297(2) 0.04535(6)
C3 C -1.0296(3) 0.0581(2) 0.03777(7)
H2 H -1.1243 0.0822 0.0628
C4 C -1.0897(3) 0.1075(2) -0.00575(7)
H3 H -1.2259 0.1646 -0.0102
C5 C -0.9493(3) 0.0736(2) -0.04428(6)
C6 C -1.0020(3) 0.1307(2) -0.08980(7)
H4 H -1.1354 0.1909 -0.0947
C7 C -0.8614(4) 0.0993(3) -0.12677(7)
C8 C -0.6594(4) 0.0079(3) -0.11895(8)
H5 H -0.5629 -0.0144 -0.1439
C9 C -0.6033(3) -0.0479(3) -0.07577(7)
H6 H -0.4695 -0.1085 -0.0717
C10 C -0.7442(3) -0.0161(2) -0.03676(6)
C11 C -0.5745(4) -0.1497(3) 0.10205(8)
H7 H -0.5666 -0.1688 0.1351
H8 H -0.4494 -0.0800 0.0926
H9 H -0.5672 -0.2558 0.0860
C12 C -0.9204(5) 0.1624(3) -0.17532(7)
H10 H -1.0610 0.2282 -0.1735
C13 C -0.9569(9) 0.0153(4) -0.20988(9)
H11 H -0.9937 0.0598 -0.2401
H12 H -1.0792 -0.0546 -0.1991
H13 H -0.8206 -0.0506 -0.2119
C14 C -0.7318(5) 0.2770(3) -0.19242(8)
C15 C -0.5724(7) 0.5475(4) -0.18870(10)
H14 H -0.6029 0.6545 -0.1743
H15 H -0.5702 0.5607 -0.2220
H16 H -0.4277 0.5063 -0.1783
loop_
_geom_bond_atom_site_label_1
_geom_bond_atom_site_label_2
_geom_bond_site_symmetry_1
_geom_bond_site_symmetry_2
O1 C2 1_555 1_555
O2 C14 1_555 1_555
O3 C14 1_555 1_555
C1 H1 1_555 1_555
C2 C1 1_555 1_555
C3 C2 1_555 1_555
H2 C3 1_555 1_555
C4 C3 1_555 1_555
H3 C4 1_555 1_555
C5 C4 1_555 1_555
C6 C5 1_555 1_555
H4 C6 1_555 1_555
C7 C6 1_555 1_555
C8 C7 1_555 1_555
H5 C8 1_555 1_555
C9 C8 1_555 1_555
H6 C9 1_555 1_555
C10 C1 1_555 1_555
C11 O1 1_555 1_555
H7 C11 1_555 1_555
H8 C11 1_555 1_555
H9 C11 1_555 1_555
C12 C7 1_555 1_555
H10 C12 1_555 1_555
C13 C12 1_555 1_555
H11 C13 1_555 1_555
H12 C13 1_555 1_555
H13 C13 1_555 1_555
C14 C12 1_555 1_555
C15 O2 1_555 1_555
H14 C15 1_555 1_555
H15 C15 1_555 1_555
H16 C15 1_555 1_555
C5 C10 1_555 1_555
C9 C10 1_555 1_555

#END
