
#######################################################################
#
#                 Cambridge Crystallographic Data Centre
#                                CCDC 
#
#######################################################################
#
# If this CIF has been generated from an entry in the Cambridge 
# Structural Database, then it will include bibliographic, chemical, 
# crystal, experimental, refinement or atomic coordinate data resulting 
# from the CCDC's data processing and validation procedures.
#
#######################################################################

data_PUMSUM
_chemical_formula_moiety         'C15 H19 N4 O2'
_chemical_name_systematic        
4,4,5,5-Tetramethyl-2-(1-methyl-1H-benzimidazol-2-yl)-4,5-dihydroimidazole-1-oxyl-3-oxide
_symmetry_cell_setting           monoclinic
_symmetry_space_group_name_H-M   'P 21/n'
_symmetry_Int_Tables_number      14
_space_group_name_Hall           '-P 2yn'
loop_
_symmetry_equiv_pos_site_id
_symmetry_equiv_pos_as_xyz
1 x,y,z
2 1/2-x,1/2+y,1/2-z
3 -x,-y,-z
4 1/2+x,1/2-y,1/2+z
_cell_length_a                   6.5485(7)
_cell_length_b                   21.234(2)
_cell_length_c                   11.0279(12)
_cell_angle_alpha                90
_cell_angle_beta                 97.4550(10)
_cell_angle_gamma                90
_cell_volume                     1520.48
_cell_formula_units_Z            4
loop_
_atom_site_label
_atom_site_type_symbol
_atom_site_fract_x
_atom_site_fract_y
_atom_site_fract_z
O1 O 0.5143(2) 0.06789(6) 0.75732(12)
O2 O 0.0778(3) 0.23367(7) 0.64512(13)
N1 N 0.3247(2) 0.10693(7) 0.46631(12)
N2 N 0.0099(2) 0.09468(6) 0.52536(11)
N3 N 0.4267(2) 0.12122(6) 0.75779(12)
N4 N 0.2185(2) 0.20047(7) 0.70541(13)
C1 C -0.0048(2) 0.07269(7) 0.40689(14)
C2 C -0.1692(3) 0.04744(8) 0.32938(16)
H1 H -0.2979 0.0414 0.3546
C3 C -0.1304(3) 0.03197(9) 0.21335(17)
H2 H -0.2362 0.0152 0.1584
C4 C 0.0630(3) 0.04073(9) 0.17563(16)
H3 H 0.0820 0.0302 0.0960
C5 C 0.2261(3) 0.06453(9) 0.25295(15)
H4 H 0.3551 0.0696 0.2275
C6 C 0.1912(3) 0.08084(7) 0.37109(14)
C7 C -0.1544(3) 0.09488(9) 0.60268(16)
H5 H -0.1534 0.0558 0.6464
H6 H -0.2847 0.1000 0.5527
H7 H -0.1334 0.1291 0.6599
C8 C 0.2082(2) 0.11393(7) 0.55423(14)
C9 C 0.2816(3) 0.14377(8) 0.67209(14)
C10 C 0.4574(3) 0.16380(8) 0.86798(15)
C11 C 0.3556(3) 0.22573(8) 0.81496(15)
C12 C 0.6861(3) 0.16794(12) 0.9136(2)
H8 H 0.7364 0.1271 0.9402
H9 H 0.7078 0.1970 0.9808
H10 H 0.7587 0.1824 0.8486
C13 C 0.3435(4) 0.13276(11) 0.96377(19)
H11 H 0.1999 0.1293 0.9330
H12 H 0.3593 0.1578 1.0368
H13 H 0.3992 0.0915 0.9820
C14 C 0.5057(4) 0.27030(11) 0.7636(2)
H14 H 0.5849 0.2473 0.7111
H15 H 0.5964 0.2885 0.8297
H16 H 0.4301 0.3031 0.7178
C15 C 0.2252(4) 0.26105(11) 0.8964(2)
H17 H 0.1603 0.2963 0.8525
H18 H 0.3111 0.2758 0.9679
H19 H 0.1216 0.2334 0.9204
loop_
_geom_bond_atom_site_label_1
_geom_bond_atom_site_label_2
_geom_bond_site_symmetry_1
_geom_bond_site_symmetry_2
O1 N3 1_555 1_555
O2 N4 1_555 1_555
N1 C6 1_555 1_555
N2 C1 1_555 1_555
N3 C9 1_555 1_555
N4 C9 1_555 1_555
C1 C2 1_555 1_555
C2 H1 1_555 1_555
C3 C2 1_555 1_555
H2 C3 1_555 1_555
C4 C3 1_555 1_555
H3 C4 1_555 1_555
C5 C4 1_555 1_555
H4 C5 1_555 1_555
C6 C1 1_555 1_555
C7 N2 1_555 1_555
H5 C7 1_555 1_555
H6 C7 1_555 1_555
H7 C7 1_555 1_555
C8 N1 1_555 1_555
C9 C8 1_555 1_555
C10 N3 1_555 1_555
C11 N4 1_555 1_555
C12 C10 1_555 1_555
H8 C12 1_555 1_555
H9 C12 1_555 1_555
H10 C12 1_555 1_555
C13 C10 1_555 1_555
H11 C13 1_555 1_555
H12 C13 1_555 1_555
H13 C13 1_555 1_555
C14 C11 1_555 1_555
H14 C14 1_555 1_555
H15 C14 1_555 1_555
H16 C14 1_555 1_555
C15 C11 1_555 1_555
H17 C15 1_555 1_555
H18 C15 1_555 1_555
H19 C15 1_555 1_555
N2 C8 1_555 1_555
C5 C6 1_555 1_555
C10 C11 1_555 1_555

#END
