
#######################################################################
#
#                 Cambridge Crystallographic Data Centre
#                                CCDC 
#
#######################################################################
#
# If this CIF has been generated from an entry in the Cambridge 
# Structural Database, then it will include bibliographic, chemical, 
# crystal, experimental, refinement or atomic coordinate data resulting 
# from the CCDC's data processing and validation procedures.
#
#######################################################################

data_PUMWUP
_chemical_formula_moiety         'C10 H8 N2 S4'
_chemical_name_systematic        
1-(4,5-bis(Methylsulfanyl)-1,3-dithiol-2-ylidene)-3,3-dicyanoprop-2-ene
_symmetry_cell_setting           triclinic
_symmetry_space_group_name_H-M   'P -1'
_symmetry_Int_Tables_number      2
_space_group_name_Hall           '-P 1'
loop_
_symmetry_equiv_pos_site_id
_symmetry_equiv_pos_as_xyz
1 x,y,z
2 -x,-y,-z
_cell_length_a                   5.062(1)
_cell_length_b                   9.144(3)
_cell_length_c                   14.051(5)
_cell_angle_alpha                85.75(3)
_cell_angle_beta                 83.24(3)
_cell_angle_gamma                87.92(2)
_cell_volume                     643.83
_exptl_crystal_colour            red
_chemical_melting_point          149-150deg.C
_cell_formula_units_Z            2
_exptl_crystal_recrystallization_method dichloromethane
loop_
_atom_site_label
_atom_site_type_symbol
_atom_site_fract_x
_atom_site_fract_y
_atom_site_fract_z
S1 S 0.3221(1) 0.1782(1) 0.1854(1)
S2 S 0.4472(1) 0.0404(1) 0.3691(1)
S3 S -0.1281(1) 0.3685(1) 0.2804(1)
S4 S 0.0343(1) 0.2204(1) 0.4858(1)
N1 N 1.2338(7) -0.1775(4) 0.0157(2)
N2 N 1.4096(5) -0.3745(3) 0.2955(2)
C1 C 0.5257(5) 0.0547(3) 0.2459(2)
C2 C 0.1274(5) 0.2354(3) 0.2886(2)
C3 C 0.1862(5) 0.1720(3) 0.3731(2)
C4 C 0.7285(5) -0.0242(3) 0.1957(2)
C5 C 0.8949(5) -0.1233(3) 0.2434(2)
C6 C 1.1085(5) -0.2017(3) 0.1995(2)
C7 C 1.1782(6) -0.1882(3) 0.0976(2)
C8 C 1.2738(6) -0.2972(3) 0.2536(2)
C9 C -0.0862(7) 0.4288(4) 0.1540(2)
C10 C 0.2592(7) 0.3613(4) 0.5074(2)
H1 H 0.7570(62) -0.0075(34) 0.1246(23)
H2 H 0.8568(59) -0.1379(33) 0.3124(22)
H3 H -0.2163(74) 0.5091(41) 0.1435(26)
H4 H -0.1136(70) 0.3494(41) 0.1148(26)
H5 H 0.0894(74) 0.4642(38) 0.1354(25)
H6 H 0.1961(65) 0.3995(36) 0.5657(25)
H7 H 0.2667(73) 0.4305(41) 0.4526(27)
H8 H 0.4181(86) 0.3160(46) 0.5204(29)
loop_
_geom_bond_atom_site_label_1
_geom_bond_atom_site_label_2
_geom_bond_site_symmetry_1
_geom_bond_site_symmetry_2
S1 C1 1_555 1_555
S2 C1 1_555 1_555
S3 C2 1_555 1_555
S4 C3 1_555 1_555
N1 C7 1_555 1_555
N2 C8 1_555 1_555
C1 C4 1_555 1_555
C2 S1 1_555 1_555
C3 S2 1_555 1_555
C4 C5 1_555 1_555
C5 C6 1_555 1_555
C6 C7 1_555 1_555
C8 C6 1_555 1_555
C9 S3 1_555 1_555
C10 S4 1_555 1_555
H1 C4 1_555 1_555
H2 C5 1_555 1_555
H3 C9 1_555 1_555
H4 C9 1_555 1_555
H5 C9 1_555 1_555
H6 C10 1_555 1_555
H7 C10 1_555 1_555
H8 C10 1_555 1_555
C2 C3 1_555 1_555

#END
