
#######################################################################
#
#                 Cambridge Crystallographic Data Centre
#                                CCDC 
#
#######################################################################
#
# If this CIF has been generated from an entry in the Cambridge 
# Structural Database, then it will include bibliographic, chemical, 
# crystal, experimental, refinement or atomic coordinate data resulting 
# from the CCDC's data processing and validation procedures.
#
#######################################################################

data_PUNJIT
_chemical_formula_moiety         'C7 H13 N1 O1 S2'
_chemical_name_systematic        
2-(methylsulfanyl)-1-(thiomorpholin-4-yl)ethanone
_symmetry_cell_setting           monoclinic
_symmetry_space_group_name_H-M   'P 21/c'
_symmetry_Int_Tables_number      14
_space_group_name_Hall           '-P 2ybc'
loop_
_symmetry_equiv_pos_site_id
_symmetry_equiv_pos_as_xyz
1 x,y,z
2 -x,1/2+y,1/2-z
3 -x,-y,-z
4 x,1/2-y,1/2+z
_cell_length_a                   15.0461(15)
_cell_length_b                   6.1525(6)
_cell_length_c                   10.4751(10)
_cell_angle_alpha                90
_cell_angle_beta                 107.581(6)
_cell_angle_gamma                90
_cell_volume                     924.398
_exptl_crystal_colour            colorless
_exptl_crystal_description       block
_cell_formula_units_Z            4
loop_
_atom_site_label
_atom_site_type_symbol
_atom_site_fract_x
_atom_site_fract_y
_atom_site_fract_z
S1 S 0.57059(2) 0.35556(6) 0.41078(4)
S2 S 0.87043(3) 1.06954(6) 0.40092(4)
O1 O 0.82963(8) 0.59419(17) 0.21785(11)
N1 N 0.72025(8) 0.62668(19) 0.32412(12)
C1 C 0.68637(10) 0.7095(2) 0.43112(15)
H1 H 0.6300 0.7989 0.3920
H2 H 0.7346 0.8037 0.4909
C2 C 0.66298(11) 0.5254(3) 0.51228(15)
H3 H 0.6437 0.5870 0.5871
H4 H 0.7193 0.4357 0.5510
C3 C 0.62268(10) 0.2963(2) 0.28028(15)
H5 H 0.6779 0.2023 0.3172
H6 H 0.5774 0.2148 0.2078
C4 C 0.65213(10) 0.5000(2) 0.22214(14)
H7 H 0.6795 0.4586 0.1507
H8 H 0.5965 0.5909 0.1812
C5 C 0.80749(9) 0.6585(2) 0.31488(14)
C6 C 0.87815(10) 0.7787(2) 0.42581(15)
H9 H 0.9416 0.7294 0.4300
H10 H 0.8679 0.7434 0.5125
C7 C 0.91981(12) 1.0968(3) 0.26585(18)
H11 H 0.9862 1.0593 0.2975
H12 H 0.9127 1.2471 0.2334
H13 H 0.8876 0.9988 0.1928
loop_
_geom_bond_atom_site_label_1
_geom_bond_atom_site_label_2
_geom_bond_site_symmetry_1
_geom_bond_site_symmetry_2
S1 C2 1_555 1_555
S2 C6 1_555 1_555
O1 C5 1_555 1_555
N1 C1 1_555 1_555
C1 H1 1_555 1_555
H2 C1 1_555 1_555
C2 C1 1_555 1_555
H3 C2 1_555 1_555
H4 C2 1_555 1_555
C3 S1 1_555 1_555
H5 C3 1_555 1_555
H6 C3 1_555 1_555
C4 N1 1_555 1_555
H7 C4 1_555 1_555
H8 C4 1_555 1_555
C5 N1 1_555 1_555
C6 C5 1_555 1_555
H9 C6 1_555 1_555
H10 C6 1_555 1_555
C7 S2 1_555 1_555
H11 C7 1_555 1_555
H12 C7 1_555 1_555
H13 C7 1_555 1_555
C3 C4 1_555 1_555

#END
