
#######################################################################
#
#                 Cambridge Crystallographic Data Centre
#                                CCDC 
#
#######################################################################
#
# If this CIF has been generated from an entry in the Cambridge 
# Structural Database, then it will include bibliographic, chemical, 
# crystal, experimental, refinement or atomic coordinate data resulting 
# from the CCDC's data processing and validation procedures.
#
#######################################################################

data_PUNXON
_chemical_formula_moiety         'C72 H54 N2 O8'
_chemical_name_systematic        
'(1,3,6,8-tetraoxo-1,3,6,8-tetrahydrobenzo[lmn][3,8]phenanthroline-2,7-diyl)bis-4-(2-methylbutan-2-yl)-2,1-phenylene bis(pyren-1-ylacetate)'
_symmetry_cell_setting           triclinic
_symmetry_space_group_name_H-M   'P -1'
_symmetry_Int_Tables_number      2
_space_group_name_Hall           '-P 1'
loop_
_symmetry_equiv_pos_site_id
_symmetry_equiv_pos_as_xyz
1 x,y,z
2 -x,-y,-z
_cell_length_a                   8.4849(7)
_cell_length_b                   12.6610(11)
_cell_length_c                   13.7331(12)
_cell_angle_alpha                108.388(2)
_cell_angle_beta                 98.716(2)
_cell_angle_gamma                104.328(2)
_cell_volume                     1313.46
_exptl_crystal_colour            'yellow orange'
_exptl_crystal_description       plate
_cell_formula_units_Z            1
loop_
_atom_site_label
_atom_site_type_symbol
_atom_site_fract_x
_atom_site_fract_y
_atom_site_fract_z
O1 O 0.34724(18) 0.19584(12) 0.22580(11)
O2 O -0.00255(18) 0.40173(12) 0.33499(11)
N1 N 0.17156(19) 0.29856(13) 0.28139(12)
C1 C 0.3292(2) 0.28020(16) 0.29028(15)
C2 C 0.4664(2) 0.36642(15) 0.38173(14)
C3 C 0.4351(2) 0.46072(15) 0.45553(14)
C4 C 0.2765(2) 0.47699(15) 0.44135(14)
C5 C 0.1372(2) 0.39317(16) 0.35016(15)
C6 C 0.6223(2) 0.35269(16) 0.39649(15)
H1 H 0.6432 0.2897 0.3463
C7 C 0.2491(2) 0.56907(16) 0.51482(15)
H2 H 0.1416 0.5796 0.5052
C8 C 0.0333(2) 0.20703(15) 0.20022(15)
C9 C 0.0140(2) 0.19213(16) 0.09532(15)
C10 C -0.1086(3) 0.09809(18) 0.01878(16)
H3 H -0.1197 0.0875 -0.0538
C11 C -0.2167(3) 0.01820(17) 0.04768(16)
H4 H -0.2998 -0.0481 -0.0058
C12 C -0.2055(2) 0.03352(17) 0.15366(16)
C13 C -0.0790(2) 0.12919(17) 0.22861(16)
H5 H -0.0688 0.1419 0.3016
O3 O 0.1350(8) 0.2667(5) 0.0663(8)
O4 O -0.0388(5) 0.3715(4) 0.0535(5)
C14 C 0.0955(5) 0.3591(5) 0.0524(7)
C15 C 0.2410(4) 0.4355(3) 0.0298(3)
H6 H 0.2093 0.5012 0.0174
H7 H 0.2654 0.3890 -0.0356
C16 C 0.3978(4) 0.4845(2) 0.1199(2)
C17 C 0.4152(18) 0.5787(15) 0.2126(11)
C18 C 0.2821(4) 0.6293(2) 0.2302(2)
H8 H 0.1789 0.5986 0.1776
C19 C 0.3026(7) 0.7196(6) 0.3205(5)
H9 H 0.2124 0.7504 0.3307
C20 C 0.4557(6) 0.7701(4) 0.4012(4)
C21 C 0.5900(5) 0.7238(3) 0.3866(3)
C22 C 0.5671(4) 0.6257(3) 0.2932(3)
C23 C 0.7010(7) 0.5777(5) 0.2797(4)
C24 C 0.6763(8) 0.4808(5) 0.1885(5)
H10 H 0.7618 0.4448 0.1801
C25 C 0.5283(4) 0.4366(3) 0.1101(3)
H11 H 0.5153 0.3717 0.0478
C26 C 0.4788(6) 0.8651(4) 0.4939(4)
H12 H 0.3885 0.8951 0.5058
C27 C 0.6319(5) 0.9163(3) 0.5691(3)
H13 H 0.6457 0.9812 0.6316
C28 C 0.7636(4) 0.8732(3) 0.5534(2)
H14 H 0.8687 0.9104 0.6045
C29 C 0.7458(10) 0.7758(6) 0.4635(5)
C30 C 0.8776(5) 0.7255(3) 0.4464(3)
H15 H 0.9837 0.7605 0.4965
C31 C 0.8540(6) 0.6300(5) 0.3612(5)
H16 H 0.9417 0.5960 0.3546
C32 C -0.3234(3) -0.05594(19) 0.18506(18)
C33 C -0.3154(4) -0.0071(2) 0.3050(2)
H17 H -0.2015 0.0086 0.3461
H18 H -0.3952 -0.0649 0.3222
H19 H -0.3444 0.0658 0.3227
C34 C -0.5042(3) -0.0839(3) 0.1267(3)
H20 H -0.5339 -0.0114 0.1416
H21 H -0.5784 -0.1379 0.1504
H22 H -0.5170 -0.1206 0.0503
C35 C -0.2726(3) -0.1666(2) 0.1589(2)
H23 H -0.2805 -0.1974 0.0819
H24 H -0.3552 -0.2260 0.1738
C36 C -0.0980(16) -0.1540(15) 0.2175(10)
H25 H -0.0149 -0.0909 0.2085
H26 H -0.0735 -0.2278 0.1887
H27 H -0.0930 -0.1352 0.2930
O1A O 0.65276(18) 0.80416(12) 0.77420(11)
O2A O 1.00255(18) 0.59827(12) 0.66501(11)
N1A N 0.82844(19) 0.70144(13) 0.71861(12)
C1A C 0.6708(2) 0.71980(16) 0.70972(15)
C2A C 0.5336(2) 0.63358(15) 0.61827(14)
C3A C 0.5649(2) 0.53928(15) 0.54447(14)
C4A C 0.7235(2) 0.52301(15) 0.55865(14)
C5A C 0.8628(2) 0.60683(16) 0.64984(15)
C6A C 0.3777(2) 0.64731(16) 0.60351(15)
H1A H 0.3568 0.7103 0.6537
C7A C 0.7509(2) 0.43093(16) 0.48518(15)
H2A H 0.8584 0.4204 0.4948
C8A C 0.9667(2) 0.79297(15) 0.79978(15)
C9A C 0.9860(2) 0.80787(16) 0.90468(15)
C10A C 1.1086(3) 0.90191(18) 0.98122(16)
H3A H 1.1197 0.9125 1.0538
C11A C 1.2167(3) 0.98180(17) 0.95232(16)
H4A H 1.2998 1.0481 1.0058
C12A C 1.2055(2) 0.96648(17) 0.84634(16)
C13A C 1.0790(2) 0.87081(17) 0.77139(16)
H5A H 1.0688 0.8581 0.6984
O3A O 0.8650(8) 0.7333(5) 0.9337(8)
O4A O 1.0388(5) 0.6285(4) 0.9465(5)
C14A C 0.9045(5) 0.6409(5) 0.9476(7)
C15A C 0.7590(4) 0.5645(3) 0.9702(3)
H6A H 0.7907 0.4988 0.9826
H7A H 0.7346 0.6110 1.0356
C16A C 0.6022(4) 0.5155(2) 0.8801(2)
C17A C 0.5848(18) 0.4213(15) 0.7874(11)
C18A C 0.7179(4) 0.3707(2) 0.7698(2)
H8A H 0.8211 0.4014 0.8224
C19A C 0.6974(7) 0.2804(6) 0.6795(5)
H9A H 0.7876 0.2496 0.6693
C20A C 0.5443(6) 0.2299(4) 0.5988(4)
C21A C 0.4100(5) 0.2762(3) 0.6134(3)
C22A C 0.4329(4) 0.3743(3) 0.7068(3)
C23A C 0.2990(7) 0.4223(5) 0.7203(4)
C24A C 0.3237(8) 0.5192(5) 0.8115(5)
H10A H 0.2382 0.5552 0.8199
C25A C 0.4717(4) 0.5634(3) 0.8899(3)
H11A H 0.4847 0.6283 0.9522
C26A C 0.5212(6) 0.1349(4) 0.5061(4)
H12A H 0.6115 0.1049 0.4942
C27A C 0.3681(5) 0.0837(3) 0.4309(3)
H13A H 0.3543 0.0188 0.3684
C28A C 0.2364(4) 0.1268(3) 0.4466(2)
H14A H 0.1313 0.0896 0.3955
C29A C 0.2542(10) 0.2242(6) 0.5365(5)
C30A C 0.1224(5) 0.2745(3) 0.5536(3)
H15A H 0.0163 0.2395 0.5035
C31A C 0.1460(6) 0.3700(5) 0.6388(5)
H16A H 0.0583 0.4040 0.6454
C32A C 1.3234(3) 1.05594(19) 0.81494(18)
C33A C 1.3154(4) 1.0071(2) 0.6950(2)
H17A H 1.2015 0.9914 0.6539
H18A H 1.3952 1.0649 0.6778
H19A H 1.3444 0.9342 0.6773
C34A C 1.5042(3) 1.0839(3) 0.8733(3)
H20A H 1.5339 1.0114 0.8584
H21A H 1.5784 1.1379 0.8496
H22A H 1.5170 1.1206 0.9497
C35A C 1.2726(3) 1.1666(2) 0.8411(2)
H23A H 1.2805 1.1974 0.9181
H24A H 1.3552 1.2260 0.8262
C36A C 1.0980(16) 1.1540(15) 0.7825(10)
H25A H 1.0149 1.0909 0.7915
H26A H 1.0735 1.2278 0.8113
H27A H 1.0930 1.1352 0.7070
O5? O 0.118(2) 0.2841(16) 0.075(2)
O6? O -0.1002(15) 0.3397(13) 0.0223(15)
C37? C 0.0454(16) 0.3509(16) 0.035(2)
C38? C 0.1762(12) 0.4524(8) 0.0308(7)
H28? H 0.2665 0.4251 0.0038
H29? H 0.1250 0.4838 -0.0189
C39? C 0.2501(8) 0.5477(6) 0.1381(5)
C40? C 0.407(5) 0.563(4) 0.201(3)
C41? C 0.5142(11) 0.4942(7) 0.1656(7)
H30? H 0.4740 0.4289 0.1004
C42? C 0.6705(14) 0.5219(11) 0.2246(10)
H31? H 0.7399 0.4767 0.1988
C43? C 0.7358(18) 0.6159(13) 0.3241(10)
C44? C 0.6353(11) 0.6879(8) 0.3613(8)
C45? C 0.4721(9) 0.6600(6) 0.2995(5)
C46? C 0.3710(15) 0.7295(13) 0.3390(12)
C47? C 0.2120(13) 0.7064(8) 0.2758(8)
H32? H 0.1431 0.7523 0.3010
C48? C 0.1535(9) 0.6170(6) 0.1765(6)
H33? H 0.0455 0.6032 0.1343
C49? C 0.902(2) 0.6537(16) 0.3787(15)
H34? H 0.9753 0.6129 0.3505
C50? C 0.9672(14) 0.7508(9) 0.4748(9)
H35? H 1.0800 0.7717 0.5138
C51? C 0.8648(14) 0.8156(8) 0.5119(7)
H36? H 0.9091 0.8821 0.5761
C52? C 0.698(2) 0.7855(17) 0.4574(15)
C53? C 0.5904(12) 0.8516(7) 0.4978(7)
H37? H 0.6288 0.9144 0.5646
C54? C 0.4370(14) 0.8220(11) 0.4389(9)
H38? H 0.3662 0.8656 0.4653
C55? C -0.460(2) -0.002(2) 0.218(2)
H39? H -0.4121 0.0632 0.2870
H40? H -0.5530 -0.0615 0.2237
H41? H -0.5018 0.0280 0.1649
C56? C -0.422(3) -0.1634(15) 0.0811(12)
H42? H -0.4819 -0.1373 0.0311
H43? H -0.5028 -0.2212 0.0976
H44? H -0.3429 -0.1993 0.0493
C57? C -0.233(3) -0.0985(19) 0.2587(14)
H45? H -0.3169 -0.1557 0.2751
H46? H -0.1738 -0.0312 0.3259
C58? C -0.106(12) -0.156(11) 0.218(8)
H47? H -0.1583 -0.2143 0.1463
H48? H -0.0689 -0.1938 0.2651
H49? H -0.0091 -0.0957 0.2164
loop_
_geom_bond_atom_site_label_1
_geom_bond_atom_site_label_2
_geom_bond_site_symmetry_1
_geom_bond_site_symmetry_2
O1 C1 1_555 1_555
O2 C5 1_555 1_555
N1 C1 1_555 1_555
C1 C2 1_555 1_555
C2 C3 1_555 1_555
C3 C4 1_555 1_555
C4 C5 1_555 1_555
C5 N1 1_555 1_555
C6 C2 1_555 1_555
H1 C6 1_555 1_555
C7 C4 1_555 1_555
H2 C7 1_555 1_555
C8 N1 1_555 1_555
C9 C8 1_555 1_555
C10 C9 1_555 1_555
H3 C10 1_555 1_555
C11 C10 1_555 1_555
H4 C11 1_555 1_555
C12 C11 1_555 1_555
C13 C8 1_555 1_555
H5 C13 1_555 1_555
O3 C9 1_555 1_555
O4 C14 1_555 1_555
C14 O3 1_555 1_555
C15 C14 1_555 1_555
H6 C15 1_555 1_555
H7 C15 1_555 1_555
C16 C15 1_555 1_555
C17 C16 1_555 1_555
C18 C17 1_555 1_555
H8 C18 1_555 1_555
C19 C18 1_555 1_555
H9 C19 1_555 1_555
C20 C19 1_555 1_555
C21 C20 1_555 1_555
C22 C17 1_555 1_555
C23 C22 1_555 1_555
C24 C23 1_555 1_555
H10 C24 1_555 1_555
C25 C16 1_555 1_555
H11 C25 1_555 1_555
C26 C20 1_555 1_555
H12 C26 1_555 1_555
C27 C26 1_555 1_555
H13 C27 1_555 1_555
C28 C27 1_555 1_555
H14 C28 1_555 1_555
C29 C21 1_555 1_555
C30 C29 1_555 1_555
H15 C30 1_555 1_555
C31 C23 1_555 1_555
H16 C31 1_555 1_555
C32 C12 1_555 1_555
C33 C32 1_555 1_555
H17 C33 1_555 1_555
H18 C33 1_555 1_555
H19 C33 1_555 1_555
C34 C32 1_555 1_555
H20 C34 1_555 1_555
H21 C34 1_555 1_555
H22 C34 1_555 1_555
C35 C32 1_555 1_555
H23 C35 1_555 1_555
H24 C35 1_555 1_555
C36 C35 1_555 1_555
H25 C36 1_555 1_555
H26 C36 1_555 1_555
H27 C36 1_555 1_555
O1A C1A 1_555 1_555
O2A C5A 1_555 1_555
N1A C1A 1_555 1_555
C1A C2A 1_555 1_555
C2A C3A 1_555 1_555
C3A C3 1_555 1_555
C4A C3A 1_555 1_555
C5A N1A 1_555 1_555
C6A C7 1_555 1_555
H1A C6A 1_555 1_555
C7A C6 1_555 1_555
H2A C7A 1_555 1_555
C8A N1A 1_555 1_555
C9A C8A 1_555 1_555
C10A C9A 1_555 1_555
H3A C10A 1_555 1_555
C11A C10A 1_555 1_555
H4A C11A 1_555 1_555
C12A C11A 1_555 1_555
C13A C8A 1_555 1_555
H5A C13A 1_555 1_555
O3A C9A 1_555 1_555
O4A C14A 1_555 1_555
C14A O3A 1_555 1_555
C15A C14A 1_555 1_555
H6A C15A 1_555 1_555
H7A C15A 1_555 1_555
C16A C15A 1_555 1_555
C17A C16A 1_555 1_555
C18A C17A 1_555 1_555
H8A C18A 1_555 1_555
C19A C18A 1_555 1_555
H9A C19A 1_555 1_555
C20A C19A 1_555 1_555
C21A C20A 1_555 1_555
C22A C17A 1_555 1_555
C23A C22A 1_555 1_555
C24A C23A 1_555 1_555
H10A C24A 1_555 1_555
C25A C16A 1_555 1_555
H11A C25A 1_555 1_555
C26A C20A 1_555 1_555
H12A C26A 1_555 1_555
C27A C26A 1_555 1_555
H13A C27A 1_555 1_555
C28A C27A 1_555 1_555
H14A C28A 1_555 1_555
C29A C21A 1_555 1_555
C30A C29A 1_555 1_555
H15A C30A 1_555 1_555
C31A C23A 1_555 1_555
H16A C31A 1_555 1_555
C32A C12A 1_555 1_555
C33A C32A 1_555 1_555
H17A C33A 1_555 1_555
H18A C33A 1_555 1_555
H19A C33A 1_555 1_555
C34A C32A 1_555 1_555
H20A C34A 1_555 1_555
H21A C34A 1_555 1_555
H22A C34A 1_555 1_555
C35A C32A 1_555 1_555
H23A C35A 1_555 1_555
H24A C35A 1_555 1_555
C36A C35A 1_555 1_555
H25A C36A 1_555 1_555
H26A C36A 1_555 1_555
H27A C36A 1_555 1_555
C12 C13 1_555 1_555
C21 C22 1_555 1_555
C24 C25 1_555 1_555
C28 C29 1_555 1_555
C30 C31 1_555 1_555
C2A C6A 1_555 1_555
C4A C5A 1_555 1_555
C4A C7A 1_555 1_555
C12A C13A 1_555 1_555
C21A C22A 1_555 1_555
C24A C25A 1_555 1_555
C28A C29A 1_555 1_555
C30A C31A 1_555 1_555

#END
