
#######################################################################
#
#                 Cambridge Crystallographic Data Centre
#                                CCDC 
#
#######################################################################
#
# If this CIF has been generated from an entry in the Cambridge 
# Structural Database, then it will include bibliographic, chemical, 
# crystal, experimental, refinement or atomic coordinate data resulting 
# from the CCDC's data processing and validation procedures.
#
#######################################################################

data_PUNZAZ
_chemical_formula_moiety         'C17 H22 N1 1+,C10 H15 O4 S1 1-'
_chemical_name_systematic        
'1-Azonia-3-methylene-5-p-tolyltricyclo(5.3.0.0^4,10^)decane (1S)-(+)-10-camphorsulfonate'
_symmetry_cell_setting           monoclinic
_symmetry_space_group_name_H-M   'P 21'
_symmetry_Int_Tables_number      4
_space_group_name_Hall           'P 2yb'
loop_
_symmetry_equiv_pos_site_id
_symmetry_equiv_pos_as_xyz
1 x,y,z
2 -x,1/2+y,-z
_cell_length_a                   8.629(2)
_cell_length_b                   10.343(2)
_cell_length_c                   14.836(3)
_cell_angle_alpha                90
_cell_angle_beta                 104.35(2)
_cell_angle_gamma                90
_cell_volume                     1282.8
_exptl_crystal_description       rod
_cell_formula_units_Z            2
loop_
_atom_site_label
_atom_site_type_symbol
_atom_site_fract_x
_atom_site_fract_y
_atom_site_fract_z
N1 N 0.1282(6) 0.3636(7) -0.4731(3)
H1 H 0.0253(6) 0.3654(7) -0.5080(3)
C1 C 0.2322(8) 0.2931(7) -0.5277(7)
H2 H 0.1853(8) 0.2121(7) -0.5565(7)
C2 C 0.2329(7) 0.4055(12) -0.6001(4)
H3 H 0.3312(7) 0.4050(12) -0.6207(4)
H4 H 0.1428(7) 0.3976(12) -0.6539(4)
C3 C 0.2204(10) 0.5225(10) -0.5475(7)
H5 H 0.3199(10) 0.5705(10) -0.5362(7)
H6 H 0.1356(10) 0.5771(10) -0.5831(7)
C4 C 0.1871(9) 0.4890(8) -0.4619(5)
H7 H 0.1100(9) 0.5487(8) -0.4458(5)
C5 C 0.3373(8) 0.4730(7) -0.3809(4)
H8 H 0.3770(8) 0.5546(7) -0.3501(4)
C6 C 0.2729(6) 0.3761(6) -0.3168(4)
C7 C 0.1306(9) 0.3114(9) -0.3773(5)
H9 H 0.0337(9) 0.3343(9) -0.3591(5)
H10 H 0.1427(9) 0.2181(9) -0.3752(5)
C8 C 0.4017(8) 0.2760(7) -0.4599(5)
H11 H 0.3937(8) 0.2119(7) -0.4136(5)
H12 H 0.4733(8) 0.2418(7) -0.4951(5)
C9 C 0.4726(6) 0.3902(7) -0.4126(4)
H13 H 0.5037(6) 0.4427(7) -0.4602(4)
C10 C 0.6214(6) 0.3798(6) -0.3342(4)
C11 C 0.6744(9) 0.2680(7) -0.2882(5)
H14 H 0.6209(9) 0.1915(7) -0.3090(5)
C12 C 0.8067(8) 0.2635(9) -0.2104(5)
H15 H 0.8397(8) 0.1852(9) -0.1811(5)
C13 C 0.8867(7) 0.3755(10) -0.1780(4)
C14 C 0.8371(10) 0.4853(11) -0.2259(7)
H16 H 0.8943(10) 0.5610(11) -0.2074(7)
C15 C 0.7084(9) 0.4906(9) -0.2994(6)
H17 H 0.6769(9) 0.5699(9) -0.3276(6)
C16 C 1.0233(8) 0.3769(14) -0.0904(6)
H18 H 1.0416(8) 0.2907(14) -0.0660(6)
H19 H 0.9957(8) 0.4321(14) -0.0447(6)
H20 H 1.1186(8) 0.4087(14) -0.1051(6)
C17 C 0.3258(9) 0.3604(8) -0.2281(4)
H21 H 0.2736(9) 0.3043(8) -0.1964(4)
H22 H 0.4160(9) 0.4052(8) -0.1959(4)
C18 C 0.7012(7) 0.3951(7) -0.8247(4)
C19 C 0.7269(11) 0.4830(8) -0.9050(5)
C20 C 0.6338(11) 0.4255(8) -0.9950(5)
H23 H 0.7022(11) 0.4062(8) -1.0362(5)
H24 H 0.5478(11) 0.4821(8) -1.0266(5)
C21 C 0.5678(10) 0.2988(7) -0.9595(4)
H25 H 0.4774(10) 0.2584(7) -1.0037(4)
C22 C 0.7134(12) 0.2132(8) -0.9266(6)
H26 H 0.7767(12) 0.2108(8) -0.9722(6)
H27 H 0.6820(12) 0.1257(8) -0.9155(6)
C23 C 0.5322(9) 0.3463(7) -0.8683(5)
C24 C 0.8087(11) 0.2769(8) -0.8347(5)
H28 H 0.9137(11) 0.3046(8) -0.8395(5)
H29 H 0.8205(11) 0.2180(8) -0.7825(5)
O1 O 0.8051(10) 0.5794(7) -0.8959(5)
C25 C 0.7485(10) 0.4702(7) -0.7348(4)
H30 H 0.6803(10) 0.5460(7) -0.7420(4)
H31 H 0.8568(10) 0.5010(7) -0.7287(4)
C26 C 0.4755(14) 0.2313(9) -0.8197(7)
H32 H 0.5527(14) 0.1628(9) -0.8124(7)
H33 H 0.3743(14) 0.2014(9) -0.8566(7)
H34 H 0.4641(14) 0.2578(9) -0.7596(7)
C27 C 0.4095(11) 0.4530(10) -0.8792(6)
H35 H 0.3052(11) 0.4186(10) -0.9068(6)
H36 H 0.4343(11) 0.5195(10) -0.9186(6)
H37 H 0.4111(11) 0.4887(10) -0.8193(6)
S1 S 0.7434(2) 0.3970(2) -0.62711(9)
O2 O 0.5815(6) 0.3923(16) -0.6303(4)
O3 O 0.8328(9) 0.2798(6) -0.6176(5)
O4 O 0.8344(8) 0.4949(7) -0.5599(4)
O5? O 0.5998(18) 0.3018(17) -0.6260(13)
O6? O 0.7603(23) 0.4778(18) -0.5484(13)
O7? O 0.8720(20) 0.3035(19) -0.6194(15)
loop_
_geom_bond_atom_site_label_1
_geom_bond_atom_site_label_2
_geom_bond_site_symmetry_1
_geom_bond_site_symmetry_2
N1 H1 1_555 1_555
C1 N1 1_555 1_555
H2 C1 1_555 1_555
C2 C1 1_555 1_555
H3 C2 1_555 1_555
H4 C2 1_555 1_555
C3 C2 1_555 1_555
H5 C3 1_555 1_555
H6 C3 1_555 1_555
C4 N1 1_555 1_555
H7 C4 1_555 1_555
C5 C4 1_555 1_555
H8 C5 1_555 1_555
C6 C5 1_555 1_555
C7 N1 1_555 1_555
H9 C7 1_555 1_555
H10 C7 1_555 1_555
C8 C1 1_555 1_555
H11 C8 1_555 1_555
H12 C8 1_555 1_555
C9 C5 1_555 1_555
H13 C9 1_555 1_555
C10 C9 1_555 1_555
C11 C10 1_555 1_555
H14 C11 1_555 1_555
C12 C11 1_555 1_555
H15 C12 1_555 1_555
C13 C12 1_555 1_555
C14 C13 1_555 1_555
H16 C14 1_555 1_555
C15 C10 1_555 1_555
H17 C15 1_555 1_555
C16 C13 1_555 1_555
H18 C16 1_555 1_555
H19 C16 1_555 1_555
H20 C16 1_555 1_555
C17 C6 1_555 1_555
H21 C17 1_555 1_555
H22 C17 1_555 1_555
C18 C19 1_555 1_555
C19 C20 1_555 1_555
C20 H23 1_555 1_555
H24 C20 1_555 1_555
C21 C20 1_555 1_555
H25 C21 1_555 1_555
C22 C21 1_555 1_555
H26 C22 1_555 1_555
H27 C22 1_555 1_555
C23 C18 1_555 1_555
C24 C18 1_555 1_555
H28 C24 1_555 1_555
H29 C24 1_555 1_555
O1 C19 1_555 1_555
C25 C18 1_555 1_555
H30 C25 1_555 1_555
H31 C25 1_555 1_555
C26 C23 1_555 1_555
H32 C26 1_555 1_555
H33 C26 1_555 1_555
H34 C26 1_555 1_555
C27 C23 1_555 1_555
H35 C27 1_555 1_555
H36 C27 1_555 1_555
H37 C27 1_555 1_555
S1 C25 1_555 1_555
O2 S1 1_555 1_555
O3 S1 1_555 1_555
O4 S1 1_555 1_555
C3 C4 1_555 1_555
C6 C7 1_555 1_555
C8 C9 1_555 1_555
C14 C15 1_555 1_555
C21 C23 1_555 1_555
C22 C24 1_555 1_555

#END
