
#######################################################################
#
#                 Cambridge Crystallographic Data Centre
#                                CCDC 
#
#######################################################################
#
# If this CIF has been generated from an entry in the Cambridge 
# Structural Database, then it will include bibliographic, chemical, 
# crystal, experimental, refinement or atomic coordinate data resulting 
# from the CCDC's data processing and validation procedures.
#
#######################################################################

data_PUPTAX
_chemical_formula_moiety         'C19 H13 F1 O1'
_chemical_name_systematic        
1-(2-fluorophenyl)-2-methylnaphtho[2,1-b]furan
_symmetry_cell_setting           orthorhombic
_symmetry_space_group_name_H-M   'P c a 21'
_symmetry_Int_Tables_number      29
_space_group_name_Hall           'P 2c -2ac'
loop_
_symmetry_equiv_pos_site_id
_symmetry_equiv_pos_as_xyz
1 x,y,z
2 -x,-y,1/2+z
3 1/2-x,y,1/2+z
4 1/2+x,-y,z
_cell_length_a                   12.5973(4)
_cell_length_b                   7.4279(3)
_cell_length_c                   14.8924(5)
_cell_angle_alpha                90
_cell_angle_beta                 90
_cell_angle_gamma                90
_cell_volume                     1393.5
_exptl_crystal_colour            colorless
_cell_formula_units_Z            4
_chemical_properties_physical    Air-sensitive
_exptl_crystal_recrystallization_method 'ethyl acetate'
loop_
_atom_site_label
_atom_site_type_symbol
_atom_site_fract_x
_atom_site_fract_y
_atom_site_fract_z
F1 F 0.37638(18) 0.7192(3) 0.69702(18)
O1 O 0.56103(17) 0.3216(3) 0.52097(18)
C1 C 0.3156(3) 0.8042(4) 0.4901(2)
H1 H 0.2683 0.7472 0.5287
C2 C 0.4543(4) 0.9796(6) 0.3747(3)
H2 H 0.5003 1.0413 0.3367
C3 C 0.4082(2) 0.4346(4) 0.5758(2)
C4 C 0.5817(3) 0.7242(6) 0.3850(3)
H3 H 0.6265 0.7815 0.3443
C5 C 0.2882(3) 0.9649(5) 0.4514(3)
H4 H 0.2219 1.0149 0.4629
C6 C 0.4151(2) 0.7242(4) 0.4720(2)
C7 C 0.4776(3) 0.2941(5) 0.5794(2)
C8 C 0.4491(2) 0.5581(4) 0.5098(2)
C9 C 0.2311(3) 0.3249(5) 0.6319(3)
H5 H 0.2365 0.2261 0.5938
C10 C 0.2114(3) 0.6159(5) 0.7453(3)
H6 H 0.2059 0.7146 0.7834
C11 C 0.6107(3) 0.5629(6) 0.4176(2)
H7 H 0.6733 0.5073 0.3994
C12 C 0.4852(3) 0.8114(5) 0.4098(2)
C13 C 0.5429(2) 0.4825(5) 0.4801(2)
C14 C 0.3124(2) 0.4512(4) 0.6335(2)
C15 C 0.2987(3) 0.5941(4) 0.6921(2)
C16 C 0.3586(4) 1.0533(5) 0.3952(3)
H8 H 0.3401 1.1646 0.3713
C17 C 0.4829(3) 0.1265(5) 0.6321(3)
H9 H 0.4827 0.0251 0.5921
H10 H 0.4225 0.1195 0.6712
H11 H 0.5468 0.1256 0.6672
C18 C 0.1316(3) 0.4889(6) 0.7415(3)
H12 H 0.0710 0.5021 0.7766
C19 C 0.1421(3) 0.3431(5) 0.6858(3)
H13 H 0.0892 0.2558 0.6842
loop_
_geom_bond_atom_site_label_1
_geom_bond_atom_site_label_2
_geom_bond_site_symmetry_1
_geom_bond_site_symmetry_2
F1 C15 1_555 1_555
O1 C7 1_555 1_555
C1 H1 1_555 1_555
C2 H2 1_555 1_555
C3 C7 1_555 1_555
C4 H3 1_555 1_555
C5 C1 1_555 1_555
H4 C5 1_555 1_555
C6 C1 1_555 1_555
C7 C17 1_555 1_555
C8 C3 1_555 1_555
C9 H5 1_555 1_555
C10 H6 1_555 1_555
C11 C4 1_555 1_555
H7 C11 1_555 1_555
C12 C2 1_555 1_555
C13 O1 1_555 1_555
C14 C3 1_555 1_555
C15 C10 1_555 1_555
C16 C2 1_555 1_555
H8 C16 1_555 1_555
C17 H9 1_555 1_555
H10 C17 1_555 1_555
H11 C17 1_555 1_555
C18 C10 1_555 1_555
H12 C18 1_555 1_555
C19 C9 1_555 1_555
H13 C19 1_555 1_555
C4 C12 1_555 1_555
C5 C16 1_555 1_555
C6 C8 1_555 1_555
C6 C12 1_555 1_555
C8 C13 1_555 1_555
C9 C14 1_555 1_555
C11 C13 1_555 1_555
C14 C15 1_555 1_555
C18 C19 1_555 1_555

#END
