
#######################################################################
#
#                 Cambridge Crystallographic Data Centre
#                                CCDC 
#
#######################################################################
#
# If this CIF has been generated from an entry in the Cambridge 
# Structural Database, then it will include bibliographic, chemical, 
# crystal, experimental, refinement or atomic coordinate data resulting 
# from the CCDC's data processing and validation procedures.
#
#######################################################################

data_PUQFUE
_chemical_formula_moiety         'C4 H12 N1 O7 P2 1-,2(H2 O1),K1 1+'
_chemical_name_systematic        
'Potassium (4-ammonio-1-hydroxybutane-1,1-diyl)bis(hydrogen phosphonate) dihydrate'
_symmetry_cell_setting           monoclinic
_symmetry_space_group_name_H-M   'C 2/c'
_symmetry_Int_Tables_number      15
_space_group_name_Hall           '-C 2yn'
loop_
_symmetry_equiv_pos_site_id
_symmetry_equiv_pos_as_xyz
1 x,y,z
2 -x,y,1/2-z
3 1/2+x,1/2+y,z
4 1/2-x,1/2+y,1/2-z
5 -x,-y,-z
6 x,-y,1/2+z
7 1/2-x,1/2-y,-z
8 1/2+x,1/2-y,1/2+z
_cell_length_a                   27.8909(11)
_cell_length_b                   6.9592(2)
_cell_length_c                   24.6418(9)
_cell_angle_alpha                90
_cell_angle_beta                 90.691(4)
_cell_angle_gamma                90
_cell_volume                     4782.58
_exptl_crystal_colour            colorless
_exptl_crystal_description       prism
_cell_formula_units_Z            16
loop_
_atom_site_label
_atom_site_type_symbol
_atom_site_fract_x
_atom_site_fract_y
_atom_site_fract_z
P1 P 0.17767(7) 0.2033(3) 0.32822(9)
P2 P 0.20728(8) 0.0949(3) 0.44411(9)
O1 O 0.1738(2) 0.1030(9) 0.2735(2)
H1 H 0.110(3) 0.275(4) 0.348(4)
O2 O 0.1289(2) 0.1869(8) 0.3583(2)
O3 O 0.1931(2) 0.4112(8) 0.3265(2)
O4 O 0.1629(2) -0.0204(9) 0.4567(2)
O5 O 0.2021(2) 0.3121(9) 0.4555(2)
O6 O 0.2516(2) 0.0119(9) 0.4743(2)
H2 H 0.263(4) 0.055(16) 0.504(3)
O7 O 0.2119(2) -0.1344(8) 0.3601(2)
H3 H 0.235(2) -0.165(12) 0.341(4)
N1 N 0.3491(3) 0.2047(11) 0.2358(3)
H4 H 0.3814(10) 0.199(16) 0.230(4)
H5 H 0.341(4) 0.324(7) 0.224(4)
H6 H 0.341(4) 0.126(13) 0.208(3)
C1 C 0.2202(3) 0.0655(12) 0.3718(3)
C2 C 0.2727(3) 0.1237(12) 0.3606(3)
H7 H 0.2784 0.2527 0.3764
H8 H 0.2941 0.0325 0.3799
C3 C 0.2868(3) 0.1289(12) 0.3013(3)
H9 H 0.2792 0.0033 0.2844
H10 H 0.2676 0.2283 0.2823
C4 C 0.3391(3) 0.1715(13) 0.2939(3)
H11 H 0.3481 0.2868 0.3152
H12 H 0.3585 0.0620 0.3074
K1 K 0.34859(6) 0.1191(3) 0.08407(7)
O8 O 0.3376(3) 0.2052(10) -0.0363(3)
H13 H 0.336(4) 0.317(2) -0.0233(6)
H14 H 0.3091(14) 0.173(15) -0.044(5)
P3 P 0.03696(7) 0.8680(3) 0.32348(8)
P4 P 0.03389(7) 0.4844(3) 0.38189(9)
O9 O 0.0769(2) 0.8846(8) 0.3687(2)
H15 H 0.091(3) 0.990(8) 0.365(4)
O10 O 0.0571(2) 0.8085(8) 0.2700(2)
O11 O 0.0086(2) 1.0558(8) 0.3187(2)
O12 O 0.0554(2) 0.5304(8) 0.4357(2)
O13 O 0.0714(2) 0.4415(9) 0.3379(2)
O14 O 0.0001(2) 0.3085(8) 0.3878(2)
H16 H 0.006(4) 0.226(12) 0.364(3)
O15 O -0.0298(2) 0.5878(9) 0.3102(2)
H17 H -0.038(4) 0.656(14) 0.284(3)
N2 N -0.0842(3) 0.8251(11) 0.5072(3)
H18 H -0.110(2) 0.860(16) 0.527(4)
H19 H -0.072(4) 0.723(10) 0.526(4)
H20 H -0.061(3) 0.911(13) 0.500(4)
C5 C -0.0023(3) 0.6783(12) 0.3521(3)
C6 C -0.0354(3) 0.7774(12) 0.3937(3)
H21 H -0.0151 0.8420 0.4215
H22 H -0.0544 0.8777 0.3748
C7 C -0.0698(3) 0.6396(13) 0.4223(4)
H23 H -0.0869 0.5615 0.3946
H24 H -0.0511 0.5511 0.4457
C8 C -0.1062(3) 0.7456(13) 0.4565(4)
H25 H -0.1204 0.8520 0.4350
H26 H -0.1324 0.6564 0.4662
K2 K -0.06930(8) 0.2195(4) 0.27074(9)
O16 O -0.1287(3) 0.1900(14) 0.3582(3)
H27 H -0.1554(18) 0.15(2) 0.3466(13)
H28 H -0.128(3) 0.18(2) 0.3923(10)
O17 O 0.2228(2) 0.1193(9) 0.1803(3)
H29 H 0.211(3) 0.147(16) 0.2106(19)
H30 H 0.246(2) 0.041(9) 0.184(4)
O18 O 0.0366(2) 0.8252(9) 0.5115(3)
H31 H 0.032(4) 0.734(10) 0.490(3)
H32 H 0.040(4) 0.785(14) 0.5434(16)
loop_
_geom_bond_atom_site_label_1
_geom_bond_atom_site_label_2
_geom_bond_site_symmetry_1
_geom_bond_site_symmetry_2
P1 O1 1_555 1_555
P2 O4 1_555 1_555
H1 O2 1_555 1_555
O2 P1 1_555 1_555
O3 P1 1_555 1_555
O5 P2 1_555 1_555
O6 P2 1_555 1_555
H2 O6 1_555 1_555
O7 H3 1_555 1_555
N1 H4 1_555 1_555
H5 N1 1_555 1_555
H6 N1 1_555 1_555
C1 P1 1_555 1_555
C2 C1 1_555 1_555
H7 C2 1_555 1_555
H8 C2 1_555 1_555
C3 C2 1_555 1_555
H9 C3 1_555 1_555
H10 C3 1_555 1_555
C4 N1 1_555 1_555
H11 C4 1_555 1_555
H12 C4 1_555 1_555
O8 H13 1_555 1_555
H14 O8 1_555 1_555
P3 O9 1_555 1_555
P4 O12 1_555 1_555
O9 H15 1_555 1_555
O10 P3 1_555 1_555
O11 P3 1_555 1_555
O13 P4 1_555 1_555
O14 P4 1_555 1_555
H16 O14 1_555 1_555
O15 H17 1_555 1_555
N2 H18 1_555 1_555
H19 N2 1_555 1_555
H20 N2 1_555 1_555
C5 P3 1_555 1_555
C6 C5 1_555 1_555
H21 C6 1_555 1_555
H22 C6 1_555 1_555
C7 C6 1_555 1_555
H23 C7 1_555 1_555
H24 C7 1_555 1_555
C8 N2 1_555 1_555
H25 C8 1_555 1_555
H26 C8 1_555 1_555
O16 H27 1_555 1_555
H28 O16 1_555 1_555
O17 H29 1_555 1_555
H30 O17 1_555 1_555
O18 H31 1_555 1_555
H32 O18 1_555 1_555
P2 C1 1_555 1_555
O7 C1 1_555 1_555
C3 C4 1_555 1_555
P4 C5 1_555 1_555
O15 C5 1_555 1_555
C7 C8 1_555 1_555

#END
