
#######################################################################
#
#                 Cambridge Crystallographic Data Centre
#                                CCDC 
#
#######################################################################
#
# If this CIF has been generated from an entry in the Cambridge 
# Structural Database, then it will include bibliographic, chemical, 
# crystal, experimental, refinement or atomic coordinate data resulting 
# from the CCDC's data processing and validation procedures.
#
#######################################################################

data_PUQFOY
_chemical_formula_moiety         'C4 H12 N1 O7 P2 1-,1.5(H2 O1),K1 1+'
_chemical_name_systematic        
'Potassium (4-ammonio-1-hydroxybutane-1,1-diyl)bis(hydrogen phosphonate) sesquihydrate'
_symmetry_cell_setting           monoclinic
_symmetry_space_group_name_H-M   'P 21/c'
_symmetry_Int_Tables_number      14
_space_group_name_Hall           '-P 2ybc'
loop_
_symmetry_equiv_pos_site_id
_symmetry_equiv_pos_as_xyz
1 x,y,z
2 -x,1/2+y,1/2-z
3 -x,-y,-z
4 x,1/2-y,1/2+z
_cell_length_a                   19.1719(11)
_cell_length_b                   9.1264(5)
_cell_length_c                   13.2028(8)
_cell_angle_alpha                90
_cell_angle_beta                 105.516(6)
_cell_angle_gamma                90
_cell_volume                     2225.91
_exptl_crystal_colour            colorless
_exptl_crystal_description       plate
_cell_formula_units_Z            8
loop_
_atom_site_label
_atom_site_type_symbol
_atom_site_fract_x
_atom_site_fract_y
_atom_site_fract_z
K1 K 0.00184(3) 0.75485(5) 0.44320(4)
P1 P 0.07497(3) 1.10233(6) 0.35448(4)
P2 P 0.09587(3) 0.93886(6) 0.16481(4)
O1 O 0.01323(8) 1.01971(16) 0.37614(12)
O2 O 0.12447(8) 1.15361(17) 0.46555(12)
H1 H 0.1502(12) 1.2236(17) 0.459(2)
O3 O 0.05609(8) 1.23238(16) 0.28178(12)
O4 O 0.01080(8) 0.93614(16) 0.14505(12)
H2 H -0.0090(13) 0.868(2) 0.1690(19)
O5 O 0.12218(8) 0.79310(16) 0.13727(11)
O6 O 0.11316(8) 1.06995(16) 0.10786(12)
O7 O 0.13265(8) 0.83340(16) 0.35808(11)
H3 H 0.1651(10) 0.834(3) 0.4149(12)
N1 N 0.38840(10) 0.8876(2) 0.28308(15)
H4 H 0.4351(6) 0.912(3) 0.3132(18)
H5 H 0.3762(13) 0.901(3) 0.2127(8)
H6 H 0.3819(13) 0.7928(13) 0.299(2)
C1 C 0.13380(11) 0.9725(2) 0.30669(16)
C2 C 0.21146(11) 1.0334(2) 0.33013(17)
H7 H 0.2096 1.1332 0.3000
H8 H 0.2314 1.0419 0.4072
C3 C 0.26291(11) 0.9394(2) 0.28631(17)
H9 H 0.2574 0.8354 0.3041
H10 H 0.2492 0.9479 0.2087
C4 C 0.34155(11) 0.9836(2) 0.32893(17)
H11 H 0.3478 1.0872 0.3108
H12 H 0.3560 0.9745 0.4065
K2 K 0.47150(2) 0.79635(5) 0.56632(4)
P3 P 0.41542(3) 1.17140(6) 0.63656(4)
P4 P 0.41229(3) 1.02238(6) 0.84165(4)
O8 O 0.47090(8) 1.08767(16) 0.59818(11)
O9 O 0.35386(8) 1.22974(19) 0.54018(13)
H13 H 0.3711(14) 1.259(3) 0.4922(16)
O10 O 0.44451(9) 1.29751(16) 0.71030(13)
O11 O 0.49509(8) 1.01688(16) 0.84607(12)
H14 H 0.5123(13) 0.9405(18) 0.8266(19)
O12 O 0.40056(8) 1.16027(16) 0.89702(11)
O13 O 0.38833(8) 0.88142(16) 0.88231(11)
O14 O 0.36280(8) 0.90379(15) 0.65023(12)
H15 H 0.3195(6) 0.878(3) 0.6281(18)
N2 N 0.11916(10) 0.9642(2) 0.76124(15)
H16 H 0.0722(6) 0.977(3) 0.7253(17)
H17 H 0.1292(13) 0.996(3) 0.8282(10)
H18 H 0.1288(13) 0.8672(12) 0.761(2)
C5 C 0.36447(11) 1.0456(2) 0.70093(16)
C6 C 0.28706(11) 1.1031(2) 0.68691(17)
H19 H 0.2612 1.1002 0.6112
H20 H 0.2898 1.2068 0.7095
C7 C 0.24250(11) 1.0178(2) 0.74809(17)
H21 H 0.2564 1.0494 0.8225
H22 H 0.2530 0.9118 0.7459
C8 C 0.16232(11) 1.0439(2) 0.70122(17)
H23 H 0.1483 1.0105 0.6272
H24 H 0.1520 1.1501 0.7021
O15 O 0.33181(9) 0.54771(18) 0.54852(13)
H25 H 0.3451(14) 0.4613(15) 0.566(2)
H26 H 0.3499(14) 0.568(3) 0.4991(16)
O16 O 0.81764(9) 0.58169(19) 0.53171(13)
H27 H 0.8383(13) 0.555(2) 0.4855(17)
H28 H 0.7735(6) 0.564(3) 0.507(2)
O17 O 0.22910(8) 0.72255(17) 0.05182(12)
H29 H 0.1967(11) 0.745(3) 0.0807(19)
H30 H 0.2500(12) 0.7999(17) 0.043(2)
loop_
_geom_bond_atom_site_label_1
_geom_bond_atom_site_label_2
_geom_bond_site_symmetry_1
_geom_bond_site_symmetry_2
P1 O1 1_555 1_555
P2 O4 1_555 1_555
O2 P1 1_555 1_555
H1 O2 1_555 1_555
O3 P1 1_555 1_555
O4 H2 1_555 1_555
O5 P2 1_555 1_555
O6 P2 1_555 1_555
O7 H3 1_555 1_555
N1 H4 1_555 1_555
H5 N1 1_555 1_555
H6 N1 1_555 1_555
C1 P1 1_555 1_555
C2 C1 1_555 1_555
H7 C2 1_555 1_555
H8 C2 1_555 1_555
C3 C2 1_555 1_555
H9 C3 1_555 1_555
H10 C3 1_555 1_555
C4 N1 1_555 1_555
H11 C4 1_555 1_555
H12 C4 1_555 1_555
P3 O8 1_555 1_555
P4 O11 1_555 1_555
O9 P3 1_555 1_555
H13 O9 1_555 1_555
O10 P3 1_555 1_555
O11 H14 1_555 1_555
O12 P4 1_555 1_555
O13 P4 1_555 1_555
O14 H15 1_555 1_555
N2 H16 1_555 1_555
H17 N2 1_555 1_555
H18 N2 1_555 1_555
C5 P3 1_555 1_555
C6 C5 1_555 1_555
H19 C6 1_555 1_555
H20 C6 1_555 1_555
C7 C6 1_555 1_555
H21 C7 1_555 1_555
H22 C7 1_555 1_555
C8 N2 1_555 1_555
H23 C8 1_555 1_555
H24 C8 1_555 1_555
O15 H25 1_555 1_555
H26 O15 1_555 1_555
O16 H27 1_555 1_555
H28 O16 1_555 1_555
O17 H29 1_555 1_555
H30 O17 1_555 1_555
P2 C1 1_555 1_555
O7 C1 1_555 1_555
C3 C4 1_555 1_555
P4 C5 1_555 1_555
O14 C5 1_555 1_555
C7 C8 1_555 1_555

#END
