
#######################################################################
#
#                 Cambridge Crystallographic Data Centre
#                                CCDC 
#
#######################################################################
#
# If this CIF has been generated from an entry in the Cambridge 
# Structural Database, then it will include bibliographic, chemical, 
# crystal, experimental, refinement or atomic coordinate data resulting 
# from the CCDC's data processing and validation procedures.
#
#######################################################################

data_PUQYOQ
_chemical_formula_moiety         'C13 H13 N3 O1 S1'
_chemical_name_systematic        
1-(3-(methylsulfanyl)phenyl)-3-(pyridin-2-yl)urea
_symmetry_cell_setting           monoclinic
_symmetry_space_group_name_H-M   'C 2/c'
_symmetry_Int_Tables_number      15
_space_group_name_Hall           '-C 2yn'
loop_
_symmetry_equiv_pos_site_id
_symmetry_equiv_pos_as_xyz
1 x,y,z
2 -x,y,1/2-z
3 1/2+x,1/2+y,z
4 1/2-x,1/2+y,1/2-z
5 -x,-y,-z
6 x,-y,1/2+z
7 1/2-x,1/2-y,-z
8 1/2+x,1/2-y,1/2+z
_cell_length_a                   26.8102(7)
_cell_length_b                   5.4333(2)
_cell_length_c                   17.7090(5)
_cell_angle_alpha                90
_cell_angle_beta                 107.09(2)
_cell_angle_gamma                90
_cell_volume                     2465.73
_exptl_crystal_colour            colorless
_exptl_crystal_description       needle
_chemical_melting_point          '138-141 deg.C'
_cell_formula_units_Z            8
loop_
_atom_site_label
_atom_site_type_symbol
_atom_site_fract_x
_atom_site_fract_y
_atom_site_fract_z
S1 S 0.214523(14) 0.18856(8) 0.17709(2)
O1 O 0.04496(4) -0.2684(2) 0.04480(7)
N1 N 0.01510(5) -0.0022(3) 0.12243(8)
N2 N -0.03838(5) -0.3041(3) 0.04726(8)
N3 N -0.08701(5) -0.0545(3) 0.10852(8)
C1 C 0.20826(7) -0.0884(3) 0.11927(10)
C2 C 0.15072(6) 0.2426(3) 0.18294(9)
C3 C 0.10890(6) 0.0886(3) 0.14768(9)
C4 C 0.05945(6) 0.1447(3) 0.15444(8)
C5 C 0.05244(6) 0.3531(3) 0.19604(9)
C6 C 0.09443(6) 0.5039(3) 0.23098(9)
C7 C 0.14394(6) 0.4510(3) 0.22512(9)
C8 C 0.01005(6) -0.1913(3) 0.07104(9)
C9 C -0.08494(6) -0.2477(3) 0.06316(9)
C10 C -0.12815(6) -0.4007(3) 0.02961(9)
C11 C -0.17449(6) -0.3480(3) 0.04497(10)
C12 C -0.17719(6) -0.1465(3) 0.09255(10)
C13 C -0.13298(6) -0.0066(3) 0.12269(9)
H1 H -0.0137(8) 0.041(4) 0.1333(11)
H2 H -0.0406(8) -0.429(5) 0.0164(13)
H3 H 0.1860(8) -0.060(4) 0.0679(12)
H4 H 0.1961(9) -0.231(4) 0.1426(13)
H5 H 0.2445(9) -0.128(4) 0.1173(13)
H6 H 0.1136(8) -0.055(4) 0.1195(12)
H7 H 0.0189(7) 0.390(4) 0.1969(11)
H8 H 0.0895(7) 0.645(4) 0.2584(11)
H9 H 0.1726(7) 0.559(4) 0.2498(11)
H10 H -0.1242(8) -0.534(4) -0.0034(12)
H11 H -0.2044(9) -0.450(4) 0.0218(13)
H12 H -0.2087(9) -0.109(4) 0.1042(13)
H13 H -0.1333(8) 0.137(4) 0.1570(12)
loop_
_geom_bond_atom_site_label_1
_geom_bond_atom_site_label_2
_geom_bond_site_symmetry_1
_geom_bond_site_symmetry_2
S1 C1 1_555 1_555
O1 C8 1_555 1_555
N1 C4 1_555 1_555
N2 C8 1_555 1_555
N3 C9 1_555 1_555
C1 H3 1_555 1_555
C2 S1 1_555 1_555
C3 C2 1_555 1_555
C4 C3 1_555 1_555
C5 C4 1_555 1_555
C6 C5 1_555 1_555
C7 C2 1_555 1_555
C8 N1 1_555 1_555
C9 N2 1_555 1_555
C10 C9 1_555 1_555
C11 C10 1_555 1_555
C12 C11 1_555 1_555
C13 N3 1_555 1_555
H1 N1 1_555 1_555
H2 N2 1_555 1_555
H4 C1 1_555 1_555
H5 C1 1_555 1_555
H6 C3 1_555 1_555
H7 C5 1_555 1_555
H8 C6 1_555 1_555
H9 C7 1_555 1_555
H10 C10 1_555 1_555
H11 C11 1_555 1_555
H12 C12 1_555 1_555
H13 C13 1_555 1_555
C6 C7 1_555 1_555
C12 C13 1_555 1_555

#END
