
#######################################################################
#
#                 Cambridge Crystallographic Data Centre
#                                CCDC 
#
#######################################################################
#
# If this CIF has been generated from an entry in the Cambridge 
# Structural Database, then it will include bibliographic, chemical, 
# crystal, experimental, refinement or atomic coordinate data resulting 
# from the CCDC's data processing and validation procedures.
#
#######################################################################

data_PURDEN
_chemical_formula_moiety         'C19 H18 Cl1 N3 O2'
_chemical_name_systematic        
7-chloro-4-((3,4-dimethoxybenzylidene)hydrazono)-1-methyl-1,4-dihydroquinoline
_symmetry_cell_setting           monoclinic
_symmetry_space_group_name_H-M   'P 21/c'
_symmetry_Int_Tables_number      14
_space_group_name_Hall           '-P 2ybc'
loop_
_symmetry_equiv_pos_site_id
_symmetry_equiv_pos_as_xyz
1 x,y,z
2 -x,1/2+y,1/2-z
3 -x,-y,-z
4 x,1/2-y,1/2+z
_cell_length_a                   10.1447(4)
_cell_length_b                   16.6565(5)
_cell_length_c                   10.9318(7)
_cell_angle_alpha                90
_cell_angle_beta                 110.688(8)
_cell_angle_gamma                90
_cell_volume                     1728.09
_exptl_crystal_colour            yellow
_exptl_crystal_description       Block
_cell_formula_units_Z            4
loop_
_atom_site_label
_atom_site_type_symbol
_atom_site_fract_x
_atom_site_fract_y
_atom_site_fract_z
Cl1 Cl 0.14222(4) 0.84753(3) 0.16250(5)
O1 O 1.24993(12) 1.26132(7) 0.19748(11)
O2 O 1.49049(11) 1.20594(7) 0.34745(11)
N1 N 0.87625(14) 1.06874(8) 0.25631(14)
N2 N 0.36294(14) 1.09851(8) 0.04323(13)
N3 N 0.76681(14) 1.01859(8) 0.25946(13)
C1 C 1.37633(16) 1.16234(9) 0.34690(15)
C2 C 1.12709(17) 1.08350(10) 0.33166(15)
C3 C 1.12165(16) 1.15370(9) 0.25791(15)
H1 H 1.0350 1.1737 0.2040
C4 C 1.24416(17) 1.19284(9) 0.26537(15)
C5 C 0.28725(17) 0.90561(11) 0.16731(16)
C6 C 0.53530(16) 0.92338(10) 0.24238(15)
H2 H 0.6257 0.9049 0.2888
C7 C 0.51912(16) 0.99833(10) 0.18075(14)
C8 C 0.99813(17) 1.04135(10) 0.32460(16)
H3 H 1.0047 0.9937 0.3706
C9 C 1.38151(16) 1.09368(10) 0.41940(15)
H4 H 1.4680 1.0736 0.4736
C10 C 0.61179(17) 1.12148(10) 0.11775(16)
H5 H 0.6854 1.1551 0.1187
C11 C 0.42179(17) 0.87622(10) 0.23642(15)
H6 H 0.4344 0.8263 0.2772
C12 C 1.62632(17) 1.17868(11) 0.43095(17)
H7 H 1.6308 1.1794 0.5201
H8 H 1.6977 1.2134 0.4217
H9 H 1.6416 1.1250 0.4070
C13 C 0.64224(16) 1.04715(10) 0.18879(15)
C14 C 1.11854(18) 1.29741(10) 0.12112(17)
H10 H 1.0660 1.2610 0.0534
H11 H 1.1360 1.3462 0.0825
H12 H 1.0655 1.3093 0.1763
C15 C 0.47809(18) 1.14311(10) 0.04976(16)
H13 H 0.4632 1.1915 0.0044
C16 C 1.25729(17) 1.05434(10) 0.41151(16)
H14 H 1.2618 1.0080 0.4603
C17 C 0.38148(16) 1.02532(10) 0.10829(15)
C18 C 0.26461(17) 0.97812(11) 0.10248(15)
H15 H 0.1736 0.9955 0.0557
C19 C 0.22243(18) 1.12542(11) -0.03887(17)
H16 H 0.2282 1.1786 -0.0704
H17 H 0.1618 1.1257 0.0115
H18 H 0.1850 1.0896 -0.1117
loop_
_geom_bond_atom_site_label_1
_geom_bond_atom_site_label_2
_geom_bond_site_symmetry_1
_geom_bond_site_symmetry_2
Cl1 C5 1_555 1_555
O1 C4 1_555 1_555
O2 C1 1_555 1_555
N1 N3 1_555 1_555
N2 C15 1_555 1_555
N3 C13 1_555 1_555
C1 C4 1_555 1_555
C2 C3 1_555 1_555
C3 H1 1_555 1_555
C4 C3 1_555 1_555
C5 C11 1_555 1_555
C6 H2 1_555 1_555
C7 C6 1_555 1_555
C8 N1 1_555 1_555
H3 C8 1_555 1_555
C9 C1 1_555 1_555
H4 C9 1_555 1_555
C10 H5 1_555 1_555
C11 C6 1_555 1_555
H6 C11 1_555 1_555
C12 O2 1_555 1_555
H7 C12 1_555 1_555
H8 C12 1_555 1_555
H9 C12 1_555 1_555
C13 C7 1_555 1_555
C14 O1 1_555 1_555
H10 C14 1_555 1_555
H11 C14 1_555 1_555
H12 C14 1_555 1_555
C15 C10 1_555 1_555
H13 C15 1_555 1_555
C16 C2 1_555 1_555
H14 C16 1_555 1_555
C17 N2 1_555 1_555
C18 C5 1_555 1_555
H15 C18 1_555 1_555
C19 N2 1_555 1_555
H16 C19 1_555 1_555
H17 C19 1_555 1_555
H18 C19 1_555 1_555
C2 C8 1_555 1_555
C7 C17 1_555 1_555
C9 C16 1_555 1_555
C10 C13 1_555 1_555
C17 C18 1_555 1_555

#END
