
#######################################################################
#
#                 Cambridge Crystallographic Data Centre
#                                CCDC 
#
#######################################################################
#
# If this CIF has been generated from an entry in the Cambridge 
# Structural Database, then it will include bibliographic, chemical, 
# crystal, experimental, refinement or atomic coordinate data resulting 
# from the CCDC's data processing and validation procedures.
#
#######################################################################

data_PURKEU
_chemical_formula_moiety         'C12 H9 Cl1 N2'
_chemical_name_systematic        7-Chloro-4-methylpyrrolo[1,2-a]quinoxaline
_symmetry_cell_setting           monoclinic
_symmetry_space_group_name_H-M   'P 21/c'
_symmetry_Int_Tables_number      14
_space_group_name_Hall           '-P 2ybc'
loop_
_symmetry_equiv_pos_site_id
_symmetry_equiv_pos_as_xyz
1 x,y,z
2 -x,1/2+y,1/2-z
3 -x,-y,-z
4 x,1/2-y,1/2+z
_cell_length_a                   4.0706(4)
_cell_length_b                   18.1822(13)
_cell_length_c                   13.7386(8)
_cell_angle_alpha                90
_cell_angle_beta                 94.167(6)
_cell_angle_gamma                90
_cell_volume                     1014.14
_cell_formula_units_Z            4
loop_
_atom_site_label
_atom_site_type_symbol
_atom_site_fract_x
_atom_site_fract_y
_atom_site_fract_z
Cl1 Cl 0.2452(2) 0.54782(5) 0.63116(7)
N1 N 0.8266(6) 0.79343(13) 0.68533(15)
N2 N 0.9462(6) 0.80429(13) 0.48745(15)
C1 C 0.5470(7) 0.67956(17) 0.65104(19)
H1 H 0.5059 0.6761 0.7166
C2 C 0.4408(7) 0.62515(17) 0.5871(2)
C3 C 0.4896(8) 0.62925(17) 0.4885(2)
H2 H 0.4131 0.5921 0.4461
C4 C 0.6519(8) 0.68874(18) 0.4542(2)
H3 H 0.6832 0.6923 0.3880
C5 C 0.7708(7) 0.74395(16) 0.51758(18)
C6 C 0.7161(6) 0.73987(16) 0.61765(17)
C7 C 0.9882(7) 0.84913(16) 0.6538(2)
C8 C 1.0551(7) 0.85861(17) 0.55399(19)
C9 C 1.2163(8) 0.91128(19) 0.5041(2)
H4 H 1.3145 0.9538 0.5301
C10 C 1.2044(9) 0.8886(2) 0.4064(2)
H5 H 1.2942 0.9139 0.3558
C11 C 1.0399(8) 0.8234(2) 0.3976(2)
H6 H 0.9986 0.7967 0.3403
C12 C 1.1127(9) 0.9071(2) 0.7256(2)
H7 H 1.0230 0.8986 0.7873
H8 H 1.0458 0.9548 0.7016
H9 H 1.3488 0.9050 0.7337
loop_
_geom_bond_atom_site_label_1
_geom_bond_atom_site_label_2
_geom_bond_site_symmetry_1
_geom_bond_site_symmetry_2
Cl1 C2 1_555 1_555
N1 C6 1_555 1_555
N2 C5 1_555 1_555
C1 H1 1_555 1_555
C2 C1 1_555 1_555
C3 C2 1_555 1_555
H2 C3 1_555 1_555
C4 C3 1_555 1_555
H3 C4 1_555 1_555
C5 C4 1_555 1_555
C6 C1 1_555 1_555
C7 N1 1_555 1_555
C8 N2 1_555 1_555
C9 C8 1_555 1_555
H4 C9 1_555 1_555
C10 C9 1_555 1_555
H5 C10 1_555 1_555
C11 N2 1_555 1_555
H6 C11 1_555 1_555
C12 C7 1_555 1_555
H7 C12 1_555 1_555
H8 C12 1_555 1_555
H9 C12 1_555 1_555
C5 C6 1_555 1_555
C7 C8 1_555 1_555
C10 C11 1_555 1_555

#END
