
#######################################################################
#
#                 Cambridge Crystallographic Data Centre
#                                CCDC 
#
#######################################################################
#
# If this CIF has been generated from an entry in the Cambridge 
# Structural Database, then it will include bibliographic, chemical, 
# crystal, experimental, refinement or atomic coordinate data resulting 
# from the CCDC's data processing and validation procedures.
#
#######################################################################

data_PURQUQ
_chemical_formula_moiety         'C12 H8 I1 N3'
_chemical_name_systematic        6-Iodo-2-phenyl[1,2,4]triazolo[1,5-a]pyridine
_symmetry_cell_setting           monoclinic
_symmetry_space_group_name_H-M   'P 21/n'
_symmetry_Int_Tables_number      14
_space_group_name_Hall           '-P 2yn'
loop_
_symmetry_equiv_pos_site_id
_symmetry_equiv_pos_as_xyz
1 x,y,z
2 1/2-x,1/2+y,1/2-z
3 -x,-y,-z
4 1/2+x,1/2-y,1/2+z
_cell_length_a                   5.7556(12)
_cell_length_b                   9.6236(19)
_cell_length_c                   20.198(4)
_cell_angle_alpha                90
_cell_angle_beta                 92.65(3)
_cell_angle_gamma                90
_cell_volume                     1117.56
_exptl_crystal_colour            colorless
_exptl_crystal_description       block
_cell_formula_units_Z            4
loop_
_atom_site_label
_atom_site_type_symbol
_atom_site_fract_x
_atom_site_fract_y
_atom_site_fract_z
I1 I -0.23537(11) 0.47352(6) 1.10311(3)
N1 N -0.0445(10) 0.1901(6) 0.9522(3)
N2 N -0.1112(10) 0.1388(6) 0.8918(3)
N3 N 0.2336(10) 0.0432(7) 0.9274(3)
C1 C 0.2641(13) 0.1736(9) 1.0347(4)
H1 H 0.4042 0.1353 1.0506
C2 C 0.1549(14) 0.2694(9) 1.0714(4)
H2 H 0.2195 0.2977 1.1122
C3 C -0.0634(14) 0.3270(8) 1.0460(4)
C4 C -0.1606(13) 0.2865(8) 0.9875(3)
H3 H -0.3020 0.3229 0.9715
C5 C 0.1674(11) 0.1322(8) 0.9733(4)
C6 C 0.0619(12) 0.0513(8) 0.8800(4)
C7 C 0.0609(12) -0.0363(7) 0.8190(4)
C8 C -0.1378(15) -0.0372(8) 0.7761(4)
H4 H -0.2647 0.0192 0.7842
C9 C -0.1404(13) -0.1247(10) 0.7212(4)
H5 H -0.2692 -0.1253 0.6917
C10 C 0.0473(15) -0.2113(9) 0.7100(4)
H6 H 0.0411 -0.2727 0.6743
C11 C 0.2418(14) -0.2055(9) 0.7519(4)
H7 H 0.3711 -0.2594 0.7434
C12 C 0.2456(13) -0.1199(9) 0.8066(4)
H8 H 0.3761 -0.1190 0.8355
loop_
_geom_bond_atom_site_label_1
_geom_bond_atom_site_label_2
_geom_bond_site_symmetry_1
_geom_bond_site_symmetry_2
I1 C3 1_555 1_555
N1 N2 1_555 1_555
N2 C6 1_555 1_555
N3 C5 1_555 1_555
C1 H1 1_555 1_555
C2 C1 1_555 1_555
H2 C2 1_555 1_555
C3 C2 1_555 1_555
C4 N1 1_555 1_555
H3 C4 1_555 1_555
C5 N1 1_555 1_555
C6 N3 1_555 1_555
C7 C6 1_555 1_555
C8 C7 1_555 1_555
H4 C8 1_555 1_555
C9 C8 1_555 1_555
H5 C9 1_555 1_555
C10 C9 1_555 1_555
H6 C10 1_555 1_555
C11 C10 1_555 1_555
H7 C11 1_555 1_555
C12 C7 1_555 1_555
H8 C12 1_555 1_555
C1 C5 1_555 1_555
C3 C4 1_555 1_555
C11 C12 1_555 1_555

#END
