
#######################################################################
#
#                 Cambridge Crystallographic Data Centre
#                                CCDC 
#
#######################################################################
#
# If this CIF has been generated from an entry in the Cambridge 
# Structural Database, then it will include bibliographic, chemical, 
# crystal, experimental, refinement or atomic coordinate data resulting 
# from the CCDC's data processing and validation procedures.
#
#######################################################################

data_PURTON
_chemical_formula_moiety         'C25 H22 N4 O3,0.5(C2 H6 O1)'
_chemical_name_systematic        
"2-hydroxy-4-methyl-N'-((3-methyl-5-oxo-1-phenyl-1,5-dihydro-4H-pyrazol-4-ylidene)(phenyl)methyl)benzohydrazide ethanol solvate"
_symmetry_cell_setting           triclinic
_symmetry_space_group_name_H-M   'P -1'
_symmetry_Int_Tables_number      2
_space_group_name_Hall           '-P 1'
loop_
_symmetry_equiv_pos_site_id
_symmetry_equiv_pos_as_xyz
1 x,y,z
2 -x,-y,-z
_cell_length_a                   7.4913(3)
_cell_length_b                   10.8299(5)
_cell_length_c                   13.9985(5)
_cell_angle_alpha                97.179(3)
_cell_angle_beta                 90.156(3)
_cell_angle_gamma                92.455(3)
_cell_volume                     1125.72
_exptl_crystal_colour            yellow
_exptl_crystal_description       block
_cell_formula_units_Z            2
loop_
_atom_site_label
_atom_site_type_symbol
_atom_site_fract_x
_atom_site_fract_y
_atom_site_fract_z
O1 O 0.40595(18) 0.09281(15) 0.14147(10)
O2 O 0.98283(18) 0.14616(14) 0.00732(10)
O3 O 0.99932(19) 0.36086(16) -0.06068(13)
H1 H 1.0383 0.3005 -0.0388
N1 N 0.3832(2) 0.15869(17) 0.30546(12)
N2 N 0.4750(2) 0.14538(18) 0.39047(12)
N3 N 0.7996(2) 0.00643(17) 0.11952(12)
H2 H 0.8786 -0.0389 0.0898
N4 N 0.7197(2) 0.09212(17) 0.07126(12)
H3 H 0.6072 0.1032 0.0775
C1 C -0.0879(3) 0.3530(3) 0.3264(2)
H4 H -0.1920 0.3970 0.3316
C2 C -0.0138(3) 0.3197(2) 0.23865(18)
H5 H -0.0692 0.3406 0.1837
C3 C 0.1406(3) 0.2560(2) 0.22984(17)
H6 H 0.1896 0.2343 0.1694
C4 C 0.2234(3) 0.2240(2) 0.31110(15)
C5 C 0.1480(3) 0.2562(3) 0.40008(17)
H7 H 0.2014 0.2344 0.4553
C6 C -0.0067(4) 0.3207(3) 0.4067(2)
H8 H -0.0568 0.3427 0.4668
C7 C 0.4676(3) 0.1012(2) 0.22629(15)
C8 C 0.6234(3) 0.0500(2) 0.26306(14)
C9 C 0.6133(3) 0.0794(2) 0.36593(15)
C10 C 0.7369(3) 0.0519(3) 0.44370(16)
H9 H 0.7182 0.1085 0.5009
H10 H 0.8583 0.0616 0.4231
H11 H 0.7136 -0.0321 0.4571
C11 C 0.7617(3) -0.0103(2) 0.20974(14)
C12 C 0.8771(3) -0.0974(2) 0.25015(14)
C13 C 0.8026(3) -0.1936(2) 0.29643(16)
H12 H 0.6794 -0.2014 0.3036
C14 C 0.9114(4) -0.2776(2) 0.33171(17)
H13 H 0.8613 -0.3423 0.3620
C15 C 1.0941(4) -0.2655(3) 0.32207(17)
H14 H 1.1671 -0.3218 0.3462
C16 C 1.1688(3) -0.1703(3) 0.27684(17)
H15 H 1.2923 -0.1621 0.2710
C17 C 1.0619(3) -0.0874(2) 0.24017(15)
H16 H 1.1131 -0.0242 0.2085
C18 C 0.8180(3) 0.1585(2) 0.01426(14)
C19 C 0.7229(3) 0.2482(2) -0.03449(14)
C20 C 0.8192(3) 0.3474(2) -0.06836(15)
C21 C 0.7311(3) 0.4366(2) -0.11060(17)
H17 H 0.7966 0.5034 -0.1307
C22 C 0.5485(3) 0.4286(2) -0.12354(15)
C23 C 0.4527(3) 0.3285(3) -0.09228(16)
H18 H 0.3295 0.3208 -0.1013
C24 C 0.5381(3) 0.2409(2) -0.04826(15)
H19 H 0.4713 0.1753 -0.0272
C25 C 0.4537(4) 0.5240(3) -0.1715(2)
H20 H 0.3269 0.5086 -0.1677
H21 H 0.4883 0.5187 -0.2378
H22 H 0.4854 0.6057 -0.1396
O4? O 0.5084(8) 0.3466(6) 0.5596(4)
H23? H 0.5070 0.2962 0.5108
C26? C 0.565(2) 0.460(2) 0.5479(12)
H24? H 0.5579 0.5117 0.6084
H25? H 0.6894 0.4554 0.5319
C27? C 0.478(2) 0.5208(19) 0.4766(12)
H26? H 0.5345 0.6017 0.4750
H27? H 0.3540 0.5296 0.4924
H28? H 0.4875 0.4724 0.4147
loop_
_geom_bond_atom_site_label_1
_geom_bond_atom_site_label_2
_geom_bond_site_symmetry_1
_geom_bond_site_symmetry_2
O1 C7 1_555 1_555
O2 C18 1_555 1_555
O3 H1 1_555 1_555
N1 N2 1_555 1_555
N2 C9 1_555 1_555
N3 H2 1_555 1_555
N4 N3 1_555 1_555
H3 N4 1_555 1_555
C1 H4 1_555 1_555
C2 C1 1_555 1_555
H5 C2 1_555 1_555
C3 C2 1_555 1_555
H6 C3 1_555 1_555
C4 N1 1_555 1_555
C5 C4 1_555 1_555
H7 C5 1_555 1_555
C6 C1 1_555 1_555
H8 C6 1_555 1_555
C7 N1 1_555 1_555
C8 C7 1_555 1_555
C9 C8 1_555 1_555
C10 C9 1_555 1_555
H9 C10 1_555 1_555
H10 C10 1_555 1_555
H11 C10 1_555 1_555
C11 N3 1_555 1_555
C12 C11 1_555 1_555
C13 C12 1_555 1_555
H12 C13 1_555 1_555
C14 C13 1_555 1_555
H13 C14 1_555 1_555
C15 C14 1_555 1_555
H14 C15 1_555 1_555
C16 C15 1_555 1_555
H15 C16 1_555 1_555
C17 C12 1_555 1_555
H16 C17 1_555 1_555
C18 N4 1_555 1_555
C19 C18 1_555 1_555
C20 O3 1_555 1_555
C21 C20 1_555 1_555
H17 C21 1_555 1_555
C22 C21 1_555 1_555
C23 C22 1_555 1_555
H18 C23 1_555 1_555
C24 C19 1_555 1_555
H19 C24 1_555 1_555
C25 C22 1_555 1_555
H20 C25 1_555 1_555
H21 C25 1_555 1_555
H22 C25 1_555 1_555
C3 C4 1_555 1_555
C5 C6 1_555 1_555
C8 C11 1_555 1_555
C16 C17 1_555 1_555
C19 C20 1_555 1_555
C23 C24 1_555 1_555

#END
