
#######################################################################
#
#                 Cambridge Crystallographic Data Centre
#                                CCDC 
#
#######################################################################
#
# If this CIF has been generated from an entry in the Cambridge 
# Structural Database, then it will include bibliographic, chemical, 
# crystal, experimental, refinement or atomic coordinate data resulting 
# from the CCDC's data processing and validation procedures.
#
#######################################################################

data_PUSQIF
_chemical_formula_moiety         'C42 H62 N6 O2'
_chemical_name_systematic        
2,3-bis((2-(decyloxy)-4-(dimethylamino)benzylidene)amino)but-2-enedinitrile
_symmetry_cell_setting           triclinic
_symmetry_space_group_name_H-M   'P -1'
_symmetry_Int_Tables_number      2
_space_group_name_Hall           '-P 1'
loop_
_symmetry_equiv_pos_site_id
_symmetry_equiv_pos_as_xyz
1 x,y,z
2 -x,-y,-z
_cell_length_a                   8.6252(3)
_cell_length_b                   10.9509(5)
_cell_length_c                   11.5620(7)
_cell_angle_alpha                94.067(4)
_cell_angle_beta                 93.088(4)
_cell_angle_gamma                112.605(4)
_cell_volume                     1001.73
_exptl_crystal_colour            reddish-purple
_exptl_crystal_description       needle
_cell_formula_units_Z            1
loop_
_atom_site_label
_atom_site_type_symbol
_atom_site_fract_x
_atom_site_fract_y
_atom_site_fract_z
O1 O 0.55772(12) 0.93250(10) 0.19661(10)
N1 N -0.04026(17) 0.73483(14) 0.07548(13)
N2 N 0.22449(15) 1.06506(12) 0.04909(11)
N3 N 1.01550(15) 1.36168(12) 0.20846(12)
C1 C -0.00058(18) 0.84185(15) 0.05127(13)
C2 C 0.05827(18) 0.97873(14) 0.02434(13)
C3 C 0.33347(18) 1.02241(15) 0.09291(13)
H1 H 0.2974 0.9317 0.1072
C4 C 0.50761(18) 1.10894(15) 0.12041(13)
C5 C 0.57115(19) 1.24202(15) 0.09488(13)
H2 H 0.4963 1.2753 0.0582
C6 C 0.73708(19) 1.32574(15) 0.12079(13)
H3 H 0.7754 1.4146 0.1009
C7 C 0.85145(18) 1.27962(15) 0.17733(13)
C8 C 0.79036(18) 1.14566(15) 0.20216(13)
H4 H 0.8652 1.1122 0.2386
C9 C 0.62286(18) 1.06244(14) 0.17416(13)
C10 C 0.67199(18) 0.87843(15) 0.24409(14)
H5 H 0.7246 0.9264 0.3210
H6 H 0.7625 0.8888 0.1918
C11 C 0.57498(19) 0.73299(15) 0.25659(14)
H7 H 0.5323 0.6838 0.1787
H8 H 0.4770 0.7223 0.3017
C12 C 0.68928(19) 0.67620(15) 0.31878(15)
H9 H 0.7856 0.6866 0.2720
H10 H 0.7352 0.7294 0.3947
C13 C 0.60399(19) 0.53051(15) 0.33991(14)
H11 H 0.5626 0.4758 0.2642
H12 H 0.5055 0.5184 0.3849
C14 C 0.72443(19) 0.48312(15) 0.40626(14)
H13 H 0.8228 0.4965 0.3608
H14 H 0.7663 0.5395 0.4812
C15 C 0.64872(19) 0.33820(15) 0.43138(14)
H15 H 0.6078 0.2807 0.3570
H16 H 0.5508 0.3238 0.4775
C16 C 0.77685(19) 0.29882(15) 0.49804(14)
H17 H 0.8757 0.3165 0.4523
H18 H 0.8159 0.3563 0.5725
C17 C 0.7117(2) 0.15421(15) 0.52435(14)
H19 H 0.6147 0.1363 0.5719
H20 H 0.6712 0.0960 0.4503
C18 C 0.8454(2) 0.12008(18) 0.58879(18)
H21 H 0.8851 0.1782 0.6629
H22 H 0.9428 0.1394 0.5414
C19 C 0.7851(3) -0.02398(18) 0.61544(17)
H23 H 0.7531 -0.0823 0.5424
H24 H 0.6873 -0.0447 0.6612
H25 H 0.8759 -0.0378 0.6599
C20 C 1.0854(2) 1.49401(16) 0.16913(16)
H26 H 1.0153 1.5428 0.1911
H27 H 1.0874 1.4864 0.0843
H28 H 1.2004 1.5418 0.2055
C21 C 1.13380(19) 1.30840(16) 0.25462(15)
H29 H 1.1418 1.2418 0.1966
H30 H 1.0944 1.2669 0.3256
H31 H 1.2450 1.3805 0.2727
O1A O -0.55772(12) 1.06750(10) -0.19661(10)
N1A N 0.04026(17) 1.26517(14) -0.07548(13)
N2A N -0.22449(15) 0.93494(12) -0.04909(11)
N3A N -1.01550(15) 0.63832(12) -0.20846(12)
C1A C 0.00058(18) 1.15815(15) -0.05127(13)
C2A C -0.05827(18) 1.02127(14) -0.02434(13)
C3A C -0.33347(18) 0.97759(15) -0.09291(13)
H1A H -0.2974 1.0683 -0.1072
C4A C -0.50761(18) 0.89106(15) -0.12041(13)
C5A C -0.57115(19) 0.75798(15) -0.09488(13)
H2A H -0.4963 0.7247 -0.0582
C6A C -0.73708(19) 0.67426(15) -0.12079(13)
H3A H -0.7754 0.5854 -0.1009
C7A C -0.85145(18) 0.72038(15) -0.17733(13)
C8A C -0.79036(18) 0.85434(15) -0.20216(13)
H4A H -0.8652 0.8878 -0.2386
C9A C -0.62286(18) 0.93756(14) -0.17416(13)
C10A C -0.67199(18) 1.12157(15) -0.24409(14)
H5A H -0.7246 1.0736 -0.3210
H6A H -0.7625 1.1112 -0.1918
C11A C -0.57498(19) 1.26701(15) -0.25659(14)
H7A H -0.5323 1.3162 -0.1787
H8A H -0.4770 1.2777 -0.3017
C12A C -0.68928(19) 1.32380(15) -0.31878(15)
H9A H -0.7856 1.3134 -0.2720
H10A H -0.7352 1.2706 -0.3947
C13A C -0.60399(19) 1.46949(15) -0.33991(14)
H11A H -0.5626 1.5242 -0.2642
H12A H -0.5055 1.4816 -0.3849
C14A C -0.72443(19) 1.51688(15) -0.40626(14)
H13A H -0.8228 1.5035 -0.3608
H14A H -0.7663 1.4605 -0.4812
C15A C -0.64872(19) 1.66180(15) -0.43138(14)
H15A H -0.6078 1.7193 -0.3570
H16A H -0.5508 1.6762 -0.4775
C16A C -0.77685(19) 1.70118(15) -0.49804(14)
H17A H -0.8757 1.6835 -0.4523
H18A H -0.8159 1.6437 -0.5725
C17A C -0.7117(2) 1.84579(15) -0.52435(14)
H19A H -0.6147 1.8637 -0.5719
H20A H -0.6712 1.9040 -0.4503
C18A C -0.8454(2) 1.87992(18) -0.58879(18)
H21A H -0.8851 1.8218 -0.6629
H22A H -0.9428 1.8606 -0.5414
C19A C -0.7851(3) 2.02398(18) -0.61544(17)
H23A H -0.7531 2.0823 -0.5424
H24A H -0.6873 2.0447 -0.6612
H25A H -0.8759 2.0378 -0.6599
C20A C -1.0854(2) 0.50599(16) -0.16913(16)
H26A H -1.0153 0.4572 -0.1911
H27A H -1.0874 0.5136 -0.0843
H28A H -1.2004 0.4582 -0.2055
C21A C -1.13380(19) 0.69160(16) -0.25462(15)
H29A H -1.1418 0.7582 -0.1966
H30A H -1.0944 0.7331 -0.3256
H31A H -1.2450 0.6195 -0.2727
loop_
_geom_bond_atom_site_label_1
_geom_bond_atom_site_label_2
_geom_bond_site_symmetry_1
_geom_bond_site_symmetry_2
O1 C9 1_555 1_555
N1 C1 1_555 1_555
N2 C2 1_555 1_555
N3 C7 1_555 1_555
C1 C2 1_555 1_555
C2 C2A 1_555 1_555
C3 N2 1_555 1_555
H1 C3 1_555 1_555
C4 C3 1_555 1_555
C5 C4 1_555 1_555
H2 C5 1_555 1_555
C6 C5 1_555 1_555
H3 C6 1_555 1_555
C7 C6 1_555 1_555
C8 C7 1_555 1_555
H4 C8 1_555 1_555
C9 C4 1_555 1_555
C10 O1 1_555 1_555
H5 C10 1_555 1_555
H6 C10 1_555 1_555
C11 C10 1_555 1_555
H7 C11 1_555 1_555
H8 C11 1_555 1_555
C12 C11 1_555 1_555
H9 C12 1_555 1_555
H10 C12 1_555 1_555
C13 C12 1_555 1_555
H11 C13 1_555 1_555
H12 C13 1_555 1_555
C14 C13 1_555 1_555
H13 C14 1_555 1_555
H14 C14 1_555 1_555
C15 C14 1_555 1_555
H15 C15 1_555 1_555
H16 C15 1_555 1_555
C16 C15 1_555 1_555
H17 C16 1_555 1_555
H18 C16 1_555 1_555
C17 C16 1_555 1_555
H19 C17 1_555 1_555
H20 C17 1_555 1_555
C18 C17 1_555 1_555
H21 C18 1_555 1_555
H22 C18 1_555 1_555
C19 C18 1_555 1_555
H23 C19 1_555 1_555
H24 C19 1_555 1_555
H25 C19 1_555 1_555
C20 N3 1_555 1_555
H26 C20 1_555 1_555
H27 C20 1_555 1_555
H28 C20 1_555 1_555
C21 N3 1_555 1_555
H29 C21 1_555 1_555
H30 C21 1_555 1_555
H31 C21 1_555 1_555
O1A C9A 1_555 1_555
N1A C1A 1_555 1_555
N2A C2A 1_555 1_555
N3A C7A 1_555 1_555
C1A C2A 1_555 1_555
C3A N2A 1_555 1_555
H1A C3A 1_555 1_555
C4A C3A 1_555 1_555
C5A C4A 1_555 1_555
H2A C5A 1_555 1_555
C6A C5A 1_555 1_555
H3A C6A 1_555 1_555
C7A C6A 1_555 1_555
C8A C7A 1_555 1_555
H4A C8A 1_555 1_555
C9A C4A 1_555 1_555
C10A O1A 1_555 1_555
H5A C10A 1_555 1_555
H6A C10A 1_555 1_555
C11A C10A 1_555 1_555
H7A C11A 1_555 1_555
H8A C11A 1_555 1_555
C12A C11A 1_555 1_555
H9A C12A 1_555 1_555
H10A C12A 1_555 1_555
C13A C12A 1_555 1_555
H11A C13A 1_555 1_555
H12A C13A 1_555 1_555
C14A C13A 1_555 1_555
H13A C14A 1_555 1_555
H14A C14A 1_555 1_555
C15A C14A 1_555 1_555
H15A C15A 1_555 1_555
H16A C15A 1_555 1_555
C16A C15A 1_555 1_555
H17A C16A 1_555 1_555
H18A C16A 1_555 1_555
C17A C16A 1_555 1_555
H19A C17A 1_555 1_555
H20A C17A 1_555 1_555
C18A C17A 1_555 1_555
H21A C18A 1_555 1_555
H22A C18A 1_555 1_555
C19A C18A 1_555 1_555
H23A C19A 1_555 1_555
H24A C19A 1_555 1_555
H25A C19A 1_555 1_555
C20A N3A 1_555 1_555
H26A C20A 1_555 1_555
H27A C20A 1_555 1_555
H28A C20A 1_555 1_555
C21A N3A 1_555 1_555
H29A C21A 1_555 1_555
H30A C21A 1_555 1_555
H31A C21A 1_555 1_555
C8 C9 1_555 1_555
C8A C9A 1_555 1_555

#END
