
#######################################################################
#
#                 Cambridge Crystallographic Data Centre
#                                CCDC 
#
#######################################################################
#
# If this CIF has been generated from an entry in the Cambridge 
# Structural Database, then it will include bibliographic, chemical, 
# crystal, experimental, refinement or atomic coordinate data resulting 
# from the CCDC's data processing and validation procedures.
#
#######################################################################

data_PUSXAE
_chemical_formula_moiety         'C13 H17 N2 1+,Cl1 O4 1-'
_chemical_name_systematic        
'4-(1-(2,3-dimethylphenyl)ethyl)-1H-imidazol-1-ium perchlorate'
_symmetry_cell_setting           orthorhombic
_symmetry_space_group_name_H-M   'P 21 21 21'
_symmetry_Int_Tables_number      19
_space_group_name_Hall           'P 2ac 2ab'
loop_
_symmetry_equiv_pos_site_id
_symmetry_equiv_pos_as_xyz
1 x,y,z
2 1/2-x,-y,1/2+z
3 1/2+x,1/2-y,-z
4 -x,1/2+y,1/2-z
_cell_length_a                   6.6480(13)
_cell_length_b                   8.9360(18)
_cell_length_c                   26.344(5)
_cell_angle_alpha                90
_cell_angle_beta                 90
_cell_angle_gamma                90
_cell_volume                     1565.01
_cell_formula_units_Z            4
loop_
_atom_site_label
_atom_site_type_symbol
_atom_site_fract_x
_atom_site_fract_y
_atom_site_fract_z
Cl1 Cl 0.1621(4) 0.6294(3) 0.79774(9)
O1 O 0.1355(10) 0.5084(6) 0.7638(2)
O2 O 0.0665(11) 0.7568(6) 0.7796(3)
O3 O 0.0945(15) 0.5845(8) 0.8420(3)
O4 O 0.3641(14) 0.6810(13) 0.8093(4)
N1 N 0.6922(13) 0.7040(12) 0.7122(3)
H1 H 0.8091 0.7425 0.7009
H2 H 0.6769 0.7295 0.7450
C1 C 0.3023(10) 0.5862(6) 0.5792(2)
C2 C 0.4341(10) 0.6401(13) 0.6626(2)
C3 C 0.1623(10) 0.4945(9) 0.5497(3)
C4 C 0.2596(8) 0.6340(11) 0.6308(2)
H3 H 0.1655 0.5620 0.6458
C5 C 0.2002(11) 0.4732(7) 0.4983(3)
C6 C 0.4960(12) 0.6129(8) 0.5003(2)
H4 H 0.6075 0.6517 0.4836
C7 C 0.4680(9) 0.6410(8) 0.5526(2)
H5 H 0.5631 0.6979 0.5699
N2 N 0.5537(12) 0.5172(8) 0.6809(2)
C8 C 0.5310(16) 0.7586(10) 0.6832(3)
H6 H 0.4967 0.8587 0.6789
C9 C 0.0483(11) 0.3744(8) 0.4687(3)
H7 H 0.0864 0.3706 0.4336
H8 H -0.0841 0.4164 0.4716
H9 H 0.0487 0.2750 0.4826
C10 C -0.0232(10) 0.4283(10) 0.5741(3)
H10 H -0.0965 0.3711 0.5494
H11 H -0.1070 0.5074 0.5868
H12 H 0.0161 0.3643 0.6017
C11 C 0.1643(14) 0.7816(11) 0.6320(2)
H13 H 0.1353 0.8086 0.6665
H14 H 0.0414 0.7788 0.6129
H15 H 0.2535 0.8543 0.6174
C12 C 0.3531(11) 0.5253(8) 0.4735(3)
H16 H 0.3688 0.5058 0.4391
C13 C 0.6922(17) 0.5609(14) 0.7074(4)
H17 H 0.7867 0.4981 0.7223
loop_
_geom_bond_atom_site_label_1
_geom_bond_atom_site_label_2
_geom_bond_site_symmetry_1
_geom_bond_site_symmetry_2
Cl1 O1 1_555 1_555
O2 Cl1 1_555 1_555
O3 Cl1 1_555 1_555
O4 Cl1 1_555 1_555
N1 H1 1_555 1_555
H2 N1 1_555 1_555
C1 C3 1_555 1_555
C2 C4 1_555 1_555
C3 C5 1_555 1_555
C4 C1 1_555 1_555
H3 C4 1_555 1_555
C5 C9 1_555 1_555
C6 H4 1_555 1_555
C7 C1 1_555 1_555
H5 C7 1_555 1_555
N2 C2 1_555 1_555
C8 N1 1_555 1_555
H6 C8 1_555 1_555
C9 H7 1_555 1_555
H8 C9 1_555 1_555
H9 C9 1_555 1_555
C10 C3 1_555 1_555
H10 C10 1_555 1_555
H11 C10 1_555 1_555
H12 C10 1_555 1_555
C11 C4 1_555 1_555
H13 C11 1_555 1_555
H14 C11 1_555 1_555
H15 C11 1_555 1_555
C12 C5 1_555 1_555
H16 C12 1_555 1_555
C13 N1 1_555 1_555
H17 C13 1_555 1_555
C2 C8 1_555 1_555
C6 C7 1_555 1_555
C6 C12 1_555 1_555
N2 C13 1_555 1_555

#END
