
#######################################################################
#
#                 Cambridge Crystallographic Data Centre
#                                CCDC 
#
#######################################################################
#
# If this CIF has been generated from an entry in the Cambridge 
# Structural Database, then it will include bibliographic, chemical, 
# crystal, experimental, refinement or atomic coordinate data resulting 
# from the CCDC's data processing and validation procedures.
#
#######################################################################

data_PUTBEN
_chemical_formula_moiety         'C14 H22 O5'
_chemical_name_systematic        
't-butyl (5-hydroxy-2,2-dimethyltetrahydro-4H-cyclopenta[d][1,3]dioxol-4-ylidene)acetate'
_symmetry_cell_setting           trigonal
_symmetry_space_group_name_H-M   'P 31'
_symmetry_Int_Tables_number      144
_space_group_name_Hall           'P 31'
loop_
_symmetry_equiv_pos_site_id
_symmetry_equiv_pos_as_xyz
1 x,y,z
2 -y,x-y,1/3+z
3 -x+y,-x,2/3+z
_cell_length_a                   15.150(4)
_cell_length_b                   15.150
_cell_length_c                   5.685(2)
_cell_angle_alpha                90
_cell_angle_beta                 90
_cell_angle_gamma                120
_cell_volume                     1130.02
_exptl_crystal_colour            colorless
_exptl_crystal_description       block
_cell_formula_units_Z            3
loop_
_atom_site_label
_atom_site_type_symbol
_atom_site_fract_x
_atom_site_fract_y
_atom_site_fract_z
C1 C 0.7953(11) 0.9577(14) 0.594(3)
C2 C 0.8862(12) 1.0497(14) 0.702(3)
H1 H 0.9147 1.1056 0.5879
H2 H 0.9381 1.0320 0.7448
H3 H 0.8645 1.0709 0.8431
C3 C 0.8182(12) 0.9055(16) 0.399(3)
H4 H 0.7550 0.8591 0.3156
H5 H 0.8482 0.8666 0.4640
H6 H 0.8663 0.9567 0.2882
C4 C 0.6668(10) 0.9079(10) 0.873(3)
H7 H 0.6951 0.9490 1.0200
C5 C 0.6498(10) 0.9711(12) 0.678(3)
H8 H 0.6526 1.0350 0.7343
C6 C 0.5701(11) 0.8132(11) 0.921(3)
H9 H 0.5293 0.8247 1.0405
H10 H 0.5827 0.7586 0.9774
C7 C 0.5163(10) 0.7860(9) 0.681(2)
H11 H 0.5443 0.7516 0.5809
C8 C 0.5469(9) 0.8906(9) 0.579(2)
C9 C 0.4866(10) 0.9097(9) 0.446(3)
H12 H 0.4204 0.8548 0.4116
C10 C 0.5170(12) 1.0145(12) 0.343(3)
C11 C 0.4513(13) 1.0957(14) 0.115(3)
C12 C 0.4568(17) 1.1714(16) 0.300(3)
H13 H 0.5204 1.1975 0.3892
H14 H 0.3987 1.1370 0.4073
H15 H 0.4549 1.2282 0.2224
C13 C 0.3561(15) 1.0602(16) -0.046(4)
H16 H 0.3640 1.0286 -0.1882
H17 H 0.3492 1.1192 -0.0886
H18 H 0.2950 1.0106 0.0396
C14 C 0.5459(14) 1.1580(15) -0.043(4)
H19 H 0.6077 1.1742 0.0447
H20 H 0.5486 1.2214 -0.0921
H21 H 0.5412 1.1179 -0.1830
O1 O 0.7250(6) 0.9860(8) 0.4964(18)
O2 O 0.7373(7) 0.8804(8) 0.7739(18)
O3 O 0.4105(8) 0.7213(9) 0.711(3)
H22 H 0.3789 0.7361 0.6116
O4 O 0.5919(9) 1.0900(8) 0.397(2)
O5 O 0.4461(8) 1.0107(8) 0.211(2)
loop_
_geom_bond_atom_site_label_1
_geom_bond_atom_site_label_2
_geom_bond_site_symmetry_1
_geom_bond_site_symmetry_2
C1 C2 1_555 1_555
C2 H1 1_555 1_555
H2 C2 1_555 1_555
H3 C2 1_555 1_555
C3 C1 1_555 1_555
H4 C3 1_555 1_555
H5 C3 1_555 1_555
H6 C3 1_555 1_555
C4 H7 1_555 1_555
C5 C4 1_555 1_555
H8 C5 1_555 1_555
C6 C4 1_555 1_555
H9 C6 1_555 1_555
H10 C6 1_555 1_555
C7 C6 1_555 1_555
H11 C7 1_555 1_555
C8 C5 1_555 1_555
C9 C8 1_555 1_555
H12 C9 1_555 1_555
C10 C9 1_555 1_555
C11 C12 1_555 1_555
C12 H13 1_555 1_555
H14 C12 1_555 1_555
H15 C12 1_555 1_555
C13 C11 1_555 1_555
H16 C13 1_555 1_555
H17 C13 1_555 1_555
H18 C13 1_555 1_555
C14 C11 1_555 1_555
H19 C14 1_555 1_555
H20 C14 1_555 1_555
H21 C14 1_555 1_555
O1 C1 1_555 1_555
O2 C1 1_555 1_555
O3 C7 1_555 1_555
H22 O3 1_555 1_555
O4 C10 1_555 1_555
O5 C10 1_555 1_555
C4 O2 1_555 1_555
C5 O1 1_555 1_555
C7 C8 1_555 1_555
C11 O5 1_555 1_555

#END
