
#######################################################################
#
#                 Cambridge Crystallographic Data Centre
#                                CCDC 
#
#######################################################################
#
# If this CIF has been generated from an entry in the Cambridge 
# Structural Database, then it will include bibliographic, chemical, 
# crystal, experimental, refinement or atomic coordinate data resulting 
# from the CCDC's data processing and validation procedures.
#
#######################################################################

data_PUTPAV02
_chemical_formula_moiety         'C6 H12 N2,2(C6 H5 N1 O3)'
_chemical_name_systematic        
'bis(4-Nitrophenol) 1,4-diazabicyclo[2.2.2]octane'
_symmetry_cell_setting           triclinic
_symmetry_space_group_name_H-M   'P -1'
_symmetry_Int_Tables_number      2
_space_group_name_Hall           '-P 1'
loop_
_symmetry_equiv_pos_site_id
_symmetry_equiv_pos_as_xyz
1 x,y,z
2 -x,-y,-z
_cell_length_a                   9.805(5)
_cell_length_b                   13.762(6)
_cell_length_c                   13.774(7)
_cell_angle_alpha                80.039(13)
_cell_angle_beta                 83.930(9)
_cell_angle_gamma                84.024(11)
_cell_volume                     1813.33
_exptl_crystal_colour            yellow
_exptl_crystal_description       block
_cell_formula_units_Z            4
loop_
_atom_site_label
_atom_site_type_symbol
_atom_site_fract_x
_atom_site_fract_y
_atom_site_fract_z
N1 N -0.0506(5) 0.3075(4) 0.8151(4)
N2 N 0.0489(5) 0.1930(4) 0.6909(4)
C1 C -0.1604(7) 0.2888(6) 0.7540(5)
H1 H -0.2005 0.3514 0.7204
H2 H -0.2328 0.2560 0.7968
C2 C -0.0978(7) 0.2226(5) 0.6760(5)
H3 H -0.1478 0.1641 0.6834
H4 H -0.1060 0.2591 0.6097
C3 C 0.0618(8) 0.3512(6) 0.7470(5)
H5 H 0.1333 0.3647 0.7852
H6 H 0.0266 0.4135 0.7099
C4 C 0.1244(8) 0.2811(6) 0.6740(5)
H7 H 0.1187 0.3148 0.6065
H8 H 0.2207 0.2624 0.6840
C5 C 0.0051(8) 0.2113(5) 0.8672(5)
H9 H -0.0669 0.1807 0.9123
H10 H 0.0782 0.2214 0.9057
C6 C 0.0621(7) 0.1419(5) 0.7922(5)
H11 H 0.1582 0.1209 0.8009
H12 H 0.0116 0.0833 0.8043
O1 O 0.8877(5) 0.4428(4) -0.0722(4)
O2 O 0.3676(6) 0.3555(5) 0.2231(4)
O3 O 0.3737(6) 0.5125(4) 0.2232(4)
N3 N 0.4206(6) 0.4344(5) 0.1963(4)
C7 C 0.7035(7) 0.3523(5) 0.0194(6)
H13 H 0.7329 0.2963 -0.0091
C8 C 0.5439(6) 0.4351(5) 0.1292(4)
C9 C 0.7759(6) 0.4369(5) -0.0058(5)
C10 C 0.7310(8) 0.5211(5) 0.0386(5)
H14 H 0.7806 0.5767 0.0242
C11 C 0.5886(7) 0.3519(5) 0.0866(5)
H15 H 0.5408 0.2955 0.1034
C12 C 0.6131(7) 0.5211(5) 0.1038(4)
H16 H 0.5803 0.5777 0.1303
H17 H 0.8936 0.3889 -0.1034
O4 O 0.1164(5) 1.0706(4) 0.0535(4)
O5 O 0.6269(7) 0.7669(5) 0.1435(5)
O6 O 0.6341(6) 0.7773(4) -0.0160(5)
C13 C 0.2931(7) 0.9742(5) 0.1453(5)
H18 H 0.2614 1.0005 0.2022
C14 C 0.4574(6) 0.8696(5) 0.0614(5)
C15 C 0.2263(6) 1.0046(4) 0.0613(5)
N4 N 0.5806(6) 0.7978(5) 0.0656(5)
C16 C 0.2789(7) 0.9655(5) -0.0250(5)
H19 H 0.2346 0.9844 -0.0827
C17 C 0.3960(7) 0.8989(5) -0.0247(5)
H20 H 0.4318 0.8748 -0.0820
C18 C 0.4075(7) 0.9048(5) 0.1477(5)
H21 H 0.4494 0.8828 0.2060
H22 H 0.1150 1.1162 0.0968
O7 O 0.5999(5) 0.2834(4) 0.4661(5)
O8 O 0.1037(5) 0.5901(4) 0.5510(4)
O9 O 0.6113(6) 0.2829(4) 0.6237(5)
N5 N 0.5565(6) 0.3125(4) 0.5441(5)
C19 C 0.4363(6) 0.3841(5) 0.5456(5)
C20 C 0.2138(6) 0.5232(4) 0.5507(5)
C21 C 0.2944(6) 0.4985(5) 0.6331(5)
H23 H 0.2723 0.5295 0.6883
C22 C 0.3593(6) 0.4069(5) 0.4656(5)
H24 H 0.3831 0.3764 0.4103
C23 C 0.4050(6) 0.4286(4) 0.6307(5)
H25 H 0.4580 0.4111 0.6842
C24 C 0.2467(6) 0.4754(5) 0.4682(5)
H26 H 0.1924 0.4899 0.4153
H27 H 0.0768 0.6139 0.6078
O10 O 0.1068(5) 0.0483(4) 0.5879(4)
O11 O 0.6068(6) -0.0415(5) 0.2869(4)
O12 O 0.6067(6) 0.1180(5) 0.2710(4)
N6 N 0.5581(6) 0.0403(5) 0.3087(4)
C25 C 0.4390(6) 0.0423(5) 0.3823(4)
C26 C 0.4024(7) 0.1288(5) 0.4209(6)
H28 H 0.4507 0.1845 0.3998
C27 C 0.2152(7) 0.0486(5) 0.5206(4)
C28 C 0.2534(7) -0.0366(5) 0.4782(4)
H29 H 0.2025 -0.0913 0.4964
C29 C 0.2917(6) 0.1297(5) 0.4920(5)
H30 H 0.2681 0.1859 0.5212
C30 C 0.3659(7) -0.0403(5) 0.4095(5)
H31 H 0.3922 -0.0973 0.3820
H32 H 0.1006 0.0974 0.6253
N7 N 1.0477(5) 0.1837(4) 0.1891(4)
N8 N 0.9467(5) 0.3072(4) 0.3043(4)
C31 C 1.0066(8) 0.3612(6) 0.2078(5)
H33 H 1.0801 0.3986 0.2195
H34 H 0.9362 0.4074 0.1767
C32 C 1.0629(7) 0.2870(5) 0.1396(5)
H35 H 1.0139 0.3003 0.0804
H36 H 1.1594 0.2951 0.1197
C33 C 0.8373(7) 0.2498(6) 0.2848(6)
H37 H 0.7666 0.2939 0.2516
H38 H 0.7953 0.2163 0.3468
C34 C 1.1203(8) 0.1683(7) 0.2792(6)
H39 H 1.2167 0.1787 0.2613
H40 H 1.1149 0.1005 0.3126
C35 C 0.8984(7) 0.1723(6) 0.2188(6)
H41 H 0.8874 0.1061 0.2549
H42 H 0.8489 0.1810 0.1601
C36 C 1.0577(7) 0.2397(6) 0.3497(5)
H43 H 1.0212 0.2021 0.4114
H44 H 1.1287 0.2778 0.3642
loop_
_geom_bond_atom_site_label_1
_geom_bond_atom_site_label_2
_geom_bond_site_symmetry_1
_geom_bond_site_symmetry_2
N1 C1 1_555 1_555
N2 C2 1_555 1_555
C1 H1 1_555 1_555
H2 C1 1_555 1_555
C2 C1 1_555 1_555
H3 C2 1_555 1_555
H4 C2 1_555 1_555
C3 N1 1_555 1_555
H5 C3 1_555 1_555
H6 C3 1_555 1_555
C4 N2 1_555 1_555
H7 C4 1_555 1_555
H8 C4 1_555 1_555
C5 N1 1_555 1_555
H9 C5 1_555 1_555
H10 C5 1_555 1_555
C6 N2 1_555 1_555
H11 C6 1_555 1_555
H12 C6 1_555 1_555
O1 C9 1_555 1_555
O2 N3 1_555 1_555
O3 N3 1_555 1_555
N3 C8 1_555 1_555
C7 H13 1_555 1_555
C8 C11 1_555 1_555
C9 C7 1_555 1_555
C10 C9 1_555 1_555
H14 C10 1_555 1_555
C11 C7 1_555 1_555
H15 C11 1_555 1_555
C12 C8 1_555 1_555
H16 C12 1_555 1_555
H17 O1 1_555 1_555
O4 C15 1_555 1_555
O5 N4 1_555 1_555
O6 N4 1_555 1_555
C13 H18 1_555 1_555
C14 N4 1_555 1_555
C15 C13 1_555 1_555
C16 C15 1_555 1_555
H19 C16 1_555 1_555
C17 C14 1_555 1_555
H20 C17 1_555 1_555
C18 C13 1_555 1_555
H21 C18 1_555 1_555
H22 O4 1_555 1_555
O7 N5 1_555 1_555
O8 C20 1_555 1_555
O9 N5 1_555 1_555
N5 C19 1_555 1_555
C19 C22 1_555 1_555
C20 C21 1_555 1_555
C21 H23 1_555 1_555
C22 H24 1_555 1_555
C23 C19 1_555 1_555
H25 C23 1_555 1_555
C24 C20 1_555 1_555
H26 C24 1_555 1_555
H27 O8 1_555 1_555
O10 C27 1_555 1_555
O11 N6 1_555 1_555
O12 N6 1_555 1_555
N6 C25 1_555 1_555
C25 C26 1_555 1_555
C26 H28 1_555 1_555
C27 C28 1_555 1_555
C28 H29 1_555 1_555
C29 C26 1_555 1_555
H30 C29 1_555 1_555
C30 C25 1_555 1_555
H31 C30 1_555 1_555
H32 O10 1_555 1_555
N7 C32 1_555 1_555
N8 C31 1_555 1_555
C31 H33 1_555 1_555
H34 C31 1_555 1_555
C32 C31 1_555 1_555
H35 C32 1_555 1_555
H36 C32 1_555 1_555
C33 N8 1_555 1_555
H37 C33 1_555 1_555
H38 C33 1_555 1_555
C34 N7 1_555 1_555
H39 C34 1_555 1_555
H40 C34 1_555 1_555
C35 N7 1_555 1_555
H41 C35 1_555 1_555
H42 C35 1_555 1_555
C36 N8 1_555 1_555
H43 C36 1_555 1_555
H44 C36 1_555 1_555
C3 C4 1_555 1_555
C5 C6 1_555 1_555
C10 C12 1_555 1_555
C14 C18 1_555 1_555
C16 C17 1_555 1_555
C21 C23 1_555 1_555
C22 C24 1_555 1_555
C27 C29 1_555 1_555
C28 C30 1_555 1_555
C33 C35 1_555 1_555
C34 C36 1_555 1_555

#END
