
#######################################################################
#
#                 Cambridge Crystallographic Data Centre
#                                CCDC 
#
#######################################################################
#
# If this CIF has been generated from an entry in the Cambridge 
# Structural Database, then it will include bibliographic, chemical, 
# crystal, experimental, refinement or atomic coordinate data resulting 
# from the CCDC's data processing and validation procedures.
#
#######################################################################

data_PUVCAM
_chemical_formula_moiety         'C13 H17 N1 O4 S1,0.33(C1 H4 O1)'
_chemical_name_systematic        
'2-(2-hydroxy-3-methoxyphenyl)-5,5-dimethyl-1,3-thiazolidine-4-carboxylic acid methanol solvate'
_symmetry_cell_setting           trigonal
_symmetry_space_group_name_H-M   'P 3'
_symmetry_Int_Tables_number      143
_space_group_name_Hall           'P 3'
loop_
_symmetry_equiv_pos_site_id
_symmetry_equiv_pos_as_xyz
1 x,y,z
2 -y,x-y,z
3 -x+y,-x,z
_cell_length_a                   14.014(2)
_cell_length_b                   14.014(2)
_cell_length_c                   6.4750(10)
_cell_angle_alpha                90
_cell_angle_beta                 90
_cell_angle_gamma                120
_cell_volume                     1101.27
_exptl_crystal_colour            white
_exptl_crystal_description       needle
_chemical_melting_point          '433 K'
_cell_formula_units_Z            3
_exptl_crystal_recrystallization_method 'slow evaporation'
loop_
_atom_site_label
_atom_site_type_symbol
_atom_site_fract_x
_atom_site_fract_y
_atom_site_fract_z
C1 C 0.1556(4) 0.4192(4) -0.0255(7)
H1 H 0.1150 0.4148 -0.1423
C2 C 0.2661(5) 0.4880(4) -0.0231(7)
H2 H 0.3004 0.5295 -0.1403
C3 C 0.3300(4) 0.4985(4) 0.1499(8)
H3 H 0.4057 0.5465 0.1494
C4 C 0.2783(4) 0.4361(5) 0.3210(8)
C5 C 0.1643(4) 0.3637(5) 0.3196(7)
C6 C 0.1038(4) 0.3563(4) 0.1441(7)
C7 C -0.1846(4) 0.2011(4) -0.1194(8)
C8 C -0.2827(5) 0.1149(6) -0.0065(11)
H4 H -0.2591 0.0944 0.1167
H5 H -0.3220 0.0514 -0.0933
H6 H -0.3301 0.1434 0.0299
C9 C -0.2249(8) 0.2318(7) -0.3118(12)
H7 H -0.1630 0.2873 -0.3872
H8 H -0.2724 0.2598 -0.2729
H9 H -0.2648 0.1678 -0.3972
C10 C 0.4459(5) 0.5054(6) 0.5054(10)
H10 H 0.4720 0.5004 0.6398
H11 H 0.4667 0.5806 0.4773
H12 H 0.4779 0.4801 0.4032
C11 C -0.0125(13) 0.2941(10) 0.172(2)
H13 H -0.0298 0.2903 0.3192
C12 C -0.0925(13) 0.1649(10) -0.116(2)
H14 H -0.0338 0.2102 -0.2141
N1 N -0.0463(8) 0.1839(9) 0.0956(19)
O1 O -0.1916(10) 0.0198(9) -0.381(2)
O2 O -0.1577(6) -0.0217(5) -0.0604(16)
C13 C -0.1497(8) 0.0436(9) -0.185(2)
O3 O 0.1123(3) 0.3033(4) 0.4892(5)
O4 O 0.3298(3) 0.4391(4) 0.4991(5)
S1 S -0.10155(12) 0.32568(12) 0.0295(3)
H15 H -0.087(6) 0.133(3) 0.178(4)
C14 C -0.0209(9) 0.0623(9) 0.3577(17)
O5B O 0.0973(11) 0.1128(8) 0.2307(14)
O5 O -0.1128(8) -0.0155(7) 0.2307(14)
C14A C -0.0623(9) -0.0832(13) 0.3577(17)
O5A O 0.0155(7) -0.0973(11) 0.2307(14)
C14B C 0.0832(13) 0.0209(9) 0.3577(17)
C15? C -0.0246(12) 0.2594(12) 0.118(2)
H16? H -0.0528 0.2271 0.2539
C16? C -0.1082(9) 0.1652(9) -0.2118(16)
H17? H -0.0572 0.2258 -0.3013
N2? N -0.0429(7) 0.1683(7) -0.0273(15)
O6? O -0.1714(9) 0.0713(10) -0.5328(17)
O7? O -0.1758(9) -0.0197(9) -0.262(2)
C17? C -0.1546(12) 0.0599(11) -0.344(3)
H18? H 0.016(5) 0.166(9) -0.035(16)
loop_
_geom_bond_atom_site_label_1
_geom_bond_atom_site_label_2
_geom_bond_site_symmetry_1
_geom_bond_site_symmetry_2
C1 H1 1_555 1_555
C2 C1 1_555 1_555
H2 C2 1_555 1_555
C3 C2 1_555 1_555
H3 C3 1_555 1_555
C4 C3 1_555 1_555
C5 C4 1_555 1_555
C6 C1 1_555 1_555
C7 C8 1_555 1_555
C8 H4 1_555 1_555
H5 C8 1_555 1_555
H6 C8 1_555 1_555
C9 C7 1_555 1_555
H7 C9 1_555 1_555
H8 C9 1_555 1_555
H9 C9 1_555 1_555
C10 H10 1_555 1_555
H11 C10 1_555 1_555
H12 C10 1_555 1_555
C11 C6 1_555 1_555
H13 C11 1_555 1_555
C12 C7 1_555 1_555
H14 C12 1_555 1_555
N1 C11 1_555 1_555
O1 C13 1_555 1_555
O2 C13 1_555 1_555
C13 C12 1_555 1_555
O3 C5 1_555 1_555
O4 C4 1_555 1_555
S1 C7 1_555 1_555
H15 N1 1_555 1_555
C14 O5B 1_555 1_555
O5 C14A 1_555 1_555
O5A C14B 1_555 1_555
C5 C6 1_555 1_555
C10 O4 1_555 1_555
C11 S1 1_555 1_555
C12 N1 1_555 1_555

#END
