
#######################################################################
#
#                 Cambridge Crystallographic Data Centre
#                                CCDC 
#
#######################################################################
#
# If this CIF has been generated from an entry in the Cambridge 
# Structural Database, then it will include bibliographic, chemical, 
# crystal, experimental, refinement or atomic coordinate data resulting 
# from the CCDC's data processing and validation procedures.
#
#######################################################################

data_PUVKEX
_chemical_formula_moiety         'C64 H40,2(C6 H3 Cl3)'
_chemical_name_systematic        
'9,11,12,13,14,16-Hexaphenyldibenzo[de,uv]pentacene 1,2,4-trichlorobenzene solvate'
_symmetry_cell_setting           monoclinic
_symmetry_space_group_name_H-M   'P 21/n'
_symmetry_Int_Tables_number      14
_space_group_name_Hall           '-P 2yn'
loop_
_symmetry_equiv_pos_site_id
_symmetry_equiv_pos_as_xyz
1 x,y,z
2 1/2-x,1/2+y,1/2-z
3 -x,-y,-z
4 1/2+x,1/2-y,1/2+z
_cell_length_a                   8.0402(4)
_cell_length_b                   18.3260(9)
_cell_length_c                   38.1833(18)
_cell_angle_alpha                90
_cell_angle_beta                 91.227(1)
_cell_angle_gamma                90
_cell_volume                     5624.82
_exptl_crystal_colour            yellow
_exptl_crystal_description       prism
_chemical_melting_point          'above 300 deg.C'
_cell_formula_units_Z            4
_exptl_crystal_recrystallization_method 1,2,4-trichlorobenzene
loop_
_atom_site_label
_atom_site_type_symbol
_atom_site_fract_x
_atom_site_fract_y
_atom_site_fract_z
C1 C -0.0090(3) 0.30691(11) 0.15220(6)
C2 C 0.0194(3) 0.32333(11) 0.18801(6)
C3 C -0.1147(3) 0.32004(12) 0.21054(6)
H1 H -0.0998 0.3348 0.2343
C4 C -0.2700(3) 0.29548(12) 0.19880(6)
H2 H -0.3600 0.2942 0.2145
C5 C -0.2944(3) 0.27307(12) 0.16483(7)
H3 H -0.3993 0.2539 0.1575
C6 C -0.1660(3) 0.27831(12) 0.14082(6)
C7 C -0.1858(3) 0.25352(13) 0.10535(6)
H4 H -0.2893 0.2335 0.0977
C8 C -0.0600(3) 0.25810(12) 0.08273(6)
H5 H -0.0746 0.2388 0.0598
C9 C 0.0963(3) 0.29165(12) 0.09253(6)
C10 C 0.1203(3) 0.31777(11) 0.12722(6)
C11 C 0.2238(3) 0.29906(12) 0.06852(6)
H6 H 0.2076 0.2825 0.0451
C12 C 0.3728(3) 0.33025(12) 0.07871(6)
H7 H 0.4608 0.3334 0.0626
C13 C 0.3955(3) 0.35726(12) 0.11257(6)
H8 H 0.4993 0.3786 0.1191
C14 C 0.2700(3) 0.35389(11) 0.13719(5)
C15 C 0.2944(3) 0.37945(11) 0.17390(5)
C16 C 0.4211(3) 0.42638(11) 0.18495(5)
C17 C 0.5098(3) 0.47484(11) 0.15977(5)
C18 C 0.6830(3) 0.47424(13) 0.15693(6)
H9 H 0.7476 0.4413 0.1708
C19 C 0.7611(3) 0.52112(13) 0.13416(6)
H10 H 0.8788 0.5202 0.1325
C20 C 0.6691(3) 0.56920(13) 0.11389(6)
H11 H 0.7234 0.6019 0.0985
C21 C 0.4984(3) 0.56979(13) 0.11594(6)
H12 H 0.4348 0.6023 0.1016
C22 C 0.4188(3) 0.52312(12) 0.13882(5)
H13 H 0.3010 0.5242 0.1402
C23 C 0.4663(3) 0.43044(11) 0.22143(5)
C24 C 0.5968(3) 0.47479(11) 0.23404(5)
H14 H 0.6452 0.5088 0.2185
C25 C 0.6583(3) 0.47107(11) 0.26841(5)
C26 C 0.7997(3) 0.51342(11) 0.28013(5)
C27 C 0.8856(3) 0.55939(12) 0.25368(6)
C28 C 0.8561(3) 0.63363(12) 0.25174(6)
H15 H 0.7837 0.6560 0.2679
C29 C 0.9313(3) 0.67552(15) 0.22646(7)
H16 H 0.9094 0.7264 0.2252
C30 C 1.0379(3) 0.64389(16) 0.20308(7)
H17 H 1.0900 0.6729 0.1859
C31 C 1.0683(3) 0.57030(16) 0.20482(7)
H18 H 1.1424 0.5484 0.1889
C32 C 0.9915(3) 0.52769(13) 0.22974(6)
H19 H 1.0114 0.4766 0.2305
C33 C 0.8522(3) 0.51152(11) 0.31469(6)
C34 C 1.0049(3) 0.55253(12) 0.32636(6)
C35 C 0.9981(3) 0.60769(12) 0.35145(6)
H20 H 0.8942 0.6201 0.3612
C36 C 1.1402(3) 0.64473(13) 0.36240(6)
H21 H 1.1330 0.6825 0.3794
C37 C 1.2927(3) 0.62668(13) 0.34859(7)
H22 H 1.3905 0.6517 0.3562
C38 C 1.3019(3) 0.57214(13) 0.32372(7)
H23 H 1.4063 0.5597 0.3142
C39 C 1.1593(3) 0.53558(12) 0.31268(6)
H24 H 1.1670 0.4983 0.2955
C40 C 0.7618(3) 0.46777(12) 0.33971(6)
C41 C 0.8059(3) 0.47523(12) 0.37780(6)
C42 C 0.7011(3) 0.51367(14) 0.39940(6)
H25 H 0.5979 0.5312 0.3902
C43 C 0.7443(4) 0.52696(15) 0.43415(7)
H26 H 0.6715 0.5538 0.4486
C44 C 0.8933(4) 0.50103(15) 0.44760(7)
H27 H 0.9234 0.5099 0.4714
C45 C 0.9985(3) 0.46229(14) 0.42660(7)
H28 H 1.1010 0.4443 0.4359
C46 C 0.9551(3) 0.44955(13) 0.39186(6)
H29 H 1.0286 0.4229 0.3775
C47 C 0.6360(3) 0.42201(11) 0.32866(6)
C48 C 0.5523(3) 0.36952(12) 0.35274(5)
C49 C 0.6092(3) 0.29839(13) 0.35497(6)
H30 H 0.7050 0.2845 0.3424
C50 C 0.5287(3) 0.24709(13) 0.37518(7)
H31 H 0.5700 0.1986 0.3764
C51 C 0.3895(3) 0.26602(14) 0.39341(6)
H32 H 0.3341 0.2309 0.4072
C52 C 0.3317(3) 0.33654(14) 0.39132(7)
H33 H 0.2353 0.3500 0.4038
C53 C 0.4119(3) 0.38829(13) 0.37129(6)
H34 H 0.3707 0.4368 0.3703
C54 C 0.5813(3) 0.42219(11) 0.29238(5)
C55 C 0.4498(3) 0.37875(11) 0.28027(6)
H35 H 0.4011 0.3452 0.2960
C56 C 0.3864(3) 0.38252(11) 0.24584(5)
C57 C 0.2413(3) 0.34289(11) 0.23464(6)
C58 C 0.1869(3) 0.34751(11) 0.19988(6)
C59 C 0.1586(3) 0.29280(12) 0.25999(6)
C60 C 0.1000(3) 0.31638(14) 0.29203(6)
H36 H 0.1104 0.3663 0.2984
C61 C 0.0263(3) 0.26772(18) 0.31475(7)
H37 H -0.0104 0.2841 0.3369
C62 C 0.0063(3) 0.19569(18) 0.30535(8)
H38 H -0.0476 0.1628 0.3206
C63 C 0.0644(3) 0.17143(15) 0.27373(8)
H39 H 0.0516 0.1216 0.2674
C64 C 0.1415(3) 0.21942(13) 0.25117(7)
H40 H 0.1828 0.2021 0.2296
Cl1 Cl 0.07762(8) 0.56762(4) 0.073923(17)
Cl2 Cl 0.38100(10) 0.39273(4) -0.017688(18)
Cl3 Cl 0.04966(10) 0.69021(4) 0.016199(18)
C65 C 0.1546(3) 0.55338(14) 0.03259(6)
C66 C 0.2273(3) 0.48717(14) 0.02507(6)
H41 H 0.2348 0.4500 0.0424
C67 C 0.2893(3) 0.47576(13) -0.00803(6)
C68 C 0.2778(3) 0.52872(14) -0.03360(6)
H42 H 0.3207 0.5201 -0.0562
C69 C 0.2031(3) 0.59459(14) -0.02593(6)
H43 H 0.1935 0.6312 -0.0435
C70 C 0.1422(3) 0.60745(14) 0.00715(6)
Cl4 Cl 0.55569(11) 0.75705(5) 0.07443(3)
Cl5 Cl 1.06100(15) 0.90443(6) 0.01979(3)
Cl6 Cl 0.38533(19) 0.78196(10) -0.00527(6)
C71 C 0.6417(5) 0.80271(18) 0.03909(10)
C72 C 0.7975(4) 0.83198(17) 0.04327(8)
H44 H 0.8582 0.8277 0.0648
C73 C 0.8626(5) 0.86775(19) 0.01512(9)
C74 C 0.8142(10) 0.8857(4) -0.0178(2)
H45 H 0.8755 0.9135 -0.0341
C75 C 0.6582(12) 0.8559(5) -0.0232(3)
H46 H 0.6031 0.8614 -0.0453
C76 C 0.5815(16) 0.8182(5) 0.0032(3)
C77? C 0.7353(12) 0.8636(5) -0.0152(2)
C78? C 0.579(2) 0.8341(7) -0.0154(3)
C79? C 0.5175(10) 0.7999(5) 0.0134(3)
Cl7? Cl 0.8115(2) 0.90550(9) -0.05223(4)
H47? H 0.5113 0.8374 -0.0360
H48? H 0.4106 0.7785 0.0154
loop_
_geom_bond_atom_site_label_1
_geom_bond_atom_site_label_2
_geom_bond_site_symmetry_1
_geom_bond_site_symmetry_2
C1 C2 1_555 1_555
C2 C3 1_555 1_555
C3 H1 1_555 1_555
C4 C3 1_555 1_555
H2 C4 1_555 1_555
C5 C4 1_555 1_555
H3 C5 1_555 1_555
C6 C1 1_555 1_555
C7 C6 1_555 1_555
H4 C7 1_555 1_555
C8 C7 1_555 1_555
H5 C8 1_555 1_555
C9 C8 1_555 1_555
C10 C1 1_555 1_555
C11 C9 1_555 1_555
H6 C11 1_555 1_555
C12 C11 1_555 1_555
H7 C12 1_555 1_555
C13 C12 1_555 1_555
H8 C13 1_555 1_555
C14 C10 1_555 1_555
C15 C14 1_555 1_555
C16 C15 1_555 1_555
C17 C16 1_555 1_555
C18 C17 1_555 1_555
H9 C18 1_555 1_555
C19 C18 1_555 1_555
H10 C19 1_555 1_555
C20 C19 1_555 1_555
H11 C20 1_555 1_555
C21 C20 1_555 1_555
H12 C21 1_555 1_555
C22 C17 1_555 1_555
H13 C22 1_555 1_555
C23 C16 1_555 1_555
C24 C23 1_555 1_555
H14 C24 1_555 1_555
C25 C24 1_555 1_555
C26 C25 1_555 1_555
C27 C26 1_555 1_555
C28 C27 1_555 1_555
H15 C28 1_555 1_555
C29 C28 1_555 1_555
H16 C29 1_555 1_555
C30 C29 1_555 1_555
H17 C30 1_555 1_555
C31 C30 1_555 1_555
H18 C31 1_555 1_555
C32 C27 1_555 1_555
H19 C32 1_555 1_555
C33 C26 1_555 1_555
C34 C33 1_555 1_555
C35 C34 1_555 1_555
H20 C35 1_555 1_555
C36 C35 1_555 1_555
H21 C36 1_555 1_555
C37 C36 1_555 1_555
H22 C37 1_555 1_555
C38 C37 1_555 1_555
H23 C38 1_555 1_555
C39 C34 1_555 1_555
H24 C39 1_555 1_555
C40 C33 1_555 1_555
C41 C40 1_555 1_555
C42 C41 1_555 1_555
H25 C42 1_555 1_555
C43 C42 1_555 1_555
H26 C43 1_555 1_555
C44 C43 1_555 1_555
H27 C44 1_555 1_555
C45 C44 1_555 1_555
H28 C45 1_555 1_555
C46 C41 1_555 1_555
H29 C46 1_555 1_555
C47 C40 1_555 1_555
C48 C47 1_555 1_555
C49 C48 1_555 1_555
H30 C49 1_555 1_555
C50 C49 1_555 1_555
H31 C50 1_555 1_555
C51 C50 1_555 1_555
H32 C51 1_555 1_555
C52 C51 1_555 1_555
H33 C52 1_555 1_555
C53 C48 1_555 1_555
H34 C53 1_555 1_555
C54 C25 1_555 1_555
C55 C54 1_555 1_555
H35 C55 1_555 1_555
C56 C23 1_555 1_555
C57 C56 1_555 1_555
C58 C2 1_555 1_555
C59 C57 1_555 1_555
C60 C59 1_555 1_555
H36 C60 1_555 1_555
C61 C60 1_555 1_555
H37 C61 1_555 1_555
C62 C61 1_555 1_555
H38 C62 1_555 1_555
C63 C62 1_555 1_555
H39 C63 1_555 1_555
C64 C59 1_555 1_555
H40 C64 1_555 1_555
Cl1 C65 1_555 1_555
Cl2 C67 1_555 1_555
Cl3 C70 1_555 1_555
C65 C66 1_555 1_555
C66 H41 1_555 1_555
C67 C66 1_555 1_555
C68 C67 1_555 1_555
H42 C68 1_555 1_555
C69 C68 1_555 1_555
H43 C69 1_555 1_555
C70 C65 1_555 1_555
Cl4 C71 1_555 1_555
Cl5 C73 1_555 1_555
Cl6 C76 1_555 1_555
C71 C72 1_555 1_555
C72 H44 1_555 1_555
C73 C72 1_555 1_555
C74 C73 1_555 1_555
H45 C74 1_555 1_555
C75 C74 1_555 1_555
H46 C75 1_555 1_555
C76 C71 1_555 1_555
C5 C6 1_555 1_555
C9 C10 1_555 1_555
C13 C14 1_555 1_555
C15 C58 1_555 1_555
C21 C22 1_555 1_555
C31 C32 1_555 1_555
C38 C39 1_555 1_555
C45 C46 1_555 1_555
C47 C54 1_555 1_555
C52 C53 1_555 1_555
C55 C56 1_555 1_555
C57 C58 1_555 1_555
C63 C64 1_555 1_555
C69 C70 1_555 1_555
C75 C76 1_555 1_555

#END
