
#######################################################################
#
#                 Cambridge Crystallographic Data Centre
#                                CCDC 
#
#######################################################################
#
# If this CIF has been generated from an entry in the Cambridge 
# Structural Database, then it will include bibliographic, chemical, 
# crystal, experimental, refinement or atomic coordinate data resulting 
# from the CCDC's data processing and validation procedures.
#
#######################################################################

data_PUWLUQ
_chemical_formula_moiety         'C24 H19 N3 O2'
_chemical_name_systematic        
(3-methoxyphenyl)(2-(1-methyl-1H-indol-3-yl)-1H-benzimidazol-1-yl)methanone
_chemical_properties_biological  'tubulin polymerization inhibitory activity'
_symmetry_cell_setting           triclinic
_symmetry_space_group_name_H-M   'P -1'
_symmetry_Int_Tables_number      2
_space_group_name_Hall           '-P 1'
loop_
_symmetry_equiv_pos_site_id
_symmetry_equiv_pos_as_xyz
1 x,y,z
2 -x,-y,-z
_cell_length_a                   8.2150(11)
_cell_length_b                   10.1925(17)
_cell_length_c                   11.9396(16)
_cell_angle_alpha                85.409(5)
_cell_angle_beta                 76.051(4)
_cell_angle_gamma                80.847(5)
_cell_volume                     956.977
_cell_formula_units_Z            2
loop_
_atom_site_label
_atom_site_type_symbol
_atom_site_fract_x
_atom_site_fract_y
_atom_site_fract_z
C1 C 0.9809(4) 0.6699(3) 0.0427(2)
H1 H 0.8801 0.7094 0.0186
H2 H 1.0557 0.6193 -0.0185
H3 H 1.0365 0.7387 0.0610
O1 O 0.3977(2) 0.96491(17) 0.41370(16)
N1 N 0.6102(2) 1.06004(18) 0.29554(16)
N2 N 1.0724(2) 0.83774(19) 0.37998(17)
O2 O 0.9370(3) 0.58482(18) 0.14206(17)
C2 C 0.9194(3) 1.0007(2) 0.2972(2)
C3 C 0.5094(3) 1.1725(2) 0.2593(2)
C4 C 1.0725(3) 0.9580(2) 0.21383(19)
C5 C 1.1636(3) 0.8548(2) 0.2678(2)
C6 C 0.7500(3) 0.7703(2) 0.2425(2)
H4 H 0.7708 0.8290 0.1786
C7 C 0.9267(3) 0.9258(2) 0.3959(2)
H5 H 0.8439 0.9337 0.4646
N3 N 0.7850(2) 1.21154(19) 0.22406(18)
C8 C 0.6408(3) 0.8123(2) 0.3449(2)
C9 C 0.6202(3) 1.2632(2) 0.2141(2)
C10 C 0.5413(3) 0.9478(2) 0.3564(2)
C11 C 0.7761(3) 1.0930(2) 0.2720(2)
C12 C 1.1390(3) 0.9955(2) 0.0991(2)
H6 H 1.0805 1.0638 0.0615
C13 C 1.3188(3) 0.7872(3) 0.2102(2)
H7 H 1.3780 0.7183 0.2468
C14 C 0.3385(3) 1.1973(3) 0.2577(2)
H8 H 0.2654 1.1356 0.2875
C15 C 0.8285(3) 0.6381(2) 0.2369(2)
C16 C 0.6102(3) 0.7243(3) 0.4396(2)
H9 H 0.5358 0.7531 0.5079
C17 C 1.2920(3) 0.9298(3) 0.0428(2)
H10 H 1.3380 0.9548 -0.0334
C18 C 0.7971(4) 0.5520(3) 0.3329(3)
H11 H 0.8502 0.4643 0.3287
C19 C 0.5613(4) 1.3862(3) 0.1664(3)
H12 H 0.6339 1.4483 0.1366
C20 C 1.1185(4) 0.7390(3) 0.4659(2)
H13 H 1.0466 0.7597 0.5404
H14 H 1.2345 0.7394 0.4679
H15 H 1.1048 0.6526 0.4462
C21 C 0.2838(4) 1.3195(3) 0.2092(3)
H16 H 0.1705 1.3401 0.2060
C22 C 1.3802(3) 0.8262(3) 0.0979(3)
H17 H 1.4832 0.7828 0.0571
C23 C 0.3924(4) 1.4120(3) 0.1652(3)
H18 H 0.3501 1.4933 0.1342
C24 C 0.6898(4) 0.5938(3) 0.4333(3)
H19 H 0.6699 0.5352 0.4973
loop_
_geom_bond_atom_site_label_1
_geom_bond_atom_site_label_2
_geom_bond_site_symmetry_1
_geom_bond_site_symmetry_2
C1 H1 1_555 1_555
H2 C1 1_555 1_555
H3 C1 1_555 1_555
O1 C10 1_555 1_555
N1 C3 1_555 1_555
N2 C5 1_555 1_555
O2 C1 1_555 1_555
C2 C4 1_555 1_555
C3 C9 1_555 1_555
C4 C5 1_555 1_555
C5 C13 1_555 1_555
C6 H4 1_555 1_555
C7 N2 1_555 1_555
H5 C7 1_555 1_555
N3 C9 1_555 1_555
C8 C6 1_555 1_555
C9 C19 1_555 1_555
C10 N1 1_555 1_555
C11 N1 1_555 1_555
C12 C4 1_555 1_555
H6 C12 1_555 1_555
C13 H7 1_555 1_555
C14 C3 1_555 1_555
H8 C14 1_555 1_555
C15 O2 1_555 1_555
C16 C8 1_555 1_555
H9 C16 1_555 1_555
C17 C12 1_555 1_555
H10 C17 1_555 1_555
C18 C15 1_555 1_555
H11 C18 1_555 1_555
C19 H12 1_555 1_555
C20 N2 1_555 1_555
H13 C20 1_555 1_555
H14 C20 1_555 1_555
H15 C20 1_555 1_555
C21 C14 1_555 1_555
H16 C21 1_555 1_555
C22 C13 1_555 1_555
H17 C22 1_555 1_555
C23 C19 1_555 1_555
H18 C23 1_555 1_555
C24 C16 1_555 1_555
H19 C24 1_555 1_555
C2 C7 1_555 1_555
C2 C11 1_555 1_555
C6 C15 1_555 1_555
N3 C11 1_555 1_555
C8 C10 1_555 1_555
C17 C22 1_555 1_555
C18 C24 1_555 1_555
C21 C23 1_555 1_555

#END
