
#######################################################################
#
#                 Cambridge Crystallographic Data Centre
#                                CCDC 
#
#######################################################################
#
# If this CIF has been generated from an entry in the Cambridge 
# Structural Database, then it will include bibliographic, chemical, 
# crystal, experimental, refinement or atomic coordinate data resulting 
# from the CCDC's data processing and validation procedures.
#
#######################################################################

data_PUWPED
_chemical_formula_moiety         'C40 H46 O2 Si1'
_chemical_name_systematic        
((13-Ethynyl-6,13-dimethoxy-6,13-dihydropentacen-6-yl)ethynyl)(triisobutyl)silane
_symmetry_cell_setting           monoclinic
_symmetry_space_group_name_H-M   'P 21/c'
_symmetry_Int_Tables_number      14
_space_group_name_Hall           '-P 2ybc'
loop_
_symmetry_equiv_pos_site_id
_symmetry_equiv_pos_as_xyz
1 x,y,z
2 -x,1/2+y,1/2-z
3 -x,-y,-z
4 x,1/2-y,1/2+z
_cell_length_a                   9.9409(4)
_cell_length_b                   39.8453(15)
_cell_length_c                   8.6752(3)
_cell_angle_alpha                90
_cell_angle_beta                 91.3179(5)
_cell_angle_gamma                90
_cell_volume                     3435.32
_exptl_crystal_colour            colorless
_exptl_crystal_description       prism
_cell_formula_units_Z            4
_exptl_crystal_recrystallization_method dichloromethane/methanol
loop_
_atom_site_label
_atom_site_type_symbol
_atom_site_fract_x
_atom_site_fract_y
_atom_site_fract_z
Si1 Si 0.35390(5) 0.053262(12) 0.41374(6)
O1 O 0.30553(12) 0.15610(3) 0.07730(13)
O2 O -0.02442(12) 0.19075(3) 0.52443(14)
C1 C 0.22899(17) 0.15320(4) 0.21679(19)
C2 C 0.28342(17) 0.17703(4) 0.34089(19)
C3 C 0.41936(17) 0.17580(4) 0.3755(2)
H1 H 0.4749 0.1613 0.3179
C4 C 0.47846(17) 0.19546(4) 0.4940(2)
C5 C 0.61880(18) 0.19508(5) 0.5290(2)
H2 H 0.6763 0.1809 0.4720
C6 C 0.6717(2) 0.21474(5) 0.6429(2)
H3 H 0.7660 0.2146 0.6632
C7 C 0.58769(19) 0.23539(5) 0.7315(2)
H4 H 0.6256 0.2487 0.8124
C8 C 0.45258(19) 0.23640(5) 0.7017(2)
H5 H 0.3971 0.2504 0.7622
C9 C 0.39374(17) 0.21680(4) 0.5811(2)
C10 C 0.25528(17) 0.21795(4) 0.54247(19)
H6 H 0.1982 0.2322 0.5996
C11 C 0.20040(16) 0.19896(4) 0.42400(19)
C12 C 0.04863(17) 0.20173(4) 0.39158(19)
C13 C -0.00070(17) 0.18198(4) 0.25082(19)
C14 C -0.13237(17) 0.18613(5) 0.2015(2)
H7 H -0.1854 0.2029 0.2486
C15 C -0.19076(18) 0.16634(5) 0.0838(2)
C16 C -0.32732(19) 0.16976(6) 0.0339(2)
H8 H -0.3821 0.1865 0.0786
C17 C -0.3803(2) 0.14932(6) -0.0770(3)
H9 H -0.4719 0.1519 -0.1086
C18 C -0.3014(2) 0.12439(6) -0.1459(2)
H10 H -0.3400 0.1102 -0.2229
C19 C -0.16974(19) 0.12055(5) -0.1025(2)
H11 H -0.1170 0.1038 -0.1503
C20 C -0.11054(18) 0.14125(4) 0.0133(2)
C21 C 0.02470(18) 0.13805(4) 0.0627(2)
H12 H 0.0797 0.1217 0.0150
C22 C 0.07967(17) 0.15772(4) 0.17772(19)
C23 C 0.25574(17) 0.11861(4) 0.27195(19)
C24 C 0.28349(19) 0.09171(4) 0.3263(2)
C25 C 0.2877(2) 0.04662(5) 0.6120(2)
H13 H 0.1884 0.0481 0.6036
H14 H 0.3097 0.0233 0.6421
C26 C 0.3325(3) 0.06910(6) 0.7449(2)
H15 H 0.4329 0.0680 0.7534
C27 C 0.2768(4) 0.05670(7) 0.8965(3)
H16 H 0.3029 0.0332 0.9126
H17 H 0.1785 0.0585 0.8930
H18 H 0.3132 0.0704 0.9814
C28 C 0.2938(3) 0.10518(6) 0.7211(3)
H19 H 0.3248 0.1185 0.8101
H20 H 0.1957 0.1069 0.7099
H21 H 0.3356 0.1137 0.6276
C29 C 0.5401(2) 0.06110(6) 0.4313(3)
H22 H 0.5555 0.0758 0.5219
H23 H 0.5836 0.0393 0.4559
C30 C 0.6156(2) 0.07653(6) 0.2969(3)
H24 H 0.5621 0.0961 0.2573
C31 C 0.7525(3) 0.08935(9) 0.3501(4)
H25 H 0.7990 0.0991 0.2624
H26 H 0.8058 0.0707 0.3927
H27 H 0.7412 0.1065 0.4297
C32 C 0.6308(4) 0.05195(9) 0.1661(4)
H28 H 0.5419 0.0437 0.1331
H29 H 0.6868 0.0330 0.2009
H30 H 0.6735 0.0632 0.0794
C33 C 0.3085(2) 0.01553(5) 0.2951(2)
H31 H 0.3174 0.0216 0.1851
H32 H 0.3757 -0.0022 0.3184
C34 C 0.1693(3) 0.00056(6) 0.3152(3)
H33 H 0.1581 -0.0037 0.4278
C35 C 0.0582(3) 0.02417(7) 0.2631(4)
H34 H 0.0658 0.0453 0.3207
H35 H -0.0293 0.0138 0.2821
H36 H 0.0660 0.0287 0.1526
C36 C 0.1549(3) -0.03306(7) 0.2323(4)
H37 H 0.2215 -0.0489 0.2748
H38 H 0.1698 -0.0299 0.1220
H39 H 0.0642 -0.0420 0.2470
C37 C 0.01226(18) 0.23760(5) 0.3749(2)
C38 C -0.0151(2) 0.26621(5) 0.3636(3)
H40 H -0.0373 0.2893 0.3544
C39 C 0.2942(2) 0.18819(5) 0.0048(2)
H41 H 0.3486 0.1885 -0.0880
H42 H 0.3264 0.2056 0.0763
H43 H 0.1998 0.1925 -0.0238
C40 C 0.0009(2) 0.15707(6) 0.5681(3)
H44 H -0.0517 0.1515 0.6588
H45 H 0.0969 0.1543 0.5928
H46 H -0.0250 0.1421 0.4828
loop_
_geom_bond_atom_site_label_1
_geom_bond_atom_site_label_2
_geom_bond_site_symmetry_1
_geom_bond_site_symmetry_2
Si1 C24 1_555 1_555
O1 C1 1_555 1_555
O2 C12 1_555 1_555
C1 C2 1_555 1_555
C2 C3 1_555 1_555
C3 H1 1_555 1_555
C4 C3 1_555 1_555
C5 C4 1_555 1_555
H2 C5 1_555 1_555
C6 C5 1_555 1_555
H3 C6 1_555 1_555
C7 C6 1_555 1_555
H4 C7 1_555 1_555
C8 C7 1_555 1_555
H5 C8 1_555 1_555
C9 C4 1_555 1_555
C10 C9 1_555 1_555
H6 C10 1_555 1_555
C11 C2 1_555 1_555
C12 C11 1_555 1_555
C13 C12 1_555 1_555
C14 C13 1_555 1_555
H7 C14 1_555 1_555
C15 C14 1_555 1_555
C16 C15 1_555 1_555
H8 C16 1_555 1_555
C17 C16 1_555 1_555
H9 C17 1_555 1_555
C18 C17 1_555 1_555
H10 C18 1_555 1_555
C19 C18 1_555 1_555
H11 C19 1_555 1_555
C20 C15 1_555 1_555
C21 C20 1_555 1_555
H12 C21 1_555 1_555
C22 C1 1_555 1_555
C23 C1 1_555 1_555
C24 C23 1_555 1_555
C25 Si1 1_555 1_555
H13 C25 1_555 1_555
H14 C25 1_555 1_555
C26 C25 1_555 1_555
H15 C26 1_555 1_555
C27 C26 1_555 1_555
H16 C27 1_555 1_555
H17 C27 1_555 1_555
H18 C27 1_555 1_555
C28 C26 1_555 1_555
H19 C28 1_555 1_555
H20 C28 1_555 1_555
H21 C28 1_555 1_555
C29 Si1 1_555 1_555
H22 C29 1_555 1_555
H23 C29 1_555 1_555
C30 C29 1_555 1_555
H24 C30 1_555 1_555
C31 C30 1_555 1_555
H25 C31 1_555 1_555
H26 C31 1_555 1_555
H27 C31 1_555 1_555
C32 C30 1_555 1_555
H28 C32 1_555 1_555
H29 C32 1_555 1_555
H30 C32 1_555 1_555
C33 Si1 1_555 1_555
H31 C33 1_555 1_555
H32 C33 1_555 1_555
C34 C33 1_555 1_555
H33 C34 1_555 1_555
C35 C34 1_555 1_555
H34 C35 1_555 1_555
H35 C35 1_555 1_555
H36 C35 1_555 1_555
C36 C34 1_555 1_555
H37 C36 1_555 1_555
H38 C36 1_555 1_555
H39 C36 1_555 1_555
C37 C12 1_555 1_555
C38 C37 1_555 1_555
H40 C38 1_555 1_555
C39 O1 1_555 1_555
H41 C39 1_555 1_555
H42 C39 1_555 1_555
H43 C39 1_555 1_555
C40 O2 1_555 1_555
H44 C40 1_555 1_555
H45 C40 1_555 1_555
H46 C40 1_555 1_555
C8 C9 1_555 1_555
C10 C11 1_555 1_555
C13 C22 1_555 1_555
C19 C20 1_555 1_555
C21 C22 1_555 1_555

#END
