
#######################################################################
#
#                 Cambridge Crystallographic Data Centre
#                                CCDC 
#
#######################################################################
#
# If this CIF has been generated from an entry in the Cambridge 
# Structural Database, then it will include bibliographic, chemical, 
# crystal, experimental, refinement or atomic coordinate data resulting 
# from the CCDC's data processing and validation procedures.
#
#######################################################################

data_PUXNOL
_chemical_formula_moiety         'C16 H16 O3'
_chemical_name_systematic        3-(2-Methoxy-1-naphthalenyl)pentane-2,4-dione
_symmetry_cell_setting           monoclinic
_symmetry_space_group_name_H-M   'C 2'
_symmetry_Int_Tables_number      5
_space_group_name_Hall           'C 2y'
loop_
_symmetry_equiv_pos_site_id
_symmetry_equiv_pos_as_xyz
1 x,y,z
2 -x,y,-z
3 1/2+x,1/2+y,z
4 1/2-x,1/2+y,-z
_cell_length_a                   14.369(3)
_cell_length_b                   7.480(1)
_cell_length_c                   15.878(2)
_cell_angle_alpha                90
_cell_angle_beta                 128.46(1)
_cell_angle_gamma                90
_cell_volume                     1336.32
_chemical_melting_point          131-132deg.C
_cell_formula_units_Z            4
loop_
_atom_site_label
_atom_site_type_symbol
_atom_site_fract_x
_atom_site_fract_y
_atom_site_fract_z
O1 O 0.2099(3) 0.6609(5) 0.8142(2)
O2 O 0.0942(3) 1.0197(5) 0.9414(2)
O3 O 0.1461(3) 0.7425(6) 1.0454(2)
C1 C 0.2988(4) 0.6124(8) 0.8044(4)
C2 C 0.0991(4) 0.5890(7) 0.7455(3)
C3 C 0.0646(5) 0.4817(8) 0.6580(4)
C4 C -0.0480(5) 0.4132(8) 0.5906(4)
C5 C -0.1312(4) 0.4505(7) 0.6085(3)
C6 C -0.2479(8) 0.3813(8) 0.5399(4)
C7 C -0.3287(5) 0.419(1) 0.5548(4)
C8 C -0.2942(5) 0.523(1) 0.6425(4)
C9 C -0.1809(4) 0.5929(7) 0.7143(3)
C10 C -0.0962(4) 0.5578(7) 0.6977(3)
C11 C 0.0213(4) 0.6281(6) 0.7666(3)
C12 C 0.0197(7) 1.029(1) 0.7622(5)
C13 C 0.0604(4) 0.9212(7) 0.8588(3)
C14 C 0.0631(4) 0.7384(7) 0.8629(3)
C15 C 0.1090(4) 0.6543(7) 0.9627(3)
C16 C 0.1169(7) 0.4549(9) 0.9729(5)
loop_
_geom_bond_atom_site_label_1
_geom_bond_atom_site_label_2
_geom_bond_site_symmetry_1
_geom_bond_site_symmetry_2
O1 C1 1_555 1_555
O2 C13 1_555 1_555
O3 C15 1_555 1_555
C2 O1 1_555 1_555
C3 C2 1_555 1_555
C4 C3 1_555 1_555
C5 C4 1_555 1_555
C6 C5 1_555 1_555
C7 C6 1_555 1_555
C8 C7 1_555 1_555
C9 C8 1_555 1_555
C10 C5 1_555 1_555
C11 C2 1_555 1_555
C12 C13 1_555 1_555
C13 C14 1_555 1_555
C14 C11 1_555 1_555
C15 C14 1_555 1_555
C16 C15 1_555 1_555
C9 C10 1_555 1_555
C10 C11 1_555 1_555

#END
