
#######################################################################
#
#                 Cambridge Crystallographic Data Centre
#                                CCDC 
#
#######################################################################
#
# If this CIF has been generated from an entry in the Cambridge 
# Structural Database, then it will include bibliographic, chemical, 
# crystal, experimental, refinement or atomic coordinate data resulting 
# from the CCDC's data processing and validation procedures.
#
#######################################################################

data_PUYFIZ
_chemical_formula_moiety         'C49 H43 B1 N2 O2,C1 H1 Cl3'
_chemical_name_systematic        
"8a-(4'-(3,6-Di-t-butyl-9H-carbazol-9-yl)biphenyl-4-yl)-8aH-8,9-dioxa-13\L^5^-aza-8a\l^5^-borabenzo[fg]tetracene chloroform solvate"
_symmetry_cell_setting           monoclinic
_symmetry_space_group_name_H-M   'P 21/c'
_symmetry_Int_Tables_number      14
_space_group_name_Hall           '-P 2ybc'
loop_
_symmetry_equiv_pos_site_id
_symmetry_equiv_pos_as_xyz
1 x,y,z
2 -x,1/2+y,1/2-z
3 -x,-y,-z
4 x,1/2-y,1/2+z
_cell_length_a                   32.791(7)
_cell_length_b                   11.692(2)
_cell_length_c                   11.615(2)
_cell_angle_alpha                90
_cell_angle_beta                 90.69(3)
_cell_angle_gamma                90
_cell_volume                     4452.78
_exptl_crystal_colour            yellow
_exptl_crystal_description       block
_cell_formula_units_Z            4
loop_
_atom_site_label
_atom_site_type_symbol
_atom_site_fract_x
_atom_site_fract_y
_atom_site_fract_z
B1 B 0.1353(2) 1.0637(5) 1.2418(6)
C1 C 0.08070(17) 1.1023(6) 1.1108(5)
C2 C 0.0548(2) 1.0482(8) 1.0308(7)
H1 H 0.0468 0.9727 1.0407
C3 C 0.0419(2) 1.1106(10) 0.9373(7)
H2 H 0.0241 1.0771 0.8842
C4 C 0.0541(2) 1.2185(10) 0.9204(6)
H3 H 0.0455 1.2567 0.8543
C5 C 0.0786(2) 1.2733(7) 0.9966(6)
H4 H 0.0857 1.3493 0.9845
C6 C 0.09339(17) 1.2141(6) 1.0951(5)
C7 C 0.11972(17) 1.2692(5) 1.1804(5)
C8 C 0.1220(2) 1.3846(5) 1.1920(5)
H5 H 0.1069 1.4324 1.1438
C9 C 0.1472(3) 1.4296(6) 1.2761(6)
H6 H 0.1500 1.5085 1.2826
C10 C 0.1684(2) 1.3593(6) 1.3509(6)
H7 H 0.1849 1.3897 1.4088
C11 C 0.16439(18) 1.2429(5) 1.3376(5)
C12 C 0.1861(2) 1.1600(6) 1.4128(5)
C13 C 0.2199(2) 1.1906(8) 1.4801(6)
H8 H 0.2304 1.2643 1.4751
C14 C 0.2377(3) 1.1130(12) 1.5536(8)
H9 H 0.2604 1.1336 1.5979
C15 C 0.2221(4) 1.0064(11) 1.5610(8)
H10 H 0.2338 0.9540 1.6117
C16 C 0.1896(3) 0.9747(8) 1.4959(7)
H11 H 0.1795 0.9007 1.5027
C17 C 0.1710(2) 1.0492(6) 1.4197(5)
C18 C 0.16763(15) 1.0139(4) 1.1530(4)
C19 C 0.20773(16) 1.0560(5) 1.1403(4)
H12 H 0.2162 1.1192 1.1830
C20 C 0.23485(15) 1.0044(4) 1.0650(4)
H13 H 0.2611 1.0337 1.0590
C21 C 0.22387(15) 0.9115(4) 0.9994(4)
C22 C 0.18430(18) 0.8701(5) 1.0129(5)
H14 H 0.1759 0.8064 0.9710
C23 C 0.15739(18) 0.9213(5) 1.0867(5)
H15 H 0.1311 0.8917 1.0917
C24 C 0.25234(16) 0.8534(5) 0.9194(4)
C25 C 0.29428(18) 0.8634(5) 0.9335(5)
H16 H 0.3046 0.9128 0.9895
C26 C 0.32069(17) 0.8028(5) 0.8678(5)
H17 H 0.3486 0.8107 0.8798
C27 C 0.30629(17) 0.7300(5) 0.7839(5)
C28 C 0.26485(19) 0.7256(5) 0.7641(6)
H18 H 0.2548 0.6821 0.7030
C29 C 0.23805(19) 0.7836(6) 0.8323(5)
H19 H 0.2101 0.7758 0.8197
C30 C 0.36452(17) 0.6964(5) 0.6507(5)
C31 C 0.3731(2) 0.8050(5) 0.6126(6)
H20 H 0.3573 0.8674 0.6342
C32 C 0.4067(2) 0.8178(5) 0.5392(6)
H21 H 0.4132 0.8904 0.5125
C33 C 0.43046(17) 0.7257(5) 0.5053(5)
C34 C 0.42101(16) 0.6182(5) 0.5459(5)
H22 H 0.4370 0.5561 0.5251
C35 C 0.38786(16) 0.6011(5) 0.6175(4)
C36 C 0.37026(16) 0.5018(5) 0.6724(4)
C37 C 0.37983(16) 0.3868(5) 0.6761(5)
H23 H 0.4019 0.3593 0.6348
C38 C 0.35687(18) 0.3127(5) 0.7409(5)
C39 C 0.32431(19) 0.3563(6) 0.8022(5)
H24 H 0.3089 0.3060 0.8458
C40 C 0.31384(18) 0.4685(5) 0.8018(5)
H25 H 0.2918 0.4942 0.8444
C41 C 0.33648(16) 0.5441(5) 0.7370(5)
C42 C 0.4680(2) 0.7448(8) 0.4323(7)
C43 C 0.4657(3) 0.8419(10) 0.3559(9)
H26 H 0.4604 0.9098 0.3997
H27 H 0.4441 0.8304 0.3006
H28 H 0.4911 0.8502 0.3165
C44 C 0.5046(3) 0.7495(11) 0.5052(9)
H29 H 0.5021 0.6959 0.5674
H30 H 0.5078 0.8252 0.5359
H31 H 0.5281 0.7303 0.4603
C45 C 0.4772(3) 0.6390(10) 0.3547(10)
H32 H 0.4585 0.6378 0.2906
H33 H 0.4743 0.5702 0.3989
H34 H 0.5046 0.6441 0.3270
C46 C 0.3689(3) 0.1855(7) 0.7488(9)
C47 C 0.3402(3) 0.1171(8) 0.8152(10)
H35 H 0.3389 0.0412 0.7838
H36 H 0.3137 0.1516 0.8115
H37 H 0.3494 0.1134 0.8940
C48 C 0.4111(3) 0.1779(9) 0.7956(11)
H38 H 0.4113 0.1996 0.8753
H39 H 0.4285 0.2283 0.7533
H40 H 0.4208 0.1007 0.7885
C49 C 0.3739(4) 0.1386(7) 0.6290(9)
H41 H 0.3611 0.0649 0.6237
H42 H 0.4024 0.1314 0.6127
H43 H 0.3614 0.1897 0.5744
N1 N 0.14034(14) 1.2014(4) 1.2547(4)
N2 N 0.33327(14) 0.6600(4) 0.7219(4)
O1 O 0.09336(12) 1.0427(4) 1.2050(4)
O2 O 0.13866(14) 1.0155(3) 1.3561(3)
C50 C 0.0612(3) 0.8415(11) 0.3803(8)
H44 H 0.0765 0.9067 0.3501
Cl1 Cl 0.01471(15) 0.8581(12) 0.3469(5)
Cl2 Cl 0.07018(13) 0.8329(4) 0.5235(2)
Cl3 Cl 0.0782(5) 0.7241(6) 0.3183(5)
loop_
_geom_bond_atom_site_label_1
_geom_bond_atom_site_label_2
_geom_bond_site_symmetry_1
_geom_bond_site_symmetry_2
B1 C18 1_555 1_555
C1 C2 1_555 1_555
C2 H1 1_555 1_555
C3 C2 1_555 1_555
H2 C3 1_555 1_555
C4 C3 1_555 1_555
H3 C4 1_555 1_555
C5 C4 1_555 1_555
H4 C5 1_555 1_555
C6 C1 1_555 1_555
C7 C6 1_555 1_555
C8 C7 1_555 1_555
H5 C8 1_555 1_555
C9 C8 1_555 1_555
H6 C9 1_555 1_555
C10 C9 1_555 1_555
H7 C10 1_555 1_555
C11 C10 1_555 1_555
C12 C11 1_555 1_555
C13 C12 1_555 1_555
H8 C13 1_555 1_555
C14 C13 1_555 1_555
H9 C14 1_555 1_555
C15 C14 1_555 1_555
H10 C15 1_555 1_555
C16 C15 1_555 1_555
H11 C16 1_555 1_555
C17 C12 1_555 1_555
C18 C19 1_555 1_555
C19 H12 1_555 1_555
C20 C19 1_555 1_555
H13 C20 1_555 1_555
C21 C20 1_555 1_555
C22 C21 1_555 1_555
H14 C22 1_555 1_555
C23 C18 1_555 1_555
H15 C23 1_555 1_555
C24 C21 1_555 1_555
C25 C24 1_555 1_555
H16 C25 1_555 1_555
C26 C25 1_555 1_555
H17 C26 1_555 1_555
C27 C26 1_555 1_555
C28 C27 1_555 1_555
H18 C28 1_555 1_555
C29 C24 1_555 1_555
H19 C29 1_555 1_555
C30 C31 1_555 1_555
C31 H20 1_555 1_555
C32 C31 1_555 1_555
H21 C32 1_555 1_555
C33 C32 1_555 1_555
C34 C33 1_555 1_555
H22 C34 1_555 1_555
C35 C30 1_555 1_555
C36 C35 1_555 1_555
C37 C36 1_555 1_555
H23 C37 1_555 1_555
C38 C37 1_555 1_555
C39 C38 1_555 1_555
H24 C39 1_555 1_555
C40 C39 1_555 1_555
H25 C40 1_555 1_555
C41 C36 1_555 1_555
C42 C33 1_555 1_555
C43 C42 1_555 1_555
H26 C43 1_555 1_555
H27 C43 1_555 1_555
H28 C43 1_555 1_555
C44 C42 1_555 1_555
H29 C44 1_555 1_555
H30 C44 1_555 1_555
H31 C44 1_555 1_555
C45 C42 1_555 1_555
H32 C45 1_555 1_555
H33 C45 1_555 1_555
H34 C45 1_555 1_555
C46 C38 1_555 1_555
C47 C46 1_555 1_555
H35 C47 1_555 1_555
H36 C47 1_555 1_555
H37 C47 1_555 1_555
C48 C46 1_555 1_555
H38 C48 1_555 1_555
H39 C48 1_555 1_555
H40 C48 1_555 1_555
C49 C46 1_555 1_555
H41 C49 1_555 1_555
H42 C49 1_555 1_555
H43 C49 1_555 1_555
C50 H44 1_555 1_555
Cl1 C50 1_555 1_555
Cl2 C50 1_555 1_555
Cl3 C50 1_555 1_555
N1 B1 1_555 1_555
N2 C27 1_555 1_555
O1 B1 1_555 1_555
O2 B1 1_555 1_555
C1 O1 1_555 1_555
C5 C6 1_555 1_555
C7 N1 1_555 1_555
C11 N1 1_555 1_555
C16 C17 1_555 1_555
C17 O2 1_555 1_555
C22 C23 1_555 1_555
C28 C29 1_555 1_555
C30 N2 1_555 1_555
C34 C35 1_555 1_555
C40 C41 1_555 1_555
C41 N2 1_555 1_555

#END
