
#######################################################################
#
#                 Cambridge Crystallographic Data Centre
#                                CCDC 
#
#######################################################################
#
# If this CIF has been generated from an entry in the Cambridge 
# Structural Database, then it will include bibliographic, chemical, 
# crystal, experimental, refinement or atomic coordinate data resulting 
# from the CCDC's data processing and validation procedures.
#
#######################################################################

data_PUYREG
_chemical_formula_moiety         'C44 H58 N2 P2'
_chemical_name_systematic        
(S)-2,2'-bis(Dicyclohexylphosphinoamino)-1,1'-binaphthyl
_symmetry_cell_setting           monoclinic
_symmetry_space_group_name_H-M   'P 21'
_symmetry_Int_Tables_number      4
_space_group_name_Hall           'P 2yb'
loop_
_symmetry_equiv_pos_site_id
_symmetry_equiv_pos_as_xyz
1 x,y,z
2 -x,1/2+y,-z
_cell_length_a                   10.316(3)
_cell_length_b                   16.988(5)
_cell_length_c                   11.635(3)
_cell_angle_alpha                90
_cell_angle_beta                 97.971(7)
_cell_angle_gamma                90
_cell_volume                     2019.31
_exptl_crystal_colour            colorless
_exptl_crystal_description       prism
_cell_formula_units_Z            2
_exptl_crystal_recrystallization_method ethanol/dichloromethane
loop_
_atom_site_label
_atom_site_type_symbol
_atom_site_fract_x
_atom_site_fract_y
_atom_site_fract_z
P1 P 0.21560(10) 0.16590(6) 0.30245(8)
P2 P 0.56995(10) -0.12912(8) 0.20232(9)
N1 N 0.2423(3) 0.06875(17) 0.2831(2)
H1 H 0.2920 0.0570 0.2321
N2 N 0.4183(3) -0.0942(2) 0.2207(2)
H2 H 0.4069 -0.0807 0.2899
C1 C 0.3126(3) -0.0856(2) 0.1346(3)
C2 C 0.3318(4) -0.0839(2) 0.0159(3)
H3 H 0.4162 -0.0879 -0.0030
C3 C 0.2298(4) -0.0765(3) -0.0701(3)
H4 H 0.2455 -0.0755 -0.1469
C4 C 0.0994(4) -0.0702(2) -0.0452(3)
C5 C -0.0085(4) -0.0643(2) -0.1326(3)
H5 H 0.0054 -0.0635 -0.2099
C6 C -0.1334(4) -0.0595(3) -0.1070(3)
H6 H -0.2035 -0.0553 -0.1662
C7 C -0.1548(4) -0.0611(3) 0.0085(3)
H7 H -0.2400 -0.0592 0.0261
C8 C -0.0524(4) -0.0654(2) 0.0966(3)
H8 H -0.0691 -0.0654 0.1732
C9 C 0.0781(3) -0.0699(2) 0.0736(3)
C10 C 0.1870(3) -0.0755(2) 0.1628(3)
C11 C 0.1689(3) -0.0669(2) 0.2888(3)
C12 C 0.1252(3) -0.1315(2) 0.3519(3)
C13 C 0.1026(4) -0.2064(2) 0.3040(3)
H9 H 0.1192 -0.2153 0.2286
C14 C 0.0566(4) -0.2673(3) 0.3644(4)
H10 H 0.0424 -0.3165 0.3301
C15 C 0.0312(4) -0.2545(3) 0.4789(4)
H11 H -0.0005 -0.2953 0.5204
C16 C 0.0529(4) -0.1838(3) 0.5275(3)
H12 H 0.0349 -0.1764 0.6029
C17 C 0.1018(3) -0.1199(3) 0.4698(3)
C18 C 0.1280(4) -0.0451(3) 0.5175(3)
H13 H 0.1140 -0.0366 0.5938
C19 C 0.1729(4) 0.0156(2) 0.4586(3)
H14 H 0.1904 0.0639 0.4951
C20 C 0.1934(3) 0.0056(2) 0.3400(3)
C21 C 0.1015(4) 0.1917(2) 0.1698(3)
H15 H 0.0975 0.2493 0.1666
C22 C -0.0354(4) 0.1633(3) 0.1829(4)
H16 H -0.0613 0.1852 0.2533
H17 H -0.0351 0.1064 0.1898
C23 C -0.1340(5) 0.1878(3) 0.0793(5)
H18 H -0.2189 0.1656 0.0875
H19 H -0.1425 0.2447 0.0785
C24 C -0.0935(5) 0.1607(4) -0.0353(5)
H20 H -0.0937 0.1036 -0.0384
H21 H -0.1559 0.1799 -0.0992
C25 C 0.0406(5) 0.1910(4) -0.0472(4)
H22 H 0.0387 0.2480 -0.0505
H23 H 0.0667 0.1717 -0.1191
C26 C 0.1410(4) 0.1644(3) 0.0551(3)
H24 H 0.1477 0.1075 0.0550
H25 H 0.2262 0.1859 0.0465
C27 C 0.3726(4) 0.2048(2) 0.2703(3)
H26 H 0.3986 0.1743 0.2057
C28 C 0.3661(4) 0.2912(3) 0.2351(4)
H27 H 0.3068 0.2967 0.1632
H28 H 0.3305 0.3213 0.2943
C29 C 0.4976(5) 0.3249(3) 0.2188(4)
H29 H 0.5278 0.2997 0.1526
H30 H 0.4878 0.3806 0.2019
C30 C 0.5986(5) 0.3139(4) 0.3237(5)
H31 H 0.5747 0.3448 0.3876
H32 H 0.6828 0.3325 0.3067
C31 C 0.6087(5) 0.2286(4) 0.3577(5)
H33 H 0.6686 0.2233 0.4293
H34 H 0.6445 0.1991 0.2980
C32 C 0.4769(4) 0.1939(3) 0.3746(4)
H35 H 0.4877 0.1381 0.3908
H36 H 0.4474 0.2185 0.4415
C33 C 0.6714(4) -0.0829(3) 0.3255(3)
H37 H 0.7567 -0.1092 0.3326
C34 C 0.6966(4) 0.0039(3) 0.2998(4)
H38 H 0.7284 0.0080 0.2253
H39 H 0.6151 0.0329 0.2949
C35 C 0.7964(5) 0.0402(3) 0.3933(5)
H40 H 0.8073 0.0956 0.3763
H41 H 0.8803 0.0144 0.3936
C36 C 0.7520(6) 0.0317(3) 0.5127(5)
H42 H 0.8202 0.0516 0.5713
H43 H 0.6744 0.0636 0.5152
C37 C 0.7223(6) -0.0513(3) 0.5406(4)
H44 H 0.6857 -0.0528 0.6130
H45 H 0.8028 -0.0816 0.5509
C38 C 0.6253(5) -0.0890(3) 0.4445(4)
H46 H 0.6139 -0.1440 0.4630
H47 H 0.5410 -0.0632 0.4417
C39 C 0.5611(4) -0.2328(3) 0.2497(4)
H48 H 0.5386 -0.2331 0.3288
C40 C 0.6902(5) -0.2727(4) 0.2514(6)
H49 H 0.7541 -0.2471 0.3084
H50 H 0.7191 -0.2668 0.1761
C41 C 0.6844(6) -0.3601(4) 0.2806(7)
H51 H 0.7684 -0.3840 0.2738
H52 H 0.6688 -0.3658 0.3605
C42 C 0.5785(7) -0.4035(4) 0.2024(6)
H53 H 0.6014 -0.4058 0.1244
H54 H 0.5722 -0.4570 0.2301
C43 C 0.4514(7) -0.3642(4) 0.1999(7)
H55 H 0.4213 -0.3709 0.2746
H56 H 0.3883 -0.3894 0.1418
C44 C 0.4564(5) -0.2768(4) 0.1726(6)
H57 H 0.4711 -0.2705 0.0926
H58 H 0.3722 -0.2535 0.1802
loop_
_geom_bond_atom_site_label_1
_geom_bond_atom_site_label_2
_geom_bond_site_symmetry_1
_geom_bond_site_symmetry_2
P1 N1 1_555 1_555
P2 N2 1_555 1_555
N1 H1 1_555 1_555
N2 H2 1_555 1_555
C1 N2 1_555 1_555
C2 C1 1_555 1_555
H3 C2 1_555 1_555
C3 C2 1_555 1_555
H4 C3 1_555 1_555
C4 C3 1_555 1_555
C5 C4 1_555 1_555
H5 C5 1_555 1_555
C6 C5 1_555 1_555
H6 C6 1_555 1_555
C7 C6 1_555 1_555
H7 C7 1_555 1_555
C8 C7 1_555 1_555
H8 C8 1_555 1_555
C9 C4 1_555 1_555
C10 C1 1_555 1_555
C11 C10 1_555 1_555
C12 C11 1_555 1_555
C13 C12 1_555 1_555
H9 C13 1_555 1_555
C14 C13 1_555 1_555
H10 C14 1_555 1_555
C15 C14 1_555 1_555
H11 C15 1_555 1_555
C16 C15 1_555 1_555
H12 C16 1_555 1_555
C17 C12 1_555 1_555
C18 C17 1_555 1_555
H13 C18 1_555 1_555
C19 C18 1_555 1_555
H14 C19 1_555 1_555
C20 N1 1_555 1_555
C21 P1 1_555 1_555
H15 C21 1_555 1_555
C22 C21 1_555 1_555
H16 C22 1_555 1_555
H17 C22 1_555 1_555
C23 C22 1_555 1_555
H18 C23 1_555 1_555
H19 C23 1_555 1_555
C24 C23 1_555 1_555
H20 C24 1_555 1_555
H21 C24 1_555 1_555
C25 C24 1_555 1_555
H22 C25 1_555 1_555
H23 C25 1_555 1_555
C26 C21 1_555 1_555
H24 C26 1_555 1_555
H25 C26 1_555 1_555
C27 P1 1_555 1_555
H26 C27 1_555 1_555
C28 C27 1_555 1_555
H27 C28 1_555 1_555
H28 C28 1_555 1_555
C29 C28 1_555 1_555
H29 C29 1_555 1_555
H30 C29 1_555 1_555
C30 C29 1_555 1_555
H31 C30 1_555 1_555
H32 C30 1_555 1_555
C31 C30 1_555 1_555
H33 C31 1_555 1_555
H34 C31 1_555 1_555
C32 C27 1_555 1_555
H35 C32 1_555 1_555
H36 C32 1_555 1_555
C33 P2 1_555 1_555
H37 C33 1_555 1_555
C34 C33 1_555 1_555
H38 C34 1_555 1_555
H39 C34 1_555 1_555
C35 C34 1_555 1_555
H40 C35 1_555 1_555
H41 C35 1_555 1_555
C36 C35 1_555 1_555
H42 C36 1_555 1_555
H43 C36 1_555 1_555
C37 C36 1_555 1_555
H44 C37 1_555 1_555
H45 C37 1_555 1_555
C38 C33 1_555 1_555
H46 C38 1_555 1_555
H47 C38 1_555 1_555
C39 P2 1_555 1_555
H48 C39 1_555 1_555
C40 C39 1_555 1_555
H49 C40 1_555 1_555
H50 C40 1_555 1_555
C41 C40 1_555 1_555
H51 C41 1_555 1_555
H52 C41 1_555 1_555
C42 C41 1_555 1_555
H53 C42 1_555 1_555
H54 C42 1_555 1_555
C43 C42 1_555 1_555
H55 C43 1_555 1_555
H56 C43 1_555 1_555
C44 C39 1_555 1_555
H57 C44 1_555 1_555
H58 C44 1_555 1_555
C8 C9 1_555 1_555
C9 C10 1_555 1_555
C11 C20 1_555 1_555
C16 C17 1_555 1_555
C19 C20 1_555 1_555
C25 C26 1_555 1_555
C31 C32 1_555 1_555
C37 C38 1_555 1_555
C43 C44 1_555 1_555

#END
