
#######################################################################
#
#                 Cambridge Crystallographic Data Centre
#                                CCDC 
#
#######################################################################
#
# If this CIF has been generated from an entry in the Cambridge 
# Structural Database, then it will include bibliographic, chemical, 
# crystal, experimental, refinement or atomic coordinate data resulting 
# from the CCDC's data processing and validation procedures.
#
#######################################################################

data_PUYRAE
_chemical_compound_source        'empty capsules of Michelia champaca fruits'
_chemical_name_common            '( )-N-acetylanonaine'
_chemical_formula_moiety         'C19 H17 N1 O3'
_chemical_name_systematic        
1-(5,6,7a,8-tetrahydro-7H-[1,3]benzodioxolo[6,5,4-de]benzo[g]quinolin-7-yl)ethanone
_symmetry_cell_setting           orthorhombic
_symmetry_space_group_name_H-M   'P 21 21 21'
_symmetry_Int_Tables_number      19
_space_group_name_Hall           'P 2ac 2ab'
loop_
_symmetry_equiv_pos_site_id
_symmetry_equiv_pos_as_xyz
1 x,y,z
2 1/2-x,-y,1/2+z
3 1/2+x,1/2-y,-z
4 -x,1/2+y,1/2-z
_cell_length_a                   6.0773(2)
_cell_length_b                   11.6053(5)
_cell_length_c                   20.9906(9)
_cell_angle_alpha                90
_cell_angle_beta                 90
_cell_angle_gamma                90
_cell_volume                     1480.44
_exptl_crystal_colour            colorless
_exptl_crystal_description       SLAB
_cell_formula_units_Z            4
loop_
_atom_site_label
_atom_site_type_symbol
_atom_site_fract_x
_atom_site_fract_y
_atom_site_fract_z
O1 O 0.3562(4) 0.33498(17) 0.63511(10)
O2 O 0.6239(4) 0.28488(16) 0.56214(11)
O3 O 0.4814(3) 0.96860(16) 0.59906(10)
C1 C 0.6707(5) 0.9341(2) 0.59160(15)
N1 N 0.7312(4) 0.8268(2) 0.60953(12)
C2 C 0.5626(5) 0.7486(2) 0.63444(15)
H1 H 0.4204 0.7712 0.6140
C3 C 0.6056(4) 0.6243(2) 0.61594(12)
C4 C 0.7721(4) 0.5923(2) 0.57443(13)
C5 C 0.9418(5) 0.6808(3) 0.55401(15)
H2 H 1.0882 0.6438 0.5508
H3 H 0.9027 0.7117 0.5115
C6 C 0.9508(4) 0.7777(2) 0.60167(16)
H4 H 1.0048 0.7483 0.6431
H5 H 1.0538 0.8379 0.5866
C7 C 0.4573(4) 0.5425(2) 0.64243(12)
C8 C 0.3420(4) 0.6822(2) 0.72606(12)
C9 C 0.3025(4) 0.5774(2) 0.69369(12)
C10 C 0.5291(5) 0.7584(2) 0.70590(14)
H6 H 0.6652 0.7351 0.7284
H7 H 0.4961 0.8393 0.7173
C11 C 0.2033(5) 0.7135(3) 0.77536(14)
H8 H 0.2290 0.7838 0.7973
C12 C 0.0291(6) 0.6452(3) 0.79338(16)
H9 H -0.0628 0.6681 0.8277
C13 C -0.0125(6) 0.5427(3) 0.76131(16)
H10 H -0.1339 0.4959 0.7733
C14 C 0.1232(5) 0.5093(3) 0.71196(14)
H11 H 0.0947 0.4391 0.6901
C15 C 0.4783(5) 0.4320(2) 0.61941(12)
C16 C 0.6383(5) 0.4007(2) 0.57591(13)
C17 C 0.7908(5) 0.4772(2) 0.55396(14)
H12 H 0.9052 0.4538 0.5260
C18 C 0.4215(6) 0.2486(3) 0.58996(17)
H13 H 0.4409 0.1734 0.6116
H14 H 0.3074 0.2398 0.5566
C19 C 0.8414(6) 1.0084(3) 0.55971(17)
H15 H 0.7784 1.0844 0.5506
H16 H 0.8882 0.9721 0.5198
H17 H 0.9685 1.0172 0.5880
loop_
_geom_bond_atom_site_label_1
_geom_bond_atom_site_label_2
_geom_bond_site_symmetry_1
_geom_bond_site_symmetry_2
O1 C15 1_555 1_555
O2 C16 1_555 1_555
O3 C1 1_555 1_555
C1 N1 1_555 1_555
N1 C2 1_555 1_555
C2 H1 1_555 1_555
C3 C2 1_555 1_555
C4 C3 1_555 1_555
C5 C4 1_555 1_555
H2 C5 1_555 1_555
H3 C5 1_555 1_555
C6 N1 1_555 1_555
H4 C6 1_555 1_555
H5 C6 1_555 1_555
C7 C3 1_555 1_555
C8 C9 1_555 1_555
C9 C7 1_555 1_555
C10 C2 1_555 1_555
H6 C10 1_555 1_555
H7 C10 1_555 1_555
C11 C8 1_555 1_555
H8 C11 1_555 1_555
C12 C11 1_555 1_555
H9 C12 1_555 1_555
C13 C12 1_555 1_555
H10 C13 1_555 1_555
C14 C9 1_555 1_555
H11 C14 1_555 1_555
C15 C7 1_555 1_555
C16 C15 1_555 1_555
C17 C4 1_555 1_555
H12 C17 1_555 1_555
C18 O1 1_555 1_555
H13 C18 1_555 1_555
H14 C18 1_555 1_555
C19 C1 1_555 1_555
H15 C19 1_555 1_555
H16 C19 1_555 1_555
H17 C19 1_555 1_555
O2 C18 1_555 1_555
C5 C6 1_555 1_555
C8 C10 1_555 1_555
C13 C14 1_555 1_555
C16 C17 1_555 1_555

#END
