
#######################################################################
#
#                 Cambridge Crystallographic Data Centre
#                                CCDC 
#
#######################################################################
#
# If this CIF has been generated from an entry in the Cambridge 
# Structural Database, then it will include bibliographic, chemical, 
# crystal, experimental, refinement or atomic coordinate data resulting 
# from the CCDC's data processing and validation procedures.
#
#######################################################################

data_PUYXOW
_chemical_formula_moiety         'C24 H30 N2 O2'
_chemical_name_systematic        
N-((3-Acetamido-1,3-bis(4-ethylphenyl)butenyl))acetamide
_symmetry_cell_setting           monoclinic
_symmetry_space_group_name_H-M   'P 21/c'
_symmetry_Int_Tables_number      14
_space_group_name_Hall           '-P 2ybc'
loop_
_symmetry_equiv_pos_site_id
_symmetry_equiv_pos_as_xyz
1 x,y,z
2 x,1/2-y,1/2+z
3 -x,-y,-z
4 -x,1/2+y,1/2-z
_cell_length_a                   20.773(4)
_cell_length_b                   6.5109(10)
_cell_length_c                   17.063(3)
_cell_angle_alpha                90
_cell_angle_beta                 101.918(4)
_cell_angle_gamma                90
_cell_volume                     2258.04
_exptl_crystal_colour            colorless
_exptl_crystal_description       prism
_cell_formula_units_Z            4
_exptl_crystal_recrystallization_method 'ethyl acetate/hexane'
loop_
_atom_site_label
_atom_site_type_symbol
_atom_site_fract_x
_atom_site_fract_y
_atom_site_fract_z
O1 O 0.20514(8) 0.5982(3) 0.16008(10)
O2 O 0.26019(10) 0.3021(3) 0.43568(10)
N1 N 0.24293(10) 0.3338(3) 0.09586(11)
H1 H 0.2463 0.2884 0.0495
N2 N 0.22888(10) 0.4051(3) 0.30674(12)
H2 H 0.2263 0.5097 0.2755
C1 C 0.17535(12) 0.5945(4) 0.01664(13)
H3 H 0.1798 0.7412 0.0166
H4 H 0.1296 0.5586 0.0069
H5 H 0.1949 0.5369 -0.0247
C2 C 0.20977(13) 0.5102(5) 0.09732(16)
C3 C 0.27432(13) 0.2098(4) 0.16595(14)
C4 C 0.33296(13) 0.3188(4) 0.21784(15)
C5 C 0.36262(14) 0.4870(4) 0.19241(15)
H6 H 0.3444 0.5455 0.1431
C6 C 0.41947(14) 0.5726(4) 0.23883(17)
H7 H 0.4377 0.6886 0.2202
C7 C 0.44903(14) 0.4906(5) 0.31091(18)
C8 C 0.42050(14) 0.3169(5) 0.33660(16)
H8 H 0.4397 0.2563 0.3852
C9 C 0.36373(14) 0.2327(4) 0.29072(15)
H9 H 0.3457 0.1159 0.3091
C10 C 0.51044(14) 0.5844(5) 0.36181(18)
H10 H 0.5343 0.4786 0.3959
H11 H 0.5385 0.6335 0.3269
C11 C 0.49656(16) 0.7585(5) 0.41317(19)
H12 H 0.5364 0.7974 0.4495
H13 H 0.4644 0.7163 0.4430
H14 H 0.4800 0.8735 0.3799
C12 C 0.30070(12) 0.0167(4) 0.13129(13)
H15 H 0.3332 0.0557 0.1015
H16 H 0.2651 -0.0529 0.0966
H17 H 0.3202 -0.0732 0.1742
C13 C 0.22050(12) 0.1396(4) 0.20845(14)
H18 H 0.1974 0.0239 0.1863
C14 C 0.20086(13) 0.2163(4) 0.27224(14)
C15 C 0.25898(14) 0.4328(5) 0.38419(17)
C16 C 0.29223(14) 0.6400(4) 0.40103(14)
H19 H 0.3093 0.6538 0.4575
H20 H 0.2608 0.7471 0.3834
H21 H 0.3276 0.6503 0.3729
C17 C 0.14485(13) 0.1333(5) 0.30387(14)
C18 C 0.10767(14) 0.2581(4) 0.34324(14)
H22 H 0.1209 0.3931 0.3550
C19 C 0.05143(15) 0.1862(5) 0.36538(15)
H23 H 0.0276 0.2742 0.3916
C20 C 0.02949(15) -0.0136(6) 0.34953(16)
C21 C 0.06698(14) -0.1390(5) 0.31181(15)
H24 H 0.0538 -0.2743 0.3010
C22 C 0.12390(14) -0.0704(4) 0.28927(14)
H25 H 0.1482 -0.1601 0.2644
C23 C -0.03410(15) -0.0853(5) 0.37183(19)
H26 H -0.0472 0.0172 0.4067
H27 H -0.0680 -0.0898 0.3233
C24 C -0.03239(15) -0.2842(5) 0.41130(19)
H28 H -0.0732 -0.3063 0.4282
H29 H 0.0033 -0.2868 0.4571
H30 H -0.0262 -0.3905 0.3746
loop_
_geom_bond_atom_site_label_1
_geom_bond_atom_site_label_2
_geom_bond_site_symmetry_1
_geom_bond_site_symmetry_2
O1 C2 1_555 1_555
O2 C15 1_555 1_555
N1 H1 1_555 1_555
N2 H2 1_555 1_555
C1 H3 1_555 1_555
H4 C1 1_555 1_555
H5 C1 1_555 1_555
C2 N1 1_555 1_555
C3 N1 1_555 1_555
C4 C3 1_555 1_555
C5 C4 1_555 1_555
H6 C5 1_555 1_555
C6 C5 1_555 1_555
H7 C6 1_555 1_555
C7 C6 1_555 1_555
C8 C7 1_555 1_555
H8 C8 1_555 1_555
C9 C4 1_555 1_555
H9 C9 1_555 1_555
C10 C7 1_555 1_555
H10 C10 1_555 1_555
H11 C10 1_555 1_555
C11 C10 1_555 1_555
H12 C11 1_555 1_555
H13 C11 1_555 1_555
H14 C11 1_555 1_555
C12 C3 1_555 1_555
H15 C12 1_555 1_555
H16 C12 1_555 1_555
H17 C12 1_555 1_555
C13 C3 1_555 1_555
H18 C13 1_555 1_555
C14 N2 1_555 1_555
C15 N2 1_555 1_555
C16 C15 1_555 1_555
H19 C16 1_555 1_555
H20 C16 1_555 1_555
H21 C16 1_555 1_555
C17 C14 1_555 1_555
C18 C17 1_555 1_555
H22 C18 1_555 1_555
C19 C18 1_555 1_555
H23 C19 1_555 1_555
C20 C19 1_555 1_555
C21 C20 1_555 1_555
H24 C21 1_555 1_555
C22 C17 1_555 1_555
H25 C22 1_555 1_555
C23 C20 1_555 1_555
H26 C23 1_555 1_555
H27 C23 1_555 1_555
C24 C23 1_555 1_555
H28 C24 1_555 1_555
H29 C24 1_555 1_555
H30 C24 1_555 1_555
C1 C2 1_555 1_555
C8 C9 1_555 1_555
C13 C14 1_555 1_555
C21 C22 1_555 1_555

#END
