
#######################################################################
#
#                 Cambridge Crystallographic Data Centre
#                                CCDC 
#
#######################################################################
#
# If this CIF has been generated from an entry in the Cambridge 
# Structural Database, then it will include bibliographic, chemical, 
# crystal, experimental, refinement or atomic coordinate data resulting 
# from the CCDC's data processing and validation procedures.
#
#######################################################################

data_PUZBOC
_chemical_formula_moiety         'C23 H22 N8'
_chemical_name_systematic        
2,4,6-trimethyl-2,4,6,8-tetraaza-1,3,5,7(2,6)-tetrapyridinacyclooctaphane
_symmetry_cell_setting           orthorhombic
_symmetry_space_group_name_H-M   'P c c n'
_symmetry_Int_Tables_number      56
_space_group_name_Hall           '-P 2ab 2ac'
loop_
_symmetry_equiv_pos_site_id
_symmetry_equiv_pos_as_xyz
1 x,y,z
2 1/2-x,1/2-y,z
3 -x,1/2+y,1/2-z
4 1/2+x,-y,1/2-z
5 -x,-y,-z
6 1/2+x,1/2+y,-z
7 x,1/2-y,1/2+z
8 1/2-x,y,1/2+z
_cell_length_a                   20.763(4)
_cell_length_b                   10.506(2)
_cell_length_c                   19.102(4)
_cell_angle_alpha                90
_cell_angle_beta                 90
_cell_angle_gamma                90
_cell_volume                     4166.84
_exptl_crystal_colour            colorless
_exptl_crystal_description       block
_cell_formula_units_Z            8
loop_
_atom_site_label
_atom_site_type_symbol
_atom_site_fract_x
_atom_site_fract_y
_atom_site_fract_z
N1 N 0.54663(7) 0.63180(13) 0.07829(8)
N2 N 0.51443(7) 0.56220(16) 0.18711(8)
N3 N 0.61303(7) 0.48012(14) 0.22664(7)
N4 N 0.71482(7) 0.41396(15) 0.26628(8)
N5 N 0.75625(7) 0.50932(13) 0.16815(8)
N6 N 0.78920(7) 0.60110(14) 0.06384(8)
H1 H 0.8183 0.6389 0.0394
N7 N 0.68885(7) 0.63700(13) 0.01310(8)
N8 N 0.58608(7) 0.68804(14) -0.03039(8)
C1 C 0.46581(10) 0.83798(19) 0.08362(12)
H2 H 0.4382 0.9077 0.0853
C2 C 0.46771(9) 0.75597(18) 0.13953(11)
H3 H 0.4425 0.7693 0.1791
C3 C 0.50937(8) 0.65114(17) 0.13442(10)
C4 C 0.48890(11) 0.5907(3) 0.25645(11)
H4 H 0.4431 0.6023 0.2535
H5 H 0.5085 0.6671 0.2739
H6 H 0.4983 0.5213 0.2876
C5 C 0.56348(8) 0.46678(17) 0.18297(9)
C6 C 0.55703(8) 0.36694(17) 0.13644(10)
H7 H 0.5220 0.3624 0.1062
C7 C 0.60398(9) 0.27437(17) 0.13625(10)
H8 H 0.6007 0.2047 0.1064
C8 C 0.65610(9) 0.28636(17) 0.18103(10)
H9 H 0.6882 0.2248 0.1823
C9 C 0.65905(8) 0.39150(17) 0.22349(9)
C10 C 0.70512(11) 0.4121(3) 0.34159(12)
H10 H 0.7455 0.3965 0.3645
H11 H 0.6752 0.3459 0.3535
H12 H 0.6883 0.4928 0.3565
C11 C 0.76009(8) 0.49701(17) 0.23772(10)
C12 C 0.8005(5) 0.5754(12) 0.2776(5)
H13 H 0.8010 0.5700 0.3262
C13 C 0.8395(6) 0.6608(14) 0.2429(4)
H14 H 0.8678 0.7116 0.2684
C14 C 0.8373(5) 0.6722(11) 0.1711(4)
H15 H 0.8615 0.7328 0.1473
C15 C 0.79657(8) 0.58731(17) 0.13596(10)
C16 C 0.73336(8) 0.55208(16) 0.03154(9)
C17 C 0.72563(8) 0.42248(17) 0.02002(9)
H16 H 0.7573 0.3650 0.0337
C18 C 0.67048(9) 0.38111(17) -0.01179(10)
H17 H 0.6646 0.2948 -0.0206
C19 C 0.62338(9) 0.46770(16) -0.03093(9)
H18 H 0.5857 0.4414 -0.0528
C20 C 0.63448(8) 0.59414(16) -0.01629(9)
C21 C 0.60502(11) 0.79174(19) -0.07682(11)
H19 H 0.5684 0.8194 -0.1034
H20 H 0.6380 0.7626 -0.1081
H21 H 0.6211 0.8615 -0.0495
C22 C 0.54451(8) 0.71433(16) 0.02515(10)
C23 C 0.50354(9) 0.82011(18) 0.02506(11)
H22 H 0.5018 0.8758 -0.0128
C24? C 0.8117(5) 0.5416(14) 0.2776(6)
C25? C 0.8564(6) 0.6136(15) 0.2419(5)
C26? C 0.8511(5) 0.6335(15) 0.1707(5)
H23? H 0.8156 0.5240 0.3251
H24? H 0.8907 0.6494 0.2662
H25? H 0.8832 0.6766 0.1464
loop_
_geom_bond_atom_site_label_1
_geom_bond_atom_site_label_2
_geom_bond_site_symmetry_1
_geom_bond_site_symmetry_2
N1 C3 1_555 1_555
N2 C3 1_555 1_555
N3 C5 1_555 1_555
N4 C9 1_555 1_555
N5 C11 1_555 1_555
N6 H1 1_555 1_555
N7 C16 1_555 1_555
N8 C20 1_555 1_555
C1 H2 1_555 1_555
C2 C1 1_555 1_555
H3 C2 1_555 1_555
C3 C2 1_555 1_555
C4 N2 1_555 1_555
H4 C4 1_555 1_555
H5 C4 1_555 1_555
H6 C4 1_555 1_555
C5 N2 1_555 1_555
C6 C5 1_555 1_555
H7 C6 1_555 1_555
C7 C6 1_555 1_555
H8 C7 1_555 1_555
C8 C7 1_555 1_555
H9 C8 1_555 1_555
C9 N3 1_555 1_555
C10 N4 1_555 1_555
H10 C10 1_555 1_555
H11 C10 1_555 1_555
H12 C10 1_555 1_555
C11 N4 1_555 1_555
C12 C11 1_555 1_555
H13 C12 1_555 1_555
C13 C12 1_555 1_555
H14 C13 1_555 1_555
C14 C13 1_555 1_555
H15 C14 1_555 1_555
C15 N5 1_555 1_555
C16 N6 1_555 1_555
C17 C16 1_555 1_555
H16 C17 1_555 1_555
C18 C17 1_555 1_555
H17 C18 1_555 1_555
C19 C18 1_555 1_555
H18 C19 1_555 1_555
C20 N7 1_555 1_555
C21 N8 1_555 1_555
H19 C21 1_555 1_555
H20 C21 1_555 1_555
H21 C21 1_555 1_555
C22 N1 1_555 1_555
C23 C1 1_555 1_555
H22 C23 1_555 1_555
N6 C15 1_555 1_555
N8 C22 1_555 1_555
C8 C9 1_555 1_555
C14 C15 1_555 1_555
C19 C20 1_555 1_555
C22 C23 1_555 1_555

#END
