
#######################################################################
#
#                 Cambridge Crystallographic Data Centre
#                                CCDC 
#
#######################################################################
#
# If this CIF has been generated from an entry in the Cambridge 
# Structural Database, then it will include bibliographic, chemical, 
# crystal, experimental, refinement or atomic coordinate data resulting 
# from the CCDC's data processing and validation procedures.
#
#######################################################################

data_PUZBER
_chemical_formula_moiety         'C21 H19 N1 S1'
_chemical_name_systematic        
2,3,4,5-Tetrahydro-r-2,c-4-diphenyl-1,5-benzothiazepine
_symmetry_cell_setting           monoclinic
_symmetry_space_group_name_H-M   'P 21/n'
_symmetry_Int_Tables_number      14
_space_group_name_Hall           '-P 2yn'
loop_
_symmetry_equiv_pos_site_id
_symmetry_equiv_pos_as_xyz
1 x,y,z
2 1/2-x,1/2+y,1/2-z
3 -x,-y,-z
4 1/2+x,1/2-y,1/2+z
_cell_length_a                   13.4782(15)
_cell_length_b                   6.0737(7)
_cell_length_c                   21.918(3)
_cell_angle_alpha                90
_cell_angle_beta                 107.327(3)
_cell_angle_gamma                90
_cell_volume                     1712.84
_exptl_crystal_colour            colorless
_exptl_crystal_description       needle
_cell_formula_units_Z            4
_exptl_crystal_recrystallization_method ethanol
loop_
_atom_site_label
_atom_site_type_symbol
_atom_site_fract_x
_atom_site_fract_y
_atom_site_fract_z
S1 S 0.48346(5) 0.01363(11) 0.21604(3)
C1 C 0.54426(17) 0.1918(4) 0.16927(12)
H1 H 0.5703(7) 0.329(4) 0.1953(7)
C2 C 0.46731(17) 0.2622(4) 0.10604(12)
H2 H 0.4541(3) 0.137(2) 0.0758(5)
H3 H 0.4980(5) 0.383(2) 0.0873(3)
C3 C 0.36355(17) 0.3399(4) 0.11473(11)
H4 H 0.3261(9) 0.207(3) 0.1238(3)
N1 N 0.38407(17) 0.4882(4) 0.17049(10)
H5 H 0.3539(17) 0.607(4) 0.1624(11)
C4 C 0.34809(19) 0.5523(5) 0.26950(13)
H6 H 0.3223(7) 0.698(4) 0.2536(5)
C5 C 0.3479(2) 0.4895(6) 0.32974(15)
H7 H 0.3232(7) 0.590(3) 0.3557(7)
C6 C 0.3825(2) 0.2842(6) 0.35319(15)
H8 H 0.3800(2) 0.2415(14) 0.3921(12)
C7 C 0.42121(19) 0.1450(5) 0.31596(13)
H9 H 0.4458(7) 0.003(4) 0.3320(4)
C8 C 0.42529(17) 0.2063(4) 0.25539(12)
C9 C 0.38459(17) 0.4111(4) 0.23052(12)
C10 C 0.63783(18) 0.0677(4) 0.16231(12)
C11 C 0.73709(18) 0.1488(5) 0.18881(12)
H10 H 0.7467(3) 0.284(4) 0.2107(6)
C12 C 0.8226(2) 0.0324(5) 0.18339(13)
H11 H 0.8903(19) 0.0890(17) 0.2018(5)
C13 C 0.8092(2) -0.1641(6) 0.15139(14)
H12 H 0.8658(16) -0.239(2) 0.14774(18)
C14 C 0.7115(2) -0.2488(6) 0.12479(15)
H13 H 0.7026(4) -0.383(4) 0.1035(6)
C15 C 0.6260(2) -0.1312(5) 0.13005(14)
H14 H 0.5550(18) -0.1910(16) 0.1103(5)
C16 C 0.29268(19) 0.4552(4) 0.05716(12)
C17 C 0.1950(2) 0.3696(6) 0.02670(13)
H15 H 0.1744(6) 0.230(4) 0.0406(4)
C18 C 0.1268(3) 0.4819(7) -0.02313(14)
H16 H 0.0644(18) 0.4260(18) -0.0422(6)
C19 C 0.1546(3) 0.6768(7) -0.04321(16)
H17 H 0.1104(14) 0.749(2) -0.0746(10)
C20 C 0.2509(3) 0.7616(6) -0.01491(16)
H18 H 0.2703(7) 0.891(4) -0.0290(4)
C21 C 0.3183(2) 0.6508(5) 0.03482(14)
H19 H 0.3881(18) 0.7146(17) 0.0553(6)
loop_
_geom_bond_atom_site_label_1
_geom_bond_atom_site_label_2
_geom_bond_site_symmetry_1
_geom_bond_site_symmetry_2
S1 C1 1_555 1_555
C1 H1 1_555 1_555
C2 C1 1_555 1_555
H2 C2 1_555 1_555
H3 C2 1_555 1_555
C3 C2 1_555 1_555
H4 C3 1_555 1_555
N1 C3 1_555 1_555
H5 N1 1_555 1_555
C4 H6 1_555 1_555
C5 C4 1_555 1_555
H7 C5 1_555 1_555
C6 C5 1_555 1_555
H8 C6 1_555 1_555
C7 C6 1_555 1_555
H9 C7 1_555 1_555
C8 S1 1_555 1_555
C9 N1 1_555 1_555
C10 C1 1_555 1_555
C11 C10 1_555 1_555
H10 C11 1_555 1_555
C12 C11 1_555 1_555
H11 C12 1_555 1_555
C13 C12 1_555 1_555
H12 C13 1_555 1_555
C14 C13 1_555 1_555
H13 C14 1_555 1_555
C15 C10 1_555 1_555
H14 C15 1_555 1_555
C16 C3 1_555 1_555
C17 C16 1_555 1_555
H15 C17 1_555 1_555
C18 C17 1_555 1_555
H16 C18 1_555 1_555
C19 C18 1_555 1_555
H17 C19 1_555 1_555
C20 C19 1_555 1_555
H18 C20 1_555 1_555
C21 C16 1_555 1_555
H19 C21 1_555 1_555
C4 C9 1_555 1_555
C7 C8 1_555 1_555
C8 C9 1_555 1_555
C14 C15 1_555 1_555
C20 C21 1_555 1_555

#END
