
#######################################################################
#
#                 Cambridge Crystallographic Data Centre
#                                CCDC 
#
#######################################################################
#
# If this CIF has been generated from an entry in the Cambridge 
# Structural Database, then it will include bibliographic, chemical, 
# crystal, experimental, refinement or atomic coordinate data resulting 
# from the CCDC's data processing and validation procedures.
#
#######################################################################

data_PUZCET
_chemical_formula_moiety         'C20 H16 N8,4(C1 H4 O1)'
_chemical_name_systematic        
'2,4,6,8-tetraaza-1,3,5,7(2,6)-tetrapyridinacyclooctaphane methanol solvate'
_symmetry_cell_setting           monoclinic
_symmetry_space_group_name_H-M   'P 21/c'
_symmetry_Int_Tables_number      14
_space_group_name_Hall           '-P 2ybc'
loop_
_symmetry_equiv_pos_site_id
_symmetry_equiv_pos_as_xyz
1 x,y,z
2 -x,1/2+y,1/2-z
3 -x,-y,-z
4 x,1/2-y,1/2+z
_cell_length_a                   9.0201(18)
_cell_length_b                   11.398(2)
_cell_length_c                   25.984(6)
_cell_angle_alpha                90
_cell_angle_beta                 108.07(3)
_cell_angle_gamma                90
_cell_volume                     2539.68
_exptl_crystal_colour            colorless
_exptl_crystal_description       rod
_cell_formula_units_Z            4
loop_
_atom_site_label
_atom_site_type_symbol
_atom_site_fract_x
_atom_site_fract_y
_atom_site_fract_z
N1 N 0.4013(3) -0.7055(2) -0.07918(9)
N2 N 0.4126(3) -0.5022(2) -0.06630(10)
H1 H 0.3926 -0.4590 -0.0421
N3 N 0.5373(3) -0.5096(2) -0.13238(9)
N4 N 0.6375(3) -0.4996(2) -0.20530(10)
H2 H 0.6320 -0.4437 -0.2280
N5 N 0.6906(3) -0.6984(2) -0.18974(9)
N6 N 0.7717(3) -0.8932(2) -0.17342(10)
H3 H 0.8471 -0.9313 -0.1794
N7 N 0.5900(3) -0.8930(2) -0.12627(9)
N8 N 0.3921(3) -0.9107(2) -0.08550(10)
H4 H 0.3379 -0.9713 -0.0830
C1 C 0.3169(3) -0.8041(2) -0.08999(11)
C2 C 0.1540(4) -0.8042(3) -0.10295(12)
H5 H 0.0974 -0.8758 -0.1104
C3 C 0.0776(4) -0.7001(3) -0.10477(13)
H6 H -0.0326 -0.6985 -0.1129
C4 C 0.1625(4) -0.5971(3) -0.09458(12)
H7 H 0.1119 -0.5234 -0.0962
C5 C 0.3230(3) -0.6036(2) -0.08197(10)
C6 C 0.5310(3) -0.4639(2) -0.08600(11)
C7 C 0.6299(4) -0.3745(3) -0.05809(12)
H8 H 0.6194 -0.3424 -0.0256
C8 C 0.7430(4) -0.3345(3) -0.07929(14)
H9 H 0.8143 -0.2756 -0.0609
C9 C 0.7523(4) -0.3804(3) -0.12726(13)
H10 H 0.8297 -0.3543 -0.1424
C10 C 0.6459(3) -0.4655(2) -0.15265(11)
C11 C 0.6368(3) -0.6119(3) -0.22488(11)
C12 C 0.5901(4) -0.6280(3) -0.28132(12)
H11 H 0.5505 -0.5642 -0.3052
C13 C 0.6030(4) -0.7374(3) -0.30115(12)
H12 H 0.5731 -0.7507 -0.3391
C14 C 0.6601(4) -0.8283(3) -0.26536(12)
H13 H 0.6706 -0.9051 -0.2780
C15 C 0.7015(3) -0.8044(3) -0.21061(12)
C16 C 0.7326(3) -0.9250(2) -0.12834(12)
C17 C 0.8349(4) -0.9935(3) -0.08822(12)
H14 H 0.9351 -1.0131 -0.0904
C18 C 0.7887(4) -1.0318(3) -0.04591(12)
H15 H 0.8569 -1.0783 -0.0182
C19 C 0.6407(4) -1.0025(3) -0.04346(12)
H16 H 0.6052 -1.0293 -0.0147
C20 C 0.5481(3) -0.9332(2) -0.08431(11)
O1 O 0.6899(2) -0.69227(18) 0.00007(8)
H17 H 0.5953 -0.6976 -0.0290
C21 C 0.8139(4) -0.6769(3) -0.02258(15)
H18 H 0.8836 -0.6146 -0.0030
H19 H 0.7707 -0.6553 -0.0608
H20 H 0.8725 -0.7504 -0.0195
O2 O -0.3177(2) -0.34027(19) -0.28698(8)
H21 H -0.4189 -0.3393 -0.3127
C22 C -0.2717(4) -0.2218(3) -0.27458(14)
H22 H -0.1597 -0.2141 -0.2692
H23 H -0.2939 -0.1984 -0.2414
H24 H -0.3298 -0.1712 -0.3045
O3 O 0.2258(3) -0.1276(2) -0.07731(10)
H25 H 0.2564 -0.1814 -0.0480
C23 C 0.1377(5) -0.1967(3) -0.12057(15)
H26 H 0.1224 -0.1543 -0.1546
H27 H 0.0361 -0.2138 -0.1160
H28 H 0.1930 -0.2704 -0.1214
O4 O -0.0375(3) -0.4587(2) -0.28550(10)
H29 H -0.1372 -0.4225 -0.2978
C24 C 0.0018(5) -0.4894(4) -0.23030(15)
H30 H -0.0616 -0.5565 -0.2262
H31 H -0.0183 -0.4226 -0.2096
H32 H 0.1125 -0.5104 -0.2167
loop_
_geom_bond_atom_site_label_1
_geom_bond_atom_site_label_2
_geom_bond_site_symmetry_1
_geom_bond_site_symmetry_2
N1 C1 1_555 1_555
N2 H1 1_555 1_555
N3 C6 1_555 1_555
N4 H2 1_555 1_555
N5 C11 1_555 1_555
N6 H3 1_555 1_555
N7 C16 1_555 1_555
N8 H4 1_555 1_555
C1 N8 1_555 1_555
C2 C1 1_555 1_555
H5 C2 1_555 1_555
C3 C2 1_555 1_555
H6 C3 1_555 1_555
C4 C3 1_555 1_555
H7 C4 1_555 1_555
C5 N1 1_555 1_555
C6 N2 1_555 1_555
C7 C6 1_555 1_555
H8 C7 1_555 1_555
C8 C7 1_555 1_555
H9 C8 1_555 1_555
C9 C8 1_555 1_555
H10 C9 1_555 1_555
C10 N3 1_555 1_555
C11 N4 1_555 1_555
C12 C11 1_555 1_555
H11 C12 1_555 1_555
C13 C12 1_555 1_555
H12 C13 1_555 1_555
C14 C13 1_555 1_555
H13 C14 1_555 1_555
C15 N5 1_555 1_555
C16 N6 1_555 1_555
C17 C16 1_555 1_555
H14 C17 1_555 1_555
C18 C17 1_555 1_555
H15 C18 1_555 1_555
C19 C18 1_555 1_555
H16 C19 1_555 1_555
C20 N7 1_555 1_555
O1 H17 1_555 1_555
C21 O1 1_555 1_555
H18 C21 1_555 1_555
H19 C21 1_555 1_555
H20 C21 1_555 1_555
O2 H21 1_555 1_555
C22 O2 1_555 1_555
H22 C22 1_555 1_555
H23 C22 1_555 1_555
H24 C22 1_555 1_555
O3 H25 1_555 1_555
C23 O3 1_555 1_555
H26 C23 1_555 1_555
H27 C23 1_555 1_555
H28 C23 1_555 1_555
O4 H29 1_555 1_555
C24 O4 1_555 1_555
H30 C24 1_555 1_555
H31 C24 1_555 1_555
H32 C24 1_555 1_555
N2 C5 1_555 1_555
N4 C10 1_555 1_555
N6 C15 1_555 1_555
N8 C20 1_555 1_555
C4 C5 1_555 1_555
C9 C10 1_555 1_555
C14 C15 1_555 1_555
C19 C20 1_555 1_555

#END
