
#######################################################################
#
#                 Cambridge Crystallographic Data Centre
#                                CCDC 
#
#######################################################################
#
# If this CIF has been generated from an entry in the Cambridge 
# Structural Database, then it will include bibliographic, chemical, 
# crystal, experimental, refinement or atomic coordinate data resulting 
# from the CCDC's data processing and validation procedures.
#
#######################################################################

data_PUZNOP
_chemical_formula_moiety         'C22 H25 N1 O1'
_chemical_name_systematic        
N,N-Dibenzylbicyclo[2.2.1]heptane-2-carboxamide
_symmetry_cell_setting           monoclinic
_symmetry_space_group_name_H-M   'P 21'
_symmetry_Int_Tables_number      4
_space_group_name_Hall           'P 2yb'
loop_
_symmetry_equiv_pos_site_id
_symmetry_equiv_pos_as_xyz
1 x,y,z
2 -x,1/2+y,-z
_cell_length_a                   6.1342(9)
_cell_length_b                   17.073(3)
_cell_length_c                   8.6226(13)
_cell_angle_alpha                90
_cell_angle_beta                 95.158(3)
_cell_angle_gamma                90
_cell_volume                     899.381
_exptl_crystal_colour            colorless
_exptl_crystal_description       block
_cell_formula_units_Z            2
loop_
_atom_site_label
_atom_site_type_symbol
_atom_site_fract_x
_atom_site_fract_y
_atom_site_fract_z
O1 O 0.2393(6) 0.7313(2) 0.2629(4)
N1 N 0.1912(6) 0.6621(2) 0.4795(4)
C1 C 0.3236(11) 0.7188(4) 0.5747(8)
H1 H 0.4098 0.7493 0.5074
H2 H 0.4245 0.6905 0.6475
C2 C 0.1917(10) 0.7734(3) 0.6636(6)
C3 C 0.2569(13) 0.7970(4) 0.8129(7)
H3 H 0.3892 0.7784 0.8600
C4 C 0.1353(16) 0.8467(5) 0.8953(8)
H4 H 0.1860 0.8606 0.9964
C5 C -0.0616(13) 0.8765(4) 0.8303(7)
H5 H -0.1462 0.9095 0.8863
C6 C -0.1268(12) 0.8555(4) 0.6805(7)
H6 H -0.2562 0.8762 0.6330
C7 C -0.0080(10) 0.8049(4) 0.5975(6)
H7 H -0.0598 0.7912 0.4965
C8 C 0.0999(8) 0.5984(3) 0.5642(5)
H8 H -0.0278 0.5784 0.5023
H9 H 0.0509 0.6193 0.6598
C9 C 0.2535(7) 0.5312(3) 0.6049(4)
C10 C 0.4480(8) 0.5223(3) 0.5384(6)
H10 H 0.4895 0.5595 0.4679
C11 C 0.5827(11) 0.4586(4) 0.5754(8)
H11 H 0.7127 0.4526 0.5288
C12 C 0.5230(15) 0.4043(4) 0.6815(9)
H12 H 0.6145 0.3621 0.7087
C13 C 0.3276(16) 0.4122(4) 0.7478(9)
H13 H 0.2854 0.3749 0.8176
C14 C 0.1965(15) 0.4755(4) 0.7100(8)
H14 H 0.0661 0.4811 0.7562
C15 C 0.1613(8) 0.6743(3) 0.3226(6)
C16 C 0.0197(8) 0.6154(4) 0.2260(6)
H15 H 0.0496 0.5620 0.2637
C17 C 0.0492(10) 0.6214(5) 0.0499(7)
H16 H 0.1547 0.6617 0.0303
H17 H 0.0981 0.5719 0.0101
C18 C -0.1772(9) 0.6425(4) -0.0250(7)
H18 H -0.1779 0.6659 -0.1288
C19 C -0.3249(14) 0.5717(6) -0.0169(9)
H19 H -0.2554 0.5250 -0.0533
H20 H -0.4631 0.5797 -0.0788
C20 C -0.3589(12) 0.5652(5) 0.1575(8)
H21 H -0.3026 0.5160 0.2006
H22 H -0.5125 0.5697 0.1747
C21 C -0.2261(8) 0.6354(3) 0.2292(6)
H23 H -0.2685 0.6528 0.3305
C22 C -0.2610(13) 0.6964(5) 0.0980(7)
H24 H -0.4135 0.7108 0.0751
H25 H -0.1715 0.7429 0.1172
loop_
_geom_bond_atom_site_label_1
_geom_bond_atom_site_label_2
_geom_bond_site_symmetry_1
_geom_bond_site_symmetry_2
O1 C15 1_555 1_555
N1 C1 1_555 1_555
C1 H1 1_555 1_555
H2 C1 1_555 1_555
C2 C1 1_555 1_555
C3 C2 1_555 1_555
H3 C3 1_555 1_555
C4 C3 1_555 1_555
H4 C4 1_555 1_555
C5 C4 1_555 1_555
H5 C5 1_555 1_555
C6 C5 1_555 1_555
H6 C6 1_555 1_555
C7 C2 1_555 1_555
H7 C7 1_555 1_555
C8 N1 1_555 1_555
H8 C8 1_555 1_555
H9 C8 1_555 1_555
C9 C8 1_555 1_555
C10 C9 1_555 1_555
H10 C10 1_555 1_555
C11 C10 1_555 1_555
H11 C11 1_555 1_555
C12 C11 1_555 1_555
H12 C12 1_555 1_555
C13 C12 1_555 1_555
H13 C13 1_555 1_555
C14 C9 1_555 1_555
H14 C14 1_555 1_555
C15 N1 1_555 1_555
C16 C15 1_555 1_555
H15 C16 1_555 1_555
C17 C16 1_555 1_555
H16 C17 1_555 1_555
H17 C17 1_555 1_555
C18 C17 1_555 1_555
H18 C18 1_555 1_555
C19 C18 1_555 1_555
H19 C19 1_555 1_555
H20 C19 1_555 1_555
C20 C19 1_555 1_555
H21 C20 1_555 1_555
H22 C20 1_555 1_555
C21 C16 1_555 1_555
H23 C21 1_555 1_555
C22 C18 1_555 1_555
H24 C22 1_555 1_555
H25 C22 1_555 1_555
C6 C7 1_555 1_555
C13 C14 1_555 1_555
C20 C21 1_555 1_555
C21 C22 1_555 1_555

#END
