
#######################################################################
#
#                 Cambridge Crystallographic Data Centre
#                                CCDC 
#
#######################################################################
#
# If this CIF has been generated from an entry in the Cambridge 
# Structural Database, then it will include bibliographic, chemical, 
# crystal, experimental, refinement or atomic coordinate data resulting 
# from the CCDC's data processing and validation procedures.
#
#######################################################################

data_PUZQAE01
_chemical_formula_moiety         'C18 H26 O5'
_chemical_name_systematic        
'10-methoxy-3,6,6-trimethylhexahydro-1H,3H-3,5a-ethano-1,4-methanocyclobuta[4,5]furo[3,2-c]pyran-8-yl acetate'
_symmetry_cell_setting           monoclinic
_symmetry_space_group_name_H-M   'P 21'
_symmetry_Int_Tables_number      4
_space_group_name_Hall           'P 2yb'
loop_
_symmetry_equiv_pos_site_id
_symmetry_equiv_pos_as_xyz
1 x,y,z
2 -x,1/2+y,-z
_cell_length_a                   8.1708(4)
_cell_length_b                   18.5668(8)
_cell_length_c                   11.4565(6)
_cell_angle_alpha                90
_cell_angle_beta                 96.846(4)
_cell_angle_gamma                90
_cell_volume                     1725.62
_exptl_crystal_colour            'light colorless'
_exptl_crystal_description       block
_cell_formula_units_Z            4
loop_
_atom_site_label
_atom_site_type_symbol
_atom_site_fract_x
_atom_site_fract_y
_atom_site_fract_z
O1 O 0.8507(6) 0.1092(3) 0.6934(4)
O2 O 0.7832(6) 0.2514(3) 0.8793(5)
O3 O 0.9933(7) 0.1082(3) 1.0522(5)
O4 O 0.6053(7) 0.1937(3) 0.5210(5)
O5 O 0.4873(9) 0.3020(4) 0.4939(6)
C1 C 0.8596(9) 0.1794(4) 0.6445(6)
C2 C 1.0071(9) 0.2155(4) 0.7224(7)
H1 H 0.9990 0.2680 0.7267
C3 C 1.0192(8) 0.1788(4) 0.8403(6)
H2 H 1.1326 0.1649 0.8689
C4 C 0.9349(10) 0.2192(4) 0.9343(7)
H3 H 1.0075 0.2532 0.9810
C5 C 0.6645(9) 0.1924(4) 0.8561(7)
C6 C 0.5883(9) 0.1943(5) 0.7290(6)
H4 H 0.4956 0.2272 0.7237
H5 H 0.5441 0.1467 0.7093
C7 C 0.6955(9) 0.2157(4) 0.6346(7)
H6 H 0.7108 0.2681 0.6356
C8 C 0.8725(10) 0.1582(4) 1.0061(7)
H7 H 0.8040 0.1753 1.0650
C9 C 0.7701(9) 0.1256(4) 0.8971(6)
H8 H 0.7062 0.0828 0.9132
C10 C 0.9034(9) 0.1121(4) 0.8176(6)
H9 H 0.9641 0.0680 0.8423
C11 C 1.1219(10) 0.1882(6) 0.6308(7)
H10 H 1.1970 0.2246 0.6080
H11 H 1.1801 0.1440 0.6539
C12 C 0.9659(10) 0.1769(5) 0.5389(7)
C13 C 0.9574(13) 0.1083(6) 0.4693(8)
H12 H 0.8520 0.1049 0.4226
H13 H 0.9719 0.0679 0.5220
H14 H 1.0430 0.1081 0.4187
C14 C 0.9419(13) 0.2437(6) 0.4587(9)
H15 H 0.9396 0.2862 0.5062
H16 H 0.8397 0.2395 0.4083
H17 H 1.0314 0.2470 0.4118
C15 C 0.5088(11) 0.2416(6) 0.4600(8)
C16 C 0.4281(13) 0.2107(6) 0.3488(8)
H18 H 0.3674 0.1684 0.3655
H19 H 0.5104 0.1981 0.2992
H20 H 0.3541 0.2456 0.3096
C17 C 0.5225(10) 0.2024(5) 0.9325(8)
H21 H 0.4672 0.2472 0.9126
H22 H 0.5665 0.2029 1.0140
H23 H 0.4456 0.1634 0.9183
C18 C 1.1012(13) 0.1382(6) 1.1462(9)
H24 H 1.1583 0.1002 1.1908
H25 H 1.0384 0.1657 1.1963
H26 H 1.1796 0.1691 1.1150
O6 O 0.5041(6) 0.0140(3) 1.0042(4)
O7 O 0.6458(7) -0.1197(3) 1.2073(6)
O8 O 0.4821(9) 0.0306(4) 1.3616(6)
O9 O 0.6962(7) -0.0705(3) 0.8420(5)
O10 O 0.8384(8) -0.1721(4) 0.8271(6)
C19 C 0.4825(9) -0.0593(4) 0.9623(7)
C20 C 0.3640(10) -0.0915(5) 1.0461(8)
H27 H 0.3746 -0.1438 1.0560
C21 C 0.3921(11) -0.0506(5) 1.1600(7)
H28 H 0.2881 -0.0366 1.1882
C22 C 0.5100(12) -0.0857(5) 1.2567(9)
H29 H 0.4551 -0.1175 1.3082
C23 C 0.7529(10) -0.0608(5) 1.1761(7)
C24 C 0.7861(9) -0.0680(4) 1.0481(7)
H30 H 0.8247 -0.0217 1.0236
H31 H 0.8762 -0.1018 1.0461
C25 C 0.6477(10) -0.0919(4) 0.9568(7)
H32 H 0.6381 -0.1444 0.9594
C26 C 0.4940(10) 0.0161(5) 1.1288(7)
H33 H 0.4392 0.0605 1.1493
C27 C 0.6567(10) 0.0070(4) 1.2076(7)
H34 H 0.7236 0.0509 1.2174
C28 C 0.5941(13) -0.0198(5) 1.3208(8)
H35 H 0.6836 -0.0332 1.3816
C29 C 0.2198(10) -0.0690(5) 0.9537(8)
H36 H 0.1690 -0.0237 0.9718
H37 H 0.1372 -0.1062 0.9367
C30 C 0.3386(10) -0.0620(5) 0.8590(7)
C31 C 0.3406(12) -0.1319(6) 0.7876(9)
H38 H 0.4261 -0.1293 0.7371
H39 H 0.2360 -0.1381 0.7409
H40 H 0.3610 -0.1720 0.8402
C32 C 0.3209(12) 0.0031(5) 0.7782(8)
H41 H 0.4119 0.0048 0.7325
H42 H 0.3198 0.0462 0.8244
H43 H 0.2196 -0.0004 0.7266
C33 C 0.4353(18) 0.0121(8) 1.4750(9)
H44 H 0.5321 0.0094 1.5313
H45 H 0.3804 -0.0337 1.4703
H46 H 0.3624 0.0483 1.4991
C34 C 0.9190(12) -0.0651(5) 1.2523(9)
H47 H 0.9023 -0.0621 1.3337
H48 H 0.9876 -0.0259 1.2331
H49 H 0.9715 -0.1100 1.2380
C35 C 0.7906(9) -0.1159(5) 0.7874(8)
C36 C 0.8251(12) -0.0856(6) 0.6710(8)
H50 H 0.8226 -0.0340 0.6741
H51 H 0.7428 -0.1023 0.6103
H52 H 0.9319 -0.1013 0.6545
loop_
_geom_bond_atom_site_label_1
_geom_bond_atom_site_label_2
_geom_bond_site_symmetry_1
_geom_bond_site_symmetry_2
O1 C1 1_555 1_555
O2 C4 1_555 1_555
O3 C8 1_555 1_555
O4 C7 1_555 1_555
O5 C15 1_555 1_555
C1 C2 1_555 1_555
C2 H1 1_555 1_555
C3 C2 1_555 1_555
H2 C3 1_555 1_555
C4 C3 1_555 1_555
H3 C4 1_555 1_555
C5 O2 1_555 1_555
C6 C5 1_555 1_555
H4 C6 1_555 1_555
H5 C6 1_555 1_555
C7 C1 1_555 1_555
H6 C7 1_555 1_555
C8 C4 1_555 1_555
H7 C8 1_555 1_555
C9 C5 1_555 1_555
H8 C9 1_555 1_555
C10 O1 1_555 1_555
H9 C10 1_555 1_555
C11 C2 1_555 1_555
H10 C11 1_555 1_555
H11 C11 1_555 1_555
C12 C1 1_555 1_555
C13 C12 1_555 1_555
H12 C13 1_555 1_555
H13 C13 1_555 1_555
H14 C13 1_555 1_555
C14 C12 1_555 1_555
H15 C14 1_555 1_555
H16 C14 1_555 1_555
H17 C14 1_555 1_555
C15 O4 1_555 1_555
C16 C15 1_555 1_555
H18 C16 1_555 1_555
H19 C16 1_555 1_555
H20 C16 1_555 1_555
C17 C5 1_555 1_555
H21 C17 1_555 1_555
H22 C17 1_555 1_555
H23 C17 1_555 1_555
C18 O3 1_555 1_555
H24 C18 1_555 1_555
H25 C18 1_555 1_555
H26 C18 1_555 1_555
O6 C19 1_555 1_555
O7 C22 1_555 1_555
O8 C28 1_555 1_555
O9 C25 1_555 1_555
O10 C35 1_555 1_555
C19 C20 1_555 1_555
C20 H27 1_555 1_555
C21 C20 1_555 1_555
H28 C21 1_555 1_555
C22 C21 1_555 1_555
H29 C22 1_555 1_555
C23 O7 1_555 1_555
C24 C23 1_555 1_555
H30 C24 1_555 1_555
H31 C24 1_555 1_555
C25 C19 1_555 1_555
H32 C25 1_555 1_555
C26 O6 1_555 1_555
H33 C26 1_555 1_555
C27 C23 1_555 1_555
H34 C27 1_555 1_555
C28 C22 1_555 1_555
H35 C28 1_555 1_555
C29 C20 1_555 1_555
H36 C29 1_555 1_555
H37 C29 1_555 1_555
C30 C19 1_555 1_555
C31 C30 1_555 1_555
H38 C31 1_555 1_555
H39 C31 1_555 1_555
H40 C31 1_555 1_555
C32 C30 1_555 1_555
H41 C32 1_555 1_555
H42 C32 1_555 1_555
H43 C32 1_555 1_555
C33 O8 1_555 1_555
H44 C33 1_555 1_555
H45 C33 1_555 1_555
H46 C33 1_555 1_555
C34 C23 1_555 1_555
H47 C34 1_555 1_555
H48 C34 1_555 1_555
H49 C34 1_555 1_555
C35 O9 1_555 1_555
C36 C35 1_555 1_555
H50 C36 1_555 1_555
H51 C36 1_555 1_555
H52 C36 1_555 1_555
C3 C10 1_555 1_555
C6 C7 1_555 1_555
C8 C9 1_555 1_555
C9 C10 1_555 1_555
C11 C12 1_555 1_555
C21 C26 1_555 1_555
C24 C25 1_555 1_555
C26 C27 1_555 1_555
C27 C28 1_555 1_555
C29 C30 1_555 1_555

#END
