
#######################################################################
#
#                 Cambridge Crystallographic Data Centre
#                                CCDC 
#
#######################################################################
#
# If this CIF has been generated from an entry in the Cambridge 
# Structural Database, then it will include bibliographic, chemical, 
# crystal, experimental, refinement or atomic coordinate data resulting 
# from the CCDC's data processing and validation procedures.
#
#######################################################################

data_PUZXOZ
_chemical_formula_moiety         'C36 H30 N1 O3 P1'
_chemical_name_systematic        
'methyl 4-anilino-2-benzylidene-4-oxo-3-(triphenylphosphoranylidene)butanoate'
_symmetry_cell_setting           monoclinic
_symmetry_space_group_name_H-M   'P 21/n'
_symmetry_Int_Tables_number      14
_space_group_name_Hall           '-P 2yn'
loop_
_symmetry_equiv_pos_site_id
_symmetry_equiv_pos_as_xyz
1 x,y,z
2 1/2-x,1/2+y,1/2-z
3 -x,-y,-z
4 1/2+x,1/2-y,1/2+z
_cell_length_a                   17.1550(2)
_cell_length_b                   9.49700(10)
_cell_length_c                   18.5834(2)
_cell_angle_alpha                90
_cell_angle_beta                 105.9330(10)
_cell_angle_gamma                90
_cell_volume                     2911.32
_exptl_crystal_description       block
_cell_formula_units_Z            4
loop_
_atom_site_label
_atom_site_type_symbol
_atom_site_fract_x
_atom_site_fract_y
_atom_site_fract_z
P1 P 0.16753(2) 0.30598(5) -0.00128(2)
C1 C 0.30705(9) 0.30236(17) -0.05024(9)
C2 C 0.07720(9) 0.20123(18) -0.03638(9)
N1 N 0.34407(9) 0.02853(16) 0.02010(9)
H1 H 0.3639 0.0554 -0.0154
C3 C 0.13562(12) 0.4962(2) 0.10221(11)
H2 H 0.1110 0.5511 0.0607
O1 O 0.23007(7) 0.03815(13) 0.06049(7)
C4 C 0.27396(9) 0.09554(18) 0.02607(9)
C5 C 0.15106(10) 0.46567(18) -0.05741(10)
C6 C 0.07305(11) 0.1120(2) -0.09627(10)
H3 H 0.1182 0.0989 -0.1140
C7 C 0.34583(13) -0.1923(2) 0.08866(12)
H4 H 0.2895 -0.1971 0.0735
C8 C 0.19438(14) 0.6967(2) -0.08227(13)
H5 H 0.2321 0.7694 -0.0707
C9 C 0.25648(9) 0.22939(17) -0.00881(9)
O2 O 0.30236(9) 0.42172(16) -0.16348(7)
C10 C 0.20706(12) 0.5747(2) -0.04030(11)
H6 H 0.2533 0.5654 -0.0004
C11 C 0.16862(10) 0.36697(19) 0.09230(9)
C12 C 0.20461(13) 0.2878(2) 0.15524(11)
H7 H 0.2269 0.2004 0.1500
C13 C 0.00123(12) 0.0422(2) -0.12970(12)
H8 H -0.0018 -0.0173 -0.1701
C14 C 0.38531(11) -0.07980(19) 0.06746(10)
C15 C 0.26933(10) 0.32009(19) -0.13242(10)
O3 O 0.21445(8) 0.24897(18) -0.16812(7)
C16 C 0.41231(12) 0.3149(2) 0.11721(10)
H9 H 0.3572 0.3194 0.1134
C17 C 0.46716(14) 0.2958(3) 0.18634(12)
H10 H 0.4487 0.2874 0.2287
C18 C 0.43904(10) 0.32754(18) 0.05311(10)
C19 C 0.52225(11) 0.3237(2) 0.06172(12)
H11 H 0.5418 0.3349 0.0201
C20 C 0.57602(13) 0.3036(3) 0.13129(15)
H12 H 0.6314 0.3000 0.1360
C21 C 0.17458(14) 0.4655(3) 0.23491(12)
H13 H 0.1765 0.4979 0.2826
C22 C 0.13888(13) 0.5444(2) 0.17328(12)
H14 H 0.1165 0.6314 0.1791
C23 C 0.38506(10) 0.34186(19) -0.02269(10)
H15 H 0.4081 0.3846 -0.0570
C24 C 0.00956(10) 0.21825(19) -0.00960(11)
H16 H 0.0120 0.2774 0.0308
C25 C 0.08256(11) 0.4817(2) -0.11706(11)
H17 H 0.0446 0.4095 -0.1293
C26 C 0.12595(15) 0.7104(3) -0.14109(14)
H18 H 0.1174 0.7927 -0.1693
C27 C 0.54862(14) 0.2891(3) 0.19307(14)
H19 H 0.5851 0.2747 0.2397
C28 C 0.46927(12) -0.0730(2) 0.09269(12)
H20 H 0.4965 0.0035 0.0798
C29 C 0.51270(15) -0.1795(3) 0.13693(13)
H21 H 0.5689 -0.1740 0.1536
C30 C 0.07046(14) 0.6044(3) -0.15848(13)
H22 H 0.0243 0.6147 -0.1984
C31 C 0.39039(17) -0.2983(2) 0.13267(14)
H23 H 0.3635 -0.3744 0.1464
C32 C 0.26589(16) 0.4457(3) -0.24213(12)
H24 H 0.2655 0.3594 -0.2691
H25 H 0.2966 0.5154 -0.2600
H26 H 0.2113 0.4784 -0.2496
C33 C 0.47341(18) -0.2927(3) 0.15630(13)
H27 H 0.5027 -0.3651 0.1852
C34 C -0.06562(11) 0.0607(2) -0.10326(12)
H28 H -0.1138 0.0144 -0.1262
C35 C -0.06130(11) 0.1468(2) -0.04336(12)
H29 H -0.1063 0.1575 -0.0252
C36 C 0.20761(15) 0.3374(3) 0.22541(12)
H30 H 0.2324 0.2834 0.2672
loop_
_geom_bond_atom_site_label_1
_geom_bond_atom_site_label_2
_geom_bond_site_symmetry_1
_geom_bond_site_symmetry_2
P1 C2 1_555 1_555
C1 C9 1_555 1_555
C2 C6 1_555 1_555
N1 H1 1_555 1_555
C3 H2 1_555 1_555
O1 C4 1_555 1_555
C4 N1 1_555 1_555
C5 P1 1_555 1_555
C6 H3 1_555 1_555
C7 H4 1_555 1_555
C8 H5 1_555 1_555
C9 P1 1_555 1_555
O2 C15 1_555 1_555
C10 C5 1_555 1_555
H6 C10 1_555 1_555
C11 P1 1_555 1_555
C12 C11 1_555 1_555
H7 C12 1_555 1_555
C13 C6 1_555 1_555
H8 C13 1_555 1_555
C14 N1 1_555 1_555
C15 C1 1_555 1_555
O3 C15 1_555 1_555
C16 H9 1_555 1_555
C17 C16 1_555 1_555
H10 C17 1_555 1_555
C18 C16 1_555 1_555
C19 C18 1_555 1_555
H11 C19 1_555 1_555
C20 C19 1_555 1_555
H12 C20 1_555 1_555
C21 H13 1_555 1_555
C22 C3 1_555 1_555
H14 C22 1_555 1_555
C23 C1 1_555 1_555
H15 C23 1_555 1_555
C24 C2 1_555 1_555
H16 C24 1_555 1_555
C25 C5 1_555 1_555
H17 C25 1_555 1_555
C26 C8 1_555 1_555
H18 C26 1_555 1_555
C27 C17 1_555 1_555
H19 C27 1_555 1_555
C28 C14 1_555 1_555
H20 C28 1_555 1_555
C29 C28 1_555 1_555
H21 C29 1_555 1_555
C30 C25 1_555 1_555
H22 C30 1_555 1_555
C31 C7 1_555 1_555
H23 C31 1_555 1_555
C32 O2 1_555 1_555
H24 C32 1_555 1_555
H25 C32 1_555 1_555
H26 C32 1_555 1_555
C33 C29 1_555 1_555
H27 C33 1_555 1_555
C34 C13 1_555 1_555
H28 C34 1_555 1_555
C35 C24 1_555 1_555
H29 C35 1_555 1_555
C36 C12 1_555 1_555
H30 C36 1_555 1_555
C3 C11 1_555 1_555
C4 C9 1_555 1_555
C7 C14 1_555 1_555
C8 C10 1_555 1_555
C18 C23 1_555 1_555
C20 C27 1_555 1_555
C21 C22 1_555 1_555
C21 C36 1_555 1_555
C26 C30 1_555 1_555
C31 C33 1_555 1_555
C34 C35 1_555 1_555

#END
