
#######################################################################
#
#                 Cambridge Crystallographic Data Centre
#                                CCDC 
#
#######################################################################
#
# If this CIF has been generated from an entry in the Cambridge 
# Structural Database, then it will include bibliographic, chemical, 
# crystal, experimental, refinement or atomic coordinate data resulting 
# from the CCDC's data processing and validation procedures.
#
#######################################################################

data_PYDCXA11
_chemical_name_common            Pyridine-3-carboxyanilide
_chemical_formula_moiety         'C12 H10 N2 O1'
_chemical_name_systematic        N-Phenylnicotinamide
_symmetry_cell_setting           monoclinic
_symmetry_space_group_name_H-M   'C 2/c'
_symmetry_Int_Tables_number      15
_space_group_name_Hall           '-C 2yn'
loop_
_symmetry_equiv_pos_site_id
_symmetry_equiv_pos_as_xyz
1 x,y,z
2 1/2+x,1/2+y,z
3 -x,y,1/2-z
4 1/2-x,1/2+y,1/2-z
5 -x,-y,-z
6 1/2-x,1/2-y,-z
7 x,-y,1/2+z
8 1/2+x,1/2-y,1/2+z
_cell_length_a                   18.732(4)
_cell_length_b                   5.2766(11)
_cell_length_c                   20.248(4)
_cell_angle_alpha                90
_cell_angle_beta                 103.746(4)
_cell_angle_gamma                90
_cell_volume                     1944.02
_exptl_crystal_colour            colorless
_exptl_crystal_description       cylindrical
_cell_formula_units_Z            8
_exptl_crystal_recrystallization_method ethanol
loop_
_atom_site_label
_atom_site_type_symbol
_atom_site_fract_x
_atom_site_fract_y
_atom_site_fract_z
O1 O 0.70535(8) 0.6222(2) 0.07461(7)
N1 N 0.50992(9) 0.7693(3) -0.06750(9)
N2 N 0.72283(9) 1.0437(3) 0.09527(8)
H1 H 0.7016(12) 1.196(5) 0.0809(11)
C1 C 0.78193(10) 1.0299(3) 0.15450(9)
C2 C 0.83422(11) 0.8400(4) 0.16449(10)
H2 H 0.8316 0.7127 0.1322
C3 C 0.89028(11) 0.8406(4) 0.22253(10)
H3 H 0.9255 0.7128 0.2292
C4 C 0.89503(12) 1.0271(4) 0.27086(11)
H4 H 0.9327 1.0250 0.3102
C5 C 0.84308(11) 1.2170(4) 0.26008(10)
H5 H 0.8460 1.3451 0.2922
C6 C 0.78691(11) 1.2189(4) 0.20234(9)
H6 H 0.7522 1.3482 0.1955
C7 C 0.68817(11) 0.8434(3) 0.05987(9)
C8 C 0.62589(10) 0.9088(3) 0.00086(9)
C9 C 0.62425(11) 1.1201(3) -0.03994(9)
H7 H 0.6620 1.2387 -0.0303
C10 C 0.56564(11) 1.1513(4) -0.09499(10)
H8 H 0.5633 1.2900 -0.1238
C11 C 0.51068(12) 0.9730(4) -0.10646(10)
H9 H 0.4714 0.9955 -0.1439
C12 C 0.56755(11) 0.7414(4) -0.01519(10)
H10 H 0.5687 0.6000 0.0125
loop_
_geom_bond_atom_site_label_1
_geom_bond_atom_site_label_2
_geom_bond_site_symmetry_1
_geom_bond_site_symmetry_2
O1 C7 1_555 1_555
N1 C11 1_555 1_555
N2 H1 1_555 1_555
C1 N2 1_555 1_555
C2 C1 1_555 1_555
H2 C2 1_555 1_555
C3 C2 1_555 1_555
H3 C3 1_555 1_555
C4 C3 1_555 1_555
H4 C4 1_555 1_555
C5 C4 1_555 1_555
H5 C5 1_555 1_555
C6 C1 1_555 1_555
H6 C6 1_555 1_555
C7 N2 1_555 1_555
C8 C7 1_555 1_555
C9 C8 1_555 1_555
H7 C9 1_555 1_555
C10 C9 1_555 1_555
H8 C10 1_555 1_555
C11 C10 1_555 1_555
H9 C11 1_555 1_555
C12 N1 1_555 1_555
H10 C12 1_555 1_555
C5 C6 1_555 1_555
C8 C12 1_555 1_555

#END
