
#######################################################################
#
#                 Cambridge Crystallographic Data Centre
#                                CCDC 
#
#######################################################################
#
# If this CIF has been generated from an entry in the Cambridge 
# Structural Database, then it will include bibliographic, chemical, 
# crystal, experimental, refinement or atomic coordinate data resulting 
# from the CCDC's data processing and validation procedures.
#
#######################################################################

data_PYPYPC01
_chemical_formula_moiety         'C10 H9 N2 1+,Cl1 O4 1-'
_chemical_name_systematic        '2-(2-Pyridyl)pyridinium perchlorate'
_symmetry_cell_setting           monoclinic
_symmetry_space_group_name_H-M   'P c'
_symmetry_Int_Tables_number      7
_space_group_name_Hall           'P -2yc'
loop_
_symmetry_equiv_pos_site_id
_symmetry_equiv_pos_as_xyz
1 x,y,z
2 x,-y,1/2+z
_cell_length_a                   5.958(4)
_cell_length_b                   12.854(4)
_cell_length_c                   7.060(11)
_cell_angle_alpha                90
_cell_angle_beta                 100.26(7)
_cell_angle_gamma                90
_cell_volume                     532.038
_exptl_crystal_colour            colorless
_exptl_crystal_description       plate
_chemical_melting_point          '441 K'
_cell_formula_units_Z            2
loop_
_atom_site_label
_atom_site_type_symbol
_atom_site_fract_x
_atom_site_fract_y
_atom_site_fract_z
Cl1 Cl 0.78153(11) 0.18772(5) 0.12569(11)
O1 O 0.7292(4) 0.25897(17) 0.2714(3)
O2 O 1.0236(4) 0.18298(16) 0.1357(3)
O3 O 0.6951(4) 0.08604(18) 0.1587(4)
O4 O 0.6765(4) 0.2262(2) -0.0603(3)
N1 N 0.3950(4) 0.21493(19) 0.5136(4)
N2 N 0.4404(4) 0.42048(19) 0.5365(4)
C1 C 0.2347(5) 0.2674(2) 0.5864(4)
C2 C 0.0777(5) 0.2114(3) 0.6677(5)
C3 C 0.0897(5) 0.1034(3) 0.6715(5)
C4 C 0.2574(6) 0.0523(2) 0.5932(5)
C5 C 0.4097(5) 0.1101(2) 0.5145(4)
C6 C 0.2440(5) 0.3824(2) 0.5763(4)
C7 C 0.0631(5) 0.4445(2) 0.6077(5)
C8 C 0.0889(5) 0.5522(2) 0.6041(5)
C9 C 0.2908(5) 0.5928(2) 0.5643(4)
C10 C 0.4596(5) 0.5242(2) 0.5293(5)
H1 H 0.4954 0.2507 0.4627
H2 H -0.0373 0.2464 0.7205
H3 H -0.0170 0.0644 0.7277
H4 H 0.2660 -0.0215 0.5945
H5 H 0.5257 0.0767 0.4604
H6 H -0.0749 0.4143 0.6311
H7 H -0.0298 0.5969 0.6284
H8 H 0.3136 0.6659 0.5609
H9 H 0.5961 0.5525 0.4987
loop_
_geom_bond_atom_site_label_1
_geom_bond_atom_site_label_2
_geom_bond_site_symmetry_1
_geom_bond_site_symmetry_2
Cl1 O1 1_555 1_555
O2 Cl1 1_555 1_555
O3 Cl1 1_555 1_555
O4 Cl1 1_555 1_555
N1 C1 1_555 1_555
N2 C6 1_555 1_555
C1 C2 1_555 1_555
C2 C3 1_555 1_555
C3 C4 1_555 1_555
C4 C5 1_555 1_555
C5 N1 1_555 1_555
C6 C1 1_555 1_555
C7 C6 1_555 1_555
C8 C7 1_555 1_555
C9 C8 1_555 1_555
C10 N2 1_555 1_555
H1 N1 1_555 1_555
H2 C2 1_555 1_555
H3 C3 1_555 1_555
H4 C4 1_555 1_555
H5 C5 1_555 1_555
H6 C7 1_555 1_555
H7 C8 1_555 1_555
H8 C9 1_555 1_555
H9 C10 1_555 1_555
C9 C10 1_555 1_555

#END
