
#######################################################################
#
#                 Cambridge Crystallographic Data Centre
#                                CCDC 
#
#######################################################################
#
# If this CIF has been generated from an entry in the Cambridge 
# Structural Database, then it will include bibliographic, chemical, 
# crystal, experimental, refinement or atomic coordinate data resulting 
# from the CCDC's data processing and validation procedures.
#
#######################################################################

data_PYRPCT02
_chemical_formula_moiety         'C16 H10,C6 H3 N3 O7'
_chemical_name_systematic        '2,4,6-trinitrophenol pyrene'
_symmetry_cell_setting           monoclinic
_symmetry_space_group_name_H-M   'P c'
_symmetry_Int_Tables_number      7
_space_group_name_Hall           'P -2yc'
loop_
_symmetry_equiv_pos_site_id
_symmetry_equiv_pos_as_xyz
1 x,y,z
2 x,-y,1/2+z
_cell_length_a                   17.303(3)
_cell_length_b                   6.6434(10)
_cell_length_c                   16.850(3)
_cell_angle_alpha                90
_cell_angle_beta                 110.791(9)
_cell_angle_gamma                90
_cell_volume                     1810.79
_exptl_crystal_colour            red
_exptl_crystal_description       rectangular
_cell_formula_units_Z            4
loop_
_atom_site_label
_atom_site_type_symbol
_atom_site_fract_x
_atom_site_fract_y
_atom_site_fract_z
C1 C 0.2701(19) 0.122(5) 0.572(2)
C2 C 0.197(2) 0.121(4) 0.500(2)
C3 C 0.192(2) 0.127(5) 0.416(2)
H1 H 0.142090 0.130894 0.370486
C4 C 0.270(2) 0.128(7) 0.409(2)
C5 C 0.351(2) 0.129(7) 0.482(2)
C6 C 0.345(2) 0.132(6) 0.563(2)
N1 N 0.115(2) 0.135(5) 0.517(2)
N2 N 0.267(3) 0.119(6) 0.318(2)
N3 N 0.420(2) 0.123(6) 0.637(2)
O1 O 0.0570(18) 0.118(5) 0.446(2)
O2 O 0.1173(17) 0.105(4) 0.584(2)
O3 O 0.205(2) 0.119(4) 0.2609(16)
O4 O 0.345(2) 0.130(5) 0.317(2)
O5 O 0.409(2) 0.158(6) 0.7017(19)
O6 O 0.4844(18) 0.117(6) 0.630(2)
O7 O 0.416(2) 0.130(5) 0.454(3)
H2 H 0.398832 0.129731 0.401754
H3 H 0.251(13) 0.09(3) 0.627(4)
C7 C 0.797(2) 0.371(4) 0.579(2)
H4 H 0.844197 0.363206 0.627049
C8 C 0.805(2) 0.379(5) 0.5013(19)
C9 C 0.7357(18) 0.382(5) 0.431(2)
H5 H 0.739926 0.388525 0.377486
C10 C 0.6593(19) 0.376(5) 0.438(2)
C11 C 0.653(2) 0.374(6) 0.519(2)
C12 C 0.722(2) 0.374(5) 0.589(2)
N4 N 0.715(2) 0.373(5) 0.666(2)
N5 N 0.584(2) 0.368(6) 0.358(2)
N6 N 0.883(2) 0.380(6) 0.492(3)
O8 O 0.6566(19) 0.369(5) 0.6816(17)
O9 O 0.779(2) 0.381(5) 0.725(2)
O10 O 0.5138(17) 0.385(5) 0.3647(17)
O11 O 0.594(2) 0.348(7) 0.287(2)
O12 O 0.9456(16) 0.399(5) 0.551(2)
O13 O 0.8842(18) 0.376(5) 0.418(2)
O14 O 0.5771(16) 0.366(5) 0.5163(16)
H6 H 0.545759 0.357626 0.466750
C13 C 0.343(2) 0.629(4) 0.381(3)
H7 H 0.391330 0.636394 0.369702
C14 C 0.264(3) 0.628(4) 0.315(3)
H8 H 0.262296 0.629409 0.259435
C15 C 0.191(2) 0.625(4) 0.327(2)
C16 C 0.115(3) 0.620(8) 0.256(3)
H9 H 0.111653 0.615360 0.200098
C17 C 0.052(3) 0.621(9) 0.277(3)
H10 H 0.002459 0.634636 0.231336
C18 C 0.041(2) 0.605(6) 0.357(3)
H11 H -0.011652 0.585045 0.359165
C19 C 0.110(2) 0.621(6) 0.431(2)
C20 C 0.120(2) 0.627(6) 0.519(2)
H12 H 0.072442 0.635712 0.532553
C21 C 0.190(2) 0.621(6) 0.582(2)
H13 H 0.190304 0.610169 0.637531
C22 C 0.266(2) 0.631(5) 0.567(2)
C23 C 0.335(2) 0.632(6) 0.629(3)
H14 H 0.330030 0.644679 0.681580
C24 C 0.418(2) 0.616(7) 0.633(3)
H15 H 0.465270 0.607045 0.681363
C25 C 0.414(2) 0.617(8) 0.549(3)
H16 H 0.464741 0.617136 0.542008
C26 C 0.344(2) 0.619(6) 0.472(2)
C27 C 0.2622(18) 0.622(6) 0.4830(19)
C28 C 0.1865(18) 0.624(5) 0.4131(19)
C29 C 0.645(3) 0.878(5) 0.373(4)
H17 H 0.636011 0.879312 0.315095
C30 C 0.733(3) 0.876(3) 0.431(3)
C31 C 0.822(3) 0.874(5) 0.433(3)
H18 H 0.828317 0.890482 0.380879
C32 C 0.899(3) 0.851(6) 0.505(3)
H19 H 0.950570 0.817851 0.502412
C33 C 0.884(2) 0.886(7) 0.577(3)
C34 C 0.962(3) 0.880(9) 0.649(4)
H20 H 1.009871 0.872132 0.635988
C35 C 0.972(3) 0.884(8) 0.729(4)
H21 H 1.022500 0.889821 0.773056
C36 C 0.892(3) 0.878(6) 0.738(3)
H22 H 0.891355 0.876335 0.793325
C37 C 0.815(2) 0.874(5) 0.672(3)
C38 C 0.736(2) 0.872(6) 0.686(3)
H23 H 0.735788 0.869410 0.741036
C39 C 0.673(3) 0.874(7) 0.628(3)
H24 H 0.624608 0.874769 0.640817
C40 C 0.662(3) 0.876(6) 0.537(2)
C41 C 0.584(3) 0.881(6) 0.481(3)
H25 H 0.536394 0.886000 0.495477
C42 C 0.584(4) 0.878(8) 0.393(3)
H26 H 0.533180 0.876505 0.349585
C43 C 0.726(2) 0.871(6) 0.518(2)
C44 C 0.806(2) 0.870(6) 0.586(2)
loop_
_geom_bond_atom_site_label_1
_geom_bond_atom_site_label_2
_geom_bond_site_symmetry_1
_geom_bond_site_symmetry_2
C1 C2 1_555 1_555
C2 C3 1_555 1_555
C3 H1 1_555 1_555
C4 C3 1_555 1_555
C5 C4 1_555 1_555
C6 C1 1_555 1_555
N1 C2 1_555 1_555
N2 C4 1_555 1_555
N3 C6 1_555 1_555
O1 N1 1_555 1_555
O2 N1 1_555 1_555
O3 N2 1_555 1_555
O4 N2 1_555 1_555
O5 N3 1_555 1_555
O6 N3 1_555 1_555
O7 C5 1_555 1_555
H2 O7 1_555 1_555
H3 C1 1_555 1_555
C7 H4 1_555 1_555
C8 C7 1_555 1_555
C9 C8 1_555 1_555
H5 C9 1_555 1_555
C10 C9 1_555 1_555
C11 C10 1_555 1_555
C12 C7 1_555 1_555
N4 C12 1_555 1_555
N5 C10 1_555 1_555
N6 C8 1_555 1_555
O8 N4 1_555 1_555
O9 N4 1_555 1_555
O10 N5 1_555 1_555
O11 N5 1_555 1_555
O12 N6 1_555 1_555
O13 N6 1_555 1_555
O14 C11 1_555 1_555
H6 O14 1_555 1_555
C13 H7 1_555 1_555
C14 C13 1_555 1_555
H8 C14 1_555 1_555
C15 C14 1_555 1_555
C16 C15 1_555 1_555
H9 C16 1_555 1_555
C17 C16 1_555 1_555
H10 C17 1_555 1_555
C18 C17 1_555 1_555
H11 C18 1_555 1_555
C19 C18 1_555 1_555
C20 C19 1_555 1_555
H12 C20 1_555 1_555
C21 C20 1_555 1_555
H13 C21 1_555 1_555
C22 C21 1_555 1_555
C23 C22 1_555 1_555
H14 C23 1_555 1_555
C24 C23 1_555 1_555
H15 C24 1_555 1_555
C25 C24 1_555 1_555
H16 C25 1_555 1_555
C26 C13 1_555 1_555
C27 C22 1_555 1_555
C28 C15 1_555 1_555
C29 H17 1_555 1_555
C30 C29 1_555 1_555
C31 C30 1_555 1_555
H18 C31 1_555 1_555
C32 C31 1_555 1_555
H19 C32 1_555 1_555
C33 C32 1_555 1_555
C34 C33 1_555 1_555
H20 C34 1_555 1_555
C35 C34 1_555 1_555
H21 C35 1_555 1_555
C36 C35 1_555 1_555
H22 C36 1_555 1_555
C37 C36 1_555 1_555
C38 C37 1_555 1_555
H23 C38 1_555 1_555
C39 C38 1_555 1_555
H24 C39 1_555 1_555
C40 C39 1_555 1_555
C41 C40 1_555 1_555
H25 C41 1_555 1_555
C42 C29 1_555 1_555
H26 C42 1_555 1_555
C43 C30 1_555 1_555
C44 C33 1_555 1_555
C5 C6 1_555 1_555
C11 C12 1_555 1_555
C19 C28 1_555 1_555
C25 C26 1_555 1_555
C26 C27 1_555 1_555
C27 C28 1_555 1_555
C37 C44 1_555 1_555
C40 C43 1_555 1_555
C41 C42 1_555 1_555
C43 C44 1_555 1_555

#END
