
#######################################################################
#
#                 Cambridge Crystallographic Data Centre
#                                CCDC 
#
#######################################################################
#
# If this CIF has been generated from an entry in the Cambridge 
# Structural Database, then it will include bibliographic, chemical, 
# crystal, experimental, refinement or atomic coordinate data resulting 
# from the CCDC's data processing and validation procedures.
#
#######################################################################

data_PYRTCQ03
_chemical_formula_moiety         'C16 H10,C12 H4 N4'
_chemical_name_systematic        
"2,2'-(cyclohexa-2,5-diene-1,4-diylidene)dipropanedinitrile pyrene"
_symmetry_cell_setting           monoclinic
_symmetry_space_group_name_H-M   'P 21/n'
_symmetry_Int_Tables_number      14
_space_group_name_Hall           '-P 2yn'
loop_
_symmetry_equiv_pos_site_id
_symmetry_equiv_pos_as_xyz
1 x,y,z
2 1/2-x,1/2+y,1/2-z
3 -x,-y,-z
4 1/2+x,1/2-y,1/2+z
_cell_length_a                   6.9996(7)
_cell_length_b                   10.0807(10)
_cell_length_c                   14.6724(15)
_cell_angle_alpha                90
_cell_angle_beta                 103.5670(10)
_cell_angle_gamma                90
_cell_volume                     1006.41
_exptl_crystal_colour            black
_exptl_crystal_description       prism
_cell_formula_units_Z            2
loop_
_atom_site_label
_atom_site_type_symbol
_atom_site_fract_x
_atom_site_fract_y
_atom_site_fract_z
N1 N 0.08659(13) 0.93426(9) 0.40309(6)
C1 C 0.20114(15) 0.81092(10) 0.62949(7)
N2 N 0.27270(15) 0.84872(9) 0.70334(7)
C2 C 0.11610(14) 0.76355(9) 0.53662(7)
C3 C 0.09940(15) 0.85830(9) 0.46250(7)
C4 C 0.05877(13) 0.63346(9) 0.51930(7)
C5 C 0.07380(14) 0.53874(9) 0.59433(7)
H1 H 0.1220 0.5657 0.6561
C6 C 0.01855(14) 0.41121(9) 0.57588(7)
H2 H 0.0304 0.3513 0.6251
N1B N -0.08659(13) 0.06574(9) 0.59691(6)
C1B C -0.20114(15) 0.18908(10) 0.37051(7)
N2B N -0.27270(15) 0.15128(9) 0.29666(7)
C2B C -0.11610(14) 0.23645(9) 0.46338(7)
C3B C -0.09940(15) 0.14170(9) 0.53750(7)
C4B C -0.05877(13) 0.36654(9) 0.48070(7)
C5B C -0.07380(14) 0.46126(9) 0.40567(7)
H1B H -0.1220 0.4343 0.3439
C6B C -0.01855(14) 0.58879(9) 0.42412(7)
H2B H -0.0304 0.6487 0.3749
C7 C 0.58363(14) 0.65683(10) 0.56743(8)
C8 C 0.61693(15) 0.78981(11) 0.54831(8)
H3 H 0.6589 0.8490 0.5976
C9 C 0.51707(14) 0.56793(10) 0.49107(7)
C10 C 0.48612(15) 0.61443(10) 0.39736(8)
C11 C 0.52369(15) 0.74853(11) 0.38195(8)
H4 H 0.5052 0.7800 0.3209
C12 C 0.58789(16) 0.83428(11) 0.45646(9)
H5 H 0.6119 0.9227 0.4449
C13 C 0.42218(15) 0.52230(11) 0.32205(8)
H6 H 0.4027 0.5517 0.2605
C14 C 0.38956(15) 0.39335(11) 0.33879(8)
H7 H 0.3488 0.3358 0.2884
C7B C 0.41637(14) 0.34317(10) 0.43257(8)
C8B C 0.38307(15) 0.21019(11) 0.45169(8)
H3B H 0.3411 0.1510 0.4024
C9B C 0.48293(14) 0.43207(10) 0.50893(7)
C10B C 0.51388(15) 0.38557(10) 0.60264(8)
C11B C 0.47631(15) 0.25147(11) 0.61805(8)
H4B H 0.4948 0.2200 0.6791
C12B C 0.41211(16) 0.16572(11) 0.54354(9)
H5B H 0.3881 0.0773 0.5551
C13B C 0.57782(15) 0.47770(11) 0.67795(8)
H6B H 0.5973 0.4483 0.7395
C14B C 0.61044(15) 0.60665(11) 0.66121(8)
H7B H 0.6512 0.6642 0.7116
loop_
_geom_bond_atom_site_label_1
_geom_bond_atom_site_label_2
_geom_bond_site_symmetry_1
_geom_bond_site_symmetry_2
N1 C3 1_555 1_555
C1 N2 1_555 1_555
C2 C1 1_555 1_555
C3 C2 1_555 1_555
C4 C2 1_555 1_555
C5 C4 1_555 1_555
H1 C5 1_555 1_555
C6 C5 1_555 1_555
H2 C6 1_555 1_555
C7 C8 1_555 1_555
C8 H3 1_555 1_555
C9 C7 1_555 1_555
C10 C9 1_555 1_555
C11 C10 1_555 1_555
H4 C11 1_555 1_555
C12 C8 1_555 1_555
H5 C12 1_555 1_555
C13 C10 1_555 1_555
H6 C13 1_555 1_555
C14 C13 1_555 1_555
H7 C14 1_555 1_555
N1B C3B 1_555 1_555
C1B N2B 1_555 1_555
C2B C1B 1_555 1_555
C3B C2B 1_555 1_555
C4B C6 1_555 1_555
C5B C4B 1_555 1_555
H1B C5B 1_555 1_555
C6B C4 1_555 1_555
H2B C6B 1_555 1_555
C7B C14 1_555 1_555
C8B C7B 1_555 1_555
H3B C8B 1_555 1_555
C9B C9 1_555 1_555
C10B C9B 1_555 1_555
C11B C10B 1_555 1_555
H4B C11B 1_555 1_555
C12B C8B 1_555 1_555
H5B C12B 1_555 1_555
C13B C10B 1_555 1_555
H6B C13B 1_555 1_555
C14B C7 1_555 1_555
H7B C14B 1_555 1_555
C11 C12 1_555 1_555
C2B C4B 1_555 1_555
C5B C6B 1_555 1_555
C7B C9B 1_555 1_555
C11B C12B 1_555 1_555
C13B C14B 1_555 1_555

#END
