
#######################################################################
#
#                 Cambridge Crystallographic Data Centre
#                                CCDC 
#
#######################################################################
#
# If this CIF has been generated from an entry in the Cambridge 
# Structural Database, then it will include bibliographic, chemical, 
# crystal, experimental, refinement or atomic coordinate data resulting 
# from the CCDC's data processing and validation procedures.
#
#######################################################################

data_QABLIR
_chemical_formula_moiety         'C19 H19 N1 O3'
_chemical_name_systematic        
'ethyl 2-(3-methoxyphenyl)-1-methyl-1H-indole-3-carboxylate'
_symmetry_cell_setting           monoclinic
_symmetry_space_group_name_H-M   'P 21'
_symmetry_Int_Tables_number      4
_space_group_name_Hall           'P 2yb'
loop_
_symmetry_equiv_pos_site_id
_symmetry_equiv_pos_as_xyz
1 x,y,z
2 -x,1/2+y,-z
_cell_length_a                   9.2196(18)
_cell_length_b                   6.1859(12)
_cell_length_c                   14.230(3)
_cell_angle_alpha                90
_cell_angle_beta                 94.59(3)
_cell_angle_gamma                90
_cell_volume                     808.956
_exptl_crystal_colour            colorless
_exptl_crystal_description       needle
_cell_formula_units_Z            2
loop_
_atom_site_label
_atom_site_type_symbol
_atom_site_fract_x
_atom_site_fract_y
_atom_site_fract_z
O1 O 0.71636(14) 0.1605(3) 0.48791(9)
O2 O 1.04301(14) 0.8510(3) 0.67662(10)
O3 O 1.25720(13) 0.8501(2) 0.76226(9)
N1 N 0.97821(14) 0.2838(3) 0.84029(10)
C1 C 1.09259(17) 0.5803(3) 0.79288(11)
C2 C 1.18030(16) 0.4848(3) 0.87135(10)
C3 C 1.31510(18) 0.5331(4) 0.91961(11)
H1 H 1.3679 0.6537 0.9033
C4 C 1.36793(19) 0.3986(4) 0.99169(12)
H2 H 1.4570 0.4302 1.0241
C5 C 1.2916(2) 0.2175(4) 1.01711(12)
H3 H 1.3310 0.1296 1.0657
C6 C 1.1582(2) 0.1649(4) 0.97180(12)
H4 H 1.1062 0.0444 0.9891
C7 C 1.10507(17) 0.3018(3) 0.89846(10)
C8 C 0.97066(17) 0.4505(3) 0.77685(11)
C9 C 0.84794(17) 0.4581(3) 0.70214(11)
C10 C 0.84509(17) 0.3044(3) 0.63072(12)
H5 H 0.9193 0.2028 0.6295
C11 C 0.72999(18) 0.3041(4) 0.56087(11)
C12 C 0.61934(19) 0.4536(4) 0.56380(13)
H6 H 0.5425 0.4526 0.5173
C13 C 0.6222(2) 0.6032(4) 0.63472(14)
H7 H 0.5468 0.7027 0.6363
C14 C 0.7372(2) 0.6078(4) 0.70477(13)
H8 H 0.7392 0.7104 0.7526
C15 C 1.12401(18) 0.7704(3) 0.73755(11)
C16 C 1.2983(2) 1.0407(4) 0.71246(13)
H9 H 1.2275 1.1549 0.7185
H10 H 1.3030 1.0088 0.6460
C17 C 1.4446(2) 1.1097(5) 0.75545(17)
H11 H 1.4755 1.2368 0.7239
H12 H 1.5136 0.9955 0.7489
H13 H 1.4385 1.1409 0.8211
C18 C 0.8669(2) 0.1221(4) 0.85180(14)
H14 H 0.7887 0.1408 0.8037
H15 H 0.8303 0.1381 0.9127
H16 H 0.9080 -0.0196 0.8466
C19 C 0.8278(3) 0.0023(5) 0.48169(15)
H17 H 0.8046 -0.0880 0.4277
H18 H 0.8346 -0.0849 0.5377
H19 H 0.9192 0.0732 0.4755
loop_
_geom_bond_atom_site_label_1
_geom_bond_atom_site_label_2
_geom_bond_site_symmetry_1
_geom_bond_site_symmetry_2
O1 C11 1_555 1_555
O2 C15 1_555 1_555
O3 C15 1_555 1_555
N1 C7 1_555 1_555
C1 C2 1_555 1_555
C2 C3 1_555 1_555
C3 H1 1_555 1_555
C4 C3 1_555 1_555
H2 C4 1_555 1_555
C5 C4 1_555 1_555
H3 C5 1_555 1_555
C6 C5 1_555 1_555
H4 C6 1_555 1_555
C7 C2 1_555 1_555
C8 N1 1_555 1_555
C9 C8 1_555 1_555
C10 C9 1_555 1_555
H5 C10 1_555 1_555
C11 C10 1_555 1_555
C12 C11 1_555 1_555
H6 C12 1_555 1_555
C13 C12 1_555 1_555
H7 C13 1_555 1_555
C14 C9 1_555 1_555
H8 C14 1_555 1_555
C15 C1 1_555 1_555
C16 O3 1_555 1_555
H9 C16 1_555 1_555
H10 C16 1_555 1_555
C17 C16 1_555 1_555
H11 C17 1_555 1_555
H12 C17 1_555 1_555
H13 C17 1_555 1_555
C18 N1 1_555 1_555
H14 C18 1_555 1_555
H15 C18 1_555 1_555
H16 C18 1_555 1_555
C19 O1 1_555 1_555
H17 C19 1_555 1_555
H18 C19 1_555 1_555
H19 C19 1_555 1_555
C1 C8 1_555 1_555
C6 C7 1_555 1_555
C13 C14 1_555 1_555

#END
