
#######################################################################
#
#                 Cambridge Crystallographic Data Centre
#                                CCDC 
#
#######################################################################
#
# If this CIF has been generated from an entry in the Cambridge 
# Structural Database, then it will include bibliographic, chemical, 
# crystal, experimental, refinement or atomic coordinate data resulting 
# from the CCDC's data processing and validation procedures.
#
#######################################################################

data_QABQOC
_chemical_formula_moiety         'C19 H17 N1 O2'
_chemical_name_systematic        
1,4'-dimethylspiro[indole-3,7'-[5]oxatricyclo[6.2.1.0^2,6^]undeca[2(6),3,9]trien]-2(1H)-one
_symmetry_cell_setting           monoclinic
_symmetry_space_group_name_H-M   'C 2/c'
_symmetry_Int_Tables_number      15
_space_group_name_Hall           '-C 2yn'
loop_
_symmetry_equiv_pos_site_id
_symmetry_equiv_pos_as_xyz
1 x,y,z
2 -x,y,1/2-z
3 1/2+x,1/2+y,z
4 1/2-x,1/2+y,1/2-z
5 -x,-y,-z
6 x,-y,1/2+z
7 1/2-x,1/2-y,-z
8 1/2+x,1/2-y,1/2+z
_cell_length_a                   16.9806(5)
_cell_length_b                   8.6168(2)
_cell_length_c                   20.4475(6)
_cell_angle_alpha                90
_cell_angle_beta                 98.426(3)
_cell_angle_gamma                90
_cell_volume                     2959.55
_exptl_crystal_colour            colorless
_exptl_crystal_description       plate
_cell_formula_units_Z            8
loop_
_atom_site_label
_atom_site_type_symbol
_atom_site_fract_x
_atom_site_fract_y
_atom_site_fract_z
O1 O 0.22785(7) 0.99205(12) 0.35835(6)
O2 O 0.38926(10) 0.69511(16) 0.36929(7)
N1 N 0.36828(8) 0.73102(15) 0.47646(7)
C1 C 0.37615(9) 0.77946(19) 0.41420(8)
C2 C 0.36897(9) 0.95870(18) 0.41232(7)
C3 C 0.35056(9) 0.99373(16) 0.48102(7)
C4 C 0.33387(10) 1.13132(19) 0.51046(8)
H1 H 0.3329 1.2243 0.4872
C5 C 0.31835(12) 1.1292(2) 0.57570(9)
H2 H 0.3076 1.2215 0.5963
C6 C 0.31897(12) 0.9909(2) 0.60978(9)
H3 H 0.3084 0.9915 0.6532
C7 C 0.33499(11) 0.8505(2) 0.58072(9)
H4 H 0.3352 0.7574 0.6037
C8 C 0.35061(9) 0.85535(18) 0.51623(8)
C9 C 0.37226(12) 0.5698(2) 0.49699(10)
H5 H 0.4118 0.5583 0.5353
H6 H 0.3862 0.5065 0.4618
H7 H 0.3214 0.5380 0.5075
C10 C 0.45145(10) 1.0261(2) 0.39861(9)
H8 H 0.4964 0.9729 0.4248
C11 C 0.45628(11) 1.0190(2) 0.32387(10)
H9 H 0.5103 1.0333 0.3149
H10 H 0.4352 0.9223 0.3044
C12 C 0.40273(12) 1.1581(2) 0.29963(9)
H11 H 0.4091 1.1946 0.2553
C13 C 0.31874(10) 1.1090(2) 0.30642(8)
C14 C 0.24160(12) 1.1439(2) 0.27173(9)
H12 H 0.2301 1.2053 0.2341
C15 C 0.18857(11) 1.0705(2) 0.30421(8)
C16 C 0.30741(9) 1.01709(18) 0.35769(8)
C17 C 0.45501(10) 1.2003(2) 0.40956(10)
H13 H 0.4732 1.2478 0.4498
C18 C 0.42878(12) 1.2755(2) 0.35440(11)
H14 H 0.4265 1.3828 0.3497
C19 C 0.10026(12) 1.0631(3) 0.29475(11)
H15 H 0.0836 0.9566 0.2942
H16 H 0.0793 1.1113 0.2535
H17 H 0.0808 1.1165 0.3304
loop_
_geom_bond_atom_site_label_1
_geom_bond_atom_site_label_2
_geom_bond_site_symmetry_1
_geom_bond_site_symmetry_2
O1 C15 1_555 1_555
O2 C1 1_555 1_555
N1 C1 1_555 1_555
C1 C2 1_555 1_555
C2 C3 1_555 1_555
C3 C4 1_555 1_555
C4 H1 1_555 1_555
C5 C4 1_555 1_555
H2 C5 1_555 1_555
C6 C5 1_555 1_555
H3 C6 1_555 1_555
C7 C6 1_555 1_555
H4 C7 1_555 1_555
C8 N1 1_555 1_555
C9 N1 1_555 1_555
H5 C9 1_555 1_555
H6 C9 1_555 1_555
H7 C9 1_555 1_555
C10 C2 1_555 1_555
H8 C10 1_555 1_555
C11 C10 1_555 1_555
H9 C11 1_555 1_555
H10 C11 1_555 1_555
C12 C11 1_555 1_555
H11 C12 1_555 1_555
C13 C12 1_555 1_555
C14 C13 1_555 1_555
H12 C14 1_555 1_555
C15 C14 1_555 1_555
C16 O1 1_555 1_555
C17 C10 1_555 1_555
H13 C17 1_555 1_555
C18 C12 1_555 1_555
H14 C18 1_555 1_555
C19 C15 1_555 1_555
H15 C19 1_555 1_555
H16 C19 1_555 1_555
H17 C19 1_555 1_555
C2 C16 1_555 1_555
C3 C8 1_555 1_555
C7 C8 1_555 1_555
C13 C16 1_555 1_555
C17 C18 1_555 1_555

#END
