
#######################################################################
#
#                 Cambridge Crystallographic Data Centre
#                                CCDC 
#
#######################################################################
#
# If this CIF has been generated from an entry in the Cambridge 
# Structural Database, then it will include bibliographic, chemical, 
# crystal, experimental, refinement or atomic coordinate data resulting 
# from the CCDC's data processing and validation procedures.
#
#######################################################################

data_QABVAS
_chemical_formula_moiety         'C37 H24 O3'
_chemical_name_systematic        
11,13,20-Triphenyl-2,10,22-trioxahexacyclo[10.8.1.1^13,20^.0^3,8^.0^9,21^.0^14,19^]docosa-3,5,7,9(21),11,14,16,18-octaene
_symmetry_cell_setting           monoclinic
_symmetry_space_group_name_H-M   'P 21/c'
_symmetry_Int_Tables_number      14
_space_group_name_Hall           '-P 2ybc'
loop_
_symmetry_equiv_pos_site_id
_symmetry_equiv_pos_as_xyz
1 x,y,z
2 -x,1/2+y,1/2-z
3 -x,-y,-z
4 x,1/2-y,1/2+z
_cell_length_a                   12.6485(4)
_cell_length_b                   13.5871(4)
_cell_length_c                   15.6450(5)
_cell_angle_alpha                90
_cell_angle_beta                 94.2360(10)
_cell_angle_gamma                90
_cell_volume                     2681.35
_exptl_crystal_colour            colorless
_exptl_crystal_description       block
_cell_formula_units_Z            4
loop_
_atom_site_label
_atom_site_type_symbol
_atom_site_fract_x
_atom_site_fract_y
_atom_site_fract_z
O1 O 0.05665(8) 0.99650(7) 0.10772(7)
O2 O 0.19945(7) 0.69530(7) 0.09760(6)
O3 O 0.36383(8) 0.91578(8) 0.13168(7)
C1 C 0.48656(14) 0.71629(15) 0.11420(14)
H1 H 0.4956 0.7840 0.1096
C2 C 0.57279(17) 0.65412(19) 0.10909(17)
H2 H 0.6393 0.6804 0.1014
C3 C 0.56089(18) 0.55482(18) 0.11530(17)
H3 H 0.6191 0.5134 0.1126
C4 C 0.46310(19) 0.51675(17) 0.12543(19)
H4 H 0.4543 0.4489 0.1288
C5 C 0.37677(16) 0.57810(14) 0.13067(15)
H5 H 0.3103 0.5511 0.1375
C6 C 0.38793(12) 0.67874(12) 0.12597(9)
C7 C 0.00090(17) 0.57502(13) 0.17274(12)
H6 H 0.0404 0.5674 0.2249
C8 C -0.0774(2) 0.50782(14) 0.14842(15)
H7 H -0.0917 0.4564 0.1851
C9 C -0.13397(15) 0.51607(14) 0.07109(14)
H8 H -0.1861 0.4701 0.0547
C10 C -0.11351(14) 0.59237(14) 0.01778(13)
H9 H -0.1511 0.5978 -0.0354
C11 C -0.03727(12) 0.66119(12) 0.04264(11)
H10 H -0.0250 0.7136 0.0065
C12 C 0.02115(11) 0.65335(10) 0.12053(9)
C13 C -0.14164(14) 0.83024(13) 0.18834(12)
H11 H -0.1014 0.7745 0.2023
C14 C -0.24449(15) 0.83538(16) 0.21069(14)
H12 H -0.2734 0.7832 0.2395
C15 C -0.30500(15) 0.91777(16) 0.19049(15)
H13 H -0.3747 0.9213 0.2055
C16 C -0.26174(15) 0.99442(14) 0.14812(14)
H14 H -0.3023 1.0502 0.1346
C17 C -0.15919(13) 0.98965(12) 0.12549(11)
H15 H -0.1310 1.0422 0.0966
C18 C -0.09695(12) 0.90737(11) 0.14508(9)
C19 C 0.24340(13) 1.05246(12) 0.09104(10)
C20 C 0.23215(16) 1.15184(13) 0.07305(13)
H16 H 0.1648 1.1784 0.0616
C21 C 0.32005(18) 1.21152(15) 0.07204(16)
H17 H 0.3120 1.2782 0.0598
C22 C 0.41914(18) 1.17285(16) 0.08894(17)
H18 H 0.4782 1.2135 0.0880
C23 C 0.43268(16) 1.07396(15) 0.10741(15)
H19 H 0.5004 1.0485 0.1192
C24 C 0.34585(13) 1.01333(12) 0.10827(11)
C25 C 0.29021(11) 0.84519(11) 0.09222(9)
H20 H 0.3048 0.8363 0.0321
C26 C 0.18143(12) 0.88402(11) 0.09673(9)
C27 C 0.16061(12) 0.98030(11) 0.09428(10)
C28 C 0.01272(12) 0.90435(10) 0.12333(9)
C29 C 0.08882(11) 0.83346(10) 0.11669(8)
C30 C 0.10814(11) 0.72630(10) 0.14303(9)
C31 C 0.29279(11) 0.74358(10) 0.13763(9)
C32 C 0.26542(11) 0.75209(10) 0.22993(9)
C33 C 0.33035(13) 0.77735(11) 0.30145(9)
H21 H 0.4020 0.7905 0.2974
C34 C 0.28531(14) 0.78245(12) 0.37951(10)
H22 H 0.3272 0.7995 0.4286
C35 C 0.17951(14) 0.76258(11) 0.38506(9)
H23 H 0.1513 0.7648 0.4382
C36 C 0.11398(13) 0.73922(11) 0.31279(9)
H24 H 0.0422 0.7270 0.3168
C37 C 0.15838(11) 0.73459(10) 0.23469(9)
loop_
_geom_bond_atom_site_label_1
_geom_bond_atom_site_label_2
_geom_bond_site_symmetry_1
_geom_bond_site_symmetry_2
O1 C27 1_555 1_555
O2 C30 1_555 1_555
O3 C24 1_555 1_555
C1 H1 1_555 1_555
C2 C1 1_555 1_555
H2 C2 1_555 1_555
C3 C2 1_555 1_555
H3 C3 1_555 1_555
C4 C3 1_555 1_555
H4 C4 1_555 1_555
C5 C4 1_555 1_555
H5 C5 1_555 1_555
C6 C1 1_555 1_555
C7 H6 1_555 1_555
C8 C7 1_555 1_555
H7 C8 1_555 1_555
C9 C8 1_555 1_555
H8 C9 1_555 1_555
C10 C9 1_555 1_555
H9 C10 1_555 1_555
C11 C10 1_555 1_555
H10 C11 1_555 1_555
C12 C7 1_555 1_555
C13 H11 1_555 1_555
C14 C13 1_555 1_555
H12 C14 1_555 1_555
C15 C14 1_555 1_555
H13 C15 1_555 1_555
C16 C15 1_555 1_555
H14 C16 1_555 1_555
C17 C16 1_555 1_555
H15 C17 1_555 1_555
C18 C13 1_555 1_555
C19 C20 1_555 1_555
C20 H16 1_555 1_555
C21 C20 1_555 1_555
H17 C21 1_555 1_555
C22 C21 1_555 1_555
H18 C22 1_555 1_555
C23 C22 1_555 1_555
H19 C23 1_555 1_555
C24 C19 1_555 1_555
C25 O3 1_555 1_555
H20 C25 1_555 1_555
C26 C25 1_555 1_555
C27 C19 1_555 1_555
C28 O1 1_555 1_555
C29 C26 1_555 1_555
C30 C12 1_555 1_555
C31 O2 1_555 1_555
C32 C31 1_555 1_555
C33 C32 1_555 1_555
H21 C33 1_555 1_555
C34 C33 1_555 1_555
H22 C34 1_555 1_555
C35 C34 1_555 1_555
H23 C35 1_555 1_555
C36 C35 1_555 1_555
H24 C36 1_555 1_555
C37 C30 1_555 1_555
C5 C6 1_555 1_555
C6 C31 1_555 1_555
C11 C12 1_555 1_555
C17 C18 1_555 1_555
C18 C28 1_555 1_555
C23 C24 1_555 1_555
C25 C31 1_555 1_555
C26 C27 1_555 1_555
C28 C29 1_555 1_555
C29 C30 1_555 1_555
C32 C37 1_555 1_555
C36 C37 1_555 1_555

#END
