
#######################################################################
#
#                 Cambridge Crystallographic Data Centre
#                                CCDC 
#
#######################################################################
#
# If this CIF has been generated from an entry in the Cambridge 
# Structural Database, then it will include bibliographic, chemical, 
# crystal, experimental, refinement or atomic coordinate data resulting 
# from the CCDC's data processing and validation procedures.
#
#######################################################################

data_QACBUU
_chemical_formula_moiety         'C9 H7 O2 1-,C3 H10 N1 1+'
_chemical_name_systematic        'propan-2-aminium 3-phenylacrylate'
_symmetry_cell_setting           monoclinic
_symmetry_space_group_name_H-M   'P 21'
_symmetry_Int_Tables_number      4
_space_group_name_Hall           'P 2yb'
loop_
_symmetry_equiv_pos_site_id
_symmetry_equiv_pos_as_xyz
1 x,y,z
2 -x,1/2+y,-z
_cell_length_a                   7.1957(6)
_cell_length_b                   6.4365(5)
_cell_length_c                   13.3816(11)
_cell_angle_alpha                90
_cell_angle_beta                 92.7390(10)
_cell_angle_gamma                90
_cell_volume                     619.062
_exptl_crystal_colour            colorless
_exptl_crystal_description       block
_cell_formula_units_Z            2
loop_
_atom_site_label
_atom_site_type_symbol
_atom_site_fract_x
_atom_site_fract_y
_atom_site_fract_z
O1 O 0.6185(3) 0.5873(3) 0.89292(15)
O2 O 0.6427(3) 0.2723(3) 0.82772(16)
C1 C 0.6433(4) 0.4654(6) 0.8212(2)
C2 C 0.6743(4) 0.5520(5) 0.7197(2)
H1 H 0.6773 0.4570 0.6674
C3 C 0.6975(4) 0.7461(5) 0.6969(2)
H2 H 0.6963 0.8407 0.7495
C4 C 0.7257(3) 0.8330(4) 0.59617(19)
C5 C 0.8016(4) 1.0275(5) 0.5873(2)
H3 H 0.8321 1.1038 0.6448
C6 C 0.8338(4) 1.1129(6) 0.4942(3)
H4 H 0.8856 1.2447 0.4895
C7 C 0.7882(5) 1.0004(6) 0.4090(3)
H5 H 0.8118 1.0547 0.3465
C8 C 0.7076(4) 0.8074(6) 0.4166(2)
H6 H 0.6742 0.7331 0.3589
C9 C 0.6762(4) 0.7236(5) 0.5090(2)
H7 H 0.6216 0.5932 0.5132
N1 N 0.5631(4) 0.4655(5) 0.08855(19)
H8 H 0.482(5) 0.582(6) 0.119(2)
H9 H 0.486(5) 0.333(6) 0.096(2)
H10 H 0.589(4) 0.487(5) 0.025(2)
C10 C 0.8447(6) 0.6579(8) 0.1365(3)
H11 H 0.8539 0.6939 0.0673
H12 H 0.9672 0.6486 0.1679
H13 H 0.7749 0.7627 0.1693
C11 C 0.7481(5) 0.4523(7) 0.1443(3)
H14 H 0.7281 0.4236 0.2149
C12 C 0.8547(6) 0.2726(9) 0.1013(4)
H15 H 0.8596 0.2895 0.0301
H16 H 0.7931 0.1444 0.1155
H17 H 0.9789 0.2702 0.1308
loop_
_geom_bond_atom_site_label_1
_geom_bond_atom_site_label_2
_geom_bond_site_symmetry_1
_geom_bond_site_symmetry_2
O1 C1 1_555 1_555
O2 C1 1_555 1_555
C1 C2 1_555 1_555
C2 H1 1_555 1_555
C3 C2 1_555 1_555
H2 C3 1_555 1_555
C4 C3 1_555 1_555
C5 C4 1_555 1_555
H3 C5 1_555 1_555
C6 C5 1_555 1_555
H4 C6 1_555 1_555
C7 C6 1_555 1_555
H5 C7 1_555 1_555
C8 C7 1_555 1_555
H6 C8 1_555 1_555
C9 C4 1_555 1_555
H7 C9 1_555 1_555
N1 H8 1_555 1_555
H9 N1 1_555 1_555
H10 N1 1_555 1_555
C10 H11 1_555 1_555
H12 C10 1_555 1_555
H13 C10 1_555 1_555
C11 N1 1_555 1_555
H14 C11 1_555 1_555
C12 C11 1_555 1_555
H15 C12 1_555 1_555
H16 C12 1_555 1_555
H17 C12 1_555 1_555
C8 C9 1_555 1_555
C10 C11 1_555 1_555

#END
