
#######################################################################
#
#                 Cambridge Crystallographic Data Centre
#                                CCDC 
#
#######################################################################
#
# If this CIF has been generated from an entry in the Cambridge 
# Structural Database, then it will include bibliographic, chemical, 
# crystal, experimental, refinement or atomic coordinate data resulting 
# from the CCDC's data processing and validation procedures.
#
#######################################################################

data_QACDED
_chemical_compound_source        'roots of Pentas longiflora'
_chemical_name_common            Isagarin
_chemical_formula_moiety         'C15 H12 O4'
_chemical_name_systematic        
1,4-Epoxy-4-methyl-1,2,4,5-tetrahydronaphtho(2,3-d)oxepin-6,11-dione
_chemical_properties_biological  
'traditional medical agent used in treatment of scabies and skin mycosis'
_symmetry_cell_setting           orthorhombic
_symmetry_space_group_name_H-M   'P 21 21 21'
_symmetry_Int_Tables_number      19
_space_group_name_Hall           'P 2ac 2ab'
loop_
_symmetry_equiv_pos_site_id
_symmetry_equiv_pos_as_xyz
1 x,y,z
2 1/2-x,-y,1/2+z
3 1/2+x,1/2-y,-z
4 -x,1/2+y,1/2-z
_cell_length_a                   5.191(3)
_cell_length_b                   7.710(4)
_cell_length_c                   29.894(13)
_cell_angle_alpha                90
_cell_angle_beta                 90
_cell_angle_gamma                90
_cell_volume                     1196.44
_exptl_crystal_colour            yellow
_exptl_crystal_description       parallelepiped
_chemical_melting_point          160.9-161.4deg.C
_cell_formula_units_Z            4
loop_
_atom_site_label
_atom_site_type_symbol
_atom_site_fract_x
_atom_site_fract_y
_atom_site_fract_z
C1 C 0.6489(11) 0.9864(6) 0.3128(2)
C2 C 0.5203(11) 0.8934(6) 0.2749(2)
O1 O 0.5681(7) 0.7166(4) 0.2857(1)
C3 C 0.7613(9) 0.7114(5) 0.3196(2)
C4 C 0.6333(10) 0.6791(6) 0.3643(2)
C5 C 0.4710(9) 0.8325(6) 0.3775(1)
C6 C 0.2956(11) 0.8137(7) 0.4158(2)
C7 C 0.1286(10) 0.9607(6) 0.4273(2)
C8 C -0.0425(12) 0.9450(8) 0.4624(2)
C9 C -0.2072(14) 1.0810(11) 0.4727(2)
C10 C -0.1990(13) 1.2311(8) 0.4480(2)
C11 C -0.0279(12) 1.2491(7) 0.4125(2)
C12 C 0.1367(10) 1.1121(6) 0.4026(2)
C13 C 0.3156(11) 1.1284(6) 0.3644(2)
C14 C 0.4793(10) 0.9770(5) 0.3536(1)
O2 O 0.8693(6) 0.8801(4) 0.3200(1)
C15 C 0.9594(11) 0.5801(7) 0.3073(2)
O3 O 0.2884(9) 0.6758(5) 0.4363(1)
O4 O 0.3328(9) 1.2595(4) 0.3426(1)
loop_
_geom_bond_atom_site_label_1
_geom_bond_atom_site_label_2
_geom_bond_site_symmetry_1
_geom_bond_site_symmetry_2
C1 C2 1_555 1_555
C2 O1 1_555 1_555
O1 C3 1_555 1_555
C3 C4 1_555 1_555
C4 C5 1_555 1_555
C5 C6 1_555 1_555
C6 C7 1_555 1_555
C7 C8 1_555 1_555
C8 C9 1_555 1_555
C9 C10 1_555 1_555
C10 C11 1_555 1_555
C11 C12 1_555 1_555
C12 C7 1_555 1_555
C13 C12 1_555 1_555
C14 C1 1_555 1_555
O2 C1 1_555 1_555
C15 C3 1_555 1_555
O3 C6 1_555 1_555
O4 C13 1_555 1_555
C3 O2 1_555 1_555
C5 C14 1_555 1_555
C13 C14 1_555 1_555

#END
