
#######################################################################
#
#                 Cambridge Crystallographic Data Centre
#                                CCDC 
#
#######################################################################
#
# If this CIF has been generated from an entry in the Cambridge 
# Structural Database, then it will include bibliographic, chemical, 
# crystal, experimental, refinement or atomic coordinate data resulting 
# from the CCDC's data processing and validation procedures.
#
#######################################################################

data_QACLOV
_chemical_formula_moiety         'C13 H10 F3 N1'
_chemical_name_systematic        
2-Methyl-5-phenyl-3-(trifluoromethyl)penta-(2Z,4E)-diene-nitrile
_symmetry_cell_setting           monoclinic
_symmetry_space_group_name_H-M   'P 21/c'
_symmetry_Int_Tables_number      14
_space_group_name_Hall           '-P 2ybc'
loop_
_symmetry_equiv_pos_site_id
_symmetry_equiv_pos_as_xyz
1 x,y,z
2 -x,1/2+y,1/2-z
3 -x,-y,-z
4 x,1/2-y,1/2+z
_cell_length_a                   7.508(2)
_cell_length_b                   14.686(2)
_cell_length_c                   10.933(3)
_cell_angle_alpha                90
_cell_angle_beta                 106.43(2)
_cell_angle_gamma                90
_cell_volume                     1156.27
_exptl_crystal_colour            colorless
_exptl_crystal_description       prismatic
_chemical_melting_point          '62-63 deg.C'
_cell_formula_units_Z            4
loop_
_atom_site_label
_atom_site_type_symbol
_atom_site_fract_x
_atom_site_fract_y
_atom_site_fract_z
F1 F 0.0693(2) 0.4617(1) 0.3720(1)
F2 F 0.0830(2) 0.38294(9) 0.2110(1)
F3 F -0.1651(2) 0.38416(9) 0.2704(1)
N1 N 0.1230(3) 0.6630(2) 0.4225(2)
C1 C -0.0594(3) 0.6024(1) 0.2016(2)
C2 C -0.0999(3) 0.5149(1) 0.1664(2)
C3 C -0.2126(3) 0.4913(1) 0.0391(2)
C4 C -0.2659(3) 0.4096(1) -0.0101(2)
C5 C -0.3797(3) 0.3916(1) -0.1410(2)
C6 C -0.4572(3) 0.4603(1) -0.2268(2)
C7 C -0.5615(3) 0.4401(2) -0.3493(2)
C8 C -0.5912(4) 0.3510(2) -0.3879(2)
C9 C -0.5163(4) 0.2825(2) -0.3046(3)
C10 C -0.4116(3) 0.3017(2) -0.1814(2)
C11 C -0.0284(3) 0.4372(2) 0.2562(2)
C12 C 0.0456(3) 0.6306(1) 0.3275(2)
C13 C -0.1240(4) 0.6822(2) 0.1141(2)
H1 H -0.2559 0.5426 -0.0144
H2 H -0.2249 0.3593 0.0400
H3 H -0.4382 0.5247 -0.2018
H4 H -0.6176 0.4887 -0.4055
H5 H -0.6628 0.3389 -0.4716
H6 H -0.5365 0.2221 -0.3297
H7 H -0.3646 0.2573 -0.1255
H8 H -0.1206 0.6708 0.0320
H9 H -0.2326 0.6977 0.1195
H10 H -0.0430 0.7249 0.1304
loop_
_geom_bond_atom_site_label_1
_geom_bond_atom_site_label_2
_geom_bond_site_symmetry_1
_geom_bond_site_symmetry_2
F1 C11 1_555 1_555
F2 C11 1_555 1_555
F3 C11 1_555 1_555
N1 C12 1_555 1_555
C1 C2 1_555 1_555
C2 C3 1_555 1_555
C3 C4 1_555 1_555
C4 C5 1_555 1_555
C5 C6 1_555 1_555
C6 C7 1_555 1_555
C7 C8 1_555 1_555
C8 C9 1_555 1_555
C9 C10 1_555 1_555
C10 C5 1_555 1_555
C11 C2 1_555 1_555
C12 C1 1_555 1_555
C13 C1 1_555 1_555
H1 C3 1_555 1_555
H2 C4 1_555 1_555
H3 C6 1_555 1_555
H4 C7 1_555 1_555
H5 C8 1_555 1_555
H6 C9 1_555 1_555
H7 C10 1_555 1_555
H8 C13 1_555 1_555
H9 C13 1_555 1_555
H10 C13 1_555 1_555

#END
