
#######################################################################
#
#                 Cambridge Crystallographic Data Centre
#                                CCDC 
#
#######################################################################
#
# If this CIF has been generated from an entry in the Cambridge 
# Structural Database, then it will include bibliographic, chemical, 
# crystal, experimental, refinement or atomic coordinate data resulting 
# from the CCDC's data processing and validation procedures.
#
#######################################################################

data_QADFAE
_chemical_formula_moiety         'C42 H50 N2 O12,1.86(C2 H3 N1),0.14(H2 O1)'
_chemical_name_systematic        
'5,16,23,26,29,32,35,38,41,44,47,50-dodecaoxa-10,11-diazahexacyclo[18.17.13.2^6,9^.2^12,15^.1^3,36^.1^18,22^]hexapentaconta-1,3(51),6,8,10,12,14,18(52),19,21,36,53,55-tridecaene acetonitrile solvate hydrate'
_symmetry_cell_setting           monoclinic
_symmetry_space_group_name_H-M   'C 2/c'
_symmetry_Int_Tables_number      15
_space_group_name_Hall           '-C 2yn'
loop_
_symmetry_equiv_pos_site_id
_symmetry_equiv_pos_as_xyz
1 x,y,z
2 -x,y,1/2-z
3 1/2+x,1/2+y,z
4 1/2-x,1/2+y,1/2-z
5 -x,-y,-z
6 x,-y,1/2+z
7 1/2-x,1/2-y,-z
8 1/2+x,1/2-y,1/2+z
_cell_length_a                   18.093(4)
_cell_length_b                   9.0114(18)
_cell_length_c                   28.029(6)
_cell_angle_alpha                90
_cell_angle_beta                 101.57(3)
_cell_angle_gamma                90
_cell_volume                     4477.08
_exptl_crystal_colour            orange
_exptl_crystal_description       block
_cell_formula_units_Z            4
loop_
_atom_site_label
_atom_site_type_symbol
_atom_site_fract_x
_atom_site_fract_y
_atom_site_fract_z
N2 N 0.58443(12) 0.2937(3) 0.80105(7)
C24 C 0.45181(13) 0.2596(3) 0.82255(8)
H32 H 0.4136 0.2774 0.7940
H33 H 0.4458 0.3283 0.8477
H34 H 0.4472 0.1600 0.8338
C25 C 0.52580(13) 0.2794(3) 0.81076(7)
O1 O 0.47054(5) 0.44882(11) 0.94021(3)
O2 O 0.29949(5) 0.48179(11) 0.90861(3)
O3 O 0.72012(5) 0.44073(11) 0.90750(4)
O4 O 0.78965(6) 0.52223(13) 0.82601(4)
O5 O 0.57266(5) -0.08864(11) 0.96443(3)
N1 N 0.47591(7) -0.14970(15) 0.76332(5)
C1 C 0.53712(7) 0.37274(15) 0.94292(5)
C2 C 0.55030(7) 0.23209(15) 0.96310(5)
H1 H 0.5134 0.1834 0.9760
C3 C 0.62050(7) 0.16493(15) 0.96363(5)
C4 C 0.67580(7) 0.23785(15) 0.94511(5)
H2 H 0.7223 0.1928 0.9460
C5 C 0.66160(7) 0.37987(15) 0.92505(5)
C6 C 0.59236(7) 0.44837(15) 0.92356(5)
H3 H 0.5828 0.5424 0.9100
C7 C 0.55463(8) -0.10500(15) 0.91453(5)
C8 C 0.47981(8) -0.14139(18) 0.89515(6)
H4 H 0.4458 -0.1544 0.9156
C9 C 0.45619(9) -0.15811(19) 0.84530(6)
H5 H 0.4060 -0.1805 0.8324
C10 C 0.50703(8) -0.14169(16) 0.81424(5)
C11 C 0.58253(8) -0.10817(16) 0.83423(5)
H6 H 0.6171 -0.0989 0.8139
C12 C 0.60616(8) -0.08873(15) 0.88398(5)
H7 H 0.6562 -0.0649 0.8969
C13 C 0.41371(7) 0.37541(15) 0.96067(5)
H8 H 0.4335 0.3530 0.9947
H9 H 0.3998 0.2827 0.9437
C14 C 0.34502(7) 0.47383(16) 0.95628(5)
H10 H 0.3142 0.4376 0.9784
H11 H 0.3615 0.5733 0.9666
C15 C 0.32346(8) 0.59437(16) 0.87902(5)
H12 H 0.3724 0.5687 0.8722
H13 H 0.3281 0.6885 0.8961
C16 C 0.70696(8) 0.58051(16) 0.88295(5)
H14 H 0.6977 0.6568 0.9055
H15 H 0.6632 0.5740 0.8566
C17 C 0.77629(8) 0.61853(17) 0.86310(5)
H16 H 0.7711 0.7189 0.8504
H17 H 0.8199 0.6166 0.8897
C18 C 0.63430(8) 0.00957(15) 0.98373(5)
H18 H 0.6804 -0.0289 0.9757
H19 H 0.6410 0.0127 1.0189
C19 C 0.26654(9) 0.60772(17) 0.83209(5)
H20 H 0.2172 0.6274 0.8392
H21 H 0.2799 0.6907 0.8134
O6 O 0.26353(9) 0.47660(14) 0.80414(4)
C20 C 0.21616(11) 0.4885(2) 0.75717(6)
H22 H 0.1759 0.5584 0.7585
H23 H 0.1935 0.3927 0.7476
C21 C 0.73921(10) 0.5404(2) 0.78067(6)
H24 H 0.7244 0.6435 0.7754
H25 H 0.6943 0.4804 0.7793
O1A O 0.52946(5) 0.44882(11) 0.55979(3)
O2A O 0.70051(5) 0.48179(11) 0.59139(3)
O3A O 0.27988(5) 0.44073(11) 0.59250(4)
O4A O 0.21035(6) 0.52223(13) 0.67399(4)
O5A O 0.42734(5) -0.08864(11) 0.53557(3)
N1A N 0.52409(7) -0.14970(15) 0.73668(5)
C1A C 0.46288(7) 0.37274(15) 0.55708(5)
C2A C 0.44970(7) 0.23209(15) 0.53690(5)
H1A H 0.4866 0.1834 0.5240
C3A C 0.37950(7) 0.16493(15) 0.53637(5)
C4A C 0.32420(7) 0.23785(15) 0.55489(5)
H2A H 0.2777 0.1928 0.5540
C5A C 0.33840(7) 0.37987(15) 0.57495(5)
C6A C 0.40764(7) 0.44837(15) 0.57644(5)
H3A H 0.4172 0.5424 0.5900
C7A C 0.44537(8) -0.10500(15) 0.58547(5)
C8A C 0.52019(8) -0.14139(18) 0.60485(6)
H4A H 0.5542 -0.1544 0.5844
C9A C 0.54381(9) -0.15811(19) 0.65470(6)
H5A H 0.5940 -0.1805 0.6676
C10A C 0.49297(8) -0.14169(16) 0.68576(5)
C11A C 0.41747(8) -0.10817(16) 0.66577(5)
H6A H 0.3829 -0.0989 0.6861
C12A C 0.39384(8) -0.08873(15) 0.61602(5)
H7A H 0.3438 -0.0649 0.6031
C13A C 0.58629(7) 0.37541(15) 0.53933(5)
H8A H 0.5665 0.3530 0.5053
H9A H 0.6002 0.2827 0.5563
C14A C 0.65498(7) 0.47383(16) 0.54372(5)
H10A H 0.6858 0.4376 0.5216
H11A H 0.6385 0.5733 0.5334
C15A C 0.67654(8) 0.59437(16) 0.62098(5)
H12A H 0.6276 0.5687 0.6278
H13A H 0.6719 0.6885 0.6039
C16A C 0.29304(8) 0.58051(16) 0.61705(5)
H14A H 0.3023 0.6568 0.5945
H15A H 0.3368 0.5740 0.6434
C17A C 0.22371(8) 0.61853(17) 0.63690(5)
H16A H 0.2289 0.7189 0.6496
H17A H 0.1801 0.6166 0.6103
C18A C 0.36570(8) 0.00957(15) 0.51627(5)
H18A H 0.3196 -0.0289 0.5243
H19A H 0.3590 0.0127 0.4811
C19A C 0.73346(9) 0.60772(17) 0.66791(5)
H20A H 0.7828 0.6274 0.6608
H21A H 0.7201 0.6907 0.6866
O6A O 0.73647(9) 0.47660(14) 0.69586(4)
C20A C 0.78384(11) 0.4885(2) 0.74283(6)
H22A H 0.8241 0.5584 0.7415
H23A H 0.8065 0.3927 0.7524
C21A C 0.26079(10) 0.5404(2) 0.71933(6)
H24A H 0.2756 0.6435 0.7246
H25A H 0.3057 0.4804 0.7207
C22? C 0.26654(9) 0.60772(17) 0.83209(5)
H26? H 0.2669 0.7041 0.8167
H27? H 0.2158 0.5810 0.8352
O7? O 0.3085(6) 0.4791(9) 0.8065(3)
C23? C 0.2671(7) 0.4406(12) 0.7600(3)
H28? H 0.2162 0.4177 0.7637
H29? H 0.2886 0.3490 0.7507
H30? H 0.2500 0.6373 0.7314
H31? H 0.3108 0.5470 0.7120
O8? O 0.5000 0.2814(17) 0.7500
C26? C 0.26079(10) 0.5404(2) 0.71933(6)
loop_
_geom_bond_atom_site_label_1
_geom_bond_atom_site_label_2
_geom_bond_site_symmetry_1
_geom_bond_site_symmetry_2
O1 C1 1_555 1_555
O2 C14 1_555 1_555
O3 C5 1_555 1_555
O4 C17 1_555 1_555
O5 C7 1_555 1_555
N1 C10 1_555 1_555
C1 C2 1_555 1_555
C2 H1 1_555 1_555
C3 C2 1_555 1_555
C4 C3 1_555 1_555
H2 C4 1_555 1_555
C5 C4 1_555 1_555
C6 C1 1_555 1_555
H3 C6 1_555 1_555
C7 C8 1_555 1_555
C8 H4 1_555 1_555
C9 C8 1_555 1_555
H5 C9 1_555 1_555
C10 C9 1_555 1_555
C11 C10 1_555 1_555
H6 C11 1_555 1_555
C12 C7 1_555 1_555
H7 C12 1_555 1_555
C13 O1 1_555 1_555
H8 C13 1_555 1_555
H9 C13 1_555 1_555
C14 C13 1_555 1_555
H10 C14 1_555 1_555
H11 C14 1_555 1_555
C15 O2 1_555 1_555
H12 C15 1_555 1_555
H13 C15 1_555 1_555
C16 O3 1_555 1_555
H14 C16 1_555 1_555
H15 C16 1_555 1_555
C17 C16 1_555 1_555
H16 C17 1_555 1_555
H17 C17 1_555 1_555
C18 O5 1_555 1_555
H18 C18 1_555 1_555
H19 C18 1_555 1_555
C19 C15 1_555 1_555
H20 C19 1_555 1_555
H21 C19 1_555 1_555
O6 C19 1_555 1_555
C20 O6 1_555 1_555
H22 C20 1_555 1_555
H23 C20 1_555 1_555
C21 O4 1_555 1_555
H24 C21 1_555 1_555
H25 C21 1_555 1_555
N2 C25 1_555 1_555
C24 H32 1_555 1_555
H33 C24 1_555 1_555
H34 C24 1_555 1_555
C25 C24 1_555 1_555
O1A C1A 1_555 1_555
O2A C14A 1_555 1_555
O3A C5A 1_555 1_555
O4A C17A 1_555 1_555
O5A C7A 1_555 1_555
N1A N1 1_555 1_555
C1A C2A 1_555 1_555
C2A H1A 1_555 1_555
C3A C2A 1_555 1_555
C4A C3A 1_555 1_555
H2A C4A 1_555 1_555
C5A C4A 1_555 1_555
C6A C1A 1_555 1_555
H3A C6A 1_555 1_555
C7A C8A 1_555 1_555
C8A H4A 1_555 1_555
C9A C8A 1_555 1_555
H5A C9A 1_555 1_555
C10A N1A 1_555 1_555
C11A C10A 1_555 1_555
H6A C11A 1_555 1_555
C12A C7A 1_555 1_555
H7A C12A 1_555 1_555
C13A O1A 1_555 1_555
H8A C13A 1_555 1_555
H9A C13A 1_555 1_555
C14A C13A 1_555 1_555
H10A C14A 1_555 1_555
H11A C14A 1_555 1_555
C15A O2A 1_555 1_555
H12A C15A 1_555 1_555
H13A C15A 1_555 1_555
C16A O3A 1_555 1_555
H14A C16A 1_555 1_555
H15A C16A 1_555 1_555
C17A C16A 1_555 1_555
H16A C17A 1_555 1_555
H17A C17A 1_555 1_555
C18A O5A 1_555 1_555
H18A C18A 1_555 1_555
H19A C18A 1_555 1_555
C19A C15A 1_555 1_555
H20A C19A 1_555 1_555
H21A C19A 1_555 1_555
O6A C19A 1_555 1_555
C20A C21 1_555 1_555
H22A C20A 1_555 1_555
H23A C20A 1_555 1_555
C21A C20 1_555 1_555
H24A C21A 1_555 1_555
H25A C21A 1_555 1_555
C3 C18 1_555 1_555
C5 C6 1_555 1_555
C11 C12 1_555 1_555
O4A C21A 1_555 1_555
C3A C18A 1_555 1_555
C5A C6A 1_555 1_555
C9A C10A 1_555 1_555
C11A C12A 1_555 1_555
O6A C20A 1_555 1_555

#END
