
#######################################################################
#
#                 Cambridge Crystallographic Data Centre
#                                CCDC 
#
#######################################################################
#
# If this CIF has been generated from an entry in the Cambridge 
# Structural Database, then it will include bibliographic, chemical, 
# crystal, experimental, refinement or atomic coordinate data resulting 
# from the CCDC's data processing and validation procedures.
#
#######################################################################

data_QADYIG
_chemical_formula_moiety         'C17 H15 Cl1 O3'
_chemical_name_systematic        
'1-(4-methylphenyl)-1-oxopropan-2-yl 4-chlorobenzoate'
_symmetry_cell_setting           monoclinic
_symmetry_space_group_name_H-M   'C 2/c'
_symmetry_Int_Tables_number      15
_space_group_name_Hall           '-C 2yn'
loop_
_symmetry_equiv_pos_site_id
_symmetry_equiv_pos_as_xyz
1 x,y,z
2 -x,y,1/2-z
3 1/2+x,1/2+y,z
4 1/2-x,1/2+y,1/2-z
5 -x,-y,-z
6 x,-y,1/2+z
7 1/2-x,1/2-y,-z
8 1/2+x,1/2-y,1/2+z
_cell_length_a                   30.178(7)
_cell_length_b                   5.9458(13)
_cell_length_c                   20.531(4)
_cell_angle_alpha                90
_cell_angle_beta                 122.902(2)
_cell_angle_gamma                90
_cell_volume                     3093.03
_exptl_crystal_colour            white
_exptl_crystal_description       block
_cell_formula_units_Z            8
loop_
_atom_site_label
_atom_site_type_symbol
_atom_site_fract_x
_atom_site_fract_y
_atom_site_fract_z
Cl1 Cl 1.17773(3) 0.82850(13) 0.43057(4)
O1 O 0.98686(5) 0.1086(2) 0.35069(8)
O2 O 0.88970(7) 0.2777(3) 0.28836(12)
O3 O 0.99567(7) 0.2658(3) 0.45570(10)
C1 C 0.94651(8) -0.0353(3) 0.34556(12)
H1 H 0.9598 -0.1117 0.3952
C2 C 1.04954(7) 0.3969(3) 0.41183(11)
C3 C 1.00822(8) 0.2551(4) 0.40929(13)
C4 C 0.85966(7) 0.0137(3) 0.34147(11)
C5 C 1.12768(8) 0.6619(4) 0.42255(12)
C6 C 0.89779(8) 0.1019(3) 0.32324(13)
C7 C 1.10463(8) 0.7242(4) 0.46203(12)
H2 H 1.1152 0.8546 0.4918
C8 C 0.86597(8) -0.1904(3) 0.37809(13)
H3 H 0.8953 -0.2793 0.3925
C9 C 1.07256(8) 0.3401(4) 0.37146(12)
H4 H 1.0612 0.2128 0.3401
C10 C 0.81540(9) 0.1400(4) 0.32111(13)
H5 H 0.8101 0.2774 0.2963
C11 C 1.06560(8) 0.5899(4) 0.45674(12)
H6 H 1.0499 0.6292 0.4836
C12 C 1.11241(8) 0.4718(4) 0.37747(13)
H7 H 1.1286 0.4321 0.3514
C13 C 0.82899(9) -0.2629(4) 0.39339(14)
H8 H 0.8339 -0.4007 0.4178
C14 C 0.78509(9) -0.1366(4) 0.37341(13)
C15 C 0.77895(9) 0.0657(5) 0.33700(14)
H9 H 0.7496 0.1542 0.3228
C16 C 0.93425(11) -0.2048(4) 0.28313(15)
H10 H 0.9654 -0.2907 0.2983
H11 H 0.9228 -0.1277 0.2354
H12 H 0.9068 -0.3039 0.2760
C17 C 0.74553(10) -0.2192(6) 0.39137(17)
H13 H 0.7176 -0.1113 0.3733
H14 H 0.7627 -0.2383 0.4464
H15 H 0.7312 -0.3606 0.3659
loop_
_geom_bond_atom_site_label_1
_geom_bond_atom_site_label_2
_geom_bond_site_symmetry_1
_geom_bond_site_symmetry_2
Cl1 C5 1_555 1_555
O1 C1 1_555 1_555
O2 C6 1_555 1_555
O3 C3 1_555 1_555
C1 H1 1_555 1_555
C2 C3 1_555 1_555
C3 O1 1_555 1_555
C4 C6 1_555 1_555
C5 C7 1_555 1_555
C6 C1 1_555 1_555
C7 H2 1_555 1_555
C8 C4 1_555 1_555
H3 C8 1_555 1_555
C9 C2 1_555 1_555
H4 C9 1_555 1_555
C10 C4 1_555 1_555
H5 C10 1_555 1_555
C11 C2 1_555 1_555
H6 C11 1_555 1_555
C12 C5 1_555 1_555
H7 C12 1_555 1_555
C13 C8 1_555 1_555
H8 C13 1_555 1_555
C14 C13 1_555 1_555
C15 C10 1_555 1_555
H9 C15 1_555 1_555
C16 C1 1_555 1_555
H10 C16 1_555 1_555
H11 C16 1_555 1_555
H12 C16 1_555 1_555
C17 C14 1_555 1_555
H13 C17 1_555 1_555
H14 C17 1_555 1_555
H15 C17 1_555 1_555
C7 C11 1_555 1_555
C9 C12 1_555 1_555
C14 C15 1_555 1_555

#END
