
#######################################################################
#
#                 Cambridge Crystallographic Data Centre
#                                CCDC 
#
#######################################################################
#
# If this CIF has been generated from an entry in the Cambridge 
# Structural Database, then it will include bibliographic, chemical, 
# crystal, experimental, refinement or atomic coordinate data resulting 
# from the CCDC's data processing and validation procedures.
#
#######################################################################

data_QAFBEG
_chemical_name_common            
(2,3-Dichloro-6-(4-((4-ethyl-3,5-dimethyl-1H-pyrrol-2-yl-kappaN)(4-ethyl-3,5-dimethyl-2H-pyrrol-2-ylidene-kappaN)methyl)-2,6-dimethylphenyl)-5H-pyrrolo[3,4-b]pyrazine-5,7(6H)-dionato)(difluoro)boron
_chemical_formula_moiety         'C31 H30 B1 Cl2 F2 N5 O2'
_chemical_name_systematic        
2,3-Dichloro-6-(4-(2,8-diethyl-5,5-difluoro-1,3,7,9-tetramethyl-5H-6\l^5^,5\l^5^-dipyrrolo[1,2-c:2',1'-f][1,3,2]diazaborinin-10-yl)-2,6-dimethylphenyl)-5H-pyrrolo[3,4-b]pyrazine-5,7(6H)-dione
_symmetry_cell_setting           triclinic
_symmetry_space_group_name_H-M   'P -1'
_symmetry_Int_Tables_number      2
_space_group_name_Hall           '-P 1'
loop_
_symmetry_equiv_pos_site_id
_symmetry_equiv_pos_as_xyz
1 x,y,z
2 -x,-y,-z
_cell_length_a                   11.612(4)
_cell_length_b                   11.745(4)
_cell_length_c                   12.461(5)
_cell_angle_alpha                86.534(10)
_cell_angle_beta                 77.219(13)
_cell_angle_gamma                62.60(2)
_cell_volume                     1469.75
_exptl_crystal_colour            red
_exptl_crystal_description       plate
_chemical_melting_point          '330-340 deg.C (dec.)'
_cell_formula_units_Z            2
_exptl_crystal_recrystallization_method dichloromethane
loop_
_atom_site_label
_atom_site_type_symbol
_atom_site_fract_x
_atom_site_fract_y
_atom_site_fract_z
Cl1 Cl 1.3565(2) -0.3841(2) 0.4771(2)
Cl2 Cl 1.1857(3) -0.5305(2) 0.5530(2)
F1 F 0.1870(6) 0.6388(5) 0.0407(5)
F2 F 0.0792(5) 0.7255(5) 0.2141(5)
O1 O 0.9641(7) 0.0544(7) 0.3416(6)
O2 O 0.7343(7) -0.1797(7) 0.4129(7)
N1 N 0.3192(7) 0.6116(7) 0.1724(7)
N2 N 0.1862(8) 0.4947(7) 0.1859(7)
N3 N 0.8239(8) -0.0385(7) 0.3672(7)
N4 N 1.1440(8) -0.1998(7) 0.4278(7)
N5 N 0.9942(7) -0.3364(7) 0.4871(7)
C1 C 0.3563(10) 0.7064(9) 0.1632(8)
C2 C 0.4860(10) 0.6576(9) 0.1824(9)
C3 C 0.5308(11) 0.5304(10) 0.2005(8)
C4 C 0.4235(10) 0.5012(9) 0.1991(8)
C5 C 0.4060(10) 0.3907(9) 0.2216(8)
C6 C 0.2879(11) 0.3881(9) 0.2188(9)
C7 C 0.2481(10) 0.2891(9) 0.2366(8)
C8 C 0.1200(10) 0.3416(9) 0.2213(9)
C9 C 0.0865(9) 0.4680(9) 0.1883(8)
C10 C 0.2667(11) 0.8372(9) 0.1396(9)
C11 C 0.5586(11) 0.7336(9) 0.1772(9)
C12 C 0.6384(11) 0.7341(11) 0.0614(10)
C13 C 0.6621(10) 0.4413(9) 0.2249(9)
C14 C 0.3254(11) 0.1535(9) 0.2717(10)
C15 C 0.0335(10) 0.2749(10) 0.2304(9)
C16 C 0.0582(12) 0.2045(10) 0.1210(10)
C17 C -0.0404(10) 0.5629(10) 0.1588(9)
C18 C 0.5186(10) 0.2698(10) 0.2583(9)
C19 C 0.6253(10) 0.1906(9) 0.1823(9)
C20 C 0.7278(9) 0.0870(8) 0.2150(9)
C21 C 0.7122(10) 0.0669(9) 0.3284(9)
C22 C 0.6045(10) 0.1444(9) 0.4072(8)
C23 C 0.5024(10) 0.2489(9) 0.3686(9)
C24 C 0.8488(11) -0.0034(10) 0.1337(9)
C25 C 0.5881(10) 0.1197(10) 0.5282(9)
C26 C 0.9413(9) -0.0340(9) 0.3717(8)
C27 C 1.0230(10) -0.1540(9) 0.4179(8)
C28 C 1.1933(9) -0.3135(10) 0.4688(8)
C29 C 1.1164(10) -0.3813(9) 0.4965(9)
C30 C 0.9493(9) -0.2218(9) 0.4434(9)
C31 C 0.8238(11) -0.1533(9) 0.4085(9)
B1 B 0.1895(12) 0.6224(10) 0.1504(11)
H1 H 0.3236 0.8880 0.1081
H2 H 0.1957 0.8863 0.2143
H3 H 0.2147 0.8339 0.0789
H4 H 0.6257 0.6954 0.2327
H5 H 0.4883 0.8313 0.2053
H6 H 0.6852 0.7948 0.0630
H7 H 0.5725 0.7705 0.0048
H8 H 0.7137 0.6375 0.0348
H9 H 0.6503 0.3753 0.2853
H10 H 0.7018 0.4958 0.2570
H11 H 0.7296 0.3882 0.1503
H12 H 0.2744 0.0981 0.2646
H13 H 0.3330 0.1568 0.3562
H14 H 0.4238 0.1091 0.2193
H15 H -0.0698 0.3451 0.2532
H16 H 0.0544 0.2068 0.2944
H17 H 0.0056 0.1476 0.1333
H18 H 0.1634 0.1426 0.0930
H19 H 0.0231 0.2740 0.0600
H20 H -0.0971 0.5147 0.1477
H21 H -0.0187 0.6064 0.0833
H22 H -0.0974 0.6364 0.2242
H23 H 0.6295 0.2071 0.1039
H24 H 0.4205 0.3059 0.4202
H25 H 0.8797 -0.1004 0.1601
H26 H 0.9281 0.0219 0.1291
H27 H 0.8255 0.0033 0.0536
H28 H 0.5001 0.1992 0.5736
H29 H 0.6741 0.1096 0.5557
H30 H 0.5785 0.0325 0.5420
loop_
_geom_bond_atom_site_label_1
_geom_bond_atom_site_label_2
_geom_bond_site_symmetry_1
_geom_bond_site_symmetry_2
Cl1 C28 1_555 1_555
Cl2 C29 1_555 1_555
F1 B1 1_555 1_555
F2 B1 1_555 1_555
O1 C26 1_555 1_555
O2 C31 1_555 1_555
N1 C1 1_555 1_555
N2 C6 1_555 1_555
N3 C21 1_555 1_555
N4 C27 1_555 1_555
N5 C29 1_555 1_555
C1 C2 1_555 1_555
C2 C3 1_555 1_555
C3 C4 1_555 1_555
C4 N1 1_555 1_555
C5 C4 1_555 1_555
C6 C5 1_555 1_555
C7 C6 1_555 1_555
C8 C7 1_555 1_555
C9 N2 1_555 1_555
C10 C1 1_555 1_555
C11 C2 1_555 1_555
C12 C11 1_555 1_555
C13 C3 1_555 1_555
C14 C7 1_555 1_555
C15 C8 1_555 1_555
C16 C15 1_555 1_555
C17 C9 1_555 1_555
C18 C5 1_555 1_555
C19 C18 1_555 1_555
C20 C19 1_555 1_555
C21 C20 1_555 1_555
C22 C21 1_555 1_555
C23 C18 1_555 1_555
C24 C20 1_555 1_555
C25 C22 1_555 1_555
C26 N3 1_555 1_555
C27 C26 1_555 1_555
C28 N4 1_555 1_555
C29 C28 1_555 1_555
C30 N5 1_555 1_555
C31 N3 1_555 1_555
B1 N1 1_555 1_555
H1 C10 1_555 1_555
H2 C10 1_555 1_555
H3 C10 1_555 1_555
H4 C11 1_555 1_555
H5 C11 1_555 1_555
H6 C12 1_555 1_555
H7 C12 1_555 1_555
H8 C12 1_555 1_555
H9 C13 1_555 1_555
H10 C13 1_555 1_555
H11 C13 1_555 1_555
H12 C14 1_555 1_555
H13 C14 1_555 1_555
H14 C14 1_555 1_555
H15 C15 1_555 1_555
H16 C15 1_555 1_555
H17 C16 1_555 1_555
H18 C16 1_555 1_555
H19 C16 1_555 1_555
H20 C17 1_555 1_555
H21 C17 1_555 1_555
H22 C17 1_555 1_555
H23 C19 1_555 1_555
H24 C23 1_555 1_555
H25 C24 1_555 1_555
H26 C24 1_555 1_555
H27 C24 1_555 1_555
H28 C25 1_555 1_555
H29 C25 1_555 1_555
H30 C25 1_555 1_555
N2 B1 1_555 1_555
C8 C9 1_555 1_555
C22 C23 1_555 1_555
C27 C30 1_555 1_555
C30 C31 1_555 1_555

#END
