
#######################################################################
#
#                 Cambridge Crystallographic Data Centre
#                                CCDC 
#
#######################################################################
#
# If this CIF has been generated from an entry in the Cambridge 
# Structural Database, then it will include bibliographic, chemical, 
# crystal, experimental, refinement or atomic coordinate data resulting 
# from the CCDC's data processing and validation procedures.
#
#######################################################################

data_QAHHUE
_chemical_formula_moiety         'C76 H23 N2 O9 P1,0.19(H2 O1)'
_chemical_name_systematic        
'Dihydroxy-(4-oxo-3,5-bis(phenylimino)cyclopentene-1,2-diyl)-(diethylphosphato)-dioxo-open-cage-C60fullerene hydrate'
_symmetry_cell_setting           triclinic
_symmetry_space_group_name_H-M   'P -1'
_symmetry_Int_Tables_number      2
_space_group_name_Hall           '-P 1'
loop_
_symmetry_equiv_pos_site_id
_symmetry_equiv_pos_as_xyz
1 x,y,z
2 -x,-y,-z
_cell_length_a                   12.372(3)
_cell_length_b                   13.972(3)
_cell_length_c                   14.496(3)
_cell_angle_alpha                74.66(3)
_cell_angle_beta                 83.10(3)
_cell_angle_gamma                76.24(3)
_cell_volume                     2342.79
_exptl_crystal_colour            red
_exptl_crystal_description       plate
_cell_formula_units_Z            2
loop_
_atom_site_label
_atom_site_type_symbol
_atom_site_fract_x
_atom_site_fract_y
_atom_site_fract_z
P1 P 0.82995(4) 0.20615(4) 0.27151(4)
O1 O 0.85373(11) 0.53064(9) 0.54009(9)
H1 H 0.8456 0.4735 0.5738
O3 O 1.10639(10) 0.57439(9) 0.25951(10)
H2 H 1.1399 0.5217 0.2420
O4 O 0.96120(11) 0.38226(10) 0.14494(10)
O5 O 0.77279(10) 0.32294(9) 0.24183(9)
O6 O 0.70318(11) 0.33559(10) 0.42795(10)
O7 O 1.09304(11) 0.21738(10) 0.45597(10)
O8 O 0.83100(13) 0.16289(12) 0.18215(11)
O9 O 0.73625(13) 0.15836(11) 0.33713(11)
O10 O 0.93566(11) 0.19185(10) 0.31332(10)
N1 N 0.87478(12) 0.32460(10) 0.54660(10)
N2 N 1.14962(12) 0.37256(11) 0.27472(11)
C1 C 0.82712(14) 0.54103(12) 0.44420(11)
C2 C 0.99144(14) 0.56978(12) 0.26263(12)
C3 C 0.90296(14) 0.46131(13) 0.10599(12)
C4 C 0.68104(15) 0.35835(14) 0.18339(13)
H3 H 0.6621 0.3000 0.1658
C5 C 0.64050(14) 0.41432(13) 0.39586(12)
C6 C 1.03270(14) 0.29642(12) 0.41940(12)
C7 C 0.92690(14) 0.35095(12) 0.46506(12)
C8 C 0.90259(13) 0.45588(12) 0.40537(12)
C9 C 0.97454(13) 0.46828(12) 0.32651(12)
C10 C 1.06003(14) 0.37403(12) 0.32895(12)
C11 C 0.49705(17) 0.84743(15) 0.03009(14)
C12 C 0.53067(17) 0.77082(16) -0.01898(13)
C13 C 0.42074(16) 0.83403(15) 0.11413(14)
C14 C 0.44738(15) 0.83237(14) 0.28016(14)
C15 C 0.68853(17) 0.87534(14) 0.01372(14)
C16 C 0.55018(17) 0.92097(14) 0.14039(15)
C17 C 0.77632(17) 0.86940(14) 0.07374(14)
C18 C 0.75052(17) 0.89103(13) 0.16297(14)
C19 C 0.40731(14) 0.58702(15) 0.25782(14)
C20 C 0.64656(18) 0.74382(15) -0.05195(13)
C21 C 0.72311(17) 0.79436(15) -0.03557(13)
C22 C 0.38144(15) 0.74433(16) 0.14602(15)
C23 C 0.59314(16) 0.50134(15) 0.06693(13)
C24 C 0.48929(17) 0.67860(16) 0.01356(14)
C25 C 0.43042(15) 0.56800(16) 0.16398(14)
C26 C 0.57769(15) 0.41742(14) 0.22917(13)
C27 C 0.81466(16) 0.82910(13) 0.24389(14)
C28 C 0.67641(17) 0.63451(16) -0.03865(13)
C29 C 0.83152(16) 0.73714(14) -0.00363(13)
C30 C 0.77928(16) 0.57943(15) -0.00565(12)
C31 C 0.41583(16) 0.66497(16) 0.09451(14)
C32 C 0.51314(14) 0.57086(14) 0.39570(12)
C33 C 0.37597(14) 0.69551(15) 0.24721(14)
C34 C 0.86447(16) 0.78274(14) 0.06289(13)
C35 C 0.45363(16) 0.87939(14) 0.18243(15)
C36 C 0.79421(16) 0.47914(14) 0.05836(12)
C37 C 0.63503(17) 0.91657(13) 0.19733(14)
C38 C 0.73876(16) 0.81583(13) 0.32761(13)
C39 C 0.57731(17) 0.90043(14) 0.04641(14)
C40 C 0.62758(16) 0.86873(13) 0.29917(14)
C41 C 0.89965(15) 0.74731(13) 0.23197(13)
C42 C 0.47574(14) 0.52555(14) 0.33013(13)
C43 C 0.51650(16) 0.48769(15) 0.15053(14)
C44 C 0.92263(15) 0.72094(13) 0.14126(13)
C45 C 0.85764(15) 0.63205(14) 0.01391(12)
C46 C 0.70136(16) 0.43936(14) 0.09252(13)
C47 C 0.57977(17) 0.59453(16) 0.00051(13)
C48 C 0.55874(14) 0.43764(13) 0.31778(13)
C49 C 0.85020(14) 0.64221(12) 0.38460(12)
C50 C 0.66135(15) 0.67487(13) 0.43080(12)
C51 C 0.95446(14) 0.61064(13) 0.15736(13)
C52 C 0.92161(14) 0.65474(12) 0.30577(13)
C53 C 0.40882(15) 0.73850(15) 0.31260(14)
C54 C 0.69751(14) 0.56524(12) 0.44174(11)
C55 C 0.53655(16) 0.82670(14) 0.33944(14)
C56 C 0.47713(14) 0.67394(14) 0.38935(13)
C57 C 0.62264(14) 0.51435(13) 0.42487(11)
C58 C 0.55427(15) 0.72782(13) 0.40664(12)
C59 C 0.92253(14) 0.56767(13) 0.09287(12)
C60 C 0.75446(15) 0.72173(13) 0.39347(12)
C61 C 0.88858(14) 0.22312(12) 0.60135(12)
C62 C 0.90017(17) 0.14100(14) 0.56012(14)
H4 H 0.9034 0.1516 0.4924
C63 C 0.90691(19) 0.04406(15) 0.61882(16)
H5 H 0.9151 -0.0120 0.5912
C64 C 0.90176(18) 0.02839(14) 0.71772(15)
H6 H 0.9085 -0.0385 0.7575
C65 C 0.88696(17) 0.10968(15) 0.75814(14)
H7 H 0.8823 0.0988 0.8259
C66 C 0.87880(14) 0.20727(13) 0.70062(13)
H8 H 0.8665 0.2633 0.7289
C67 C 1.23673(14) 0.28448(13) 0.28262(13)
C68 C 1.21950(16) 0.19216(14) 0.27601(14)
H9 H 1.1467 0.1847 0.2693
C69 C 1.31005(17) 0.11072(14) 0.27931(14)
H10 H 1.2992 0.0472 0.2745
C70 C 1.41582(17) 0.12141(15) 0.28958(15)
H11 H 1.4772 0.0653 0.2917
C71 C 1.43254(17) 0.21275(17) 0.29668(19)
H12 H 1.5051 0.2193 0.3054
C72 C 1.34326(16) 0.29569(15) 0.29112(17)
H13 H 1.3552 0.3598 0.2931
C73 C 0.9112(2) 0.1745(2) 0.10189(18)
H14 H 0.9867 0.1626 0.1247
H15 H 0.8931 0.2445 0.0607
C74 C 0.9085(7) 0.1010(6) 0.0472(5)
H16 H 0.9273 0.0320 0.0883
H17 H 0.9627 0.1083 -0.0080
H18 H 0.8336 0.1134 0.0247
C75 C 0.7613(3) 0.04982(18) 0.38360(19)
H19 H 0.8371 0.0295 0.4074
H20 H 0.7583 0.0100 0.3371
C76 C 0.6779(3) 0.0298(3) 0.4645(2)
H21 H 0.6938 -0.0428 0.4966
H22 H 0.6032 0.0494 0.4402
H23 H 0.6815 0.0694 0.5102
O2 O 0.6600(9) 0.6630(8) 0.1932(8)
C77? C 0.8506(7) 0.1721(11) 0.0179(5)
H24? H 0.8087 0.1179 0.0377
H25? H 0.9049 0.1592 -0.0349
H26? H 0.7990 0.2376 -0.0035
loop_
_geom_bond_atom_site_label_1
_geom_bond_atom_site_label_2
_geom_bond_site_symmetry_1
_geom_bond_site_symmetry_2
P1 O5 1_555 1_555
O1 H1 1_555 1_555
O3 H2 1_555 1_555
O4 C3 1_555 1_555
O5 C4 1_555 1_555
O6 C5 1_555 1_555
O7 C6 1_555 1_555
O8 P1 1_555 1_555
O9 P1 1_555 1_555
O10 P1 1_555 1_555
N1 C7 1_555 1_555
N2 C10 1_555 1_555
C1 O1 1_555 1_555
C2 O3 1_555 1_555
C3 C36 1_555 1_555
C4 H3 1_555 1_555
C5 C48 1_555 1_555
C6 C7 1_555 1_555
C7 C8 1_555 1_555
C8 C1 1_555 1_555
C9 C2 1_555 1_555
C10 C6 1_555 1_555
C11 C12 1_555 1_555
C12 C20 1_555 1_555
C13 C11 1_555 1_555
C14 C35 1_555 1_555
C15 C17 1_555 1_555
C16 C35 1_555 1_555
C17 C18 1_555 1_555
C18 C27 1_555 1_555
C19 C25 1_555 1_555
C20 C21 1_555 1_555
C21 C15 1_555 1_555
C22 C13 1_555 1_555
C23 C43 1_555 1_555
C24 C12 1_555 1_555
C25 C31 1_555 1_555
C26 C4 1_555 1_555
C27 C38 1_555 1_555
C28 C20 1_555 1_555
C29 C21 1_555 1_555
C30 C28 1_555 1_555
C31 C22 1_555 1_555
C32 C42 1_555 1_555
C33 C19 1_555 1_555
C34 C17 1_555 1_555
C35 C13 1_555 1_555
C36 C30 1_555 1_555
C37 C16 1_555 1_555
C38 C40 1_555 1_555
C39 C11 1_555 1_555
C40 C37 1_555 1_555
C41 C27 1_555 1_555
C42 C19 1_555 1_555
C43 C25 1_555 1_555
C44 C34 1_555 1_555
C45 C29 1_555 1_555
C46 C4 1_555 1_555
C47 C23 1_555 1_555
C48 C26 1_555 1_555
C49 C1 1_555 1_555
C50 C54 1_555 1_555
C51 C2 1_555 1_555
C52 C2 1_555 1_555
C53 C14 1_555 1_555
C54 C1 1_555 1_555
C55 C14 1_555 1_555
C56 C32 1_555 1_555
C57 C5 1_555 1_555
C58 C50 1_555 1_555
C59 C3 1_555 1_555
C60 C38 1_555 1_555
C61 N1 1_555 1_555
C62 C61 1_555 1_555
H4 C62 1_555 1_555
C63 C62 1_555 1_555
H5 C63 1_555 1_555
C64 C63 1_555 1_555
H6 C64 1_555 1_555
C65 C64 1_555 1_555
H7 C65 1_555 1_555
C66 C61 1_555 1_555
H8 C66 1_555 1_555
C67 N2 1_555 1_555
C68 C67 1_555 1_555
H9 C68 1_555 1_555
C69 C68 1_555 1_555
H10 C69 1_555 1_555
C70 C69 1_555 1_555
H11 C70 1_555 1_555
C71 C70 1_555 1_555
H12 C71 1_555 1_555
C72 C67 1_555 1_555
H13 C72 1_555 1_555
C73 O8 1_555 1_555
H14 C73 1_555 1_555
H15 C73 1_555 1_555
C74 C73 1_555 1_555
H16 C74 1_555 1_555
H17 C74 1_555 1_555
H18 C74 1_555 1_555
C75 O9 1_555 1_555
H19 C75 1_555 1_555
H20 C75 1_555 1_555
C76 C75 1_555 1_555
H21 C76 1_555 1_555
H22 C76 1_555 1_555
H23 C76 1_555 1_555
C8 C9 1_555 1_555
C9 C10 1_555 1_555
C15 C39 1_555 1_555
C16 C39 1_555 1_555
C18 C37 1_555 1_555
C22 C33 1_555 1_555
C23 C46 1_555 1_555
C24 C31 1_555 1_555
C24 C47 1_555 1_555
C26 C43 1_555 1_555
C28 C47 1_555 1_555
C29 C34 1_555 1_555
C30 C45 1_555 1_555
C32 C57 1_555 1_555
C33 C53 1_555 1_555
C36 C46 1_555 1_555
C40 C55 1_555 1_555
C41 C44 1_555 1_555
C41 C52 1_555 1_555
C42 C48 1_555 1_555
C44 C51 1_555 1_555
C45 C59 1_555 1_555
C49 C52 1_555 1_555
C49 C60 1_555 1_555
C50 C60 1_555 1_555
C51 C59 1_555 1_555
C53 C56 1_555 1_555
C54 C57 1_555 1_555
C55 C58 1_555 1_555
C56 C58 1_555 1_555
C65 C66 1_555 1_555
C71 C72 1_555 1_555

#END
