
#######################################################################
#
#                 Cambridge Crystallographic Data Centre
#                                CCDC 
#
#######################################################################
#
# If this CIF has been generated from an entry in the Cambridge 
# Structural Database, then it will include bibliographic, chemical, 
# crystal, experimental, refinement or atomic coordinate data resulting 
# from the CCDC's data processing and validation procedures.
#
#######################################################################

data_QAHLUJ
_chemical_formula_moiety         'C38 H36 N10 O2 2+,C10 H6 O6 S2 2-,2.5(H2 O1)'
_chemical_name_systematic        
'15,34-diformyl-3,12,15,22,31,34,41,45-octaaza-6,25-diazoniaheptacyclo[34.2.2.2^17,20^.1^3,6^.1^7,11^.1^22,25^.1^26,30^]hexatetraconta-1(38),4,6(46),7(45),8,10,13,17,19,23,25(42),26(41),27,29,32,36,39,43-octadecaene naphthalene-1,5-disulfonate hydrate'
_symmetry_cell_setting           triclinic
_symmetry_space_group_name_H-M   'P -1'
_symmetry_Int_Tables_number      2
_space_group_name_Hall           '-P 1'
loop_
_symmetry_equiv_pos_site_id
_symmetry_equiv_pos_as_xyz
1 x,y,z
2 -x,-y,-z
_cell_length_a                   16.853(3)
_cell_length_b                   17.211(3)
_cell_length_c                   18.087(4)
_cell_angle_alpha                99.16(3)
_cell_angle_beta                 91.70(3)
_cell_angle_gamma                96.78(3)
_cell_volume                     5136.85
_exptl_crystal_colour            colorless
_exptl_crystal_description       needle
_cell_formula_units_Z            4
loop_
_atom_site_label
_atom_site_type_symbol
_atom_site_fract_x
_atom_site_fract_y
_atom_site_fract_z
S2 S 0.8603(4) 0.6942(4) 0.2244(4)
S3 S 0.7520(4) 0.4708(2) 0.4960(2)
O4 O 0.9309(11) 0.7511(10) 0.2269(10)
O5 O 0.8617(9) 0.6284(8) 0.1642(7)
O6 O 0.7890(9) 0.7327(8) 0.2278(7)
O7 O 0.7556(7) 0.5438(5) 0.5507(4)
O8 O 0.8270(10) 0.4320(8) 0.5018(6)
O9 O 0.6787(10) 0.4182(6) 0.4947(6)
C6 C 0.8662(11) 0.6575(11) 0.3102(10)
C7 C 0.9282(14) 0.6825(13) 0.3574(15)
H4 H 0.9665 0.7216 0.3457
C8 C 0.9398(10) 0.6524(12) 0.4264(13)
H5 H 0.9830 0.6736 0.4595
C9 C 0.8866(9) 0.5929(9) 0.4420(8)
H6 H 0.8947 0.5711 0.4850
C10 C 0.8171(8) 0.5626(7) 0.3922(6)
C11 C 0.7564(9) 0.5028(7) 0.4070(6)
C12 C 0.6971(8) 0.4739(7) 0.3568(7)
H7 H 0.6595 0.4332 0.3666
C13 C 0.6898(10) 0.5030(9) 0.2899(7)
H8 H 0.6475 0.4819 0.2556
C14 C 0.7437(9) 0.5618(9) 0.2744(7)
H9 H 0.7374 0.5820 0.2301
C15 C 0.8085(8) 0.5926(8) 0.3238(7)
S4 S 0.0568(4) 0.0513(4) 0.1577(4)
S5 S -0.1552(4) 0.0968(4) 0.4771(4)
O10 O 0.0399(8) -0.0348(5) 0.1533(9)
O11 O 0.1397(5) 0.0748(8) 0.1472(9)
O12 O 0.0014(7) 0.0840(8) 0.1124(8)
O13 O -0.1019(7) 0.0565(8) 0.5167(8)
O14 O -0.1458(8) 0.1820(5) 0.5011(8)
O15 O -0.2375(5) 0.0618(8) 0.4711(8)
C16 C 0.0344(8) 0.0870(11) 0.2524(6)
C17 C 0.0913(9) 0.1391(12) 0.2991(8)
H10 H 0.1418 0.1519 0.2817
C18 C 0.0740(9) 0.1723(12) 0.3707(9)
H11 H 0.1115 0.2092 0.4003
C19 C 0.0008(9) 0.1502(13) 0.3979(8)
H12 H -0.0082 0.1668 0.4481
C20 C -0.0604(8) 0.1035(12) 0.3515(7)
C21 C -0.1323(8) 0.0780(11) 0.3811(6)
C22 C -0.1864(10) 0.0177(12) 0.3384(8)
H13 H -0.2305 -0.0053 0.3605
C23 C -0.1739(10) -0.0077(12) 0.2629(8)
H14 H -0.2133 -0.0416 0.2327
C24 C -0.1018(9) 0.0183(12) 0.2328(8)
H15 H -0.0934 0.0017 0.1825
C25 C -0.0421(8) 0.0693(13) 0.2785(7)
O16 O 0.6460(4) 0.9747(4) 0.9670(4)
O17 O 0.3296(5) 1.1990(5) 0.3312(4)
N1 N 0.5920(5) 1.3352(5) 0.7009(4)
N2 N 0.6638(5) 1.2388(5) 0.6877(4)
N3 N 0.6533(5) 1.1304(4) 0.7482(4)
N4 N 0.6316(4) 1.0250(4) 0.8141(4)
H16 H 0.6475 0.9835 0.8276
N5 N 0.5199(5) 0.9388(4) 0.9094(4)
N6 N 0.3900(4) 0.7860(4) 0.5401(4)
N7 N 0.4530(4) 0.8538(4) 0.4665(4)
N8 N 0.4265(4) 0.9708(4) 0.4309(4)
N9 N 0.3902(4) 1.0884(4) 0.4018(4)
H17 H 0.4013 1.1301 0.3816
N10 N 0.2802(5) 1.2184(5) 0.4494(4)
C26 C 0.6067(6) 1.2682(6) 0.7262(5)
H18 H 0.5808 1.2468 0.7644
C27 C 0.6454(6) 1.3497(6) 0.6464(5)
H19 H 0.6491 1.3927 0.6209
C28 C 0.6905(6) 1.2909(6) 0.6372(5)
H20 H 0.7315 1.2849 0.6042
C29 C 0.6953(6) 1.1660(5) 0.6989(5)
C30 C 0.7578(6) 1.1392(6) 0.6622(5)
H21 H 0.7845 1.1671 0.6284
C31 C 0.7801(7) 1.0694(6) 0.6770(6)
H22 H 0.8225 1.0484 0.6527
C32 C 0.7399(6) 1.0301(6) 0.7277(6)
H23 H 0.7553 0.9829 0.7386
C33 C 0.6755(5) 1.0622(5) 0.7628(5)
C34 C 0.5847(6) 0.9258(6) 0.9478(5)
H24 H 0.5843 0.8759 0.9616
C35 C 0.5648(6) 1.0513(5) 0.8438(5)
H25 H 0.5538 1.1004 0.8337
C36 C 0.5115(6) 1.0146(5) 0.8870(5)
H26 H 0.4677 1.0398 0.9028
C37 C 0.4464(6) 0.8832(6) 0.9035(5)
H27 H 0.4049 0.9094 0.9296
H28 H 0.4560 0.8387 0.9281
C38 C 0.4168(5) 0.8518(5) 0.8217(5)
C39 C 0.4457(5) 0.7868(5) 0.7805(5)
H29 H 0.4848 0.7626 0.8023
C40 C 0.4175(6) 0.7576(6) 0.7083(5)
H30 H 0.4382 0.7142 0.6819
C41 C 0.3588(5) 0.7911(5) 0.6738(5)
C42 C 0.3300(5) 0.8579(5) 0.7148(5)
H31 H 0.2917 0.8828 0.6928
C43 C 0.3586(6) 0.8864(5) 0.7878(5)
H32 H 0.3382 0.9297 0.8146
C44 C 0.3304(6) 0.7617(6) 0.5934(5)
H33 H 0.3197 0.7043 0.5854
H34 H 0.2808 0.7824 0.5835
C45 C 0.3896(5) 0.8482(5) 0.5071(5)
H35 H 0.3509 0.8827 0.5116
C46 C 0.4549(5) 0.7485(5) 0.5205(5)
H36 H 0.4681 0.7026 0.5362
C47 C 0.4961(5) 0.7897(5) 0.4744(5)
H37 H 0.5434 0.7786 0.4522
C48 C 0.4731(5) 0.9148(5) 0.4194(4)
C49 C 0.5348(6) 0.9094(6) 0.3725(5)
H38 H 0.5666 0.8685 0.3692
C50 C 0.5464(5) 0.9710(6) 0.3293(5)
H39 H 0.5863 0.9713 0.2948
C51 C 0.4980(5) 1.0306(5) 0.3387(5)
H40 H 0.5050 1.0718 0.3109
C52 C 0.4395(5) 1.0286(5) 0.3894(5)
C53 C 0.3068(7) 1.2414(7) 0.3871(6)
H41 H 0.3087 1.2951 0.3848
C54 C 0.3243(6) 1.0836(6) 0.4450(5)
H42 H 0.3118 1.0356 0.4621
C55 C 0.2759(5) 1.1389(6) 0.4658(5)
H43 H 0.2338 1.1237 0.4947
C56 C 0.2576(6) 1.2773(6) 0.5099(6)
H44 H 0.2109 1.2548 0.5329
H45 H 0.2435 1.3228 0.4893
C57 C 0.3254(6) 1.3041(6) 0.5691(6)
C58 C 0.3850(7) 1.3633(6) 0.5569(6)
H46 H 0.3812 1.3867 0.5142
C59 C 0.4487(7) 1.3875(6) 0.6066(5)
H47 H 0.4885 1.4261 0.5966
C60 C 0.4550(7) 1.3554(6) 0.6716(5)
C61 C 0.3922(6) 1.2954(6) 0.6846(5)
H48 H 0.3952 1.2733 0.7281
C62 C 0.3288(6) 1.2703(5) 0.6351(5)
H49 H 0.2885 1.2317 0.6445
C63 C 0.5276(7) 1.3812(6) 0.7267(6)
H50 H 0.5450 1.4374 0.7290
H51 H 0.5135 1.3721 0.7765
O18 O 0.4050(5) 0.4425(5) 0.3047(4)
O19 O -0.0532(4) 0.6455(5) -0.2641(5)
N11 N 0.2444(4) 0.8042(4) 0.0847(4)
N12 N 0.1866(4) 0.7328(4) 0.1606(4)
N13 N 0.2235(4) 0.6162(4) 0.1933(4)
N14 N 0.2674(4) 0.5010(4) 0.2198(4)
H52 H 0.2636 0.4637 0.2466
N15 N 0.3765(4) 0.3766(4) 0.1838(4)
N16 N 0.0144(4) 0.2534(4) -0.0241(4)
N17 N -0.0557(4) 0.3518(4) -0.0175(4)
N18 N -0.0442(4) 0.4549(4) -0.0844(4)
N19 N -0.0264(5) 0.5585(4) -0.1529(4)
H53 H -0.0418 0.6017 -0.1630
N20 N 0.0813(5) 0.6437(4) -0.2575(4)
C64 C 0.2468(5) 0.7388(5) 0.1152(5)
H54 H 0.2844 0.7034 0.1063
C65 C 0.1786(5) 0.8402(5) 0.1111(5)
H55 H 0.1620 0.8860 0.0980
C66 C 0.1448(6) 0.7971(5) 0.1579(5)
H56 H 0.1001 0.8079 0.1848
C67 C 0.1731(5) 0.6698(5) 0.2051(5)
C68 C 0.1129(6) 0.6684(6) 0.2560(5)
H57 H 0.0776 0.7064 0.2613
C69 C 0.1078(5) 0.6092(6) 0.2975(5)
H58 H 0.0699 0.6074 0.3338
C70 C 0.1581(6) 0.5523(5) 0.2863(5)
H59 H 0.1534 0.5106 0.3135
C71 C 0.2168(5) 0.5570(5) 0.2335(5)
C72 C 0.3934(6) 0.3818(7) 0.2573(6)
H60 H 0.3969 0.3342 0.2747
C73 C 0.3247(5) 0.4990(5) 0.1661(4)
H61 H 0.3293 0.5405 0.1388
C74 C 0.3734(5) 0.4443(5) 0.1497(5)
H62 H 0.4088 0.4513 0.1122
C75 C 0.3752(6) 0.3015(5) 0.1345(6)
H63 H 0.3831 0.2605 0.1642
H64 H 0.4192 0.3049 0.1012
C76 C 0.2962(6) 0.2780(5) 0.0874(6)
C77 C 0.2942(6) 0.2674(6) 0.0095(5)
H65 H 0.3417 0.2763 -0.0144
C78 C 0.2249(6) 0.2444(7) -0.0326(6)
H66 H 0.2250 0.2396 -0.0845
C79 C 0.1532(5) 0.2278(5) 0.0025(5)
C80 C 0.1531(6) 0.2378(6) 0.0787(6)
H67 H 0.1053 0.2282 0.1020
C81 C 0.2243(5) 0.2625(6) 0.1221(5)
H68 H 0.2238 0.2686 0.1741
C82 C 0.0770(6) 0.1997(6) -0.0450(6)
H69 H 0.0880 0.1986 -0.0975
H70 H 0.0572 0.1462 -0.0381
C83 C 0.0042(5) 0.3191(6) -0.0520(5)
H71 H 0.0338 0.3387 -0.0891
C84 C -0.0388(5) 0.2437(6) 0.0306(5)
H72 H -0.0435 0.2034 0.0595
C85 C -0.0830(5) 0.3049(5) 0.0337(5)
H73 H -0.1248 0.3138 0.0652
C86 C -0.0844(5) 0.4221(5) -0.0317(5)
C87 C -0.1486(5) 0.4488(6) 0.0038(5)
H74 H -0.1740 0.4228 0.0396
C88 C -0.1743(6) 0.5173(6) -0.0164(5)
H75 H -0.2181 0.5381 0.0055
C89 C -0.1327(6) 0.5547(6) -0.0707(5)
H76 H -0.1484 0.6003 -0.0851
C90 C -0.0679(5) 0.5213(6) -0.1018(5)
C91 C 0.0130(7) 0.6751(7) -0.2718(6)
H77 H 0.0184 0.7235 -0.2889
C92 C 0.0383(5) 0.5319(6) -0.1895(5)
H78 H 0.0512 0.4830 -0.1805
C93 C 0.0852(6) 0.5671(6) -0.2362(5)
H79 H 0.1249 0.5387 -0.2573
C94 C 0.1611(6) 0.6876(6) -0.2663(5)
H80 H 0.1547 0.7277 -0.2973
H81 H 0.1948 0.6510 -0.2920
C95 C 0.2020(5) 0.7268(5) -0.1919(5)
C96 C 0.2575(6) 0.6904(6) -0.1554(6)
H82 H 0.2733 0.6429 -0.1788
C97 C 0.2895(5) 0.7245(5) -0.0844(5)
H83 H 0.3260 0.6993 -0.0602
C98 C 0.2675(5) 0.7960(5) -0.0490(5)
C99 C 0.2155(5) 0.8340(5) -0.0864(5)
H84 H 0.2025 0.8832 -0.0643
C100 C 0.1820(5) 0.7992(5) -0.1574(5)
H85 H 0.1460 0.8249 -0.1816
C101 C 0.2992(6) 0.8303(6) 0.0293(5)
H86 H 0.3512 0.8136 0.0378
H87 H 0.3057 0.8878 0.0352
S1 S 0.48369(13) 0.69512(14) 0.07506(13)
O1 O 0.4833(4) 0.7261(4) 0.0046(3)
O2 O 0.4032(4) 0.6755(4) 0.0993(4)
O3 O 0.5349(4) 0.7438(4) 0.1342(4)
C1 C 0.4084(5) 0.5407(6) -0.0334(5)
H1 H 0.3853 0.5876 -0.0259
C2 C 0.4823(5) 0.5359(5) 0.0058(5)
C3 C 0.5248(5) 0.6026(5) 0.0572(5)
C4 C 0.5944(5) 0.5961(6) 0.0939(5)
H2 H 0.6202 0.6392 0.1271
C5 C 0.6281(5) 0.5232(6) 0.0814(5)
H3 H 0.6760 0.5193 0.1067
S1A S 0.51631(13) 0.30488(14) -0.07506(13)
O1A O 0.5167(4) 0.2739(4) -0.0046(3)
O2A O 0.5968(4) 0.3245(4) -0.0993(4)
O3A O 0.4651(4) 0.2562(4) -0.1342(4)
C1A C 0.5916(5) 0.4593(6) 0.0334(5)
H1A H 0.6147 0.4124 0.0259
C2A C 0.5177(5) 0.4641(5) -0.0058(5)
C3A C 0.4752(5) 0.3974(5) -0.0572(5)
C4A C 0.4056(5) 0.4039(6) -0.0939(5)
H2A H 0.3798 0.3608 -0.1271
C5A C 0.3719(5) 0.4768(6) -0.0814(5)
H3A H 0.3240 0.4807 -0.1067
loop_
_geom_bond_atom_site_label_1
_geom_bond_atom_site_label_2
_geom_bond_site_symmetry_1
_geom_bond_site_symmetry_2
S1 O1 1_555 1_555
O2 S1 1_555 1_555
O3 S1 1_555 1_555
C1 H1 1_555 1_555
C2 C1 1_555 1_555
C3 S1 1_555 1_555
C4 C3 1_555 1_555
H2 C4 1_555 1_555
C5 C4 1_555 1_555
H3 C5 1_555 1_555
S2 O4 1_555 1_555
S3 O7 1_555 1_555
O5 S2 1_555 1_555
O6 S2 1_555 1_555
O8 S3 1_555 1_555
O9 S3 1_555 1_555
C6 S2 1_555 1_555
C7 C6 1_555 1_555
H4 C7 1_555 1_555
C8 C7 1_555 1_555
H5 C8 1_555 1_555
C9 C8 1_555 1_555
H6 C9 1_555 1_555
C10 C9 1_555 1_555
C11 S3 1_555 1_555
C12 C11 1_555 1_555
H7 C12 1_555 1_555
C13 C12 1_555 1_555
H8 C13 1_555 1_555
C14 C13 1_555 1_555
H9 C14 1_555 1_555
C15 C6 1_555 1_555
S4 O10 1_555 1_555
S5 O13 1_555 1_555
O11 S4 1_555 1_555
O12 S4 1_555 1_555
O14 S5 1_555 1_555
O15 S5 1_555 1_555
C16 S4 1_555 1_555
C17 C16 1_555 1_555
H10 C17 1_555 1_555
C18 C17 1_555 1_555
H11 C18 1_555 1_555
C19 C18 1_555 1_555
H12 C19 1_555 1_555
C20 C19 1_555 1_555
C21 S5 1_555 1_555
C22 C21 1_555 1_555
H13 C22 1_555 1_555
C23 C22 1_555 1_555
H14 C23 1_555 1_555
C24 C23 1_555 1_555
H15 C24 1_555 1_555
C25 C16 1_555 1_555
O16 C34 1_555 1_555
O17 C53 1_555 1_555
N1 C26 1_555 1_555
N2 C26 1_555 1_555
N3 C29 1_555 1_555
N4 H16 1_555 1_555
N5 C34 1_555 1_555
N6 C44 1_555 1_555
N7 C45 1_555 1_555
N8 C48 1_555 1_555
N9 H17 1_555 1_555
N10 C53 1_555 1_555
C26 H18 1_555 1_555
C27 N1 1_555 1_555
H19 C27 1_555 1_555
C28 N2 1_555 1_555
H20 C28 1_555 1_555
C29 N2 1_555 1_555
C30 C29 1_555 1_555
H21 C30 1_555 1_555
C31 C30 1_555 1_555
H22 C31 1_555 1_555
C32 C31 1_555 1_555
H23 C32 1_555 1_555
C33 N3 1_555 1_555
C34 H24 1_555 1_555
C35 N4 1_555 1_555
H25 C35 1_555 1_555
C36 N5 1_555 1_555
H26 C36 1_555 1_555
C37 N5 1_555 1_555
H27 C37 1_555 1_555
H28 C37 1_555 1_555
C38 C37 1_555 1_555
C39 C38 1_555 1_555
H29 C39 1_555 1_555
C40 C39 1_555 1_555
H30 C40 1_555 1_555
C41 C40 1_555 1_555
C42 C41 1_555 1_555
H31 C42 1_555 1_555
C43 C38 1_555 1_555
H32 C43 1_555 1_555
C44 C41 1_555 1_555
H33 C44 1_555 1_555
H34 C44 1_555 1_555
C45 N6 1_555 1_555
H35 C45 1_555 1_555
C46 N6 1_555 1_555
H36 C46 1_555 1_555
C47 N7 1_555 1_555
H37 C47 1_555 1_555
C48 N7 1_555 1_555
C49 C48 1_555 1_555
H38 C49 1_555 1_555
C50 C49 1_555 1_555
H39 C50 1_555 1_555
C51 C50 1_555 1_555
H40 C51 1_555 1_555
C52 N8 1_555 1_555
C53 H41 1_555 1_555
C54 N9 1_555 1_555
H42 C54 1_555 1_555
C55 N10 1_555 1_555
H43 C55 1_555 1_555
C56 N10 1_555 1_555
H44 C56 1_555 1_555
H45 C56 1_555 1_555
C57 C56 1_555 1_555
C58 C57 1_555 1_555
H46 C58 1_555 1_555
C59 C58 1_555 1_555
H47 C59 1_555 1_555
C60 C59 1_555 1_555
C61 C60 1_555 1_555
H48 C61 1_555 1_555
C62 C57 1_555 1_555
H49 C62 1_555 1_555
C63 N1 1_555 1_555
H50 C63 1_555 1_555
H51 C63 1_555 1_555
O18 C72 1_555 1_555
O19 C91 1_555 1_555
N11 C64 1_555 1_555
N12 C64 1_555 1_555
N13 C67 1_555 1_555
N14 H52 1_555 1_555
N15 C72 1_555 1_555
N16 C82 1_555 1_555
N17 C83 1_555 1_555
N18 C86 1_555 1_555
N19 H53 1_555 1_555
N20 C91 1_555 1_555
C64 H54 1_555 1_555
C65 N11 1_555 1_555
H55 C65 1_555 1_555
C66 N12 1_555 1_555
H56 C66 1_555 1_555
C67 N12 1_555 1_555
C68 C67 1_555 1_555
H57 C68 1_555 1_555
C69 C68 1_555 1_555
H58 C69 1_555 1_555
C70 C69 1_555 1_555
H59 C70 1_555 1_555
C71 N13 1_555 1_555
C72 H60 1_555 1_555
C73 N14 1_555 1_555
H61 C73 1_555 1_555
C74 N15 1_555 1_555
H62 C74 1_555 1_555
C75 N15 1_555 1_555
H63 C75 1_555 1_555
H64 C75 1_555 1_555
C76 C75 1_555 1_555
C77 C76 1_555 1_555
H65 C77 1_555 1_555
C78 C77 1_555 1_555
H66 C78 1_555 1_555
C79 C78 1_555 1_555
C80 C79 1_555 1_555
H67 C80 1_555 1_555
C81 C76 1_555 1_555
H68 C81 1_555 1_555
C82 C79 1_555 1_555
H69 C82 1_555 1_555
H70 C82 1_555 1_555
C83 N16 1_555 1_555
H71 C83 1_555 1_555
C84 N16 1_555 1_555
H72 C84 1_555 1_555
C85 N17 1_555 1_555
H73 C85 1_555 1_555
C86 N17 1_555 1_555
C87 C86 1_555 1_555
H74 C87 1_555 1_555
C88 C87 1_555 1_555
H75 C88 1_555 1_555
C89 C88 1_555 1_555
H76 C89 1_555 1_555
C90 N18 1_555 1_555
C91 H77 1_555 1_555
C92 N19 1_555 1_555
H78 C92 1_555 1_555
C93 N20 1_555 1_555
H79 C93 1_555 1_555
C94 N20 1_555 1_555
H80 C94 1_555 1_555
H81 C94 1_555 1_555
C95 C94 1_555 1_555
C96 C95 1_555 1_555
H82 C96 1_555 1_555
C97 C96 1_555 1_555
H83 C97 1_555 1_555
C98 C97 1_555 1_555
C99 C98 1_555 1_555
H84 C99 1_555 1_555
C100 C95 1_555 1_555
H85 C100 1_555 1_555
C101 N11 1_555 1_555
H86 C101 1_555 1_555
H87 C101 1_555 1_555
S1A O1A 1_555 1_555
O2A S1A 1_555 1_555
O3A S1A 1_555 1_555
C1A C5 1_555 1_555
H1A C1A 1_555 1_555
C2A C2 1_555 1_555
C3A S1A 1_555 1_555
C4A C3A 1_555 1_555
H2A C4A 1_555 1_555
C5A C1 1_555 1_555
H3A C5A 1_555 1_555
C2 C3 1_555 1_555
C10 C11 1_555 1_555
C10 C15 1_555 1_555
C14 C15 1_555 1_555
C20 C21 1_555 1_555
C20 C25 1_555 1_555
C24 C25 1_555 1_555
N4 C33 1_555 1_555
N9 C52 1_555 1_555
C27 C28 1_555 1_555
C32 C33 1_555 1_555
C35 C36 1_555 1_555
C42 C43 1_555 1_555
C46 C47 1_555 1_555
C51 C52 1_555 1_555
C54 C55 1_555 1_555
C60 C63 1_555 1_555
C61 C62 1_555 1_555
N14 C71 1_555 1_555
N19 C90 1_555 1_555
C65 C66 1_555 1_555
C70 C71 1_555 1_555
C73 C74 1_555 1_555
C80 C81 1_555 1_555
C84 C85 1_555 1_555
C89 C90 1_555 1_555
C92 C93 1_555 1_555
C98 C101 1_555 1_555
C99 C100 1_555 1_555
C1A C2A 1_555 1_555
C2A C3A 1_555 1_555
C4A C5A 1_555 1_555

#END
