
#######################################################################
#
#                 Cambridge Crystallographic Data Centre
#                                CCDC 
#
#######################################################################
#
# If this CIF has been generated from an entry in the Cambridge 
# Structural Database, then it will include bibliographic, chemical, 
# crystal, experimental, refinement or atomic coordinate data resulting 
# from the CCDC's data processing and validation procedures.
#
#######################################################################

data_QAHMOE
_chemical_formula_moiety         'C38 H36 N10 O2 2+,2(F6 P1 1-),C2 H3 N1,H2 O1'
_chemical_name_systematic        
'15,34-diformyl-3,12,15,22,31,34,41,45-octaaza-6,25-diazoniaheptacyclo[34.2.2.2^17,20^.1^3,6^.1^7,11^.1^22,25^.1^26,30^]hexatetraconta-1(38),4,6(46),7(45),8,10,13,17,19,23,25(42),26(41),27,29,32,36,39,43-octadecaene bis(hexafluorophosphate) acetonitrile solvate monohydrate'
_symmetry_cell_setting           monoclinic
_symmetry_space_group_name_H-M   'C 2/c'
_symmetry_Int_Tables_number      15
_space_group_name_Hall           '-C 2yn'
loop_
_symmetry_equiv_pos_site_id
_symmetry_equiv_pos_as_xyz
1 x,y,z
2 -x,y,1/2-z
3 1/2+x,1/2+y,z
4 1/2-x,1/2+y,1/2-z
5 -x,-y,-z
6 x,-y,1/2+z
7 1/2-x,1/2-y,-z
8 1/2+x,1/2-y,1/2+z
_cell_length_a                   28.552(6)
_cell_length_b                   13.685(3)
_cell_length_c                   22.641(5)
_cell_angle_alpha                90
_cell_angle_beta                 103.63(3)
_cell_angle_gamma                90
_cell_volume                     8597.47
_exptl_crystal_colour            yellow
_exptl_crystal_description       Prism
_cell_formula_units_Z            8
loop_
_atom_site_label
_atom_site_type_symbol
_atom_site_fract_x
_atom_site_fract_y
_atom_site_fract_z
P1 P 0.47418(4) 0.24699(9) 0.45604(5)
F1 F 0.48822(14) 0.3425(2) 0.49563(15)
F2 F 0.46096(11) 0.1514(2) 0.41606(14)
F3 F 0.41857(11) 0.2676(3) 0.44843(14)
F4 F 0.47506(10) 0.1859(2) 0.51568(12)
F5 F 0.47461(10) 0.3078(2) 0.39618(12)
F6 F 0.53037(9) 0.2244(2) 0.46344(12)
P2 P 0.68810(5) 0.64663(11) 0.42582(6)
F7 F 0.7061(2) 0.6172(4) 0.36798(16)
F8 F 0.67854(15) 0.5338(2) 0.43953(18)
F9 F 0.63616(14) 0.6601(3) 0.38629(18)
F10 F 0.69704(14) 0.7577(3) 0.41406(16)
F11 F 0.74117(11) 0.6345(3) 0.46744(16)
F12 F 0.67054(11) 0.6754(2) 0.48429(13)
O1 O 0.82942(13) 0.3023(3) 0.22009(14)
H1 H 0.838(2) 0.273(4) 0.1855(19)
H2 H 0.7999(14) 0.272(4) 0.224(3)
O2 O 0.74125(11) 0.2602(3) 0.24305(13)
O3 O 0.56029(13) 0.2042(3) 0.76664(14)
N1 N 0.76829(12) 0.5021(2) 0.60418(14)
N2 N 0.80240(11) 0.3912(2) 0.56048(13)
N3 N 0.77658(11) 0.3289(2) 0.46329(13)
N4 N 0.74731(12) 0.2733(2) 0.36448(14)
H3 H 0.7495 0.2317 0.3368
N5 N 0.66320(12) 0.2849(3) 0.24913(14)
N6 N 0.56085(13) -0.0412(3) 0.40444(14)
N7 N 0.60898(13) -0.0418(2) 0.49434(14)
N8 N 0.60826(12) 0.0540(2) 0.57913(14)
N9 N 0.60551(13) 0.1567(3) 0.66014(15)
H4 H 0.6174 0.1739 0.6972
N10 N 0.55976(13) 0.3314(3) 0.70160(15)
C1 C 0.76455(14) 0.4518(3) 0.55316(17)
H5 H 0.7399 0.4576 0.5183
C2 C 0.80948(15) 0.4727(3) 0.64545(18)
H6 H 0.8205 0.4965 0.6848
C3 C 0.83077(15) 0.4040(3) 0.61887(17)
H7 H 0.8592 0.3711 0.6362
C4 C 0.81162(14) 0.3280(3) 0.51377(16)
C5 C 0.85392(15) 0.2760(3) 0.52289(18)
H8 H 0.8769 0.2777 0.5596
C6 C 0.86026(16) 0.2205(3) 0.47374(19)
H9 H 0.8884 0.1848 0.4769
C7 C 0.82528(15) 0.2185(3) 0.42092(18)
H10 H 0.8291 0.1810 0.3881
C8 C 0.78360(14) 0.2742(3) 0.41733(17)
C9 C 0.70795(15) 0.3349(3) 0.35356(17)
H11 H 0.7065 0.3784 0.3847
C10 C 0.67166(15) 0.3403(3) 0.30422(17)
H12 H 0.6484 0.3870 0.3059
C11 C 0.69751(17) 0.2519(3) 0.22264(18)
H13 H 0.6873 0.2200 0.1856
C12 C 0.61208(15) 0.2717(3) 0.21751(17)
H14 H 0.6101 0.2500 0.1762
H15 H 0.5955 0.3339 0.2155
C13 C 0.58743(14) 0.1983(3) 0.24935(16)
C14 C 0.56171(14) 0.2286(3) 0.29105(18)
H16 H 0.5585 0.2950 0.2978
C15 C 0.54072(14) 0.1615(3) 0.32269(17)
H17 H 0.5236 0.1830 0.3504
C16 C 0.54529(14) 0.0621(3) 0.31305(16)
C17 C 0.56968(14) 0.0307(3) 0.27055(17)
H18 H 0.5721 -0.0357 0.2631
C18 C 0.59055(14) 0.0985(3) 0.23909(17)
H19 H 0.6069 0.0769 0.2106
C19 C 0.52410(15) -0.0107(3) 0.35027(18)
H20 H 0.4971 0.0189 0.3627
H21 H 0.5123 -0.0675 0.3256
C20 C 0.57083(15) 0.0028(3) 0.45888(17)
H22 H 0.5541 0.0553 0.4701
C21 C 0.59332(18) -0.1148(3) 0.4057(2)
H23 H 0.5944 -0.1569 0.3739
C22 C 0.62347(18) -0.1154(3) 0.46129(19)
H24 H 0.6493 -0.1578 0.4748
C23 C 0.63199(16) -0.0143(3) 0.55631(17)
C24 C 0.67486(16) -0.0557(3) 0.58459(19)
H25 H 0.6892 -0.1044 0.5663
C25 C 0.69597(16) -0.0203(3) 0.6430(2)
H26 H 0.7255 -0.0451 0.6643
C26 C 0.67353(16) 0.0497(3) 0.66839(19)
H27 H 0.6874 0.0734 0.7071
C27 C 0.62897(15) 0.0861(3) 0.63534(18)
C28 C 0.56382(15) 0.2016(3) 0.62892(18)
H28 H 0.5488 0.1747 0.5915
C29 C 0.54307(17) 0.2788(3) 0.64660(18)
H29 H 0.5148 0.3008 0.6206
C30 C 0.56474(17) 0.2901(4) 0.7568(2)
H30 H 0.5723 0.3315 0.7903
C31 C 0.56559(18) 0.4364(3) 0.6961(2)
H31 H 0.5676 0.4666 0.7353
H32 H 0.5373 0.4624 0.6680
C32 C 0.61054(16) 0.4645(3) 0.67369(19)
C33 C 0.60565(16) 0.5107(3) 0.6182(2)
H33 H 0.5751 0.5190 0.5929
C34 C 0.64552(15) 0.5445(3) 0.59980(19)
H34 H 0.6414 0.5757 0.5625
C35 C 0.69116(15) 0.5327(3) 0.63589(17)
C36 C 0.69651(17) 0.4842(3) 0.69128(18)
H35 H 0.7272 0.4739 0.7158
C37 C 0.65633(18) 0.4512(3) 0.71005(19)
H36 H 0.6603 0.4198 0.7473
C38 C 0.73388(15) 0.5760(3) 0.61565(19)
H37 H 0.7220 0.6135 0.5788
H38 H 0.7507 0.6207 0.6467
N11 N 0.5628(2) 0.4682(4) 0.3333(3)
C39 C 0.5657(2) 0.4982(5) 0.4446(3)
H39 H 0.5402 0.4626 0.4560
H40 H 0.5619 0.5667 0.4511
H41 H 0.5962 0.4766 0.4689
C40 C 0.5640(2) 0.4816(4) 0.3833(3)
loop_
_geom_bond_atom_site_label_1
_geom_bond_atom_site_label_2
_geom_bond_site_symmetry_1
_geom_bond_site_symmetry_2
P1 F1 1_555 1_555
F2 P1 1_555 1_555
F3 P1 1_555 1_555
F4 P1 1_555 1_555
F5 P1 1_555 1_555
F6 P1 1_555 1_555
P2 F7 1_555 1_555
F8 P2 1_555 1_555
F9 P2 1_555 1_555
F10 P2 1_555 1_555
F11 P2 1_555 1_555
F12 P2 1_555 1_555
O1 H1 1_555 1_555
H2 O1 1_555 1_555
O2 C11 1_555 1_555
O3 C30 1_555 1_555
N1 C1 1_555 1_555
N2 C1 1_555 1_555
N3 C4 1_555 1_555
N4 H3 1_555 1_555
N5 C10 1_555 1_555
N6 C19 1_555 1_555
N7 C20 1_555 1_555
N8 C23 1_555 1_555
N9 H4 1_555 1_555
N10 C29 1_555 1_555
C1 H5 1_555 1_555
C2 N1 1_555 1_555
H6 C2 1_555 1_555
C3 N2 1_555 1_555
H7 C3 1_555 1_555
C4 N2 1_555 1_555
C5 C4 1_555 1_555
H8 C5 1_555 1_555
C6 C5 1_555 1_555
H9 C6 1_555 1_555
C7 C6 1_555 1_555
H10 C7 1_555 1_555
C8 N3 1_555 1_555
C9 N4 1_555 1_555
H11 C9 1_555 1_555
C10 C9 1_555 1_555
H12 C10 1_555 1_555
C11 N5 1_555 1_555
H13 C11 1_555 1_555
C12 N5 1_555 1_555
H14 C12 1_555 1_555
H15 C12 1_555 1_555
C13 C12 1_555 1_555
C14 C13 1_555 1_555
H16 C14 1_555 1_555
C15 C14 1_555 1_555
H17 C15 1_555 1_555
C16 C15 1_555 1_555
C17 C16 1_555 1_555
H18 C17 1_555 1_555
C18 C13 1_555 1_555
H19 C18 1_555 1_555
C19 C16 1_555 1_555
H20 C19 1_555 1_555
H21 C19 1_555 1_555
C20 N6 1_555 1_555
H22 C20 1_555 1_555
C21 N6 1_555 1_555
H23 C21 1_555 1_555
C22 N7 1_555 1_555
H24 C22 1_555 1_555
C23 N7 1_555 1_555
C24 C23 1_555 1_555
H25 C24 1_555 1_555
C25 C24 1_555 1_555
H26 C25 1_555 1_555
C26 C25 1_555 1_555
H27 C26 1_555 1_555
C27 N8 1_555 1_555
C28 N9 1_555 1_555
H28 C28 1_555 1_555
C29 C28 1_555 1_555
H29 C29 1_555 1_555
C30 N10 1_555 1_555
H30 C30 1_555 1_555
C31 N10 1_555 1_555
H31 C31 1_555 1_555
H32 C31 1_555 1_555
C32 C31 1_555 1_555
C33 C32 1_555 1_555
H33 C33 1_555 1_555
C34 C33 1_555 1_555
H34 C34 1_555 1_555
C35 C34 1_555 1_555
C36 C35 1_555 1_555
H35 C36 1_555 1_555
C37 C32 1_555 1_555
H36 C37 1_555 1_555
C38 N1 1_555 1_555
H37 C38 1_555 1_555
H38 C38 1_555 1_555
N11 C40 1_555 1_555
C39 H39 1_555 1_555
H40 C39 1_555 1_555
H41 C39 1_555 1_555
C40 C39 1_555 1_555
N4 C8 1_555 1_555
N9 C27 1_555 1_555
C2 C3 1_555 1_555
C7 C8 1_555 1_555
C17 C18 1_555 1_555
C21 C22 1_555 1_555
C26 C27 1_555 1_555
C35 C38 1_555 1_555
C36 C37 1_555 1_555

#END
