
#######################################################################
#
#                 Cambridge Crystallographic Data Centre
#                                CCDC 
#
#######################################################################
#
# If this CIF has been generated from an entry in the Cambridge 
# Structural Database, then it will include bibliographic, chemical, 
# crystal, experimental, refinement or atomic coordinate data resulting 
# from the CCDC's data processing and validation procedures.
#
#######################################################################

data_QAHROG
_chemical_formula_moiety         'C34 H33 N5 O4,C2 H6 O1 S1'
_chemical_name_systematic        
'5-(Dibenzylamino)-8-methoxy-4a-(1-(methoxyimino)ethyl)-2-phenyl-4a,5-dihydro(1,3,5)triazino(1,2-a)indole-1,3(2H,4H)-dione dimethylsulfoxide solvate'
_symmetry_cell_setting           triclinic
_symmetry_space_group_name_H-M   'P 1'
_symmetry_Int_Tables_number      1
_space_group_name_Hall           'P 1'
loop_
_symmetry_equiv_pos_site_id
_symmetry_equiv_pos_as_xyz
1 x,y,z
_cell_length_a                   13.027(2)
_cell_length_b                   13.516(4)
_cell_length_c                   11.673(2)
_cell_angle_alpha                106.64(2)
_cell_angle_beta                 110.21(2)
_cell_angle_gamma                63.92(2)
_cell_volume                     1710.18
_exptl_crystal_colour            colorless
_cell_formula_units_Z            2
loop_
_atom_site_label
_atom_site_type_symbol
_atom_site_fract_x
_atom_site_fract_y
_atom_site_fract_z
O1 O 0.6055(2) 0.3371(2) 0.5437(2)
O2 O 0.5742(3) 0.5308(2) 0.9263(2)
O3 O 0.7998(2) 0.0920(2) 0.8631(2)
O4 O 0.4532(2) 0.0441(2) 0.2541(2)
N1 N 0.5149(2) 0.2955(2) 0.6476(2)
N2 N 0.4869(2) 0.4045(2) 0.8404(2)
N3 N 0.6097(2) 0.4189(2) 0.7457(2)
N4 N 0.2825(2) 0.3580(2) 0.7447(2)
N5 N 0.6999(2) 0.1649(2) 0.7900(2)
C1 C 0.5015(2) 0.2945(2) 0.7669(2)
C2 C 0.3915(2) 0.2621(2) 0.7294(2)
C3 C 0.3954(2) 0.1997(2) 0.5994(2)
C4 C 0.4668(2) 0.2224(2) 0.5548(2)
C5 C 0.5785(2) 0.3474(2) 0.6369(2)
C6 C 0.5574(2) 0.4549(2) 0.8438(2)
C7 C 0.6964(2) 0.4598(2) 0.7501(2)
C8 C 0.8088(3) 0.4165(2) 0.8247(3)
C9 C 0.8942(3) 0.4512(3) 0.8279(4)
C10 C 0.8682(3) 0.5277(3) 0.7543(4)
C11 C 0.7576(3) 0.5704(3) 0.6815(4)
C12 C 0.6698(3) 0.5368(2) 0.6785(3)
C13 C 0.6124(2) 0.2079(2) 0.8367(2)
C14 C 0.6107(3) 0.1885(3) 0.9550(3)
C15 C 0.8976(3) 0.0596(4) 0.8124(5)
C16 C 0.3421(2) 0.1263(2) 0.5246(3)
C17 C 0.3609(2) 0.0783(2) 0.4084(3)
C18 C 0.4352(2) 0.1009(2) 0.3678(2)
C19 C 0.4900(2) 0.1747(2) 0.4399(2)
C20 C 0.5384(3) 0.0526(3) 0.2145(3)
C21 C 0.2392(2) 0.4381(2) 0.6599(3)
C22 C 0.1489(2) 0.5487(2) 0.7019(3)
C23 C 0.0521(3) 0.6065(3) 0.6167(3)
C24 C -0.0313(3) 0.7078(3) 0.6526(4)
C25 C -0.0183(4) 0.7522(3) 0.7747(4)
C26 C 0.0780(4) 0.6979(3) 0.8606(4)
C27 C 0.1615(3) 0.5956(3) 0.8253(3)
C28 C 0.1869(2) 0.3226(2) 0.7334(3)
C29 C 0.2101(2) 0.2589(2) 0.8316(3)
C30 C 0.1765(3) 0.1688(3) 0.8006(3)
C31 C 0.1894(3) 0.1132(3) 0.8920(4)
C32 C 0.2373(4) 0.1454(4) 1.0110(4)
C33 C 0.2729(4) 0.2331(3) 1.0437(3)
C34 C 0.2594(3) 0.2905(3) 0.9548(3)
S1 S 0.8278(3) 0.1287(2) 0.4073(2)
O5 O 0.9150(10) 0.0487(8) 0.3439(9)
C35 C 0.7477(7) 0.2337(8) 0.3256(5)
C36 C 0.8913(5) 0.2046(6) 0.5395(6)
S2? S 0.9001(8) 0.1414(9) 0.422(1)
O6? O 0.827(3) 0.043(1) 0.414(2)
loop_
_geom_bond_atom_site_label_1
_geom_bond_atom_site_label_2
_geom_bond_site_symmetry_1
_geom_bond_site_symmetry_2
O1 C5 1_555 1_555
O2 C6 1_555 1_555
O3 N5 1_555 1_555
O4 C18 1_555 1_555
N1 C1 1_555 1_555
N2 C1 1_555 1_555
N3 C5 1_555 1_555
N4 C2 1_555 1_555
N5 C13 1_555 1_555
C1 C2 1_555 1_555
C2 C3 1_555 1_555
C3 C4 1_555 1_555
C4 N1 1_555 1_555
C5 N1 1_555 1_555
C6 N2 1_555 1_555
C7 N3 1_555 1_555
C8 C7 1_555 1_555
C9 C8 1_555 1_555
C10 C9 1_555 1_555
C11 C10 1_555 1_555
C12 C7 1_555 1_555
C13 C1 1_555 1_555
C14 C13 1_555 1_555
C15 O3 1_555 1_555
C16 C3 1_555 1_555
C17 C16 1_555 1_555
C18 C17 1_555 1_555
C19 C4 1_555 1_555
C20 O4 1_555 1_555
C21 N4 1_555 1_555
C22 C21 1_555 1_555
C23 C22 1_555 1_555
C24 C23 1_555 1_555
C25 C24 1_555 1_555
C26 C25 1_555 1_555
C27 C22 1_555 1_555
C28 N4 1_555 1_555
C29 C28 1_555 1_555
C30 C29 1_555 1_555
C31 C30 1_555 1_555
C32 C31 1_555 1_555
C33 C32 1_555 1_555
C34 C29 1_555 1_555
S1 O5 1_555 1_555
C35 S1 1_555 1_555
C36 S1 1_555 1_555
N3 C6 1_555 1_555
C11 C12 1_555 1_555
C18 C19 1_555 1_555
C26 C27 1_555 1_555
C33 C34 1_555 1_555

#END
