
#######################################################################
#
#                 Cambridge Crystallographic Data Centre
#                                CCDC 
#
#######################################################################
#
# If this CIF has been generated from an entry in the Cambridge 
# Structural Database, then it will include bibliographic, chemical, 
# crystal, experimental, refinement or atomic coordinate data resulting 
# from the CCDC's data processing and validation procedures.
#
#######################################################################

data_QAJHUH
_chemical_name_common            
'C-Methyl-5,11,17,23-tetrakis(benzylammoniomethyl)calix(4)resorcinarene tetrakis(trifluoroacetate) 1,4-dioxane solvate'
_chemical_formula_moiety         'C64 H72 N4 O8 4+,4(C2 F3 O2 1-),C4 H8 O2'
_chemical_name_systematic        
'2,8,14,20-Tetramethyl-5,11,17,23-tetrakis(benzylammoniomethyl)-4,6,10,12,16,18,22,24-octahydroxycalix(4)arene tetrakis(trifluoroacetate) 1,4-dioxane solvate'
_symmetry_cell_setting           triclinic
_symmetry_space_group_name_H-M   'P -1'
_symmetry_Int_Tables_number      2
_space_group_name_Hall           '-P 1'
loop_
_symmetry_equiv_pos_site_id
_symmetry_equiv_pos_as_xyz
1 x,y,z
2 -x,-y,-z
_cell_length_a                   12.0087(7)
_cell_length_b                   14.8660(10)
_cell_length_c                   22.6221(14)
_cell_angle_alpha                102.180(5)
_cell_angle_beta                 99.267(5)
_cell_angle_gamma                104.083(5)
_cell_volume                     3731.68
_exptl_crystal_colour            colorless
_exptl_crystal_description       plate
_cell_formula_units_Z            2
loop_
_atom_site_label
_atom_site_type_symbol
_atom_site_fract_x
_atom_site_fract_y
_atom_site_fract_z
O1 O 0.5027(2) 0.01520(17) 0.87466(12)
H1 H 0.4302 0.0033 0.8602
O2 O 0.4950(2) 0.32859(17) 0.97062(11)
H2 H 0.5112 0.3834 0.9641
O3 O 0.5343(2) 0.50776(18) 0.94174(10)
H3 H 0.4623 0.5010 0.9289
O4 O 0.5790(2) 0.60103(18) 0.75606(11)
H4 H 0.5622 0.5656 0.7197
O5 O 0.5380(2) 0.45599(19) 0.64691(12)
H5 H 0.4645 0.4340 0.6401
O6 O 0.5370(3) 0.1409(2) 0.54736(11)
H6 H 0.5561 0.0940 0.5565
O7 O 0.5575(2) -0.0263(2) 0.58365(12)
H7 H 0.4835 -0.0438 0.5745
O8 O 0.5486(2) -0.10424(17) 0.77664(12)
H8 H 0.5340 -0.0757 0.8094
N1 N 0.2907(3) 0.1665(2) 0.91051(14)
H9 H 0.2869 0.1436 0.8656
H10 H 0.3082 0.2373 0.9208
N2 N 0.3780(3) 0.6025(2) 0.81755(14)
H11 H 0.3852 0.5679 0.7765
H12 H 0.3230 0.5564 0.8329
N3 N 0.3324(3) 0.2045(3) 0.54410(14)
H13 H 0.3469 0.1419 0.5285
H14 H 0.3257 0.2102 0.5877
N4 N 0.3548(3) -0.1834(2) 0.65568(15)
H15 H 0.3161 -0.1529 0.6267
H16 H 0.3525 -0.1508 0.6982
C1 C 0.6635(3) 0.1477(2) 0.87847(15)
C2 C 0.5540(3) 0.1131(2) 0.89209(15)
C3 C 0.5009(3) 0.1749(2) 0.92438(15)
C4 C 0.5551(3) 0.2739(3) 0.93922(15)
C5 C 0.6622(3) 0.3121(2) 0.92500(15)
C6 C 0.7138(3) 0.2468(2) 0.89520(15)
H17 H 0.7877 0.2713 0.8857
C7 C 0.3901(3) 0.1416(3) 0.94614(17)
H18 H 0.3697 0.0711 0.9403
H19 H 0.4028 0.1724 0.9909
C8 C 0.1718(4) 0.1251(3) 0.9227(2)
H20 H 0.1506 0.0541 0.9094
H21 H 0.1120 0.1458 0.8978
C9 C 0.1701(3) 0.1564(3) 0.99030(19)
C10 C 0.1595(6) 0.0910(4) 1.0250(3)
H22 H 0.1544 0.0260 1.0068
C11 C 0.1562(7) 0.1203(5) 1.0873(3)
H23 H 0.1485 0.0746 1.1112
C12 C 0.1637(5) 0.2127(5) 1.1144(3)
H24 H 0.1639 0.2323 1.1572
C13 C 0.1710(4) 0.2762(3) 1.0798(2)
H25 H 0.1733 0.3406 1.0977
C14 C 0.1751(4) 0.2480(3) 1.01849(19)
H26 H 0.1817 0.2943 0.9950
C15 C 0.7176(3) 0.4198(2) 0.94158(15)
H27 H 0.6878 0.4478 0.9779
C16 C 0.8518(3) 0.4502(3) 0.96219(16)
H28 H 0.8852 0.4264 0.9274
H29 H 0.8750 0.4231 0.9966
H30 H 0.8813 0.5204 0.9759
C17 C 0.6763(3) 0.4624(2) 0.88927(14)
C18 C 0.5904(3) 0.5102(2) 0.89331(15)
C19 C 0.5633(3) 0.5610(2) 0.85033(15)
C20 C 0.6125(3) 0.5511(3) 0.79756(15)
C21 C 0.6924(3) 0.4990(2) 0.78969(15)
C22 C 0.7239(3) 0.4568(2) 0.83684(15)
H31 H 0.7807 0.4225 0.8330
C23 C 0.4961(3) 0.6341(3) 0.86112(16)
H32 H 0.4856 0.6455 0.9043
H33 H 0.5425 0.6956 0.8559
C24 C 0.3256(4) 0.6816(3) 0.80927(18)
H34 H 0.2546 0.6552 0.7749
H35 H 0.3829 0.7305 0.7971
C25 C 0.2921(4) 0.7297(3) 0.86618(18)
C26 C 0.3693(5) 0.8160(3) 0.90559(19)
H36 H 0.4445 0.8405 0.8975
C27 C 0.3381(7) 0.8653(4) 0.9554(2)
H37 H 0.3905 0.9237 0.9819
C28 C 0.2311(7) 0.8289(6) 0.9661(3)
H38 H 0.2091 0.8646 1.0001
C29 C 0.1543(6) 0.7460(6) 0.9321(3)
H39 H 0.0811 0.7224 0.9424
C30 C 0.1854(5) 0.6928(4) 0.8787(2)
H40 H 0.1327 0.6337 0.8532
C31 C 0.7485(3) 0.4919(3) 0.73369(15)
H41 H 0.7302 0.5416 0.7132
C32 C 0.8825(3) 0.5178(3) 0.75214(17)
H42 H 0.9137 0.5833 0.7792
H43 H 0.9146 0.5140 0.7148
H44 H 0.9052 0.4727 0.7743
C33 C 0.6926(3) 0.3951(3) 0.68559(15)
C34 C 0.5883(3) 0.3812(3) 0.64258(16)
C35 C 0.5398(3) 0.2963(3) 0.59517(16)
C36 C 0.5921(3) 0.2223(3) 0.59459(16)
C37 C 0.6932(3) 0.2307(3) 0.63813(15)
C38 C 0.7420(3) 0.3200(3) 0.68216(16)
H45 H 0.8130 0.3292 0.7112
C39 C 0.4377(3) 0.2831(3) 0.54321(17)
H46 H 0.4608 0.2671 0.5031
H47 H 0.4164 0.3441 0.5469
C40 C 0.2168(4) 0.2038(3) 0.50668(17)
H48 H 0.1943 0.2606 0.5266
H49 H 0.1554 0.1457 0.5067
C41 C 0.2208(3) 0.2048(3) 0.44069(18)
C42 C 0.2410(6) 0.2890(4) 0.4236(2)
H50 H 0.2520 0.3478 0.4535
C43 C 0.2454(6) 0.2892(5) 0.3632(3)
H51 H 0.2609 0.3486 0.3522
C44 C 0.2281(5) 0.2073(5) 0.3193(2)
H52 H 0.2323 0.2086 0.2779
C45 C 0.2041(4) 0.1209(4) 0.3356(2)
H53 H 0.1893 0.0622 0.3050
C46 C 0.2019(4) 0.1207(3) 0.39646(18)
H54 H 0.1872 0.0616 0.4077
C47 C 0.7438(3) 0.1466(3) 0.63744(17)
H55 H 0.7221 0.1067 0.5935
C48 C 0.8778(3) 0.1762(3) 0.65728(19)
H56 H 0.9117 0.2140 0.6305
H57 H 0.9050 0.1186 0.6537
H58 H 0.9029 0.2150 0.7004
C49 C 0.6850(3) 0.0834(3) 0.67547(17)
C50 C 0.5965(3) -0.0028(3) 0.64676(16)
C51 C 0.5547(3) -0.0664(3) 0.68145(18)
C52 C 0.5932(3) -0.0383(3) 0.74570(17)
C53 C 0.6776(3) 0.0489(2) 0.77651(17)
C54 C 0.7210(3) 0.1072(3) 0.73948(17)
H59 H 0.7788 0.1668 0.7595
C55 C 0.4803(4) -0.1679(3) 0.65116(19)
H60 H 0.4837 -0.1842 0.6069
H61 H 0.5134 -0.2119 0.6710
C56 C 0.2860(4) -0.2869(3) 0.64131(18)
H62 H 0.3208 -0.3164 0.6722
H63 H 0.2041 -0.2910 0.6452
C57 C 0.2842(4) -0.3425(3) 0.57790(17)
C58 C 0.3625(4) -0.3953(3) 0.5687(2)
H64 H 0.4197 -0.3953 0.6030
C59 C 0.3583(5) -0.4490(3) 0.5093(3)
H65 H 0.4133 -0.4845 0.5029
C60 C 0.2738(6) -0.4499(4) 0.4602(3)
H66 H 0.2685 -0.4880 0.4199
C61 C 0.2003(6) -0.3983(4) 0.4688(2)
H67 H 0.1439 -0.3982 0.4342
C62 C 0.2032(4) -0.3445(3) 0.5268(2)
H68 H 0.1486 -0.3082 0.5316
C63 C 0.7234(3) 0.0788(3) 0.84626(16)
H69 H 0.7006 0.0191 0.8607
C64 C 0.8584(3) 0.1149(3) 0.86426(18)
H70 H 0.8853 0.1743 0.8518
H71 H 0.8910 0.0660 0.8432
H72 H 0.8851 0.1275 0.9093
O9 O 0.3232(3) 0.1906(3) 0.66677(14)
O10 O 0.3093(3) 0.1736(3) 0.78581(15)
C65 C 0.4242(8) 0.2309(11) 0.7193(5)
H73 H 0.4957 0.2252 0.7043
H74 H 0.4330 0.3003 0.7348
C66 C 0.4199(8) 0.1915(11) 0.7667(4)
H75 H 0.4823 0.2342 0.8027
H76 H 0.4388 0.1298 0.7556
C67 C 0.2068(7) 0.1416(7) 0.7352(4)
H77 H 0.1877 0.0711 0.7191
H78 H 0.1394 0.1554 0.7516
C68 C 0.2177(9) 0.1822(10) 0.6867(4)
H79 H 0.2076 0.2473 0.6987
H80 H 0.1522 0.1438 0.6510
F1 F 0.0603(6) 0.4568(5) 0.8721(3)
F2 F 0.1291(3) 0.4297(3) 0.79144(14)
F3 F 0.0387(10) 0.3166(8) 0.8224(6)
O11 O 0.2353(3) 0.3359(2) 0.90415(16)
O12 O 0.3088(2) 0.4809(2) 0.88989(13)
C73 C 0.2316(4) 0.4030(3) 0.88209(17)
C74 C 0.1153(5) 0.3954(4) 0.8403(2)
F6 F 0.0453(9) -0.1977(9) 0.7364(7)
F7 F 0.0568(7) -0.1240(9) 0.8296(5)
F8 F 0.0559(9) -0.0505(9) 0.7606(8)
O13 O 0.2733(3) -0.1447(2) 0.76117(13)
O14 O 0.2758(3) -0.0184(2) 0.83558(14)
C75 C 0.2285(4) -0.0915(3) 0.79180(18)
C76 C 0.0953(5) -0.1184(4) 0.7755(3)
F12 F 0.0916(4) 0.5061(4) 0.6374(3)
F13 F 0.1051(4) 0.4059(6) 0.5610(2)
F14 F 0.0684(5) 0.3634(6) 0.6419(5)
O15 O 0.3052(3) 0.5200(2) 0.69357(13)
O16 O 0.3086(3) 0.3923(2) 0.62249(14)
C77 C 0.2603(4) 0.4488(3) 0.64943(19)
C78 C 0.1310(5) 0.4293(4) 0.6241(3)
F18 F 0.0605(3) -0.1555(3) 0.5038(2)
F19 F 0.1209(3) -0.1268(3) 0.59986(19)
F20 F 0.0730(3) -0.0199(3) 0.56149(18)
O17 O 0.2646(3) 0.0031(2) 0.51174(14)
O18 O 0.3245(3) -0.0850(2) 0.57078(15)
C79 C 0.2502(4) -0.0506(3) 0.54432(18)
C80 C 0.1265(5) -0.0873(4) 0.5528(3)
C69? C 0.4083(15) 0.1617(15) 0.7039(7)
H81? H 0.4379 0.1172 0.6757
H82? H 0.4756 0.2194 0.7248
C70? C 0.3763(18) 0.1198(16) 0.7467(9)
H83? H 0.4473 0.1162 0.7741
H84? H 0.3260 0.0534 0.7265
C71? C 0.238(3) 0.212(3) 0.7508(13)
H85? H 0.1586 0.1663 0.7417
H86? H 0.2353 0.2708 0.7800
C72? C 0.246(2) 0.2336(18) 0.7051(12)
H87? H 0.2765 0.3045 0.7152
H88? H 0.1654 0.2154 0.6786
F4? F 0.0369(14) 0.3962(14) 0.8612(8)
F5? F 0.0741(19) 0.2896(17) 0.8065(10)
F9? F 0.0619(7) -0.1247(11) 0.7119(3)
F10? F 0.0421(7) -0.2079(7) 0.7767(6)
F11? F 0.0438(8) -0.0638(10) 0.7996(6)
F15? F 0.100(2) 0.463(2) 0.5802(16)
F16? F 0.0740(14) 0.3316(14) 0.5927(13)
F17? F 0.0659(19) 0.440(3) 0.6606(10)
loop_
_geom_bond_atom_site_label_1
_geom_bond_atom_site_label_2
_geom_bond_site_symmetry_1
_geom_bond_site_symmetry_2
O1 H1 1_555 1_555
O2 H2 1_555 1_555
O3 H3 1_555 1_555
O4 H4 1_555 1_555
O5 H5 1_555 1_555
O6 H6 1_555 1_555
O7 H7 1_555 1_555
O8 H8 1_555 1_555
N1 H9 1_555 1_555
H10 N1 1_555 1_555
N2 H11 1_555 1_555
H12 N2 1_555 1_555
N3 H13 1_555 1_555
H14 N3 1_555 1_555
N4 H15 1_555 1_555
H16 N4 1_555 1_555
C1 C2 1_555 1_555
C2 O1 1_555 1_555
C3 C2 1_555 1_555
C4 O2 1_555 1_555
C5 C4 1_555 1_555
C6 C1 1_555 1_555
H17 C6 1_555 1_555
C7 N1 1_555 1_555
H18 C7 1_555 1_555
H19 C7 1_555 1_555
C8 N1 1_555 1_555
H20 C8 1_555 1_555
H21 C8 1_555 1_555
C9 C8 1_555 1_555
C10 C9 1_555 1_555
H22 C10 1_555 1_555
C11 C10 1_555 1_555
H23 C11 1_555 1_555
C12 C11 1_555 1_555
H24 C12 1_555 1_555
C13 C12 1_555 1_555
H25 C13 1_555 1_555
C14 C9 1_555 1_555
H26 C14 1_555 1_555
C15 C5 1_555 1_555
H27 C15 1_555 1_555
C16 C15 1_555 1_555
H28 C16 1_555 1_555
H29 C16 1_555 1_555
H30 C16 1_555 1_555
C17 C15 1_555 1_555
C18 O3 1_555 1_555
C19 C18 1_555 1_555
C20 O4 1_555 1_555
C21 C20 1_555 1_555
C22 C17 1_555 1_555
H31 C22 1_555 1_555
C23 N2 1_555 1_555
H32 C23 1_555 1_555
H33 C23 1_555 1_555
C24 N2 1_555 1_555
H34 C24 1_555 1_555
H35 C24 1_555 1_555
C25 C24 1_555 1_555
C26 C25 1_555 1_555
H36 C26 1_555 1_555
C27 C26 1_555 1_555
H37 C27 1_555 1_555
C28 C27 1_555 1_555
H38 C28 1_555 1_555
C29 C28 1_555 1_555
H39 C29 1_555 1_555
C30 C25 1_555 1_555
H40 C30 1_555 1_555
C31 C21 1_555 1_555
H41 C31 1_555 1_555
C32 C31 1_555 1_555
H42 C32 1_555 1_555
H43 C32 1_555 1_555
H44 C32 1_555 1_555
C33 C31 1_555 1_555
C34 O5 1_555 1_555
C35 C34 1_555 1_555
C36 O6 1_555 1_555
C37 C36 1_555 1_555
C38 C33 1_555 1_555
H45 C38 1_555 1_555
C39 N3 1_555 1_555
H46 C39 1_555 1_555
H47 C39 1_555 1_555
C40 N3 1_555 1_555
H48 C40 1_555 1_555
H49 C40 1_555 1_555
C41 C40 1_555 1_555
C42 C41 1_555 1_555
H50 C42 1_555 1_555
C43 C42 1_555 1_555
H51 C43 1_555 1_555
C44 C43 1_555 1_555
H52 C44 1_555 1_555
C45 C44 1_555 1_555
H53 C45 1_555 1_555
C46 C41 1_555 1_555
H54 C46 1_555 1_555
C47 C37 1_555 1_555
H55 C47 1_555 1_555
C48 C47 1_555 1_555
H56 C48 1_555 1_555
H57 C48 1_555 1_555
H58 C48 1_555 1_555
C49 C47 1_555 1_555
C50 O7 1_555 1_555
C51 C50 1_555 1_555
C52 O8 1_555 1_555
C53 C52 1_555 1_555
C54 C49 1_555 1_555
H59 C54 1_555 1_555
C55 N4 1_555 1_555
H60 C55 1_555 1_555
H61 C55 1_555 1_555
C56 N4 1_555 1_555
H62 C56 1_555 1_555
H63 C56 1_555 1_555
C57 C56 1_555 1_555
C58 C57 1_555 1_555
H64 C58 1_555 1_555
C59 C58 1_555 1_555
H65 C59 1_555 1_555
C60 C59 1_555 1_555
H66 C60 1_555 1_555
C61 C60 1_555 1_555
H67 C61 1_555 1_555
C62 C57 1_555 1_555
H68 C62 1_555 1_555
C63 C1 1_555 1_555
H69 C63 1_555 1_555
C64 C63 1_555 1_555
H70 C64 1_555 1_555
H71 C64 1_555 1_555
H72 C64 1_555 1_555
O9 C65 1_555 1_555
O10 C66 1_555 1_555
C65 H73 1_555 1_555
H74 C65 1_555 1_555
C66 C65 1_555 1_555
H75 C66 1_555 1_555
H76 C66 1_555 1_555
C67 O10 1_555 1_555
H77 C67 1_555 1_555
H78 C67 1_555 1_555
C68 O9 1_555 1_555
H79 C68 1_555 1_555
H80 C68 1_555 1_555
F1 C74 1_555 1_555
F2 C74 1_555 1_555
F3 C74 1_555 1_555
O11 C73 1_555 1_555
O12 C73 1_555 1_555
C73 C74 1_555 1_555
F6 C76 1_555 1_555
F7 C76 1_555 1_555
F8 C76 1_555 1_555
O13 C75 1_555 1_555
O14 C75 1_555 1_555
C75 C76 1_555 1_555
F12 C78 1_555 1_555
F13 C78 1_555 1_555
F14 C78 1_555 1_555
O15 C77 1_555 1_555
O16 C77 1_555 1_555
C77 C78 1_555 1_555
F18 C80 1_555 1_555
F19 C80 1_555 1_555
F20 C80 1_555 1_555
O17 C79 1_555 1_555
O18 C79 1_555 1_555
C79 C80 1_555 1_555
C3 C4 1_555 1_555
C3 C7 1_555 1_555
C5 C6 1_555 1_555
C13 C14 1_555 1_555
C17 C18 1_555 1_555
C19 C20 1_555 1_555
C19 C23 1_555 1_555
C21 C22 1_555 1_555
C29 C30 1_555 1_555
C33 C34 1_555 1_555
C35 C36 1_555 1_555
C35 C39 1_555 1_555
C37 C38 1_555 1_555
C45 C46 1_555 1_555
C49 C50 1_555 1_555
C51 C52 1_555 1_555
C51 C55 1_555 1_555
C53 C54 1_555 1_555
C53 C63 1_555 1_555
C61 C62 1_555 1_555
C67 C68 1_555 1_555

#END
