
#######################################################################
#
#                 Cambridge Crystallographic Data Centre
#                                CCDC 
#
#######################################################################
#
# If this CIF has been generated from an entry in the Cambridge 
# Structural Database, then it will include bibliographic, chemical, 
# crystal, experimental, refinement or atomic coordinate data resulting 
# from the CCDC's data processing and validation procedures.
#
#######################################################################

data_QAJJIX
_chemical_name_common            
'C-Methyl-5,11,17,23-tetrakis(cyclohexylammoniomethyl)calix(4)resorcinarene tetrakis(triflate) 1,4-dioxane solvate monohydrate'
_chemical_formula_moiety         
'C60 H88 N4 O8 4+,4(C1 F3 O3 S1 1-),C4 H8 O2,H2 O1'
_chemical_name_systematic        
'2,8,14,20-Tetramethyl-5,11,17,23-tetrakis(cyclohexylammoniomethyl)-4,6,10,12,16,18,22,24-octahydroxycalix(4)arene tetrakis(trifluoromethanesulfonate) 1,4-dioxane solvate monohydrate'
_symmetry_cell_setting           triclinic
_symmetry_space_group_name_H-M   'P -1'
_symmetry_Int_Tables_number      2
_space_group_name_Hall           '-P 1'
loop_
_symmetry_equiv_pos_site_id
_symmetry_equiv_pos_as_xyz
1 x,y,z
2 -x,-y,-z
_cell_length_a                   13.0677(2)
_cell_length_b                   17.1417(3)
_cell_length_c                   19.2329(3)
_cell_angle_alpha                80.1719(12)
_cell_angle_beta                 75.2797(14)
_cell_angle_gamma                73.4610(14)
_cell_volume                     3971.88
_exptl_crystal_colour            colorless
_exptl_crystal_description       'rectangular prism'
_cell_formula_units_Z            2
loop_
_atom_site_label
_atom_site_type_symbol
_atom_site_fract_x
_atom_site_fract_y
_atom_site_fract_z
O1 O 0.49857(14) 0.57171(10) 1.04455(8)
H1 H 0.5514 0.5620 1.0106
O2 O 0.57483(16) 0.47716(10) 1.27646(9)
H2 H 0.5646 0.4952 1.3152
O3 O 0.51408(13) 0.54739(9) 1.40780(9)
H3 H 0.4623 0.5266 1.4233
O4 O 0.25949(13) 0.79189(10) 1.48721(8)
H4 H 0.2236 0.8331 1.4676
O5 O 0.14612(15) 0.92390(11) 1.41814(8)
H5 H 0.1011 0.9637 1.4355
O6 O 0.07715(13) 1.02018(10) 1.18422(9)
H6 H 0.1033 1.0067 1.1432
O7 O 0.15971(13) 0.97519(10) 1.04806(9)
H7 H 0.1356 0.9786 1.0119
O8 O 0.37731(14) 0.71378(10) 0.97745(9)
H8 H 0.4031 0.6719 1.0016
N1 N 0.43309(16) 0.41697(11) 1.19864(10)
H9 H 0.3697 0.4566 1.1854
H10 H 0.4285 0.4186 1.2495
N2 N 0.21457(15) 0.63126(11) 1.51233(9)
H11 H 0.2170 0.6160 1.4655
H12 H 0.1695 0.6869 1.5155
N3 N -0.08371(16) 1.05725(12) 1.31452(10)
H13 H -0.0475 1.0987 1.3167
H14 H -0.0972 1.0641 1.2662
N4 N 0.15021(16) 0.75694(12) 0.99911(10)
H15 H 0.1051 0.7617 1.0475
H16 H 0.2146 0.7123 1.0025
C1 C 0.55683(17) 0.66022(13) 1.10347(11)
C2 C 0.53235(18) 0.58606(13) 1.10325(11)
C3 C 0.54014(18) 0.52524(14) 1.16132(12)
C4 C 0.56865(19) 0.54056(14) 1.22216(12)
C5 C 0.59342(17) 0.61379(14) 1.22464(11)
C6 C 0.58568(17) 0.67213(13) 1.16468(11)
H17 H 0.6007 0.7217 1.1659
C7 C 0.5350(2) 0.44043(14) 1.15509(13)
H18 H 0.5977 0.4017 1.1701
H19 H 0.5411 0.4354 1.1046
C8 C 0.4307(2) 0.33235(13) 1.18702(12)
H20 H 0.4428 0.3301 1.1349
C9 C 0.5218(2) 0.26704(15) 1.21474(15)
H21 H 0.5142 0.2702 1.2658
H22 H 0.5921 0.2764 1.1891
C10 C 0.5167(2) 0.18197(16) 1.20357(15)
H23 H 0.5302 0.1775 1.1522
H24 H 0.5733 0.1406 1.2231
C11 C 0.4063(2) 0.16716(16) 1.24048(14)
H25 H 0.3947 0.1684 1.2922
H26 H 0.4042 0.1134 1.2322
C12 C 0.3157(2) 0.23211(17) 1.21162(14)
H27 H 0.2453 0.2223 1.2366
H28 H 0.3247 0.2285 1.1605
C13 C 0.3186(2) 0.31774(15) 1.22255(13)
H29 H 0.2631 0.3585 1.2016
H30 H 0.3027 0.3231 1.2738
C14 C 0.63033(18) 0.62988(14) 1.28905(12)
H31 H 0.6593 0.5764 1.3141
C15 C 0.72360(19) 0.67322(16) 1.26563(13)
H32 H 0.6973 0.7272 1.2430
H33 H 0.7827 0.6425 1.2320
H34 H 0.7490 0.6770 1.3073
C16 C 0.53284(17) 0.67490(13) 1.34244(11)
C17 C 0.47578(18) 0.63179(13) 1.40053(11)
C18 C 0.38612(17) 0.67225(13) 1.44921(11)
C19 C 0.35026(18) 0.75736(13) 1.43769(11)
C20 C 0.40604(18) 0.80314(13) 1.38160(11)
C21 C 0.49594(18) 0.75973(13) 1.33476(11)
H35 H 0.5332 0.7890 1.2964
C22 C 0.32869(18) 0.62951(13) 1.51653(11)
H36 H 0.3704 0.5731 1.5232
H37 H 0.3253 0.6559 1.5581
C23 C 0.16096(18) 0.57537(13) 1.57051(11)
H38 H 0.2100 0.5202 1.5701
C24 C 0.1413(2) 0.60323(15) 1.64494(12)
H39 H 0.0969 0.6592 1.6456
H40 H 0.2106 0.6014 1.6557
C25 C 0.0829(2) 0.54723(16) 1.70220(12)
H41 H 0.1308 0.4924 1.7046
H42 H 0.0673 0.5670 1.7491
C26 C -0.0236(2) 0.54405(17) 1.68532(13)
H43 H -0.0565 0.5061 1.7213
H44 H -0.0743 0.5978 1.6874
C27 C -0.0027(2) 0.51683(18) 1.61049(14)
H45 H -0.0718 0.5181 1.5997
H46 H 0.0420 0.4609 1.6099
C28 C 0.0553(2) 0.57241(16) 1.55261(13)
H47 H 0.0715 0.5520 1.5059
H48 H 0.0075 0.6272 1.5497
C29 C 0.37180(19) 0.89657(13) 1.37298(11)
H49 H 0.3289 0.9131 1.4203
C30 C 0.4703(2) 0.93338(16) 1.35519(14)
H50 H 0.5126 0.9124 1.3916
H51 H 0.4453 0.9919 1.3539
H52 H 0.5148 0.9190 1.3089
C31 C 0.29667(18) 0.93021(12) 1.32023(11)
C32 C 0.18418(19) 0.94419(13) 1.34528(11)
C33 C 0.11184(18) 0.97278(13) 1.29917(12)
C34 C 0.15416(18) 0.99046(13) 1.22549(11)
C35 C 0.26634(17) 0.97932(12) 1.19788(11)
C36 C 0.33530(18) 0.94797(12) 1.24632(11)
H53 H 0.4104 0.9385 1.2285
C37 C -0.00710(19) 0.97451(14) 1.32598(13)
H54 H -0.0200 0.9560 1.3773
H55 H -0.0240 0.9362 1.3016
C38 C -0.1912(3) 1.0724(2) 1.3671(2)
H56 H -0.1795 1.0779 1.4142
C39 C -0.2433(3) 1.0017(2) 1.37557(17)
H57 H -0.1943 0.9510 1.3907
H58 H -0.2575 0.9963 1.3298
C40 C -0.3530(2) 1.0191(2) 1.4337(2)
H59 H -0.3867 0.9738 1.4416
H60 H -0.3394 1.0262 1.4793
C41 C -0.4292(3) 1.0988(3) 1.4045(3)
H61 H -0.4419 1.0913 1.3588
H62 H -0.4992 1.1108 1.4385
C42 C -0.3774(3) 1.1688(3) 1.3941(2)
H63 H -0.3682 1.1779 1.4403
H64 H -0.4249 1.2182 1.3754
C43 C -0.2671(2) 1.15085(19) 1.34185(16)
H65 H -0.2773 1.1464 1.2946
H66 H -0.2339 1.1959 1.3372
C44 C 0.31165(17) 0.99674(13) 1.11704(11)
H67 H 0.2547 1.0392 1.0978
C45 C 0.41345(19) 1.03018(14) 1.10031(12)
H68 H 0.4717 0.9898 1.1178
H69 H 0.3967 1.0789 1.1237
H70 H 0.4357 1.0427 1.0490
C46 C 0.33137(17) 0.92091(13) 1.07921(10)
C47 C 0.25332(18) 0.91224(13) 1.04512(11)
C48 C 0.26846(19) 0.84228(14) 1.01213(12)
C49 C 0.36560(19) 0.78083(13) 1.01200(11)
C50 C 0.44779(17) 0.78826(13) 1.04314(11)
C51 C 0.42651(17) 0.85861(13) 1.07736(10)
H71 H 0.4788 0.8639 1.1000
C52 C 0.1859(2) 0.83412(14) 0.97304(14)
H72 H 0.1226 0.8805 0.9802
H73 H 0.2178 0.8350 0.9216
C53 C 0.08704(18) 0.73468(14) 0.95281(12)
H74 H 0.0619 0.6867 0.9783
C54 C 0.1619(2) 0.71002(18) 0.88128(14)
H75 H 0.2247 0.6663 0.8901
H76 H 0.1882 0.7563 0.8543
C55 C 0.0999(2) 0.6813(2) 0.83733(16)
H77 H 0.1470 0.6683 0.7908
H78 H 0.0797 0.6320 0.8625
C56 C -0.0022(3) 0.7464(2) 0.82589(16)
H79 H -0.0422 0.7253 0.8005
H80 H 0.0183 0.7936 0.7963
C57 C -0.0751(2) 0.77206(18) 0.89771(17)
H81 H -0.1013 0.7260 0.9253
H82 H -0.1380 0.8156 0.8889
C58 C -0.0133(2) 0.80197(16) 0.94206(14)
H83 H 0.0081 0.8508 0.9167
H84 H -0.0604 0.8154 0.9886
C59 C 0.55603(17) 0.72377(13) 1.03773(11)
H85 H 0.5641 0.6945 0.9963
C60 C 0.65465(18) 0.76095(15) 1.02135(13)
H86 H 0.6499 0.7909 1.0604
H87 H 0.6548 0.7973 0.9774
H88 H 0.7210 0.7180 1.0159
O9 O 0.18729(17) 0.63657(13) 1.36910(10)
O10 O 0.1725(2) 0.74492(16) 1.24388(13)
C65 C 0.0847(3) 0.6833(2) 1.35644(16)
H102 H 0.0340 0.6951 1.4021
H103 H 0.0555 0.6526 1.3317
C66 C 0.0968(3) 0.7610(2) 1.31156(19)
H104 H 0.0262 0.7929 1.3027
H105 H 0.1229 0.7927 1.3374
C67 C 0.2753(3) 0.6960(3) 1.2570(2)
H106 H 0.3059 0.7262 1.2813
H107 H 0.3257 0.6834 1.2113
C68 C 0.2621(3) 0.6186(2) 1.30249(16)
H108 H 0.2351 0.5870 1.2772
H109 H 0.3323 0.5862 1.3117
S1 S 0.37706(5) 0.40354(4) 1.41539(3)
F1 F 0.33554(19) 0.26131(12) 1.45914(17)
F2 F 0.3231(2) 0.33236(19) 1.54476(12)
F3 F 0.19846(15) 0.36196(14) 1.48549(11)
O11 O 0.34317(19) 0.40608(15) 1.35016(10)
O12 O 0.49117(18) 0.36413(15) 1.41234(14)
O13 O 0.34037(18) 0.47870(13) 1.44771(11)
C69 C 0.3062(2) 0.33553(18) 1.48002(15)
S2 S 0.24793(5) 0.52062(4) 1.07871(3)
F4 F 0.03508(17) 0.56286(17) 1.10441(17)
F5 F 0.1108(2) 0.48248(19) 1.02196(12)
F6 F 0.10287(16) 0.43558(14) 1.13237(11)
O14 O 0.24352(17) 0.53760(14) 1.15047(11)
O15 O 0.25159(17) 0.58655(12) 1.02219(12)
O16 O 0.32523(15) 0.44423(11) 1.06087(9)
C70 C 0.1169(3) 0.4990(2) 1.08444(18)
S3 S -0.02172(5) 0.84178(4) 1.57131(3)
F7 F -0.17611(16) 0.76526(10) 1.61795(11)
F8 F -0.22666(18) 0.89370(13) 1.63216(15)
F9 F -0.1986(2) 0.85487(16) 1.52723(16)
O17 O 0.03106(15) 0.78057(11) 1.52229(11)
O18 O 0.0044(2) 0.82179(14) 1.64176(13)
O19 O -0.02313(16) 0.92485(11) 1.54109(11)
C71 C -0.1644(2) 0.83941(17) 1.58812(19)
S4 S -0.13954(5) 0.97187(4) 1.15375(3)
F10 F -0.33455(19) 0.9544(2) 1.21712(12)
F11 F -0.32319(15) 1.01428(14) 1.10967(11)
F12 F -0.2573(2) 0.88574(15) 1.12744(15)
O20 O -0.09395(17) 0.90235(12) 1.19972(10)
O21 O -0.17013(15) 1.04909(12) 1.18352(10)
O22 O -0.08388(15) 0.97369(12) 1.07824(9)
C72 C -0.2707(3) 0.9550(2) 1.15152(17)
O23 O 0.0473(2) 0.75988(16) 1.14099(12)
H110 H 0.0892 0.7481 1.1706
H111 H 0.0016 0.8057 1.1486
H89? H -0.0729 1.0761 1.2633
H90? H -0.0682 1.0962 1.3389
C61? C -0.2107(9) 1.0521(7) 1.3462(6)
H91? H -0.2364 1.0233 1.3169
C62? C -0.2288(7) 1.0198(6) 1.4257(5)
H92? H -0.2210 1.0568 1.4559
H93? H -0.1821 0.9656 1.4347
H94? H -0.3617 1.0011 1.3909
H95? H -0.3750 0.9820 1.4753
C63? C -0.4224(9) 1.1052(8) 1.4433(8)
H96? H -0.4988 1.1066 1.4635
H97? H -0.3962 1.1325 1.4729
C64? C -0.4041(9) 1.1403(8) 1.3669(7)
H98? H -0.4553 1.1932 1.3612
H99? H -0.4140 1.1044 1.3366
H100? H -0.2498 1.1785 1.2936
H101? H -0.2497 1.1774 1.3765
loop_
_geom_bond_atom_site_label_1
_geom_bond_atom_site_label_2
_geom_bond_site_symmetry_1
_geom_bond_site_symmetry_2
O1 H1 1_555 1_555
O2 H2 1_555 1_555
O3 H3 1_555 1_555
O4 H4 1_555 1_555
O5 H5 1_555 1_555
O6 H6 1_555 1_555
O7 H7 1_555 1_555
O8 H8 1_555 1_555
N1 H9 1_555 1_555
H10 N1 1_555 1_555
N2 H11 1_555 1_555
H12 N2 1_555 1_555
N3 H13 1_555 1_555
H14 N3 1_555 1_555
N4 H15 1_555 1_555
H16 N4 1_555 1_555
C1 C2 1_555 1_555
C2 O1 1_555 1_555
C3 C2 1_555 1_555
C4 O2 1_555 1_555
C5 C4 1_555 1_555
C6 C1 1_555 1_555
H17 C6 1_555 1_555
C7 N1 1_555 1_555
H18 C7 1_555 1_555
H19 C7 1_555 1_555
C8 N1 1_555 1_555
H20 C8 1_555 1_555
C9 C8 1_555 1_555
H21 C9 1_555 1_555
H22 C9 1_555 1_555
C10 C9 1_555 1_555
H23 C10 1_555 1_555
H24 C10 1_555 1_555
C11 C10 1_555 1_555
H25 C11 1_555 1_555
H26 C11 1_555 1_555
C12 C11 1_555 1_555
H27 C12 1_555 1_555
H28 C12 1_555 1_555
C13 C8 1_555 1_555
H29 C13 1_555 1_555
H30 C13 1_555 1_555
C14 C5 1_555 1_555
H31 C14 1_555 1_555
C15 C14 1_555 1_555
H32 C15 1_555 1_555
H33 C15 1_555 1_555
H34 C15 1_555 1_555
C16 C14 1_555 1_555
C17 O3 1_555 1_555
C18 C17 1_555 1_555
C19 O4 1_555 1_555
C20 C19 1_555 1_555
C21 C16 1_555 1_555
H35 C21 1_555 1_555
C22 N2 1_555 1_555
H36 C22 1_555 1_555
H37 C22 1_555 1_555
C23 N2 1_555 1_555
H38 C23 1_555 1_555
C24 C23 1_555 1_555
H39 C24 1_555 1_555
H40 C24 1_555 1_555
C25 C24 1_555 1_555
H41 C25 1_555 1_555
H42 C25 1_555 1_555
C26 C25 1_555 1_555
H43 C26 1_555 1_555
H44 C26 1_555 1_555
C27 C26 1_555 1_555
H45 C27 1_555 1_555
H46 C27 1_555 1_555
C28 C23 1_555 1_555
H47 C28 1_555 1_555
H48 C28 1_555 1_555
C29 C20 1_555 1_555
H49 C29 1_555 1_555
C30 C29 1_555 1_555
H50 C30 1_555 1_555
H51 C30 1_555 1_555
H52 C30 1_555 1_555
C31 C29 1_555 1_555
C32 O5 1_555 1_555
C33 C32 1_555 1_555
C34 O6 1_555 1_555
C35 C34 1_555 1_555
C36 C31 1_555 1_555
H53 C36 1_555 1_555
C37 N3 1_555 1_555
H54 C37 1_555 1_555
H55 C37 1_555 1_555
C38 N3 1_555 1_555
H56 C38 1_555 1_555
C39 C38 1_555 1_555
H57 C39 1_555 1_555
H58 C39 1_555 1_555
C40 C39 1_555 1_555
H59 C40 1_555 1_555
H60 C40 1_555 1_555
C41 C40 1_555 1_555
H61 C41 1_555 1_555
H62 C41 1_555 1_555
C42 C41 1_555 1_555
H63 C42 1_555 1_555
H64 C42 1_555 1_555
C43 C38 1_555 1_555
H65 C43 1_555 1_555
H66 C43 1_555 1_555
C44 C35 1_555 1_555
H67 C44 1_555 1_555
C45 C44 1_555 1_555
H68 C45 1_555 1_555
H69 C45 1_555 1_555
H70 C45 1_555 1_555
C46 C44 1_555 1_555
C47 O7 1_555 1_555
C48 C47 1_555 1_555
C49 O8 1_555 1_555
C50 C49 1_555 1_555
C51 C46 1_555 1_555
H71 C51 1_555 1_555
C52 N4 1_555 1_555
H72 C52 1_555 1_555
H73 C52 1_555 1_555
C53 N4 1_555 1_555
H74 C53 1_555 1_555
C54 C53 1_555 1_555
H75 C54 1_555 1_555
H76 C54 1_555 1_555
C55 C54 1_555 1_555
H77 C55 1_555 1_555
H78 C55 1_555 1_555
C56 C55 1_555 1_555
H79 C56 1_555 1_555
H80 C56 1_555 1_555
C57 C56 1_555 1_555
H81 C57 1_555 1_555
H82 C57 1_555 1_555
C58 C53 1_555 1_555
H83 C58 1_555 1_555
H84 C58 1_555 1_555
C59 C1 1_555 1_555
H85 C59 1_555 1_555
C60 C59 1_555 1_555
H86 C60 1_555 1_555
H87 C60 1_555 1_555
H88 C60 1_555 1_555
O9 C65 1_555 1_555
O10 C66 1_555 1_555
C65 H102 1_555 1_555
H103 C65 1_555 1_555
C66 C65 1_555 1_555
H104 C66 1_555 1_555
H105 C66 1_555 1_555
C67 O10 1_555 1_555
H106 C67 1_555 1_555
H107 C67 1_555 1_555
C68 O9 1_555 1_555
H108 C68 1_555 1_555
H109 C68 1_555 1_555
S1 O11 1_555 1_555
F1 C69 1_555 1_555
F2 C69 1_555 1_555
F3 C69 1_555 1_555
O12 S1 1_555 1_555
O13 S1 1_555 1_555
C69 S1 1_555 1_555
S2 O14 1_555 1_555
F4 C70 1_555 1_555
F5 C70 1_555 1_555
F6 C70 1_555 1_555
O15 S2 1_555 1_555
O16 S2 1_555 1_555
C70 S2 1_555 1_555
S3 O17 1_555 1_555
F7 C71 1_555 1_555
F8 C71 1_555 1_555
F9 C71 1_555 1_555
O18 S3 1_555 1_555
O19 S3 1_555 1_555
C71 S3 1_555 1_555
S4 O20 1_555 1_555
F10 C72 1_555 1_555
F11 C72 1_555 1_555
F12 C72 1_555 1_555
O21 S4 1_555 1_555
O22 S4 1_555 1_555
C72 S4 1_555 1_555
O23 H110 1_555 1_555
H111 O23 1_555 1_555
C3 C4 1_555 1_555
C3 C7 1_555 1_555
C5 C6 1_555 1_555
C12 C13 1_555 1_555
C16 C17 1_555 1_555
C18 C19 1_555 1_555
C18 C22 1_555 1_555
C20 C21 1_555 1_555
C27 C28 1_555 1_555
C31 C32 1_555 1_555
C33 C34 1_555 1_555
C33 C37 1_555 1_555
C35 C36 1_555 1_555
C42 C43 1_555 1_555
C46 C47 1_555 1_555
C48 C49 1_555 1_555
C48 C52 1_555 1_555
C50 C51 1_555 1_555
C50 C59 1_555 1_555
C57 C58 1_555 1_555
C67 C68 1_555 1_555

#END
