
#######################################################################
#
#                 Cambridge Crystallographic Data Centre
#                                CCDC 
#
#######################################################################
#
# If this CIF has been generated from an entry in the Cambridge 
# Structural Database, then it will include bibliographic, chemical, 
# crystal, experimental, refinement or atomic coordinate data resulting 
# from the CCDC's data processing and validation procedures.
#
#######################################################################

data_QAJNAT
_chemical_formula_moiety         'C22 H21 N1 O4 S1'
_chemical_name_systematic        '6-((Pyren-1-ylsulfonyl)amino)hexanoic acid'
_symmetry_cell_setting           monoclinic
_symmetry_space_group_name_H-M   'P 21/c'
_symmetry_Int_Tables_number      14
_space_group_name_Hall           '-P 2ybc'
loop_
_symmetry_equiv_pos_site_id
_symmetry_equiv_pos_as_xyz
1 x,y,z
2 -x,1/2+y,1/2-z
3 -x,-y,-z
4 x,1/2-y,1/2+z
_cell_length_a                   30.052(3)
_cell_length_b                   6.7112(8)
_cell_length_c                   9.3624(7)
_cell_angle_alpha                90
_cell_angle_beta                 93.007(7)
_cell_angle_gamma                90
_cell_volume                     1885.66
_exptl_crystal_colour            'light brown'
_exptl_crystal_description       block
_cell_formula_units_Z            4
loop_
_atom_site_label
_atom_site_type_symbol
_atom_site_fract_x
_atom_site_fract_y
_atom_site_fract_z
S1 S 0.715196(17) 0.84693(9) 0.88445(5)
C1 C 0.88279(8) 1.3295(3) 0.8615(2)
H1 H 0.8843 1.4530 0.9066
C2 C 0.80050(6) 0.9145(3) 0.78815(17)
O1 O 0.72582(5) 0.6409(2) 0.89032(18)
C3 C 0.80025(6) 0.7289(3) 0.71084(19)
H2 H 0.7745 0.6519 0.7058
C4 C 0.84009(6) 1.0308(3) 0.79007(17)
O2 O 0.69413(5) 0.9330(3) 1.00309(15)
N1 N 0.68299(6) 0.8836(3) 0.7452(2)
C5 C 0.84207(7) 1.2190(3) 0.86047(19)
O3 O 0.49214(8) 0.8569(4) 0.1513(2)
C6 C 0.87693(6) 0.7741(3) 0.65065(19)
C7 C 0.87840(6) 0.9594(3) 0.72255(18)
C8 C 0.76460(6) 0.9871(3) 0.86482(18)
C9 C 0.91493(7) 0.7051(4) 0.5865(2)
H3 H 0.9141 0.5839 0.5383
C10 C 0.80485(7) 1.2871(3) 0.9276(2)
H4 H 0.8055 1.4122 0.9705
C11 C 0.91830(7) 1.0717(3) 0.7282(2)
C12 C 0.83636(7) 0.6646(3) 0.64599(19)
H5 H 0.8348 0.5445 0.5964
O4 O 0.54858(6) 1.0422(3) 0.09464(19)
C13 C 0.95546(7) 0.9959(4) 0.6639(2)
H6 H 0.9819 1.0684 0.6683
C14 C 0.91857(8) 1.2607(3) 0.7998(2)
H7 H 0.9444 1.3371 0.8032
C15 C 0.60683(8) 0.9715(4) 0.5246(2)
H8 H 0.5824 0.9937 0.5865
H9 H 0.6163 0.8339 0.5358
C16 C 0.59076(8) 1.0079(4) 0.3698(2)
H10 H 0.5834 1.1478 0.3578
H11 H 0.6148 0.9780 0.3081
C17 C 0.76720(7) 1.1721(3) 0.9315(2)
H12 H 0.7430 1.2188 0.9795
C18 C 0.95375(8) 0.8155(4) 0.5941(3)
H13 H 0.9789 0.7676 0.5516
C19 C 0.66378(8) 1.0827(4) 0.7188(2)
H14 H 0.6867 1.1824 0.7376
H15 H 0.6404 1.1055 0.7846
C20 C 0.55099(10) 0.8854(5) 0.3238(3)
H16 H 0.5597 0.7463 0.3242
H17 H 0.5286 0.9014 0.3939
C21 C 0.53027(9) 0.9347(4) 0.1796(3)
C22 C 0.64486(8) 1.1067(4) 0.5688(2)
H18 H 0.6686 1.0852 0.5042
H19 H 0.6349 1.2434 0.5564
H20 H 0.4720(14) 0.919(7) 0.032(5)
H21 H 0.6896(8) 0.826(4) 0.684(2)
loop_
_geom_bond_atom_site_label_1
_geom_bond_atom_site_label_2
_geom_bond_site_symmetry_1
_geom_bond_site_symmetry_2
S1 O1 1_555 1_555
C1 H1 1_555 1_555
C2 C3 1_555 1_555
C3 H2 1_555 1_555
C4 C2 1_555 1_555
O2 S1 1_555 1_555
N1 S1 1_555 1_555
C5 C1 1_555 1_555
O3 C21 1_555 1_555
C6 C7 1_555 1_555
C7 C4 1_555 1_555
C8 S1 1_555 1_555
C9 C6 1_555 1_555
H3 C9 1_555 1_555
C10 C5 1_555 1_555
H4 C10 1_555 1_555
C11 C7 1_555 1_555
C12 C3 1_555 1_555
H5 C12 1_555 1_555
O4 C21 1_555 1_555
C13 C11 1_555 1_555
H6 C13 1_555 1_555
C14 C1 1_555 1_555
H7 C14 1_555 1_555
C15 H8 1_555 1_555
H9 C15 1_555 1_555
C16 C15 1_555 1_555
H10 C16 1_555 1_555
H11 C16 1_555 1_555
C17 C8 1_555 1_555
H12 C17 1_555 1_555
C18 C9 1_555 1_555
H13 C18 1_555 1_555
C19 N1 1_555 1_555
H14 C19 1_555 1_555
H15 C19 1_555 1_555
C20 C16 1_555 1_555
H16 C20 1_555 1_555
H17 C20 1_555 1_555
C21 C20 1_555 1_555
C22 C15 1_555 1_555
H18 C22 1_555 1_555
H19 C22 1_555 1_555
H20 O3 1_555 1_555
H21 N1 1_555 1_555
C2 C8 1_555 1_555
C4 C5 1_555 1_555
C6 C12 1_555 1_555
C10 C17 1_555 1_555
C11 C14 1_555 1_555
C13 C18 1_555 1_555
C19 C22 1_555 1_555

#END
