
#######################################################################
#
#                 Cambridge Crystallographic Data Centre
#                                CCDC 
#
#######################################################################
#
# If this CIF has been generated from an entry in the Cambridge 
# Structural Database, then it will include bibliographic, chemical, 
# crystal, experimental, refinement or atomic coordinate data resulting 
# from the CCDC's data processing and validation procedures.
#
#######################################################################

data_QAJWEG
_chemical_formula_moiety         'C20 H21 N5 O4'
_chemical_name_systematic        
"methyl 13-ethyl-11-methyl-12,14-dioxo-11a,12,13,14,14a,14b-hexahydro-9H,11H-pyrrolo[3',4':3,4]pyrrolo[1,2-d][1,2,3]triazolo[1,5-a][1,4]benzodiazepine-11-carboxylate"
_symmetry_cell_setting           monoclinic
_symmetry_space_group_name_H-M   'P 21/n'
_symmetry_Int_Tables_number      14
_space_group_name_Hall           '-P 2yn'
loop_
_symmetry_equiv_pos_site_id
_symmetry_equiv_pos_as_xyz
1 x,y,z
2 1/2-x,1/2+y,1/2-z
3 -x,-y,-z
4 1/2+x,1/2-y,1/2+z
_cell_length_a                   9.9263(3)
_cell_length_b                   15.4568(5)
_cell_length_c                   12.4445(4)
_cell_angle_alpha                90
_cell_angle_beta                 96.737(3)
_cell_angle_gamma                90
_cell_volume                     1896.16
_exptl_crystal_colour            colorless
_exptl_crystal_description       prism
_cell_formula_units_Z            4
loop_
_atom_site_label
_atom_site_type_symbol
_atom_site_fract_x
_atom_site_fract_y
_atom_site_fract_z
O1 O 0.39574(10) 0.57307(7) 0.13007(8)
O2 O 0.23936(10) 0.59393(7) 0.24438(9)
O3 O 0.26655(10) 0.75533(7) 0.11729(9)
O4 O 0.61904(11) 0.93020(7) 0.23674(11)
N1 N 0.58881(11) 0.66834(7) 0.26289(9)
N2 N 0.81997(11) 0.68454(8) 0.14703(9)
N3 N 0.86505(13) 0.68847(8) 0.04794(10)
N4 N 0.82428(13) 0.61762(9) -0.00353(10)
N5 N 0.44317(13) 0.84935(8) 0.15520(11)
C1 C 0.65071(13) 0.73634(9) 0.33397(11)
H1 H 0.6634 0.7124 0.4091
C2 C 0.53474(13) 0.80445(9) 0.32919(11)
H2 H 0.5311 0.8332 0.4008
C3 C 0.54243(14) 0.86975(9) 0.23939(13)
C4 C 0.36000(13) 0.78247(9) 0.17938(12)
C5 C 0.40539(13) 0.75148(9) 0.29425(11)
H3 H 0.3341 0.7614 0.3434
C6 C 0.45280(13) 0.65562(9) 0.29619(11)
C7 C 0.67641(13) 0.59312(9) 0.25320(11)
H4 H 0.6215 0.5397 0.2421
H5 H 0.7412 0.5863 0.3194
C8 C 0.75032(13) 0.61014(9) 0.15762(11)
C9 C 0.75438(14) 0.56838(9) 0.06137(11)
H6 H 0.7147 0.5137 0.0428
C10 C 0.86119(13) 0.75008(9) 0.22563(11)
C11 C 0.78673(13) 0.77135(9) 0.31022(11)
C12 C 0.84336(14) 0.83228(10) 0.38554(12)
H7 H 0.7966 0.8459 0.4457
C13 C 0.96488(15) 0.87337(10) 0.37546(13)
H8 H 0.9996 0.9155 0.4270
C14 C 1.03554(15) 0.85256(11) 0.28934(14)
H9 H 1.1185 0.8811 0.2810
C15 C 0.98541(15) 0.79048(10) 0.21575(13)
H10 H 1.0354 0.7750 0.1580
C16 C 0.36256(14) 0.60270(9) 0.21194(11)
C17 C 0.13756(15) 0.55544(11) 0.16676(14)
H11 H 0.1266 0.5906 0.1007
H12 H 0.0511 0.5528 0.1974
H13 H 0.1658 0.4968 0.1494
C18 C 0.45074(16) 0.61431(11) 0.40871(12)
H14 H 0.4912 0.5565 0.4091
H15 H 0.3568 0.6098 0.4251
H16 H 0.5029 0.6504 0.4634
C19 C 0.4339(2) 0.89150(13) 0.04978(15)
H17 H 0.4423 0.9549 0.0601
H18 H 0.3439 0.8795 0.0095
C20 C 0.5430(3) 0.86050(16) -0.01565(18)
H19 H 0.5308 0.8878 -0.0872
H20 H 0.5369 0.7975 -0.0239
H21 H 0.6322 0.8760 0.0216
loop_
_geom_bond_atom_site_label_1
_geom_bond_atom_site_label_2
_geom_bond_site_symmetry_1
_geom_bond_site_symmetry_2
O1 C16 1_555 1_555
O2 C16 1_555 1_555
O3 C4 1_555 1_555
O4 C3 1_555 1_555
N1 C1 1_555 1_555
N2 N3 1_555 1_555
N3 N4 1_555 1_555
N4 C9 1_555 1_555
N5 C3 1_555 1_555
C1 H1 1_555 1_555
C2 C1 1_555 1_555
H2 C2 1_555 1_555
C3 C2 1_555 1_555
C4 N5 1_555 1_555
C5 C2 1_555 1_555
H3 C5 1_555 1_555
C6 N1 1_555 1_555
C7 N1 1_555 1_555
H4 C7 1_555 1_555
H5 C7 1_555 1_555
C8 N2 1_555 1_555
C9 C8 1_555 1_555
H6 C9 1_555 1_555
C10 N2 1_555 1_555
C11 C1 1_555 1_555
C12 C11 1_555 1_555
H7 C12 1_555 1_555
C13 C12 1_555 1_555
H8 C13 1_555 1_555
C14 C13 1_555 1_555
H9 C14 1_555 1_555
C15 C10 1_555 1_555
H10 C15 1_555 1_555
C16 C6 1_555 1_555
C17 O2 1_555 1_555
H11 C17 1_555 1_555
H12 C17 1_555 1_555
H13 C17 1_555 1_555
C18 C6 1_555 1_555
H14 C18 1_555 1_555
H15 C18 1_555 1_555
H16 C18 1_555 1_555
C19 N5 1_555 1_555
H17 C19 1_555 1_555
H18 C19 1_555 1_555
C20 C19 1_555 1_555
H19 C20 1_555 1_555
H20 C20 1_555 1_555
H21 C20 1_555 1_555
C4 C5 1_555 1_555
C5 C6 1_555 1_555
C7 C8 1_555 1_555
C10 C11 1_555 1_555
C14 C15 1_555 1_555

#END
