
#######################################################################
#
#                 Cambridge Crystallographic Data Centre
#                                CCDC 
#
#######################################################################
#
# If this CIF has been generated from an entry in the Cambridge 
# Structural Database, then it will include bibliographic, chemical, 
# crystal, experimental, refinement or atomic coordinate data resulting 
# from the CCDC's data processing and validation procedures.
#
#######################################################################

data_QAJWEF
_chemical_formula_moiety         'C18 H26 Cl1 N1 O3'
_chemical_name_systematic        
(5S)-3-Chloro-4-(2,5-dihydro-1H-pyrrol-1-yl)-5-((1R,2S,5R)-2-isopropyl-5-methylcyclohexyloxy)furan-2(5H)-one
_symmetry_cell_setting           orthorhombic
_symmetry_space_group_name_H-M   'P 21 21 21'
_symmetry_Int_Tables_number      19
_space_group_name_Hall           'P 2ac 2ab'
loop_
_symmetry_equiv_pos_site_id
_symmetry_equiv_pos_as_xyz
1 x,y,z
2 1/2-x,-y,1/2+z
3 -x,1/2+y,1/2-z
4 1/2+x,1/2-y,-z
_cell_length_a                   7.192(2)
_cell_length_b                   9.622(3)
_cell_length_c                   27.534(9)
_cell_angle_alpha                90
_cell_angle_beta                 90
_cell_angle_gamma                90
_cell_volume                     1905.39
_exptl_crystal_colour            colorless
_exptl_crystal_description       block
_cell_formula_units_Z            4
loop_
_atom_site_label
_atom_site_type_symbol
_atom_site_fract_x
_atom_site_fract_y
_atom_site_fract_z
Cl1 Cl 0.78504(18) 0.24214(12) 0.34421(3)
C1 C 0.7443(5) 0.2768(4) 0.24451(11)
C2 C 0.7076(5) 0.1802(4) 0.20226(12)
H1 H 0.5952 0.2084 0.1847
C3 C 0.8243(6) 0.1400(4) 0.12119(10)
H2 H 0.7375 0.2071 0.1070
C4 C 0.7075(6) 0.0576(5) 0.27315(13)
C5 C 0.7477(5) 0.1979(4) 0.28492(11)
C6 C 1.0128(6) 0.1530(5) 0.09539(12)
H3 H 1.0961 0.0856 0.1108
C7 C 0.7420(7) -0.0036(4) 0.11707(11)
H4 H 0.6212 -0.0050 0.1327
H5 H 0.8216 -0.0695 0.1338
C8 C 0.9896(8) 0.1062(5) 0.04242(13)
H6 H 0.9093 0.1714 0.0256
H7 H 1.1099 0.1076 0.0265
C9 C 1.1050(6) 0.2946(6) 0.10072(14)
H8 H 1.0932 0.3206 0.1350
C10 C 0.7204(10) -0.0480(5) 0.06354(14)
H9 H 0.6340 0.0161 0.0476
C11 C 0.9082(10) -0.0374(7) 0.03860(16)
H10 H 0.9932 -0.1035 0.0532
H11 H 0.8942 -0.0616 0.0046
C12 C 1.0115(8) 0.4096(5) 0.07156(16)
H12 H 1.0309 0.3936 0.0375
H13 H 1.0641 0.4978 0.0804
H14 H 0.8805 0.4100 0.0783
C13 C 1.3143(7) 0.2870(7) 0.08997(15)
H15 H 1.3696 0.2151 0.1093
H16 H 1.3712 0.3746 0.0977
H17 H 1.3329 0.2667 0.0562
C14 C 0.6404(13) -0.1951(7) 0.06041(19)
H18 H 0.6598 -0.2313 0.0283
H19 H 0.5096 -0.1925 0.0673
H20 H 0.7017 -0.2537 0.0836
C15 C 0.7548(7) 0.4780(4) 0.18901(13)
H21 H 0.6422 0.4507 0.1721
H22 H 0.8618 0.4566 0.1689
C16 C 0.7871(6) 0.5142(4) 0.27610(13)
H23 H 0.6884 0.5045 0.2999
H24 H 0.9064 0.5059 0.2923
C17 C 0.7505(7) 0.6280(4) 0.20278(19)
H25 H 0.7344 0.7001 0.1807
C18 C 0.7720(7) 0.6461(5) 0.2495(2)
H26 H 0.7772 0.7329 0.2643
N1 N 0.7681(5) 0.4111(3) 0.23671(9)
O1 O 0.8607(3) 0.1789(2) 0.17127(7)
O2 O 0.6832(4) 0.0450(2) 0.22383(8)
O3 O 0.6958(5) -0.0440(3) 0.29863(9)
loop_
_geom_bond_atom_site_label_1
_geom_bond_atom_site_label_2
_geom_bond_site_symmetry_1
_geom_bond_site_symmetry_2
Cl1 C5 1_555 1_555
C1 C2 1_555 1_555
C2 H1 1_555 1_555
C3 H2 1_555 1_555
C4 C5 1_555 1_555
C5 C1 1_555 1_555
C6 C3 1_555 1_555
H3 C6 1_555 1_555
C7 C3 1_555 1_555
H4 C7 1_555 1_555
H5 C7 1_555 1_555
C8 C6 1_555 1_555
H6 C8 1_555 1_555
H7 C8 1_555 1_555
C9 C6 1_555 1_555
H8 C9 1_555 1_555
C10 C7 1_555 1_555
H9 C10 1_555 1_555
C11 C8 1_555 1_555
H10 C11 1_555 1_555
H11 C11 1_555 1_555
C12 C9 1_555 1_555
H12 C12 1_555 1_555
H13 C12 1_555 1_555
H14 C12 1_555 1_555
C13 C9 1_555 1_555
H15 C13 1_555 1_555
H16 C13 1_555 1_555
H17 C13 1_555 1_555
C14 C10 1_555 1_555
H18 C14 1_555 1_555
H19 C14 1_555 1_555
H20 C14 1_555 1_555
C15 H21 1_555 1_555
H22 C15 1_555 1_555
C16 H23 1_555 1_555
H24 C16 1_555 1_555
C17 C15 1_555 1_555
H25 C17 1_555 1_555
C18 C16 1_555 1_555
H26 C18 1_555 1_555
N1 C1 1_555 1_555
O1 C2 1_555 1_555
O2 C2 1_555 1_555
O3 C4 1_555 1_555
C3 O1 1_555 1_555
C4 O2 1_555 1_555
C10 C11 1_555 1_555
C15 N1 1_555 1_555
C16 N1 1_555 1_555
C17 C18 1_555 1_555

#END
