
#######################################################################
#
#                 Cambridge Crystallographic Data Centre
#                                CCDC 
#
#######################################################################
#
# If this CIF has been generated from an entry in the Cambridge 
# Structural Database, then it will include bibliographic, chemical, 
# crystal, experimental, refinement or atomic coordinate data resulting 
# from the CCDC's data processing and validation procedures.
#
#######################################################################

data_QAKLEV
_chemical_formula_moiety         'C14 H10 F1 N3 O3'
_chemical_name_systematic        
(E)-2-Fluoro-N'-(4-nitrobenzylidene)benzohydrazide
_symmetry_cell_setting           monoclinic
_symmetry_space_group_name_H-M   'P 21/n'
_symmetry_Int_Tables_number      14
_space_group_name_Hall           '-P 2yn'
loop_
_symmetry_equiv_pos_site_id
_symmetry_equiv_pos_as_xyz
1 x,y,z
2 1/2-x,1/2+y,1/2-z
3 -x,-y,-z
4 1/2+x,1/2-y,1/2+z
_cell_length_a                   7.077(2)
_cell_length_b                   25.718(4)
_cell_length_c                   7.6844(17)
_cell_angle_alpha                90
_cell_angle_beta                 111.640(3)
_cell_angle_gamma                90
_cell_volume                     1300.03
_exptl_crystal_colour            colorless
_exptl_crystal_description       block
_cell_formula_units_Z            4
_exptl_crystal_recrystallization_method methanol
loop_
_atom_site_label
_atom_site_type_symbol
_atom_site_fract_x
_atom_site_fract_y
_atom_site_fract_z
F1 F 0.2225(4) 0.24829(9) 0.4967(3)
N1 N 0.2495(5) 0.48648(15) -0.5057(5)
N2 N 0.2488(4) 0.29033(11) 0.0113(4)
N3 N 0.2828(5) 0.25789(11) 0.1631(4)
O1 O 0.2201(5) 0.47230(12) -0.6636(4)
O2 O 0.2646(6) 0.53203(12) -0.4634(5)
O3 O 0.0937(4) 0.19271(9) -0.0144(3)
C1 C 0.2637(5) 0.44701(14) -0.3635(5)
C2 C 0.2406(6) 0.39574(14) -0.4128(5)
H1 H 0.2183 0.3855 -0.5348
C3 C 0.2511(5) 0.35963(14) -0.2776(5)
H2 H 0.2325 0.3246 -0.3094
C4 C 0.2891(5) 0.37471(13) -0.0952(5)
C5 C 0.3140(5) 0.42716(14) -0.0505(5)
H3 H 0.3419 0.4376 0.0723
C6 C 0.2981(5) 0.46400(13) -0.1853(5)
H4 H 0.3103 0.4993 -0.1564
C7 C 0.3085(5) 0.33691(14) 0.0518(5)
H5 H 0.3652 0.3470 0.1766
C8 C 0.2013(5) 0.21010(13) 0.1394(5)
C9 C 0.2475(5) 0.17828(13) 0.3115(5)
C10 C 0.2603(5) 0.19735(14) 0.4817(5)
C11 C 0.3020(6) 0.16713(18) 0.6393(5)
H6 H 0.3100 0.1815 0.7529
C12 C 0.3310(6) 0.11534(18) 0.6222(6)
H7 H 0.3597 0.0940 0.7266
C13 C 0.3190(5) 0.09383(15) 0.4558(6)
H8 H 0.3399 0.0584 0.4478
C14 C 0.2757(5) 0.12515(13) 0.2996(6)
H9 H 0.2653 0.1105 0.1858
H10 H 0.374(4) 0.2695(13) 0.272(3)
loop_
_geom_bond_atom_site_label_1
_geom_bond_atom_site_label_2
_geom_bond_site_symmetry_1
_geom_bond_site_symmetry_2
F1 C10 1_555 1_555
N1 O1 1_555 1_555
N2 N3 1_555 1_555
N3 C8 1_555 1_555
O2 N1 1_555 1_555
O3 C8 1_555 1_555
C1 N1 1_555 1_555
C2 C1 1_555 1_555
H1 C2 1_555 1_555
C3 C2 1_555 1_555
H2 C3 1_555 1_555
C4 C3 1_555 1_555
C5 C4 1_555 1_555
H3 C5 1_555 1_555
C6 C1 1_555 1_555
H4 C6 1_555 1_555
C7 N2 1_555 1_555
H5 C7 1_555 1_555
C8 C9 1_555 1_555
C9 C10 1_555 1_555
C10 C11 1_555 1_555
C11 H6 1_555 1_555
C12 C11 1_555 1_555
H7 C12 1_555 1_555
C13 C12 1_555 1_555
H8 C13 1_555 1_555
C14 C9 1_555 1_555
H9 C14 1_555 1_555
H10 N3 1_555 1_555
C4 C7 1_555 1_555
C5 C6 1_555 1_555
C13 C14 1_555 1_555

#END
