
#######################################################################
#
#                 Cambridge Crystallographic Data Centre
#                                CCDC 
#
#######################################################################
#
# If this CIF has been generated from an entry in the Cambridge 
# Structural Database, then it will include bibliographic, chemical, 
# crystal, experimental, refinement or atomic coordinate data resulting 
# from the CCDC's data processing and validation procedures.
#
#######################################################################

data_QAKLOG
_chemical_formula_moiety         'C17 H16 F1 N1 O1'
_chemical_name_systematic        
4-benzyl-2-(fluoromethyl)-2-phenyl-2,5-dihydro-1,3-oxazole
_symmetry_cell_setting           triclinic
_symmetry_space_group_name_H-M   'P -1'
_symmetry_Int_Tables_number      2
_space_group_name_Hall           '-P 1'
loop_
_symmetry_equiv_pos_site_id
_symmetry_equiv_pos_as_xyz
1 x,y,z
2 -x,-y,-z
_cell_length_a                   5.5492(5)
_cell_length_b                   10.9097(11)
_cell_length_c                   11.6094(12)
_cell_angle_alpha                102.644(3)
_cell_angle_beta                 93.799(3)
_cell_angle_gamma                96.078(3)
_cell_volume                     679.032
_exptl_crystal_colour            colorless
_exptl_crystal_description       block
_cell_formula_units_Z            2
loop_
_atom_site_label
_atom_site_type_symbol
_atom_site_fract_x
_atom_site_fract_y
_atom_site_fract_z
C1 C -0.0256(3) 0.65310(13) -0.20061(12)
H1 H -0.1562 0.6964 -0.2209
C2 C -0.0259(3) 0.52555(13) -0.25357(13)
H2 H -0.157 0.4822 -0.3093
C3 C 0.1644(3) 0.46173(13) -0.22519(13)
H3 H 0.1646 0.3748 -0.2616
C4 C 0.3540(3) 0.52522(14) -0.14361(14)
H4 H 0.4852 0.4819 -0.1242
C5 C 0.3535(3) 0.65229(14) -0.08985(14)
H5 H 0.4836 0.695 -0.0332
C6 C 0.1639(2) 0.71746(12) -0.11848(11)
C7 C 0.1670(3) 0.85700(12) -0.06127(12)
H6 H 0.3149 0.905 -0.0803
H7 H 0.0237 0.8885 -0.095
C8 C 0.1637(2) 0.88064(11) 0.07086(11)
C9 C -0.0497(2) 0.83417(12) 0.12947(12)
H8 H -0.1995 0.8669 0.1045
H9 H -0.0776 0.7405 0.1108
C10 C 0.2708(2) 0.94308(12) 0.26383(11)
C11 C 0.4326(2) 0.86572(12) 0.32328(12)
H10 H 0.6042 0.9047 0.3316
H11 H 0.383 0.8647 0.4035
C12 C 0.2960(2) 1.07747(11) 0.33924(11)
C13 C 0.5023(2) 1.16198(12) 0.33631(12)
H12 H 0.6244 1.1356 0.2861
C14 C 0.5297(2) 1.28453(12) 0.40663(12)
H13 H 0.669 1.3419 0.4033
C15 C 0.3531(3) 1.32297(12) 0.48170(12)
H14 H 0.3723 1.4062 0.5303
C16 C 0.1482(2) 1.23900(13) 0.48526(12)
H15 H 0.0276 1.2652 0.5365
C17 C 0.1189(2) 1.11683(12) 0.41416(11)
H16 H -0.022 1.0602 0.4167
F1 F 0.41106(17) 0.74227(7) 0.25463(8)
N1 N 0.3402(2) 0.94147(10) 0.14395(10)
O1 O 0.02226(16) 0.88409(9) 0.25285(8)
loop_
_geom_bond_atom_site_label_1
_geom_bond_atom_site_label_2
_geom_bond_site_symmetry_1
_geom_bond_site_symmetry_2
C1 H1 1_555 1_555
C2 C1 1_555 1_555
H2 C2 1_555 1_555
C3 C2 1_555 1_555
H3 C3 1_555 1_555
C4 C3 1_555 1_555
H4 C4 1_555 1_555
C5 C4 1_555 1_555
H5 C5 1_555 1_555
C6 C1 1_555 1_555
C7 C6 1_555 1_555
H6 C7 1_555 1_555
H7 C7 1_555 1_555
C8 C7 1_555 1_555
C9 C8 1_555 1_555
H8 C9 1_555 1_555
H9 C9 1_555 1_555
C10 C11 1_555 1_555
C11 H10 1_555 1_555
H11 C11 1_555 1_555
C12 C10 1_555 1_555
C13 C12 1_555 1_555
H12 C13 1_555 1_555
C14 C13 1_555 1_555
H13 C14 1_555 1_555
C15 C14 1_555 1_555
H14 C15 1_555 1_555
C16 C15 1_555 1_555
H15 C16 1_555 1_555
C17 C12 1_555 1_555
H16 C17 1_555 1_555
F1 C11 1_555 1_555
N1 C8 1_555 1_555
O1 C9 1_555 1_555
C5 C6 1_555 1_555
C10 N1 1_555 1_555
C10 O1 1_555 1_555
C16 C17 1_555 1_555

#END
