
#######################################################################
#
#                 Cambridge Crystallographic Data Centre
#                                CCDC 
#
#######################################################################
#
# If this CIF has been generated from an entry in the Cambridge 
# Structural Database, then it will include bibliographic, chemical, 
# crystal, experimental, refinement or atomic coordinate data resulting 
# from the CCDC's data processing and validation procedures.
#
#######################################################################

data_QAKTED
_chemical_formula_moiety         'C16 H21 N2 O1 1+,Cl1 1-'
_chemical_name_systematic        '4-[(1-Adamantyl)carbamoyl]pyridinium chloride'
_symmetry_cell_setting           monoclinic
_symmetry_space_group_name_H-M   'P 21/c'
_symmetry_Int_Tables_number      14
_space_group_name_Hall           '-P 2ybc'
loop_
_symmetry_equiv_pos_site_id
_symmetry_equiv_pos_as_xyz
1 x,y,z
2 -x,1/2+y,1/2-z
3 -x,-y,-z
4 x,1/2-y,1/2+z
_cell_length_a                   7.117(4)
_cell_length_b                   23.093(13)
_cell_length_c                   11.241(5)
_cell_angle_alpha                90
_cell_angle_beta                 127.56(2)
_cell_angle_gamma                90
_cell_volume                     1464.53
_exptl_crystal_colour            colorless
_exptl_crystal_description       prism
_cell_formula_units_Z            4
loop_
_atom_site_label
_atom_site_type_symbol
_atom_site_fract_x
_atom_site_fract_y
_atom_site_fract_z
Cl1 Cl 0.13642(10) -0.01867(2) 0.85883(6)
O1 O 0.3301(3) -0.12489(9) 0.51605(18)
N1 N 0.6627(4) -0.03832(8) 0.2831(2)
H1 H 0.6865 -0.0228 0.2198
N2 N 0.7203(3) -0.11813(8) 0.71977(19)
H2 H 0.8612 -0.1036 0.7512
C1 C 0.5926(4) -0.08374(9) 0.4772(2)
C2 C 0.4096(4) -0.05633(10) 0.3459(2)
H3 H 0.2555 -0.0532 0.3221
C3 C 0.4491(4) -0.03368(10) 0.2503(3)
H4 H 0.3237 -0.0144 0.1599
C4 C 0.8423(4) -0.06503(10) 0.4063(3)
H5 H 0.9931 -0.0680 0.4254
C5 C 0.8118(4) -0.08820(10) 0.5065(3)
H6 H 0.9410 -0.1072 0.5959
C6 C 0.5359(4) -0.11061(10) 0.5753(2)
C7 C 0.7100(3) -0.14894(8) 0.8312(2)
C8 C 0.6137(4) -0.21041(9) 0.7764(2)
H7 H 0.4549 -0.2086 0.6847
H8 H 0.7099 -0.2307 0.7568
C9 C 0.9648(4) -0.15297(10) 0.9762(2)
H9 H 1.0617 -0.1731 0.9569
H10 H 1.0284 -0.1147 1.0111
C10 C 0.5588(4) -0.11689(9) 0.8641(3)
H11 H 0.6192 -0.0784 0.8989
H12 H 0.3989 -0.1139 0.7738
C11 C 0.6166(4) -0.24278(9) 0.8968(3)
H13 H 0.5551 -0.2811 0.8615
C12 C 0.4621(4) -0.21057(10) 0.9256(3)
H14 H 0.3033 -0.2080 0.8341
H15 H 0.4575 -0.2313 0.9978
C13 C 0.5605(4) -0.15005(10) 0.9832(3)
H16 H 0.4650 -0.1300 1.0037
C14 C 0.8703(5) -0.24643(10) 1.0405(3)
H17 H 0.8734 -0.2675 1.1153
H18 H 0.9668 -0.2668 1.0211
C15 C 0.9674(4) -0.18568(11) 1.0960(2)
H19 H 1.1271 -0.1879 1.1867
C16 C 0.8150(5) -0.15348(11) 1.1268(3)
H20 H 0.8771 -0.1152 1.1629
H21 H 0.8180 -0.1735 1.2028
loop_
_geom_bond_atom_site_label_1
_geom_bond_atom_site_label_2
_geom_bond_site_symmetry_1
_geom_bond_site_symmetry_2
O1 C6 1_555 1_555
N1 H1 1_555 1_555
N2 H2 1_555 1_555
C1 C2 1_555 1_555
C2 H3 1_555 1_555
C3 N1 1_555 1_555
H4 C3 1_555 1_555
C4 N1 1_555 1_555
H5 C4 1_555 1_555
C5 C1 1_555 1_555
H6 C5 1_555 1_555
C6 N2 1_555 1_555
C7 N2 1_555 1_555
C8 C7 1_555 1_555
H7 C8 1_555 1_555
H8 C8 1_555 1_555
C9 C7 1_555 1_555
H9 C9 1_555 1_555
H10 C9 1_555 1_555
C10 C7 1_555 1_555
H11 C10 1_555 1_555
H12 C10 1_555 1_555
C11 C8 1_555 1_555
H13 C11 1_555 1_555
C12 C11 1_555 1_555
H14 C12 1_555 1_555
H15 C12 1_555 1_555
C13 C10 1_555 1_555
H16 C13 1_555 1_555
C14 C11 1_555 1_555
H17 C14 1_555 1_555
H18 C14 1_555 1_555
C15 C9 1_555 1_555
H19 C15 1_555 1_555
C16 C13 1_555 1_555
H20 C16 1_555 1_555
H21 C16 1_555 1_555
C1 C6 1_555 1_555
C2 C3 1_555 1_555
C4 C5 1_555 1_555
C12 C13 1_555 1_555
C14 C15 1_555 1_555
C15 C16 1_555 1_555

#END
