
#######################################################################
#
#                 Cambridge Crystallographic Data Centre
#                                CCDC 
#
#######################################################################
#
# If this CIF has been generated from an entry in the Cambridge 
# Structural Database, then it will include bibliographic, chemical, 
# crystal, experimental, refinement or atomic coordinate data resulting 
# from the CCDC's data processing and validation procedures.
#
#######################################################################

data_QAKVOP
_chemical_name_common            4,4'-bis(2,2-diphenylvinyl)biphenyl
_chemical_formula_moiety         'C40 H30'
_chemical_name_systematic        4,4'-Bis(2,2-diphenylvinyl)-1,1'-biphenyl
_symmetry_cell_setting           monoclinic
_symmetry_space_group_name_H-M   'P 21/c'
_symmetry_Int_Tables_number      14
_space_group_name_Hall           '-P 2ybc'
loop_
_symmetry_equiv_pos_site_id
_symmetry_equiv_pos_as_xyz
1 x,y,z
2 -x,1/2+y,1/2-z
3 -x,-y,-z
4 x,1/2-y,1/2+z
_cell_length_a                   9.277(2)
_cell_length_b                   14.625(3)
_cell_length_c                   10.460(2)
_cell_angle_alpha                90
_cell_angle_beta                 92.669(4)
_cell_angle_gamma                90
_cell_volume                     1417.63
_exptl_crystal_colour            yellow
_exptl_crystal_description       block
_chemical_melting_point          '477 K'
_cell_formula_units_Z            2
loop_
_atom_site_label
_atom_site_type_symbol
_atom_site_fract_x
_atom_site_fract_y
_atom_site_fract_z
C1 C 0.69791(18) 0.84611(10) 0.10768(16)
H1 H 0.6951 0.7855 0.1343
C2 C 0.57204(17) 0.88788(10) 0.06689(14)
H2 H 0.4864 0.8549 0.0677
C3 C 0.56784(15) 0.97810(9) 0.02422(13)
C4 C 0.69840(17) 1.02440(10) 0.03150(16)
H3 H 0.7009 1.0854 0.0066
C5 C 0.82414(17) 0.98268(10) 0.07443(16)
H4 H 0.9088 1.0168 0.0795
C6 C 0.82915(16) 0.89105(10) 0.11058(13)
C7 C 0.96931(16) 0.85159(11) 0.15032(14)
H5 H 1.0411 0.8943 0.1703
C8 C 1.01194(17) 0.76349(10) 0.16283(14)
C9 C 1.16235(17) 0.74195(11) 0.20673(15)
C10 C 1.2386(2) 0.79640(12) 0.29442(18)
H6 H 1.1933 0.8464 0.3300
C11 C 1.3807(2) 0.77781(13) 0.33001(19)
H7 H 1.4301 0.8155 0.3887
C12 C 1.4498(2) 0.70404(14) 0.27931(19)
H8 H 1.5463 0.6923 0.3014
C13 C 1.3742(2) 0.64829(16) 0.19597(19)
H9 H 1.4194 0.5974 0.1625
C14 C 1.2324(2) 0.66610(13) 0.16054(17)
H10 H 1.1828 0.6265 0.1046
C15 C 0.91607(18) 0.68499(10) 0.12923(15)
C16 C 0.86251(18) 0.62995(10) 0.22408(15)
H11 H 0.8899 0.6411 0.3093
C17 C 0.7692(2) 0.55891(11) 0.19388(18)
H12 H 0.7328 0.5235 0.2588
C18 C 0.7301(2) 0.54030(12) 0.0686(2)
H13 H 0.6666 0.4927 0.0485
C19 C 0.7846(2) 0.59197(14) -0.02639(18)
H14 H 0.7599 0.5786 -0.1115
C20 C 0.8763(2) 0.66401(12) 0.00322(17)
H15 H 0.9120 0.6991 -0.0624
C1B C 0.30209(18) 1.15389(10) -0.10768(16)
H1B H 0.3049 1.2145 -0.1343
C2B C 0.42796(17) 1.11212(10) -0.06689(14)
H2B H 0.5136 1.1451 -0.0677
C3B C 0.43216(15) 1.02190(9) -0.02422(13)
C4B C 0.30160(17) 0.97560(10) -0.03150(16)
H3B H 0.2991 0.9146 -0.0066
C5B C 0.17586(17) 1.01732(10) -0.07443(16)
H4B H 0.0912 0.9832 -0.0795
C6B C 0.17085(16) 1.10895(10) -0.11058(13)
C7B C 0.03069(16) 1.14841(11) -0.15032(14)
H5B H -0.0411 1.1057 -0.1703
C8B C -0.01194(17) 1.23651(10) -0.16283(14)
C9B C -0.16235(17) 1.25805(11) -0.20673(15)
C10B C -0.2386(2) 1.20360(12) -0.29442(18)
H6B H -0.1933 1.1536 -0.3300
C11B C -0.3807(2) 1.22219(13) -0.33001(19)
H7B H -0.4301 1.1845 -0.3887
C12B C -0.4498(2) 1.29596(14) -0.27931(19)
H8B H -0.5463 1.3077 -0.3014
C13B C -0.3742(2) 1.35171(16) -0.19597(19)
H9B H -0.4194 1.4026 -0.1625
C14B C -0.2324(2) 1.33390(13) -0.16054(17)
H10B H -0.1828 1.3735 -0.1046
C15B C 0.08393(18) 1.31501(10) -0.12923(15)
C16B C 0.13749(18) 1.37005(10) -0.22408(15)
H11B H 0.1101 1.3589 -0.3093
C17B C 0.2308(2) 1.44109(11) -0.19388(18)
H12B H 0.2672 1.4765 -0.2588
C18B C 0.2699(2) 1.45970(12) -0.0686(2)
H13B H 0.3334 1.5073 -0.0485
C19B C 0.2154(2) 1.40803(14) 0.02639(18)
H14B H 0.2401 1.4214 0.1115
C20B C 0.1237(2) 1.33599(12) -0.00322(17)
H15B H 0.0880 1.3009 0.0624
loop_
_geom_bond_atom_site_label_1
_geom_bond_atom_site_label_2
_geom_bond_site_symmetry_1
_geom_bond_site_symmetry_2
C1 H1 1_555 1_555
C2 C1 1_555 1_555
H2 C2 1_555 1_555
C3 C2 1_555 1_555
C4 C3 1_555 1_555
H3 C4 1_555 1_555
C5 C4 1_555 1_555
H4 C5 1_555 1_555
C6 C1 1_555 1_555
C7 C6 1_555 1_555
H5 C7 1_555 1_555
C8 C7 1_555 1_555
C9 C8 1_555 1_555
C10 C9 1_555 1_555
H6 C10 1_555 1_555
C11 C10 1_555 1_555
H7 C11 1_555 1_555
C12 C11 1_555 1_555
H8 C12 1_555 1_555
C13 C12 1_555 1_555
H9 C13 1_555 1_555
C14 C9 1_555 1_555
H10 C14 1_555 1_555
C15 C8 1_555 1_555
C16 C15 1_555 1_555
H11 C16 1_555 1_555
C17 C16 1_555 1_555
H12 C17 1_555 1_555
C18 C17 1_555 1_555
H13 C18 1_555 1_555
C19 C18 1_555 1_555
H14 C19 1_555 1_555
C20 C15 1_555 1_555
H15 C20 1_555 1_555
C1B H1B 1_555 1_555
C2B C1B 1_555 1_555
H2B C2B 1_555 1_555
C3B C3 1_555 1_555
C4B C3B 1_555 1_555
H3B C4B 1_555 1_555
C5B C4B 1_555 1_555
H4B C5B 1_555 1_555
C6B C1B 1_555 1_555
C7B C6B 1_555 1_555
H5B C7B 1_555 1_555
C8B C7B 1_555 1_555
C9B C8B 1_555 1_555
C10B C9B 1_555 1_555
H6B C10B 1_555 1_555
C11B C10B 1_555 1_555
H7B C11B 1_555 1_555
C12B C11B 1_555 1_555
H8B C12B 1_555 1_555
C13B C12B 1_555 1_555
H9B C13B 1_555 1_555
C14B C9B 1_555 1_555
H10B C14B 1_555 1_555
C15B C8B 1_555 1_555
C16B C15B 1_555 1_555
H11B C16B 1_555 1_555
C17B C16B 1_555 1_555
H12B C17B 1_555 1_555
C18B C17B 1_555 1_555
H13B C18B 1_555 1_555
C19B C18B 1_555 1_555
H14B C19B 1_555 1_555
C20B C15B 1_555 1_555
H15B C20B 1_555 1_555
C5 C6 1_555 1_555
C13 C14 1_555 1_555
C19 C20 1_555 1_555
C2B C3B 1_555 1_555
C5B C6B 1_555 1_555
C13B C14B 1_555 1_555
C19B C20B 1_555 1_555

#END
