
#######################################################################
#
#                 Cambridge Crystallographic Data Centre
#                                CCDC 
#
#######################################################################
#
# If this CIF has been generated from an entry in the Cambridge 
# Structural Database, then it will include bibliographic, chemical, 
# crystal, experimental, refinement or atomic coordinate data resulting 
# from the CCDC's data processing and validation procedures.
#
#######################################################################

data_QAKVUV
_chemical_name_common            
'3-Bromopropyl (2-chlorophenyl)(6,7-dihydrothieno[3,2-c]pyridin-5(4H)-yl)acetate'
_chemical_formula_moiety         'C18 H19 Br1 Cl1 N1 O2 S1'
_chemical_name_systematic        
'3-Bromopropyl 2-(2-chlorophenyl)-2-(4,5,6,7-tetrahydrothieno[3,2-c]pyridin-5-yl)acetate'
_symmetry_cell_setting           monoclinic
_symmetry_space_group_name_H-M   'P 21/n'
_symmetry_Int_Tables_number      14
_space_group_name_Hall           '-P 2yn'
loop_
_symmetry_equiv_pos_site_id
_symmetry_equiv_pos_as_xyz
1 x,y,z
2 1/2-x,1/2+y,1/2-z
3 -x,-y,-z
4 1/2+x,1/2-y,1/2+z
_cell_length_a                   8.5707(17)
_cell_length_b                   18.414(4)
_cell_length_c                   12.206(2)
_cell_angle_alpha                90
_cell_angle_beta                 106.89(3)
_cell_angle_gamma                90
_cell_volume                     1843.27
_exptl_crystal_colour            colorless
_exptl_crystal_description       prism
_cell_formula_units_Z            4
loop_
_atom_site_label
_atom_site_type_symbol
_atom_site_fract_x
_atom_site_fract_y
_atom_site_fract_z
Br1 Br 0.70621(4) 0.800075(19) 0.63501(3)
Cl1 Cl 0.63184(7) 0.55788(3) 0.47473(5)
S1 S 0.70637(7) 0.51762(3) -0.19215(5)
O1 O 0.7341(2) 0.75560(8) 0.22244(14)
O2 O 0.57129(19) 0.72271(8) 0.32887(14)
N1 N 0.7310(2) 0.60648(9) 0.15415(15)
C1 C 0.5719(3) 0.58635(13) -0.2481(2)
H1 H 0.5313 0.5965 -0.3276
C2 C 0.5302(3) 0.62460(12) -0.16565(19)
H2 H 0.4566 0.6644 -0.1807
C3 C 0.6102(2) 0.59768(11) -0.05354(18)
C4 C 0.7094(3) 0.54013(11) -0.05401(18)
C5 C 0.8122(3) 0.50420(12) 0.05215(19)
H3 H 0.9276 0.5188 0.0665
H4 H 0.8052 0.4508 0.0430
C6 C 0.7515(3) 0.52699(11) 0.15262(18)
H5 H 0.6459 0.5030 0.1464
H6 H 0.8306 0.5112 0.2252
C7 C 0.5925(3) 0.62862(11) 0.05604(18)
H7 H 0.5879 0.6823 0.0509
H8 H 0.4892 0.6113 0.0679
C8 C 0.6982(2) 0.62768(11) 0.26063(17)
H9 H 0.5998 0.6012 0.2680
C9 C 0.8421(3) 0.61285(11) 0.36541(18)
C10 C 0.8233(3) 0.58555(11) 0.46718(19)
C11 C 0.9545(3) 0.57802(12) 0.5653(2)
H10 H 0.9384 0.5594 0.6338
C12 C 1.1084(3) 0.59798(13) 0.5619(2)
H11 H 1.1986 0.5940 0.6287
C13 C 1.1313(3) 0.62372(14) 0.4615(2)
H12 H 1.2378 0.6360 0.4589
C14 C 0.9995(3) 0.63170(12) 0.3643(2)
H13 H 1.0166 0.6503 0.2961
C15 C 0.6710(3) 0.70946(11) 0.26505(19)
C16 C 0.5484(4) 0.79869(12) 0.3521(2)
H14 H 0.4978 0.8250 0.2798
H15 H 0.6545 0.8217 0.3907
C17 C 0.4393(3) 0.80103(14) 0.4279(2)
H16 H 0.3316 0.7811 0.3849
H17 H 0.4228 0.8525 0.4455
C18 C 0.4994(3) 0.76028(14) 0.5389(2)
H18 H 0.5145 0.7085 0.5227
H19 H 0.4165 0.7631 0.5809
loop_
_geom_bond_atom_site_label_1
_geom_bond_atom_site_label_2
_geom_bond_site_symmetry_1
_geom_bond_site_symmetry_2
Br1 C18 1_555 1_555
Cl1 C10 1_555 1_555
S1 C1 1_555 1_555
O1 C15 1_555 1_555
O2 C15 1_555 1_555
N1 C6 1_555 1_555
C1 H1 1_555 1_555
C2 C1 1_555 1_555
H2 C2 1_555 1_555
C3 C2 1_555 1_555
C4 S1 1_555 1_555
C5 C4 1_555 1_555
H3 C5 1_555 1_555
H4 C5 1_555 1_555
C6 C5 1_555 1_555
H5 C6 1_555 1_555
H6 C6 1_555 1_555
C7 N1 1_555 1_555
H7 C7 1_555 1_555
H8 C7 1_555 1_555
C8 N1 1_555 1_555
H9 C8 1_555 1_555
C9 C8 1_555 1_555
C10 C9 1_555 1_555
C11 C10 1_555 1_555
H10 C11 1_555 1_555
C12 C11 1_555 1_555
H11 C12 1_555 1_555
C13 C12 1_555 1_555
H12 C13 1_555 1_555
C14 C9 1_555 1_555
H13 C14 1_555 1_555
C15 C8 1_555 1_555
C16 O2 1_555 1_555
H14 C16 1_555 1_555
H15 C16 1_555 1_555
C17 C16 1_555 1_555
H16 C17 1_555 1_555
H17 C17 1_555 1_555
C18 C17 1_555 1_555
H18 C18 1_555 1_555
H19 C18 1_555 1_555
C3 C4 1_555 1_555
C3 C7 1_555 1_555
C13 C14 1_555 1_555

#END
