
#######################################################################
#
#                 Cambridge Crystallographic Data Centre
#                                CCDC 
#
#######################################################################
#
# If this CIF has been generated from an entry in the Cambridge 
# Structural Database, then it will include bibliographic, chemical, 
# crystal, experimental, refinement or atomic coordinate data resulting 
# from the CCDC's data processing and validation procedures.
#
#######################################################################

data_QAKXUW
_chemical_formula_moiety         'C11 H17 N1 O2'
_chemical_name_systematic        
4-(2,5-Dimethylpyrrolidin-1-yl)-3-methylfuran-2(5H)-one
_symmetry_cell_setting           orthorhombic
_symmetry_space_group_name_H-M   'P 21 21 21'
_symmetry_Int_Tables_number      19
_space_group_name_Hall           'P 2ac 2ab'
loop_
_symmetry_equiv_pos_site_id
_symmetry_equiv_pos_as_xyz
1 x,y,z
2 1/2-x,-y,1/2+z
3 -x,1/2+y,1/2-z
4 1/2+x,1/2-y,-z
_cell_length_a                   7.574(2)
_cell_length_b                   8.921(2)
_cell_length_c                   15.960(3)
_cell_angle_alpha                90
_cell_angle_beta                 90
_cell_angle_gamma                90
_cell_volume                     1078.38
_exptl_crystal_colour            colorless
_exptl_crystal_description       plate
_cell_formula_units_Z            4
loop_
_atom_site_label
_atom_site_type_symbol
_atom_site_fract_x
_atom_site_fract_y
_atom_site_fract_z
O1 O 0.0043(6) -0.3609(6) -1.0408(3)
O2 O 0.2165(5) -0.5161(6) -1.0839(3)
N1 N -0.1886(5) -0.5283(6) -0.8574(3)
C1 C 0.1015(8) -0.4920(9) -1.0339(4)
C2 C 0.0381(7) -0.5784(7) -0.9634(4)
C3 C -0.0929(7) -0.5009(8) -0.9261(3)
C4 C -0.1229(8) -0.3598(8) -0.9738(4)
H1 H -0.2407 -0.3569 -0.9960
H2 H -0.1051 -0.2737 -0.9388
C5 C -0.3481(7) -0.4440(8) -0.8337(3)
H3 H -0.3276 -0.3384 -0.8402
C6 C -0.3727(10) -0.4836(9) -0.7423(4)
H4 H -0.4944 -0.4766 -0.7259
H5 H -0.3033 -0.4201 -0.7066
C7 C -0.3031(9) -0.6433(10) -0.7367(4)
H6 H -0.3913 -0.7114 -0.7570
H7 H -0.2712 -0.6709 -0.6806
C8 C -0.1434(8) -0.6437(7) -0.7944(4)
H8 H -0.1290 -0.7391 -0.8214
C9 C -0.5071(7) -0.4928(8) -0.8857(4)
H9 H -0.4894 -0.4648 -0.9432
H10 H -0.5175 -0.5998 -0.8818
H11 H -0.6132 -0.4469 -0.8651
C10 C 0.0291(11) -0.6030(10) -0.7492(5)
H12 H 0.1269 -0.6031 -0.7875
H13 H 0.0154 -0.5046 -0.7257
H14 H 0.0508 -0.6738 -0.7051
C11 C 0.1169(8) -0.7298(7) -0.9484(4)
H15 H 0.0630 -0.7727 -0.8995
H16 H 0.0955 -0.7935 -0.9958
H17 H 0.2418 -0.7206 -0.9395
loop_
_geom_bond_atom_site_label_1
_geom_bond_atom_site_label_2
_geom_bond_site_symmetry_1
_geom_bond_site_symmetry_2
O1 C1 1_555 1_555
O2 C1 1_555 1_555
N1 C3 1_555 1_555
C1 C2 1_555 1_555
C2 C3 1_555 1_555
C3 C4 1_555 1_555
C4 O1 1_555 1_555
H1 C4 1_555 1_555
H2 C4 1_555 1_555
C5 N1 1_555 1_555
H3 C5 1_555 1_555
C6 C5 1_555 1_555
H4 C6 1_555 1_555
H5 C6 1_555 1_555
C7 C6 1_555 1_555
H6 C7 1_555 1_555
H7 C7 1_555 1_555
C8 N1 1_555 1_555
H8 C8 1_555 1_555
C9 C5 1_555 1_555
H9 C9 1_555 1_555
H10 C9 1_555 1_555
H11 C9 1_555 1_555
C10 C8 1_555 1_555
H12 C10 1_555 1_555
H13 C10 1_555 1_555
H14 C10 1_555 1_555
C11 C2 1_555 1_555
H15 C11 1_555 1_555
H16 C11 1_555 1_555
H17 C11 1_555 1_555
C7 C8 1_555 1_555

#END
