
#######################################################################
#
#                 Cambridge Crystallographic Data Centre
#                                CCDC 
#
#######################################################################
#
# If this CIF has been generated from an entry in the Cambridge 
# Structural Database, then it will include bibliographic, chemical, 
# crystal, experimental, refinement or atomic coordinate data resulting 
# from the CCDC's data processing and validation procedures.
#
#######################################################################

data_QAKZEI
_chemical_formula_moiety         'C21 H28 O5'
_chemical_name_systematic        
cis-1-(Phenoxycarbonyloxy)-2-(methoxycarbonyl)cyclododecene
_symmetry_cell_setting           monoclinic
_symmetry_space_group_name_H-M   'P 21/c'
_symmetry_Int_Tables_number      14
_space_group_name_Hall           '-P 2ybc'
loop_
_symmetry_equiv_pos_site_id
_symmetry_equiv_pos_as_xyz
1 x,y,z
2 -x,1/2+y,1/2-z
3 -x,-y,-z
4 x,1/2-y,1/2+z
_cell_length_a                   22.1951(12)
_cell_length_b                   5.9343(4)
_cell_length_c                   15.4004(14)
_cell_angle_alpha                90
_cell_angle_beta                 104.13(2)
_cell_angle_gamma                90
_cell_volume                     1967.05
_exptl_crystal_description       needle
_chemical_melting_point          '99-100 deg.C'
_cell_formula_units_Z            4
loop_
_atom_site_label
_atom_site_type_symbol
_atom_site_fract_x
_atom_site_fract_y
_atom_site_fract_z
O1 O 0.18416(5) 0.5152(2) 0.53797(9)
O2 O 0.25509(8) 0.5675(2) 0.66363(10)
O3 O 0.23997(4) 0.32338(17) 0.42463(6)
O4 O 0.14590(5) 0.1543(2) 0.38010(7)
O5 O 0.17451(4) 0.4613(2) 0.31214(7)
C1 C 0.26398(6) 0.2419(2) 0.57910(10)
C2 C 0.26066(6) 0.1706(3) 0.49591(10)
C3 C 0.28055(7) -0.0497(3) 0.46553(10)
H1 H 0.2438 -0.1345 0.4366
H2 H 0.3021 -0.1344 0.5178
C4 C 0.32296(7) -0.0320(3) 0.40066(10)
H3 H 0.2992 0.0273 0.3439
H4 H 0.3562 0.0737 0.4247
C5 C 0.35118(8) -0.2572(3) 0.38436(11)
H5 H 0.3754 -0.2354 0.3404
H6 H 0.3177 -0.3609 0.3589
C6 C 0.39274(7) -0.3655(3) 0.46780(12)
H7 H 0.3683 -0.3897 0.5113
H8 H 0.4061 -0.5119 0.4516
C7 C 0.45023(7) -0.2278(3) 0.51185(12)
H9 H 0.4843 -0.2763 0.4871
H10 H 0.4420 -0.0710 0.4955
C8 C 0.47129(7) -0.2429(3) 0.61351(12)
H11 H 0.5103 -0.1623 0.6330
H12 H 0.4793 -0.3998 0.6300
C9 C 0.42525(7) -0.1489(3) 0.66453(11)
H13 H 0.3866 -0.2320 0.6463
H14 H 0.4419 -0.1756 0.7280
C10 C 0.41118(7) 0.1016(3) 0.65032(11)
H15 H 0.3948 0.1291 0.5868
H16 H 0.4497 0.1854 0.6693
C11 C 0.36464(7) 0.1910(3) 0.70106(10)
H17 H 0.3662 0.3544 0.7011
H18 H 0.3777 0.1415 0.7628
C12 C 0.29696(7) 0.1169(3) 0.66299(10)
H19 H 0.2964 -0.0430 0.6497
H20 H 0.2741 0.1390 0.7085
C13 C 0.23571(8) 0.4588(3) 0.59785(12)
C14 C 0.15246(9) 0.7165(3) 0.55422(14)
H21 H 0.1161 0.7384 0.5063
H22 H 0.1797 0.8437 0.5574
H23 H 0.1405 0.7018 0.6098
C15 C 0.18219(7) 0.2953(3) 0.37323(10)
C16 C 0.11664(7) 0.4701(3) 0.24881(10)
C17 C 0.08029(7) 0.6546(3) 0.25067(11)
H24 H 0.0926 0.7651 0.2942
C18 C 0.02471(8) 0.6742(4) 0.18641(13)
H25 H -0.0008 0.7983 0.1870
C19 C 0.00717(8) 0.5129(4) 0.12238(12)
H26 H -0.0303 0.5264 0.0797
C20 C 0.04483(9) 0.3305(4) 0.12086(12)
H27 H 0.0329 0.2213 0.0767
C21 C 0.10054(8) 0.3077(3) 0.18473(12)
H28 H 0.1263 0.1846 0.1839
loop_
_geom_bond_atom_site_label_1
_geom_bond_atom_site_label_2
_geom_bond_site_symmetry_1
_geom_bond_site_symmetry_2
O1 C13 1_555 1_555
O2 C13 1_555 1_555
O3 C2 1_555 1_555
O4 C15 1_555 1_555
O5 C15 1_555 1_555
C1 C2 1_555 1_555
C2 C3 1_555 1_555
C3 H1 1_555 1_555
H2 C3 1_555 1_555
C4 C3 1_555 1_555
H3 C4 1_555 1_555
H4 C4 1_555 1_555
C5 C4 1_555 1_555
H5 C5 1_555 1_555
H6 C5 1_555 1_555
C6 C5 1_555 1_555
H7 C6 1_555 1_555
H8 C6 1_555 1_555
C7 C6 1_555 1_555
H9 C7 1_555 1_555
H10 C7 1_555 1_555
C8 C7 1_555 1_555
H11 C8 1_555 1_555
H12 C8 1_555 1_555
C9 C8 1_555 1_555
H13 C9 1_555 1_555
H14 C9 1_555 1_555
C10 C9 1_555 1_555
H15 C10 1_555 1_555
H16 C10 1_555 1_555
C11 C10 1_555 1_555
H17 C11 1_555 1_555
H18 C11 1_555 1_555
C12 C1 1_555 1_555
H19 C12 1_555 1_555
H20 C12 1_555 1_555
C13 C1 1_555 1_555
C14 O1 1_555 1_555
H21 C14 1_555 1_555
H22 C14 1_555 1_555
H23 C14 1_555 1_555
C15 O3 1_555 1_555
C16 O5 1_555 1_555
C17 C16 1_555 1_555
H24 C17 1_555 1_555
C18 C17 1_555 1_555
H25 C18 1_555 1_555
C19 C18 1_555 1_555
H26 C19 1_555 1_555
C20 C19 1_555 1_555
H27 C20 1_555 1_555
C21 C16 1_555 1_555
H28 C21 1_555 1_555
C11 C12 1_555 1_555
C20 C21 1_555 1_555

#END
