
#######################################################################
#
#                 Cambridge Crystallographic Data Centre
#                                CCDC 
#
#######################################################################
#
# If this CIF has been generated from an entry in the Cambridge 
# Structural Database, then it will include bibliographic, chemical, 
# crystal, experimental, refinement or atomic coordinate data resulting 
# from the CCDC's data processing and validation procedures.
#
#######################################################################

data_QALKOG
_chemical_formula_moiety         'C17 H13 N3 O3'
_chemical_name_systematic        
(7R,7aS)-4-(Tetrahydro-7-hydroxy-1,3-dioxo-1H-pyrrolo[1,2-c]imidazol-2(3H)-yl)-1-naphthalenecarbonitrile
_symmetry_cell_setting           monoclinic
_symmetry_space_group_name_H-M   'P 21'
_symmetry_Int_Tables_number      4
_space_group_name_Hall           'P 2yb'
loop_
_symmetry_equiv_pos_site_id
_symmetry_equiv_pos_as_xyz
1 x,y,z
2 -x,1/2+y,-z
_cell_length_a                   6.714(5)
_cell_length_b                   18.059(5)
_cell_length_c                   12.049(4)
_cell_angle_alpha                90
_cell_angle_beta                 92.23(5)
_cell_angle_gamma                90
_cell_volume                     1459.81
_exptl_crystal_colour            colorless
_exptl_crystal_description       needle
_chemical_melting_point          '485.15 K'
_cell_formula_units_Z            4
loop_
_atom_site_label
_atom_site_type_symbol
_atom_site_fract_x
_atom_site_fract_y
_atom_site_fract_z
O1 O 0.90624 0.48604 1.10084
O2 O 0.82502 0.63789 0.93882
O3 O 0.30029 0.49468 1.03530
N1 N 0.52989 0.56078 1.14386
N2 N 0.54221 0.56809 0.95805
N3 N 0.18204 0.52233 0.43027
C1 C 0.55272 0.50976 1.23912
C2 C 0.77641 0.52153 1.27843
C3 C 0.87795 0.54510 1.17376
C4 C 0.71693 0.59849 1.12085
C5 C 0.71495 0.60580 0.99876
C6 C 0.44257 0.53774 1.04842
C7 C 0.47332 0.56112 0.84610
C8 C 0.29308 0.59157 0.81368
C9 C 0.21930 0.58152 0.70385
C10 C 0.33039 0.54379 0.62944
C11 C 0.51891 0.51229 0.65976
C12 C 0.63317 0.47318 0.58320
C13 C 0.81199 0.44314 0.61654
C14 C 0.88203 0.44973 0.72811
C15 C 0.77715 0.48695 0.80430
C16 C 0.59105 0.52033 0.77167
C17 C 0.24594 0.53217 0.51694
H1 H 0.20730 0.62290 0.87320
H2 H 0.07090 0.60400 0.67630
H3 H 0.83650 0.49290 0.89130
H4 H 1.02280 0.42200 0.75500
H5 H 0.90010 0.41510 0.55290
H6 H 0.56980 0.46940 0.49750
H7 H 0.78880 0.56230 1.34340
H8 H 0.84090 0.46930 1.31040
H9 H 0.44720 0.52320 1.30340
H10 H 0.51980 0.45220 1.21300
H11 H 1.02390 0.56960 1.19730
H12 H 0.72000 0.65240 1.15960
H13 H 1.05380 0.49110 1.06640
O4 O 1.44803 0.32114 0.38011
O5 O 1.34990 0.16302 0.51200
O6 O 0.85576 0.32394 0.40250
N4 N 1.07777 0.25744 0.30148
N5 N 1.07446 0.23858 0.48374
N6 N 0.67709 0.22738 0.99075
C18 C 1.11250 0.31081 0.21163
C19 C 1.33390 0.29797 0.18839
C20 C 1.42446 0.26531 0.29529
C21 C 1.25667 0.21403 0.33051
C22 C 1.24102 0.19962 0.45167
C23 C 0.98845 0.27785 0.39415
C24 C 0.99499 0.23798 0.59150
C25 C 0.80878 0.20690 0.60372
C26 C 0.72776 0.20342 0.70871
C27 C 0.83029 0.23251 0.79837
C28 C 1.01901 0.26805 0.78814
C29 C 1.12451 0.30062 0.88023
C30 C 1.30087 0.33569 0.86662
C31 C 1.38274 0.33927 0.75953
C32 C 1.28483 0.30774 0.67060
C33 C 1.10243 0.27109 0.68259
C34 C 0.74459 0.22893 0.90522
H14 H 0.57900 0.17850 0.72080
H15 H 0.72230 0.18420 0.53340
H16 H 1.35570 0.30460 0.58950
H17 H 1.52410 0.37120 0.74920
H18 H 1.37400 0.36090 0.93930
H19 H 1.06550 0.29440 0.96370
H20 H 1.01850 0.29980 0.13740
H21 H 1.08400 0.36750 0.23780
H22 H 1.35120 0.26190 0.11940
H23 H 1.40750 0.35090 0.17220
H24 H 1.25530 0.16040 0.28350
H25 H 1.56640 0.23970 0.27460
H26 H 1.61090 0.32280 0.40610
loop_
_geom_bond_atom_site_label_1
_geom_bond_atom_site_label_2
_geom_bond_site_symmetry_1
_geom_bond_site_symmetry_2
O1 C3 1_555 1_555
O2 C5 1_555 1_555
O3 C6 1_555 1_555
N1 C1 1_555 1_555
N2 C5 1_555 1_555
N3 C17 1_555 1_555
C1 C2 1_555 1_555
C2 C3 1_555 1_555
C3 C4 1_555 1_555
C4 N1 1_555 1_555
C5 C4 1_555 1_555
C6 N1 1_555 1_555
C7 N2 1_555 1_555
C8 C7 1_555 1_555
C9 C8 1_555 1_555
C10 C9 1_555 1_555
C11 C10 1_555 1_555
C12 C11 1_555 1_555
C13 C12 1_555 1_555
C14 C13 1_555 1_555
C15 C14 1_555 1_555
C16 C7 1_555 1_555
C17 C10 1_555 1_555
H1 C8 1_555 1_555
H2 C9 1_555 1_555
H3 C15 1_555 1_555
H4 C14 1_555 1_555
H5 C13 1_555 1_555
H6 C12 1_555 1_555
H7 C2 1_555 1_555
H8 C2 1_555 1_555
H9 C1 1_555 1_555
H10 C1 1_555 1_555
H11 C3 1_555 1_555
H12 C4 1_555 1_555
H13 O1 1_555 1_555
O4 C20 1_555 1_555
O5 C22 1_555 1_555
O6 C23 1_555 1_555
N4 C18 1_555 1_555
N5 C22 1_555 1_555
N6 C34 1_555 1_555
C18 C19 1_555 1_555
C19 C20 1_555 1_555
C20 C21 1_555 1_555
C21 N4 1_555 1_555
C22 C21 1_555 1_555
C23 N4 1_555 1_555
C24 N5 1_555 1_555
C25 C24 1_555 1_555
C26 C25 1_555 1_555
C27 C26 1_555 1_555
C28 C27 1_555 1_555
C29 C28 1_555 1_555
C30 C29 1_555 1_555
C31 C30 1_555 1_555
C32 C31 1_555 1_555
C33 C24 1_555 1_555
C34 C27 1_555 1_555
H14 C26 1_555 1_555
H15 C25 1_555 1_555
H16 C32 1_555 1_555
H17 C31 1_555 1_555
H18 C30 1_555 1_555
H19 C29 1_555 1_555
H20 C18 1_555 1_555
H21 C18 1_555 1_555
H22 C19 1_555 1_555
H23 C19 1_555 1_555
H24 C21 1_555 1_555
H25 C20 1_555 1_555
H26 O4 1_555 1_555
N2 C6 1_555 1_555
C11 C16 1_555 1_555
C15 C16 1_555 1_555
N5 C23 1_555 1_555
C28 C33 1_555 1_555
C32 C33 1_555 1_555

#END
