
#######################################################################
#
#                 Cambridge Crystallographic Data Centre
#                                CCDC 
#
#######################################################################
#
# If this CIF has been generated from an entry in the Cambridge 
# Structural Database, then it will include bibliographic, chemical, 
# crystal, experimental, refinement or atomic coordinate data resulting 
# from the CCDC's data processing and validation procedures.
#
#######################################################################

data_QAMCEP
_chemical_formula_moiety         'C13 H15 Br1 Cl1 N3'
_chemical_name_systematic        
1-(4-Bromobenzyl)-5-(chloromethyl)-4-n-propyl-1H-1,2,3-triazole
_symmetry_cell_setting           orthorhombic
_symmetry_space_group_name_H-M   'P 21 21 21'
_symmetry_Int_Tables_number      19
_space_group_name_Hall           'P 2ac 2ab'
loop_
_symmetry_equiv_pos_site_id
_symmetry_equiv_pos_as_xyz
1 x,y,z
2 1/2-x,-y,1/2+z
3 1/2+x,1/2-y,-z
4 -x,1/2+y,1/2-z
_cell_length_a                   4.97124(9)
_cell_length_b                   11.18566(19)
_cell_length_c                   24.8084(4)
_cell_angle_alpha                90
_cell_angle_beta                 90
_cell_angle_gamma                90
_cell_volume                     1379.51
_exptl_crystal_colour            colorless
_exptl_crystal_description       plate
_cell_formula_units_Z            4
loop_
_atom_site_label
_atom_site_type_symbol
_atom_site_fract_x
_atom_site_fract_y
_atom_site_fract_z
Br1 Br 0.54475(7) 0.40688(3) 0.51325(2)
Cl1 Cl 0.84158(13) 0.58010(5) 0.15794(2)
N1 N 0.8517(4) 0.32962(17) 0.24256(8)
N2 N 0.8511(5) 0.21038(18) 0.23452(8)
N3 N 0.6662(5) 0.18789(18) 0.19790(8)
C1 C 0.6868(5) 0.3994(2) 0.44247(9)
C2 C 0.5829(6) 0.3175(2) 0.40624(10)
H1 H 0.4408 0.2655 0.4165
C3 C 0.6896(5) 0.3126(2) 0.35458(10)
H2 H 0.6206 0.2561 0.3295
C4 C 0.8955(5) 0.3889(2) 0.33892(9)
C5 C 0.9969(5) 0.4708(2) 0.37612(10)
H3 H 1.1379 0.5234 0.3658
C6 C 0.8936(6) 0.4761(2) 0.42798(10)
H4 H 0.9638 0.5317 0.4533
C7 C 1.0261(5) 0.3815(2) 0.28391(9)
H5 H 1.0796 0.4629 0.2725
H6 H 1.1916 0.3327 0.2867
C8 C 0.5479(5) 0.2920(2) 0.18231(9)
C9 C 0.6650(5) 0.3837(2) 0.21084(9)
C10 C 0.3346(5) 0.2969(2) 0.14011(10)
H7 H 0.1912 0.3521 0.1523
H8 H 0.2538 0.2165 0.1364
C11 C 0.4347(7) 0.3380(2) 0.08478(10)
H9 H 0.2795 0.3440 0.0599
H10 H 0.5147 0.4186 0.0883
C12 C 0.6423(6) 0.2539(3) 0.06064(11)
H11 H 0.7989 0.2493 0.0845
H12 H 0.6984 0.2841 0.0253
H13 H 0.5635 0.1741 0.0565
C13 C 0.6260(5) 0.5144(2) 0.20849(10)
H14 H 0.6672 0.5499 0.2441
H15 H 0.4358 0.5323 0.1998
loop_
_geom_bond_atom_site_label_1
_geom_bond_atom_site_label_2
_geom_bond_site_symmetry_1
_geom_bond_site_symmetry_2
Br1 C1 1_555 1_555
Cl1 C13 1_555 1_555
N1 N2 1_555 1_555
N2 N3 1_555 1_555
N3 C8 1_555 1_555
C1 C2 1_555 1_555
C2 H1 1_555 1_555
C3 C2 1_555 1_555
H2 C3 1_555 1_555
C4 C3 1_555 1_555
C5 C4 1_555 1_555
H3 C5 1_555 1_555
C6 C1 1_555 1_555
H4 C6 1_555 1_555
C7 N1 1_555 1_555
H5 C7 1_555 1_555
H6 C7 1_555 1_555
C8 C9 1_555 1_555
C9 N1 1_555 1_555
C10 C8 1_555 1_555
H7 C10 1_555 1_555
H8 C10 1_555 1_555
C11 C10 1_555 1_555
H9 C11 1_555 1_555
H10 C11 1_555 1_555
C12 C11 1_555 1_555
H11 C12 1_555 1_555
H12 C12 1_555 1_555
H13 C12 1_555 1_555
C13 C9 1_555 1_555
H14 C13 1_555 1_555
H15 C13 1_555 1_555
C4 C7 1_555 1_555
C5 C6 1_555 1_555

#END
