
#######################################################################
#
#                 Cambridge Crystallographic Data Centre
#                                CCDC 
#
#######################################################################
#
# If this CIF has been generated from an entry in the Cambridge 
# Structural Database, then it will include bibliographic, chemical, 
# crystal, experimental, refinement or atomic coordinate data resulting 
# from the CCDC's data processing and validation procedures.
#
#######################################################################

data_QAMCIT
_chemical_formula_moiety         'C17 H16 Cl1 F3 N4 O2'
_chemical_name_systematic        
5-(Chloromethyl)-1-(2-(3,5-dimethyl-1,2-oxazol-4-yl)ethyl)-4-(4-(trifluoromethoxy)phenyl)-1H-1,2,3-triazole
_symmetry_cell_setting           triclinic
_symmetry_space_group_name_H-M   'P -1'
_symmetry_Int_Tables_number      2
_space_group_name_Hall           '-P 1'
loop_
_symmetry_equiv_pos_site_id
_symmetry_equiv_pos_as_xyz
1 x,y,z
2 -x,-y,-z
_cell_length_a                   8.4909(7)
_cell_length_b                   10.1319(7)
_cell_length_c                   10.7186(7)
_cell_angle_alpha                89.877(5)
_cell_angle_beta                 76.283(6)
_cell_angle_gamma                89.798(6)
_cell_volume                     895.804
_exptl_crystal_colour            colorless
_exptl_crystal_description       plate
_cell_formula_units_Z            2
loop_
_atom_site_label
_atom_site_type_symbol
_atom_site_fract_x
_atom_site_fract_y
_atom_site_fract_z
Cl1 Cl 0.25639(7) 0.39927(5) 0.83404(6)
O1 O -0.22992(16) 0.71110(14) 0.52451(13)
N1 N -0.05769(18) 0.71064(15) 0.49391(14)
N2 N -0.1629(2) 0.31431(14) 0.90507(14)
N3 N -0.2815(2) 0.29622(17) 1.01176(16)
N4 N -0.2177(2) 0.23100(16) 1.09423(16)
C1 C -0.4594(3) 0.6401(3) 0.6885(3)
H1 H -0.5104 0.7245 0.6761
H2 H -0.4839 0.6185 0.7802
H3 H -0.5015 0.5705 0.6420
C2 C -0.2815(2) 0.65029(18) 0.63874(18)
C3 C -0.0164(2) 0.64990(16) 0.58936(15)
C4 C -0.1537(2) 0.60924(15) 0.68465(15)
C5 C 0.1581(2) 0.6331(2) 0.58772(19)
H4 H 0.2243 0.6775 0.5120
H5 H 0.1852 0.5389 0.5844
H6 H 0.1798 0.6719 0.6656
C6 C -0.1553(3) 0.53647(17) 0.80667(16)
H7 H -0.2367 0.5773 0.8778
H8 H -0.0478 0.5447 0.8267
C7 C -0.1952(3) 0.39038(17) 0.79760(17)
H9 H -0.3110 0.3813 0.7967
H10 H -0.1296 0.3541 0.7160
C8 C -0.0578(3) 0.20703(17) 1.04115(17)
C9 C -0.0215(3) 0.26035(17) 0.91840(16)
C10 C 0.1285(3) 0.2619(2) 0.81505(17)
H11 H 0.1003 0.2687 0.7308
H12 H 0.1885 0.1782 0.8166
C11 C 0.0431(3) 0.13483(17) 1.11223(17)
C12 C -0.0320(3) 0.06517(19) 1.22367(18)
H13 H -0.1468 0.0666 1.2526
C13 C 0.0593(3) -0.0054(2) 1.2916(2)
H14 H 0.0081 -0.0520 1.3672
C14 C 0.2248(4) -0.0075(2) 1.2488(2)
C15 C 0.3046(4) 0.0631(2) 1.1415(2)
H15 H 0.4196 0.0630 1.1146
C16 C 0.2107(3) 0.1342(2) 1.0746(2)
H16 H 0.2630 0.1836 1.0011
F1 F 0.2979(4) -0.0175(4) 1.4833(3)
F2 F 0.4833(15) -0.1545(11) 1.4255(11)
F3 F 0.5003(7) 0.0411(6) 1.3500(6)
O2 O 0.3369(7) -0.1082(4) 1.2913(4)
C17 C 0.4064(6) -0.0625(5) 1.3821(6)
F4? F 0.5423(6) 0.0012(5) 1.2890(6)
F5? F 0.4780(11) -0.1779(10) 1.3928(10)
F6? F 0.4783(5) -0.1574(4) 1.1927(4)
O3? O 0.2854(5) -0.0666(5) 1.3421(4)
C18? C 0.4415(7) -0.0960(5) 1.3061(6)
loop_
_geom_bond_atom_site_label_1
_geom_bond_atom_site_label_2
_geom_bond_site_symmetry_1
_geom_bond_site_symmetry_2
Cl1 C10 1_555 1_555
O1 N1 1_555 1_555
N1 C3 1_555 1_555
N2 N3 1_555 1_555
N3 N4 1_555 1_555
N4 C8 1_555 1_555
C1 H1 1_555 1_555
H2 C1 1_555 1_555
H3 C1 1_555 1_555
C2 O1 1_555 1_555
C3 C4 1_555 1_555
C4 C2 1_555 1_555
C5 C3 1_555 1_555
H4 C5 1_555 1_555
H5 C5 1_555 1_555
H6 C5 1_555 1_555
C6 C4 1_555 1_555
H7 C6 1_555 1_555
H8 C6 1_555 1_555
C7 N2 1_555 1_555
H9 C7 1_555 1_555
H10 C7 1_555 1_555
C8 C9 1_555 1_555
C9 N2 1_555 1_555
C10 C9 1_555 1_555
H11 C10 1_555 1_555
H12 C10 1_555 1_555
C11 C8 1_555 1_555
C12 C11 1_555 1_555
H13 C12 1_555 1_555
C13 C12 1_555 1_555
H14 C13 1_555 1_555
C14 C13 1_555 1_555
C15 C14 1_555 1_555
H15 C15 1_555 1_555
C16 C11 1_555 1_555
H16 C16 1_555 1_555
F1 C17 1_555 1_555
F2 C17 1_555 1_555
F3 C17 1_555 1_555
O2 C14 1_555 1_555
C17 O2 1_555 1_555
C1 C2 1_555 1_555
C6 C7 1_555 1_555
C15 C16 1_555 1_555

#END
