
#######################################################################
#
#                 Cambridge Crystallographic Data Centre
#                                CCDC 
#
#######################################################################
#
# If this CIF has been generated from an entry in the Cambridge 
# Structural Database, then it will include bibliographic, chemical, 
# crystal, experimental, refinement or atomic coordinate data resulting 
# from the CCDC's data processing and validation procedures.
#
#######################################################################

data_QAMKAS
_chemical_formula_moiety         'C22 H14'
_chemical_name_systematic        1,8-bis(p-tolyl)octa-1,3,5,7-tetrayne
_symmetry_cell_setting           monoclinic
_symmetry_space_group_name_H-M   'C 2/c'
_symmetry_Int_Tables_number      15
_space_group_name_Hall           '-C 2yn'
loop_
_symmetry_equiv_pos_site_id
_symmetry_equiv_pos_as_xyz
1 x,y,z
2 -x,y,1/2-z
3 1/2+x,1/2+y,z
4 1/2-x,1/2+y,1/2-z
5 -x,-y,-z
6 x,-y,1/2+z
7 1/2-x,1/2-y,-z
8 1/2+x,1/2-y,1/2+z
_cell_length_a                   7.529(3)
_cell_length_b                   17.983(8)
_cell_length_c                   11.677(6)
_cell_angle_alpha                90
_cell_angle_beta                 94.73(5)
_cell_angle_gamma                90
_cell_volume                     1575.61
_exptl_crystal_colour            colorless
_exptl_crystal_description       block
_cell_formula_units_Z            4
loop_
_atom_site_label
_atom_site_type_symbol
_atom_site_fract_x
_atom_site_fract_y
_atom_site_fract_z
C1 C 0.3186(2) 0.62502(12) 0.37546(16)
C2 C 0.3705(2) 0.62464(13) 0.47681(16)
C3 C 0.4262(2) 0.62464(12) 0.59069(17)
C4 C 0.4737(2) 0.62398(10) 0.69298(16)
C5 C 0.2559(2) 0.62491(13) 0.25611(16)
C6 C 0.2509(2) 0.55883(12) 0.19274(17)
H1 H 0.2897 0.5135 0.2284
C7 C 0.1891(2) 0.55979(12) 0.07772(17)
H2 H 0.1856 0.5147 0.0353
C8 C 0.1323(2) 0.62490(12) 0.02311(15)
C9 C 0.1381(2) 0.68987(12) 0.08697(17)
H3 H 0.0988 0.7350 0.0508
C10 C 0.1993(2) 0.69093(12) 0.20178(16)
H4 H 0.2029 0.7363 0.2435
C11 C 0.0673(2) 0.62576(14) -0.10238(15)
H5 H 0.1529 0.6527 -0.1458
H6 H -0.0489 0.6506 -0.1122
H7 H 0.0556 0.5746 -0.1308
C1A C 0.6814(2) 0.62502(12) 1.12454(16)
C2A C 0.6295(2) 0.62464(13) 1.02319(16)
C3A C 0.5738(2) 0.62464(12) 0.90931(17)
C4A C 0.5263(2) 0.62398(10) 0.80702(16)
C5A C 0.7441(2) 0.62491(13) 1.24389(16)
C6A C 0.7491(2) 0.55883(12) 1.30726(17)
H1A H 0.7103 0.5135 1.2716
C7A C 0.8109(2) 0.55979(12) 1.42228(17)
H2A H 0.8144 0.5147 1.4647
C8A C 0.8677(2) 0.62490(12) 1.47689(15)
C9A C 0.8619(2) 0.68987(12) 1.41303(17)
H3A H 0.9012 0.7350 1.4492
C10A C 0.8007(2) 0.69093(12) 1.29822(16)
H4A H 0.7971 0.7363 1.2565
C11A C 0.9327(2) 0.62576(14) 1.60238(15)
H5A H 0.8471 0.6527 1.6458
H6A H 1.0489 0.6506 1.6122
H7A H 0.9444 0.5746 1.6308
loop_
_geom_bond_atom_site_label_1
_geom_bond_atom_site_label_2
_geom_bond_site_symmetry_1
_geom_bond_site_symmetry_2
C1 C2 1_555 1_555
C2 C3 1_555 1_555
C3 C4 1_555 1_555
C4 C4A 1_555 1_555
C5 C1 1_555 1_555
C6 C5 1_555 1_555
H1 C6 1_555 1_555
C7 C6 1_555 1_555
H2 C7 1_555 1_555
C8 C7 1_555 1_555
C9 C8 1_555 1_555
H3 C9 1_555 1_555
C10 C5 1_555 1_555
H4 C10 1_555 1_555
C11 C8 1_555 1_555
H5 C11 1_555 1_555
H6 C11 1_555 1_555
H7 C11 1_555 1_555
C1A C2A 1_555 1_555
C2A C3A 1_555 1_555
C3A C4A 1_555 1_555
C5A C1A 1_555 1_555
C6A C5A 1_555 1_555
H1A C6A 1_555 1_555
C7A C6A 1_555 1_555
H2A C7A 1_555 1_555
C8A C7A 1_555 1_555
C9A C8A 1_555 1_555
H3A C9A 1_555 1_555
C10A C5A 1_555 1_555
H4A C10A 1_555 1_555
C11A C8A 1_555 1_555
H5A C11A 1_555 1_555
H6A C11A 1_555 1_555
H7A C11A 1_555 1_555
C9 C10 1_555 1_555
C9A C10A 1_555 1_555

#END
