
#######################################################################
#
#                 Cambridge Crystallographic Data Centre
#                                CCDC 
#
#######################################################################
#
# If this CIF has been generated from an entry in the Cambridge 
# Structural Database, then it will include bibliographic, chemical, 
# crystal, experimental, refinement or atomic coordinate data resulting 
# from the CCDC's data processing and validation procedures.
#
#######################################################################

data_QANCIT
_chemical_formula_moiety         'C17 H15 B1 Br2 F2 N2 O1'
_chemical_name_systematic        
(2-((2,5-Dibromo-3-furyl)(3,5-dimethyl-2H-pyrrol-2-ylidene)methyl)-3,5-dimethyl-1H-pyrrolato)(difluoro)boron
_symmetry_cell_setting           monoclinic
_symmetry_space_group_name_H-M   'P 21/n'
_symmetry_Int_Tables_number      14
_space_group_name_Hall           '-P 2yn'
loop_
_symmetry_equiv_pos_site_id
_symmetry_equiv_pos_as_xyz
1 x,y,z
2 1/2-x,1/2+y,1/2-z
3 -x,-y,-z
4 1/2+x,1/2-y,1/2+z
_cell_length_a                   8.6001(8)
_cell_length_b                   15.4805(16)
_cell_length_c                   14.0151(13)
_cell_angle_alpha                90
_cell_angle_beta                 105.276(6)
_cell_angle_gamma                90
_cell_volume                     1799.96
_exptl_crystal_colour            'dark red'
_exptl_crystal_description       platy
_cell_formula_units_Z            4
loop_
_atom_site_label
_atom_site_type_symbol
_atom_site_fract_x
_atom_site_fract_y
_atom_site_fract_z
B1 B 0.2492(9) 0.9406(5) 0.0653(6)
F1 F 0.4084(4) 0.9136(3) 0.1024(3)
F2 F 0.2262(5) 0.9614(3) -0.0344(3)
N1 N 0.2143(6) 1.0198(4) 0.1229(4)
N2 N 0.1344(6) 0.8680(4) 0.0780(4)
C1 C 0.2780(8) 1.0987(5) 0.1246(5)
C2 C 0.2256(8) 1.1510(5) 0.1915(5)
H1 H 0.2536 1.2085 0.2060
C3 C 0.1251(8) 1.1022(5) 0.2320(5)
C4 C 0.1176(7) 1.0186(5) 0.1899(4)
C5 C 0.0308(7) 0.9450(5) 0.1978(4)
C6 C 0.0363(7) 0.8694(4) 0.1435(5)
C7 C -0.0397(8) 0.7886(5) 0.1387(5)
C8 C 0.0116(9) 0.7403(5) 0.0704(6)
H2 H -0.0186 0.6837 0.0524
C9 C 0.1170(8) 0.7908(5) 0.0326(5)
O1 O -0.1623(5) 0.9319(3) 0.4042(3)
Br1 Br 0.15535(9) 0.88282(6) 0.44445(6)
Br2 Br -0.48170(9) 0.97622(6) 0.35933(6)
C10 C -0.0341(7) 0.9240(4) 0.3629(5)
C11 C -0.0765(7) 0.9453(4) 0.2665(5)
C12 C -0.2428(8) 0.9694(5) 0.2437(5)
H3 H -0.3068 0.9878 0.1828
C13 C -0.2880(8) 0.9600(5) 0.3284(5)
C14 C 0.0459(10) 1.1351(5) 0.3101(6)
H4 H 0.0661 1.1958 0.3200
H5 H 0.0898 1.1050 0.3711
H6 H -0.0682 1.1251 0.2884
C15 C 0.3903(9) 1.1230(5) 0.0641(6)
H7 H 0.4758 1.0814 0.0741
H8 H 0.4349 1.1791 0.0838
H9 H 0.3325 1.1242 -0.0046
C16 C -0.1566(9) 0.7558(6) 0.1944(6)
H10 H -0.2565 0.7867 0.1731
H11 H -0.1117 0.7645 0.2641
H12 H -0.1757 0.6953 0.1814
C17 C 0.2020(9) 0.7664(5) -0.0444(6)
H13 H 0.1918 0.8124 -0.0915
H14 H 0.1545 0.7148 -0.0777
H15 H 0.3140 0.7563 -0.0132
loop_
_geom_bond_atom_site_label_1
_geom_bond_atom_site_label_2
_geom_bond_site_symmetry_1
_geom_bond_site_symmetry_2
B1 F1 1_555 1_555
F2 B1 1_555 1_555
N1 B1 1_555 1_555
N2 B1 1_555 1_555
C1 N1 1_555 1_555
C2 C1 1_555 1_555
H1 C2 1_555 1_555
C3 C2 1_555 1_555
C4 N1 1_555 1_555
C5 C4 1_555 1_555
C6 N2 1_555 1_555
C7 C6 1_555 1_555
C8 C7 1_555 1_555
H2 C8 1_555 1_555
C9 N2 1_555 1_555
O1 C10 1_555 1_555
Br1 C10 1_555 1_555
Br2 C13 1_555 1_555
C10 C11 1_555 1_555
C11 C5 1_555 1_555
C12 C11 1_555 1_555
H3 C12 1_555 1_555
C13 O1 1_555 1_555
C14 C3 1_555 1_555
H4 C14 1_555 1_555
H5 C14 1_555 1_555
H6 C14 1_555 1_555
C15 C1 1_555 1_555
H7 C15 1_555 1_555
H8 C15 1_555 1_555
H9 C15 1_555 1_555
C16 C7 1_555 1_555
H10 C16 1_555 1_555
H11 C16 1_555 1_555
H12 C16 1_555 1_555
C17 C9 1_555 1_555
H13 C17 1_555 1_555
H14 C17 1_555 1_555
H15 C17 1_555 1_555
C3 C4 1_555 1_555
C5 C6 1_555 1_555
C8 C9 1_555 1_555
C12 C13 1_555 1_555

#END
