
#######################################################################
#
#                 Cambridge Crystallographic Data Centre
#                                CCDC 
#
#######################################################################
#
# If this CIF has been generated from an entry in the Cambridge 
# Structural Database, then it will include bibliographic, chemical, 
# crystal, experimental, refinement or atomic coordinate data resulting 
# from the CCDC's data processing and validation procedures.
#
#######################################################################

data_QANWEI
_chemical_formula_moiety         'C20 H22 Cl1 N1 O3'
_chemical_name_systematic        
'Methyl 2,7,7-trimethyl-5-oxo-4-(3-chlorophenyl)-1,4,5,6,7,8-hexahydroquinoline-3-carboxylate'
_symmetry_cell_setting           monoclinic
_symmetry_space_group_name_H-M   'P 21/n'
_symmetry_Int_Tables_number      14
_space_group_name_Hall           '-P 2yn'
loop_
_symmetry_equiv_pos_site_id
_symmetry_equiv_pos_as_xyz
1 x,y,z
2 1/2-x,1/2+y,1/2-z
3 -x,-y,-z
4 1/2+x,1/2-y,1/2+z
_cell_length_a                   9.2293(17)
_cell_length_b                   16.506(3)
_cell_length_c                   12.354(2)
_cell_angle_alpha                90
_cell_angle_beta                 107.286(4)
_cell_angle_gamma                90
_cell_volume                     1796.99
_exptl_crystal_colour            'light yellow'
_exptl_crystal_description       block
_chemical_melting_point          '481-483 K'
_cell_formula_units_Z            4
_exptl_crystal_recrystallization_method ethanol
loop_
_atom_site_label
_atom_site_type_symbol
_atom_site_fract_x
_atom_site_fract_y
_atom_site_fract_z
Cl1 Cl 0.42561(8) 0.83658(5) 0.97230(5)
O1 O 0.74803(15) 0.84424(8) 0.63521(10)
O2 O 0.39170(17) 0.51038(8) 0.62478(12)
O3 O 0.53551(16) 0.59756(8) 0.74972(11)
N1 N 0.37375(17) 0.69091(9) 0.37348(12)
H1 H 0.3103 0.6883 0.3045
C1 C 0.47526(19) 0.75342(10) 0.40013(14)
C2 C 0.55465(18) 0.76813(10) 0.50995(13)
C3 C 0.52104(19) 0.72203(10) 0.60563(13)
H2 H 0.6194 0.7103 0.6647
C4 C 0.44457(19) 0.64163(10) 0.56190(14)
C5 C 0.3670(2) 0.63121(10) 0.45127(15)
C6 C 0.67119(19) 0.82958(10) 0.53680(14)
C7 C 0.7018(2) 0.87509(12) 0.43979(15)
H3 H 0.7811 0.8459 0.4161
H4 H 0.7424 0.9293 0.4670
C8 C 0.5620(2) 0.88561(11) 0.33615(14)
C9 C 0.4937(2) 0.80157(11) 0.30207(14)
H5 H 0.3933 0.8078 0.2448
H6 H 0.5599 0.7712 0.2663
C10 C 0.4216(2) 0.77125(10) 0.66031(14)
C11 C 0.4642(2) 0.78227(12) 0.77730(15)
H7 H 0.5571 0.7604 0.8238
C12 C 0.3703(3) 0.82533(12) 0.82534(17)
C13 C 0.2352(3) 0.85818(12) 0.76177(18)
H8 H 0.1732 0.8882 0.7965
C14 C 0.1919(3) 0.84636(12) 0.64544(18)
H9 H 0.0981 0.8677 0.5997
C15 C 0.2844(2) 0.80368(12) 0.59544(16)
H10 H 0.2535 0.7965 0.5155
C16 C 0.4504(2) 0.57638(11) 0.64373(15)
C17 C 0.5478(3) 0.53704(13) 0.83609(17)
H11 H 0.4465 0.5241 0.8414
H12 H 0.6110 0.5579 0.9092
H13 H 0.5944 0.4880 0.8165
C18 C 0.2688(2) 0.56078(11) 0.39892(16)
H14 H 0.3294 0.5110 0.4132
H15 H 0.2274 0.5694 0.3170
H16 H 0.1852 0.5559 0.4323
C19 C 0.4459(3) 0.94103(12) 0.36408(17)
H17 H 0.3544 0.9438 0.2988
H18 H 0.4891 0.9954 0.3817
H19 H 0.4196 0.9195 0.4297
C20 C 0.6085(3) 0.92225(14) 0.23794(16)
H20 H 0.5184 0.9292 0.1724
H21 H 0.6804 0.8860 0.2177
H22 H 0.6564 0.9750 0.2607
loop_
_geom_bond_atom_site_label_1
_geom_bond_atom_site_label_2
_geom_bond_site_symmetry_1
_geom_bond_site_symmetry_2
Cl1 C12 1_555 1_555
O1 C6 1_555 1_555
O2 C16 1_555 1_555
O3 C16 1_555 1_555
N1 H1 1_555 1_555
C1 N1 1_555 1_555
C2 C1 1_555 1_555
C3 C2 1_555 1_555
H2 C3 1_555 1_555
C4 C3 1_555 1_555
C5 N1 1_555 1_555
C6 C2 1_555 1_555
C7 C6 1_555 1_555
H3 C7 1_555 1_555
H4 C7 1_555 1_555
C8 C7 1_555 1_555
C9 C1 1_555 1_555
H5 C9 1_555 1_555
H6 C9 1_555 1_555
C10 C3 1_555 1_555
C11 C10 1_555 1_555
H7 C11 1_555 1_555
C12 C11 1_555 1_555
C13 C12 1_555 1_555
H8 C13 1_555 1_555
C14 C13 1_555 1_555
H9 C14 1_555 1_555
C15 C10 1_555 1_555
H10 C15 1_555 1_555
C16 C4 1_555 1_555
C17 O3 1_555 1_555
H11 C17 1_555 1_555
H12 C17 1_555 1_555
H13 C17 1_555 1_555
C18 C5 1_555 1_555
H14 C18 1_555 1_555
H15 C18 1_555 1_555
H16 C18 1_555 1_555
C19 C8 1_555 1_555
H17 C19 1_555 1_555
H18 C19 1_555 1_555
H19 C19 1_555 1_555
C20 C8 1_555 1_555
H20 C20 1_555 1_555
H21 C20 1_555 1_555
H22 C20 1_555 1_555
C4 C5 1_555 1_555
C8 C9 1_555 1_555
C14 C15 1_555 1_555

#END
