
#######################################################################
#
#                 Cambridge Crystallographic Data Centre
#                                CCDC 
#
#######################################################################
#
# If this CIF has been generated from an entry in the Cambridge 
# Structural Database, then it will include bibliographic, chemical, 
# crystal, experimental, refinement or atomic coordinate data resulting 
# from the CCDC's data processing and validation procedures.
#
#######################################################################

data_QAPDUJ
_chemical_formula_moiety         'C20 H19 N1 O2 S2'
_chemical_name_systematic        
14-((4-methylphenyl)sulfonyl)-9-thia-14-azatetracyclo[10.2.1.0^2,10^.0^3,8^]pentadeca-2(10),3,5,7-tetraene
_symmetry_cell_setting           monoclinic
_symmetry_space_group_name_H-M   'C 2/c'
_symmetry_Int_Tables_number      15
_space_group_name_Hall           '-C 2yn'
loop_
_symmetry_equiv_pos_site_id
_symmetry_equiv_pos_as_xyz
1 x,y,z
2 -x,y,1/2-z
3 1/2+x,1/2+y,z
4 1/2-x,1/2+y,1/2-z
5 -x,-y,-z
6 x,-y,1/2+z
7 1/2-x,1/2-y,-z
8 1/2+x,1/2-y,1/2+z
_cell_length_a                   25.934(5)
_cell_length_b                   8.1289(14)
_cell_length_c                   17.387(3)
_cell_angle_alpha                90
_cell_angle_beta                 104.645(3)
_cell_angle_gamma                90
_cell_volume                     3546.35
_exptl_crystal_colour            colorless
_exptl_crystal_description       prismatic
_cell_formula_units_Z            8
loop_
_atom_site_label
_atom_site_type_symbol
_atom_site_fract_x
_atom_site_fract_y
_atom_site_fract_z
S1 S -0.02744(4) 0.82197(16) 0.04838(6)
S2 S 0.17061(3) 0.46685(11) 0.21558(5)
N1 N 0.12917(9) 0.6182(3) 0.19662(14)
O1 O 0.20502(10) 0.4860(3) 0.16409(15)
O2 O 0.13948(9) 0.3216(3) 0.21194(15)
C1 C -0.04188(13) 0.6170(6) 0.05788(19)
C2 C -0.08291(15) 0.5251(8) 0.0115(2)
H1 H -0.1072 0.5739 -0.0310
C3 C -0.08764(16) 0.3654(8) 0.0279(3)
H2 H -0.1154 0.3043 -0.0037
C4 C -0.05185(16) 0.2891(6) 0.0912(3)
H3 H -0.0561 0.1785 0.1019
C5 C -0.00992(13) 0.3778(5) 0.1382(2)
H4 H 0.0144 0.3270 0.1800
C6 C -0.00465(12) 0.5434(4) 0.12216(17)
C7 C 0.03453(12) 0.6587(4) 0.16146(17)
C8 C 0.02789(13) 0.8107(4) 0.12871(19)
C9 C 0.06397(17) 0.9525(5) 0.1582(3)
H5 H 0.0446 1.0370 0.1786
H6 H 0.0762 0.9993 0.1146
C10 C 0.11154(15) 0.8974(4) 0.2233(2)
H7 H 0.1304 0.9925 0.2518
C11 C 0.09311(14) 0.7814(4) 0.28083(19)
H8 H 0.1209 0.7631 0.3291
H9 H 0.0614 0.8221 0.2943
C12 C 0.08178(11) 0.6279(4) 0.23001(17)
H10 H 0.0775 0.5298 0.2606
C13 C 0.14981(14) 0.7878(4) 0.1931(2)
H11 H 0.1500 0.8167 0.1391
H12 H 0.1858 0.7978 0.2267
C14 C 0.21002(11) 0.4883(4) 0.31367(19)
C15 C 0.19249(13) 0.4256(5) 0.3762(2)
H13 H 0.1603 0.3691 0.3668
C16 C 0.22288(14) 0.4471(5) 0.4527(2)
H14 H 0.2108 0.4051 0.4948
C17 C 0.27078(13) 0.5297(4) 0.4683(2)
C18 C 0.28719(13) 0.5919(4) 0.4051(2)
H15 H 0.3193 0.6489 0.4145
C19 C 0.25748(12) 0.5721(4) 0.3285(2)
H16 H 0.2694 0.6154 0.2866
C20 C 0.30382(16) 0.5520(6) 0.5524(2)
H17 H 0.3404 0.5690 0.5522
H18 H 0.3010 0.4554 0.5829
H19 H 0.2911 0.6457 0.5757
loop_
_geom_bond_atom_site_label_1
_geom_bond_atom_site_label_2
_geom_bond_site_symmetry_1
_geom_bond_site_symmetry_2
S1 C1 1_555 1_555
S2 N1 1_555 1_555
N1 C12 1_555 1_555
O1 S2 1_555 1_555
O2 S2 1_555 1_555
C1 C2 1_555 1_555
C2 H1 1_555 1_555
C3 C2 1_555 1_555
H2 C3 1_555 1_555
C4 C3 1_555 1_555
H3 C4 1_555 1_555
C5 C4 1_555 1_555
H4 C5 1_555 1_555
C6 C1 1_555 1_555
C7 C6 1_555 1_555
C8 S1 1_555 1_555
C9 C8 1_555 1_555
H5 C9 1_555 1_555
H6 C9 1_555 1_555
C10 C9 1_555 1_555
H7 C10 1_555 1_555
C11 C10 1_555 1_555
H8 C11 1_555 1_555
H9 C11 1_555 1_555
C12 C7 1_555 1_555
H10 C12 1_555 1_555
C13 N1 1_555 1_555
H11 C13 1_555 1_555
H12 C13 1_555 1_555
C14 S2 1_555 1_555
C15 C14 1_555 1_555
H13 C15 1_555 1_555
C16 C15 1_555 1_555
H14 C16 1_555 1_555
C17 C16 1_555 1_555
C18 C17 1_555 1_555
H15 C18 1_555 1_555
C19 C14 1_555 1_555
H16 C19 1_555 1_555
C20 C17 1_555 1_555
H17 C20 1_555 1_555
H18 C20 1_555 1_555
H19 C20 1_555 1_555
C5 C6 1_555 1_555
C7 C8 1_555 1_555
C10 C13 1_555 1_555
C11 C12 1_555 1_555
C18 C19 1_555 1_555

#END
