
#######################################################################
#
#                 Cambridge Crystallographic Data Centre
#                                CCDC 
#
#######################################################################
#
# If this CIF has been generated from an entry in the Cambridge 
# Structural Database, then it will include bibliographic, chemical, 
# crystal, experimental, refinement or atomic coordinate data resulting 
# from the CCDC's data processing and validation procedures.
#
#######################################################################

data_QAPDAM
_chemical_formula_moiety         'C35 H43 N1 Si3'
_chemical_name_systematic        
1-(bis(Trimethylsilyl)amido)-2-methyl-2,3,4,5-tetraphenyl-1-silacyclopent-3-ene
_symmetry_cell_setting           triclinic
_symmetry_space_group_name_H-M   'P -1'
_symmetry_Int_Tables_number      2
_space_group_name_Hall           '-P 1'
loop_
_symmetry_equiv_pos_site_id
_symmetry_equiv_pos_as_xyz
1 x,y,z
2 -x,-y,-z
_cell_length_a                   9.8100(5)
_cell_length_b                   10.7711(6)
_cell_length_c                   18.0967(10)
_cell_angle_alpha                75.9630(10)
_cell_angle_beta                 83.1180(10)
_cell_angle_gamma                63.8640(10)
_cell_volume                     1665.21
_chemical_melting_point          177-178deg.C
_cell_formula_units_Z            2
_exptl_crystal_recrystallization_method pentane/methanol
loop_
_atom_site_label
_atom_site_type_symbol
_atom_site_fract_x
_atom_site_fract_y
_atom_site_fract_z
Si1 Si 0.8728(1) 0.1405(1) 0.2703(1)
Si2 Si 0.5926(1) 0.3986(1) 0.2342(1)
Si3 Si 0.7543(1) 0.2529(1) 0.1032(1)
N1 N 0.7495(2) 0.2623(2) 0.1996(1)
C1 C 1.0800(2) 0.1087(2) 0.2712(1)
C2 C 1.1347(2) -0.0318(2) 0.3311(1)
C3 C 1.0530(2) -0.1078(2) 0.3453(1)
C4 C 0.9050(2) -0.0518(2) 0.3025(1)
C5 C 1.0877(3) 0.2250(2) 0.3041(1)
C6 C 1.1644(2) 0.0975(2) 0.1951(1)
C7 C 1.2493(2) -0.0308(2) 0.1734(1)
C8 C 1.3203(2) -0.0377(3) 0.1025(1)
C9 C 1.3069(3) 0.0839(4) 0.0514(1)
C10 C 1.2253(3) 0.2115(3) 0.0714(2)
C11 C 1.1551(3) 0.2192(3) 0.1423(1)
C12 C 1.2684(2) -0.0698(2) 0.3787(1)
C13 C 1.4139(2) -0.0998(2) 0.3478(1)
C14 C 1.5353(2) -0.1395(3) 0.3945(1)
C15 C 1.5140(2) -0.1474(2) 0.4714(1)
C16 C 1.3700(3) -0.1148(2) 0.5025(1)
C17 C 1.2486(2) -0.0767(2) 0.4566(1)
C18 C 1.0952(2) -0.2406(2) 0.4055(1)
C19 C 1.2420(3) -0.3494(2) 0.4086(2)
C20 C 1.2842(3) -0.4669(2) 0.4683(2)
C21 C 1.1820(4) -0.4786(3) 0.5244(2)
C22 C 1.0349(4) -0.3744(3) 0.5215(1)
C23 C 0.9915(3) -0.2560(2) 0.4620(1)
C24 C 0.8988(2) -0.1398(2) 0.2506(1)
C25 C 1.0266(3) -0.2518(3) 0.2301(1)
C26 C 1.0146(4) -0.3297(3) 0.1823(2)
C27 C 0.8773(4) -0.2986(4) 0.1544(2)
C28 C 0.7497(4) -0.1892(4) 0.1745(2)
C29 C 0.7599(3) -0.1107(3) 0.2218(1)
C30 C 0.4584(3) 0.3267(3) 0.2853(2)
C31 C 0.6513(3) 0.4795(3) 0.2972(2)
C32 C 0.4872(4) 0.5523(3) 0.1561(2)
C33 C 0.7827(3) 0.4050(3) 0.0396(2)
C34 C 0.5731(3) 0.2539(3) 0.0799(2)
C35 C 0.9089(2) 0.0899(2) 0.0798(1)
H1 H 0.8277 -0.0522 0.3421
H2 H 1.0336 0.2302 0.3519
H3 H 1.0425 0.3146 0.2691
H4 H 1.1919 0.2026 0.3118
H5 H 1.2588 -0.1142 0.2073
H6 H 1.3771 -0.1251 0.0896
H7 H 1.3531 0.0796 0.0036
H8 H 1.2167 0.2942 0.0371
H9 H 1.1007 0.3071 0.1549
H10 H 1.4297 -0.0933 0.2956
H11 H 1.6321 -0.1610 0.3734
H12 H 1.5957 -0.1744 0.5024
H13 H 1.3545 -0.1185 0.5545
H14 H 1.1522 -0.0553 0.4783
H15 H 1.3121 -0.3429 0.3702
H16 H 1.3827 -0.5382 0.4701
H17 H 1.2114 -0.5570 0.5647
H18 H 0.9650 -0.3834 0.5594
H19 H 0.8921 -0.1865 0.4601
H20 H 1.1211 -0.2747 0.2487
H21 H 1.1013 -0.4041 0.1691
H22 H 0.8703 -0.3508 0.1222
H23 H 0.6556 -0.1679 0.1560
H24 H 0.6723 -0.0370 0.2347
H25 H 0.4292 0.2856 0.2520
H26 H 0.3699 0.4017 0.3009
H27 H 0.5068 0.2555 0.3293
H28 H 0.7205 0.5161 0.2700
H29 H 0.7003 0.4089 0.3414
H30 H 0.5633 0.5551 0.3128
H31 H 0.4519 0.5203 0.1204
H32 H 0.5538 0.5934 0.1303
H33 H 0.4021 0.6220 0.1774
H34 H 0.7046 0.4923 0.0498
H35 H 0.7779 0.4024 -0.0127
H36 H 0.8802 0.3984 0.0489
H37 H 0.4887 0.3371 0.0909
H38 H 0.5640 0.1712 0.1099
H39 H 0.5734 0.2541 0.0268
H40 H 1.0050 0.0842 0.0909
H41 H 0.9056 0.0922 0.0267
H42 H 0.8962 0.0088 0.1097
H43 H 0.8160(20) 0.1850(20) 0.3367(12)
loop_
_geom_bond_atom_site_label_1
_geom_bond_atom_site_label_2
_geom_bond_site_symmetry_1
_geom_bond_site_symmetry_2
Si1 N1 1_555 1_555
Si2 N1 1_555 1_555
Si3 N1 1_555 1_555
C1 Si1 1_555 1_555
C2 C1 1_555 1_555
C3 C2 1_555 1_555
C4 Si1 1_555 1_555
C5 C1 1_555 1_555
C6 C1 1_555 1_555
C7 C6 1_555 1_555
C8 C7 1_555 1_555
C9 C8 1_555 1_555
C10 C9 1_555 1_555
C11 C6 1_555 1_555
C12 C2 1_555 1_555
C13 C12 1_555 1_555
C14 C13 1_555 1_555
C15 C14 1_555 1_555
C16 C15 1_555 1_555
C17 C12 1_555 1_555
C18 C3 1_555 1_555
C19 C18 1_555 1_555
C20 C19 1_555 1_555
C21 C20 1_555 1_555
C22 C21 1_555 1_555
C23 C18 1_555 1_555
C24 C4 1_555 1_555
C25 C24 1_555 1_555
C26 C25 1_555 1_555
C27 C26 1_555 1_555
C28 C27 1_555 1_555
C29 C24 1_555 1_555
C30 Si2 1_555 1_555
C31 Si2 1_555 1_555
C32 Si2 1_555 1_555
C33 Si3 1_555 1_555
C34 Si3 1_555 1_555
C35 Si3 1_555 1_555
H1 C4 1_555 1_555
H2 C5 1_555 1_555
H3 C5 1_555 1_555
H4 C5 1_555 1_555
H5 C7 1_555 1_555
H6 C8 1_555 1_555
H7 C9 1_555 1_555
H8 C10 1_555 1_555
H9 C11 1_555 1_555
H10 C13 1_555 1_555
H11 C14 1_555 1_555
H12 C15 1_555 1_555
H13 C16 1_555 1_555
H14 C17 1_555 1_555
H15 C19 1_555 1_555
H16 C20 1_555 1_555
H17 C21 1_555 1_555
H18 C22 1_555 1_555
H19 C23 1_555 1_555
H20 C25 1_555 1_555
H21 C26 1_555 1_555
H22 C27 1_555 1_555
H23 C28 1_555 1_555
H24 C29 1_555 1_555
H25 C30 1_555 1_555
H26 C30 1_555 1_555
H27 C30 1_555 1_555
H28 C31 1_555 1_555
H29 C31 1_555 1_555
H30 C31 1_555 1_555
H31 C32 1_555 1_555
H32 C32 1_555 1_555
H33 C32 1_555 1_555
H34 C33 1_555 1_555
H35 C33 1_555 1_555
H36 C33 1_555 1_555
H37 C34 1_555 1_555
H38 C34 1_555 1_555
H39 C34 1_555 1_555
H40 C35 1_555 1_555
H41 C35 1_555 1_555
H42 C35 1_555 1_555
H43 Si1 1_555 1_555
C3 C4 1_555 1_555
C10 C11 1_555 1_555
C16 C17 1_555 1_555
C22 C23 1_555 1_555
C28 C29 1_555 1_555

#END
