
#######################################################################
#
#                 Cambridge Crystallographic Data Centre
#                                CCDC 
#
#######################################################################
#
# If this CIF has been generated from an entry in the Cambridge 
# Structural Database, then it will include bibliographic, chemical, 
# crystal, experimental, refinement or atomic coordinate data resulting 
# from the CCDC's data processing and validation procedures.
#
#######################################################################

data_QAPGEW
_chemical_formula_moiety         'C27 H26 N2 O2 S1'
_chemical_name_systematic        
3-benzyl-14-((4-methylphenyl)sulfonyl)-3,14-diazatetracyclo[10.2.1.0^2,10^.0^4,9^]pentadeca-2(10),4,6,8-tetraene
_symmetry_cell_setting           orthorhombic
_symmetry_space_group_name_H-M   'P b c a'
_symmetry_Int_Tables_number      61
_space_group_name_Hall           '-P 2ac 2ab'
loop_
_symmetry_equiv_pos_site_id
_symmetry_equiv_pos_as_xyz
1 x,y,z
2 1/2-x,-y,1/2+z
3 -x,1/2+y,1/2-z
4 1/2+x,1/2-y,-z
5 -x,-y,-z
6 1/2+x,y,1/2-z
7 x,1/2-y,1/2+z
8 1/2-x,1/2+y,z
_cell_length_a                   14.945(2)
_cell_length_b                   16.857(3)
_cell_length_c                   18.059(3)
_cell_angle_alpha                90
_cell_angle_beta                 90
_cell_angle_gamma                90
_cell_volume                     4549.57
_exptl_crystal_colour            colorless
_exptl_crystal_description       prismatic
_cell_formula_units_Z            8
loop_
_atom_site_label
_atom_site_type_symbol
_atom_site_fract_x
_atom_site_fract_y
_atom_site_fract_z
S1 S 0.27286(5) 0.11237(4) 0.28330(4)
N1 N 0.03586(14) 0.22103(12) 0.40148(11)
N2 N 0.22585(14) 0.19672(12) 0.30098(11)
O1 O 0.21910(13) 0.05373(11) 0.31970(12)
O2 O 0.28568(14) 0.10944(13) 0.20489(11)
C1 C -0.03101(17) 0.27693(16) 0.39373(13)
C2 C -0.12117(18) 0.27265(18) 0.41191(14)
H1 H -0.1461 0.2265 0.4311
C3 C -0.1721(2) 0.3396(2) 0.40031(17)
H2 H -0.2326 0.3387 0.4125
C4 C -0.1358(2) 0.4075(2) 0.37123(18)
H3 H -0.1725 0.4513 0.3636
C5 C -0.0467(2) 0.41259(17) 0.35313(15)
H4 H -0.0233 0.4589 0.3330
C6 C 0.00819(18) 0.34639(15) 0.36574(13)
C7 C 0.10148(18) 0.33121(14) 0.35742(13)
C8 C 0.17772(19) 0.38219(15) 0.33188(16)
H5 H 0.1865 0.4255 0.3665
H6 H 0.1638 0.4046 0.2838
C9 C 0.26306(19) 0.33308(16) 0.32669(16)
H7 H 0.3152 0.3677 0.3203
C10 C 0.2602(2) 0.27012(17) 0.26527(15)
H8 H 0.2207 0.2867 0.2255
H9 H 0.3195 0.2613 0.2451
C11 C 0.27394(17) 0.28166(15) 0.39549(14)
H10 H 0.3338 0.2599 0.3993
H11 H 0.2597 0.3106 0.4404
C12 C 0.20497(16) 0.21779(15) 0.37908(13)
H12 H 0.2092 0.1724 0.4128
C13 C 0.11555(17) 0.25563(14) 0.37975(12)
C14 C 0.02411(18) 0.13685(15) 0.41655(15)
H13 H 0.0571 0.1069 0.3797
H14 H -0.0387 0.1238 0.4109
C15 C 0.05414(17) 0.11083(16) 0.49218(17)
C16 C 0.10912(19) 0.04542(18) 0.49945(19)
H15 H 0.1306 0.0201 0.4573
C17 C 0.1325(2) 0.0173(2) 0.5681(3)
H16 H 0.1696 -0.0268 0.5721
C18 C 0.1023(3) 0.0529(3) 0.6290(2)
H17 H 0.1179 0.0329 0.6752
C19 C 0.0486(3) 0.1188(3) 0.6246(2)
H18 H 0.0283 0.1434 0.6676
C20 C 0.0245(2) 0.1488(2) 0.55465(19)
H19 H -0.0111 0.1939 0.5509
C21 C 0.37834(17) 0.11323(15) 0.32584(15)
C22 C 0.4521(2) 0.14113(18) 0.28727(16)
H20 H 0.4470 0.1549 0.2376
C23 C 0.5329(2) 0.1483(2) 0.3232(2)
H21 H 0.5824 0.1665 0.2970
C24 C 0.54231(19) 0.12907(19) 0.39677(19)
C25 C 0.4688(2) 0.10083(16) 0.43398(16)
H22 H 0.4742 0.0871 0.4837
C26 C 0.38750(19) 0.09237(15) 0.39951(16)
H23 H 0.3387 0.0726 0.4256
C27 C 0.6313(2) 0.1382(2) 0.4358(2)
H24 H 0.6781 0.1431 0.3997
H25 H 0.6422 0.0925 0.4662
H26 H 0.6300 0.1849 0.4663
loop_
_geom_bond_atom_site_label_1
_geom_bond_atom_site_label_2
_geom_bond_site_symmetry_1
_geom_bond_site_symmetry_2
S1 N2 1_555 1_555
N1 C1 1_555 1_555
N2 C10 1_555 1_555
O1 S1 1_555 1_555
O2 S1 1_555 1_555
C1 C2 1_555 1_555
C2 H1 1_555 1_555
C3 C2 1_555 1_555
H2 C3 1_555 1_555
C4 C3 1_555 1_555
H3 C4 1_555 1_555
C5 C4 1_555 1_555
H4 C5 1_555 1_555
C6 C1 1_555 1_555
C7 C6 1_555 1_555
C8 C7 1_555 1_555
H5 C8 1_555 1_555
H6 C8 1_555 1_555
C9 C8 1_555 1_555
H7 C9 1_555 1_555
C10 C9 1_555 1_555
H8 C10 1_555 1_555
H9 C10 1_555 1_555
C11 C9 1_555 1_555
H10 C11 1_555 1_555
H11 C11 1_555 1_555
C12 N2 1_555 1_555
H12 C12 1_555 1_555
C13 N1 1_555 1_555
C14 N1 1_555 1_555
H13 C14 1_555 1_555
H14 C14 1_555 1_555
C15 C14 1_555 1_555
C16 C15 1_555 1_555
H15 C16 1_555 1_555
C17 C16 1_555 1_555
H16 C17 1_555 1_555
C18 C17 1_555 1_555
H17 C18 1_555 1_555
C19 C18 1_555 1_555
H18 C19 1_555 1_555
C20 C15 1_555 1_555
H19 C20 1_555 1_555
C21 S1 1_555 1_555
C22 C21 1_555 1_555
H20 C22 1_555 1_555
C23 C22 1_555 1_555
H21 C23 1_555 1_555
C24 C23 1_555 1_555
C25 C24 1_555 1_555
H22 C25 1_555 1_555
C26 C21 1_555 1_555
H23 C26 1_555 1_555
C27 C24 1_555 1_555
H24 C27 1_555 1_555
H25 C27 1_555 1_555
H26 C27 1_555 1_555
C5 C6 1_555 1_555
C7 C13 1_555 1_555
C11 C12 1_555 1_555
C12 C13 1_555 1_555
C19 C20 1_555 1_555
C25 C26 1_555 1_555

#END
