
#######################################################################
#
#                 Cambridge Crystallographic Data Centre
#                                CCDC 
#
#######################################################################
#
# If this CIF has been generated from an entry in the Cambridge 
# Structural Database, then it will include bibliographic, chemical, 
# crystal, experimental, refinement or atomic coordinate data resulting 
# from the CCDC's data processing and validation procedures.
#
#######################################################################

data_QAPGIY
_chemical_name_common            bis(4-Methoxycarbonylbenzo)-24-crown-8
_chemical_formula_moiety         'C28 H36 O12'
_chemical_name_systematic        
'Dimethyl 6,7,9,10,12,13,20,21,23,24,26,27-dodecahydrodibenzo(b,n)(1,4,7,10,13,16,19,22)octaoxacyclotetracosine-2,16-dicarboxylate'
_symmetry_cell_setting           monoclinic
_symmetry_space_group_name_H-M   'P 21/c'
_symmetry_Int_Tables_number      14
_space_group_name_Hall           '-P 2ybc'
loop_
_symmetry_equiv_pos_site_id
_symmetry_equiv_pos_as_xyz
1 x,y,z
2 -x,1/2+y,1/2-z
3 -x,-y,-z
4 x,1/2-y,1/2+z
_cell_length_a                   13.8926(14)
_cell_length_b                   12.4235(11)
_cell_length_c                   8.2043(8)
_cell_angle_alpha                90
_cell_angle_beta                 105.243(9)
_cell_angle_gamma                90
_cell_volume                     1366.2
_exptl_crystal_colour            colorless
_exptl_crystal_description       'hexagonal plate'
_cell_formula_units_Z            2
_exptl_crystal_recrystallization_method chloroform/pentane
loop_
_atom_site_label
_atom_site_type_symbol
_atom_site_fract_x
_atom_site_fract_y
_atom_site_fract_z
O1 O 0.73535(11) 0.79696(12) 0.16967(18)
O2 O 0.52104(12) 0.73255(15) 0.1453(2)
O3 O 0.33518(11) 0.85119(12) 0.06535(19)
O4 O 0.79786(11) 0.97228(12) 0.06483(19)
O5 O 1.18478(12) 0.87043(13) 0.5775(2)
O6 O 1.16237(12) 1.00899(14) 0.3960(2)
C1 C 0.83105(16) 0.82313(17) 0.2463(3)
C2 C 0.89459(17) 0.76288(18) 0.3725(3)
H1 H 0.8715 0.6980 0.4106
C3 C 0.99194(16) 0.79735(17) 0.4431(3)
H2 H 1.0348 0.7566 0.5307
C4 C 1.02673(16) 0.89141(17) 0.3857(2)
C5 C 0.96295(15) 0.95223(17) 0.2586(3)
H3 H 0.9864 1.0164 0.2190
C6 C 0.86587(15) 0.91864(16) 0.1907(2)
C7 C 0.69985(16) 0.69358(16) 0.2086(3)
H4 H 0.6980 0.6918 0.3284
H5 H 0.7455 0.6361 0.1909
C8 C 0.59711(17) 0.67502(18) 0.0957(3)
H6 H 0.5963 0.6964 -0.0209
H7 H 0.5819 0.5971 0.0944
C9 C 0.50960(19) 0.8401(2) 0.0853(4)
H8 H 0.4910 0.8409 -0.0398
H9 H 0.5731 0.8800 0.1266
C10 C 0.42952(19) 0.8917(2) 0.1490(4)
H10 H 0.4424 0.8783 0.2718
H11 H 0.4306 0.9705 0.1314
C11 C 0.25639(17) 0.88797(18) 0.1329(3)
H12 H 0.2813 0.9462 0.2155
H13 H 0.2333 0.8281 0.1927
C12 C 0.82916(16) 1.07097(17) 0.0054(3)
H14 H 0.8472 1.1240 0.0984
H15 H 0.8882 1.0586 -0.0384
C13 C 1.13002(16) 0.93066(17) 0.4522(3)
C14 C 1.28889(16) 0.9045(2) 0.6413(3)
H16 H 1.3243 0.8923 0.5542
H17 H 1.3208 0.8628 0.7424
H18 H 1.2912 0.9812 0.6698
O1B O 0.26465(11) 1.20304(12) -0.16967(18)
O2B O 0.47896(12) 1.26745(15) -0.1453(2)
O3B O 0.66482(11) 1.14881(12) -0.06535(19)
O4B O 0.20214(11) 1.02772(12) -0.06483(19)
O5B O -0.18478(12) 1.12957(13) -0.5775(2)
O6B O -0.16237(12) 0.99101(14) -0.3960(2)
C1B C 0.16895(16) 1.17687(17) -0.2463(3)
C2B C 0.10541(17) 1.23712(18) -0.3725(3)
H1B H 0.1285 1.3020 -0.4106
C3B C 0.00806(16) 1.20265(17) -0.4431(3)
H2B H -0.0348 1.2434 -0.5307
C4B C -0.02673(16) 1.10859(17) -0.3857(2)
C5B C 0.03705(15) 1.04777(17) -0.2586(3)
H3B H 0.0136 0.9836 -0.2190
C6B C 0.13413(15) 1.08136(16) -0.1907(2)
C7B C 0.30015(16) 1.30642(16) -0.2086(3)
H4B H 0.3020 1.3082 -0.3284
H5B H 0.2545 1.3639 -0.1909
C8B C 0.40289(17) 1.32498(18) -0.0957(3)
H6B H 0.4037 1.3036 0.0209
H7B H 0.4181 1.4029 -0.0944
C9B C 0.49040(19) 1.1599(2) -0.0853(4)
H8B H 0.5090 1.1591 0.0398
H9B H 0.4269 1.1200 -0.1266
C10B C 0.57048(19) 1.1083(2) -0.1490(4)
H10B H 0.5576 1.1217 -0.2718
H11B H 0.5694 1.0295 -0.1314
C11B C 0.74361(17) 1.11203(18) -0.1329(3)
H12B H 0.7187 1.0538 -0.2155
H13B H 0.7667 1.1719 -0.1927
C12B C 0.17084(16) 0.92903(17) -0.0054(3)
H14B H 0.1528 0.8760 -0.0984
H15B H 0.1118 0.9414 0.0384
C13B C -0.13002(16) 1.06934(17) -0.4522(3)
C14B C -0.28889(16) 1.0955(2) -0.6413(3)
H16B H -0.3243 1.1077 -0.5542
H17B H -0.3208 1.1372 -0.7424
H18B H -0.2912 1.0188 -0.6698
loop_
_geom_bond_atom_site_label_1
_geom_bond_atom_site_label_2
_geom_bond_site_symmetry_1
_geom_bond_site_symmetry_2
O1 C1 1_555 1_555
O2 C8 1_555 1_555
O3 C10 1_555 1_555
O4 C6 1_555 1_555
O5 C13 1_555 1_555
O6 C13 1_555 1_555
C1 C2 1_555 1_555
C2 H1 1_555 1_555
C3 C2 1_555 1_555
H2 C3 1_555 1_555
C4 C3 1_555 1_555
C5 C4 1_555 1_555
H3 C5 1_555 1_555
C6 C1 1_555 1_555
C7 O1 1_555 1_555
H4 C7 1_555 1_555
H5 C7 1_555 1_555
C8 C7 1_555 1_555
H6 C8 1_555 1_555
H7 C8 1_555 1_555
C9 O2 1_555 1_555
H8 C9 1_555 1_555
H9 C9 1_555 1_555
C10 C9 1_555 1_555
H10 C10 1_555 1_555
H11 C10 1_555 1_555
C11 O3 1_555 1_555
H12 C11 1_555 1_555
H13 C11 1_555 1_555
C12 O4 1_555 1_555
H14 C12 1_555 1_555
H15 C12 1_555 1_555
C13 C4 1_555 1_555
C14 O5 1_555 1_555
H16 C14 1_555 1_555
H17 C14 1_555 1_555
H18 C14 1_555 1_555
O1B C1B 1_555 1_555
O2B C8B 1_555 1_555
O3B C10B 1_555 1_555
O4B C6B 1_555 1_555
O5B C13B 1_555 1_555
O6B C13B 1_555 1_555
C1B C2B 1_555 1_555
C2B H1B 1_555 1_555
C3B C2B 1_555 1_555
H2B C3B 1_555 1_555
C4B C3B 1_555 1_555
C5B C4B 1_555 1_555
H3B C5B 1_555 1_555
C6B C1B 1_555 1_555
C7B O1B 1_555 1_555
H4B C7B 1_555 1_555
H5B C7B 1_555 1_555
C8B C7B 1_555 1_555
H6B C8B 1_555 1_555
H7B C8B 1_555 1_555
C9B O2B 1_555 1_555
H8B C9B 1_555 1_555
H9B C9B 1_555 1_555
C10B C9B 1_555 1_555
H10B C10B 1_555 1_555
H11B C10B 1_555 1_555
C11B C12 1_555 1_555
H12B C11B 1_555 1_555
H13B C11B 1_555 1_555
C12B C11 1_555 1_555
H14B C12B 1_555 1_555
H15B C12B 1_555 1_555
C13B C4B 1_555 1_555
C14B O5B 1_555 1_555
H16B C14B 1_555 1_555
H17B C14B 1_555 1_555
H18B C14B 1_555 1_555
C5 C6 1_555 1_555
O3B C11B 1_555 1_555
O4B C12B 1_555 1_555
C5B C6B 1_555 1_555

#END
