
#######################################################################
#
#                 Cambridge Crystallographic Data Centre
#                                CCDC 
#
#######################################################################
#
# If this CIF has been generated from an entry in the Cambridge 
# Structural Database, then it will include bibliographic, chemical, 
# crystal, experimental, refinement or atomic coordinate data resulting 
# from the CCDC's data processing and validation procedures.
#
#######################################################################

data_QAPRIK
_chemical_name_common            
3-(2-Nitrophenylhydrazonotrifluoroethyl)-7-(N,N-diethylamino)benzopyran-2-one
_chemical_formula_moiety         'C21 H19 F3 N4 O4'
_chemical_name_systematic        
7-(Diethylamino)-3-(2,2,2-trifluoro-N-(2-nitrophenyl)ethanehydrazonoyl)-2H-chromen-2-one
_symmetry_cell_setting           orthorhombic
_symmetry_space_group_name_H-M   'P 21 21 21'
_symmetry_Int_Tables_number      19
_space_group_name_Hall           'P 2ac 2ab'
loop_
_symmetry_equiv_pos_site_id
_symmetry_equiv_pos_as_xyz
1 x,y,z
2 1/2-x,-y,1/2+z
3 -x,1/2+y,1/2-z
4 1/2+x,1/2-y,-z
_cell_length_a                   7.942(4)
_cell_length_b                   12.473(6)
_cell_length_c                   20.670(9)
_cell_angle_alpha                90
_cell_angle_beta                 90
_cell_angle_gamma                90
_cell_volume                     2047.58
_exptl_crystal_colour            colorless
_exptl_crystal_description       block
_cell_formula_units_Z            4
loop_
_atom_site_label
_atom_site_type_symbol
_atom_site_fract_x
_atom_site_fract_y
_atom_site_fract_z
C1 C 0.2779(6) 0.7884(4) -0.0368(3)
H1 H 0.2347 0.8344 -0.0055
C2 C 0.2882(7) 0.8204(4) -0.0992(3)
H2 H 0.2513 0.8884 -0.1110
C3 C 0.3544(6) 0.7514(4) -0.1457(2)
H3 H 0.3621 0.7739 -0.1885
C4 C 0.4080(6) 0.6507(4) -0.1290(2)
H4 H 0.4517 0.6059 -0.1608
C5 C 0.3986(6) 0.6141(3) -0.0655(2)
C6 C 0.3329(6) 0.6853(3) -0.0197(2)
C7 C 0.5767(5) 0.3567(3) -0.08168(18)
C8 C 0.5780(5) 0.2953(3) -0.02077(19)
C9 C 0.6347(5) 0.3457(3) 0.0386(2)
C10 C 0.5393(5) 0.1879(3) -0.01806(19)
H5 H 0.5063 0.1538 -0.0560
C11 C 0.5471(5) 0.1272(3) 0.0387(2)
C12 C 0.6047(5) 0.1759(3) 0.0947(2)
C13 C 0.4991(6) 0.0187(3) 0.0451(2)
H6 H 0.4628 -0.0186 0.0088
C14 C 0.5046(6) -0.0322(3) 0.1026(2)
H7 H 0.4683 -0.1030 0.1049
C15 C 0.5637(5) 0.0184(4) 0.1595(2)
C16 C 0.6163(5) 0.1260(4) 0.1537(2)
H8 H 0.6584 0.1626 0.1894
C17 C 0.6267(6) 0.0222(4) 0.2767(2)
H9 H 0.5808 -0.0141 0.3143
H10 H 0.5848 0.0952 0.2769
C18 C 0.8172(7) 0.0243(4) 0.2820(2)
H11 H 0.8596 -0.0477 0.2817
H12 H 0.8492 0.0591 0.3215
H13 H 0.8632 0.0630 0.2459
C19 C 0.4856(7) -0.1365(4) 0.2265(2)
H14 H 0.5336 -0.1725 0.2638
H15 H 0.5073 -0.1805 0.1887
C20 C 0.2969(7) -0.1251(5) 0.2358(3)
H16 H 0.2750 -0.0870 0.2753
H17 H 0.2464 -0.1949 0.2380
H18 H 0.2500 -0.0861 0.2001
C21 C 0.6347(6) 0.2987(4) -0.1416(2)
F1 F 0.6918(4) 0.3630(2) -0.18827(12)
F2 F 0.5123(4) 0.2395(2) -0.16857(11)
F3 F 0.7595(3) 0.2282(2) -0.12965(12)
N1 N 0.5671(5) -0.0318(3) 0.21821(18)
N2 N 0.4525(5) 0.5119(3) -0.04799(17)
N3 N 0.5250(4) 0.4509(3) -0.09519(16)
N4 N 0.3168(6) 0.6570(4) 0.0484(2)
O1 O 0.6757(4) 0.4394(2) 0.04476(14)
O2 O 0.6486(4) 0.2839(2) 0.09374(13)
O3 O 0.2768(6) 0.7264(3) 0.08726(18)
O4 O 0.3444(6) 0.5650(4) 0.06554(16)
loop_
_geom_bond_atom_site_label_1
_geom_bond_atom_site_label_2
_geom_bond_site_symmetry_1
_geom_bond_site_symmetry_2
C1 H1 1_555 1_555
C2 C1 1_555 1_555
H2 C2 1_555 1_555
C3 C2 1_555 1_555
H3 C3 1_555 1_555
C4 C3 1_555 1_555
H4 C4 1_555 1_555
C5 C4 1_555 1_555
C6 C1 1_555 1_555
C7 C8 1_555 1_555
C8 C9 1_555 1_555
C9 O1 1_555 1_555
C10 C8 1_555 1_555
H5 C10 1_555 1_555
C11 C10 1_555 1_555
C12 C11 1_555 1_555
C13 C11 1_555 1_555
H6 C13 1_555 1_555
C14 C13 1_555 1_555
H7 C14 1_555 1_555
C15 C14 1_555 1_555
C16 C12 1_555 1_555
H8 C16 1_555 1_555
C17 H9 1_555 1_555
H10 C17 1_555 1_555
C18 C17 1_555 1_555
H11 C18 1_555 1_555
H12 C18 1_555 1_555
H13 C18 1_555 1_555
C19 H14 1_555 1_555
H15 C19 1_555 1_555
C20 C19 1_555 1_555
H16 C20 1_555 1_555
H17 C20 1_555 1_555
H18 C20 1_555 1_555
C21 C7 1_555 1_555
F1 C21 1_555 1_555
F2 C21 1_555 1_555
F3 C21 1_555 1_555
N1 C15 1_555 1_555
N2 C5 1_555 1_555
N3 C7 1_555 1_555
N4 C6 1_555 1_555
O2 C9 1_555 1_555
O3 N4 1_555 1_555
O4 N4 1_555 1_555
C5 C6 1_555 1_555
C12 O2 1_555 1_555
C15 C16 1_555 1_555
C17 N1 1_555 1_555
C19 N1 1_555 1_555
N2 N3 1_555 1_555

#END
