
#######################################################################
#
#                 Cambridge Crystallographic Data Centre
#                                CCDC 
#
#######################################################################
#
# If this CIF has been generated from an entry in the Cambridge 
# Structural Database, then it will include bibliographic, chemical, 
# crystal, experimental, refinement or atomic coordinate data resulting 
# from the CCDC's data processing and validation procedures.
#
#######################################################################

data_QAPVOU
_chemical_name_common            
'1-[2-methyl-5-(4-fluorophenyl)-3- thienyl]-2-(2-cyano-1,5-dimethyl-4-pyrryl)-3,3,4,4,5,5-hexafluorocyclopent-1-ene'
_chemical_formula_moiety         'C23 H15 F7 N2 S1'
_chemical_name_systematic        
4-(3,3,4,4,5,5-Hexafluoro-2-(5-(4-fluorophenyl)-2-methyl-3-thienyl)cyclopent-1-en-1-yl)-1,5-dimethyl-1H-pyrrole-2-carbonitrile
_symmetry_cell_setting           orthorhombic
_symmetry_space_group_name_H-M   'P c a 21'
_symmetry_Int_Tables_number      29
_space_group_name_Hall           'P 2c -2ac'
loop_
_symmetry_equiv_pos_site_id
_symmetry_equiv_pos_as_xyz
1 x,y,z
2 -x,-y,1/2+z
3 1/2+x,-y,z
4 1/2-x,y,1/2+z
_cell_length_a                   16.626(3)
_cell_length_b                   6.3555(13)
_cell_length_c                   38.695(8)
_cell_angle_alpha                90
_cell_angle_beta                 90
_cell_angle_gamma                90
_cell_volume                     4088.77
_exptl_crystal_colour            colorless
_exptl_crystal_description       block
_cell_formula_units_Z            8
loop_
_atom_site_label
_atom_site_type_symbol
_atom_site_fract_x
_atom_site_fract_y
_atom_site_fract_z
S1 S 0.82873(8) 0.6717(2) 0.48348(4)
F1 F 0.7160(2) -0.1388(5) 0.38509(9)
F2 F 0.54035(18) 0.6735(5) 0.55362(9)
F3 F 0.5680(2) 0.9448(6) 0.52158(9)
F4 F 0.4840(2) 0.9640(6) 0.59326(11)
F5 F 0.5646(2) 1.1995(5) 0.57276(10)
F6 F 0.5928(2) 0.8065(5) 0.63309(9)
F7 F 0.6396(2) 1.1255(5) 0.62945(10)
N1 N 0.8810(3) 0.6711(6) 0.62893(13)
N2 N 0.9812(3) 0.9704(8) 0.69017(17)
C1 C 0.7457(4) 0.5072(8) 0.48283(19)
C2 C 0.6938(3) 0.5591(9) 0.50861(16)
H1 H 0.6444 0.4874 0.5124
C3 C 0.7200(3) 0.7303(8) 0.52943(14)
C4 C 0.7934(3) 0.8111(8) 0.51844(14)
C5 C 0.7385(3) 0.3391(8) 0.45654(14)
C6 C 0.7734(3) 0.3569(8) 0.42373(16)
H2 H 0.8028 0.4801 0.4179
C7 C 0.7655(3) 0.1973(8) 0.39974(16)
H3 H 0.7888 0.2098 0.3774
C8 C 0.7234(4) 0.0206(9) 0.4089(2)
C9 C 0.6874(4) -0.0070(9) 0.4406(2)
H4 H 0.6582 -0.1314 0.4459
C10 C 0.6954(3) 0.1561(8) 0.46477(16)
H5 H 0.6715 0.1425 0.4869
C11 C 0.8394(4) 0.9948(9) 0.5318(2)
H6 H 0.8336 1.1134 0.5159
H7 H 0.8964 0.9571 0.5338
H8 H 0.8186 1.0346 0.5546
C12 C 0.6726(3) 0.8154(8) 0.55816(14)
C13 C 0.5847(3) 0.8541(8) 0.55251(16)
C14 C 0.5604(4) 0.9958(9) 0.5823(2)
C15 C 0.6235(4) 0.9505(9) 0.61014(17)
C16 C 0.6938(3) 0.8622(8) 0.59074(15)
C17 C 0.7691(3) 0.8261(8) 0.60969(15)
C18 C 0.8184(3) 0.6490(8) 0.60613(14)
C19 C 0.8713(3) 0.8585(8) 0.64692(14)
C20 C 0.8032(4) 0.9560(9) 0.63578(17)
H9 H 0.7825 1.0862 0.6439
C21 C 0.8094(4) 0.4564(9) 0.58554(17)
H10 H 0.8365 0.4747 0.5632
H11 H 0.7522 0.4282 0.5817
H12 H 0.8337 0.3379 0.5979
C22 C 0.9442(4) 0.5168(9) 0.63529(19)
H13 H 0.9907 0.5867 0.6459
H14 H 0.9605 0.4526 0.6134
H15 H 0.9240 0.4076 0.6509
C23 C 0.9312(3) 0.9244(9) 0.67150(16)
S2 S 0.41380(8) 0.1746(2) 0.37551(4)
F8 F 0.52518(19) -0.6352(5) 0.47492(9)
F9 F 0.7011(2) 0.1512(5) 0.30660(10)
F10 F 0.6777(2) 0.4275(6) 0.33716(9)
F11 F 0.7620(2) 0.4198(7) 0.26510(10)
F12 F 0.6905(3) 0.6752(5) 0.28631(12)
F13 F 0.6493(2) 0.2928(7) 0.22566(10)
F14 F 0.6114(2) 0.6138(8) 0.23048(13)
N3 N 0.3605(3) 0.2075(7) 0.22918(12)
N4 N 0.2727(3) 0.5537(8) 0.16938(15)
C24 C 0.4958(4) 0.0064(8) 0.37675(19)
C25 C 0.5476(3) 0.0544(9) 0.35030(16)
H16 H 0.5958 -0.0214 0.3461
C26 C 0.5222(3) 0.2285(8) 0.32977(15)
C27 C 0.4504(3) 0.3098(8) 0.34048(14)
C28 C 0.5015(3) -0.1630(8) 0.40230(15)
C29 C 0.5453(3) -0.3463(9) 0.39497(15)
H17 H 0.5693 -0.3615 0.3728
C30 C 0.5545(4) -0.5048(8) 0.4189(2)
H18 H 0.5844 -0.6282 0.4137
C31 C 0.5183(3) -0.4769(9) 0.45115(18)
C32 C 0.4769(3) -0.2992(9) 0.45980(15)
H19 H 0.4548 -0.2836 0.4823
C33 C 0.4677(3) -0.1422(8) 0.43537(14)
H20 H 0.4381 -0.0190 0.4410
C34 C 0.4063(4) 0.4990(8) 0.32727(18)
H21 H 0.4434 0.6185 0.3258
H22 H 0.3621 0.5334 0.3431
H23 H 0.3845 0.4687 0.3043
C35 C 0.5712(3) 0.3101(8) 0.30068(15)
C36 C 0.6603(3) 0.3390(9) 0.30679(16)
C37 C 0.6883(4) 0.4732(9) 0.2763(2)
C38 C 0.6221(4) 0.4406(11) 0.24897(19)
C39 C 0.5508(3) 0.3632(9) 0.26842(15)
C40 C 0.4745(3) 0.3413(8) 0.24972(15)
C41 C 0.4212(3) 0.1745(8) 0.25149(16)
C42 C 0.3743(3) 0.3957(8) 0.21152(14)
C43 C 0.4451(4) 0.4786(9) 0.22364(19)
H24 H 0.4699 0.6049 0.2160
C44 C 0.4260(4) -0.0263(9) 0.27235(19)
H25 H 0.3902 -0.0158 0.2924
H26 H 0.4814 -0.0478 0.2802
H27 H 0.4094 -0.1454 0.2579
C45 C 0.2938(4) 0.0648(10) 0.22174(18)
H28 H 0.3128 -0.0503 0.2070
H29 H 0.2510 0.1420 0.2098
H30 H 0.2729 0.0070 0.2434
C46 C 0.3187(3) 0.4809(9) 0.18809(18)
loop_
_geom_bond_atom_site_label_1
_geom_bond_atom_site_label_2
_geom_bond_site_symmetry_1
_geom_bond_site_symmetry_2
S1 C1 1_555 1_555
S2 C24 1_555 1_555
F1 C8 1_555 1_555
F2 C13 1_555 1_555
F3 C13 1_555 1_555
F4 C14 1_555 1_555
F5 C14 1_555 1_555
F6 C15 1_555 1_555
F7 C15 1_555 1_555
F8 C31 1_555 1_555
F9 C36 1_555 1_555
F10 C36 1_555 1_555
F11 C37 1_555 1_555
F12 C37 1_555 1_555
F13 C38 1_555 1_555
F14 C38 1_555 1_555
N1 C18 1_555 1_555
N2 C23 1_555 1_555
N3 C41 1_555 1_555
N4 C46 1_555 1_555
C1 C2 1_555 1_555
C2 H1 1_555 1_555
C3 C2 1_555 1_555
C4 S1 1_555 1_555
C5 C1 1_555 1_555
C6 C5 1_555 1_555
H2 C6 1_555 1_555
C7 C6 1_555 1_555
H3 C7 1_555 1_555
C8 C7 1_555 1_555
C9 C8 1_555 1_555
H4 C9 1_555 1_555
C10 C5 1_555 1_555
H5 C10 1_555 1_555
C11 C4 1_555 1_555
H6 C11 1_555 1_555
H7 C11 1_555 1_555
H8 C11 1_555 1_555
C12 C3 1_555 1_555
C13 C12 1_555 1_555
C14 C13 1_555 1_555
C15 C14 1_555 1_555
C16 C12 1_555 1_555
C17 C16 1_555 1_555
C18 C17 1_555 1_555
C19 N1 1_555 1_555
C20 C17 1_555 1_555
H9 C20 1_555 1_555
C21 C18 1_555 1_555
H10 C21 1_555 1_555
H11 C21 1_555 1_555
H12 C21 1_555 1_555
C22 N1 1_555 1_555
H13 C22 1_555 1_555
H14 C22 1_555 1_555
H15 C22 1_555 1_555
C23 C19 1_555 1_555
C24 C25 1_555 1_555
C25 H16 1_555 1_555
C26 C25 1_555 1_555
C27 S2 1_555 1_555
C28 C24 1_555 1_555
C29 C28 1_555 1_555
H17 C29 1_555 1_555
C30 C29 1_555 1_555
H18 C30 1_555 1_555
C31 C30 1_555 1_555
C32 C31 1_555 1_555
H19 C32 1_555 1_555
C33 C28 1_555 1_555
H20 C33 1_555 1_555
C34 C27 1_555 1_555
H21 C34 1_555 1_555
H22 C34 1_555 1_555
H23 C34 1_555 1_555
C35 C26 1_555 1_555
C36 C35 1_555 1_555
C37 C36 1_555 1_555
C38 C37 1_555 1_555
C39 C35 1_555 1_555
C40 C39 1_555 1_555
C41 C40 1_555 1_555
C42 N3 1_555 1_555
C43 C40 1_555 1_555
H24 C43 1_555 1_555
C44 C41 1_555 1_555
H25 C44 1_555 1_555
H26 C44 1_555 1_555
H27 C44 1_555 1_555
C45 N3 1_555 1_555
H28 C45 1_555 1_555
H29 C45 1_555 1_555
H30 C45 1_555 1_555
C46 C42 1_555 1_555
C3 C4 1_555 1_555
C9 C10 1_555 1_555
C15 C16 1_555 1_555
C19 C20 1_555 1_555
C26 C27 1_555 1_555
C32 C33 1_555 1_555
C38 C39 1_555 1_555
C42 C43 1_555 1_555

#END
