
#######################################################################
#
#                 Cambridge Crystallographic Data Centre
#                                CCDC 
#
#######################################################################
#
# If this CIF has been generated from an entry in the Cambridge 
# Structural Database, then it will include bibliographic, chemical, 
# crystal, experimental, refinement or atomic coordinate data resulting 
# from the CCDC's data processing and validation procedures.
#
#######################################################################

data_QAQDUH
_chemical_formula_moiety         'C16 H20 O4'
_chemical_name_systematic        
2-phenyl-3,4,8,9-tetraoxatricyclo(9.2.1.0^2,10^)tetradecane
_symmetry_cell_setting           triclinic
_symmetry_space_group_name_H-M   'P -1'
_symmetry_Int_Tables_number      2
_space_group_name_Hall           '-P 1'
loop_
_symmetry_equiv_pos_site_id
_symmetry_equiv_pos_as_xyz
1 x,y,z
2 -x,-y,-z
_cell_length_a                   9.6120(10)
_cell_length_b                   11.6600(10)
_cell_length_c                   12.3820(10)
_cell_angle_alpha                86.310(10)
_cell_angle_beta                 89.900(10)
_cell_angle_gamma                89.930(10)
_cell_volume                     1384.84
_chemical_melting_point          140-142deg.C
_cell_formula_units_Z            4
_exptl_crystal_recrystallization_method methanol
loop_
_atom_site_label
_atom_site_type_symbol
_atom_site_fract_x
_atom_site_fract_y
_atom_site_fract_z
O1 O 0.2640(1) 0.3582(1) 0.1708(1)
O2 O 0.2036(1) 0.3667(1) 0.0606(1)
O3 O 0.0292(1) 0.5355(1) 0.1312(1)
O4 O 0.0900(1) 0.5223(1) 0.2417(1)
C1 C 0.1587(2) 0.3139(1) 0.2422(1)
C2 C 0.2773(2) 0.4588(2) 0.0045(2)
C3 C 0.2657(2) 0.5721(2) 0.0571(2)
C4 C 0.1172(2) 0.6142(2) 0.0702(1)
C5 C 0.0566(2) 0.4086(1) 0.2840(1)
C6 C 0.1020(2) 0.4116(2) 0.4051(1)
C7 C 0.0467(2) 0.3035(2) 0.4688(1)
C8 C 0.1338(2) 0.2061(2) 0.4221(2)
C9 C 0.2374(2) 0.2706(2) 0.3452(1)
C10 C 0.2579(2) 0.3841(2) 0.4000(1)
C11 C -0.1895(2) 0.4710(2) 0.3074(1)
C12 C -0.3325(2) 0.4592(2) 0.2980(2)
C13 C -0.3886(2) 0.3648(2) 0.2514(2)
C14 C -0.3009(2) 0.2812(2) 0.2158(2)
C15 C -0.1569(2) 0.2923(2) 0.2250(2)
C16 C -0.0990(2) 0.3877(1) 0.2709(1)
H1 H 0.1094(11) 0.2520(13) 0.2087(7)
H2 H 0.2416(5) 0.4689(2) -0.0699(11)
H3 H 0.3762(15) 0.4376(4) 0.0002(2)
H4 H 0.3192(8) 0.6321(9) 0.0121(7)
H5 H 0.3107(7) 0.5637(2) 0.1305(11)
H6 H 0.1195(2) 0.6883(11) 0.1067(5)
H7 H 0.0757(6) 0.6303(3) -0.0033(11)
H8 H 0.0795(5) 0.4865(16) 0.4337(6)
H9 H -0.0532(15) 0.2929(2) 0.4559(2)
H10 H 0.0626(3) 0.3073(2) 0.5469(12)
H11 H 0.1834(8) 0.1602(7) 0.4807(9)
H12 H 0.0737(9) 0.1539(8) 0.3821(6)
H13 H 0.3119(18) 0.2261(11) 0.3279(4)
H14 H 0.3014(7) 0.3729(2) 0.4731(11)
H15 H 0.3112(8) 0.4424(9) 0.3539(7)
H16 H -0.1526(9) 0.5363(15) 0.3390(8)
H17 H -0.3948(15) 0.5185(14) 0.3247(7)
H18 H -0.4810(20) 0.3580(3) 0.2444(2)
H19 H -0.3389(10) 0.2156(17) 0.1848(8)
H20 H -0.1001(14) 0.2368(14) 0.2008(6)
O5 O 0.2367(1) -0.1419(1) 0.1708(1)
O6 O 0.2969(1) -0.1337(1) 0.0605(1)
O7 O 0.4712(1) 0.0353(1) 0.1308(1)
O8 O 0.4103(1) 0.0224(1) 0.2415(1)
C17 C 0.3421(2) -0.1860(1) 0.2422(1)
C18 C 0.2232(2) -0.0413(2) 0.0048(1)
C19 C 0.3826(2) 0.1141(1) 0.0698(1)
C20 C 0.2346(2) 0.0720(2) 0.0572(1)
C21 C 0.4438(2) -0.0914(1) 0.2838(1)
C22 C 0.3981(2) -0.0883(2) 0.4047(1)
C23 C 0.4532(2) -0.1960(2) 0.4684(1)
C24 C 0.3670(2) -0.2938(2) 0.4222(2)
C25 C 0.2633(2) -0.2286(2) 0.3451(1)
C26 C 0.2420(2) -0.1152(2) 0.3998(1)
C27 C 0.6899(2) -0.0289(2) 0.3067(1)
C28 C 0.8331(2) -0.0407(2) 0.2973(2)
C29 C 0.8893(2) -0.1355(2) 0.2515(2)
C30 C 0.8019(2) -0.2190(2) 0.2164(2)
C31 C 0.6577(2) -0.2074(2) 0.2259(2)
C32 C 0.5997(2) -0.1121(1) 0.2707(1)
H21 H 0.3871(9) -0.2509(13) 0.2091(7)
H22 H 0.1261(15) -0.0619(4) 0.0008(2)
H23 H 0.2584(5) -0.0313(2) -0.0684(11)
H24 H 0.4230(6) 0.1297(3) -0.0021(10)
H25 H 0.3801(2) 0.1866(11) 0.1052(5)
H26 H 0.1914(7) 0.0639(2) 0.1281(11)
H27 H 0.1827(8) 0.1297(9) 0.0141(7)
H28 H 0.4185(5) -0.0178(16) 0.4338(7)
H29 H 0.5510(20) -0.2052(18) 0.4595(17)
H30 H 0.4360(20) -0.1945(18) 0.5441(18)
H31 H 0.4157(8) -0.3490(9) 0.3831(6)
H32 H 0.3142(8) -0.3403(7) 0.4781(8)
H33 H 0.1825(17) -0.2739(10) 0.3263(4)
H34 H 0.1905(8) -0.0586(9) 0.3551(7)
H35 H 0.1996(7) -0.1260(2) 0.4708(11)
H36 H 0.6528(9) 0.0367(15) 0.3381(7)
H37 H 0.8934(15) 0.0172(14) 0.3227(6)
H38 H 0.9840(20) -0.1427(3) 0.2446(2)
H39 H 0.8403(10) -0.2857(17) 0.1851(8)
H40 H 0.5972(14) -0.2668(13) 0.2007(6)
loop_
_geom_bond_atom_site_label_1
_geom_bond_atom_site_label_2
_geom_bond_site_symmetry_1
_geom_bond_site_symmetry_2
O1 O2 1_555 1_555
O2 C2 1_555 1_555
O3 O4 1_555 1_555
O4 C5 1_555 1_555
C1 O1 1_555 1_555
C2 C3 1_555 1_555
C3 C4 1_555 1_555
C4 O3 1_555 1_555
C5 C1 1_555 1_555
C6 C5 1_555 1_555
C7 C6 1_555 1_555
C8 C7 1_555 1_555
C9 C1 1_555 1_555
C10 C6 1_555 1_555
C11 C12 1_555 1_555
C12 C13 1_555 1_555
C13 C14 1_555 1_555
C14 C15 1_555 1_555
C15 C16 1_555 1_555
C16 C5 1_555 1_555
O5 O6 1_555 1_555
O6 C18 1_555 1_555
O7 O8 1_555 1_555
O8 C21 1_555 1_555
C17 O5 1_555 1_555
C18 C20 1_555 1_555
C19 O7 1_555 1_555
C20 C19 1_555 1_555
C21 C17 1_555 1_555
C22 C21 1_555 1_555
C23 C22 1_555 1_555
C24 C23 1_555 1_555
C25 C17 1_555 1_555
C26 C22 1_555 1_555
C27 C28 1_555 1_555
C28 C29 1_555 1_555
C29 C30 1_555 1_555
C30 C31 1_555 1_555
C31 C32 1_555 1_555
C32 C21 1_555 1_555
H1 C1 1_555 1_555
H2 C2 1_555 1_555
H3 C2 1_555 1_555
H4 C3 1_555 1_555
H5 C3 1_555 1_555
H6 C4 1_555 1_555
H7 C4 1_555 1_555
H8 C6 1_555 1_555
H9 C7 1_555 1_555
H10 C7 1_555 1_555
H11 C8 1_555 1_555
H12 C8 1_555 1_555
H13 C9 1_555 1_555
H14 C10 1_555 1_555
H15 C10 1_555 1_555
H16 C11 1_555 1_555
H17 C12 1_555 1_555
H18 C13 1_555 1_555
H19 C14 1_555 1_555
H20 C15 1_555 1_555
H21 C17 1_555 1_555
H22 C18 1_555 1_555
H23 C18 1_555 1_555
H24 C19 1_555 1_555
H25 C19 1_555 1_555
H26 C20 1_555 1_555
H27 C20 1_555 1_555
H28 C22 1_555 1_555
H29 C23 1_555 1_555
H30 C23 1_555 1_555
H31 C24 1_555 1_555
H32 C24 1_555 1_555
H33 C25 1_555 1_555
H34 C26 1_555 1_555
H35 C26 1_555 1_555
H36 C27 1_555 1_555
H37 C28 1_555 1_555
H38 C29 1_555 1_555
H39 C30 1_555 1_555
H40 C31 1_555 1_555
C8 C9 1_555 1_555
C9 C10 1_555 1_555
C11 C16 1_555 1_555
C24 C25 1_555 1_555
C25 C26 1_555 1_555
C27 C32 1_555 1_555

#END
