
#######################################################################
#
#                 Cambridge Crystallographic Data Centre
#                                CCDC 
#
#######################################################################
#
# If this CIF has been generated from an entry in the Cambridge 
# Structural Database, then it will include bibliographic, chemical, 
# crystal, experimental, refinement or atomic coordinate data resulting 
# from the CCDC's data processing and validation procedures.
#
#######################################################################

data_QARFOH
_chemical_formula_moiety         'C23 H24 O3'
_chemical_name_systematic        1-(1,2-diphenylethyl)-2,3,4-trimethoxybenzene
_symmetry_cell_setting           triclinic
_symmetry_space_group_name_H-M   'P -1'
_symmetry_Int_Tables_number      2
_space_group_name_Hall           '-P 1'
loop_
_symmetry_equiv_pos_site_id
_symmetry_equiv_pos_as_xyz
1 x,y,z
2 -x,-y,-z
_cell_length_a                   7.6352(4)
_cell_length_b                   11.1162(6)
_cell_length_c                   12.1743(6)
_cell_angle_alpha                104.6280(10)
_cell_angle_beta                 99.4740(10)
_cell_angle_gamma                105.0990(10)
_cell_volume                     935.464
_exptl_crystal_colour            colorless
_cell_formula_units_Z            2
loop_
_atom_site_label
_atom_site_type_symbol
_atom_site_fract_x
_atom_site_fract_y
_atom_site_fract_z
O1 O -0.12035(14) 0.52565(10) 0.24250(8)
O2 O 0.05631(14) 0.78379(9) 0.64350(8)
O3 O -0.20434(13) 0.67025(10) 0.43251(9)
C1 C -0.0794(3) 0.44279(19) 0.14715(14)
H1 H 0.0258 0.4924 0.1263
H2 H -0.1861 0.4079 0.0812
H3 H -0.0502 0.3721 0.1696
C2 C 0.01622(18) 0.57977(13) 0.34573(11)
C3 C 0.1902(2) 0.56199(14) 0.36078(12)
H4 H 0.2230 0.5138 0.2977
C4 C 0.31588(19) 0.61584(13) 0.46983(12)
H5 H 0.4314 0.6016 0.4786
C5 C 0.27521(18) 0.69007(12) 0.56596(11)
C6 C 0.40748(19) 0.74671(13) 0.68799(11)
H6 H 0.3323 0.7269 0.7429
C7 C 0.5611(2) 0.68030(14) 0.69995(12)
H7 H 0.5037 0.5863 0.6651
H8 H 0.6497 0.7095 0.6561
C8 C 0.66597(19) 0.70883(13) 0.82484(12)
C9 C 0.5983(2) 0.63150(16) 0.89068(14)
H9 H 0.4856 0.5636 0.8582
C10 C 0.6949(3) 0.65300(19) 1.00423(15)
H10 H 0.6462 0.6000 1.0472
C11 C 0.8621(2) 0.75224(17) 1.05377(14)
H11 H 0.9272 0.7666 1.1299
C12 C 0.10086(18) 0.71079(12) 0.54860(11)
C13 C 0.0520(3) 0.90955(16) 0.63744(15)
H12 H 0.1543 0.9477 0.6076
H13 H 0.0627 0.9653 0.7143
H14 H -0.0641 0.9003 0.5863
C14 C -0.02894(18) 0.65564(13) 0.44044(12)
C15 C -0.2582(3) 0.73577(18) 0.35251(15)
H15 H -0.1515 0.8053 0.3541
H16 H -0.3536 0.7715 0.3747
H17 H -0.3059 0.6746 0.2749
C16 C 0.48943(19) 0.89495(13) 0.72369(12)
C17 C 0.5746(2) 0.95631(15) 0.65152(15)
H18 H 0.5827 0.9058 0.5801
C18 C 0.6479(3) 1.09200(18) 0.68405(19)
H19 H 0.7044 1.1315 0.6344
C19 C 0.6373(3) 1.16763(18) 0.7888(2)
H20 H 0.6867 1.2584 0.8107
C20 C 0.5536(3) 1.10883(18) 0.86133(18)
H21 H 0.5456 1.1601 0.9325
C21 C 0.4806(3) 0.97348(16) 0.82963(14)
H22 H 0.4250 0.9349 0.8801
C22 C 0.9311(2) 0.82919(16) 0.98989(15)
H23 H 1.0446 0.8962 1.0225
C23 C 0.8340(2) 0.80862(15) 0.87674(14)
H24 H 0.8826 0.8630 0.8348
loop_
_geom_bond_atom_site_label_1
_geom_bond_atom_site_label_2
_geom_bond_site_symmetry_1
_geom_bond_site_symmetry_2
O1 C1 1_555 1_555
O2 C12 1_555 1_555
O3 C14 1_555 1_555
C1 H1 1_555 1_555
H2 C1 1_555 1_555
H3 C1 1_555 1_555
C2 O1 1_555 1_555
C3 C2 1_555 1_555
H4 C3 1_555 1_555
C4 C3 1_555 1_555
H5 C4 1_555 1_555
C5 C4 1_555 1_555
C6 C5 1_555 1_555
H6 C6 1_555 1_555
C7 C6 1_555 1_555
H7 C7 1_555 1_555
H8 C7 1_555 1_555
C8 C7 1_555 1_555
C9 C8 1_555 1_555
H9 C9 1_555 1_555
C10 C9 1_555 1_555
H10 C10 1_555 1_555
C11 C10 1_555 1_555
H11 C11 1_555 1_555
C12 C5 1_555 1_555
C13 O2 1_555 1_555
H12 C13 1_555 1_555
H13 C13 1_555 1_555
H14 C13 1_555 1_555
C14 C2 1_555 1_555
C15 O3 1_555 1_555
H15 C15 1_555 1_555
H16 C15 1_555 1_555
H17 C15 1_555 1_555
C16 C6 1_555 1_555
C17 C16 1_555 1_555
H18 C17 1_555 1_555
C18 C17 1_555 1_555
H19 C18 1_555 1_555
C19 C18 1_555 1_555
H20 C19 1_555 1_555
C20 C19 1_555 1_555
H21 C20 1_555 1_555
C21 C16 1_555 1_555
H22 C21 1_555 1_555
C22 C11 1_555 1_555
H23 C22 1_555 1_555
C23 C8 1_555 1_555
H24 C23 1_555 1_555
C12 C14 1_555 1_555
C20 C21 1_555 1_555
C22 C23 1_555 1_555

#END
