
#######################################################################
#
#                 Cambridge Crystallographic Data Centre
#                                CCDC 
#
#######################################################################
#
# If this CIF has been generated from an entry in the Cambridge 
# Structural Database, then it will include bibliographic, chemical, 
# crystal, experimental, refinement or atomic coordinate data resulting 
# from the CCDC's data processing and validation procedures.
#
#######################################################################

data_QARFUN
_chemical_formula_moiety         'C27 H30 O4 S1'
_chemical_name_systematic        
2-(cyclopentoxy)-1-methoxy-4-(2-((4-methylphenyl)sulfonyl)-1-phenylethyl)benzene
_symmetry_cell_setting           monoclinic
_symmetry_space_group_name_H-M   'P 21/c'
_symmetry_Int_Tables_number      14
_space_group_name_Hall           '-P 2ybc'
loop_
_symmetry_equiv_pos_site_id
_symmetry_equiv_pos_as_xyz
1 x,y,z
2 -x,1/2+y,1/2-z
3 -x,-y,-z
4 x,1/2-y,1/2+z
_cell_length_a                   9.2777(10)
_cell_length_b                   12.0117(13)
_cell_length_c                   21.164(2)
_cell_angle_alpha                90
_cell_angle_beta                 101.453(3)
_cell_angle_gamma                90
_cell_volume                     2311.57
_exptl_crystal_colour            colorless
_cell_formula_units_Z            4
loop_
_atom_site_label
_atom_site_type_symbol
_atom_site_fract_x
_atom_site_fract_y
_atom_site_fract_z
S1 S 0.0645(4) 0.9249(2) 0.78934(14)
O1 O 0.0354(8) 1.0243(6) 0.7506(3)
O2 O -0.0403(6) 0.8941(5) 0.8293(3)
C1 C 0.0758(8) 0.8105(6) 0.7366(3)
H1 H 0.0760 0.7405 0.7613
H2 H -0.0136 0.8103 0.7022
C2 C 0.2100(9) 0.8107(7) 0.7052(4)
H3 H 0.2433 0.8890 0.7009
C3 C 0.1632(5) 0.7556(4) 0.6351(2)
C4 C 0.2228(6) 0.8069(5) 0.5875(2)
H4 H 0.2906 0.8664 0.5983
C5 C 0.1837(7) 0.7717(4) 0.5242(2)
H5 H 0.2260 0.8065 0.4919
C6 C 0.0835(6) 0.6862(4) 0.5074(2)
H6 H 0.0551 0.6632 0.4638
C7 C 0.0252(6) 0.6346(4) 0.5555(3)
H7 H -0.0427 0.5751 0.5448
C8 C 0.0653(6) 0.6694(4) 0.6182(3)
H8 H 0.0248 0.6333 0.6506
C9 C 0.2495(6) 0.9410(4) 0.8371(2)
C10 C 0.2917(5) 0.8574(4) 0.8818(2)
H9 H 0.2259 0.7984 0.8857
C11 C 0.4300(5) 0.8601(4) 0.9207(2)
H10 H 0.4594 0.8029 0.9516
C12 C 0.5270(6) 0.9470(4) 0.9147(3)
C13 C 0.4801(7) 1.0307(4) 0.8704(3)
H11 H 0.5439 1.0913 0.8671
C14 C 0.3426(7) 1.0277(4) 0.8310(3)
H12 H 0.3126 1.0847 0.8001
C15 C 0.6792(6) 0.9464(5) 0.9571(4)
H13 H 0.6937 0.8769 0.9818
H14 H 0.6891 1.0097 0.9868
H15 H 0.7532 0.9521 0.9300
C16 C 0.3349(5) 0.7432(4) 0.7449(2)
C17 C 0.3232(5) 0.6411(4) 0.7755(2)
H16 H 0.2310 0.6039 0.7687
C18 C 0.4444(5) 0.5933(3) 0.8157(2)
C19 C 0.5821(5) 0.6473(4) 0.8240(2)
C20 C 0.5942(5) 0.7469(4) 0.7924(2)
H17 H 0.6870 0.7827 0.7973
C21 C 0.4716(6) 0.7943(4) 0.7538(2)
H18 H 0.4812 0.8632 0.7329
C22 C 0.8333(5) 0.6517(5) 0.8788(3)
H19 H 0.8721 0.6606 0.8393
H20 H 0.9033 0.6089 0.9104
H21 H 0.8188 0.7252 0.8967
C23 C 0.3050(5) 0.4432(4) 0.8502(2)
H22 H 0.2462 0.4314 0.8057
C24 C 0.3380(6) 0.3337(4) 0.8854(3)
H23 H 0.4351 0.3046 0.8806
H24 H 0.2617 0.2776 0.8688
C25 C 0.3374(7) 0.3619(5) 0.9552(3)
H25 H 0.4300 0.3990 0.9759
H26 H 0.3233 0.2943 0.9801
C26 C 0.2062(7) 0.4408(5) 0.9496(3)
H27 H 0.2133 0.4865 0.9890
H28 H 0.1123 0.3991 0.9420
C27 C 0.2185(6) 0.5136(4) 0.8911(2)
H29 H 0.2715 0.5836 0.9052
H30 H 0.1197 0.5322 0.8660
O3 O 0.6947(3) 0.5936(3) 0.86432(16)
O4 O 0.4457(3) 0.4941(3) 0.84817(17)
S2? S 0.1080(8) 0.9523(6) 0.7771(3)
O5? O 0.0646(18) 1.0663(10) 0.7625(7)
O6? O -0.0002(13) 0.8773(10) 0.7977(6)
C28? C 0.1542(14) 0.8968(10) 0.7052(5)
H31? H 0.0747 0.9165 0.6683
H32? H 0.2452 0.9337 0.6983
C29? C 0.1777(19) 0.7708(11) 0.7047(9)
H33? H 0.0991 0.7300 0.7215
loop_
_geom_bond_atom_site_label_1
_geom_bond_atom_site_label_2
_geom_bond_site_symmetry_1
_geom_bond_site_symmetry_2
S1 O1 1_555 1_555
O2 S1 1_555 1_555
C1 S1 1_555 1_555
H1 C1 1_555 1_555
H2 C1 1_555 1_555
C2 C1 1_555 1_555
H3 C2 1_555 1_555
C3 C2 1_555 1_555
C4 C3 1_555 1_555
H4 C4 1_555 1_555
C5 C4 1_555 1_555
H5 C5 1_555 1_555
C6 C5 1_555 1_555
H6 C6 1_555 1_555
C7 C6 1_555 1_555
H7 C7 1_555 1_555
C8 C3 1_555 1_555
H8 C8 1_555 1_555
C9 S1 1_555 1_555
C10 C9 1_555 1_555
H9 C10 1_555 1_555
C11 C10 1_555 1_555
H10 C11 1_555 1_555
C12 C11 1_555 1_555
C13 C12 1_555 1_555
H11 C13 1_555 1_555
C14 C9 1_555 1_555
H12 C14 1_555 1_555
C15 C12 1_555 1_555
H13 C15 1_555 1_555
H14 C15 1_555 1_555
H15 C15 1_555 1_555
C16 C2 1_555 1_555
C17 C16 1_555 1_555
H16 C17 1_555 1_555
C18 C17 1_555 1_555
C19 C18 1_555 1_555
C20 C19 1_555 1_555
H17 C20 1_555 1_555
C21 C16 1_555 1_555
H18 C21 1_555 1_555
C22 H19 1_555 1_555
H20 C22 1_555 1_555
H21 C22 1_555 1_555
C23 H22 1_555 1_555
C24 C23 1_555 1_555
H23 C24 1_555 1_555
H24 C24 1_555 1_555
C25 C24 1_555 1_555
H25 C25 1_555 1_555
H26 C25 1_555 1_555
C26 C25 1_555 1_555
H27 C26 1_555 1_555
H28 C26 1_555 1_555
C27 C23 1_555 1_555
H29 C27 1_555 1_555
H30 C27 1_555 1_555
O3 C19 1_555 1_555
O4 C18 1_555 1_555
C7 C8 1_555 1_555
C13 C14 1_555 1_555
C20 C21 1_555 1_555
C22 O3 1_555 1_555
C23 O4 1_555 1_555
C26 C27 1_555 1_555

#END
