
#######################################################################
#
#                 Cambridge Crystallographic Data Centre
#                                CCDC 
#
#######################################################################
#
# If this CIF has been generated from an entry in the Cambridge 
# Structural Database, then it will include bibliographic, chemical, 
# crystal, experimental, refinement or atomic coordinate data resulting 
# from the CCDC's data processing and validation procedures.
#
#######################################################################

data_QARKAX
_chemical_formula_moiety         'C22 H32 N2 O4 S1,C1 H4 O1'
_chemical_name_systematic        
'(S)-2-((1-(Adamantan-1-ylammonio)-3-methylbutan-2-yl)carbamoyl)benzenesulfonate methanol solvate'
_symmetry_cell_setting           triclinic
_symmetry_space_group_name_H-M   'P 1'
_symmetry_Int_Tables_number      1
_space_group_name_Hall           'P 1'
loop_
_symmetry_equiv_pos_site_id
_symmetry_equiv_pos_as_xyz
1 x,y,z
_cell_length_a                   9.36498(17)
_cell_length_b                   10.9092(3)
_cell_length_c                   23.2823(4)
_cell_angle_alpha                80.7000(18)
_cell_angle_beta                 84.2696(14)
_cell_angle_gamma                78.8519(18)
_cell_volume                     2297.28
_exptl_crystal_colour            colorless
_exptl_crystal_description       lath
_chemical_melting_point          'above 300 deg.C'
_cell_formula_units_Z            4
loop_
_atom_site_label
_atom_site_type_symbol
_atom_site_fract_x
_atom_site_fract_y
_atom_site_fract_z
S1 S 0.40826(10) 0.29264(9) 0.52619(5)
O1 O 0.5361(3) 0.2163(3) 0.55358(13)
O2 O 0.2846(3) 0.2259(3) 0.53546(14)
O3 O 0.3716(4) 0.4202(3) 0.54063(16)
O4 O 0.3333(3) 0.0420(3) 0.43290(15)
N1 N 0.5472(4) 0.0071(3) 0.47520(18)
H1 H 0.6249 0.0385 0.4792
N2 N 0.4802(4) -0.0377(3) 0.59679(16)
H2 H 0.3857 -0.0364 0.5886
H3 H 0.5035 0.0395 0.5811
C1 C 0.4525(4) 0.3102(4) 0.44883(19)
C2 C 0.4664(4) 0.2093(4) 0.4181(2)
C3 C 0.4968(5) 0.2307(5) 0.3574(2)
H4 H 0.5076 0.1625 0.3356
C4 C 0.5110(6) 0.3479(5) 0.3292(2)
H5 H 0.5313 0.3609 0.2881
C5 C 0.4958(6) 0.4486(5) 0.3605(2)
H6 H 0.5055 0.5301 0.3406
C6 C 0.4669(5) 0.4309(4) 0.4200(2)
H7 H 0.4567 0.4996 0.4414
C7 C 0.4423(5) 0.0781(4) 0.44402(19)
C8 C 0.5385(5) -0.1229(4) 0.50352(19)
H8 H 0.4358 -0.1362 0.5034
C9 C 0.5772(5) -0.1360(4) 0.5673(2)
H9 H 0.5659 -0.2207 0.5879
H10 H 0.6801 -0.1269 0.5682
C10 C 0.4861(4) -0.0534(4) 0.66317(18)
C11 C 0.4225(6) -0.1703(4) 0.6920(2)
H11 H 0.4842 -0.2478 0.6802
H12 H 0.3229 -0.1643 0.6797
C12 C 0.6423(5) -0.0641(5) 0.6796(2)
H13 H 0.6834 0.0103 0.6600
H14 H 0.7044 -0.1409 0.6672
C13 C 0.3897(5) 0.0647(4) 0.6821(2)
H15 H 0.2896 0.0716 0.6702
H16 H 0.4283 0.1404 0.6627
C14 C 0.4181(6) -0.1752(5) 0.7588(2)
H17 H 0.3777 -0.2510 0.7783
C15 C 0.5754(6) -0.1871(5) 0.7760(2)
H18 H 0.5758 -0.1939 0.8189
H19 H 0.6366 -0.2644 0.7637
C16 C 0.6380(5) -0.0710(5) 0.7466(2)
H20 H 0.7393 -0.0781 0.7586
C17 C 0.5417(6) 0.0485(5) 0.7657(2)
H21 H 0.5412 0.0447 0.8085
H22 H 0.5814 0.1241 0.7468
C18 C 0.3859(5) 0.0584(4) 0.7484(2)
H23 H 0.3233 0.1365 0.7604
C19 C 0.3241(5) -0.0575(5) 0.7783(2)
H24 H 0.3233 -0.0629 0.8212
H25 H 0.2226 -0.0505 0.7679
C20 C 0.6404(5) -0.2211(4) 0.4697(2)
H26 H 0.7427 -0.2060 0.4685
C21 C 0.6347(6) -0.3547(5) 0.4999(2)
H27 H 0.5327 -0.3647 0.5088
H28 H 0.6843 -0.3703 0.5362
H29 H 0.6833 -0.4153 0.4742
C22 C 0.5959(7) -0.2067(5) 0.4069(2)
H30 H 0.6037 -0.1218 0.3869
H31 H 0.4950 -0.2195 0.4076
H32 H 0.6606 -0.2696 0.3862
S2 S 1.05778(11) -0.09500(9) 0.57997(5)
O5 O 0.9238(3) -0.0006(3) 0.58128(15)
O6 O 1.1865(4) -0.0379(3) 0.57559(17)
O7 O 1.0564(5) -0.2012(3) 0.62640(17)
O8 O 0.8140(3) 0.0906(3) 0.45327(16)
N3 N 1.0399(4) 0.1291(3) 0.45884(16)
H33 H 1.1319 0.0947 0.4634
N4 N 0.9778(4) 0.2490(3) 0.55872(16)
H34 H 1.0760 0.2488 0.5507
H35 H 0.9656 0.1661 0.5663
C23 C 1.0638(5) -0.1587(4) 0.5141(2)
C24 C 1.0122(5) -0.0860(4) 0.4633(2)
C25 C 1.0209(6) -0.1409(5) 0.4127(2)
H36 H 0.9843 -0.0910 0.3781
C26 C 1.0816(7) -0.2661(5) 0.4119(3)
H37 H 1.0889 -0.3020 0.3770
C27 C 1.1323(6) -0.3396(5) 0.4631(3)
H38 H 1.1734 -0.4263 0.4630
C28 C 1.1232(5) -0.2871(4) 0.5140(2)
H39 H 1.1570 -0.3379 0.5488
C29 C 0.9457(5) 0.0530(4) 0.4591(2)
C30 C 1.0003(4) 0.2678(4) 0.45133(18)
H40 H 1.0930 0.3009 0.4506
C31 C 0.9032(5) 0.3087(4) 0.5062(2)
H41 H 0.8863 0.4017 0.5040
H42 H 0.8073 0.2823 0.5076
C32 C 0.9300(4) 0.3080(4) 0.61361(19)
C33 C 0.7661(5) 0.3125(4) 0.6289(2)
H43 H 0.7428 0.2268 0.6322
H44 H 0.7097 0.3680 0.5978
C34 C 0.9664(5) 0.4411(4) 0.6075(2)
H45 H 1.0722 0.4376 0.5973
H46 H 0.9125 0.4972 0.5759
C35 C 1.0158(5) 0.2231(4) 0.6623(2)
H47 H 0.9943 0.1367 0.6663
H48 H 1.1216 0.2185 0.6520
C36 C 0.7255(5) 0.3642(5) 0.6877(2)
H49 H 0.6188 0.3679 0.6983
C37 C 0.7609(6) 0.4982(5) 0.6807(2)
H50 H 0.7047 0.5536 0.6496
H51 H 0.7324 0.5337 0.7176
C38 C 0.9238(6) 0.4934(5) 0.6652(2)
H52 H 0.9464 0.5804 0.6612
C39 C 1.0108(5) 0.4065(5) 0.7142(2)
H53 H 1.1167 0.4033 0.7045
H54 H 0.9845 0.4406 0.7515
C40 C 0.9755(5) 0.2743(5) 0.7204(2)
H55 H 1.0328 0.2177 0.7515
C41 C 0.8130(5) 0.2777(5) 0.7362(2)
H56 H 0.7850 0.3101 0.7739
H57 H 0.7910 0.1913 0.7405
C42 C 0.9327(5) 0.3235(4) 0.3926(2)
H58 H 0.8301 0.3085 0.3949
C43 C 0.9327(7) 0.4653(5) 0.3792(2)
H59 H 0.8793 0.5069 0.4113
H60 H 0.8853 0.5000 0.3430
H61 H 1.0334 0.4800 0.3749
C44 C 1.0213(7) 0.2609(5) 0.3428(2)
H62 H 1.1232 0.2715 0.3418
H63 H 0.9809 0.3006 0.3056
H64 H 1.0167 0.1707 0.3490
S3 S 1.35242(10) 0.00577(9) 0.09651(5)
O9 O 1.4283(3) 0.1079(3) 0.07144(14)
O10 O 1.2018(4) 0.0311(4) 0.08436(16)
O11 O 1.4302(4) -0.1153(3) 0.08240(14)
O12 O 1.4798(4) 0.2691(3) 0.16652(17)
N5 N 1.2392(4) 0.2991(3) 0.15167(16)
H65 H 1.1615 0.2632 0.1576
N6 N 1.2759(4) 0.3503(4) 0.02788(16)
H66 H 1.1766 0.3535 0.0332
H67 H 1.3195 0.2696 0.0423
C45 C 1.3530(4) -0.0062(4) 0.17383(19)
C46 C 1.3494(4) 0.0996(4) 0.2017(2)
C47 C 1.3337(5) 0.0848(5) 0.2623(2)
H68 H 1.3285 0.1562 0.2815
C48 C 1.3256(6) -0.0321(6) 0.2955(2)
H69 H 1.3153 -0.0405 0.3369
C49 C 1.3326(6) -0.1361(5) 0.2675(2)
H70 H 1.3274 -0.2163 0.2898
C50 C 1.3473(5) -0.1234(4) 0.2074(2)
H71 H 1.3535 -0.1956 0.1886
C51 C 1.3636(5) 0.2306(4) 0.1705(2)
C52 C 1.2210(5) 0.4304(4) 0.1217(2)
H72 H 1.1171 0.4539 0.1114
C53 C 1.3144(5) 0.4372(4) 0.0634(2)
H73 H 1.2968 0.5245 0.0423
H74 H 1.4192 0.4136 0.0708
C54 C 1.3166(5) 0.3724(4) -0.03748(19)
C55 C 1.4805(5) 0.3687(4) -0.0484(2)
H75 H 1.5343 0.2878 -0.0290
H76 H 1.5085 0.4385 -0.0323
C56 C 1.2336(5) 0.4997(4) -0.0650(2)
H77 H 1.2601 0.5690 -0.0480
H78 H 1.1272 0.5026 -0.0575
C57 C 1.2715(5) 0.2656(4) -0.0625(2)
H79 H 1.1649 0.2690 -0.0550
H80 H 1.3217 0.1830 -0.0433
C58 C 1.5190(6) 0.3821(5) -0.1147(2)
H81 H 1.6265 0.3787 -0.1226
C59 C 1.4373(7) 0.5099(5) -0.1434(2)
H82 H 1.4663 0.5792 -0.1272
H83 H 1.4635 0.5209 -0.1859
C60 C 1.2754(6) 0.5156(5) -0.1323(2)
H84 H 1.2228 0.5986 -0.1513
C61 C 1.2315(7) 0.4071(6) -0.1578(2)
H85 H 1.1249 0.4104 -0.1510
H86 H 1.2564 0.4165 -0.2005
C62 C 1.3127(6) 0.2801(5) -0.1286(2)
H87 H 1.2846 0.2098 -0.1452
C63 C 1.4745(6) 0.2757(5) -0.1396(2)
H88 H 1.5012 0.2840 -0.1821
H89 H 1.5272 0.1935 -0.1212
C64 C 1.2442(5) 0.5286(4) 0.1590(2)
H90 H 1.3504 0.5328 0.1569
C65 C 1.1594(6) 0.6564(4) 0.1335(2)
H91 H 1.1946 0.6776 0.0927
H92 H 1.1739 0.7213 0.1558
H93 H 1.0554 0.6525 0.1355
C66 C 1.1900(6) 0.4958(5) 0.2224(2)
H94 H 1.0895 0.4812 0.2242
H95 H 1.1930 0.5658 0.2436
H96 H 1.2526 0.4192 0.2402
S4 S 0.83334(12) 0.39275(10) 0.04282(5)
O13 O 0.7395(4) 0.3036(3) 0.03772(17)
O14 O 0.9808(4) 0.3269(3) 0.05498(16)
O15 O 0.8287(5) 0.4955(4) -0.00544(17)
O16 O 0.9785(3) 0.2320(3) 0.19712(15)
N7 N 0.7866(4) 0.1771(4) 0.16176(18)
H97 H 0.6996 0.2034 0.1484
N8 N 0.8968(4) 0.0534(4) 0.06226(17)
H98 H 0.9917 0.0481 0.0710
H99 H 0.8552 0.1376 0.0564
C67 C 0.7666(5) 0.4645(4) 0.1065(2)
C68 C 0.7884(5) 0.3983(5) 0.1621(2)
C69 C 0.7466(5) 0.4625(5) 0.2111(2)
H100 H 0.7642 0.4192 0.2492
C70 C 0.6805(6) 0.5875(5) 0.2034(3)
H101 H 0.6518 0.6301 0.2364
C71 C 0.6553(6) 0.6521(5) 0.1477(3)
H102 H 0.6068 0.7376 0.1428
C72 C 0.7007(5) 0.5920(5) 0.0994(3)
H103 H 0.6871 0.6373 0.0614
C73 C 0.8605(5) 0.2619(4) 0.1742(2)
C74 C 0.8466(5) 0.0428(4) 0.1698(2)
H104 H 0.9543 0.0324 0.1723
C75 C 0.8192(5) -0.0085(4) 0.1124(2)
H105 H 0.8539 -0.1010 0.1165
H106 H 0.7135 0.0085 0.1067
C76 C 0.8989(5) 0.0004(4) 0.00504(19)
C77 C 0.7435(5) 0.0154(4) -0.0134(2)
H107 H 0.6949 0.1050 -0.0163
H108 H 0.6860 -0.0356 0.0157
C78 C 0.9729(5) -0.1382(4) 0.0113(2)
H109 H 0.9161 -0.1895 0.0406
H110 H 1.0721 -0.1476 0.0245
C79 C 0.9869(5) 0.0810(5) -0.0395(2)
H111 H 1.0861 0.0741 -0.0266
H112 H 0.9387 0.1707 -0.0431
C80 C 0.7541(5) -0.0305(4) -0.0735(2)
H113 H 0.6536 -0.0216 -0.0865
C81 C 0.8277(6) -0.1707(5) -0.0676(2)
H114 H 0.7706 -0.2217 -0.0383
H115 H 0.8313 -0.2019 -0.1054
C82 C 0.9815(6) -0.1839(5) -0.0488(2)
H116 H 1.0299 -0.2747 -0.0453
C83 C 1.0709(6) -0.1051(6) -0.0932(2)
H117 H 1.0791 -0.1352 -0.1315
H118 H 1.1705 -0.1142 -0.0803
C84 C 0.9967(6) 0.0336(5) -0.0991(2)
H119 H 1.0547 0.0851 -0.1285
C85 C 0.8417(6) 0.0495(5) -0.1181(2)
H120 H 0.7943 0.1395 -0.1211
H121 H 0.8450 0.0226 -0.1569
C86 C 0.7829(5) -0.0283(5) 0.2263(2)
H122 H 0.6782 -0.0299 0.2218
C87 C 0.8655(7) -0.1645(5) 0.2380(2)
H123 H 0.8511 -0.2105 0.2069
H124 H 0.8286 -0.2059 0.2756
H125 H 0.9698 -0.1642 0.2391
C88 C 0.7911(7) 0.0397(5) 0.2772(3)
H126 H 0.8930 0.0441 0.2813
H127 H 0.7515 -0.0063 0.3130
H128 H 0.7341 0.1254 0.2703
O17 O 0.4373(4) 0.5735(4) 0.61740(17)
H129 H 0.4294 0.5324 0.5907
C89 C 0.3460(6) 0.5376(5) 0.6667(2)
H130 H 0.2455 0.5813 0.6612
H131 H 0.3795 0.5603 0.7015
H132 H 0.3496 0.4461 0.6718
O18 O 1.3553(4) -0.2597(4) 0.00501(17)
H133 H 1.3636 -0.2172 0.0311
C90 C 1.4543(6) -0.2331(7) -0.0431(3)
H134 H 1.4125 -0.2399 -0.0792
H135 H 1.5460 -0.2936 -0.0389
H136 H 1.4731 -0.1473 -0.0448
O19 O 1.0128(7) -0.1384(6) 0.7388(3)
H137 H 1.0175 -0.1335 0.7023
C91 C 1.0059(12) -0.2621(9) 0.7641(5)
H138 H 0.9200 -0.2871 0.7518
H139 H 0.9986 -0.2675 0.8067
H140 H 1.0942 -0.3187 0.7517
O20 O 0.8645(9) 0.4124(6) -0.1112(3)
H141 H 0.8479 0.4128 -0.0751
C92 C 0.8276(13) 0.5329(7) -0.1400(3)
H142 H 0.8357 0.5310 -0.1821
H143 H 0.8938 0.5853 -0.1308
H144 H 0.7271 0.5684 -0.1276
loop_
_geom_bond_atom_site_label_1
_geom_bond_atom_site_label_2
_geom_bond_site_symmetry_1
_geom_bond_site_symmetry_2
S1 O1 1_555 1_555
O2 S1 1_555 1_555
O3 S1 1_555 1_555
O4 C7 1_555 1_555
N1 H1 1_555 1_555
N2 H2 1_555 1_555
H3 N2 1_555 1_555
C1 S1 1_555 1_555
C2 C1 1_555 1_555
C3 C2 1_555 1_555
H4 C3 1_555 1_555
C4 C3 1_555 1_555
H5 C4 1_555 1_555
C5 C4 1_555 1_555
H6 C5 1_555 1_555
C6 C1 1_555 1_555
H7 C6 1_555 1_555
C7 N1 1_555 1_555
C8 N1 1_555 1_555
H8 C8 1_555 1_555
C9 N2 1_555 1_555
H9 C9 1_555 1_555
H10 C9 1_555 1_555
C10 N2 1_555 1_555
C11 C10 1_555 1_555
H11 C11 1_555 1_555
H12 C11 1_555 1_555
C12 C10 1_555 1_555
H13 C12 1_555 1_555
H14 C12 1_555 1_555
C13 C10 1_555 1_555
H15 C13 1_555 1_555
H16 C13 1_555 1_555
C14 C11 1_555 1_555
H17 C14 1_555 1_555
C15 C14 1_555 1_555
H18 C15 1_555 1_555
H19 C15 1_555 1_555
C16 C12 1_555 1_555
H20 C16 1_555 1_555
C17 C16 1_555 1_555
H21 C17 1_555 1_555
H22 C17 1_555 1_555
C18 C13 1_555 1_555
H23 C18 1_555 1_555
C19 C14 1_555 1_555
H24 C19 1_555 1_555
H25 C19 1_555 1_555
C20 C8 1_555 1_555
H26 C20 1_555 1_555
C21 C20 1_555 1_555
H27 C21 1_555 1_555
H28 C21 1_555 1_555
H29 C21 1_555 1_555
C22 C20 1_555 1_555
H30 C22 1_555 1_555
H31 C22 1_555 1_555
H32 C22 1_555 1_555
S2 O5 1_555 1_555
O6 S2 1_555 1_555
O7 S2 1_555 1_555
O8 C29 1_555 1_555
N3 H33 1_555 1_555
N4 H34 1_555 1_555
H35 N4 1_555 1_555
C23 S2 1_555 1_555
C24 C23 1_555 1_555
C25 C24 1_555 1_555
H36 C25 1_555 1_555
C26 C25 1_555 1_555
H37 C26 1_555 1_555
C27 C26 1_555 1_555
H38 C27 1_555 1_555
C28 C23 1_555 1_555
H39 C28 1_555 1_555
C29 N3 1_555 1_555
C30 N3 1_555 1_555
H40 C30 1_555 1_555
C31 N4 1_555 1_555
H41 C31 1_555 1_555
H42 C31 1_555 1_555
C32 N4 1_555 1_555
C33 C32 1_555 1_555
H43 C33 1_555 1_555
H44 C33 1_555 1_555
C34 C32 1_555 1_555
H45 C34 1_555 1_555
H46 C34 1_555 1_555
C35 C32 1_555 1_555
H47 C35 1_555 1_555
H48 C35 1_555 1_555
C36 C33 1_555 1_555
H49 C36 1_555 1_555
C37 C36 1_555 1_555
H50 C37 1_555 1_555
H51 C37 1_555 1_555
C38 C34 1_555 1_555
H52 C38 1_555 1_555
C39 C38 1_555 1_555
H53 C39 1_555 1_555
H54 C39 1_555 1_555
C40 C35 1_555 1_555
H55 C40 1_555 1_555
C41 C36 1_555 1_555
H56 C41 1_555 1_555
H57 C41 1_555 1_555
C42 C30 1_555 1_555
H58 C42 1_555 1_555
C43 C42 1_555 1_555
H59 C43 1_555 1_555
H60 C43 1_555 1_555
H61 C43 1_555 1_555
C44 C42 1_555 1_555
H62 C44 1_555 1_555
H63 C44 1_555 1_555
H64 C44 1_555 1_555
S3 O9 1_555 1_555
O10 S3 1_555 1_555
O11 S3 1_555 1_555
O12 C51 1_555 1_555
N5 H65 1_555 1_555
N6 H66 1_555 1_555
H67 N6 1_555 1_555
C45 S3 1_555 1_555
C46 C45 1_555 1_555
C47 C46 1_555 1_555
H68 C47 1_555 1_555
C48 C47 1_555 1_555
H69 C48 1_555 1_555
C49 C48 1_555 1_555
H70 C49 1_555 1_555
C50 C45 1_555 1_555
H71 C50 1_555 1_555
C51 N5 1_555 1_555
C52 N5 1_555 1_555
H72 C52 1_555 1_555
C53 N6 1_555 1_555
H73 C53 1_555 1_555
H74 C53 1_555 1_555
C54 N6 1_555 1_555
C55 C54 1_555 1_555
H75 C55 1_555 1_555
H76 C55 1_555 1_555
C56 C54 1_555 1_555
H77 C56 1_555 1_555
H78 C56 1_555 1_555
C57 C54 1_555 1_555
H79 C57 1_555 1_555
H80 C57 1_555 1_555
C58 C55 1_555 1_555
H81 C58 1_555 1_555
C59 C58 1_555 1_555
H82 C59 1_555 1_555
H83 C59 1_555 1_555
C60 C56 1_555 1_555
H84 C60 1_555 1_555
C61 C60 1_555 1_555
H85 C61 1_555 1_555
H86 C61 1_555 1_555
C62 C57 1_555 1_555
H87 C62 1_555 1_555
C63 C58 1_555 1_555
H88 C63 1_555 1_555
H89 C63 1_555 1_555
C64 C52 1_555 1_555
H90 C64 1_555 1_555
C65 C64 1_555 1_555
H91 C65 1_555 1_555
H92 C65 1_555 1_555
H93 C65 1_555 1_555
C66 C64 1_555 1_555
H94 C66 1_555 1_555
H95 C66 1_555 1_555
H96 C66 1_555 1_555
S4 O13 1_555 1_555
O14 S4 1_555 1_555
O15 S4 1_555 1_555
O16 C73 1_555 1_555
N7 H97 1_555 1_555
N8 H98 1_555 1_555
H99 N8 1_555 1_555
C67 S4 1_555 1_555
C68 C67 1_555 1_555
C69 C68 1_555 1_555
H100 C69 1_555 1_555
C70 C69 1_555 1_555
H101 C70 1_555 1_555
C71 C70 1_555 1_555
H102 C71 1_555 1_555
C72 C67 1_555 1_555
H103 C72 1_555 1_555
C73 N7 1_555 1_555
C74 N7 1_555 1_555
H104 C74 1_555 1_555
C75 N8 1_555 1_555
H105 C75 1_555 1_555
H106 C75 1_555 1_555
C76 N8 1_555 1_555
C77 C76 1_555 1_555
H107 C77 1_555 1_555
H108 C77 1_555 1_555
C78 C76 1_555 1_555
H109 C78 1_555 1_555
H110 C78 1_555 1_555
C79 C76 1_555 1_555
H111 C79 1_555 1_555
H112 C79 1_555 1_555
C80 C77 1_555 1_555
H113 C80 1_555 1_555
C81 C80 1_555 1_555
H114 C81 1_555 1_555
H115 C81 1_555 1_555
C82 C78 1_555 1_555
H116 C82 1_555 1_555
C83 C82 1_555 1_555
H117 C83 1_555 1_555
H118 C83 1_555 1_555
C84 C79 1_555 1_555
H119 C84 1_555 1_555
C85 C80 1_555 1_555
H120 C85 1_555 1_555
H121 C85 1_555 1_555
C86 C74 1_555 1_555
H122 C86 1_555 1_555
C87 C86 1_555 1_555
H123 C87 1_555 1_555
H124 C87 1_555 1_555
H125 C87 1_555 1_555
C88 C86 1_555 1_555
H126 C88 1_555 1_555
H127 C88 1_555 1_555
H128 C88 1_555 1_555
O17 H129 1_555 1_555
C89 O17 1_555 1_555
H130 C89 1_555 1_555
H131 C89 1_555 1_555
H132 C89 1_555 1_555
O18 H133 1_555 1_555
C90 O18 1_555 1_555
H134 C90 1_555 1_555
H135 C90 1_555 1_555
H136 C90 1_555 1_555
O19 H137 1_555 1_555
C91 O19 1_555 1_555
H138 C91 1_555 1_555
H139 C91 1_555 1_555
H140 C91 1_555 1_555
O20 H141 1_555 1_555
C92 O20 1_555 1_555
H142 C92 1_555 1_555
H143 C92 1_555 1_555
H144 C92 1_555 1_555
C2 C7 1_555 1_555
C5 C6 1_555 1_555
C8 C9 1_555 1_555
C15 C16 1_555 1_555
C17 C18 1_555 1_555
C18 C19 1_555 1_555
C24 C29 1_555 1_555
C27 C28 1_555 1_555
C30 C31 1_555 1_555
C37 C38 1_555 1_555
C39 C40 1_555 1_555
C40 C41 1_555 1_555
C46 C51 1_555 1_555
C49 C50 1_555 1_555
C52 C53 1_555 1_555
C59 C60 1_555 1_555
C61 C62 1_555 1_555
C62 C63 1_555 1_555
C68 C73 1_555 1_555
C71 C72 1_555 1_555
C74 C75 1_555 1_555
C81 C82 1_555 1_555
C83 C84 1_555 1_555
C84 C85 1_555 1_555

#END
