
#######################################################################
#
#                 Cambridge Crystallographic Data Centre
#                                CCDC 
#
#######################################################################
#
# If this CIF has been generated from an entry in the Cambridge 
# Structural Database, then it will include bibliographic, chemical, 
# crystal, experimental, refinement or atomic coordinate data resulting 
# from the CCDC's data processing and validation procedures.
#
#######################################################################

data_QARKEB
_chemical_formula_moiety         'C29 H34 N2 O3 S1,H2 O1'
_chemical_name_systematic        
'(S)-2-((4-Benzyl-1-(2,6-di-isopropylphenyl)-4,5-dihydro-1H-imidazol-3-ium-3-yl)methyl)benzenesulfonate monohydrate'
_symmetry_cell_setting           orthorhombic
_symmetry_space_group_name_H-M   'P 21 21 21'
_symmetry_Int_Tables_number      19
_space_group_name_Hall           'P 2ac 2ab'
loop_
_symmetry_equiv_pos_site_id
_symmetry_equiv_pos_as_xyz
1 x,y,z
2 1/2-x,-y,1/2+z
3 -x,1/2+y,1/2-z
4 1/2+x,1/2-y,-z
_cell_length_a                   10.5687(3)
_cell_length_b                   11.1078(4)
_cell_length_c                   22.5471(8)
_cell_angle_alpha                90
_cell_angle_beta                 90
_cell_angle_gamma                90
_cell_volume                     2646.92
_exptl_crystal_colour            colorless
_exptl_crystal_description       rod
_chemical_melting_point          '200-205 deg.C'
_cell_formula_units_Z            4
loop_
_atom_site_label
_atom_site_type_symbol
_atom_site_fract_x
_atom_site_fract_y
_atom_site_fract_z
C1 C 0.83196(18) 0.62162(19) 1.07691(9)
S1 S 0.80274(5) 0.78054(5) 1.07650(2)
O1 O 0.91489(15) 0.83058(15) 1.04751(7)
O2 O 0.68798(15) 0.79959(14) 1.04296(7)
O3 O 0.79370(19) 0.81602(16) 1.13808(7)
C2 C 0.9081(2) 0.5794(2) 1.12327(9)
H1 H 0.9380 0.6344 1.1524
C3 C 0.9405(2) 0.4601(3) 1.12747(10)
H2 H 0.9941 0.4337 1.1587
C4 C 0.8953(2) 0.3780(2) 1.08634(10)
H3 H 0.9156 0.2950 1.0896
C5 C 0.8196(2) 0.4193(2) 1.04024(9)
H4 H 0.7882 0.3632 1.0121
C6 C 0.78817(19) 0.54083(19) 1.03396(8)
C7 C 0.7094(2) 0.57468(18) 0.98029(8)
H5 H 0.6882 0.5009 0.9578
H6 H 0.6291 0.6116 0.9938
N1 N 0.77551(15) 0.65929(15) 0.94092(7)
C8 C 0.91406(18) 0.65759(17) 0.92971(9)
H7 H 0.9594 0.6650 0.9685
C9 C 0.93261(18) 0.77547(18) 0.89414(9)
H8 H 0.9856 0.8335 0.9164
H9 H 0.9725 0.7593 0.8552
N2 N 0.80165(16) 0.82147(14) 0.88675(7)
C10 C 0.72230(18) 0.75312(17) 0.91634(8)
H10 H 0.6345 0.7702 0.9196
C11 C 0.95790(19) 0.54223(19) 0.89870(9)
H11 H 1.0515 0.5399 0.8994
H12 H 0.9270 0.4723 0.9218
C12 C 0.9146(2) 0.52807(18) 0.83532(9)
C13 C 0.7967(2) 0.47914(18) 0.82133(10)
H13 H 0.7405 0.4560 0.8522
C14 C 0.7612(2) 0.4642(2) 0.76235(10)
H14 H 0.6805 0.4316 0.7532
C15 C 0.8425(2) 0.4962(2) 0.71690(10)
H15 H 0.8184 0.4835 0.6768
C16 C 0.9594(2) 0.5471(2) 0.73010(10)
H16 H 1.0150 0.5707 0.6991
C17 C 0.9941(2) 0.5629(2) 0.78930(10)
H17 H 1.0736 0.5983 0.7983
C18 C 0.77055(18) 0.93063(18) 0.85552(9)
C19 C 0.73883(18) 0.92265(19) 0.79492(9)
C20 C 0.7100(2) 1.03064(19) 0.76583(9)
H18 H 0.6845 1.0286 0.7254
C21 C 0.7180(2) 1.14033(19) 0.79472(10)
H19 H 0.6996 1.2126 0.7739
C22 C 0.7529(2) 1.14498(19) 0.85418(10)
H20 H 0.7584 1.2208 0.8735
C23 C 0.77975(19) 1.0402(2) 0.88583(9)
C24 C 0.8190(2) 1.04826(19) 0.95060(9)
H21 H 0.8387 0.9649 0.9645
C25 C 0.7103(2) 1.0968(2) 0.98909(10)
H22 H 0.6375 1.0424 0.9863
H23 H 0.6859 1.1770 0.9751
H24 H 0.7382 1.1019 1.0305
C26 C 0.9390(2) 1.1240(2) 0.95777(11)
H25 H 0.9222 1.2067 0.9448
H26 H 1.0069 1.0895 0.9335
H27 H 0.9648 1.1243 0.9995
C27 C 0.7340(2) 0.80351(19) 0.76173(9)
H28 H 0.7883 0.7450 0.7838
C28 C 0.5997(2) 0.7524(2) 0.76053(12)
H29 H 0.5424 0.8110 0.7423
H30 H 0.5718 0.7356 0.8011
H31 H 0.5987 0.6777 0.7374
C29 C 0.7875(3) 0.8141(2) 0.69874(10)
H32 H 0.8745 0.8442 0.7006
H33 H 0.7354 0.8701 0.6757
H34 H 0.7866 0.7348 0.6797
O4 O 0.9984(2) 1.0386(2) 1.11261(10)
H35 H 0.963(4) 0.982(3) 1.0911(16)
H36 H 0.962(4) 1.029(4) 1.1480(11)
loop_
_geom_bond_atom_site_label_1
_geom_bond_atom_site_label_2
_geom_bond_site_symmetry_1
_geom_bond_site_symmetry_2
C1 S1 1_555 1_555
S1 O1 1_555 1_555
O2 S1 1_555 1_555
O3 S1 1_555 1_555
C2 C1 1_555 1_555
H1 C2 1_555 1_555
C3 C2 1_555 1_555
H2 C3 1_555 1_555
C4 C3 1_555 1_555
H3 C4 1_555 1_555
C5 C4 1_555 1_555
H4 C5 1_555 1_555
C6 C1 1_555 1_555
C7 C6 1_555 1_555
H5 C7 1_555 1_555
H6 C7 1_555 1_555
N1 C7 1_555 1_555
C8 N1 1_555 1_555
H7 C8 1_555 1_555
C9 C8 1_555 1_555
H8 C9 1_555 1_555
H9 C9 1_555 1_555
N2 C9 1_555 1_555
C10 N1 1_555 1_555
H10 C10 1_555 1_555
C11 C8 1_555 1_555
H11 C11 1_555 1_555
H12 C11 1_555 1_555
C12 C11 1_555 1_555
C13 C12 1_555 1_555
H13 C13 1_555 1_555
C14 C13 1_555 1_555
H14 C14 1_555 1_555
C15 C14 1_555 1_555
H15 C15 1_555 1_555
C16 C15 1_555 1_555
H16 C16 1_555 1_555
C17 C12 1_555 1_555
H17 C17 1_555 1_555
C18 N2 1_555 1_555
C19 C18 1_555 1_555
C20 C19 1_555 1_555
H18 C20 1_555 1_555
C21 C20 1_555 1_555
H19 C21 1_555 1_555
C22 C21 1_555 1_555
H20 C22 1_555 1_555
C23 C18 1_555 1_555
C24 C23 1_555 1_555
H21 C24 1_555 1_555
C25 C24 1_555 1_555
H22 C25 1_555 1_555
H23 C25 1_555 1_555
H24 C25 1_555 1_555
C26 C24 1_555 1_555
H25 C26 1_555 1_555
H26 C26 1_555 1_555
H27 C26 1_555 1_555
C27 C19 1_555 1_555
H28 C27 1_555 1_555
C28 C27 1_555 1_555
H29 C28 1_555 1_555
H30 C28 1_555 1_555
H31 C28 1_555 1_555
C29 C27 1_555 1_555
H32 C29 1_555 1_555
H33 C29 1_555 1_555
H34 C29 1_555 1_555
O4 H35 1_555 1_555
H36 O4 1_555 1_555
C5 C6 1_555 1_555
N2 C10 1_555 1_555
C16 C17 1_555 1_555
C22 C23 1_555 1_555

#END
