
#######################################################################
#
#                 Cambridge Crystallographic Data Centre
#                                CCDC 
#
#######################################################################
#
# If this CIF has been generated from an entry in the Cambridge 
# Structural Database, then it will include bibliographic, chemical, 
# crystal, experimental, refinement or atomic coordinate data resulting 
# from the CCDC's data processing and validation procedures.
#
#######################################################################

data_QARLED
_chemical_formula_moiety         'C27 H28 B10'
_chemical_name_systematic        
2-(1,2-dicarba-closo-dodecaboran-1-yl)-9,9-diphenyl-9H-fluorene
_symmetry_cell_setting           tetragonal
_symmetry_space_group_name_H-M   'I 41/a'
_symmetry_Int_Tables_number      88
_space_group_name_Hall           '-I 4ad'
loop_
_symmetry_equiv_pos_site_id
_symmetry_equiv_pos_as_xyz
1 x,y,z
2 3/4-y,1/4+x,1/4+z
3 1/2-x,-y,1/2+z
4 3/4+y,3/4-x,3/4+z
5 1/2+x,1/2+y,1/2+z
6 1/4-y,3/4+x,3/4+z
7 -x,1/2-y,z
8 1/4+y,1/4-x,1/4+z
9 -x,-y,-z
10 1/4+y,3/4-x,3/4-z
11 1/2+x,y,1/2-z
12 1/4-y,1/4+x,1/4-z
13 1/2-x,1/2-y,1/2-z
14 3/4+y,1/4-x,1/4-z
15 x,1/2+y,-z
16 3/4-y,3/4+x,3/4-z
_cell_length_a                   29.1255(9)
_cell_length_b                   29.1255(9)
_cell_length_c                   14.6448(5)
_cell_angle_alpha                90
_cell_angle_beta                 90
_cell_angle_gamma                90
_cell_volume                     12423.1
_exptl_crystal_colour            colorless
_exptl_crystal_description       block
_cell_formula_units_Z            16
loop_
_atom_site_label
_atom_site_type_symbol
_atom_site_fract_x
_atom_site_fract_y
_atom_site_fract_z
C1 C -0.20465(7) -0.33284(6) 0.27499(12)
C2 C -0.17073(7) -0.37538(7) 0.31074(12)
H1 H -0.1540 -0.3908 0.2670
C3 C -0.20223(6) -0.31758(7) 0.17592(12)
C4 C -0.22618(6) -0.34136(6) 0.10769(12)
H2 H -0.2445 -0.3665 0.1223
C5 C -0.22195(6) -0.32663(6) 0.01770(13)
C6 C -0.19497(6) -0.28878(6) -0.00426(13)
C7 C -0.17169(7) -0.26470(7) 0.06433(13)
H3 H -0.1537 -0.2394 0.0500
C8 C -0.17603(7) -0.27933(6) 0.15386(13)
H4 H -0.1611 -0.2632 0.2000
C9 C -0.19573(7) -0.28177(7) -0.10340(13)
C10 C -0.22199(6) -0.31673(6) -0.14246(13)
C11 C -0.22751(7) -0.31902(7) -0.23660(13)
H5 H -0.2445 -0.3425 -0.2632
C12 C -0.20685(7) -0.28518(7) -0.29034(13)
H6 H -0.2101 -0.2863 -0.3535
C13 C -0.18162(7) -0.25005(7) -0.25091(14)
H7 H -0.1685 -0.2276 -0.2878
C14 C -0.17571(7) -0.24793(7) -0.15661(15)
H8 H -0.1588 -0.2244 -0.1301
C15 C -0.24274(6) -0.34836(6) -0.06872(12)
C16 C -0.29489(7) -0.34432(6) -0.07471(13)
C17 C -0.31918(7) -0.31297(7) -0.02153(14)
H9 H -0.3039 -0.2964 0.0234
C18 C -0.36596(7) -0.30610(7) -0.03462(14)
H10 H -0.3816 -0.2850 0.0016
C19 C -0.38962(7) -0.33062(7) -0.10181(14)
H11 H -0.4209 -0.3259 -0.1107
C20 C -0.36603(7) -0.36196(7) -0.15486(13)
H12 H -0.3815 -0.3784 -0.1997
C21 C -0.31908(7) -0.36911(7) -0.14159(12)
H13 H -0.3037 -0.3905 -0.1774
C22 C -0.22523(7) -0.39792(6) -0.07506(12)
C23 C -0.18383(7) -0.40871(7) -0.11811(13)
H14 H -0.1673 -0.3859 -0.1480
C24 C -0.16709(7) -0.45347(7) -0.11649(13)
H15 H -0.1394 -0.4601 -0.1451
C25 C -0.19087(7) -0.48799(7) -0.07320(13)
H16 H -0.1794 -0.5178 -0.0729
C26 C -0.23230(7) -0.47788(7) -0.02973(14)
H17 H -0.2487 -0.5009 -0.0001
C27 C -0.24881(6) -0.43306(7) -0.03122(13)
H18 H -0.2764 -0.4264 -0.0021
B1 B -0.15691(8) -0.32054(8) 0.34265(15)
H19 H -0.1288 -0.3037 0.3136
B2 B -0.21124(8) -0.29360(8) 0.36087(15)
H20 H -0.2124 -0.2570 0.3408
B3 B -0.25541(7) -0.33418(8) 0.33466(15)
H21 H -0.2832 -0.3227 0.2989
B4 B -0.22817(8) -0.38612(7) 0.30022(14)
H22 H -0.2409 -0.4054 0.2497
B5 B -0.19566(8) -0.40767(8) 0.39330(15)
H23 H -0.1923 -0.4444 0.3957
B6 B -0.15183(8) -0.36748(8) 0.41911(15)
H24 H -0.1196 -0.3837 0.4333
B7 B -0.17861(8) -0.31544(8) 0.45435(15)
H25 H -0.1633 -0.2926 0.5024
B8 B -0.23941(8) -0.32400(8) 0.45052(14)
H26 H -0.2600 -0.3100 0.4961
B9 B -0.25011(8) -0.38122(8) 0.41143(15)
H27 H -0.2777 -0.4026 0.4332
B10 B -0.20275(8) -0.36934(8) 0.48596(15)
H28 H -0.2006 -0.3824 0.5528
loop_
_geom_bond_atom_site_label_1
_geom_bond_atom_site_label_2
_geom_bond_site_symmetry_1
_geom_bond_site_symmetry_2
C1 C2 1_555 1_555
C2 H1 1_555 1_555
C3 C1 1_555 1_555
C4 C3 1_555 1_555
H2 C4 1_555 1_555
C5 C4 1_555 1_555
C6 C5 1_555 1_555
C7 C6 1_555 1_555
H3 C7 1_555 1_555
C8 C3 1_555 1_555
H4 C8 1_555 1_555
C9 C6 1_555 1_555
C10 C9 1_555 1_555
C11 C10 1_555 1_555
H5 C11 1_555 1_555
C12 C11 1_555 1_555
H6 C12 1_555 1_555
C13 C12 1_555 1_555
H7 C13 1_555 1_555
C14 C9 1_555 1_555
H8 C14 1_555 1_555
C15 C5 1_555 1_555
C16 C15 1_555 1_555
C17 C16 1_555 1_555
H9 C17 1_555 1_555
C18 C17 1_555 1_555
H10 C18 1_555 1_555
C19 C18 1_555 1_555
H11 C19 1_555 1_555
C20 C19 1_555 1_555
H12 C20 1_555 1_555
C21 C16 1_555 1_555
H13 C21 1_555 1_555
C22 C15 1_555 1_555
C23 C22 1_555 1_555
H14 C23 1_555 1_555
C24 C23 1_555 1_555
H15 C24 1_555 1_555
C25 C24 1_555 1_555
H16 C25 1_555 1_555
C26 C25 1_555 1_555
H17 C26 1_555 1_555
C27 C22 1_555 1_555
H18 C27 1_555 1_555
B1 C1 1_555 1_555
H19 B1 1_555 1_555
B2 C1 1_555 1_555
H20 B2 1_555 1_555
B3 C1 1_555 1_555
H21 B3 1_555 1_555
B4 C1 1_555 1_555
H22 B4 1_555 1_555
B5 C2 1_555 1_555
H23 B5 1_555 1_555
B6 C2 1_555 1_555
H24 B6 1_555 1_555
B7 B1 1_555 1_555
H25 B7 1_555 1_555
B8 B2 1_555 1_555
H26 B8 1_555 1_555
B9 B3 1_555 1_555
H27 B9 1_555 1_555
B10 B5 1_555 1_555
H28 B10 1_555 1_555
C2 B1 1_555 1_555
C2 B4 1_555 1_555
C7 C8 1_555 1_555
C10 C15 1_555 1_555
C13 C14 1_555 1_555
C20 C21 1_555 1_555
C26 C27 1_555 1_555
B1 B2 1_555 1_555
B1 B6 1_555 1_555
B2 B3 1_555 1_555
B2 B7 1_555 1_555
B3 B4 1_555 1_555
B3 B8 1_555 1_555
B4 B5 1_555 1_555
B4 B9 1_555 1_555
B5 B6 1_555 1_555
B5 B9 1_555 1_555
B6 B7 1_555 1_555
B6 B10 1_555 1_555
B7 B8 1_555 1_555
B7 B10 1_555 1_555
B8 B9 1_555 1_555
B8 B10 1_555 1_555
B9 B10 1_555 1_555

#END
