
#######################################################################
#
#                 Cambridge Crystallographic Data Centre
#                                CCDC 
#
#######################################################################
#
# If this CIF has been generated from an entry in the Cambridge 
# Structural Database, then it will include bibliographic, chemical, 
# crystal, experimental, refinement or atomic coordinate data resulting 
# from the CCDC's data processing and validation procedures.
#
#######################################################################

data_QASFIC
_chemical_formula_moiety         'C18 H19 N2 1+,I1 1-'
_chemical_name_systematic        
'1,3,3-trimethyl-2-(2-(pyridin-4-yl)vinyl)-3H-indolium iodide'
_symmetry_cell_setting           orthorhombic
_symmetry_space_group_name_H-M   'C m c 21'
_symmetry_Int_Tables_number      36
_space_group_name_Hall           'C 2n -2'
loop_
_symmetry_equiv_pos_site_id
_symmetry_equiv_pos_as_xyz
1 x,y,z
2 -x,-y,1/2+z
3 x,-y,1/2+z
4 -x,y,z
5 1/2+x,1/2+y,z
6 1/2-x,1/2-y,1/2+z
7 1/2+x,1/2-y,1/2+z
8 1/2-x,1/2+y,z
_cell_length_a                   7.2991(12)
_cell_length_b                   18.472(3)
_cell_length_c                   12.541(2)
_cell_angle_alpha                90
_cell_angle_beta                 90
_cell_angle_gamma                90
_cell_volume                     1690.89
_cell_formula_units_Z            4
_exptl_crystal_recrystallization_method ethanol/isopropanol
loop_
_atom_site_label
_atom_site_type_symbol
_atom_site_fract_x
_atom_site_fract_y
_atom_site_fract_z
I1 I 0.0000 0.317152(13) 0.05301(6)
C1 C 0.0000 0.1939(4) 0.4406(8)
C2 C 0.0000 0.2569(5) 0.6137(6)
C3 C 0.0000 0.1901(3) 0.6723(8)
H1 H 0.0000 0.1473 0.6332
N1 N 0.0000 0.2570(3) 0.5098(4)
C4 C 0.0000 0.3353(4) 0.6551(6)
C5 C 0.0000 0.1846(2) 0.7784(4)
H2 H 0.0000 0.2271 0.8182
C6 C 0.0000 0.37654(17) 0.5524(10)
C7 C 0.0000 0.1156(2) 0.9458(4)
H3 H 0.0000 0.1591 0.9830
C8 C 0.0000 0.1150(2) 0.8366(3)
C9 C 0.0000 0.3508(3) 0.3627(4)
H4 H 0.0000 0.3178 0.3068
C10 C 0.1735(4) 0.35076(17) 0.7207(2)
H5 H 0.1847 0.4020 0.7320
H6 H 0.2789 0.3334 0.6827
H7 H 0.1651 0.3265 0.7882
C11 C 0.0000 0.4498(2) 0.5331(5)
H8 H 0.0000 0.4828 0.5891
C12 C 0.0000 0.0477(3) 0.7870(5)
H9 H 0.0000 0.0440 0.7131
N2 N 0.0000 -0.0137(2) 0.9566(4)
C13 C 0.0000 -0.0143(3) 0.8508(6)
H10 H 0.0000 -0.0591 0.8168
C14 C 0.0000 0.0506(3) 0.9997(5)
H11 H 0.0000 0.0527 1.0738
C15 C 0.0000 0.4238(3) 0.3447(4)
H12 H 0.0000 0.4407 0.2749
C16 C 0.0000 0.4733(3) 0.4279(5)
H13 H 0.0000 0.5226 0.4131
C17 C 0.0000 0.3286(4) 0.4669(7)
C10C C -0.1735(4) 0.35076(17) 0.7207(2)
H5C H -0.1847 0.4020 0.7320
H6C H -0.2789 0.3334 0.6827
H7C H -0.1651 0.3265 0.7882
H14? H -0.0417 0.2076 0.3708
H15? H -0.0803 0.1577 0.4694
H16? H 0.1220 0.1748 0.4357
loop_
_geom_bond_atom_site_label_1
_geom_bond_atom_site_label_2
_geom_bond_site_symmetry_1
_geom_bond_site_symmetry_2
C1 N1 1_555 1_555
C2 C3 1_555 1_555
C3 H1 1_555 1_555
N1 C2 1_555 1_555
C4 C2 1_555 1_555
C5 C3 1_555 1_555
H2 C5 1_555 1_555
C6 C4 1_555 1_555
C7 H3 1_555 1_555
C8 C5 1_555 1_555
C9 H4 1_555 1_555
C10 C4 1_555 1_555
H5 C10 1_555 1_555
H6 C10 1_555 1_555
H7 C10 1_555 1_555
C11 C6 1_555 1_555
H8 C11 1_555 1_555
C12 C8 1_555 1_555
H9 C12 1_555 1_555
N2 C13 1_555 1_555
C13 C12 1_555 1_555
H10 C13 1_555 1_555
C14 C7 1_555 1_555
H11 C14 1_555 1_555
C15 C9 1_555 1_555
H12 C15 1_555 1_555
C16 C11 1_555 1_555
H13 C16 1_555 1_555
C17 N1 1_555 1_555
C10C C4 1_555 1_555
H5C C10C 1_555 1_555
H6C C10C 1_555 1_555
H7C C10C 1_555 1_555
C6 C17 1_555 1_555
C7 C8 1_555 1_555
C9 C17 1_555 1_555
N2 C14 1_555 1_555
C15 C16 1_555 1_555

#END
