
#######################################################################
#
#                 Cambridge Crystallographic Data Centre
#                                CCDC 
#
#######################################################################
#
# If this CIF has been generated from an entry in the Cambridge 
# Structural Database, then it will include bibliographic, chemical, 
# crystal, experimental, refinement or atomic coordinate data resulting 
# from the CCDC's data processing and validation procedures.
#
#######################################################################

data_QASTOW
_chemical_formula_moiety         'C30 H25 Cl1 N2 O5'
_chemical_name_systematic        
'dimethyl 3-(4-chlorophenyl)-6-cyano-2-[2-(4-methylphenyl)ethenyl]-6-phenyl-3,6-dihydro-2H-1,3-oxazine-4,5-dicarboxylate'
_symmetry_cell_setting           triclinic
_symmetry_space_group_name_H-M   'P -1'
_symmetry_Int_Tables_number      2
_space_group_name_Hall           '-P 1'
loop_
_symmetry_equiv_pos_site_id
_symmetry_equiv_pos_as_xyz
1 x,y,z
2 -x,-y,-z
_cell_length_a                   10.621(2)
_cell_length_b                   11.822(2)
_cell_length_c                   13.124(3)
_cell_angle_alpha                67.027(6)
_cell_angle_beta                 66.966(5)
_cell_angle_gamma                66.526(6)
_cell_volume                     1336.26
_exptl_crystal_colour            colorless
_exptl_crystal_description       block
_cell_formula_units_Z            2
loop_
_atom_site_label
_atom_site_type_symbol
_atom_site_fract_x
_atom_site_fract_y
_atom_site_fract_z
C1 C 0.8603(2) 0.91743(19) 0.15653(16)
H1 H 0.7647 0.9492 0.1572
C2 C 0.9329(3) 1.0000(2) 0.14087(17)
H2 H 0.8859 1.0869 0.1331
C3 C 1.0752(3) 0.9526(2) 0.13693(17)
C4 C 1.1459(2) 0.8249(2) 0.15026(18)
H3 H 1.2424 0.7944 0.1469
C5 C 1.0728(2) 0.7416(2) 0.16874(18)
H4 H 1.1197 0.6543 0.1796
C6 C 0.92946(19) 0.78788(18) 0.17116(15)
C7 C 0.93852(19) 0.60750(19) 0.11530(16)
H5 H 1.0236 0.6326 0.0605
C8 C 0.98951(19) 0.47471(19) 0.18720(17)
H6 H 1.0254 0.4087 0.1526
C9 C 0.98817(19) 0.44247(19) 0.29602(16)
H7 H 0.9465 0.5079 0.3320
C10 C 1.0464(2) 0.31307(19) 0.36515(17)
C11 C 1.1281(3) 0.2113(2) 0.3176(2)
H8 H 1.1494 0.2250 0.2387
C12 C 1.1779(3) 0.0910(3) 0.3852(2)
H9 H 1.2323 0.0244 0.3510
C13 C 1.1496(3) 0.0659(2) 0.5028(2)
C14 C 1.2050(4) -0.0675(3) 0.5763(3)
H10 H 1.2696 -0.1220 0.5275
H11 H 1.1263 -0.1014 0.6260
H12 H 1.2544 -0.0638 0.6220
C15 C 1.0752(2) 0.1679(2) 0.54867(19)
H13 H 1.0581 0.1547 0.6270
C16 C 1.0251(2) 0.2895(2) 0.48130(17)
H14 H 0.9760 0.3570 0.5148
C17 C 0.72152(18) 0.70324(17) 0.24039(15)
C18 C 0.6500(2) 0.7701(2) 0.33503(17)
C19 C 0.6234(3) 0.7386(3) 0.5306(2)
H15 H 0.6176 0.8270 0.5136
H16 H 0.6748 0.6868 0.5873
H17 H 0.5288 0.7295 0.5600
C20 C 0.65321(19) 0.64340(18) 0.21834(16)
C21 C 0.5146(2) 0.6227(2) 0.29023(18)
C22 C 0.3294(3) 0.6378(3) 0.4620(3)
H18 H 0.2586 0.7081 0.4289
H19 H 0.3159 0.6403 0.5379
H20 H 0.3201 0.5583 0.4667
C23 C 0.71867(19) 0.59243(18) 0.11390(16)
C24 C 0.7408(2) 0.4503(2) 0.15145(19)
C25 C 0.6321(2) 0.65841(19) 0.02580(17)
C26 C 0.5743(2) 0.7902(2) -0.0008(2)
H21 H 0.5794 0.8358 0.0407
C27 C 0.5092(3) 0.8546(3) -0.0884(2)
H22 H 0.4728 0.9436 -0.1071
C28 C 0.4979(3) 0.7882(3) -0.1483(2)
H23 H 0.4520 0.8318 -0.2062
C29 C 0.5542(3) 0.6577(3) -0.1225(2)
H24 H 0.5470 0.6124 -0.1632
C30 C 0.6220(2) 0.5925(2) -0.03571(19)
H25 H 0.6609 0.5038 -0.0190
Cl1 Cl 1.16755(9) 1.05728(8) 0.11246(6)
N1 N 0.86054(15) 0.70099(14) 0.18132(13)
N2 N 0.7601(3) 0.3430(2) 0.1766(2)
O1 O 0.56366(18) 0.87257(15) 0.32721(14)
O2 O 0.69808(15) 0.69704(15) 0.42570(12)
O3 O 0.44907(17) 0.58173(18) 0.26250(15)
O4 O 0.47015(16) 0.64775(17) 0.39071(14)
O5 O 0.85370(13) 0.61667(12) 0.04883(10)
loop_
_geom_bond_atom_site_label_1
_geom_bond_atom_site_label_2
_geom_bond_site_symmetry_1
_geom_bond_site_symmetry_2
C1 H1 1_555 1_555
C2 C1 1_555 1_555
H2 C2 1_555 1_555
C3 C2 1_555 1_555
C4 C3 1_555 1_555
H3 C4 1_555 1_555
C5 C4 1_555 1_555
H4 C5 1_555 1_555
C6 C1 1_555 1_555
C7 H5 1_555 1_555
C8 C7 1_555 1_555
H6 C8 1_555 1_555
C9 C8 1_555 1_555
H7 C9 1_555 1_555
C10 C9 1_555 1_555
C11 C10 1_555 1_555
H8 C11 1_555 1_555
C12 C11 1_555 1_555
H9 C12 1_555 1_555
C13 C12 1_555 1_555
C14 C13 1_555 1_555
H10 C14 1_555 1_555
H11 C14 1_555 1_555
H12 C14 1_555 1_555
C15 C13 1_555 1_555
H13 C15 1_555 1_555
C16 C10 1_555 1_555
H14 C16 1_555 1_555
C17 C18 1_555 1_555
C18 O1 1_555 1_555
C19 H15 1_555 1_555
H16 C19 1_555 1_555
H17 C19 1_555 1_555
C20 C17 1_555 1_555
C21 C20 1_555 1_555
C22 H18 1_555 1_555
H19 C22 1_555 1_555
H20 C22 1_555 1_555
C23 C20 1_555 1_555
C24 C23 1_555 1_555
C25 C23 1_555 1_555
C26 C25 1_555 1_555
H21 C26 1_555 1_555
C27 C26 1_555 1_555
H22 C27 1_555 1_555
C28 C27 1_555 1_555
H23 C28 1_555 1_555
C29 C28 1_555 1_555
H24 C29 1_555 1_555
C30 C25 1_555 1_555
H25 C30 1_555 1_555
Cl1 C3 1_555 1_555
N1 C6 1_555 1_555
N2 C24 1_555 1_555
O2 C18 1_555 1_555
O3 C21 1_555 1_555
O4 C21 1_555 1_555
O5 C7 1_555 1_555
C5 C6 1_555 1_555
C7 N1 1_555 1_555
C15 C16 1_555 1_555
C17 N1 1_555 1_555
C19 O2 1_555 1_555
C22 O4 1_555 1_555
C23 O5 1_555 1_555
C29 C30 1_555 1_555

#END
