
#######################################################################
#
#                 Cambridge Crystallographic Data Centre
#                                CCDC 
#
#######################################################################
#
# If this CIF has been generated from an entry in the Cambridge 
# Structural Database, then it will include bibliographic, chemical, 
# crystal, experimental, refinement or atomic coordinate data resulting 
# from the CCDC's data processing and validation procedures.
#
#######################################################################

data_QATKEC01
_chemical_formula_moiety         'C6 H16 N1 1+,C6 H2 N3 O7 1-'
_chemical_name_systematic        'triethylammonium picrate'
_symmetry_cell_setting           orthorhombic
_symmetry_space_group_name_H-M   'P c a 21'
_symmetry_Int_Tables_number      29
_space_group_name_Hall           'P 2c -2ac'
loop_
_symmetry_equiv_pos_site_id
_symmetry_equiv_pos_as_xyz
1 x,y,z
2 -x,-y,1/2+z
3 1/2-x,y,1/2+z
4 1/2+x,-y,z
_cell_length_a                   21.8864(6)
_cell_length_b                   6.9190(2)
_cell_length_c                   20.7289(6)
_cell_angle_alpha                90
_cell_angle_beta                 90
_cell_angle_gamma                90
_cell_volume                     3139.02
_exptl_crystal_colour            yellow
_exptl_crystal_description       Pyramid
_chemical_melting_point          '463 K'
_cell_formula_units_Z            8
_exptl_crystal_recrystallization_method 
'Re-crystallisation from solvent: ethanol'
_exptl_crystal_preparation       'phase transition'
loop_
_atom_site_label
_atom_site_type_symbol
_atom_site_fract_x
_atom_site_fract_y
_atom_site_fract_z
N1 N -0.56387(11) -0.5505(4) -0.27921(13)
H1 H -0.5271 -0.5410 -0.2569
C1 C -0.6192(2) -0.3832(7) -0.1904(2)
H2 H -0.6463 -0.4089 -0.1538
H3 H -0.6366 -0.2797 -0.2170
H4 H -0.5790 -0.3435 -0.1745
C2 C -0.61294(16) -0.5594(6) -0.22948(17)
H5 H -0.6523 -0.5853 -0.2513
H6 H -0.6045 -0.6695 -0.2003
C3 C -0.56740(18) -0.3760(5) -0.32232(19)
H7 H -0.5318 -0.3757 -0.3517
H8 H -0.5652 -0.2578 -0.2955
C4 C -0.6256(2) -0.3712(8) -0.3620(3)
H9 H -0.6610 -0.3858 -0.3335
H10 H -0.6250 -0.4771 -0.3934
H11 H -0.6283 -0.2475 -0.3849
C5 C -0.56118(17) -0.7376(5) -0.31634(19)
H12 H -0.5590 -0.8459 -0.2852
H13 H -0.5996 -0.7522 -0.3411
C6 C -0.50885(19) -0.7534(8) -0.3616(2)
H14 H -0.4709 -0.7225 -0.3388
H15 H -0.5145 -0.6627 -0.3974
H16 H -0.5066 -0.8855 -0.3785
N2 N -0.83148(13) -0.9208(5) -0.46401(16)
H17 H -0.7995 -0.9375 -0.4930
C7 C -0.7564(4) -0.8841(16) -0.3773(3)
H18 H -0.7220 -0.9044 -0.4067
H19 H -0.7462 -0.9358 -0.3346
H20 H -0.7649 -0.7455 -0.3738
C8 C -0.8084(3) -0.9798(13) -0.4014(3)
H21 H -0.8418 -0.9637 -0.3696
H22 H -0.7989 -1.1196 -0.4036
C9 C -0.9075(2) -0.6654(7) -0.4307(2)
H23 H -0.8950 -0.6700 -0.3853
H24 H -0.9412 -0.7563 -0.4378
H25 H -0.9210 -0.5343 -0.4415
C10 C -0.85368(18) -0.7209(5) -0.4733(2)
H26 H -0.8658 -0.7045 -0.5190
H27 H -0.8196 -0.6305 -0.4647
C11 C -0.8788(3) -1.0701(6) -0.4813(4)
H28 H -0.8611 -1.2005 -0.4751
H29 H -0.9140 -1.0574 -0.4515
C12 C -0.9012(2) -1.0521(9) -0.5492(5)
H30 H -0.9208 -0.9260 -0.5550
H31 H -0.9309 -1.1549 -0.5581
H32 H -0.8667 -1.0637 -0.5790
O1 O -0.71830(13) -0.9479(5) -0.21012(16)
O2 O -0.70457(11) -0.7745(4) -0.12493(16)
O3 O -0.93044(14) -0.8866(5) -0.28467(13)
O4 O -1.00184(12) -0.9436(4) -0.21485(15)
O5 O -0.87895(13) -0.8828(5) 0.04245(13)
O6 O -0.94720(12) -1.0825(4) 0.00714(13)
O7 O -0.77717(9) -0.9450(3) -0.03203(11)
N3 N -0.73669(12) -0.8713(4) -0.16058(15)
N4 N -0.94828(14) -0.9191(4) -0.22914(14)
N5 N -0.90353(12) -0.9745(4) -0.00141(13)
C13 C -0.80045(13) -0.8987(3) -0.14312(15)
C14 C -0.81532(12) -0.9280(3) -0.07589(14)
C15 C -0.88031(12) -0.9495(4) -0.06641(13)
C16 C -0.92273(13) -0.9528(3) -0.11510(14)
H33 H -0.9647 -0.9739 -0.1059
C17 C -0.90306(14) -0.9246(4) -0.17810(14)
C18 C -0.84235(14) -0.9000(4) -0.19258(14)
H34 H -0.8295 -0.8840 -0.2360
O8 O -0.98746(13) -1.5817(5) -0.03172(17)
O9 O -1.02169(12) -1.3824(5) -0.10283(19)
O10 O -0.78302(17) -1.4642(7) -0.27530(17)
O11 O -0.86443(16) -1.3038(6) -0.29363(15)
O12 O -0.77608(12) -1.4155(4) 0.02199(12)
O13 O -0.71322(9) -1.3575(4) -0.05547(13)
O14 O -0.95274(11) -1.4609(4) -0.21352(13)
N6 N -0.98053(12) -1.4743(4) -0.07859(18)
N7 N -0.83118(15) -1.3914(4) -0.25766(15)
N8 N -0.76479(11) -1.3944(3) -0.03553(13)
C19 C -0.91917(12) -1.4511(4) -0.10421(15)
C20 C -0.87267(13) -1.4441(3) -0.05990(15)
H35 H -0.8809 -1.4605 -0.0152
C21 C -0.81360(12) -1.4128(3) -0.08136(14)
C22 C -0.80086(12) -1.3952(4) -0.14684(14)
H36 H -0.7602 -1.3750 -0.1613
C23 C -0.84786(13) -1.4075(4) -0.19014(14)
C24 C -0.91121(13) -1.4367(4) -0.17319(16)
loop_
_geom_bond_atom_site_label_1
_geom_bond_atom_site_label_2
_geom_bond_site_symmetry_1
_geom_bond_site_symmetry_2
N1 H1 1_555 1_555
C1 H2 1_555 1_555
H3 C1 1_555 1_555
H4 C1 1_555 1_555
C2 N1 1_555 1_555
H5 C2 1_555 1_555
H6 C2 1_555 1_555
C3 N1 1_555 1_555
H7 C3 1_555 1_555
H8 C3 1_555 1_555
C4 C3 1_555 1_555
H9 C4 1_555 1_555
H10 C4 1_555 1_555
H11 C4 1_555 1_555
C5 N1 1_555 1_555
H12 C5 1_555 1_555
H13 C5 1_555 1_555
C6 C5 1_555 1_555
H14 C6 1_555 1_555
H15 C6 1_555 1_555
H16 C6 1_555 1_555
N2 H17 1_555 1_555
C7 H18 1_555 1_555
H19 C7 1_555 1_555
H20 C7 1_555 1_555
C8 N2 1_555 1_555
H21 C8 1_555 1_555
H22 C8 1_555 1_555
C9 H23 1_555 1_555
H24 C9 1_555 1_555
H25 C9 1_555 1_555
C10 N2 1_555 1_555
H26 C10 1_555 1_555
H27 C10 1_555 1_555
C11 N2 1_555 1_555
H28 C11 1_555 1_555
H29 C11 1_555 1_555
C12 C11 1_555 1_555
H30 C12 1_555 1_555
H31 C12 1_555 1_555
H32 C12 1_555 1_555
O1 N3 1_555 1_555
O2 N3 1_555 1_555
O3 N4 1_555 1_555
O4 N4 1_555 1_555
O5 N5 1_555 1_555
O6 N5 1_555 1_555
O7 C14 1_555 1_555
N3 C13 1_555 1_555
N4 C17 1_555 1_555
N5 C15 1_555 1_555
C13 C14 1_555 1_555
C14 C15 1_555 1_555
C15 C16 1_555 1_555
C16 H33 1_555 1_555
C17 C16 1_555 1_555
C18 C13 1_555 1_555
H34 C18 1_555 1_555
O8 N6 1_555 1_555
O9 N6 1_555 1_555
O10 N7 1_555 1_555
O11 N7 1_555 1_555
O12 N8 1_555 1_555
O13 N8 1_555 1_555
O14 C24 1_555 1_555
N6 C19 1_555 1_555
N7 C23 1_555 1_555
N8 C21 1_555 1_555
C19 C20 1_555 1_555
C20 H35 1_555 1_555
C21 C20 1_555 1_555
C22 C21 1_555 1_555
H36 C22 1_555 1_555
C23 C22 1_555 1_555
C24 C19 1_555 1_555
C1 C2 1_555 1_555
C7 C8 1_555 1_555
C9 C10 1_555 1_555
C17 C18 1_555 1_555
C23 C24 1_555 1_555

#END
