
#######################################################################
#
#                 Cambridge Crystallographic Data Centre
#                                CCDC 
#
#######################################################################
#
# If this CIF has been generated from an entry in the Cambridge 
# Structural Database, then it will include bibliographic, chemical, 
# crystal, experimental, refinement or atomic coordinate data resulting 
# from the CCDC's data processing and validation procedures.
#
#######################################################################

data_QATNEF01
_chemical_name_common            'Ezetimibe monohydrate'
_chemical_formula_moiety         'C24 H21 F2 N1 O3,H2 O1'
_chemical_name_systematic        
'1-(4-Fluorophenyl)-3-(3-(4-fluorophenyl)-3-hydroxypropyl)-4-(4-hydroxyphenyl)azetidin-2-one monohydrate'
_chemical_properties_biological  
'beta-lactamic cholesterol absorption inhibitor'
_symmetry_cell_setting           orthorhombic
_symmetry_space_group_name_H-M   'P 21 21 21'
_symmetry_Int_Tables_number      19
_space_group_name_Hall           'P 2ac 2ab'
loop_
_symmetry_equiv_pos_site_id
_symmetry_equiv_pos_as_xyz
1 x,y,z
2 1/2+x,1/2-y,-z
3 -x,1/2+y,1/2-z
4 1/2-x,-y,1/2+z
_cell_length_a                   6.2411(4)
_cell_length_b                   15.4844(9)
_cell_length_c                   22.3655(15)
_cell_angle_alpha                90
_cell_angle_beta                 90
_cell_angle_gamma                90
_cell_volume                     2161.39
_exptl_crystal_colour            colorless
_cell_formula_units_Z            4
loop_
_atom_site_label
_atom_site_type_symbol
_atom_site_fract_x
_atom_site_fract_y
_atom_site_fract_z
F1 F -0.3413(4) 1.21505(15) 0.58445(11)
O1 O 0.6895(3) 0.80104(13) 0.32258(8)
F2 F 0.4162(4) 0.56989(13) 0.08507(9)
O2 O 0.0174(3) 0.85041(12) 0.50822(8)
N1 N 0.3865(3) 0.81626(13) 0.26135(9)
C1 C -0.0377(6) 1.1595(2) 0.53760(16)
H1 H 0.0177 1.2151 0.5342
C2 C 0.0740(5) 1.08858(19) 0.51569(14)
H2 H 0.2063 1.0969 0.4974
C3 C -0.0083(4) 1.00570(17) 0.52053(11)
C4 C 0.1166(4) 0.93097(16) 0.49403(10)
H3 H 0.2605 0.9312 0.5115
C5 C 0.1389(4) 0.93854(16) 0.42688(11)
H4 H 0.1838 0.9968 0.4169
H5 H 0.0003 0.9287 0.4085
C6 C 0.2997(5) 0.87482(17) 0.40120(11)
H6 H 0.4275 0.8753 0.4258
H7 H 0.2390 0.8172 0.4030
C7 C 0.3625(4) 0.89433(16) 0.33699(11)
H8 H 0.4161 0.9536 0.3332
C8 C 0.5157(4) 0.83115(16) 0.30887(11)
C9 C 0.3946(4) 0.75428(15) 0.21532(11)
C10 C 0.2201(5) 0.74233(17) 0.17820(12)
H9 H 0.0979 0.7760 0.1829
C11 C 0.2285(5) 0.67999(19) 0.13406(13)
H10 H 0.1124 0.6713 0.1087
C12 C 0.4089(5) 0.63159(17) 0.12835(13)
C13 C 0.2090(4) 0.87150(15) 0.28406(11)
H11 H 0.0879 0.8364 0.2977
C14 C 0.1349(4) 0.94443(15) 0.24504(11)
C15 C -0.0637(4) 0.98019(17) 0.25506(13)
H12 H -0.1531 0.9554 0.2836
C16 C -0.1340(5) 1.05182(17) 0.22403(13)
H13 H -0.2687 1.0749 0.2318
C17 C -0.0036(4) 1.08903(16) 0.18137(12)
O3 O -0.0843(4) 1.15872(13) 0.15104(10)
C18 C 0.1955(5) 1.05435(17) 0.17071(12)
H14 H 0.2844 1.0793 0.1422
C19 C 0.2649(4) 0.98222(17) 0.20222(12)
H15 H 0.3996 0.9592 0.1945
C20 C 0.5836(5) 0.64268(18) 0.16419(13)
H16 H 0.7053 0.6089 0.1589
C21 C 0.5771(4) 0.70457(16) 0.20816(12)
H17 H 0.6947 0.7130 0.2330
C22 C -0.2021(5) 0.9952(2) 0.54847(13)
H18 H -0.2591 0.9401 0.5527
C23 C -0.2293(6) 1.1452(2) 0.56401(15)
C24 C -0.3147(6) 1.0658(3) 0.57058(16)
H19 H -0.4461 1.0584 0.5895
H20 H 0.110(7) 0.814(2) 0.5345(16)
H21 H 0.032(7) 1.180(3) 0.1183(19)
O4 O 0.1874(4) 0.24118(14) 0.06971(11)
H22 H 0.127(8) 0.280(3) 0.044(2)
H23 H 0.249(6) 0.270(3) 0.1025(18)
loop_
_geom_bond_atom_site_label_1
_geom_bond_atom_site_label_2
_geom_bond_site_symmetry_1
_geom_bond_site_symmetry_2
F1 C23 1_555 1_555
O1 C8 1_555 1_555
F2 C12 1_555 1_555
O2 C4 1_555 1_555
N1 C8 1_555 1_555
C1 H1 1_555 1_555
C2 C1 1_555 1_555
H2 C2 1_555 1_555
C3 C2 1_555 1_555
C4 C3 1_555 1_555
H3 C4 1_555 1_555
C5 C4 1_555 1_555
H4 C5 1_555 1_555
H5 C5 1_555 1_555
C6 C5 1_555 1_555
H6 C6 1_555 1_555
H7 C6 1_555 1_555
C7 C6 1_555 1_555
H8 C7 1_555 1_555
C8 C7 1_555 1_555
C9 N1 1_555 1_555
C10 C9 1_555 1_555
H9 C10 1_555 1_555
C11 C10 1_555 1_555
H10 C11 1_555 1_555
C12 C11 1_555 1_555
C13 N1 1_555 1_555
H11 C13 1_555 1_555
C14 C13 1_555 1_555
C15 C14 1_555 1_555
H12 C15 1_555 1_555
C16 C15 1_555 1_555
H13 C16 1_555 1_555
C17 C16 1_555 1_555
O3 C17 1_555 1_555
C18 C17 1_555 1_555
H14 C18 1_555 1_555
C19 C14 1_555 1_555
H15 C19 1_555 1_555
C20 C12 1_555 1_555
H16 C20 1_555 1_555
C21 C9 1_555 1_555
H17 C21 1_555 1_555
C22 C3 1_555 1_555
H18 C22 1_555 1_555
C23 C1 1_555 1_555
C24 C22 1_555 1_555
H19 C24 1_555 1_555
H20 O2 1_555 1_555
H21 O3 1_555 1_555
O4 H22 1_555 1_555
H23 O4 1_555 1_555
C7 C13 1_555 1_555
C18 C19 1_555 1_555
C20 C21 1_555 1_555
C23 C24 1_555 1_555

#END
