
#######################################################################
#
#                 Cambridge Crystallographic Data Centre
#                                CCDC 
#
#######################################################################
#
# If this CIF has been generated from an entry in the Cambridge 
# Structural Database, then it will include bibliographic, chemical, 
# crystal, experimental, refinement or atomic coordinate data resulting 
# from the CCDC's data processing and validation procedures.
#
#######################################################################

data_QATPAC
_chemical_formula_moiety         'C10 H8 S8 1+,C10 H8 S8,C1 H1 F6 O3 S2 1-'
_chemical_name_systematic        
'bis(bis(Ethylenedithio)tetrathiafulvalenium) (pentafluorothio)fluoromethanesulfonate'
_symmetry_cell_setting           triclinic
_symmetry_space_group_name_H-M   'P -1'
_symmetry_Int_Tables_number      2
_space_group_name_Hall           '-P 1'
loop_
_symmetry_equiv_pos_site_id
_symmetry_equiv_pos_as_xyz
1 x,y,z
2 -x,-y,-z
_cell_length_a                   8.7965(2)
_cell_length_b                   11.7264(2)
_cell_length_c                   17.5763(4)
_cell_angle_alpha                95.8930(10)
_cell_angle_beta                 90.1780(10)
_cell_angle_gamma                102.2860(10)
_cell_volume                     1761.55
_exptl_crystal_colour            black
_exptl_crystal_description       rod
_cell_formula_units_Z            2
loop_
_atom_site_label
_atom_site_type_symbol
_atom_site_fract_x
_atom_site_fract_y
_atom_site_fract_z
S1 S 0.87798(12) 0.60467(8) 0.54613(5)
S2 S 0.67219(11) 0.37147(8) 0.54079(5)
S3 S 0.74408(11) 0.63677(8) 0.38052(5)
S4 S 0.55025(11) 0.39919(8) 0.37132(5)
S5 S 1.02076(13) 0.59671(9) 0.69667(6)
S6 S 0.76329(12) 0.32253(8) 0.69226(5)
S7 S 0.67102(12) 0.68116(9) 0.22505(5)
S8 S 0.43878(13) 0.39557(9) 0.21246(6)
C1 C 0.7395(4) 0.4966(3) 0.49491(18)
C2 C 0.6845(4) 0.5091(3) 0.42387(18)
C3 C 0.8870(4) 0.5267(3) 0.62480(18)
C4 C 0.7897(4) 0.4198(3) 0.62280(17)
C5 C 0.6424(4) 0.5832(3) 0.29412(18)
C6 C 0.5533(4) 0.4734(3) 0.29000(18)
C7 C 0.9513(5) 0.5159(4) 0.7754(2)
H1 H 1.0277 0.5389 0.8171
H2 H 0.8563 0.5383 0.7929
C8 C 0.9193(5) 0.3859(4) 0.7590(2)
H3 H 0.8965 0.3520 0.8068
H4 H 1.0132 0.3638 0.7397
C9 C 0.5250(5) 0.6101(4) 0.1538(2)
H5 H 0.4247 0.6227 0.1711
H6 H 0.5469 0.6470 0.1070
C10 C 0.5143(6) 0.4817(4) 0.1364(2)
H7 H 0.6172 0.4685 0.1244
H8 H 0.4482 0.4540 0.0911
S9 S 0.87985(11) 0.11344(8) 0.53790(5)
S10 S 0.66828(11) -0.11753(8) 0.53380(5)
S11 S 0.74940(11) 0.14622(8) 0.37223(5)
S12 S 0.54970(11) -0.08906(8) 0.36279(5)
S13 S 1.02659(13) 0.10224(9) 0.68673(6)
S14 S 0.75831(17) -0.16484(10) 0.68604(6)
S15 S 0.70409(12) 0.18264(8) 0.21122(5)
S16 S 0.46015(13) -0.09900(8) 0.19976(5)
C11 C 0.7386(4) 0.0063(3) 0.48708(18)
C12 C 0.6857(4) 0.0187(3) 0.41603(18)
C13 C 0.8888(4) 0.0351(3) 0.61560(19)
C14 C 0.7883(4) -0.0705(3) 0.61492(19)
C15 C 0.6615(4) 0.0889(3) 0.28276(18)
C16 C 0.5684(4) -0.0194(3) 0.27877(18)
C17 C 0.9468(6) 0.0296(5) 0.7666(2)
H9 H 1.0200 0.0536 0.8095
H10 H 0.8522 0.0557 0.7807
C18 C 0.9097(6) -0.1013(5) 0.7533(3)
H11 H 0.8824 -0.1319 0.8018
H12 H 1.0032 -0.1267 0.7366
C19 C 0.5480(9) 0.1197(6) 0.1426(4)
H13 H 0.4502 0.1326 0.1633
H14 H 0.5657 0.1581 0.0961
C20 C 0.5381(8) -0.0136(6) 0.1237(4)
H15 H 0.6414 -0.0264 0.1126
H16 H 0.4732 -0.0411 0.0780
S17 S 0.10255(13) 0.20796(9) 0.01972(5)
F1 F -0.0523(4) 0.1422(2) 0.05182(19)
F2 F 0.1365(4) 0.2851(2) 0.09894(15)
F3 F 0.1837(4) 0.1154(3) 0.05417(18)
F4 F 0.2697(4) 0.2687(3) -0.0066(2)
F5 F 0.0753(5) 0.1247(3) -0.05522(18)
C23 C 0.0210(5) 0.3232(4) -0.0195(2)
H21 H 0.0780 0.3991 0.0052
F6 F 0.0565(4) 0.3182(4) -0.09459(16)
S18 S -0.18580(12) 0.32107(9) -0.01054(6)
O1 O -0.2038(4) 0.3376(3) 0.07084(19)
O2 O -0.2673(5) 0.2119(3) -0.0477(3)
O3 O -0.1975(4) 0.4210(3) -0.05030(19)
C21? C 0.6063(13) 0.0899(9) 0.1269(6)
H17? H 0.5914 0.1402 0.0882
H18? H 0.6744 0.0401 0.1060
C22? C 0.4586(12) 0.0170(9) 0.1412(6)
H19? H 0.4095 -0.0175 0.0923
H20? H 0.3935 0.0669 0.1652
loop_
_geom_bond_atom_site_label_1
_geom_bond_atom_site_label_2
_geom_bond_site_symmetry_1
_geom_bond_site_symmetry_2
S1 C1 1_555 1_555
S2 C1 1_555 1_555
S3 C2 1_555 1_555
S4 C2 1_555 1_555
S5 C3 1_555 1_555
S6 C4 1_555 1_555
S7 C5 1_555 1_555
S8 C6 1_555 1_555
C1 C2 1_555 1_555
C3 S1 1_555 1_555
C4 S2 1_555 1_555
C5 S3 1_555 1_555
C6 S4 1_555 1_555
C7 S5 1_555 1_555
H1 C7 1_555 1_555
H2 C7 1_555 1_555
C8 S6 1_555 1_555
H3 C8 1_555 1_555
H4 C8 1_555 1_555
C9 S7 1_555 1_555
H5 C9 1_555 1_555
H6 C9 1_555 1_555
C10 S8 1_555 1_555
H7 C10 1_555 1_555
H8 C10 1_555 1_555
S9 C11 1_555 1_555
S10 C11 1_555 1_555
S11 C12 1_555 1_555
S12 C12 1_555 1_555
S13 C13 1_555 1_555
S14 C14 1_555 1_555
S15 C15 1_555 1_555
S16 C16 1_555 1_555
C11 C12 1_555 1_555
C13 S9 1_555 1_555
C14 S10 1_555 1_555
C15 S11 1_555 1_555
C16 S12 1_555 1_555
C17 S13 1_555 1_555
H9 C17 1_555 1_555
H10 C17 1_555 1_555
C18 S14 1_555 1_555
H11 C18 1_555 1_555
H12 C18 1_555 1_555
C19 S15 1_555 1_555
H13 C19 1_555 1_555
H14 C19 1_555 1_555
C20 S16 1_555 1_555
H15 C20 1_555 1_555
H16 C20 1_555 1_555
S17 F1 1_555 1_555
F2 S17 1_555 1_555
F3 S17 1_555 1_555
F4 S17 1_555 1_555
F5 S17 1_555 1_555
C23 S17 1_555 1_555
H21 C23 1_555 1_555
F6 C23 1_555 1_555
S18 C23 1_555 1_555
O1 S18 1_555 1_555
O2 S18 1_555 1_555
O3 S18 1_555 1_555
C3 C4 1_555 1_555
C5 C6 1_555 1_555
C7 C8 1_555 1_555
C9 C10 1_555 1_555
C13 C14 1_555 1_555
C15 C16 1_555 1_555
C17 C18 1_555 1_555
C19 C20 1_555 1_555

#END
