
#######################################################################
#
#                 Cambridge Crystallographic Data Centre
#                                CCDC 
#
#######################################################################
#
# If this CIF has been generated from an entry in the Cambridge 
# Structural Database, then it will include bibliographic, chemical, 
# crystal, experimental, refinement or atomic coordinate data resulting 
# from the CCDC's data processing and validation procedures.
#
#######################################################################

data_QAVDAV
_chemical_name_common            
'[1]-(4-(2-({6-[(benzylcarbamothioyl)amino]hexyl}amino)-2-oxoethoxy)-34-butoxy-9,14,19,24,26,28,30,32-octamethoxypillar[5]arene)-pseudorotaxane N,N-dimethylformamide solvate'
_chemical_formula_moiety         'C63 H77 N3 O11 S1,C3 H7 N1 O1'
_chemical_name_systematic        
'N-(6-((benzylcarbamothioyl)amino)hexyl)-2-((34-butoxy-9,14,19,24,26,28,30,32-octamethoxyhexacyclo[21.2.2.2^3,6^.2^8,11^.2^13,16^.2^18,21^]pentatriaconta-1(25),3,5,8,10,13,15,18,20,23,26,28,30,32,34-pentadecaen-4-yl)oxy)acetamide N,N-dimethylformamide solvate'
_symmetry_cell_setting           triclinic
_symmetry_space_group_name_H-M   'P -1'
_symmetry_Int_Tables_number      2
_space_group_name_Hall           '-P 1'
loop_
_symmetry_equiv_pos_site_id
_symmetry_equiv_pos_as_xyz
1 x,y,z
2 -x,-y,-z
_cell_length_a                   12.3792(13)
_cell_length_b                   14.3030(15)
_cell_length_c                   18.1865(18)
_cell_angle_alpha                74.764(3)
_cell_angle_beta                 81.445(3)
_cell_angle_gamma                78.882(3)
_cell_volume                     3032.2
_exptl_crystal_colour            colorless
_exptl_crystal_description       block
_cell_formula_units_Z            2
loop_
_atom_site_label
_atom_site_type_symbol
_atom_site_fract_x
_atom_site_fract_y
_atom_site_fract_z
C1 C 0.2745(3) 0.4864(2) 0.00866(17)
H1 H 0.2393 0.5511 0.0146
H2 H 0.3069 0.4932 -0.0441
C2 C 0.1874(2) 0.4206(2) 0.02446(16)
C3 C 0.2017(2) 0.3397(2) -0.00727(16)
C4 C 0.1198(2) 0.2809(2) 0.00631(16)
H3 H 0.1301 0.2284 -0.0165
C5 C 0.0232(2) 0.29942(19) 0.05324(16)
C6 C 0.0084(2) 0.37981(19) 0.08541(16)
C7 C 0.0902(2) 0.43937(19) 0.07102(16)
H4 H 0.0792 0.4927 0.0931
C8 C -0.1092(3) 0.4767(2) 0.1641(2)
H5 H -0.0609 0.4657 0.2033
H6 H -0.1848 0.4859 0.1861
H7 H -0.0956 0.5342 0.1250
C9 C 0.3155(3) 0.2442(3) -0.0889(2)
H8 H 0.3102 0.1844 -0.0502
H9 H 0.3874 0.2393 -0.1174
H10 H 0.2597 0.2549 -0.1229
C10 C -0.0613(2) 0.2301(2) 0.07177(16)
H11 H -0.1339 0.2651 0.0849
H12 H -0.0647 0.2060 0.0272
C11 C -0.0295(2) 0.14445(19) 0.13822(16)
C12 C 0.0391(2) 0.0595(2) 0.12546(16)
C13 C 0.0734(2) -0.0158(2) 0.18677(17)
H13 H 0.1190 -0.0721 0.1773
C14 C 0.0416(2) -0.0093(2) 0.26194(17)
C15 C -0.0273(2) 0.0760(2) 0.27469(16)
C16 C -0.0621(2) 0.1511(2) 0.21285(17)
H14 H -0.1084 0.2072 0.2220
C17 C -0.1403(3) 0.1569(3) 0.3651(2)
H15 H -0.1176 0.2192 0.3405
H16 H -0.1537 0.1507 0.4194
H17 H -0.2069 0.1528 0.3459
C18 C 0.1468(3) -0.0252(3) 0.0340(2)
H18 H 0.2134 -0.0308 0.0571
H19 H 0.1638 -0.0163 -0.0204
H20 H 0.1147 -0.0839 0.0548
C19 C 0.0831(3) -0.0911(2) 0.32796(17)
H21 H 0.0892 -0.1536 0.3150
H22 H 0.0298 -0.0910 0.3728
C20 C 0.1955(2) -0.0807(2) 0.34708(16)
C21 C 0.2935(2) -0.1188(2) 0.30926(16)
C22 C 0.3952(2) -0.1073(2) 0.32636(16)
H23 H 0.4596 -0.1329 0.3001
C23 C 0.4034(2) -0.05888(19) 0.38117(15)
C24 C 0.3049(2) -0.0207(2) 0.42006(16)
C25 C 0.2032(2) -0.0317(2) 0.40280(16)
H24 H 0.1387 -0.0058 0.4289
C26 C 0.2227(3) 0.0711(3) 0.5121(2)
H25 H 0.1812 0.1189 0.4746
H26 H 0.2439 0.1030 0.5468
H27 H 0.1778 0.0229 0.5403
C27 C 0.3792(3) -0.1999(3) 0.2111(2)
H28 H 0.4193 -0.1462 0.1900
H29 H 0.3592 -0.2221 0.1703
H30 H 0.4248 -0.2528 0.2426
C28 C 0.5161(2) -0.0461(2) 0.39738(16)
H31 H 0.5141 -0.0492 0.4515
H32 H 0.5712 -0.0997 0.3857
C29 C 0.5499(2) 0.0504(2) 0.35102(16)
C30 C 0.6225(2) 0.0558(2) 0.28460(17)
C31 C 0.6487(2) 0.1465(2) 0.24178(17)
H33 H 0.6983 0.1489 0.1978
C32 C 0.6028(2) 0.2332(2) 0.26320(17)
C33 C 0.5318(2) 0.2267(2) 0.33089(17)
C34 C 0.5072(2) 0.1366(2) 0.37352(16)
H34 H 0.4604 0.1339 0.4188
C35 C 0.4170(3) 0.3074(3) 0.4209(2)
H35 H 0.3544 0.2791 0.4168
H36 H 0.3920 0.3719 0.4294
H37 H 0.4555 0.2668 0.4631
C36 C 0.7487(3) -0.0312(2) 0.2023(2)
H38 H 0.7188 0.0058 0.1555
H39 H 0.7769 -0.0974 0.1984
H40 H 0.8076 -0.0017 0.2109
C37 C 0.6249(2) 0.3323(2) 0.21291(18)
H41 H 0.6262 0.3765 0.2450
H42 H 0.6968 0.3242 0.1836
C38 C 0.5368(2) 0.37609(19) 0.15886(17)
C39 C 0.5445(2) 0.3509(2) 0.08871(17)
C40 C 0.4609(2) 0.3865(2) 0.04123(17)
H43 H 0.4684 0.3687 -0.0051
C41 C 0.3660(2) 0.4481(2) 0.06102(16)
C42 C 0.3577(2) 0.47335(19) 0.13156(17)
C43 C 0.4428(2) 0.4390(2) 0.17810(17)
H44 H 0.4369 0.4586 0.2236
C44 C 0.2507(3) 0.5670(2) 0.2172(2)
H45 H 0.3026 0.6120 0.2117
H46 H 0.2667 0.5125 0.2609
C45 C 0.1330(3) 0.6192(3) 0.2288(2)
H47 H 0.0829 0.5722 0.2365
H48 H 0.1243 0.6430 0.2749
C46 C 0.1006(3) 0.7044(3) 0.1627(2)
H49 H 0.1080 0.6808 0.1165
H50 H 0.1507 0.7514 0.1546
C47 C -0.0176(3) 0.7554(3) 0.1767(3)
H51 H -0.0673 0.7087 0.1866
H52 H -0.0361 0.8067 0.1323
H53 H -0.0240 0.7832 0.2202
C48 C 0.6468(3) 0.2486(2) 0.00716(19)
H54 H 0.7231 0.2215 -0.0059
H55 H 0.6237 0.3014 -0.0360
C49 C 0.5753(3) 0.1687(2) 0.01913(19)
C50 C 0.4564(3) 0.0641(2) 0.1143(2)
H56 H 0.4818 0.0120 0.1572
H57 H 0.4534 0.0347 0.0724
C51 C 0.3410(3) 0.1144(3) 0.1374(2)
H58 H 0.3152 0.1649 0.0937
H59 H 0.2911 0.0665 0.1509
C52 C 0.3358(3) 0.1604(2) 0.20415(19)
H60 H 0.3903 0.2041 0.1919
H61 H 0.3569 0.1087 0.2485
C53 C 0.2241(3) 0.2179(3) 0.2261(2)
H62 H 0.2019 0.2696 0.1819
H63 H 0.1694 0.1744 0.2398
C54 C 0.2252(3) 0.2630(3) 0.2915(2)
H64 H 0.2867 0.2993 0.2802
H65 H 0.2391 0.2105 0.3369
C55 C 0.1208(4) 0.3311(4) 0.3099(3)
H66 H 0.1052 0.3826 0.2642
H67 H 0.0596 0.2944 0.3236
C56 C 0.0823(3) 0.3469(3) 0.4440(3)
C57 C 0.0768(5) 0.3707(5) 0.5747(3)
H68 H 0.0564 0.3058 0.5928
H69 H 0.0116 0.4183 0.5828
C58 C 0.1637(4) 0.3785(4) 0.6195(3)
C59 C 0.2345(5) 0.2954(4) 0.6515(3)
H70 H 0.2276 0.2347 0.6446
C60 C 0.3155(5) 0.3019(5) 0.6937(4)
H71 H 0.3620 0.2455 0.7160
C61 C 0.3273(5) 0.3922(6) 0.7026(3)
H72 H 0.3815 0.3971 0.7312
C62 C 0.2580(5) 0.4753(5) 0.6687(3)
H73 H 0.2679 0.5365 0.6727
C63 C 0.1755(4) 0.4685(4) 0.6298(3)
H74 H 0.1267 0.5245 0.6098
N1 N 0.5350(2) 0.13360(19) 0.09057(15)
H75 H 0.5566 0.1532 0.1259
N2 N 0.1264(3) 0.3760(3) 0.3716(2)
H76 H 0.1610 0.4254 0.3608
N3 N 0.1139(3) 0.3880(3) 0.4932(2)
H77 H 0.1603 0.4282 0.4753
O1 O 0.29978(18) 0.32392(17) -0.05357(13)
O2 O -0.08913(17) 0.39456(15) 0.13158(12)
O3 O 0.07020(18) 0.05689(15) 0.04976(12)
O4 O -0.05553(18) 0.08028(16) 0.34966(12)
O5 O 0.28196(18) -0.16857(16) 0.25620(13)
O6 O 0.31828(18) 0.02455(17) 0.47517(12)
O7 O 0.66450(17) -0.03199(14) 0.26416(12)
O8 O 0.48968(18) 0.31375(15) 0.35182(12)
O9 O 0.64134(16) 0.28828(15) 0.07187(12)
O10 O 0.26044(17) 0.53239(16) 0.14965(12)
O11 O 0.5628(2) 0.1393(2) -0.03590(14)
S1 S -0.00510(11) 0.26735(9) 0.47053(8)
C64 C 0.2526(4) 0.5970(4) 0.4375(3)
H78 H 0.1814 0.6239 0.4538
C65 C 0.3162(4) 0.7030(3) 0.4997(3)
H79 H 0.2390 0.7196 0.5158
H80 H 0.3442 0.7611 0.4701
H81 H 0.3559 0.6753 0.5440
C66 C 0.4399(6) 0.6072(6) 0.4205(5)
H82 H 0.4820 0.5603 0.4582
H83 H 0.4744 0.6648 0.4021
H84 H 0.4370 0.5790 0.3786
N4 N 0.3304(3) 0.6333(2) 0.4542(2)
O12 O 0.2574(3) 0.5331(2) 0.40389(18)
loop_
_geom_bond_atom_site_label_1
_geom_bond_atom_site_label_2
_geom_bond_site_symmetry_1
_geom_bond_site_symmetry_2
C1 H1 1_555 1_555
H2 C1 1_555 1_555
C2 C1 1_555 1_555
C3 C2 1_555 1_555
C4 C3 1_555 1_555
H3 C4 1_555 1_555
C5 C4 1_555 1_555
C6 C5 1_555 1_555
C7 C2 1_555 1_555
H4 C7 1_555 1_555
C8 H5 1_555 1_555
H6 C8 1_555 1_555
H7 C8 1_555 1_555
C9 H8 1_555 1_555
H9 C9 1_555 1_555
H10 C9 1_555 1_555
C10 C5 1_555 1_555
H11 C10 1_555 1_555
H12 C10 1_555 1_555
C11 C10 1_555 1_555
C12 C11 1_555 1_555
C13 C12 1_555 1_555
H13 C13 1_555 1_555
C14 C13 1_555 1_555
C15 C14 1_555 1_555
C16 C11 1_555 1_555
H14 C16 1_555 1_555
C17 H15 1_555 1_555
H16 C17 1_555 1_555
H17 C17 1_555 1_555
C18 H18 1_555 1_555
H19 C18 1_555 1_555
H20 C18 1_555 1_555
C19 C14 1_555 1_555
H21 C19 1_555 1_555
H22 C19 1_555 1_555
C20 C19 1_555 1_555
C21 C20 1_555 1_555
C22 C21 1_555 1_555
H23 C22 1_555 1_555
C23 C22 1_555 1_555
C24 C23 1_555 1_555
C25 C20 1_555 1_555
H24 C25 1_555 1_555
C26 H25 1_555 1_555
H26 C26 1_555 1_555
H27 C26 1_555 1_555
C27 H28 1_555 1_555
H29 C27 1_555 1_555
H30 C27 1_555 1_555
C28 C23 1_555 1_555
H31 C28 1_555 1_555
H32 C28 1_555 1_555
C29 C28 1_555 1_555
C30 C29 1_555 1_555
C31 C30 1_555 1_555
H33 C31 1_555 1_555
C32 C31 1_555 1_555
C33 C32 1_555 1_555
C34 C29 1_555 1_555
H34 C34 1_555 1_555
C35 H35 1_555 1_555
H36 C35 1_555 1_555
H37 C35 1_555 1_555
C36 H38 1_555 1_555
H39 C36 1_555 1_555
H40 C36 1_555 1_555
C37 C32 1_555 1_555
H41 C37 1_555 1_555
H42 C37 1_555 1_555
C38 C37 1_555 1_555
C39 C38 1_555 1_555
C40 C39 1_555 1_555
H43 C40 1_555 1_555
C41 C1 1_555 1_555
C42 C41 1_555 1_555
C43 C38 1_555 1_555
H44 C43 1_555 1_555
C44 H45 1_555 1_555
H46 C44 1_555 1_555
C45 C44 1_555 1_555
H47 C45 1_555 1_555
H48 C45 1_555 1_555
C46 C45 1_555 1_555
H49 C46 1_555 1_555
H50 C46 1_555 1_555
C47 C46 1_555 1_555
H51 C47 1_555 1_555
H52 C47 1_555 1_555
H53 C47 1_555 1_555
C48 H54 1_555 1_555
H55 C48 1_555 1_555
C49 C48 1_555 1_555
C50 H56 1_555 1_555
H57 C50 1_555 1_555
C51 C50 1_555 1_555
H58 C51 1_555 1_555
H59 C51 1_555 1_555
C52 C51 1_555 1_555
H60 C52 1_555 1_555
H61 C52 1_555 1_555
C53 C52 1_555 1_555
H62 C53 1_555 1_555
H63 C53 1_555 1_555
C54 C53 1_555 1_555
H64 C54 1_555 1_555
H65 C54 1_555 1_555
C55 C54 1_555 1_555
H66 C55 1_555 1_555
H67 C55 1_555 1_555
C56 N2 1_555 1_555
C57 H68 1_555 1_555
H69 C57 1_555 1_555
C58 C57 1_555 1_555
C59 C58 1_555 1_555
H70 C59 1_555 1_555
C60 C59 1_555 1_555
H71 C60 1_555 1_555
C61 C60 1_555 1_555
H72 C61 1_555 1_555
C62 C61 1_555 1_555
H73 C62 1_555 1_555
C63 C58 1_555 1_555
H74 C63 1_555 1_555
N1 C49 1_555 1_555
H75 N1 1_555 1_555
N2 C55 1_555 1_555
H76 N2 1_555 1_555
N3 C56 1_555 1_555
H77 N3 1_555 1_555
O1 C3 1_555 1_555
O2 C6 1_555 1_555
O3 C12 1_555 1_555
O4 C15 1_555 1_555
O5 C21 1_555 1_555
O6 C24 1_555 1_555
O7 C30 1_555 1_555
O8 C33 1_555 1_555
O9 C39 1_555 1_555
O10 C42 1_555 1_555
O11 C49 1_555 1_555
S1 C56 1_555 1_555
C64 H78 1_555 1_555
C65 H79 1_555 1_555
H80 C65 1_555 1_555
H81 C65 1_555 1_555
C66 H82 1_555 1_555
H83 C66 1_555 1_555
H84 C66 1_555 1_555
N4 C64 1_555 1_555
O12 C64 1_555 1_555
C6 C7 1_555 1_555
C8 O2 1_555 1_555
C9 O1 1_555 1_555
C15 C16 1_555 1_555
C17 O4 1_555 1_555
C18 O3 1_555 1_555
C24 C25 1_555 1_555
C26 O6 1_555 1_555
C27 O5 1_555 1_555
C33 C34 1_555 1_555
C35 O8 1_555 1_555
C36 O7 1_555 1_555
C40 C41 1_555 1_555
C42 C43 1_555 1_555
C44 O10 1_555 1_555
C48 O9 1_555 1_555
C50 N1 1_555 1_555
C57 N3 1_555 1_555
C62 C63 1_555 1_555
C65 N4 1_555 1_555
C66 N4 1_555 1_555

#END
