
#######################################################################
#
#                 Cambridge Crystallographic Data Centre
#                                CCDC 
#
#######################################################################
#
# If this CIF has been generated from an entry in the Cambridge 
# Structural Database, then it will include bibliographic, chemical, 
# crystal, experimental, refinement or atomic coordinate data resulting 
# from the CCDC's data processing and validation procedures.
#
#######################################################################

data_QAVJON
_chemical_formula_moiety         'C60,5(C6 H6 O1)'
_chemical_name_systematic        'C60fullerene pentakis(phenol)'
_symmetry_cell_setting           triclinic
_symmetry_space_group_name_H-M   'P -1'
_symmetry_Int_Tables_number      2
_space_group_name_Hall           '-P 1'
loop_
_symmetry_equiv_pos_site_id
_symmetry_equiv_pos_as_xyz
1 x,y,z
2 -x,-y,-z
_cell_length_a                   10.0352(14)
_cell_length_b                   10.1171(14)
_cell_length_c                   12.6417(17)
_cell_angle_alpha                88.566(2)
_cell_angle_beta                 84.026(2)
_cell_angle_gamma                83.485(2)
_cell_volume                     1268.15
_exptl_crystal_colour            red
_exptl_crystal_description       plate
_cell_formula_units_Z            1
loop_
_atom_site_label
_atom_site_type_symbol
_atom_site_fract_x
_atom_site_fract_y
_atom_site_fract_z
O1 O 0.21235(16) -0.11916(14) 0.02854(12)
H1 H 0.138(3) -0.162(3) 0.055(2)
C31 C 0.18813(19) 0.01268(18) 0.05357(15)
C32 C 0.06999(19) 0.06427(18) 0.11177(15)
H2 H 0.0037(19) 0.0052(19) 0.1365(15)
C33 C 0.05244(19) 0.19735(19) 0.13824(16)
H3 H -0.030(2) 0.2352(19) 0.1827(15)
C34 C 0.15087(19) 0.27964(19) 0.10646(16)
H4 H 0.1389(19) 0.373(2) 0.1253(15)
C35 C 0.2676(2) 0.2276(2) 0.04697(16)
H5 H 0.339(2) 0.283(2) 0.0226(15)
C36 C 0.28647(19) 0.0944(2) 0.01996(15)
H6 H 0.370(2) 0.0555(19) -0.0214(16)
O2 O -0.00278(17) 0.26021(14) 0.89961(12)
H7 H 0.055(3) 0.270(3) 0.948(2)
C37 C 0.00968(19) 0.35479(17) 0.82032(15)
C38 C 0.11011(19) 0.43811(18) 0.81409(17)
H8 H 0.170(2) 0.4331(19) 0.8705(16)
C39 C 0.1191(2) 0.52853(18) 0.73083(17)
H9 H 0.191(2) 0.586(2) 0.7267(16)
C40 C 0.0292(2) 0.53733(19) 0.65492(17)
H10 H 0.035(2) 0.603(2) 0.5951(16)
C41 C -0.0717(2) 0.45412(19) 0.66262(16)
H11 H -0.138(2) 0.4562(19) 0.6082(16)
C42 C -0.0814(2) 0.36229(19) 0.74499(16)
H12 H -0.151(2) 0.305(2) 0.7528(15)
O3 O 0.6858(3) 0.3349(3) 0.0945(2)
H13 H 0.712(4) 0.263(4) 0.052(3)
C43 C 0.59521(18) 0.41439(18) 0.04697(15)
C44 C 0.5790(2) 0.40202(19) -0.05943(16)
H15 H 0.634(2) 0.334(2) -0.1026(16)
C45 C 0.5163(2) 0.51261(19) 0.10684(16)
H16 H 0.5281(19) 0.5255(19) 0.1834(17)
O3A O 0.3142(3) 0.6651(3) -0.0945(2)
H13A H 0.288(4) 0.737(4) -0.052(3)
C43A C 0.40479(18) 0.58561(18) -0.04697(15)
C44A C 0.4210(2) 0.59798(19) 0.05943(16)
H15A H 0.366(2) 0.666(2) 0.1026(16)
C45A C 0.4837(2) 0.48739(19) -0.10684(16)
H16A H 0.4719(19) 0.4745(19) -0.1834(17)
C1 C 0.5865(2) 0.32110(18) 0.42735(17)
C2 C 0.4491(2) 0.35079(17) 0.47541(16)
C3 C 0.44879(19) 0.33237(17) 0.58925(16)
C4 C 0.58645(19) 0.29211(18) 0.61185(16)
C5 C 0.67149(19) 0.28547(18) 0.51173(16)
C6 C 0.77891(18) 0.18541(19) 0.49576(16)
C7 C 0.80568(18) 0.11799(19) 0.39481(16)
C8 C 0.72411(19) 0.15273(19) 0.31401(15)
C9 C 0.6122(2) 0.25636(19) 0.33094(16)
C10 C 0.5019(2) 0.21835(19) 0.27737(15)
C11 C 0.3705(2) 0.24649(18) 0.32313(16)
C12 C 0.3435(2) 0.31382(18) 0.42389(16)
C13 C 0.23274(18) 0.25743(18) 0.48498(16)
C14 C 0.23294(18) 0.23919(18) 0.59375(16)
C15 C 0.34345(19) 0.27741(18) 0.64727(16)
C16 C 0.36949(19) 0.18068(19) 0.73086(15)
C17 C 0.50115(19) 0.14178(19) 0.75268(14)
C18 C 0.61207(19) 0.19834(19) 0.69168(15)
C19 C 0.72377(18) 0.09444(19) 0.67492(15)
C20 C 0.80544(17) 0.08821(19) 0.57919(16)
C21 C 0.68323(19) 0.0501(2) 0.25037(15)
C22 C 0.54558(19) 0.09104(19) 0.22767(14)
C23 C 0.68166(19) -0.02567(19) 0.72526(15)
C24 C 0.27641(19) 0.14798(19) 0.32152(15)
C25 C 0.19119(18) 0.15444(19) 0.42158(16)
C26 C 0.84879(17) -0.03895(19) 0.52956(16)
C27 C 0.84884(17) -0.02091(19) 0.41586(15)
C28 C 0.19116(17) 0.11852(19) 0.64487(15)
C29 C 0.27531(18) 0.08265(19) 0.72945(15)
C30 C 0.54438(19) 0.0034(2) 0.77333(14)
C1A C 0.4135(2) -0.32110(18) 0.57265(17)
C2A C 0.5509(2) -0.35079(17) 0.52459(16)
C3A C 0.55121(19) -0.33237(17) 0.41075(16)
C4A C 0.41355(19) -0.29211(18) 0.38815(16)
C5A C 0.32851(19) -0.28547(18) 0.48827(16)
C6A C 0.22109(18) -0.18541(19) 0.50424(16)
C7A C 0.19432(18) -0.11799(19) 0.60519(16)
C8A C 0.27589(19) -0.15273(19) 0.68599(15)
C9A C 0.3878(2) -0.25636(19) 0.66906(16)
C10A C 0.4981(2) -0.21835(19) 0.72263(15)
C11A C 0.6295(2) -0.24649(18) 0.67687(16)
C12A C 0.6565(2) -0.31382(18) 0.57611(16)
C13A C 0.76726(18) -0.25743(18) 0.51502(16)
C14A C 0.76706(18) -0.23919(18) 0.40625(16)
C15A C 0.65655(19) -0.27741(18) 0.35273(16)
C16A C 0.63051(19) -0.18068(19) 0.26914(15)
C17A C 0.49885(19) -0.14178(19) 0.24732(14)
C18A C 0.38793(19) -0.19834(19) 0.30832(15)
C19A C 0.27623(18) -0.09444(19) 0.32508(15)
C20A C 0.19456(17) -0.08821(19) 0.42081(16)
C21A C 0.31677(19) -0.0501(2) 0.74963(15)
C22A C 0.45442(19) -0.09104(19) 0.77233(14)
C23A C 0.31834(19) 0.02567(19) 0.27474(15)
C24A C 0.72359(19) -0.14798(19) 0.67848(15)
C25A C 0.80881(18) -0.15444(19) 0.57842(16)
C26A C 0.15121(17) 0.03895(19) 0.47044(16)
C27A C 0.15116(17) 0.02091(19) 0.58414(15)
C28A C 0.80884(17) -0.11852(19) 0.35513(15)
C29A C 0.72469(18) -0.08265(19) 0.27055(15)
C30A C 0.45562(19) -0.0034(2) 0.22667(14)
H14? H 0.6605 0.3556 0.0791
loop_
_geom_bond_atom_site_label_1
_geom_bond_atom_site_label_2
_geom_bond_site_symmetry_1
_geom_bond_site_symmetry_2
C1 C2 1_555 1_555
C2 C3 1_555 1_555
C3 C4 1_555 1_555
C4 C5 1_555 1_555
C5 C1 1_555 1_555
C6 C5 1_555 1_555
C7 C6 1_555 1_555
C8 C7 1_555 1_555
C9 C1 1_555 1_555
C10 C9 1_555 1_555
C11 C10 1_555 1_555
C12 C2 1_555 1_555
C13 C12 1_555 1_555
C14 C13 1_555 1_555
C15 C3 1_555 1_555
C16 C15 1_555 1_555
C17 C16 1_555 1_555
C18 C4 1_555 1_555
C19 C18 1_555 1_555
C20 C6 1_555 1_555
C21 C8 1_555 1_555
C22 C10 1_555 1_555
C23 C19 1_555 1_555
C24 C11 1_555 1_555
C25 C13 1_555 1_555
C26 C20 1_555 1_555
C27 C7 1_555 1_555
C28 C14 1_555 1_555
C29 C16 1_555 1_555
C30 C17 1_555 1_555
O1 H1 1_555 1_555
C31 O1 1_555 1_555
C32 C31 1_555 1_555
H2 C32 1_555 1_555
C33 C32 1_555 1_555
H3 C33 1_555 1_555
C34 C33 1_555 1_555
H4 C34 1_555 1_555
C35 C34 1_555 1_555
H5 C35 1_555 1_555
C36 C31 1_555 1_555
H6 C36 1_555 1_555
O2 H7 1_555 1_555
C37 O2 1_555 1_555
C38 C37 1_555 1_555
H8 C38 1_555 1_555
C39 C38 1_555 1_555
H9 C39 1_555 1_555
C40 C39 1_555 1_555
H10 C40 1_555 1_555
C41 C40 1_555 1_555
H11 C41 1_555 1_555
C42 C37 1_555 1_555
H12 C42 1_555 1_555
O3 H13 1_555 1_555
C43 O3 1_555 1_555
C44 C43 1_555 1_555
H15 C44 1_555 1_555
C45 C43 1_555 1_555
H16 C45 1_555 1_555
C1A C2A 1_555 1_555
C2A C3A 1_555 1_555
C3A C4A 1_555 1_555
C4A C5A 1_555 1_555
C5A C1A 1_555 1_555
C6A C5A 1_555 1_555
C7A C6A 1_555 1_555
C8A C7A 1_555 1_555
C9A C1A 1_555 1_555
C10A C9A 1_555 1_555
C11A C10A 1_555 1_555
C12A C2A 1_555 1_555
C13A C12A 1_555 1_555
C14A C13A 1_555 1_555
C15A C3A 1_555 1_555
C16A C15A 1_555 1_555
C17A C16A 1_555 1_555
C18A C4A 1_555 1_555
C19A C18A 1_555 1_555
C20A C6A 1_555 1_555
C21A C29 1_555 1_555
C22A C30 1_555 1_555
C23A C24 1_555 1_555
C24A C23 1_555 1_555
C25A C26 1_555 1_555
C26A C25 1_555 1_555
C27A C28 1_555 1_555
C28A C27 1_555 1_555
C29A C21 1_555 1_555
C30A C22 1_555 1_555
O3A H13A 1_555 1_555
C43A O3A 1_555 1_555
C44A C45 1_555 1_555
H15A C44A 1_555 1_555
C45A C44 1_555 1_555
H16A C45A 1_555 1_555
C8 C9 1_555 1_555
C11 C12 1_555 1_555
C14 C15 1_555 1_555
C17 C18 1_555 1_555
C19 C20 1_555 1_555
C21 C22 1_555 1_555
C23 C30 1_555 1_555
C24 C25 1_555 1_555
C26 C27 1_555 1_555
C28 C29 1_555 1_555
C35 C36 1_555 1_555
C41 C42 1_555 1_555
C7A C27A 1_555 1_555
C8A C9A 1_555 1_555
C8A C21A 1_555 1_555
C10A C22A 1_555 1_555
C11A C12A 1_555 1_555
C11A C24A 1_555 1_555
C13A C25A 1_555 1_555
C14A C15A 1_555 1_555
C14A C28A 1_555 1_555
C16A C29A 1_555 1_555
C17A C18A 1_555 1_555
C17A C30A 1_555 1_555
C19A C20A 1_555 1_555
C19A C23A 1_555 1_555
C20A C26A 1_555 1_555
C21A C22A 1_555 1_555
C23A C30A 1_555 1_555
C24A C25A 1_555 1_555
C26A C27A 1_555 1_555
C28A C29A 1_555 1_555
C43A C44A 1_555 1_555
C43A C45A 1_555 1_555

#END
