
#######################################################################
#
#                 Cambridge Crystallographic Data Centre
#                                CCDC 
#
#######################################################################
#
# If this CIF has been generated from an entry in the Cambridge 
# Structural Database, then it will include bibliographic, chemical, 
# crystal, experimental, refinement or atomic coordinate data resulting 
# from the CCDC's data processing and validation procedures.
#
#######################################################################

data_QAVPAG
_chemical_name_common            
'3-Acetyloxy-5-hydroxycholestan-6-yl methacrylate'
_chemical_formula_moiety         'C33 H54 O5'
_chemical_name_systematic        
'5-Hydroxy-3-(1-hydroxyethoxy)cholestan-6-yl methacrylate'
_symmetry_cell_setting           monoclinic
_symmetry_space_group_name_H-M   'C 2'
_symmetry_Int_Tables_number      5
_space_group_name_Hall           'C 2y'
loop_
_symmetry_equiv_pos_site_id
_symmetry_equiv_pos_as_xyz
1 x,y,z
2 -x,y,-z
3 1/2+x,1/2+y,z
4 1/2-x,1/2+y,-z
_cell_length_a                   31.9922(10)
_cell_length_b                   9.9421(4)
_cell_length_c                   10.3358(4)
_cell_angle_alpha                90
_cell_angle_beta                 93.758(3)
_cell_angle_gamma                90
_cell_volume                     3280.44
_exptl_crystal_colour            colorless
_exptl_crystal_description       block
_cell_formula_units_Z            4
loop_
_atom_site_label
_atom_site_type_symbol
_atom_site_fract_x
_atom_site_fract_y
_atom_site_fract_z
O1 O 0.43700(6) 0.2042(2) 0.23942(19)
H1 H 0.4618 0.2246 0.2519
O2 O 0.41982(5) 0.1988(2) 0.58416(17)
O3 O 0.47730(7) 0.2916(3) 0.6784(2)
O4 O 0.46565(9) -0.2042(3) 0.3110(3)
O5 O 0.5230(2) -0.1437(10) 0.2828(8)
C1 C 0.11966(18) 1.0504(8) 0.0463(6)
H2 H 0.1329 1.0903 -0.0251
H3 H 0.0916 1.0841 0.0485
H4 H 0.1189 0.9545 0.0360
C2 C 0.14338(13) 1.0845(5) 0.1676(5)
H5 H 0.1279 1.0502 0.2393
C3 C 0.1456(2) 1.2362(6) 0.1796(10)
H6 H 0.1604 1.2723 0.1095
H7 H 0.1601 1.2599 0.2607
H8 H 0.1178 1.2726 0.1762
C4 C 0.18677(11) 1.0224(4) 0.1787(4)
H9 H 0.2010 1.0464 0.1020
H10 H 0.2024 1.0621 0.2528
C5 C 0.18811(11) 0.8722(4) 0.1933(4)
H11 H 0.1724 0.8321 0.1197
H12 H 0.1743 0.8478 0.2707
C6 C 0.23191(10) 0.8131(4) 0.2027(3)
H13 H 0.2485 0.8604 0.2702
H14 H 0.2446 0.8292 0.1215
C7 C 0.23397(9) 0.6615(4) 0.2322(3)
H15 H 0.2188 0.6454 0.3101
C8 C 0.21203(12) 0.5825(5) 0.1212(5)
H16 H 0.2294 0.5807 0.0490
H17 H 0.1858 0.6248 0.0955
H18 H 0.2070 0.4922 0.1492
C9 C 0.27905(8) 0.6144(3) 0.2602(3)
H19 H 0.2933 0.6294 0.1804
C10 C 0.30351(9) 0.6953(4) 0.3672(4)
H20 H 0.3161 0.7741 0.3302
H21 H 0.2848 0.7248 0.4316
C11 C 0.33775(9) 0.6038(3) 0.4303(3)
H22 H 0.3650 0.6464 0.4311
H23 H 0.3318 0.5807 0.5185
C12 C 0.33572(8) 0.4815(3) 0.3440(3)
H24 H 0.3494 0.5078 0.2657
C13 C 0.28861(8) 0.4668(3) 0.3014(3)
C14 C 0.26243(9) 0.4278(4) 0.4147(3)
H25 H 0.2335 0.4214 0.3846
H26 H 0.2656 0.4951 0.4812
H27 H 0.2718 0.3426 0.4491
C15 C 0.28497(9) 0.3585(3) 0.1961(3)
H28 H 0.2556 0.3420 0.1721
H29 H 0.2979 0.3909 0.1198
C16 C 0.30565(9) 0.2273(3) 0.2400(4)
H30 H 0.3033 0.1633 0.1691
H31 H 0.2909 0.1905 0.3110
C17 C 0.35234(8) 0.2449(3) 0.2845(3)
H32 H 0.3660 0.2811 0.2098
C18 C 0.35762(8) 0.3520(3) 0.3914(3)
H33 H 0.3441 0.3195 0.4679
C19 C 0.40370(9) 0.3783(3) 0.4294(3)
H34 H 0.4158 0.4262 0.3592
H35 H 0.4056 0.4364 0.5050
C20 C 0.42947(8) 0.2527(3) 0.4596(3)
H36 H 0.4591 0.2778 0.4644
C21 C 0.42243(8) 0.1448(3) 0.3550(3)
C22 C 0.37538(9) 0.1116(3) 0.3215(3)
C23 C 0.35448(9) 0.0446(3) 0.4362(3)
H37 H 0.3537 0.1074 0.5065
H38 H 0.3703 -0.0332 0.4645
H39 H 0.3264 0.0180 0.4087
C24 C 0.37341(10) 0.0135(3) 0.2062(3)
H40 H 0.3445 -0.0133 0.1869
H41 H 0.3827 0.0599 0.1307
C25 C 0.40022(12) -0.1131(4) 0.2305(4)
H42 H 0.3886 -0.1666 0.2979
H43 H 0.3995 -0.1667 0.1521
C26 C 0.44525(11) -0.0777(4) 0.2712(4)
H44 H 0.4590 -0.0385 0.1981
C27 C 0.44849(10) 0.0175(3) 0.3859(3)
H45 H 0.4776 0.0420 0.4056
H46 H 0.4384 -0.0268 0.4614
C28 C 0.44588(8) 0.2260(4) 0.6851(3)
C29 C 0.43188(11) 0.1692(5) 0.8058(3)
C30 C 0.4512(2) 0.2187(11) 0.9197(4)
H47 H 0.4432 0.1876 0.9993
H48 H 0.4722 0.2832 0.9168
C31 C 0.39961(16) 0.0707(6) 0.8035(5)
H49 H 0.3741 0.1086 0.7652
H50 H 0.3954 0.0424 0.8905
H51 H 0.4075 -0.0053 0.7534
C32 C 0.4970(3) -0.2371(8) 0.2490(19)
C33 C 0.5176(3) -0.3618(7) 0.3169(10)
H52 H 0.5413 -0.3339 0.3719
H53 H 0.5266 -0.4233 0.2526
H54 H 0.4976 -0.4055 0.3681
loop_
_geom_bond_atom_site_label_1
_geom_bond_atom_site_label_2
_geom_bond_site_symmetry_1
_geom_bond_site_symmetry_2
O1 H1 1_555 1_555
O2 C20 1_555 1_555
O3 C28 1_555 1_555
O4 C26 1_555 1_555
O5 C32 1_555 1_555
C1 H2 1_555 1_555
H3 C1 1_555 1_555
H4 C1 1_555 1_555
C2 C1 1_555 1_555
H5 C2 1_555 1_555
C3 C2 1_555 1_555
H6 C3 1_555 1_555
H7 C3 1_555 1_555
H8 C3 1_555 1_555
C4 C2 1_555 1_555
H9 C4 1_555 1_555
H10 C4 1_555 1_555
C5 C4 1_555 1_555
H11 C5 1_555 1_555
H12 C5 1_555 1_555
C6 C5 1_555 1_555
H13 C6 1_555 1_555
H14 C6 1_555 1_555
C7 C6 1_555 1_555
H15 C7 1_555 1_555
C8 C7 1_555 1_555
H16 C8 1_555 1_555
H17 C8 1_555 1_555
H18 C8 1_555 1_555
C9 C7 1_555 1_555
H19 C9 1_555 1_555
C10 C9 1_555 1_555
H20 C10 1_555 1_555
H21 C10 1_555 1_555
C11 C10 1_555 1_555
H22 C11 1_555 1_555
H23 C11 1_555 1_555
C12 C11 1_555 1_555
H24 C12 1_555 1_555
C13 C9 1_555 1_555
C14 C13 1_555 1_555
H25 C14 1_555 1_555
H26 C14 1_555 1_555
H27 C14 1_555 1_555
C15 C13 1_555 1_555
H28 C15 1_555 1_555
H29 C15 1_555 1_555
C16 C15 1_555 1_555
H30 C16 1_555 1_555
H31 C16 1_555 1_555
C17 C16 1_555 1_555
H32 C17 1_555 1_555
C18 C12 1_555 1_555
H33 C18 1_555 1_555
C19 C18 1_555 1_555
H34 C19 1_555 1_555
H35 C19 1_555 1_555
C20 C19 1_555 1_555
H36 C20 1_555 1_555
C21 O1 1_555 1_555
C22 C17 1_555 1_555
C23 C22 1_555 1_555
H37 C23 1_555 1_555
H38 C23 1_555 1_555
H39 C23 1_555 1_555
C24 C22 1_555 1_555
H40 C24 1_555 1_555
H41 C24 1_555 1_555
C25 C24 1_555 1_555
H42 C25 1_555 1_555
H43 C25 1_555 1_555
C26 C25 1_555 1_555
H44 C26 1_555 1_555
C27 C21 1_555 1_555
H45 C27 1_555 1_555
H46 C27 1_555 1_555
C28 O2 1_555 1_555
C29 C28 1_555 1_555
C30 C29 1_555 1_555
H47 C30 1_555 1_555
H48 C30 1_555 1_555
C31 C29 1_555 1_555
H49 C31 1_555 1_555
H50 C31 1_555 1_555
H51 C31 1_555 1_555
C32 O4 1_555 1_555
C33 C32 1_555 1_555
H52 C33 1_555 1_555
H53 C33 1_555 1_555
H54 C33 1_555 1_555
C12 C13 1_555 1_555
C17 C18 1_555 1_555
C20 C21 1_555 1_555
C21 C22 1_555 1_555
C26 C27 1_555 1_555

#END
