
#######################################################################
#
#                 Cambridge Crystallographic Data Centre
#                                CCDC 
#
#######################################################################
#
# If this CIF has been generated from an entry in the Cambridge 
# Structural Database, then it will include bibliographic, chemical, 
# crystal, experimental, refinement or atomic coordinate data resulting 
# from the CCDC's data processing and validation procedures.
#
#######################################################################

data_QAWKEG
_chemical_formula_moiety         'C28 H30 N2 P2'
_chemical_name_systematic        
"N'-t-Butyl-N-(diphenylphosphino)-P,P-diphenylphosphinous hydrazide"
_symmetry_cell_setting           monoclinic
_symmetry_space_group_name_H-M   'P 21/c'
_symmetry_Int_Tables_number      14
_space_group_name_Hall           '-P 2ybc'
loop_
_symmetry_equiv_pos_site_id
_symmetry_equiv_pos_as_xyz
1 x,y,z
2 -x,1/2+y,1/2-z
3 -x,-y,-z
4 x,1/2-y,1/2+z
_cell_length_a                   12.2853(2)
_cell_length_b                   31.6711(5)
_cell_length_c                   12.8947(3)
_cell_angle_alpha                90
_cell_angle_beta                 90.036(2)
_cell_angle_gamma                90
_cell_volume                     5017.18
_exptl_crystal_colour            colorless
_exptl_crystal_description       prism
_cell_formula_units_Z            8
loop_
_atom_site_label
_atom_site_type_symbol
_atom_site_fract_x
_atom_site_fract_y
_atom_site_fract_z
P1 P 1.31038(5) 0.155539(19) 0.59233(5)
P2 P 1.29493(6) 0.10160(2) 0.40298(5)
N1 N 1.37163(16) 0.12507(6) 0.49938(16)
N2 N 1.48754(17) 0.12886(6) 0.48361(17)
C1 C 1.40751(19) 0.15417(7) 0.69897(18)
C2 C 1.3802(2) 0.12907(8) 0.78336(19)
C3 C 1.4517(2) 0.12424(8) 0.8657(2)
C4 C 1.5514(2) 0.14447(9) 0.8644(2)
C5 C 1.5789(2) 0.17026(8) 0.7808(2)
C6 C 1.5071(2) 0.17568(8) 0.6994(2)
C7 C 1.31956(19) 0.21029(7) 0.55016(18)
C8 C 1.3899(2) 0.22667(8) 0.4761(2)
C9 C 1.3801(3) 0.26830(9) 0.4442(2)
C10 C 1.3017(2) 0.29440(8) 0.4864(2)
C11 C 1.2326(2) 0.27879(9) 0.5617(2)
C12 C 1.2403(2) 0.23700(8) 0.5922(2)
C13 C 1.2334(2) 0.05516(8) 0.4645(2)
C14 C 1.2024(3) 0.02282(9) 0.3982(3)
C15 C 1.1490(3) -0.01262(11) 0.4390(5)
C16 C 1.1292(3) -0.01640(11) 0.5421(5)
C17 C 1.1610(3) 0.01483(11) 0.6082(4)
C18 C 1.2129(3) 0.05070(10) 0.5698(3)
C19 C 1.1759(2) 0.13652(8) 0.39442(19)
C20 C 1.0717(2) 0.12663(9) 0.4291(2)
C21 C 0.9871(2) 0.15491(10) 0.4184(2)
C22 C 1.0040(3) 0.19385(10) 0.3741(2)
C23 C 1.1067(3) 0.20399(9) 0.3359(2)
C24 C 1.1910(2) 0.17530(9) 0.3447(2)
C25 C 1.5536(2) 0.08997(8) 0.4993(2)
C26 C 1.6706(2) 0.10602(10) 0.4927(3)
C27 C 1.5331(3) 0.07098(9) 0.6054(2)
C28 C 1.5349(3) 0.05623(9) 0.4169(2)
H1 H 1.496(3) 0.1370(10) 0.422(3)
H2 H 1.307(3) 0.1170(10) 0.787(2)
H3 H 1.432(3) 0.1064(10) 0.928(3)
H4 H 1.602(3) 0.1383(12) 0.927(3)
H5 H 1.648(3) 0.1850(10) 0.779(2)
H6 H 1.533(2) 0.1938(10) 0.639(2)
H7 H 1.449(3) 0.2073(10) 0.454(2)
H8 H 1.432(3) 0.2788(11) 0.393(3)
H9 H 1.293(3) 0.3228(10) 0.457(2)
H10 H 1.180(3) 0.2976(11) 0.591(3)
H11 H 1.184(3) 0.2263(10) 0.650(2)
H12 H 1.215(3) 0.0255(10) 0.327(3)
H13 H 1.129(4) -0.0299(14) 0.390(4)
H14 H 1.095(3) -0.0404(12) 0.585(3)
H15 H 1.142(4) 0.0137(15) 0.684(4)
H16 H 1.229(3) 0.0739(10) 0.615(3)
H17 H 1.057(3) 0.1031(10) 0.463(3)
H18 H 0.911(3) 0.1474(11) 0.445(3)
H19 H 0.950(3) 0.2162(11) 0.368(3)
H20 H 1.122(3) 0.2304(11) 0.301(3)
H21 H 1.263(2) 0.1824(9) 0.319(2)
H22 H 1.684(3) 0.1268(12) 0.550(3)
H23 H 1.688(3) 0.1176(12) 0.429(3)
H24 H 1.715(3) 0.0818(11) 0.492(3)
H25 H 1.452(3) 0.0646(11) 0.614(3)
H26 H 1.581(2) 0.0435(10) 0.615(2)
H27 H 1.545(3) 0.0902(13) 0.662(3)
H28 H 1.463(3) 0.0438(10) 0.424(2)
H29 H 1.546(3) 0.0701(13) 0.341(3)
H30 H 1.587(3) 0.0342(12) 0.429(3)
P3 P 0.79299(6) 0.09586(2) 0.18122(5)
P4 P 0.81430(5) 0.151000(19) -0.00361(5)
N3 N 0.87451(16) 0.11941(6) 0.08816(16)
N4 N 0.98993(17) 0.12259(7) 0.10734(17)
C29 C 0.6777(2) 0.13286(8) 0.19143(19)
C30 C 0.5731(2) 0.12518(9) 0.1543(2)
C31 C 0.4912(3) 0.15461(10) 0.1670(2)
C32 C 0.5120(3) 0.19265(10) 0.2160(2)
C33 C 0.6154(3) 0.20045(10) 0.2551(2)
C34 C 0.6963(3) 0.17057(9) 0.2445(2)
C35 C 0.7286(2) 0.05177(8) 0.1126(2)
C36 C 0.7294(3) 0.04626(9) 0.0056(2)
C37 C 0.6791(3) 0.01203(9) -0.0400(3)
C38 C 0.6262(3) -0.01718(9) 0.0208(3)
C39 C 0.6258(3) -0.01303(9) 0.1267(3)
C40 C 0.6769(2) 0.02122(8) 0.1728(2)
C41 C 0.8271(2) 0.20569(8) 0.03944(19)
C42 C 0.7470(2) 0.23264(8) 0.0009(2)
C43 C 0.7413(3) 0.27458(9) 0.0324(2)
C44 C 0.8158(3) 0.28952(9) 0.1036(2)
C45 C 0.8948(3) 0.26300(9) 0.1431(2)
C46 C 0.9013(2) 0.22138(9) 0.1107(2)
C47 C 0.90880(19) 0.14937(7) -0.11175(18)
C48 C 1.0092(2) 0.17051(8) -0.1150(2)
C49 C 1.0774(2) 0.16556(8) -0.1992(2)
C50 C 1.0469(2) 0.14032(9) -0.2820(2)
C51 C 0.9474(2) 0.11995(9) -0.2806(2)
C52 C 0.8787(2) 0.12433(8) -0.19654(19)
C53 C 1.0549(2) 0.08332(8) 0.0925(2)
C54 C 1.0278(3) 0.04826(10) 0.1696(3)
C55 C 1.1719(2) 0.09788(10) 0.1091(3)
C56 C 1.0419(3) 0.06648(9) -0.0175(2)
H31 H 0.999(3) 0.1321(10) 0.165(3)
H32 H 0.558(3) 0.1005(11) 0.113(3)
H33 H 0.417(3) 0.1482(12) 0.144(3)
H34 H 0.454(3) 0.2140(10) 0.224(2)
H35 H 0.633(3) 0.2271(12) 0.291(3)
H36 H 0.759(3) 0.1758(13) 0.271(3)
H37 H 0.768(3) 0.0668(11) -0.038(3)
H38 H 0.682(3) 0.0109(11) -0.109(3)
H39 H 0.583(4) -0.0402(15) -0.010(4)
H40 H 0.593(3) -0.0330(11) 0.172(3)
H41 H 0.674(3) 0.0244(10) 0.248(3)
H42 H 0.693(3) 0.2215(10) -0.048(3)
H43 H 0.690(3) 0.2925(10) 0.004(2)
H44 H 0.810(3) 0.3174(12) 0.129(3)
H45 H 0.951(3) 0.2721(10) 0.189(3)
H46 H 0.961(3) 0.2052(10) 0.131(2)
H47 H 1.040(2) 0.1877(9) -0.057(2)
H48 H 1.155(3) 0.1777(11) -0.196(3)
H49 H 1.094(2) 0.1396(9) -0.337(2)
H50 H 0.925(3) 0.1040(10) -0.345(3)
H51 H 0.808(2) 0.1090(9) -0.199(2)
H52 H 0.952(3) 0.0354(11) 0.154(3)
H53 H 1.041(3) 0.0573(13) 0.244(3)
H54 H 1.082(3) 0.0223(10) 0.157(2)
H55 H 1.184(3) 0.1090(11) 0.177(3)
H56 H 1.194(3) 0.1205(11) 0.060(3)
H57 H 1.218(2) 0.0745(10) 0.106(2)
H58 H 0.965(3) 0.0579(11) -0.035(3)
H59 H 1.060(3) 0.0869(10) -0.076(3)
H60 H 1.086(2) 0.0427(10) -0.023(2)
loop_
_geom_bond_atom_site_label_1
_geom_bond_atom_site_label_2
_geom_bond_site_symmetry_1
_geom_bond_site_symmetry_2
P1 N1 1_555 1_555
P2 N1 1_555 1_555
N1 N2 1_555 1_555
N2 C25 1_555 1_555
C1 P1 1_555 1_555
C2 C1 1_555 1_555
C3 C2 1_555 1_555
C4 C3 1_555 1_555
C5 C4 1_555 1_555
C6 C1 1_555 1_555
C7 P1 1_555 1_555
C8 C7 1_555 1_555
C9 C8 1_555 1_555
C10 C9 1_555 1_555
C11 C10 1_555 1_555
C12 C7 1_555 1_555
C13 P2 1_555 1_555
C14 C13 1_555 1_555
C15 C14 1_555 1_555
C16 C15 1_555 1_555
C17 C16 1_555 1_555
C18 C13 1_555 1_555
C19 P2 1_555 1_555
C20 C19 1_555 1_555
C21 C20 1_555 1_555
C22 C21 1_555 1_555
C23 C22 1_555 1_555
C24 C19 1_555 1_555
C25 C26 1_555 1_555
C26 H22 1_555 1_555
C27 C25 1_555 1_555
C28 C25 1_555 1_555
H1 N2 1_555 1_555
H2 C2 1_555 1_555
H3 C3 1_555 1_555
H4 C4 1_555 1_555
H5 C5 1_555 1_555
H6 C6 1_555 1_555
H7 C8 1_555 1_555
H8 C9 1_555 1_555
H9 C10 1_555 1_555
H10 C11 1_555 1_555
H11 C12 1_555 1_555
H12 C14 1_555 1_555
H13 C15 1_555 1_555
H14 C16 1_555 1_555
H15 C17 1_555 1_555
H16 C18 1_555 1_555
H17 C20 1_555 1_555
H18 C21 1_555 1_555
H19 C22 1_555 1_555
H20 C23 1_555 1_555
H21 C24 1_555 1_555
H23 C26 1_555 1_555
H24 C26 1_555 1_555
H25 C27 1_555 1_555
H26 C27 1_555 1_555
H27 C27 1_555 1_555
H28 C28 1_555 1_555
H29 C28 1_555 1_555
H30 C28 1_555 1_555
P3 N3 1_555 1_555
P4 N3 1_555 1_555
N3 N4 1_555 1_555
N4 C53 1_555 1_555
C29 P3 1_555 1_555
C30 C29 1_555 1_555
C31 C30 1_555 1_555
C32 C31 1_555 1_555
C33 C32 1_555 1_555
C34 C29 1_555 1_555
C35 P3 1_555 1_555
C36 C35 1_555 1_555
C37 C36 1_555 1_555
C38 C37 1_555 1_555
C39 C38 1_555 1_555
C40 C35 1_555 1_555
C41 P4 1_555 1_555
C42 C41 1_555 1_555
C43 C42 1_555 1_555
C44 C43 1_555 1_555
C45 C44 1_555 1_555
C46 C41 1_555 1_555
C47 P4 1_555 1_555
C48 C47 1_555 1_555
C49 C48 1_555 1_555
C50 C49 1_555 1_555
C51 C50 1_555 1_555
C52 C47 1_555 1_555
C53 C54 1_555 1_555
C54 H52 1_555 1_555
C55 C53 1_555 1_555
C56 C53 1_555 1_555
H31 N4 1_555 1_555
H32 C30 1_555 1_555
H33 C31 1_555 1_555
H34 C32 1_555 1_555
H35 C33 1_555 1_555
H36 C34 1_555 1_555
H37 C36 1_555 1_555
H38 C37 1_555 1_555
H39 C38 1_555 1_555
H40 C39 1_555 1_555
H41 C40 1_555 1_555
H42 C42 1_555 1_555
H43 C43 1_555 1_555
H44 C44 1_555 1_555
H45 C45 1_555 1_555
H46 C46 1_555 1_555
H47 C48 1_555 1_555
H48 C49 1_555 1_555
H49 C50 1_555 1_555
H50 C51 1_555 1_555
H51 C52 1_555 1_555
H53 C54 1_555 1_555
H54 C54 1_555 1_555
H55 C55 1_555 1_555
H56 C55 1_555 1_555
H57 C55 1_555 1_555
H58 C56 1_555 1_555
H59 C56 1_555 1_555
H60 C56 1_555 1_555
C5 C6 1_555 1_555
C11 C12 1_555 1_555
C17 C18 1_555 1_555
C23 C24 1_555 1_555
C33 C34 1_555 1_555
C39 C40 1_555 1_555
C45 C46 1_555 1_555
C51 C52 1_555 1_555

#END
