
#######################################################################
#
#                 Cambridge Crystallographic Data Centre
#                                CCDC 
#
#######################################################################
#
# If this CIF has been generated from an entry in the Cambridge 
# Structural Database, then it will include bibliographic, chemical, 
# crystal, experimental, refinement or atomic coordinate data resulting 
# from the CCDC's data processing and validation procedures.
#
#######################################################################

data_QAWNAD01
_chemical_formula_moiety         'C20 H25 Cl1 N1 O1 1+,C20 H13 O4 1-'
_chemical_name_systematic        
'1-(2-((4-Chlorophenyl)(phenyl)methoxy)ethyl)piperidinium 2-((6-hydroxybiphenyl-3-yl)carbonyl)benzoate'
_symmetry_cell_setting           triclinic
_symmetry_space_group_name_H-M   'P 1'
_symmetry_Int_Tables_number      1
_space_group_name_Hall           'P 1'
loop_
_symmetry_equiv_pos_site_id
_symmetry_equiv_pos_as_xyz
1 x,y,z
_cell_length_a                   10.1059(18)
_cell_length_b                   11.957(2)
_cell_length_c                   15.383(3)
_cell_angle_alpha                104.666(2)
_cell_angle_beta                 90.9700(10)
_cell_angle_gamma                110.744(2)
_cell_volume                     1669.97
_exptl_crystal_colour            colorless
_exptl_crystal_description       prism
_cell_formula_units_Z            2
loop_
_atom_site_label
_atom_site_type_symbol
_atom_site_fract_x
_atom_site_fract_y
_atom_site_fract_z
Cl1 Cl 0.64769(7) 0.80609(6) 0.73157(5)
O1 O 0.03925(18) 0.35280(16) 0.50423(11)
N1 N -0.1564(2) 0.2263(2) 0.31315(15)
C1 C -0.2994(3) 0.2091(3) 0.27050(19)
H1 H -0.2881 0.2729 0.2379
H2 H -0.3617 0.2202 0.3182
C2 C -0.3682(3) 0.0802(3) 0.2048(2)
H3 H -0.4635 0.0697 0.1787
H4 H -0.3093 0.0713 0.1546
C3 C -0.3828(3) -0.0193(3) 0.2521(2)
H5 H -0.4216 -0.1024 0.2076
H6 H -0.4499 -0.0164 0.2980
C4 C -0.2388(3) 0.0008(2) 0.29760(19)
H7 H -0.2510 -0.0612 0.3320
H8 H -0.1760 -0.0128 0.2507
C5 C -0.1687(3) 0.1299(2) 0.36097(18)
H9 H -0.2257 0.1404 0.4120
H10 H -0.0727 0.1408 0.3860
C6 C -0.0875(3) 0.3563(2) 0.37401(18)
H11 H -0.0785 0.4158 0.3378
H12 H -0.1506 0.3703 0.4207
C7 C 0.0567(3) 0.3839(2) 0.42022(17)
H13 H 0.1050 0.3343 0.3815
H14 H 0.1161 0.4732 0.4312
C8 C 0.1577(3) 0.3331(2) 0.54067(18)
H15 H 0.1961 0.2883 0.4896
C9 C 0.0983(3) 0.2482(2) 0.60025(18)
C10 C 0.0677(3) 0.1215(2) 0.56740(18)
H16 H 0.0874 0.0888 0.5082
C11 C 0.0084(3) 0.0415(2) 0.62052(19)
H17 H -0.0132 -0.0453 0.5973
C12 C -0.0188(3) 0.0894(3) 0.70722(18)
H18 H -0.0579 0.0354 0.7439
C13 C 0.0106(3) 0.2145(3) 0.74023(19)
H19 H -0.0083 0.2469 0.7997
C14 C 0.0682(3) 0.2944(3) 0.68690(18)
H20 H 0.0871 0.3808 0.7099
C15 C 0.2771(3) 0.4537(2) 0.59085(18)
C16 C 0.2646(3) 0.5694(2) 0.60688(17)
H21 H 0.1773 0.5739 0.5875
C17 C 0.3774(3) 0.6780(3) 0.65066(18)
H22 H 0.3683 0.7565 0.6605
C18 C 0.5031(3) 0.6702(2) 0.67969(18)
C19 C 0.5184(3) 0.5571(2) 0.66698(18)
H23 H 0.6052 0.5532 0.6878
C20 C 0.4046(3) 0.4496(2) 0.62333(18)
H24 H 0.4134 0.3713 0.6153
H25 H -0.097(4) 0.216(3) 0.261(2)
O2 O 0.75554(19) 0.55309(16) 0.14844(12)
O3 O 0.90795(19) 0.52690(16) 0.23985(12)
O4 O 0.9715(2) 0.61570(16) 0.47243(12)
O5 O 1.3060(2) 1.08527(18) 0.33629(13)
C21 C 0.7973(3) 0.5482(2) 0.22374(18)
C22 C 0.7087(3) 0.5640(2) 0.30036(18)
C23 C 0.5619(3) 0.5241(3) 0.2807(2)
H26 H 0.5199 0.4914 0.2195
C24 C 0.4763(3) 0.5316(3) 0.3498(2)
H27 H 0.3759 0.5033 0.3358
C25 C 0.5361(3) 0.5797(3) 0.4382(2)
H28 H 0.4770 0.5846 0.4853
C26 C 0.6818(3) 0.6211(3) 0.4591(2)
H29 H 0.7224 0.6548 0.5206
C27 C 0.7699(3) 0.6140(3) 0.39116(19)
C28 C 0.9273(3) 0.6634(3) 0.42254(18)
C29 C 1.0241(3) 0.7743(3) 0.39862(19)
C30 C 0.9769(3) 0.8309(2) 0.34243(18)
H30 H 0.8793 0.7985 0.3185
C31 C 1.0709(3) 0.9336(2) 0.32126(18)
H31 H 1.0383 0.9697 0.2812
C32 C 1.2127(3) 0.9847(2) 0.35809(18)
C33 C 1.2626(3) 0.9334(2) 0.41780(18)
C34 C 1.1666(3) 0.8278(3) 0.43589(19)
H32 H 1.1992 0.7907 0.4751
C35 C 1.4106(3) 0.9900(3) 0.46513(18)
C36 C 1.4853(3) 0.9169(3) 0.47809(19)
H33 H 1.4439 0.8291 0.4533
C37 C 1.6203(3) 0.9705(3) 0.5269(2)
H34 H 1.6703 0.9193 0.5351
C38 C 1.6813(3) 1.0971(3) 0.5632(2)
H35 H 1.7729 1.1331 0.5972
C39 C 1.6101(3) 1.1720(3) 0.55065(19)
H36 H 1.6529 1.2597 0.5752
C40 C 1.4751(3) 1.1187(3) 0.50177(19)
H37 H 1.4262 1.1706 0.4932
H38 H 1.259(3) 1.121(3) 0.309(2)
Cl2 Cl 1.03882(7) 0.78581(6) 0.67731(5)
C41 C 0.3951(3) 0.0842(3) 0.72716(19)
H39 H 0.3163 0.0124 0.6952
C42 C 0.9441(3) 0.6758(2) 0.73053(18)
O6 O 0.86291(18) 0.38785(16) 0.91040(12)
N2 N 1.0600(2) 0.5047(2) 1.09840(15)
C43 C 1.0708(3) 0.6042(2) 1.05359(18)
H40 H 0.9745 0.5936 1.0292
H41 H 1.1282 0.5971 1.0024
C44 C 1.1398(3) 0.7316(3) 1.1204(2)
H42 H 1.0767 0.7415 1.1679
H43 H 1.1507 0.7962 1.0887
C45 C 1.2851(3) 0.7510(3) 1.1646(2)
H44 H 1.3234 0.8325 1.2110
H45 H 1.3522 0.7510 1.1184
C46 C 1.2709(3) 0.6470(3) 1.2085(2)
H46 H 1.3664 0.6566 1.2335
H47 H 1.2123 0.6532 1.2591
C47 C 1.2029(3) 0.5214(3) 1.14086(19)
H48 H 1.2659 0.5126 1.0931
H49 H 1.1917 0.4556 1.1715
C48 C 0.9911(3) 0.3756(2) 1.03725(18)
H50 H 0.9831 0.3157 1.0729
H51 H 1.0536 0.3624 0.9900
C49 C 0.8440(3) 0.3481(3) 0.99155(17)
H52 H 0.7866 0.2579 0.9766
H53 H 0.7938 0.3935 1.0324
C50 C 0.7451(3) 0.4115(2) 0.87685(18)
H54 H 0.7071 0.4532 0.9298
C51 C 0.6249(3) 0.2946(3) 0.82356(18)
C52 C 0.6345(3) 0.1783(2) 0.80223(18)
H55 H 0.7201 0.1702 0.8205
C53 C 0.5194(3) 0.0728(3) 0.75417(19)
H56 H 0.5268 -0.0067 0.7401
C54 C 0.3851(3) 0.2004(3) 0.74665(18)
H57 H 0.3003 0.2085 0.7268
C55 C 0.4987(3) 0.3044(3) 0.79510(18)
H58 H 0.4907 0.3837 0.8092
C56 C 0.8081(3) 0.5039(2) 0.82241(18)
C57 C 0.8441(3) 0.6295(2) 0.86251(19)
H59 H 0.8217 0.6568 0.9220
C58 C 0.9125(3) 0.7164(3) 0.81694(19)
H60 H 0.9372 0.8028 0.8449
C59 C 0.9061(3) 0.5497(2) 0.68800(18)
H61 H 0.9268 0.5224 0.6281
C60 C 0.8378(3) 0.4647(2) 0.73425(18)
H62 H 0.8107 0.3783 0.7056
H63 H 1.005(2) 0.513(2) 1.1421(13)
O7 O 1.15119(19) 1.18311(16) 0.26467(12)
O8 O 0.99869(19) 1.20922(16) 0.17236(12)
O9 O 0.9393(2) 1.10970(17) -0.06807(12)
O10 O 0.6015(2) 0.65903(18) 0.08562(13)
C61 C 1.1094(3) 1.1893(2) 0.18864(18)
C62 C 1.1979(3) 1.1719(2) 0.11198(18)
C63 C 1.3448(3) 1.2135(3) 0.1328(2)
H64 H 1.3851 1.2452 0.1943
C64 C 1.4330(3) 1.2097(3) 0.0657(2)
H65 H 1.5333 1.2398 0.0811
C65 C 1.3749(3) 1.1617(3) -0.0246(2)
H66 H 1.4350 1.1574 -0.0712
C66 C 1.2297(3) 1.1204(3) -0.0459(2)
H67 H 1.1902 1.0885 -0.1077
C67 C 1.1394(3) 1.1245(2) 0.02132(18)
C68 C 0.9823(3) 1.0714(3) -0.01120(18)
C69 C 0.8856(3) 0.9647(3) 0.01821(19)
C70 C 0.9323(3) 0.9100(2) 0.07559(18)
H68 H 1.0300 0.9422 0.0991
C71 C 0.8376(3) 0.8091(2) 0.09866(18)
H69 H 0.8708 0.7740 0.1391
C72 C 0.6945(3) 0.7581(2) 0.06368(18)
C73 C 0.6453(3) 0.8091(2) 0.00258(18)
C74 C 0.7424(3) 0.9122(3) -0.01722(18)
H70 H 0.7097 0.9488 -0.0568
C75 C 0.4977(3) 0.7507(3) -0.04479(18)
C76 C 0.4230(3) 0.8235(3) -0.05988(19)
H71 H 0.4638 0.9113 -0.0350
C77 C 0.2902(3) 0.7702(3) -0.1106(2)
H72 H 0.2407 0.8212 -0.1201
C78 C 0.2299(3) 0.6423(3) -0.14725(19)
H73 H 0.1388 0.6051 -0.1819
C79 C 0.3032(3) 0.5693(3) -0.13309(19)
H74 H 0.2624 0.4817 -0.1588
C80 C 0.4345(3) 0.6220(2) -0.08218(18)
H75 H 0.4828 0.5702 -0.0724
H76 H 0.655(3) 0.634(3) 0.124(2)
loop_
_geom_bond_atom_site_label_1
_geom_bond_atom_site_label_2
_geom_bond_site_symmetry_1
_geom_bond_site_symmetry_2
Cl1 C18 1_555 1_555
O1 C7 1_555 1_555
N1 C1 1_555 1_555
C1 H1 1_555 1_555
H2 C1 1_555 1_555
C2 C1 1_555 1_555
H3 C2 1_555 1_555
H4 C2 1_555 1_555
C3 C2 1_555 1_555
H5 C3 1_555 1_555
H6 C3 1_555 1_555
C4 C3 1_555 1_555
H7 C4 1_555 1_555
H8 C4 1_555 1_555
C5 N1 1_555 1_555
H9 C5 1_555 1_555
H10 C5 1_555 1_555
C6 N1 1_555 1_555
H11 C6 1_555 1_555
H12 C6 1_555 1_555
C7 C6 1_555 1_555
H13 C7 1_555 1_555
H14 C7 1_555 1_555
C8 O1 1_555 1_555
H15 C8 1_555 1_555
C9 C8 1_555 1_555
C10 C9 1_555 1_555
H16 C10 1_555 1_555
C11 C10 1_555 1_555
H17 C11 1_555 1_555
C12 C11 1_555 1_555
H18 C12 1_555 1_555
C13 C12 1_555 1_555
H19 C13 1_555 1_555
C14 C9 1_555 1_555
H20 C14 1_555 1_555
C15 C8 1_555 1_555
C16 C15 1_555 1_555
H21 C16 1_555 1_555
C17 C16 1_555 1_555
H22 C17 1_555 1_555
C18 C17 1_555 1_555
C19 C18 1_555 1_555
H23 C19 1_555 1_555
C20 C15 1_555 1_555
H24 C20 1_555 1_555
H25 N1 1_555 1_555
O2 C21 1_555 1_555
O3 C21 1_555 1_555
O4 C28 1_555 1_555
O5 C32 1_555 1_555
C21 C22 1_555 1_555
C22 C23 1_555 1_555
C23 H26 1_555 1_555
C24 C23 1_555 1_555
H27 C24 1_555 1_555
C25 C24 1_555 1_555
H28 C25 1_555 1_555
C26 C25 1_555 1_555
H29 C26 1_555 1_555
C27 C22 1_555 1_555
C28 C27 1_555 1_555
C29 C28 1_555 1_555
C30 C29 1_555 1_555
H30 C30 1_555 1_555
C31 C30 1_555 1_555
H31 C31 1_555 1_555
C32 C31 1_555 1_555
C33 C32 1_555 1_555
C34 C29 1_555 1_555
H32 C34 1_555 1_555
C35 C33 1_555 1_555
C36 C35 1_555 1_555
H33 C36 1_555 1_555
C37 C36 1_555 1_555
H34 C37 1_555 1_555
C38 C37 1_555 1_555
H35 C38 1_555 1_555
C39 C38 1_555 1_555
H36 C39 1_555 1_555
C40 C35 1_555 1_555
H37 C40 1_555 1_555
H38 O5 1_555 1_555
Cl2 C42 1_555 1_555
C41 H39 1_555 1_555
C42 C58 1_555 1_555
O6 C49 1_555 1_555
N2 C43 1_555 1_555
C43 H40 1_555 1_555
H41 C43 1_555 1_555
C44 C43 1_555 1_555
H42 C44 1_555 1_555
H43 C44 1_555 1_555
C45 C44 1_555 1_555
H44 C45 1_555 1_555
H45 C45 1_555 1_555
C46 C45 1_555 1_555
H46 C46 1_555 1_555
H47 C46 1_555 1_555
C47 N2 1_555 1_555
H48 C47 1_555 1_555
H49 C47 1_555 1_555
C48 N2 1_555 1_555
H50 C48 1_555 1_555
H51 C48 1_555 1_555
C49 C48 1_555 1_555
H52 C49 1_555 1_555
H53 C49 1_555 1_555
C50 O6 1_555 1_555
H54 C50 1_555 1_555
C51 C50 1_555 1_555
C52 C51 1_555 1_555
H55 C52 1_555 1_555
C53 C41 1_555 1_555
H56 C53 1_555 1_555
C54 C41 1_555 1_555
H57 C54 1_555 1_555
C55 C51 1_555 1_555
H58 C55 1_555 1_555
C56 C50 1_555 1_555
C57 C56 1_555 1_555
H59 C57 1_555 1_555
C58 C57 1_555 1_555
H60 C58 1_555 1_555
C59 C42 1_555 1_555
H61 C59 1_555 1_555
C60 C56 1_555 1_555
H62 C60 1_555 1_555
H63 N2 1_555 1_555
O7 C61 1_555 1_555
O8 C61 1_555 1_555
O9 C68 1_555 1_555
O10 C72 1_555 1_555
C61 C62 1_555 1_555
C62 C63 1_555 1_555
C63 H64 1_555 1_555
C64 C63 1_555 1_555
H65 C64 1_555 1_555
C65 C64 1_555 1_555
H66 C65 1_555 1_555
C66 C65 1_555 1_555
H67 C66 1_555 1_555
C67 C62 1_555 1_555
C68 C67 1_555 1_555
C69 C68 1_555 1_555
C70 C69 1_555 1_555
H68 C70 1_555 1_555
C71 C70 1_555 1_555
H69 C71 1_555 1_555
C72 C71 1_555 1_555
C73 C72 1_555 1_555
C74 C69 1_555 1_555
H70 C74 1_555 1_555
C75 C73 1_555 1_555
C76 C75 1_555 1_555
H71 C76 1_555 1_555
C77 C76 1_555 1_555
H72 C77 1_555 1_555
C78 C77 1_555 1_555
H73 C78 1_555 1_555
C79 C78 1_555 1_555
H74 C79 1_555 1_555
C80 C75 1_555 1_555
H75 C80 1_555 1_555
H76 O10 1_555 1_555
C4 C5 1_555 1_555
C13 C14 1_555 1_555
C19 C20 1_555 1_555
C26 C27 1_555 1_555
C33 C34 1_555 1_555
C39 C40 1_555 1_555
C46 C47 1_555 1_555
C52 C53 1_555 1_555
C54 C55 1_555 1_555
C59 C60 1_555 1_555
C66 C67 1_555 1_555
C73 C74 1_555 1_555
C79 C80 1_555 1_555

#END
