
#######################################################################
#
#                 Cambridge Crystallographic Data Centre
#                                CCDC 
#
#######################################################################
#
# If this CIF has been generated from an entry in the Cambridge 
# Structural Database, then it will include bibliographic, chemical, 
# crystal, experimental, refinement or atomic coordinate data resulting 
# from the CCDC's data processing and validation procedures.
#
#######################################################################

data_QAWPIQ
_chemical_formula_moiety         'C20 H21 Cl1 N2 O2'
_chemical_name_systematic        
't-butyl (S)-((4-chlorophenyl)(1H-indol-3-yl)methyl)carbamate'
_symmetry_cell_setting           triclinic
_symmetry_space_group_name_H-M   'P 1'
_symmetry_Int_Tables_number      1
_space_group_name_Hall           'P 1'
loop_
_symmetry_equiv_pos_site_id
_symmetry_equiv_pos_as_xyz
1 x,y,z
_cell_length_a                   5.3783(2)
_cell_length_b                   9.5089(3)
_cell_length_c                   9.8071(3)
_cell_angle_alpha                109.262(3)
_cell_angle_beta                 103.310(2)
_cell_angle_gamma                96.553(3)
_cell_volume                     450.787
_exptl_crystal_colour            colorless
_exptl_crystal_description       Block
_cell_formula_units_Z            1
_exptl_crystal_recrystallization_method 'dichloromethane/petroleum ether'
loop_
_atom_site_label
_atom_site_type_symbol
_atom_site_fract_x
_atom_site_fract_y
_atom_site_fract_z
Cl1 Cl 0.48988(13) 0.48937(9) -0.05035(8)
O1 O 0.5669(3) 0.86278(19) 0.85809(19)
O2 O 0.1784(3) 0.70096(19) 0.7184(2)
N1 N 0.5638(4) 0.6457(2) 0.6835(2)
H1 H 0.7306 0.6771 0.7124
N2 N 0.8547(4) 0.2423(3) 0.6758(3)
H2 H 0.9943 0.2236 0.7237
C1 C 0.4492(4) 0.2137(2) 0.5318(2)
C2 C 0.4155(4) 0.7340(2) 0.7508(2)
C3 C 0.5719(4) 0.3728(2) 0.5930(2)
C4 C 0.8173(5) 0.3840(3) 0.6785(3)
H3 H 0.9414 0.4742 0.7310
C5 C 0.6335(5) 0.1359(3) 0.5843(3)
C6 C 0.4712(5) 0.4988(3) 0.1272(3)
C7 C 0.2458(5) 0.4305(3) 0.1433(3)
H4 H 0.0988 0.3841 0.0608
C8 C 0.6879(5) 0.5716(3) 0.2497(3)
H5 H 0.8375 0.6201 0.2381
C9 C 0.4586(4) 0.5013(2) 0.4093(2)
C10 C 0.6811(5) 0.5720(3) 0.3898(3)
H6 H 0.8277 0.6203 0.4722
C11 C 0.2416(5) 0.4320(3) 0.2842(3)
H7 H 0.0899 0.3856 0.2955
C12 C 0.4519(5) 0.9745(3) 0.9558(3)
C13 C 0.4486(4) 0.4977(2) 0.5624(2)
H8 H 0.2641 0.4737 0.5578
C14 C 0.5795(6) -0.0220(3) 0.5437(3)
H9 H 0.7047 -0.0720 0.5777
C15 C 0.3367(6) -0.1003(3) 0.4526(4)
H10 H 0.2966 -0.2057 0.4233
C16 C 0.2007(5) 0.1302(3) 0.4401(3)
H11 H 0.0740 0.1789 0.4053
C17 C 0.1464(6) -0.0257(3) 0.4020(3)
H12 H -0.0189 -0.0819 0.3420
C18 C 0.2565(6) 1.0333(3) 0.8618(4)
H13 H 0.3320 1.0613 0.7924
H14 H 0.2117 1.1207 0.9267
H15 H 0.1021 0.9551 0.8068
C19 C 0.6880(7) 1.1002(4) 1.0525(5)
H16 H 0.8149 1.0602 1.1070
H17 H 0.6358 1.1802 1.1225
H18 H 0.7628 1.1398 0.9894
C20 C 0.3338(9) 0.9039(5) 1.0493(4)
H19 H 0.1781 0.8297 0.9859
H20 H 0.2913 0.9817 1.1265
H21 H 0.4569 0.8554 1.0950
loop_
_geom_bond_atom_site_label_1
_geom_bond_atom_site_label_2
_geom_bond_site_symmetry_1
_geom_bond_site_symmetry_2
Cl1 C6 1_555 1_555
O1 C2 1_555 1_555
O2 C2 1_555 1_555
N1 H1 1_555 1_555
N2 H2 1_555 1_555
C1 C3 1_555 1_555
C2 N1 1_555 1_555
C3 C4 1_555 1_555
C4 N2 1_555 1_555
H3 C4 1_555 1_555
C5 N2 1_555 1_555
C6 C7 1_555 1_555
C7 H4 1_555 1_555
C8 C6 1_555 1_555
H5 C8 1_555 1_555
C9 C10 1_555 1_555
C10 C8 1_555 1_555
H6 C10 1_555 1_555
C11 C7 1_555 1_555
H7 C11 1_555 1_555
C12 O1 1_555 1_555
C13 N1 1_555 1_555
H8 C13 1_555 1_555
C14 C5 1_555 1_555
H9 C14 1_555 1_555
C15 C14 1_555 1_555
H10 C15 1_555 1_555
C16 C1 1_555 1_555
H11 C16 1_555 1_555
C17 C15 1_555 1_555
H12 C17 1_555 1_555
C18 C12 1_555 1_555
H13 C18 1_555 1_555
H14 C18 1_555 1_555
H15 C18 1_555 1_555
C19 C12 1_555 1_555
H16 C19 1_555 1_555
H17 C19 1_555 1_555
H18 C19 1_555 1_555
C20 C12 1_555 1_555
H19 C20 1_555 1_555
H20 C20 1_555 1_555
H21 C20 1_555 1_555
C1 C5 1_555 1_555
C3 C13 1_555 1_555
C9 C11 1_555 1_555
C9 C13 1_555 1_555
C16 C17 1_555 1_555

#END
