
#######################################################################
#
#                 Cambridge Crystallographic Data Centre
#                                CCDC 
#
#######################################################################
#
# If this CIF has been generated from an entry in the Cambridge 
# Structural Database, then it will include bibliographic, chemical, 
# crystal, experimental, refinement or atomic coordinate data resulting 
# from the CCDC's data processing and validation procedures.
#
#######################################################################

data_QAWSAJ
_chemical_formula_moiety         'C27 H20 N2 O2'
_chemical_name_systematic        
1,11-bis((Phenylimino)methyl)-dibenzo(d,f)(1,3)dioxepin
_symmetry_cell_setting           monoclinic
_symmetry_space_group_name_H-M   'P 21/c'
_symmetry_Int_Tables_number      14
_space_group_name_Hall           '-P 2ybc'
loop_
_symmetry_equiv_pos_site_id
_symmetry_equiv_pos_as_xyz
1 x,y,z
2 -x,1/2+y,1/2-z
3 -x,-y,-z
4 x,1/2-y,1/2+z
_cell_length_a                   13.608
_cell_length_b                   9.874
_cell_length_c                   15.817
_cell_angle_alpha                90
_cell_angle_beta                 92.03
_cell_angle_gamma                90
_cell_volume                     2123.92
_exptl_crystal_colour            yellow
_exptl_crystal_description       prism
_cell_formula_units_Z            4
_exptl_crystal_recrystallization_method 'diethyl ether/heptane'
loop_
_atom_site_label
_atom_site_type_symbol
_atom_site_fract_x
_atom_site_fract_y
_atom_site_fract_z
N1 N 0.63478(15) 0.16693(19) 0.51544(12)
N2 N 0.87177(13) 0.25241(17) 0.66921(11)
O1 O 0.60313(14) 0.71891(17) 0.67586(11)
O2 O 0.66698(14) 0.75473(15) 0.54101(10)
C1 C 0.61842(8) 0.81176(11) 0.60947(7)
H1 H 0.5553 0.8467 0.5892
H2 H 0.6568 0.8874 0.6315
C2 C 0.56706(8) 0.59347(11) 0.65008(7)
C3 C 0.63026(8) 0.50476(11) 0.61095(7)
C4 C 0.59333(8) 0.37703(11) 0.58472(7)
C5 C 0.49855(8) 0.34102(11) 0.60462(7)
H3 H 0.4742 0.2565 0.5884
C6 C 0.4399(2) 0.4285(4) 0.6480(2)
H4 H 0.3775 0.4012 0.6629
C7 C 0.4732(2) 0.5563(3) 0.66960(18)
H5 H 0.4325 0.6166 0.6970
C8 C 0.65239(16) 0.2901(2) 0.53112(13)
H6 H 0.7070 0.3287 0.5068
C9 C 0.7011(2) 0.0987(2) 0.46230(14)
C10 C 0.6635(2) 0.0128(2) 0.39942(18)
H7 H 0.5960 -0.0017 0.3935
C11 C 0.7272(3) -0.0516(3) 0.34527(17)
H8 H 0.7018 -0.1066 0.3020
C12 C 0.8259(3) -0.0349(3) 0.35505(17)
H9 H 0.8679 -0.0782 0.3187
C13 C 0.8632(2) 0.0455(2) 0.41822(16)
H10 H 0.9310 0.0559 0.4253
C14 C 0.8016(2) 0.1116(2) 0.47174(14)
H11 H 0.8283 0.1657 0.5149
C15 C 0.74822(18) 0.6758(2) 0.56268(13)
C16 C 0.73276(16) 0.54880(19) 0.59803(12)
C17 C 0.81575(15) 0.47021(19) 0.62036(12)
C18 C 0.90852(17) 0.5167(2) 0.60067(14)
H12 H 0.9633 0.4637 0.6143
C19 C 0.9209(2) 0.6391(2) 0.56145(15)
H13 H 0.9834 0.6675 0.5472
C20 C 0.8404(2) 0.7200(2) 0.54321(14)
H14 H 0.8484 0.8041 0.5178
C21 C 0.80612(15) 0.3438(2) 0.66798(12)
H15 H 0.7498 0.3300 0.6984
C22 C 0.85978(14) 0.13738(19) 0.72149(12)
C23 C 0.82428(17) 0.1437(2) 0.80163(14)
H16 H 0.8041 0.2264 0.8232
C24 C 0.81830(19) 0.0289(2) 0.85026(15)
H17 H 0.7953 0.0351 0.9048
C25 C 0.84550(19) -0.0931(2) 0.81982(15)
H18 H 0.8398 -0.1706 0.8527
C26 C 0.8811(2) -0.1014(2) 0.74123(16)
H19 H 0.9000 -0.1850 0.7202
C27 C 0.8894(2) 0.0130(2) 0.69209(15)
H20 H 0.9153 0.0063 0.6386
loop_
_geom_bond_atom_site_label_1
_geom_bond_atom_site_label_2
_geom_bond_site_symmetry_1
_geom_bond_site_symmetry_2
N1 C8 1_555 1_555
N2 C21 1_555 1_555
O1 C1 1_555 1_555
O2 C1 1_555 1_555
C1 H1 1_555 1_555
H2 C1 1_555 1_555
C2 O1 1_555 1_555
C3 C2 1_555 1_555
C4 C3 1_555 1_555
C5 C4 1_555 1_555
H3 C5 1_555 1_555
C6 C5 1_555 1_555
H4 C6 1_555 1_555
C7 C2 1_555 1_555
H5 C7 1_555 1_555
C8 C4 1_555 1_555
H6 C8 1_555 1_555
C9 N1 1_555 1_555
C10 C9 1_555 1_555
H7 C10 1_555 1_555
C11 C10 1_555 1_555
H8 C11 1_555 1_555
C12 C11 1_555 1_555
H9 C12 1_555 1_555
C13 C12 1_555 1_555
H10 C13 1_555 1_555
C14 C9 1_555 1_555
H11 C14 1_555 1_555
C15 O2 1_555 1_555
C16 C3 1_555 1_555
C17 C16 1_555 1_555
C18 C17 1_555 1_555
H12 C18 1_555 1_555
C19 C18 1_555 1_555
H13 C19 1_555 1_555
C20 C15 1_555 1_555
H14 C20 1_555 1_555
C21 C17 1_555 1_555
H15 C21 1_555 1_555
C22 N2 1_555 1_555
C23 C22 1_555 1_555
H16 C23 1_555 1_555
C24 C23 1_555 1_555
H17 C24 1_555 1_555
C25 C24 1_555 1_555
H18 C25 1_555 1_555
C26 C25 1_555 1_555
H19 C26 1_555 1_555
C27 C22 1_555 1_555
H20 C27 1_555 1_555
C6 C7 1_555 1_555
C13 C14 1_555 1_555
C15 C16 1_555 1_555
C19 C20 1_555 1_555
C26 C27 1_555 1_555

#END
