
#######################################################################
#
#                 Cambridge Crystallographic Data Centre
#                                CCDC 
#
#######################################################################
#
# If this CIF has been generated from an entry in the Cambridge 
# Structural Database, then it will include bibliographic, chemical, 
# crystal, experimental, refinement or atomic coordinate data resulting 
# from the CCDC's data processing and validation procedures.
#
#######################################################################

data_QAXDOL
_chemical_formula_moiety         'C21 H12 F4 O4 S1'
_chemical_name_systematic        
'methyl 5,6,7,8-tetrafluoro-2-(6-methoxy-2-naphthyl)-1,4-benzoxathiine-3-carboxylate'
_symmetry_cell_setting           monoclinic
_symmetry_space_group_name_H-M   'P 21/c'
_symmetry_Int_Tables_number      14
_space_group_name_Hall           '-P 2ybc'
loop_
_symmetry_equiv_pos_site_id
_symmetry_equiv_pos_as_xyz
1 x,y,z
2 -x,1/2+y,1/2-z
3 -x,-y,-z
4 x,1/2-y,1/2+z
_cell_length_a                   6.9546(3)
_cell_length_b                   17.5840(7)
_cell_length_c                   14.9336(7)
_cell_angle_alpha                90
_cell_angle_beta                 99.3471(14)
_cell_angle_gamma                90
_cell_volume                     1801.98
_exptl_crystal_colour            yellow
_exptl_crystal_description       needle
_cell_formula_units_Z            4
loop_
_atom_site_label
_atom_site_type_symbol
_atom_site_fract_x
_atom_site_fract_y
_atom_site_fract_z
S1 S 0.30068(6) 0.36127(2) 0.22715(3)
F1 F 0.08781(13) 0.39239(5) -0.11136(6)
F2 F 0.07234(14) 0.24030(6) -0.14064(7)
F3 F 0.16994(15) 0.14221(5) 0.00041(8)
F4 F 0.28227(16) 0.19679(5) 0.17010(7)
O1 O 0.17714(14) 0.45022(5) 0.05787(7)
O2 O 0.59577(19) 0.44821(7) 0.33874(8)
O3 O 0.71243(15) 0.50626(6) 0.22541(7)
O4 O 0.26804(15) 0.88235(6) -0.12158(7)
C1 C 0.30907(18) 0.58113(8) -0.00240(9)
C2 C 0.35442(19) 0.56300(8) 0.08844(10)
C3 C 0.4055(2) 0.62216(8) 0.15253(10)
C4 C 0.4090(2) 0.69623(8) 0.12501(10)
C5 C 0.35796(18) 0.71657(8) 0.03234(9)
C6 C 0.3470(2) 0.79362(8) 0.00371(10)
C7 C 0.2884(2) 0.81046(8) -0.08599(10)
C8 C 0.23945(19) 0.75217(8) -0.15100(10)
C9 C 0.2498(2) 0.67799(8) -0.12474(10)
C10 C 0.30853(18) 0.65741(8) -0.03236(9)
C11 C 0.3255(2) 0.48462(8) 0.11817(10)
C12 C 0.4047(2) 0.44739(8) 0.19386(10)
C13 C 0.5769(3) 0.46839(8) 0.26063(10)
C14 C 0.8886(3) 0.52405(11) 0.28860(13)
C15 C 0.2372(2) 0.32324(8) 0.11774(11)
C16 C 0.18659(19) 0.37254(8) 0.04538(10)
C17 C 0.1355(2) 0.34491(9) -0.04144(11)
C18 C 0.1274(2) 0.26731(9) -0.05645(11)
C19 C 0.1763(3) 0.21789(9) 0.01495(13)
C20 C 0.2335(3) 0.24593(9) 0.10082(12)
C21 C 0.3086(3) 0.94350(9) -0.05840(12)
H1 H 0.2776 0.5416 -0.0457
H2 H 0.4376 0.6102 0.2152
H3 H 0.4464 0.7348 0.1689
H4 H 0.3803 0.8333 0.0466
H5 H 0.1993 0.7648 -0.2131
H6 H 0.2172 0.6393 -0.1690
H7 H 0.9794 0.5518 0.2567
H8 H 0.8554 0.5556 0.3380
H9 H 0.9499 0.4768 0.3136
H10 H 0.2897 0.9921 -0.0908
H11 H 0.2203 0.9406 -0.0136
H12 H 0.4437 0.9398 -0.0274
loop_
_geom_bond_atom_site_label_1
_geom_bond_atom_site_label_2
_geom_bond_site_symmetry_1
_geom_bond_site_symmetry_2
S1 C12 1_555 1_555
F1 C17 1_555 1_555
F2 C18 1_555 1_555
F3 C19 1_555 1_555
F4 C20 1_555 1_555
O1 C11 1_555 1_555
O2 C13 1_555 1_555
O3 C13 1_555 1_555
O4 C7 1_555 1_555
C1 C2 1_555 1_555
C2 C3 1_555 1_555
C3 C4 1_555 1_555
C4 C5 1_555 1_555
C5 C6 1_555 1_555
C6 C7 1_555 1_555
C7 C8 1_555 1_555
C8 C9 1_555 1_555
C9 C10 1_555 1_555
C10 C1 1_555 1_555
C11 C2 1_555 1_555
C12 C11 1_555 1_555
C13 C12 1_555 1_555
C14 O3 1_555 1_555
C15 S1 1_555 1_555
C16 O1 1_555 1_555
C17 C16 1_555 1_555
C18 C17 1_555 1_555
C19 C18 1_555 1_555
C20 C15 1_555 1_555
C21 O4 1_555 1_555
H1 C1 1_555 1_555
H2 C3 1_555 1_555
H3 C4 1_555 1_555
H4 C6 1_555 1_555
H5 C8 1_555 1_555
H6 C9 1_555 1_555
H7 C14 1_555 1_555
H8 C14 1_555 1_555
H9 C14 1_555 1_555
H10 C21 1_555 1_555
H11 C21 1_555 1_555
H12 C21 1_555 1_555
C5 C10 1_555 1_555
C15 C16 1_555 1_555
C19 C20 1_555 1_555

#END
