
#######################################################################
#
#                 Cambridge Crystallographic Data Centre
#                                CCDC 
#
#######################################################################
#
# If this CIF has been generated from an entry in the Cambridge 
# Structural Database, then it will include bibliographic, chemical, 
# crystal, experimental, refinement or atomic coordinate data resulting 
# from the CCDC's data processing and validation procedures.
#
#######################################################################

data_QAXTER
_chemical_formula_moiety         'C17 H29 N1 O2'
_chemical_name_systematic        
7-methoxy-1,5,5,8-tetramethyltricyclo[5.4.0.0^4,8^]undecane-9-carboxamide
_symmetry_cell_setting           orthorhombic
_symmetry_space_group_name_H-M   'P 21 21 21'
_symmetry_Int_Tables_number      19
_space_group_name_Hall           'P 2ac 2ab'
loop_
_symmetry_equiv_pos_site_id
_symmetry_equiv_pos_as_xyz
1 x,y,z
2 1/2+x,1/2-y,-z
3 -x,1/2+y,1/2-z
4 1/2-x,-y,1/2+z
_cell_length_a                   9.0528(18)
_cell_length_b                   9.5531(18)
_cell_length_c                   17.179(3)
_cell_angle_alpha                90
_cell_angle_beta                 90
_cell_angle_gamma                90
_cell_volume                     1485.68
_exptl_crystal_colour            colorless
_exptl_crystal_description       prism
_chemical_melting_point          '260.8-261.1 deg.C'
_cell_formula_units_Z            4
loop_
_atom_site_label
_atom_site_type_symbol
_atom_site_fract_x
_atom_site_fract_y
_atom_site_fract_z
O1 O 0.53779(8) 0.65223(8) 0.03928(5)
O2 O 0.00011(7) 0.52325(7) 0.13782(4)
N1 N 0.35632(9) 0.77807(9) -0.01902(5)
H1 H 0.2661(10) 0.7984(16) -0.0224(9)
H2 H 0.4122(14) 0.8098(15) -0.0556(7)
C1 C 0.23400(11) 0.16619(10) 0.01303(6)
H3 H 0.3277 0.1318 -0.0082
H4 H 0.1930 0.2377 -0.0217
H5 H 0.1642 0.0882 0.0175
C2 C 0.26104(10) 0.23061(9) 0.09436(5)
C3 C 0.35794(9) 0.36699(9) 0.09101(5)
H6 H 0.4232 0.3653 0.0440
C4 C 0.24297(9) 0.48808(9) 0.08419(5)
C5 C 0.29270(9) 0.64339(9) 0.09595(5)
H7 H 0.2028 0.7007 0.0848
C6 C 0.40695(10) 0.69028(9) 0.03579(6)
C7 C -0.13658(10) 0.47452(10) 0.16880(5)
H8 H -0.1394 0.3721 0.1664
H9 H -0.2184 0.5131 0.1382
H10 H -0.1459 0.5049 0.2231
C8 C 0.13379(9) 0.44225(9) 0.14942(5)
C9 C 0.16603(10) 0.48579(10) 0.00359(5)
H11 H 0.0920 0.4110 0.0026
H12 H 0.2398 0.4689 -0.0371
H13 H 0.1177 0.5761 -0.0057
C10 C 0.34185(10) 0.68773(10) 0.17783(6)
H14 H 0.4413 0.6496 0.1889
H15 H 0.3472 0.7911 0.1809
C11 C 0.23156(10) 0.63282(10) 0.23778(5)
H16 H 0.1364 0.6825 0.2311
H17 H 0.2689 0.6538 0.2907
C12 C 0.20500(10) 0.47417(9) 0.23061(5)
C13 C 0.10821(11) 0.42967(10) 0.29991(5)
H18 H 0.1671 0.4320 0.3478
H19 H 0.0714 0.3345 0.2913
H20 H 0.0245 0.4942 0.3048
C14 C 0.35446(10) 0.39542(10) 0.23877(5)
H21 H 0.4133 0.4429 0.2795
H22 H 0.3334 0.2995 0.2576
C15 C 0.45099(10) 0.38380(10) 0.16488(5)
H23 H 0.5128 0.4689 0.1601
H24 H 0.5179 0.3023 0.1701
C16 C 0.11498(9) 0.28300(9) 0.13394(5)
H25 H 0.0294 0.2663 0.0993
H26 H 0.0981 0.2325 0.1835
C17 C 0.33173(11) 0.10843(10) 0.13992(6)
H27 H 0.2660 0.0270 0.1382
H28 H 0.3473 0.1366 0.1941
H29 H 0.4268 0.0841 0.1163
loop_
_geom_bond_atom_site_label_1
_geom_bond_atom_site_label_2
_geom_bond_site_symmetry_1
_geom_bond_site_symmetry_2
O1 C6 1_555 1_555
O2 C7 1_555 1_555
N1 H1 1_555 1_555
H2 N1 1_555 1_555
C1 H3 1_555 1_555
H4 C1 1_555 1_555
H5 C1 1_555 1_555
C2 C1 1_555 1_555
C3 C2 1_555 1_555
H6 C3 1_555 1_555
C4 C3 1_555 1_555
C5 C4 1_555 1_555
H7 C5 1_555 1_555
C6 N1 1_555 1_555
C7 H8 1_555 1_555
H9 C7 1_555 1_555
H10 C7 1_555 1_555
C8 O2 1_555 1_555
C9 C4 1_555 1_555
H11 C9 1_555 1_555
H12 C9 1_555 1_555
H13 C9 1_555 1_555
C10 C5 1_555 1_555
H14 C10 1_555 1_555
H15 C10 1_555 1_555
C11 C10 1_555 1_555
H16 C11 1_555 1_555
H17 C11 1_555 1_555
C12 C8 1_555 1_555
C13 C12 1_555 1_555
H18 C13 1_555 1_555
H19 C13 1_555 1_555
H20 C13 1_555 1_555
C14 C12 1_555 1_555
H21 C14 1_555 1_555
H22 C14 1_555 1_555
C15 C3 1_555 1_555
H23 C15 1_555 1_555
H24 C15 1_555 1_555
C16 C2 1_555 1_555
H25 C16 1_555 1_555
H26 C16 1_555 1_555
C17 C2 1_555 1_555
H27 C17 1_555 1_555
H28 C17 1_555 1_555
H29 C17 1_555 1_555
C4 C8 1_555 1_555
C5 C6 1_555 1_555
C8 C16 1_555 1_555
C11 C12 1_555 1_555
C14 C15 1_555 1_555

#END
