
#######################################################################
#
#                 Cambridge Crystallographic Data Centre
#                                CCDC 
#
#######################################################################
#
# If this CIF has been generated from an entry in the Cambridge 
# Structural Database, then it will include bibliographic, chemical, 
# crystal, experimental, refinement or atomic coordinate data resulting 
# from the CCDC's data processing and validation procedures.
#
#######################################################################

data_QAXTAN
_chemical_formula_moiety         'C16 H25 N1 O1'
_chemical_name_systematic        
2,8,12,12-tetramethyl-3-azatricyclo[9.2.0.0^2,5^]tridec-8-en-4-one
_symmetry_cell_setting           orthorhombic
_symmetry_space_group_name_H-M   'P 21 21 21'
_symmetry_Int_Tables_number      19
_space_group_name_Hall           'P 2ac 2ab'
loop_
_symmetry_equiv_pos_site_id
_symmetry_equiv_pos_as_xyz
1 x,y,z
2 1/2-x,-y,1/2+z
3 -x,1/2+y,1/2-z
4 1/2+x,1/2-y,-z
_cell_length_a                   8.8646(5)
_cell_length_b                   12.1444(10)
_cell_length_c                   13.9207(8)
_cell_angle_alpha                90
_cell_angle_beta                 90
_cell_angle_gamma                90
_cell_volume                     1498.64
_exptl_crystal_colour            colorless
_exptl_crystal_description       needle
_chemical_melting_point          '185.4-185.8 deg.C'
_cell_formula_units_Z            4
loop_
_atom_site_label
_atom_site_type_symbol
_atom_site_fract_x
_atom_site_fract_y
_atom_site_fract_z
N1 N 0.0006(3) 0.7130(3) 0.08294(18)
H1 H -0.0865 0.7421 0.0732
O1 O 0.1735(3) 0.7814(3) -0.02910(17)
C1 C 0.1340(4) 0.7281(3) 0.0406(2)
C2 C 0.2158(4) 0.6552(3) 0.1131(2)
H2 H 0.2598 0.5905 0.0817
C3 C 0.0534(4) 0.6290(3) 0.1526(2)
C4 C 0.0182(4) 0.6586(3) 0.2559(2)
H3 H 0.0815 0.7209 0.2752
C5 C -0.1472(4) 0.6824(4) 0.2850(2)
H4 H -0.2210 0.6431 0.2466
H5 H -0.1712 0.7603 0.2884
C6 C -0.1166(4) 0.6290(4) 0.3843(3)
C7 C 0.0207(4) 0.5703(3) 0.3365(2)
H6 H -0.0156 0.5009 0.3088
C8 C 0.1655(5) 0.5457(4) 0.3911(3)
H7 H 0.2069 0.6138 0.4161
H8 H 0.1432 0.4979 0.4450
C9 C 0.2798(5) 0.4913(4) 0.3274(3)
H9 H 0.2824 0.4148 0.3291
C10 C 0.3769(4) 0.5393(3) 0.2693(3)
C11 C 0.3934(4) 0.6622(3) 0.2636(3)
H10 H 0.4995 0.6802 0.2702
H11 H 0.3411 0.6945 0.3180
C12 C 0.3342(4) 0.7168(4) 0.1715(2)
H12 H 0.2922 0.7878 0.1890
H13 H 0.4198 0.7308 0.1299
C13 C 0.0015(5) 0.5138(3) 0.1237(2)
H14 H -0.1046 0.5065 0.1359
H15 H 0.0557 0.4599 0.1605
H16 H 0.0208 0.5025 0.0566
C14 C -0.2397(5) 0.5551(4) 0.4247(4)
H17 H -0.3256 0.5989 0.4419
H18 H -0.2025 0.5176 0.4806
H19 H -0.2686 0.5019 0.3770
C15 C -0.0673(6) 0.7166(4) 0.4587(3)
H20 H -0.1517 0.7628 0.4743
H21 H 0.0122 0.7607 0.4321
H22 H -0.0319 0.6805 0.5158
C16 C 0.4807(5) 0.4734(4) 0.2041(3)
H23 H 0.4588 0.3964 0.2107
H24 H 0.5837 0.4868 0.2217
H25 H 0.4650 0.4954 0.1386
loop_
_geom_bond_atom_site_label_1
_geom_bond_atom_site_label_2
_geom_bond_site_symmetry_1
_geom_bond_site_symmetry_2
N1 H1 1_555 1_555
O1 C1 1_555 1_555
C1 N1 1_555 1_555
C2 C1 1_555 1_555
H2 C2 1_555 1_555
C3 N1 1_555 1_555
C4 C3 1_555 1_555
H3 C4 1_555 1_555
C5 C4 1_555 1_555
H4 C5 1_555 1_555
H5 C5 1_555 1_555
C6 C5 1_555 1_555
C7 C4 1_555 1_555
H6 C7 1_555 1_555
C8 C7 1_555 1_555
H7 C8 1_555 1_555
H8 C8 1_555 1_555
C9 C8 1_555 1_555
H9 C9 1_555 1_555
C10 C9 1_555 1_555
C11 C10 1_555 1_555
H10 C11 1_555 1_555
H11 C11 1_555 1_555
C12 C2 1_555 1_555
H12 C12 1_555 1_555
H13 C12 1_555 1_555
C13 C3 1_555 1_555
H14 C13 1_555 1_555
H15 C13 1_555 1_555
H16 C13 1_555 1_555
C14 C6 1_555 1_555
H17 C14 1_555 1_555
H18 C14 1_555 1_555
H19 C14 1_555 1_555
C15 C6 1_555 1_555
H20 C15 1_555 1_555
H21 C15 1_555 1_555
H22 C15 1_555 1_555
C16 C10 1_555 1_555
H23 C16 1_555 1_555
H24 C16 1_555 1_555
H25 C16 1_555 1_555
C2 C3 1_555 1_555
C6 C7 1_555 1_555
C11 C12 1_555 1_555

#END
