
#######################################################################
#
#                 Cambridge Crystallographic Data Centre
#                                CCDC 
#
#######################################################################
#
# If this CIF has been generated from an entry in the Cambridge 
# Structural Database, then it will include bibliographic, chemical, 
# crystal, experimental, refinement or atomic coordinate data resulting 
# from the CCDC's data processing and validation procedures.
#
#######################################################################

data_QAXWOE
_chemical_formula_moiety         'C16 H25 N1 O2'
_chemical_name_systematic        
2-(hydroxymethyl)-2,4a-dimethyl-8-methylenedecahydrocyclobuta[c]indene-7-carboxamide
_symmetry_cell_setting           monoclinic
_symmetry_space_group_name_H-M   'P 21'
_symmetry_Int_Tables_number      4
_space_group_name_Hall           'P 2yb'
loop_
_symmetry_equiv_pos_site_id
_symmetry_equiv_pos_as_xyz
1 x,y,z
2 -x,1/2+y,-z
_cell_length_a                   7.4010(4)
_cell_length_b                   8.9817(4)
_cell_length_c                   11.8039(6)
_cell_angle_alpha                90
_cell_angle_beta                 97.908(5)
_cell_angle_gamma                90
_cell_volume                     777.185
_exptl_crystal_colour            'light colorless'
_exptl_crystal_description       needle
_cell_formula_units_Z            2
_exptl_crystal_recrystallization_method methanol
loop_
_atom_site_label
_atom_site_type_symbol
_atom_site_fract_x
_atom_site_fract_y
_atom_site_fract_z
N1 N -0.0620(3) -0.2803(4) -0.5320(2)
H1 H 0.0053 -0.2524 -0.4704
H2 H -0.1673 -0.3192 -0.5284
O1 O 0.1443(3) -0.2089(4) -0.6409(2)
O2 O -0.6660(3) 0.0384(3) -0.5519(2)
H3 H -0.7208 -0.0358 -0.5786
C1 C -0.0035(3) -0.2633(4) -0.6325(3)
C2 C -0.1336(4) -0.3176(4) -0.7361(3)
H4 H -0.1533 -0.4243 -0.7258
C3 C -0.3191(3) -0.2418(3) -0.7465(2)
C4 C -0.3249(3) -0.0810(3) -0.78217(18)
C5 C -0.5111(4) -0.0021(3) -0.7820(2)
H5 H -0.5477 0.0573 -0.8499
H6 H -0.6083 -0.0690 -0.7678
C6 C -0.4338(4) 0.0911(3) -0.6766(2)
C7 C -0.2380(3) 0.0408(3) -0.69405(19)
H7 H -0.1674 -0.0013 -0.6251
C8 C -0.1273(4) 0.1458(4) -0.7605(2)
H8 H 0.0023 0.1264 -0.7419
H9 H -0.1507 0.2490 -0.7429
C9 C -0.1933(5) 0.1117(5) -0.8877(2)
H10 H -0.3027 0.1680 -0.9146
H11 H -0.0998 0.1366 -0.9346
C10 C -0.2325(4) -0.0545(4) -0.8922(2)
C11 C -0.0490(4) -0.1375(5) -0.8838(3)
H12 H -0.0062 -0.1329 -0.9578
H13 H 0.0392 -0.0854 -0.8296
C12 C -0.0535(5) -0.2984(4) -0.8480(3)
H14 H 0.0694 -0.3382 -0.8386
H15 H -0.1261 -0.3549 -0.9079
C13 C -0.4627(4) -0.3217(4) -0.7317(3)
H16 H -0.5783 -0.2791 -0.7434
H17 H -0.4488 -0.4209 -0.7095
C14 C -0.4792(4) 0.0257(4) -0.5645(2)
H18 H -0.4452 -0.0786 -0.5608
H19 H -0.4070 0.0762 -0.5012
C15 C -0.4774(6) 0.2570(4) -0.6827(3)
H20 H -0.6047 0.2715 -0.6781
H21 H -0.4490 0.2966 -0.7538
H22 H -0.4059 0.3073 -0.6202
C16 C -0.3568(5) -0.1004(6) -1.0015(2)
H23 H -0.4714 -0.0494 -1.0052
H24 H -0.3771 -0.2060 -1.0006
H25 H -0.2996 -0.0747 -1.0670
loop_
_geom_bond_atom_site_label_1
_geom_bond_atom_site_label_2
_geom_bond_site_symmetry_1
_geom_bond_site_symmetry_2
N1 H1 1_555 1_555
H2 N1 1_555 1_555
O1 C1 1_555 1_555
O2 H3 1_555 1_555
C1 N1 1_555 1_555
C2 C1 1_555 1_555
H4 C2 1_555 1_555
C3 C2 1_555 1_555
C4 C3 1_555 1_555
C5 C4 1_555 1_555
H5 C5 1_555 1_555
H6 C5 1_555 1_555
C6 C5 1_555 1_555
C7 C4 1_555 1_555
H7 C7 1_555 1_555
C8 C7 1_555 1_555
H8 C8 1_555 1_555
H9 C8 1_555 1_555
C9 C8 1_555 1_555
H10 C9 1_555 1_555
H11 C9 1_555 1_555
C10 C4 1_555 1_555
C11 C10 1_555 1_555
H12 C11 1_555 1_555
H13 C11 1_555 1_555
C12 C2 1_555 1_555
H14 C12 1_555 1_555
H15 C12 1_555 1_555
C13 C3 1_555 1_555
H16 C13 1_555 1_555
H17 C13 1_555 1_555
C14 O2 1_555 1_555
H18 C14 1_555 1_555
H19 C14 1_555 1_555
C15 C6 1_555 1_555
H20 C15 1_555 1_555
H21 C15 1_555 1_555
H22 C15 1_555 1_555
C16 C10 1_555 1_555
H23 C16 1_555 1_555
H24 C16 1_555 1_555
H25 C16 1_555 1_555
C6 C7 1_555 1_555
C6 C14 1_555 1_555
C9 C10 1_555 1_555
C11 C12 1_555 1_555

#END
