
#######################################################################
#
#                 Cambridge Crystallographic Data Centre
#                                CCDC 
#
#######################################################################
#
# If this CIF has been generated from an entry in the Cambridge 
# Structural Database, then it will include bibliographic, chemical, 
# crystal, experimental, refinement or atomic coordinate data resulting 
# from the CCDC's data processing and validation procedures.
#
#######################################################################

data_QAYXOD
_chemical_formula_moiety         'C30 H45 N3 O3,H4 N1 1+,F6 P1 1-,C2 H6 O1'
_chemical_name_systematic        
'Ammonium (2,4,6-trimethyl-1,3,5-tris(4-isopropyl-4,5-dihydro-1,3-oxazol-2-yl)benzene) hexfluorophosphate ethanol solvate'
_symmetry_cell_setting           tetragonal
_symmetry_space_group_name_H-M   'I 4'
_symmetry_Int_Tables_number      79
_space_group_name_Hall           'I 4'
loop_
_symmetry_equiv_pos_site_id
_symmetry_equiv_pos_as_xyz
1 x,y,z
2 -x,-y,z
3 -y,x,z
4 y,-x,z
5 1/2+x,1/2+y,1/2+z
6 1/2-x,1/2-y,1/2+z
7 1/2-y,1/2+x,1/2+z
8 1/2+y,1/2-x,1/2+z
_cell_length_a                   21.7947(2)
_cell_length_b                   21.7947(2)
_cell_length_c                   17.5167(3)
_cell_angle_alpha                90
_cell_angle_beta                 90
_cell_angle_gamma                90
_cell_volume                     8320.59
_chemical_melting_point          143-144deg.C
_cell_formula_units_Z            8
loop_
_atom_site_label
_atom_site_type_symbol
_atom_site_fract_x
_atom_site_fract_y
_atom_site_fract_z
P1 P 0.21033(7) 0.28989(7) 0.00290(9)
F1 F 0.1431(2) 0.2810(3) -0.0255(4)
F2 F 0.2223(3) 0.3399(2) -0.0616(3)
F3 F 0.2033(3) 0.24086(18) 0.0696(3)
F4 F 0.2809(2) 0.29884(19) 0.0311(3)
F5 F 0.1867(3) 0.34158(19) 0.0600(2)
F6 F 0.23414(16) 0.23726(16) -0.0528(2)
O1 O -0.0271(2) 0.2830(3) -0.2872(3)
O2 O 0.09606(16) 0.36457(16) -0.75077(18)
O3 O 0.2582(2) 0.51961(19) -0.3755(3)
N1 N 0.05948(19) 0.28698(19) -0.3583(3)
N2 N 0.12003(18) 0.33004(17) -0.6318(2)
N3 N 0.22474(17) 0.43125(18) -0.4274(3)
C1 C 0.02140(18) 0.4025(2) -0.4302(3)
C2 C 0.01566(17) 0.3939(2) -0.5106(3)
C3 C 0.05364(19) 0.4281(2) -0.5592(3)
C4 C 0.0976(2) 0.47002(18) -0.5302(3)
C5 C 0.1029(2) 0.47707(18) -0.4497(3)
C6 C 0.0656(2) 0.4428(2) -0.4000(3)
C7 C -0.0212(2) 0.3670(3) -0.3759(3)
H1 H -0.0340 0.3946 -0.3339
H2 H -0.0587 0.3549 -0.4041
C8 C 0.0077(2) 0.3104(2) -0.3420(3)
C9 C 0.0680(3) 0.2316(3) -0.3088(3)
H3 H 0.0709 0.1946 -0.3425
C10 C 0.0056(5) 0.2292(4) -0.2652(6)
H4 H -0.0177 0.1919 -0.2795
H5 H 0.0125 0.2288 -0.2094
C11 C 0.1271(6) 0.2361(5) -0.2618(9)
H6 H 0.1040 0.2567 -0.2197
C12 C 0.1350(7) 0.1776(5) -0.2110(8)
H7 H 0.1690 0.1839 -0.1752
H8 H 0.1439 0.1422 -0.2435
H9 H 0.0971 0.1702 -0.1824
C13 C 0.1654(8) 0.2766(9) -0.2601(12)
H10 H 0.1899 0.2728 -0.2134
H11 H 0.1449 0.3166 -0.2608
H12 H 0.1923 0.2730 -0.3047
C14 C -0.0283(2) 0.3465(3) -0.5425(3)
H13 H -0.0264 0.3471 -0.5984
H14 H -0.0702 0.3562 -0.5260
H15 H -0.0169 0.3057 -0.5239
C15 C 0.0494(2) 0.4187(2) -0.6447(3)
H16 H 0.0064 0.4086 -0.6583
H17 H 0.0603 0.4575 -0.6708
C16 C 0.0909(2) 0.3683(2) -0.6730(2)
C17 C 0.1498(2) 0.2856(2) -0.6865(3)
H18 H 0.1942 0.2807 -0.6735
C18 C 0.1432(3) 0.3172(3) -0.7645(3)
H19 H 0.1825 0.3359 -0.7807
H20 H 0.1296 0.2877 -0.8040
C19 C 0.1170(4) 0.2223(3) -0.6828(5)
H21 H 0.0761 0.2284 -0.7073
C20 C 0.1047(6) 0.1968(4) -0.6089(6)
H22 H 0.0858 0.1562 -0.6147
H23 H 0.0767 0.2239 -0.5810
H24 H 0.1432 0.1928 -0.5804
C21 C 0.1513(6) 0.1766(4) -0.7337(7)
H25 H 0.1316 0.1363 -0.7304
H26 H 0.1940 0.1734 -0.7167
H27 H 0.1503 0.1910 -0.7867
C22 C 0.1391(3) 0.5045(2) -0.5846(3)
H28 H 0.1668 0.5310 -0.5555
H29 H 0.1142 0.5296 -0.6191
H30 H 0.1633 0.4751 -0.6145
C23 C 0.1524(2) 0.5192(2) -0.4175(3)
H31 H 0.1584 0.5544 -0.4526
H32 H 0.1388 0.5356 -0.3676
C24 C 0.2123(2) 0.4859(2) -0.4076(3)
C25 C 0.3097(3) 0.4763(3) -0.3674(5)
H33 H 0.3157 0.4649 -0.3132
H34 H 0.3482 0.4946 -0.3869
C26 C 0.2920(2) 0.4211(3) -0.4140(4)
H35 H 0.2965 0.3840 -0.3810
C27 C 0.3235(3) 0.4075(4) -0.4915(7)
H36 H 0.3052 0.3692 -0.5134
C28 C 0.3924(4) 0.3952(9) -0.4740(8)
H37 H 0.4143 0.3871 -0.5218
H38 H 0.3960 0.3595 -0.4402
H39 H 0.4102 0.4312 -0.4490
C29 C 0.3188(5) 0.4554(6) -0.5473(7)
H40 H 0.3416 0.4437 -0.5932
H41 H 0.3359 0.4934 -0.5264
H42 H 0.2755 0.4619 -0.5605
C30 C 0.0746(3) 0.4477(3) -0.3144(3)
H43 H 0.0453 0.4208 -0.2884
H44 H 0.0679 0.4902 -0.2982
H45 H 0.1165 0.4352 -0.3013
N4 N 0.15287(16) 0.32393(16) -0.4721(2)
H46 H 0.1837(14) 0.2932(14) -0.471(2)
H47 H 0.1361(17) 0.3247(16) -0.5227(17)
H48 H 0.1716(15) 0.3625(13) -0.462(2)
H49 H 0.1220(16) 0.3156(17) -0.437(2)
O4 O -0.0435(7) 0.1630(8) -0.4813(11)
H50 H -0.0629 0.1906 -0.5046
C31 C -0.0841(8) 0.1302(8) -0.4346(11)
H51 H -0.1158 0.1100 -0.4664
H52 H -0.1049 0.1586 -0.3989
C32 C -0.0499(10) 0.0836(10) -0.3910(13)
H53 H -0.0785 0.0598 -0.3595
H54 H -0.0197 0.1038 -0.3581
H55 H -0.0287 0.0560 -0.4265
loop_
_geom_bond_atom_site_label_1
_geom_bond_atom_site_label_2
_geom_bond_site_symmetry_1
_geom_bond_site_symmetry_2
P1 F1 1_555 1_555
F2 P1 1_555 1_555
F3 P1 1_555 1_555
F4 P1 1_555 1_555
F5 P1 1_555 1_555
F6 P1 1_555 1_555
O1 C8 1_555 1_555
O2 C16 1_555 1_555
O3 C24 1_555 1_555
N1 C8 1_555 1_555
N2 C16 1_555 1_555
N3 C24 1_555 1_555
N4 H46 1_555 1_555
C1 C2 1_555 1_555
C2 C3 1_555 1_555
C3 C4 1_555 1_555
C4 C5 1_555 1_555
C5 C6 1_555 1_555
C6 C1 1_555 1_555
C7 C1 1_555 1_555
H1 C7 1_555 1_555
H2 C7 1_555 1_555
C8 C7 1_555 1_555
C9 N1 1_555 1_555
H3 C9 1_555 1_555
C10 O1 1_555 1_555
H4 C10 1_555 1_555
H5 C10 1_555 1_555
C11 C9 1_555 1_555
H6 C11 1_555 1_555
C12 C11 1_555 1_555
H7 C12 1_555 1_555
H8 C12 1_555 1_555
H9 C12 1_555 1_555
C13 C11 1_555 1_555
H10 C13 1_555 1_555
H11 C13 1_555 1_555
H12 C13 1_555 1_555
C14 C2 1_555 1_555
H13 C14 1_555 1_555
H14 C14 1_555 1_555
H15 C14 1_555 1_555
C15 C3 1_555 1_555
H16 C15 1_555 1_555
H17 C15 1_555 1_555
C16 C15 1_555 1_555
C17 N2 1_555 1_555
H18 C17 1_555 1_555
C18 O2 1_555 1_555
H19 C18 1_555 1_555
H20 C18 1_555 1_555
C19 C17 1_555 1_555
H21 C19 1_555 1_555
C20 C19 1_555 1_555
H22 C20 1_555 1_555
H23 C20 1_555 1_555
H24 C20 1_555 1_555
C21 C19 1_555 1_555
H25 C21 1_555 1_555
H26 C21 1_555 1_555
H27 C21 1_555 1_555
C22 C4 1_555 1_555
H28 C22 1_555 1_555
H29 C22 1_555 1_555
H30 C22 1_555 1_555
C23 C5 1_555 1_555
H31 C23 1_555 1_555
H32 C23 1_555 1_555
C24 C23 1_555 1_555
C25 O3 1_555 1_555
H33 C25 1_555 1_555
H34 C25 1_555 1_555
C26 N3 1_555 1_555
H35 C26 1_555 1_555
C27 C26 1_555 1_555
H36 C27 1_555 1_555
C28 C27 1_555 1_555
H37 C28 1_555 1_555
H38 C28 1_555 1_555
H39 C28 1_555 1_555
C29 C27 1_555 1_555
H40 C29 1_555 1_555
H41 C29 1_555 1_555
H42 C29 1_555 1_555
C30 C6 1_555 1_555
H43 C30 1_555 1_555
H44 C30 1_555 1_555
H45 C30 1_555 1_555
H47 N4 1_555 1_555
H48 N4 1_555 1_555
H49 N4 1_555 1_555
O4 H50 1_555 1_555
C31 O4 1_555 1_555
H51 C31 1_555 1_555
H52 C31 1_555 1_555
C32 C31 1_555 1_555
H53 C32 1_555 1_555
H54 C32 1_555 1_555
H55 C32 1_555 1_555
C9 C10 1_555 1_555
C17 C18 1_555 1_555
C25 C26 1_555 1_555

#END
