
#######################################################################
#
#                 Cambridge Crystallographic Data Centre
#                                CCDC 
#
#######################################################################
#
# If this CIF has been generated from an entry in the Cambridge 
# Structural Database, then it will include bibliographic, chemical, 
# crystal, experimental, refinement or atomic coordinate data resulting 
# from the CCDC's data processing and validation procedures.
#
#######################################################################

data_QAZPAL
_chemical_formula_moiety         'C31 H22 Br1 Cl1 N2 O4 S1'
_chemical_name_systematic        
"[2-bromo-6-(4-methylphenyl)-6a-nitro-6a,6b,13,13a-tetrahydro-6H-[1]benzopyrano[3',4':3,4]pyrrolo[2,1-b][1,3]benzothiazol-13-yl](4-chlorophenyl)methanone"
_symmetry_cell_setting           monoclinic
_symmetry_space_group_name_H-M   'P 21/c'
_symmetry_Int_Tables_number      14
_space_group_name_Hall           '-P 2ybc'
loop_
_symmetry_equiv_pos_site_id
_symmetry_equiv_pos_as_xyz
1 x,y,z
2 -x,1/2+y,1/2-z
3 -x,-y,-z
4 x,1/2-y,1/2+z
_cell_length_a                   11.5910(12)
_cell_length_b                   13.1205(13)
_cell_length_c                   20.4645(18)
_cell_angle_alpha                90
_cell_angle_beta                 118.012(5)
_cell_angle_gamma                90
_cell_volume                     2747.63
_exptl_crystal_colour            yellow
_exptl_crystal_description       block
_cell_formula_units_Z            4
loop_
_atom_site_label
_atom_site_type_symbol
_atom_site_fract_x
_atom_site_fract_y
_atom_site_fract_z
Br1 Br 0.23285(3) 1.13684(2) 0.36100(2)
Cl1 Cl 0.52717(10) 1.39338(6) 0.55132(7)
S1 S 0.54226(5) 0.65383(4) 0.67584(3)
O1 O 0.28690(13) 1.00447(11) 0.65768(8)
O2 O 0.21842(18) 0.67782(13) 0.47523(9)
O3 O 0.28231(17) 0.57946(12) 0.57038(9)
O4 O 0.07510(13) 0.82345(11) 0.51773(8)
N1 N 0.45558(15) 0.83411(12) 0.69789(8)
N2 N 0.26572(16) 0.66328(13) 0.54156(10)
C1 C 0.5464(2) 1.11794(16) 0.63615(13)
H1 H 0.6100 1.0689 0.6609
C2 C 0.5805(2) 1.20894(18) 0.61594(15)
H2 H 0.6672 1.2220 0.6281
C3 C 0.4855(3) 1.27991(17) 0.57782(15)
C4 C 0.3570(2) 1.26263(18) 0.55967(14)
H3 H 0.2934 1.3109 0.5329
C5 C 0.3236(2) 1.17317(17) 0.58154(13)
H4 H 0.2372 1.1620 0.5707
C6 C 0.41751(19) 1.09921(14) 0.61968(11)
C7 C 0.37475(18) 1.00393(14) 0.64095(10)
C8 C 0.43768(17) 0.90324(14) 0.63661(10)
H5 H 0.5231 0.9174 0.6396
C9 C 0.59043(18) 0.82484(15) 0.75150(10)
C10 C 0.6608(2) 0.90036(17) 0.80132(12)
H6 H 0.6196 0.9591 0.8053
C11 C 0.7938(2) 0.88677(19) 0.84524(13)
H7 H 0.8428 0.9368 0.8791
C12 C 0.8539(2) 0.7996(2) 0.83910(13)
H8 H 0.9436 0.7920 0.8686
C13 C 0.7840(2) 0.72303(18) 0.78996(12)
H9 H 0.8254 0.6640 0.7867
C14 C 0.65049(19) 0.73644(15) 0.74560(11)
C15 C 0.40432(18) 0.73351(14) 0.66911(10)
H10 H 0.3664 0.7028 0.6983
C16 C 0.1224(2) 0.70759(18) 0.68632(12)
H11 H 0.1827 0.7519 0.7210
C17 C 0.0571(3) 0.6381(2) 0.70789(13)
H12 H 0.0756 0.6354 0.7573
C18 C -0.0354(2) 0.57238(18) 0.65735(13)
C19 C -0.1079(3) 0.4974(3) 0.68023(18)
H13 H -0.0543 0.4385 0.7018
H14 H -0.1872 0.4773 0.6376
H15 H -0.1287 0.5286 0.7159
C20 C -0.0588(2) 0.57784(17) 0.58465(12)
H16 H -0.1204 0.5345 0.5497
C21 C 0.0067(2) 0.64582(16) 0.56269(11)
H17 H -0.0110 0.6475 0.5134
C22 C 0.09865(19) 0.71177(15) 0.61325(11)
C23 C 0.16776(18) 0.78965(15) 0.59029(11)
H18 H 0.1886 0.8479 0.6239
C24 C 0.29677(18) 0.75531(14) 0.59058(10)
C25 C 0.35209(17) 0.84275(14) 0.56386(10)
H19 H 0.4098 0.8137 0.5458
C26 C 0.24824(18) 0.90500(15) 0.50245(10)
C27 C 0.2813(2) 0.97673(16) 0.46406(11)
H20 H 0.3682 0.9851 0.4750
C28 C 0.1859(2) 1.03553(16) 0.40982(11)
C29 C 0.0559(2) 1.02314(17) 0.39154(11)
H21 H -0.0079 1.0629 0.3546
C30 C 0.02176(19) 0.95169(17) 0.42833(11)
H22 H -0.0657 0.9421 0.4158
C31 C 0.11760(18) 0.89379(15) 0.48417(10)
loop_
_geom_bond_atom_site_label_1
_geom_bond_atom_site_label_2
_geom_bond_site_symmetry_1
_geom_bond_site_symmetry_2
Br1 C28 1_555 1_555
Cl1 C3 1_555 1_555
S1 C14 1_555 1_555
O1 C7 1_555 1_555
O2 N2 1_555 1_555
O3 N2 1_555 1_555
O4 C23 1_555 1_555
N1 C8 1_555 1_555
N2 C24 1_555 1_555
C1 H1 1_555 1_555
C2 C1 1_555 1_555
H2 C2 1_555 1_555
C3 C2 1_555 1_555
C4 C3 1_555 1_555
H3 C4 1_555 1_555
C5 C4 1_555 1_555
H4 C5 1_555 1_555
C6 C1 1_555 1_555
C7 C6 1_555 1_555
C8 C7 1_555 1_555
H5 C8 1_555 1_555
C9 N1 1_555 1_555
C10 C9 1_555 1_555
H6 C10 1_555 1_555
C11 C10 1_555 1_555
H7 C11 1_555 1_555
C12 C11 1_555 1_555
H8 C12 1_555 1_555
C13 C12 1_555 1_555
H9 C13 1_555 1_555
C14 C9 1_555 1_555
C15 S1 1_555 1_555
H10 C15 1_555 1_555
C16 H11 1_555 1_555
C17 C16 1_555 1_555
H12 C17 1_555 1_555
C18 C17 1_555 1_555
C19 C18 1_555 1_555
H13 C19 1_555 1_555
H14 C19 1_555 1_555
H15 C19 1_555 1_555
C20 C18 1_555 1_555
H16 C20 1_555 1_555
C21 C20 1_555 1_555
H17 C21 1_555 1_555
C22 C16 1_555 1_555
C23 C22 1_555 1_555
H18 C23 1_555 1_555
C24 C15 1_555 1_555
C25 C8 1_555 1_555
H19 C25 1_555 1_555
C26 C25 1_555 1_555
C27 C26 1_555 1_555
H20 C27 1_555 1_555
C28 C27 1_555 1_555
C29 C28 1_555 1_555
H21 C29 1_555 1_555
C30 C29 1_555 1_555
H22 C30 1_555 1_555
C31 O4 1_555 1_555
N1 C15 1_555 1_555
C5 C6 1_555 1_555
C13 C14 1_555 1_555
C21 C22 1_555 1_555
C23 C24 1_555 1_555
C24 C25 1_555 1_555
C26 C31 1_555 1_555
C30 C31 1_555 1_555

#END
