
#######################################################################
#
#                 Cambridge Crystallographic Data Centre
#                                CCDC 
#
#######################################################################
#
# If this CIF has been generated from an entry in the Cambridge 
# Structural Database, then it will include bibliographic, chemical, 
# crystal, experimental, refinement or atomic coordinate data resulting 
# from the CCDC's data processing and validation procedures.
#
#######################################################################

data_QAZRUG
_chemical_formula_moiety         'C27 H34 N3 1+,C2 H6 O1,Cl1 1-'
_chemical_name_systematic        
'N-Methyl-N-((methyl(1-phenylethyl)amino)((1-phenylethyl)amino)methylene)-1-phenylethanaminium chloride ethanol solvate'
_symmetry_cell_setting           orthorhombic
_symmetry_space_group_name_H-M   'P 21 21 21'
_symmetry_Int_Tables_number      19
_space_group_name_Hall           'P 2ac 2ab'
loop_
_symmetry_equiv_pos_site_id
_symmetry_equiv_pos_as_xyz
1 x,y,z
2 1/2-x,-y,1/2+z
3 -x,1/2+y,1/2-z
4 1/2+x,1/2-y,-z
_cell_length_a                   9.6977(14)
_cell_length_b                   16.493(3)
_cell_length_c                   17.866(2)
_cell_angle_alpha                90
_cell_angle_beta                 90
_cell_angle_gamma                90
_cell_volume                     2857.56
_exptl_crystal_colour            colorless
_exptl_crystal_description       block
_cell_formula_units_Z            4
loop_
_atom_site_label
_atom_site_type_symbol
_atom_site_fract_x
_atom_site_fract_y
_atom_site_fract_z
Cl1 Cl 0.20994(16) 0.61168(11) 1.01942(8)
N1 N 0.3111(4) 0.7177(3) 0.8802(3)
H1 H 0.281(6) 0.689(3) 0.917(3)
C1 C 0.2402(5) 0.7796(3) 0.8524(3)
N2 N 0.3055(4) 0.8417(3) 0.8180(2)
C2 C 0.4463(6) 0.8642(4) 0.8400(3)
H2 H 0.4666 0.8416 0.8882
H3 H 0.4539 0.9222 0.8422
H4 H 0.5105 0.8435 0.8038
N3 N 0.1025(4) 0.7830(3) 0.8645(2)
C3 C 0.0341(6) 0.8617(3) 0.8744(4)
H5 H 0.1009 0.9014 0.8895
H6 H -0.0358 0.8570 0.9122
H7 H -0.0074 0.8780 0.8281
C4 C 0.4262(5) 0.6769(3) 0.8410(3)
H8 H 0.4716 0.7164 0.8083
C5 C 0.2466(6) 0.8816(3) 0.7503(3)
H9 H 0.1514 0.8624 0.7454
C6 C 0.0147(5) 0.7088(3) 0.8611(3)
H10 H 0.0768 0.6620 0.8617
C7 C 0.5310(6) 0.6472(4) 0.8992(4)
H11 H 0.5654 0.6927 0.9271
H12 H 0.6060 0.6206 0.8742
H13 H 0.4869 0.6098 0.9327
C8 C 0.2402(8) 0.9736(4) 0.7586(4)
H14 H 0.1938 0.9872 0.8044
H15 H 0.1906 0.9962 0.7170
H16 H 0.3320 0.9952 0.7595
C9 C -0.0783(6) 0.7020(4) 0.9296(3)
H17 H -0.0229 0.7027 0.9741
H18 H -0.1291 0.6521 0.9273
H19 H -0.1414 0.7468 0.9305
C10 C 0.3713(5) 0.6080(3) 0.7933(3)
C11 C 0.2915(6) 0.5459(3) 0.8232(3)
H20 H 0.2724 0.5452 0.8742
C12 C 0.2410(7) 0.4859(4) 0.7780(4)
H21 H 0.1891 0.4441 0.7986
C13 C 0.2665(7) 0.4871(4) 0.7025(4)
H22 H 0.2300 0.4468 0.6719
C14 C 0.3452(7) 0.5471(4) 0.6725(4)
H23 H 0.3635 0.5474 0.6214
C15 C 0.3980(6) 0.6076(4) 0.7174(3)
H24 H 0.4519 0.6483 0.6964
C16 C 0.3230(6) 0.8544(4) 0.6807(3)
C17 C 0.2777(8) 0.7867(4) 0.6416(3)
H25 H 0.2007 0.7586 0.6584
C18 C 0.3456(10) 0.7609(5) 0.5783(4)
H26 H 0.3141 0.7155 0.5526
C19 C 0.4603(9) 0.8021(6) 0.5528(4)
H27 H 0.5074 0.7840 0.5106
C20 C 0.5035(8) 0.8692(6) 0.5897(4)
H28 H 0.5790 0.8981 0.5718
C21 C 0.4369(7) 0.8949(4) 0.6530(4)
H29 H 0.4690 0.9406 0.6779
C22 C -0.0611(5) 0.7074(3) 0.7866(3)
C23 C -0.0089(7) 0.6625(4) 0.7280(4)
H30 H 0.0715 0.6327 0.7351
C24 C -0.0730(8) 0.6606(5) 0.6591(4)
H31 H -0.0369 0.6298 0.6202
C25 C -0.1918(9) 0.7053(5) 0.6493(4)
H32 H -0.2350 0.7059 0.6029
C26 C -0.2457(8) 0.7480(4) 0.7066(4)
H33 H -0.3266 0.7771 0.6991
C27 C -0.1838(6) 0.7494(4) 0.7753(4)
H34 H -0.2236 0.7783 0.8144
C28 C 0.0108(15) 0.9404(10) 0.5600(8)
H35 H 0.0135 0.9851 0.5952
H36 H 0.0330 0.8913 0.5873
C29 C 0.1130(14) 0.9532(9) 0.5040(7)
H37 H 0.1119 0.9089 0.4692
H38 H 0.2022 0.9566 0.5271
H39 H 0.0940 1.0029 0.4779
O1 O -0.1283(10) 0.9334(4) 0.5304(5)
H40 H -0.1474 0.9743 0.5065
loop_
_geom_bond_atom_site_label_1
_geom_bond_atom_site_label_2
_geom_bond_site_symmetry_1
_geom_bond_site_symmetry_2
N1 H1 1_555 1_555
C1 N1 1_555 1_555
N2 C1 1_555 1_555
C2 N2 1_555 1_555
H2 C2 1_555 1_555
H3 C2 1_555 1_555
H4 C2 1_555 1_555
N3 C1 1_555 1_555
C3 N3 1_555 1_555
H5 C3 1_555 1_555
H6 C3 1_555 1_555
H7 C3 1_555 1_555
C4 N1 1_555 1_555
H8 C4 1_555 1_555
C5 N2 1_555 1_555
H9 C5 1_555 1_555
C6 N3 1_555 1_555
H10 C6 1_555 1_555
C7 C4 1_555 1_555
H11 C7 1_555 1_555
H12 C7 1_555 1_555
H13 C7 1_555 1_555
C8 C5 1_555 1_555
H14 C8 1_555 1_555
H15 C8 1_555 1_555
H16 C8 1_555 1_555
C9 C6 1_555 1_555
H17 C9 1_555 1_555
H18 C9 1_555 1_555
H19 C9 1_555 1_555
C10 C4 1_555 1_555
C11 C10 1_555 1_555
H20 C11 1_555 1_555
C12 C11 1_555 1_555
H21 C12 1_555 1_555
C13 C12 1_555 1_555
H22 C13 1_555 1_555
C14 C13 1_555 1_555
H23 C14 1_555 1_555
C15 C10 1_555 1_555
H24 C15 1_555 1_555
C16 C5 1_555 1_555
C17 C16 1_555 1_555
H25 C17 1_555 1_555
C18 C17 1_555 1_555
H26 C18 1_555 1_555
C19 C18 1_555 1_555
H27 C19 1_555 1_555
C20 C19 1_555 1_555
H28 C20 1_555 1_555
C21 C16 1_555 1_555
H29 C21 1_555 1_555
C22 C6 1_555 1_555
C23 C22 1_555 1_555
H30 C23 1_555 1_555
C24 C23 1_555 1_555
H31 C24 1_555 1_555
C25 C24 1_555 1_555
H32 C25 1_555 1_555
C26 C25 1_555 1_555
H33 C26 1_555 1_555
C27 C22 1_555 1_555
H34 C27 1_555 1_555
C28 H35 1_555 1_555
H36 C28 1_555 1_555
C29 C28 1_555 1_555
H37 C29 1_555 1_555
H38 C29 1_555 1_555
H39 C29 1_555 1_555
O1 C28 1_555 1_555
H40 O1 1_555 1_555
C14 C15 1_555 1_555
C20 C21 1_555 1_555
C26 C27 1_555 1_555

#END
