
#######################################################################
#
#                 Cambridge Crystallographic Data Centre
#                                CCDC 
#
#######################################################################
#
# If this CIF has been generated from an entry in the Cambridge 
# Structural Database, then it will include bibliographic, chemical, 
# crystal, experimental, refinement or atomic coordinate data resulting 
# from the CCDC's data processing and validation procedures.
#
#######################################################################

data_QEBVIC
_chemical_formula_moiety         'C49 H33 N3 Se2,C1 H1 Cl3'
_chemical_name_systematic        
'5,10,15,20-tetraphenyl-27-methyl-25,29-diselenasapphyrin chloroform solvate'
_symmetry_cell_setting           monoclinic
_symmetry_space_group_name_H-M   'P 21/c'
_symmetry_Int_Tables_number      14
_space_group_name_Hall           '-P 2ybc'
loop_
_symmetry_equiv_pos_site_id
_symmetry_equiv_pos_as_xyz
1 x,y,z
2 x,1/2-y,1/2+z
3 -x,-y,-z
4 -x,1/2+y,1/2-z
_cell_length_a                   17.1534(3)
_cell_length_b                   9.8246(3)
_cell_length_c                   25.0922(6)
_cell_angle_alpha                90
_cell_angle_beta                 106.151(1)
_cell_angle_gamma                90
_cell_volume                     4061.77
_exptl_crystal_colour            green
_exptl_crystal_description       cubic
_chemical_melting_point          'decomposes above 350deg.C'
_cell_formula_units_Z            4
loop_
_atom_site_label
_atom_site_type_symbol
_atom_site_fract_x
_atom_site_fract_y
_atom_site_fract_z
Se1 Se 0.80489(2) -0.03310(5) 0.04629(2)
Se2 Se 0.84784(3) 0.13514(5) -0.04430(2)
N1 N 0.7630(2) 0.1967(4) -0.1421(2)
N2 N 0.5806(2) -0.0357(4) -0.1143(1)
N3 N 0.6720(2) -0.1605(4) 0.0455(1)
C1 C 0.8305(2) -0.1162(5) 0.1167(2)
C2 C 0.9132(3) -0.0872(5) 0.1450(2)
C3 C 0.9555(3) -0.0069(5) 0.1178(2)
C4 C 0.9131(3) 0.0358(5) 0.0643(2)
C5 C 0.9318(2) 0.1145(5) 0.0227(2)
C6 C 1.0025(3) 0.1850(5) 0.0197(2)
C7 C 0.9952(3) 0.2513(5) -0.0299(2)
C8 C 0.9188(3) 0.2448(5) -0.0709(2)
C9 C 0.8944(2) 0.3012(5) -0.1240(2)
C10 C 0.8148(3) 0.2763(5) -0.1596(2)
C11 C 0.7764(3) 0.3254(5) -0.2151(2)
C12 C 0.7003(3) 0.2715(5) -0.2306(2)
C13 C 0.6918(2) 0.1914(5) -0.1844(2)
C14 C 0.6241(2) 0.1210(4) -0.1785(2)
C15 C 0.6203(2) 0.0794(5) -0.1249(2)
C16 C 0.6504(2) 0.1482(4) -0.0739(2)
C17 C 0.6314(2) 0.0728(5) -0.0330(2)
C18 C 0.5877(2) -0.0433(4) -0.0577(2)
C19 C 0.5506(2) -0.1456(4) -0.0318(2)
C20 C 0.5909(2) -0.1857(4) 0.0226(2)
C21 C 0.5584(2) -0.2517(5) 0.0634(2)
C22 C 0.6209(2) -0.2653(5) 0.1104(2)
C23 C 0.6924(2) -0.2069(4) 0.0981(2)
C24 C 0.7725(2) -0.1908(4) 0.1341(2)
C25 C 0.9506(2) 0.3933(5) -0.1434(2)
C26 C 0.9679(3) 0.3678(5) -0.1940(2)
C27 C 1.0187(3) 0.4533(6) -0.2125(2)
C28 C 1.0534(3) 0.5659(7) -0.1809(3)
C29 C 1.0372(3) 0.5926(6) -0.1308(3)
C30 C 0.9862(3) 0.5047(5) -0.1121(2)
C31 C 0.5527(3) 0.0913(5) -0.2265(2)
C32 C 0.5608(3) 0.0376(6) -0.2762(2)
C33 C 0.4917(3) -0.0012(6) -0.3179(2)
C34 C 0.4153(3) 0.0160(6) -0.3109(2)
C35 C 0.4071(3) 0.0763(6) -0.2626(2)
C36 C 0.4749(3) 0.1125(5) -0.2206(2)
C37 C 0.5600(3) -0.1530(5) -0.1521(2)
C38 C 0.4695(2) -0.1974(5) -0.0615(2)
C39 C 0.4451(3) -0.3304(5) -0.0550(2)
C40 C 0.3668(3) -0.3731(5) -0.0806(2)
C41 C 0.3113(3) -0.2838(5) -0.1140(2)
C42 C 0.3345(3) -0.1537(5) -0.1221(2)
C43 C 0.4134(3) -0.1095(5) -0.0967(2)
C44 C 0.7914(2) -0.2523(5) 0.1904(2)
C45 C 0.7744(3) -0.3882(5) 0.1977(2)
C46 C 0.7884(3) -0.4452(6) 0.2501(2)
C47 C 0.8201(3) -0.3659(7) 0.2965(2)
C48 C 0.8396(3) -0.2314(7) 0.2904(2)
C49 C 0.8256(3) -0.1737(5) 0.2377(2)
H1 H 0.9379 -0.1218 0.1811
H2 H 1.0104 0.0183 0.1344
H3 H 1.0510 0.1865 0.0494
H4 H 1.0395 0.2996 -0.0365
H5 H 0.7998 0.3841 -0.2365
H6 H 0.6606 0.2841 -0.2652
H7 H 0.6790 0.2322 -0.0687
H8 H 0.6453 0.0951 0.0054
H9 H 0.5039 -0.2801 0.0583
H10 H 0.6185 -0.3048 0.1445
H11 H 0.9444 0.2912 -0.2157
H12 H 1.0301 0.4354 -0.2468
H13 H 1.0883 0.6246 -0.1938
H14 H 1.0603 0.6698 -0.1095
H15 H 0.9760 0.5216 -0.0774
H16 H 0.6131 0.0273 -0.2817
H17 H 0.4974 -0.0398 -0.3514
H18 H 0.3687 -0.0130 -0.3389
H19 H 0.3545 0.0926 -0.2584
H20 H 0.4686 0.1520 -0.1875
H21 H 0.5326 -0.2196 -0.1366
H22 H 0.5257 -0.1240 -0.1869
H23 H 0.6083 -0.1910 -0.1573
H24 H 0.4828 -0.3924 -0.0326
H25 H 0.3509 -0.4636 -0.0753
H26 H 0.2574 -0.3130 -0.1313
H27 H 0.2966 -0.0932 -0.1451
H28 H 0.4293 -0.0197 -0.1032
H29 H 0.7528 -0.4435 0.1659
H30 H 0.7761 -0.5383 0.2541
H31 H 0.8286 -0.4037 0.3325
H32 H 0.8627 -0.1776 0.3224
H33 H 0.8394 -0.0812 0.2339
Cl1 Cl 0.65359(8) -0.4674(2) -0.04332(6)
Cl2 Cl 0.8156(1) -0.4624(3) 0.0280(1)
Cl3 Cl 0.7795(2) -0.3453(4) -0.08223(10)
C50 C 0.7457(3) -0.3768(6) -0.0255(2)
H34 H 0.7354 -0.2912 -0.0112
loop_
_geom_bond_atom_site_label_1
_geom_bond_atom_site_label_2
_geom_bond_site_symmetry_1
_geom_bond_site_symmetry_2
Se1 C1 1_555 1_555
Se2 C5 1_555 1_555
Cl1 C50 1_555 1_555
Cl2 C50 1_555 1_555
Cl3 C50 1_555 1_555
N1 C10 1_555 1_555
N2 C15 1_555 1_555
N3 C20 1_555 1_555
C1 C2 1_555 1_555
C2 C3 1_555 1_555
C3 C4 1_555 1_555
C4 Se1 1_555 1_555
C5 C4 1_555 1_555
C6 C5 1_555 1_555
C7 C6 1_555 1_555
C8 Se2 1_555 1_555
C9 C8 1_555 1_555
C10 C9 1_555 1_555
C11 C10 1_555 1_555
C12 C11 1_555 1_555
C13 N1 1_555 1_555
C14 C13 1_555 1_555
C15 C14 1_555 1_555
C16 C15 1_555 1_555
C17 C16 1_555 1_555
C18 N2 1_555 1_555
C19 C18 1_555 1_555
C20 C19 1_555 1_555
C21 C20 1_555 1_555
C22 C21 1_555 1_555
C23 N3 1_555 1_555
C24 C1 1_555 1_555
C25 C9 1_555 1_555
C26 C25 1_555 1_555
C27 C26 1_555 1_555
C28 C27 1_555 1_555
C29 C28 1_555 1_555
C30 C25 1_555 1_555
C31 C14 1_555 1_555
C32 C31 1_555 1_555
C33 C32 1_555 1_555
C34 C33 1_555 1_555
C35 C34 1_555 1_555
C36 C31 1_555 1_555
C37 N2 1_555 1_555
C38 C19 1_555 1_555
C39 C38 1_555 1_555
C40 C39 1_555 1_555
C41 C40 1_555 1_555
C42 C41 1_555 1_555
C43 C38 1_555 1_555
C44 C24 1_555 1_555
C45 C44 1_555 1_555
C46 C45 1_555 1_555
C47 C46 1_555 1_555
C48 C47 1_555 1_555
C49 C44 1_555 1_555
C50 H34 1_555 1_555
H1 C2 1_555 1_555
H2 C3 1_555 1_555
H3 C6 1_555 1_555
H4 C7 1_555 1_555
H5 C11 1_555 1_555
H6 C12 1_555 1_555
H7 C16 1_555 1_555
H8 C17 1_555 1_555
H9 C21 1_555 1_555
H10 C22 1_555 1_555
H11 C26 1_555 1_555
H12 C27 1_555 1_555
H13 C28 1_555 1_555
H14 C29 1_555 1_555
H15 C30 1_555 1_555
H16 C32 1_555 1_555
H17 C33 1_555 1_555
H18 C34 1_555 1_555
H19 C35 1_555 1_555
H20 C36 1_555 1_555
H21 C37 1_555 1_555
H22 C37 1_555 1_555
H23 C37 1_555 1_555
H24 C39 1_555 1_555
H25 C40 1_555 1_555
H26 C41 1_555 1_555
H27 C42 1_555 1_555
H28 C43 1_555 1_555
H29 C45 1_555 1_555
H30 C46 1_555 1_555
H31 C47 1_555 1_555
H32 C48 1_555 1_555
H33 C49 1_555 1_555
C7 C8 1_555 1_555
C12 C13 1_555 1_555
C17 C18 1_555 1_555
C22 C23 1_555 1_555
C23 C24 1_555 1_555
C29 C30 1_555 1_555
C35 C36 1_555 1_555
C42 C43 1_555 1_555
C48 C49 1_555 1_555

#END
