
#######################################################################
#
#                 Cambridge Crystallographic Data Centre
#                                CCDC 
#
#######################################################################
#
# If this CIF has been generated from an entry in the Cambridge 
# Structural Database, then it will include bibliographic, chemical, 
# crystal, experimental, refinement or atomic coordinate data resulting 
# from the CCDC's data processing and validation procedures.
#
#######################################################################

data_QECPIA
_chemical_formula_moiety         'C4 H2 Cl1 N9 O4'
_chemical_name_systematic        
3-azido-6-[chloro(dinitro)methyl]-1,2,4-triazin-5-amine
_symmetry_cell_setting           monoclinic
_symmetry_space_group_name_H-M   'P 21/c'
_symmetry_Int_Tables_number      14
_space_group_name_Hall           '-P 2ybc'
loop_
_symmetry_equiv_pos_site_id
_symmetry_equiv_pos_as_xyz
1 x,y,z
2 -x,1/2+y,1/2-z
3 -x,-y,-z
4 x,1/2-y,1/2+z
_cell_length_a                   6.8837(5)
_cell_length_b                   14.8692(11)
_cell_length_c                   10.1958(7)
_cell_angle_alpha                90
_cell_angle_beta                 107.144(2)
_cell_angle_gamma                90
_cell_volume                     997.222
_exptl_crystal_description       plate
_cell_formula_units_Z            4
loop_
_atom_site_label
_atom_site_type_symbol
_atom_site_fract_x
_atom_site_fract_y
_atom_site_fract_z
C1 C 0.3945(3) 0.57114(14) 0.8709(2)
C2 C 0.0623(3) 0.53472(13) 0.8208(2)
C3 C 0.1078(3) 0.46312(13) 0.7409(2)
C4 C -0.0470(3) 0.39585(14) 0.6638(2)
Cl1 Cl -0.26355(9) 0.44212(4) 0.55074(6)
N1 N 0.2919(3) 0.45120(11) 0.72977(19)
N2 N 0.4446(3) 0.50618(12) 0.79494(19)
N3 N 0.2152(3) 0.58863(12) 0.88729(19)
N4 N 0.5632(3) 0.62291(12) 0.9389(2)
N5 N 0.5258(3) 0.68530(13) 1.0128(2)
N6 N 0.5181(3) 0.74216(14) 1.0822(2)
N7 N -0.1191(3) 0.55042(14) 0.8353(2)
H1 H -0.228(4) 0.5226(16) 0.795(3)
H2 H -0.130(4) 0.5916(17) 0.888(3)
N8 N -0.1136(3) 0.33269(12) 0.7649(2)
N9 N 0.0554(3) 0.33146(13) 0.5844(2)
O1 O -0.0126(3) 0.33693(11) 0.88409(16)
O2 O -0.2583(3) 0.28437(12) 0.71673(19)
O3 O 0.1374(3) 0.26592(11) 0.64771(17)
O4 O 0.0514(3) 0.35455(11) 0.46966(17)
loop_
_geom_bond_atom_site_label_1
_geom_bond_atom_site_label_2
_geom_bond_site_symmetry_1
_geom_bond_site_symmetry_2
C1 N2 1_555 1_555
C2 C3 1_555 1_555
C3 C4 1_555 1_555
C4 Cl1 1_555 1_555
N1 C3 1_555 1_555
N2 N1 1_555 1_555
N3 C1 1_555 1_555
N4 C1 1_555 1_555
N5 N4 1_555 1_555
N6 N5 1_555 1_555
N7 C2 1_555 1_555
H1 N7 1_555 1_555
H2 N7 1_555 1_555
N8 C4 1_555 1_555
N9 C4 1_555 1_555
O1 N8 1_555 1_555
O2 N8 1_555 1_555
O3 N9 1_555 1_555
O4 N9 1_555 1_555
C2 N3 1_555 1_555

#END
