
#######################################################################
#
#                 Cambridge Crystallographic Data Centre
#                                CCDC 
#
#######################################################################
#
# If this CIF has been generated from an entry in the Cambridge 
# Structural Database, then it will include bibliographic, chemical, 
# crystal, experimental, refinement or atomic coordinate data resulting 
# from the CCDC's data processing and validation procedures.
#
#######################################################################

data_QECSID
_chemical_formula_moiety         'H12 Mg1 O6 2+,2(N5 1-),4(H2 O1)'
_chemical_name_systematic        
'hexaaqua-magnesium bis(pentazolate) tetrahydrate'
_symmetry_cell_setting           triclinic
_symmetry_space_group_name_H-M   'P -1'
_symmetry_Int_Tables_number      2
_space_group_name_Hall           '-P 1'
loop_
_symmetry_equiv_pos_site_id
_symmetry_equiv_pos_as_xyz
1 x,y,z
2 -x,-y,-z
_cell_length_a                   7.1765(5)
_cell_length_b                   7.1963(5)
_cell_length_c                   9.2589(7)
_cell_angle_alpha                90.768(5)
_cell_angle_beta                 107.122(4)
_cell_angle_gamma                117.675(4)
_cell_volume                     398.278
_exptl_crystal_colour            colorless
_exptl_crystal_description       block
_cell_formula_units_Z            1
loop_
_atom_site_label
_atom_site_type_symbol
_atom_site_fract_x
_atom_site_fract_y
_atom_site_fract_z
Mg1 Mg 0.5000 0.0000 0.5000
O1 O 0.1594(2) -0.1058(3) 0.39556(19)
H1 H 0.0829 -0.1962 0.4452
H2 H 0.1110 -0.1698 0.3009
O2 O 0.5152(3) -0.0918(3) 0.2951(2)
H3 H 0.5439 -0.1948 0.3017
H4 H 0.6187 0.0132 0.2735
O3 O 0.5663(3) 0.2901(3) 0.4360(2)
H5 H 0.6912 0.3895 0.4987
H6 H 0.520(7) 0.338(7) 0.356(4)
O1A O 0.8406(2) 0.1058(3) 0.60444(19)
H1A H 0.9171 0.1962 0.5548
H2A H 0.8890 0.1698 0.6991
O2A O 0.4848(3) 0.0918(3) 0.7049(2)
H3A H 0.4561 0.1948 0.6983
H4A H 0.3813 -0.0132 0.7265
O3A O 0.4337(3) -0.2901(3) 0.5640(2)
H5A H 0.3088 -0.3895 0.5013
H6A H 0.480(7) -0.338(7) 0.644(4)
O4 O 1.2009(3) 0.8295(3) 0.8509(2)
H7 H 1.211(5) 0.728(4) 0.891(3)
H8 H 1.199(6) 0.915(6) 0.915(4)
O5 O 0.8825(3) 0.7074(3) 0.5652(2)
H9 H 0.980(5) 0.746(6) 0.653(3)
H10 H 0.813(6) 0.776(6) 0.568(5)
N1 N 0.3493(3) 0.3238(3) 0.1409(2)
N2 N 0.2300(3) 0.1907(3) 0.0098(2)
N3 N 0.1440(3) 0.2847(3) -0.0888(2)
N4 N 0.3360(3) 0.5003(3) 0.1237(2)
N5 N 0.2105(3) 0.4753(3) -0.0188(2)
loop_
_geom_bond_atom_site_label_1
_geom_bond_atom_site_label_2
_geom_bond_site_symmetry_1
_geom_bond_site_symmetry_2
Mg1 O1 1_555 1_555
O1 H1 1_555 1_555
H2 O1 1_555 1_555
O2 Mg1 1_555 1_555
H3 O2 1_555 1_555
H4 O2 1_555 1_555
O3 Mg1 1_555 1_555
H5 O3 1_555 1_555
H6 O3 1_555 1_555
O4 H7 1_555 1_555
H8 O4 1_555 1_555
O5 H9 1_555 1_555
H10 O5 1_555 1_555
N1 N2 1_555 1_555
N2 N3 1_555 1_555
N3 N5 1_555 1_555
N4 N1 1_555 1_555
N5 N4 1_555 1_555
O1A Mg1 1_555 1_555
H1A O1A 1_555 1_555
H2A O1A 1_555 1_555
O2A Mg1 1_555 1_555
H3A O2A 1_555 1_555
H4A O2A 1_555 1_555
O3A Mg1 1_555 1_555
H5A O3A 1_555 1_555
H6A O3A 1_555 1_555

#END
