
#######################################################################
#
#                 Cambridge Crystallographic Data Centre
#                                CCDC 
#
#######################################################################
#
# If this CIF has been generated from an entry in the Cambridge 
# Structural Database, then it will include bibliographic, chemical, 
# crystal, experimental, refinement or atomic coordinate data resulting 
# from the CCDC's data processing and validation procedures.
#
#######################################################################

data_QEDJOB
_chemical_formula_moiety         'C8 H5 N5 O4'
_chemical_name_systematic        2-nitro-3-(3-nitro-1H-pyrazol-1-yl)pyridine
_symmetry_cell_setting           orthorhombic
_symmetry_space_group_name_H-M   'F d d 2'
_symmetry_Int_Tables_number      43
_space_group_name_Hall           'F 2 -2d'
loop_
_symmetry_equiv_pos_site_id
_symmetry_equiv_pos_as_xyz
1 x,y,z
2 -x,-y,z
3 1/4+x,1/4-y,1/4+z
4 1/4-x,1/4+y,1/4+z
5 x,1/2+y,1/2+z
6 -x,1/2-y,1/2+z
7 1/4+x,3/4-y,3/4+z
8 1/4-x,3/4+y,3/4+z
9 1/2+x,y,1/2+z
10 1/2-x,-y,1/2+z
11 3/4+x,1/4-y,3/4+z
12 3/4-x,1/4+y,3/4+z
13 1/2+x,1/2+y,z
14 1/2-x,1/2-y,z
15 3/4+x,3/4-y,1/4+z
16 3/4-x,3/4+y,1/4+z
_cell_length_a                   18.6126(8)
_cell_length_b                   26.1321(12)
_cell_length_c                   8.1858(4)
_cell_angle_alpha                90
_cell_angle_beta                 90
_cell_angle_gamma                90
_cell_volume                     3981.46
_exptl_crystal_colour            colorless
_exptl_crystal_description       block
_cell_formula_units_Z            16
loop_
_atom_site_label
_atom_site_type_symbol
_atom_site_fract_x
_atom_site_fract_y
_atom_site_fract_z
C1 C 0.32131(14) 0.58483(11) 0.6523(4)
C2 C 0.34657(15) 0.56996(11) 0.8064(4)
H1 H 0.3598 0.5912 0.8958
C3 C 0.34771(16) 0.51829(11) 0.7979(4)
H2 H 0.3619 0.4954 0.8822
C4 C 0.31500(14) 0.45500(10) 0.5829(4)
C5 C 0.33543(14) 0.44101(11) 0.4256(4)
C6 C 0.30248(15) 0.35841(11) 0.4595(4)
H3 H 0.2990 0.3245 0.4184
C7 C 0.27990(15) 0.36810(11) 0.6178(4)
H4 H 0.2610 0.3412 0.6831
C8 C 0.28510(15) 0.41723(11) 0.6801(4)
H5 H 0.2685 0.4248 0.7872
N1 N 0.30755(12) 0.54633(8) 0.5526(3)
N2 N 0.32438(13) 0.50516(9) 0.6438(3)
N3 N 0.32910(12) 0.39512(9) 0.3618(3)
N4 N 0.30822(13) 0.63657(9) 0.6008(3)
N5 N 0.36964(12) 0.47901(8) 0.3166(3)
O1 O 0.28667(13) 0.64464(9) 0.4618(3)
O2 O 0.32001(12) 0.67043(8) 0.7021(3)
O3 O 0.33826(12) 0.48997(9) 0.1893(3)
O4 O 0.42748(10) 0.49584(9) 0.3594(3)
loop_
_geom_bond_atom_site_label_1
_geom_bond_atom_site_label_2
_geom_bond_site_symmetry_1
_geom_bond_site_symmetry_2
C1 C2 1_555 1_555
C2 H1 1_555 1_555
C3 C2 1_555 1_555
H2 C3 1_555 1_555
C4 C5 1_555 1_555
C5 N3 1_555 1_555
C6 H3 1_555 1_555
C7 C6 1_555 1_555
H4 C7 1_555 1_555
C8 C4 1_555 1_555
H5 C8 1_555 1_555
N1 C1 1_555 1_555
N2 C3 1_555 1_555
N3 C6 1_555 1_555
N4 C1 1_555 1_555
N5 C5 1_555 1_555
O1 N4 1_555 1_555
O2 N4 1_555 1_555
O3 N5 1_555 1_555
O4 N5 1_555 1_555
C4 N2 1_555 1_555
C7 C8 1_555 1_555
N1 N2 1_555 1_555

#END
