
#######################################################################
#
#                 Cambridge Crystallographic Data Centre
#                                CCDC 
#
#######################################################################
#
# If this CIF has been generated from an entry in the Cambridge 
# Structural Database, then it will include bibliographic, chemical, 
# crystal, experimental, refinement or atomic coordinate data resulting 
# from the CCDC's data processing and validation procedures.
#
#######################################################################

data_QEFDUA
_chemical_formula_moiety         'C12 H10 F10'
_chemical_name_systematic        
trans-1,4-bis(Z-Pentafluoropropenyl)cyclohexane
_symmetry_cell_setting           monoclinic
_symmetry_space_group_name_H-M   'C 2/m'
_symmetry_Int_Tables_number      12
_space_group_name_Hall           '-C 2y'
loop_
_symmetry_equiv_pos_site_id
_symmetry_equiv_pos_as_xyz
1 x,y,z
2 1/2+x,1/2+y,z
3 x,-y,z
4 1/2+x,1/2-y,z
5 -x,-y,-z
6 1/2-x,1/2-y,-z
7 -x,y,-z
8 1/2-x,1/2+y,-z
_cell_length_a                   15.006(13)
_cell_length_b                   7.217(4)
_cell_length_c                   6.223(5)
_cell_angle_alpha                90
_cell_angle_beta                 102.74(7)
_cell_angle_gamma                90
_cell_volume                     657.348
_exptl_crystal_colour            colorless
_chemical_melting_point          374-375K
_cell_formula_units_Z            2
loop_
_atom_site_label
_atom_site_type_symbol
_atom_site_fract_x
_atom_site_fract_y
_atom_site_fract_z
C1 C 0.09304(14) 0.0000 0.1452(4)
H1 H 0.1308(16) 0.0000 0.0368(39)
C2 C 0.03316(11) 0.1751(3) 0.1126(3)
H2 H 0.0720(13) 0.2856(31) 0.1309(30)
H3 H -0.0010(12) 0.1802(30) 0.2311(31)
C3 C 0.1551(2) 0.0000 0.3687(4)
C4 C 0.2451(2) 0.0000 0.4303(4)
C5 C 0.3128(2) 0.0000 0.2869(4)
F1 F 0.11002(10) 0.0000 0.5348(2)
F2 F 0.28685(10) 0.0000 0.6461(2)
F3 F 0.3015(2) 0.1429(4) 0.1497(6)
F4 F 0.3965(2) 0.0000 0.3932(7)
C2F C -0.03316(11) 0.1751(3) -0.1126(3)
C1F C -0.09304(14) 0.0000 -0.1452(4)
H1F H -0.1308(16) 0.0000 -0.0368(39)
C2D C -0.03316(11) -0.1751(3) -0.1126(3)
C2B C 0.03316(11) -0.1751(3) 0.1126(3)
F3B F 0.3015(2) -0.1429(4) 0.1497(6)
H2B H 0.0720(13) -0.2856(31) 0.1309(30)
H3B H -0.0010(12) -0.1802(30) 0.2311(31)
H2D H -0.0720(13) -0.2856(31) -0.1309(30)
H3D H 0.0010(12) -0.1802(30) -0.2311(31)
C3F C -0.1551(2) 0.0000 -0.3687(4)
C4F C -0.2451(2) 0.0000 -0.4303(4)
C5F C -0.3128(2) 0.0000 -0.2869(4)
F3F F -0.3015(2) 0.1429(4) -0.1497(6)
F3D F -0.3015(2) -0.1429(4) -0.1497(6)
F4F F -0.3965(2) 0.0000 -0.3932(7)
F2F F -0.28685(10) 0.0000 -0.6461(2)
F1F F -0.11002(10) 0.0000 -0.5348(2)
H2F H -0.0720(13) 0.2856(31) -0.1309(30)
H3F H 0.0010(12) 0.1802(30) -0.2311(31)
F5? F 0.3657(4) 0.1450(8) 0.3400(12)
F6? F 0.2834(4) 0.0000 0.0875(9)
loop_
_geom_bond_atom_site_label_1
_geom_bond_atom_site_label_2
_geom_bond_site_symmetry_1
_geom_bond_site_symmetry_2
C1 H1 1_555 1_555
C2 C1 1_555 1_555
H2 C2 1_555 1_555
H3 C2 1_555 1_555
C3 C1 1_555 1_555
C4 C3 1_555 1_555
C5 C4 1_555 1_555
F1 C3 1_555 1_555
F2 C4 1_555 1_555
F3 C5 1_555 1_555
F4 C5 1_555 1_555
C2F C2 1_555 1_555
C1F C2F 1_555 1_555
H1F C1F 1_555 1_555
C2D C1F 1_555 1_555
C2B C1 1_555 1_555
F3B C5 1_555 1_555
H2B C2B 1_555 1_555
H3B C2B 1_555 1_555
H2D C2D 1_555 1_555
H3D C2D 1_555 1_555
C3F C1F 1_555 1_555
C4F C3F 1_555 1_555
C5F C4F 1_555 1_555
F3F C5F 1_555 1_555
F3D C5F 1_555 1_555
F4F C5F 1_555 1_555
F2F C4F 1_555 1_555
F1F C3F 1_555 1_555
H2F C2F 1_555 1_555
H3F C2F 1_555 1_555
C2D C2B 1_555 1_555

#END
