
#######################################################################
#
#                 Cambridge Crystallographic Data Centre
#                                CCDC 
#
#######################################################################
#
# If this CIF has been generated from an entry in the Cambridge 
# Structural Database, then it will include bibliographic, chemical, 
# crystal, experimental, refinement or atomic coordinate data resulting 
# from the CCDC's data processing and validation procedures.
#
#######################################################################

data_QEFGOZ
_chemical_formula_moiety         'C7 H4 F1 N2 S2'
_chemical_name_systematic        '2-fluorophenyl dithiadiazolyl radical'
_symmetry_cell_setting           monoclinic
_symmetry_space_group_name_H-M   'P 21/c'
_symmetry_Int_Tables_number      14
_space_group_name_Hall           '-P 2ybc'
loop_
_symmetry_equiv_pos_site_id
_symmetry_equiv_pos_as_xyz
1 x,y,z
2 -x,1/2+y,1/2-z
3 -x,-y,-z
4 x,1/2-y,1/2+z
_cell_length_a                   13.327(6)
_cell_length_b                   18.183(6)
_cell_length_c                   13.437(6)
_cell_angle_alpha                90
_cell_angle_beta                 107.37(3)
_cell_angle_gamma                90
_cell_volume                     3107.63
_exptl_crystal_colour            purple
_exptl_crystal_description       block
_cell_formula_units_Z            16
loop_
_atom_site_label
_atom_site_type_symbol
_atom_site_fract_x
_atom_site_fract_y
_atom_site_fract_z
N1 N 0.3802(6) 0.3943(4) 0.3950(5)
C1 C 0.3733(6) 0.4124(5) 0.4897(6)
C2 C 0.3784(6) 0.3560(5) 0.5684(6)
S1 S 0.36308(16) 0.54248(12) 0.42303(17)
S2 S 0.37563(18) 0.46266(13) 0.31544(16)
F1 F 0.3222(5) 0.2591(3) 0.4486(4)
N2 N 0.3650(5) 0.4843(4) 0.5142(5)
C3 C 0.3517(7) 0.2831(5) 0.5470(7)
C4 C 0.4101(6) 0.3763(5) 0.6754(7)
H1 H 0.4291 0.4248 0.6935
C5 C 0.4134(7) 0.3265(5) 0.7527(7)
H2 H 0.4364 0.3408 0.8222
C6 C 0.3512(8) 0.2334(5) 0.6241(8)
H3 H 0.3297 0.1853 0.6064
C7 C 0.3822(8) 0.2542(6) 0.7264(8)
H4 H 0.3824 0.2203 0.7782
S3 S 0.3619(2) 0.79227(14) 0.0906(2)
S4 S 0.1981(2) 0.80449(14) 0.0279(2)
N3 N 0.3706(6) 0.7278(5) 0.0095(6)
N4 N 0.1886(6) 0.7432(4) -0.0615(5)
F2 F 0.4589(6) 0.6468(5) -0.1032(8)
C8 C 0.2785(7) 0.7092(5) -0.0594(6)
C9 C 0.2752(6) 0.6552(5) -0.1417(7)
C10 C 0.3654(7) 0.6276(5) -0.1626(8)
C11 C 0.3600(8) 0.5787(6) -0.2417(8)
H5 H 0.424 0.5617 -0.2528
C12 C 0.2642(8) 0.5533(5) -0.3043(7)
H6 H 0.261 0.5178 -0.3581
C13 C 0.1733(8) 0.5790(5) -0.2861(7)
H7 H 0.1062 0.5645 -0.3321
C14 C 0.1788(7) 0.6282(5) -0.2060(7)
H8 H 0.1153 0.6425 -0.1914
S5 S 0.3280(2) 0.68631(13) 0.25400(18)
S6 S 0.1642(2) 0.69544(14) 0.1901(2)
N5 N 0.3375(6) 0.6149(4) 0.1838(6)
N6 N 0.1529(6) 0.6263(4) 0.1093(7)
F3 F 0.4309(5) 0.5222(4) 0.0908(6)
C15 C 0.2457(7) 0.5931(5) 0.1185(7)
C16 C 0.2459(7) 0.5312(5) 0.0439(6)
C17 C 0.3361(7) 0.4994(5) 0.0336(7)
C18 C 0.3367(8) 0.4439(5) -0.0352(7)
H9 H 0.4018 0.4237 -0.0397
C19 C 0.2394(9) 0.4165(6) -0.0980(7)
H10 H 0.2371 0.3778 -0.1472
C20 C 0.1474(8) 0.4469(5) -0.0897(7)
H11 H 0.081 0.429 -0.1332
C21 C 0.1507(7) 0.5043(5) -0.0200(6)
H12 H 0.0858 0.5236 -0.0136
F4 F 0.0812(6) 0.2553(4) 0.3542(5)
S7 S 0.1307(2) 0.46131(17) 0.22927(18)
S8 S 0.12516(19) 0.54203(15) 0.3390(2)
N7 N 0.1198(6) 0.3928(5) 0.3043(6)
N8 N 0.1136(6) 0.4832(4) 0.4251(6)
C22 C 0.1104(6) 0.4121(5) 0.3963(6)
C23 C 0.0970(6) 0.3554(5) 0.4708(6)
C24 C 0.0851(7) 0.2808(5) 0.4490(7)
C25 C 0.0706(8) 0.2306(5) 0.5199(8)
H13 H 0.0622 0.1795 0.5013
C26 C 0.0727(7) 0.2539(6) 0.6194(8)
H14 H 0.0654 0.2192 0.6707
C27 C 0.0829(7) 0.3268(6) 0.6419(7)
H15 H 0.0842 0.3435 0.71
C28 C 0.0954(7) 0.3774(6) 0.5690(7)
H16 H 0.0989 0.429 0.5852
F5? F 0.0935(14) 0.6406(11) -0.1856(16)
F6? F 0.065(3) 0.528(2) -0.020(3)
H17? H 0.4335 0.645 -0.1226
H18? H 0.4031 0.5164 0.0769
loop_
_geom_bond_atom_site_label_1
_geom_bond_atom_site_label_2
_geom_bond_site_symmetry_1
_geom_bond_site_symmetry_2
N1 C1 1_555 1_555
C1 C2 1_555 1_555
C2 C3 1_555 1_555
S1 S2 1_555 1_555
S2 N1 1_555 1_555
F1 C3 1_555 1_555
N2 C1 1_555 1_555
C3 C6 1_555 1_555
C4 C2 1_555 1_555
H1 C4 1_555 1_555
C5 C4 1_555 1_555
H2 C5 1_555 1_555
C6 H3 1_555 1_555
C7 C5 1_555 1_555
H4 C7 1_555 1_555
S3 S4 1_555 1_555
S4 N4 1_555 1_555
N3 S3 1_555 1_555
N4 C8 1_555 1_555
F2 C10 1_555 1_555
C8 N3 1_555 1_555
C9 C8 1_555 1_555
C10 C9 1_555 1_555
C11 C10 1_555 1_555
H5 C11 1_555 1_555
C12 C11 1_555 1_555
H6 C12 1_555 1_555
C13 C12 1_555 1_555
H7 C13 1_555 1_555
C14 C9 1_555 1_555
H8 C14 1_555 1_555
S5 S6 1_555 1_555
S6 N6 1_555 1_555
N5 S5 1_555 1_555
N6 C15 1_555 1_555
F3 C17 1_555 1_555
C15 N5 1_555 1_555
C16 C15 1_555 1_555
C17 C16 1_555 1_555
C18 C17 1_555 1_555
H9 C18 1_555 1_555
C19 C18 1_555 1_555
H10 C19 1_555 1_555
C20 C19 1_555 1_555
H11 C20 1_555 1_555
C21 C16 1_555 1_555
H12 C21 1_555 1_555
F4 C24 1_555 1_555
S7 S8 1_555 1_555
S8 N8 1_555 1_555
N7 S7 1_555 1_555
N8 C22 1_555 1_555
C22 N7 1_555 1_555
C23 C22 1_555 1_555
C24 C23 1_555 1_555
C25 C24 1_555 1_555
H13 C25 1_555 1_555
C26 C25 1_555 1_555
H14 C26 1_555 1_555
C27 C26 1_555 1_555
H15 C27 1_555 1_555
C28 C23 1_555 1_555
H16 C28 1_555 1_555
S1 N2 1_555 1_555
C6 C7 1_555 1_555
C13 C14 1_555 1_555
C20 C21 1_555 1_555
C27 C28 1_555 1_555

#END
