
#######################################################################
#
#                 Cambridge Crystallographic Data Centre
#                                CCDC 
#
#######################################################################
#
# If this CIF has been generated from an entry in the Cambridge 
# Structural Database, then it will include bibliographic, chemical, 
# crystal, experimental, refinement or atomic coordinate data resulting 
# from the CCDC's data processing and validation procedures.
#
#######################################################################

data_QEFHOB
_chemical_formula_moiety         'C29 H23 Cl1 N2 O2'
_chemical_name_systematic        
'[9-(4-chlorophenyl)-5,14a-dihydro-6H-isoquinolino[1,2-b][1,3,4]benzoxadiazepin-8(9H)-yl](phenyl)methanone'
_symmetry_cell_setting           triclinic
_symmetry_space_group_name_H-M   'P -1'
_symmetry_Int_Tables_number      2
_space_group_name_Hall           '-P 1'
loop_
_symmetry_equiv_pos_site_id
_symmetry_equiv_pos_as_xyz
1 x,y,z
2 -x,-y,-z
_cell_length_a                   8.8691(9)
_cell_length_b                   11.1836(9)
_cell_length_c                   12.6245(12)
_cell_angle_alpha                92.638(7)
_cell_angle_beta                 99.870(8)
_cell_angle_gamma                105.055(8)
_cell_volume                     1185.92
_exptl_crystal_colour            colorless
_exptl_crystal_description       plate
_cell_formula_units_Z            2
loop_
_atom_site_label
_atom_site_type_symbol
_atom_site_fract_x
_atom_site_fract_y
_atom_site_fract_z
Cl1 Cl 0.37137(12) -0.44356(8) 0.81883(8)
O1 O 0.3971(2) 0.18011(15) 0.87183(13)
O2 O -0.0172(2) 0.11799(17) 0.57406(15)
N1 N 0.2168(2) 0.08635(17) 0.65111(16)
N2 N 0.3796(2) 0.14644(17) 0.67817(15)
C1 C -0.0350(4) 0.0633(3) 0.8461(3)
H1 H -0.121633 0.009078 0.800439
C2 C -0.0611(5) 0.1240(4) 0.9329(3)
H2 H -0.163628 0.112929 0.946055
C3 C 0.0661(5) 0.2022(3) 1.0012(3)
H3 H 0.049542 0.242379 1.062523
C4 C 0.2191(4) 0.2232(3) 0.9813(3)
H4 H 0.304605 0.277340 1.028020
C5 C 0.2418(4) 0.1610(2) 0.8895(2)
C6 C 0.1136(3) 0.0776(2) 0.8219(2)
C7 C 0.1351(3) 0.0052(2) 0.7248(2)
H5 H 0.027313 -0.033135 0.684081
C8 C 0.4263(3) 0.2330(2) 0.77133(19)
H6 H 0.366765 0.295293 0.759488
C9 C 0.6002(3) 0.2995(2) 0.7894(2)
C10 C 0.6987(3) 0.2692(2) 0.7250(2)
C11 C 0.6360(3) 0.1633(3) 0.6367(2)
H7 H 0.610321 0.195838 0.567980
H8 H 0.717264 0.120737 0.631707
C12 C 0.4895(3) 0.0727(2) 0.6598(2)
H9 H 0.441524 0.010327 0.599024
H10 H 0.516263 0.031130 0.723277
C13 C 0.8592(3) 0.3364(3) 0.7449(3)
H11 H 0.927673 0.316946 0.702924
C14 C 0.9157(4) 0.4321(3) 0.8275(3)
H12 H 1.021584 0.478423 0.838767
C15 C 0.8194(4) 0.4592(3) 0.8919(3)
H13 H 0.859667 0.521781 0.948583
C16 C 0.6616(3) 0.3936(2) 0.8730(2)
H14 H 0.595230 0.412499 0.916945
C17 C 0.2063(3) -0.1027(2) 0.7501(2)
C18 C 0.1842(3) -0.1956(2) 0.6692(2)
H15 H 0.134099 -0.187956 0.599852
C19 C 0.2357(4) -0.3005(3) 0.6897(3)
H16 H 0.219661 -0.363342 0.634693
C20 C 0.3108(3) -0.3107(2) 0.7920(2)
C21 C 0.3384(4) -0.2184(3) 0.8732(2)
H17 H 0.391629 -0.225391 0.941835
C22 C 0.2861(3) -0.1146(2) 0.8519(2)
H18 H 0.304782 -0.051242 0.906872
C23 C 0.1264(3) 0.1409(2) 0.58068(19)
C24 C 0.2092(3) 0.2289(2) 0.5100(2)
C25 C 0.1964(4) 0.3488(3) 0.5136(3)
H19 H 0.144912 0.376123 0.564215
C26 C 0.2588(6) 0.4282(4) 0.4435(4)
H20 H 0.251805 0.509724 0.448372
C27 C 0.3303(5) 0.3908(4) 0.3674(4)
H21 H 0.370830 0.445260 0.319243
C28 C 0.3423(4) 0.2714(4) 0.3620(3)
H22 H 0.390704 0.244547 0.309256
C29 C 0.2837(4) 0.1896(3) 0.4339(2)
H23 H 0.294750 0.109104 0.430578
loop_
_geom_bond_atom_site_label_1
_geom_bond_atom_site_label_2
_geom_bond_site_symmetry_1
_geom_bond_site_symmetry_2
Cl1 C20 1_555 1_555
O1 C5 1_555 1_555
O2 C23 1_555 1_555
N1 N2 1_555 1_555
N2 C8 1_555 1_555
C1 H1 1_555 1_555
C2 C1 1_555 1_555
H2 C2 1_555 1_555
C3 C2 1_555 1_555
H3 C3 1_555 1_555
C4 C3 1_555 1_555
H4 C4 1_555 1_555
C5 C4 1_555 1_555
C6 C1 1_555 1_555
C7 N1 1_555 1_555
H5 C7 1_555 1_555
C8 O1 1_555 1_555
H6 C8 1_555 1_555
C9 C8 1_555 1_555
C10 C9 1_555 1_555
C11 C10 1_555 1_555
H7 C11 1_555 1_555
H8 C11 1_555 1_555
C12 N2 1_555 1_555
H9 C12 1_555 1_555
H10 C12 1_555 1_555
C13 C10 1_555 1_555
H11 C13 1_555 1_555
C14 C13 1_555 1_555
H12 C14 1_555 1_555
C15 C14 1_555 1_555
H13 C15 1_555 1_555
C16 C9 1_555 1_555
H14 C16 1_555 1_555
C17 C7 1_555 1_555
C18 C17 1_555 1_555
H15 C18 1_555 1_555
C19 C18 1_555 1_555
H16 C19 1_555 1_555
C20 C19 1_555 1_555
C21 C20 1_555 1_555
H17 C21 1_555 1_555
C22 C17 1_555 1_555
H18 C22 1_555 1_555
C23 N1 1_555 1_555
C24 C23 1_555 1_555
C25 C24 1_555 1_555
H19 C25 1_555 1_555
C26 C25 1_555 1_555
H20 C26 1_555 1_555
C27 C26 1_555 1_555
H21 C27 1_555 1_555
C28 C27 1_555 1_555
H22 C28 1_555 1_555
C29 C24 1_555 1_555
H23 C29 1_555 1_555
C5 C6 1_555 1_555
C6 C7 1_555 1_555
C11 C12 1_555 1_555
C15 C16 1_555 1_555
C21 C22 1_555 1_555
C28 C29 1_555 1_555

#END
