
#######################################################################
#
#                 Cambridge Crystallographic Data Centre
#                                CCDC 
#
#######################################################################
#
# If this CIF has been generated from an entry in the Cambridge 
# Structural Database, then it will include bibliographic, chemical, 
# crystal, experimental, refinement or atomic coordinate data resulting 
# from the CCDC's data processing and validation procedures.
#
#######################################################################

data_QEFPOG03
_chemical_formula_moiety         
'0.48(C12 H10 N2 O4 S2),0.48(C14 H10),0.52(C26 H20 N2 O4 S2)'
_chemical_name_systematic        
"5,15-Diethyl-2,8-dithia-5,15-diaza-11,12:17,18-dibenzopentacyclo(7.4.3.2^10,13^.0.0^3,7^)octadeca-3(7),11,17-triene-4,6,14,16-tetraone 1,4-dithiine-tetracarboxylic N,N'-diethyldi-imide anthracene"
_symmetry_cell_setting           triclinic
_symmetry_space_group_name_H-M   'P -1'
_symmetry_Int_Tables_number      2
_space_group_name_Hall           '-P 1'
loop_
_symmetry_equiv_pos_site_id
_symmetry_equiv_pos_as_xyz
1 x,y,z
2 -x,-y,-z
_cell_length_a                   7.448(2)
_cell_length_b                   7.479(2)
_cell_length_c                   10.376(2)
_cell_angle_alpha                88.831(5)
_cell_angle_beta                 86.997(6)
_cell_angle_gamma                79.862(7)
_cell_volume                     568.138
_exptl_crystal_colour            orange-yellow
_exptl_crystal_description       prism
_cell_formula_units_Z            1
loop_
_atom_site_label
_atom_site_type_symbol
_atom_site_fract_x
_atom_site_fract_y
_atom_site_fract_z
C14 C 0.5616(23) 0.5401(23) 0.2282(15)
H11 H 0.5352(23) 0.6477(23) 0.1868(15)
C15 C 0.7079(29) 0.4134(34) 0.1852(20)
H12 H 0.7774(29) 0.4386(34) 0.1159(20)
C16 C 0.7486(29) 0.2480(31) 0.2475(21)
H13 H 0.8447(29) 0.1664(31) 0.2180(21)
C17 C 0.6452(27) 0.2043(24) 0.3547(19)
H14 H 0.6733(27) 0.0960(24) 0.3950(19)
C18 C 0.4943(17) 0.3342(17) 0.3991(11)
C19 C 0.4517(19) 0.5015(18) 0.3382(13)
C20 C 0.2914(15) 0.6243(15) 0.3939(10)
H15 H 0.2696(15) 0.7456(15) 0.3496(10)
C25 C 0.2954(13) 0.6380(18) 0.5380(13)
C26 C 0.3347(15) 0.4718(18) 0.6033(14)
C27 C 0.3668(14) 0.3103(15) 0.5104(10)
H20 H 0.4015(14) 0.1910(15) 0.5559(10)
S2 S -0.0010(18) 0.2617(21) 0.5591(8)
O3 O 0.2039(16) 0.0421(17) 0.3449(13)
O4 O 0.0999(21) 0.5804(20) 0.1447(17)
N2 N 0.1535(12) 0.2915(16) 0.2210(12)
C28 C 0.1786(25) 0.2066(27) 0.3381(24)
C29 C 0.1265(18) 0.4761(29) 0.2352(29)
C30 C 0.1707(26) 0.3288(37) 0.4427(28)
C31 C 0.1368(30) 0.5160(48) 0.3774(32)
C32 C 0.1602(21) 0.1968(22) 0.0909(16)
H21 H 0.0905(21) 0.2781(22) 0.0275(16)
H22 H 0.1070(21) 0.0847(22) 0.1006(16)
C33 C 0.3662(24) 0.1502(22) 0.0450(16)
H23 H 0.3766(24) 0.102(13) -0.0427(41)
H24 H 0.4305(36) 0.059(10) 0.1034(59)
H26 H 0.3388(53) 0.2963(49) 0.0363(26)
C31A C -0.1368(30) 0.4840(48) 0.6226(32)
C20A C -0.2914(15) 0.3757(15) 0.6061(10)
C19A C -0.4517(19) 0.4985(18) 0.6618(13)
C14A C -0.5616(23) 0.4599(23) 0.7718(15)
H11A H -0.5352(23) 0.3523(23) 0.8132(15)
C15A C -0.7079(29) 0.5866(34) 0.8148(20)
H12A H -0.7774(29) 0.5614(34) 0.8841(20)
C16A C -0.7486(29) 0.7520(31) 0.7525(21)
H13A H -0.8447(29) 0.8336(31) 0.7820(21)
C17A C -0.6452(27) 0.7957(24) 0.6453(19)
H14A H -0.6733(27) 0.9040(24) 0.6050(19)
C18A C -0.4943(17) 0.6658(17) 0.6009(11)
C27A C -0.3668(14) 0.6897(15) 0.4896(10)
C26A C -0.3347(15) 0.5282(18) 0.3967(14)
C25A C -0.2954(13) 0.3620(18) 0.4620(13)
H15A H -0.2696(15) 0.2544(15) 0.6504(10)
H20A H -0.4015(14) 0.8090(15) 0.4441(10)
C30A C -0.1707(26) 0.6712(37) 0.5573(28)
S2A S 0.0010(18) 0.7383(21) 0.4409(8)
C28A C -0.1786(25) 0.7934(27) 0.6619(24)
O3A O -0.2039(16) 0.9579(17) 0.6551(13)
N2A N -0.1535(12) 0.7085(16) 0.7790(12)
C29A C -0.1265(18) 0.5239(29) 0.7648(29)
O4A O -0.0999(21) 0.4196(20) 0.8553(17)
C32A C -0.1602(21) 0.8032(22) 0.9091(16)
H21A H -0.0905(21) 0.7219(22) 0.9725(16)
H22A H -0.1070(21) 0.9153(22) 0.8994(16)
C33A C -0.3662(24) 0.8498(22) 0.9550(16)
H23A H -0.3766(24) 0.898(13) 1.0427(41)
H24A H -0.4305(36) 0.941(10) 0.8966(59)
H26A H -0.3388(53) 0.7037(49) 0.9637(26)
C1? C 0.6388(25) 0.5253(18) 0.2438(12)
H1? H 0.6246(25) 0.6394(18) 0.2002(12)
C2? C 0.7339(22) 0.3735(24) 0.1840(8)
H2? H 0.7772(22) 0.3809(24) 0.0966(8)
C3? C 0.7671(24) 0.2102(22) 0.2498(11)
H3? H 0.8369(24) 0.1070(22) 0.2080(11)
C4? C 0.7008(28) 0.1936(13) 0.3756(12)
H4? H 0.7244(28) 0.0799(13) 0.4196(12)
C5? C 0.5988(14) 0.3452(9) 0.4377(7)
C6? C 0.5615(17) 0.5126(9) 0.3705(7)
C7? C 0.4683(12) 0.6636(10) 0.4327(7)
H5? H 0.4484(12) 0.7766(10) 0.3876(7)
S1? S 0.0433(5) 0.2728(12) 0.5801(3)
O1? O 0.2842(30) 0.0622(22) 0.3489(23)
O2? O 0.1463(43) 0.6249(25) 0.1570(13)
N1? N 0.2355(23) 0.3244(21) 0.2207(11)
C8? C 0.2239(27) 0.2221(22) 0.3317(13)
C9? C 0.1446(32) 0.4982(22) 0.2360(12)
C10? C 0.1114(23) 0.3526(22) 0.4291(10)
C11? C 0.0724(34) 0.5167(21) 0.3726(13)
C12? C 0.3307(27) 0.2523(21) 0.1017(13)
H6? H 0.4455(27) 0.1712(21) 0.1231(13)
H7? H 0.3636(27) 0.3541(21) 0.0484(13)
C13? C 0.2196(20) 0.1484(20) 0.0241(10)
H8? H 0.2972(25) 0.0851(60) -0.0459(33)
H9? H 0.1186(45) 0.2328(23) -0.0123(44)
H10? H 0.1705(67) 0.0595(56) 0.0801(15)
C21? C 0.3401(25) 0.4743(32) 0.7408(18)
H16? H 0.3655(25) 0.3694(32) 0.7855(18)
C22? C 0.3065(33) 0.6376(38) 0.8049(21)
H17? H 0.3095(33) 0.6383(38) 0.8915(21)
C23? C 0.2681(30) 0.7998(35) 0.7377(24)
H18? H 0.2471(30) 0.9049(35) 0.7811(24)
C24? C 0.2615(25) 0.8036(25) 0.6060(24)
H19? H 0.2360(25) 0.9102(25) 0.5632(24)
H25? H 0.4205(43) 0.2603(35) 0.0456(94)
S3? S -0.0876(13) 0.6679(7) 0.4079(7)
O5? O -0.2552(56) 0.9336(41) 0.6442(45)
O6? O -0.1650(83) 0.3906(49) 0.8633(28)
N3? N -0.2280(38) 0.6861(39) 0.7829(19)
C34? C -0.2121(32) 0.7720(37) 0.6643(21)
C35? C -0.1687(58) 0.5046(39) 0.7749(21)
C36? C -0.1319(28) 0.6214(40) 0.5714(16)
C37? C -0.1064(56) 0.4634(38) 0.6373(20)
C38? C -0.3011(53) 0.7887(49) 0.8974(26)
H27? H -0.4115(53) 0.8757(49) 0.8749(26)
C39? C -0.1692(46) 0.8914(44) 0.9542(22)
H28? H -0.2237(67) 0.949(12) 1.0344(55)
H29? H -0.141(12) 0.985(10) 0.8927(45)
H30? H -0.0566(66) 0.8074(50) 0.9725(92)
loop_
_geom_bond_atom_site_label_1
_geom_bond_atom_site_label_2
_geom_bond_site_symmetry_1
_geom_bond_site_symmetry_2
C14 H11 1_555 1_555
C15 C14 1_555 1_555
H12 C15 1_555 1_555
C16 C15 1_555 1_555
H13 C16 1_555 1_555
C17 C16 1_555 1_555
H14 C17 1_555 1_555
C18 C17 1_555 1_555
C19 C14 1_555 1_555
C20 C19 1_555 1_555
H15 C20 1_555 1_555
C25 C20 1_555 1_555
C26 C25 1_555 1_555
C27 C18 1_555 1_555
H20 C27 1_555 1_555
S2 C30 1_555 1_555
O3 C28 1_555 1_555
O4 C29 1_555 1_555
N2 C28 1_555 1_555
C28 C30 1_555 1_555
C29 N2 1_555 1_555
C30 C27 1_555 1_555
C31 C20 1_555 1_555
C32 N2 1_555 1_555
H21 C32 1_555 1_555
H22 C32 1_555 1_555
C33 C32 1_555 1_555
H23 C33 1_555 1_555
H24 C33 1_555 1_555
H26 C33 1_555 1_555
C31A S2 1_555 1_555
C20A C31A 1_555 1_555
C19A C20A 1_555 1_555
C14A C19A 1_555 1_555
H11A C14A 1_555 1_555
C15A C14A 1_555 1_555
H12A C15A 1_555 1_555
C16A C15A 1_555 1_555
H13A C16A 1_555 1_555
C17A C16A 1_555 1_555
H14A C17A 1_555 1_555
C18A C19A 1_555 1_555
C27A C18A 1_555 1_555
C26A C27A 1_555 1_555
C25A C20A 1_555 1_555
H15A C20A 1_555 1_555
H20A C27A 1_555 1_555
C30A C31A 1_555 1_555
S2A C31 1_555 1_555
C28A C30A 1_555 1_555
O3A C28A 1_555 1_555
N2A C28A 1_555 1_555
C29A C31A 1_555 1_555
O4A C29A 1_555 1_555
C32A N2A 1_555 1_555
H21A C32A 1_555 1_555
H22A C32A 1_555 1_555
C33A C32A 1_555 1_555
H23A C33A 1_555 1_555
H24A C33A 1_555 1_555
H26A C33A 1_555 1_555
C18 C19 1_555 1_555
C26 C27 1_555 1_555
C29 C31 1_555 1_555
C30 C31 1_555 1_555
C17A C18A 1_555 1_555
C27A C30A 1_555 1_555
C26A C25A 1_555 1_555
C30A S2A 1_555 1_555
N2A C29A 1_555 1_555

#END
