
#######################################################################
#
#                 Cambridge Crystallographic Data Centre
#                                CCDC 
#
#######################################################################
#
# If this CIF has been generated from an entry in the Cambridge 
# Structural Database, then it will include bibliographic, chemical, 
# crystal, experimental, refinement or atomic coordinate data resulting 
# from the CCDC's data processing and validation procedures.
#
#######################################################################

data_QEHYEJ
_chemical_formula_moiety         'C51 H63 N2 O4 P2 Rb1'
_chemical_name_systematic        
bis(1,2-dimethoxyethane)-(bis((N-mesityl)-diphenylphosphinimino)methanide-N,N')-rubidium
_symmetry_cell_setting           triclinic
_symmetry_space_group_name_H-M   'P -1'
_symmetry_Int_Tables_number      2
_space_group_name_Hall           '-P 1'
loop_
_symmetry_equiv_pos_site_id
_symmetry_equiv_pos_as_xyz
1 x,y,z
2 -x,-y,-z
_cell_length_a                   11.1549(4)
_cell_length_b                   12.6068(4)
_cell_length_c                   17.4105(6)
_cell_angle_alpha                100.160(3)
_cell_angle_beta                 91.234(3)
_cell_angle_gamma                93.885(3)
_cell_volume                     2403.07
_exptl_crystal_colour            yellow
_exptl_crystal_description       block
_cell_formula_units_Z            2
loop_
_atom_site_label
_atom_site_type_symbol
_atom_site_fract_x
_atom_site_fract_y
_atom_site_fract_z
Rb1 Rb 0.538855(14) 0.161784(13) 0.268616(9)
C1 C 0.14326(16) 0.13344(14) 0.25144(10)
H1 H 0.0640 0.1077 0.2384
P1 P 0.22711(4) 0.05338(3) 0.29922(2)
C2 C 0.10884(16) -0.04495(13) 0.31930(10)
C3 C 0.07906(16) -0.05885(14) 0.39461(10)
H2 H 0.1178 -0.0146 0.4376
C4 C -0.00829(17) -0.13865(15) 0.40556(11)
H3 H -0.0284 -0.1468 0.4559
C5 C -0.06533(17) -0.20598(15) 0.34176(12)
H4 H -0.1230 -0.2597 0.3493
C6 C -0.03625(17) -0.19312(15) 0.26684(12)
H5 H -0.0745 -0.2382 0.2240
C7 C 0.05002(17) -0.11300(14) 0.25558(11)
H6 H 0.0688 -0.1046 0.2051
C8 C 0.28630(16) 0.12474(13) 0.39444(10)
C9 C 0.22992(17) 0.21245(14) 0.43509(10)
H7 H 0.1617 0.2358 0.4134
C10 C 0.27565(19) 0.26499(15) 0.50805(11)
H8 H 0.2381 0.3235 0.5347
C11 C 0.3765(2) 0.23058(16) 0.54092(11)
H9 H 0.4068 0.2659 0.5896
C12 C 0.43273(19) 0.14324(16) 0.50124(11)
H10 H 0.5005 0.1198 0.5234
C13 C 0.38746(17) 0.09076(15) 0.42829(10)
H11 H 0.4254 0.0323 0.4019
N1 N 0.34163(13) -0.00528(11) 0.26484(8)
C14 C 0.33264(15) -0.09954(13) 0.20734(10)
C15 C 0.32886(16) -0.20236(14) 0.22975(10)
C16 C 0.31603(16) -0.29592(14) 0.17321(11)
H12 H 0.3120 -0.3627 0.1891
C17 C 0.30902(16) -0.29254(15) 0.09379(11)
C18 C 0.32191(16) -0.19159(15) 0.07235(10)
H13 H 0.3217 -0.1877 0.0195
C19 C 0.33527(16) -0.09550(14) 0.12692(10)
C20 C 0.35838(18) 0.01071(14) 0.09937(10)
H14 H 0.4317 0.0100 0.0715
H15 H 0.3653 0.0685 0.1436
H16 H 0.2929 0.0212 0.0655
C21 C 0.34175(18) -0.21149(14) 0.31474(10)
H17 H 0.4099 -0.1658 0.3383
H18 H 0.3531 -0.2851 0.3189
H19 H 0.2704 -0.1894 0.3411
C22 C 0.2895(2) -0.39522(16) 0.03406(12)
H20 H 0.2873 -0.3777 -0.0174
H21 H 0.2147 -0.4327 0.0429
H22 H 0.3541 -0.4405 0.0387
P2 P 0.18724(4) 0.25421(3) 0.22489(2)
C23 C 0.11238(16) 0.25352(14) 0.12910(10)
C24 C 0.08050(19) 0.34811(15) 0.10458(12)
H23 H 0.0936 0.4141 0.1382
C25 C 0.0295(2) 0.34437(17) 0.03039(13)
H24 H 0.0094 0.4080 0.0149
C26 C 0.00842(18) 0.24699(17) -0.02048(11)
H25 H -0.0263 0.2449 -0.0698
C27 C 0.03962(17) 0.15261(16) 0.00285(11)
H26 H 0.0261 0.0868 -0.0310
C28 C 0.09135(16) 0.15623(15) 0.07712(11)
H27 H 0.1121 0.0925 0.0921
C29 C 0.11727(16) 0.36730(14) 0.28517(10)
C30 C 0.15572(17) 0.47547(14) 0.28365(11)
H28 H 0.2154 0.4909 0.2499
C31 C 0.10542(18) 0.55980(15) 0.33211(12)
H29 H 0.1304 0.6311 0.3299
C32 C 0.01810(18) 0.53745(16) 0.38370(12)
H30 H -0.0140 0.5936 0.4170
N2 N 0.32932(13) 0.27227(11) 0.22787(8)
C33 C -0.02134(18) 0.43116(16) 0.38554(11)
H31 H -0.0802 0.4161 0.4199
C34 C 0.02718(16) 0.34696(15) 0.33588(11)
H32 H -0.0011 0.2760 0.3366
C35 C 0.40166(15) 0.36536(13) 0.22149(10)
C36 C 0.43979(16) 0.38645(14) 0.14843(11)
C37 C 0.51580(17) 0.47820(14) 0.14541(12)
H33 H 0.5384 0.4924 0.0969
C38 C 0.55903(17) 0.54916(15) 0.21218(13)
C39 C 0.52556(17) 0.52465(15) 0.28378(12)
H34 H 0.5555 0.5698 0.3292
C40 C 0.44902(16) 0.43510(14) 0.28998(11)
C41 C 0.41495(18) 0.41327(16) 0.36948(11)
H35 H 0.3295 0.4147 0.3742
H36 H 0.4546 0.4677 0.4091
H37 H 0.4392 0.3435 0.3756
C42 C 0.40111(18) 0.31051(16) 0.07345(11)
H38 H 0.3998 0.2372 0.0819
H39 H 0.4568 0.3205 0.0336
H40 H 0.3222 0.3256 0.0572
C43 C 0.6386(2) 0.64919(18) 0.20694(16)
H41 H 0.6795 0.6385 0.1585
H42 H 0.6967 0.6628 0.2497
H43 H 0.5904 0.7098 0.2093
C44 C 0.76354(19) 0.34729(15) 0.23696(12)
H44 H 0.6977 0.3641 0.2059
H45 H 0.8364 0.3843 0.2241
H46 H 0.7486 0.3700 0.2913
O1 O 0.77534(12) 0.23337(10) 0.22146(7)
O2 O 0.67433(12) 0.02479(10) 0.14205(8)
C45 C 0.77981(17) 0.19519(15) 0.13991(10)
H47 H 0.8499 0.2290 0.1194
H48 H 0.7087 0.2139 0.1137
C46 C 0.78606(17) 0.07459(15) 0.12481(11)
H49 H 0.8038 0.0498 0.0706
H50 H 0.8498 0.0550 0.1572
C47 C 0.6677(2) -0.08943(16) 0.11755(12)
H51 H 0.7324 -0.1189 0.1421
H52 H 0.6738 -0.1062 0.0619
H53 H 0.5923 -0.1202 0.1322
C48 C 0.6817(2) -0.04743(17) 0.32243(13)
H54 H 0.6030 -0.0808 0.3067
H55 H 0.7249 -0.0940 0.3493
H56 H 0.7244 -0.0352 0.2771
O3 O 0.67118(13) 0.05269(11) 0.37292(8)
O4 O 0.70804(13) 0.28036(12) 0.42259(8)
C49 C 0.78512(19) 0.10644(18) 0.39733(13)
H57 H 0.8252 0.1279 0.3530
H58 H 0.8350 0.0583 0.4192
C50 C 0.7672(2) 0.20434(19) 0.45769(12)
H59 H 0.7194 0.1837 0.4993
H60 H 0.8444 0.2364 0.4802
C51 C 0.6816(2) 0.37106(19) 0.47942(13)
H61 H 0.6515 0.4256 0.4536
H62 H 0.7534 0.3997 0.5094
H63 H 0.6220 0.3489 0.5135
loop_
_geom_bond_atom_site_label_1
_geom_bond_atom_site_label_2
_geom_bond_site_symmetry_1
_geom_bond_site_symmetry_2
Rb1 N1 1_555 1_555
C1 H1 1_555 1_555
P1 C1 1_555 1_555
C2 P1 1_555 1_555
C3 C2 1_555 1_555
H2 C3 1_555 1_555
C4 C3 1_555 1_555
H3 C4 1_555 1_555
C5 C4 1_555 1_555
H4 C5 1_555 1_555
C6 C5 1_555 1_555
H5 C6 1_555 1_555
C7 C2 1_555 1_555
H6 C7 1_555 1_555
C8 P1 1_555 1_555
C9 C8 1_555 1_555
H7 C9 1_555 1_555
C10 C9 1_555 1_555
H8 C10 1_555 1_555
C11 C10 1_555 1_555
H9 C11 1_555 1_555
C12 C11 1_555 1_555
H10 C12 1_555 1_555
C13 C8 1_555 1_555
H11 C13 1_555 1_555
N1 P1 1_555 1_555
C14 N1 1_555 1_555
C15 C14 1_555 1_555
C16 C15 1_555 1_555
H12 C16 1_555 1_555
C17 C16 1_555 1_555
C18 C17 1_555 1_555
H13 C18 1_555 1_555
C19 C14 1_555 1_555
C20 C19 1_555 1_555
H14 C20 1_555 1_555
H15 C20 1_555 1_555
H16 C20 1_555 1_555
C21 C15 1_555 1_555
H17 C21 1_555 1_555
H18 C21 1_555 1_555
H19 C21 1_555 1_555
C22 C17 1_555 1_555
H20 C22 1_555 1_555
H21 C22 1_555 1_555
H22 C22 1_555 1_555
P2 C1 1_555 1_555
C23 P2 1_555 1_555
C24 C23 1_555 1_555
H23 C24 1_555 1_555
C25 C24 1_555 1_555
H24 C25 1_555 1_555
C26 C25 1_555 1_555
H25 C26 1_555 1_555
C27 C26 1_555 1_555
H26 C27 1_555 1_555
C28 C23 1_555 1_555
H27 C28 1_555 1_555
C29 P2 1_555 1_555
C30 C29 1_555 1_555
H28 C30 1_555 1_555
C31 C30 1_555 1_555
H29 C31 1_555 1_555
C32 C31 1_555 1_555
H30 C32 1_555 1_555
N2 Rb1 1_555 1_555
C33 C32 1_555 1_555
H31 C33 1_555 1_555
C34 C29 1_555 1_555
H32 C34 1_555 1_555
C35 N2 1_555 1_555
C36 C35 1_555 1_555
C37 C36 1_555 1_555
H33 C37 1_555 1_555
C38 C37 1_555 1_555
C39 C38 1_555 1_555
H34 C39 1_555 1_555
C40 C35 1_555 1_555
C41 C40 1_555 1_555
H35 C41 1_555 1_555
H36 C41 1_555 1_555
H37 C41 1_555 1_555
C42 C36 1_555 1_555
H38 C42 1_555 1_555
H39 C42 1_555 1_555
H40 C42 1_555 1_555
C43 C38 1_555 1_555
H41 C43 1_555 1_555
H42 C43 1_555 1_555
H43 C43 1_555 1_555
C44 H44 1_555 1_555
H45 C44 1_555 1_555
H46 C44 1_555 1_555
O1 Rb1 1_555 1_555
O2 Rb1 1_555 1_555
C45 O1 1_555 1_555
H47 C45 1_555 1_555
H48 C45 1_555 1_555
C46 O2 1_555 1_555
H49 C46 1_555 1_555
H50 C46 1_555 1_555
C47 O2 1_555 1_555
H51 C47 1_555 1_555
H52 C47 1_555 1_555
H53 C47 1_555 1_555
C48 H54 1_555 1_555
H55 C48 1_555 1_555
H56 C48 1_555 1_555
O3 Rb1 1_555 1_555
O4 Rb1 1_555 1_555
C49 O3 1_555 1_555
H57 C49 1_555 1_555
H58 C49 1_555 1_555
C50 O4 1_555 1_555
H59 C50 1_555 1_555
H60 C50 1_555 1_555
C51 O4 1_555 1_555
H61 C51 1_555 1_555
H62 C51 1_555 1_555
H63 C51 1_555 1_555
C6 C7 1_555 1_555
C12 C13 1_555 1_555
C18 C19 1_555 1_555
P2 N2 1_555 1_555
C27 C28 1_555 1_555
C33 C34 1_555 1_555
C39 C40 1_555 1_555
C44 O1 1_555 1_555
C45 C46 1_555 1_555
C48 O3 1_555 1_555
C49 C50 1_555 1_555

#END
