
#######################################################################
#
#                 Cambridge Crystallographic Data Centre
#                                CCDC 
#
#######################################################################
#
# If this CIF has been generated from an entry in the Cambridge 
# Structural Database, then it will include bibliographic, chemical, 
# crystal, experimental, refinement or atomic coordinate data resulting 
# from the CCDC's data processing and validation procedures.
#
#######################################################################

data_QEJDAN
_chemical_formula_moiety         'C19 H20 N2 O4 S1'
_chemical_name_systematic        
2-({[3-(1,3-benzothiazol-2-yl)-2-hydroxy-5-methylphenyl]methylidene}amino)-2-(hydroxymethyl)propane-1,3-diol
_symmetry_cell_setting           monoclinic
_symmetry_space_group_name_H-M   'P 21/n'
_symmetry_Int_Tables_number      14
_space_group_name_Hall           '-P 2yn'
loop_
_symmetry_equiv_pos_site_id
_symmetry_equiv_pos_as_xyz
1 x,y,z
2 1/2-x,1/2+y,1/2-z
3 -x,-y,-z
4 1/2+x,1/2-y,1/2+z
_cell_length_a                   6.757(5)
_cell_length_b                   12.885(9)
_cell_length_c                   20.418(14)
_cell_angle_alpha                90
_cell_angle_beta                 95.296(8)
_cell_angle_gamma                90
_cell_volume                     1770.08
_exptl_crystal_colour            red
_exptl_crystal_description       needle
_cell_formula_units_Z            4
loop_
_atom_site_label
_atom_site_type_symbol
_atom_site_fract_x
_atom_site_fract_y
_atom_site_fract_z
S1 S 0.7683(2) 0.22933(11) 0.05868(7)
C1 C 0.7446(9) 0.1483(5) -0.0575(3)
C2 C 0.7304(11) 0.0728(6) -0.1070(4)
H1 H 0.7225 0.0910 -0.1513
C3 C 0.7286(13) -0.0291(6) -0.0877(5)
H2 H 0.7177 -0.0808 -0.1196
C4 C 0.7426(13) -0.0573(6) -0.0221(5)
H3 H 0.7429 -0.1274 -0.0113
C5 C 0.7561(11) 0.0159(5) 0.0281(4)
H4 H 0.7645 -0.0035 0.0721
C6 C 0.7566(9) 0.1195(5) 0.0093(3)
C7 C 0.7578(8) 0.3068(4) -0.0120(3)
C8 C 0.7583(8) 0.4206(4) -0.0086(3)
C9 C 0.7598(8) 0.4792(4) -0.0652(3)
H5 H 0.7686 0.4449 -0.1049
C10 C 0.7487(8) 0.5883(4) -0.0659(3)
C11 C 0.7430(11) 0.6467(5) -0.1301(3)
H6 H 0.8133 0.6080 -0.1608
H7 H 0.8045 0.7133 -0.1227
H8 H 0.6074 0.6559 -0.1477
C12 C 0.7337(8) 0.6367(4) -0.0064(3)
H9 H 0.7223 0.7086 -0.0056
C13 C 0.7350(8) 0.5819(4) 0.0536(3)
C14 C 0.7491(8) 0.4703(4) 0.0543(3)
C15 C 0.7069(9) 0.6366(4) 0.1119(3)
H10 H 0.6972 0.7085 0.1102
C16 C 0.6655(9) 0.6398(5) 0.2318(3)
C17 C 0.5158(9) 0.7298(5) 0.2243(3)
H11 H 0.5092 0.7630 0.2667
H12 H 0.5624 0.7810 0.1944
C18 C 0.5861(10) 0.5551(5) 0.2758(3)
H13 H 0.5692 0.5835 0.3189
H14 H 0.4577 0.5309 0.2566
C19 C 0.8661(9) 0.6817(5) 0.2631(3)
H15 H 0.8487 0.7098 0.3063
H16 H 0.9612 0.6253 0.2686
O1 O 0.7528(6) 0.4180(3) 0.10786(19)
H17 H 0.7819 0.4565 0.1393
O2 O 0.3197(6) 0.6962(4) 0.1997(2)
O3 O 0.7235(8) 0.4703(4) 0.2819(3)
H18 H 0.6621 0.4153 0.2794
O4 O 0.9417(7) 0.7605(3) 0.2233(2)
H19 H 1.0580 0.7478 0.2179
N1 N 0.7434(8) 0.2553(4) -0.0682(2)
N2 N 0.6940(7) 0.5897(4) 0.1682(2)
H20 H 0.303(9) 0.704(5) 0.158(3)
loop_
_geom_bond_atom_site_label_1
_geom_bond_atom_site_label_2
_geom_bond_site_symmetry_1
_geom_bond_site_symmetry_2
S1 C6 1_555 1_555
C1 C2 1_555 1_555
C2 H1 1_555 1_555
C3 C2 1_555 1_555
H2 C3 1_555 1_555
C4 C3 1_555 1_555
H3 C4 1_555 1_555
C5 C4 1_555 1_555
H4 C5 1_555 1_555
C6 C1 1_555 1_555
C7 S1 1_555 1_555
C8 C7 1_555 1_555
C9 C8 1_555 1_555
H5 C9 1_555 1_555
C10 C9 1_555 1_555
C11 C10 1_555 1_555
H6 C11 1_555 1_555
H7 C11 1_555 1_555
H8 C11 1_555 1_555
C12 C10 1_555 1_555
H9 C12 1_555 1_555
C13 C12 1_555 1_555
C14 C8 1_555 1_555
C15 C13 1_555 1_555
H10 C15 1_555 1_555
C16 C17 1_555 1_555
C17 H11 1_555 1_555
H12 C17 1_555 1_555
C18 C16 1_555 1_555
H13 C18 1_555 1_555
H14 C18 1_555 1_555
C19 C16 1_555 1_555
H15 C19 1_555 1_555
H16 C19 1_555 1_555
O1 C14 1_555 1_555
H17 O1 1_555 1_555
O2 C17 1_555 1_555
O3 C18 1_555 1_555
H18 O3 1_555 1_555
O4 C19 1_555 1_555
H19 O4 1_555 1_555
N1 C1 1_555 1_555
N2 C15 1_555 1_555
H20 O2 1_555 1_555
C5 C6 1_555 1_555
C7 N1 1_555 1_555
C13 C14 1_555 1_555
C16 N2 1_555 1_555

#END
