
#######################################################################
#
#                 Cambridge Crystallographic Data Centre
#                                CCDC 
#
#######################################################################
#
# If this CIF has been generated from an entry in the Cambridge 
# Structural Database, then it will include bibliographic, chemical, 
# crystal, experimental, refinement or atomic coordinate data resulting 
# from the CCDC's data processing and validation procedures.
#
#######################################################################

data_QEKMEZ
_chemical_formula_moiety         'C21 H23 Br1 N2 O6'
_chemical_name_systematic        
(+)-(R^p^)-12-Benzoyloxy-1^4^-bromo-4,12-dioxo-5,11-diaza-2,8,14-trioxa-1(1,3)-benzenatetradecacyclophane
_symmetry_cell_setting           monoclinic
_symmetry_space_group_name_H-M   'P 21'
_symmetry_Int_Tables_number      4
_space_group_name_Hall           'P 2yb'
loop_
_symmetry_equiv_pos_site_id
_symmetry_equiv_pos_as_xyz
1 x,y,z
2 -x,1/2+y,-z
_cell_length_a                   10.567(2)
_cell_length_b                   8.9840(18)
_cell_length_c                   11.525(2)
_cell_angle_alpha                90
_cell_angle_beta                 103.34(3)
_cell_angle_gamma                90
_cell_volume                     1064.59
_cell_formula_units_Z            2
_exptl_crystal_recrystallization_method methanol/pentane
loop_
_atom_site_label
_atom_site_type_symbol
_atom_site_fract_x
_atom_site_fract_y
_atom_site_fract_z
Br1 Br 0.55043(3) 0.97252(4) 0.47017(3)
C1 C 0.3972(3) 0.8573(3) 0.4164(3)
C2 C 0.3735(3) 0.7829(3) 0.3071(3)
C3 C 0.2577(3) 0.7051(3) 0.2681(3)
C4 C 0.1683(3) 0.6957(4) 0.3375(3)
C5 C 0.1905(3) 0.7732(3) 0.4453(3)
H1 H 0.1273 0.7718 0.4920
C6 C 0.3065(3) 0.8529(3) 0.4843(3)
H2 H 0.3223 0.9043 0.5583
C7 C 0.5816(3) 0.7160(4) 0.2710(3)
H3 H 0.5969 0.6953 0.3575
H4 H 0.6514 0.7835 0.2588
C8 C 0.5899(3) 0.5727(4) 0.2064(3)
C9 C 0.4792(4) 0.3842(4) 0.0655(4)
H5 H 0.5652 0.3661 0.0477
H6 H 0.4140 0.3909 -0.0113
C10 C 0.4456(4) 0.2554(4) 0.1359(4)
H7 H 0.4587 0.1603 0.0969
H8 H 0.5022 0.2557 0.2174
C11 C 0.0857(3) 0.3651(4) 0.3783(3)
C12 C 0.0169(3) 0.5126(3) 0.3717(3)
H9 H -0.0780 0.4959 0.3455
H10 H 0.0345 0.5574 0.4523
C13 C 0.1399(3) 0.7002(4) 0.0640(3)
H11 H 0.1593 0.8077 0.0610
H12 H 0.0514 0.6890 0.0780
C14 C 0.1472(3) 0.6272(3) -0.0509(3)
C15 C 0.1810(3) 0.7068(4) -0.1405(3)
H13 H 0.2012 0.8096 -0.1294
C16 C 0.1859(4) 0.6402(5) -0.2454(3)
H14 H 0.2104 0.6967 -0.3064
C17 C 0.1555(3) 0.4907(6) -0.2642(3)
H15 H 0.1572 0.4452 -0.3383
C18 C 0.1233(3) 0.4098(4) -0.1752(3)
H16 H 0.1044 0.3067 -0.1867
C19 C 0.1181(3) 0.4758(5) -0.0695(2)
H17 H 0.0946 0.4186 -0.0084
C22 C 0.2409(11) 0.1548(8) 0.1864(10)
H22 H 0.1515 0.1478 0.1360
H23 H 0.2838 0.0568 0.1867
C23 C 0.2378(13) 0.1990(16) 0.3075(14)
H24 H 0.3266 0.2222 0.3542
H25 H 0.2015 0.1180 0.3482
N1 N 0.1513(3) 0.3371(3) 0.2960(3)
H26 H 0.1774 0.4125 0.2587
N2 N 0.4826(3) 0.5231(3) 0.1281(3)
H27 H 0.4119 0.5782 0.1149
O1 O 0.45749(19) 0.7908(2) 0.23230(18)
O2 O 0.2357(2) 0.6284(2) 0.16054(17)
O3 O 0.0565(2) 0.6152(2) 0.29115(19)
O4 O 0.3148(3) 0.2706(3) 0.1411(2)
O5 O 0.6958(2) 0.5078(3) 0.2285(2)
O6 O 0.0751(2) 0.2776(3) 0.4573(2)
C20? C 0.3213(14) 0.1815(9) 0.2533(12)
H18? H 0.3808 0.2280 0.3229
H19? H 0.3494 0.0779 0.2444
C21? C 0.1817(16) 0.1877(18) 0.2645(14)
H20? H 0.1229 0.1586 0.1879
H21? H 0.1689 0.1170 0.3267
loop_
_geom_bond_atom_site_label_1
_geom_bond_atom_site_label_2
_geom_bond_site_symmetry_1
_geom_bond_site_symmetry_2
Br1 C1 1_555 1_555
C1 C2 1_555 1_555
C2 C3 1_555 1_555
C3 C4 1_555 1_555
C4 C5 1_555 1_555
C5 H1 1_555 1_555
C6 C1 1_555 1_555
H2 C6 1_555 1_555
C7 H3 1_555 1_555
H4 C7 1_555 1_555
C8 C7 1_555 1_555
C9 H5 1_555 1_555
H6 C9 1_555 1_555
C10 C9 1_555 1_555
H7 C10 1_555 1_555
H8 C10 1_555 1_555
C11 C12 1_555 1_555
C12 H9 1_555 1_555
H10 C12 1_555 1_555
C13 H11 1_555 1_555
H12 C13 1_555 1_555
C14 C13 1_555 1_555
C15 C14 1_555 1_555
H13 C15 1_555 1_555
C16 C15 1_555 1_555
H14 C16 1_555 1_555
C17 C16 1_555 1_555
H15 C17 1_555 1_555
C18 C17 1_555 1_555
H16 C18 1_555 1_555
C19 C14 1_555 1_555
H17 C19 1_555 1_555
C22 H22 1_555 1_555
H23 C22 1_555 1_555
C23 C22 1_555 1_555
H24 C23 1_555 1_555
H25 C23 1_555 1_555
N1 C11 1_555 1_555
H26 N1 1_555 1_555
N2 C8 1_555 1_555
H27 N2 1_555 1_555
O1 C2 1_555 1_555
O2 C3 1_555 1_555
O3 C4 1_555 1_555
O4 C10 1_555 1_555
O5 C8 1_555 1_555
O6 C11 1_555 1_555
C5 C6 1_555 1_555
C7 O1 1_555 1_555
C9 N2 1_555 1_555
C12 O3 1_555 1_555
C13 O2 1_555 1_555
C18 C19 1_555 1_555
C22 O4 1_555 1_555
C23 N1 1_555 1_555

#END
