
#######################################################################
#
#                 Cambridge Crystallographic Data Centre
#                                CCDC 
#
#######################################################################
#
# If this CIF has been generated from an entry in the Cambridge 
# Structural Database, then it will include bibliographic, chemical, 
# crystal, experimental, refinement or atomic coordinate data resulting 
# from the CCDC's data processing and validation procedures.
#
#######################################################################

data_QEKMIF
_chemical_formula_moiety         'C8 H7 N1 O5,H2 O1'
_chemical_name_systematic        
'4-methoxypyridine-2,6-dicarboxylic acid monohydrate'
_symmetry_cell_setting           triclinic
_symmetry_space_group_name_H-M   'P -1'
_symmetry_Int_Tables_number      2
_space_group_name_Hall           '-P 1'
loop_
_symmetry_equiv_pos_site_id
_symmetry_equiv_pos_as_xyz
1 x,y,z
2 -x,-y,-z
_cell_length_a                   7.6703(5)
_cell_length_b                   7.7157(5)
_cell_length_c                   8.4694(6)
_cell_angle_alpha                72.119(2)
_cell_angle_beta                 89.928(2)
_cell_angle_gamma                67.662(2)
_cell_volume                     437.415
_exptl_crystal_colour            colorless
_exptl_crystal_description       plates
_cell_formula_units_Z            2
loop_
_atom_site_label
_atom_site_type_symbol
_atom_site_fract_x
_atom_site_fract_y
_atom_site_fract_z
N1 N 0.3873(2) 0.5175(2) 0.7810(2)
C1 C 0.4841(3) 0.3427(3) 0.9033(2)
C2 C 0.6764(3) 0.2324(3) 0.9176(3)
H1 H 0.7361 0.1106 1.0068
C3 C 0.7822(3) 0.3015(3) 0.7998(2)
C4 C 0.6880(3) 0.4830(3) 0.6740(2)
H2 H 0.7550 0.5376 0.5925
C5 C 0.4927(3) 0.5830(3) 0.6705(2)
C6 C 0.3736(3) 0.2653(3) 1.0344(3)
O1 O 0.1916(2) 0.3691(2) 1.00750(18)
H3 H 0.145(3) 0.319(3) 1.096(2)
O2 O 0.4573(2) 0.1160(2) 1.15498(18)
O3 O 0.96882(18) 0.1876(2) 0.81586(17)
C7 C 1.0768(3) 0.2550(3) 0.6909(3)
H4 H 1.2083 0.1562 0.7140
H5 H 1.0755 0.3817 0.6933
H6 H 1.0204 0.2730 0.5802
C8 C 0.3877(3) 0.7779(3) 0.5335(3)
O4 O 0.50461(19) 0.8284(2) 0.43150(18)
H7 H 0.451(3) 0.940(3) 0.347(2)
O5 O 0.21854(19) 0.8746(2) 0.51697(18)
O6 O -0.0242(2) 0.7432(2) 0.7496(2)
H8 H 0.097(2) 0.678(4) 0.762(3)
H9 H -0.067(4) 0.853(3) 0.679(3)
loop_
_geom_bond_atom_site_label_1
_geom_bond_atom_site_label_2
_geom_bond_site_symmetry_1
_geom_bond_site_symmetry_2
N1 C1 1_555 1_555
C1 C2 1_555 1_555
C2 H1 1_555 1_555
C3 C2 1_555 1_555
C4 C3 1_555 1_555
H2 C4 1_555 1_555
C5 N1 1_555 1_555
C6 C1 1_555 1_555
O1 C6 1_555 1_555
H3 O1 1_555 1_555
O2 C6 1_555 1_555
O3 C3 1_555 1_555
C7 O3 1_555 1_555
H4 C7 1_555 1_555
H5 C7 1_555 1_555
H6 C7 1_555 1_555
C8 C5 1_555 1_555
O4 C8 1_555 1_555
H7 O4 1_555 1_555
O5 C8 1_555 1_555
O6 H8 1_555 1_555
H9 O6 1_555 1_555
C4 C5 1_555 1_555

#END
