
#######################################################################
#
#                 Cambridge Crystallographic Data Centre
#                                CCDC 
#
#######################################################################
#
# If this CIF has been generated from an entry in the Cambridge 
# Structural Database, then it will include bibliographic, chemical, 
# crystal, experimental, refinement or atomic coordinate data resulting 
# from the CCDC's data processing and validation procedures.
#
#######################################################################

data_QEKMID
_chemical_formula_moiety         'C27 H26 Br1 N3 O7,C1 H4 O1'
_chemical_name_systematic        
'rac-9^2^-Benzamido-1^4^-bromo-6,12-dioxo-5,13-diaza-2,8,10,16-tetraoxa-1(1,2),9(1,3)-dibenzenahexadecacyclophane methanol solvate'
_symmetry_cell_setting           monoclinic
_symmetry_space_group_name_H-M   'P 21'
_symmetry_Int_Tables_number      4
_space_group_name_Hall           'P 2yb'
loop_
_symmetry_equiv_pos_site_id
_symmetry_equiv_pos_as_xyz
1 x,y,z
2 -x,1/2+y,-z
_cell_length_a                   8.4590(17)
_cell_length_b                   14.840(3)
_cell_length_c                   11.586(2)
_cell_angle_alpha                90
_cell_angle_beta                 106.35(3)
_cell_angle_gamma                90
_cell_volume                     1395.59
_exptl_crystal_colour            colorless
_exptl_crystal_description       prismatic
_cell_formula_units_Z            2
loop_
_atom_site_label
_atom_site_type_symbol
_atom_site_fract_x
_atom_site_fract_y
_atom_site_fract_z
Br1 Br 1.4710(3) -0.19514(17) 0.8831(2)
N1 N 0.9481(14) 0.3801(6) 0.8108(8)
H1 H 0.9754 0.4360 0.8134
N2 N 0.9939(16) 0.2428(8) 0.4774(9)
H2 H 0.9441 0.2645 0.5265
N3 N 0.8255(13) 0.1161(7) 0.9258(10)
H3 H 0.8102 0.1641 0.8824
O1 O 1.1192(10) 0.3639(5) 0.6511(7)
O2 O 1.1922(14) 0.2632(7) 0.3915(9)
O3 O 0.9989(11) 0.0579(6) 0.5595(8)
O4 O 0.9398(11) 0.0098(6) 0.7574(7)
O5 O 0.9231(9) 0.0582(6) 1.1114(8)
O6 O 1.0067(10) 0.2708(5) 1.0013(7)
O7 O 0.7382(11) 0.2815(6) 0.7777(9)
C1 C 0.6899(17) 0.5173(12) 0.7475(11)
H4 H 0.7743 0.5299 0.7131
C2 C 0.579(2) 0.5860(11) 0.7532(13)
H5 H 0.5908 0.6439 0.7260
C3 C 0.450(2) 0.564(2) 0.8011(18)
H6 H 0.3723 0.6078 0.8056
C4 C 0.438(2) 0.482(2) 0.840(2)
H7 H 0.3498 0.4689 0.8709
C5 C 0.544(2) 0.4144(12) 0.8386(13)
H8 H 0.5302 0.3575 0.8681
C6 C 0.6791(17) 0.4328(10) 0.7904(11)
C7 C 0.791(2) 0.3573(10) 0.7935(11)
C8 C 1.0718(15) 0.3119(8) 0.8250(11)
C9 C 1.1568(15) 0.3003(9) 0.7423(11)
C10 C 1.2010(15) 0.3542(9) 0.5567(11)
H9 H 1.3168 0.3414 0.5930
H10 H 1.1931 0.4106 0.5131
C11 C 1.1270(17) 0.2808(9) 0.4710(12)
C12 C 0.924(2) 0.1657(13) 0.4067(12)
H11 H 0.9171 0.1770 0.3230
H12 H 0.8125 0.1563 0.4123
C13 C 1.024(2) 0.0814(11) 0.4480(12)
H13 H 0.9876 0.0332 0.3901
H14 H 1.1398 0.0929 0.4572
C14 C 1.108(2) -0.0012(10) 0.6269(14)
C15 C 1.2417(19) -0.0389(10) 0.5980(13)
H15 H 1.2622 -0.0235 0.5258
C16 C 1.348(2) -0.1007(11) 0.6764(18)
C17 C 1.315(2) -0.1188(12) 0.7807(18)
C18 C 1.184(2) -0.0837(9) 0.8149(12)
H16 H 1.1690 -0.0979 0.8892
C19 C 1.0760(17) -0.0264(9) 0.7356(11)
C20 C 0.8854(19) -0.0281(10) 0.8529(12)
H17 H 0.9763 -0.0326 0.9255
H18 H 0.8400 -0.0878 0.8312
C21 C 0.7553(19) 0.0345(9) 0.8720(12)
H19 H 0.6760 0.0474 0.7952
H20 H 0.6973 0.0055 0.9231
C22 C 0.9133(18) 0.1222(9) 1.0390(15)
C23 C 1.0039(17) 0.2056(8) 1.0911(10)
H21 H 0.9521 0.2318 1.1480
H22 H 1.1162 0.1899 1.1346
C24 C 1.0974(16) 0.2544(9) 0.9234(11)
C25 C 1.2098(17) 0.1855(9) 0.9364(11)
H23 H 1.2275 0.1458 1.0008
C26 C 1.2958(15) 0.1765(9) 0.8518(12)
H24 H 1.3704 0.1292 0.8600
C27 C 1.2764(18) 0.2334(9) 0.7577(13)
H25 H 1.3409 0.2281 0.7050
C28 C 0.546(4) 0.138(3) 0.596(4)
O8 O 0.639(7) 0.177(4) 0.556(3)
Br2? Br 1.5148(5) -0.1522(3) 0.6460(4)
loop_
_geom_bond_atom_site_label_1
_geom_bond_atom_site_label_2
_geom_bond_site_symmetry_1
_geom_bond_site_symmetry_2
Br1 C17 1_555 1_555
N1 H1 1_555 1_555
N2 H2 1_555 1_555
N3 H3 1_555 1_555
O1 C9 1_555 1_555
O2 C11 1_555 1_555
O3 C13 1_555 1_555
O4 C19 1_555 1_555
O5 C22 1_555 1_555
O6 C23 1_555 1_555
O7 C7 1_555 1_555
C1 H4 1_555 1_555
C2 C1 1_555 1_555
H5 C2 1_555 1_555
C3 C2 1_555 1_555
H6 C3 1_555 1_555
C4 C3 1_555 1_555
H7 C4 1_555 1_555
C5 C4 1_555 1_555
H8 C5 1_555 1_555
C6 C1 1_555 1_555
C7 N1 1_555 1_555
C8 N1 1_555 1_555
C9 C8 1_555 1_555
C10 O1 1_555 1_555
H9 C10 1_555 1_555
H10 C10 1_555 1_555
C11 N2 1_555 1_555
C12 N2 1_555 1_555
H11 C12 1_555 1_555
H12 C12 1_555 1_555
C13 C12 1_555 1_555
H13 C13 1_555 1_555
H14 C13 1_555 1_555
C14 O3 1_555 1_555
C15 C14 1_555 1_555
H15 C15 1_555 1_555
C16 C15 1_555 1_555
C17 C16 1_555 1_555
C18 C17 1_555 1_555
H16 C18 1_555 1_555
C19 C14 1_555 1_555
C20 O4 1_555 1_555
H17 C20 1_555 1_555
H18 C20 1_555 1_555
C21 N3 1_555 1_555
H19 C21 1_555 1_555
H20 C21 1_555 1_555
C22 N3 1_555 1_555
C23 C22 1_555 1_555
H21 C23 1_555 1_555
H22 C23 1_555 1_555
C24 O6 1_555 1_555
C25 C24 1_555 1_555
H23 C25 1_555 1_555
C26 C25 1_555 1_555
H24 C26 1_555 1_555
C27 C9 1_555 1_555
H25 C27 1_555 1_555
C28 O8 1_555 1_555
C5 C6 1_555 1_555
C6 C7 1_555 1_555
C8 C24 1_555 1_555
C10 C11 1_555 1_555
C18 C19 1_555 1_555
C20 C21 1_555 1_555
C26 C27 1_555 1_555

#END
