
#######################################################################
#
#                 Cambridge Crystallographic Data Centre
#                                CCDC 
#
#######################################################################
#
# If this CIF has been generated from an entry in the Cambridge 
# Structural Database, then it will include bibliographic, chemical, 
# crystal, experimental, refinement or atomic coordinate data resulting 
# from the CCDC's data processing and validation procedures.
#
#######################################################################

data_QEKMEB
_chemical_formula_moiety         'C22 H25 N3 O3,C1 H4 O1'
_chemical_name_systematic        
'5-[1-(4-methyl-2-oxo-1-oxaspiro[4.5]dec-3-en-3-yl)ethylidene]-2-[(2-methylphenyl)amino]-1,5-dihydro-4H-imidazol-4-one methanol solvate'
_symmetry_cell_setting           monoclinic
_symmetry_space_group_name_H-M   'P 21/c'
_symmetry_Int_Tables_number      14
_space_group_name_Hall           '-P 2ybc'
loop_
_symmetry_equiv_pos_site_id
_symmetry_equiv_pos_as_xyz
1 x,y,z
2 -x,1/2+y,1/2-z
3 -x,-y,-z
4 x,1/2-y,1/2+z
_cell_length_a                   16.0054(15)
_cell_length_b                   12.5233(6)
_cell_length_c                   10.884(2)
_cell_angle_alpha                90
_cell_angle_beta                 104.111(14)
_cell_angle_gamma                90
_cell_volume                     2115.76
_cell_formula_units_Z            4
loop_
_atom_site_label
_atom_site_type_symbol
_atom_site_fract_x
_atom_site_fract_y
_atom_site_fract_z
O1 O 0.13456(8) 0.71150(10) 0.78620(13)
O2 O 0.42500(8) 0.66678(10) 0.94499(12)
N1 N 0.08727(10) 0.43993(12) 0.75240(15)
H1 H 0.0944 0.3719 0.7515
O3 O 0.37684(9) 0.53571(10) 1.04994(12)
N2 N -0.06396(10) 0.43967(12) 0.70221(16)
H2 H -0.0647 0.3710 0.6994
C1 C 0.23752(12) 0.49473(14) 0.81219(17)
N3 N 0.01759(10) 0.59747(12) 0.74120(15)
C2 C 0.55926(12) 0.75430(15) 0.8281(2)
H3 H 0.6063 0.7423 0.7880
H4 H 0.5778 0.7313 0.9156
C3 C 0.38386(12) 0.82793(14) 0.82077(18)
H5 H 0.3620 0.8543 0.7352
H6 H 0.3392 0.8380 0.8661
C4 C -0.26924(12) 0.55680(14) 0.73622(19)
H7 H -0.3041 0.5578 0.7932
C5 C -0.29395(12) 0.61378(15) 0.6247(2)
H8 H -0.3451 0.6525 0.6074
C6 C 0.32469(12) 0.64706(14) 0.75075(18)
C7 C 0.26835(12) 0.38156(14) 0.8365(2)
H9 H 0.3233 0.3740 0.8168
H10 H 0.2276 0.3341 0.7842
H11 H 0.2738 0.3643 0.9240
C8 C -0.19306(12) 0.49774(14) 0.76513(19)
C9 C 0.46291(12) 0.89290(15) 0.88552(19)
H12 H 0.4804 0.8735 0.9744
H13 H 0.4484 0.9682 0.8803
C10 C 0.30467(12) 0.57719(14) 0.83175(17)
C11 C 0.15314(12) 0.51726(14) 0.77672(17)
C12 C 0.01117(11) 0.49136(14) 0.73073(17)
C13 C -0.24310(13) 0.61362(15) 0.53859(19)
H14 H -0.2594 0.6529 0.4640
C14 C -0.14343(11) 0.49760(14) 0.67618(18)
C15 C -0.16473(14) 0.43854(17) 0.8875(2)
H15 H -0.1134 0.4708 0.9380
H16 H -0.1532 0.3655 0.8706
H17 H -0.2094 0.4413 0.9323
C16 C 0.36975(12) 0.58609(14) 0.95369(18)
C17 C -0.16797(12) 0.55465(15) 0.56429(19)
H18 H -0.1338 0.5533 0.5063
C18 C 0.28138(13) 0.66526(16) 0.61540(19)
H19 H 0.3210 0.6505 0.5640
H20 H 0.2628 0.7382 0.6036
H21 H 0.2324 0.6189 0.5911
C19 C 0.53744(12) 0.87323(15) 0.82366(19)
H22 H 0.5875 0.9135 0.8679
H23 H 0.5216 0.8973 0.7363
C20 C 0.40338(12) 0.70883(14) 0.81573(17)
C21 C 0.10411(12) 0.62128(14) 0.76820(18)
C22 C 0.48120(12) 0.68875(15) 0.76034(19)
H24 H 0.4958 0.6135 0.7677
H25 H 0.4662 0.7070 0.6710
O4 O -0.08079(9) 0.73779(10) 0.83610(14)
H26 H -0.0547 0.6990 0.7974
C23 C -0.0518(2) 0.7191(2) 0.9653(2)
H27 H -0.0159 0.7773 1.0041
H28 H -0.0192 0.6540 0.9789
H29 H -0.1002 0.7130 1.0023
loop_
_geom_bond_atom_site_label_1
_geom_bond_atom_site_label_2
_geom_bond_site_symmetry_1
_geom_bond_site_symmetry_2
O1 C21 1_555 1_555
O2 C16 1_555 1_555
N1 H1 1_555 1_555
O3 C16 1_555 1_555
N2 H2 1_555 1_555
C1 C7 1_555 1_555
N3 C12 1_555 1_555
C2 H3 1_555 1_555
H4 C2 1_555 1_555
C3 H5 1_555 1_555
H6 C3 1_555 1_555
C4 H7 1_555 1_555
C5 C4 1_555 1_555
H8 C5 1_555 1_555
C6 C10 1_555 1_555
C7 H9 1_555 1_555
H10 C7 1_555 1_555
H11 C7 1_555 1_555
C8 C4 1_555 1_555
C9 C3 1_555 1_555
H12 C9 1_555 1_555
H13 C9 1_555 1_555
C10 C1 1_555 1_555
C11 N1 1_555 1_555
C12 N1 1_555 1_555
C13 C5 1_555 1_555
H14 C13 1_555 1_555
C14 N2 1_555 1_555
C15 C8 1_555 1_555
H15 C15 1_555 1_555
H16 C15 1_555 1_555
H17 C15 1_555 1_555
C16 C10 1_555 1_555
C17 C13 1_555 1_555
H18 C17 1_555 1_555
C18 C6 1_555 1_555
H19 C18 1_555 1_555
H20 C18 1_555 1_555
H21 C18 1_555 1_555
C19 C2 1_555 1_555
H22 C19 1_555 1_555
H23 C19 1_555 1_555
C20 O2 1_555 1_555
C21 N3 1_555 1_555
C22 C2 1_555 1_555
H24 C22 1_555 1_555
H25 C22 1_555 1_555
O4 H26 1_555 1_555
C23 O4 1_555 1_555
H27 C23 1_555 1_555
H28 C23 1_555 1_555
H29 C23 1_555 1_555
N2 C12 1_555 1_555
C1 C11 1_555 1_555
C3 C20 1_555 1_555
C6 C20 1_555 1_555
C8 C14 1_555 1_555
C9 C19 1_555 1_555
C11 C21 1_555 1_555
C14 C17 1_555 1_555
C20 C22 1_555 1_555

#END
