
#######################################################################
#
#                 Cambridge Crystallographic Data Centre
#                                CCDC 
#
#######################################################################
#
# If this CIF has been generated from an entry in the Cambridge 
# Structural Database, then it will include bibliographic, chemical, 
# crystal, experimental, refinement or atomic coordinate data resulting 
# from the CCDC's data processing and validation procedures.
#
#######################################################################

data_QEKVUX
_chemical_formula_moiety         'C24 H31 Cl1 O5'
_chemical_name_systematic        
'Ethyl 8-chloro-3-isopropyl-5,5,11a-trimethyl-9-oxo-6a,7,7a,8,9,10,11,11a-octahydrophenanthro(1,10-de)(1,3)dioxine-8-carboxylate'
_symmetry_cell_setting           triclinic
_symmetry_space_group_name_H-M   'P -1'
_symmetry_Int_Tables_number      2
_space_group_name_Hall           '-P 1'
loop_
_symmetry_equiv_pos_site_id
_symmetry_equiv_pos_as_xyz
1 x,y,z
2 -x,-y,-z
_cell_length_a                   6.198(2)
_cell_length_b                   13.526(2)
_cell_length_c                   14.145(3)
_cell_angle_alpha                82.21(2)
_cell_angle_beta                 87.28(2)
_cell_angle_gamma                82.43(2)
_cell_volume                     1164.12
_exptl_crystal_colour            colorless
_cell_formula_units_Z            2
loop_
_atom_site_label
_atom_site_type_symbol
_atom_site_fract_x
_atom_site_fract_y
_atom_site_fract_z
Cl1 Cl 0.5316(2) 0.5676(1) 0.6946(1)
O1 O 0.2516(6) 0.4473(3) 0.5614(3)
O2 O -0.0116(5) 0.4542(3) 0.7461(3)
O3 O 0.3281(6) 0.4065(3) 0.7975(3)
O4 O -0.0812(5) 0.7822(3) 0.9082(2)
O5 O -0.3831(7) 0.9030(3) 0.8621(3)
C1 C 0.0984(7) 0.7426(3) 0.6218(3)
C2 C 0.0514(8) 0.7078(4) 0.5269(4)
C3 C 0.2181(8) 0.6195(4) 0.5004(4)
C4 C 0.2385(7) 0.5337(4) 0.5765(4)
C5 C 0.2524(7) 0.5551(3) 0.6805(4)
C6 C 0.0974(7) 0.6493(3) 0.6995(3)
C7 C 0.1082(8) 0.6754(4) 0.7994(4)
C8 C -0.1034(7) 0.7375(3) 0.8221(3)
C9 C -0.1628(7) 0.8234(3) 0.7435(3)
C10 C -0.0821(7) 0.8250(3) 0.6501(3)
C11 C -0.1585(8) 0.9044(3) 0.5843(3)
C12 C -0.3073(8) 0.9820(4) 0.6115(4)
C13 C -0.3820(8) 0.9853(3) 0.7048(4)
C14 C -0.3057(8) 0.9045(3) 0.7687(3)
C15 C 0.3112(8) 0.7911(4) 0.6132(4)
C16 C 0.2007(8) 0.4635(4) 0.7491(4)
C17 C -0.091(1) 0.3740(5) 0.8084(6)
C18 C -0.145(1) 0.4036(7) 0.9004(8)
C19 C -0.2728(9) 0.8392(4) 0.9388(4)
C20 C -0.443(1) 0.7703(6) 0.9821(6)
C21 C -0.209(1) 0.9027(7) 1.0039(6)
C22 C -0.5395(9) 1.0712(4) 0.7357(4)
C23 C -0.775(1) 1.0477(6) 0.7323(7)
C24 C -0.515(2) 1.1712(5) 0.6788(8)
H1 H 0.0522 0.7630 0.4773
H2 H -0.0909 0.6866 0.5317
H3 H 0.3568 0.6429 0.4890
H4 H 0.1748 0.5976 0.4442
H5 H -0.0436 0.6299 0.6973
H6 H 0.2270 0.7133 0.8030
H7 H 0.1300 0.6156 0.8437
H8 H -0.2175 0.6956 0.8316
H9 H -0.1117 0.9059 0.5192
H10 H -0.3587 1.0356 0.5642
H11 H 0.4284 0.7438 0.5956
H12 H 0.3392 0.8112 0.6727
H13 H 0.2969 0.8483 0.5657
H14 H 0.0185 0.3175 0.8136
H15 H -0.2174 0.3567 0.7824
H16 H -0.0169 0.4201 0.9264
H17 H -0.1966 0.3493 0.9406
H18 H -0.2522 0.4601 0.8949
H19 H -0.5647 0.8108 1.0055
H20 H -0.3771 0.7258 1.0344
H21 H -0.4828 0.7336 0.9360
H22 H -0.1115 0.9452 0.9720
H23 H -0.1405 0.8618 1.0567
H24 H -0.3349 0.9425 1.0260
H25 H -0.5108 1.0756 0.8006
H26 H -0.8755 1.1020 0.7510
H27 H -0.7959 0.9879 0.7736
H28 H -0.8071 1.0386 0.6685
H29 H -0.3647 1.1840 0.6833
H30 H -0.6062 1.2223 0.7060
H31 H -0.5447 1.1705 0.6153
loop_
_geom_bond_atom_site_label_1
_geom_bond_atom_site_label_2
_geom_bond_site_symmetry_1
_geom_bond_site_symmetry_2
Cl1 C5 1_555 1_555
O1 C4 1_555 1_555
O2 C16 1_555 1_555
O3 C16 1_555 1_555
O4 C8 1_555 1_555
O5 C14 1_555 1_555
C1 C2 1_555 1_555
C2 C3 1_555 1_555
C3 C4 1_555 1_555
C4 C5 1_555 1_555
C5 C6 1_555 1_555
C6 C1 1_555 1_555
C7 C6 1_555 1_555
C8 C7 1_555 1_555
C9 C8 1_555 1_555
C10 C1 1_555 1_555
C11 C10 1_555 1_555
C12 C11 1_555 1_555
C13 C12 1_555 1_555
C14 C9 1_555 1_555
C15 C1 1_555 1_555
C16 C5 1_555 1_555
C17 O2 1_555 1_555
C18 C17 1_555 1_555
C19 O4 1_555 1_555
C20 C19 1_555 1_555
C21 C19 1_555 1_555
C22 C13 1_555 1_555
C23 C22 1_555 1_555
C24 C22 1_555 1_555
H1 C2 1_555 1_555
H2 C2 1_555 1_555
H3 C3 1_555 1_555
H4 C3 1_555 1_555
H5 C6 1_555 1_555
H6 C7 1_555 1_555
H7 C7 1_555 1_555
H8 C8 1_555 1_555
H9 C11 1_555 1_555
H10 C12 1_555 1_555
H11 C15 1_555 1_555
H12 C15 1_555 1_555
H13 C15 1_555 1_555
H14 C17 1_555 1_555
H15 C17 1_555 1_555
H16 C18 1_555 1_555
H17 C18 1_555 1_555
H18 C18 1_555 1_555
H19 C20 1_555 1_555
H20 C20 1_555 1_555
H21 C20 1_555 1_555
H22 C21 1_555 1_555
H23 C21 1_555 1_555
H24 C21 1_555 1_555
H25 C22 1_555 1_555
H26 C23 1_555 1_555
H27 C23 1_555 1_555
H28 C23 1_555 1_555
H29 C24 1_555 1_555
H30 C24 1_555 1_555
H31 C24 1_555 1_555
O5 C19 1_555 1_555
C9 C10 1_555 1_555
C13 C14 1_555 1_555

#END
