
#######################################################################
#
#                 Cambridge Crystallographic Data Centre
#                                CCDC 
#
#######################################################################
#
# If this CIF has been generated from an entry in the Cambridge 
# Structural Database, then it will include bibliographic, chemical, 
# crystal, experimental, refinement or atomic coordinate data resulting 
# from the CCDC's data processing and validation procedures.
#
#######################################################################

data_QEKWOT
_chemical_formula_moiety         
'C22 H31 N6 O4 S1 1+,C7 H4 N1 O3 S1 1-,0.5(C4 H8 O2)'
_chemical_name_systematic        
'Sildenafil saccharinate hemikis(1,4-dioxane) clathrate'
_symmetry_cell_setting           triclinic
_symmetry_space_group_name_H-M   'P -1'
_symmetry_Int_Tables_number      2
_space_group_name_Hall           '-P 1'
loop_
_symmetry_equiv_pos_site_id
_symmetry_equiv_pos_as_xyz
1 x,y,z
2 -x,-y,-z
_cell_length_a                   10.1077(7)
_cell_length_b                   11.7836(9)
_cell_length_c                   14.4197(11)
_cell_angle_alpha                85.1150(10)
_cell_angle_beta                 71.8480(10)
_cell_angle_gamma                88.2100(10)
_cell_volume                     1626.04
_exptl_crystal_colour            colorless
_exptl_crystal_description       block
_cell_formula_units_Z            2
loop_
_atom_site_label
_atom_site_type_symbol
_atom_site_fract_x
_atom_site_fract_y
_atom_site_fract_z
S1 S 0.79891(5) 0.47845(4) 0.35831(3)
O1 O 0.85631(15) 0.47033(12) 0.43770(10)
O2 O 0.99755(15) 0.20119(12) -0.20741(10)
O3 O 1.08856(15) 0.16813(12) 0.06218(10)
N1 N 0.83407(17) 0.43424(14) -0.00168(12)
O4 O 0.77559(16) 0.58778(12) 0.31430(10)
N2 N 0.97325(18) 0.27624(15) -0.06191(12)
N3 N 0.64383(17) 0.41775(14) 0.40193(12)
C1 C 0.8821(2) 0.40656(16) 0.17538(14)
H1 H 0.8262 0.4672 0.1602
N4 N 0.40747(18) 0.27267(15) 0.43926(13)
C2 C 0.94549(19) 0.33143(16) 0.10466(14)
C3 C 1.0483(2) 0.23396(17) 0.22222(14)
H2 H 1.1072 0.1757 0.2374
C4 C 0.91555(19) 0.35042(16) 0.00978(14)
N5 N 0.81843(17) 0.40969(14) -0.24081(12)
N6 N 0.73196(18) 0.50069(14) -0.21742(12)
C5 C 0.9839(2) 0.30876(17) 0.29086(14)
H3 H 0.9970 0.3021 0.3535
C6 C 0.8662(2) 0.37290(16) -0.16552(14)
C7 C 0.9510(2) 0.27648(17) -0.15247(14)
C8 C 1.0278(2) 0.24287(17) 0.13054(14)
C9 C 0.8991(2) 0.39428(16) 0.26721(14)
C10 C 0.8102(2) 0.44421(16) -0.09069(14)
C11 C 0.7247(2) 0.52238(17) -0.12644(14)
C12 C 0.5602(2) 0.42206(19) 0.33389(15)
H4 H 0.5999 0.3690 0.2824
H5 H 0.5622 0.5000 0.3018
C13 C 0.6437(2) 0.30108(17) 0.44878(15)
H6 H 0.7005 0.2987 0.4938
H7 H 0.6853 0.2475 0.3981
C14 C 1.1474(2) 0.06329(18) 0.09402(15)
H8 H 1.0744 0.0185 0.1447
H9 H 1.2217 0.0807 0.1219
C15 C 0.4954(2) 0.26548(19) 0.50541(16)
H10 H 0.4953 0.1864 0.5348
H11 H 0.4563 0.3158 0.5591
C16 C 0.6352(2) 0.61595(17) -0.07440(15)
H12 H 0.6962 0.6769 -0.0679
H13 H 0.5815 0.5853 -0.0076
C17 C 0.4450(2) 0.76225(19) -0.07132(16)
H14 H 0.3899 0.7318 -0.0057
H15 H 0.3823 0.7925 -0.1075
H16 H 0.5050 0.8234 -0.0659
C18 C 0.4118(2) 0.3889(2) 0.39037(15)
H17 H 0.3713 0.4439 0.4401
H18 H 0.3554 0.3915 0.3451
C19 C 0.5343(2) 0.66777(19) -0.12538(16)
H19 H 0.4728 0.6071 -0.1318
H20 H 0.5876 0.6987 -0.1922
C20 C 1.2060(3) -0.00249(19) 0.00540(16)
H21 H 1.1325 -0.0156 -0.0235
H22 H 1.2422 -0.0759 0.0246
H23 H 1.2815 0.0410 -0.0427
C21 C 0.2618(2) 0.2357(2) 0.49200(18)
H24 H 0.2168 0.2899 0.5403
H25 H 0.2629 0.1599 0.5254
H26 H 0.2101 0.2330 0.4450
C22 C 0.8495(2) 0.36616(19) -0.33716(15)
H27 H 0.9080 0.2979 -0.3401
H28 H 0.8988 0.4245 -0.3876
H29 H 0.7624 0.3469 -0.3484
H30 H 1.021(3) 0.227(2) -0.0486(17)
H31 H 0.459(3) 0.211(2) 0.3766(19)
S2 S 0.64385(6) 1.03491(5) 0.30124(4)
O5 O 0.29939(16) 1.09478(14) 0.27501(12)
O6 O 0.65348(18) 1.00240(15) 0.39729(13)
O7 O 0.76376(17) 1.09049(14) 0.23331(14)
C23 C 0.6672(2) 0.81709(19) 0.22576(16)
H32 H 0.7563 0.8029 0.2335
N7 N 0.50393(19) 1.10949(16) 0.30917(14)
C24 C 0.4122(2) 1.0548(2) 0.27642(15)
C25 C 0.5956(2) 0.91620(18) 0.25152(15)
C26 C 0.4649(2) 0.94039(19) 0.24230(15)
C27 C 0.6029(3) 0.7384(2) 0.18773(16)
H33 H 0.6493 0.6690 0.1679
C28 C 0.4709(3) 0.7602(2) 0.17835(17)
H34 H 0.4284 0.7049 0.1528
C29 C 0.4008(2) 0.8607(2) 0.20561(17)
H35 H 0.3109 0.8748 0.1993
O8 O 0.03067(17) 0.88414(13) 0.48107(13)
C30 C -0.0078(2) 0.9633(2) 0.41290(17)
H36 H -0.0577 0.9228 0.3765
H37 H 0.0769 0.9977 0.3651
C31 C 0.0998(2) 0.9446(2) 0.53436(18)
H38 H 0.1862 0.9789 0.4885
H39 H 0.1259 0.8908 0.5824
O8A O -0.03067(17) 1.11586(13) 0.51893(13)
C30A C 0.0078(2) 1.0367(2) 0.58710(17)
H36A H 0.0577 1.0772 0.6235
H37A H -0.0769 1.0023 0.6349
C31A C -0.0998(2) 1.0554(2) 0.46564(18)
H38A H -0.1862 1.0211 0.5115
H39A H -0.1259 1.1092 0.4176
loop_
_geom_bond_atom_site_label_1
_geom_bond_atom_site_label_2
_geom_bond_site_symmetry_1
_geom_bond_site_symmetry_2
S1 O1 1_555 1_555
O2 C7 1_555 1_555
O3 C8 1_555 1_555
N1 C4 1_555 1_555
O4 S1 1_555 1_555
N2 C4 1_555 1_555
N3 S1 1_555 1_555
C1 H1 1_555 1_555
N4 C15 1_555 1_555
C2 C1 1_555 1_555
C3 H2 1_555 1_555
C4 C2 1_555 1_555
N5 N6 1_555 1_555
N6 C11 1_555 1_555
C5 C3 1_555 1_555
H3 C5 1_555 1_555
C6 N5 1_555 1_555
C7 N2 1_555 1_555
C8 C2 1_555 1_555
C9 S1 1_555 1_555
C10 N1 1_555 1_555
C11 C10 1_555 1_555
C12 N3 1_555 1_555
H4 C12 1_555 1_555
H5 C12 1_555 1_555
C13 N3 1_555 1_555
H6 C13 1_555 1_555
H7 C13 1_555 1_555
C14 O3 1_555 1_555
H8 C14 1_555 1_555
H9 C14 1_555 1_555
C15 C13 1_555 1_555
H10 C15 1_555 1_555
H11 C15 1_555 1_555
C16 C11 1_555 1_555
H12 C16 1_555 1_555
H13 C16 1_555 1_555
C17 H14 1_555 1_555
H15 C17 1_555 1_555
H16 C17 1_555 1_555
C18 N4 1_555 1_555
H17 C18 1_555 1_555
H18 C18 1_555 1_555
C19 C16 1_555 1_555
H19 C19 1_555 1_555
H20 C19 1_555 1_555
C20 C14 1_555 1_555
H21 C20 1_555 1_555
H22 C20 1_555 1_555
H23 C20 1_555 1_555
C21 N4 1_555 1_555
H24 C21 1_555 1_555
H25 C21 1_555 1_555
H26 C21 1_555 1_555
C22 N5 1_555 1_555
H27 C22 1_555 1_555
H28 C22 1_555 1_555
H29 C22 1_555 1_555
H30 N2 1_555 1_555
H31 N4 1_555 1_555
S2 O6 1_555 1_555
O5 C24 1_555 1_555
O7 S2 1_555 1_555
C23 H32 1_555 1_555
N7 S2 1_555 1_555
C24 N7 1_555 1_555
C25 S2 1_555 1_555
C26 C24 1_555 1_555
C27 C23 1_555 1_555
H33 C27 1_555 1_555
C28 C27 1_555 1_555
H34 C28 1_555 1_555
C29 C26 1_555 1_555
H35 C29 1_555 1_555
O8 C30 1_555 1_555
C30 H36 1_555 1_555
H37 C30 1_555 1_555
C31 O8 1_555 1_555
H38 C31 1_555 1_555
H39 C31 1_555 1_555
O8A C30A 1_555 1_555
C30A C31 1_555 1_555
H36A C30A 1_555 1_555
H37A C30A 1_555 1_555
C31A C30 1_555 1_555
H38A C31A 1_555 1_555
H39A C31A 1_555 1_555
C1 C9 1_555 1_555
C3 C8 1_555 1_555
C5 C9 1_555 1_555
C6 C7 1_555 1_555
C6 C10 1_555 1_555
C12 C18 1_555 1_555
C17 C19 1_555 1_555
C23 C25 1_555 1_555
C25 C26 1_555 1_555
C28 C29 1_555 1_555
O8A C31A 1_555 1_555

#END
