
#######################################################################
#
#                 Cambridge Crystallographic Data Centre
#                                CCDC 
#
#######################################################################
#
# If this CIF has been generated from an entry in the Cambridge 
# Structural Database, then it will include bibliographic, chemical, 
# crystal, experimental, refinement or atomic coordinate data resulting 
# from the CCDC's data processing and validation procedures.
#
#######################################################################

data_QEKWEI
_chemical_formula_moiety         'C24 H32 O6'
_chemical_name_systematic        
'Methyl 9-hydroxy-3-isopropyl-6a-methoxy-5,5,11a-trimethyl-6a,7,7a,10,11,11a-hexahydrophenanthro(1,10-de)(1,3)dioxine-8-carboxylate'
_symmetry_cell_setting           triclinic
_symmetry_space_group_name_H-M   'P -1'
_symmetry_Int_Tables_number      2
_space_group_name_Hall           '-P 1'
loop_
_symmetry_equiv_pos_site_id
_symmetry_equiv_pos_as_xyz
1 x,y,z
2 -x,-y,-z
_cell_length_a                   9.329(2)
_cell_length_b                   19.412(4)
_cell_length_c                   6.530(2)
_cell_angle_alpha                97.12(2)
_cell_angle_beta                 108.96(2)
_cell_angle_gamma                93.83(2)
_cell_volume                     1102.52
_exptl_crystal_colour            colorless
_cell_formula_units_Z            2
loop_
_atom_site_label
_atom_site_type_symbol
_atom_site_fract_x
_atom_site_fract_y
_atom_site_fract_z
O1 O 0.2551(2) 0.43868(9) 0.2942(3)
O2 O 0.5040(2) 0.4429(1) 0.6273(3)
O3 O 0.4843(2) 0.40336(9) 0.9245(3)
O4 O 0.2190(2) 0.16607(8) 0.8759(3)
O5 O 0.0194(2) 0.13561(9) 1.0144(3)
O6 O 0.2382(2) 0.26823(8) 1.1193(3)
C1 C 0.0085(3) 0.3415(1) 0.6365(3)
C2 C -0.0395(3) 0.3223(1) 0.3845(4)
C3 C 0.0282(3) 0.3765(1) 0.2834(4)
C4 C 0.1915(3) 0.4008(1) 0.4076(4)
C5 C 0.2644(3) 0.3876(1) 0.6125(4)
C6 C 0.1848(2) 0.3452(1) 0.7344(3)
C7 C 0.2390(3) 0.2724(1) 0.7454(4)
C8 C 0.1793(3) 0.2354(1) 0.8969(4)
C9 C 0.1475(3) 0.1135(1) 0.9574(5)
C10 C -0.0666(3) 0.1810(1) 0.8928(4)
C11 C 0.0099(3) 0.2346(1) 0.8329(4)
C12 C -0.0696(2) 0.2843(1) 0.7185(3)
C13 C -0.2273(3) 0.2777(1) 0.6752(4)
C14 C -0.3003(3) 0.2243(1) 0.7397(4)
C15 C -0.2226(3) 0.1736(1) 0.8484(4)
C16 C -0.0402(3) 0.4128(1) 0.6966(4)
C17 C 0.4251(3) 0.4137(1) 0.7158(4)
C18 C 0.6442(3) 0.4268(2) 1.0340(5)
C19 C 0.0939(4) 0.0527(2) 0.7773(7)
C20 C 0.2561(4) 0.0976(2) 1.1682(6)
C21 C 0.4003(3) 0.2771(2) 1.2187(4)
C22 C -0.2985(3) 0.1131(1) 0.9178(5)
C23 C -0.2884(4) 0.1309(2) 1.1570(6)
C24 C -0.4591(4) 0.0881(2) 0.7695(7)
H1 H 0.3688 0.4523 0.3869
H2 H -0.0057 0.2785 0.3508
H3 H -0.1475 0.3186 0.3237
H4 H 0.0194 0.3567 0.1387
H5 H -0.0280 0.4156 0.2782
H6 H 0.2145 0.3689 0.8807
H7 H 0.2025 0.2457 0.6028
H8 H 0.3473 0.2771 0.7987
H9 H -0.2858 0.3107 0.5995
H10 H -0.4074 0.2223 0.7085
H11 H -0.0086 0.4246 0.8515
H12 H 0.0059 0.4473 0.6388
H13 H -0.1480 0.4110 0.6367
H14 H 0.6739 0.4173 1.1803
H15 H 0.7023 0.4029 0.9584
H16 H 0.6619 0.4757 1.0354
H17 H 0.0450 0.0160 0.8232
H18 H 0.0238 0.0664 0.6514
H19 H 0.1787 0.0369 0.7427
H20 H 0.2084 0.0616 1.2181
H21 H 0.3452 0.0828 1.1444
H22 H 0.2834 0.1384 1.2755
H23 H 0.4374 0.2327 1.2170
H24 H 0.4441 0.3048 1.1393
H25 H 0.4274 0.2997 1.3658
H26 H -0.2405 0.0750 0.9105
H27 H -0.1843 0.1396 1.2478
H28 H -0.3380 0.1713 1.1742
H29 H -0.3366 0.0928 1.1977
H30 H -0.5230 0.1235 0.7799
H31 H -0.4608 0.0779 0.6225
H32 H -0.4949 0.0471 0.8122
loop_
_geom_bond_atom_site_label_1
_geom_bond_atom_site_label_2
_geom_bond_site_symmetry_1
_geom_bond_site_symmetry_2
O1 C4 1_555 1_555
O2 C17 1_555 1_555
O3 C17 1_555 1_555
O4 C8 1_555 1_555
O5 C9 1_555 1_555
O6 C8 1_555 1_555
C1 C2 1_555 1_555
C2 C3 1_555 1_555
C3 C4 1_555 1_555
C4 C5 1_555 1_555
C5 C6 1_555 1_555
C6 C1 1_555 1_555
C7 C6 1_555 1_555
C8 C7 1_555 1_555
C9 O4 1_555 1_555
C10 O5 1_555 1_555
C11 C8 1_555 1_555
C12 C1 1_555 1_555
C13 C12 1_555 1_555
C14 C13 1_555 1_555
C15 C10 1_555 1_555
C16 C1 1_555 1_555
C17 C5 1_555 1_555
C18 O3 1_555 1_555
C19 C9 1_555 1_555
C20 C9 1_555 1_555
C21 O6 1_555 1_555
C22 C15 1_555 1_555
C23 C22 1_555 1_555
C24 C22 1_555 1_555
H1 O1 1_555 1_555
H2 C2 1_555 1_555
H3 C2 1_555 1_555
H4 C3 1_555 1_555
H5 C3 1_555 1_555
H6 C6 1_555 1_555
H7 C7 1_555 1_555
H8 C7 1_555 1_555
H9 C13 1_555 1_555
H10 C14 1_555 1_555
H11 C16 1_555 1_555
H12 C16 1_555 1_555
H13 C16 1_555 1_555
H14 C18 1_555 1_555
H15 C18 1_555 1_555
H16 C18 1_555 1_555
H17 C19 1_555 1_555
H18 C19 1_555 1_555
H19 C19 1_555 1_555
H20 C20 1_555 1_555
H21 C20 1_555 1_555
H22 C20 1_555 1_555
H23 C21 1_555 1_555
H24 C21 1_555 1_555
H25 C21 1_555 1_555
H26 C22 1_555 1_555
H27 C23 1_555 1_555
H28 C23 1_555 1_555
H29 C23 1_555 1_555
H30 C24 1_555 1_555
H31 C24 1_555 1_555
H32 C24 1_555 1_555
C10 C11 1_555 1_555
C11 C12 1_555 1_555
C14 C15 1_555 1_555

#END
