
#######################################################################
#
#                 Cambridge Crystallographic Data Centre
#                                CCDC 
#
#######################################################################
#
# If this CIF has been generated from an entry in the Cambridge 
# Structural Database, then it will include bibliographic, chemical, 
# crystal, experimental, refinement or atomic coordinate data resulting 
# from the CCDC's data processing and validation procedures.
#
#######################################################################

data_QELDET
_chemical_compound_source        'marine-derived fungus Penicillium sp. ZZ380'
_chemical_name_common            'pyrrospirone D methanol solvate'
_chemical_formula_moiety         'C33 H43 N1 O5,C1 H4 O1'
_chemical_name_systematic        
'3-hydroxy-21-methoxy-4,6,8,10,12-pentamethyl-15-oxa-22-azaheptacyclo[12.9.3.2^16,19^.1^1,21^.0^4,25^.0^7,26^.0^8,13^]nonacosa-5,16,18,28-tetraene-23,24-dione methanol solvate'
_chemical_properties_biological  'antimicrobial activity'
_symmetry_cell_setting           monoclinic
_symmetry_space_group_name_H-M   'P 21'
_symmetry_Int_Tables_number      4
_space_group_name_Hall           'P 2yb'
loop_
_symmetry_equiv_pos_site_id
_symmetry_equiv_pos_as_xyz
1 x,y,z
2 -x,1/2+y,-z
_cell_length_a                   6.74932(14)
_cell_length_b                   13.8982(2)
_cell_length_c                   16.8690(3)
_cell_angle_alpha                90
_cell_angle_beta                 100.4959(18)
_cell_angle_gamma                90
_cell_volume                     1555.89
_exptl_crystal_colour            colorless
_exptl_crystal_description       needle
_cell_formula_units_Z            2
loop_
_atom_site_label
_atom_site_type_symbol
_atom_site_fract_x
_atom_site_fract_y
_atom_site_fract_z
O1 O 0.0749(3) -0.01271(15) 0.71885(13)
O2 O 0.3337(3) 0.20475(16) 0.82595(12)
O3 O -0.0016(4) 0.48090(15) 0.86051(13)
H1 H 0.040630 0.515813 0.828094
O4 O -0.1211(3) 0.16292(18) 0.96917(14)
O5 O 0.4904(4) 0.16700(18) 1.13328(12)
N1 N 0.1817(4) 0.1301(2) 1.04881(15)
H2 H 0.134488 0.097405 1.084446
C1 C -0.3378(6) 0.1432(3) 0.50692(19)
H3 H -0.300334 0.193724 0.472834
H4 H -0.460731 0.162857 0.524528
C2 C -0.3775(6) 0.0497(3) 0.4576(2)
H5 H -0.256940 0.035506 0.434910
C3 C -0.4143(6) -0.0356(3) 0.5102(2)
H6 H -0.421142 -0.093663 0.477951
H7 H -0.544578 -0.027146 0.525829
C4 C -0.2560(6) -0.0504(2) 0.5867(2)
H8 H -0.127735 -0.068679 0.571471
C5 C -0.2303(5) 0.0457(2) 0.63086(18)
H9 H -0.365431 0.061946 0.640267
C6 C -0.1705(5) 0.1308(2) 0.58058(17)
C7 C -0.1592(5) 0.2095(2) 0.64642(16)
H10 H -0.294852 0.215703 0.658948
C8 C -0.0269(5) 0.1606(2) 0.72002(16)
H11 H 0.111667 0.161954 0.710105
C9 C -0.0939(4) 0.0536(2) 0.71424(17)
H12 H -0.171065 0.038756 0.756617
C10 C -0.0817(5) 0.3101(2) 0.63873(18)
C11 C -0.0411(5) 0.3618(2) 0.70604(19)
H13 H 0.010589 0.423377 0.702662
C12 C -0.0734(4) 0.32703(19) 0.78796(17)
C13 C -0.0253(4) 0.21492(19) 0.79927(16)
H14 H -0.124208 0.185495 0.827718
C14 C 0.1808(4) 0.21084(18) 0.85304(16)
C15 C 0.1900(4) 0.23699(19) 0.94260(16)
C16 C 0.0962(5) 0.3408(2) 0.93762(18)
H15 H -0.034365 0.337773 0.953802
H16 H 0.182061 0.382199 0.975527
C17 C 0.0707(5) 0.38531(19) 0.85386(18)
H17 H 0.203403 0.388923 0.838224
C18 C 0.0605(5) 0.1724(2) 0.98620(17)
C19 C 0.3943(5) 0.1429(2) 1.05256(17)
C20 C 0.4045(5) 0.2253(2) 0.99199(18)
H18 H 0.448228 0.284515 1.020350
H19 H 0.498668 0.209505 0.956856
C21 C 0.4978(5) 0.0485(2) 1.03468(18)
H20 H 0.640523 0.060089 1.037152
H21 H 0.483562 0.001103 1.075514
C22 C 0.4070(5) 0.0091(2) 0.95211(19)
C23 C 0.4990(5) 0.0207(2) 0.8857(2)
H22 H 0.634346 0.037769 0.893326
C24 C 0.3916(5) 0.0071(2) 0.8076(2)
H23 H 0.455568 0.014470 0.763598
C25 C 0.1905(5) -0.0174(2) 0.79602(18)
C26 C 0.1046(5) -0.0430(2) 0.8620(2)
H24 H -0.024611 -0.068850 0.854410
C27 C 0.2132(5) -0.0296(2) 0.9386(2)
H25 H 0.155539 -0.046887 0.982564
C28 C -0.5537(8) 0.0635(4) 0.3872(3)
H26 H -0.674923 0.075422 0.407772
H27 H -0.570052 0.006529 0.354485
H28 H -0.526412 0.117341 0.355113
C29 C -0.3233(8) -0.1301(3) 0.6382(3)
H29 H -0.222904 -0.139124 0.685795
H30 H -0.340577 -0.188845 0.607826
H31 H -0.448730 -0.112321 0.653338
C30 C 0.0346(6) 0.1147(3) 0.5542(2)
H32 H 0.141681 0.129622 0.598184
H33 H 0.044021 0.155708 0.509222
H34 H 0.045316 0.048694 0.538687
C31 C -0.0578(7) 0.3520(3) 0.5587(2)
H35 H -0.033926 0.419993 0.564499
H36 H -0.178387 0.340921 0.519876
H37 H 0.054266 0.321971 0.540752
C32 C -0.2931(5) 0.3446(2) 0.7967(2)
H38 H -0.380926 0.306562 0.757692
H39 H -0.325135 0.411526 0.787760
H40 H -0.310503 0.326841 0.849944
C33 C 0.4112(8) 0.2476(4) 1.1692(2)
H41 H 0.449258 0.305784 1.145238
H42 H 0.463951 0.248277 1.226047
H43 H 0.266926 0.243064 1.160599
O6 O 0.1695(7) 0.6034(3) 0.7672(3)
H44 H 0.272846 0.621528 0.796799
C34 C 0.0849(11) 0.6779(6) 0.7220(5)
H45 H 0.174126 0.699185 0.687262
H46 H 0.061066 0.729796 0.756623
H47 H -0.040586 0.657749 0.689938
loop_
_geom_bond_atom_site_label_1
_geom_bond_atom_site_label_2
_geom_bond_site_symmetry_1
_geom_bond_site_symmetry_2
O1 C9 1_555 1_555
O2 C14 1_555 1_555
O3 H1 1_555 1_555
O4 C18 1_555 1_555
O5 C19 1_555 1_555
N1 H2 1_555 1_555
C1 H3 1_555 1_555
H4 C1 1_555 1_555
C2 C1 1_555 1_555
H5 C2 1_555 1_555
C3 C2 1_555 1_555
H6 C3 1_555 1_555
H7 C3 1_555 1_555
C4 C3 1_555 1_555
H8 C4 1_555 1_555
C5 C4 1_555 1_555
H9 C5 1_555 1_555
C6 C1 1_555 1_555
C7 C6 1_555 1_555
H10 C7 1_555 1_555
C8 C7 1_555 1_555
H11 C8 1_555 1_555
C9 C5 1_555 1_555
H12 C9 1_555 1_555
C10 C7 1_555 1_555
C11 C10 1_555 1_555
H13 C11 1_555 1_555
C12 C11 1_555 1_555
C13 C8 1_555 1_555
H14 C13 1_555 1_555
C14 C13 1_555 1_555
C15 C14 1_555 1_555
C16 C15 1_555 1_555
H15 C16 1_555 1_555
H16 C16 1_555 1_555
C17 O3 1_555 1_555
H17 C17 1_555 1_555
C18 N1 1_555 1_555
C19 N1 1_555 1_555
C20 C15 1_555 1_555
H18 C20 1_555 1_555
H19 C20 1_555 1_555
C21 C19 1_555 1_555
H20 C21 1_555 1_555
H21 C21 1_555 1_555
C22 C21 1_555 1_555
C23 C22 1_555 1_555
H22 C23 1_555 1_555
C24 C23 1_555 1_555
H23 C24 1_555 1_555
C25 O1 1_555 1_555
C26 C25 1_555 1_555
H24 C26 1_555 1_555
C27 C22 1_555 1_555
H25 C27 1_555 1_555
C28 C2 1_555 1_555
H26 C28 1_555 1_555
H27 C28 1_555 1_555
H28 C28 1_555 1_555
C29 C4 1_555 1_555
H29 C29 1_555 1_555
H30 C29 1_555 1_555
H31 C29 1_555 1_555
C30 C6 1_555 1_555
H32 C30 1_555 1_555
H33 C30 1_555 1_555
H34 C30 1_555 1_555
C31 C10 1_555 1_555
H35 C31 1_555 1_555
H36 C31 1_555 1_555
H37 C31 1_555 1_555
C32 C12 1_555 1_555
H38 C32 1_555 1_555
H39 C32 1_555 1_555
H40 C32 1_555 1_555
C33 O5 1_555 1_555
H41 C33 1_555 1_555
H42 C33 1_555 1_555
H43 C33 1_555 1_555
O6 H44 1_555 1_555
C34 O6 1_555 1_555
H45 C34 1_555 1_555
H46 C34 1_555 1_555
H47 C34 1_555 1_555
C5 C6 1_555 1_555
C8 C9 1_555 1_555
C12 C13 1_555 1_555
C12 C17 1_555 1_555
C15 C18 1_555 1_555
C16 C17 1_555 1_555
C19 C20 1_555 1_555
C24 C25 1_555 1_555
C26 C27 1_555 1_555

#END
