
#######################################################################
#
#                 Cambridge Crystallographic Data Centre
#                                CCDC 
#
#######################################################################
#
# If this CIF has been generated from an entry in the Cambridge 
# Structural Database, then it will include bibliographic, chemical, 
# crystal, experimental, refinement or atomic coordinate data resulting 
# from the CCDC's data processing and validation procedures.
#
#######################################################################

data_QEMKAX
_chemical_formula_moiety         'C7 H8 N8 O4,H2 O1'
_chemical_name_systematic        
'3,3-bis(1H-tetrazol-5-yl)pentanedioic acid monohydrate'
_symmetry_cell_setting           monoclinic
_symmetry_space_group_name_H-M   'P 21/c'
_symmetry_Int_Tables_number      14
_space_group_name_Hall           '-P 2ybc'
loop_
_symmetry_equiv_pos_site_id
_symmetry_equiv_pos_as_xyz
1 x,y,z
2 -x,1/2+y,1/2-z
3 -x,-y,-z
4 x,1/2-y,1/2+z
_cell_length_a                   7.1446(14)
_cell_length_b                   11.535(2)
_cell_length_c                   14.236(3)
_cell_angle_alpha                90
_cell_angle_beta                 93.21(3)
_cell_angle_gamma                90
_cell_volume                     1171.39
_exptl_crystal_colour            colorless
_exptl_crystal_description       block
_cell_formula_units_Z            4
loop_
_atom_site_label
_atom_site_type_symbol
_atom_site_fract_x
_atom_site_fract_y
_atom_site_fract_z
N1 N 0.4949(4) 0.7896(2) 0.09319(17)
O1 O 0.0598(4) 0.86475(18) 0.03187(15)
N2 N 0.3577(3) 0.6403(2) 0.02943(16)
H1 H 0.2808 0.5837 0.0194
N3 N -0.1132(4) 0.6564(2) 0.20488(17)
H2 H -0.1265 0.6980 0.2542
O2 O 0.3179(4) 0.48125(19) 0.21954(17)
N4 N 0.5826(4) 0.7572(2) 0.01453(18)
C1 C 0.2185(4) 0.7227(2) 0.17863(18)
N5 N -0.1680(4) 0.5388(2) 0.09324(18)
C2 C 0.1691(4) 0.8520(2) 0.19399(19)
H3 H 0.0781 0.8567 0.2419
H4 H 0.2813 0.8923 0.2176
C3 C 0.0393(4) 0.6541(2) 0.15431(19)
N6 N 0.0077(4) 0.5820(2) 0.08365(18)
C4 C 0.3127(4) 0.6787(2) 0.27395(18)
H5 H 0.4315 0.7186 0.2847
H6 H 0.2336 0.7011 0.3241
N7 N 0.5004(4) 0.6676(2) -0.02441(18)
N8 N -0.2418(4) 0.5835(2) 0.16623(18)
O3 O 0.0612(4) 1.02267(19) 0.12083(16)
H7 H 0.0171 1.0522 0.0696
C5 C 0.0917(4) 0.9130(2) 0.1077(2)
C6 C 0.3547(4) 0.7149(2) 0.10080(19)
O4 O 0.4167(3) 0.52161(19) 0.36654(15)
H8 H 0.4350 0.4488 0.3682
C7 C 0.3484(4) 0.5501(3) 0.2814(2)
O5 O -0.1436(4) 0.7845(2) 0.36363(17)
H9 H -0.2372 0.8297 0.3564
H10 H -0.1588 0.7397 0.4100
loop_
_geom_bond_atom_site_label_1
_geom_bond_atom_site_label_2
_geom_bond_site_symmetry_1
_geom_bond_site_symmetry_2
N1 N4 1_555 1_555
O1 C5 1_555 1_555
N2 H1 1_555 1_555
N3 H2 1_555 1_555
O2 C7 1_555 1_555
N4 N7 1_555 1_555
C1 C2 1_555 1_555
N5 N6 1_555 1_555
C2 H3 1_555 1_555
H4 C2 1_555 1_555
C3 N3 1_555 1_555
N6 C3 1_555 1_555
C4 C1 1_555 1_555
H5 C4 1_555 1_555
H6 C4 1_555 1_555
N7 N2 1_555 1_555
N8 N3 1_555 1_555
O3 H7 1_555 1_555
C5 C2 1_555 1_555
C6 N1 1_555 1_555
O4 H8 1_555 1_555
C7 C4 1_555 1_555
O5 H9 1_555 1_555
H10 O5 1_555 1_555
N2 C6 1_555 1_555
C1 C3 1_555 1_555
C1 C6 1_555 1_555
N5 N8 1_555 1_555
O3 C5 1_555 1_555
O4 C7 1_555 1_555

#END
