
#######################################################################
#
#                 Cambridge Crystallographic Data Centre
#                                CCDC 
#
#######################################################################
#
# If this CIF has been generated from an entry in the Cambridge 
# Structural Database, then it will include bibliographic, chemical, 
# crystal, experimental, refinement or atomic coordinate data resulting 
# from the CCDC's data processing and validation procedures.
#
#######################################################################

data_QEMLOK
_chemical_formula_moiety         
'C22 H31 N6 O4 S1 1+,C7 H4 N1 O3 S1 1-,2(H2 O1)'
_chemical_name_systematic        'Sildenafil saccharinate dihydrate clathrate'
_symmetry_cell_setting           triclinic
_symmetry_space_group_name_H-M   'P -1'
_symmetry_Int_Tables_number      2
_space_group_name_Hall           '-P 1'
loop_
_symmetry_equiv_pos_site_id
_symmetry_equiv_pos_as_xyz
1 x,y,z
2 -x,-y,-z
_cell_length_a                   9.6860(9)
_cell_length_b                   11.8441(11)
_cell_length_c                   14.4976(13)
_cell_angle_alpha                93.7430(10)
_cell_angle_beta                 107.5540(10)
_cell_angle_gamma                90.2610(10)
_cell_volume                     1581.85
_exptl_crystal_colour            colorless
_exptl_crystal_description       Plate
_cell_formula_units_Z            2
loop_
_atom_site_label
_atom_site_type_symbol
_atom_site_fract_x
_atom_site_fract_y
_atom_site_fract_z
S1 S 0.78738(7) 0.47515(6) 0.14041(5)
O1 O 0.7609(2) 0.58160(16) 0.18358(14)
O2 O 0.8528(2) 0.47268(17) 0.06419(14)
O3 O 0.9842(2) 0.20587(16) 0.70602(14)
O4 O 1.0827(2) 0.17221(16) 0.43892(13)
N1 N 0.8273(2) 0.43752(19) 0.50049(16)
N2 N 0.9630(2) 0.27928(19) 0.56081(16)
N3 N 0.3830(3) 0.2568(2) 0.05166(17)
N4 N 0.7265(2) 0.50848(19) 0.71538(16)
C1 C 0.8588(3) 0.3787(2) 0.66457(19)
N5 N 0.8119(2) 0.41751(19) 0.73928(16)
C2 C 0.9368(3) 0.3324(2) 0.39447(19)
C3 C 1.0389(3) 0.2340(2) 0.2782(2)
C4 C 0.8718(3) 0.4057(2) 0.3235(2)
C5 C 1.0197(3) 0.2451(2) 0.36968(19)
N6 N 0.6276(2) 0.4103(2) 0.09368(16)
C6 C 0.7197(3) 0.5283(2) 0.6246(2)
C7 C 0.9073(3) 0.3530(2) 0.48902(19)
C8 C 0.9717(3) 0.3068(2) 0.2086(2)
C9 C 0.8032(3) 0.4489(2) 0.58900(19)
C10 C 0.6321(3) 0.2968(2) 0.0462(2)
C11 C 0.5382(3) 0.4071(2) 0.16003(19)
C12 C 0.4793(3) 0.2573(2) -0.0121(2)
C13 C 0.8883(3) 0.3922(2) 0.23181(19)
C14 C 1.1431(3) 0.0696(2) 0.4090(2)
C15 C 0.6324(3) 0.6218(2) 0.57241(19)
C16 C 0.5397(3) 0.6817(3) 0.6269(2)
C17 C 1.2088(3) 0.0070(3) 0.4982(2)
C18 C 0.3852(3) 0.3701(2) 0.1028(2)
C19 C 0.2329(3) 0.2171(3) -0.0034(2)
C20 C 0.8404(3) 0.3760(3) 0.8356(2)
C21 C 0.4518(3) 0.7759(3) 0.5731(2)
C22 C 0.9404(3) 0.2814(2) 0.65112(19)
H1 H 0.9834 0.2970 0.1498
H2 H 0.5384 0.4804 0.1880
H3 H 1.0977 0.1785 0.2609
H4 H 0.3291 0.3629 0.1457
H5 H 1.0641 0.0278 0.3605
H6 H 0.6947 0.3000 0.0045
H7 H 0.8173 0.4620 0.3367
H8 H 0.4384 0.3041 -0.0623
H9 H 0.5815 0.3579 0.2077
H10 H 0.6782 0.2430 0.0922
H11 H 0.4808 0.1818 -0.0376
H12 H 0.1951 0.2691 -0.0483
H13 H 1.2429 -0.0577 0.4788
H14 H 1.2209 0.0884 0.3806
H15 H 1.0122 0.2263 0.5464
H16 H 0.5133 0.8311 0.5623
H17 H 1.2934 0.0472 0.5414
H18 H 0.5757 0.5874 0.5112
H19 H 1.1372 -0.0137 0.5297
H20 H 0.7013 0.6762 0.5572
H21 H 0.3854 0.7468 0.5097
H22 H 0.3935 0.8111 0.6074
H23 H 0.4709 0.6243 0.6400
H24 H 0.4232 0.2021 0.0987
H25 H 0.6049 0.7138 0.6839
H26 H 0.3424 0.4212 0.0583
H27 H 0.1806 0.2159 0.0392
H28 H 0.2374 0.1480 -0.0334
H29 H 0.8970 0.3117 0.8379
H30 H 0.7556 0.3542 0.8425
H31 H 0.8930 0.4369 0.8841
S2 S 0.35717(8) -0.03663(6) 0.80007(5)
O5 O 0.2411(2) -0.09681(19) 0.72702(16)
O6 O 0.3337(3) -0.01213(19) 0.89251(16)
N7 N 0.5098(3) -0.0997(2) 0.81427(17)
C23 C 0.3261(3) 0.1817(2) 0.7258(2)
C24 C 0.3896(3) 0.2632(2) 0.6854(2)
C25 C 0.5264(3) 0.2483(2) 0.6743(2)
C26 C 0.5423(3) 0.0708(2) 0.74457(19)
C27 C 0.6038(3) -0.0388(2) 0.7833(2)
C28 C 0.4057(3) 0.0861(2) 0.75349(19)
C29 C 0.6054(3) 0.1521(3) 0.7045(2)
O7 O 0.7257(2) -0.07019(19) 0.78581(16)
H32 H 0.2369 0.1882 0.7367
H33 H 0.5708 0.3049 0.6448
H34 H 0.3379 0.3275 0.6628
H35 H 0.7011 0.1397 0.6977
O8 O 0.9758(3) 0.0514(3) 0.8577(2)
H36 H 1.0195 -0.0215 0.9057
H37 H 0.8699 -0.0032 0.8206
O9 O 1.1173(4) -0.1424(3) 0.9922(3)
H38 H 1.0990 -0.0861 1.0360
H39 H 1.1026 -0.0726 0.9344
H40? H 1.1075 -0.1375 1.0690
loop_
_geom_bond_atom_site_label_1
_geom_bond_atom_site_label_2
_geom_bond_site_symmetry_1
_geom_bond_site_symmetry_2
S1 O1 1_555 1_555
O2 S1 1_555 1_555
O3 C22 1_555 1_555
O4 C5 1_555 1_555
N1 C7 1_555 1_555
N2 C7 1_555 1_555
N3 C12 1_555 1_555
N4 N5 1_555 1_555
C1 N5 1_555 1_555
N5 C20 1_555 1_555
C2 C4 1_555 1_555
C3 C5 1_555 1_555
C4 C13 1_555 1_555
C5 C2 1_555 1_555
N6 S1 1_555 1_555
C6 N4 1_555 1_555
C7 C2 1_555 1_555
C8 C3 1_555 1_555
C9 N1 1_555 1_555
C10 N6 1_555 1_555
C11 N6 1_555 1_555
C12 C10 1_555 1_555
C13 S1 1_555 1_555
C14 O4 1_555 1_555
C15 C6 1_555 1_555
C16 C15 1_555 1_555
C17 C14 1_555 1_555
C18 N3 1_555 1_555
C19 N3 1_555 1_555
C20 H29 1_555 1_555
C21 C16 1_555 1_555
C22 N2 1_555 1_555
H1 C8 1_555 1_555
H2 C11 1_555 1_555
H3 C3 1_555 1_555
H4 C18 1_555 1_555
H5 C14 1_555 1_555
H6 C10 1_555 1_555
H7 C4 1_555 1_555
H8 C12 1_555 1_555
H9 C11 1_555 1_555
H10 C10 1_555 1_555
H11 C12 1_555 1_555
H12 C19 1_555 1_555
H13 C17 1_555 1_555
H14 C14 1_555 1_555
H15 N2 1_555 1_555
H16 C21 1_555 1_555
H17 C17 1_555 1_555
H18 C15 1_555 1_555
H19 C17 1_555 1_555
H20 C15 1_555 1_555
H21 C21 1_555 1_555
H22 C21 1_555 1_555
H23 C16 1_555 1_555
H24 N3 1_555 1_555
H25 C16 1_555 1_555
H26 C18 1_555 1_555
H27 C19 1_555 1_555
H28 C19 1_555 1_555
H30 C20 1_555 1_555
H31 C20 1_555 1_555
S2 O5 1_555 1_555
O6 S2 1_555 1_555
N7 S2 1_555 1_555
C23 C24 1_555 1_555
C24 C25 1_555 1_555
C25 C29 1_555 1_555
C26 C27 1_555 1_555
C27 N7 1_555 1_555
C28 S2 1_555 1_555
C29 C26 1_555 1_555
O7 C27 1_555 1_555
H32 C23 1_555 1_555
H33 C25 1_555 1_555
H34 C24 1_555 1_555
H35 C29 1_555 1_555
O8 H36 1_555 1_555
H37 O8 1_555 1_555
O9 H38 1_555 1_555
H39 O9 1_555 1_555
C1 C9 1_555 1_555
C1 C22 1_555 1_555
C6 C9 1_555 1_555
C8 C13 1_555 1_555
C11 C18 1_555 1_555
C23 C28 1_555 1_555
C26 C28 1_555 1_555

#END
