
#######################################################################
#
#                 Cambridge Crystallographic Data Centre
#                                CCDC 
#
#######################################################################
#
# If this CIF has been generated from an entry in the Cambridge 
# Structural Database, then it will include bibliographic, chemical, 
# crystal, experimental, refinement or atomic coordinate data resulting 
# from the CCDC's data processing and validation procedures.
#
#######################################################################

data_QEMNUU
_chemical_formula_moiety         'C15 H23 F3 N1 O4 P1 S1'
_chemical_name_systematic        
'dimethyl {2-[(t-butylsulfinyl)amino]-3,3,3-trifluoro-2-phenylpropyl}phosphonate'
_symmetry_cell_setting           monoclinic
_symmetry_space_group_name_H-M   'P 2/c'
_symmetry_Int_Tables_number      13
_space_group_name_Hall           '-P 2yc'
loop_
_symmetry_equiv_pos_site_id
_symmetry_equiv_pos_as_xyz
1 x,y,z
2 -x,y,1/2-z
3 -x,-y,-z
4 x,-y,1/2+z
_cell_length_a                   18.740(4)
_cell_length_b                   9.9028(19)
_cell_length_c                   22.487(4)
_cell_angle_alpha                90
_cell_angle_beta                 111.232(4)
_cell_angle_gamma                90
_cell_volume                     3889.84
_cell_formula_units_Z            8
loop_
_atom_site_label
_atom_site_type_symbol
_atom_site_fract_x
_atom_site_fract_y
_atom_site_fract_z
P1 P 0.3405(1) 0.5582(1) 0.1584(1)
S1 S 0.1578(1) 0.3232(1) 0.1482(1)
O1 O 0.2263(3) 0.3170(4) 0.2078(2)
O2 O 0.3358(2) 0.4352(4) 0.1202(2)
O3 O 0.3983(2) 0.5475(4) 0.2291(2)
O4 O 0.3693(2) 0.6901(4) 0.1350(2)
N1 N 0.1728(3) 0.4302(4) 0.0955(2)
F1 F 0.2218(2) 0.6155(4) 0.0273(2)
F2 F 0.1749(2) 0.7834(3) 0.0599(2)
F3 F 0.1018(2) 0.6309(4) 0.0034(2)
C1 C 0.1749(3) 0.5746(5) 0.1111(2)
C2 C 0.1675(3) 0.6520(5) 0.0496(3)
C3 C 0.1063(3) 0.6143(5) 0.1287(2)
C4 C 0.0346(3) 0.5601(6) 0.0956(3)
C5 C -0.0283(3) 0.5999(7) 0.1093(4)
C6 C -0.0217(4) 0.6957(8) 0.1546(4)
C7 C 0.0477(4) 0.7499(7) 0.1876(3)
C8 C 0.1126(3) 0.7100(5) 0.1758(3)
C9 C 0.2521(3) 0.6135(5) 0.1650(3)
C10 C 0.4074(4) 0.4222(7) 0.2639(4)
C11 C 0.4382(4) 0.6832(8) 0.1210(4)
C12 C 0.1583(4) 0.1644(5) 0.1054(3)
C13 C 0.2330(5) 0.1443(7) 0.0964(4)
C14 C 0.0899(5) 0.1690(8) 0.0428(4)
C15 C 0.1458(5) 0.0580(6) 0.1491(4)
H1 H 0.0288 0.4964 0.0638
H2 H -0.0758 0.5610 0.0874
H3 H -0.0647 0.7236 0.1628
H4 H 0.0522 0.8149 0.2186
H5 H 0.1600 0.7470 0.1994
H6 H 0.2506 0.5787 0.2049
H7 H 0.2539 0.7112 0.1684
H8 H 0.4085 0.3484 0.2365
H9 H 0.3653 0.4106 0.2781
H10 H 0.4545 0.4243 0.3001
H11 H 0.4787 0.6457 0.1569
H12 H 0.4523 0.7724 0.1125
H13 H 0.4297 0.6271 0.0843
H14 H 0.2744 0.1603 0.1361
H15 H 0.2365 0.2063 0.0648
H16 H 0.2359 0.0534 0.0826
H17 H 0.0999 0.2318 0.0143
H18 H 0.0452 0.1973 0.0509
H19 H 0.0813 0.0808 0.0238
H20 H 0.1379 -0.0282 0.1281
H21 H 0.1017 0.0812 0.1591
H22 H 0.1900 0.0536 0.1877
H23 H 0.2150(40) 0.4080(70) 0.0970(30)
P2 P 0.4219(1) 1.0601(2) 0.3440(1)
S2 S 0.2499(1) 0.8150(1) 0.3511(1)
O5 O 0.2679(3) 0.8116(4) 0.2918(2)
O6 O 0.4506(2) 0.9351(4) 0.3791(2)
O7 O 0.4185(2) 1.0579(4) 0.2728(2)
O8 O 0.4703(2) 1.1902(4) 0.3702(2)
N2 N 0.3096(3) 0.9210(4) 0.4043(2)
F4 F 0.4170(2) 1.1046(4) 0.4750(2)
F5 F 0.3390(3) 1.2709(4) 0.4475(2)
F6 F 0.3187(3) 1.1063(4) 0.5012(2)
C16 C 0.2969(3) 1.0655(5) 0.3913(2)
C17 C 0.3431(4) 1.1376(6) 0.4544(3)
C18 C 0.2131(3) 1.1047(5) 0.3736(2)
C19 C 0.1712(4) 1.0494(7) 0.4074(3)
C20 C 0.0970(4) 1.0878(9) 0.3943(4)
C21 C 0.0629(4) 1.1820(9) 0.3494(4)
C22 C 0.1031(4) 1.2373(8) 0.3148(4)
C23 C 0.1775(3) 1.1979(6) 0.3267(3)
C24 C 0.3281(3) 1.1114(5) 0.3386(3)
C25 C 0.3953(5) 0.9373(8) 0.2350(4)
C26 C 0.5524(4) 1.1845(9) 0.3930(6)
C27 C 0.2878(3) 0.6559(5) 0.3940(3)
C28 C 0.3715(4) 0.6377(7) 0.4036(5)
C29 C 0.2388(5) 0.5496(7) 0.3498(4)
C30 C 0.2724(5) 0.6579(7) 0.4551(3)
H24 H 0.1937 0.9859 0.4391
H25 H 0.0694 1.0484 0.4168
H26 H 0.0129 1.2091 0.3419
H27 H 0.0801 1.3013 0.2834
H28 H 0.2041 1.2347 0.3028
H29 H 0.3268 1.2093 0.3373
H30 H 0.2923 1.0800 0.2979
H31 H 0.4258 0.8625 0.2575
H32 H 0.4024 0.9494 0.1951
H33 H 0.3423 0.9194 0.2270
H34 H 0.5701 1.1121 0.4232
H35 H 0.5732 1.2684 0.4133
H36 H 0.5688 1.1691 0.3578
H37 H 0.4021 0.6964 0.4371
H38 H 0.3792 0.6595 0.3647
H39 H 0.3862 0.5456 0.4150
H40 H 0.2534 0.5408 0.3132
H41 H 0.1860 0.5756 0.3363
H42 H 0.2459 0.4647 0.3718
H43 H 0.2897 0.5747 0.4778
H44 H 0.2185 0.6680 0.4457
H45 H 0.2993 0.7321 0.4811
H46 H 0.3530(30) 0.8950(50) 0.4070(30)
loop_
_geom_bond_atom_site_label_1
_geom_bond_atom_site_label_2
_geom_bond_site_symmetry_1
_geom_bond_site_symmetry_2
P1 O2 1_555 1_555
S1 O1 1_555 1_555
O3 P1 1_555 1_555
O4 P1 1_555 1_555
N1 S1 1_555 1_555
F1 C2 1_555 1_555
F2 C2 1_555 1_555
F3 C2 1_555 1_555
C1 N1 1_555 1_555
C2 C1 1_555 1_555
C3 C1 1_555 1_555
C4 C3 1_555 1_555
C5 C4 1_555 1_555
C6 C5 1_555 1_555
C7 C6 1_555 1_555
C8 C3 1_555 1_555
C9 P1 1_555 1_555
C10 O3 1_555 1_555
C11 O4 1_555 1_555
C12 S1 1_555 1_555
C13 C12 1_555 1_555
C14 C12 1_555 1_555
C15 C12 1_555 1_555
H1 C4 1_555 1_555
H2 C5 1_555 1_555
H3 C6 1_555 1_555
H4 C7 1_555 1_555
H5 C8 1_555 1_555
H6 C9 1_555 1_555
H7 C9 1_555 1_555
H8 C10 1_555 1_555
H9 C10 1_555 1_555
H10 C10 1_555 1_555
H11 C11 1_555 1_555
H12 C11 1_555 1_555
H13 C11 1_555 1_555
H14 C13 1_555 1_555
H15 C13 1_555 1_555
H16 C13 1_555 1_555
H17 C14 1_555 1_555
H18 C14 1_555 1_555
H19 C14 1_555 1_555
H20 C15 1_555 1_555
H21 C15 1_555 1_555
H22 C15 1_555 1_555
H23 N1 1_555 1_555
P2 O6 1_555 1_555
S2 O5 1_555 1_555
O7 P2 1_555 1_555
O8 P2 1_555 1_555
N2 S2 1_555 1_555
F4 C17 1_555 1_555
F5 C17 1_555 1_555
F6 C17 1_555 1_555
C16 N2 1_555 1_555
C17 C16 1_555 1_555
C18 C16 1_555 1_555
C19 C18 1_555 1_555
C20 C19 1_555 1_555
C21 C20 1_555 1_555
C22 C21 1_555 1_555
C23 C18 1_555 1_555
C24 P2 1_555 1_555
C25 O7 1_555 1_555
C26 O8 1_555 1_555
C27 S2 1_555 1_555
C28 C27 1_555 1_555
C29 C27 1_555 1_555
C30 C27 1_555 1_555
H24 C19 1_555 1_555
H25 C20 1_555 1_555
H26 C21 1_555 1_555
H27 C22 1_555 1_555
H28 C23 1_555 1_555
H29 C24 1_555 1_555
H30 C24 1_555 1_555
H31 C25 1_555 1_555
H32 C25 1_555 1_555
H33 C25 1_555 1_555
H34 C26 1_555 1_555
H35 C26 1_555 1_555
H36 C26 1_555 1_555
H37 C28 1_555 1_555
H38 C28 1_555 1_555
H39 C28 1_555 1_555
H40 C29 1_555 1_555
H41 C29 1_555 1_555
H42 C29 1_555 1_555
H43 C30 1_555 1_555
H44 C30 1_555 1_555
H45 C30 1_555 1_555
H46 N2 1_555 1_555
C1 C9 1_555 1_555
C7 C8 1_555 1_555
C16 C24 1_555 1_555
C22 C23 1_555 1_555

#END
