
#######################################################################
#
#                 Cambridge Crystallographic Data Centre
#                                CCDC 
#
#######################################################################
#
# If this CIF has been generated from an entry in the Cambridge 
# Structural Database, then it will include bibliographic, chemical, 
# crystal, experimental, refinement or atomic coordinate data resulting 
# from the CCDC's data processing and validation procedures.
#
#######################################################################

data_QEMPEE
_chemical_formula_moiety         'C20 H14 N4 S1'
_chemical_name_systematic        
2-Benzylthio-3-cyano-7-phenylpyrazolo(1,5-a)pyrimidine
_symmetry_cell_setting           orthorhombic
_symmetry_space_group_name_H-M   'P 21 21 21'
_symmetry_Int_Tables_number      19
_space_group_name_Hall           'P 2ac 2ab'
loop_
_symmetry_equiv_pos_site_id
_symmetry_equiv_pos_as_xyz
1 x,y,z
2 1/2-x,-y,1/2+z
3 -x,1/2+y,1/2-z
4 1/2+x,1/2-y,-z
_cell_length_a                   7.127(2)
_cell_length_b                   10.680(4)
_cell_length_c                   22.034(7)
_cell_angle_alpha                90
_cell_angle_beta                 90
_cell_angle_gamma                90
_cell_volume                     1677.15
_exptl_crystal_colour            'light yellow'
_chemical_melting_point          146-148deg.C
_cell_formula_units_Z            4
_exptl_crystal_recrystallization_method ethanol
loop_
_atom_site_label
_atom_site_type_symbol
_atom_site_fract_x
_atom_site_fract_y
_atom_site_fract_z
S1 S 1.00887(9) 0.96781(5) 0.19166(2)
N1 N 0.9245(2) 0.87862(15) 0.07959(7)
N2 N 0.8707(2) 0.92987(14) 0.02476(7)
N3 N 0.8061(3) 1.13040(17) -0.01995(8)
N4 N 0.8799(4) 1.30726(19) 0.13699(10)
C1 C 0.9362(3) 0.97711(19) 0.11631(8)
C2 C 0.8914(3) 1.09085(18) 0.08773(9)
C3 C 0.8853(3) 1.2119(2) 0.11417(10)
C4 C 0.8522(3) 1.05928(19) 0.02761(9)
C5 C 0.7796(4) 1.0687(2) -0.07088(10)
H1 H 0.7471 1.1143 -0.1053
C6 C 0.7973(3) 0.9389(2) -0.07668(9)
H2 H 0.7763 0.9018 -0.1143
C7 C 0.8447(3) 0.86518(19) -0.02829(9)
C8 C 0.8648(3) 0.72809(19) -0.03201(9)
C9 C 0.8169(3) 0.6478(2) 0.01549(10)
H3 H 0.7795 0.6805 0.0527
C10 C 0.8251(3) 0.5196(2) 0.00725(11)
H4 H 0.7922 0.4666 0.0390
C11 C 0.8813(3) 0.4696(2) -0.04726(12)
H5 H 0.8851 0.3832 -0.0524
C12 C 0.9320(3) 0.5476(2) -0.09412(11)
H6 H 0.9714 0.5138 -0.1309
C13 C 0.9248(3) 0.6755(2) -0.08687(10)
H7 H 0.9601 0.7276 -0.1187
C14 C 1.0230(3) 0.8004(2) 0.20291(9)
H8 H 1.0804 0.7633 0.1673
H9 H 1.1055 0.7842 0.2370
C15 C 0.8390(3) 0.7355(2) 0.21442(9)
C16 C 0.7146(4) 0.7808(2) 0.25739(10)
H10 H 0.7422 0.8544 0.2780
C17 C 0.5493(4) 0.7174(3) 0.26995(13)
H11 H 0.4658 0.7491 0.2985
C18 C 0.5089(5) 0.6072(2) 0.23998(12)
H12 H 0.3985 0.5641 0.2484
C19 C 0.6316(4) 0.5619(2) 0.19807(11)
H13 H 0.6049 0.4874 0.1780
C20 C 0.7943(4) 0.6250(2) 0.18502(10)
H14 H 0.8758 0.5930 0.1559
loop_
_geom_bond_atom_site_label_1
_geom_bond_atom_site_label_2
_geom_bond_site_symmetry_1
_geom_bond_site_symmetry_2
S1 C1 1_555 1_555
N1 N2 1_555 1_555
N2 C4 1_555 1_555
N3 C4 1_555 1_555
N4 C3 1_555 1_555
C1 N1 1_555 1_555
C2 C1 1_555 1_555
C3 C2 1_555 1_555
C4 C2 1_555 1_555
C5 N3 1_555 1_555
H1 C5 1_555 1_555
C6 C5 1_555 1_555
H2 C6 1_555 1_555
C7 N2 1_555 1_555
C8 C7 1_555 1_555
C9 C8 1_555 1_555
H3 C9 1_555 1_555
C10 C9 1_555 1_555
H4 C10 1_555 1_555
C11 C10 1_555 1_555
H5 C11 1_555 1_555
C12 C11 1_555 1_555
H6 C12 1_555 1_555
C13 C8 1_555 1_555
H7 C13 1_555 1_555
C14 S1 1_555 1_555
H8 C14 1_555 1_555
H9 C14 1_555 1_555
C15 C14 1_555 1_555
C16 C15 1_555 1_555
H10 C16 1_555 1_555
C17 C16 1_555 1_555
H11 C17 1_555 1_555
C18 C17 1_555 1_555
H12 C18 1_555 1_555
C19 C18 1_555 1_555
H13 C19 1_555 1_555
C20 C15 1_555 1_555
H14 C20 1_555 1_555
C6 C7 1_555 1_555
C12 C13 1_555 1_555
C19 C20 1_555 1_555

#END
