
#######################################################################
#
#                 Cambridge Crystallographic Data Centre
#                                CCDC 
#
#######################################################################
#
# If this CIF has been generated from an entry in the Cambridge 
# Structural Database, then it will include bibliographic, chemical, 
# crystal, experimental, refinement or atomic coordinate data resulting 
# from the CCDC's data processing and validation procedures.
#
#######################################################################

data_QEMTIO
_chemical_formula_moiety         'C8 H8 F2 N2 O5 S2'
_chemical_name_systematic        
'[4-(acetylamino)phenyl]imidodisulfuryl difluoride'
_symmetry_cell_setting           monoclinic
_symmetry_space_group_name_H-M   'P 21/n'
_symmetry_Int_Tables_number      14
_space_group_name_Hall           '-P 2yn'
loop_
_symmetry_equiv_pos_site_id
_symmetry_equiv_pos_as_xyz
1 x,y,z
2 1/2-x,1/2+y,1/2-z
3 -x,-y,-z
4 1/2+x,1/2-y,1/2+z
_cell_length_a                   14.2267(6)
_cell_length_b                   5.0902(2)
_cell_length_c                   17.7266(7)
_cell_angle_alpha                90
_cell_angle_beta                 105.2080(10)
_cell_angle_gamma                90
_cell_volume                     1238.75
_exptl_crystal_colour            colorless
_exptl_crystal_description       ROD
_cell_formula_units_Z            4
loop_
_atom_site_label
_atom_site_type_symbol
_atom_site_fract_x
_atom_site_fract_y
_atom_site_fract_z
S1 S 0.54973(5) 0.27836(16) 0.89202(4)
S2 S 0.39207(5) 0.59456(14) 0.80367(4)
F1 F 0.59067(19) 0.4967(6) 0.94727(13)
F2 F 0.32375(13) 0.3908(4) 0.75630(15)
N1 N 0.49751(15) 0.4461(4) 0.81269(12)
N2 N 0.65294(2) 0.49201(2) 0.55263(2)
H1 H 0.67734(2) 0.67039(2) 0.54358(2)
O1 O 0.6269(2) 0.1426(6) 0.87654(14)
O2 O 0.4801(2) 0.1557(6) 0.92146(16)
O3 O 0.37172(19) 0.6136(5) 0.87560(15)
O4 O 0.38771(15) 0.8062(4) 0.75365(14)
O5 O 0.6581(2) 0.0648(4) 0.52175(16)
C1 C 0.6100(2) 0.6351(6) 0.74446(16)
H2 H 0.6317 0.7522 0.7856
C2 C 0.6473(2) 0.6427(5) 0.67965(16)
H3 H 0.6945 0.7667 0.6773
C3 C 0.61544(17) 0.4687(5) 0.61853(14)
C4 C 0.6737(2) 0.2914(5) 0.50943(16)
C5 C 0.7183(3) 0.3767(7) 0.44509(17)
H4 H 0.7850 0.3209 0.4572
H5 H 0.7153 0.5647 0.4405
H6 H 0.6829 0.2991 0.3966
C6 C 0.54494(19) 0.2831(5) 0.62164(15)
H7 H 0.5229 0.1658 0.5806
C7 C 0.50773(19) 0.2742(5) 0.68647(15)
H8 H 0.4610 0.1495 0.6894
C8 C 0.54014(17) 0.4504(5) 0.74646(14)
loop_
_geom_bond_atom_site_label_1
_geom_bond_atom_site_label_2
_geom_bond_site_symmetry_1
_geom_bond_site_symmetry_2
S1 F1 1_555 1_555
S2 F2 1_555 1_555
N1 S1 1_555 1_555
N2 H1 1_555 1_555
O1 S1 1_555 1_555
O2 S1 1_555 1_555
O3 S2 1_555 1_555
O4 S2 1_555 1_555
O5 C4 1_555 1_555
C1 H2 1_555 1_555
C2 C1 1_555 1_555
H3 C2 1_555 1_555
C3 N2 1_555 1_555
C4 N2 1_555 1_555
C5 C4 1_555 1_555
H4 C5 1_555 1_555
H5 C5 1_555 1_555
H6 C5 1_555 1_555
C6 C3 1_555 1_555
H7 C6 1_555 1_555
C7 C6 1_555 1_555
H8 C7 1_555 1_555
C8 N1 1_555 1_555
S2 N1 1_555 1_555
C1 C8 1_555 1_555
C2 C3 1_555 1_555
C7 C8 1_555 1_555

#END
