
#######################################################################
#
#                 Cambridge Crystallographic Data Centre
#                                CCDC 
#
#######################################################################
#
# If this CIF has been generated from an entry in the Cambridge 
# Structural Database, then it will include bibliographic, chemical, 
# crystal, experimental, refinement or atomic coordinate data resulting 
# from the CCDC's data processing and validation procedures.
#
#######################################################################

data_QENNAB
_chemical_formula_moiety         'C19 H12 F3 N1 O2'
_chemical_name_systematic        
'2-(2-(2,4,6-trifluorophenyl)vinyl)quinolin-8-yl acetate'
_symmetry_cell_setting           triclinic
_symmetry_space_group_name_H-M   'P -1'
_symmetry_Int_Tables_number      2
_space_group_name_Hall           '-P 1'
loop_
_symmetry_equiv_pos_site_id
_symmetry_equiv_pos_as_xyz
1 x,y,z
2 -x,-y,-z
_cell_length_a                   8.2169(6)
_cell_length_b                   9.3270(4)
_cell_length_c                   11.3413(7)
_cell_angle_alpha                111.700(5)
_cell_angle_beta                 95.796(6)
_cell_angle_gamma                101.585(5)
_cell_volume                     776.336
_cell_formula_units_Z            2
loop_
_atom_site_label
_atom_site_type_symbol
_atom_site_fract_x
_atom_site_fract_y
_atom_site_fract_z
O1 O 0.52467(13) 0.20879(12) 0.08820(10)
O2 O 0.73850(14) 0.41889(13) 0.22033(11)
N1 N 0.41366(15) 0.29256(14) 0.31690(12)
F1 F 0.43064(12) 0.15201(12) 0.72048(9)
F2 F 0.92417(15) 0.03327(14) 0.85484(11)
F3 F 0.88325(13) 0.17172(13) 0.49835(10)
C1 C 0.35142(18) 0.32349(16) 0.42476(14)
C2 C 0.21665(19) 0.39821(18) 0.44685(16)
H1 H 0.1749 0.4160 0.5228
C3 C 0.14876(19) 0.44376(18) 0.35566(16)
H2 H 0.0605 0.4930 0.3693
C4 C 0.21293(18) 0.41579(17) 0.24079(15)
C5 C 0.1538(2) 0.46163(19) 0.14203(16)
H3 H 0.0679 0.5141 0.1517
C6 C 0.2212(2) 0.4298(2) 0.03276(17)
H4 H 0.1822 0.4623 -0.0306
C7 C 0.3501(2) 0.34776(19) 0.01534(16)
H5 H 0.3943 0.3245 -0.0599
C8 C 0.40871(18) 0.30314(17) 0.10921(15)
C9 C 0.34571(18) 0.33725(16) 0.22594(14)
C10 C 0.68391(19) 0.27726(19) 0.16191(14)
C11 C 0.7757(2) 0.1522(2) 0.15516(18)
H6 H 0.8871 0.2020 0.2074
H7 H 0.7842 0.0951 0.0671
H8 H 0.7146 0.0792 0.1866
C12 C 0.42641(19) 0.27762(17) 0.52420(15)
H9 H 0.3777 0.2900 0.5967
C13 C 0.56208(19) 0.21886(17) 0.51416(14)
H10 H 0.6049 0.2067 0.4392
C14 C 0.6522(2) 0.17116(17) 0.60538(15)
C15 C 0.5903(2) 0.14084(18) 0.70623(15)
C16 C 0.6768(2) 0.09542(19) 0.79097(15)
H11 H 0.6296 0.0768 0.8568
C17 C 0.8360(2) 0.0789(2) 0.77385(17)
C18 C 0.9086(2) 0.1040(2) 0.67674(18)
H12 H 1.0166 0.0919 0.6666
C19 C 0.8137(2) 0.14814(18) 0.59526(16)
loop_
_geom_bond_atom_site_label_1
_geom_bond_atom_site_label_2
_geom_bond_site_symmetry_1
_geom_bond_site_symmetry_2
O1 C8 1_555 1_555
O2 C10 1_555 1_555
N1 C1 1_555 1_555
F1 C15 1_555 1_555
F2 C17 1_555 1_555
F3 C19 1_555 1_555
C1 C2 1_555 1_555
C2 H1 1_555 1_555
C3 C2 1_555 1_555
H2 C3 1_555 1_555
C4 C3 1_555 1_555
C5 C4 1_555 1_555
H3 C5 1_555 1_555
C6 C5 1_555 1_555
H4 C6 1_555 1_555
C7 C6 1_555 1_555
H5 C7 1_555 1_555
C8 C7 1_555 1_555
C9 N1 1_555 1_555
C10 O1 1_555 1_555
C11 C10 1_555 1_555
H6 C11 1_555 1_555
H7 C11 1_555 1_555
H8 C11 1_555 1_555
C12 C1 1_555 1_555
H9 C12 1_555 1_555
C13 C12 1_555 1_555
H10 C13 1_555 1_555
C14 C13 1_555 1_555
C15 C14 1_555 1_555
C16 C15 1_555 1_555
H11 C16 1_555 1_555
C17 C16 1_555 1_555
C18 C17 1_555 1_555
H12 C18 1_555 1_555
C19 C14 1_555 1_555
C4 C9 1_555 1_555
C8 C9 1_555 1_555
C18 C19 1_555 1_555

#END
