
#######################################################################
#
#                 Cambridge Crystallographic Data Centre
#                                CCDC 
#
#######################################################################
#
# If this CIF has been generated from an entry in the Cambridge 
# Structural Database, then it will include bibliographic, chemical, 
# crystal, experimental, refinement or atomic coordinate data resulting 
# from the CCDC's data processing and validation procedures.
#
#######################################################################

data_QEPGOK
_chemical_formula_moiety         'C14 H22 Cl2 N2 O4'
_chemical_name_systematic        
'di-t-butyl 1,1-dichloro-4,5-diazaspiro[2.3]hexane-4,5-dicarboxylate'
_symmetry_cell_setting           monoclinic
_symmetry_space_group_name_H-M   'C 2/c'
_symmetry_Int_Tables_number      15
_space_group_name_Hall           '-C 2yn'
loop_
_symmetry_equiv_pos_site_id
_symmetry_equiv_pos_as_xyz
1 x,y,z
2 -x,y,1/2-z
3 1/2+x,1/2+y,z
4 1/2-x,1/2+y,1/2-z
5 -x,-y,-z
6 x,-y,1/2+z
7 1/2-x,1/2-y,-z
8 1/2+x,1/2-y,1/2+z
_cell_length_a                   27.8891(4)
_cell_length_b                   11.56007(17)
_cell_length_c                   11.29536(18)
_cell_angle_alpha                90
_cell_angle_beta                 96.1043(13)
_cell_angle_gamma                90
_cell_volume                     3620.98
_exptl_crystal_colour            colorless
_exptl_crystal_description       block
_cell_formula_units_Z            8
loop_
_atom_site_label
_atom_site_type_symbol
_atom_site_fract_x
_atom_site_fract_y
_atom_site_fract_z
Cl1 Cl 0.54935(2) 0.69702(4) 0.64500(4)
Cl2 Cl 0.50924(2) 0.63366(5) 0.40385(4)
O1 O 0.67004(4) 0.62634(10) 0.69183(11)
O2 O 0.59703(4) 0.21168(10) 0.48466(10)
O3 O 0.61770(5) 0.26366(12) 0.67904(10)
O4 O 0.70332(4) 0.45050(12) 0.66387(13)
N1 N 0.62433(4) 0.48973(12) 0.59867(11)
N2 N 0.62376(5) 0.38788(12) 0.52350(11)
C1 C 0.59914(5) 0.55526(15) 0.49806(13)
C2 C 0.61206(6) 0.28407(15) 0.57356(14)
C3 C 0.67093(5) 0.51817(15) 0.65200(14)
C4 C 0.59441(6) 0.44597(15) 0.42340(14)
H1 H 0.5610 0.4164 0.4081
H2 H 0.6102 0.4503 0.3491
C5 C 0.71439(6) 0.68056(16) 0.75472(16)
C6 C 0.56129(6) 0.64531(17) 0.50520(15)
C7 C 0.60798(7) 0.67709(17) 0.45949(16)
H3 H 0.6310 0.7248 0.5113
H4 H 0.6077 0.6922 0.3731
C8 C 0.58893(7) 0.08835(16) 0.50956(16)
C9 C 0.54845(7) 0.07635(19) 0.58838(17)
H5 H 0.5586 0.1099 0.6667
H6 H 0.5408 -0.0057 0.5975
H7 H 0.5198 0.1171 0.5518
C10 C 0.73115(7) 0.61332(19) 0.86585(17)
H8 H 0.7047 0.6070 0.9160
H9 H 0.7584 0.6535 0.9099
H10 H 0.7413 0.5357 0.8439
C11 C 0.57405(8) 0.04042(19) 0.38575(18)
H11 H 0.5453 0.0814 0.3501
H12 H 0.5668 -0.0422 0.3914
H13 H 0.6004 0.0512 0.3360
C12 C 0.63537(8) 0.03285(19) 0.5637(2)
H14 H 0.6607 0.0454 0.5113
H15 H 0.6303 -0.0504 0.5733
H16 H 0.6451 0.0676 0.6417
C13 C 0.69545(8) 0.79774(18) 0.7890(2)
H17 H 0.6842 0.8410 0.7167
H18 H 0.7213 0.8410 0.8349
H19 H 0.6686 0.7868 0.8373
C14 C 0.75279(8) 0.6889(3) 0.6700(2)
H20 H 0.7631 0.6110 0.6498
H21 H 0.7805 0.7321 0.7081
H22 H 0.7396 0.7291 0.5973
loop_
_geom_bond_atom_site_label_1
_geom_bond_atom_site_label_2
_geom_bond_site_symmetry_1
_geom_bond_site_symmetry_2
Cl1 C6 1_555 1_555
Cl2 C6 1_555 1_555
O1 C3 1_555 1_555
O2 C2 1_555 1_555
O3 C2 1_555 1_555
O4 C3 1_555 1_555
N1 N2 1_555 1_555
N2 C2 1_555 1_555
C1 N1 1_555 1_555
C3 N1 1_555 1_555
C4 N2 1_555 1_555
H1 C4 1_555 1_555
H2 C4 1_555 1_555
C5 O1 1_555 1_555
C6 C1 1_555 1_555
C7 C1 1_555 1_555
H3 C7 1_555 1_555
H4 C7 1_555 1_555
C8 O2 1_555 1_555
C9 C8 1_555 1_555
H5 C9 1_555 1_555
H6 C9 1_555 1_555
H7 C9 1_555 1_555
C10 C5 1_555 1_555
H8 C10 1_555 1_555
H9 C10 1_555 1_555
H10 C10 1_555 1_555
C11 C8 1_555 1_555
H11 C11 1_555 1_555
H12 C11 1_555 1_555
H13 C11 1_555 1_555
C12 C8 1_555 1_555
H14 C12 1_555 1_555
H15 C12 1_555 1_555
H16 C12 1_555 1_555
C13 C5 1_555 1_555
H17 C13 1_555 1_555
H18 C13 1_555 1_555
H19 C13 1_555 1_555
C14 C5 1_555 1_555
H20 C14 1_555 1_555
H21 C14 1_555 1_555
H22 C14 1_555 1_555
C1 C4 1_555 1_555
C6 C7 1_555 1_555

#END
