
#######################################################################
#
#                 Cambridge Crystallographic Data Centre
#                                CCDC 
#
#######################################################################
#
# If this CIF has been generated from an entry in the Cambridge 
# Structural Database, then it will include bibliographic, chemical, 
# crystal, experimental, refinement or atomic coordinate data resulting 
# from the CCDC's data processing and validation procedures.
#
#######################################################################

data_QEPHOL
_chemical_formula_moiety         'C28 H25 N3 O3'
_chemical_name_systematic        
N-t-butyl-2-(4-cyanophenyl)-2-(4-oxo-2-phenyl-1,5-benzoxazepin-5(4H)-yl)acetamide
_symmetry_cell_setting           monoclinic
_symmetry_space_group_name_H-M   'P 21/c'
_symmetry_Int_Tables_number      14
_space_group_name_Hall           '-P 2ybc'
loop_
_symmetry_equiv_pos_site_id
_symmetry_equiv_pos_as_xyz
1 x,y,z
2 -x,1/2+y,1/2-z
3 -x,-y,-z
4 x,1/2-y,1/2+z
_cell_length_a                   14.315(5)
_cell_length_b                   14.891(5)
_cell_length_c                   11.713(3)
_cell_angle_alpha                90
_cell_angle_beta                 101.631(7)
_cell_angle_gamma                90
_cell_volume                     2445.53
_exptl_crystal_colour            colorless
_exptl_crystal_description       Prism
_cell_formula_units_Z            4
loop_
_atom_site_label
_atom_site_type_symbol
_atom_site_fract_x
_atom_site_fract_y
_atom_site_fract_z
C1 C 0.4059(2) 0.0603(2) -0.2867(3)
H1 H 0.4390 0.0276 -0.2237
C2 C 0.4441(2) 0.0700(3) -0.3836(4)
H2 H 0.5027 0.0440 -0.3864
C3 C 0.3960(3) 0.1181(3) -0.4769(3)
H3 H 0.4216 0.1248 -0.5433
C4 C 0.3094(3) 0.1566(2) -0.4717(3)
H4 H 0.2774 0.1902 -0.5345
C5 C 0.2700(2) 0.14607(18) -0.3762(3)
H5 H 0.2106 0.1708 -0.3751
C6 C 0.31865(18) 0.09832(17) -0.2801(3)
C7 C 0.27899(18) 0.08916(16) -0.1747(3)
C8 C 0.19771(17) 0.12203(17) -0.1537(2)
H6 H 0.1688 0.1678 -0.2022
C9 C 0.14972(17) 0.09279(16) -0.0613(2)
C10 C 0.29943(16) 0.09982(16) 0.0855(2)
C11 C 0.33282(18) 0.14267(17) 0.1903(2)
H7 H 0.2914 0.1551 0.2400
C12 C 0.4280(2) 0.16734(19) 0.2217(3)
H8 H 0.4497 0.1965 0.2923
C13 C 0.4906(2) 0.1494(2) 0.1500(3)
H9 H 0.5543 0.1660 0.1720
C14 C 0.45856(19) 0.1068(2) 0.0457(3)
H10 H 0.5001 0.0954 -0.0042
C15 C 0.36408(17) 0.08097(17) 0.0151(2)
C16 C 0.14413(16) 0.04010(16) 0.1306(2)
H11 H 0.0952 0.0009 0.0855
C17 C 0.20204(16) -0.01786(16) 0.2254(3)
C18 C 0.25827(18) -0.08658(17) 0.1977(3)
H12 H 0.2632 -0.0946 0.1204
C19 C 0.30704(19) -0.14339(18) 0.2810(3)
H13 H 0.3452 -0.1886 0.2601
C20 C 0.29927(18) -0.13310(18) 0.3961(3)
C21 C 0.2448(2) -0.0641(2) 0.4257(3)
H14 H 0.2403 -0.0557 0.5031
C22 C 0.19669(19) -0.00715(18) 0.3406(3)
H15 H 0.1600 0.0393 0.3615
C23 C 0.09070(18) 0.11693(18) 0.1770(2)
C24 C -0.0566(2) 0.1572(2) 0.2474(3)
C25 C -0.0756(3) 0.2430(3) 0.1764(4)
H16 H -0.0161 0.2709 0.1717
H17 H -0.1127 0.2833 0.2133
H18 H -0.1100 0.2290 0.0993
C26 C -0.1477(3) 0.1068(3) 0.2477(5)
H19 H -0.1762 0.0894 0.1695
H20 H -0.1910 0.1446 0.2785
H21 H -0.1340 0.0541 0.2954
C27 C -0.0079(3) 0.1808(3) 0.3707(4)
H22 H 0.0002 0.1273 0.4175
H23 H -0.0463 0.2230 0.4026
H24 H 0.0533 0.2068 0.3701
C28 C 0.3452(2) -0.1946(2) 0.4837(3)
N1 N 0.20101(13) 0.07409(13) 0.04841(18)
N2 N 0.00525(15) 0.09629(15) 0.1970(2)
H25 H -0.0148(19) 0.0448(13) 0.179(2)
N3 N 0.3797(2) -0.2432(2) 0.5554(3)
O1 O 0.33434(11) 0.03482(11) -0.08990(15)
O2 O 0.06302(12) 0.08191(12) -0.08371(16)
O3 O 0.12728(14) 0.19053(14) 0.1966(2)
loop_
_geom_bond_atom_site_label_1
_geom_bond_atom_site_label_2
_geom_bond_site_symmetry_1
_geom_bond_site_symmetry_2
C1 H1 1_555 1_555
C2 C1 1_555 1_555
H2 C2 1_555 1_555
C3 C2 1_555 1_555
H3 C3 1_555 1_555
C4 C3 1_555 1_555
H4 C4 1_555 1_555
C5 C4 1_555 1_555
H5 C5 1_555 1_555
C6 C1 1_555 1_555
C7 C6 1_555 1_555
C8 C7 1_555 1_555
H6 C8 1_555 1_555
C9 C8 1_555 1_555
C10 C11 1_555 1_555
C11 H7 1_555 1_555
C12 C11 1_555 1_555
H8 C12 1_555 1_555
C13 C12 1_555 1_555
H9 C13 1_555 1_555
C14 C13 1_555 1_555
H10 C14 1_555 1_555
C15 C10 1_555 1_555
C16 H11 1_555 1_555
C17 C16 1_555 1_555
C18 C17 1_555 1_555
H12 C18 1_555 1_555
C19 C18 1_555 1_555
H13 C19 1_555 1_555
C20 C19 1_555 1_555
C21 C20 1_555 1_555
H14 C21 1_555 1_555
C22 C17 1_555 1_555
H15 C22 1_555 1_555
C23 C16 1_555 1_555
C24 C25 1_555 1_555
C25 H16 1_555 1_555
H17 C25 1_555 1_555
H18 C25 1_555 1_555
C26 C24 1_555 1_555
H19 C26 1_555 1_555
H20 C26 1_555 1_555
H21 C26 1_555 1_555
C27 C24 1_555 1_555
H22 C27 1_555 1_555
H23 C27 1_555 1_555
H24 C27 1_555 1_555
C28 C20 1_555 1_555
N1 C9 1_555 1_555
N2 C23 1_555 1_555
H25 N2 1_555 1_555
N3 C28 1_555 1_555
O1 C7 1_555 1_555
O2 C9 1_555 1_555
O3 C23 1_555 1_555
C5 C6 1_555 1_555
C10 N1 1_555 1_555
C14 C15 1_555 1_555
C15 O1 1_555 1_555
C16 N1 1_555 1_555
C21 C22 1_555 1_555
C24 N2 1_555 1_555

#END
