
#######################################################################
#
#                 Cambridge Crystallographic Data Centre
#                                CCDC 
#
#######################################################################
#
# If this CIF has been generated from an entry in the Cambridge 
# Structural Database, then it will include bibliographic, chemical, 
# crystal, experimental, refinement or atomic coordinate data resulting 
# from the CCDC's data processing and validation procedures.
#
#######################################################################

data_QEPVAJ
_chemical_formula_moiety         'C17 H23 Cl1 N2 O2'
_chemical_name_systematic        
exo-(7S,8R,9R)-7-butyl-5-(4-chlorophenyl)-6-(hydroxymethyl)tetrahydro-1H,5H-pyrazolo[1,2-a]pyrazol-1-one
_symmetry_cell_setting           orthorhombic
_symmetry_space_group_name_H-M   'P 21 21 21'
_symmetry_Int_Tables_number      19
_space_group_name_Hall           'P 2ac 2ab'
loop_
_symmetry_equiv_pos_site_id
_symmetry_equiv_pos_as_xyz
1 x,y,z
2 1/2-x,-y,1/2+z
3 -x,1/2+y,1/2-z
4 1/2+x,1/2-y,-z
_cell_length_a                   9.007(1)
_cell_length_b                   9.438(1)
_cell_length_c                   20.601(3)
_cell_angle_alpha                90
_cell_angle_beta                 90
_cell_angle_gamma                90
_cell_volume                     1751.25
_cell_formula_units_Z            4
loop_
_atom_site_label
_atom_site_type_symbol
_atom_site_fract_x
_atom_site_fract_y
_atom_site_fract_z
O1 O 0.84461(14) 0.79424(14) 0.25929(7)
O2 O 0.33223(15) 0.43639(15) 0.32499(8)
H1 H 0.2870 0.3840 0.3002
N1 N 0.81035(14) 0.46735(14) 0.33775(7)
N2 N 0.75730(15) 0.60225(16) 0.31535(7)
C1 C 0.7783(2) 0.1834(2) 0.37475(9)
H2 H 0.7921 0.2048 0.3311
C2 C 0.8012(2) 0.0458(2) 0.39577(11)
H3 H 0.8294 -0.0244 0.3666
C3 C 0.7819(2) 0.01466(19) 0.45957(12)
C4 C 0.7387(3) 0.1155(3) 0.50319(11)
H4 H 0.7250 0.0924 0.5467
C5 C 0.7155(3) 0.2532(2) 0.48163(9)
H5 H 0.6858 0.3223 0.5111
C6 C 0.73572(19) 0.28948(19) 0.41688(8)
C7 C 0.71755(18) 0.44054(18) 0.39477(9)
H6 H 0.7504 0.5032 0.4299
C8 C 0.56242(18) 0.49046(19) 0.37164(8)
H7 H 0.5082 0.5281 0.4091
C9 C 0.59550(17) 0.61401(18) 0.32436(9)
H8 H 0.5458 0.5958 0.2829
C10 C 0.96918(18) 0.4965(2) 0.34951(9)
H9 H 1.0283 0.4111 0.3452
H10 H 0.9848 0.5365 0.3923
C11 C 1.00601(19) 0.6017(2) 0.29732(10)
H11 H 1.0365 0.5543 0.2577
H12 H 1.0845 0.6653 0.3112
C12 C 0.86198(19) 0.6808(2) 0.28762(9)
C13 C 0.46998(19) 0.37477(19) 0.34085(10)
H13 H 0.5184 0.3390 0.3021
H14 H 0.4562 0.2969 0.3710
C14 C 0.55320(19) 0.76064(19) 0.34825(10)
H15 H 0.5869 0.7713 0.3927
H16 H 0.6047 0.8307 0.3222
C15 C 0.38797(19) 0.7906(2) 0.34557(10)
H17 H 0.3361 0.7225 0.3726
H18 H 0.3533 0.7785 0.3013
C16 C 0.3504(3) 0.9404(2) 0.36856(13)
H19 H 0.3855 0.9521 0.4127
H20 H 0.4027 1.0081 0.3415
C17 C 0.1896(3) 0.9724(3) 0.36641(14)
H21 H 0.1390 0.9175 0.3988
H22 H 0.1511 0.9491 0.3243
H23 H 0.1744 1.0714 0.3747
Cl1 Cl 0.791(2) -0.1536(5) 0.4941(6)
Cl2? Cl 0.8358(7) -0.1584(3) 0.4807(3)
loop_
_geom_bond_atom_site_label_1
_geom_bond_atom_site_label_2
_geom_bond_site_symmetry_1
_geom_bond_site_symmetry_2
O1 C12 1_555 1_555
O2 H1 1_555 1_555
N1 N2 1_555 1_555
N2 C9 1_555 1_555
C1 H2 1_555 1_555
C2 C1 1_555 1_555
H3 C2 1_555 1_555
C3 C2 1_555 1_555
C4 C3 1_555 1_555
H4 C4 1_555 1_555
C5 C4 1_555 1_555
H5 C5 1_555 1_555
C6 C1 1_555 1_555
C7 N1 1_555 1_555
H6 C7 1_555 1_555
C8 C7 1_555 1_555
H7 C8 1_555 1_555
C9 C8 1_555 1_555
H8 C9 1_555 1_555
C10 N1 1_555 1_555
H9 C10 1_555 1_555
H10 C10 1_555 1_555
C11 C10 1_555 1_555
H11 C11 1_555 1_555
H12 C11 1_555 1_555
C12 N2 1_555 1_555
C13 O2 1_555 1_555
H13 C13 1_555 1_555
H14 C13 1_555 1_555
C14 C9 1_555 1_555
H15 C14 1_555 1_555
H16 C14 1_555 1_555
C15 C14 1_555 1_555
H17 C15 1_555 1_555
H18 C15 1_555 1_555
C16 C15 1_555 1_555
H19 C16 1_555 1_555
H20 C16 1_555 1_555
C17 C16 1_555 1_555
H21 C17 1_555 1_555
H22 C17 1_555 1_555
H23 C17 1_555 1_555
Cl1 C3 1_555 1_555
C5 C6 1_555 1_555
C6 C7 1_555 1_555
C8 C13 1_555 1_555
C11 C12 1_555 1_555

#END
