
#######################################################################
#
#                 Cambridge Crystallographic Data Centre
#                                CCDC 
#
#######################################################################
#
# If this CIF has been generated from an entry in the Cambridge 
# Structural Database, then it will include bibliographic, chemical, 
# crystal, experimental, refinement or atomic coordinate data resulting 
# from the CCDC's data processing and validation procedures.
#
#######################################################################

data_QERLUX
_chemical_formula_moiety         'C21 H17 O2 P1'
_chemical_name_systematic        
'[(1-benzofuran-2-yl)methyl](oxo)diphenyl-phosphane'
_symmetry_cell_setting           monoclinic
_symmetry_space_group_name_H-M   'P 21/c'
_symmetry_Int_Tables_number      14
_space_group_name_Hall           '-P 2ybc'
loop_
_symmetry_equiv_pos_site_id
_symmetry_equiv_pos_as_xyz
1 x,y,z
2 -x,1/2+y,1/2-z
3 -x,-y,-z
4 x,1/2-y,1/2+z
_cell_length_a                   5.777(9)
_cell_length_b                   18.20(3)
_cell_length_c                   15.77(2)
_cell_angle_alpha                90
_cell_angle_beta                 92.65(2)
_cell_angle_gamma                90
_cell_volume                     1656.31
_exptl_crystal_colour            white
_exptl_crystal_description       Block
_cell_formula_units_Z            4
loop_
_atom_site_label
_atom_site_type_symbol
_atom_site_fract_x
_atom_site_fract_y
_atom_site_fract_z
P1 P 0.12016(11) 0.46332(4) 0.15340(4)
C1 C 0.0829(5) 0.69530(15) 0.06632(16)
C2 C -0.0852(5) 0.74614(16) 0.04583(18)
H1 H -0.2256 0.7327 0.0190
C3 C -0.0367(6) 0.81807(17) 0.06679(18)
H2 H -0.1463 0.8543 0.0540
C4 C 0.1733(6) 0.83711(18) 0.1067(2)
H3 H 0.2013 0.8860 0.1209
C5 C 0.3404(6) 0.78576(18) 0.12563(19)
H4 H 0.4818 0.7996 0.1514
C6 C 0.2956(5) 0.71234(16) 0.10572(17)
C7 C 0.4148(5) 0.64362(16) 0.11455(17)
H5 H 0.5637 0.6367 0.1382
C8 C 0.2744(4) 0.59137(15) 0.08291(15)
C9 C 0.2951(4) 0.51053(14) 0.07832(16)
H6 H 0.4561 0.4969 0.0890
H7 H 0.2488 0.4945 0.0214
C10 C 0.2087(4) 0.50163(14) 0.25546(16)
C11 C 0.0561(5) 0.54604(16) 0.29563(19)
H8 H -0.0893 0.5556 0.2702
C12 C 0.1169(6) 0.57657(19) 0.3733(2)
H9 H 0.0123 0.6067 0.3998
C13 C 0.3269(6) 0.56318(17) 0.41147(18)
H10 H 0.3662 0.5838 0.4641
C14 C 0.4812(5) 0.51923(17) 0.37244(18)
H11 H 0.6258 0.5098 0.3986
C15 C 0.4226(5) 0.48868(16) 0.29414(17)
H12 H 0.5287 0.4592 0.2675
C16 C 0.2186(4) 0.36935(14) 0.15723(15)
C17 C 0.0759(5) 0.31892(16) 0.19557(17)
H13 H -0.0656 0.3343 0.2151
C18 C 0.1412(6) 0.24637(17) 0.20512(19)
H14 H 0.0445 0.2133 0.2313
C19 C 0.3472(6) 0.22310(17) 0.1762(2)
H15 H 0.3907 0.1741 0.1827
C20 C 0.4899(5) 0.27115(17) 0.1379(2)
H16 H 0.6298 0.2547 0.1179
C21 C 0.4279(5) 0.34427(16) 0.12852(18)
H17 H 0.5272 0.3768 0.1028
O1 O 0.0669(3) 0.62065(10) 0.05214(11)
O2 O -0.1330(3) 0.47093(10) 0.13641(11)
loop_
_geom_bond_atom_site_label_1
_geom_bond_atom_site_label_2
_geom_bond_site_symmetry_1
_geom_bond_site_symmetry_2
P1 C9 1_555 1_555
C1 C2 1_555 1_555
C2 H1 1_555 1_555
C3 C2 1_555 1_555
H2 C3 1_555 1_555
C4 C3 1_555 1_555
H3 C4 1_555 1_555
C5 C4 1_555 1_555
H4 C5 1_555 1_555
C6 C1 1_555 1_555
C7 C6 1_555 1_555
H5 C7 1_555 1_555
C8 C7 1_555 1_555
C9 C8 1_555 1_555
H6 C9 1_555 1_555
H7 C9 1_555 1_555
C10 P1 1_555 1_555
C11 C10 1_555 1_555
H8 C11 1_555 1_555
C12 C11 1_555 1_555
H9 C12 1_555 1_555
C13 C12 1_555 1_555
H10 C13 1_555 1_555
C14 C13 1_555 1_555
H11 C14 1_555 1_555
C15 C10 1_555 1_555
H12 C15 1_555 1_555
C16 P1 1_555 1_555
C17 C16 1_555 1_555
H13 C17 1_555 1_555
C18 C17 1_555 1_555
H14 C18 1_555 1_555
C19 C18 1_555 1_555
H15 C19 1_555 1_555
C20 C19 1_555 1_555
H16 C20 1_555 1_555
C21 C16 1_555 1_555
H17 C21 1_555 1_555
O1 C1 1_555 1_555
O2 P1 1_555 1_555
C5 C6 1_555 1_555
C8 O1 1_555 1_555
C14 C15 1_555 1_555
C20 C21 1_555 1_555

#END
