
#######################################################################
#
#                 Cambridge Crystallographic Data Centre
#                                CCDC 
#
#######################################################################
#
# If this CIF has been generated from an entry in the Cambridge 
# Structural Database, then it will include bibliographic, chemical, 
# crystal, experimental, refinement or atomic coordinate data resulting 
# from the CCDC's data processing and validation procedures.
#
#######################################################################

data_QERLAB
_chemical_compound_source        'stems of Marsdenia tenacissima (Roxb.)'
_chemical_name_common            
'11alpha,12beta-acetonyltenacigenin B 3-O-6-deoxy-3-O-methyl-beta-D-allopyranosyl-(1-4)-beta-D-oleandropyranoside acetone solvate'
_chemical_formula_moiety         'C38 H60 O12,C3 H6 O1'
_chemical_name_systematic        
'11\a,12\b-acetonyltenacissoside F acetone solvate'
_chemical_properties_biological  
'Used in folk-medicine against inflammation, asthma and cancer'
_symmetry_cell_setting           triclinic
_symmetry_space_group_name_H-M   'P 1'
_symmetry_Int_Tables_number      1
_space_group_name_Hall           'P 1'
loop_
_symmetry_equiv_pos_site_id
_symmetry_equiv_pos_as_xyz
1 x,y,z
_cell_length_a                   6.3280(10)
_cell_length_b                   10.558(2)
_cell_length_c                   17.553(4)
_cell_angle_alpha                74.57(2)
_cell_angle_beta                 81.76(2)
_cell_angle_gamma                79.03(2)
_cell_volume                     1104.47
_exptl_crystal_colour            colorless
_exptl_crystal_description       block
_chemical_melting_point          '374-376 K'
_cell_formula_units_Z            1
loop_
_atom_site_label
_atom_site_type_symbol
_atom_site_fract_x
_atom_site_fract_y
_atom_site_fract_z
O1 O -0.4692(4) 0.5905(2) 0.37960(14)
O2 O 0.0185(4) 0.2516(2) 0.41004(14)
O3 O -0.0947(4) 0.2657(2) 0.28922(14)
O4 O 0.0520(5) 0.6559(3) 0.15473(18)
O5 O 0.1148(4) 0.5032(3) 0.72199(13)
O6 O 0.3965(4) 0.3409(2) 0.76459(14)
O7 O 0.8040(4) 0.3110(2) 0.89950(13)
O8 O 0.7498(4) 0.2127(2) 1.03120(14)
O9 O 0.4608(5) 0.5195(3) 0.93989(16)
O10 O 1.1957(5) 0.1329(3) 0.88664(17)
H1 H 1.1878 0.2035 0.8526
O11 O 1.0678(5) -0.0801(3) 1.01034(17)
O12 O 1.0539(6) -0.0672(3) 1.16565(17)
H2 H 1.0598 -0.1332 1.1487
C1 C 0.1021(5) 0.3775(3) 0.53849(19)
H3 H 0.0905 0.2895 0.5340
H4 H 0.2325 0.4031 0.5065
C2 C 0.1228(6) 0.3709(4) 0.6254(2)
H5 H 0.0028 0.3331 0.6586
H6 H 0.2555 0.3127 0.6414
C3 C 0.1248(5) 0.5066(3) 0.63828(18)
H7 H 0.2597 0.5369 0.6117
C4 C -0.0619(6) 0.6080(3) 0.6046(2)
H8 H -0.0458 0.6951 0.6094
H9 H -0.1961 0.5856 0.6349
C5 C -0.0718(6) 0.6130(3) 0.51742(19)
H10 H 0.0678 0.6338 0.4896
C6 C -0.2430(7) 0.7254(4) 0.4803(2)
H11 H -0.2237 0.8080 0.4909
H12 H -0.3857 0.7066 0.5036
C7 C -0.2242(7) 0.7401(3) 0.3901(2)
H13 H -0.3366 0.8099 0.3667
H14 H -0.0852 0.7649 0.3663
C8 C -0.2464(6) 0.6107(3) 0.37369(19)
C9 C -0.0893(5) 0.4896(3) 0.41493(17)
H15 H 0.0571 0.5037 0.3914
C10 C -0.0948(5) 0.4764(3) 0.50529(17)
C11 C -0.1360(5) 0.3709(3) 0.39062(18)
H16 H -0.2813 0.3527 0.4131
C12 C -0.1183(5) 0.3963(3) 0.30166(18)
H17 H 0.0149 0.4330 0.2796
C13 C -0.3075(5) 0.4921(3) 0.26446(18)
C14 C -0.3466(5) 0.6117(3) 0.30207(19)
C15 C -0.4131(7) 0.7384(4) 0.2393(2)
H18 H -0.5577 0.7807 0.2540
H19 H -0.3136 0.8008 0.2330
C16 C -0.4065(6) 0.6952(4) 0.1629(2)
H20 H -0.3453 0.7583 0.1183
H21 H -0.5512 0.6902 0.1530
C17 C -0.2656(5) 0.5586(3) 0.17409(18)
H22 H -0.3171 0.5072 0.1435
C18 C -0.5129(5) 0.4307(4) 0.2786(2)
H23 H -0.5473 0.3972 0.3346
H24 H -0.4911 0.3590 0.2528
H25 H -0.6299 0.4971 0.2573
C19 C -0.3035(6) 0.4286(4) 0.5481(2)
H26 H -0.3116 0.4274 0.6033
H27 H -0.3047 0.3404 0.5429
H28 H -0.4254 0.4877 0.5250
C20 C -0.0302(6) 0.5660(4) 0.14787(19)
C21 C 0.1016(7) 0.4572(5) 0.1130(3)
H29 H 0.2521 0.4643 0.1085
H30 H 0.0588 0.4654 0.0614
H31 H 0.0781 0.3723 0.1470
C22 C -0.0119(6) 0.1731(3) 0.3588(2)
C23 C 0.2063(8) 0.0978(4) 0.3369(3)
H32 H 0.2635 0.0400 0.3840
H33 H 0.3031 0.1597 0.3114
H34 H 0.1909 0.0459 0.3013
C24 C -0.1771(9) 0.0849(4) 0.3968(3)
H35 H -0.3100 0.1382 0.4112
H36 H -0.1254 0.0225 0.4436
H37 H -0.2019 0.0375 0.3601
C25 C 0.3127(5) 0.4803(3) 0.75147(19)
H38 H 0.4125 0.5318 0.7132
C26 C 0.2870(6) 0.5197(4) 0.8296(2)
H39 H 0.1802 0.4732 0.8660
H40 H 0.2355 0.6145 0.8208
C27 C 0.5008(6) 0.4858(3) 0.86592(19)
H41 H 0.6031 0.5401 0.8313
C28 C 0.5927(5) 0.3392(3) 0.87307(18)
H42 H 0.4976 0.2837 0.9110
C29 C 0.6080(5) 0.3103(3) 0.79151(19)
H43 H 0.7004 0.3686 0.7543
C30 C 0.8467(5) 0.1918(3) 0.95681(19)
H44 H 0.7886 0.1211 0.9440
C31 C 1.0885(6) 0.1554(4) 0.9597(2)
H45 H 1.1432 0.2280 0.9717
C32 C 1.1373(6) 0.0291(4) 1.0256(2)
H46 H 1.2930 0.0087 1.0307
C33 C 1.0164(6) 0.0491(4) 1.1032(2)
H47 H 1.0703 0.1206 1.1168
C34 C 0.7766(6) 0.0928(3) 1.09404(19)
H48 H 0.7193 0.0230 1.0800
C35 C 0.6960(6) 0.1681(4) 0.7883(2)
H49 H 0.7039 0.1603 0.7347
H50 H 0.6021 0.1102 0.8219
H51 H 0.8379 0.1435 0.8062
C36 C 0.6355(9) 0.5567(6) 0.9646(3)
H52 H 0.7003 0.6184 0.9212
H53 H 0.7406 0.4792 0.9817
H54 H 0.5853 0.5979 1.0079
C37 C 1.2204(11) -0.1603(5) 0.9684(3)
H55 H 1.3625 -0.1639 0.9829
H56 H 1.2169 -0.1226 0.9123
H57 H 1.1852 -0.2485 0.9816
C38 C 0.6466(9) 0.1250(4) 1.1672(2)
H58 H 0.4969 0.1512 1.1577
H59 H 0.6978 0.1964 1.1795
H60 H 0.6621 0.0478 1.2109
O13 O 0.362(7) 0.776(2) 0.671(2)
C39 C 0.237(6) 0.975(2) 0.5846(16)
H61 H 0.1988 0.9181 0.5561
H62 H 0.3559 1.0170 0.5549
H63 H 0.1156 1.0420 0.5918
C40 C 0.302(6) 0.896(2) 0.6626(14)
C41 C 0.371(10) 0.960(4) 0.7176(19)
H67 H 0.4084 0.8938 0.7652
H68 H 0.2558 1.0261 0.7305
H69 H 0.4953 1.0005 0.6929
H64? H 0.2481 1.0666 0.5791
H65? H 0.0909 0.9677 0.5803
H66? H 0.3313 0.9428 0.5434
H70? H 0.3646 1.0531 0.6938
H71? H 0.5172 0.9208 0.7286
H72? H 0.2777 0.9465 0.7662
O14? O 0.420(7) 0.8035(19) 0.653(3)
C42? C 0.495(4) 1.020(2) 0.6113(14)
H73? H 0.6262 0.9778 0.5875
H74? H 0.5288 1.0588 0.6509
H75? H 0.4235 1.0889 0.5711
H76? H 0.4262 1.1059 0.6188
H77? H 0.5235 1.0248 0.5555
H78? H 0.6288 0.9948 0.6353
C43? C 0.352(4) 0.921(2) 0.648(2)
C44? C 0.140(6) 0.961(3) 0.689(3)
H79? H 0.0679 0.8850 0.7094
H80? H 0.0546 1.0282 0.6529
H81? H 0.1603 0.9956 0.7327
H82? H 0.1206 1.0543 0.6872
H83? H 0.1340 0.9110 0.7438
H84? H 0.0282 0.9436 0.6640
loop_
_geom_bond_atom_site_label_1
_geom_bond_atom_site_label_2
_geom_bond_site_symmetry_1
_geom_bond_site_symmetry_2
O1 C8 1_555 1_555
O2 C11 1_555 1_555
O3 C12 1_555 1_555
O4 C20 1_555 1_555
O5 C3 1_555 1_555
O6 C25 1_555 1_555
O7 C28 1_555 1_555
O8 C30 1_555 1_555
O9 C27 1_555 1_555
O10 H1 1_555 1_555
O11 C32 1_555 1_555
O12 H2 1_555 1_555
C1 H3 1_555 1_555
H4 C1 1_555 1_555
C2 C1 1_555 1_555
H5 C2 1_555 1_555
H6 C2 1_555 1_555
C3 C2 1_555 1_555
H7 C3 1_555 1_555
C4 C3 1_555 1_555
H8 C4 1_555 1_555
H9 C4 1_555 1_555
C5 C4 1_555 1_555
H10 C5 1_555 1_555
C6 C5 1_555 1_555
H11 C6 1_555 1_555
H12 C6 1_555 1_555
C7 C6 1_555 1_555
H13 C7 1_555 1_555
H14 C7 1_555 1_555
C8 C7 1_555 1_555
C9 C8 1_555 1_555
H15 C9 1_555 1_555
C10 C1 1_555 1_555
C11 C9 1_555 1_555
H16 C11 1_555 1_555
C12 C11 1_555 1_555
H17 C12 1_555 1_555
C13 C12 1_555 1_555
C14 O1 1_555 1_555
C15 C14 1_555 1_555
H18 C15 1_555 1_555
H19 C15 1_555 1_555
C16 C15 1_555 1_555
H20 C16 1_555 1_555
H21 C16 1_555 1_555
C17 C13 1_555 1_555
H22 C17 1_555 1_555
C18 C13 1_555 1_555
H23 C18 1_555 1_555
H24 C18 1_555 1_555
H25 C18 1_555 1_555
C19 C10 1_555 1_555
H26 C19 1_555 1_555
H27 C19 1_555 1_555
H28 C19 1_555 1_555
C20 C17 1_555 1_555
C21 C20 1_555 1_555
H29 C21 1_555 1_555
H30 C21 1_555 1_555
H31 C21 1_555 1_555
C22 O2 1_555 1_555
C23 C22 1_555 1_555
H32 C23 1_555 1_555
H33 C23 1_555 1_555
H34 C23 1_555 1_555
C24 C22 1_555 1_555
H35 C24 1_555 1_555
H36 C24 1_555 1_555
H37 C24 1_555 1_555
C25 O5 1_555 1_555
H38 C25 1_555 1_555
C26 C25 1_555 1_555
H39 C26 1_555 1_555
H40 C26 1_555 1_555
C27 C26 1_555 1_555
H41 C27 1_555 1_555
C28 C27 1_555 1_555
H42 C28 1_555 1_555
C29 O6 1_555 1_555
H43 C29 1_555 1_555
C30 O7 1_555 1_555
H44 C30 1_555 1_555
C31 O10 1_555 1_555
H45 C31 1_555 1_555
C32 C31 1_555 1_555
H46 C32 1_555 1_555
C33 O12 1_555 1_555
H47 C33 1_555 1_555
C34 O8 1_555 1_555
H48 C34 1_555 1_555
C35 C29 1_555 1_555
H49 C35 1_555 1_555
H50 C35 1_555 1_555
H51 C35 1_555 1_555
C36 O9 1_555 1_555
H52 C36 1_555 1_555
H53 C36 1_555 1_555
H54 C36 1_555 1_555
C37 O11 1_555 1_555
H55 C37 1_555 1_555
H56 C37 1_555 1_555
H57 C37 1_555 1_555
C38 C34 1_555 1_555
H58 C38 1_555 1_555
H59 C38 1_555 1_555
H60 C38 1_555 1_555
O13 C40 1_555 1_555
C39 H61 1_555 1_555
H62 C39 1_555 1_555
H63 C39 1_555 1_555
C40 C39 1_555 1_555
C41 C40 1_555 1_555
H67 C41 1_555 1_555
H68 C41 1_555 1_555
H69 C41 1_555 1_555
O3 C22 1_555 1_555
C5 C10 1_555 1_555
C8 C14 1_555 1_555
C9 C10 1_555 1_555
C13 C14 1_555 1_555
C16 C17 1_555 1_555
C28 C29 1_555 1_555
C30 C31 1_555 1_555
C32 C33 1_555 1_555
C33 C34 1_555 1_555

#END
