
#######################################################################
#
#                 Cambridge Crystallographic Data Centre
#                                CCDC 
#
#######################################################################
#
# If this CIF has been generated from an entry in the Cambridge 
# Structural Database, then it will include bibliographic, chemical, 
# crystal, experimental, refinement or atomic coordinate data resulting 
# from the CCDC's data processing and validation procedures.
#
#######################################################################

data_QERLIJ
_chemical_formula_moiety         'C20 H16 Cl1 N3 O2'
_chemical_name_systematic        
(E)-N'-(2-(4-Chlorobenzyloxy)benzylidene)isonicotinohydrazide
_symmetry_cell_setting           orthorhombic
_symmetry_space_group_name_H-M   'P b c a'
_symmetry_Int_Tables_number      61
_space_group_name_Hall           '-P 2ac 2ab'
loop_
_symmetry_equiv_pos_site_id
_symmetry_equiv_pos_as_xyz
1 x,y,z
2 1/2-x,-y,1/2+z
3 -x,1/2+y,1/2-z
4 1/2+x,1/2-y,-z
5 -x,-y,-z
6 1/2+x,y,1/2-z
7 x,1/2-y,1/2+z
8 1/2-x,1/2+y,z
_cell_length_a                   10.212(2)
_cell_length_b                   9.696(2)
_cell_length_c                   36.927(8)
_cell_angle_alpha                90
_cell_angle_beta                 90
_cell_angle_gamma                90
_cell_volume                     3656.35
_exptl_crystal_colour            colorless
_exptl_crystal_description       block
_cell_formula_units_Z            8
_exptl_crystal_recrystallization_method ethanol
loop_
_atom_site_label
_atom_site_type_symbol
_atom_site_fract_x
_atom_site_fract_y
_atom_site_fract_z
Cl1 Cl 0.58983(10) 1.05062(9) 0.31490(2)
O1 O 0.57948(19) 0.53391(17) 0.42885(4)
O2 O 0.20504(19) 0.05250(16) 0.35534(5)
N1 N 0.3528(2) 0.23223(19) 0.39528(5)
N2 N 0.2927(2) 0.26354(18) 0.36280(5)
H1 H 0.3006 0.3454 0.3541
N3 N 0.0525(3) 0.3058(3) 0.24466(7)
C1 C 0.5395(3) 0.8210(3) 0.40256(7)
H2 H 0.4742 0.8076 0.4198
C2 C 0.5201(3) 0.9159(3) 0.37571(7)
H3 H 0.4433 0.9675 0.3749
C3 C 0.6157(3) 0.9341(3) 0.34986(7)
C4 C 0.7298(3) 0.8596(3) 0.35124(8)
H4 H 0.7942 0.8722 0.3338
C5 C 0.7479(3) 0.7654(3) 0.37893(7)
H5 H 0.8255 0.7153 0.3801
C6 C 0.6530(3) 0.7448(2) 0.40482(6)
C7 C 0.6726(3) 0.6407(3) 0.43443(7)
H6 H 0.7608 0.6037 0.4335
H7 H 0.6594 0.6832 0.4579
C8 C 0.5750(2) 0.4257(2) 0.45250(6)
C9 C 0.6470(3) 0.4179(3) 0.48426(6)
H8 H 0.7039 0.4887 0.4906
C10 C 0.6332(3) 0.3037(3) 0.50629(7)
H9 H 0.6796 0.2989 0.5279
C11 C 0.5518(3) 0.1972(3) 0.49663(7)
H10 H 0.5441 0.1204 0.5116
C12 C 0.4814(3) 0.2042(3) 0.46473(7)
H11 H 0.4269 0.1315 0.4582
C13 C 0.4912(2) 0.3189(2) 0.44224(6)
C14 C 0.4194(2) 0.3305(2) 0.40830(6)
H12 H 0.4225 0.4135 0.3957
C15 C 0.2227(2) 0.1701(2) 0.34450(6)
C16 C 0.1668(2) 0.2204(2) 0.30967(6)
C17 C 0.2254(3) 0.3183(3) 0.28839(6)
H13 H 0.3042 0.3584 0.2953
C18 C 0.1647(4) 0.3566(3) 0.25630(8)
H14 H 0.2060 0.4225 0.2420
C19 C -0.0018(4) 0.2118(4) 0.26539(10)
H15 H -0.0811 0.1743 0.2578
C20 C 0.0502(3) 0.1648(3) 0.29751(8)
H16 H 0.0075 0.0969 0.3108
loop_
_geom_bond_atom_site_label_1
_geom_bond_atom_site_label_2
_geom_bond_site_symmetry_1
_geom_bond_site_symmetry_2
Cl1 C3 1_555 1_555
O1 C7 1_555 1_555
O2 C15 1_555 1_555
N1 N2 1_555 1_555
N2 H1 1_555 1_555
N3 C18 1_555 1_555
C1 H2 1_555 1_555
C2 C1 1_555 1_555
H3 C2 1_555 1_555
C3 C2 1_555 1_555
C4 C3 1_555 1_555
H4 C4 1_555 1_555
C5 C4 1_555 1_555
H5 C5 1_555 1_555
C6 C1 1_555 1_555
C7 C6 1_555 1_555
H6 C7 1_555 1_555
H7 C7 1_555 1_555
C8 O1 1_555 1_555
C9 C8 1_555 1_555
H8 C9 1_555 1_555
C10 C9 1_555 1_555
H9 C10 1_555 1_555
C11 C10 1_555 1_555
H10 C11 1_555 1_555
C12 C11 1_555 1_555
H11 C12 1_555 1_555
C13 C8 1_555 1_555
C14 N1 1_555 1_555
H12 C14 1_555 1_555
C15 N2 1_555 1_555
C16 C15 1_555 1_555
C17 C16 1_555 1_555
H13 C17 1_555 1_555
C18 C17 1_555 1_555
H14 C18 1_555 1_555
C19 N3 1_555 1_555
H15 C19 1_555 1_555
C20 C16 1_555 1_555
H16 C20 1_555 1_555
C5 C6 1_555 1_555
C12 C13 1_555 1_555
C13 C14 1_555 1_555
C19 C20 1_555 1_555

#END
