
#######################################################################
#
#                 Cambridge Crystallographic Data Centre
#                                CCDC 
#
#######################################################################
#
# If this CIF has been generated from an entry in the Cambridge 
# Structural Database, then it will include bibliographic, chemical, 
# crystal, experimental, refinement or atomic coordinate data resulting 
# from the CCDC's data processing and validation procedures.
#
#######################################################################

data_QERXAP
_chemical_formula_moiety         'C29 H31 N3 O2'
_chemical_name_systematic        
"2,2'-[{[bis(pyridin-2-yl)methyl]azanediyl}bis(methylene)]bis(4,6-dimethylphenol) unknown solvate"
_symmetry_cell_setting           monoclinic
_symmetry_space_group_name_H-M   'P 21/n'
_symmetry_Int_Tables_number      14
_space_group_name_Hall           '-P 2yn'
loop_
_symmetry_equiv_pos_site_id
_symmetry_equiv_pos_as_xyz
1 x,y,z
2 1/2-x,1/2+y,1/2-z
3 -x,-y,-z
4 1/2+x,1/2-y,1/2+z
_cell_length_a                   8.8039(2)
_cell_length_b                   21.0328(4)
_cell_length_c                   14.8543(3)
_cell_angle_alpha                90
_cell_angle_beta                 106.329(2)
_cell_angle_gamma                90
_cell_volume                     2639.63
_exptl_crystal_colour            white
_exptl_crystal_description       needle
_cell_formula_units_Z            4
loop_
_atom_site_label
_atom_site_type_symbol
_atom_site_fract_x
_atom_site_fract_y
_atom_site_fract_z
C1 C 0.30501(19) 0.85314(9) 0.11363(13)
H1 H 0.317127 0.894066 0.138340
C2 C 0.23150(18) 0.80802(10) 0.15454(12)
H2 H 0.197022 0.818043 0.206535
C3 C 0.21053(19) 0.74786(10) 0.11649(13)
H3 H 0.159009 0.716955 0.141765
C4 C 0.26623(17) 0.73346(8) 0.04061(12)
H4 H 0.252472 0.693068 0.014092
C5 C 0.34241(17) 0.78025(8) 0.00526(11)
C6 C 0.40589(17) 0.76379(7) -0.07736(11)
H5 H 0.419437 0.717519 -0.075549
C7 C 0.56958(17) 0.79150(8) -0.06792(11)
C8 C 0.68253(18) 0.79354(8) 0.01842(12)
H6 H 0.657176 0.780454 0.072236
C9 C 0.83328(19) 0.81516(9) 0.02405(12)
H7 H 0.910428 0.816774 0.081510
C10 C 0.86737(19) 0.83432(10) -0.05713(13)
H8 H 0.967752 0.848918 -0.055670
C11 C 0.7486(2) 0.83120(10) -0.14021(13)
H9 H 0.771312 0.844342 -0.194805
C12 C 0.15361(17) 0.73801(7) -0.19464(11)
H10 H 0.084536 0.751782 -0.254527
H11 H 0.097402 0.744168 -0.147735
C13 C 0.18830(17) 0.66777(7) -0.20048(11)
C14 C 0.31410(17) 0.64543(8) -0.23211(11)
C15 C 0.4748(2) 0.55754(9) -0.27494(15)
H12 H 0.464190 0.573221 -0.337102
H13 H 0.476196 0.511907 -0.275483
H14 H 0.571705 0.573030 -0.233172
C16 C 0.33672(19) 0.58030(8) -0.24202(12)
C17 C 0.23057(19) 0.53793(8) -0.22073(12)
H15 H 0.244838 0.494565 -0.227497
C18 C -0.0108(2) 0.51163(8) -0.16702(14)
H16 H -0.000060 0.512547 -0.100901
H17 H 0.012189 0.469631 -0.184865
H18 H -0.117121 0.522946 -0.200956
C19 C 0.10332(18) 0.55841(8) -0.18955(12)
C20 C 0.08604(17) 0.62344(8) -0.17872(11)
H19 H 0.003704 0.637856 -0.156249
C21 C 0.25315(17) 0.84635(7) -0.18304(11)
H20 H 0.346464 0.872090 -0.156600
H21 H 0.176672 0.855841 -0.148974
C22 C 0.18381(18) 0.86381(7) -0.28480(11)
C23 C 0.27240(18) 0.85811(7) -0.34953(11)
C24 C 0.3030(2) 0.86933(9) -0.51240(12)
H22 H 0.393304 0.896964 -0.494575
H23 H 0.238992 0.880502 -0.574059
H24 H 0.337918 0.826090 -0.512450
C25 C 0.20686(19) 0.87628(8) -0.44342(11)
C26 C 0.05466(19) 0.90178(8) -0.47028(12)
H25 H 0.011475 0.914248 -0.532292
C27 C -0.1979(2) 0.93874(10) -0.43638(13)
H26 H -0.258236 0.923992 -0.395837
H27 H -0.250411 0.926826 -0.499900
H28 H -0.188437 0.984187 -0.432137
C28 C -0.03502(18) 0.90920(8) -0.40693(12)
C29 C 0.03153(18) 0.88893(7) -0.31537(11)
H29 H -0.027870 0.892254 -0.272771
N1 N 0.29689(14) 0.77829(6) -0.17058(9)
N2 N 0.36037(16) 0.84035(7) 0.03887(10)
N3 N 0.60189(15) 0.81024(7) -0.14677(10)
O1 O 0.42068(13) 0.68574(5) -0.25414(8)
H30 H 0.399603 0.722529 -0.243880
O2 O 0.42411(13) 0.83623(6) -0.32599(8)
H31 H 0.454022 0.829183 -0.269442
loop_
_geom_bond_atom_site_label_1
_geom_bond_atom_site_label_2
_geom_bond_site_symmetry_1
_geom_bond_site_symmetry_2
C1 H1 1_555 1_555
C2 C1 1_555 1_555
H2 C2 1_555 1_555
C3 C2 1_555 1_555
H3 C3 1_555 1_555
C4 C3 1_555 1_555
H4 C4 1_555 1_555
C5 C4 1_555 1_555
C6 C5 1_555 1_555
H5 C6 1_555 1_555
C7 C6 1_555 1_555
C8 C7 1_555 1_555
H6 C8 1_555 1_555
C9 C8 1_555 1_555
H7 C9 1_555 1_555
C10 C9 1_555 1_555
H8 C10 1_555 1_555
C11 C10 1_555 1_555
H9 C11 1_555 1_555
C12 H10 1_555 1_555
H11 C12 1_555 1_555
C13 C12 1_555 1_555
C14 C13 1_555 1_555
C15 H12 1_555 1_555
H13 C15 1_555 1_555
H14 C15 1_555 1_555
C16 C14 1_555 1_555
C17 C16 1_555 1_555
H15 C17 1_555 1_555
C18 H16 1_555 1_555
H17 C18 1_555 1_555
H18 C18 1_555 1_555
C19 C17 1_555 1_555
C20 C13 1_555 1_555
H19 C20 1_555 1_555
C21 H20 1_555 1_555
H21 C21 1_555 1_555
C22 C21 1_555 1_555
C23 C22 1_555 1_555
C24 H22 1_555 1_555
H23 C24 1_555 1_555
H24 C24 1_555 1_555
C25 C23 1_555 1_555
C26 C25 1_555 1_555
H25 C26 1_555 1_555
C27 H26 1_555 1_555
H27 C27 1_555 1_555
H28 C27 1_555 1_555
C28 C26 1_555 1_555
C29 C22 1_555 1_555
H29 C29 1_555 1_555
N1 C6 1_555 1_555
N2 C1 1_555 1_555
N3 C7 1_555 1_555
O1 C14 1_555 1_555
H30 O1 1_555 1_555
O2 C23 1_555 1_555
H31 O2 1_555 1_555
C5 N2 1_555 1_555
C11 N3 1_555 1_555
C12 N1 1_555 1_555
C15 C16 1_555 1_555
C18 C19 1_555 1_555
C19 C20 1_555 1_555
C21 N1 1_555 1_555
C24 C25 1_555 1_555
C27 C28 1_555 1_555
C28 C29 1_555 1_555

#END
