
#######################################################################
#
#                 Cambridge Crystallographic Data Centre
#                                CCDC 
#
#######################################################################
#
# If this CIF has been generated from an entry in the Cambridge 
# Structural Database, then it will include bibliographic, chemical, 
# crystal, experimental, refinement or atomic coordinate data resulting 
# from the CCDC's data processing and validation procedures.
#
#######################################################################

data_QESGIH
_chemical_formula_moiety         'C13 H9 N5'
_chemical_name_systematic        6-phenyl-3-(pyrimidin-2-yl)-1,2,4-triazine
_symmetry_cell_setting           monoclinic
_symmetry_space_group_name_H-M   'P 21/n'
_symmetry_Int_Tables_number      14
_space_group_name_Hall           '-P 2yn'
loop_
_symmetry_equiv_pos_site_id
_symmetry_equiv_pos_as_xyz
1 x,y,z
2 1/2-x,1/2+y,1/2-z
3 -x,-y,-z
4 1/2+x,1/2-y,1/2+z
_cell_length_a                   21.0260(14)
_cell_length_b                   5.1676(6)
_cell_length_c                   22.564(3)
_cell_angle_alpha                90
_cell_angle_beta                 107.673(10)
_cell_angle_gamma                90
_cell_volume                     2335.96
_exptl_crystal_colour            'light yellow'
_exptl_crystal_description       needle
_cell_formula_units_Z            8
loop_
_atom_site_label
_atom_site_type_symbol
_atom_site_fract_x
_atom_site_fract_y
_atom_site_fract_z
N1 N 0.41737(9) 1.0333(5) 0.22251(11)
N2 N 0.31091(9) 1.1379(5) 0.23183(10)
N3 N 0.30431(10) 1.5335(5) 0.15140(10)
N4 N 0.42882(9) 0.8687(5) 0.27071(11)
C1 C 0.35991(11) 1.1625(5) 0.20515(12)
N5 N 0.38034(10) 1.3032(5) 0.11111(11)
C2 C 0.34805(11) 1.3441(5) 0.15275(12)
C3 C 0.38262(11) 0.8364(5) 0.29935(12)
C4 C 0.39814(11) 0.6608(5) 0.35296(12)
C5 C 0.32272(12) 0.9737(6) 0.27790(14)
H1 H 0.2900 0.9469 0.2972
C6 C 0.44645(13) 0.4698(6) 0.36073(14)
H2 H 0.4688 0.4511 0.3312
C7 C 0.32469(15) 1.6786(6) 0.05894(14)
H3 H 0.3171 1.7962 0.0263
C8 C 0.29409(13) 1.7017(6) 0.10386(14)
H4 H 0.2649 1.8392 0.1016
C9 C 0.36749(14) 1.4722(7) 0.06424(14)
H5 H 0.3884 1.4496 0.0337
C10 C 0.36532(14) 0.6803(6) 0.39765(14)
H6 H 0.3320 0.8038 0.3928
C11 C 0.46166(15) 0.3076(6) 0.41165(16)
H7 H 0.4944 0.1816 0.4165
C12 C 0.42862(17) 0.3321(7) 0.45501(16)
H8 H 0.4383 0.2204 0.4889
C13 C 0.38091(16) 0.5218(7) 0.44863(16)
H9 H 0.3594 0.5421 0.4788
N6 N 0.80057(10) 0.5192(5) 0.42072(10)
N7 N 0.84873(10) 0.6933(5) 0.42219(10)
N8 N 0.79680(10) 0.8040(5) 0.31741(10)
N9 N 0.93730(11) 1.0802(5) 0.43211(11)
C14 C 0.75098(11) 0.4895(5) 0.36873(12)
C15 C 0.84466(12) 0.8285(5) 0.37175(12)
C16 C 0.69927(12) 0.2984(6) 0.37057(14)
N10 N 0.90255(14) 1.1183(7) 0.32392(12)
C17 C 0.89785(12) 1.0235(6) 0.37602(13)
C18 C 0.75029(13) 0.6328(7) 0.31635(13)
H10 H 0.7159 0.6066 0.2796
C19 C 0.70877(14) 0.1401(6) 0.42098(15)
H11 H 0.7480 0.1536 0.4539
C20 C 0.64030(13) 0.2776(7) 0.32218(14)
H12 H 0.6330 0.3825 0.2873
C21 C 0.60294(18) -0.0596(8) 0.3763(2)
H13 H 0.5708 -0.1805 0.3780
C22 C 0.98521(14) 1.2544(7) 0.43460(16)
H14 H 1.0138 1.3014 0.4733
C23 C 0.99383(15) 1.3641(7) 0.38368(18)
H15 H 1.0275 1.4843 0.3862
C24 C 0.95155(19) 1.2916(10) 0.32931(19)
H16 H 0.9562 1.3647 0.2932
C25 C 0.59202(16) 0.0992(9) 0.32590(19)
H17 H 0.5520 0.0883 0.2938
C26 C 0.66072(18) -0.0417(7) 0.4240(2)
H18 H 0.6682 -0.1498 0.4584
loop_
_geom_bond_atom_site_label_1
_geom_bond_atom_site_label_2
_geom_bond_site_symmetry_1
_geom_bond_site_symmetry_2
N1 N4 1_555 1_555
N2 C1 1_555 1_555
N3 C2 1_555 1_555
N4 C3 1_555 1_555
C1 N1 1_555 1_555
N5 C2 1_555 1_555
C2 C1 1_555 1_555
C3 C4 1_555 1_555
C4 C6 1_555 1_555
C5 N2 1_555 1_555
H1 C5 1_555 1_555
C6 H2 1_555 1_555
C7 H3 1_555 1_555
C8 N3 1_555 1_555
H4 C8 1_555 1_555
C9 N5 1_555 1_555
H5 C9 1_555 1_555
C10 C4 1_555 1_555
H6 C10 1_555 1_555
C11 C6 1_555 1_555
H7 C11 1_555 1_555
C12 C11 1_555 1_555
H8 C12 1_555 1_555
C13 C10 1_555 1_555
H9 C13 1_555 1_555
N6 N7 1_555 1_555
N7 C15 1_555 1_555
N8 C15 1_555 1_555
N9 C17 1_555 1_555
C14 N6 1_555 1_555
C15 C17 1_555 1_555
C16 C14 1_555 1_555
N10 C17 1_555 1_555
C18 N8 1_555 1_555
H10 C18 1_555 1_555
C19 C16 1_555 1_555
H11 C19 1_555 1_555
C20 C16 1_555 1_555
H12 C20 1_555 1_555
C21 H13 1_555 1_555
C22 N9 1_555 1_555
H14 C22 1_555 1_555
C23 C22 1_555 1_555
H15 C23 1_555 1_555
C24 N10 1_555 1_555
H16 C24 1_555 1_555
C25 C20 1_555 1_555
H17 C25 1_555 1_555
C26 C19 1_555 1_555
H18 C26 1_555 1_555
C3 C5 1_555 1_555
C7 C8 1_555 1_555
C7 C9 1_555 1_555
C12 C13 1_555 1_555
C14 C18 1_555 1_555
C21 C25 1_555 1_555
C21 C26 1_555 1_555
C23 C24 1_555 1_555

#END
