
#######################################################################
#
#                 Cambridge Crystallographic Data Centre
#                                CCDC 
#
#######################################################################
#
# If this CIF has been generated from an entry in the Cambridge 
# Structural Database, then it will include bibliographic, chemical, 
# crystal, experimental, refinement or atomic coordinate data resulting 
# from the CCDC's data processing and validation procedures.
#
#######################################################################

data_QESQEN
_chemical_formula_moiety         'C14 H17 N3 O4'
_chemical_name_systematic        
'methyl 4-{[(1-methyl-5,6-dioxopiperazin-2-yl)methyl]amino}benzoate'
_symmetry_cell_setting           trigonal
_symmetry_space_group_name_H-M   'P 32 2 1'
_symmetry_Int_Tables_number      154
_space_group_name_Hall           'P 32 2"'
loop_
_symmetry_equiv_pos_site_id
_symmetry_equiv_pos_as_xyz
1 x,y,z
2 -y,x-y,2/3+z
3 -x+y,-x,1/3+z
4 x-y,-y,1/3-z
5 -x,-x+y,2/3-z
6 y,x,-z
_cell_length_a                   7.28465(11)
_cell_length_b                   7.28465(11)
_cell_length_c                   89.2428(12)
_cell_angle_alpha                90
_cell_angle_beta                 90
_cell_angle_gamma                120
_cell_volume                     4101.3
_exptl_crystal_colour            colorless
_exptl_crystal_description       prism
_cell_formula_units_Z            12
loop_
_atom_site_label
_atom_site_type_symbol
_atom_site_fract_x
_atom_site_fract_y
_atom_site_fract_z
O1 O 0.1887(7) 0.1847(7) 0.08736(4)
O2 O 0.4805(7) 0.2778(8) 0.10122(4)
O3 O 1.3518(8) 0.6039(7) -0.00905(4)
C1 C 0.7203(10) 0.2844(9) 0.04795(6)
C2 C 0.4995(10) 0.2489(10) 0.07466(6)
O4 O 1.1340(9) 0.8122(9) -0.00281(5)
N1 N 1.4388(8) 0.6237(8) 0.01552(5)
H1 H 1.5220 0.5704 0.0139
C3 C 0.3989(10) 0.2205(10) 0.06073(6)
H2 H 0.2568 0.1921 0.0603
N2 N 0.8203(8) 0.2945(9) 0.03477(5)
H3 H 0.7426 0.2501 0.0266
C4 C 0.3924(10) 0.2388(10) 0.08907(6)
C5 C 0.7088(9) 0.2973(9) 0.07496(6)
H4 H 0.7775 0.3173 0.0844
C6 C 1.3352(10) 0.6488(10) 0.00397(6)
C7 C 0.8212(10) 0.3174(10) 0.06199(6)
H5 H 0.9656 0.3533 0.0625
N3 N 1.1196(8) 0.7164(8) 0.02179(5)
C8 C 0.0811(10) 0.1725(10) 0.10117(6)
H6 H -0.0643 0.1390 0.0990
H7 H 0.1563 0.3089 0.1064
H8 H 0.0779 0.0612 0.1075
C9 C 0.5075(10) 0.2338(9) 0.04757(6)
H9 H 0.4366 0.2082 0.0382
C10 C 1.4157(10) 0.6835(10) 0.03081(6)
H10 H 1.5051 0.8387 0.0321
H11 H 1.4619 0.6128 0.0382
C11 C 1.1854(10) 0.6161(10) 0.03337(6)
H12 H 1.1725 0.6701 0.0434
C12 C 1.0449(10) 0.3731(10) 0.03335(6)
H13 H 1.0700 0.3178 0.0239
H14 H 1.0900 0.3153 0.0417
C13 C 0.9794(11) 0.7989(11) 0.02610(6)
H15 H 0.8426 0.6815 0.0294
H16 H 0.9575 0.8689 0.0175
H17 H 1.0447 0.9013 0.0343
C14 C 1.1859(11) 0.7348(10) 0.00743(6)
O5 O 1.3926(7) 0.7196(8) 0.06510(4)
O6 O 1.6831(7) 0.8180(7) 0.07909(4)
C15 C 1.3686(10) 0.7465(10) 0.09164(6)
O7 O 0.6938(8) 0.6634(7) 0.17311(5)
O8 O 0.5266(8) 0.2365(7) 0.17606(4)
C16 C 1.3523(10) 0.7404(10) 0.11865(6)
H18 H 1.4216 0.7670 0.1281
N4 N 0.6909(9) 0.6273(8) 0.14778(5)
C17 C 1.0365(10) 0.6440(10) 0.10412(6)
H19 H 0.8908 0.6036 0.1036
N5 N 0.4249(8) 0.1962(9) 0.15170(5)
H20 H 0.3600 0.0571 0.1523
C18 C 1.4789(10) 0.7614(9) 0.07726(6)
C19 C 1.1364(10) 0.6612(10) 0.11816(6)
N6 N 1.0178(8) 0.5932(9) 0.13116(5)
H21 H 1.0771 0.6572 0.1396
C20 C 1.1595(9) 0.6885(9) 0.09113(6)
H22 H 1.0952 0.6780 0.0817
C21 C 0.6332(10) 0.4853(10) 0.13464(6)
H23 H 0.6226 0.5620 0.1257
C22 C 0.6468(10) 0.5532(10) 0.16175(6)
C23 C 1.4702(10) 0.7820(10) 0.10560(6)
H24 H 1.6184 0.8340 0.1061
C24 C 1.7913(10) 0.8205(11) 0.06556(6)
H25 H 1.7872 0.9207 0.0584
H26 H 1.7215 0.6783 0.0611
H27 H 1.9391 0.8641 0.0679
C25 C 0.5259(10) 0.3122(10) 0.16372(6)
C26 C 0.4191(9) 0.2939(10) 0.13746(6)
H28 H 0.3097 0.3364 0.1379
H29 H 0.3824 0.1907 0.1292
C27 C 0.8138(11) 0.8584(11) 0.14575(7)
H30 H 0.9401 0.9177 0.1521
H31 H 0.7263 0.9205 0.1485
H32 H 0.8569 0.8909 0.1352
C28 C 0.7991(10) 0.4202(10) 0.13145(6)
H33 H 0.7863 0.3170 0.1392
H34 H 0.7662 0.3468 0.1216
loop_
_geom_bond_atom_site_label_1
_geom_bond_atom_site_label_2
_geom_bond_site_symmetry_1
_geom_bond_site_symmetry_2
O1 C4 1_555 1_555
O2 C4 1_555 1_555
O3 C6 1_555 1_555
C1 N2 1_555 1_555
C2 C3 1_555 1_555
O4 C14 1_555 1_555
N1 H1 1_555 1_555
C3 H2 1_555 1_555
N2 H3 1_555 1_555
C4 C2 1_555 1_555
C5 C2 1_555 1_555
H4 C5 1_555 1_555
C6 N1 1_555 1_555
C7 C1 1_555 1_555
H5 C7 1_555 1_555
N3 C11 1_555 1_555
C8 O1 1_555 1_555
H6 C8 1_555 1_555
H7 C8 1_555 1_555
H8 C8 1_555 1_555
C9 C1 1_555 1_555
H9 C9 1_555 1_555
C10 N1 1_555 1_555
H10 C10 1_555 1_555
H11 C10 1_555 1_555
C11 C10 1_555 1_555
H12 C11 1_555 1_555
C12 N2 1_555 1_555
H13 C12 1_555 1_555
H14 C12 1_555 1_555
C13 N3 1_555 1_555
H15 C13 1_555 1_555
H16 C13 1_555 1_555
H17 C13 1_555 1_555
C14 C6 1_555 1_555
O5 C18 1_555 1_555
O6 C18 1_555 1_555
C15 C18 1_555 1_555
O7 C22 1_555 1_555
O8 C25 1_555 1_555
C16 H18 1_555 1_555
N4 C21 1_555 1_555
C17 H19 1_555 1_555
N5 H20 1_555 1_555
C19 C16 1_555 1_555
N6 C19 1_555 1_555
H21 N6 1_555 1_555
C20 C15 1_555 1_555
H22 C20 1_555 1_555
C21 H23 1_555 1_555
C22 N4 1_555 1_555
C23 C15 1_555 1_555
H24 C23 1_555 1_555
C24 O6 1_555 1_555
H25 C24 1_555 1_555
H26 C24 1_555 1_555
H27 C24 1_555 1_555
C25 N5 1_555 1_555
C26 N5 1_555 1_555
H28 C26 1_555 1_555
H29 C26 1_555 1_555
C27 N4 1_555 1_555
H30 C27 1_555 1_555
H31 C27 1_555 1_555
H32 C27 1_555 1_555
C28 N6 1_555 1_555
H33 C28 1_555 1_555
H34 C28 1_555 1_555
C3 C9 1_555 1_555
C5 C7 1_555 1_555
N3 C14 1_555 1_555
C11 C12 1_555 1_555
C16 C23 1_555 1_555
C17 C19 1_555 1_555
C17 C20 1_555 1_555
C21 C26 1_555 1_555
C21 C28 1_555 1_555
C22 C25 1_555 1_555

#END
