
#######################################################################
#
#                 Cambridge Crystallographic Data Centre
#                                CCDC 
#
#######################################################################
#
# If this CIF has been generated from an entry in the Cambridge 
# Structural Database, then it will include bibliographic, chemical, 
# crystal, experimental, refinement or atomic coordinate data resulting 
# from the CCDC's data processing and validation procedures.
#
#######################################################################

data_QESSOZ
_chemical_formula_moiety         'C28 H24 N2 O2 S1'
_chemical_name_systematic        
5-methyl-8-((4-methylphenyl)sulfonyl)-8,9-dihydro-7H-8,14b-diazabenzo[c]cycloocta[1,2,3-lm]fluorene
_symmetry_cell_setting           triclinic
_symmetry_space_group_name_H-M   'P -1'
_symmetry_Int_Tables_number      2
_space_group_name_Hall           '-P 1'
loop_
_symmetry_equiv_pos_site_id
_symmetry_equiv_pos_as_xyz
1 x,y,z
2 -x,-y,-z
_cell_length_a                   11.2498(12)
_cell_length_b                   12.7345(14)
_cell_length_c                   16.7793(19)
_cell_angle_alpha                70.203(2)
_cell_angle_beta                 82.010(2)
_cell_angle_gamma                81.806(3)
_cell_volume                     2228
_exptl_crystal_colour            yellow
_exptl_crystal_description       prismatic
_cell_formula_units_Z            4
loop_
_atom_site_label
_atom_site_type_symbol
_atom_site_fract_x
_atom_site_fract_y
_atom_site_fract_z
S1 S 0.67079(7) 0.37787(7) 0.15652(6)
N1 N 0.6691(2) 0.82412(19) 0.10595(14)
N2 N 0.7723(2) 0.4660(2) 0.11439(16)
O1 O 0.6347(2) 0.3488(2) 0.08910(17)
O2 O 0.7216(2) 0.29173(18) 0.22643(17)
C1 C 0.5456(2) 0.8492(2) 0.09665(17)
C2 C 0.4721(3) 0.9266(3) 0.1269(2)
H1 H 0.5032 0.9616 0.1588
C3 C 0.3531(3) 0.9526(3) 0.1102(2)
H2 H 0.3047 1.0052 0.1307
C4 C 0.3052(3) 0.9016(3) 0.0635(2)
H3 H 0.2262 0.9228 0.0496
C5 C 0.3737(3) 0.8201(3) 0.0378(2)
H4 H 0.3398 0.7831 0.0088
C6 C 0.4951(3) 0.7909(2) 0.05428(17)
C7 C 0.5656(3) 0.6986(3) 0.03443(18)
H5 H 0.5306 0.6599 0.0072
C8 C 0.6799(3) 0.6654(2) 0.05332(17)
C9 C 0.7380(2) 0.7323(2) 0.08759(16)
C10 C 0.8572(2) 0.7319(2) 0.09937(17)
C11 C 0.9607(3) 0.6507(3) 0.08871(19)
C12 C 0.9557(3) 0.5406(3) 0.1217(2)
H6 H 1.0241 0.4938 0.1129
C13 C 0.8480(3) 0.4876(3) 0.1718(2)
H7 H 0.8016 0.5367 0.2007
H8 H 0.8730 0.4175 0.2145
C14 C 0.7451(3) 0.5609(3) 0.03793(19)
H9 H 0.6965 0.5367 0.0052
H10 H 0.8204 0.5802 0.0033
C15 C 1.0738(3) 0.6984(3) 0.0379(2)
H11 H 1.1206 0.7166 0.0742
H12 H 1.0522 0.7649 -0.0080
H13 H 1.1205 0.6439 0.0152
C16 C 0.8639(2) 0.8274(2) 0.12392(16)
C17 C 0.7477(3) 0.8838(2) 0.12841(16)
C18 C 0.7271(3) 0.9810(3) 0.15083(19)
H14 H 0.6498 1.0179 0.1537
C19 C 0.8225(3) 1.0206(3) 0.1684(2)
H15 H 0.8102 1.0860 0.1828
C20 C 0.9385(3) 0.9658(3) 0.1655(2)
H16 H 1.0021 0.9947 0.1784
C21 C 0.9598(3) 0.8702(3) 0.14394(19)
H17 H 1.0373 0.8336 0.1425
C22 C 0.5447(3) 0.4500(2) 0.19621(19)
C23 C 0.4372(3) 0.4683(3) 0.1620(2)
H18 H 0.4286 0.4376 0.1204
C24 C 0.3418(3) 0.5323(4) 0.1894(2)
H19 H 0.2682 0.5418 0.1674
C25 C 0.3525(3) 0.5827(3) 0.2487(2)
C26 C 0.4611(4) 0.5598(3) 0.2829(2)
H20 H 0.4704 0.5905 0.3244
C27 C 0.5554(3) 0.4942(3) 0.2587(2)
H21 H 0.6269 0.4793 0.2843
C28 C 0.2529(4) 0.6603(4) 0.2734(3)
H22 H 0.2773 0.7348 0.2545
H23 H 0.2355 0.6355 0.3341
H24 H 0.1821 0.6606 0.2473
S2 S 0.57352(7) 0.73348(8) 0.40945(5)
N3 N 0.9181(2) 0.84459(18) 0.58990(14)
N4 N 0.5855(2) 0.7891(2) 0.48158(15)
O3 O 0.5675(2) 0.8228(2) 0.33060(13)
O4 O 0.4766(2) 0.6644(2) 0.44213(15)
C29 C 1.0165(3) 0.8550(2) 0.52675(19)
C30 C 1.1362(3) 0.8455(3) 0.5423(2)
H25 H 1.1551 0.8029 0.5973
C31 C 1.2268(3) 0.8543(3) 0.4777(3)
H26 H 1.3063 0.8478 0.4896
C32 C 1.2035(3) 0.8725(3) 0.3966(2)
H27 H 1.2661 0.8783 0.3533
C33 C 1.0876(3) 0.8819(3) 0.3801(2)
H28 H 1.0710 0.8943 0.3247
C34 C 0.9918(3) 0.8737(3) 0.44377(19)
C35 C 0.8687(3) 0.8843(3) 0.42581(19)
H29 H 0.8533 0.9004 0.3696
C36 C 0.7752(3) 0.8724(2) 0.48552(17)
C37 C 0.7972(2) 0.8498(2) 0.57229(18)
C38 C 0.7221(3) 0.8338(2) 0.64700(18)
C39 C 0.5901(3) 0.8343(3) 0.66022(18)
C40 C 0.5296(3) 0.7798(3) 0.62689(19)
H30 H 0.4464 0.7828 0.6400
C41 C 0.5841(3) 0.7149(3) 0.57065(19)
H31 H 0.6658 0.6848 0.5840
H32 H 0.5378 0.6527 0.5791
C42 C 0.6483(3) 0.8901(2) 0.46030(18)
H33 H 0.6005 0.9407 0.4873
H34 H 0.6510 0.9273 0.3993
C43 C 0.5222(3) 0.8996(3) 0.7152(2)
H35 H 0.4375 0.9073 0.7090
H36 H 0.5500 0.9727 0.6978
H37 H 0.5357 0.8606 0.7736
C44 C 0.7968(3) 0.8171(2) 0.71295(18)
C45 C 0.9171(3) 0.8243(2) 0.67669(18)
C46 C 1.0102(3) 0.8086(3) 0.7278(2)
H38 H 1.0900 0.8130 0.7043
C47 C 0.9810(3) 0.7866(3) 0.8136(2)
H39 H 1.0422 0.7761 0.8483
C48 C 0.8640(3) 0.7797(3) 0.84951(19)
H40 H 0.8473 0.7655 0.9079
C49 C 0.7718(3) 0.7934(3) 0.80098(19)
H41 H 0.6930 0.7870 0.8261
C50 C 0.7052(3) 0.6444(3) 0.40144(19)
C51 C 0.7993(3) 0.6847(3) 0.3424(2)
H42 H 0.7923 0.7581 0.3054
C52 C 0.9033(3) 0.6161(3) 0.3385(2)
H43 H 0.9665 0.6440 0.2982
C53 C 0.9179(4) 0.5070(3) 0.3922(3)
C54 C 0.8213(4) 0.4675(3) 0.4496(3)
H44 H 0.8279 0.3936 0.4858
C55 C 0.7156(4) 0.5346(3) 0.4547(2)
H45 H 0.6514 0.5063 0.4939
C56 C 1.0342(4) 0.4328(3) 0.3883(3)
H46 H 1.0417 0.4114 0.3381
H47 H 1.0339 0.3669 0.4378
H48 H 1.1010 0.4730 0.3867
loop_
_geom_bond_atom_site_label_1
_geom_bond_atom_site_label_2
_geom_bond_site_symmetry_1
_geom_bond_site_symmetry_2
S1 N2 1_555 1_555
N1 C1 1_555 1_555
N2 C13 1_555 1_555
O1 S1 1_555 1_555
O2 S1 1_555 1_555
C1 C2 1_555 1_555
C2 H1 1_555 1_555
C3 C2 1_555 1_555
H2 C3 1_555 1_555
C4 C3 1_555 1_555
H3 C4 1_555 1_555
C5 C4 1_555 1_555
H4 C5 1_555 1_555
C6 C1 1_555 1_555
C7 C6 1_555 1_555
H5 C7 1_555 1_555
C8 C7 1_555 1_555
C9 N1 1_555 1_555
C10 C9 1_555 1_555
C11 C10 1_555 1_555
C12 C11 1_555 1_555
H6 C12 1_555 1_555
C13 C12 1_555 1_555
H7 C13 1_555 1_555
H8 C13 1_555 1_555
C14 N2 1_555 1_555
H9 C14 1_555 1_555
H10 C14 1_555 1_555
C15 C11 1_555 1_555
H11 C15 1_555 1_555
H12 C15 1_555 1_555
H13 C15 1_555 1_555
C16 C10 1_555 1_555
C17 N1 1_555 1_555
C18 C17 1_555 1_555
H14 C18 1_555 1_555
C19 C18 1_555 1_555
H15 C19 1_555 1_555
C20 C19 1_555 1_555
H16 C20 1_555 1_555
C21 C16 1_555 1_555
H17 C21 1_555 1_555
C22 S1 1_555 1_555
C23 C22 1_555 1_555
H18 C23 1_555 1_555
C24 C23 1_555 1_555
H19 C24 1_555 1_555
C25 C24 1_555 1_555
C26 C25 1_555 1_555
H20 C26 1_555 1_555
C27 C22 1_555 1_555
H21 C27 1_555 1_555
C28 C25 1_555 1_555
H22 C28 1_555 1_555
H23 C28 1_555 1_555
H24 C28 1_555 1_555
S2 N4 1_555 1_555
N3 C29 1_555 1_555
N4 C41 1_555 1_555
O3 S2 1_555 1_555
O4 S2 1_555 1_555
C29 C30 1_555 1_555
C30 H25 1_555 1_555
C31 C30 1_555 1_555
H26 C31 1_555 1_555
C32 C31 1_555 1_555
H27 C32 1_555 1_555
C33 C32 1_555 1_555
H28 C33 1_555 1_555
C34 C29 1_555 1_555
C35 C34 1_555 1_555
H29 C35 1_555 1_555
C36 C35 1_555 1_555
C37 N3 1_555 1_555
C38 C37 1_555 1_555
C39 C38 1_555 1_555
C40 C39 1_555 1_555
H30 C40 1_555 1_555
C41 C40 1_555 1_555
H31 C41 1_555 1_555
H32 C41 1_555 1_555
C42 N4 1_555 1_555
H33 C42 1_555 1_555
H34 C42 1_555 1_555
C43 C39 1_555 1_555
H35 C43 1_555 1_555
H36 C43 1_555 1_555
H37 C43 1_555 1_555
C44 C38 1_555 1_555
C45 N3 1_555 1_555
C46 C45 1_555 1_555
H38 C46 1_555 1_555
C47 C46 1_555 1_555
H39 C47 1_555 1_555
C48 C47 1_555 1_555
H40 C48 1_555 1_555
C49 C44 1_555 1_555
H41 C49 1_555 1_555
C50 S2 1_555 1_555
C51 C50 1_555 1_555
H42 C51 1_555 1_555
C52 C51 1_555 1_555
H43 C52 1_555 1_555
C53 C52 1_555 1_555
C54 C53 1_555 1_555
H44 C54 1_555 1_555
C55 C50 1_555 1_555
H45 C55 1_555 1_555
C56 C53 1_555 1_555
H46 C56 1_555 1_555
H47 C56 1_555 1_555
H48 C56 1_555 1_555
C5 C6 1_555 1_555
C8 C9 1_555 1_555
C8 C14 1_555 1_555
C16 C17 1_555 1_555
C20 C21 1_555 1_555
C26 C27 1_555 1_555
C33 C34 1_555 1_555
C36 C37 1_555 1_555
C36 C42 1_555 1_555
C44 C45 1_555 1_555
C48 C49 1_555 1_555
C54 C55 1_555 1_555

#END
