
#######################################################################
#
#                 Cambridge Crystallographic Data Centre
#                                CCDC 
#
#######################################################################
#
# If this CIF has been generated from an entry in the Cambridge 
# Structural Database, then it will include bibliographic, chemical, 
# crystal, experimental, refinement or atomic coordinate data resulting 
# from the CCDC's data processing and validation procedures.
#
#######################################################################

data_QESWOD
_chemical_formula_moiety         'C30 H26 N2 P2 Se2'
_chemical_name_systematic        
'N-(diphenylphosphoroselenoyl)-P,P-diphenyl-N-(pyridin-2-ylmethyl)phosphinoselenoic amide'
_symmetry_cell_setting           monoclinic
_symmetry_space_group_name_H-M   'P 21/c'
_symmetry_Int_Tables_number      14
_space_group_name_Hall           '-P 2ybc'
loop_
_symmetry_equiv_pos_site_id
_symmetry_equiv_pos_as_xyz
1 x,y,z
2 -x,1/2+y,1/2-z
3 -x,-y,-z
4 x,1/2-y,1/2+z
_cell_length_a                   9.7110(2)
_cell_length_b                   17.4530(3)
_cell_length_c                   18.5312(5)
_cell_angle_alpha                90
_cell_angle_beta                 111.053(2)
_cell_angle_gamma                90
_cell_volume                     2931.13
_exptl_crystal_colour            colorless
_exptl_crystal_description       block
_cell_formula_units_Z            4
loop_
_atom_site_label
_atom_site_type_symbol
_atom_site_fract_x
_atom_site_fract_y
_atom_site_fract_z
Se1 Se -0.01421(10) -0.58083(4) -0.30519(5)
Se2 Se -0.21271(8) -0.28287(4) -0.19176(4)
P1 P -0.09404(16) -0.49988(8) -0.24647(8)
P2 P -0.11824(15) -0.32548(8) -0.26936(8)
N1 N -0.4188(7) -0.3984(4) -0.4996(3)
N2 N -0.1595(5) -0.4181(3) -0.2995(2)
C1 C -0.2902(8) -0.4204(4) -0.4453(3)
C2 C -0.1665(9) -0.4367(5) -0.4619(4)
H1 H -0.0821 -0.4550 -0.4232
C3 C -0.1669(12) -0.4260(6) -0.5364(5)
H2 H -0.0821 -0.4334 -0.5478
C4 C -0.3019(15) -0.4035(6) -0.5941(5)
H3 H -0.3094 -0.3971 -0.6452
C5 C -0.4171(12) -0.3918(6) -0.5732(4)
H4 H -0.5051 -0.3778 -0.6119
C6 C -0.2994(7) -0.4309(4) -0.3664(3)
H5 H -0.3735 -0.3961 -0.3618
H6 H -0.3332 -0.4827 -0.3631
C7 C -0.2493(6) -0.5364(3) -0.2241(3)
C8 C -0.3566(7) -0.4883(4) -0.2173(4)
H7 H -0.3492 -0.4358 -0.2234
C9 C -0.4774(7) -0.5181(5) -0.2013(4)
H8 H -0.5486 -0.4854 -0.1959
C10 C -0.4889(8) -0.5954(5) -0.1937(4)
H9 H -0.5709 -0.6153 -0.1855
C11 C -0.3835(9) -0.6430(4) -0.1978(5)
H10 H -0.3909 -0.6952 -0.1898
C12 C -0.2621(9) -0.6149(4) -0.2140(4)
H11 H -0.1908 -0.6485 -0.2180
C13 C 0.0436(6) -0.4733(3) -0.1544(3)
C14 C 0.1911(7) -0.4870(4) -0.1418(4)
H12 H 0.2173 -0.5081 -0.1811
C15 C 0.2991(8) -0.4696(6) -0.0720(5)
H13 H 0.3981 -0.4753 -0.0655
C16 C 0.2606(9) -0.4441(6) -0.0124(5)
H14 H 0.3336 -0.4357 0.0357
C17 C 0.1151(9) -0.4307(5) -0.0223(4)
H15 H 0.0903 -0.4121 0.0184
C18 C 0.0054(7) -0.4453(4) -0.0940(4)
H16 H -0.0931 -0.4362 -0.1013
C19 C 0.0801(7) -0.3229(3) -0.2345(4)
C20 C 0.1563(8) -0.2817(4) -0.1667(4)
H17 H 0.1045 -0.2591 -0.1388
C21 C 0.3090(8) -0.2746(5) -0.1414(5)
H18 H 0.3601 -0.2485 -0.0959
C22 C 0.3823(8) -0.3063(6) -0.1841(6)
H19 H 0.4843 -0.3010 -0.1671
C23 C 0.3125(8) -0.3454(5) -0.2504(5)
H20 H 0.3662 -0.3656 -0.2786
C24 C 0.1604(7) -0.3553(4) -0.2761(4)
H21 H 0.1123 -0.3833 -0.3208
C25 C -0.1806(7) -0.2686(3) -0.3581(3)
C26 C -0.0915(9) -0.2524(5) -0.4003(4)
H22 H 0.0049 -0.2706 -0.3836
C27 C -0.1458(12) -0.2093(6) -0.4669(5)
H23 H -0.0860 -0.2003 -0.4955
C28 C -0.2843(11) -0.1798(5) -0.4917(5)
H24 H -0.3180 -0.1498 -0.5361
C29 C -0.3732(10) -0.1944(5) -0.4510(5)
H25 H -0.4689 -0.1752 -0.4685
C30 C -0.3226(8) -0.2382(4) -0.3831(4)
H26 H -0.3834 -0.2469 -0.3549
loop_
_geom_bond_atom_site_label_1
_geom_bond_atom_site_label_2
_geom_bond_site_symmetry_1
_geom_bond_site_symmetry_2
Se1 P1 1_555 1_555
Se2 P2 1_555 1_555
P1 N2 1_555 1_555
P2 N2 1_555 1_555
N1 C1 1_555 1_555
N2 C6 1_555 1_555
C1 C2 1_555 1_555
C2 H1 1_555 1_555
C3 C2 1_555 1_555
H2 C3 1_555 1_555
C4 C3 1_555 1_555
H3 C4 1_555 1_555
C5 N1 1_555 1_555
H4 C5 1_555 1_555
C6 C1 1_555 1_555
H5 C6 1_555 1_555
H6 C6 1_555 1_555
C7 P1 1_555 1_555
C8 C7 1_555 1_555
H7 C8 1_555 1_555
C9 C8 1_555 1_555
H8 C9 1_555 1_555
C10 C9 1_555 1_555
H9 C10 1_555 1_555
C11 C10 1_555 1_555
H10 C11 1_555 1_555
C12 C7 1_555 1_555
H11 C12 1_555 1_555
C13 P1 1_555 1_555
C14 C13 1_555 1_555
H12 C14 1_555 1_555
C15 C14 1_555 1_555
H13 C15 1_555 1_555
C16 C15 1_555 1_555
H14 C16 1_555 1_555
C17 C16 1_555 1_555
H15 C17 1_555 1_555
C18 C13 1_555 1_555
H16 C18 1_555 1_555
C19 P2 1_555 1_555
C20 C19 1_555 1_555
H17 C20 1_555 1_555
C21 C20 1_555 1_555
H18 C21 1_555 1_555
C22 C21 1_555 1_555
H19 C22 1_555 1_555
C23 C22 1_555 1_555
H20 C23 1_555 1_555
C24 C19 1_555 1_555
H21 C24 1_555 1_555
C25 P2 1_555 1_555
C26 C25 1_555 1_555
H22 C26 1_555 1_555
C27 C26 1_555 1_555
H23 C27 1_555 1_555
C28 C27 1_555 1_555
H24 C28 1_555 1_555
C29 C28 1_555 1_555
H25 C29 1_555 1_555
C30 C25 1_555 1_555
H26 C30 1_555 1_555
C4 C5 1_555 1_555
C11 C12 1_555 1_555
C17 C18 1_555 1_555
C23 C24 1_555 1_555
C29 C30 1_555 1_555

#END
