
#######################################################################
#
#                 Cambridge Crystallographic Data Centre
#                                CCDC 
#
#######################################################################
#
# If this CIF has been generated from an entry in the Cambridge 
# Structural Database, then it will include bibliographic, chemical, 
# crystal, experimental, refinement or atomic coordinate data resulting 
# from the CCDC's data processing and validation procedures.
#
#######################################################################

data_QETPUB
_chemical_formula_moiety         'C27 H23 N1 O2,0.5(C3 H6 O1)'
_chemical_name_systematic        
'N-(4-Methoxyphenyl)-2,2,2-triphenylacetamide acetone solvate'
_chemical_properties_biological  
'potent antimelanoma agent against UACC-62, B16-F10 and SKMEL-5 melanoma cell lines'
_symmetry_cell_setting           triclinic
_symmetry_space_group_name_H-M   'P -1'
_symmetry_Int_Tables_number      2
_space_group_name_Hall           '-P 1'
loop_
_symmetry_equiv_pos_site_id
_symmetry_equiv_pos_as_xyz
1 x,y,z
2 -x,-y,-z
_cell_length_a                   9.5789(6)
_cell_length_b                   11.0369(7)
_cell_length_c                   12.7054(9)
_cell_angle_alpha                66.6110(10)
_cell_angle_beta                 71.7410(10)
_cell_angle_gamma                74.1020(10)
_cell_volume                     1153.42
_exptl_crystal_colour            colorless
_exptl_crystal_description       block
_chemical_melting_point          121-123deg.C
_cell_formula_units_Z            2
loop_
_atom_site_label
_atom_site_type_symbol
_atom_site_fract_x
_atom_site_fract_y
_atom_site_fract_z
N1 N 0.68248(19) 0.68230(17) -0.07453(14)
H6 H 0.588(3) 0.684(2) -0.067(2)
O2 O 0.84309(16) 0.69734(18) 0.01548(13)
O3 O 1.01295(15) 0.65449(15) -0.51338(12)
C4 C 0.9430(2) 0.66108(18) -0.40356(16)
C5 C 1.0141(2) 0.63347(19) -0.31447(17)
H7 H 1.121(3) 0.610(2) -0.3268(19)
C6 C 0.9314(2) 0.64223(19) -0.20516(17)
H8 H 0.982(3) 0.625(2) -0.146(2)
C7 C 0.7773(2) 0.67904(18) -0.18468(16)
C8 C 0.7068(2) 0.70953(18) -0.27551(16)
H9 H 0.597(3) 0.737(2) -0.260(2)
C9 C 0.7886(2) 0.69989(19) -0.38345(17)
H10 H 0.738(3) 0.720(2) -0.446(2)
C10 C 1.1686(2) 0.6013(2) -0.53384(19)
H11 H 1.226(3) 0.663(3) -0.528(2)
H12 H 1.183(3) 0.506(3) -0.472(2)
H13 H 1.195(3) 0.593(3) -0.613(2)
C11 C 0.7182(2) 0.68916(19) 0.01768(16)
C12 C 0.5874(2) 0.67541(18) 0.13170(16)
C13 C 0.4351(2) 0.72175(18) 0.09797(16)
C14 C 0.4015(2) 0.8515(2) 0.01926(17)
H14 H 0.471(3) 0.906(2) -0.014(2)
C15 C 0.2658(2) 0.8978(2) -0.01295(17)
H15 H 0.246(3) 0.989(2) -0.071(2)
C16 C 0.1594(2) 0.8148(2) 0.03253(18)
H16 H 0.064(3) 0.843(3) 0.010(2)
C17 C 0.1912(2) 0.6855(2) 0.10934(18)
H17 H 0.120(3) 0.623(3) 0.141(2)
C18 C 0.3276(2) 0.6393(2) 0.14191(16)
H18 H 0.345(3) 0.544(2) 0.198(2)
C19 C 0.60604(19) 0.52585(18) 0.21049(16)
C20 C 0.6790(2) 0.4227(2) 0.16535(17)
H19 H 0.726(2) 0.442(2) 0.082(2)
C21 C 0.6897(2) 0.2892(2) 0.23975(18)
H20 H 0.742(2) 0.221(2) 0.2073(19)
C22 C 0.6252(2) 0.25663(19) 0.36003(18)
H21 H 0.631(3) 0.164(2) 0.413(2)
C23 C 0.5503(2) 0.35863(19) 0.40540(17)
H22 H 0.500(2) 0.339(2) 0.488(2)
C24 C 0.5416(2) 0.49190(19) 0.33158(16)
H23 H 0.492(2) 0.562(2) 0.3651(18)
C25 C 0.6044(2) 0.75812(18) 0.19969(15)
C26 C 0.7369(2) 0.72983(19) 0.23649(16)
H24 H 0.817(3) 0.664(2) 0.2183(19)
C27 C 0.7547(2) 0.7986(2) 0.30097(17)
H25 H 0.853(3) 0.775(2) 0.327(2)
C28 C 0.6393(3) 0.8963(2) 0.33119(17)
H26 H 0.646(3) 0.951(3) 0.378(2)
C29 C 0.5069(2) 0.9229(2) 0.29820(17)
H27 H 0.427(3) 0.991(3) 0.323(2)
C30 C 0.4893(2) 0.85355(19) 0.23304(16)
H28 H 0.390(2) 0.872(2) 0.2110(19)
O1 O -0.1505(11) 0.9907(11) 0.4236(12)
C1 C -0.0280(4) 1.0016(3) 0.3569(4)
C2 C 0.0664(4) 0.9794(4) 0.2492(4)
H1 H 0.0042 0.9911 0.1983
H2 H 0.1347 1.0419 0.2097
H3 H 0.1215 0.8896 0.2685
C3 C 0.0477(4) 0.9890(3) 0.4464(4)
H4 H 0.1035 0.9001 0.4719
H5 H 0.1139 1.0529 0.4141
O1A O 0.1505(11) 1.0093(11) 0.5764(12)
C1A C 0.0280(4) 0.9984(3) 0.6431(4)
C2A C -0.0664(4) 1.0206(4) 0.7508(4)
H1A H -0.0042 1.0089 0.8017
H2A H -0.1347 0.9581 0.7903
H3A H -0.1215 1.1104 0.7315
C3A C -0.0477(4) 1.0110(3) 0.5536(4)
H4A H -0.1035 1.0999 0.5281
H5A H -0.1139 0.9471 0.5859
H29? H -0.0267 1.0058 0.5123
loop_
_geom_bond_atom_site_label_1
_geom_bond_atom_site_label_2
_geom_bond_site_symmetry_1
_geom_bond_site_symmetry_2
O1 C1 1_555 1_555
C1 C2 1_555 1_555
C2 H1 1_555 1_555
H2 C2 1_555 1_555
H3 C2 1_555 1_555
C3 C1 1_555 1_555
H4 C3 1_555 1_555
H5 C3 1_555 1_555
N1 H6 1_555 1_555
O2 C11 1_555 1_555
O3 C4 1_555 1_555
C4 C5 1_555 1_555
C5 H7 1_555 1_555
C6 C5 1_555 1_555
H8 C6 1_555 1_555
C7 N1 1_555 1_555
C8 C7 1_555 1_555
H9 C8 1_555 1_555
C9 C4 1_555 1_555
H10 C9 1_555 1_555
C10 O3 1_555 1_555
H11 C10 1_555 1_555
H12 C10 1_555 1_555
H13 C10 1_555 1_555
C11 N1 1_555 1_555
C12 C11 1_555 1_555
C13 C12 1_555 1_555
C14 C13 1_555 1_555
H14 C14 1_555 1_555
C15 C14 1_555 1_555
H15 C15 1_555 1_555
C16 C15 1_555 1_555
H16 C16 1_555 1_555
C17 C16 1_555 1_555
H17 C17 1_555 1_555
C18 C13 1_555 1_555
H18 C18 1_555 1_555
C19 C12 1_555 1_555
C20 C19 1_555 1_555
H19 C20 1_555 1_555
C21 C20 1_555 1_555
H20 C21 1_555 1_555
C22 C21 1_555 1_555
H21 C22 1_555 1_555
C23 C22 1_555 1_555
H22 C23 1_555 1_555
C24 C19 1_555 1_555
H23 C24 1_555 1_555
C25 C12 1_555 1_555
C26 C25 1_555 1_555
H24 C26 1_555 1_555
C27 C26 1_555 1_555
H25 C27 1_555 1_555
C28 C27 1_555 1_555
H26 C28 1_555 1_555
C29 C28 1_555 1_555
H27 C29 1_555 1_555
C30 C25 1_555 1_555
H28 C30 1_555 1_555
O1A C1A 1_555 1_555
C1A C2A 1_555 1_555
C2A H1A 1_555 1_555
H2A C2A 1_555 1_555
H3A C2A 1_555 1_555
C3A C3 1_555 1_555
H4A C3A 1_555 1_555
H5A C3A 1_555 1_555
C6 C7 1_555 1_555
C8 C9 1_555 1_555
C17 C18 1_555 1_555
C23 C24 1_555 1_555
C29 C30 1_555 1_555
C1A C3A 1_555 1_555

#END
