
#######################################################################
#
#                 Cambridge Crystallographic Data Centre
#                                CCDC 
#
#######################################################################
#
# If this CIF has been generated from an entry in the Cambridge 
# Structural Database, then it will include bibliographic, chemical, 
# crystal, experimental, refinement or atomic coordinate data resulting 
# from the CCDC's data processing and validation procedures.
#
#######################################################################

data_QEVQIU
_chemical_formula_moiety         'C50 H68 S2 Si2'
_chemical_name_systematic        
'[(2,9-di-t-butyl[1]benzothiopyrano[2,3-b]thioxanthene-7,14-diyl)bis(ethyne-2,1-diyl)]bis[triisopropylsilane]'
_symmetry_cell_setting           monoclinic
_symmetry_space_group_name_H-M   'P 21/c'
_symmetry_Int_Tables_number      14
_space_group_name_Hall           '-P 2ybc'
loop_
_symmetry_equiv_pos_site_id
_symmetry_equiv_pos_as_xyz
1 x,y,z
2 -x,1/2+y,1/2-z
3 -x,-y,-z
4 x,1/2-y,1/2+z
_cell_length_a                   16.4587(4)
_cell_length_b                   11.9316(3)
_cell_length_c                   11.9409(3)
_cell_angle_alpha                90
_cell_angle_beta                 97.8910(10)
_cell_angle_gamma                90
_cell_volume                     2322.73
_cell_formula_units_Z            2
loop_
_atom_site_label
_atom_site_type_symbol
_atom_site_fract_x
_atom_site_fract_y
_atom_site_fract_z
S1 S 0.3661(1) 0.6074(1) 1.1313(1)
Si1 Si 0.3085(1) 0.3982(1) 0.5216(1)
C1 C 0.4848(2) 0.4699(3) 0.8869(3)
C2 C 0.4384(2) 0.5463(3) 1.0560(3)
C3 C 0.4194(2) 0.5155(3) 0.9378(3)
C4 C 0.3407(2) 0.5277(3) 0.8770(3)
C5 C 0.2705(2) 0.5720(3) 0.9238(3)
C6 C 0.1935(2) 0.5794(3) 0.8566(4)
C7 C 0.1235(3) 0.6193(3) 0.8966(4)
C8 C 0.1314(3) 0.6516(4) 1.0091(4)
C9 C 0.2057(3) 0.6464(4) 1.0790(4)
C10 C 0.2755(3) 0.6078(3) 1.0366(4)
C11 C 0.3280(2) 0.4897(3) 0.7616(3)
C12 C 0.3182(2) 0.4550(3) 0.6673(3)
C13 C 0.0406(3) 0.6256(4) 0.8180(4)
C14 C 0.0515(5) 0.6931(9) 0.7193(7)
C15 C 0.0133(5) 0.5078(9) 0.7940(7)
C16 C -0.0231(5) 0.6856(9) 0.8844(7)
C17 C 0.4161(3) 0.3629(4) 0.4986(4)
C18 C 0.4256(4) 0.3341(5) 0.3761(4)
C19 C 0.4575(3) 0.2744(4) 0.5801(4)
C20 C 0.2306(3) 0.2802(4) 0.5177(4)
C21 C 0.2554(3) 0.1853(4) 0.5990(4)
C22 C 0.2013(4) 0.2377(5) 0.3997(5)
C23 C 0.2667(3) 0.5147(4) 0.4234(4)
C24 C 0.3252(4) 0.6141(4) 0.4304(4)
C25 C 0.1824(4) 0.5528(5) 0.4487(6)
H1 H 0.4748 0.4496 0.8093
H2 H 0.1892 0.5560 0.7800
H3 H 0.0844 0.6779 1.0391
H4 H 0.2092 0.6692 1.1557
H5 H 0.0943 0.6596 0.6804
H6 H 0.0677 0.7693 0.7434
H7 H -0.0002 0.6957 0.6677
H8 H -0.0394 0.5079 0.7446
H9 H 0.0543 0.4682 0.7566
H10 H -0.0017 0.7590 0.9107
H11 H -0.0324 0.6397 0.9495
H12 H -0.0750 0.6954 0.8344
H13 H 0.0025 0.4721 0.8592
H14 H 0.4485 0.4332 0.5162
H15 H 0.4837 0.3212 0.3701
H16 H 0.4051 0.3964 0.3266
H17 H 0.3941 0.2662 0.3531
H18 H 0.4308 0.2017 0.5634
H19 H 0.4525 0.2961 0.6580
H20 H 0.5156 0.2687 0.5709
H21 H 0.1812 0.3145 0.5442
H22 H 0.2109 0.1302 0.5945
H23 H 0.2664 0.2148 0.6762
H24 H 0.3050 0.1493 0.5791
H25 H 0.2471 0.2021 0.3687
H26 H 0.1805 0.3006 0.3513
H27 H 0.1574 0.1827 0.4026
H28 H 0.2602 0.4852 0.3443
H29 H 0.3002 0.6750 0.3826
H30 H 0.3767 0.5912 0.4044
H31 H 0.3365 0.6400 0.5089
H32 H 0.1868 0.5788 0.5271
H33 H 0.1439 0.4900 0.4375
H34 H 0.1626 0.6142 0.3976
S1B S 0.6339(1) 0.3926(1) 0.8687(1)
Si1B Si 0.6915(1) 0.6018(1) 1.4784(1)
C1B C 0.5152(2) 0.5301(3) 1.1131(3)
C2B C 0.5616(2) 0.4537(3) 0.9440(3)
C3B C 0.5806(2) 0.4845(3) 1.0622(3)
C4B C 0.6593(2) 0.4723(3) 1.1230(3)
C5B C 0.7295(2) 0.4280(3) 1.0762(3)
C6B C 0.8065(2) 0.4206(3) 1.1434(4)
C7B C 0.8765(3) 0.3807(3) 1.1034(4)
C8B C 0.8686(3) 0.3484(4) 0.9909(4)
C9B C 0.7943(3) 0.3536(4) 0.9210(4)
C10B C 0.7245(3) 0.3922(3) 0.9634(4)
C11B C 0.6720(2) 0.5103(3) 1.2384(3)
C12B C 0.6818(2) 0.5450(3) 1.3327(3)
C13B C 0.9594(3) 0.3744(4) 1.1820(4)
C14B C 0.9485(5) 0.3069(9) 1.2807(7)
C15B C 0.9867(5) 0.4922(9) 1.2060(7)
C16B C 1.0231(5) 0.3144(9) 1.1156(7)
C17B C 0.5839(3) 0.6371(4) 1.5014(4)
C18B C 0.5744(4) 0.6659(5) 1.6239(4)
C19B C 0.5425(3) 0.7256(4) 1.4199(4)
C20B C 0.7694(3) 0.7198(4) 1.4823(4)
C21B C 0.7446(3) 0.8147(4) 1.4010(4)
C22B C 0.7987(4) 0.7623(5) 1.6003(5)
C23B C 0.7333(3) 0.4853(4) 1.5766(4)
C24B C 0.6748(4) 0.3859(4) 1.5696(4)
C25B C 0.8176(4) 0.4472(5) 1.5513(6)
H1B H 0.5252 0.5504 1.1907
H2B H 0.8108 0.4440 1.2200
H3B H 0.9156 0.3221 0.9609
H4B H 0.7908 0.3308 0.8443
H5B H 0.9057 0.3404 1.3196
H6B H 0.9323 0.2307 1.2566
H7B H 1.0002 0.3043 1.3323
H8B H 1.0394 0.4921 1.2554
H9B H 0.9457 0.5318 1.2434
H10B H 1.0017 0.2410 1.0893
H11B H 1.0324 0.3603 1.0505
H12B H 1.0750 0.3046 1.1656
H13B H 0.9975 0.5279 1.1408
H14B H 0.5515 0.5668 1.4838
H15B H 0.5163 0.6788 1.6299
H16B H 0.5949 0.6036 1.6734
H17B H 0.6059 0.7338 1.6469
H18B H 0.5692 0.7983 1.4366
H19B H 0.5475 0.7039 1.3420
H20B H 0.4844 0.7313 1.4291
H21B H 0.8188 0.6855 1.4558
H22B H 0.7891 0.8698 1.4055
H23B H 0.7336 0.7852 1.3238
H24B H 0.6950 0.8507 1.4209
H25B H 0.7529 0.7979 1.6313
H26B H 0.8195 0.6994 1.6487
H27B H 0.8426 0.8173 1.5974
H28B H 0.7398 0.5148 1.6557
H29B H 0.6998 0.3250 1.6174
H30B H 0.6233 0.4088 1.5956
H31B H 0.6635 0.3600 1.4911
H32B H 0.8132 0.4212 1.4729
H33B H 0.8561 0.5100 1.5625
H34B H 0.8374 0.3858 1.6024
C26? C -0.0207(7) 0.5478(11) 0.8517(11)
C27? C 0.0134(7) 0.7475(11) 0.8006(10)
C28? C 0.0460(8) 0.5845(11) 0.6841(10)
H35? H 0.0070 0.7811 0.8737
H36? H -0.0692 0.5477 0.7940
H37? H -0.0364 0.5716 0.9243
H38? H -0.0392 0.7503 0.7508
H39? H -0.0049 0.6051 0.6358
H40? H 0.0926 0.6215 0.6565
H41? H 0.0547 0.7892 0.7659
H42? H 0.0534 0.5031 0.6821
H43? H 0.0070 0.4699 0.8651
loop_
_geom_bond_atom_site_label_1
_geom_bond_atom_site_label_2
_geom_bond_site_symmetry_1
_geom_bond_site_symmetry_2
S1 C2 1_555 1_555
Si1 C12 1_555 1_555
C1 C3 1_555 1_555
C2 C3 1_555 1_555
C3 C4 1_555 1_555
C4 C5 1_555 1_555
C5 C6 1_555 1_555
C6 C7 1_555 1_555
C7 C8 1_555 1_555
C8 C9 1_555 1_555
C9 C10 1_555 1_555
C10 S1 1_555 1_555
C11 C4 1_555 1_555
C12 C11 1_555 1_555
C13 C7 1_555 1_555
C14 C13 1_555 1_555
C15 C13 1_555 1_555
C16 C13 1_555 1_555
C17 Si1 1_555 1_555
C18 C17 1_555 1_555
C19 C17 1_555 1_555
C20 Si1 1_555 1_555
C21 C20 1_555 1_555
C22 C20 1_555 1_555
C23 Si1 1_555 1_555
C24 C23 1_555 1_555
C25 C23 1_555 1_555
H1 C1 1_555 1_555
H2 C6 1_555 1_555
H3 C8 1_555 1_555
H4 C9 1_555 1_555
H5 C14 1_555 1_555
H6 C14 1_555 1_555
H7 C14 1_555 1_555
H8 C15 1_555 1_555
H9 C15 1_555 1_555
H10 C16 1_555 1_555
H11 C16 1_555 1_555
H12 C16 1_555 1_555
H13 C15 1_555 1_555
H14 C17 1_555 1_555
H15 C18 1_555 1_555
H16 C18 1_555 1_555
H17 C18 1_555 1_555
H18 C19 1_555 1_555
H19 C19 1_555 1_555
H20 C19 1_555 1_555
H21 C20 1_555 1_555
H22 C21 1_555 1_555
H23 C21 1_555 1_555
H24 C21 1_555 1_555
H25 C22 1_555 1_555
H26 C22 1_555 1_555
H27 C22 1_555 1_555
H28 C23 1_555 1_555
H29 C24 1_555 1_555
H30 C24 1_555 1_555
H31 C24 1_555 1_555
H32 C25 1_555 1_555
H33 C25 1_555 1_555
H34 C25 1_555 1_555
S1B C2B 1_555 1_555
Si1B C12B 1_555 1_555
C1B C2 1_555 1_555
C2B C1 1_555 1_555
C3B C1B 1_555 1_555
C4B C3B 1_555 1_555
C5B C4B 1_555 1_555
C6B C5B 1_555 1_555
C7B C6B 1_555 1_555
C8B C7B 1_555 1_555
C9B C8B 1_555 1_555
C10B S1B 1_555 1_555
C11B C4B 1_555 1_555
C12B C11B 1_555 1_555
C13B C7B 1_555 1_555
C14B C13B 1_555 1_555
C15B C13B 1_555 1_555
C16B C13B 1_555 1_555
C17B Si1B 1_555 1_555
C18B C17B 1_555 1_555
C19B C17B 1_555 1_555
C20B Si1B 1_555 1_555
C21B C20B 1_555 1_555
C22B C20B 1_555 1_555
C23B Si1B 1_555 1_555
C24B C23B 1_555 1_555
C25B C23B 1_555 1_555
H1B C1B 1_555 1_555
H2B C6B 1_555 1_555
H3B C8B 1_555 1_555
H4B C9B 1_555 1_555
H5B C14B 1_555 1_555
H6B C14B 1_555 1_555
H7B C14B 1_555 1_555
H8B C15B 1_555 1_555
H9B C15B 1_555 1_555
H10B C16B 1_555 1_555
H11B C16B 1_555 1_555
H12B C16B 1_555 1_555
H13B C15B 1_555 1_555
H14B C17B 1_555 1_555
H15B C18B 1_555 1_555
H16B C18B 1_555 1_555
H17B C18B 1_555 1_555
H18B C19B 1_555 1_555
H19B C19B 1_555 1_555
H20B C19B 1_555 1_555
H21B C20B 1_555 1_555
H22B C21B 1_555 1_555
H23B C21B 1_555 1_555
H24B C21B 1_555 1_555
H25B C22B 1_555 1_555
H26B C22B 1_555 1_555
H27B C22B 1_555 1_555
H28B C23B 1_555 1_555
H29B C24B 1_555 1_555
H30B C24B 1_555 1_555
H31B C24B 1_555 1_555
H32B C25B 1_555 1_555
H33B C25B 1_555 1_555
H34B C25B 1_555 1_555
C5 C10 1_555 1_555
C2B C3B 1_555 1_555
C5B C10B 1_555 1_555
C9B C10B 1_555 1_555

#END
