
#######################################################################
#
#                 Cambridge Crystallographic Data Centre
#                                CCDC 
#
#######################################################################
#
# If this CIF has been generated from an entry in the Cambridge 
# Structural Database, then it will include bibliographic, chemical, 
# crystal, experimental, refinement or atomic coordinate data resulting 
# from the CCDC's data processing and validation procedures.
#
#######################################################################

data_QEVVAO
_chemical_formula_moiety         'C26 H25 N3 O2'
_chemical_name_systematic        
1,1-bis(4-Dimethylaminophenyl)-2-(3,4-methylenedioxyphenyl)acrylonitrile
_symmetry_cell_setting           monoclinic
_symmetry_space_group_name_H-M   'P 21/n'
_symmetry_Int_Tables_number      14
_space_group_name_Hall           '-P 2yn'
loop_
_symmetry_equiv_pos_site_id
_symmetry_equiv_pos_as_xyz
1 x,y,z
2 1/2-x,1/2+y,1/2-z
3 -x,-y,-z
4 1/2+x,1/2-y,1/2+z
_cell_length_a                   11.448(1)
_cell_length_b                   11.013(1)
_cell_length_c                   17.946(2)
_cell_angle_alpha                90
_cell_angle_beta                 94.38(2)
_cell_angle_gamma                90
_cell_volume                     2255.97
_cell_formula_units_Z            4
loop_
_atom_site_label
_atom_site_type_symbol
_atom_site_fract_x
_atom_site_fract_y
_atom_site_fract_z
C1 C 0.693(1) 0.589(1) 0.4450(7)
C2 C 0.7229(9) 0.471(1) 0.4591(6)
C3 C 0.8005(9) 0.440(1) 0.5226(6)
N1 N 0.8616(8) 0.410(1) 0.5723(5)
C4 C 0.762(1) 0.687(1) 0.4847(6)
C5 C 0.887(1) 0.687(1) 0.4920(6)
C6 C 0.949(1) 0.779(1) 0.5277(7)
C7 C 0.890(1) 0.875(1) 0.5577(7)
C8 C 0.766(1) 0.881(1) 0.5506(7)
C9 C 0.705(1) 0.788(1) 0.5126(7)
C10 C 0.595(1) 0.627(1) 0.3912(6)
C11 C 0.612(1) 0.728(1) 0.3466(7)
C12 C 0.524(1) 0.769(1) 0.2965(7)
C13 C 0.411(1) 0.711(1) 0.2902(7)
C14 C 0.398(1) 0.610(1) 0.3373(7)
C15 C 0.4874(9) 0.568(1) 0.3862(6)
C16 C 0.681(1) 0.364(1) 0.4138(6)
C17 C 0.655(1) 0.255(1) 0.4487(7)
C18 C 0.617(1) 0.148(1) 0.4097(7)
C19 C 0.610(1) 0.159(1) 0.3320(7)
C20 C 0.634(1) 0.266(1) 0.2974(6)
C21 C 0.6677(9) 0.369(1) 0.3352(6)
N2 N 0.952(1) 0.970(1) 0.5953(9)
C22 C 1.075(1) 0.958(1) 0.6159(9)
C23 C 0.895(1) 1.069(1) 0.629(1)
N3 N 0.3210(9) 0.753(1) 0.2407(6)
C24 C 0.3386(8) 0.855(1) 0.1938(8)
C25 C 0.209(1) 0.700(1) 0.2397(7)
O1 O 0.6135(8) 0.2526(8) 0.2211(4)
O2 O 0.5739(3) 0.0720(8) 0.2806(5)
C26 C 0.594(1) 0.124(1) 0.2089(7)
loop_
_geom_bond_atom_site_label_1
_geom_bond_atom_site_label_2
_geom_bond_site_symmetry_1
_geom_bond_site_symmetry_2
C1 C2 1_555 1_555
C2 C3 1_555 1_555
C3 N1 1_555 1_555
C4 C1 1_555 1_555
C5 C4 1_555 1_555
C6 C5 1_555 1_555
C7 C6 1_555 1_555
C8 C7 1_555 1_555
C9 C4 1_555 1_555
C10 C1 1_555 1_555
C11 C10 1_555 1_555
C12 C11 1_555 1_555
C13 C12 1_555 1_555
C14 C13 1_555 1_555
C15 C10 1_555 1_555
C16 C2 1_555 1_555
C17 C16 1_555 1_555
C18 C17 1_555 1_555
C19 C18 1_555 1_555
C20 C19 1_555 1_555
C21 C16 1_555 1_555
N2 C7 1_555 1_555
C22 N2 1_555 1_555
C23 N2 1_555 1_555
N3 C13 1_555 1_555
C24 N3 1_555 1_555
C25 N3 1_555 1_555
O1 C20 1_555 1_555
O2 C19 1_555 1_555
C26 O1 1_555 1_555
C8 C9 1_555 1_555
C14 C15 1_555 1_555
C20 C21 1_555 1_555
O2 C26 1_555 1_555

#END
