
#######################################################################
#
#                 Cambridge Crystallographic Data Centre
#                                CCDC 
#
#######################################################################
#
# If this CIF has been generated from an entry in the Cambridge 
# Structural Database, then it will include bibliographic, chemical, 
# crystal, experimental, refinement or atomic coordinate data resulting 
# from the CCDC's data processing and validation procedures.
#
#######################################################################

data_QEWGAD
_chemical_formula_moiety         'C34 H56 N2 O2 S1'
_chemical_name_systematic        
2,2'-sulfanediylbis{4-t-butyl-6-[(dipropylamino)methyl]phenol}
_symmetry_cell_setting           monoclinic
_symmetry_space_group_name_H-M   'P 21/c'
_symmetry_Int_Tables_number      14
_space_group_name_Hall           '-P 2ybc'
loop_
_symmetry_equiv_pos_site_id
_symmetry_equiv_pos_as_xyz
1 x,y,z
2 -x,1/2+y,1/2-z
3 -x,-y,-z
4 x,1/2-y,1/2+z
_cell_length_a                   15.9714(3)
_cell_length_b                   18.4729(4)
_cell_length_c                   11.1685(2)
_cell_angle_alpha                90
_cell_angle_beta                 92.514(2)
_cell_angle_gamma                90
_cell_volume                     3291.96
_exptl_crystal_colour            colorless
_exptl_crystal_description       prism
_cell_formula_units_Z            4
_exptl_crystal_recrystallization_method 
'Re-crystallisation from solvent: methanol'
loop_
_atom_site_label
_atom_site_type_symbol
_atom_site_fract_x
_atom_site_fract_y
_atom_site_fract_z
C1 C 0.21691(8) 0.41970(7) 0.79338(12)
C2 C 0.23135(9) 0.45538(8) 0.90224(12)
H1 H 0.230925 0.428275 0.974495
C3 C 0.24646(8) 0.53004(8) 0.90839(12)
C4 C 0.24583(8) 0.57031(7) 0.80228(12)
C5 C 0.23275(8) 0.53533(7) 0.69180(12)
C6 C 0.21852(8) 0.46118(7) 0.68849(12)
H2 H 0.209637 0.437970 0.613098
C7 C 0.14199(8) 0.45450(7) 0.30757(12)
C8 C 0.21552(8) 0.42390(8) 0.26697(12)
H3 H 0.211066 0.387913 0.206259
C9 C 0.29537(8) 0.44381(8) 0.31160(12)
C10 C 0.30296(8) 0.49576(8) 0.40342(12)
C11 C 0.22985(9) 0.52606(7) 0.44744(12)
C12 C 0.15152(9) 0.50581(8) 0.39898(12)
H4 H 0.102880 0.527657 0.429126
C13 C 0.19857(9) 0.33819(8) 0.78251(13)
C14 C 0.25946(11) 0.30335(9) 0.69701(15)
H5 H 0.254492 0.327567 0.618953
H6 H 0.316964 0.308310 0.730350
H7 H 0.245837 0.251910 0.687110
C15 C 0.10837(11) 0.32732(9) 0.73117(19)
H8 H 0.101630 0.351918 0.653596
H9 H 0.097304 0.275490 0.720508
H10 H 0.068773 0.347648 0.786733
C16 C 0.20765(12) 0.29939(8) 0.90349(15)
H11 H 0.169136 0.320985 0.959338
H12 H 0.194257 0.247967 0.892665
H13 H 0.265384 0.304367 0.935905
C17 C 0.05430(9) 0.43237(8) 0.25878(13)
C18 C 0.05815(10) 0.39167(10) 0.13977(15)
H14 H 0.001316 0.378390 0.111234
H15 H 0.083655 0.422801 0.080369
H16 H 0.091959 0.347760 0.151500
C19 C -0.00090(10) 0.49971(9) 0.23711(18)
H17 H -0.004436 0.526842 0.312120
H18 H 0.023776 0.530514 0.176519
H19 H -0.057210 0.484693 0.208873
C20 C 0.01354(10) 0.38338(10) 0.35098(16)
H20 H 0.010893 0.409155 0.427417
H21 H -0.043267 0.370483 0.321777
H22 H 0.047008 0.339268 0.362543
O1 O 0.25998(7) 0.64310(5) 0.80206(9)
H23 H 0.2574(12) 0.6557(11) 0.8772(19)
O2 O 0.37865(6) 0.51799(6) 0.44928(9)
H24 H 0.4131(13) 0.4913(11) 0.4162(18)
C21 C 0.27336(9) 0.56570(8) 1.02618(13)
H25 H 0.251711 0.537006 1.092997
H26 H 0.335320 0.565504 1.034752
C22 C 0.37137(9) 0.41448(9) 0.25010(14)
H27 H 0.359847 0.364012 0.224516
H28 H 0.380235 0.443522 0.177244
C23 C 0.15381(9) 0.64139(8) 1.06561(13)
H29 H 0.149268 0.621541 1.147403
H30 H 0.122339 0.608820 1.009469
C24 C 0.11310(10) 0.71617(9) 1.06037(14)
H31 H 0.053416 0.711238 1.079447
H32 H 0.140583 0.747137 1.122863
C25 C 0.11808(11) 0.75386(9) 0.93979(15)
H33 H 0.090794 0.801282 0.943272
H34 H 0.176975 0.760260 0.920944
H35 H 0.089684 0.724310 0.877468
C26 C 0.29796(9) 0.68474(8) 1.11808(12)
H36 H 0.277645 0.735379 1.116899
H37 H 0.355169 0.684855 1.087343
C27 C 0.30325(10) 0.65860(9) 1.24771(13)
H38 H 0.247797 0.664434 1.282806
H39 H 0.317428 0.606424 1.249272
C28 C 0.36868(10) 0.70001(9) 1.32376(14)
H40 H 0.369946 0.681506 1.406061
H41 H 0.423896 0.693574 1.290312
H42 H 0.354277 0.751574 1.323840
C29 C 0.52498(10) 0.41529(11) 0.25781(18)
H43 H 0.522874 0.372918 0.203480
H44 H 0.574367 0.409354 0.313661
C30 C 0.53649(11) 0.48303(14) 0.18408(16)
H45 H 0.488834 0.487231 0.124754
H46 H 0.588237 0.477907 0.139149
C31 C 0.54234(12) 0.55307(11) 0.25797(19)
H47 H 0.549706 0.594353 0.204345
H48 H 0.490750 0.559448 0.301168
H49 H 0.590298 0.550110 0.315583
C32 C 0.44806(13) 0.23181(10) 0.49324(17)
H50 H 0.452328 0.181382 0.466956
H51 H 0.493391 0.242389 0.552648
H52 H 0.393880 0.239422 0.529194
S1 S 0.23663(2) 0.59187(2) 0.56340(3)
N1 N 0.24286(7) 0.64142(6) 1.03526(10)
N2 N 0.44899(8) 0.41577(7) 0.32727(12)
C33 C 0.44862(12) 0.35989(11) 0.42635(17)
H53 H 0.396267 0.365708 0.469662
H54 H 0.495970 0.370385 0.483898
C34 C 0.45511(16) 0.28130(11) 0.38720(19)
H55 H 0.409806 0.270284 0.326595
H56 H 0.509500 0.273257 0.350091
C35? C 0.4727(6) 0.3434(5) 0.3575(8)
H57? H 0.530580 0.341673 0.393103
H58? H 0.469116 0.311643 0.286043
C36? C 0.4099(6) 0.3209(5) 0.4478(8)
H59? H 0.352572 0.318169 0.410780
H60? H 0.410246 0.354644 0.516659
loop_
_geom_bond_atom_site_label_1
_geom_bond_atom_site_label_2
_geom_bond_site_symmetry_1
_geom_bond_site_symmetry_2
C1 C2 1_555 1_555
C2 H1 1_555 1_555
C3 C2 1_555 1_555
C4 C3 1_555 1_555
C5 C4 1_555 1_555
C6 C1 1_555 1_555
H2 C6 1_555 1_555
C7 C8 1_555 1_555
C8 H3 1_555 1_555
C9 C8 1_555 1_555
C10 C9 1_555 1_555
C11 C10 1_555 1_555
C12 C7 1_555 1_555
H4 C12 1_555 1_555
C13 C1 1_555 1_555
C14 C13 1_555 1_555
H5 C14 1_555 1_555
H6 C14 1_555 1_555
H7 C14 1_555 1_555
C15 C13 1_555 1_555
H8 C15 1_555 1_555
H9 C15 1_555 1_555
H10 C15 1_555 1_555
C16 C13 1_555 1_555
H11 C16 1_555 1_555
H12 C16 1_555 1_555
H13 C16 1_555 1_555
C17 C7 1_555 1_555
C18 C17 1_555 1_555
H14 C18 1_555 1_555
H15 C18 1_555 1_555
H16 C18 1_555 1_555
C19 C17 1_555 1_555
H17 C19 1_555 1_555
H18 C19 1_555 1_555
H19 C19 1_555 1_555
C20 C17 1_555 1_555
H20 C20 1_555 1_555
H21 C20 1_555 1_555
H22 C20 1_555 1_555
O1 C4 1_555 1_555
H23 O1 1_555 1_555
O2 C10 1_555 1_555
H24 O2 1_555 1_555
C21 C3 1_555 1_555
H25 C21 1_555 1_555
H26 C21 1_555 1_555
C22 C9 1_555 1_555
H27 C22 1_555 1_555
H28 C22 1_555 1_555
C23 H29 1_555 1_555
H30 C23 1_555 1_555
C24 C23 1_555 1_555
H31 C24 1_555 1_555
H32 C24 1_555 1_555
C25 C24 1_555 1_555
H33 C25 1_555 1_555
H34 C25 1_555 1_555
H35 C25 1_555 1_555
C26 H36 1_555 1_555
H37 C26 1_555 1_555
C27 C26 1_555 1_555
H38 C27 1_555 1_555
H39 C27 1_555 1_555
C28 C27 1_555 1_555
H40 C28 1_555 1_555
H41 C28 1_555 1_555
H42 C28 1_555 1_555
C29 H43 1_555 1_555
H44 C29 1_555 1_555
C30 C29 1_555 1_555
H45 C30 1_555 1_555
H46 C30 1_555 1_555
C31 C30 1_555 1_555
H47 C31 1_555 1_555
H48 C31 1_555 1_555
H49 C31 1_555 1_555
C32 H50 1_555 1_555
H51 C32 1_555 1_555
H52 C32 1_555 1_555
S1 C5 1_555 1_555
N1 C21 1_555 1_555
N2 C22 1_555 1_555
C33 N2 1_555 1_555
H53 C33 1_555 1_555
H54 C33 1_555 1_555
C34 C32 1_555 1_555
H55 C34 1_555 1_555
H56 C34 1_555 1_555
C5 C6 1_555 1_555
C11 C12 1_555 1_555
C11 S1 1_555 1_555
C23 N1 1_555 1_555
C26 N1 1_555 1_555
C29 N2 1_555 1_555
C33 C34 1_555 1_555

#END
