
#######################################################################
#
#                 Cambridge Crystallographic Data Centre
#                                CCDC 
#
#######################################################################
#
# If this CIF has been generated from an entry in the Cambridge 
# Structural Database, then it will include bibliographic, chemical, 
# crystal, experimental, refinement or atomic coordinate data resulting 
# from the CCDC's data processing and validation procedures.
#
#######################################################################

data_QEWGUW
_chemical_formula_moiety         'C7 H5 F2 N1 O1'
_chemical_name_systematic        2,6-Difluorobenzamide
_symmetry_cell_setting           monoclinic
_symmetry_space_group_name_H-M   'P 21/c'
_symmetry_Int_Tables_number      14
_space_group_name_Hall           '-P 2ybc'
loop_
_symmetry_equiv_pos_site_id
_symmetry_equiv_pos_as_xyz
1 x,y,z
2 -x,1/2+y,1/2-z
3 -x,-y,-z
4 x,1/2-y,1/2+z
_cell_length_a                   5.1396(15)
_cell_length_b                   12.118(4)
_cell_length_c                   11.792(3)
_cell_angle_alpha                90
_cell_angle_beta                 112.482(11)
_cell_angle_gamma                90
_cell_volume                     678.609
_exptl_crystal_colour            colorless
_exptl_crystal_description       block
_cell_formula_units_Z            4
loop_
_atom_site_label
_atom_site_type_symbol
_atom_site_fract_x
_atom_site_fract_y
_atom_site_fract_z
F1 F 0.11960(15) 0.32911(6) 0.48428(8)
F2 F 1.06680(16) 0.24640(7) 0.72517(8)
O1 O 0.32616(18) 0.11590(7) 0.54063(9)
N1 N 0.7390(2) 0.12252(9) 0.51612(11)
C1 C 0.8456(3) 0.31708(10) 0.68862(11)
C2 C 0.5913(2) 0.28106(9) 0.60152(11)
C3 C 0.5431(2) 0.16581(9) 0.54995(11)
C4 C 0.4026(3) 0.46234(10) 0.61861(13)
H1 H 0.2487 0.5124 0.5934
C5 C 0.3736(3) 0.35766(10) 0.56948(12)
C6 C 0.8865(3) 0.42018(11) 0.74169(12)
H2 H 1.0643 0.4409 0.8015
C7 C 0.6618(3) 0.49268(11) 0.70560(13)
H3 H 0.6856 0.5643 0.7410
H4 H 0.896(4) 0.1559(15) 0.5280(15)
H5 H 0.714(3) 0.0525(15) 0.4925(14)
loop_
_geom_bond_atom_site_label_1
_geom_bond_atom_site_label_2
_geom_bond_site_symmetry_1
_geom_bond_site_symmetry_2
F1 C5 1_555 1_555
F2 C1 1_555 1_555
O1 C3 1_555 1_555
N1 C3 1_555 1_555
C1 C2 1_555 1_555
C2 C3 1_555 1_555
C4 H1 1_555 1_555
C5 C2 1_555 1_555
C6 C1 1_555 1_555
H2 C6 1_555 1_555
C7 C4 1_555 1_555
H3 C7 1_555 1_555
H4 N1 1_555 1_555
H5 N1 1_555 1_555
C4 C5 1_555 1_555
C6 C7 1_555 1_555

#END
