
#######################################################################
#
#                 Cambridge Crystallographic Data Centre
#                                CCDC 
#
#######################################################################
#
# If this CIF has been generated from an entry in the Cambridge 
# Structural Database, then it will include bibliographic, chemical, 
# crystal, experimental, refinement or atomic coordinate data resulting 
# from the CCDC's data processing and validation procedures.
#
#######################################################################

data_QEWJUZ01
_chemical_formula_moiety         'C28 H22 O2'
_chemical_name_systematic        
9-(bis(4-Methoxyphenyl)-methylene)-9H-fluorene
_symmetry_cell_setting           monoclinic
_symmetry_space_group_name_H-M   'P 21/n'
_symmetry_Int_Tables_number      14
_space_group_name_Hall           '-P 2yn'
loop_
_symmetry_equiv_pos_site_id
_symmetry_equiv_pos_as_xyz
1 x,y,z
2 1/2-x,1/2+y,1/2-z
3 -x,-y,-z
4 1/2+x,1/2-y,1/2+z
_cell_length_a                   13.798(3)
_cell_length_b                   10.137(2)
_cell_length_c                   14.443(3)
_cell_angle_alpha                90
_cell_angle_beta                 90.14(3)
_cell_angle_gamma                90
_cell_volume                     2020.14
_exptl_crystal_colour            colorless
_exptl_crystal_description       block
_cell_formula_units_Z            4
loop_
_atom_site_label
_atom_site_type_symbol
_atom_site_fract_x
_atom_site_fract_y
_atom_site_fract_z
O1 O -0.41816(9) 0.38284(14) 0.51065(10)
O2 O 0.15745(10) 0.02660(14) 0.80664(9)
C1 C -0.00818(13) 0.34739(17) 0.32794(13)
C2 C -0.09758(14) 0.40398(18) 0.30589(14)
H1 H -0.1477 0.4077 0.3508
C3 C -0.11266(15) 0.45481(19) 0.21776(14)
H2 H -0.1734 0.4938 0.2030
C4 C -0.04071(16) 0.4498(2) 0.15082(15)
H3 H -0.0530 0.4831 0.0904
C5 C 0.04911(15) 0.39633(19) 0.17201(14)
H4 H 0.0988 0.3932 0.1267
C6 C 0.06523(13) 0.34745(18) 0.26028(14)
C7 C 0.15240(13) 0.28631(19) 0.29953(14)
C8 C 0.24254(15) 0.2654(2) 0.25881(16)
H5 H 0.2553 0.2956 0.1978
C9 C 0.31306(15) 0.1999(3) 0.30899(17)
H6 H 0.3752 0.1853 0.2827
C10 C 0.29316(15) 0.1555(2) 0.39784(17)
H7 H 0.3419 0.1092 0.4312
C11 C 0.20409(14) 0.1769(2) 0.43917(15)
H8 H 0.1918 0.1448 0.4998
C12 C 0.13239(13) 0.24603(18) 0.39089(14)
C13 C 0.03036(13) 0.28296(17) 0.41348(13)
C14 C -0.01926(13) 0.25860(17) 0.49280(13)
C15 C -0.12539(13) 0.28540(18) 0.49978(13)
C16 C -0.19289(14) 0.20384(19) 0.45720(14)
H9 H -0.1712 0.1276 0.4251
C17 C -0.29144(13) 0.23108(18) 0.46048(14)
H10 H -0.3367 0.1735 0.4316
C18 C -0.32324(13) 0.34353(19) 0.50649(13)
C19 C -0.48723(13) 0.3104(2) 0.45685(15)
H11 H -0.4649 0.3047 0.3926
H12 H -0.5500 0.3556 0.4587
H13 H -0.4941 0.2214 0.4824
C20 C -0.25687(14) 0.42408(19) 0.55196(14)
H14 H -0.2787 0.4994 0.5850
C21 C -0.15914(14) 0.39462(19) 0.54912(13)
H15 H -0.1143 0.4493 0.5811
C22 C 0.02431(13) 0.20088(18) 0.57777(13)
C23 C -0.01340(13) 0.08549(19) 0.61494(14)
H16 H -0.0692 0.0473 0.5872
C24 C 0.02777(14) 0.02432(19) 0.69123(14)
H17 H 0.0010 -0.0554 0.7145
C25 C 0.10827(13) 0.08024(19) 0.73336(13)
C26 C 0.12239(16) -0.0960(2) 0.84213(15)
H18 H 0.1244 -0.1629 0.7932
H19 H 0.0555 -0.0850 0.8634
H20 H 0.1632 -0.1242 0.8941
C27 C 0.14403(14) 0.2002(2) 0.70075(14)
H21 H 0.1969 0.2414 0.7314
C28 C 0.10279(14) 0.25928(19) 0.62394(14)
H22 H 0.1280 0.3407 0.6021
loop_
_geom_bond_atom_site_label_1
_geom_bond_atom_site_label_2
_geom_bond_site_symmetry_1
_geom_bond_site_symmetry_2
O1 C18 1_555 1_555
O2 C25 1_555 1_555
C1 C2 1_555 1_555
C2 H1 1_555 1_555
C3 C2 1_555 1_555
H2 C3 1_555 1_555
C4 C3 1_555 1_555
H3 C4 1_555 1_555
C5 C4 1_555 1_555
H4 C5 1_555 1_555
C6 C1 1_555 1_555
C7 C6 1_555 1_555
C8 C7 1_555 1_555
H5 C8 1_555 1_555
C9 C8 1_555 1_555
H6 C9 1_555 1_555
C10 C9 1_555 1_555
H7 C10 1_555 1_555
C11 C10 1_555 1_555
H8 C11 1_555 1_555
C12 C7 1_555 1_555
C13 C1 1_555 1_555
C14 C13 1_555 1_555
C15 C14 1_555 1_555
C16 C15 1_555 1_555
H9 C16 1_555 1_555
C17 C16 1_555 1_555
H10 C17 1_555 1_555
C18 C17 1_555 1_555
C19 O1 1_555 1_555
H11 C19 1_555 1_555
H12 C19 1_555 1_555
H13 C19 1_555 1_555
C20 C18 1_555 1_555
H14 C20 1_555 1_555
C21 C15 1_555 1_555
H15 C21 1_555 1_555
C22 C14 1_555 1_555
C23 C22 1_555 1_555
H16 C23 1_555 1_555
C24 C23 1_555 1_555
H17 C24 1_555 1_555
C25 C24 1_555 1_555
C26 O2 1_555 1_555
H18 C26 1_555 1_555
H19 C26 1_555 1_555
H20 C26 1_555 1_555
C27 C25 1_555 1_555
H21 C27 1_555 1_555
C28 C22 1_555 1_555
H22 C28 1_555 1_555
C5 C6 1_555 1_555
C11 C12 1_555 1_555
C12 C13 1_555 1_555
C20 C21 1_555 1_555
C27 C28 1_555 1_555

#END
