
#######################################################################
#
#                 Cambridge Crystallographic Data Centre
#                                CCDC 
#
#######################################################################
#
# If this CIF has been generated from an entry in the Cambridge 
# Structural Database, then it will include bibliographic, chemical, 
# crystal, experimental, refinement or atomic coordinate data resulting 
# from the CCDC's data processing and validation procedures.
#
#######################################################################

data_QEWSAO
_chemical_formula_moiety         'C27 H34 N6 O4'
_chemical_name_systematic        
't-Butyl 4-((5-(cyclopropylcarbamoyl)-2-methylphenyl)imino)-5-methyl-6-(propylcarbamoyl)pyrrolo[2,1-f][1,2,4]triazine-3(4H)-carboxylate'
_symmetry_cell_setting           monoclinic
_symmetry_space_group_name_H-M   'P 21/n'
_symmetry_Int_Tables_number      14
_space_group_name_Hall           '-P 2yn'
loop_
_symmetry_equiv_pos_site_id
_symmetry_equiv_pos_as_xyz
1 x,y,z
2 1/2-x,1/2+y,1/2-z
3 -x,-y,-z
4 1/2+x,1/2-y,1/2+z
_cell_length_a                   11.554(2)
_cell_length_b                   14.5138(3)
_cell_length_c                   17.4479(2)
_cell_angle_alpha                90
_cell_angle_beta                 105.620(10)
_cell_angle_gamma                90
_cell_volume                     2817.82
_exptl_crystal_colour            colorless
_exptl_crystal_description       plate
_cell_formula_units_Z            4
loop_
_atom_site_label
_atom_site_type_symbol
_atom_site_fract_x
_atom_site_fract_y
_atom_site_fract_z
O1 O 0.03418(18) 0.31023(14) 0.49480(11)
O2 O 0.3015(2) 0.78121(12) 0.37995(13)
N1 N 0.34076(18) 0.51670(14) 0.53138(11)
N2 N 0.45145(19) 0.55938(15) 0.55831(13)
N3 N 0.38821(19) 0.65362(14) 0.44275(13)
O3 O 0.62701(17) 0.63923(17) 0.26114(12)
C1 C 0.1800(2) 0.66357(18) 0.20090(17)
N4 N 0.5860(2) 0.71219(17) 0.14320(14)
H1 H 0.5312 0.7349 0.1033
C2 C 0.3317(3) 0.70026(18) 0.13329(17)
H2 H 0.3515 0.7238 0.0883
C3 C 0.3896(2) 0.63909(17) 0.26547(15)
H3 H 0.4497 0.6192 0.3102
N5 N 0.1655(2) 0.30155(17) 0.61607(14)
H4 H 0.2245 0.3277 0.6510
C4 C 0.4225(2) 0.67078(17) 0.19929(15)
C5 C 0.2872(2) 0.59567(15) 0.40373(14)
C6 C 0.2694(2) 0.63597(16) 0.26730(15)
C7 C 0.2570(2) 0.53204(16) 0.45843(14)
C8 C 0.1942(2) 0.41768(17) 0.52542(14)
C9 C 0.3034(2) 0.44893(19) 0.57134(15)
H5 H 0.3447 0.4267 0.6219
C10 C 0.1629(2) 0.47096(17) 0.45365(15)
C11 C 0.5528(2) 0.67275(18) 0.20337(14)
O4 O 0.4986(3) 0.78342(18) 0.44382(15)
C12 C 0.4676(2) 0.62509(19) 0.51345(15)
H6 H 0.5407 0.6573 0.5301
C13 C 0.4029(3) 0.7462(2) 0.42101(17)
C14 C 0.7105(3) 0.7180(2) 0.14304(17)
H7 H 0.7662 0.6759 0.1800
C15 C 0.1246(2) 0.34039(17) 0.54454(15)
C16 C 0.2125(2) 0.69458(18) 0.13450(18)
H8 H 0.1520 0.7122 0.0891
C17 C 0.0498(2) 0.4673(2) 0.38753(17)
H9 H 0.0495 0.5174 0.3506
H10 H -0.0188 0.4733 0.4092
H11 H 0.0454 0.4090 0.3598
C18 C 0.2953(4) 0.8806(2) 0.3524(2)
C19 C 0.7605(3) 0.8090(3) 0.1298(2)
H12 H 0.8439 0.8224 0.1588
H13 H 0.7063 0.8622 0.1211
C20 C 0.1141(4) 0.2161(2) 0.6376(2)
H14 H 0.0443 0.1970 0.5948
H15 H 0.0888 0.2246 0.6864
C21 C 0.7390(3) 0.7370(3) 0.0667(2)
H16 H 0.6716 0.7461 0.0193
H17 H 0.8092 0.7063 0.0570
C22 C 0.0489(3) 0.6579(2) 0.2003(2)
H18 H -0.0011 0.6699 0.1469
H19 H 0.0322 0.7034 0.2366
H20 H 0.0316 0.5969 0.2169
C23 C 0.3742(3) 0.8934(2) 0.2988(2)
H21 H 0.3478 0.8532 0.2531
H22 H 0.4564 0.8785 0.3272
H23 H 0.3700 0.9570 0.2811
C24 C 0.1654(5) 0.8889(3) 0.3061(5)
H24 H 0.1459 0.9531 0.2937
H25 H 0.1147 0.8648 0.3376
H26 H 0.1518 0.8539 0.2570
C25 C 0.3288(10) 0.9427(3) 0.4246(4)
H27 H 0.4128 0.9336 0.4524
H28 H 0.2794 0.9279 0.4599
H29 H 0.3158 1.0065 0.4078
C26 C 0.2174(11) 0.1417(7) 0.6507(10)
H30 H 0.2420 0.1347 0.6014
H31 H 0.2872 0.1631 0.6924
C27 C 0.178(2) 0.0494(11) 0.6742(16)
H32 H 0.0956 0.0373 0.6434
H33 H 0.1813 0.0500 0.7304
H34 H 0.2300 0.0015 0.6639
N6 N 0.23364(18) 0.59327(14) 0.32992(12)
C28? C 0.1414(12) 0.1359(9) 0.6067(7)
C29? C 0.117(2) 0.0340(11) 0.6171(16)
loop_
_geom_bond_atom_site_label_1
_geom_bond_atom_site_label_2
_geom_bond_site_symmetry_1
_geom_bond_site_symmetry_2
O1 C15 1_555 1_555
O2 C13 1_555 1_555
N1 N2 1_555 1_555
N2 C12 1_555 1_555
N3 C5 1_555 1_555
O3 C11 1_555 1_555
C1 C6 1_555 1_555
N4 H1 1_555 1_555
C2 H2 1_555 1_555
C3 H3 1_555 1_555
N5 H4 1_555 1_555
C4 C2 1_555 1_555
C5 C7 1_555 1_555
C6 C3 1_555 1_555
C7 N1 1_555 1_555
C8 C9 1_555 1_555
C9 N1 1_555 1_555
H5 C9 1_555 1_555
C10 C7 1_555 1_555
C11 N4 1_555 1_555
O4 C13 1_555 1_555
C12 N3 1_555 1_555
H6 C12 1_555 1_555
C13 N3 1_555 1_555
C14 N4 1_555 1_555
H7 C14 1_555 1_555
C15 N5 1_555 1_555
C16 C1 1_555 1_555
H8 C16 1_555 1_555
C17 C10 1_555 1_555
H9 C17 1_555 1_555
H10 C17 1_555 1_555
H11 C17 1_555 1_555
C18 O2 1_555 1_555
C19 C14 1_555 1_555
H12 C19 1_555 1_555
H13 C19 1_555 1_555
C20 N5 1_555 1_555
H14 C20 1_555 1_555
H15 C20 1_555 1_555
C21 C14 1_555 1_555
H16 C21 1_555 1_555
H17 C21 1_555 1_555
C22 C1 1_555 1_555
H18 C22 1_555 1_555
H19 C22 1_555 1_555
H20 C22 1_555 1_555
C23 C18 1_555 1_555
H21 C23 1_555 1_555
H22 C23 1_555 1_555
H23 C23 1_555 1_555
C24 C18 1_555 1_555
H24 C24 1_555 1_555
H25 C24 1_555 1_555
H26 C24 1_555 1_555
C25 C18 1_555 1_555
H27 C25 1_555 1_555
H28 C25 1_555 1_555
H29 C25 1_555 1_555
C26 C20 1_555 1_555
H30 C26 1_555 1_555
H31 C26 1_555 1_555
C27 C26 1_555 1_555
H32 C27 1_555 1_555
H33 C27 1_555 1_555
H34 C27 1_555 1_555
N6 C5 1_555 1_555
C2 C16 1_555 1_555
C3 C4 1_555 1_555
C4 C11 1_555 1_555
C6 N6 1_555 1_555
C8 C10 1_555 1_555
C8 C15 1_555 1_555
C19 C21 1_555 1_555

#END
