
#######################################################################
#
#                 Cambridge Crystallographic Data Centre
#                                CCDC 
#
#######################################################################
#
# If this CIF has been generated from an entry in the Cambridge 
# Structural Database, then it will include bibliographic, chemical, 
# crystal, experimental, refinement or atomic coordinate data resulting 
# from the CCDC's data processing and validation procedures.
#
#######################################################################

data_QEWZEZ
_chemical_formula_moiety         'C12 H12 N2 O3'
_chemical_name_systematic        
'Methyl (5-oxo-1-phenyl-2,5-dihydro-1H-pyrazol-3-yl)acetate'
_symmetry_cell_setting           monoclinic
_symmetry_space_group_name_H-M   'P 21/c'
_symmetry_Int_Tables_number      14
_space_group_name_Hall           '-P 2ybc'
loop_
_symmetry_equiv_pos_site_id
_symmetry_equiv_pos_as_xyz
1 x,y,z
2 -x,1/2+y,1/2-z
3 -x,-y,-z
4 x,1/2-y,1/2+z
_cell_length_a                   23.95(3)
_cell_length_b                   4.328(5)
_cell_length_c                   11.288(12)
_cell_angle_alpha                90
_cell_angle_beta                 103.561(13)
_cell_angle_gamma                90
_cell_volume                     1137.44
_exptl_crystal_colour            colorless
_exptl_crystal_description       BLOCK
_cell_formula_units_Z            4
loop_
_atom_site_label
_atom_site_type_symbol
_atom_site_fract_x
_atom_site_fract_y
_atom_site_fract_z
O1 O 0.72402(9) 0.9588(5) 0.98692(18)
O2 O 0.90048(10) 0.4009(7) 0.6339(2)
O3 O 0.92178(12) 0.6596(8) 0.8084(3)
N1 N 0.72251(10) 0.7992(6) 0.7904(2)
N2 N 0.75442(11) 0.6300(6) 0.7264(2)
H1 H 0.7473(13) 0.621(8) 0.6423(17)
C1 C 0.62053(13) 0.8653(8) 0.7854(3)
H2 H 0.6257 0.7573 0.8584
C2 C 0.56671(14) 0.9796(9) 0.7283(3)
H3 H 0.5358 0.9508 0.7641
C3 C 0.55871(15) 1.1353(9) 0.6191(3)
H4 H 0.5226 1.2121 0.5814
C4 C 0.60462(15) 1.1767(9) 0.5659(3)
H5 H 0.5991 1.2786 0.4915
C5 C 0.65867(14) 1.0683(8) 0.6221(3)
H6 H 0.6894 1.0989 0.5862
C6 C 0.66661(12) 0.9141(7) 0.7321(3)
C7 C 0.74871(13) 0.7987(7) 0.9113(3)
C8 C 0.79782(12) 0.6232(7) 0.9259(3)
H7 H 0.8245 0.5804 0.9982
C9 C 0.79902(13) 0.5233(7) 0.8089(3)
C10 C 0.84126(13) 0.3113(8) 0.7690(3)
H8 H 0.8550 0.1602 0.8326
H9 H 0.8215 0.2004 0.6966
C11 C 0.89216(14) 0.4789(8) 0.7419(3)
C12 C 0.94926(17) 0.5419(14) 0.5987(4)
H10 H 0.9493 0.4821 0.5168
H11 H 0.9842 0.4741 0.6530
H12 H 0.9464 0.7627 0.6030
loop_
_geom_bond_atom_site_label_1
_geom_bond_atom_site_label_2
_geom_bond_site_symmetry_1
_geom_bond_site_symmetry_2
O1 C7 1_555 1_555
O2 C11 1_555 1_555
O3 C11 1_555 1_555
N1 N2 1_555 1_555
N2 H1 1_555 1_555
C1 H2 1_555 1_555
C2 C1 1_555 1_555
H3 C2 1_555 1_555
C3 C2 1_555 1_555
H4 C3 1_555 1_555
C4 C3 1_555 1_555
H5 C4 1_555 1_555
C5 C4 1_555 1_555
H6 C5 1_555 1_555
C6 N1 1_555 1_555
C7 N1 1_555 1_555
C8 C7 1_555 1_555
H7 C8 1_555 1_555
C9 N2 1_555 1_555
C10 C9 1_555 1_555
H8 C10 1_555 1_555
H9 C10 1_555 1_555
C11 C10 1_555 1_555
C12 O2 1_555 1_555
H10 C12 1_555 1_555
H11 C12 1_555 1_555
H12 C12 1_555 1_555
C1 C6 1_555 1_555
C5 C6 1_555 1_555
C8 C9 1_555 1_555

#END
