
#######################################################################
#
#                 Cambridge Crystallographic Data Centre
#                                CCDC 
#
#######################################################################
#
# If this CIF has been generated from an entry in the Cambridge 
# Structural Database, then it will include bibliographic, chemical, 
# crystal, experimental, refinement or atomic coordinate data resulting 
# from the CCDC's data processing and validation procedures.
#
#######################################################################

data_QEXCUU
_chemical_formula_moiety         'C22 H10 Cl1 F4 N3 O1'
_chemical_name_systematic        
8-chloro-1,2,3,4-tetrafluoro-5-[2-(1H-pyrazol-1-yl)phenyl]phenanthridin-6(5H)-one
_symmetry_cell_setting           orthorhombic
_symmetry_space_group_name_H-M   'P b c a'
_symmetry_Int_Tables_number      61
_space_group_name_Hall           '-P 2ac 2ab'
loop_
_symmetry_equiv_pos_site_id
_symmetry_equiv_pos_as_xyz
1 x,y,z
2 1/2-x,-y,1/2+z
3 -x,1/2+y,1/2-z
4 1/2+x,1/2-y,-z
5 -x,-y,-z
6 1/2+x,y,1/2-z
7 x,1/2-y,1/2+z
8 1/2-x,1/2+y,z
_cell_length_a                   14.8064(4)
_cell_length_b                   9.5775(2)
_cell_length_c                   26.1607(7)
_cell_angle_alpha                90
_cell_angle_beta                 90
_cell_angle_gamma                90
_cell_volume                     3709.8
_exptl_crystal_colour            colorless
_exptl_crystal_description       Rectangular
_cell_formula_units_Z            8
loop_
_atom_site_label
_atom_site_type_symbol
_atom_site_fract_x
_atom_site_fract_y
_atom_site_fract_z
C1 C 1.13231(14) 0.2700(2) 0.49932(9)
H1 H 1.1932 0.2906 0.5035
C2 C 1.10728(15) 0.1735(2) 0.46354(9)
H2 H 1.1509 0.1300 0.4435
C3 C 1.01738(15) 0.1407(2) 0.45711(8)
C4 C 0.95249(14) 0.2018(2) 0.48676(8)
H3 H 0.8921 0.1775 0.4827
C5 C 0.97741(12) 0.3007(2) 0.52321(7)
C6 C 0.90563(13) 0.3550(2) 0.55619(8)
C7 C 1.01882(13) 0.5049(2) 0.59709(7)
C8 C 1.03797(14) 0.6155(2) 0.62995(8)
C9 C 1.12419(16) 0.6651(3) 0.63565(9)
C10 C 1.19288(15) 0.6104(3) 0.60740(10)
C11 C 1.17509(14) 0.5050(2) 0.57375(9)
C12 C 1.08885(13) 0.4476(2) 0.56711(8)
C13 C 1.06811(13) 0.3387(2) 0.52993(7)
C14 C 0.86327(13) 0.4801(2) 0.63194(8)
C15 C 0.78600(14) 0.5534(2) 0.61989(9)
H4 H 0.7768 0.5841 0.5866
C16 C 0.72228(15) 0.5815(3) 0.65685(10)
H5 H 0.6701 0.6305 0.6485
C17 C 0.73622(16) 0.5369(3) 0.70625(10)
H6 H 0.6939 0.5576 0.7314
C18 C 0.81236(15) 0.4618(2) 0.71854(9)
H7 H 0.8210 0.4307 0.7519
C19 C 0.87627(13) 0.4324(2) 0.68141(8)
C20 C 1.01140(17) 0.3855(3) 0.73538(9)
H8 H 1.0039 0.4548 0.7599
C21 C 1.07979(17) 0.2917(3) 0.73311(10)
H9 H 1.1285 0.2833 0.7553
C22 C 1.06123(15) 0.2111(2) 0.69055(9)
H10 H 1.0973 0.1374 0.6796
Cl1 Cl 0.98717(5) 0.01857(6) 0.41114(2)
F1 F 0.97316(9) 0.68131(14) 0.65639(5)
F2 F 1.14050(10) 0.76997(17) 0.66845(6)
F3 F 1.27694(9) 0.66171(19) 0.61223(7)
F4 F 1.24601(9) 0.45864(17) 0.54651(6)
N1 N 0.93019(10) 0.45279(16) 0.59274(6)
N2 N 0.95625(11) 0.35966(17) 0.69553(6)
N3 N 0.98648(12) 0.25047(18) 0.66716(7)
O1 O 0.82783(10) 0.31370(18) 0.55355(6)
loop_
_geom_bond_atom_site_label_1
_geom_bond_atom_site_label_2
_geom_bond_site_symmetry_1
_geom_bond_site_symmetry_2
C1 H1 1_555 1_555
C2 C1 1_555 1_555
H2 C2 1_555 1_555
C3 C2 1_555 1_555
C4 C3 1_555 1_555
H3 C4 1_555 1_555
C5 C4 1_555 1_555
C6 C5 1_555 1_555
C7 C8 1_555 1_555
C8 C9 1_555 1_555
C9 C10 1_555 1_555
C10 C11 1_555 1_555
C11 C12 1_555 1_555
C12 C7 1_555 1_555
C13 C1 1_555 1_555
C14 C15 1_555 1_555
C15 H4 1_555 1_555
C16 C15 1_555 1_555
H5 C16 1_555 1_555
C17 C16 1_555 1_555
H6 C17 1_555 1_555
C18 C17 1_555 1_555
H7 C18 1_555 1_555
C19 C14 1_555 1_555
C20 H8 1_555 1_555
C21 C20 1_555 1_555
H9 C21 1_555 1_555
C22 C21 1_555 1_555
H10 C22 1_555 1_555
Cl1 C3 1_555 1_555
F1 C8 1_555 1_555
F2 C9 1_555 1_555
F3 C10 1_555 1_555
F4 C11 1_555 1_555
N1 C6 1_555 1_555
N2 C19 1_555 1_555
N3 C22 1_555 1_555
O1 C6 1_555 1_555
C5 C13 1_555 1_555
C7 N1 1_555 1_555
C12 C13 1_555 1_555
C14 N1 1_555 1_555
C18 C19 1_555 1_555
C20 N2 1_555 1_555
N2 N3 1_555 1_555

#END
