
#######################################################################
#
#                 Cambridge Crystallographic Data Centre
#                                CCDC 
#
#######################################################################
#
# If this CIF has been generated from an entry in the Cambridge 
# Structural Database, then it will include bibliographic, chemical, 
# crystal, experimental, refinement or atomic coordinate data resulting 
# from the CCDC's data processing and validation procedures.
#
#######################################################################

data_QEXLAJ
_chemical_formula_moiety         'C26 H37 N3 O1'
_chemical_name_systematic        
N-([bis(propan-2-yl)amino]{[2,6-bis(propan-2-yl)phenyl]amino}methylidene)benzamide
_symmetry_cell_setting           monoclinic
_symmetry_space_group_name_H-M   'P 21/c'
_symmetry_Int_Tables_number      14
_space_group_name_Hall           '-P 2ybc'
loop_
_symmetry_equiv_pos_site_id
_symmetry_equiv_pos_as_xyz
1 x,y,z
2 -x,1/2+y,1/2-z
3 -x,-y,-z
4 x,1/2-y,1/2+z
_cell_length_a                   11.1393(4)
_cell_length_b                   13.0643(4)
_cell_length_c                   17.6600(6)
_cell_angle_alpha                90
_cell_angle_beta                 101.866(2)
_cell_angle_gamma                90
_cell_volume                     2515.09
_exptl_crystal_colour            colorless
_exptl_crystal_description       block
_cell_formula_units_Z            4
loop_
_atom_site_label
_atom_site_type_symbol
_atom_site_fract_x
_atom_site_fract_y
_atom_site_fract_z
N1 N 0.21069(10) 0.49049(8) 0.17470(6)
H1 H 0.1738 0.4365 0.1861
N2 N 0.22892(10) 0.41849(8) 0.05551(6)
N3 N 0.20939(9) 0.59287(8) 0.06440(6)
O1 O 0.21455(15) 0.29657(8) 0.14864(7)
C1 C 0.21614(10) 0.50042(9) 0.09901(7)
C2 C 0.23536(13) 0.32314(10) 0.08530(8)
C3 C 0.26899(12) 0.24150(10) 0.03369(8)
C4 C 0.25921(18) 0.14016(12) 0.05313(10)
H2 H 0.2297 0.1232 0.0971
C5 C 0.2931(2) 0.06353(13) 0.00764(13)
H3 H 0.2861 -0.0047 0.0211
C6 C 0.3364(3) 0.08741(16) -0.05663(16)
H4 H 0.3610 0.0358 -0.0864
C7 C 0.3437(3) 0.18678(17) -0.07721(17)
H5 H 0.3714 0.2030 -0.1220
C8 C 0.3104(2) 0.26434(13) -0.03229(13)
H6 H 0.3161 0.3323 -0.0469
C9 C 0.25772(12) 0.55727(9) 0.23850(7)
C10 C 0.17589(14) 0.59439(11) 0.28266(9)
C11 C 0.22353(17) 0.65519(13) 0.34641(10)
H7 H 0.1712 0.6809 0.3766
C12 C 0.34591(18) 0.67791(13) 0.36548(10)
H8 H 0.3757 0.7192 0.4081
C13 C 0.42516(15) 0.64013(12) 0.32197(9)
H9 H 0.5081 0.6564 0.3355
C14 C 0.38340(12) 0.57787(10) 0.25796(8)
C15 C 0.47358(13) 0.52906(12) 0.21497(9)
H10 H 0.4297 0.5158 0.1619
C16 C 0.5151(3) 0.4270(2) 0.25145(17)
H11 H 0.5555 0.4372 0.3044
H12 H 0.5711 0.3956 0.2237
H13 H 0.4452 0.3833 0.2494
C17 C 0.58210(19) 0.5976(2) 0.21063(15)
H14 H 0.5530 0.6640 0.1922
H15 H 0.6283 0.5681 0.1758
H16 H 0.6336 0.6038 0.2611
C18 C 0.04056(16) 0.56854(16) 0.26261(12)
H17 H 0.0237 0.5397 0.2103
C19 C 0.0091(3) 0.4870(3) 0.3161(2)
H18 H 0.0577 0.4270 0.3129
H19 H -0.0763 0.4700 0.3009
H20 H 0.0260 0.5122 0.3682
C20 C -0.0404(2) 0.6622(3) 0.2610(2)
H21 H -0.1238 0.6443 0.2388
H22 H -0.0133 0.7148 0.2304
H23 H -0.0353 0.6867 0.3128
C21 C 0.16209(13) 0.68505(10) 0.09735(8)
H24 H 0.1412 0.6643 0.1464
C22 C 0.04462(15) 0.72432(14) 0.04571(11)
H25 H 0.0628 0.7516 -0.0011
H26 H 0.0098 0.7771 0.0723
H27 H -0.0129 0.6690 0.0334
C23 C 0.25847(18) 0.76823(12) 0.11611(12)
H28 H 0.3299 0.7414 0.1502
H29 H 0.2263 0.8244 0.1408
H30 H 0.2803 0.7916 0.0692
C24 C 0.23656(13) 0.60564(11) -0.01396(8)
H31 H 0.2307 0.6793 -0.0244
C25 C 0.36771(16) 0.57686(13) -0.01572(11)
H32 H 0.4228 0.6159 0.0225
H33 H 0.3837 0.5912 -0.0660
H34 H 0.3798 0.5052 -0.0047
C26 C 0.14311(19) 0.55605(14) -0.07869(9)
H35 H 0.1550 0.4832 -0.0773
H36 H 0.1537 0.5822 -0.1277
H37 H 0.0618 0.5715 -0.0718
loop_
_geom_bond_atom_site_label_1
_geom_bond_atom_site_label_2
_geom_bond_site_symmetry_1
_geom_bond_site_symmetry_2
N1 H1 1_555 1_555
N2 C1 1_555 1_555
N3 C1 1_555 1_555
O1 C2 1_555 1_555
C1 N1 1_555 1_555
C2 N2 1_555 1_555
C3 C2 1_555 1_555
C4 C3 1_555 1_555
H2 C4 1_555 1_555
C5 C4 1_555 1_555
H3 C5 1_555 1_555
C6 C5 1_555 1_555
H4 C6 1_555 1_555
C7 C6 1_555 1_555
H5 C7 1_555 1_555
C8 C3 1_555 1_555
H6 C8 1_555 1_555
C9 N1 1_555 1_555
C10 C9 1_555 1_555
C11 C10 1_555 1_555
H7 C11 1_555 1_555
C12 C11 1_555 1_555
H8 C12 1_555 1_555
C13 C12 1_555 1_555
H9 C13 1_555 1_555
C14 C9 1_555 1_555
C15 C14 1_555 1_555
H10 C15 1_555 1_555
C16 C15 1_555 1_555
H11 C16 1_555 1_555
H12 C16 1_555 1_555
H13 C16 1_555 1_555
C17 C15 1_555 1_555
H14 C17 1_555 1_555
H15 C17 1_555 1_555
H16 C17 1_555 1_555
C18 C10 1_555 1_555
H17 C18 1_555 1_555
C19 C18 1_555 1_555
H18 C19 1_555 1_555
H19 C19 1_555 1_555
H20 C19 1_555 1_555
C20 C18 1_555 1_555
H21 C20 1_555 1_555
H22 C20 1_555 1_555
H23 C20 1_555 1_555
C21 N3 1_555 1_555
H24 C21 1_555 1_555
C22 C21 1_555 1_555
H25 C22 1_555 1_555
H26 C22 1_555 1_555
H27 C22 1_555 1_555
C23 C21 1_555 1_555
H28 C23 1_555 1_555
H29 C23 1_555 1_555
H30 C23 1_555 1_555
C24 N3 1_555 1_555
H31 C24 1_555 1_555
C25 C24 1_555 1_555
H32 C25 1_555 1_555
H33 C25 1_555 1_555
H34 C25 1_555 1_555
C26 C24 1_555 1_555
H35 C26 1_555 1_555
H36 C26 1_555 1_555
H37 C26 1_555 1_555
C7 C8 1_555 1_555
C13 C14 1_555 1_555

#END
