
#######################################################################
#
#                 Cambridge Crystallographic Data Centre
#                                CCDC 
#
#######################################################################
#
# If this CIF has been generated from an entry in the Cambridge 
# Structural Database, then it will include bibliographic, chemical, 
# crystal, experimental, refinement or atomic coordinate data resulting 
# from the CCDC's data processing and validation procedures.
#
#######################################################################

data_QEXLOX
_chemical_formula_moiety         'C16 H16 N2 O2'
_chemical_name_systematic        N-[(2,6-dimethylphenyl)carbamoyl]benzamide
_symmetry_cell_setting           monoclinic
_symmetry_space_group_name_H-M   'P 21/c'
_symmetry_Int_Tables_number      14
_space_group_name_Hall           '-P 2ybc'
loop_
_symmetry_equiv_pos_site_id
_symmetry_equiv_pos_as_xyz
1 x,y,z
2 -x,1/2+y,1/2-z
3 -x,-y,-z
4 x,1/2-y,1/2+z
_cell_length_a                   10.9532(3)
_cell_length_b                   13.7447(4)
_cell_length_c                   10.3127(3)
_cell_angle_alpha                90
_cell_angle_beta                 110.905(2)
_cell_angle_gamma                90
_cell_volume                     1450.36
_exptl_crystal_colour            colorless
_exptl_crystal_description       block
_cell_formula_units_Z            4
loop_
_atom_site_label
_atom_site_type_symbol
_atom_site_fract_x
_atom_site_fract_y
_atom_site_fract_z
O1 O 0.14240(10) 1.06437(7) 1.05951(12)
O2 O 0.40296(10) 0.91082(7) 0.93679(13)
C1 C 0.24840(14) 1.09534(10) 1.06437(14)
N1 N 0.20655(12) 0.90029(8) 0.95911(13)
H1 H 0.1516 0.9275 0.9900
N2 N 0.33663(11) 1.03888(8) 1.03215(12)
H2 H 0.4130 1.0637 1.0501
C2 C 0.31770(14) 0.94542(10) 0.97334(15)
C3 C 0.28666(14) 1.19887(10) 1.10282(14)
C4 C 0.17636(14) 0.80688(9) 0.89318(16)
C5 C 0.23736(17) 0.72403(11) 0.96493(18)
C6 C 0.08692(15) 0.80346(11) 0.75803(17)
C7 C 0.38161(17) 1.24680(12) 1.0698(2)
H3 H 0.4289 1.2141 1.0243
C8 C 0.21596(18) 1.24978(12) 1.16840(18)
H4 H 0.1504 1.2184 1.1898
C9 C 0.2419(2) 1.34638(13) 1.2021(2)
H5 H 0.1944 1.3798 1.2467
C10 C 0.2024(2) 0.63514(12) 0.8949(2)
H6 H 0.2405 0.5780 0.9392
C11 C 0.1130(2) 0.63090(13) 0.7621(2)
H7 H 0.0908 0.5710 0.7181
C12 C 0.05650(18) 0.71324(13) 0.6941(2)
H8 H -0.0032 0.7091 0.6037
C13 C 0.3377(2) 1.39329(12) 1.1701(2)
H9 H 0.3554 1.4585 1.1931
C14 C 0.3365(2) 0.72854(14) 1.1086(2)
H10 H 0.4199 0.7461 1.1046
H11 H 0.3430 0.6661 1.1522
H12 H 0.3104 0.7763 1.1615
C15 C 0.0263(2) 0.89366(14) 0.6792(2)
H13 H -0.0294 0.9233 0.7217
H14 H -0.0243 0.8768 0.5849
H15 H 0.0939 0.9386 0.6806
C16 C 0.4069(2) 1.34435(12) 1.1047(2)
H16 H 0.4718 1.3765 1.0829
loop_
_geom_bond_atom_site_label_1
_geom_bond_atom_site_label_2
_geom_bond_site_symmetry_1
_geom_bond_site_symmetry_2
O1 C1 1_555 1_555
O2 C2 1_555 1_555
C1 N2 1_555 1_555
N1 H1 1_555 1_555
N2 H2 1_555 1_555
C2 N1 1_555 1_555
C3 C1 1_555 1_555
C4 N1 1_555 1_555
C5 C4 1_555 1_555
C6 C4 1_555 1_555
C7 C3 1_555 1_555
H3 C7 1_555 1_555
C8 C3 1_555 1_555
H4 C8 1_555 1_555
C9 C8 1_555 1_555
H5 C9 1_555 1_555
C10 C5 1_555 1_555
H6 C10 1_555 1_555
C11 C10 1_555 1_555
H7 C11 1_555 1_555
C12 C6 1_555 1_555
H8 C12 1_555 1_555
C13 C9 1_555 1_555
H9 C13 1_555 1_555
C14 C5 1_555 1_555
H10 C14 1_555 1_555
H11 C14 1_555 1_555
H12 C14 1_555 1_555
C15 C6 1_555 1_555
H13 C15 1_555 1_555
H14 C15 1_555 1_555
H15 C15 1_555 1_555
C16 C7 1_555 1_555
H16 C16 1_555 1_555
N2 C2 1_555 1_555
C11 C12 1_555 1_555
C13 C16 1_555 1_555

#END
