
#######################################################################
#
#                 Cambridge Crystallographic Data Centre
#                                CCDC 
#
#######################################################################
#
# If this CIF has been generated from an entry in the Cambridge 
# Structural Database, then it will include bibliographic, chemical, 
# crystal, experimental, refinement or atomic coordinate data resulting 
# from the CCDC's data processing and validation procedures.
#
#######################################################################

data_QEXRIV
_chemical_formula_moiety         'C3 H11 N2 1+,Cl1 O4 1-,H2 O1'
_chemical_name_systematic        
'3-Amino-1-propylammonium perchlorate monohydrate'
_symmetry_cell_setting           monoclinic
_symmetry_space_group_name_H-M   'P 21/c'
_symmetry_Int_Tables_number      14
_space_group_name_Hall           '-P 2ybc'
loop_
_symmetry_equiv_pos_site_id
_symmetry_equiv_pos_as_xyz
1 x,y,z
2 -x,1/2+y,1/2-z
3 -x,-y,-z
4 x,1/2-y,1/2+z
_cell_length_a                   6.9398(11)
_cell_length_b                   16.634(3)
_cell_length_c                   7.8543(12)
_cell_angle_alpha                90
_cell_angle_beta                 113.731(2)
_cell_angle_gamma                90
_cell_volume                     830.01
_exptl_crystal_colour            colorless
_exptl_crystal_description       block
_cell_formula_units_Z            4
loop_
_atom_site_label
_atom_site_type_symbol
_atom_site_fract_x
_atom_site_fract_y
_atom_site_fract_z
C1 C 0.7621(7) 0.8875(2) 0.8419(6)
H1 H 0.6608 0.9275 0.7611
H2 H 0.9060 0.9066 0.8667
C2 C 0.7358(7) 0.8803(2) 1.0244(6)
H3 H 0.5901 0.8633 0.9989
H4 H 0.8328 0.8386 1.1028
C3 C 0.7816(6) 0.9596(2) 1.1286(5)
H5 H 0.9315 0.9741 1.1662
H6 H 0.6943 1.0027 1.0467
N1 N 0.7254(5) 0.80815(19) 0.7442(5)
H7 H 0.7907 0.7687 0.8279
H8 H 0.7784 0.8095 0.6555
H9 H 0.5847 0.7980 0.6899
N2 N 0.7336(5) 0.95226(19) 1.2964(5)
H10 H 0.7478 1.0011 1.3522
H11 H 0.8243 0.9167 1.3773
Cl1 Cl 0.15919(16) 0.82804(6) 0.59155(14)
O1 O -0.0755(4) 0.80903(16) 0.5002(4)
O2 O 0.2085(4) 0.90567(15) 0.5177(4)
O3 O 0.2943(4) 0.75840(15) 0.5763(4)
O4 O 0.2160(4) 0.84463(16) 0.8051(4)
O5 O 0.3302(5) 0.89758(17) 0.2313(4)
H14 H 0.2957 0.9018 0.3226
H15 H 0.3135 0.8517 0.1870
H12? H 0.5992 0.9344 1.2622
H13? H 0.2308 0.8008 0.8647
loop_
_geom_bond_atom_site_label_1
_geom_bond_atom_site_label_2
_geom_bond_site_symmetry_1
_geom_bond_site_symmetry_2
C1 H1 1_555 1_555
H2 C1 1_555 1_555
C2 C1 1_555 1_555
H3 C2 1_555 1_555
H4 C2 1_555 1_555
C3 C2 1_555 1_555
H5 C3 1_555 1_555
H6 C3 1_555 1_555
Cl1 O1 1_555 1_555
N1 C1 1_555 1_555
H7 N1 1_555 1_555
H8 N1 1_555 1_555
H9 N1 1_555 1_555
N2 C3 1_555 1_555
H10 N2 1_555 1_555
H11 N2 1_555 1_555
O2 Cl1 1_555 1_555
O3 Cl1 1_555 1_555
O4 Cl1 1_555 1_555
O5 H14 1_555 1_555
H15 O5 1_555 1_555

#END
