
#######################################################################
#
#                 Cambridge Crystallographic Data Centre
#                                CCDC 
#
#######################################################################
#
# If this CIF has been generated from an entry in the Cambridge 
# Structural Database, then it will include bibliographic, chemical, 
# crystal, experimental, refinement or atomic coordinate data resulting 
# from the CCDC's data processing and validation procedures.
#
#######################################################################

data_QEYFIJ
_chemical_formula_moiety         'C17 H14 Cl1 F3 N2 O2'
_chemical_name_systematic        
3-(\a-Methylbenzyl)-6-chloro-4-hydroxy-4-trifluoromethyl-3,4-dihydroquinazolin-2-one
_symmetry_cell_setting           orthorhombic
_symmetry_space_group_name_H-M   'P 21 21 21'
_symmetry_Int_Tables_number      19
_space_group_name_Hall           'P 2ac 2ab'
loop_
_symmetry_equiv_pos_site_id
_symmetry_equiv_pos_as_xyz
1 x,y,z
2 1/2-x,-y,1/2+z
3 1/2+x,1/2-y,-z
4 -x,1/2+y,1/2-z
_cell_length_a                   7.187(3)
_cell_length_b                   10.754(2)
_cell_length_c                   21.384(3)
_cell_angle_alpha                90
_cell_angle_beta                 90
_cell_angle_gamma                90
_cell_volume                     1652.75
_exptl_crystal_colour            colorless
_exptl_crystal_description       parallelepiped
_cell_formula_units_Z            4
loop_
_atom_site_label
_atom_site_type_symbol
_atom_site_fract_x
_atom_site_fract_y
_atom_site_fract_z
Cl1 Cl 0.4325(18) 0.5081(11) 0.4901(5)
F1 F -0.0774(4) 0.1806(2) 0.2690(1)
F2 F 0.0572(4) 0.0777(2) 0.3419(1)
F3 F -0.0438(3) 0.2616(2) 0.3599(1)
O1 O 0.1892(5) 0.3562(3) 0.2701(1)
O2 O 0.4966(4) -0.0141(3) 0.2339(1)
N1 N 0.3185(4) 0.1566(3) 0.2530(1)
N2 N 0.4905(5) 0.0652(4) 0.3319(2)
C1 C 0.2302(5) 0.2434(4) 0.2979(2)
C2 C 0.0398(6) 0.1911(4) 0.3168(2)
C3 C 0.4376(6) 0.0642(4) 0.2708(2)
C4 C 0.4712(6) 0.1653(4) 0.3725(2)
C5 C 0.5748(7) 0.1738(4) 0.4270(2)
C6 C 0.5592(7) 0.2783(4) 0.4641(2)
C7 C 0.4432(7) 0.3726(4) 0.4454(2)
C8 C 0.3382(6) 0.3643(4) 0.3925(2)
C9 C 0.3490(6) 0.2578(4) 0.3559(2)
C10 C 0.2589(6) 0.1680(4) 0.1866(2)
C11 C 0.1817(7) 0.0475(4) 0.1591(2)
C12 C 0.4060(6) 0.2265(3) 0.1455(2)
C13 C 0.5892(7) 0.2374(4) 0.1618(2)
C14 C 0.7165(6) 0.2944(4) 0.1215(3)
C15 C 0.6591(8) 0.3399(4) 0.0650(2)
C16 C 0.4771(8) 0.3306(4) 0.0483(2)
C17 C 0.3518(7) 0.2747(4) 0.0885(2)
H1 H 0.2785(50) 0.3928(33) 0.2646(17)
H2 H 0.5507(53) 0.0094(34) 0.3422(16)
H3 H 0.6550 0.1076 0.4390
H4 H 0.6269 0.2843 0.5022
H5 H 0.2589 0.4308 0.3805
H6 H 0.1570 0.2245 0.1865
H7 H 0.1140 0.0654 0.1220
H8 H 0.1017 0.0091 0.1887
H9 H 0.2820 -0.0069 0.1496
H10 H 0.6311 0.2059 0.2010
H11 H 0.8435 0.3011 0.1335
H12 H 0.7461 0.3784 0.0377
H13 H 0.4366 0.3621 0.0090
H14 H 0.2249 0.2688 0.0762
loop_
_geom_bond_atom_site_label_1
_geom_bond_atom_site_label_2
_geom_bond_site_symmetry_1
_geom_bond_site_symmetry_2
Cl1 C7 1_555 1_555
F1 C2 1_555 1_555
F2 C2 1_555 1_555
F3 C2 1_555 1_555
O1 C1 1_555 1_555
O2 C3 1_555 1_555
N1 C1 1_555 1_555
N2 C3 1_555 1_555
C1 C2 1_555 1_555
C3 N1 1_555 1_555
C4 N2 1_555 1_555
C5 C4 1_555 1_555
C6 C5 1_555 1_555
C7 C6 1_555 1_555
C8 C7 1_555 1_555
C9 C1 1_555 1_555
C10 N1 1_555 1_555
C11 C10 1_555 1_555
C12 C10 1_555 1_555
C13 C12 1_555 1_555
C14 C13 1_555 1_555
C15 C14 1_555 1_555
C16 C15 1_555 1_555
C17 C12 1_555 1_555
H1 O1 1_555 1_555
H2 N2 1_555 1_555
H3 C5 1_555 1_555
H4 C6 1_555 1_555
H5 C8 1_555 1_555
H6 C10 1_555 1_555
H7 C11 1_555 1_555
H8 C11 1_555 1_555
H9 C11 1_555 1_555
H10 C13 1_555 1_555
H11 C14 1_555 1_555
H12 C15 1_555 1_555
H13 C16 1_555 1_555
H14 C17 1_555 1_555
C4 C9 1_555 1_555
C8 C9 1_555 1_555
C16 C17 1_555 1_555

#END
