
#######################################################################
#
#                 Cambridge Crystallographic Data Centre
#                                CCDC 
#
#######################################################################
#
# If this CIF has been generated from an entry in the Cambridge 
# Structural Database, then it will include bibliographic, chemical, 
# crystal, experimental, refinement or atomic coordinate data resulting 
# from the CCDC's data processing and validation procedures.
#
#######################################################################

data_QEYTAS
_chemical_formula_moiety         'C16 H31 Mg1 N5'
_chemical_name_systematic        
(pyridin-1(4H)-yl)-(1,4,7-trimethyl-1,4,7,10-tetraazacyclododecanato)-magnesium
_symmetry_cell_setting           monoclinic
_symmetry_space_group_name_H-M   'I 2/a'
_symmetry_Int_Tables_number      15
_space_group_name_Hall           '-I 2ya'
loop_
_symmetry_equiv_pos_site_id
_symmetry_equiv_pos_as_xyz
1 x,y,z
2 1/2-x,y,-z
3 1/2+x,1/2+y,1/2+z
4 -x,1/2+y,1/2-z
5 -x,-y,-z
6 1/2+x,-y,z
7 1/2-x,1/2-y,1/2-z
8 x,1/2-y,1/2+z
_cell_length_a                   20.2890(15)
_cell_length_b                   7.5500(5)
_cell_length_c                   23.1460(14)
_cell_angle_alpha                90
_cell_angle_beta                 90.814(5)
_cell_angle_gamma                90
_cell_volume                     3545.19
_exptl_crystal_colour            colorless
_exptl_crystal_description       block
_cell_formula_units_Z            8
_chemical_properties_physical    
Air-sensitive,Moisture-sensitive,Oxygen-sensitive
loop_
_atom_site_label
_atom_site_type_symbol
_atom_site_fract_x
_atom_site_fract_y
_atom_site_fract_z
Mg1 Mg 0.41955(4) 0.37904(11) 0.37339(3)
N1 N 0.34502(10) 0.2122(3) 0.36105(8)
N2 N 0.37892(10) 0.3601(3) 0.46530(8)
N3 N 0.38631(10) 0.6521(3) 0.38257(8)
N4 N 0.39472(10) 0.4449(3) 0.27924(8)
N5 N 0.51737(10) 0.3325(3) 0.37791(9)
C1 C 0.30234(12) 0.1700(4) 0.40791(11)
H1 H 0.2603(13) 0.246(3) 0.4088(11)
H2 H 0.2841(12) 0.047(4) 0.4080(11)
C2 C 0.34097(13) 0.1917(3) 0.46428(11)
H3 H 0.3141(13) 0.184(4) 0.4976(12)
H4 H 0.3742(12) 0.091(3) 0.4653(10)
C3 C 0.33413(13) 0.5137(3) 0.46829(11)
H5 H 0.3223(12) 0.538(3) 0.5073(12)
H6 H 0.2926(14) 0.478(4) 0.4481(12)
C4 C 0.36453(14) 0.6782(4) 0.44324(11)
H7 H 0.4055(12) 0.717(3) 0.4663(11)
H8 H 0.3331(12) 0.772(3) 0.4466(10)
C5 C 0.32866(13) 0.6489(4) 0.34196(11)
H9 H 0.3052(13) 0.770(4) 0.3418(11)
H10 H 0.2967(12) 0.561(4) 0.3549(11)
C6 C 0.34883(13) 0.5992(4) 0.28099(11)
H11 H 0.3720(13) 0.700(4) 0.2635(12)
H12 H 0.3087(12) 0.573(3) 0.2594(10)
C7 C 0.36033(13) 0.2801(4) 0.26093(11)
H13 H 0.3948(12) 0.193(4) 0.2554(11)
H14 H 0.3403(13) 0.300(4) 0.2205(12)
C8 C 0.31218(13) 0.2147(4) 0.30611(11)
H15 H 0.2956(12) 0.089(4) 0.2911(11)
H16 H 0.2714(12) 0.293(3) 0.3056(10)
C9 C 0.42386(14) 0.3601(4) 0.51567(11)
H17 H 0.4564(12) 0.262(3) 0.5117(10)
H18 H 0.4463(14) 0.476(4) 0.5176(12)
H19 H 0.4007(15) 0.336(4) 0.5523(13)
C10 C 0.43213(14) 0.7950(4) 0.36704(13)
H20 H 0.4498(13) 0.768(4) 0.3265(12)
H21 H 0.4685(15) 0.793(4) 0.3969(13)
H22 H 0.4101(14) 0.911(4) 0.3676(12)
C11 C 0.44833(14) 0.4797(4) 0.23804(12)
H23 H 0.4812(12) 0.382(3) 0.2417(10)
H24 H 0.4320(12) 0.483(3) 0.1970(11)
H25 H 0.4699(14) 0.589(4) 0.2489(12)
C12 C 0.54098(12) 0.1840(3) 0.40743(10)
H26 H 0.5079(12) 0.114(3) 0.4288(11)
C13 C 0.60358(13) 0.1288(4) 0.41127(11)
H27 H 0.6127(14) 0.022(4) 0.4328(13)
C14 C 0.65849(13) 0.2222(4) 0.38092(12)
H28 H 0.6816(13) 0.136(4) 0.3539(12)
H29 H 0.6945(15) 0.258(4) 0.4102(13)
C15 C 0.63170(12) 0.3839(4) 0.35103(11)
H30 H 0.6606(13) 0.457(4) 0.3315(11)
C16 C 0.56767(12) 0.4242(3) 0.35124(11)
H31 H 0.5556(14) 0.530(4) 0.3308(13)
loop_
_geom_bond_atom_site_label_1
_geom_bond_atom_site_label_2
_geom_bond_site_symmetry_1
_geom_bond_site_symmetry_2
Mg1 N1 1_555 1_555
N1 C1 1_555 1_555
N2 Mg1 1_555 1_555
N3 Mg1 1_555 1_555
N4 Mg1 1_555 1_555
N5 Mg1 1_555 1_555
C1 H1 1_555 1_555
H2 C1 1_555 1_555
C2 N2 1_555 1_555
H3 C2 1_555 1_555
H4 C2 1_555 1_555
C3 N2 1_555 1_555
H5 C3 1_555 1_555
H6 C3 1_555 1_555
C4 N3 1_555 1_555
H7 C4 1_555 1_555
H8 C4 1_555 1_555
C5 N3 1_555 1_555
H9 C5 1_555 1_555
H10 C5 1_555 1_555
C6 N4 1_555 1_555
H11 C6 1_555 1_555
H12 C6 1_555 1_555
C7 N4 1_555 1_555
H13 C7 1_555 1_555
H14 C7 1_555 1_555
C8 N1 1_555 1_555
H15 C8 1_555 1_555
H16 C8 1_555 1_555
C9 N2 1_555 1_555
H17 C9 1_555 1_555
H18 C9 1_555 1_555
H19 C9 1_555 1_555
C10 N3 1_555 1_555
H20 C10 1_555 1_555
H21 C10 1_555 1_555
H22 C10 1_555 1_555
C11 N4 1_555 1_555
H23 C11 1_555 1_555
H24 C11 1_555 1_555
H25 C11 1_555 1_555
C12 N5 1_555 1_555
H26 C12 1_555 1_555
C13 C12 1_555 1_555
H27 C13 1_555 1_555
C14 C13 1_555 1_555
H28 C14 1_555 1_555
H29 C14 1_555 1_555
C15 C14 1_555 1_555
H30 C15 1_555 1_555
C16 N5 1_555 1_555
H31 C16 1_555 1_555
C1 C2 1_555 1_555
C3 C4 1_555 1_555
C5 C6 1_555 1_555
C7 C8 1_555 1_555
C15 C16 1_555 1_555

#END
