
#######################################################################
#
#                 Cambridge Crystallographic Data Centre
#                                CCDC 
#
#######################################################################
#
# If this CIF has been generated from an entry in the Cambridge 
# Structural Database, then it will include bibliographic, chemical, 
# crystal, experimental, refinement or atomic coordinate data resulting 
# from the CCDC's data processing and validation procedures.
#
#######################################################################

data_QEYVEV
_chemical_formula_moiety         'C132 H92 O8 S4,10(C1 H1 Cl3)'
_chemical_name_systematic        
'4,6,12,14-Tetrathia-1^2^,1^3^,1^5^,1^6^,1^7^,1^8^,9^2^,9^3^,9^5^,9^6^,9^7^,9^8^-dodecaphenyl-1,9(1,4)-dinaphthalena-2,8,10,16(1,4),5,13(1,3)-hexabenzenacyclohexadecaphane 4,4,6,6,12,12,14,14-octaoxide chloroform solvate'
_symmetry_cell_setting           monoclinic
_symmetry_space_group_name_H-M   'C 2/c'
_symmetry_Int_Tables_number      15
_space_group_name_Hall           '-C 2yn'
loop_
_symmetry_equiv_pos_site_id
_symmetry_equiv_pos_as_xyz
1 x,y,z
2 1/2+x,1/2+y,z
3 x,-y,1/2+z
4 1/2+x,1/2-y,1/2+z
5 -x,-y,-z
6 1/2-x,1/2-y,-z
7 -x,y,1/2-z
8 1/2-x,1/2+y,1/2-z
_cell_length_a                   28.7412(8)
_cell_length_b                   15.4254(5)
_cell_length_c                   38.3795(11)
_cell_angle_alpha                90
_cell_angle_beta                 111.3650(10)
_cell_angle_gamma                90
_cell_volume                     15846
_exptl_crystal_colour            colorless
_exptl_crystal_description       plate
_chemical_melting_point          'above 350deg.C'
_cell_formula_units_Z            4
loop_
_atom_site_label
_atom_site_type_symbol
_atom_site_fract_x
_atom_site_fract_y
_atom_site_fract_z
S1 S 0.05092(5) 0.11114(8) 0.04531(3)
S2 S 0.14183(5) 0.03778(10) 0.47572(3)
O1 O 0.03357(11) 0.0976(2) 0.00513(6)
O2 O 0.08710(12) 0.1783(2) 0.06268(8)
O3 O 0.14532(11) 0.0213(2) 0.51387(7)
O4 O 0.18277(12) 0.0787(2) 0.46971(8)
C1 C 0.11807(13) -0.0178(3) 0.22574(9)
C2 C 0.11446(12) 0.0533(2) 0.24609(9)
C3 C 0.11635(12) 0.0401(2) 0.28378(9)
C4 C 0.11465(12) -0.0415(3) 0.29737(9)
C5 C 0.11732(12) -0.1150(3) 0.27614(9)
C6 C 0.10930(13) -0.2021(3) 0.28601(10)
C7 C 0.12017(14) -0.2727(2) 0.26712(9)
C8 C 0.13974(13) -0.2568(3) 0.23860(9)
C9 C 0.14198(12) -0.1748(2) 0.22615(9)
C10 C 0.12506(12) -0.1007(2) 0.24178(9)
C11 C 0.11000(14) -0.0055(2) 0.18480(9)
C12 C 0.06742(14) -0.0445(2) 0.15954(10)
H1 H 0.04579(14) -0.0744(2) 0.16832(10)
C13 C 0.05706(15) -0.0391(2) 0.12160(10)
H2 H 0.02892(15) -0.0666(2) 0.10495(10)
C14 C 0.0885(2) 0.0070(2) 0.10810(10)
C15 C 0.13088(15) 0.0452(2) 0.13308(11)
H3 H 0.15263(15) 0.0747(2) 0.12430(11)
C16 C 0.14120(13) 0.0398(2) 0.17106(11)
H4 H 0.16951(13) 0.0669(2) 0.18764(11)
C17 C 0.1084(2) 0.1434(2) 0.23046(10)
C18 C 0.06403(15) 0.1679(3) 0.20249(12)
H5 H 0.03848(15) 0.1276(3) 0.19278(12)
C19 C 0.0575(2) 0.2519(4) 0.18894(14)
H6 H 0.0276(2) 0.2676(4) 0.17021(14)
C20 C 0.0944(3) 0.3115(3) 0.20273(15)
H7 H 0.0897(3) 0.3679(3) 0.19353(15)
C21 C 0.1387(2) 0.2884(3) 0.23029(15)
H8 H 0.1640(2) 0.3293(3) 0.23961(15)
C22 C 0.14595(15) 0.2041(3) 0.24440(10)
H9 H 0.17597(15) 0.1888(3) 0.26314(10)
C23 C 0.1165(2) 0.1195(3) 0.30779(11)
C24 C 0.0746(2) 0.1716(3) 0.29982(12)
H10 H 0.0451(2) 0.1571(3) 0.28033(12)
C25 C 0.0768(3) 0.2450(4) 0.3210(2)
H11 H 0.0486(3) 0.2795(4) 0.3162(2)
C26 C 0.1210(3) 0.2669(4) 0.3492(2)
H12 H 0.1220(3) 0.3164(4) 0.3632(2)
C27 C 0.1635(3) 0.2188(4) 0.35727(14)
H13 H 0.1930(3) 0.2350(4) 0.37632(14)
C28 C 0.1609(2) 0.1434(3) 0.33563(13)
H14 H 0.1894(2) 0.1097(3) 0.34016(13)
C29 C 0.1180(2) -0.0496(2) 0.33710(11)
C30 C 0.07674(15) -0.0370(2) 0.34628(10)
H15 H 0.04617(15) -0.0252(2) 0.32744(10)
C31 C 0.07952(15) -0.0413(3) 0.38329(11)
H16 H 0.05116(15) -0.0337(3) 0.38922(11)
C32 C 0.1261(2) -0.0575(3) 0.41127(10)
C33 C 0.1677(2) -0.0695(3) 0.40212(11)
H17 H 0.1986(2) -0.0797(3) 0.42090(11)
C34 C 0.1640(2) -0.0666(3) 0.36535(11)
H18 H 0.1921(2) -0.0759(3) 0.35932(11)
C35 C 0.0856(2) -0.2236(3) 0.31383(11)
C36 C 0.0339(2) -0.2148(3) 0.30310(13)
H19 H 0.0156(2) -0.1928(3) 0.27951(13)
C37 C 0.0094(3) -0.2380(4) 0.3266(2)
H20 H -0.0251(3) -0.2316(4) 0.3188(2)
C38 C 0.0356(4) -0.2701(4) 0.3611(2)
H21 H 0.0192(4) -0.2862(4) 0.3770(2)
C39 C 0.0875(3) -0.2791(4) 0.3728(2)
H22 H 0.1058(3) -0.2986(4) 0.3969(2)
C40 C 0.1119(2) -0.2584(3) 0.34820(13)
H23 H 0.1460(2) -0.2683(3) 0.35524(13)
C41 C 0.1110(2) -0.3652(3) 0.27417(12)
C42 C 0.0681(2) -0.4084(3) 0.2505(2)
H24 H 0.0437(2) -0.3783(3) 0.2316(2)
C43 C 0.0627(3) -0.4954(5) 0.2554(2)
H25 H 0.0347(3) -0.5241(5) 0.2392(2)
C44 C 0.0973(4) -0.5409(4) 0.2835(3)
H26 H 0.0922(4) -0.5992(4) 0.2871(3)
C45 C 0.1398(3) -0.4994(6) 0.3063(2)
H27 H 0.1644(3) -0.5304(6) 0.3248(2)
C46 C 0.1463(2) -0.4106(4) 0.3019(2)
H28 H 0.1747(2) -0.3825(4) 0.3178(2)
C47 C 0.1608(2) -0.3334(2) 0.22309(11)
C48 C 0.1314(2) -0.3827(3) 0.19385(13)
H29 H 0.0977(2) -0.3691(3) 0.18262(13)
C49 C 0.1503(2) -0.4524(3) 0.18039(14)
H30 H 0.1294(2) -0.4865(3) 0.16100(14)
C50 C 0.2009(2) -0.4702(3) 0.1965(2)
H31 H 0.2148(2) -0.5160(3) 0.1878(2)
C51 C 0.2299(2) -0.4200(3) 0.2249(2)
H32 H 0.2639(2) -0.4320(3) 0.2353(2)
C52 C 0.2117(2) -0.3527(3) 0.23888(11)
H33 H 0.2328(2) -0.3201(3) 0.25872(11)
C53 C 0.1727(2) -0.1585(3) 0.20115(11)
C54 C 0.1571(2) -0.1874(2) 0.16417(12)
H34 H 0.1265(2) -0.2155(2) 0.15364(12)
C55 C 0.1865(3) -0.1748(3) 0.1430(2)
H35 H 0.1760(3) -0.1948(3) 0.1185(2)
C56 C 0.2311(3) -0.1325(5) 0.1585(2)
H36 H 0.2510(3) -0.1239(5) 0.1444(2)
C57 C 0.2470(2) -0.1026(4) 0.1947(2)
H37 H 0.2775(2) -0.0740(4) 0.2049(2)
C58 C 0.2174(2) -0.1151(3) 0.21611(12)
H38 H 0.2280(2) -0.0942(3) 0.24049(12)
C59 C 0.07502(13) 0.0085(2) 0.06583(9)
H39 H 0.05027(13) -0.0360(2) 0.05453(9)
H40 H 0.10455(13) -0.0052(2) 0.06032(9)
C60 C 0.1319(2) -0.0644(3) 0.45294(10)
H41 H 0.1599(2) -0.1021(3) 0.46586(10)
H42 H 0.1021(2) -0.0906(3) 0.45451(10)
C61 C -0.0017(2) 0.1268(3) 0.05778(12)
C62 C 0.0005(2) 0.1842(3) 0.08610(13)
H43 H 0.0299(2) 0.2138(3) 0.09917(13)
C63 C -0.0424(2) 0.1966(4) 0.0947(2)
H44 H -0.0409(2) 0.2344(4) 0.1139(2)
C64 C -0.0855(3) 0.1556(4) 0.07593(15)
H45 H -0.1137(3) 0.1655(4) 0.08188(15)
C65 C 0.0875(2) 0.0976(3) 0.45275(11)
C66 C -0.0453(2) 0.0840(3) 0.03845(11)
H46 H -0.0466(2) 0.0458(3) 0.01939(11)
C64F C 0.0855(3) 0.1556(4) 0.42407(15)
C63F C 0.0424(2) 0.1966(4) 0.4053(2)
C62F C -0.0005(2) 0.1842(3) 0.41390(13)
C61F C 0.0017(2) 0.1268(3) 0.44222(12)
S1F S -0.05092(5) 0.11114(8) 0.45469(3)
O1F O -0.03357(11) 0.0976(2) 0.49487(6)
O2F O -0.08710(12) 0.1783(2) 0.43732(8)
C59F C -0.07502(13) 0.0085(2) 0.43417(9)
C14F C -0.0885(2) 0.0070(2) 0.39190(10)
C13F C -0.05706(15) -0.0391(2) 0.37840(10)
C12F C -0.06742(14) -0.0445(2) 0.34046(10)
C11F C -0.11000(14) -0.0055(2) 0.31520(9)
C1F C -0.11807(13) -0.0178(3) 0.27426(9)
C2F C -0.11446(12) 0.0533(2) 0.25391(9)
C3F C -0.11635(12) 0.0401(2) 0.21622(9)
C4F C -0.11465(12) -0.0415(3) 0.20263(9)
C5F C -0.11732(12) -0.1150(3) 0.22386(9)
C6F C -0.10930(13) -0.2021(3) 0.21399(10)
C7F C -0.12017(14) -0.2727(2) 0.23288(9)
C8F C -0.13974(13) -0.2568(3) 0.26140(9)
C9F C -0.14198(12) -0.1748(2) 0.27385(9)
C10F C -0.12506(12) -0.1007(2) 0.25822(9)
C53F C -0.1727(2) -0.1585(3) 0.29885(11)
C54F C -0.1571(2) -0.1874(2) 0.33583(12)
H34F H -0.1265(2) -0.2155(2) 0.34636(12)
C55F C -0.1865(3) -0.1748(3) 0.3570(2)
H35F H -0.1760(3) -0.1948(3) 0.3815(2)
C56F C -0.2311(3) -0.1325(5) 0.3415(2)
H36F H -0.2510(3) -0.1239(5) 0.3556(2)
C57F C -0.2470(2) -0.1026(4) 0.3053(2)
H37F H -0.2775(2) -0.0740(4) 0.2951(2)
C58F C -0.2174(2) -0.1151(3) 0.28389(12)
H38F H -0.2280(2) -0.0942(3) 0.25951(12)
C47F C -0.1608(2) -0.3334(2) 0.27691(11)
C48F C -0.1314(2) -0.3827(3) 0.30615(13)
H29F H -0.0977(2) -0.3691(3) 0.31738(13)
C49F C -0.1503(2) -0.4524(3) 0.31961(14)
H30F H -0.1294(2) -0.4865(3) 0.33900(14)
C50F C -0.2009(2) -0.4702(3) 0.3035(2)
H31F H -0.2148(2) -0.5160(3) 0.3122(2)
C51F C -0.2299(2) -0.4200(3) 0.2751(2)
H32F H -0.2639(2) -0.4320(3) 0.2647(2)
C52F C -0.2117(2) -0.3527(3) 0.26112(11)
H33F H -0.2328(2) -0.3201(3) 0.24128(11)
C41F C -0.1110(2) -0.3652(3) 0.22583(12)
C42F C -0.0681(2) -0.4084(3) 0.2495(2)
H24F H -0.0437(2) -0.3783(3) 0.2684(2)
C43F C -0.0627(3) -0.4954(5) 0.2446(2)
H25F H -0.0347(3) -0.5241(5) 0.2608(2)
C44F C -0.0973(4) -0.5409(4) 0.2165(3)
H26F H -0.0922(4) -0.5992(4) 0.2129(3)
C45F C -0.1398(3) -0.4994(6) 0.1937(2)
H27F H -0.1644(3) -0.5304(6) 0.1752(2)
C46F C -0.1463(2) -0.4106(4) 0.1981(2)
H28F H -0.1747(2) -0.3825(4) 0.1822(2)
C35F C -0.0856(2) -0.2236(3) 0.18617(11)
C36F C -0.0339(2) -0.2148(3) 0.19690(13)
H19F H -0.0156(2) -0.1928(3) 0.22049(13)
C37F C -0.0094(3) -0.2380(4) 0.1734(2)
H20F H 0.0251(3) -0.2316(4) 0.1812(2)
C38F C -0.0356(4) -0.2701(4) 0.1389(2)
H21F H -0.0192(4) -0.2862(4) 0.1230(2)
C39F C -0.0875(3) -0.2791(4) 0.1272(2)
H22F H -0.1058(3) -0.2986(4) 0.1031(2)
C40F C -0.1119(2) -0.2584(3) 0.15180(13)
H23F H -0.1460(2) -0.2683(3) 0.14476(13)
C29F C -0.1180(2) -0.0496(2) 0.16290(11)
C30F C -0.07674(15) -0.0370(2) 0.15372(10)
H15F H -0.04617(15) -0.0252(2) 0.17256(10)
C31F C -0.07952(15) -0.0413(3) 0.11671(11)
H16F H -0.05116(15) -0.0337(3) 0.11078(11)
C32F C -0.1261(2) -0.0575(3) 0.08873(10)
C33F C -0.1677(2) -0.0695(3) 0.09788(11)
H17F H -0.1986(2) -0.0797(3) 0.07910(11)
C34F C -0.1640(2) -0.0666(3) 0.13465(11)
H18F H -0.1921(2) -0.0759(3) 0.14068(11)
C60F C -0.1319(2) -0.0644(3) 0.04706(10)
S2F S -0.14183(5) 0.03778(10) 0.02428(3)
O3F O -0.14532(11) 0.0213(2) -0.01387(7)
O4F O -0.18277(12) 0.0787(2) 0.03029(8)
C65F C -0.0875(2) 0.0976(3) 0.04725(11)
H41F H -0.1599(2) -0.1021(3) 0.03414(10)
H42F H -0.1021(2) -0.0906(3) 0.04549(10)
C23F C -0.1165(2) 0.1195(3) 0.19221(11)
C24F C -0.0746(2) 0.1716(3) 0.20018(12)
H10F H -0.0451(2) 0.1571(3) 0.21967(12)
C25F C -0.0768(3) 0.2450(4) 0.1790(2)
H11F H -0.0486(3) 0.2795(4) 0.1838(2)
C26F C -0.1210(3) 0.2669(4) 0.1508(2)
H12F H -0.1220(3) 0.3164(4) 0.1368(2)
C27F C -0.1635(3) 0.2188(4) 0.14273(14)
H13F H -0.1930(3) 0.2350(4) 0.12368(14)
C28F C -0.1609(2) 0.1434(3) 0.16437(13)
H14F H -0.1894(2) 0.1097(3) 0.15984(13)
C17F C -0.1084(2) 0.1434(2) 0.26954(10)
C18F C -0.06403(15) 0.1679(3) 0.29751(12)
H5F H -0.03848(15) 0.1276(3) 0.30722(12)
C19F C -0.0575(2) 0.2519(4) 0.31106(14)
H6F H -0.0276(2) 0.2676(4) 0.32979(14)
C20F C -0.0944(3) 0.3115(3) 0.29727(15)
H7F H -0.0897(3) 0.3679(3) 0.30647(15)
C21F C -0.1387(2) 0.2884(3) 0.26971(15)
H8F H -0.1640(2) 0.3293(3) 0.26039(15)
C22F C -0.14595(15) 0.2041(3) 0.25560(10)
H9F H -0.17597(15) 0.1888(3) 0.23686(10)
C16F C -0.14120(13) 0.0398(2) 0.32894(11)
C15F C -0.13088(15) 0.0452(2) 0.36692(11)
H3F H -0.15263(15) 0.0747(2) 0.37570(11)
H4F H -0.16951(13) 0.0669(2) 0.31236(11)
H1F H -0.04579(14) -0.0744(2) 0.33168(10)
H2F H -0.02892(15) -0.0666(2) 0.39505(10)
H39F H -0.05027(13) -0.0360(2) 0.44547(9)
H40F H -0.10455(13) -0.0052(2) 0.43968(9)
C66F C 0.0453(2) 0.0840(3) 0.46155(11)
H46F H 0.0466(2) 0.0458(3) 0.48061(11)
H43F H -0.0299(2) 0.2138(3) 0.40083(13)
H44F H 0.0409(2) 0.2344(4) 0.3861(2)
H45F H 0.1137(3) 0.1655(4) 0.41812(15)
loop_
_geom_bond_atom_site_label_1
_geom_bond_atom_site_label_2
_geom_bond_site_symmetry_1
_geom_bond_site_symmetry_2
S1 O1 1_555 1_555
S2 O3 1_555 1_555
O2 S1 1_555 1_555
O4 S2 1_555 1_555
C1 C2 1_555 1_555
C2 C3 1_555 1_555
C3 C4 1_555 1_555
C4 C5 1_555 1_555
C5 C6 1_555 1_555
C6 C7 1_555 1_555
C7 C8 1_555 1_555
C8 C9 1_555 1_555
C9 C10 1_555 1_555
C10 C1 1_555 1_555
C11 C1 1_555 1_555
C12 C11 1_555 1_555
H1 C12 1_555 1_555
C13 C12 1_555 1_555
H2 C13 1_555 1_555
C14 C13 1_555 1_555
C15 C14 1_555 1_555
H3 C15 1_555 1_555
C16 C11 1_555 1_555
H4 C16 1_555 1_555
C17 C2 1_555 1_555
C18 C17 1_555 1_555
H5 C18 1_555 1_555
C19 C18 1_555 1_555
H6 C19 1_555 1_555
C20 C19 1_555 1_555
H7 C20 1_555 1_555
C21 C20 1_555 1_555
H8 C21 1_555 1_555
C22 C17 1_555 1_555
H9 C22 1_555 1_555
C23 C3 1_555 1_555
C24 C23 1_555 1_555
H10 C24 1_555 1_555
C25 C24 1_555 1_555
H11 C25 1_555 1_555
C26 C25 1_555 1_555
H12 C26 1_555 1_555
C27 C26 1_555 1_555
H13 C27 1_555 1_555
C28 C23 1_555 1_555
H14 C28 1_555 1_555
C29 C4 1_555 1_555
C30 C29 1_555 1_555
H15 C30 1_555 1_555
C31 C30 1_555 1_555
H16 C31 1_555 1_555
C32 C31 1_555 1_555
C33 C32 1_555 1_555
H17 C33 1_555 1_555
C34 C29 1_555 1_555
H18 C34 1_555 1_555
C35 C6 1_555 1_555
C36 C35 1_555 1_555
H19 C36 1_555 1_555
C37 C36 1_555 1_555
H20 C37 1_555 1_555
C38 C37 1_555 1_555
H21 C38 1_555 1_555
C39 C38 1_555 1_555
H22 C39 1_555 1_555
C40 C35 1_555 1_555
H23 C40 1_555 1_555
C41 C7 1_555 1_555
C42 C41 1_555 1_555
H24 C42 1_555 1_555
C43 C42 1_555 1_555
H25 C43 1_555 1_555
C44 C43 1_555 1_555
H26 C44 1_555 1_555
C45 C44 1_555 1_555
H27 C45 1_555 1_555
C46 C41 1_555 1_555
H28 C46 1_555 1_555
C47 C8 1_555 1_555
C48 C47 1_555 1_555
H29 C48 1_555 1_555
C49 C48 1_555 1_555
H30 C49 1_555 1_555
C50 C49 1_555 1_555
H31 C50 1_555 1_555
C51 C50 1_555 1_555
H32 C51 1_555 1_555
C52 C47 1_555 1_555
H33 C52 1_555 1_555
C53 C9 1_555 1_555
C54 C53 1_555 1_555
H34 C54 1_555 1_555
C55 C54 1_555 1_555
H35 C55 1_555 1_555
C56 C55 1_555 1_555
H36 C56 1_555 1_555
C57 C56 1_555 1_555
H37 C57 1_555 1_555
C58 C53 1_555 1_555
H38 C58 1_555 1_555
C59 S1 1_555 1_555
H39 C59 1_555 1_555
H40 C59 1_555 1_555
C60 S2 1_555 1_555
H41 C60 1_555 1_555
H42 C60 1_555 1_555
C61 S1 1_555 1_555
C62 C61 1_555 1_555
H43 C62 1_555 1_555
C63 C62 1_555 1_555
H44 C63 1_555 1_555
C64 C63 1_555 1_555
H45 C64 1_555 1_555
C65 S2 1_555 1_555
C66 C61 1_555 1_555
H46 C66 1_555 1_555
C64F C65 1_555 1_555
C63F C64F 1_555 1_555
C62F C63F 1_555 1_555
C61F C62F 1_555 1_555
S1F C61F 1_555 1_555
O1F S1F 1_555 1_555
O2F S1F 1_555 1_555
C59F S1F 1_555 1_555
C14F C59F 1_555 1_555
C13F C14F 1_555 1_555
C12F C13F 1_555 1_555
C11F C12F 1_555 1_555
C1F C11F 1_555 1_555
C2F C1F 1_555 1_555
C3F C2F 1_555 1_555
C4F C3F 1_555 1_555
C5F C4F 1_555 1_555
C6F C5F 1_555 1_555
C7F C6F 1_555 1_555
C8F C7F 1_555 1_555
C9F C8F 1_555 1_555
C10F C1F 1_555 1_555
C53F C9F 1_555 1_555
C54F C53F 1_555 1_555
H34F C54F 1_555 1_555
C55F C54F 1_555 1_555
H35F C55F 1_555 1_555
C56F C55F 1_555 1_555
H36F C56F 1_555 1_555
C57F C56F 1_555 1_555
H37F C57F 1_555 1_555
C58F C53F 1_555 1_555
H38F C58F 1_555 1_555
C47F C8F 1_555 1_555
C48F C47F 1_555 1_555
H29F C48F 1_555 1_555
C49F C48F 1_555 1_555
H30F C49F 1_555 1_555
C50F C49F 1_555 1_555
H31F C50F 1_555 1_555
C51F C50F 1_555 1_555
H32F C51F 1_555 1_555
C52F C47F 1_555 1_555
H33F C52F 1_555 1_555
C41F C7F 1_555 1_555
C42F C41F 1_555 1_555
H24F C42F 1_555 1_555
C43F C42F 1_555 1_555
H25F C43F 1_555 1_555
C44F C43F 1_555 1_555
H26F C44F 1_555 1_555
C45F C44F 1_555 1_555
H27F C45F 1_555 1_555
C46F C41F 1_555 1_555
H28F C46F 1_555 1_555
C35F C6F 1_555 1_555
C36F C35F 1_555 1_555
H19F C36F 1_555 1_555
C37F C36F 1_555 1_555
H20F C37F 1_555 1_555
C38F C37F 1_555 1_555
H21F C38F 1_555 1_555
C39F C38F 1_555 1_555
H22F C39F 1_555 1_555
C40F C35F 1_555 1_555
H23F C40F 1_555 1_555
C29F C4F 1_555 1_555
C30F C29F 1_555 1_555
H15F C30F 1_555 1_555
C31F C30F 1_555 1_555
H16F C31F 1_555 1_555
C32F C31F 1_555 1_555
C33F C32F 1_555 1_555
H17F C33F 1_555 1_555
C34F C29F 1_555 1_555
H18F C34F 1_555 1_555
C60F C32F 1_555 1_555
S2F C60F 1_555 1_555
O3F S2F 1_555 1_555
O4F S2F 1_555 1_555
C65F C64 1_555 1_555
H41F C60F 1_555 1_555
H42F C60F 1_555 1_555
C23F C3F 1_555 1_555
C24F C23F 1_555 1_555
H10F C24F 1_555 1_555
C25F C24F 1_555 1_555
H11F C25F 1_555 1_555
C26F C25F 1_555 1_555
H12F C26F 1_555 1_555
C27F C26F 1_555 1_555
H13F C27F 1_555 1_555
C28F C23F 1_555 1_555
H14F C28F 1_555 1_555
C17F C2F 1_555 1_555
C18F C17F 1_555 1_555
H5F C18F 1_555 1_555
C19F C18F 1_555 1_555
H6F C19F 1_555 1_555
C20F C19F 1_555 1_555
H7F C20F 1_555 1_555
C21F C20F 1_555 1_555
H8F C21F 1_555 1_555
C22F C17F 1_555 1_555
H9F C22F 1_555 1_555
C16F C11F 1_555 1_555
C15F C14F 1_555 1_555
H3F C15F 1_555 1_555
H4F C16F 1_555 1_555
H1F C12F 1_555 1_555
H2F C13F 1_555 1_555
H39F C59F 1_555 1_555
H40F C59F 1_555 1_555
C66F C65 1_555 1_555
H46F C66F 1_555 1_555
H43F C62F 1_555 1_555
H44F C63F 1_555 1_555
H45F C64F 1_555 1_555
C5 C10 1_555 1_555
C14 C59 1_555 1_555
C15 C16 1_555 1_555
C21 C22 1_555 1_555
C27 C28 1_555 1_555
C32 C60 1_555 1_555
C33 C34 1_555 1_555
C39 C40 1_555 1_555
C45 C46 1_555 1_555
C51 C52 1_555 1_555
C57 C58 1_555 1_555
C66 C65F 1_555 1_555
C61F C66F 1_555 1_555
C5F C10F 1_555 1_555
C9F C10F 1_555 1_555
C57F C58F 1_555 1_555
C51F C52F 1_555 1_555
C45F C46F 1_555 1_555
C39F C40F 1_555 1_555
C33F C34F 1_555 1_555
S2F C65F 1_555 1_555
C27F C28F 1_555 1_555
C21F C22F 1_555 1_555
C16F C15F 1_555 1_555

#END
