
#######################################################################
#
#                 Cambridge Crystallographic Data Centre
#                                CCDC 
#
#######################################################################
#
# If this CIF has been generated from an entry in the Cambridge 
# Structural Database, then it will include bibliographic, chemical, 
# crystal, experimental, refinement or atomic coordinate data resulting 
# from the CCDC's data processing and validation procedures.
#
#######################################################################

data_QEZGUA
_chemical_formula_moiety         'C23 H28 Br2 Ca1 Cl2 N6 O9,H2 O1'
_chemical_name_systematic        
'dibromo-(11,32-dichloro-2,8,14,17,20,23,26,29-octaoxa-10,12,31,33,34,35-hexaazatetracyclo[28.3.1.1^3,7^.1^9,13^]hexatriaconta-1(34),3(36),4,6,9(35),10,12,30,32-nonaene)-methanol-calcium monohydrate'
_symmetry_cell_setting           monoclinic
_symmetry_space_group_name_H-M   'P 21/c'
_symmetry_Int_Tables_number      14
_space_group_name_Hall           '-P 2ybc'
loop_
_symmetry_equiv_pos_site_id
_symmetry_equiv_pos_as_xyz
1 x,y,z
2 -x,1/2+y,1/2-z
3 -x,-y,-z
4 x,1/2-y,1/2+z
_cell_length_a                   18.081(4)
_cell_length_b                   7.8133(15)
_cell_length_c                   23.448(5)
_cell_angle_alpha                90
_cell_angle_beta                 103.521(2)
_cell_angle_gamma                90
_cell_volume                     3220.74
_exptl_crystal_colour            colorless
_exptl_crystal_description       block
_cell_formula_units_Z            4
loop_
_atom_site_label
_atom_site_type_symbol
_atom_site_fract_x
_atom_site_fract_y
_atom_site_fract_z
Br1 Br 0.74540(2) 0.61935(3) 0.67532(2)
Br2 Br 0.53592(2) 1.17657(3) 0.64049(2)
Ca1 Ca 0.64007(3) 0.89612(6) 0.65280(2)
Cl1 Cl 0.71696(5) 0.08395(9) 0.38997(3)
Cl2 Cl 0.87769(5) 0.71436(11) 0.91154(3)
O1 O 0.90757(11) 0.3713(3) 0.53829(8)
O2 O 0.67735(11) 0.6345(3) 0.46845(8)
O3 O 0.59282(11) 0.8525(2) 0.54519(7)
O4 O 0.54018(10) 0.6865(2) 0.62718(8)
O5 O 0.59677(11) 0.7928(2) 0.73775(8)
O6 O 0.70493(10) 1.0329(2) 0.74514(7)
O7 O 0.85766(11) 1.1241(2) 0.75120(8)
O8 O 0.94864(11) 0.5934(2) 0.73076(7)
O9 O 0.73253(12) 1.0498(3) 0.61621(9)
H1 H 0.7180(12) 1.151(2) 0.6055(16)
N1 N 0.81760(13) 0.2420(3) 0.46987(9)
N2 N 0.69842(13) 0.3785(3) 0.43392(9)
N3 N 0.79495(12) 0.5165(3) 0.50670(9)
N4 N 0.86433(12) 0.9299(3) 0.82620(9)
N5 N 0.91652(13) 0.6571(3) 0.81392(9)
N6 N 0.90546(12) 0.8678(3) 0.73906(9)
C1 C 0.83689(15) 0.3799(4) 0.50401(10)
C2 C 0.74823(16) 0.2549(4) 0.43687(10)
C3 C 0.72569(15) 0.5071(3) 0.47053(10)
C4 C 0.70273(15) 0.7810(4) 0.50535(11)
H2 H 0.742951 0.842926 0.491433
H3 H 0.723823 0.743845 0.546286
C5 C 0.63485(16) 0.8964(3) 0.50235(10)
H4 H 0.652513 1.016328 0.508629
H5 H 0.600764 0.888546 0.462700
C6 C 0.54046(16) 0.7140(4) 0.52728(12)
H6 H 0.568483 0.605162 0.527183
H7 H 0.509210 0.734716 0.487209
C7 C 0.49089(16) 0.7042(4) 0.56993(12)
H8 H 0.459840 0.809356 0.567863
H9 H 0.456236 0.604637 0.560952
C8 C 0.50094(16) 0.6421(4) 0.67139(13)
H10 H 0.474031 0.531757 0.661787
H11 H 0.463097 0.731363 0.674263
C9 C 0.55934(17) 0.6284(4) 0.72791(13)
H12 H 0.534915 0.600541 0.760400
H13 H 0.596548 0.537357 0.725413
C10 C 0.65420(17) 0.8040(4) 0.79092(11)
H14 H 0.696859 0.725979 0.789447
H15 H 0.633114 0.771178 0.824713
C11 C 0.68144(16) 0.9858(4) 0.79719(11)
H16 H 0.639980 1.062156 0.802737
H17 H 0.724625 0.997033 0.831813
C12 C 0.72861(16) 1.2080(3) 0.74521(12)
H18 H 0.695147 1.279684 0.763316
H19 H 0.722858 1.246883 0.704216
C13 C 0.81032(16) 1.2329(4) 0.77838(12)
H20 H 0.825315 1.354280 0.776492
H21 H 0.816392 1.201046 0.820085
C14 C 0.87553(14) 0.9696(3) 0.77357(11)
C15 C 0.88740(15) 0.7737(4) 0.84255(11)
C16 C 0.92215(14) 0.7147(3) 0.76127(10)
C17 C 0.95525(14) 0.6223(3) 0.67311(11)
C18 C 0.99511(16) 0.7571(4) 0.65764(12)
H22 H 1.015876 0.843423 0.685302
C19 C 1.00430(19) 0.7643(4) 0.60059(13)
H23 H 1.031886 0.856458 0.589140
C20 C 0.97400(18) 0.6395(4) 0.56020(12)
H24 H 0.980546 0.644579 0.521201
C21 C 0.93410(15) 0.5076(4) 0.57778(11)
C22 C 0.92388(14) 0.4947(3) 0.63379(11)
H25 H 0.896429 0.402163 0.645149
C23 C 0.80862(19) 1.0286(4) 0.61154(13)
H26 H 0.812216 1.055225 0.571430
H27 H 0.824533 0.909981 0.620879
H28 H 0.841798 1.105937 0.639059
O10 O 0.66268(17) 1.3515(3) 0.57300(11)
H29 H 0.686267 1.430548 0.594797
H30 H 0.623384 1.335543 0.586310
loop_
_geom_bond_atom_site_label_1
_geom_bond_atom_site_label_2
_geom_bond_site_symmetry_1
_geom_bond_site_symmetry_2
Br1 Ca1 1_555 1_555
Br2 Ca1 1_555 1_555
Ca1 O3 1_555 1_555
Cl1 C2 1_555 1_555
Cl2 C15 1_555 1_555
O1 C1 1_555 1_555
O2 C3 1_555 1_555
O3 C5 1_555 1_555
O4 Ca1 1_555 1_555
O5 Ca1 1_555 1_555
O6 Ca1 1_555 1_555
O7 C13 1_555 1_555
O8 C16 1_555 1_555
O9 Ca1 1_555 1_555
H1 O9 1_555 1_555
N1 C1 1_555 1_555
N2 C2 1_555 1_555
N3 C1 1_555 1_555
N4 C14 1_555 1_555
N5 C15 1_555 1_555
N6 C14 1_555 1_555
C2 N1 1_555 1_555
C3 N2 1_555 1_555
C4 O2 1_555 1_555
H2 C4 1_555 1_555
H3 C4 1_555 1_555
C5 C4 1_555 1_555
H4 C5 1_555 1_555
H5 C5 1_555 1_555
C6 O3 1_555 1_555
H6 C6 1_555 1_555
H7 C6 1_555 1_555
C7 O4 1_555 1_555
H8 C7 1_555 1_555
H9 C7 1_555 1_555
C8 O4 1_555 1_555
H10 C8 1_555 1_555
H11 C8 1_555 1_555
C9 O5 1_555 1_555
H12 C9 1_555 1_555
H13 C9 1_555 1_555
C10 O5 1_555 1_555
H14 C10 1_555 1_555
H15 C10 1_555 1_555
C11 O6 1_555 1_555
H16 C11 1_555 1_555
H17 C11 1_555 1_555
C12 O6 1_555 1_555
H18 C12 1_555 1_555
H19 C12 1_555 1_555
C13 C12 1_555 1_555
H20 C13 1_555 1_555
H21 C13 1_555 1_555
C14 O7 1_555 1_555
C15 N4 1_555 1_555
C16 N5 1_555 1_555
C17 O8 1_555 1_555
C18 C17 1_555 1_555
H22 C18 1_555 1_555
C19 C18 1_555 1_555
H23 C19 1_555 1_555
C20 C19 1_555 1_555
H24 C20 1_555 1_555
C21 O1 1_555 1_555
C22 C17 1_555 1_555
H25 C22 1_555 1_555
C23 O9 1_555 1_555
H26 C23 1_555 1_555
H27 C23 1_555 1_555
H28 C23 1_555 1_555
O10 H29 1_555 1_555
H30 O10 1_555 1_555
N3 C3 1_555 1_555
N6 C16 1_555 1_555
C6 C7 1_555 1_555
C8 C9 1_555 1_555
C10 C11 1_555 1_555
C20 C21 1_555 1_555
C21 C22 1_555 1_555

#END
