
#######################################################################
#
#                 Cambridge Crystallographic Data Centre
#                                CCDC 
#
#######################################################################
#
# If this CIF has been generated from an entry in the Cambridge 
# Structural Database, then it will include bibliographic, chemical, 
# crystal, experimental, refinement or atomic coordinate data resulting 
# from the CCDC's data processing and validation procedures.
#
#######################################################################

data_QEZSAS
_chemical_formula_moiety         'C29 H18 F1 N1 O3'
_chemical_name_systematic        
N-[(6-fluoro-4-oxo-2-phenyl-4H-1-benzopyran-3-yl)(phenyl)methylidene]benzamide
_symmetry_cell_setting           monoclinic
_symmetry_space_group_name_H-M   'P 2/n'
_symmetry_Int_Tables_number      13
_space_group_name_Hall           '-P 2yac'
loop_
_symmetry_equiv_pos_site_id
_symmetry_equiv_pos_as_xyz
1 x,y,z
2 1/2-x,y,1/2-z
3 -x,-y,-z
4 1/2+x,-y,1/2+z
_cell_length_a                   7.5691(10)
_cell_length_b                   11.0082(13)
_cell_length_c                   26.381(3)
_cell_angle_alpha                90
_cell_angle_beta                 93.532(3)
_cell_angle_gamma                90
_cell_volume                     2193.95
_exptl_crystal_colour            colorless
_exptl_crystal_description       prismatic
_cell_formula_units_Z            4
loop_
_atom_site_label
_atom_site_type_symbol
_atom_site_fract_x
_atom_site_fract_y
_atom_site_fract_z
F1 F 1.0558(2) 0.68881(14) 0.26339(6)
N1 N 0.4552(2) 0.27184(15) 0.06393(6)
O1 O 0.7148(2) 0.53058(13) 0.10559(6)
O2 O 0.86447(18) 0.24105(12) 0.19277(5)
O3 O 0.3065(2) 0.33911(15) 0.13107(6)
C1 C 0.9121(3) 0.3561(2) 0.20855(7)
C2 C 1.0055(3) 0.3650(2) 0.25532(8)
H1 H 1.0348 0.2958 0.2742
C3 C 1.0538(3) 0.4780(3) 0.27306(8)
H2 H 1.1169 0.4866 0.3042
C4 C 1.0080(3) 0.5782(2) 0.24437(9)
C5 C 0.9170(3) 0.5715(2) 0.19866(8)
H3 H 0.8883 0.6415 0.1802
C6 C 0.8674(3) 0.45705(19) 0.17988(7)
C7 C 0.7640(3) 0.44363(18) 0.13142(7)
C8 C 0.7219(3) 0.31877(17) 0.11698(7)
C9 C 0.7750(3) 0.22473(18) 0.14682(7)
C10 C 0.7486(3) 0.09424(18) 0.13616(8)
C11 C 0.7799(3) 0.0464(2) 0.08931(9)
H4 H 0.8165 0.0970 0.0637
C12 C 0.7573(4) -0.0763(2) 0.08012(11)
H5 H 0.7796 -0.1081 0.0485
C13 C 0.7027(4) -0.1504(2) 0.11703(14)
H6 H 0.6871 -0.2329 0.1106
C14 C 0.6705(4) -0.1042(2) 0.16374(13)
H7 H 0.6323 -0.1553 0.1889
C15 C 0.6943(3) 0.0177(2) 0.17362(10)
H8 H 0.6738 0.0485 0.2056
C16 C 0.6165(3) 0.30336(16) 0.06718(7)
C17 C 0.7069(3) 0.33280(16) 0.02082(7)
C18 C 0.8893(3) 0.32938(19) 0.02024(8)
H9 H 0.9567 0.3068 0.0494
C19 C 0.9722(3) 0.3592(2) -0.02316(10)
H10 H 1.0948 0.3550 -0.0236
C20 C 0.8725(4) 0.3950(2) -0.06572(9)
H11 H 0.9282 0.4164 -0.0949
C21 C 0.6915(4) 0.3996(2) -0.06562(8)
H12 H 0.6249 0.4241 -0.0946
C22 C 0.6085(3) 0.36805(17) -0.02282(7)
H13 H 0.4857 0.3703 -0.0230
C23 C 0.3533(3) 0.2543(2) 0.10560(8)
C24 C 0.2926(3) 0.12860(19) 0.11444(8)
C25 C 0.3067(3) 0.0384(2) 0.07863(9)
H14 H 0.3526 0.0562 0.0476
C26 C 0.2529(4) -0.0775(2) 0.08884(12)
H15 H 0.2597 -0.1377 0.0643
C27 C 0.1894(4) -0.1049(3) 0.13493(13)
H16 H 0.1556 -0.1841 0.1419
C28 C 0.1756(3) -0.0166(3) 0.17056(11)
H17 H 0.1319 -0.0354 0.2018
C29 C 0.2263(3) 0.1008(2) 0.16036(9)
H18 H 0.2156 0.1612 0.1846
loop_
_geom_bond_atom_site_label_1
_geom_bond_atom_site_label_2
_geom_bond_site_symmetry_1
_geom_bond_site_symmetry_2
F1 C4 1_555 1_555
N1 C16 1_555 1_555
O1 C7 1_555 1_555
O2 C1 1_555 1_555
O3 C23 1_555 1_555
C1 C2 1_555 1_555
C2 H1 1_555 1_555
C3 C2 1_555 1_555
H2 C3 1_555 1_555
C4 C3 1_555 1_555
C5 C4 1_555 1_555
H3 C5 1_555 1_555
C6 C1 1_555 1_555
C7 C6 1_555 1_555
C8 C7 1_555 1_555
C9 O2 1_555 1_555
C10 C9 1_555 1_555
C11 C10 1_555 1_555
H4 C11 1_555 1_555
C12 C11 1_555 1_555
H5 C12 1_555 1_555
C13 C12 1_555 1_555
H6 C13 1_555 1_555
C14 C13 1_555 1_555
H7 C14 1_555 1_555
C15 C10 1_555 1_555
H8 C15 1_555 1_555
C16 C8 1_555 1_555
C17 C16 1_555 1_555
C18 C17 1_555 1_555
H9 C18 1_555 1_555
C19 C18 1_555 1_555
H10 C19 1_555 1_555
C20 C19 1_555 1_555
H11 C20 1_555 1_555
C21 C20 1_555 1_555
H12 C21 1_555 1_555
C22 C17 1_555 1_555
H13 C22 1_555 1_555
C23 N1 1_555 1_555
C24 C23 1_555 1_555
C25 C24 1_555 1_555
H14 C25 1_555 1_555
C26 C25 1_555 1_555
H15 C26 1_555 1_555
C27 C26 1_555 1_555
H16 C27 1_555 1_555
C28 C27 1_555 1_555
H17 C28 1_555 1_555
C29 C24 1_555 1_555
H18 C29 1_555 1_555
C5 C6 1_555 1_555
C8 C9 1_555 1_555
C14 C15 1_555 1_555
C21 C22 1_555 1_555
C28 C29 1_555 1_555

#END
