
#######################################################################
#
#                 Cambridge Crystallographic Data Centre
#                                CCDC 
#
#######################################################################
#
# If this CIF has been generated from an entry in the Cambridge 
# Structural Database, then it will include bibliographic, chemical, 
# crystal, experimental, refinement or atomic coordinate data resulting 
# from the CCDC's data processing and validation procedures.
#
#######################################################################

data_QIBCOU
_chemical_formula_moiety         'C15 H19 N3 O2 S1'
_chemical_name_systematic        
N-((4-oxo-3-propyl-2-thioxoimidazolidin-1-yl)(phenyl)methyl)acetamide
_symmetry_cell_setting           monoclinic
_symmetry_space_group_name_H-M   'P 21'
_symmetry_Int_Tables_number      4
_space_group_name_Hall           'P 2yb'
loop_
_symmetry_equiv_pos_site_id
_symmetry_equiv_pos_as_xyz
1 x,y,z
2 -x,1/2+y,-z
_cell_length_a                   8.9503(18)
_cell_length_b                   9.6053(19)
_cell_length_c                   9.5069(19)
_cell_angle_alpha                90
_cell_angle_beta                 107.63(3)
_cell_angle_gamma                90
_cell_volume                     778.924
_exptl_crystal_colour            colorless
_exptl_crystal_description       block
_chemical_melting_point          '156-158 deg.C'
_cell_formula_units_Z            2
_exptl_crystal_recrystallization_method 'ethyl acetate/petroleum ether'
loop_
_atom_site_label
_atom_site_type_symbol
_atom_site_fract_x
_atom_site_fract_y
_atom_site_fract_z
C1 C 1.2491(3) 0.2776(3) 0.3729(3)
C2 C 1.3472(3) 0.3049(3) 0.2872(4)
H1 H 1.3155 0.3664 0.2081
C3 C 1.4920(4) 0.2402(4) 0.3199(4)
H2 H 1.5565 0.2576 0.2614
C4 C 1.5414(4) 0.1511(4) 0.4374(4)
H3 H 1.6390 0.1084 0.4585
C5 C 1.4479(4) 0.1255(4) 0.5226(4)
H4 H 1.4820 0.0660 0.6031
C6 C 1.3014(4) 0.1873(3) 0.4908(3)
H5 H 1.2376 0.1679 0.5494
C7 C 1.0911(3) 0.3515(3) 0.3388(3)
H6 H 1.1108 0.4520 0.3447
C8 C 0.9936(3) 0.4055(3) 0.5474(3)
C9 C 0.9004(4) 0.3527(3) 0.6440(4)
H7 H 0.8631 0.2605 0.6134
H8 H 0.8128 0.4133 0.6354
H9 H 0.9659 0.3505 0.7448
C10 C 0.8714(3) 0.4014(3) 0.1159(3)
C11 C 0.9823(3) 0.1821(3) 0.1219(3)
H10 H 0.9668 0.1104 0.1879
H11 H 1.0760 0.1611 0.0948
C12 C 0.8417(4) 0.1957(3) -0.0119(3)
C13 C 0.6392(3) 0.3792(4) -0.1129(3)
H12 H 0.6235 0.3340 -0.2075
H13 H 0.6478 0.4786 -0.1268
C14 C 0.4992(4) 0.3508(4) -0.0587(4)
H14 H 0.4869 0.2510 -0.0513
H15 H 0.5191 0.3900 0.0393
C15 C 0.3492(4) 0.4109(5) -0.1584(4)
H16 H 0.2648 0.3906 -0.1189
H17 H 0.3271 0.3706 -0.2549
H18 H 0.3600 0.5099 -0.1650
N1 N 0.9919(3) 0.3197(2) 0.1888(2)
N2 N 0.7842(3) 0.3283(3) -0.0082(2)
N3 N 1.0076(3) 0.3168(3) 0.4436(3)
O1 O 0.7857(3) 0.1093(2) -0.1055(3)
O2 O 1.0542(2) 0.52229(18) 0.5643(2)
S1 S 0.82679(9) 0.55808(8) 0.16248(9)
H19 H 0.976(3) 0.2277(14) 0.438(3)
loop_
_geom_bond_atom_site_label_1
_geom_bond_atom_site_label_2
_geom_bond_site_symmetry_1
_geom_bond_site_symmetry_2
C1 C2 1_555 1_555
C2 H1 1_555 1_555
C3 C2 1_555 1_555
H2 C3 1_555 1_555
C4 C3 1_555 1_555
H3 C4 1_555 1_555
C5 C4 1_555 1_555
H4 C5 1_555 1_555
C6 C1 1_555 1_555
H5 C6 1_555 1_555
C7 C1 1_555 1_555
H6 C7 1_555 1_555
C8 C9 1_555 1_555
C9 H7 1_555 1_555
H8 C9 1_555 1_555
H9 C9 1_555 1_555
C10 N1 1_555 1_555
C11 H10 1_555 1_555
H11 C11 1_555 1_555
C12 C11 1_555 1_555
C13 H12 1_555 1_555
H13 C13 1_555 1_555
C14 C13 1_555 1_555
H14 C14 1_555 1_555
H15 C14 1_555 1_555
C15 C14 1_555 1_555
H16 C15 1_555 1_555
H17 C15 1_555 1_555
H18 C15 1_555 1_555
N1 C7 1_555 1_555
N2 C10 1_555 1_555
N3 C7 1_555 1_555
O1 C12 1_555 1_555
O2 C8 1_555 1_555
S1 C10 1_555 1_555
H19 N3 1_555 1_555
C5 C6 1_555 1_555
C8 N3 1_555 1_555
C11 N1 1_555 1_555
C12 N2 1_555 1_555
C13 N2 1_555 1_555

#END
