
#######################################################################
#
#                 Cambridge Crystallographic Data Centre
#                                CCDC 
#
#######################################################################
#
# If this CIF has been generated from an entry in the Cambridge 
# Structural Database, then it will include bibliographic, chemical, 
# crystal, experimental, refinement or atomic coordinate data resulting 
# from the CCDC's data processing and validation procedures.
#
#######################################################################

data_QIBCUA
_chemical_formula_moiety         'C20 H26 N4 O2 S2,0.5(C2 H6 O1)'
_chemical_name_systematic        
"1,1'-((4-methylphenyl)methanediyl)-bis(3-propyl-2-thioxoimidazolidin-4-one) ethanol solvate"
_symmetry_cell_setting           monoclinic
_symmetry_space_group_name_H-M   'P 21/n'
_symmetry_Int_Tables_number      14
_space_group_name_Hall           '-P 2yn'
loop_
_symmetry_equiv_pos_site_id
_symmetry_equiv_pos_as_xyz
1 x,y,z
2 1/2-x,1/2+y,1/2-z
3 -x,-y,-z
4 1/2+x,1/2-y,1/2+z
_cell_length_a                   18.826(3)
_cell_length_b                   6.0514(9)
_cell_length_c                   20.852(3)
_cell_angle_alpha                90.00
_cell_angle_beta                 90.00
_cell_angle_gamma                90.00
_cell_volume                     2375.54
_exptl_crystal_colour            colorless
_exptl_crystal_description       block
_chemical_melting_point          '182-184 deg.C'
_cell_formula_units_Z            4
_exptl_crystal_recrystallization_method 'ethyl acetate/ethanol'
loop_
_atom_site_label
_atom_site_type_symbol
_atom_site_fract_x
_atom_site_fract_y
_atom_site_fract_z
C1 C 0.4166(2) 0.7470(7) 0.98120(17)
H1 H 0.4426 0.6105 0.9815
H2 H 0.4331 0.8380 0.9465
H3 H 0.3669 0.7168 0.9757
C2 C 0.42802(16) 0.8663(6) 1.04408(16)
C3 C 0.39706(16) 1.0702(6) 1.05622(15)
H4 H 0.3693 1.1355 1.0245
C4 C 0.40607(15) 1.1785(5) 1.11347(14)
H5 H 0.3845 1.3149 1.1201
C5 C 0.44739(14) 1.0843(5) 1.16159(14)
C6 C 0.47982(18) 0.8829(5) 1.14929(16)
H6 H 0.5091 0.8199 1.1802
C7 C 0.46916(19) 0.7755(6) 1.09201(17)
H7 H 0.4902 0.6383 1.0854
C8 C 0.45311(14) 1.1979(5) 1.22579(13)
H8 H 0.4552 1.3576 1.2182
C9 C 0.57875(15) 1.2382(5) 1.25616(15)
C10 C 0.51753(17) 0.9701(5) 1.31304(17)
H9 H 0.4810 0.8789 1.3273
C11 C 0.59265(19) 0.9846(6) 1.33684(19)
C12 C 0.70042(18) 1.2014(7) 1.3071(2)
H10 H 0.7192 1.2540 1.2666
H11 H 0.7273 1.0718 1.3197
C13 C 0.7086(3) 1.3779(9) 1.3571(3)
H12 H 0.6851 1.3327 1.3963
H13 H 0.6866 1.5137 1.3423
C14 C 0.7888(3) 1.4175(12) 1.3701(3)
H14 H 0.7942 1.5341 1.4009
H15 H 0.8120 1.4583 1.3308
H16 H 0.8098 1.2845 1.3865
C15 C 0.33795(15) 0.9816(5) 1.25039(15)
H17 H 0.3389 0.8747 1.2184
C16 C 0.36871(14) 1.2830(5) 1.31309(13)
C17 C 0.28230(15) 1.0219(5) 1.30031(14)
C18 C 0.26482(18) 1.2920(6) 1.38996(15)
H18 H 0.2154 1.2490 1.3860
H19 H 0.2671 1.4519 1.3876
C19 C 0.2924(2) 1.2177(8) 1.45500(18)
H20 H 0.3428 1.2493 1.4577
H21 H 0.2686 1.3013 1.4884
C20 C 0.2807(3) 0.9785(10) 1.4662(3)
H22 H 0.2986 0.9390 1.5078
H23 H 0.3053 0.8949 1.4339
H24 H 0.2308 0.9467 1.4641
N1 N 0.30489(12) 1.1983(4) 1.33634(11)
N2 N 0.39006(11) 1.1517(4) 1.26459(11)
N3 N 0.62545(14) 1.1418(5) 1.29921(14)
N4 N 0.51612(12) 1.1347(4) 1.26201(12)
O1 O 0.22705(12) 0.9234(5) 1.30739(12)
O2 O 0.61909(15) 0.8802(5) 1.37924(15)
S1 S 0.40984(5) 1.50128(14) 1.34162(4)
S2 S 0.59892(4) 1.43781(17) 1.20535(5)
C21? C 0.4738(6) 0.5682(18) 0.5168(6)
C22? C 0.4971(7) 0.798(2) 0.5275(8)
O3? O 0.4665(9) 0.913(2) 0.4686(9)
H25? H 0.445(4) 1.039(6) 0.481(2)
loop_
_geom_bond_atom_site_label_1
_geom_bond_atom_site_label_2
_geom_bond_site_symmetry_1
_geom_bond_site_symmetry_2
C1 H1 1_555 1_555
H2 C1 1_555 1_555
H3 C1 1_555 1_555
C2 C1 1_555 1_555
C3 C2 1_555 1_555
H4 C3 1_555 1_555
C4 C3 1_555 1_555
H5 C4 1_555 1_555
C5 C4 1_555 1_555
C6 C5 1_555 1_555
H6 C6 1_555 1_555
C7 C2 1_555 1_555
H7 C7 1_555 1_555
C8 C5 1_555 1_555
H8 C8 1_555 1_555
C9 N3 1_555 1_555
C10 H9 1_555 1_555
C11 C10 1_555 1_555
C12 H10 1_555 1_555
H11 C12 1_555 1_555
C13 C12 1_555 1_555
H12 C13 1_555 1_555
H13 C13 1_555 1_555
C14 C13 1_555 1_555
H14 C14 1_555 1_555
H15 C14 1_555 1_555
H16 C14 1_555 1_555
C15 H17 1_555 1_555
C16 N1 1_555 1_555
C17 C15 1_555 1_555
C18 H18 1_555 1_555
H19 C18 1_555 1_555
C19 C18 1_555 1_555
H20 C19 1_555 1_555
H21 C19 1_555 1_555
C20 C19 1_555 1_555
H22 C20 1_555 1_555
H23 C20 1_555 1_555
H24 C20 1_555 1_555
N1 C17 1_555 1_555
N2 C8 1_555 1_555
N3 C11 1_555 1_555
N4 C8 1_555 1_555
O1 C17 1_555 1_555
O2 C11 1_555 1_555
S1 C16 1_555 1_555
S2 C9 1_555 1_555
C6 C7 1_555 1_555
C9 N4 1_555 1_555
C10 N4 1_555 1_555
C12 N3 1_555 1_555
C15 N2 1_555 1_555
C16 N2 1_555 1_555
C18 N1 1_555 1_555

#END
