
#######################################################################
#
#                 Cambridge Crystallographic Data Centre
#                                CCDC 
#
#######################################################################
#
# If this CIF has been generated from an entry in the Cambridge 
# Structural Database, then it will include bibliographic, chemical, 
# crystal, experimental, refinement or atomic coordinate data resulting 
# from the CCDC's data processing and validation procedures.
#
#######################################################################

data_QIBQUN
_chemical_formula_moiety         'C15 H16 O2 S1'
_chemical_name_systematic        '2,5-Dimethylphenyl p-tolyl sulfone'
_symmetry_cell_setting           monoclinic
_symmetry_space_group_name_H-M   'P 21/n'
_symmetry_Int_Tables_number      14
_space_group_name_Hall           '-P 2yn'
loop_
_symmetry_equiv_pos_site_id
_symmetry_equiv_pos_as_xyz
1 x,y,z
2 1/2+x,1/2-y,1/2+z
3 -x,-y,-z
4 1/2-x,1/2+y,1/2-z
_cell_length_a                   8.3374(6)
_cell_length_b                   14.9785(8)
_cell_length_c                   10.9064(6)
_cell_angle_alpha                90
_cell_angle_beta                 98.241(3)
_cell_angle_gamma                90
_cell_volume                     1347.95
_exptl_crystal_colour            colorless
_exptl_crystal_description       plate
_chemical_melting_point          '383-385 K'
_cell_formula_units_Z            4
_exptl_crystal_recrystallization_method ethanol
loop_
_atom_site_label
_atom_site_type_symbol
_atom_site_fract_x
_atom_site_fract_y
_atom_site_fract_z
S1 S 0.46216(6) 0.31838(3) 0.09163(4)
O1 O 0.49354(17) 0.22681(8) 0.12618(13)
O2 O 0.53037(16) 0.35246(9) -0.01306(12)
C1 C 0.5347(2) 0.38672(12) 0.21938(16)
C2 C 0.5118(2) 0.47859(12) 0.21014(17)
H1 H 0.4504 0.5031 0.1403
C3 C 0.5803(2) 0.53284(13) 0.30477(18)
H2 H 0.5637 0.5942 0.2985
C4 C 0.6744(2) 0.49798(13) 0.41049(17)
C5 C 0.7522(3) 0.55939(15) 0.51092(19)
H3 H 0.6762 0.5728 0.5666
H4 H 0.7844 0.6137 0.4745
H5 H 0.8458 0.5309 0.5558
C6 C 0.6946(3) 0.40644(14) 0.41791(18)
H6 H 0.7566 0.3820 0.4875
C7 C 0.6248(3) 0.35026(13) 0.32433(18)
H7 H 0.6381 0.2888 0.3317
C8 C 0.2503(2) 0.33652(11) 0.05977(16)
C9 C 0.1421(2) 0.30131(12) 0.13526(17)
C10 C 0.19468(18) 0.24921(13) 0.25158(15)
H8 H 0.1090 0.2488 0.3017
H9 H 0.2893 0.2764 0.2969
H10 H 0.2194 0.1890 0.2306
C11 C -0.02068(18) 0.31750(12) 0.09638(14)
H11 H -0.0964 0.2948 0.1430
C12 C -0.0749(2) 0.36618(13) -0.00909(18)
H12 H -0.1856 0.3750 -0.0317
C13 C 0.0323(2) 0.40230(12) -0.08212(17)
C14 C -0.0249(3) 0.45567(14) -0.19734(18)
H13 H 0.0547 0.5001 -0.2087
H14 H -0.1257 0.4844 -0.1889
H15 H -0.0401 0.4166 -0.2678
C15 C 0.1956(2) 0.38638(12) -0.04544(16)
H16 H 0.2706 0.4096 -0.0923
loop_
_geom_bond_atom_site_label_1
_geom_bond_atom_site_label_2
_geom_bond_site_symmetry_1
_geom_bond_site_symmetry_2
S1 O1 1_555 1_555
O2 S1 1_555 1_555
C1 S1 1_555 1_555
C2 C1 1_555 1_555
H1 C2 1_555 1_555
C3 C2 1_555 1_555
H2 C3 1_555 1_555
C4 C3 1_555 1_555
C5 C4 1_555 1_555
H3 C5 1_555 1_555
H4 C5 1_555 1_555
H5 C5 1_555 1_555
C6 C4 1_555 1_555
H6 C6 1_555 1_555
C7 C1 1_555 1_555
H7 C7 1_555 1_555
C8 S1 1_555 1_555
C9 C8 1_555 1_555
C10 C9 1_555 1_555
H8 C10 1_555 1_555
H9 C10 1_555 1_555
H10 C10 1_555 1_555
C11 C9 1_555 1_555
H11 C11 1_555 1_555
C12 C11 1_555 1_555
H12 C12 1_555 1_555
C13 C12 1_555 1_555
C14 C13 1_555 1_555
H13 C14 1_555 1_555
H14 C14 1_555 1_555
H15 C14 1_555 1_555
C15 C8 1_555 1_555
H16 C15 1_555 1_555
C6 C7 1_555 1_555
C13 C15 1_555 1_555

#END
