
#######################################################################
#
#                 Cambridge Crystallographic Data Centre
#                                CCDC 
#
#######################################################################
#
# If this CIF has been generated from an entry in the Cambridge 
# Structural Database, then it will include bibliographic, chemical, 
# crystal, experimental, refinement or atomic coordinate data resulting 
# from the CCDC's data processing and validation procedures.
#
#######################################################################

data_QICFIT
_chemical_formula_moiety         'C22 H20 Br1 N1 O8'
_chemical_name_systematic        
"Dimethyl 1'-(4-bromophenyl)-4-methoxy-5,7'-dioxo-1',2',3',3a',7',7a'-hexahydro-5H-spiro[furan-2,4'-isoindole]-3,3'-dicarboxylate"
_symmetry_cell_setting           monoclinic
_symmetry_space_group_name_H-M   'P 21'
_symmetry_Int_Tables_number      4
_space_group_name_Hall           'P 2yb'
loop_
_symmetry_equiv_pos_site_id
_symmetry_equiv_pos_as_xyz
1 x,y,z
2 -x,1/2+y,-z
_cell_length_a                   9.065(4)
_cell_length_b                   9.097(3)
_cell_length_c                   13.423(5)
_cell_angle_alpha                90
_cell_angle_beta                 90.573(15)
_cell_angle_gamma                90
_cell_volume                     1106.86
_cell_formula_units_Z            2
loop_
_atom_site_label
_atom_site_type_symbol
_atom_site_fract_x
_atom_site_fract_y
_atom_site_fract_z
Br1 Br 1.55397(5) 0.88934(9) 0.56220(4)
C1 C 1.3618(5) 0.8384(6) 0.5172(4)
C2 C 1.3037(5) 0.9041(7) 0.4346(4)
H1 H 1.3572 0.9739 0.3996
C3 C 1.1624(5) 0.8642(6) 0.4040(3)
H2 H 1.1215 0.9069 0.3471
C4 C 1.0815(5) 0.7618(5) 0.4568(3)
C5 C 1.1436(6) 0.6986(5) 0.5406(4)
H3 H 1.0892 0.6311 0.5771
C6 C 1.2843(6) 0.7337(6) 0.5710(4)
H4 H 1.3269 0.6884 0.6263
C7 C 0.9283(5) 0.7141(5) 0.4278(3)
H5 H 0.8737 0.6943 0.4890
C8 C 0.9194(5) 0.5721(5) 0.3597(3)
H6 H 0.8696 0.4952 0.3978
C9 C 0.8169(5) 0.6162(5) 0.2731(3)
H7 H 0.7485 0.5348 0.2599
C10 C 0.7309(5) 0.7417(5) 0.3224(3)
H8 H 0.6709 0.6979 0.3750
C11 C 0.8983(5) 0.6550(5) 0.1734(3)
C12 C 1.0639(6) 0.6458(6) 0.1748(4)
H9 H 1.1150 0.6896 0.1229
C13 C 1.1409(5) 0.5789(6) 0.2455(4)
H10 H 1.2429 0.5727 0.2398
C14 C 1.0702(5) 0.5147(5) 0.3324(4)
C15 C 0.8085(7) 0.8091(7) 0.0512(4)
C16 C 0.7884(7) 0.6557(7) 0.0172(4)
C17 C 0.8411(6) 0.5647(6) 0.0864(3)
C18 C 0.6300(6) 0.8349(6) 0.2593(4)
C19 C 0.4421(8) 0.8172(10) 0.1375(6)
H11 H 0.3654 0.8550 0.1792
H12 H 0.4010 0.7469 0.0917
H13 H 0.4858 0.8966 0.1010
C20 C 0.8435(6) 0.4035(7) 0.0827(3)
C21 C 0.8987(10) 0.1857(7) 0.1713(6)
H14 H 0.7991 0.1499 0.1728
H15 H 0.9500 0.1557 0.2308
H16 H 0.9478 0.1463 0.1141
C22 C 0.6671(15) 0.7200(11) -0.1347(7)
H17 H 0.5800 0.7598 -0.1048
H18 H 0.6412 0.6732 -0.1966
H19 H 0.7361 0.7978 -0.1469
N1 N 0.8481(4) 0.8258(4) 0.3714(3)
H20 H 0.9069 0.8690 0.3261
O1 O 1.1310(4) 0.4225(4) 0.3827(3)
O2 O 0.8664(4) 0.8051(4) 0.1437(3)
O3 O 0.7796(7) 0.9218(5) 0.0112(4)
O4 O 0.6140(5) 0.9644(5) 0.2666(4)
O5 O 0.5537(4) 0.7468(5) 0.1988(3)
O6 O 0.7319(7) 0.6157(5) -0.0696(3)
O7 O 0.8037(8) 0.3337(5) 0.0139(4)
O8 O 0.8973(6) 0.3447(4) 0.1654(3)
loop_
_geom_bond_atom_site_label_1
_geom_bond_atom_site_label_2
_geom_bond_site_symmetry_1
_geom_bond_site_symmetry_2
Br1 C1 1_555 1_555
C1 C2 1_555 1_555
C2 H1 1_555 1_555
C3 C2 1_555 1_555
H2 C3 1_555 1_555
C4 C3 1_555 1_555
C5 C4 1_555 1_555
H3 C5 1_555 1_555
C6 C1 1_555 1_555
H4 C6 1_555 1_555
C7 C4 1_555 1_555
H5 C7 1_555 1_555
C8 C7 1_555 1_555
H6 C8 1_555 1_555
C9 C8 1_555 1_555
H7 C9 1_555 1_555
C10 C9 1_555 1_555
H8 C10 1_555 1_555
C11 C9 1_555 1_555
C12 C11 1_555 1_555
H9 C12 1_555 1_555
C13 C12 1_555 1_555
H10 C13 1_555 1_555
C14 C8 1_555 1_555
C15 C16 1_555 1_555
C16 C17 1_555 1_555
C17 C11 1_555 1_555
C18 C10 1_555 1_555
C19 H11 1_555 1_555
H12 C19 1_555 1_555
H13 C19 1_555 1_555
C20 C17 1_555 1_555
C21 H14 1_555 1_555
H15 C21 1_555 1_555
H16 C21 1_555 1_555
C22 H17 1_555 1_555
H18 C22 1_555 1_555
H19 C22 1_555 1_555
N1 C7 1_555 1_555
H20 N1 1_555 1_555
O1 C14 1_555 1_555
O2 C11 1_555 1_555
O3 C15 1_555 1_555
O4 C18 1_555 1_555
O5 C18 1_555 1_555
O6 C16 1_555 1_555
O7 C20 1_555 1_555
O8 C20 1_555 1_555
C5 C6 1_555 1_555
C10 N1 1_555 1_555
C13 C14 1_555 1_555
C15 O2 1_555 1_555
C19 O5 1_555 1_555
C21 O8 1_555 1_555
C22 O6 1_555 1_555

#END
