
#######################################################################
#
#                 Cambridge Crystallographic Data Centre
#                                CCDC 
#
#######################################################################
#
# If this CIF has been generated from an entry in the Cambridge 
# Structural Database, then it will include bibliographic, chemical, 
# crystal, experimental, refinement or atomic coordinate data resulting 
# from the CCDC's data processing and validation procedures.
#
#######################################################################

data_QIDFUH
_chemical_formula_moiety         'C26 H24 F2 N4 S1'
_chemical_name_systematic        
4,4'-[(5,6-difluoro-2,1,3-benzothiadiazole-4,7-diyl)bis(ethene-2,1-diyl)]bis(N,N-dimethylaniline)
_symmetry_cell_setting           monoclinic
_symmetry_space_group_name_H-M   'P 21/c'
_symmetry_Int_Tables_number      14
_space_group_name_Hall           '-P 2ybc'
loop_
_symmetry_equiv_pos_site_id
_symmetry_equiv_pos_as_xyz
1 x,y,z
2 -x,1/2+y,1/2-z
3 -x,-y,-z
4 x,1/2-y,1/2+z
_cell_length_a                   11.0156(3)
_cell_length_b                   25.0418(7)
_cell_length_c                   8.1307(2)
_cell_angle_alpha                90
_cell_angle_beta                 102.057(2)
_cell_angle_gamma                90
_cell_volume                     2193.38
_cell_formula_units_Z            4
loop_
_atom_site_label
_atom_site_type_symbol
_atom_site_fract_x
_atom_site_fract_y
_atom_site_fract_z
C1 C -0.2000(4) 0.56114(19) -0.8652(6)
H1 H -0.1190 0.5461 -0.8587
H2 H -0.2401 0.5658 -0.9811
H3 H -0.2487 0.5376 -0.8117
C2 C -0.2453(4) 0.65886(18) -0.8730(6)
H4 H -0.3258 0.6647 -0.8486
H5 H -0.2535 0.6530 -0.9915
H6 H -0.1941 0.6896 -0.8398
C3 C -0.1428(4) 0.61581(17) -0.6105(5)
C4 C -0.0827(4) 0.57172(17) -0.5182(5)
H7 H -0.0769 0.5396 -0.5734
C5 C -0.0332(4) 0.57554(17) -0.3496(5)
H8 H 0.0077 0.5461 -0.2943
C6 C -0.0416(4) 0.62213(16) -0.2567(5)
C7 C -0.1027(4) 0.66510(17) -0.3484(5)
H9 H -0.1103 0.6968 -0.2919
C8 C -0.1523(4) 0.66256(17) -0.5191(5)
H10 H -0.1924 0.6922 -0.5741
C9 C 0.0115(4) 0.62819(17) -0.0774(5)
H11 H -0.0059 0.6599 -0.0276
C10 C 0.0826(4) 0.59294(17) 0.0229(5)
H12 H 0.0995 0.5611 -0.0271
C11 C 0.1365(4) 0.59876(17) 0.2015(5)
C12 C 0.1999(4) 0.55746(17) 0.2894(5)
C13 C 0.2561(4) 0.55985(17) 0.4636(5)
C14 C 0.2537(4) 0.60331(18) 0.5649(6)
C15 C 0.1915(4) 0.64842(16) 0.4767(5)
C16 C 0.1329(4) 0.64635(17) 0.2982(5)
C17 C 0.3145(4) 0.6015(2) 0.7421(6)
H13 H 0.3505 0.5690 0.7804
C18 C 0.3249(4) 0.6392(2) 0.8532(6)
H14 H 0.2876 0.6715 0.8155
C19 C 0.3885(4) 0.6374(2) 1.0322(6)
C20 C 0.4498(4) 0.5920(2) 1.1122(6)
H15 H 0.4532 0.5612 1.0496
C21 C 0.5054(4) 0.59225(18) 1.2829(5)
H16 H 0.5464 0.5620 1.3327
C22 C 0.4992(4) 0.63841(17) 1.3791(5)
C23 C 0.4401(4) 0.68366(19) 1.2934(6)
H17 H 0.4381 0.7154 1.3524
C24 C 0.3865(4) 0.6819(2) 1.1274(6)
H18 H 0.3468 0.7124 1.0768
C25 C 0.6052(4) 0.59341(18) 1.6381(5)
H19 H 0.5543 0.5626 1.6039
H20 H 0.6139 0.5988 1.7569
H21 H 0.6856 0.5880 1.6128
C26 C 0.5498(5) 0.68941(19) 1.6411(6)
H22 H 0.5946 0.7160 1.5926
H23 H 0.5901 0.6836 1.7562
H24 H 0.4664 0.7015 1.6360
F1 F 0.2142(2) 0.51113(10) 0.2124(3)
F2 F 0.3147(2) 0.51466(10) 0.5283(3)
N1 N -0.1884(3) 0.61241(14) -0.7812(4)
N2 N 0.0836(3) 0.69281(14) 0.2405(5)
N3 N 0.1810(3) 0.69692(14) 0.5433(4)
N4 N 0.5473(3) 0.64012(14) 1.5484(4)
S1 S 0.10865(11) 0.73449(4) 0.39497(14)
loop_
_geom_bond_atom_site_label_1
_geom_bond_atom_site_label_2
_geom_bond_site_symmetry_1
_geom_bond_site_symmetry_2
C1 H1 1_555 1_555
H2 C1 1_555 1_555
H3 C1 1_555 1_555
C2 H4 1_555 1_555
H5 C2 1_555 1_555
H6 C2 1_555 1_555
C3 C4 1_555 1_555
C4 H7 1_555 1_555
C5 C4 1_555 1_555
H8 C5 1_555 1_555
C6 C5 1_555 1_555
C7 C6 1_555 1_555
H9 C7 1_555 1_555
C8 C3 1_555 1_555
H10 C8 1_555 1_555
C9 C6 1_555 1_555
H11 C9 1_555 1_555
C10 C9 1_555 1_555
H12 C10 1_555 1_555
C11 C10 1_555 1_555
C12 C11 1_555 1_555
C13 C12 1_555 1_555
C14 C13 1_555 1_555
C15 C14 1_555 1_555
C16 C11 1_555 1_555
C17 C14 1_555 1_555
H13 C17 1_555 1_555
C18 C17 1_555 1_555
H14 C18 1_555 1_555
C19 C18 1_555 1_555
C20 C19 1_555 1_555
H15 C20 1_555 1_555
C21 C20 1_555 1_555
H16 C21 1_555 1_555
C22 C21 1_555 1_555
C23 C22 1_555 1_555
H17 C23 1_555 1_555
C24 C19 1_555 1_555
H18 C24 1_555 1_555
C25 H19 1_555 1_555
H20 C25 1_555 1_555
H21 C25 1_555 1_555
C26 H22 1_555 1_555
H23 C26 1_555 1_555
H24 C26 1_555 1_555
F1 C12 1_555 1_555
F2 C13 1_555 1_555
N1 C1 1_555 1_555
N2 C16 1_555 1_555
N3 C15 1_555 1_555
N4 C22 1_555 1_555
S1 N2 1_555 1_555
C2 N1 1_555 1_555
C3 N1 1_555 1_555
C7 C8 1_555 1_555
C15 C16 1_555 1_555
C23 C24 1_555 1_555
C25 N4 1_555 1_555
C26 N4 1_555 1_555
N3 S1 1_555 1_555

#END
