
#######################################################################
#
#                 Cambridge Crystallographic Data Centre
#                                CCDC 
#
#######################################################################
#
# If this CIF has been generated from an entry in the Cambridge 
# Structural Database, then it will include bibliographic, chemical, 
# crystal, experimental, refinement or atomic coordinate data resulting 
# from the CCDC's data processing and validation procedures.
#
#######################################################################

data_QIDFER01
_chemical_formula_moiety         'C12 H24 O6,C6 H7 N2 O2 1+,F6 P1 1-'
_chemical_name_systematic        
'4-nitroanilinium hexafluorophosphate 18-crown-6'
_symmetry_cell_setting           monoclinic
_symmetry_space_group_name_H-M   'P 21/c'
_symmetry_Int_Tables_number      14
_space_group_name_Hall           '-P 2ybc'
loop_
_symmetry_equiv_pos_site_id
_symmetry_equiv_pos_as_xyz
1 x,y,z
2 -x,1/2+y,1/2-z
3 -x,-y,-z
4 x,1/2-y,1/2+z
_cell_length_a                   11.067(3)
_cell_length_b                   23.778(6)
_cell_length_c                   21.933(5)
_cell_angle_alpha                90
_cell_angle_beta                 113.678(10)
_cell_angle_gamma                90
_cell_volume                     5285.81
_exptl_crystal_colour            yellow
_exptl_crystal_description       block
_cell_formula_units_Z            8
loop_
_atom_site_label
_atom_site_type_symbol
_atom_site_fract_x
_atom_site_fract_y
_atom_site_fract_z
O1 O 0.4598(3) -0.00602(16) 0.22640(16)
O2 O 0.2628(3) 0.07575(15) 0.16708(17)
O3 O 0.0156(3) 0.06453(15) 0.17311(17)
O4 O -0.0609(3) -0.04230(15) 0.19293(17)
O5 O 0.1289(3) -0.12300(15) 0.26171(17)
O6 O 0.3746(3) -0.11071(16) 0.24966(17)
C1 C 0.4720(5) 0.0367(2) 0.1841(3)
H1 H 0.4356 0.0237 0.1384
H2 H 0.5644 0.0456 0.1965
C2 C 0.4004(5) 0.0876(3) 0.1901(3)
H3 H 0.4342 0.0995 0.2363
H4 H 0.4143 0.1178 0.1640
C3 C 0.1875(5) 0.1235(2) 0.1720(3)
H5 H 0.2077 0.1560 0.1509
H6 H 0.2096 0.1325 0.2184
C4 C 0.0465(5) 0.1097(2) 0.1385(3)
H7 H -0.0062 0.1425 0.1380
H8 H 0.0258 0.0987 0.0928
C5 C -0.1187(5) 0.0458(2) 0.1404(3)
H9 H -0.1323 0.0285 0.0981
H10 H -0.1782 0.0776 0.1319
C6 C -0.1467(5) 0.0049(2) 0.1832(3)
H11 H -0.1322 0.0220 0.2258
H12 H -0.2380 -0.0072 0.1624
C7 C -0.0898(5) -0.0863(2) 0.2286(3)
H13 H -0.1826 -0.0959 0.2074
H14 H -0.0706 -0.0742 0.2738
C8 C -0.0075(5) -0.1363(3) 0.2295(3)
H15 H -0.0282 -0.1670 0.2528
H16 H -0.0275 -0.1484 0.1842
C9 C 0.2074(5) -0.1688(2) 0.2586(3)
H17 H 0.1822 -0.1797 0.2125
H18 H 0.1924 -0.2006 0.2823
C10 C 0.3504(5) -0.1536(3) 0.2884(3)
H19 H 0.3750 -0.1404 0.3337
H20 H 0.4032 -0.1865 0.2896
C11 C 0.5127(5) -0.0983(3) 0.2712(3)
H21 H 0.5608 -0.1324 0.2709
H22 H 0.5473 -0.0837 0.3163
C12 C 0.5299(5) -0.0560(2) 0.2254(3)
H23 H 0.6229 -0.0475 0.2392
H24 H 0.4969 -0.0711 0.1805
O7 O 0.1429(5) -0.3371(2) 0.2904(2)
O8 O 0.3315(5) -0.3383(2) 0.2957(2)
C13 C 0.0833(4) -0.25629(19) 0.0768(2)
C14 C 0.2156(4) -0.2683(2) 0.1099(2)
H25 H 0.2746 -0.2589 0.0910
C15 C 0.2601(5) -0.2943(2) 0.1716(2)
H26 H 0.3489 -0.3028 0.1948
C16 C 0.1690(5) -0.3072(2) 0.1971(2)
C17 C 0.0374(5) -0.2961(2) 0.1645(3)
H27 H -0.0214 -0.3056 0.1835
C18 C -0.0065(5) -0.2706(2) 0.1025(2)
H28 H -0.0958 -0.2632 0.0788
N1 N 0.0374(3) -0.22736(15) 0.01224(17)
H29 H -0.0495 -0.2224 -0.0033
H30 H 0.0567 -0.2481 -0.0164
H31 H 0.0771 -0.1941 0.0173
N2 N 0.2179(5) -0.3309(2) 0.2641(2)
O9 O 0.2670(3) -0.27296(14) 0.48313(16)
O10 O 0.0736(3) -0.19360(15) 0.41821(18)
O11 O -0.1732(3) -0.20595(15) 0.42813(17)
O12 O -0.2416(3) -0.31095(15) 0.46141(16)
O13 O -0.0388(3) -0.38028(14) 0.54499(16)
O14 O 0.1995(3) -0.37413(14) 0.52774(16)
C19 C 0.2832(5) -0.2324(2) 0.4396(3)
H32 H 0.2503 -0.2473 0.3946
H33 H 0.3760 -0.2237 0.4534
C20 C 0.2095(5) -0.1807(2) 0.4410(3)
H34 H 0.2416 -0.1661 0.4860
H35 H 0.2230 -0.1522 0.4127
C21 C -0.0054(5) -0.1472(3) 0.4208(3)
H36 H 0.0101 -0.1153 0.3974
H37 H 0.0171 -0.1364 0.4667
C22 C -0.1470(5) -0.1644(3) 0.3890(3)
H38 H -0.2029 -0.1319 0.3847
H39 H -0.1665 -0.1791 0.3448
C23 C -0.3050(5) -0.2273(2) 0.3967(3)
H40 H -0.3151 -0.2481 0.3569
H41 H -0.3675 -0.1964 0.3839
C24 C -0.3311(5) -0.2649(2) 0.4443(3)
H42 H -0.3206 -0.2441 0.4842
H43 H -0.4211 -0.2788 0.4242
C25 C -0.2626(5) -0.3493(2) 0.5066(3)
H44 H -0.3539 -0.3616 0.4884
H45 H -0.2443 -0.3307 0.5487
C26 C -0.1742(5) -0.3983(2) 0.5170(3)
H46 H -0.1891 -0.4249 0.5468
H47 H -0.1934 -0.4171 0.4748
C27 C 0.0495(5) -0.4270(2) 0.5573(3)
H48 H 0.0260 -0.4492 0.5170
H49 H 0.0419 -0.4509 0.5915
C28 C 0.1866(5) -0.4070(2) 0.5792(3)
H50 H 0.2099 -0.3844 0.6191
H51 H 0.2462 -0.4388 0.5895
C29 C 0.3322(4) -0.3579(2) 0.5429(3)
H52 H 0.3865 -0.3912 0.5492
H53 H 0.3659 -0.3365 0.5840
C30 C 0.3394(4) -0.3236(2) 0.4888(3)
H54 H 0.4307 -0.3149 0.4980
H55 H 0.3027 -0.3443 0.4472
O15 O -0.3333(6) -0.3918(3) -0.0287(3)
O16 O -0.5209(6) -0.3972(3) -0.0373(2)
C31 C -0.3595(6) -0.4339(3) 0.0577(3)
C32 C -0.2317(6) -0.4455(3) 0.0892(3)
H56 H -0.1735 -0.4369 0.0695
C33 C -0.2695(5) -0.4836(3) 0.1796(2)
C34 C -0.1847(6) -0.4709(3) 0.1528(3)
H57 H -0.0954 -0.4786 0.1756
C35 C -0.4018(5) -0.4719(3) 0.1457(3)
H58 H -0.4617 -0.4813 0.1640
C36 C -0.4443(6) -0.4460(3) 0.0842(3)
H59 H -0.5330 -0.4372 0.0613
N3 N -0.2227(3) -0.50907(16) 0.24582(16)
H60 H -0.1359 -0.5143 0.2612
H61 H -0.2626 -0.5420 0.2433
H62 H -0.2411 -0.4864 0.2732
N4 N -0.4091(6) -0.4054(3) -0.0077(3)
P1 P -0.34921(15) -0.25583(8) 0.16988(8)
F1 F -0.3718(10) -0.1933(5) 0.1875(5)
F2 F -0.2580(8) -0.2319(4) 0.1366(4)
F3 F -0.2895(8) -0.3160(4) 0.1682(4)
F4 F -0.3990(8) -0.2772(4) 0.2237(4)
F5 F -0.4723(5) -0.2598(2) 0.1065(3)
F6 F -0.2240(5) -0.2513(2) 0.2356(3)
P2 P 0.1620(3) -0.02772(16) 0.5939(2)
F11 F 0.0651(10) -0.0761(5) 0.5842(6)
F12 F 0.0997(10) 0.0047(5) 0.6324(6)
F13 F 0.2623(12) 0.0200(5) 0.6038(7)
F14 F 0.2163(11) -0.0574(5) 0.5481(6)
F15 F 0.2637(13) -0.0563(6) 0.6548(7)
F16 F 0.0618(13) 0.0037(7) 0.5327(7)
P3 P -0.5000 0.0000 0.0000
F17 F -0.5454(3) -0.05269(12) -0.04924(14)
F18 F -0.6337(2) -0.00469(13) 0.01139(14)
F19 F -0.4280(3) -0.04169(13) 0.06128(14)
F17B F -0.4546(3) 0.05269(12) 0.04924(14)
F18B F -0.3663(2) 0.00469(13) -0.01139(14)
F19B F -0.5720(3) 0.04169(13) -0.06128(14)
F7? F -0.3233(10) -0.1959(5) 0.1465(5)
F8? F -0.2810(10) -0.2844(5) 0.1274(5)
F9? F -0.4033(10) -0.3142(4) 0.1814(5)
F10? F -0.4588(11) -0.2260(5) 0.1888(5)
loop_
_geom_bond_atom_site_label_1
_geom_bond_atom_site_label_2
_geom_bond_site_symmetry_1
_geom_bond_site_symmetry_2
O1 C1 1_555 1_555
O2 C2 1_555 1_555
O3 C4 1_555 1_555
O4 C6 1_555 1_555
O5 C8 1_555 1_555
O6 C10 1_555 1_555
C1 H1 1_555 1_555
H2 C1 1_555 1_555
C2 C1 1_555 1_555
H3 C2 1_555 1_555
H4 C2 1_555 1_555
C3 O2 1_555 1_555
H5 C3 1_555 1_555
H6 C3 1_555 1_555
C4 C3 1_555 1_555
H7 C4 1_555 1_555
H8 C4 1_555 1_555
C5 O3 1_555 1_555
H9 C5 1_555 1_555
H10 C5 1_555 1_555
C6 C5 1_555 1_555
H11 C6 1_555 1_555
H12 C6 1_555 1_555
C7 O4 1_555 1_555
H13 C7 1_555 1_555
H14 C7 1_555 1_555
C8 C7 1_555 1_555
H15 C8 1_555 1_555
H16 C8 1_555 1_555
C9 O5 1_555 1_555
H17 C9 1_555 1_555
H18 C9 1_555 1_555
C10 C9 1_555 1_555
H19 C10 1_555 1_555
H20 C10 1_555 1_555
C11 O6 1_555 1_555
H21 C11 1_555 1_555
H22 C11 1_555 1_555
C12 O1 1_555 1_555
H23 C12 1_555 1_555
H24 C12 1_555 1_555
O7 N2 1_555 1_555
O8 N2 1_555 1_555
C13 C14 1_555 1_555
C14 H25 1_555 1_555
C15 C14 1_555 1_555
H26 C15 1_555 1_555
C16 C15 1_555 1_555
C17 C16 1_555 1_555
H27 C17 1_555 1_555
C18 C13 1_555 1_555
H28 C18 1_555 1_555
N1 C13 1_555 1_555
H29 N1 1_555 1_555
H30 N1 1_555 1_555
H31 N1 1_555 1_555
N2 C16 1_555 1_555
O9 C19 1_555 1_555
O10 C20 1_555 1_555
O11 C22 1_555 1_555
O12 C24 1_555 1_555
O13 C26 1_555 1_555
O14 C28 1_555 1_555
C19 H32 1_555 1_555
H33 C19 1_555 1_555
C20 C19 1_555 1_555
H34 C20 1_555 1_555
H35 C20 1_555 1_555
C21 O10 1_555 1_555
H36 C21 1_555 1_555
H37 C21 1_555 1_555
C22 C21 1_555 1_555
H38 C22 1_555 1_555
H39 C22 1_555 1_555
C23 O11 1_555 1_555
H40 C23 1_555 1_555
H41 C23 1_555 1_555
C24 C23 1_555 1_555
H42 C24 1_555 1_555
H43 C24 1_555 1_555
C25 O12 1_555 1_555
H44 C25 1_555 1_555
H45 C25 1_555 1_555
C26 C25 1_555 1_555
H46 C26 1_555 1_555
H47 C26 1_555 1_555
C27 O13 1_555 1_555
H48 C27 1_555 1_555
H49 C27 1_555 1_555
C28 C27 1_555 1_555
H50 C28 1_555 1_555
H51 C28 1_555 1_555
C29 O14 1_555 1_555
H52 C29 1_555 1_555
H53 C29 1_555 1_555
C30 O9 1_555 1_555
H54 C30 1_555 1_555
H55 C30 1_555 1_555
O15 N4 1_555 1_555
O16 N4 1_555 1_555
C31 C32 1_555 1_555
C32 H56 1_555 1_555
C33 C34 1_555 1_555
C34 C32 1_555 1_555
H57 C34 1_555 1_555
C35 C33 1_555 1_555
H58 C35 1_555 1_555
C36 C31 1_555 1_555
H59 C36 1_555 1_555
N3 C33 1_555 1_555
H60 N3 1_555 1_555
H61 N3 1_555 1_555
H62 N3 1_555 1_555
N4 C31 1_555 1_555
P1 F1 1_555 1_555
F2 P1 1_555 1_555
F3 P1 1_555 1_555
F4 P1 1_555 1_555
F5 P1 1_555 1_555
F6 P1 1_555 1_555
P2 F11 1_555 1_555
F12 P2 1_555 1_555
F13 P2 1_555 1_555
F14 P2 1_555 1_555
F15 P2 1_555 1_555
F16 P2 1_555 1_555
P3 F17 1_555 1_555
F18 P3 1_555 1_555
F19 P3 1_555 1_555
F17B P3 1_555 1_555
F18B P3 1_555 1_555
F19B P3 1_555 1_555
C11 C12 1_555 1_555
C17 C18 1_555 1_555
C29 C30 1_555 1_555
C35 C36 1_555 1_555

#END
