
#######################################################################
#
#                 Cambridge Crystallographic Data Centre
#                                CCDC 
#
#######################################################################
#
# If this CIF has been generated from an entry in the Cambridge 
# Structural Database, then it will include bibliographic, chemical, 
# crystal, experimental, refinement or atomic coordinate data resulting 
# from the CCDC's data processing and validation procedures.
#
#######################################################################

data_QIFDIT
_chemical_formula_moiety         'C11 H10 N2 O1 S1'
_chemical_name_systematic        2-((5-Methylthiazol-2-ylimino)methyl)phenol
_symmetry_cell_setting           monoclinic
_symmetry_space_group_name_H-M   'P 21/c'
_symmetry_Int_Tables_number      14
_space_group_name_Hall           '-P 2ybc'
loop_
_symmetry_equiv_pos_site_id
_symmetry_equiv_pos_as_xyz
1 x,y,z
2 -x,1/2+y,1/2-z
3 -x,-y,-z
4 x,1/2-y,1/2+z
_cell_length_a                   13.991(2)
_cell_length_b                   5.0713(8)
_cell_length_c                   17.0873(17)
_cell_angle_alpha                90
_cell_angle_beta                 119.956(8)
_cell_angle_gamma                90
_cell_volume                     1050.42
_exptl_crystal_colour            yellow
_exptl_crystal_description       Block
_cell_formula_units_Z            4
_exptl_crystal_recrystallization_method 'hexane/anhydrous ethanol'
loop_
_atom_site_label
_atom_site_type_symbol
_atom_site_fract_x
_atom_site_fract_y
_atom_site_fract_z
S1 S 0.41138(6) 0.56796(17) 0.16646(5)
O1 O 0.3212(2) 1.1891(5) 0.30994(14)
H1 H 0.3286 1.0799 0.2780
N1 N 0.2351(2) 0.7079(6) 0.02445(17)
N2 N 0.2701(2) 0.9312(5) 0.16094(16)
C1 C 0.4581(3) 0.2258(7) 0.0596(2)
H2 H 0.4312 0.1839 -0.0027
H3 H 0.4602 0.0685 0.0917
H4 H 0.5310 0.2985 0.0856
C2 C 0.3833(3) 0.4218(6) 0.0664(2)
C3 C 0.2875(3) 0.5223(7) 0.0010(2)
H5 H 0.2575 0.4671 -0.0586
C4 C 0.2927(2) 0.7516(6) 0.11079(18)
C5 C 0.1817(3) 1.0682(6) 0.1216(2)
H6 H 0.1328 1.0398 0.0605
C6 C 0.1548(2) 1.2656(6) 0.16862(19)
C7 C 0.2266(3) 1.3212(6) 0.2608(2)
C8 C 0.1987(3) 1.5164(7) 0.3021(2)
H7 H 0.2455 1.5522 0.3630
C9 C 0.1036(3) 1.6575(7) 0.2550(3)
H8 H 0.0868 1.7895 0.2839
C10 C 0.0321(3) 1.6064(7) 0.1646(3)
H9 H -0.0325 1.7033 0.1325
C11 C 0.0581(3) 1.4092(7) 0.1227(2)
H10 H 0.0094 1.3719 0.0622
loop_
_geom_bond_atom_site_label_1
_geom_bond_atom_site_label_2
_geom_bond_site_symmetry_1
_geom_bond_site_symmetry_2
S1 C2 1_555 1_555
O1 H1 1_555 1_555
N1 C3 1_555 1_555
N2 C4 1_555 1_555
C1 H2 1_555 1_555
H3 C1 1_555 1_555
H4 C1 1_555 1_555
C2 C1 1_555 1_555
C3 C2 1_555 1_555
H5 C3 1_555 1_555
C4 S1 1_555 1_555
C5 N2 1_555 1_555
H6 C5 1_555 1_555
C6 C5 1_555 1_555
C7 O1 1_555 1_555
C8 C7 1_555 1_555
H7 C8 1_555 1_555
C9 C8 1_555 1_555
H8 C9 1_555 1_555
C10 C9 1_555 1_555
H9 C10 1_555 1_555
C11 C6 1_555 1_555
H10 C11 1_555 1_555
N1 C4 1_555 1_555
C6 C7 1_555 1_555
C10 C11 1_555 1_555

#END
