
#######################################################################
#
#                 Cambridge Crystallographic Data Centre
#                                CCDC 
#
#######################################################################
#
# If this CIF has been generated from an entry in the Cambridge 
# Structural Database, then it will include bibliographic, chemical, 
# crystal, experimental, refinement or atomic coordinate data resulting 
# from the CCDC's data processing and validation procedures.
#
#######################################################################

data_QIFPEC
_chemical_name_common            'Huperzine A'
_chemical_formula_moiety         'C15 H18 N2 O1'
_chemical_name_systematic        
1-Amino-13-ethylidene-11-methyl-6-azatricyclo[7.3.1.0^2,7^]trideca-2(7),3,10-trien-5-one
_symmetry_cell_setting           monoclinic
_symmetry_space_group_name_H-M   'C 2'
_symmetry_Int_Tables_number      5
_space_group_name_Hall           'C 2y'
loop_
_symmetry_equiv_pos_site_id
_symmetry_equiv_pos_as_xyz
1 x,y,z
2 -x,y,-z
3 1/2+x,1/2+y,z
4 1/2-x,1/2+y,-z
_cell_length_a                   26.595(5)
_cell_length_b                   7.5583(13)
_cell_length_c                   14.652(3)
_cell_angle_alpha                90
_cell_angle_beta                 117.280(3)
_cell_angle_gamma                90
_cell_volume                     2617.66
_exptl_crystal_colour            colorless
_exptl_crystal_description       column
_cell_formula_units_Z            8
loop_
_atom_site_label
_atom_site_type_symbol
_atom_site_fract_x
_atom_site_fract_y
_atom_site_fract_z
O1 O 0.40260(9) 0.0608(3) 0.01717(15)
N1 N 0.36124(11) 0.2563(3) 0.07957(17)
H1 H 0.3770 0.3410 0.0628
N2 N 0.21813(11) 0.1035(4) 0.1725(2)
C1 C 0.40274(16) 0.1997(5) 0.4810(3)
H2 H 0.4344 0.2793 0.5079
H3 H 0.4149 0.0856 0.4700
H4 H 0.3877 0.1891 0.5291
C2 C 0.35766(13) 0.2705(4) 0.3806(2)
C3 C 0.36169(12) 0.4290(4) 0.3439(2)
H5 H 0.3946 0.4943 0.3800
C4 C 0.31554(12) 0.5075(4) 0.2468(2)
H6 H 0.3105 0.6324 0.2586
C5 C 0.33009(12) 0.4924(4) 0.1567(2)
H7 H 0.3025 0.5574 0.0980
H8 H 0.3671 0.5433 0.1762
C6 C 0.32988(12) 0.3009(4) 0.1287(2)
C7 C 0.36954(12) 0.0868(4) 0.0549(2)
C8 C 0.30706(14) 0.1527(4) 0.3255(2)
H9 H 0.2848 0.1524 0.3626
H10 H 0.3199 0.0327 0.3252
C9 C 0.26899(12) 0.2122(4) 0.2131(2)
C10 C 0.26108(12) 0.4099(4) 0.2185(2)
C11 C 0.21317(13) 0.4857(4) 0.2062(2)
H11 H 0.1824 0.4109 0.1895
C12 C 0.20342(14) 0.6768(4) 0.2164(3)
H12 H 0.2390 0.7379 0.2466
H13 H 0.1852 0.6904 0.2593
H14 H 0.1798 0.7254 0.1497
C13 C 0.30036(12) 0.1730(4) 0.1503(2)
C14 C 0.30488(13) -0.0039(4) 0.1208(2)
H15 H 0.2849 -0.0932 0.1335
C15 C 0.33733(13) -0.0459(4) 0.0750(2)
H16 H 0.3388 -0.1626 0.0562
H17 H 0.2030(14) 0.110(5) 0.215(2)
H18 H 0.1937(17) 0.135(6) 0.107(3)
O2 O 0.40753(8) 0.5707(3) 1.05005(15)
N3 N 0.42688(10) 0.7452(3) 0.94366(18)
H19 H 0.4225 0.8368 0.9741
N4 N 0.49605(12) 0.5114(4) 0.7236(2)
C16 C 0.53732(13) 1.0682(5) 0.6891(2)
H20 H 0.5229 1.0968 0.6176
H21 H 0.5779 1.0737 0.7219
H22 H 0.5230 1.1514 0.7209
C17 C 0.51892(14) 0.8852(4) 0.6996(2)
H23 H 0.5410 0.7925 0.6960
C18 C 0.47436(13) 0.8407(4) 0.7135(2)
C19 C 0.45666(13) 0.6517(4) 0.7188(2)
C20 C 0.44597(12) 0.6303(4) 0.8122(2)
C21 C 0.43910(11) 0.7731(4) 0.8637(2)
C22 C 0.42103(11) 0.5813(4) 0.9791(2)
C23 C 0.44102(12) 0.4574(4) 0.8462(2)
H24 H 0.4457 0.3593 0.8126
C24 C 0.42961(12) 0.4329(4) 0.9263(2)
H25 H 0.4273 0.3185 0.9476
C25 C 0.43393(12) 0.9703(4) 0.7238(2)
H26 H 0.4424 1.0901 0.7091
C26 C 0.44333(12) 0.9615(4) 0.8362(2)
H27 H 0.4804 1.0085 0.8821
H28 H 0.4150 1.0326 0.8436
C27 C 0.37394(13) 0.9235(4) 0.6495(2)
H29 H 0.3461 1.0086 0.6359
C28 C 0.35804(13) 0.7671(5) 0.6018(2)
C29 C 0.40056(13) 0.6218(4) 0.6214(2)
H30 H 0.4082 0.6130 0.5628
H31 H 0.3844 0.5102 0.6276
C30 C 0.29782(15) 0.7250(6) 0.5262(3)
H32 H 0.2743 0.8255 0.5193
H33 H 0.2849 0.6254 0.5504
H34 H 0.2959 0.6974 0.4607
H35 H 0.5044(12) 0.526(4) 0.674(2)
H36 H 0.5312(14) 0.526(4) 0.782(2)
loop_
_geom_bond_atom_site_label_1
_geom_bond_atom_site_label_2
_geom_bond_site_symmetry_1
_geom_bond_site_symmetry_2
O1 C7 1_555 1_555
N1 H1 1_555 1_555
N2 C9 1_555 1_555
C1 H2 1_555 1_555
H3 C1 1_555 1_555
H4 C1 1_555 1_555
C2 C1 1_555 1_555
C3 C2 1_555 1_555
H5 C3 1_555 1_555
C4 C3 1_555 1_555
H6 C4 1_555 1_555
C5 C4 1_555 1_555
H7 C5 1_555 1_555
H8 C5 1_555 1_555
C6 N1 1_555 1_555
C7 N1 1_555 1_555
C8 C2 1_555 1_555
H9 C8 1_555 1_555
H10 C8 1_555 1_555
C9 C8 1_555 1_555
C10 C4 1_555 1_555
C11 C10 1_555 1_555
H11 C11 1_555 1_555
C12 C11 1_555 1_555
H12 C12 1_555 1_555
H13 C12 1_555 1_555
H14 C12 1_555 1_555
C13 C6 1_555 1_555
C14 C13 1_555 1_555
H15 C14 1_555 1_555
C15 C7 1_555 1_555
H16 C15 1_555 1_555
H17 N2 1_555 1_555
H18 N2 1_555 1_555
O2 C22 1_555 1_555
N3 H19 1_555 1_555
N4 C19 1_555 1_555
C16 H20 1_555 1_555
H21 C16 1_555 1_555
H22 C16 1_555 1_555
C17 C16 1_555 1_555
H23 C17 1_555 1_555
C18 C17 1_555 1_555
C19 C18 1_555 1_555
C20 C19 1_555 1_555
C21 N3 1_555 1_555
C22 N3 1_555 1_555
C23 C20 1_555 1_555
H24 C23 1_555 1_555
C24 C22 1_555 1_555
H25 C24 1_555 1_555
C25 C18 1_555 1_555
H26 C25 1_555 1_555
C26 C21 1_555 1_555
H27 C26 1_555 1_555
H28 C26 1_555 1_555
C27 C25 1_555 1_555
H29 C27 1_555 1_555
C28 C27 1_555 1_555
C29 C19 1_555 1_555
H30 C29 1_555 1_555
H31 C29 1_555 1_555
C30 C28 1_555 1_555
H32 C30 1_555 1_555
H33 C30 1_555 1_555
H34 C30 1_555 1_555
H35 N4 1_555 1_555
H36 N4 1_555 1_555
C5 C6 1_555 1_555
C9 C10 1_555 1_555
C9 C13 1_555 1_555
C14 C15 1_555 1_555
C20 C21 1_555 1_555
C23 C24 1_555 1_555
C25 C26 1_555 1_555
C28 C29 1_555 1_555

#END
