
#######################################################################
#
#                 Cambridge Crystallographic Data Centre
#                                CCDC 
#
#######################################################################
#
# If this CIF has been generated from an entry in the Cambridge 
# Structural Database, then it will include bibliographic, chemical, 
# crystal, experimental, refinement or atomic coordinate data resulting 
# from the CCDC's data processing and validation procedures.
#
#######################################################################

data_QIGGAR
_chemical_formula_moiety         'C39 H32 N2 O1'
_chemical_name_systematic        
'2-[2-(2,3,3-triphenyl-1,2,3,4-tetrahydrocyclopenta[b]indol-1-yl)-1H-indol-3-yl]ethan-1-ol unknown solvate'
_symmetry_cell_setting           orthorhombic
_symmetry_space_group_name_H-M   'P 21 21 21'
_symmetry_Int_Tables_number      19
_space_group_name_Hall           'P 2ac 2ab'
loop_
_symmetry_equiv_pos_site_id
_symmetry_equiv_pos_as_xyz
1 x,y,z
2 1/2-x,-y,1/2+z
3 1/2+x,1/2-y,-z
4 -x,1/2+y,1/2-z
_cell_length_a                   11.228(6)
_cell_length_b                   16.224(8)
_cell_length_c                   18.542(9)
_cell_angle_alpha                90
_cell_angle_beta                 90
_cell_angle_gamma                90
_cell_volume                     3377.67
_exptl_crystal_colour            colorless
_exptl_crystal_description       block
_cell_formula_units_Z            4
loop_
_atom_site_label
_atom_site_type_symbol
_atom_site_fract_x
_atom_site_fract_y
_atom_site_fract_z
O1 O -0.3447(4) 0.2830(3) 0.1182(3)
H1 H -0.3523 0.2723 0.0752
N1 N 0.4188(3) 0.3367(2) 0.0864(2)
H2 H 0.4859 0.3219 0.1046
N2 N 0.0591(4) 0.5093(2) 0.0911(2)
H3 H 0.1289 0.5257 0.1036
C1 C 0.1033(4) 0.3604(3) 0.1114(2)
H4 H 0.0648 0.3076 0.1006
C2 C 0.1422(4) 0.3611(3) 0.1936(2)
H5 H 0.1589 0.4190 0.2051
C3 C 0.2687(4) 0.3154(3) 0.1959(2)
C4 C 0.3091(4) 0.3406(3) 0.1220(2)
C5 C 0.2224(4) 0.3624(3) 0.0761(2)
C6 C 0.2754(4) 0.3772(3) 0.0064(2)
C7 C 0.2332(6) 0.4035(3) -0.0603(3)
H6 H 0.1528 0.4139 -0.0680
C8 C 0.3168(7) 0.4134(4) -0.1150(3)
H7 H 0.2909 0.4301 -0.1604
C9 C 0.4384(6) 0.3992(4) -0.1041(3)
H8 H 0.4918 0.4085 -0.1415
C10 C 0.4795(5) 0.3715(3) -0.0388(3)
H9 H 0.5599 0.3600 -0.0320
C11 C 0.3984(4) 0.3612(3) 0.0168(3)
C12 C 0.0211(4) 0.4288(3) 0.0906(2)
C13 C -0.0950(4) 0.4261(3) 0.0680(2)
C14 C -0.1280(4) 0.5104(3) 0.0529(2)
C15 C -0.0322(5) 0.5592(3) 0.0685(2)
C16 C -0.0361(6) 0.6460(4) 0.0624(3)
H10 H 0.0289 0.6794 0.0731
C17 C -0.1421(7) 0.6768(4) 0.0399(3)
H11 H -0.1492 0.7336 0.0350
C18 C -0.2384(6) 0.6296(4) 0.0240(3)
H12 H -0.3082 0.6553 0.0090
C19 C -0.2361(5) 0.5469(4) 0.0292(2)
H13 H -0.3023 0.5151 0.0178
C20 C -0.1759(4) 0.3523(3) 0.0641(3)
H14 H -0.1280 0.3025 0.0637
H15 H -0.2205 0.3542 0.0193
C21 C -0.2621(5) 0.3487(4) 0.1267(3)
H16 H -0.2181 0.3411 0.1712
H17 H -0.3050 0.4004 0.1300
C22 C 0.0439(4) 0.3357(3) 0.2439(2)
C23 C 0.0068(6) 0.3873(4) 0.2990(3)
H18 H 0.0430 0.4385 0.3044
C24 C -0.0816(8) 0.3647(6) 0.3455(4)
H19 H -0.1006 0.3994 0.3838
C25 C -0.1408(6) 0.2953(6) 0.3377(4)
H20 H -0.2039 0.2821 0.3681
C26 C -0.1072(6) 0.2440(6) 0.2843(4)
H21 H -0.1454 0.1934 0.2797
C27 C -0.0181(5) 0.2639(4) 0.2365(3)
H22 H -0.0001 0.2281 0.1988
C28 C 0.2566(4) 0.2197(3) 0.2010(2)
C29 C 0.2786(5) 0.1706(4) 0.1427(3)
H23 H 0.2985 0.1946 0.0987
C30 C 0.2717(7) 0.0853(4) 0.1480(3)
H24 H 0.2880 0.0524 0.1082
C31 C 0.2404(7) 0.0499(4) 0.2129(3)
H25 H 0.2338 -0.0071 0.2168
C32 C 0.2191(7) 0.0992(4) 0.2713(3)
H26 H 0.1972 0.0757 0.3151
C33 C 0.2296(6) 0.1816(4) 0.2657(3)
H27 H 0.2183 0.2140 0.3065
C34 C 0.3488(4) 0.3444(3) 0.2562(2)
C35 C 0.3143(9) 0.3888(6) 0.3175(5)
H28 H 0.2347 0.4026 0.3241
C36 C 0.3960(11) 0.4118(6) 0.3672(6)
H29 H 0.3706 0.4446 0.4053
C37 C 0.5063(8) 0.3911(7) 0.3651(4)
H30 H 0.5578 0.4072 0.4018
C38 C 0.5485(9) 0.3443(10) 0.3070(7)
H31 H 0.6272 0.3263 0.3052
C39 C 0.4701(7) 0.3259(9) 0.2531(5)
H32 H 0.4990 0.2996 0.2121
loop_
_geom_bond_atom_site_label_1
_geom_bond_atom_site_label_2
_geom_bond_site_symmetry_1
_geom_bond_site_symmetry_2
O1 H1 1_555 1_555
N1 H2 1_555 1_555
N2 H3 1_555 1_555
C1 H4 1_555 1_555
C2 C1 1_555 1_555
H5 C2 1_555 1_555
C3 C2 1_555 1_555
C4 N1 1_555 1_555
C5 C1 1_555 1_555
C6 C5 1_555 1_555
C7 C6 1_555 1_555
H6 C7 1_555 1_555
C8 C7 1_555 1_555
H7 C8 1_555 1_555
C9 C8 1_555 1_555
H8 C9 1_555 1_555
C10 C9 1_555 1_555
H9 C10 1_555 1_555
C11 N1 1_555 1_555
C12 N2 1_555 1_555
C13 C12 1_555 1_555
C14 C13 1_555 1_555
C15 N2 1_555 1_555
C16 C15 1_555 1_555
H10 C16 1_555 1_555
C17 C16 1_555 1_555
H11 C17 1_555 1_555
C18 C17 1_555 1_555
H12 C18 1_555 1_555
C19 C14 1_555 1_555
H13 C19 1_555 1_555
C20 C13 1_555 1_555
H14 C20 1_555 1_555
H15 C20 1_555 1_555
C21 O1 1_555 1_555
H16 C21 1_555 1_555
H17 C21 1_555 1_555
C22 C2 1_555 1_555
C23 C22 1_555 1_555
H18 C23 1_555 1_555
C24 C23 1_555 1_555
H19 C24 1_555 1_555
C25 C24 1_555 1_555
H20 C25 1_555 1_555
C26 C25 1_555 1_555
H21 C26 1_555 1_555
C27 C22 1_555 1_555
H22 C27 1_555 1_555
C28 C3 1_555 1_555
C29 C28 1_555 1_555
H23 C29 1_555 1_555
C30 C29 1_555 1_555
H24 C30 1_555 1_555
C31 C30 1_555 1_555
H25 C31 1_555 1_555
C32 C31 1_555 1_555
H26 C32 1_555 1_555
C33 C28 1_555 1_555
H27 C33 1_555 1_555
C34 C3 1_555 1_555
C35 C34 1_555 1_555
H28 C35 1_555 1_555
C36 C35 1_555 1_555
H29 C36 1_555 1_555
C37 C36 1_555 1_555
H30 C37 1_555 1_555
C38 C37 1_555 1_555
H31 C38 1_555 1_555
C39 C34 1_555 1_555
H32 C39 1_555 1_555
C1 C12 1_555 1_555
C3 C4 1_555 1_555
C4 C5 1_555 1_555
C6 C11 1_555 1_555
C10 C11 1_555 1_555
C14 C15 1_555 1_555
C18 C19 1_555 1_555
C20 C21 1_555 1_555
C26 C27 1_555 1_555
C32 C33 1_555 1_555
C38 C39 1_555 1_555

#END
