
#######################################################################
#
#                 Cambridge Crystallographic Data Centre
#                                CCDC 
#
#######################################################################
#
# If this CIF has been generated from an entry in the Cambridge 
# Structural Database, then it will include bibliographic, chemical, 
# crystal, experimental, refinement or atomic coordinate data resulting 
# from the CCDC's data processing and validation procedures.
#
#######################################################################

data_QIGMUR
_chemical_formula_moiety         'C56 H72 N4 P2 S6,C4 H8 O1'
_chemical_name_systematic        
'7,8-bis{1,3-bis[2,6-bis(propan-2-yl)phenyl]-1,3-dihydro-2H-imidazol-2-ylidene}-2,3,4,5-tetrathia-1,6-diphosphabicyclo[4.1.1]octane-1,6-dithione tetrahydrofuran solvate'
_symmetry_cell_setting           triclinic
_symmetry_space_group_name_H-M   'P -1'
_symmetry_Int_Tables_number      2
_space_group_name_Hall           '-P 1'
loop_
_symmetry_equiv_pos_site_id
_symmetry_equiv_pos_as_xyz
1 x,y,z
2 -x,-y,-z
_cell_length_a                   12.4959(5)
_cell_length_b                   13.2720(6)
_cell_length_c                   19.1941(8)
_cell_angle_alpha                74.252(4)
_cell_angle_beta                 89.806(3)
_cell_angle_gamma                79.658(3)
_cell_volume                     3010.54
_exptl_crystal_colour            yellow
_exptl_crystal_description       block
_cell_formula_units_Z            2
loop_
_atom_site_label
_atom_site_type_symbol
_atom_site_fract_x
_atom_site_fract_y
_atom_site_fract_z
P1 P 0.83956(4) 0.98332(4) 0.22671(3)
P2 P 0.69911(4) 0.91718(4) 0.31566(3)
S1 S 0.85600(5) 1.04760(4) 0.12374(3)
S2 S 0.99732(8) 0.98097(9) 0.26862(7)
S3 S 0.55010(5) 0.89966(5) 0.33189(4)
S4 S 0.76418(7) 0.86837(6) 0.42564(3)
S5 S 0.98186(6) 0.96813(6) 0.37680(4)
S6 S 0.93126(8) 0.82693(7) 0.42044(6)
N1 N 0.81280(13) 0.66072(13) 0.30930(10)
N2 N 0.94174(14) 0.71453(14) 0.23942(10)
N3 N 0.57762(14) 1.19706(15) 0.22844(11)
N4 N 0.73679(14) 1.23135(14) 0.24883(11)
C1 C 0.80014(15) 0.85789(16) 0.26538(11)
C2 C 0.68255(16) 1.14910(16) 0.25269(11)
C3 C 0.84913(15) 0.75168(16) 0.27137(11)
C4 C 0.88265(17) 0.57058(17) 0.30095(12)
H1 H 0.8757 0.5002 0.3215
C5 C 0.71378(17) 0.64776(16) 0.34736(13)
C6 C 0.73186(16) 1.03981(16) 0.26985(11)
C7 C 0.48367(17) 1.14950(18) 0.22307(14)
C8 C 0.96098(17) 0.60342(17) 0.25838(13)
H2 H 1.0185 0.5599 0.2438
C9 C 0.97457(19) 0.80579(17) 0.11425(13)
C10 C 1.01095(17) 0.77006(16) 0.18772(12)
C11 C 0.61634(18) 0.66535(17) 0.30596(14)
C12 C 0.83811(18) 1.22904(18) 0.28622(14)
C13 C 0.6671(2) 1.32777(18) 0.21925(17)
H3 H 0.6852 1.3951 0.2095
C14 C 1.0472(2) 0.8491(2) 0.06418(14)
H4 H 1.0259 0.8739 0.0152
C15 C 1.16150(18) 0.7206(2) 0.28940(15)
H5 H 1.1003 0.7098 0.3209
C16 C 0.61131(18) 0.70282(19) 0.22397(14)
H6 H 0.6658 0.7481 0.2090
C17 C 0.92614(19) 1.25693(19) 0.24462(16)
C18 C 0.72116(18) 0.60694(18) 0.42296(13)
C19 C 1.1841(2) 0.8184(2) 0.15896(16)
H7 H 1.2536 0.8237 0.1730
C20 C 0.46769(19) 1.1168(2) 0.16179(14)
C21 C 0.9213(2) 1.2868(2) 0.16269(16)
H8 H 0.8584 1.2629 0.1464
C22 C 0.8284(2) 0.57272(19) 0.46743(13)
H9 H 0.8842 0.6046 0.4378
C23 C 0.8644(2) 0.7913(2) 0.08908(13)
H10 H 0.8127 0.7999 0.1265
C24 C 0.8393(2) 1.2111(2) 0.36168(16)
C25 C 0.5690(2) 1.30639(19) 0.20719(16)
H11 H 0.5066 1.3561 0.1880
C26 C 1.11585(18) 0.77273(19) 0.21151(14)
C27 C 0.8245(3) 0.6063(2) 0.53811(14)
H12 H 0.7984 0.6816 0.5275
H13 H 0.8962 0.5889 0.5609
H14 H 0.7763 0.5692 0.5702
C28 C 0.7413(3) 1.1893(3) 0.40590(17)
H15 H 0.7010 1.1492 0.3827
C29 C 0.52399(19) 0.6429(2) 0.34394(17)
H16 H 0.4585 0.6513 0.3183
C30 C 1.0200(2) 1.2626(3) 0.2820(2)
H17 H 1.0803 1.2800 0.2562
C31 C 1.1500(2) 0.8556(2) 0.08658(17)
H18 H 1.1968 0.8854 0.0526
C32 C 0.5464(2) 1.1259(2) 0.10138(15)
H19 H 0.6132 1.1418 0.1191
C33 C 0.8186(3) 0.8716(2) 0.01760(15)
H20 H 0.8206 0.9424 0.0203
H21 H 0.7448 0.8655 0.0089
H22 H 0.8618 0.8573 -0.0213
C34 C 0.8630(2) 0.4508(2) 0.48721(16)
H23 H 0.8071 0.4182 0.5138
H24 H 0.9297 0.4295 0.5165
H25 H 0.8740 0.4285 0.4437
C35 C 0.3152(2) 1.1080(2) 0.2697(2)
H26 H 0.2634 1.1060 0.3047
C36 C 0.3720(2) 1.0766(2) 0.15695(18)
H27 H 0.3588 1.0524 0.1172
C37 C 0.4284(2) 1.1863(3) 0.34365(18)
H28 H 0.5057 1.1907 0.3464
C38 C 1.0236(2) 1.2365(2) 0.1311(2)
H29 H 1.0843 1.2668 0.1407
H30 H 1.0117 1.2502 0.0798
H31 H 1.0387 1.1610 0.1532
C39 C 0.40967(19) 1.1469(2) 0.27832(16)
C40 C 0.4999(2) 0.7669(2) 0.19072(17)
H32 H 0.4466 0.7216 0.2007
H33 H 0.5044 0.7938 0.1392
H34 H 0.4791 0.8254 0.2114
C41 C 0.5276(2) 0.6085(2) 0.41886(18)
H35 H 0.4642 0.5977 0.4430
C42 C 0.6251(2) 0.5901(2) 0.45785(16)
H36 H 0.6268 0.5661 0.5082
C43 C 0.2975(2) 1.0727(3) 0.2105(2)
H37 H 0.2346 1.0460 0.2064
C44 C 0.4994(4) 1.2187(4) 0.0360(2)
H38 H 0.4325 1.2063 0.0185
H39 H 0.5505 1.2243 -0.0017
H40 H 0.4858 1.2837 0.0501
C45 C 1.2299(2) 0.7874(3) 0.31762(19)
H41 H 1.2945 0.7923 0.2906
H42 H 1.2500 0.7542 0.3680
H43 H 1.1882 0.8575 0.3120
C46 C 0.9358(3) 1.2183(3) 0.39504(19)
H44 H 0.9401 1.2059 0.4451
C47 C 1.0247(3) 1.2431(3) 0.3559(2)
H45 H 1.0880 1.2465 0.3797
C48 C 0.6399(3) 0.6070(3) 0.1932(2)
H46 H 0.7095 0.5660 0.2135
H47 H 0.6427 0.6314 0.1415
H48 H 0.5853 0.5633 0.2053
C49 C 1.2313(2) 0.6118(2) 0.29394(18)
H49 H 1.1865 0.5659 0.2830
H50 H 1.2639 0.5810 0.3420
H51 H 1.2875 0.6202 0.2597
C50 C 0.8714(3) 0.6793(2) 0.08064(19)
H52 H 0.9296 0.6652 0.0498
H53 H 0.8039 0.6740 0.0595
H54 H 0.8852 0.6283 0.1274
C51 C 0.5769(3) 1.0219(4) 0.0798(2)
H55 H 0.6028 0.9645 0.1221
H56 H 0.6331 1.0284 0.0455
H57 H 0.5140 1.0077 0.0584
C52 C 0.9050(3) 1.4086(2) 0.1324(2)
H58 H 0.8377 1.4408 0.1483
H59 H 0.9028 1.4272 0.0804
H60 H 0.9643 1.4339 0.1496
C53 C 0.6651(3) 1.2942(3) 0.4051(2)
H61 H 0.7031 1.3360 0.4266
H62 H 0.6025 1.2790 0.4323
H63 H 0.6422 1.3332 0.3561
C54 C 0.3626(3) 1.2985(3) 0.3343(3)
H64 H 0.3820 1.3458 0.2907
H65 H 0.3781 1.3232 0.3751
H66 H 0.2863 1.2969 0.3313
C55 C 0.4038(4) 1.1122(4) 0.4145(2)
H67 H 0.3267 1.1142 0.4164
H68 H 0.4286 1.1345 0.4542
H69 H 0.4405 1.0408 0.4178
C56 C 0.7722(4) 1.1218(4) 0.4844(2)
H70 H 0.8252 1.0598 0.4842
H71 H 0.7084 1.1003 0.5073
H72 H 0.8022 1.1632 0.5106
O1 O 0.3489(3) 1.4734(3) 0.1477(2)
C57 C 0.3550(5) 1.5640(5) 0.0880(3)
H73 H 0.4235 1.5519 0.0650
H74 H 0.3525 1.6264 0.1055
C58 C 0.2495(6) 1.4401(6) 0.1380(4)
H75 H 0.2126 1.4219 0.1830
H76 H 0.2603 1.3803 0.1172
C59 C 0.2655(6) 1.5830(6) 0.0354(4)
H77 H 0.2422 1.6581 0.0110
H78 H 0.2824 1.5432 0.0000
C60 C 0.1885(9) 1.5420(9) 0.0848(6)
H79 H 0.1295 1.5265 0.0590
H80 H 0.1581 1.5935 0.1104
S7? S 0.9721(6) 0.8549(5) 0.3877(3)
S8? S 0.8646(6) 0.9274(6) 0.4407(4)
S9? S 0.9843(5) 0.9656(5) 0.3000(5)
H81? H 0.4194 1.5881 0.0664
H82? H 0.3349 1.5940 0.1280
H83? H 0.2920 1.5882 -0.0127
H84? H 0.2151 1.6481 0.0345
O2? O 0.3652(9) 1.4535(9) 0.1072(7)
C61? C 0.2726(16) 1.4055(16) 0.1107(12)
H85? H 0.2877 1.3398 0.0965
H86? H 0.2434 1.3920 0.1585
C62? C 0.2081(10) 1.4812(10) 0.0629(7)
H87? H 0.1401 1.5013 0.0845
H88? H 0.1918 1.4557 0.0220
loop_
_geom_bond_atom_site_label_1
_geom_bond_atom_site_label_2
_geom_bond_site_symmetry_1
_geom_bond_site_symmetry_2
P1 S1 1_555 1_555
P2 S3 1_555 1_555
S2 P1 1_555 1_555
S4 P2 1_555 1_555
S5 S2 1_555 1_555
S6 S4 1_555 1_555
N1 C3 1_555 1_555
N2 C3 1_555 1_555
N3 C2 1_555 1_555
N4 C2 1_555 1_555
C1 P1 1_555 1_555
C2 C6 1_555 1_555
C3 C1 1_555 1_555
C4 N1 1_555 1_555
H1 C4 1_555 1_555
C5 N1 1_555 1_555
C6 P1 1_555 1_555
C7 N3 1_555 1_555
C8 N2 1_555 1_555
H2 C8 1_555 1_555
C9 C10 1_555 1_555
C10 N2 1_555 1_555
C11 C5 1_555 1_555
C12 N4 1_555 1_555
C13 N4 1_555 1_555
H3 C13 1_555 1_555
C14 C9 1_555 1_555
H4 C14 1_555 1_555
C15 H5 1_555 1_555
C16 C11 1_555 1_555
H6 C16 1_555 1_555
C17 C12 1_555 1_555
C18 C5 1_555 1_555
C19 H7 1_555 1_555
C20 C7 1_555 1_555
C21 C17 1_555 1_555
H8 C21 1_555 1_555
C22 C18 1_555 1_555
H9 C22 1_555 1_555
C23 C9 1_555 1_555
H10 C23 1_555 1_555
C24 C12 1_555 1_555
C25 N3 1_555 1_555
H11 C25 1_555 1_555
C26 C10 1_555 1_555
C27 C22 1_555 1_555
H12 C27 1_555 1_555
H13 C27 1_555 1_555
H14 C27 1_555 1_555
C28 C24 1_555 1_555
H15 C28 1_555 1_555
C29 C11 1_555 1_555
H16 C29 1_555 1_555
C30 C17 1_555 1_555
H17 C30 1_555 1_555
C31 C14 1_555 1_555
H18 C31 1_555 1_555
C32 C20 1_555 1_555
H19 C32 1_555 1_555
C33 C23 1_555 1_555
H20 C33 1_555 1_555
H21 C33 1_555 1_555
H22 C33 1_555 1_555
C34 C22 1_555 1_555
H23 C34 1_555 1_555
H24 C34 1_555 1_555
H25 C34 1_555 1_555
C35 H26 1_555 1_555
C36 C20 1_555 1_555
H27 C36 1_555 1_555
C37 H28 1_555 1_555
C38 C21 1_555 1_555
H29 C38 1_555 1_555
H30 C38 1_555 1_555
H31 C38 1_555 1_555
C39 C7 1_555 1_555
C40 C16 1_555 1_555
H32 C40 1_555 1_555
H33 C40 1_555 1_555
H34 C40 1_555 1_555
C41 C29 1_555 1_555
H35 C41 1_555 1_555
C42 C18 1_555 1_555
H36 C42 1_555 1_555
C43 C35 1_555 1_555
H37 C43 1_555 1_555
C44 C32 1_555 1_555
H38 C44 1_555 1_555
H39 C44 1_555 1_555
H40 C44 1_555 1_555
C45 C15 1_555 1_555
H41 C45 1_555 1_555
H42 C45 1_555 1_555
H43 C45 1_555 1_555
C46 C24 1_555 1_555
H44 C46 1_555 1_555
C47 C30 1_555 1_555
H45 C47 1_555 1_555
C48 C16 1_555 1_555
H46 C48 1_555 1_555
H47 C48 1_555 1_555
H48 C48 1_555 1_555
C49 C15 1_555 1_555
H49 C49 1_555 1_555
H50 C49 1_555 1_555
H51 C49 1_555 1_555
C50 C23 1_555 1_555
H52 C50 1_555 1_555
H53 C50 1_555 1_555
H54 C50 1_555 1_555
C51 C32 1_555 1_555
H55 C51 1_555 1_555
H56 C51 1_555 1_555
H57 C51 1_555 1_555
C52 C21 1_555 1_555
H58 C52 1_555 1_555
H59 C52 1_555 1_555
H60 C52 1_555 1_555
C53 C28 1_555 1_555
H61 C53 1_555 1_555
H62 C53 1_555 1_555
H63 C53 1_555 1_555
C54 C37 1_555 1_555
H64 C54 1_555 1_555
H65 C54 1_555 1_555
H66 C54 1_555 1_555
C55 C37 1_555 1_555
H67 C55 1_555 1_555
H68 C55 1_555 1_555
H69 C55 1_555 1_555
C56 C28 1_555 1_555
H70 C56 1_555 1_555
H71 C56 1_555 1_555
H72 C56 1_555 1_555
O1 C57 1_555 1_555
C57 H73 1_555 1_555
H74 C57 1_555 1_555
C58 O1 1_555 1_555
H75 C58 1_555 1_555
H76 C58 1_555 1_555
C59 C57 1_555 1_555
H77 C59 1_555 1_555
H78 C59 1_555 1_555
C60 C58 1_555 1_555
H79 C60 1_555 1_555
H80 C60 1_555 1_555
P2 C1 1_555 1_555
P2 C6 1_555 1_555
S5 S6 1_555 1_555
C4 C8 1_555 1_555
C13 C25 1_555 1_555
C15 C26 1_555 1_555
C19 C26 1_555 1_555
C19 C31 1_555 1_555
C35 C39 1_555 1_555
C36 C43 1_555 1_555
C37 C39 1_555 1_555
C41 C42 1_555 1_555
C46 C47 1_555 1_555
C59 C60 1_555 1_555

#END
