
#######################################################################
#
#                 Cambridge Crystallographic Data Centre
#                                CCDC 
#
#######################################################################
#
# If this CIF has been generated from an entry in the Cambridge 
# Structural Database, then it will include bibliographic, chemical, 
# crystal, experimental, refinement or atomic coordinate data resulting 
# from the CCDC's data processing and validation procedures.
#
#######################################################################

data_QIGMAX
_chemical_formula_moiety         'C24 H31 N1 O2 Si1'
_chemical_name_systematic        
4-benzyl-3-[2-phenyl-2-(triethylsilyl)ethenyl]-1,3-oxazolidin-2-one
_symmetry_cell_setting           monoclinic
_symmetry_space_group_name_H-M   'P 21'
_symmetry_Int_Tables_number      4
_space_group_name_Hall           'P 2yb'
loop_
_symmetry_equiv_pos_site_id
_symmetry_equiv_pos_as_xyz
1 x,y,z
2 -x,1/2+y,-z
_cell_length_a                   8.1721(3)
_cell_length_b                   10.6004(5)
_cell_length_c                   13.6501(5)
_cell_angle_alpha                90
_cell_angle_beta                 95.223(3)
_cell_angle_gamma                90
_cell_volume                     1177.56
_exptl_crystal_colour            colorless
_exptl_crystal_description       block
_cell_formula_units_Z            2
loop_
_atom_site_label
_atom_site_type_symbol
_atom_site_fract_x
_atom_site_fract_y
_atom_site_fract_z
Si1 Si 0.94937(9) 0.42932(7) 0.14615(5)
O1 O 0.9165(3) 0.2362(2) 0.47870(15)
O2 O 1.0963(2) 0.2636(2) 0.36616(16)
C1 C 0.3785(3) 0.4334(4) 0.5154(2)
H1 H 0.351800 0.381099 0.461597
C2 C 0.2775(4) 0.4366(4) 0.5909(3)
H2 H 0.184267 0.385926 0.587966
C3 C 0.3138(4) 0.5139(4) 0.6701(3)
H3 H 0.245158 0.516207 0.720784
C4 C 0.4514(4) 0.5877(3) 0.6744(3)
H4 H 0.475934 0.640687 0.728057
C5 C 0.5539(4) 0.5839(3) 0.5996(3)
H5 H 0.647869 0.633852 0.603665
C6 C 0.5190(3) 0.5068(3) 0.5184(2)
C7 C 0.6327(3) 0.4994(4) 0.4376(2)
H6 H 0.653638 0.583798 0.414296
H7 H 0.579942 0.451663 0.382829
C8 C 0.7952(3) 0.4368(3) 0.47296(18)
H8 H 0.853876 0.488313 0.524435
C9 C 0.7766(4) 0.3037(3) 0.5097(2)
H9 H 0.777125 0.302345 0.580742
H10 H 0.674787 0.266547 0.481020
C10 C 0.9830(3) 0.3023(3) 0.4076(2)
C11 C 0.9718(3) 0.5207(3) 0.3492(2)
H11 H 0.996849 0.589384 0.390201
C12 C 1.0062(3) 0.5329(2) 0.2569(2)
C13 C 1.0914(3) 0.6548(3) 0.23561(19)
C14 C 1.0058(4) 0.7660(3) 0.2221(3)
H12 H 0.892353 0.765343 0.223902
C15 C 1.0840(5) 0.8791(4) 0.2060(3)
H13 H 1.023035 0.952891 0.196769
C16 C 1.2501(6) 0.8821(4) 0.2036(2)
H14 H 1.303233 0.957692 0.192796
C17 C 1.3372(4) 0.7739(4) 0.2172(3)
H15 H 1.450838 0.775739 0.216220
C18 C 1.2593(4) 0.6600(3) 0.2326(3)
H16 H 1.321139 0.586560 0.241039
C19 C 0.6527(5) 0.5677(5) 0.0914(4)
H17 H 0.594321 0.620199 0.042726
H18 H 0.590520 0.492289 0.100119
H19 H 0.667987 0.612529 0.152691
C20 C 0.8196(4) 0.5328(4) 0.0578(2)
H20 H 0.879825 0.609822 0.047448
H21 H 0.802474 0.489762 -0.005045
C21 C 1.2596(5) 0.3015(4) 0.1470(3)
H22 H 1.352078 0.284885 0.110380
H23 H 1.296345 0.342724 0.207683
H24 H 1.206839 0.223413 0.160884
C22 C 1.1397(4) 0.3853(3) 0.0877(2)
H25 H 1.107033 0.343329 0.025834
H26 H 1.196271 0.462284 0.072493
C23 C 0.7652(5) 0.2124(4) 0.0801(3)
H27 H 0.704443 0.140060 0.098595
H28 H 0.694975 0.265888 0.037999
H29 H 0.856585 0.185416 0.045884
C24 C 0.8286(4) 0.2857(3) 0.1726(2)
H30 H 0.897151 0.230344 0.215449
H31 H 0.735652 0.310760 0.207570
N1 N 0.9007(2) 0.4142(2) 0.39318(14)
loop_
_geom_bond_atom_site_label_1
_geom_bond_atom_site_label_2
_geom_bond_site_symmetry_1
_geom_bond_site_symmetry_2
Si1 C12 1_555 1_555
O1 C9 1_555 1_555
O2 C10 1_555 1_555
C1 H1 1_555 1_555
C2 C1 1_555 1_555
H2 C2 1_555 1_555
C3 C2 1_555 1_555
H3 C3 1_555 1_555
C4 C3 1_555 1_555
H4 C4 1_555 1_555
C5 C4 1_555 1_555
H5 C5 1_555 1_555
C6 C1 1_555 1_555
C7 C6 1_555 1_555
H6 C7 1_555 1_555
H7 C7 1_555 1_555
C8 C7 1_555 1_555
H8 C8 1_555 1_555
C9 C8 1_555 1_555
H9 C9 1_555 1_555
H10 C9 1_555 1_555
C10 O1 1_555 1_555
C11 H11 1_555 1_555
C12 C11 1_555 1_555
C13 C12 1_555 1_555
C14 C13 1_555 1_555
H12 C14 1_555 1_555
C15 C14 1_555 1_555
H13 C15 1_555 1_555
C16 C15 1_555 1_555
H14 C16 1_555 1_555
C17 C16 1_555 1_555
H15 C17 1_555 1_555
C18 C13 1_555 1_555
H16 C18 1_555 1_555
C19 H17 1_555 1_555
H18 C19 1_555 1_555
H19 C19 1_555 1_555
C20 Si1 1_555 1_555
H20 C20 1_555 1_555
H21 C20 1_555 1_555
C21 H22 1_555 1_555
H23 C21 1_555 1_555
H24 C21 1_555 1_555
C22 Si1 1_555 1_555
H25 C22 1_555 1_555
H26 C22 1_555 1_555
C23 H27 1_555 1_555
H28 C23 1_555 1_555
H29 C23 1_555 1_555
C24 Si1 1_555 1_555
H30 C24 1_555 1_555
H31 C24 1_555 1_555
N1 C8 1_555 1_555
C5 C6 1_555 1_555
C10 N1 1_555 1_555
C11 N1 1_555 1_555
C17 C18 1_555 1_555
C19 C20 1_555 1_555
C21 C22 1_555 1_555
C23 C24 1_555 1_555

#END
