
#######################################################################
#
#                 Cambridge Crystallographic Data Centre
#                                CCDC 
#
#######################################################################
#
# If this CIF has been generated from an entry in the Cambridge 
# Structural Database, then it will include bibliographic, chemical, 
# crystal, experimental, refinement or atomic coordinate data resulting 
# from the CCDC's data processing and validation procedures.
#
#######################################################################

data_QIGPUT
_chemical_formula_moiety         'C17 H25 N2 1+,I1 1-'
_chemical_name_systematic        
'3-Cyclohexyl-1-isopropyl-1,4-dihydroquinazolin-3-ium iodide'
_symmetry_cell_setting           orthorhombic
_symmetry_space_group_name_H-M   'P 21 21 21'
_symmetry_Int_Tables_number      19
_space_group_name_Hall           'P 2ac 2ab'
loop_
_symmetry_equiv_pos_site_id
_symmetry_equiv_pos_as_xyz
1 x,y,z
2 1/2-x,-y,1/2+z
3 -x,1/2+y,1/2-z
4 1/2+x,1/2-y,-z
_cell_length_a                   7.175(4)
_cell_length_b                   11.396(7)
_cell_length_c                   21.660(12)
_cell_angle_alpha                90
_cell_angle_beta                 90
_cell_angle_gamma                90
_cell_volume                     1771.06
_exptl_crystal_colour            orange
_exptl_crystal_description       prism
_cell_formula_units_Z            4
loop_
_atom_site_label
_atom_site_type_symbol
_atom_site_fract_x
_atom_site_fract_y
_atom_site_fract_z
I1 I 0.11740(3) 0.25495(3) 0.844447(11)
N1 N 0.1372(5) 0.0387(2) 0.19239(12)
N2 N 0.1876(4) 0.0544(2) 0.08663(12)
C1 C 0.0957(5) 0.0806(3) 0.13817(15)
C2 C 0.3088(6) -0.0274(4) 0.20198(17)
H1 H 0.2894 -0.0858 0.2339
H2 H 0.4067 0.0253 0.2156
C3 C 0.3677(5) -0.0870(3) 0.14337(15)
C4 C 0.4785(6) -0.1852(4) 0.1451(2)
H3 H 0.5104 -0.2181 0.1830
C5 C 0.5429(6) -0.2354(4) 0.0915(2)
H4 H 0.6202 -0.3009 0.0931
C6 C 0.4922(7) -0.1881(4) 0.0354(2)
H5 H 0.5352 -0.2220 -0.0010
C7 C 0.3791(6) -0.0917(3) 0.03292(18)
H6 H 0.3455 -0.0602 -0.0051
C8 C 0.3144(5) -0.0406(3) 0.08689(16)
C9 C 0.0158(5) 0.0676(3) 0.24535(15)
H7 H -0.0757 0.1254 0.2311
C10 C 0.1266(6) 0.1241(3) 0.29717(17)
H8 H 0.1918 0.1926 0.2817
H9 H 0.2185 0.0691 0.3127
C11 C -0.0053(7) 0.1599(5) 0.3491(2)
H10 H 0.0660 0.1935 0.3828
H11 H -0.0911 0.2192 0.3342
C12 C -0.1130(8) 0.0562(5) 0.3721(2)
H12 H -0.0279 -0.0001 0.3903
H13 H -0.1993 0.0815 0.4039
C13 C -0.2189(8) -0.0012(6) 0.3209(2)
H14 H -0.3128 0.0526 0.3055
H15 H -0.2821 -0.0702 0.3367
C14 C -0.0896(7) -0.0368(4) 0.2680(2)
H16 H -0.0030 -0.0963 0.2822
H17 H -0.1625 -0.0699 0.2345
C15 C 0.1240(6) 0.1106(3) 0.02761(15)
H18 H 0.2275 0.1056 -0.0018
C16 C 0.0810(6) 0.2392(3) 0.03694(17)
H19 H -0.0327 0.2471 0.0599
H20 H 0.0673 0.2767 -0.0025
H21 H 0.1810 0.2756 0.0593
C17 C -0.0360(8) 0.0431(4) 0.00072(19)
H22 H -0.0073 -0.0392 0.0011
H23 H -0.0571 0.0683 -0.0410
H24 H -0.1460 0.0570 0.0248
H25 H -0.010(4) 0.129(2) 0.1364(12)
loop_
_geom_bond_atom_site_label_1
_geom_bond_atom_site_label_2
_geom_bond_site_symmetry_1
_geom_bond_site_symmetry_2
N1 C1 1_555 1_555
N2 C1 1_555 1_555
C1 H25 1_555 1_555
C2 N1 1_555 1_555
H1 C2 1_555 1_555
H2 C2 1_555 1_555
C3 C2 1_555 1_555
C4 C3 1_555 1_555
H3 C4 1_555 1_555
C5 C4 1_555 1_555
H4 C5 1_555 1_555
C6 C5 1_555 1_555
H5 C6 1_555 1_555
C7 C6 1_555 1_555
H6 C7 1_555 1_555
C8 N2 1_555 1_555
C9 N1 1_555 1_555
H7 C9 1_555 1_555
C10 C9 1_555 1_555
H8 C10 1_555 1_555
H9 C10 1_555 1_555
C11 C10 1_555 1_555
H10 C11 1_555 1_555
H11 C11 1_555 1_555
C12 C11 1_555 1_555
H12 C12 1_555 1_555
H13 C12 1_555 1_555
C13 C12 1_555 1_555
H14 C13 1_555 1_555
H15 C13 1_555 1_555
C14 C9 1_555 1_555
H16 C14 1_555 1_555
H17 C14 1_555 1_555
C15 N2 1_555 1_555
H18 C15 1_555 1_555
C16 C15 1_555 1_555
H19 C16 1_555 1_555
H20 C16 1_555 1_555
H21 C16 1_555 1_555
C17 C15 1_555 1_555
H22 C17 1_555 1_555
H23 C17 1_555 1_555
H24 C17 1_555 1_555
C3 C8 1_555 1_555
C7 C8 1_555 1_555
C13 C14 1_555 1_555

#END
