
#######################################################################
#
#                 Cambridge Crystallographic Data Centre
#                                CCDC 
#
#######################################################################
#
# If this CIF has been generated from an entry in the Cambridge 
# Structural Database, then it will include bibliographic, chemical, 
# crystal, experimental, refinement or atomic coordinate data resulting 
# from the CCDC's data processing and validation procedures.
#
#######################################################################

data_QIHWOW
_chemical_compound_source        'Aspergillus sp.'
_chemical_formula_moiety         'C19 H15 N3 O4,C2 H6 O1 S1'
_chemical_name_systematic        
'4-[(2-hydroxyphenyl)methyl]-2-methyl-2H-pyrazino[2,1-b]quinazoline-1,3,6(4H)-trione dimethyl sulfoxide solvate'
_symmetry_cell_setting           orthorhombic
_symmetry_space_group_name_H-M   'P 21 21 21'
_symmetry_Int_Tables_number      19
_space_group_name_Hall           'P 2ac 2ab'
loop_
_symmetry_equiv_pos_site_id
_symmetry_equiv_pos_as_xyz
1 x,y,z
2 1/2-x,-y,1/2+z
3 1/2+x,1/2-y,-z
4 -x,1/2+y,1/2-z
_cell_length_a                   8.8137(3)
_cell_length_b                   10.3731(5)
_cell_length_c                   22.7161(9)
_cell_angle_alpha                90
_cell_angle_beta                 90
_cell_angle_gamma                90
_cell_volume                     2076.83
_exptl_crystal_colour            colorless
_cell_formula_units_Z            4
_exptl_crystal_recrystallization_method MeOH/acetone/DMSO
loop_
_atom_site_label
_atom_site_type_symbol
_atom_site_fract_x
_atom_site_fract_y
_atom_site_fract_z
S1 S 0.52464(16) 0.35395(14) 0.25907(6)
O1 O 0.5723(5) 0.3195(5) 0.19924(16)
C1 C 0.4679(9) 0.2136(8) 0.2931(4)
H1 H 0.5401 0.1466 0.2850
H2 H 0.3701 0.1886 0.2784
H3 H 0.4619 0.2273 0.3348
C2 C 0.6937(7) 0.3781(7) 0.2983(3)
H4 H 0.7623 0.3082 0.2905
H5 H 0.6720 0.3814 0.3397
H6 H 0.7394 0.4578 0.2862
N1 N 0.5320(4) 0.9178(3) 0.48143(14)
N2 N 0.4733(4) 0.8135(3) 0.59297(13)
N3 N 0.6241(4) 0.6355(3) 0.56540(14)
O2 O 0.7409(3) 0.8689(4) 0.66746(12)
H7 H 0.8077 0.8189 0.6779
O3 O 0.3679(4) 1.0795(3) 0.50157(14)
O4 O 0.7144(4) 0.7674(3) 0.46934(13)
O5 O 0.3250(4) 0.8148(3) 0.67519(13)
C3 C 0.7946(5) 0.9457(4) 0.62353(17)
C4 C 0.9406(5) 0.9348(5) 0.60156(18)
H8 H 1.0058 0.8731 0.6171
C5 C 0.9904(5) 1.0140(5) 0.5570(2)
H9 H 1.0880 1.0044 0.5421
C6 C 0.8959(5) 1.1076(5) 0.5345(2)
H10 H 0.9301 1.1630 0.5051
C7 C 0.7500(5) 1.1183(4) 0.5559(2)
H11 H 0.6864 1.1816 0.5407
C8 C 0.6957(5) 1.0368(4) 0.59965(18)
C9 C 0.5301(5) 1.0419(4) 0.61766(18)
H12 H 0.4923 1.1288 0.6121
H13 H 0.5218 1.0212 0.6592
C10 C 0.4306(4) 0.9470(4) 0.58188(17)
H14 H 0.3257 0.9578 0.5954
C11 C 0.4355(5) 0.9853(4) 0.51825(19)
C12 C 0.6153(5) 0.8127(4) 0.49951(17)
C13 C 0.5708(4) 0.7500(4) 0.55660(17)
C14 C 0.5598(7) 0.9678(6) 0.42198(19)
H15 H 0.6619 0.9996 0.4194
H16 H 0.4900 1.0366 0.4138
H17 H 0.5457 0.8999 0.3938
C15 C 0.5709(5) 0.5708(4) 0.61443(17)
C16 C 0.4659(5) 0.6245(4) 0.65337(15)
C17 C 0.4128(5) 0.7559(4) 0.64359(18)
C18 C 0.6252(5) 0.4451(4) 0.6248(2)
H18 H 0.6961 0.4082 0.5996
C19 C 0.5719(6) 0.3779(5) 0.6726(2)
H19 H 0.6073 0.2947 0.6794
C20 C 0.4673(6) 0.4307(5) 0.7109(2)
H20 H 0.4326 0.3832 0.7430
C21 C 0.4147(5) 0.5534(5) 0.70156(18)
H21 H 0.3446 0.5894 0.7274
loop_
_geom_bond_atom_site_label_1
_geom_bond_atom_site_label_2
_geom_bond_site_symmetry_1
_geom_bond_site_symmetry_2
S1 O1 1_555 1_555
C1 S1 1_555 1_555
H1 C1 1_555 1_555
H2 C1 1_555 1_555
H3 C1 1_555 1_555
C2 S1 1_555 1_555
H4 C2 1_555 1_555
H5 C2 1_555 1_555
H6 C2 1_555 1_555
N1 C11 1_555 1_555
N2 C10 1_555 1_555
N3 C13 1_555 1_555
O2 H7 1_555 1_555
O3 C11 1_555 1_555
O4 C12 1_555 1_555
O5 C17 1_555 1_555
C3 O2 1_555 1_555
C4 C3 1_555 1_555
H8 C4 1_555 1_555
C5 C4 1_555 1_555
H9 C5 1_555 1_555
C6 C5 1_555 1_555
H10 C6 1_555 1_555
C7 C6 1_555 1_555
H11 C7 1_555 1_555
C8 C3 1_555 1_555
C9 C8 1_555 1_555
H12 C9 1_555 1_555
H13 C9 1_555 1_555
C10 C9 1_555 1_555
H14 C10 1_555 1_555
C11 C10 1_555 1_555
C12 N1 1_555 1_555
C13 N2 1_555 1_555
C14 N1 1_555 1_555
H15 C14 1_555 1_555
H16 C14 1_555 1_555
H17 C14 1_555 1_555
C15 N3 1_555 1_555
C16 C15 1_555 1_555
C17 N2 1_555 1_555
C18 C15 1_555 1_555
H18 C18 1_555 1_555
C19 C18 1_555 1_555
H19 C19 1_555 1_555
C20 C19 1_555 1_555
H20 C20 1_555 1_555
C21 C16 1_555 1_555
H21 C21 1_555 1_555
C7 C8 1_555 1_555
C12 C13 1_555 1_555
C16 C17 1_555 1_555
C20 C21 1_555 1_555

#END
