
#######################################################################
#
#                 Cambridge Crystallographic Data Centre
#                                CCDC 
#
#######################################################################
#
# If this CIF has been generated from an entry in the Cambridge 
# Structural Database, then it will include bibliographic, chemical, 
# crystal, experimental, refinement or atomic coordinate data resulting 
# from the CCDC's data processing and validation procedures.
#
#######################################################################

data_QIHYUD
_chemical_formula_moiety         'C5 H17 B11'
_chemical_name_systematic        
1,2-(propane-1,3-diyl)-1,2-dicarba-closo-dodecaborane
_symmetry_cell_setting           monoclinic
_symmetry_space_group_name_H-M   'P 21/c'
_symmetry_Int_Tables_number      14
_space_group_name_Hall           '-P 2ybc'
loop_
_symmetry_equiv_pos_site_id
_symmetry_equiv_pos_as_xyz
1 x,y,z
2 -x,1/2+y,1/2-z
3 -x,-y,-z
4 x,1/2-y,1/2+z
_cell_length_a                   7.381(6)
_cell_length_b                   13.807(12)
_cell_length_c                   12.919(11)
_cell_angle_alpha                90
_cell_angle_beta                 105.673(17)
_cell_angle_gamma                90
_cell_volume                     1267.62
_exptl_crystal_colour            colorless
_exptl_crystal_description       block
_cell_formula_units_Z            4
loop_
_atom_site_label
_atom_site_type_symbol
_atom_site_fract_x
_atom_site_fract_y
_atom_site_fract_z
C1 C 0.3322(3) 0.16181(15) 0.38730(16)
C2 C 0.3133(3) 0.21378(15) 0.28999(16)
C3 C 0.4926(4) 0.2069(2) 0.4757(2)
H1 H 0.4530 0.2181 0.5405
H2 H 0.6020 0.1649 0.4930
C4 C 0.5355(6) 0.3003(3) 0.4292(3)
H3 H 0.4775 0.3536 0.4573
H4 H 0.6704 0.3109 0.4485
C5 C 0.4603(5) 0.2954(2) 0.3099(2)
H5 H 0.5599 0.2804 0.2764
H6 H 0.4026 0.3564 0.2814
B1 B 0.0896(4) 0.20831(18) 0.3331(2)
H7 H 0.0734 0.2811 0.3639
B2 B 0.1357(4) 0.21501(18) 0.1873(2)
H8 H 0.1293 0.2793 0.1361
B3 B 0.3017(4) 0.1128(2) 0.1994(2)
H9 H 0.4227 0.1089 0.1651
B4 B 0.3300(4) 0.04089(19) 0.3335(2)
H10 H 0.4654 0.0031 0.3628
B5 B 0.1843(4) 0.09010(19) 0.4172(2)
H11 H 0.2083 0.0787 0.5041
B6 B -0.0753(4) 0.1614(2) 0.2086(2)
H12 H -0.2087 0.1999 0.1746
B7 B 0.0541(4) 0.1038(2) 0.1276(2)
H13 H 0.0057 0.1008 0.0394
B8 B 0.1774(4) 0.0064(2) 0.2095(3)
H14 H 0.2178 -0.0586 0.1719
B9 B 0.0959(5) -0.0043(2) 0.3286(3)
H15 H 0.0732 -0.0744 0.3636
B10 B -0.0499(4) 0.0963(2) 0.3283(3)
H16 H -0.1675 0.0953 0.3655
B11 B -0.0604(4) 0.0339(2) 0.2057(3)
H17 H -0.1797 -0.0123 0.1647
loop_
_geom_bond_atom_site_label_1
_geom_bond_atom_site_label_2
_geom_bond_site_symmetry_1
_geom_bond_site_symmetry_2
C1 C2 1_555 1_555
C2 C5 1_555 1_555
C3 C1 1_555 1_555
H1 C3 1_555 1_555
H2 C3 1_555 1_555
C4 C3 1_555 1_555
H3 C4 1_555 1_555
H4 C4 1_555 1_555
C5 C4 1_555 1_555
H5 C5 1_555 1_555
H6 C5 1_555 1_555
B1 C1 1_555 1_555
H7 B1 1_555 1_555
B2 C2 1_555 1_555
H8 B2 1_555 1_555
B3 C2 1_555 1_555
H9 B3 1_555 1_555
B4 C1 1_555 1_555
H10 B4 1_555 1_555
B5 C1 1_555 1_555
H11 B5 1_555 1_555
B6 B1 1_555 1_555
H12 B6 1_555 1_555
B7 B2 1_555 1_555
H13 B7 1_555 1_555
B8 B3 1_555 1_555
H14 B8 1_555 1_555
B9 B4 1_555 1_555
H15 B9 1_555 1_555
B10 B1 1_555 1_555
H16 B10 1_555 1_555
B11 B6 1_555 1_555
H17 B11 1_555 1_555
C2 B1 1_555 1_555
B1 B2 1_555 1_555
B1 B5 1_555 1_555
B2 B3 1_555 1_555
B2 B6 1_555 1_555
B3 B4 1_555 1_555
B3 B7 1_555 1_555
B4 B5 1_555 1_555
B4 B8 1_555 1_555
B5 B9 1_555 1_555
B5 B10 1_555 1_555
B6 B7 1_555 1_555
B6 B10 1_555 1_555
B7 B8 1_555 1_555
B7 B11 1_555 1_555
B8 B9 1_555 1_555
B8 B11 1_555 1_555
B9 B10 1_555 1_555
B9 B11 1_555 1_555
B10 B11 1_555 1_555

#END
