
#######################################################################
#
#                 Cambridge Crystallographic Data Centre
#                                CCDC 
#
#######################################################################
#
# If this CIF has been generated from an entry in the Cambridge 
# Structural Database, then it will include bibliographic, chemical, 
# crystal, experimental, refinement or atomic coordinate data resulting 
# from the CCDC's data processing and validation procedures.
#
#######################################################################

data_QIJHIA
_chemical_formula_moiety         'C13 H16 O1'
_chemical_name_systematic        
trans-6,8-Dimethyl-5,6,8,9-tetrahydro-7H-benzocyclohepten-7-one
_symmetry_cell_setting           triclinic
_symmetry_space_group_name_H-M   'P -1'
_symmetry_Int_Tables_number      2
_space_group_name_Hall           '-P 1'
loop_
_symmetry_equiv_pos_site_id
_symmetry_equiv_pos_as_xyz
1 x,y,z
2 -x,-y,-z
_cell_length_a                   8.780(1)
_cell_length_b                   9.504(3)
_cell_length_c                   13.769(3)
_cell_angle_alpha                85.46(2)
_cell_angle_beta                 84.51(1)
_cell_angle_gamma                75.72(2)
_cell_volume                     1106.51
_exptl_crystal_colour            colorless
_chemical_melting_point          '328-329 K'
_cell_formula_units_Z            4
loop_
_atom_site_label
_atom_site_type_symbol
_atom_site_fract_x
_atom_site_fract_y
_atom_site_fract_z
O1 O 0.3526(2) 0.3146(2) -0.2341(1)
C1 C 0.1716(2) 0.1044(2) 0.0211(1)
C2 C 0.1269(2) 0.0834(2) 0.1205(2)
C3 C 0.1461(3) -0.0540(3) 0.1654(2)
C4 C 0.2106(3) -0.1728(3) 0.1121(2)
C5 C 0.2538(2) -0.1542(2) 0.0136(2)
C6 C 0.2356(2) -0.0171(2) -0.0329(1)
C7 C 0.2860(2) -0.0019(2) -0.1402(1)
C8 C 0.4251(2) 0.0721(2) -0.1655(1)
C9 C 0.3651(2) 0.2345(2) -0.1605(1)
C10 C 0.3100(2) 0.2955(2) -0.0611(2)
C11 C 0.1525(2) 0.2559(2) -0.0243(2)
C12 C 0.5059(3) 0.0307(3) -0.2662(2)
C13 C 0.2911(3) 0.4602(3) -0.0656(2)
H1 H 0.0824 0.1656 0.1579
H2 H 0.1147 -0.0661 0.2329
H3 H 0.2258 -0.2678 0.1427
H4 H 0.2970 -0.2374 -0.0231
H5 H 0.1979 0.0541 -0.1723
H6 H 0.3166 -0.0965 -0.1644
H7 H 0.5017 0.0391 -0.1193
H8 H 0.3873 0.2538 -0.0166
H9 H 0.0994 0.3223 0.0230
H10 H 0.0902 0.2657 -0.0783
H11 H 0.5907 0.0766 -0.2807
H12 H 0.5454 -0.0719 -0.2661
H13 H 0.4320 0.0615 -0.3142
H14 H 0.3888 0.4820 -0.0883
H15 H 0.2135 0.5058 -0.1091
H16 H 0.2593 0.4951 -0.0023
O2 O 1.0698(2) 0.1054(2) 0.3908(1)
C14 C 0.7815(2) 0.3573(2) 0.6192(1)
C15 C 0.6503(3) 0.4541(2) 0.6609(2)
C16 C 0.6655(3) 0.5475(3) 0.7291(2)
C17 C 0.8121(3) 0.5459(3) 0.7565(2)
C18 C 0.9439(3) 0.4480(2) 0.7167(1)
C19 C 0.9302(2) 0.3524(2) 0.6489(1)
C20 C 1.0759(2) 0.2445(2) 0.6100(1)
C21 C 1.1245(2) 0.2653(2) 0.4997(1)
C22 C 1.0188(2) 0.2116(2) 0.4386(1)
C23 C 0.8457(2) 0.2903(2) 0.4403(1)
C24 C 0.7608(2) 0.2620(2) 0.5413(2)
C25 C 1.2979(3) 0.1880(3) 0.4789(2)
C26 C 0.7661(3) 0.2430(3) 0.3582(2)
H17 H 0.5486 0.4558 0.6420
H18 H 0.5748 0.6127 0.7570
H19 H 0.8235 0.6114 0.8025
H20 H 1.0451 0.4467 0.7363
H21 H 1.0577 0.1499 0.6216
H22 H 1.1613 0.2515 0.6453
H23 H 1.1123 0.3660 0.4823
H24 H 0.8382 0.3917 0.4297
H25 H 0.6514 0.2783 0.5337
H26 H 0.8013 0.1634 0.5626
H27 H 1.3279 0.2007 0.4112
H28 H 1.3612 0.2281 0.5158
H29 H 1.3124 0.0872 0.4967
H30 H 0.8196 0.2612 0.2969
H31 H 0.7702 0.1421 0.3678
H32 H 0.6592 0.2965 0.3590
loop_
_geom_bond_atom_site_label_1
_geom_bond_atom_site_label_2
_geom_bond_site_symmetry_1
_geom_bond_site_symmetry_2
O1 C9 1_555 1_555
C1 C2 1_555 1_555
C2 C3 1_555 1_555
C3 C4 1_555 1_555
C4 C5 1_555 1_555
C5 C6 1_555 1_555
C6 C1 1_555 1_555
C7 C6 1_555 1_555
C8 C7 1_555 1_555
C9 C8 1_555 1_555
C10 C9 1_555 1_555
C11 C1 1_555 1_555
C12 C8 1_555 1_555
C13 C10 1_555 1_555
O2 C22 1_555 1_555
C14 C15 1_555 1_555
C15 C16 1_555 1_555
C16 C17 1_555 1_555
C17 C18 1_555 1_555
C18 C19 1_555 1_555
C19 C14 1_555 1_555
C20 C19 1_555 1_555
C21 C20 1_555 1_555
C22 C21 1_555 1_555
C23 C22 1_555 1_555
C24 C14 1_555 1_555
C25 C21 1_555 1_555
C26 C23 1_555 1_555
H1 C2 1_555 1_555
H2 C3 1_555 1_555
H3 C4 1_555 1_555
H4 C5 1_555 1_555
H5 C7 1_555 1_555
H6 C7 1_555 1_555
H7 C8 1_555 1_555
H8 C10 1_555 1_555
H9 C11 1_555 1_555
H10 C11 1_555 1_555
H11 C12 1_555 1_555
H12 C12 1_555 1_555
H13 C12 1_555 1_555
H14 C13 1_555 1_555
H15 C13 1_555 1_555
H16 C13 1_555 1_555
H17 C15 1_555 1_555
H18 C16 1_555 1_555
H19 C17 1_555 1_555
H20 C18 1_555 1_555
H21 C20 1_555 1_555
H22 C20 1_555 1_555
H23 C21 1_555 1_555
H24 C23 1_555 1_555
H25 C24 1_555 1_555
H26 C24 1_555 1_555
H27 C25 1_555 1_555
H28 C25 1_555 1_555
H29 C25 1_555 1_555
H30 C26 1_555 1_555
H31 C26 1_555 1_555
H32 C26 1_555 1_555
C10 C11 1_555 1_555
C23 C24 1_555 1_555

#END
