
#######################################################################
#
#                 Cambridge Crystallographic Data Centre
#                                CCDC 
#
#######################################################################
#
# If this CIF has been generated from an entry in the Cambridge 
# Structural Database, then it will include bibliographic, chemical, 
# crystal, experimental, refinement or atomic coordinate data resulting 
# from the CCDC's data processing and validation procedures.
#
#######################################################################

data_QIJHOG
_chemical_formula_moiety         'C15 H20 O2'
_chemical_name_systematic        
trans-7-Acetoxy-6,8-dimethyl-5,6,8,9-tetrahydro-7H-benzocycloheptene
_symmetry_cell_setting           monoclinic
_symmetry_space_group_name_H-M   'P 21/n'
_symmetry_Int_Tables_number      14
_space_group_name_Hall           '-P 2yn'
loop_
_symmetry_equiv_pos_site_id
_symmetry_equiv_pos_as_xyz
1 x,y,z
2 1/2+x,1/2-y,1/2+z
3 -x,-y,-z
4 1/2-x,1/2+y,1/2-z
_cell_length_a                   5.860(2)
_cell_length_b                   14.158(3)
_cell_length_c                   16.168(3)
_cell_angle_alpha                90
_cell_angle_beta                 91.48(2)
_cell_angle_gamma                90
_cell_volume                     1340.94
_exptl_crystal_colour            colorless
_exptl_crystal_description       needle
_cell_formula_units_Z            4
loop_
_atom_site_label
_atom_site_type_symbol
_atom_site_fract_x
_atom_site_fract_y
_atom_site_fract_z
O1 O 0.2829(4) 0.3785(2) 0.3843(1)
O2 O -0.0607(4) 0.4470(2) 0.3989(2)
C1 C 0.6231(5) 0.1563(2) 0.3169(2)
C2 C 0.7209(6) 0.0890(3) 0.2665(2)
C3 C 0.8231(7) 0.0090(3) 0.3001(3)
C4 C 0.8289(7) -0.0041(3) 0.3840(3)
C5 C 0.7322(6) 0.0627(3) 0.4353(3)
C6 C 0.6286(5) 0.1436(2) 0.4021(2)
C7 C 0.5247(6) 0.2150(3) 0.4595(2)
C8 C 0.2636(5) 0.2256(3) 0.4492(2)
C9 C 0.1856(5) 0.2838(2) 0.3752(2)
C10 C 0.2509(5) 0.2474(3) 0.2902(2)
C11 C 0.5093(5) 0.2418(3) 0.2784(2)
C12 C 0.1675(6) 0.2675(3) 0.5293(2)
C13 C 0.1394(6) 0.3078(3) 0.2219(2)
C14 C 0.1417(6) 0.4524(3) 0.3959(2)
C15 C 0.2789(7) 0.5420(3) 0.4016(3)
H1 H 0.7178 0.0979 0.2082
H2 H 0.8891 -0.0368 0.2650
H3 H 0.8991 -0.0589 0.4072
H4 H 0.7365 0.0533 0.4935
H5 H 0.5924 0.2747 0.4493
H6 H 0.5588 0.1962 0.5148
H7 H 0.2052 0.1640 0.4391
H8 H 0.0236 0.2813 0.3758
H9 H 0.1951 0.1845 0.2866
H10 H 0.5362 0.2410 0.2207
H11 H 0.5771 0.2966 0.3024
H12 H 0.0066 0.2741 0.5232
H13 H 0.2023 0.2264 0.5744
H14 H 0.2343 0.3276 0.5397
H15 H -0.0205 0.3108 0.2297
H16 H 0.2017 0.3697 0.2239
H17 H 0.1678 0.2803 0.1695
H18 H 0.2930 0.5625 0.4590
H19 H 0.2102 0.5923 0.3703
H20 H 0.4311 0.5329 0.3820
loop_
_geom_bond_atom_site_label_1
_geom_bond_atom_site_label_2
_geom_bond_site_symmetry_1
_geom_bond_site_symmetry_2
O1 C9 1_555 1_555
O2 C14 1_555 1_555
C1 C2 1_555 1_555
C2 C3 1_555 1_555
C3 C4 1_555 1_555
C4 C5 1_555 1_555
C5 C6 1_555 1_555
C6 C1 1_555 1_555
C7 C6 1_555 1_555
C8 C7 1_555 1_555
C9 C8 1_555 1_555
C10 C9 1_555 1_555
C11 C1 1_555 1_555
C12 C8 1_555 1_555
C13 C10 1_555 1_555
C14 O1 1_555 1_555
C15 C14 1_555 1_555
H1 C2 1_555 1_555
H2 C3 1_555 1_555
H3 C4 1_555 1_555
H4 C5 1_555 1_555
H5 C7 1_555 1_555
H6 C7 1_555 1_555
H7 C8 1_555 1_555
H8 C9 1_555 1_555
H9 C10 1_555 1_555
H10 C11 1_555 1_555
H11 C11 1_555 1_555
H12 C12 1_555 1_555
H13 C12 1_555 1_555
H14 C12 1_555 1_555
H15 C13 1_555 1_555
H16 C13 1_555 1_555
H17 C13 1_555 1_555
H18 C15 1_555 1_555
H19 C15 1_555 1_555
H20 C15 1_555 1_555
C10 C11 1_555 1_555

#END
