
#######################################################################
#
#                 Cambridge Crystallographic Data Centre
#                                CCDC 
#
#######################################################################
#
# If this CIF has been generated from an entry in the Cambridge 
# Structural Database, then it will include bibliographic, chemical, 
# crystal, experimental, refinement or atomic coordinate data resulting 
# from the CCDC's data processing and validation procedures.
#
#######################################################################

data_QIJMEB
_chemical_formula_moiety         'C13 H16 O5'
_chemical_name_systematic        3-O-Benzyl-1,6-anhydro-\b-L-idopyranose
_symmetry_cell_setting           orthorhombic
_symmetry_space_group_name_H-M   'P 21 21 21'
_symmetry_Int_Tables_number      19
_space_group_name_Hall           'P 2ac 2ab'
loop_
_symmetry_equiv_pos_site_id
_symmetry_equiv_pos_as_xyz
1 x,y,z
2 1/2-x,-y,1/2+z
3 1/2+x,1/2-y,-z
4 -x,1/2+y,1/2-z
_cell_length_a                   6.6210(5)
_cell_length_b                   8.4032(15)
_cell_length_c                   22.2705(20)
_cell_angle_alpha                90
_cell_angle_beta                 90
_cell_angle_gamma                90
_cell_volume                     1239.08
_exptl_crystal_colour            colorless
_chemical_melting_point          '158-159 deg.C'
_cell_formula_units_Z            4
_exptl_crystal_recrystallization_method chloroform/hexane
loop_
_atom_site_label
_atom_site_type_symbol
_atom_site_fract_x
_atom_site_fract_y
_atom_site_fract_z
O1 O 0.42830(30) 0.54269(22) 0.14099(7)
O2 O 0.44362(33) 0.28776(21) 0.10897(8)
O3 O 0.15702(27) 0.37810(23) 0.01393(9)
O4 O 0.44593(28) 0.59747(19) -0.04045(6)
O5 O 0.82380(25) 0.59142(21) 0.02764(8)
C1 C 0.31970(42) 0.42663(33) 0.10904(13)
C2 C 0.28018(36) 0.48608(31) 0.04590(11)
C3 C 0.48038(34) 0.50937(29) 0.01348(10)
C4 C 0.62792(33) 0.59618(28) 0.05380(10)
C5 C 0.62746(39) 0.52281(32) 0.11609(12)
C6 C 0.64888(48) 0.34281(34) 0.11582(13)
C7 C 0.53263(53) 0.53004(42) -0.09315(12)
C8 C 0.44322(45) 0.60853(31) -0.14757(10)
C9 C 0.24532(51) 0.57674(37) -0.16453(14)
C10 C 0.16644(66) 0.64497(55) -0.21495(20)
C11 C 0.2779(11) 0.74581(62) -0.24871(16)
C12 C 0.47245(83) 0.78033(48) -0.23290(16)
C13 C 0.55497(48) 0.71015(38) -0.18213(13)
H1 H 0.18810 0.40189 0.12900
H2 H 0.21453 0.59295 0.04895
H3 H 0.53636 0.40180 0.00391
H4 H 0.58205 0.70913 0.05759
H5 H 0.73249 0.57367 0.14203
H6 H 0.74154 0.30734 0.08298
H7 H 0.70921 0.30561 0.15452
H8 H 0.50817 0.41267 -0.09449
H9 H 0.68222 0.54647 -0.09299
H10 H 0.16372 0.50184 -0.13945
H11 H 0.02572 0.61827 -0.22777
H12 H 0.21738 0.80012 -0.28437
H13 H 0.55104 0.85335 -0.25957
H14 H 0.69712 0.73418 -0.16997
H15 H 0.87371 0.68303 0.03407
H16 H 0.05176 0.42703 0.00226
loop_
_geom_bond_atom_site_label_1
_geom_bond_atom_site_label_2
_geom_bond_site_symmetry_1
_geom_bond_site_symmetry_2
O1 C1 1_555 1_555
O2 C1 1_555 1_555
O3 C2 1_555 1_555
O4 C3 1_555 1_555
O5 C4 1_555 1_555
C1 C2 1_555 1_555
C2 C3 1_555 1_555
C3 C4 1_555 1_555
C4 C5 1_555 1_555
C5 O1 1_555 1_555
C6 O2 1_555 1_555
C7 O4 1_555 1_555
C8 C7 1_555 1_555
C9 C8 1_555 1_555
C10 C9 1_555 1_555
C11 C10 1_555 1_555
C12 C11 1_555 1_555
C13 C8 1_555 1_555
H1 C1 1_555 1_555
H2 C2 1_555 1_555
H3 C3 1_555 1_555
H4 C4 1_555 1_555
H5 C5 1_555 1_555
H6 C6 1_555 1_555
H7 C6 1_555 1_555
H8 C7 1_555 1_555
H9 C7 1_555 1_555
H10 C9 1_555 1_555
H11 C10 1_555 1_555
H12 C11 1_555 1_555
H13 C12 1_555 1_555
H14 C13 1_555 1_555
H15 O5 1_555 1_555
H16 O3 1_555 1_555
C5 C6 1_555 1_555
C12 C13 1_555 1_555

#END
