
#######################################################################
#
#                 Cambridge Crystallographic Data Centre
#                                CCDC 
#
#######################################################################
#
# If this CIF has been generated from an entry in the Cambridge 
# Structural Database, then it will include bibliographic, chemical, 
# crystal, experimental, refinement or atomic coordinate data resulting 
# from the CCDC's data processing and validation procedures.
#
#######################################################################

data_QIJZUH
_chemical_formula_moiety         'C12 H12 N1 O1 P1 S2'
_chemical_name_systematic        
4-(pyrrolidin-1-yl)-4H-4\l^5^-phospholo[3,2-b:4,5-b']bisthiophen-4-one
_symmetry_cell_setting           monoclinic
_symmetry_space_group_name_H-M   'C 2/c'
_symmetry_Int_Tables_number      15
_space_group_name_Hall           '-C 2yn'
loop_
_symmetry_equiv_pos_site_id
_symmetry_equiv_pos_as_xyz
1 x,y,z
2 -x,y,1/2-z
3 1/2+x,1/2+y,z
4 1/2-x,1/2+y,1/2-z
5 -x,-y,-z
6 x,-y,1/2+z
7 1/2-x,1/2-y,-z
8 1/2+x,1/2-y,1/2+z
_cell_length_a                   17.399(3)
_cell_length_b                   7.760(3)
_cell_length_c                   18.297(3)
_cell_angle_alpha                90
_cell_angle_beta                 93.25(3)
_cell_angle_gamma                90
_cell_volume                     2466.42
_exptl_crystal_colour            colorless
_exptl_crystal_description       block
_cell_formula_units_Z            8
loop_
_atom_site_label
_atom_site_type_symbol
_atom_site_fract_x
_atom_site_fract_y
_atom_site_fract_z
S1 S 0.20723(2) 0.45206(6) 0.02300(2)
P1 P 0.43515(2) 0.47421(5) 0.11367(2)
O1 O 0.49625(6) 0.35734(15) 0.09062(7)
N1 N 0.46900(8) 0.66283(18) 0.14052(7)
C1 C 0.26115(10) 0.5320(2) -0.04562(10)
H1 H 0.2401 0.5613 -0.0930
S2 S 0.24281(3) 0.28273(6) 0.21638(2)
C2 C 0.33734(10) 0.5489(2) -0.02464(9)
H2 H 0.3753 0.5914 -0.0554
C3 C 0.35265(9) 0.4951(2) 0.04889(9)
C4 C 0.28739(9) 0.4392(2) 0.08099(9)
C5 C 0.30066(9) 0.3792(2) 0.15618(9)
C6 C 0.37510(9) 0.3979(2) 0.18463(9)
C7 C 0.38493(10) 0.3348(2) 0.25741(9)
H3 H 0.4323 0.3379 0.2859
C8 C 0.31827(11) 0.2693(2) 0.28153(10)
H4 H 0.3138 0.2216 0.3289
C9 C 0.41766(10) 0.7892(2) 0.17296(10)
H5 H 0.4224 0.7836 0.2271
H6 H 0.3633 0.7681 0.1563
C10 C 0.44475(15) 0.9622(3) 0.14591(19)
C11 C 0.52564(19) 0.9379(4) 0.1238(2)
H7 H 0.5631 0.9541 0.1660
H8 H 0.5379 1.0193 0.0844
C12 C 0.52593(12) 0.7528(3) 0.09667(12)
H9 H 0.5216(16) 0.722(4) 0.0464(16)
H10 H 0.582(2) 0.717(4) 0.1114(18)
H11 H 0.4207(17) 1.059(3) 0.1615(17)
H12 H 0.419(3) 0.978(7) 0.088(3)
C13? C 0.4850(4) 0.9281(7) 0.0827(3)
H13? H 0.5231 1.0200 0.0749
H14? H 0.4489 0.9213 0.0390
loop_
_geom_bond_atom_site_label_1
_geom_bond_atom_site_label_2
_geom_bond_site_symmetry_1
_geom_bond_site_symmetry_2
S1 C1 1_555 1_555
P1 O1 1_555 1_555
N1 P1 1_555 1_555
C1 H1 1_555 1_555
S2 C5 1_555 1_555
C2 C1 1_555 1_555
H2 C2 1_555 1_555
C3 P1 1_555 1_555
C4 S1 1_555 1_555
C5 C4 1_555 1_555
C6 P1 1_555 1_555
C7 C6 1_555 1_555
H3 C7 1_555 1_555
C8 S2 1_555 1_555
H4 C8 1_555 1_555
C9 N1 1_555 1_555
H5 C9 1_555 1_555
H6 C9 1_555 1_555
C10 C9 1_555 1_555
C11 C10 1_555 1_555
H7 C11 1_555 1_555
H8 C11 1_555 1_555
C12 N1 1_555 1_555
H9 C12 1_555 1_555
H10 C12 1_555 1_555
H11 C10 1_555 1_555
H12 C10 1_555 1_555
C2 C3 1_555 1_555
C3 C4 1_555 1_555
C5 C6 1_555 1_555
C7 C8 1_555 1_555
C11 C12 1_555 1_555

#END
