
#######################################################################
#
#                 Cambridge Crystallographic Data Centre
#                                CCDC 
#
#######################################################################
#
# If this CIF has been generated from an entry in the Cambridge 
# Structural Database, then it will include bibliographic, chemical, 
# crystal, experimental, refinement or atomic coordinate data resulting 
# from the CCDC's data processing and validation procedures.
#
#######################################################################

data_QIKBIY
_chemical_formula_moiety         'C16 H8 P2 S4'
_chemical_name_systematic        4,4'-biphospholo[3,2-b:4,5-b']bisthiophene
_symmetry_cell_setting           monoclinic
_symmetry_space_group_name_H-M   'C 2/c'
_symmetry_Int_Tables_number      15
_space_group_name_Hall           '-C 2yn'
loop_
_symmetry_equiv_pos_site_id
_symmetry_equiv_pos_as_xyz
1 x,y,z
2 -x,y,1/2-z
3 1/2+x,1/2+y,z
4 1/2-x,1/2+y,1/2-z
5 -x,-y,-z
6 x,-y,1/2+z
7 1/2-x,1/2-y,-z
8 1/2+x,1/2-y,1/2+z
_cell_length_a                   23.5606(9)
_cell_length_b                   5.3052(2)
_cell_length_c                   13.4572(5)
_cell_angle_alpha                90
_cell_angle_beta                 113.5181(13)
_cell_angle_gamma                90
_cell_volume                     1542.34
_exptl_crystal_colour            yellow
_exptl_crystal_description       Prism
_cell_formula_units_Z            4
loop_
_atom_site_label
_atom_site_type_symbol
_atom_site_fract_x
_atom_site_fract_y
_atom_site_fract_z
S1 S 0.07502(2) 0.58105(6) 0.23516(3)
S2 S 0.04281(2) 0.07618(6) 0.40991(3)
P1 P 0.22669(2) 0.12345(6) 0.42877(2)
C1 C 0.13770(7) 0.6786(3) 0.20905(11)
H1 H 0.1356 0.8083 0.1591
C2 C 0.19047(6) 0.5492(3) 0.26801(10)
H2 H 0.2293 0.5784 0.2641
C3 C 0.18039(5) 0.3651(2) 0.33609(9)
C4 C 0.11953(5) 0.3609(2) 0.32606(9)
C5 C 0.10787(5) 0.1759(2) 0.39374(9)
C6 C 0.15954(5) 0.0364(2) 0.45621(9)
C7 C 0.14550(6) -0.1562(2) 0.51647(10)
H3 H 0.1751 -0.2712 0.5630
C8 C 0.08435(6) -0.1560(2) 0.49944(10)
H4 H 0.0666 -0.2708 0.5331
S1F S 0.42498(2) -0.08105(6) 0.76484(3)
S2F S 0.45719(2) 0.42382(6) 0.59009(3)
P1F P 0.27331(2) 0.37655(6) 0.57123(2)
C1F C 0.36230(7) -0.1786(3) 0.79095(11)
H1F H 0.3644 -0.3083 0.8409
C2F C 0.30953(6) -0.0492(3) 0.73199(10)
H2F H 0.2707 -0.0784 0.7359
C3F C 0.31961(5) 0.1349(2) 0.66391(9)
C4F C 0.38047(5) 0.1391(2) 0.67394(9)
C5F C 0.39213(5) 0.3241(2) 0.60626(9)
C6F C 0.34046(5) 0.4636(2) 0.54379(9)
C7F C 0.35450(6) 0.6562(2) 0.48353(10)
H3F H 0.3249 0.7712 0.4370
C8F C 0.41565(6) 0.6560(2) 0.50056(10)
H4F H 0.4334 0.7708 0.4669
loop_
_geom_bond_atom_site_label_1
_geom_bond_atom_site_label_2
_geom_bond_site_symmetry_1
_geom_bond_site_symmetry_2
S1 C1 1_555 1_555
S2 C5 1_555 1_555
P1 C3 1_555 1_555
C1 H1 1_555 1_555
C2 C1 1_555 1_555
H2 C2 1_555 1_555
C3 C2 1_555 1_555
C4 S1 1_555 1_555
C5 C4 1_555 1_555
C6 P1 1_555 1_555
C7 C6 1_555 1_555
H3 C7 1_555 1_555
C8 S2 1_555 1_555
H4 C8 1_555 1_555
S1F C1F 1_555 1_555
S2F C5F 1_555 1_555
P1F P1 1_555 1_555
C1F H1F 1_555 1_555
C2F C1F 1_555 1_555
H2F C2F 1_555 1_555
C3F P1F 1_555 1_555
C4F S1F 1_555 1_555
C5F C4F 1_555 1_555
C6F P1F 1_555 1_555
C7F C6F 1_555 1_555
H3F C7F 1_555 1_555
C8F S2F 1_555 1_555
H4F C8F 1_555 1_555
C3 C4 1_555 1_555
C5 C6 1_555 1_555
C7 C8 1_555 1_555
C2F C3F 1_555 1_555
C3F C4F 1_555 1_555
C5F C6F 1_555 1_555
C7F C8F 1_555 1_555

#END
