
#######################################################################
#
#                 Cambridge Crystallographic Data Centre
#                                CCDC 
#
#######################################################################
#
# If this CIF has been generated from an entry in the Cambridge 
# Structural Database, then it will include bibliographic, chemical, 
# crystal, experimental, refinement or atomic coordinate data resulting 
# from the CCDC's data processing and validation procedures.
#
#######################################################################

data_QIKCES01
_chemical_formula_moiety         'C24 H30 O4'
_chemical_name_systematic        
2,2'-[(4-methylphenyl)methylene]bis(3-hydroxy-5,5-dimethylcyclohex-2-en-1-one)
_chemical_properties_biological  'weak inhibitory activity against HepG2 cells'
_symmetry_cell_setting           monoclinic
_symmetry_space_group_name_H-M   'P 21/c'
_symmetry_Int_Tables_number      14
_space_group_name_Hall           '-P 2ybc'
loop_
_symmetry_equiv_pos_site_id
_symmetry_equiv_pos_as_xyz
1 x,y,z
2 -x,1/2+y,1/2-z
3 -x,-y,-z
4 x,1/2-y,1/2+z
_cell_length_a                   9.3003(15)
_cell_length_b                   11.7726(19)
_cell_length_c                   20.118(3)
_cell_angle_alpha                90
_cell_angle_beta                 102.363(2)
_cell_angle_gamma                90
_cell_volume                     2151.62
_exptl_crystal_colour            colorless
_exptl_crystal_description       piece
_cell_formula_units_Z            4
loop_
_atom_site_label
_atom_site_type_symbol
_atom_site_fract_x
_atom_site_fract_y
_atom_site_fract_z
C1 C 0.2473(2) 0.53482(18) 0.78889(11)
C2 C 0.2684(3) 0.62776(19) 0.83030(11)
C3 C 0.4153(3) 0.6786(2) 0.85797(13)
H1 H 0.4185 0.7042 0.9041
H2 H 0.4274 0.7448 0.8310
C4 C 0.5433(3) 0.5986(2) 0.85873(11)
C5 C 0.5214(3) 0.5473(2) 0.78854(12)
H3 H 0.5387 0.6056 0.7571
H4 H 0.5945 0.4883 0.7892
C6 C 0.3718(3) 0.4973(2) 0.76242(13)
C7 C 0.5453(3) 0.5060(3) 0.91200(14)
H5 H 0.5592 0.5400 0.9563
H6 H 0.6244 0.4542 0.9110
H7 H 0.4534 0.4657 0.9023
C8 C 0.6893(3) 0.6605(3) 0.87662(14)
H8 H 0.7016 0.6926 0.9213
H9 H 0.6909 0.7200 0.8442
H10 H 0.7678 0.6080 0.8757
C9 C 0.1033(2) 0.47119(18) 0.76488(10)
H11 H 0.1338 0.4008 0.7459
C10 C 0.0261(3) 0.42942(17) 0.82013(11)
C11 C 0.0812(3) 0.43997(19) 0.88922(12)
H12 H 0.1654 0.4833 0.9047
C12 C 0.0141(4) 0.3876(2) 0.93577(13)
H13 H 0.0539 0.3974 0.9819
C13 C -0.1094(4) 0.3215(2) 0.91656(16)
C14 C -0.1657(3) 0.3107(2) 0.84762(15)
H14 H -0.2496 0.2669 0.8325
C15 C -0.0999(3) 0.36371(19) 0.80057(12)
H15 H -0.1412 0.3552 0.7545
C16 C -0.1795(4) 0.2634(3) 0.96904(16)
H16 H -0.2642 0.2212 0.9464
H17 H -0.2090 0.3196 0.9980
H18 H -0.1097 0.2126 0.9959
C17 C -0.0004(3) 0.52532(18) 0.70477(10)
C18 C -0.1001(2) 0.61209(19) 0.71470(11)
C19 C -0.2128(3) 0.6566(2) 0.65614(11)
H19 H -0.1783 0.7287 0.6421
H20 H -0.3028 0.6714 0.6717
C20 C -0.2490(3) 0.5794(2) 0.59449(12)
C21 C -0.3385(4) 0.6458(3) 0.53356(14)
H21 H -0.3613 0.5968 0.4946
H22 H -0.2818 0.7093 0.5236
H23 H -0.4281 0.6726 0.5445
C22 C -0.3387(3) 0.4770(2) 0.60802(15)
H24 H -0.3601 0.4297 0.5682
H25 H -0.4292 0.5024 0.6187
H26 H -0.2835 0.4344 0.6456
C23 C -0.1037(3) 0.5414(2) 0.57918(12)
H27 H -0.1229 0.4823 0.5449
H28 H -0.0599 0.6051 0.5601
C24 C 0.0041(3) 0.4979(2) 0.63918(12)
O1 O 0.15922(17) 0.68234(12) 0.84972(7)
O2 O 0.3574(2) 0.42495(17) 0.71559(10)
O3 O -0.09359(16) 0.65774(12) 0.77184(8)
O4 O 0.1068(2) 0.43048(17) 0.62300(9)
loop_
_geom_bond_atom_site_label_1
_geom_bond_atom_site_label_2
_geom_bond_site_symmetry_1
_geom_bond_site_symmetry_2
C1 C2 1_555 1_555
C2 C3 1_555 1_555
C3 H1 1_555 1_555
H2 C3 1_555 1_555
C4 C3 1_555 1_555
C5 C4 1_555 1_555
H3 C5 1_555 1_555
H4 C5 1_555 1_555
C6 C1 1_555 1_555
C7 C4 1_555 1_555
H5 C7 1_555 1_555
H6 C7 1_555 1_555
H7 C7 1_555 1_555
C8 C4 1_555 1_555
H8 C8 1_555 1_555
H9 C8 1_555 1_555
H10 C8 1_555 1_555
C9 C1 1_555 1_555
H11 C9 1_555 1_555
C10 C9 1_555 1_555
C11 C10 1_555 1_555
H12 C11 1_555 1_555
C12 C11 1_555 1_555
H13 C12 1_555 1_555
C13 C12 1_555 1_555
C14 C13 1_555 1_555
H14 C14 1_555 1_555
C15 C10 1_555 1_555
H15 C15 1_555 1_555
C16 C13 1_555 1_555
H16 C16 1_555 1_555
H17 C16 1_555 1_555
H18 C16 1_555 1_555
C17 C9 1_555 1_555
C18 C17 1_555 1_555
C19 C18 1_555 1_555
H19 C19 1_555 1_555
H20 C19 1_555 1_555
C20 C19 1_555 1_555
C21 C20 1_555 1_555
H21 C21 1_555 1_555
H22 C21 1_555 1_555
H23 C21 1_555 1_555
C22 C20 1_555 1_555
H24 C22 1_555 1_555
H25 C22 1_555 1_555
H26 C22 1_555 1_555
C23 C20 1_555 1_555
H27 C23 1_555 1_555
H28 C23 1_555 1_555
C24 C17 1_555 1_555
O1 C2 1_555 1_555
O2 C6 1_555 1_555
O3 C18 1_555 1_555
O4 C24 1_555 1_555
C5 C6 1_555 1_555
C14 C15 1_555 1_555
C23 C24 1_555 1_555

#END
