
#######################################################################
#
#                 Cambridge Crystallographic Data Centre
#                                CCDC 
#
#######################################################################
#
# If this CIF has been generated from an entry in the Cambridge 
# Structural Database, then it will include bibliographic, chemical, 
# crystal, experimental, refinement or atomic coordinate data resulting 
# from the CCDC's data processing and validation procedures.
#
#######################################################################

data_QIKHUQ
_chemical_formula_moiety         'C70 H50 B2 F30 N2 O2 Si2'
_chemical_name_systematic        
1,1,1,8,8,8-hexakis(pentafluorophenyl)-4,5-bis(4-{[tris(propan-2-yl)silyl]oxy}phenyl)-2,7-diaza-1,8-diboraoct-4-ene-2,6-diyne
_symmetry_cell_setting           triclinic
_symmetry_space_group_name_H-M   'P -1'
_symmetry_Int_Tables_number      2
_space_group_name_Hall           '-P 1'
loop_
_symmetry_equiv_pos_site_id
_symmetry_equiv_pos_as_xyz
1 x,y,z
2 -x,-y,-z
_cell_length_a                   8.0120(3)
_cell_length_b                   15.1971(6)
_cell_length_c                   15.3580(7)
_cell_angle_alpha                75.857(5)
_cell_angle_beta                 86.017(6)
_cell_angle_gamma                85.663(6)
_cell_volume                     1805.59
_exptl_crystal_colour            orange
_exptl_crystal_description       prism
_cell_formula_units_Z            1
loop_
_atom_site_label
_atom_site_type_symbol
_atom_site_fract_x
_atom_site_fract_y
_atom_site_fract_z
Si1 Si 0.5469(2) 0.33771(13) 0.70398(14)
F1 F 0.0349(4) -0.0098(3) 0.6653(3)
F2 F -0.2460(4) -0.2227(3) 0.6607(3)
F3 F -0.0282(5) -0.3249(3) 0.5808(3)
F4 F 0.2972(5) -0.3517(3) 0.6261(3)
F5 F -0.0459(5) 0.1038(3) 0.5100(3)
F6 F -0.4206(4) -0.0355(2) 0.8914(3)
F7 F -0.6649(4) -0.1092(3) 1.0081(3)
F8 F -0.4858(5) -0.3984(3) 0.9663(3)
F9 F 0.3976(5) -0.2798(3) 0.7582(3)
F10 F -0.7041(4) -0.2907(3) 1.0452(3)
F11 F -0.5369(4) -0.0741(3) 0.7289(3)
F12 F -0.3725(6) 0.1362(3) 0.4663(3)
F13 F 0.1826(5) -0.1818(3) 0.8416(3)
F14 F -0.6156(5) 0.0473(3) 0.5797(3)
F15 F -0.2431(5) -0.3283(3) 0.8523(3)
O1 O 0.4370(5) 0.2984(3) 0.8009(3)
N1 N -0.0858(6) -0.0728(4) 0.8485(4)
C1 C -0.0858(7) -0.2350(5) 0.6865(5)
C2 C 0.0221(7) 0.0143(4) 0.9547(4)
C3 C -0.0374(7) -0.0362(4) 0.8960(5)
C4 C 0.3328(7) 0.2293(4) 0.8321(5)
C5 C 0.2065(7) 0.2432(4) 0.8958(5)
H1 H 0.1912 0.3000 0.9116
C6 C -0.0414(7) -0.1952(4) 0.7530(4)
C7 C 0.1043(7) 0.1739(4) 0.9353(5)
H2 H 0.0198 0.1823 0.9795
C8 C 0.1874(8) -0.3028(5) 0.6675(5)
C9 C -0.5576(7) -0.1622(5) 0.9687(5)
C10 C -0.4694(8) -0.3077(5) 0.9490(5)
C11 C -0.5769(8) -0.2557(5) 0.9886(5)
C12 C 0.2385(8) -0.2656(5) 0.7337(5)
C13 C 0.2452(7) 0.0795(5) 0.8438(5)
H3 H 0.2554 0.0243 0.8246
C14 C -0.3423(8) -0.2691(5) 0.8873(5)
C15 C -0.4309(8) -0.1275(4) 0.9081(5)
C16 C -0.3212(7) -0.1774(4) 0.8639(5)
C17 C 0.1253(7) 0.0902(4) 0.9102(5)
C18 C -0.4110(8) -0.0295(5) 0.6780(5)
C19 C -0.1292(8) 0.0014(5) 0.6447(5)
C20 C 0.0222(8) -0.2869(5) 0.6453(5)
C21 C 0.1240(8) -0.2141(5) 0.7750(5)
C22 C -0.2461(7) -0.0489(4) 0.7051(5)
C23 C -0.1684(9) 0.0608(5) 0.5677(6)
C24 C -0.3324(10) 0.0771(5) 0.5442(5)
C25 C -0.4550(9) 0.0323(5) 0.6016(6)
C26 C 0.3503(8) 0.1480(5) 0.8051(5)
H4 H 0.4338 0.1396 0.7603
C27 C 0.7101(8) 0.2476(5) 0.6833(5)
H5 H 0.6499 0.1996 0.6660
C28 C 0.8312(9) 0.2866(6) 0.6046(6)
H6 H 0.9039 0.2372 0.5893
H7 H 0.8999 0.3299 0.6214
H8 H 0.7675 0.3178 0.5525
C29 C 0.8075(9) 0.2012(6) 0.7664(6)
H9 H 0.8651 0.2468 0.7865
H10 H 0.8903 0.1557 0.7512
H11 H 0.7296 0.1714 0.8147
C30 C 0.6487(9) 0.4356(5) 0.7261(5)
H12 H 0.7571 0.4107 0.7537
C31 C 0.6931(11) 0.5087(6) 0.6400(6)
H13 H 0.7603 0.5536 0.6552
H14 H 0.5898 0.5391 0.6135
H15 H 0.7574 0.4799 0.5967
C32 C 0.5478(10) 0.4824(5) 0.7940(6)
H16 H 0.4422 0.5104 0.7684
H17 H 0.6136 0.5293 0.8063
H18 H 0.5238 0.4371 0.8500
C33 C 0.3975(9) 0.3706(6) 0.6110(6)
H19 H 0.4552 0.4144 0.5607
C34 C 0.3533(10) 0.2916(6) 0.5728(6)
H20 H 0.2933 0.2476 0.6196
H21 H 0.4564 0.2618 0.5525
H22 H 0.2819 0.3149 0.5219
C35 C 0.2378(10) 0.4214(6) 0.6383(7)
H23 H 0.1763 0.3808 0.6875
H24 H 0.1671 0.4413 0.5867
H25 H 0.2675 0.4744 0.6582
B1 B -0.1800(9) -0.1270(5) 0.7909(6)
Si1A Si -0.5469(2) -0.33771(13) 1.29602(14)
F1A F -0.0349(4) 0.0098(3) 1.3347(3)
F2A F 0.2460(4) 0.2227(3) 1.3393(3)
F3A F 0.0282(5) 0.3249(3) 1.4192(3)
F4A F -0.2972(5) 0.3517(3) 1.3739(3)
F5A F 0.0459(5) -0.1038(3) 1.4900(3)
F6A F 0.4206(4) 0.0355(2) 1.1086(3)
F7A F 0.6649(4) 0.1092(3) 0.9919(3)
F8A F 0.4858(5) 0.3984(3) 1.0337(3)
F9A F -0.3976(5) 0.2798(3) 1.2418(3)
F10A F 0.7041(4) 0.2907(3) 0.9548(3)
F11A F 0.5369(4) 0.0741(3) 1.2711(3)
F12A F 0.3725(6) -0.1362(3) 1.5337(3)
F13A F -0.1826(5) 0.1818(3) 1.1584(3)
F14A F 0.6156(5) -0.0473(3) 1.4203(3)
F15A F 0.2431(5) 0.3283(3) 1.1477(3)
O1A O -0.4370(5) -0.2984(3) 1.1991(3)
N1A N 0.0858(6) 0.0728(4) 1.1515(4)
C1A C 0.0858(7) 0.2350(5) 1.3135(5)
C2A C -0.0221(7) -0.0143(4) 1.0453(4)
C3A C 0.0374(7) 0.0362(4) 1.1040(5)
C4A C -0.3328(7) -0.2293(4) 1.1679(5)
C5A C -0.2065(7) -0.2432(4) 1.1042(5)
H1A H -0.1912 -0.3000 1.0884
C6A C 0.0414(7) 0.1952(4) 1.2470(4)
C7A C -0.1043(7) -0.1739(4) 1.0647(5)
H2A H -0.0198 -0.1823 1.0205
C8A C -0.1874(8) 0.3028(5) 1.3325(5)
C9A C 0.5576(7) 0.1622(5) 1.0313(5)
C10A C 0.4694(8) 0.3077(5) 1.0510(5)
C11A C 0.5769(8) 0.2557(5) 1.0114(5)
C12A C -0.2385(8) 0.2656(5) 1.2663(5)
C13A C -0.2452(7) -0.0795(5) 1.1562(5)
H3A H -0.2554 -0.0243 1.1754
C14A C 0.3423(8) 0.2691(5) 1.1127(5)
C15A C 0.4309(8) 0.1275(4) 1.0919(5)
C16A C 0.3212(7) 0.1774(4) 1.1361(5)
C17A C -0.1253(7) -0.0902(4) 1.0898(5)
C18A C 0.4110(8) 0.0295(5) 1.3220(5)
C19A C 0.1292(8) -0.0014(5) 1.3553(5)
C20A C -0.0222(8) 0.2869(5) 1.3547(5)
C21A C -0.1240(8) 0.2141(5) 1.2250(5)
C22A C 0.2461(7) 0.0489(4) 1.2949(5)
C23A C 0.1684(9) -0.0608(5) 1.4323(6)
C24A C 0.3324(10) -0.0771(5) 1.4558(5)
C25A C 0.4550(9) -0.0323(5) 1.3984(6)
C26A C -0.3503(8) -0.1480(5) 1.1949(5)
H4A H -0.4338 -0.1396 1.2397
C27A C -0.7101(8) -0.2476(5) 1.3167(5)
H5A H -0.6499 -0.1996 1.3340
C28A C -0.8312(9) -0.2866(6) 1.3954(6)
H6A H -0.9039 -0.2372 1.4107
H7A H -0.8999 -0.3299 1.3786
H8A H -0.7675 -0.3178 1.4475
C29A C -0.8075(9) -0.2012(6) 1.2336(6)
H9A H -0.8651 -0.2468 1.2135
H10A H -0.8903 -0.1557 1.2488
H11A H -0.7296 -0.1714 1.1853
C30A C -0.6487(9) -0.4356(5) 1.2739(5)
H12A H -0.7571 -0.4107 1.2463
C31A C -0.6931(11) -0.5087(6) 1.3600(6)
H13A H -0.7603 -0.5536 1.3448
H14A H -0.5898 -0.5391 1.3865
H15A H -0.7574 -0.4799 1.4033
C32A C -0.5478(10) -0.4824(5) 1.2060(6)
H16A H -0.4422 -0.5104 1.2316
H17A H -0.6136 -0.5293 1.1937
H18A H -0.5238 -0.4371 1.1500
C33A C -0.3975(9) -0.3706(6) 1.3890(6)
H19A H -0.4552 -0.4144 1.4393
C34A C -0.3533(10) -0.2916(6) 1.4272(6)
H20A H -0.2933 -0.2476 1.3804
H21A H -0.4564 -0.2618 1.4475
H22A H -0.2819 -0.3149 1.4781
C35A C -0.2378(10) -0.4214(6) 1.3617(7)
H23A H -0.1763 -0.3808 1.3125
H24A H -0.1671 -0.4413 1.4133
H25A H -0.2675 -0.4744 1.3418
B1A B 0.1800(9) 0.1270(5) 1.2091(6)
loop_
_geom_bond_atom_site_label_1
_geom_bond_atom_site_label_2
_geom_bond_site_symmetry_1
_geom_bond_site_symmetry_2
Si1 O1 1_555 1_555
F1 C19 1_555 1_555
F2 C1 1_555 1_555
F3 C20 1_555 1_555
F4 C8 1_555 1_555
F5 C23 1_555 1_555
F6 C15 1_555 1_555
F7 C9 1_555 1_555
F8 C10 1_555 1_555
F9 C12 1_555 1_555
F10 C11 1_555 1_555
F11 C18 1_555 1_555
F12 C24 1_555 1_555
F13 C21 1_555 1_555
F14 C25 1_555 1_555
F15 C14 1_555 1_555
O1 C4 1_555 1_555
N1 C3 1_555 1_555
C1 C6 1_555 1_555
C2 C3 1_555 1_555
C4 C5 1_555 1_555
C5 H1 1_555 1_555
C6 C21 1_555 1_555
C7 C5 1_555 1_555
H2 C7 1_555 1_555
C8 C12 1_555 1_555
C9 C11 1_555 1_555
C10 C11 1_555 1_555
C12 C21 1_555 1_555
C13 H3 1_555 1_555
C14 C10 1_555 1_555
C15 C9 1_555 1_555
C16 C14 1_555 1_555
C17 C2 1_555 1_555
C18 C22 1_555 1_555
C19 C22 1_555 1_555
C20 C1 1_555 1_555
C22 B1 1_555 1_555
C23 C19 1_555 1_555
C24 C23 1_555 1_555
C25 C18 1_555 1_555
C26 C4 1_555 1_555
H4 C26 1_555 1_555
C27 Si1 1_555 1_555
H5 C27 1_555 1_555
C28 C27 1_555 1_555
H6 C28 1_555 1_555
H7 C28 1_555 1_555
H8 C28 1_555 1_555
C29 C27 1_555 1_555
H9 C29 1_555 1_555
H10 C29 1_555 1_555
H11 C29 1_555 1_555
C30 Si1 1_555 1_555
H12 C30 1_555 1_555
C31 C30 1_555 1_555
H13 C31 1_555 1_555
H14 C31 1_555 1_555
H15 C31 1_555 1_555
C32 C30 1_555 1_555
H16 C32 1_555 1_555
H17 C32 1_555 1_555
H18 C32 1_555 1_555
C33 Si1 1_555 1_555
H19 C33 1_555 1_555
C34 C33 1_555 1_555
H20 C34 1_555 1_555
H21 C34 1_555 1_555
H22 C34 1_555 1_555
C35 C33 1_555 1_555
H23 C35 1_555 1_555
H24 C35 1_555 1_555
H25 C35 1_555 1_555
B1 N1 1_555 1_555
Si1A O1A 1_555 1_555
F1A C19A 1_555 1_555
F2A C1A 1_555 1_555
F3A C20A 1_555 1_555
F4A C8A 1_555 1_555
F5A C23A 1_555 1_555
F6A C15A 1_555 1_555
F7A C9A 1_555 1_555
F8A C10A 1_555 1_555
F9A C12A 1_555 1_555
F10A C11A 1_555 1_555
F11A C18A 1_555 1_555
F12A C24A 1_555 1_555
F13A C21A 1_555 1_555
F14A C25A 1_555 1_555
F15A C14A 1_555 1_555
O1A C4A 1_555 1_555
N1A C3A 1_555 1_555
C1A C6A 1_555 1_555
C2A C2 1_555 1_555
C3A C2A 1_555 1_555
C4A C5A 1_555 1_555
C5A H1A 1_555 1_555
C6A C21A 1_555 1_555
C7A C5A 1_555 1_555
H2A C7A 1_555 1_555
C8A C12A 1_555 1_555
C9A C11A 1_555 1_555
C10A C11A 1_555 1_555
C12A C21A 1_555 1_555
C13A H3A 1_555 1_555
C14A C10A 1_555 1_555
C15A C9A 1_555 1_555
C16A C14A 1_555 1_555
C17A C2A 1_555 1_555
C18A C22A 1_555 1_555
C19A C22A 1_555 1_555
C20A C1A 1_555 1_555
C22A B1A 1_555 1_555
C23A C19A 1_555 1_555
C24A C23A 1_555 1_555
C25A C18A 1_555 1_555
C26A C4A 1_555 1_555
H4A C26A 1_555 1_555
C27A Si1A 1_555 1_555
H5A C27A 1_555 1_555
C28A C27A 1_555 1_555
H6A C28A 1_555 1_555
H7A C28A 1_555 1_555
H8A C28A 1_555 1_555
C29A C27A 1_555 1_555
H9A C29A 1_555 1_555
H10A C29A 1_555 1_555
H11A C29A 1_555 1_555
C30A Si1A 1_555 1_555
H12A C30A 1_555 1_555
C31A C30A 1_555 1_555
H13A C31A 1_555 1_555
H14A C31A 1_555 1_555
H15A C31A 1_555 1_555
C32A C30A 1_555 1_555
H16A C32A 1_555 1_555
H17A C32A 1_555 1_555
H18A C32A 1_555 1_555
C33A Si1A 1_555 1_555
H19A C33A 1_555 1_555
C34A C33A 1_555 1_555
H20A C34A 1_555 1_555
H21A C34A 1_555 1_555
H22A C34A 1_555 1_555
C35A C33A 1_555 1_555
H23A C35A 1_555 1_555
H24A C35A 1_555 1_555
H25A C35A 1_555 1_555
B1A N1A 1_555 1_555
C6 B1 1_555 1_555
C7 C17 1_555 1_555
C8 C20 1_555 1_555
C13 C17 1_555 1_555
C13 C26 1_555 1_555
C15 C16 1_555 1_555
C16 B1 1_555 1_555
C24 C25 1_555 1_555
C6A B1A 1_555 1_555
C7A C17A 1_555 1_555
C8A C20A 1_555 1_555
C13A C17A 1_555 1_555
C13A C26A 1_555 1_555
C15A C16A 1_555 1_555
C16A B1A 1_555 1_555
C24A C25A 1_555 1_555

#END
