
#######################################################################
#
#                 Cambridge Crystallographic Data Centre
#                                CCDC 
#
#######################################################################
#
# If this CIF has been generated from an entry in the Cambridge 
# Structural Database, then it will include bibliographic, chemical, 
# crystal, experimental, refinement or atomic coordinate data resulting 
# from the CCDC's data processing and validation procedures.
#
#######################################################################

data_QIKKIE
_chemical_formula_moiety         'C52 H57 N3 O2 Si2'
_chemical_name_systematic        
2-(4-((E)-6-(4-Nitrophenyl)-3,4-bis((tri-isopropylsilyl)ethynyl)hex-3-ene-1,5-diynyl)phenyl)-8aH-azulene-1,1-dicarbonitrile
_symmetry_cell_setting           triclinic
_symmetry_space_group_name_H-M   'P 1'
_symmetry_Int_Tables_number      1
_space_group_name_Hall           'P 1'
loop_
_symmetry_equiv_pos_site_id
_symmetry_equiv_pos_as_xyz
1 x,y,z
_cell_length_a                   7.4090(10)
_cell_length_b                   13.6080(10)
_cell_length_c                   13.616(2)
_cell_angle_alpha                66.270(10)
_cell_angle_beta                 75.010(10)
_cell_angle_gamma                87.740(10)
_cell_volume                     1210.71
_exptl_crystal_colour            yellow
_chemical_melting_point          207deg.C
_cell_formula_units_Z            1
_exptl_crystal_recrystallization_method dichloromethane/acetonitrile
loop_
_atom_site_label
_atom_site_type_symbol
_atom_site_fract_x
_atom_site_fract_y
_atom_site_fract_z
Si1 Si 1.1839(2) 0.71510(13) 0.27554(12)
Si2 Si 0.5415(2) 0.2845(2) 1.04735(14)
C1 C 0.8451(7) 0.4824(5) 0.6080(5)
C2 C 0.6815(8) 0.4278(4) 0.6150(5)
C3 C 0.5405(9) 0.3865(5) 0.6148(5)
C4 C 0.3774(8) 0.3339(5) 0.6154(6)
C5 C 0.2465(11) 0.2735(6) 0.7161(6)
H1 H 0.2674(11) 0.2661(6) 0.7854(6)
C6 C 0.0884(9) 0.2202(7) 0.7164(6)
H2 H -0.0004(9) 0.1796(7) 0.7860(6)
C7 C 0.0543(8) 0.2275(5) 0.6191(5)
C8 C 0.1845(8) 0.2911(5) 0.5189(5)
H3 H 0.1641(8) 0.2972(5) 0.4499(5)
C9 C 0.3402(8) 0.3428(5) 0.5175(5)
H4 H 0.4253(8) 0.3869(5) 0.4477(5)
C10 C -0.1101(8) 0.1687(5) 0.6231(5)
C11 C -0.2389(9) 0.1034(6) 0.7117(6)
H5 H -0.2323(9) 0.0851(6) 0.7865(6)
C12 C -0.3865(10) 0.0619(6) 0.6863(6)
C13 C -0.3540(9) 0.1093(5) 0.5622(6)
H6 H -0.4468(9) 0.1595(5) 0.5426(6)
C14 C -0.1578(8) 0.1733(5) 0.5183(5)
C15 C -0.1700(8) 0.2839(6) 0.4363(6)
N1 N -0.1847(9) 0.3674(6) 0.3730(6)
C16 C -0.0104(11) 0.1235(6) 0.4596(6)
N2 N 0.1044(12) 0.0879(7) 0.4143(8)
C17 C -0.5434(13) 0.0020(9) 0.7583(9)
H7 H -0.5527(13) -0.0210(9) 0.8361(9)
C18 C -0.6874(15) -0.0486(7) 0.6370(11)
H8 H -0.8029(15) -0.0665(7) 0.6263(11)
C19 C -0.6957(13) -0.0328(9) 0.7278(12)
H9 H -0.8166(13) -0.0460(9) 0.7801(12)
C20 C -0.5274(16) -0.0377(7) 0.5527(10)
H10 H -0.5261(16) -0.0834(7) 0.5141(10)
C21 C -0.3705(14) 0.0247(7) 0.5192(8)
H11 H -0.2630(14) 0.0160(7) 0.4670(8)
C22 C 0.8890(7) 0.4729(5) 0.7028(5)
C23 C 1.0522(9) 0.5299(5) 0.6997(5)
C24 C 1.1789(9) 0.5764(5) 0.7066(6)
C25 C 1.3302(9) 0.6277(5) 0.7202(6)
C26 C 1.3095(11) 0.6457(8) 0.8145(7)
H12 H 1.1901(11) 0.6275(8) 0.8688(7)
C27 C 1.4517(14) 0.6910(8) 0.8329(8)
H13 H 1.4388(14) 0.7003(8) 0.9006(8)
C28 C 1.6185(10) 0.7217(6) 0.7507(7)
C29 C 1.6462(10) 0.7057(6) 0.6564(8)
H14 H 1.7654(10) 0.7265(6) 0.6020(8)
C30 C 1.4973(9) 0.6588(6) 0.6401(7)
H15 H 1.5133(9) 0.6489(6) 0.5725(7)
N3 N 1.7768(14) 0.7721(7) 0.7658(10)
O1 O 1.7546(15) 0.7782(10) 0.8562(10)
O2 O 1.9108(12) 0.8099(10) 0.6894(11)
C31 C 0.7770(9) 0.4070(5) 0.8107(5)
C32 C 0.6835(10) 0.3547(6) 0.9027(6)
C33 C 0.5367(43) 0.3808(24) 1.1080(15)
C34 C 0.6806(26) 0.4495(17) 1.0905(17)
H16 H 0.6380(26) 0.4926(17) 1.1319(17)
H17 H 0.7787(26) 0.4074(17) 1.1169(17)
H18 H 0.7275(26) 0.4955(17) 1.0130(17)
C35 C 0.3913(40) 0.3517(20) 1.2203(16)
H19 H 0.3943(40) 0.4049(20) 1.2495(16)
H20 H 0.2683(40) 0.3441(20) 1.2123(16)
H21 H 0.4215(40) 0.2840(20) 1.2705(16)
C36 C 0.6868(28) 0.1743(21) 1.1198(11)
H22 H 0.7888(28) 0.2079(21) 1.1293(11)
C37 C 0.5930(30) 0.1165(35) 1.2379(17)
H23 H 0.6726(30) 0.0625(35) 1.2702(17)
H24 H 0.5485(30) 0.1542(35) 1.2849(17)
H25 H 0.4883(30) 0.0830(35) 1.2309(17)
C38 C 0.7730(35) 0.1098(15) 1.0576(15)
H26 H 0.8458(35) 0.0553(15) 1.0964(15)
H27 H 0.6737(35) 0.0766(15) 1.0455(15)
H28 H 0.8519(35) 0.1577(15) 0.9872(15)
C39 C 0.3144(19) 0.2551(21) 1.0456(12)
H29 H 0.2332(19) 0.2264(21) 1.1198(12)
C40 C 0.2169(16) 0.3417(13) 0.9678(11)
H30 H 0.0954(16) 0.3207(13) 0.9668(11)
H31 H 0.2060(16) 0.3971(13) 0.9953(11)
H32 H 0.2984(16) 0.3685(13) 0.8936(11)
C41 C 0.3725(41) 0.1363(18) 0.9949(17)
H33 H 0.2627(41) 0.1047(18) 0.9906(17)
H34 H 0.4602(41) 0.1654(18) 0.9227(17)
H35 H 0.4291(41) 0.0821(18) 1.0464(17)
C42 C 0.9568(8) 0.5521(5) 0.5000(5)
C43 C 1.0476(9) 0.6137(5) 0.4095(5)
C44 C 1.4288(10) 0.6695(8) 0.2464(7)
H36 H 1.4176(10) 0.6066(8) 0.2324(7)
C45 C 1.5215(12) 0.6341(9) 0.3413(9)
H37 H 1.6444(12) 0.6119(9) 0.3189(9)
H38 H 1.5311(12) 0.6938(9) 0.3606(9)
H39 H 1.4467(12) 0.5754(9) 0.4045(9)
C46 C 1.5591(13) 0.7439(14) 0.1407(8)
H40 H 1.6820(13) 0.7183(14) 0.1282(8)
H41 H 1.5096(13) 0.7549(14) 0.0788(8)
H42 H 1.5664(13) 0.8107(14) 0.1483(8)
C47 C 1.1737(13) 0.8460(6) 0.2924(8)
H43 H 1.2434(13) 0.9019(6) 0.2242(8)
C48 C 0.9691(18) 0.8763(10) 0.3159(11)
H44 H 0.9612(18) 0.9435(10) 0.3237(11)
H45 H 0.9173(18) 0.8815(10) 0.2564(11)
H46 H 0.9001(18) 0.8201(10) 0.3840(11)
C49 C 1.2497(24) 0.8401(10) 0.3908(12)
H47 H 1.2434(24) 0.9085(10) 0.3960(12)
H48 H 1.1766(24) 0.7859(10) 0.4591(12)
H49 H 1.3777(24) 0.8220(10) 0.3775(12)
C50 C 1.0644(10) 0.7202(6) 0.1677(5)
H50 H 0.9338(10) 0.7239(6) 0.1993(5)
C51 C 1.0736(16) 0.6168(9) 0.1488(8)
H51 H 1.0083(16) 0.6244(9) 0.0940(8)
H52 H 1.2030(16) 0.6067(9) 0.1215(8)
H53 H 1.0184(16) 0.5555(9) 0.2162(8)
C52 C 1.1171(17) 0.8218(11) 0.0573(8)
H54 H 1.0484(17) 0.8184(11) 0.0077(8)
H55 H 1.0896(17) 0.8854(11) 0.0710(8)
H56 H 1.2489(17) 0.8241(11) 0.0241(8)
loop_
_geom_bond_atom_site_label_1
_geom_bond_atom_site_label_2
_geom_bond_site_symmetry_1
_geom_bond_site_symmetry_2
Si1 C43 1_555 1_555
Si2 C32 1_555 1_555
C1 C2 1_555 1_555
C2 C3 1_555 1_555
C3 C4 1_555 1_555
C4 C5 1_555 1_555
C5 H1 1_555 1_555
C6 C5 1_555 1_555
H2 C6 1_555 1_555
C7 C6 1_555 1_555
C8 C7 1_555 1_555
H3 C8 1_555 1_555
C9 C4 1_555 1_555
H4 C9 1_555 1_555
C10 C7 1_555 1_555
C11 C10 1_555 1_555
H5 C11 1_555 1_555
C12 C11 1_555 1_555
C13 C12 1_555 1_555
H6 C13 1_555 1_555
C14 C10 1_555 1_555
C15 C14 1_555 1_555
N1 C15 1_555 1_555
C16 C14 1_555 1_555
N2 C16 1_555 1_555
C17 C12 1_555 1_555
H7 C17 1_555 1_555
C18 H8 1_555 1_555
C19 C17 1_555 1_555
H9 C19 1_555 1_555
C20 C18 1_555 1_555
H10 C20 1_555 1_555
C21 C13 1_555 1_555
H11 C21 1_555 1_555
C22 C1 1_555 1_555
C23 C22 1_555 1_555
C24 C23 1_555 1_555
C25 C24 1_555 1_555
C26 C25 1_555 1_555
H12 C26 1_555 1_555
C27 C26 1_555 1_555
H13 C27 1_555 1_555
C28 C27 1_555 1_555
C29 C28 1_555 1_555
H14 C29 1_555 1_555
C30 C25 1_555 1_555
H15 C30 1_555 1_555
N3 C28 1_555 1_555
O1 N3 1_555 1_555
O2 N3 1_555 1_555
C31 C22 1_555 1_555
C32 C31 1_555 1_555
C33 Si2 1_555 1_555
C34 C33 1_555 1_555
H16 C34 1_555 1_555
H17 C34 1_555 1_555
H18 C34 1_555 1_555
C35 C33 1_555 1_555
H19 C35 1_555 1_555
H20 C35 1_555 1_555
H21 C35 1_555 1_555
C36 Si2 1_555 1_555
H22 C36 1_555 1_555
C37 C36 1_555 1_555
H23 C37 1_555 1_555
H24 C37 1_555 1_555
H25 C37 1_555 1_555
C38 C36 1_555 1_555
H26 C38 1_555 1_555
H27 C38 1_555 1_555
H28 C38 1_555 1_555
C39 Si2 1_555 1_555
H29 C39 1_555 1_555
C40 C39 1_555 1_555
H30 C40 1_555 1_555
H31 C40 1_555 1_555
H32 C40 1_555 1_555
C41 C39 1_555 1_555
H33 C41 1_555 1_555
H34 C41 1_555 1_555
H35 C41 1_555 1_555
C42 C1 1_555 1_555
C43 C42 1_555 1_555
C44 Si1 1_555 1_555
H36 C44 1_555 1_555
C45 C44 1_555 1_555
H37 C45 1_555 1_555
H38 C45 1_555 1_555
H39 C45 1_555 1_555
C46 C44 1_555 1_555
H40 C46 1_555 1_555
H41 C46 1_555 1_555
H42 C46 1_555 1_555
C47 Si1 1_555 1_555
H43 C47 1_555 1_555
C48 C47 1_555 1_555
H44 C48 1_555 1_555
H45 C48 1_555 1_555
H46 C48 1_555 1_555
C49 C47 1_555 1_555
H47 C49 1_555 1_555
H48 C49 1_555 1_555
H49 C49 1_555 1_555
C50 Si1 1_555 1_555
H50 C50 1_555 1_555
C51 C50 1_555 1_555
H51 C51 1_555 1_555
H52 C51 1_555 1_555
H53 C51 1_555 1_555
C52 C50 1_555 1_555
H54 C52 1_555 1_555
H55 C52 1_555 1_555
H56 C52 1_555 1_555
C8 C9 1_555 1_555
C13 C14 1_555 1_555
C18 C19 1_555 1_555
C20 C21 1_555 1_555
C29 C30 1_555 1_555

#END
