
#######################################################################
#
#                 Cambridge Crystallographic Data Centre
#                                CCDC 
#
#######################################################################
#
# If this CIF has been generated from an entry in the Cambridge 
# Structural Database, then it will include bibliographic, chemical, 
# crystal, experimental, refinement or atomic coordinate data resulting 
# from the CCDC's data processing and validation procedures.
#
#######################################################################

data_QIKKEA
_chemical_formula_moiety         'C54 H63 N3 Si2'
_chemical_name_systematic        
2-(4-((Z)-6-(4-(Dimethylamino)phenyl)-3,4-bis((tri-isopropylsilyl)ethynyl)hex-3-ene-1,5-diynyl)phenyl)-8aH-azulene-1,1-dicarbonitrile
_symmetry_cell_setting           monoclinic
_symmetry_space_group_name_H-M   'P 21/c'
_symmetry_Int_Tables_number      14
_space_group_name_Hall           '-P 2ybc'
loop_
_symmetry_equiv_pos_site_id
_symmetry_equiv_pos_as_xyz
1 x,y,z
2 x,1/2-y,1/2+z
3 -x,-y,-z
4 -x,1/2+y,1/2-z
_cell_length_a                   29.968(33)
_cell_length_b                   7.764(7)
_cell_length_c                   23.580(21)
_cell_angle_alpha                90
_cell_angle_beta                 113.11(6)
_cell_angle_gamma                90
_cell_volume                     5046.13
_exptl_crystal_colour            orange
_exptl_crystal_description       prism
_chemical_melting_point          151deg.C
_cell_formula_units_Z            4
_exptl_crystal_recrystallization_method dichloromethane/acetonitrile
loop_
_atom_site_label
_atom_site_type_symbol
_atom_site_fract_x
_atom_site_fract_y
_atom_site_fract_z
Si1 Si 0.91041(8) 0.1302(3) 0.33958(11)
Si2 Si 0.81112(8) -0.0338(3) 0.04989(11)
N1 N 0.4588(2) 0.5670(11) -0.1854(4)
N2 N 0.5195(3) 1.0793(11) -0.1351(3)
N3 N 0.6168(3) 1.0208(11) 0.3372(3)
C1 C 0.7543(3) 0.3452(10) 0.1482(6)
C2 C 0.7095(4) 0.4229(11) 0.1095(4)
C3 C 0.6713(4) 0.4885(11) 0.0788(4)
C4 C 0.6240(3) 0.5663(9) 0.0442(6)
C5 C 0.5938(4) 0.5940(10) 0.0754(4)
H1 H 0.6056(4) 0.5619(10) 0.1181(4)
C6 C 0.5485(4) 0.6638(9) 0.0460(5)
H2 H 0.5275(4) 0.6834(9) 0.0674(5)
C7 C 0.5324(4) 0.7093(9) -0.0168(5)
C8 C 0.5628(4) 0.6800(11) -0.0465(4)
H3 H 0.5511(4) 0.7090(11) -0.0894(4)
C9 C 0.6085(4) 0.6104(11) -0.0178(5)
H4 H 0.6300(4) 0.5921(11) -0.0385(5)
C10 C 0.4850(4) 0.7855(9) -0.0490(4)
C11 C 0.4512(4) 0.8168(9) -0.0277(4)
H5 H 0.4550(4) 0.7863(9) 0.0134(4)
C12 C 0.4074(4) 0.8974(10) -0.0704(4)
C13 C 0.4125(3) 0.9200(9) -0.1305(4)
H6 H 0.4139(3) 1.0409(9) -0.1382(4)
C14 C 0.4636(3) 0.8423(10) -0.1180(4)
C15 C 0.4615(3) 0.6869(14) -0.1566(4)
C16 C 0.4953(3) 0.9736(12) -0.1287(3)
C17 C 0.3686(4) 0.9580(11) -0.0590(4)
H7 H 0.3707(4) 0.9454(11) -0.0175(4)
C18 C 0.3262(4) 1.0384(11) -0.1026(7)
H8 H 0.3086(4) 1.1164(11) -0.0876(7)
C19 C 0.3081(3) 1.0142(12) -0.1631(7)
H9 H 0.2810(3) 1.0845(12) -0.1875(7)
C20 C 0.3246(4) 0.8940(13) -0.1979(4)
H10 H 0.3005(4) 0.8460(13) -0.2347(4)
C21 C 0.3702(4) 0.8454(10) -0.1838(4)
H11 H 0.3767(4) 0.7565(10) -0.2078(4)
C22 C 0.7746(4) 0.3764(10) 0.2104(6)
C23 C 0.7507(3) 0.4884(12) 0.2372(4)
C24 C 0.7296(3) 0.5741(13) 0.2597(4)
C25 C 0.7013(4) 0.6808(12) 0.2822(4)
C26 C 0.6513(5) 0.6655(11) 0.2623(4)
H12 H 0.6358(5) 0.5750(11) 0.2335(4)
C27 C 0.6236(3) 0.7725(16) 0.2802(4)
H13 H 0.5893(3) 0.7527(16) 0.2658(4)
C28 C 0.6448(5) 0.9087(13) 0.3207(4)
C29 C 0.6951(5) 0.9248(12) 0.3429(4)
H14 H 0.7108(5) 1.0139(12) 0.3722(4)
C30 C 0.7225(3) 0.8127(16) 0.3243(5)
H15 H 0.7571(3) 0.8269(16) 0.3402(5)
C31 C 0.5644(3) 1.0216(12) 0.3071(4)
H16 H 0.5526(4) 0.9052(12) 0.3008(25)
H17 H 0.5547(3) 1.0790(69) 0.2680(14)
H18 H 0.5510(3) 1.0812(69) 0.3325(14)
C32 C 0.6377(4) 1.1778(13) 0.3694(5)
H19 H 0.6637(16) 1.1504(13) 0.4079(14)
H20 H 0.6133(7) 1.2423(43) 0.3769(28)
H21 H 0.6501(22) 1.2453(41) 0.3446(14)
C33 C 0.8190(5) 0.2977(12) 0.2482(5)
C34 C 0.8562(3) 0.2344(11) 0.2826(4)
C35 C 0.9477(4) 0.0543(18) 0.3021(6)
H22 H 0.9291(4) -0.0372(18) 0.2762(6)
C36 C 0.9946(5) -0.0381(25) 0.3428(7)
H23 H 1.0086(35) -0.093(20) 0.3171(7)
H24 H 0.9874(10) -0.124(16) 0.3674(61)
H25 H 1.0171(24) 0.0441(41) 0.3692(57)
C37 C 0.9581(6) 0.1677(30) 0.2613(9)
H26 H 0.9918(19) 0.159(23) 0.2685(75)
H27 H 0.9507(78) 0.2839(40) 0.2685(72)
H28 H 0.9388(62) 0.136(18) 0.2194(9)
C38 C 0.9386(4) 0.2934(15) 0.4021(5)
H29 H 0.9130(4) 0.3345(15) 0.4133(5)
C39 C 0.9548(5) 0.4554(16) 0.3795(7)
H30 H 0.9781(42) 0.516(10) 0.4140(10)
H31 H 0.9272(11) 0.5283(90) 0.3592(63)
H32 H 0.9692(49) 0.4248(20) 0.3511(53)
C40 C 0.9772(5) 0.2227(16) 0.4613(5)
H33 H 0.9841(30) 0.3063(61) 0.4936(14)
H34 H 1.0063(14) 0.199(14) 0.4548(16)
H35 H 0.9657(17) 0.1186(80) 0.4728(29)
C41 C 0.8875(4) -0.0563(13) 0.3733(5)
H36 H 0.9149(4) -0.1160(13) 0.4026(5)
C42 C 0.8595(4) -0.1867(14) 0.3215(6)
H37 H 0.8539(31) -0.2908(49) 0.3397(6)
H38 H 0.8785(16) -0.2123(96) 0.2978(28)
H39 H 0.8291(16) -0.1376(51) 0.2951(27)
C43 C 0.8562(4) 0.0078(17) 0.4077(5)
H40 H 0.8446(30) -0.0891(18) 0.4232(40)
H41 H 0.8291(20) 0.072(11) 0.3799(13)
H42 H 0.8755(11) 0.080(11) 0.4414(28)
C44 C 0.7749(3) 0.2255(12) 0.1182(4)
C45 C 0.7906(3) 0.1292(11) 0.0910(4)
C46 C 0.7668(3) -0.0276(12) -0.0329(4)
H43 H 0.7751(3) -0.1209(12) -0.0536(4)
C47 C 0.7148(3) -0.0631(15) -0.0401(5)
H44 H 0.6937(6) -0.059(11) -0.0830(6)
H45 H 0.7049(11) 0.0226(66) -0.0181(34)
H46 H 0.7130(7) -0.1750(48) -0.0238(36)
C48 C 0.7702(4) 0.1439(16) -0.0658(5)
H47 H 0.7491(25) 0.1374(48) -0.1086(10)
H48 H 0.8030(8) 0.1608(62) -0.0620(37)
H49 H 0.7606(32) 0.2386(21) -0.0469(28)
C49 C 0.8731(4) 0.0136(15) 0.0596(5)
C50 C 0.8912(4) -0.0776(16) 0.0162(6)
H50 H 0.9241(12) -0.0444(97) 0.0253(30)
H51 H 0.8712(22) -0.0467(96) -0.0255(7)
H52 H 0.8896(33) -0.1999(16) 0.0213(31)
C51 C 0.8915(5) 0.1814(20) 0.0728(8)
H53 H 0.9225(24) 0.1872(50) 0.0699(67)
H54 H 0.8950(48) 0.2119(68) 0.1138(23)
H55 H 0.8694(26) 0.2601(32) 0.0439(39)
C52 C 0.8064(5) -0.2492(11) 0.0853(6)
H56 H 0.7737(5) -0.2603(11) 0.0825(6)
C53 C 0.8365(5) -0.2605(16) 0.1526(7)
H57 H 0.8292(34) -0.3656(80) 0.1686(13)
H58 H 0.8294(34) -0.1642(90) 0.1733(10)
H59 H 0.8702(5) -0.259(16) 0.1593(8)
C54 C 0.8124(8) -0.3994(13) 0.0469(8)
H60 H 0.8013(69) -0.5038(45) 0.0589(66)
H61 H 0.8460(11) -0.411(16) 0.0536(69)
H62 H 0.7937(56) -0.378(12) 0.0040(11)
loop_
_geom_bond_atom_site_label_1
_geom_bond_atom_site_label_2
_geom_bond_site_symmetry_1
_geom_bond_site_symmetry_2
Si1 C34 1_555 1_555
Si2 C45 1_555 1_555
N1 C15 1_555 1_555
N2 C16 1_555 1_555
N3 C28 1_555 1_555
C1 C2 1_555 1_555
C2 C3 1_555 1_555
C3 C4 1_555 1_555
C4 C5 1_555 1_555
C5 H1 1_555 1_555
C6 C5 1_555 1_555
H2 C6 1_555 1_555
C7 C6 1_555 1_555
C8 C7 1_555 1_555
H3 C8 1_555 1_555
C9 C4 1_555 1_555
H4 C9 1_555 1_555
C10 C7 1_555 1_555
C11 C10 1_555 1_555
H5 C11 1_555 1_555
C12 C11 1_555 1_555
C13 C12 1_555 1_555
H6 C13 1_555 1_555
C14 C10 1_555 1_555
C15 C14 1_555 1_555
C16 C14 1_555 1_555
C17 C12 1_555 1_555
H7 C17 1_555 1_555
C18 C17 1_555 1_555
H8 C18 1_555 1_555
C19 C18 1_555 1_555
H9 C19 1_555 1_555
C20 C19 1_555 1_555
H10 C20 1_555 1_555
C21 C13 1_555 1_555
H11 C21 1_555 1_555
C22 C1 1_555 1_555
C23 C22 1_555 1_555
C24 C23 1_555 1_555
C25 C24 1_555 1_555
C26 C25 1_555 1_555
H12 C26 1_555 1_555
C27 C26 1_555 1_555
H13 C27 1_555 1_555
C28 C27 1_555 1_555
C29 C28 1_555 1_555
H14 C29 1_555 1_555
C30 C25 1_555 1_555
H15 C30 1_555 1_555
C31 N3 1_555 1_555
H16 C31 1_555 1_555
H17 C31 1_555 1_555
H18 C31 1_555 1_555
C32 N3 1_555 1_555
H19 C32 1_555 1_555
H20 C32 1_555 1_555
H21 C32 1_555 1_555
C33 C22 1_555 1_555
C34 C33 1_555 1_555
C35 Si1 1_555 1_555
H22 C35 1_555 1_555
C36 C35 1_555 1_555
H23 C36 1_555 1_555
H24 C36 1_555 1_555
H25 C36 1_555 1_555
C37 C35 1_555 1_555
H26 C37 1_555 1_555
H27 C37 1_555 1_555
H28 C37 1_555 1_555
C38 Si1 1_555 1_555
H29 C38 1_555 1_555
C39 C38 1_555 1_555
H30 C39 1_555 1_555
H31 C39 1_555 1_555
H32 C39 1_555 1_555
C40 C38 1_555 1_555
H33 C40 1_555 1_555
H34 C40 1_555 1_555
H35 C40 1_555 1_555
C41 Si1 1_555 1_555
H36 C41 1_555 1_555
C42 C41 1_555 1_555
H37 C42 1_555 1_555
H38 C42 1_555 1_555
H39 C42 1_555 1_555
C43 C41 1_555 1_555
H40 C43 1_555 1_555
H41 C43 1_555 1_555
H42 C43 1_555 1_555
C44 C1 1_555 1_555
C45 C44 1_555 1_555
C46 Si2 1_555 1_555
H43 C46 1_555 1_555
C47 C46 1_555 1_555
H44 C47 1_555 1_555
H45 C47 1_555 1_555
H46 C47 1_555 1_555
C48 C46 1_555 1_555
H47 C48 1_555 1_555
H48 C48 1_555 1_555
H49 C48 1_555 1_555
C49 Si2 1_555 1_555
C50 C49 1_555 1_555
H50 C50 1_555 1_555
H51 C50 1_555 1_555
H52 C50 1_555 1_555
C51 C49 1_555 1_555
H53 C51 1_555 1_555
H54 C51 1_555 1_555
H55 C51 1_555 1_555
C52 Si2 1_555 1_555
H56 C52 1_555 1_555
C53 C52 1_555 1_555
H57 C53 1_555 1_555
H58 C53 1_555 1_555
H59 C53 1_555 1_555
C54 C52 1_555 1_555
H60 C54 1_555 1_555
H61 C54 1_555 1_555
H62 C54 1_555 1_555
C8 C9 1_555 1_555
C13 C14 1_555 1_555
C20 C21 1_555 1_555
C29 C30 1_555 1_555

#END
