
#######################################################################
#
#                 Cambridge Crystallographic Data Centre
#                                CCDC 
#
#######################################################################
#
# If this CIF has been generated from an entry in the Cambridge 
# Structural Database, then it will include bibliographic, chemical, 
# crystal, experimental, refinement or atomic coordinate data resulting 
# from the CCDC's data processing and validation procedures.
#
#######################################################################

data_QIKKAZ
_chemical_formula_moiety         'C24 H36 O2 Si1'
_chemical_name_systematic        
'1-(4-methyl-2-{[tris(propan-2-yl)silyl]ethynyl}phenyl)cyclopentane-1-carboxylic acid'
_symmetry_cell_setting           monoclinic
_symmetry_space_group_name_H-M   'P 21/n'
_symmetry_Int_Tables_number      14
_space_group_name_Hall           '-P 2yn'
loop_
_symmetry_equiv_pos_site_id
_symmetry_equiv_pos_as_xyz
1 x,y,z
2 1/2-x,1/2+y,1/2-z
3 -x,-y,-z
4 1/2+x,1/2-y,1/2+z
_cell_length_a                   12.27270(10)
_cell_length_b                   8.61880(10)
_cell_length_c                   22.5266(3)
_cell_angle_alpha                90
_cell_angle_beta                 93.9090(10)
_cell_angle_gamma                90
_cell_volume                     2377.23
_exptl_crystal_colour            colorless
_exptl_crystal_description       plate
_cell_formula_units_Z            4
loop_
_atom_site_label
_atom_site_type_symbol
_atom_site_fract_x
_atom_site_fract_y
_atom_site_fract_z
Si1 Si 0.47392(4) 0.44926(7) 0.71823(2)
O1 O 0.49234(10) 0.31554(18) 0.52098(7)
O2 O 0.35323(12) 0.4700(2) 0.49437(8)
C1 C 0.20109(13) 0.2644(2) 0.53347(7)
C2 C 0.19376(13) 0.3415(2) 0.58754(8)
C3 C 0.31154(14) 0.2067(2) 0.51452(7)
C4 C 0.39397(14) 0.3379(2) 0.51170(8)
C5 C 0.28807(13) 0.3729(2) 0.62759(8)
C6 C 0.09274(15) 0.3906(2) 0.60583(10)
H1 H 0.0900 0.4419 0.6420
C7 C 0.36269(15) 0.3999(2) 0.66319(8)
C8 C -0.00315(14) 0.3647(3) 0.57152(11)
C9 C 0.35301(16) 0.0700(2) 0.55409(9)
H2 H 0.4305 0.0532 0.5508
H3 H 0.3399 0.0890 0.5955
C10 C 0.10355(15) 0.2395(3) 0.49985(9)
H4 H 0.1051 0.1881 0.4636
C11 C 0.00460(15) 0.2884(3) 0.51840(11)
H5 H -0.0586 0.2694 0.4944
C12 C 0.3044(2) 0.1268(3) 0.45242(9)
H6 H 0.2508 0.1782 0.4256
H7 H 0.3747 0.1296 0.4351
C13 C 0.2870(2) -0.0682(3) 0.52988(12)
H8 H 0.3266 -0.1641 0.5380
H9 H 0.2175 -0.0738 0.5478
C14 C 0.5699(4) 0.2787(5) 0.72580(16)
H10 H 0.6304 0.3062 0.7545
C15 C -0.11120(18) 0.4170(4) 0.59221(15)
H11 H -0.1353 0.3447 0.6210
H12 H -0.1641 0.4216 0.5588
H13 H -0.1032 0.5179 0.6100
C16 C 0.2700(3) -0.0413(3) 0.46382(12)
H14 H 0.1939 -0.0567 0.4506
H15 H 0.3141 -0.1129 0.4425
C17 C 0.4181(3) 0.5071(6) 0.78920(14)
H16 H 0.4045 0.6187 0.7845
C18 C 0.6176(4) 0.2292(8) 0.66877(18)
H17 H 0.5601 0.2203 0.6378
H18 H 0.6532 0.1308 0.6746
H19 H 0.6696 0.3052 0.6576
C19 C 0.5483(3) 0.6192(5) 0.68009(18)
H20 H 0.5700 0.5788 0.6420
C20 C 0.4986(5) 0.4966(7) 0.84313(18)
H21 H 0.5301 0.3947 0.8453
H22 H 0.4614 0.5164 0.8785
H23 H 0.5553 0.5722 0.8398
C21 C 0.5119(5) 0.1400(5) 0.7496(3)
H24 H 0.4909 0.1622 0.7890
H25 H 0.5599 0.0519 0.7509
H26 H 0.4480 0.1175 0.7241
C22 C 0.470(2) 0.750(3) 0.6653(6)
H27 H 0.4207 0.7211 0.6325
H28 H 0.5106 0.8407 0.6549
H29 H 0.4299 0.7732 0.6993
C23 C 0.6518(5) 0.6723(9) 0.7139(3)
H30 H 0.6349 0.7111 0.7522
H31 H 0.6850 0.7531 0.6920
H32 H 0.7014 0.5865 0.7191
C24 C 0.3064(5) 0.4402(13) 0.8006(3)
H33 H 0.2723 0.5038 0.8290
H34 H 0.3151 0.3367 0.8159
H35 H 0.2615 0.4379 0.7640
H36 H 0.387(2) 0.531(3) 0.4921(12)
C25? C 0.5022(9) 0.6530(15) 0.7176(5)
H37? H 0.4415 0.6966 0.7383
C26? C 0.488(7) 0.728(10) 0.6571(18)
H38? H 0.4252 0.7953 0.6557
H39? H 0.4765 0.6488 0.6272
H40? H 0.5516 0.7868 0.6498
C27? C 0.6005(14) 0.697(3) 0.7581(8)
H41? H 0.6629 0.7090 0.7350
H42? H 0.6149 0.6162 0.7871
H43? H 0.5864 0.7923 0.7780
C28? C 0.4009(12) 0.391(2) 0.7944(5)
H44? H 0.3628 0.2911 0.7903
C29? C 0.322(2) 0.526(3) 0.7890(13)
H45? H 0.2560 0.4947 0.7670
H46? H 0.3547 0.6104 0.7686
H47? H 0.3053 0.5599 0.8280
C30? C 0.4769(17) 0.396(2) 0.8499(7)
H48? H 0.4586 0.3143 0.8763
H49? H 0.4695 0.4945 0.8694
H50? H 0.5509 0.3836 0.8394
C31? C 0.578(2) 0.329(2) 0.7117(9)
H51? H 0.6297 0.3466 0.7462
C32? C 0.565(2) 0.155(2) 0.7059(13)
H52? H 0.5269 0.1313 0.6683
H53? H 0.5229 0.1175 0.7375
H54? H 0.6351 0.1066 0.7083
C33? C 0.6409(15) 0.351(3) 0.6575(8)
H55? H 0.7066 0.2904 0.6612
H56? H 0.6591 0.4586 0.6536
H57? H 0.5969 0.3181 0.6229
loop_
_geom_bond_atom_site_label_1
_geom_bond_atom_site_label_2
_geom_bond_site_symmetry_1
_geom_bond_site_symmetry_2
Si1 C7 1_555 1_555
O1 C4 1_555 1_555
O2 C4 1_555 1_555
C1 C2 1_555 1_555
C2 C5 1_555 1_555
C3 C1 1_555 1_555
C4 C3 1_555 1_555
C5 C7 1_555 1_555
C6 C2 1_555 1_555
H1 C6 1_555 1_555
C8 C6 1_555 1_555
C9 C3 1_555 1_555
H2 C9 1_555 1_555
H3 C9 1_555 1_555
C10 C1 1_555 1_555
H4 C10 1_555 1_555
C11 C8 1_555 1_555
H5 C11 1_555 1_555
C12 C3 1_555 1_555
H6 C12 1_555 1_555
H7 C12 1_555 1_555
C13 C9 1_555 1_555
H8 C13 1_555 1_555
H9 C13 1_555 1_555
C14 Si1 1_555 1_555
H10 C14 1_555 1_555
C15 C8 1_555 1_555
H11 C15 1_555 1_555
H12 C15 1_555 1_555
H13 C15 1_555 1_555
C16 C12 1_555 1_555
H14 C16 1_555 1_555
H15 C16 1_555 1_555
C17 Si1 1_555 1_555
H16 C17 1_555 1_555
C18 C14 1_555 1_555
H17 C18 1_555 1_555
H18 C18 1_555 1_555
H19 C18 1_555 1_555
C19 Si1 1_555 1_555
H20 C19 1_555 1_555
C20 C17 1_555 1_555
H21 C20 1_555 1_555
H22 C20 1_555 1_555
H23 C20 1_555 1_555
C21 C14 1_555 1_555
H24 C21 1_555 1_555
H25 C21 1_555 1_555
H26 C21 1_555 1_555
C22 C19 1_555 1_555
H27 C22 1_555 1_555
H28 C22 1_555 1_555
H29 C22 1_555 1_555
C23 C19 1_555 1_555
H30 C23 1_555 1_555
H31 C23 1_555 1_555
H32 C23 1_555 1_555
C24 C17 1_555 1_555
H33 C24 1_555 1_555
H34 C24 1_555 1_555
H35 C24 1_555 1_555
H36 O2 1_555 1_555
C10 C11 1_555 1_555
C13 C16 1_555 1_555

#END
