
#######################################################################
#
#                 Cambridge Crystallographic Data Centre
#                                CCDC 
#
#######################################################################
#
# If this CIF has been generated from an entry in the Cambridge 
# Structural Database, then it will include bibliographic, chemical, 
# crystal, experimental, refinement or atomic coordinate data resulting 
# from the CCDC's data processing and validation procedures.
#
#######################################################################

data_QIKLIF
_chemical_formula_moiety         'C19 H27 N5 O5,H2 O1'
_chemical_name_systematic        
"2,2'-(1-Oxidopyridine-2,6-diyl)bis(4,5-dihydro-4,4,5,5-tetramethyl-3-oxido-1H-imidazol-1-oxyl) monohydrate"
_symmetry_cell_setting           monoclinic
_symmetry_space_group_name_H-M   'P 21/c'
_symmetry_Int_Tables_number      14
_space_group_name_Hall           '-P 2ybc'
loop_
_symmetry_equiv_pos_site_id
_symmetry_equiv_pos_as_xyz
1 x,y,z
2 x,1/2-y,1/2+z
3 -x,-y,-z
4 -x,1/2+y,1/2-z
_cell_length_a                   12.621(4)
_cell_length_b                   15.704(5)
_cell_length_c                   13.001(4)
_cell_angle_alpha                90
_cell_angle_beta                 115.202(6)
_cell_angle_gamma                90
_cell_volume                     2331.52
_exptl_crystal_colour            'dark red'
_exptl_crystal_description       prismatic
_cell_formula_units_Z            4
loop_
_atom_site_label
_atom_site_type_symbol
_atom_site_fract_x
_atom_site_fract_y
_atom_site_fract_z
C1 C 0.8850(4) -0.0242(3) 0.1228(3)
C2 C 1.0007(4) -0.0444(2) 0.1723(3)
H1 H 1.0243 -0.0975 0.2059
C3 C 1.0832(4) 0.0131(3) 0.1729(3)
H2 H 1.1625 0.0000 0.2082
C4 C 1.0454(4) 0.0909(2) 0.1199(3)
H3 H 1.0997 0.1303 0.1184
C5 C 0.9286(4) 0.1099(2) 0.0696(3)
N1 N 0.8478(3) 0.0537(2) 0.0717(3)
O1 O 0.7379(3) 0.07215(17) 0.0282(2)
C6 C 0.7932(3) -0.0795(2) 0.1256(4)
N2 N 0.7376(3) -0.1395(2) 0.0509(3)
O2 O 0.7504(3) -0.1554(2) -0.0393(3)
C7 C 0.6591(4) -0.1907(3) 0.0857(3)
C8 C 0.6556(4) -0.1354(3) 0.1816(3)
N3 N 0.7590(3) -0.0794(2) 0.2080(3)
O3 O 0.8009(3) -0.0315(2) 0.2952(3)
C9 C 0.7218(5) -0.2759(3) 0.1238(5)
H4 H 0.7203 -0.3061 0.0590
H5 H 0.6831 -0.3091 0.1596
H6 H 0.8016 -0.2661 0.1769
C10 C 0.5417(4) -0.2029(3) -0.0160(4)
H7 H 0.5040 -0.1486 -0.0395
H8 H 0.4932 -0.2396 0.0047
H9 H 0.5538 -0.2280 -0.0775
C11 C 0.6720(5) -0.1847(3) 0.2885(4)
H10 H 0.6676 -0.1461 0.3438
H11 H 0.7472 -0.2121 0.3193
H12 H 0.6117 -0.2270 0.2698
C12 C 0.5526(5) -0.0747(3) 0.1452(5)
H13 H 0.5448 -0.0448 0.0780
H14 H 0.5655 -0.0345 0.2051
H15 H 0.4823 -0.1063 0.1297
C13 C 0.8868(3) 0.1906(2) 0.0107(3)
N4 N 0.8116(3) 0.2014(2) -0.0982(3)
O4 O 0.7617(3) 0.14204(18) -0.1697(2)
C14 C 0.7854(4) 0.2938(2) -0.1271(3)
C15 C 0.8899(4) 0.3360(2) -0.0295(3)
N5 N 0.9270(3) 0.2662(2) 0.0580(3)
O5 O 0.9976(2) 0.27879(16) 0.1621(3)
C16 C 0.8649(5) 0.4152(3) 0.0210(4)
H16 H 0.9363 0.4360 0.0803
H17 H 0.8099 0.4024 0.0519
H18 H 0.8326 0.4579 -0.0370
C17 C 0.9944(4) 0.3502(3) -0.0598(4)
H19 H 1.0574 0.3768 0.0031
H20 H 0.9706 0.3863 -0.1254
H21 H 1.0202 0.2964 -0.0758
C18 C 0.7731(4) 0.3093(3) -0.2470(3)
H22 H 0.7049 0.2803 -0.3003
H23 H 0.8413 0.2882 -0.2537
H24 H 0.7653 0.3693 -0.2628
C19 C 0.6687(4) 0.3093(3) -0.1245(4)
H25 H 0.6083 0.2807 -0.1875
H26 H 0.6529 0.3693 -0.1295
H27 H 0.6706 0.2876 -0.0547
O6 O 1.3644(4) 0.0337(4) 0.2083(5)
loop_
_geom_bond_atom_site_label_1
_geom_bond_atom_site_label_2
_geom_bond_site_symmetry_1
_geom_bond_site_symmetry_2
C1 C2 1_555 1_555
C2 H1 1_555 1_555
C3 C2 1_555 1_555
H2 C3 1_555 1_555
C4 C3 1_555 1_555
H3 C4 1_555 1_555
C5 C4 1_555 1_555
N1 C1 1_555 1_555
O1 N1 1_555 1_555
C6 C1 1_555 1_555
N2 C6 1_555 1_555
O2 N2 1_555 1_555
C7 N2 1_555 1_555
C8 C7 1_555 1_555
N3 C6 1_555 1_555
O3 N3 1_555 1_555
C9 C7 1_555 1_555
H4 C9 1_555 1_555
H5 C9 1_555 1_555
H6 C9 1_555 1_555
C10 C7 1_555 1_555
H7 C10 1_555 1_555
H8 C10 1_555 1_555
H9 C10 1_555 1_555
C11 C8 1_555 1_555
H10 C11 1_555 1_555
H11 C11 1_555 1_555
H12 C11 1_555 1_555
C12 C8 1_555 1_555
H13 C12 1_555 1_555
H14 C12 1_555 1_555
H15 C12 1_555 1_555
C13 C5 1_555 1_555
N4 C13 1_555 1_555
O4 N4 1_555 1_555
C14 N4 1_555 1_555
C15 C14 1_555 1_555
N5 C13 1_555 1_555
O5 N5 1_555 1_555
C16 C15 1_555 1_555
H16 C16 1_555 1_555
H17 C16 1_555 1_555
H18 C16 1_555 1_555
C17 C15 1_555 1_555
H19 C17 1_555 1_555
H20 C17 1_555 1_555
H21 C17 1_555 1_555
C18 C14 1_555 1_555
H22 C18 1_555 1_555
H23 C18 1_555 1_555
H24 C18 1_555 1_555
C19 C14 1_555 1_555
H25 C19 1_555 1_555
H26 C19 1_555 1_555
H27 C19 1_555 1_555
C5 N1 1_555 1_555
C8 N3 1_555 1_555
C15 N5 1_555 1_555

#END
