
#######################################################################
#
#                 Cambridge Crystallographic Data Centre
#                                CCDC 
#
#######################################################################
#
# If this CIF has been generated from an entry in the Cambridge 
# Structural Database, then it will include bibliographic, chemical, 
# crystal, experimental, refinement or atomic coordinate data resulting 
# from the CCDC's data processing and validation procedures.
#
#######################################################################

data_QIKNOP
_chemical_formula_moiety         'C25 H18 N1 1+,B1 F4 1-'
_chemical_name_systematic        
'6,7-Diphenylpyrido[2,1-a]isoquinolinium tetrafluoroborate'
_symmetry_cell_setting           orthorhombic
_symmetry_space_group_name_H-M   'P b c a'
_symmetry_Int_Tables_number      61
_space_group_name_Hall           '-P 2ac 2ab'
loop_
_symmetry_equiv_pos_site_id
_symmetry_equiv_pos_as_xyz
1 x,y,z
2 1/2+x,1/2-y,-z
3 -x,1/2+y,1/2-z
4 1/2-x,-y,1/2+z
5 -x,-y,-z
6 1/2-x,1/2+y,z
7 x,1/2-y,1/2+z
8 1/2+x,y,1/2-z
_cell_length_a                   9.6155(9)
_cell_length_b                   13.7355(10)
_cell_length_c                   29.281(3)
_cell_angle_alpha                90
_cell_angle_beta                 90
_cell_angle_gamma                90
_cell_volume                     3867.25
_exptl_crystal_colour            colorless
_exptl_crystal_description       tabular
_cell_formula_units_Z            8
loop_
_atom_site_label
_atom_site_type_symbol
_atom_site_fract_x
_atom_site_fract_y
_atom_site_fract_z
F1 F 1.0460(2) 0.47174(12) 0.35818(6)
F2 F 0.89832(17) 0.35752(11) 0.38384(5)
F3 F 0.87304(16) 0.41958(12) 0.31242(5)
F4 F 1.05354(16) 0.32154(10) 0.32815(5)
B1 B 0.9658(3) 0.39246(17) 0.34598(8)
N1 N 0.71960(18) 0.60784(12) 0.31405(6)
C1 C 0.3921(3) 0.49932(17) 0.44157(8)
H1 H 0.3178 0.4747 0.4596
C2 C 0.3697(2) 0.57594(16) 0.41182(8)
H2 H 0.2793 0.6034 0.4092
C3 C 0.4779(2) 0.61295(15) 0.38578(7)
H3 H 0.4620 0.6660 0.3656
C4 C 0.6104(2) 0.57195(14) 0.38928(7)
C5 C 0.7265(2) 0.61577(14) 0.36267(7)
C6 C 0.9307(2) 0.71870(13) 0.35452(7)
C7 C 1.0390(2) 0.77344(14) 0.37411(8)
H4 H 1.0531 0.7713 0.4062
C8 C 1.1246(2) 0.82992(15) 0.34764(8)
H5 H 1.1977 0.8661 0.3613
C9 C 1.1039(2) 0.83401(15) 0.30037(8)
H6 H 1.1627 0.8736 0.2820
C10 C 0.7043(2) 0.58390(15) 0.22024(7)
H7 H 0.6979 0.5765 0.1880
C11 C 0.7985(2) 0.64711(14) 0.23867(7)
H8 H 0.8579 0.6832 0.2190
C12 C 0.8091(2) 0.65983(14) 0.28627(7)
C13 C 0.6271(2) 0.54276(14) 0.29494(7)
H9 H 0.5684 0.5057 0.3144
C14 C 0.6175(2) 0.53013(15) 0.24903(7)
H10 H 0.5524 0.4853 0.2366
C15 C 0.8469(2) 0.66932(14) 0.43299(7)
C16 C 0.9521(2) 0.61687(15) 0.45458(7)
H11 H 1.0122 0.5764 0.4372
C17 C 0.9689(2) 0.62380(14) 0.50148(7)
H12 H 1.0409 0.5881 0.5161
C18 C 0.8816(2) 0.68224(15) 0.52725(7)
H13 H 0.8941 0.6873 0.5593
C19 C 0.7759(2) 0.73327(16) 0.50578(7)
H14 H 0.7152 0.7730 0.5233
C20 C 0.7580(2) 0.72674(15) 0.45876(7)
H15 H 0.6849 0.7616 0.4443
C21 C 0.9127(2) 0.72105(13) 0.30685(7)
C22 C 0.9997(2) 0.78147(14) 0.28043(7)
H16 H 0.9857 0.7857 0.2484
C23 C 0.5232(3) 0.45872(16) 0.44498(7)
H17 H 0.5387 0.4062 0.4655
C24 C 0.6321(2) 0.49367(15) 0.41883(7)
H18 H 0.7214 0.4645 0.4210
C25 C 0.8326(2) 0.66513(14) 0.38208(7)
loop_
_geom_bond_atom_site_label_1
_geom_bond_atom_site_label_2
_geom_bond_site_symmetry_1
_geom_bond_site_symmetry_2
F1 B1 1_555 1_555
F2 B1 1_555 1_555
F3 B1 1_555 1_555
F4 B1 1_555 1_555
N1 C5 1_555 1_555
C1 H1 1_555 1_555
C2 C1 1_555 1_555
H2 C2 1_555 1_555
C3 C2 1_555 1_555
H3 C3 1_555 1_555
C4 C3 1_555 1_555
C5 C4 1_555 1_555
C6 C7 1_555 1_555
C7 H4 1_555 1_555
C8 C7 1_555 1_555
H5 C8 1_555 1_555
C9 C8 1_555 1_555
H6 C9 1_555 1_555
C10 H7 1_555 1_555
C11 C10 1_555 1_555
H8 C11 1_555 1_555
C12 N1 1_555 1_555
C13 N1 1_555 1_555
H9 C13 1_555 1_555
C14 C10 1_555 1_555
H10 C14 1_555 1_555
C15 C16 1_555 1_555
C16 H11 1_555 1_555
C17 C16 1_555 1_555
H12 C17 1_555 1_555
C18 C17 1_555 1_555
H13 C18 1_555 1_555
C19 C18 1_555 1_555
H14 C19 1_555 1_555
C20 C15 1_555 1_555
H15 C20 1_555 1_555
C21 C6 1_555 1_555
C22 C9 1_555 1_555
H16 C22 1_555 1_555
C23 C1 1_555 1_555
H17 C23 1_555 1_555
C24 C4 1_555 1_555
H18 C24 1_555 1_555
C25 C5 1_555 1_555
C6 C25 1_555 1_555
C11 C12 1_555 1_555
C12 C21 1_555 1_555
C13 C14 1_555 1_555
C15 C25 1_555 1_555
C19 C20 1_555 1_555
C21 C22 1_555 1_555
C23 C24 1_555 1_555

#END
