
#######################################################################
#
#                 Cambridge Crystallographic Data Centre
#                                CCDC 
#
#######################################################################
#
# If this CIF has been generated from an entry in the Cambridge 
# Structural Database, then it will include bibliographic, chemical, 
# crystal, experimental, refinement or atomic coordinate data resulting 
# from the CCDC's data processing and validation procedures.
#
#######################################################################

data_QIKPEI
_chemical_formula_moiety         'C27 H32 N1 O3 P1 S1,H2 O1'
_chemical_name_systematic        
'N-{4-[bis(3,5-dimethylphenyl)phosphoryl]but-2-en-1-yl}-4-methylbenzene-1-sulfonamide monohydrate'
_symmetry_cell_setting           triclinic
_symmetry_space_group_name_H-M   'P -1'
_symmetry_Int_Tables_number      2
_space_group_name_Hall           '-P 1'
loop_
_symmetry_equiv_pos_site_id
_symmetry_equiv_pos_as_xyz
1 x,y,z
2 -x,-y,-z
_cell_length_a                   8.159(2)
_cell_length_b                   13.097(4)
_cell_length_c                   14.363(4)
_cell_angle_alpha                116.598(8)
_cell_angle_beta                 92.096(8)
_cell_angle_gamma                102.099(8)
_cell_volume                     1326.88
_exptl_crystal_colour            colorless
_exptl_crystal_description       plate
_cell_formula_units_Z            2
loop_
_atom_site_label
_atom_site_type_symbol
_atom_site_fract_x
_atom_site_fract_y
_atom_site_fract_z
C1 C 0.3888(4) 1.1344(2) 1.1111(2)
H1 H 0.510235 1.147730 1.106362
H2 H 0.365890 1.109766 1.165483
H3 H 0.354207 1.207566 1.129376
C2 C 0.2899(3) 1.0389(2) 1.00619(17)
C3 C 0.3164(3) 1.0475(2) 0.9158(2)
H4 H 0.398081 1.113440 0.920049
C4 C 0.2262(3) 0.96188(19) 0.81813(18)
H5 H 0.245348 0.970025 0.756659
C5 C 0.1086(3) 0.86485(17) 0.81112(16)
C6 C 0.0802(3) 0.8537(2) 0.90072(18)
H6 H -0.000282 0.787196 0.896389
C7 C 0.1708(3) 0.9410(2) 0.99712(19)
H7 H 0.150616 0.933533 1.058785
S1 S -0.00115(7) 0.75295(4) 0.68698(4)
O1 O -0.1773(2) 0.72200(15) 0.69494(15)
O2 O 0.0483(3) 0.79324(15) 0.61185(13)
N1 N 0.0673(2) 0.63904(15) 0.66276(14)
H8 H 0.014(3) 0.595(2) 0.685(2)
C8 C 0.2484(3) 0.64451(18) 0.65492(15)
H9 H 0.292229 0.613089 0.699152
H10 H 0.311984 0.728035 0.683035
C9 C 0.2799(2) 0.57617(17) 0.54434(14)
H11 H 0.220515 0.495307 0.506147
C10 C 0.3843(2) 0.62074(17) 0.49672(14)
H12 H 0.438545 0.702694 0.532916
C11 C 0.4226(2) 0.54928(17) 0.38824(14)
H13 H 0.390903 0.464778 0.370598
H14 H 0.546142 0.572107 0.388100
P1 P 0.31210(5) 0.56826(4) 0.28774(3)
O3 O 0.12271(15) 0.53364(12) 0.27882(10)
C12 C 0.3909(2) 0.72047(16) 0.31648(13)
C13 C 0.5610(2) 0.77932(17) 0.35735(14)
H15 H 0.635706 0.738908 0.370346
C14 C 0.6222(2) 0.89646(18) 0.37926(15)
C15 C 0.5110(3) 0.95345(18) 0.35836(16)
H16 H 0.551598 1.033612 0.373678
C16 C 0.3418(3) 0.89624(19) 0.31564(16)
C17 C 0.2820(2) 0.77913(18) 0.29559(15)
H17 H 0.166357 0.739263 0.267547
C18 C 0.8049(3) 0.9596(2) 0.4249(2)
H18 H 0.862145 0.978961 0.373853
H19 H 0.860540 0.908580 0.440727
H20 H 0.811179 1.032434 0.489697
C19 C 0.2263(3) 0.9608(3) 0.2924(3)
H21 H 0.258605 1.044088 0.345307
H22 H 0.108781 0.925576 0.294345
H23 H 0.236345 0.954496 0.222327
C20 C 0.3810(2) 0.47982(15) 0.16576(13)
C21 C 0.5504(2) 0.47585(16) 0.15899(14)
H24 H 0.633173 0.519535 0.220308
C22 C 0.5981(2) 0.40765(17) 0.06207(15)
C23 C 0.4755(2) 0.34751(16) -0.02696(15)
H25 H 0.508148 0.303495 -0.093306
C24 C 0.3069(2) 0.34984(17) -0.02181(15)
C25 C 0.2604(2) 0.41604(16) 0.07550(14)
H26 H 0.145102 0.417688 0.080341
C26 C 0.7797(3) 0.3999(2) 0.0543(2)
H27 H 0.785152 0.318271 0.031407
H28 H 0.849353 0.451323 0.123358
H29 H 0.822358 0.425239 0.003096
C27 C 0.1757(3) 0.2820(2) -0.11947(17)
H30 H 0.199615 0.315417 -0.167899
H31 H 0.062841 0.287505 -0.099906
H32 H 0.179383 0.199001 -0.154006
O4 O 0.8841(2) 0.65425(18) 0.38490(14)
H33 H 0.930(4) 0.693(3) 0.4530(10)
H34 H 0.961(3) 0.617(3) 0.352(2)
loop_
_geom_bond_atom_site_label_1
_geom_bond_atom_site_label_2
_geom_bond_site_symmetry_1
_geom_bond_site_symmetry_2
C1 H1 1_555 1_555
H2 C1 1_555 1_555
H3 C1 1_555 1_555
C2 C1 1_555 1_555
C3 C2 1_555 1_555
H4 C3 1_555 1_555
C4 C3 1_555 1_555
H5 C4 1_555 1_555
C5 C4 1_555 1_555
C6 C5 1_555 1_555
H6 C6 1_555 1_555
C7 C2 1_555 1_555
H7 C7 1_555 1_555
S1 C5 1_555 1_555
O1 S1 1_555 1_555
O2 S1 1_555 1_555
N1 S1 1_555 1_555
H8 N1 1_555 1_555
C8 N1 1_555 1_555
H9 C8 1_555 1_555
H10 C8 1_555 1_555
C9 C8 1_555 1_555
H11 C9 1_555 1_555
C10 C9 1_555 1_555
H12 C10 1_555 1_555
C11 C10 1_555 1_555
H13 C11 1_555 1_555
H14 C11 1_555 1_555
P1 C11 1_555 1_555
O3 P1 1_555 1_555
C12 P1 1_555 1_555
C13 C12 1_555 1_555
H15 C13 1_555 1_555
C14 C13 1_555 1_555
C15 C14 1_555 1_555
H16 C15 1_555 1_555
C16 C15 1_555 1_555
C17 C12 1_555 1_555
H17 C17 1_555 1_555
C18 C14 1_555 1_555
H18 C18 1_555 1_555
H19 C18 1_555 1_555
H20 C18 1_555 1_555
C19 C16 1_555 1_555
H21 C19 1_555 1_555
H22 C19 1_555 1_555
H23 C19 1_555 1_555
C20 P1 1_555 1_555
C21 C20 1_555 1_555
H24 C21 1_555 1_555
C22 C21 1_555 1_555
C23 C22 1_555 1_555
H25 C23 1_555 1_555
C24 C23 1_555 1_555
C25 C20 1_555 1_555
H26 C25 1_555 1_555
C26 C22 1_555 1_555
H27 C26 1_555 1_555
H28 C26 1_555 1_555
H29 C26 1_555 1_555
C27 C24 1_555 1_555
H30 C27 1_555 1_555
H31 C27 1_555 1_555
H32 C27 1_555 1_555
O4 H33 1_555 1_555
H34 O4 1_555 1_555
C6 C7 1_555 1_555
C16 C17 1_555 1_555
C24 C25 1_555 1_555

#END
