
#######################################################################
#
#                 Cambridge Crystallographic Data Centre
#                                CCDC 
#
#######################################################################
#
# If this CIF has been generated from an entry in the Cambridge 
# Structural Database, then it will include bibliographic, chemical, 
# crystal, experimental, refinement or atomic coordinate data resulting 
# from the CCDC's data processing and validation procedures.
#
#######################################################################

data_QILKUT
_chemical_formula_moiety         'C22 H17 N3 O1'
_chemical_name_systematic        
(1-Benzyl-5-phenyl-1H-1,2,3-triazol-4-yl)(phenyl)methanone
_symmetry_cell_setting           monoclinic
_symmetry_space_group_name_H-M   'P 21/n'
_symmetry_Int_Tables_number      14
_space_group_name_Hall           '-P 2yn'
loop_
_symmetry_equiv_pos_site_id
_symmetry_equiv_pos_as_xyz
1 x,y,z
2 1/2-x,1/2+y,1/2-z
3 -x,-y,-z
4 1/2+x,1/2-y,1/2+z
_cell_length_a                   9.9653(4)
_cell_length_b                   12.4158(5)
_cell_length_c                   29.0196(11)
_cell_angle_alpha                90
_cell_angle_beta                 93.220(2)
_cell_angle_gamma                90
_cell_volume                     3584.84
_exptl_crystal_colour            colorless
_exptl_crystal_description       prism
_cell_formula_units_Z            8
loop_
_atom_site_label
_atom_site_type_symbol
_atom_site_fract_x
_atom_site_fract_y
_atom_site_fract_z
C1 C 0.3168(3) 0.0757(2) 0.70795(9)
H1 H 0.3247 0.1337 0.6859
H2 H 0.2220 0.0649 0.7124
C2 C 0.3744(3) -0.0251(2) 0.68889(8)
C3 C 0.2923(3) -0.1113(2) 0.67724(9)
H3 H 0.2010 -0.1080 0.6821
C4 C 0.3471(5) -0.2037(2) 0.65810(10)
H4 H 0.2924 -0.2623 0.6501
C5 C 0.4832(5) -0.2073(3) 0.65112(11)
H5 H 0.5199 -0.2681 0.6380
C6 C 0.5641(4) -0.1218(3) 0.66350(11)
H6 H 0.6559 -0.1248 0.6594
C7 C 0.5088(3) -0.0323(3) 0.68195(10)
H7 H 0.5642 0.0257 0.6901
C8 C 0.4605(2) 0.19386(19) 0.76328(8)
C9 C 0.4884(3) 0.28120(19) 0.73078(8)
C10 C 0.6174(3) 0.2992(2) 0.71790(11)
H8 H 0.6876 0.2565 0.7299
C11 C 0.6428(3) 0.3805(3) 0.68721(12)
H9 H 0.7300 0.3916 0.6783
C12 C 0.5406(3) 0.4451(2) 0.66966(10)
H10 H 0.5583 0.4997 0.6490
C13 C 0.4143(3) 0.4288(2) 0.68259(9)
H11 H 0.3451 0.4730 0.6709
C14 C 0.3865(3) 0.3479(2) 0.71284(8)
H12 H 0.2988 0.3376 0.7214
C15 C 0.5026(2) 0.1758(2) 0.80899(8)
C16 C 0.5772(3) 0.2512(2) 0.84033(9)
C17 C 0.6464(2) 0.21501(18) 0.88425(8)
C18 C 0.6819(3) 0.2941(2) 0.91703(9)
H13 H 0.6591 0.3656 0.9111
C19 C 0.7497(3) 0.2675(2) 0.95780(9)
H14 H 0.7727 0.3208 0.9793
C20 C 0.7838(3) 0.1617(2) 0.96695(10)
H15 H 0.8306 0.1439 0.9945
C21 C 0.7485(3) 0.0822(2) 0.93528(9)
H16 H 0.7708 0.0108 0.9417
C22 C 0.6802(2) 0.1086(2) 0.89397(8)
H17 H 0.6568 0.0548 0.8727
N1 N 0.3852(2) 0.10686(16) 0.75203(7)
N2 N 0.3792(2) 0.03821(17) 0.78822(7)
N3 N 0.4501(2) 0.08053(17) 0.82282(7)
O1 O 0.5802(2) 0.34579(16) 0.82949(7)
C23 C 0.6949(3) 0.5730(2) 1.05918(8)
H18 H 0.6102 0.5534 1.0718
H19 H 0.7291 0.6362 1.0756
C24 C 0.7929(3) 0.4821(2) 1.06680(8)
C25 C 0.7524(3) 0.3857(2) 1.08439(9)
H20 H 0.6626 0.3761 1.0905
C26 C 0.8413(5) 0.3034(3) 1.09308(12)
H21 H 0.8118 0.2390 1.1054
C27 C 0.9718(6) 0.3150(4) 1.08382(13)
H22 H 1.0322 0.2589 1.0896
C28 C 1.0138(4) 0.4090(4) 1.06610(12)
H23 H 1.1035 0.4168 1.0595
C29 C 0.9259(3) 0.4936(3) 1.05768(10)
H24 H 0.9566 0.5582 1.0459
C30 C 0.6687(2) 0.69673(18) 0.98915(8)
C31 C 0.7019(3) 0.79728(19) 1.01429(8)
C32 C 0.8330(3) 0.8254(2) 1.02506(11)
H25 H 0.9023 0.7821 1.0155
C33 C 0.8625(4) 0.9179(3) 1.05011(12)
H26 H 0.9518 0.9364 1.0570
C34 C 0.7643(4) 0.9816(2) 1.06469(10)
H27 H 0.7855 1.0435 1.0816
C35 C 0.6340(4) 0.9548(2) 1.05453(11)
H28 H 0.5659 0.9984 1.0648
C36 C 0.6011(3) 0.8627(2) 1.02883(10)
H29 H 0.5115 0.8456 1.0216
C37 C 0.6306(2) 0.67282(19) 0.94350(8)
C38 C 0.6102(3) 0.7492(2) 0.90494(9)
C39 C 0.5794(2) 0.71290(19) 0.85642(8)
C40 C 0.5172(2) 0.7864(2) 0.82606(9)
H30 H 0.4916 0.8534 0.8369
C41 C 0.4931(3) 0.7612(2) 0.78049(9)
H31 H 0.4515 0.8110 0.7605
C42 C 0.5303(3) 0.6622(2) 0.76421(9)
H32 H 0.5147 0.6455 0.7331
C43 C 0.5906(3) 0.5877(2) 0.79381(9)
H33 H 0.6149 0.5206 0.7828
C44 C 0.6147(3) 0.6127(2) 0.83986(9)
H34 H 0.6549 0.5622 0.8599
N4 N 0.67118(19) 0.59993(16) 1.00981(6)
N5 N 0.6366(2) 0.51965(16) 0.97978(7)
N6 N 0.6122(2) 0.56434(16) 0.93953(7)
O2 O 0.6185(3) 0.84561(15) 0.91318(7)
loop_
_geom_bond_atom_site_label_1
_geom_bond_atom_site_label_2
_geom_bond_site_symmetry_1
_geom_bond_site_symmetry_2
C1 H1 1_555 1_555
H2 C1 1_555 1_555
C2 C1 1_555 1_555
C3 C2 1_555 1_555
H3 C3 1_555 1_555
C4 C3 1_555 1_555
H4 C4 1_555 1_555
C5 C4 1_555 1_555
H5 C5 1_555 1_555
C6 C5 1_555 1_555
H6 C6 1_555 1_555
C7 C2 1_555 1_555
H7 C7 1_555 1_555
C8 C9 1_555 1_555
C9 C10 1_555 1_555
C10 H8 1_555 1_555
C11 C10 1_555 1_555
H9 C11 1_555 1_555
C12 C11 1_555 1_555
H10 C12 1_555 1_555
C13 C12 1_555 1_555
H11 C13 1_555 1_555
C14 C9 1_555 1_555
H12 C14 1_555 1_555
C15 C8 1_555 1_555
C16 C15 1_555 1_555
C17 C16 1_555 1_555
C18 C17 1_555 1_555
H13 C18 1_555 1_555
C19 C18 1_555 1_555
H14 C19 1_555 1_555
C20 C19 1_555 1_555
H15 C20 1_555 1_555
C21 C20 1_555 1_555
H16 C21 1_555 1_555
C22 C17 1_555 1_555
H17 C22 1_555 1_555
N1 C1 1_555 1_555
N2 N1 1_555 1_555
N3 C15 1_555 1_555
O1 C16 1_555 1_555
C23 H18 1_555 1_555
H19 C23 1_555 1_555
C24 C23 1_555 1_555
C25 C24 1_555 1_555
H20 C25 1_555 1_555
C26 C25 1_555 1_555
H21 C26 1_555 1_555
C27 C26 1_555 1_555
H22 C27 1_555 1_555
C28 C27 1_555 1_555
H23 C28 1_555 1_555
C29 C24 1_555 1_555
H24 C29 1_555 1_555
C30 C31 1_555 1_555
C31 C32 1_555 1_555
C32 H25 1_555 1_555
C33 C32 1_555 1_555
H26 C33 1_555 1_555
C34 C33 1_555 1_555
H27 C34 1_555 1_555
C35 C34 1_555 1_555
H28 C35 1_555 1_555
C36 C31 1_555 1_555
H29 C36 1_555 1_555
C37 C30 1_555 1_555
C38 C37 1_555 1_555
C39 C38 1_555 1_555
C40 C39 1_555 1_555
H30 C40 1_555 1_555
C41 C40 1_555 1_555
H31 C41 1_555 1_555
C42 C41 1_555 1_555
H32 C42 1_555 1_555
C43 C42 1_555 1_555
H33 C43 1_555 1_555
C44 C39 1_555 1_555
H34 C44 1_555 1_555
N4 C23 1_555 1_555
N5 N4 1_555 1_555
N6 C37 1_555 1_555
O2 C38 1_555 1_555
C6 C7 1_555 1_555
C8 N1 1_555 1_555
C13 C14 1_555 1_555
C21 C22 1_555 1_555
N2 N3 1_555 1_555
C28 C29 1_555 1_555
C30 N4 1_555 1_555
C35 C36 1_555 1_555
C43 C44 1_555 1_555
N5 N6 1_555 1_555

#END
