
#######################################################################
#
#                 Cambridge Crystallographic Data Centre
#                                CCDC 
#
#######################################################################
#
# If this CIF has been generated from an entry in the Cambridge 
# Structural Database, then it will include bibliographic, chemical, 
# crystal, experimental, refinement or atomic coordinate data resulting 
# from the CCDC's data processing and validation procedures.
#
#######################################################################

data_QILLUV
_chemical_formula_moiety         'C23 H20 N2 S1'
_chemical_name_systematic        
N,2-bis(4-methylphenyl)-5-phenyl-1,2-thiazol-3(2H)-imine
_symmetry_cell_setting           monoclinic
_symmetry_space_group_name_H-M   'P 21/n'
_symmetry_Int_Tables_number      14
_space_group_name_Hall           '-P 2yn'
loop_
_symmetry_equiv_pos_site_id
_symmetry_equiv_pos_as_xyz
1 x,y,z
2 1/2-x,1/2+y,1/2-z
3 -x,-y,-z
4 1/2+x,1/2-y,1/2+z
_cell_length_a                   9.5762(7)
_cell_length_b                   11.6018(6)
_cell_length_c                   17.1037(10)
_cell_angle_alpha                90
_cell_angle_beta                 91.666(6)
_cell_angle_gamma                90
_cell_volume                     1899.44
_exptl_crystal_colour            yellow
_exptl_crystal_description       prismatic
_cell_formula_units_Z            4
loop_
_atom_site_label
_atom_site_type_symbol
_atom_site_fract_x
_atom_site_fract_y
_atom_site_fract_z
S1 S 0.20830(7) 0.65496(5) 0.06042(4)
N1 N 0.1266(2) 0.61821(16) 0.14441(11)
N2 N 0.0105(2) 0.69863(17) 0.24914(12)
C1 C 0.0729(2) 0.71258(18) 0.18490(13)
C2 C 0.1024(2) 0.81590(19) 0.14147(13)
H1 H 0.0745 0.8885 0.1579
C3 C 0.1731(2) 0.79986(19) 0.07554(13)
C4 C 0.2260(3) 0.88521(19) 0.02042(14)
C5 C 0.2105(5) 1.0014(3) 0.0348(2)
H2 H 0.1636 1.0253 0.0788
C6 C 0.2633(6) 1.0821(3) -0.0151(3)
H3 H 0.2513 1.1601 -0.0046
C7 C 0.3328(4) 1.0497(3) -0.07935(19)
H4 H 0.3690 1.1048 -0.1126
C8 C 0.3487(4) 0.9372(3) -0.09439(19)
H5 H 0.3954 0.9142 -0.1387
C9 C 0.2960(3) 0.8550(2) -0.04454(17)
H6 H 0.3088 0.7773 -0.0557
C10 C 0.1062(2) 0.49980(18) 0.16204(13)
C11 C 0.1124(2) 0.4612(2) 0.23879(14)
H7 H 0.1333 0.5121 0.2794
C12 C 0.0874(2) 0.3464(2) 0.25432(15)
H8 H 0.0901 0.3214 0.3060
C13 C 0.0586(3) 0.2675(2) 0.19583(16)
C14 C 0.0556(3) 0.3072(2) 0.11948(16)
H9 H 0.0380 0.2556 0.0788
C15 C 0.0782(3) 0.42185(19) 0.10263(15)
H10 H 0.0747 0.4468 0.0509
C16 C 0.0289(4) 0.1432(2) 0.2148(2)
H11 H -0.0046 0.1378 0.2671
H12 H 0.1131 0.0989 0.2110
H13 H -0.0407 0.1137 0.1786
C17 C -0.0407(2) 0.79807(19) 0.28734(13)
C18 C -0.1723(3) 0.8403(2) 0.27041(17)
H14 H -0.2276 0.8048 0.2318
C19 C -0.2236(3) 0.9342(2) 0.30961(17)
H15 H -0.3127 0.9613 0.2965
C20 C -0.1469(3) 0.98863(19) 0.36750(14)
C21 C -0.0165(3) 0.9448(2) 0.38494(16)
H16 H 0.0378 0.9793 0.4244
C22 C 0.0369(3) 0.8510(2) 0.34596(17)
H17 H 0.1256 0.8235 0.3594
C23 C -0.2015(3) 1.0937(2) 0.40825(18)
H18 H -0.1984 1.0812 0.4637
H19 H -0.2962 1.1079 0.3909
H20 H -0.1448 1.1592 0.3960
loop_
_geom_bond_atom_site_label_1
_geom_bond_atom_site_label_2
_geom_bond_site_symmetry_1
_geom_bond_site_symmetry_2
S1 N1 1_555 1_555
N1 C1 1_555 1_555
N2 C1 1_555 1_555
C1 C2 1_555 1_555
C2 H1 1_555 1_555
C3 S1 1_555 1_555
C4 C3 1_555 1_555
C5 C4 1_555 1_555
H2 C5 1_555 1_555
C6 C5 1_555 1_555
H3 C6 1_555 1_555
C7 C6 1_555 1_555
H4 C7 1_555 1_555
C8 C7 1_555 1_555
H5 C8 1_555 1_555
C9 C4 1_555 1_555
H6 C9 1_555 1_555
C10 N1 1_555 1_555
C11 C10 1_555 1_555
H7 C11 1_555 1_555
C12 C11 1_555 1_555
H8 C12 1_555 1_555
C13 C12 1_555 1_555
C14 C13 1_555 1_555
H9 C14 1_555 1_555
C15 C10 1_555 1_555
H10 C15 1_555 1_555
C16 C13 1_555 1_555
H11 C16 1_555 1_555
H12 C16 1_555 1_555
H13 C16 1_555 1_555
C17 N2 1_555 1_555
C18 C17 1_555 1_555
H14 C18 1_555 1_555
C19 C18 1_555 1_555
H15 C19 1_555 1_555
C20 C19 1_555 1_555
C21 C20 1_555 1_555
H16 C21 1_555 1_555
C22 C17 1_555 1_555
H17 C22 1_555 1_555
C23 C20 1_555 1_555
H18 C23 1_555 1_555
H19 C23 1_555 1_555
H20 C23 1_555 1_555
C2 C3 1_555 1_555
C8 C9 1_555 1_555
C14 C15 1_555 1_555
C21 C22 1_555 1_555

#END
