
#######################################################################
#
#                 Cambridge Crystallographic Data Centre
#                                CCDC 
#
#######################################################################
#
# If this CIF has been generated from an entry in the Cambridge 
# Structural Database, then it will include bibliographic, chemical, 
# crystal, experimental, refinement or atomic coordinate data resulting 
# from the CCDC's data processing and validation procedures.
#
#######################################################################

data_QILQAF
_chemical_formula_moiety         'C38 H40 O6'
_chemical_name_systematic        
1-(4,5-bis(benzyloxy)-6-((benzyloxy)methyl)-2-(4-methylphenyl)hexahydro-4H-furo[2,3-b]pyran-3-yl)ethanone
_symmetry_cell_setting           orthorhombic
_symmetry_space_group_name_H-M   'P 21 21 21'
_symmetry_Int_Tables_number      19
_space_group_name_Hall           'P 2ac 2ab'
loop_
_symmetry_equiv_pos_site_id
_symmetry_equiv_pos_as_xyz
1 x,y,z
2 1/2-x,-y,1/2+z
3 1/2+x,1/2-y,-z
4 -x,1/2+y,1/2-z
_cell_length_a                   9.1540(4)
_cell_length_b                   16.5101(16)
_cell_length_c                   21.8992(16)
_cell_angle_alpha                90
_cell_angle_beta                 90
_cell_angle_gamma                90
_cell_volume                     3309.7
_exptl_crystal_colour            colorless
_exptl_crystal_description       block
_cell_formula_units_Z            4
loop_
_atom_site_label
_atom_site_type_symbol
_atom_site_fract_x
_atom_site_fract_y
_atom_site_fract_z
O1 O -0.5012(2) -0.84923(15) 0.01402(10)
O2 O -0.5096(2) -0.74474(14) -0.05510(10)
O3 O -0.5184(3) -0.8123(2) 0.14287(11)
O4 O -0.6928(2) -0.97927(16) 0.01471(12)
O5 O -0.8875(2) -0.90898(14) -0.07759(10)
O6 O -0.5459(4) -0.8125(2) -0.23054(13)
C1 C -0.6345(3) -0.8462(2) 0.04846(15)
H1 H -0.6700 -0.7903 0.0496
C2 C -0.7486(3) -0.8995(2) 0.01829(16)
H2 H -0.8376 -0.8995 0.0431
C3 C -0.7821(3) -0.8640(2) -0.04398(14)
H3 H -0.8193 -0.8089 -0.0383
C4 C -0.6460(3) -0.8599(2) -0.08305(14)
H4 H -0.6263 -0.9131 -0.1011
C5 C -0.5103(3) -0.8303(2) -0.04779(15)
H5 H -0.4234 -0.8521 -0.0681
C6 C -0.5454(3) -0.7304(2) -0.11815(15)
H6 H -0.4579 -0.7399 -0.1429
C7 C -0.6606(3) -0.7956(2) -0.13430(14)
H7 H -0.7575 -0.7708 -0.1308
C8 C -0.5992(4) -0.8733(3) 0.11243(17)
H8 H -0.6889 -0.8841 0.1345
H9 H -0.5426 -0.9230 0.1111
C9 C -0.4653(4) -0.8387(4) 0.20063(18)
H10 H -0.3948 -0.7994 0.2154
H11 H -0.4142 -0.8897 0.1950
C10 C -0.5799(4) -0.8501(3) 0.24838(17)
C11 C -0.7020(5) -0.8006(3) 0.2520(2)
H12 H -0.7159 -0.7600 0.2231
C12 C -0.8019(5) -0.8109(3) 0.2977(2)
H13 H -0.8841 -0.7778 0.2992
C13 C -0.7829(6) -0.8685(4) 0.3407(2)
H14 H -0.8516 -0.8753 0.3715
C14 C -0.6641(6) -0.9160(3) 0.3386(2)
H15 H -0.6496 -0.9549 0.3686
C15 C -0.5638(4) -0.9076(3) 0.2925(2)
H16 H -0.4832 -0.9418 0.2913
C16 C -0.7855(5) -1.0420(3) 0.0312(3)
H17 H -0.8515 -1.0539 -0.0023
H18 H -0.8435 -1.0259 0.0662
C17 C -0.6999(6) -1.1154(3) 0.0464(2)
C18 C -0.7346(11) -1.1619(5) 0.0958(3)
H19 H -0.8143 -1.1496 0.1205
C19 C -0.647(2) -1.2282(7) 0.1079(6)
H20 H -0.6610 -1.2545 0.1450
C20 C -0.5506(17) -1.2558(5) 0.0738(8)
H21 H -0.5067 -1.3055 0.0818
C21 C -0.5107(12) -1.2100(6) 0.0231(5)
H22 H -0.4343 -1.2260 -0.0021
C22 C -0.5880(8) -1.1403(4) 0.0118(3)
H23 H -0.5614 -1.1089 -0.0217
C23 C -1.0318(3) -0.8959(3) -0.0567(2)
H24 H -1.0536 -0.8384 -0.0574
H25 H -1.0410 -0.9147 -0.0149
C24 C -1.1366(4) -0.9401(3) -0.09635(19)
C25 C -1.1975(4) -1.0121(3) -0.0791(2)
H26 H -1.1711 -1.0355 -0.0420
C26 C -1.2992(6) -1.0509(4) -0.1167(3)
H27 H -1.3401 -1.1002 -0.1054
C27 C -1.3368(5) -1.0149(5) -0.1702(3)
H28 H -1.4048 -1.0397 -0.1957
C28 C -1.2780(6) -0.9451(4) -0.1867(3)
H29 H -1.3047 -0.9213 -0.2235
C29 C -1.1789(4) -0.9081(3) -0.1500(2)
H30 H -1.1389 -0.8590 -0.1623
C30 C -0.5890(3) -0.6432(2) -0.12475(16)
C31 C -0.6995(4) -0.6127(3) -0.08855(17)
H31 H -0.7497 -0.6469 -0.0622
C32 C -0.7361(4) -0.5317(3) -0.09130(19)
H32 H -0.8117 -0.5122 -0.0670
C33 C -0.6629(5) -0.4792(3) -0.1292(2)
C34 C -0.5548(5) -0.5101(3) -0.1657(2)
H33 H -0.5057 -0.4758 -0.1924
C35 C -0.5171(4) -0.5912(3) -0.16385(16)
H34 H -0.4432 -0.6106 -0.1890
C36 C -0.7009(7) -0.3887(3) -0.1306(3)
H35 H -0.6889 -0.3661 -0.0905
H36 H -0.8004 -0.3820 -0.1435
H37 H -0.6372 -0.3613 -0.1587
C37 C -0.6453(4) -0.8288(3) -0.19858(18)
C38 C -0.7618(6) -0.8837(4) -0.2207(2)
H38 H -0.7300 -0.9389 -0.2167
H39 H -0.7822 -0.8722 -0.2628
H40 H -0.8486 -0.8756 -0.1968
loop_
_geom_bond_atom_site_label_1
_geom_bond_atom_site_label_2
_geom_bond_site_symmetry_1
_geom_bond_site_symmetry_2
O1 C1 1_555 1_555
O2 C5 1_555 1_555
O3 C8 1_555 1_555
O4 C2 1_555 1_555
O5 C3 1_555 1_555
O6 C37 1_555 1_555
C1 H1 1_555 1_555
C2 C1 1_555 1_555
H2 C2 1_555 1_555
C3 C2 1_555 1_555
H3 C3 1_555 1_555
C4 C3 1_555 1_555
H4 C4 1_555 1_555
C5 O1 1_555 1_555
H5 C5 1_555 1_555
C6 O2 1_555 1_555
H6 C6 1_555 1_555
C7 C4 1_555 1_555
H7 C7 1_555 1_555
C8 C1 1_555 1_555
H8 C8 1_555 1_555
H9 C8 1_555 1_555
C9 O3 1_555 1_555
H10 C9 1_555 1_555
H11 C9 1_555 1_555
C10 C9 1_555 1_555
C11 C10 1_555 1_555
H12 C11 1_555 1_555
C12 C11 1_555 1_555
H13 C12 1_555 1_555
C13 C12 1_555 1_555
H14 C13 1_555 1_555
C14 C13 1_555 1_555
H15 C14 1_555 1_555
C15 C10 1_555 1_555
H16 C15 1_555 1_555
C16 O4 1_555 1_555
H17 C16 1_555 1_555
H18 C16 1_555 1_555
C17 C16 1_555 1_555
C18 C17 1_555 1_555
H19 C18 1_555 1_555
C19 C18 1_555 1_555
H20 C19 1_555 1_555
C20 C19 1_555 1_555
H21 C20 1_555 1_555
C21 C20 1_555 1_555
H22 C21 1_555 1_555
C22 C17 1_555 1_555
H23 C22 1_555 1_555
C23 O5 1_555 1_555
H24 C23 1_555 1_555
H25 C23 1_555 1_555
C24 C23 1_555 1_555
C25 C24 1_555 1_555
H26 C25 1_555 1_555
C26 C25 1_555 1_555
H27 C26 1_555 1_555
C27 C26 1_555 1_555
H28 C27 1_555 1_555
C28 C27 1_555 1_555
H29 C28 1_555 1_555
C29 C24 1_555 1_555
H30 C29 1_555 1_555
C30 C6 1_555 1_555
C31 C30 1_555 1_555
H31 C31 1_555 1_555
C32 C31 1_555 1_555
H32 C32 1_555 1_555
C33 C32 1_555 1_555
C34 C33 1_555 1_555
H33 C34 1_555 1_555
C35 C30 1_555 1_555
H34 C35 1_555 1_555
C36 C33 1_555 1_555
H35 C36 1_555 1_555
H36 C36 1_555 1_555
H37 C36 1_555 1_555
C37 C7 1_555 1_555
C38 C37 1_555 1_555
H38 C38 1_555 1_555
H39 C38 1_555 1_555
H40 C38 1_555 1_555
C4 C5 1_555 1_555
C6 C7 1_555 1_555
C14 C15 1_555 1_555
C21 C22 1_555 1_555
C28 C29 1_555 1_555
C34 C35 1_555 1_555

#END
