
#######################################################################
#
#                 Cambridge Crystallographic Data Centre
#                                CCDC 
#
#######################################################################
#
# If this CIF has been generated from an entry in the Cambridge 
# Structural Database, then it will include bibliographic, chemical, 
# crystal, experimental, refinement or atomic coordinate data resulting 
# from the CCDC's data processing and validation procedures.
#
#######################################################################

data_QILWOZ
_chemical_formula_moiety         'C16 H10 N3 O1 P1 S2'
_chemical_name_systematic        
4-(4-Oxido-4H-thieno[2',3':4,5]phospholo[3,2-b]thiophen-4-yl)-1-phenyl-1H-1,2,3-triazole
_symmetry_cell_setting           triclinic
_symmetry_space_group_name_H-M   'P -1'
_symmetry_Int_Tables_number      2
_space_group_name_Hall           '-P 1'
loop_
_symmetry_equiv_pos_site_id
_symmetry_equiv_pos_as_xyz
1 x,y,z
2 -x,-y,-z
_cell_length_a                   11.4280(4)
_cell_length_b                   11.7430(4)
_cell_length_c                   12.2150(4)
_cell_angle_alpha                103.705(2)
_cell_angle_beta                 104.420(2)
_cell_angle_gamma                93.6210(19)
_cell_volume                     1529.34
_exptl_crystal_colour            'light yellow'
_exptl_crystal_description       block
_cell_formula_units_Z            4
loop_
_atom_site_label
_atom_site_type_symbol
_atom_site_fract_x
_atom_site_fract_y
_atom_site_fract_z
P1 P 0.38736(6) 0.37324(6) 0.77532(6)
S1 S 0.19256(7) 0.47758(8) 0.48652(7)
S2 S 0.51569(7) 0.63060(7) 0.63508(7)
O1 O 0.35712(18) 0.39264(18) 0.88803(17)
N1 N 0.3803(2) 0.1363(2) 0.6735(3)
N2 N 0.4488(2) 0.0521(2) 0.6693(3)
N3 N 0.5631(2) 0.10097(19) 0.7320(2)
C1 C 0.0978(3) 0.3668(3) 0.5011(3)
H1 H 0.0175 0.3401 0.4516
C2 C 0.1494(2) 0.3215(3) 0.5906(3)
H2 H 0.1101 0.2591 0.6111
C3 C 0.2686(2) 0.3778(2) 0.6499(2)
C4 C 0.3034(2) 0.4643(2) 0.6030(2)
C5 C 0.4266(2) 0.5239(2) 0.6599(2)
C6 C 0.4866(2) 0.4849(2) 0.7535(2)
C7 C 0.6064(3) 0.5416(3) 0.8045(3)
H3 H 0.6610 0.5255 0.8700
C8 C 0.6347(3) 0.6217(3) 0.7491(3)
H4 H 0.7120 0.6681 0.7708
C9 C 0.4502(2) 0.2397(2) 0.7385(2)
C10 C 0.5667(2) 0.2173(2) 0.7767(2)
H5 H 0.6355 0.2722 0.8246
C11 C 0.6589(3) 0.0295(2) 0.7450(3)
C12 C 0.6594(3) -0.0635(3) 0.6525(3)
H6 H 0.5975 -0.0796 0.5806
C13 C 0.7514(4) -0.1321(3) 0.6666(5)
H7 H 0.7535 -0.1968 0.6037
C14 C 0.8403(4) -0.1093(4) 0.7698(6)
H8 H 0.9034 -0.1582 0.7785
C15 C 0.8386(3) -0.0156(4) 0.8610(5)
H9 H 0.9015 0.0006 0.9322
C16 C 0.7467(3) 0.0558(3) 0.8509(3)
H10 H 0.7443 0.1199 0.9141
P2 P -0.09474(6) 0.35473(6) 0.83042(6)
S3 S -0.16456(11) 0.09090(8) 0.51838(8)
S4 S 0.10715(9) 0.07573(8) 0.76479(10)
O2 O -0.17831(17) 0.37505(19) 0.90544(17)
N4 N -0.0660(2) 0.5803(2) 0.8045(3)
N5 N 0.0164(2) 0.6643(2) 0.8100(3)
N6 N 0.1259(2) 0.62426(19) 0.83599(19)
C17 C -0.2767(4) 0.1795(3) 0.4972(3)
H11 H -0.3399 0.1658 0.4265
C18 C -0.2661(3) 0.2709(3) 0.5911(3)
H12 H -0.3209 0.3284 0.5952
C19 C -0.1630(3) 0.2699(3) 0.6828(2)
C20 C -0.1003(3) 0.1772(3) 0.6567(3)
C21 C 0.0014(3) 0.1694(2) 0.7513(3)
C22 C 0.0172(3) 0.2570(2) 0.8530(3)
C23 C 0.1172(3) 0.2466(3) 0.9433(3)
H13 H 0.1420 0.2990 1.0196
C24 C 0.1734(3) 0.1516(3) 0.9068(4)
H14 H 0.2423 0.1298 0.9554
C25 C -0.0106(2) 0.4853(2) 0.8269(2)
C26 C 0.1119(2) 0.5138(2) 0.8479(2)
H15 H 0.1739 0.4659 0.8669
C27 C 0.2349(2) 0.7004(2) 0.8538(2)
C28 C 0.2288(3) 0.7964(3) 0.8068(3)
H16 H 0.1532 0.8110 0.7621
C29 C 0.3339(3) 0.8708(3) 0.8258(3)
H17 H 0.3305 0.9376 0.7946
C30 C 0.4439(3) 0.8495(3) 0.8895(3)
H18 H 0.5162 0.9009 0.9014
C31 C 0.4489(3) 0.7535(3) 0.9358(3)
H19 H 0.5247 0.7386 0.9797
C32 C 0.3438(3) 0.6785(2) 0.9188(2)
H20 H 0.3469 0.6127 0.9516
loop_
_geom_bond_atom_site_label_1
_geom_bond_atom_site_label_2
_geom_bond_site_symmetry_1
_geom_bond_site_symmetry_2
P1 O1 1_555 1_555
S1 C1 1_555 1_555
S2 C5 1_555 1_555
N1 N2 1_555 1_555
N2 N3 1_555 1_555
N3 C10 1_555 1_555
C1 H1 1_555 1_555
C2 C1 1_555 1_555
H2 C2 1_555 1_555
C3 P1 1_555 1_555
C4 S1 1_555 1_555
C5 C4 1_555 1_555
C6 P1 1_555 1_555
C7 C6 1_555 1_555
H3 C7 1_555 1_555
C8 S2 1_555 1_555
H4 C8 1_555 1_555
C9 P1 1_555 1_555
C10 C9 1_555 1_555
H5 C10 1_555 1_555
C11 N3 1_555 1_555
C12 C11 1_555 1_555
H6 C12 1_555 1_555
C13 C12 1_555 1_555
H7 C13 1_555 1_555
C14 C13 1_555 1_555
H8 C14 1_555 1_555
C15 C14 1_555 1_555
H9 C15 1_555 1_555
C16 C11 1_555 1_555
H10 C16 1_555 1_555
P2 O2 1_555 1_555
S3 C17 1_555 1_555
S4 C21 1_555 1_555
N4 N5 1_555 1_555
N5 N6 1_555 1_555
N6 C26 1_555 1_555
C17 H11 1_555 1_555
C18 C17 1_555 1_555
H12 C18 1_555 1_555
C19 P2 1_555 1_555
C20 S3 1_555 1_555
C21 C20 1_555 1_555
C22 P2 1_555 1_555
C23 C22 1_555 1_555
H13 C23 1_555 1_555
C24 S4 1_555 1_555
H14 C24 1_555 1_555
C25 P2 1_555 1_555
C26 C25 1_555 1_555
H15 C26 1_555 1_555
C27 N6 1_555 1_555
C28 C27 1_555 1_555
H16 C28 1_555 1_555
C29 C28 1_555 1_555
H17 C29 1_555 1_555
C30 C29 1_555 1_555
H18 C30 1_555 1_555
C31 C30 1_555 1_555
H19 C31 1_555 1_555
C32 C27 1_555 1_555
H20 C32 1_555 1_555
N1 C9 1_555 1_555
C2 C3 1_555 1_555
C3 C4 1_555 1_555
C5 C6 1_555 1_555
C7 C8 1_555 1_555
C15 C16 1_555 1_555
N4 C25 1_555 1_555
C18 C19 1_555 1_555
C19 C20 1_555 1_555
C21 C22 1_555 1_555
C23 C24 1_555 1_555
C31 C32 1_555 1_555

#END
