
#######################################################################
#
#                 Cambridge Crystallographic Data Centre
#                                CCDC 
#
#######################################################################
#
# If this CIF has been generated from an entry in the Cambridge 
# Structural Database, then it will include bibliographic, chemical, 
# crystal, experimental, refinement or atomic coordinate data resulting 
# from the CCDC's data processing and validation procedures.
#
#######################################################################

data_QIMBAP
_chemical_formula_moiety         'C16 H23 N1 O10 S1'
_chemical_name_systematic        
'O-methyl N-(2,3,4,6-tetra-O-acetyl-\b-D-glucopyranosyl)thiocarbamate'
_symmetry_cell_setting           monoclinic
_symmetry_space_group_name_H-M   'P 21'
_symmetry_Int_Tables_number      4
_space_group_name_Hall           'P 2yb'
loop_
_symmetry_equiv_pos_site_id
_symmetry_equiv_pos_as_xyz
1 x,y,z
2 -x,1/2+y,-z
_cell_length_a                   7.3543(2)
_cell_length_b                   10.25550(10)
_cell_length_c                   14.0142(4)
_cell_angle_alpha                90
_cell_angle_beta                 100.684(2)
_cell_angle_gamma                90
_cell_volume                     1038.66
_exptl_crystal_colour            colorless
_exptl_crystal_description       needle
_cell_formula_units_Z            2
loop_
_atom_site_label
_atom_site_type_symbol
_atom_site_fract_x
_atom_site_fract_y
_atom_site_fract_z
S1 S 0.4058(2) 0.47378(15) 0.30340(12)
O1 O 0.5576(4) 0.8095(3) 0.3225(2)
O2 O 0.5575(5) 0.7557(4) 0.0647(2)
O3 O 0.4038(6) 0.9201(5) -0.0190(3)
O4 O 0.8071(4) 0.9680(4) 0.1122(2)
O5 O 1.0902(6) 0.8938(6) 0.1109(4)
O6 O 1.0039(4) 0.9559(3) 0.3143(2)
O7 O 0.9609(6) 1.1694(4) 0.2877(4)
O8 O 0.6980(4) 1.0214(4) 0.4549(3)
O9 O 0.9684(5) 1.1029(5) 0.5307(3)
O10 O 0.0900(5) 0.5878(4) 0.2208(3)
C1 C 0.5251(6) 0.7396(5) 0.2322(3)
H1 H 0.6041 0.6619 0.2382
C2 C 0.5748(6) 0.8280(5) 0.1541(3)
H2 H 0.4926 0.9040 0.1450
C3 C 0.7743(6) 0.8717(5) 0.1825(3)
H3 H 0.8567 0.7969 0.1808
C4 C 0.8099(6) 0.9309(4) 0.2829(3)
H4 H 0.7411 1.0129 0.2819
C5 C 0.7482(6) 0.8377(5) 0.3552(3)
H5 H 0.8190 0.7565 0.3564
C6 C 0.4684(7) 0.8124(6) -0.0183(4)
C7 C 0.4799(10) 0.7301(8) -0.1036(4)
H6 H 0.5381 0.6488 -0.0822
H7 H 0.5514 0.7742 -0.1445
H8 H 0.3576 0.7140 -0.1394
C8 C 0.9686(7) 0.9711(6) 0.0835(3)
C9 C 0.9858(9) 1.0827(8) 0.0198(5)
H9 H 1.1047 1.0804 0.0008
H10 H 0.9736 1.1624 0.0540
H11 H 0.8903 1.0782 -0.0370
C10 C 1.0628(7) 1.0796(6) 0.3143(4)
C11 C 1.2664(7) 1.0899(7) 0.3510(5)
H12 H 1.3163 1.0047 0.3677
H13 H 1.2889 1.1449 0.4074
H14 H 1.3248 1.1268 0.3014
C12 C 0.7739(7) 0.8915(6) 0.4567(4)
H15 H 0.7123 0.8355 0.4966
H16 H 0.9046 0.8937 0.4851
C13 C 0.8081(7) 1.1198(6) 0.4972(4)
C14 C 0.7078(9) 1.2424(8) 0.4920(6)
H17 H 0.5814 1.2283 0.4614
H18 H 0.7637 1.3041 0.4548
H19 H 0.7120 1.2757 0.5564
N1 N 0.3383(6) 0.7011(4) 0.2131(3)
C15 C 0.2752(7) 0.5893(5) 0.2442(3)
C16 C -0.0065(9) 0.4700(8) 0.2397(5)
H20 H -0.1374 0.4825 0.2195
H21 H 0.0209 0.4507 0.3078
H22 H 0.0332 0.3988 0.2040
H23 H 0.266(7) 0.751(7) 0.182(4)
loop_
_geom_bond_atom_site_label_1
_geom_bond_atom_site_label_2
_geom_bond_site_symmetry_1
_geom_bond_site_symmetry_2
S1 C15 1_555 1_555
O1 C1 1_555 1_555
O2 C2 1_555 1_555
O3 C6 1_555 1_555
O4 C3 1_555 1_555
O5 C8 1_555 1_555
O6 C4 1_555 1_555
O7 C10 1_555 1_555
O8 C12 1_555 1_555
O9 C13 1_555 1_555
O10 C15 1_555 1_555
C1 H1 1_555 1_555
C2 C1 1_555 1_555
H2 C2 1_555 1_555
C3 C2 1_555 1_555
H3 C3 1_555 1_555
C4 C3 1_555 1_555
H4 C4 1_555 1_555
C5 O1 1_555 1_555
H5 C5 1_555 1_555
C6 O2 1_555 1_555
C7 C6 1_555 1_555
H6 C7 1_555 1_555
H7 C7 1_555 1_555
H8 C7 1_555 1_555
C8 O4 1_555 1_555
C9 C8 1_555 1_555
H9 C9 1_555 1_555
H10 C9 1_555 1_555
H11 C9 1_555 1_555
C10 O6 1_555 1_555
C11 C10 1_555 1_555
H12 C11 1_555 1_555
H13 C11 1_555 1_555
H14 C11 1_555 1_555
C12 C5 1_555 1_555
H15 C12 1_555 1_555
H16 C12 1_555 1_555
C13 O8 1_555 1_555
C14 C13 1_555 1_555
H17 C14 1_555 1_555
H18 C14 1_555 1_555
H19 C14 1_555 1_555
N1 C1 1_555 1_555
C15 N1 1_555 1_555
C16 O10 1_555 1_555
H20 C16 1_555 1_555
H21 C16 1_555 1_555
H22 C16 1_555 1_555
H23 N1 1_555 1_555
C4 C5 1_555 1_555

#END
