
#######################################################################
#
#                 Cambridge Crystallographic Data Centre
#                                CCDC 
#
#######################################################################
#
# If this CIF has been generated from an entry in the Cambridge 
# Structural Database, then it will include bibliographic, chemical, 
# crystal, experimental, refinement or atomic coordinate data resulting 
# from the CCDC's data processing and validation procedures.
#
#######################################################################

data_QIMFEX
_chemical_formula_moiety         'C7 H6 N2 O5 S1'
_chemical_name_systematic        'Methyl 2,4-dinitrobenzenesulfenate'
_symmetry_cell_setting           monoclinic
_symmetry_space_group_name_H-M   'P 21/n'
_symmetry_Int_Tables_number      14
_space_group_name_Hall           '-P 2yn'
loop_
_symmetry_equiv_pos_site_id
_symmetry_equiv_pos_as_xyz
1 x,y,z
2 1/2+x,1/2-y,1/2+z
3 -x,-y,-z
4 1/2-x,1/2+y,1/2-z
_cell_length_a                   4.0413(2)
_cell_length_b                   16.6702(10)
_cell_length_c                   14.0749(8)
_cell_angle_alpha                90
_cell_angle_beta                 97.1830(10)
_cell_angle_gamma                90
_cell_volume                     940.774
_exptl_crystal_colour            yellow
_exptl_crystal_description       block
_cell_formula_units_Z            4
_exptl_crystal_recrystallization_method methanol
loop_
_atom_site_label
_atom_site_type_symbol
_atom_site_fract_x
_atom_site_fract_y
_atom_site_fract_z
C1 C -0.1474(3) 0.76321(10) 0.51697(10)
S1 S -0.29309(10) 0.85383(3) 0.46521(3)
O1 O -0.4346(3) 0.89634(8) 0.55651(10)
C2 C -0.1966(6) 0.94450(13) 0.61738(16)
C3 C 0.0124(4) 0.70494(10) 0.46748(10)
N1 N 0.0589(4) 0.71954(10) 0.36886(9)
O2 O -0.0662(4) 0.78125(10) 0.33211(8)
O3 O 0.2229(5) 0.67316(11) 0.32747(10)
C4 C 0.1306(4) 0.63358(10) 0.50802(11)
C5 C 0.0846(4) 0.61974(10) 0.60154(11)
N2 N 0.2140(4) 0.54539(10) 0.64745(11)
O4 O 0.3590(5) 0.49897(10) 0.60188(14)
O5 O 0.1735(5) 0.53473(11) 0.73044(12)
C6 C -0.0760(4) 0.67448(11) 0.65373(10)
C7 C -0.1897(4) 0.74511(11) 0.61237(10)
H1 H -0.0015 0.9131 0.6377
H2 H -0.2952 0.9619 0.6724
H3 H -0.1352 0.9904 0.5823
H4 H 0.2373 0.5962 0.4733
H5 H -0.1066 0.6633 0.7168
H6 H -0.2968 0.7818 0.6479
loop_
_geom_bond_atom_site_label_1
_geom_bond_atom_site_label_2
_geom_bond_site_symmetry_1
_geom_bond_site_symmetry_2
C1 S1 1_555 1_555
S1 O1 1_555 1_555
O1 C2 1_555 1_555
C2 H1 1_555 1_555
C3 C1 1_555 1_555
N1 C3 1_555 1_555
O2 N1 1_555 1_555
O3 N1 1_555 1_555
C4 C3 1_555 1_555
C5 C4 1_555 1_555
N2 C5 1_555 1_555
O4 N2 1_555 1_555
O5 N2 1_555 1_555
C6 C5 1_555 1_555
C7 C1 1_555 1_555
H2 C2 1_555 1_555
H3 C2 1_555 1_555
H4 C4 1_555 1_555
H5 C6 1_555 1_555
H6 C7 1_555 1_555
C6 C7 1_555 1_555

#END
