
#######################################################################
#
#                 Cambridge Crystallographic Data Centre
#                                CCDC 
#
#######################################################################
#
# If this CIF has been generated from an entry in the Cambridge 
# Structural Database, then it will include bibliographic, chemical, 
# crystal, experimental, refinement or atomic coordinate data resulting 
# from the CCDC's data processing and validation procedures.
#
#######################################################################

data_QIMKIG06
_chemical_name_common            Gabapentin
_chemical_formula_moiety         'C9 H17 N1 O2'
_chemical_name_systematic        1-(ammoniomethyl)cyclohexaneacetate
_symmetry_cell_setting           monoclinic
_symmetry_space_group_name_H-M   'P 21/c'
_symmetry_Int_Tables_number      14
_space_group_name_Hall           '-P 2ybc'
loop_
_symmetry_equiv_pos_site_id
_symmetry_equiv_pos_as_xyz
1 x,y,z
2 -x,1/2+y,1/2-z
3 -x,-y,-z
4 x,1/2-y,1/2+z
_cell_length_a                   5.9024(12)
_cell_length_b                   6.9239(14)
_cell_length_c                   22.455(5)
_cell_angle_alpha                90
_cell_angle_beta                 90.00(3)
_cell_angle_gamma                90
_cell_volume                     917.683
_exptl_crystal_colour            colorless
_exptl_crystal_description       rod
_cell_formula_units_Z            4
loop_
_atom_site_label
_atom_site_type_symbol
_atom_site_fract_x
_atom_site_fract_y
_atom_site_fract_z
O1 O 0.32783(14) 0.72168(11) 0.02215(4)
N1 N 0.22603(17) 1.33324(15) 0.01538(4)
O2 O 0.03399(13) 0.82810(13) 0.07347(4)
C1 C 0.12632(18) 1.26970(16) 0.07358(5)
H1 H 0.0025 1.1813 0.0656
H2 H 0.0637 1.3816 0.0937
C2 C 0.29535(16) 1.17052(15) 0.11543(5)
C3 C 0.1700(2) 1.11705(17) 0.17345(5)
H3 H 0.0302 1.0513 0.1632
H4 H 0.2629 1.0272 0.1958
C4 C 0.23736(18) 0.83685(15) 0.05887(5)
C5 C 0.39495(17) 0.98751(15) 0.08590(5)
H5 H 0.4969 1.0300 0.0546
H6 H 0.4869 0.9226 0.1156
C6 C 0.49802(18) 1.30354(16) 0.13036(5)
H7 H 0.6134 1.2277 0.1504
H8 H 0.5627 1.3510 0.0934
C7 C 0.1135(2) 1.28960(19) 0.21340(5)
H9 H 0.0017 1.3702 0.1938
H10 H 0.0484 1.2434 0.2504
C8 C 0.4373(2) 1.47576(17) 0.16955(5)
H11 H 0.5737 1.5477 0.1790
H12 H 0.3358 1.5609 0.1480
C9 C 0.3239(2) 1.40969(19) 0.22696(5)
H13 H 0.2816 1.5216 0.2505
H14 H 0.4298 1.3332 0.2501
H15 H 0.366(2) 1.2836(18) 0.0086(6)
H16 H 0.132(3) 1.299(2) -0.0146(8)
H17 H 0.238(2) 1.470(2) 0.0150(6)
loop_
_geom_bond_atom_site_label_1
_geom_bond_atom_site_label_2
_geom_bond_site_symmetry_1
_geom_bond_site_symmetry_2
O1 C4 1_555 1_555
N1 C1 1_555 1_555
O2 C4 1_555 1_555
C1 H1 1_555 1_555
H2 C1 1_555 1_555
C2 C1 1_555 1_555
C3 C2 1_555 1_555
H3 C3 1_555 1_555
H4 C3 1_555 1_555
C4 C5 1_555 1_555
C5 C2 1_555 1_555
H5 C5 1_555 1_555
H6 C5 1_555 1_555
C6 C2 1_555 1_555
H7 C6 1_555 1_555
H8 C6 1_555 1_555
C7 C3 1_555 1_555
H9 C7 1_555 1_555
H10 C7 1_555 1_555
C8 C6 1_555 1_555
H11 C8 1_555 1_555
H12 C8 1_555 1_555
C9 C7 1_555 1_555
H13 C9 1_555 1_555
H14 C9 1_555 1_555
H15 N1 1_555 1_555
H16 N1 1_555 1_555
H17 N1 1_555 1_555
C8 C9 1_555 1_555

#END
