
#######################################################################
#
#                 Cambridge Crystallographic Data Centre
#                                CCDC 
#
#######################################################################
#
# If this CIF has been generated from an entry in the Cambridge 
# Structural Database, then it will include bibliographic, chemical, 
# crystal, experimental, refinement or atomic coordinate data resulting 
# from the CCDC's data processing and validation procedures.
#
#######################################################################

data_QIMQEI
_chemical_formula_moiety         
'2(C28 H40 Na1 O8 1+),2(C13 H12 B1 1-),C4 H8 O1'
_chemical_name_systematic        
'(Dibenzo-18-crown-6)-bis(tetrahydrofuran)-sodium boratastilbene tetrahydrofuran solvate'
_symmetry_cell_setting           triclinic
_symmetry_space_group_name_H-M   'P -1'
_symmetry_Int_Tables_number      2
_space_group_name_Hall           '-P 1'
loop_
_symmetry_equiv_pos_site_id
_symmetry_equiv_pos_as_xyz
1 x,y,z
2 -x,-y,-z
_cell_length_a                   12.869(2)
_cell_length_b                   13.820(2)
_cell_length_c                   24.190(4)
_cell_angle_alpha                82.577(3)
_cell_angle_beta                 84.962(3)
_cell_angle_gamma                70.444(3)
_cell_volume                     4015.46
_cell_formula_units_Z            2
_exptl_crystal_recrystallization_method 'diethyl ether/benzene'
loop_
_atom_site_label
_atom_site_type_symbol
_atom_site_fract_x
_atom_site_fract_y
_atom_site_fract_z
Na1 Na 0.7815(1) 0.7143(1) 0.2081(4)
O1 O 0.6977(2) 0.8585(2) 0.1515(1)
O2 O 0.8449(2) 0.5577(2) 0.2638(1)
C1 C 0.6355(3) 0.9584(3) 0.1658(2)
C2 C 0.9457(3) 0.5147(3) 0.2926(2)
C3 C 0.6838(3) 1.0325(3) 0.1304(1)
C4 C 0.9342(4) 0.4307(4) 0.3340(2)
C5 C 0.7428(3) 0.9726(3) 0.0811(2)
C6 C 0.8139(3) 0.4430(3) 0.3374(2)
C7 C 0.7174(3) 0.8725(3) 0.0918(1)
C8 C 0.7783(3) 0.4949(3) 0.2809(2)
C9 C 0.4919(3) 0.7588(2) 0.2169(1)
C10 C 0.3850(3) 0.8193(3) 0.2244(2)
C11 C 0.3097(3) 0.8346(3) 0.1832(2)
C12 C 0.3449(3) 0.7877(3) 0.1358(2)
C13 C 0.4516(3) 0.7255(3) 0.1275(2)
C14 C 0.5270(3) 0.7093(3) 0.1689(1)
C15 C 0.9645(2) 0.8618(2) 0.1898(1)
C16 C 0.9728(3) 0.9582(3) 0.1854(1)
C17 C 1.0232(3) 0.9940(3) 0.1374(2)
C18 C 1.0654(3) 0.9310(3) 0.0956(2)
C19 C 1.0582(3) 0.8329(3) 0.1005(1)
C20 C 1.0072(2) 0.7975(2) 0.1474(1)
O3 O 0.9910(2) 0.7035(2) 0.1560(1)
C21 C 1.0213(3) 0.6419(3) 0.1101(1)
O4 O 0.8547(2) 0.6073(2) 0.1262(1)
C22 C 0.9691(3) 0.5595(3) 0.1231(2)
O5 O 0.6347(2) 0.6481(2) 0.1661(1)
C23 C 0.7930(3) 0.5391(3) 0.1228(1)
O6 O 0.5743(2) 0.7401(2) 0.2540(1)
C24 C 0.6751(3) 0.6021(3) 0.1158(1)
O7 O 0.7195(2) 0.8182(2) 0.2939(1)
C25 C 0.5456(3) 0.7961(3) 0.3018(1)
O8 O 0.9130(2) 0.8193(2) 0.2341(1)
C26 C 0.6505(3) 0.7752(3) 0.3307(1)
C27 C 0.8129(3) 0.8222(3) 0.3200(1)
C28 C 0.8694(3) 0.8802(3) 0.2794(1)
H1 H 0.6409(3) 0.9626(3) 0.2052(2)
H2 H 0.5584(3) 0.9744(3) 0.1583(2)
H3 H 0.9593(3) 0.5673(3) 0.3111(2)
H4 H 1.0073(3) 0.4882(3) 0.2665(2)
H5 H 0.7355(3) 1.0497(3) 0.1509(1)
H6 H 0.6263(3) 1.0955(3) 0.1177(1)
H7 H 0.9582(4) 0.4365(4) 0.3700(2)
H8 H 0.9778(4) 0.3640(4) 0.3221(2)
H9 H 0.7145(3) 1.0103(3) 0.0460(2)
H10 H 0.8217(3) 0.9599(3) 0.0805(2)
H11 H 0.8022(3) 0.3765(3) 0.3443(2)
H12 H 0.7747(3) 0.4856(3) 0.3665(2)
H13 H 0.6526(3) 0.8772(3) 0.0725(1)
H14 H 0.7792(3) 0.8156(3) 0.0794(1)
H15 H 0.7889(3) 0.4441(3) 0.2549(2)
H16 H 0.7009(3) 0.5367(3) 0.2826(2)
H17 H 0.3619(3) 0.8507(3) 0.2572(2)
H18 H 0.2366(3) 0.8761(3) 0.1882(2)
H19 H 0.2951(3) 0.7983(3) 0.1082(2)
H20 H 0.4738(3) 0.6942(3) 0.0947(2)
H21 H 0.9451(3) 0.9999(3) 0.2141(1)
H22 H 1.0283(3) 1.0601(3) 0.1337(2)
H23 H 1.0991(3) 0.9548(3) 0.0636(2)
H24 H 1.0877(3) 0.7906(3) 0.0722(1)
H25 H 1.1009(3) 0.6115(3) 0.1062(1)
H26 H 0.9947(3) 0.6838(3) 0.0757(1)
H27 H 0.9897(3) 0.5133(3) 0.0940(2)
H28 H 0.9937(3) 0.5194(3) 0.1583(2)
H29 H 0.8001(3) 0.4916(3) 0.1566(1)
H30 H 0.8212(3) 0.4992(3) 0.0914(1)
H31 H 0.6685(3) 0.6551(3) 0.0846(1)
H32 H 0.6331(3) 0.5587(3) 0.1087(1)
H33 H 0.4928(3) 0.7732(3) 0.3264(1)
H34 H 0.5131(3) 0.8695(3) 0.2906(1)
H35 H 0.6350(3) 0.8068(3) 0.3654(1)
H36 H 0.6862(3) 0.7014(3) 0.3391(1)
H37 H 0.8625(3) 0.7529(3) 0.3301(1)
H38 H 0.7896(3) 0.8567(3) 0.3536(1)
H39 H 0.8175(3) 0.9465(3) 0.2660(1)
H40 H 0.9284(3) 0.8922(3) 0.2968(1)
O9 O 0.3440(2) 0.2658(2) 0.2176(1)
O10 O 0.4834(2) 0.4356(2) 0.3293(1)
Na2 Na 0.4267(1) 0.3399(1) 0.2732(1)
C29 C 0.5146(4) 0.3914(3) 0.3849(1)
C30 C 0.2321(3) 0.2871(3) 0.2056(2)
C31 C 0.2140(3) 0.1885(3) 0.2074(2)
C32 C 0.4815(5) 0.4784(4) 0.4199(2)
C33 C 0.3297(3) 0.1074(3) 0.2091(2)
C34 C 0.4517(6) 0.5697(4) 0.3834(2)
C35 C 0.4031(3) 0.1696(3) 0.1969(2)
C36 C 0.4663(3) 0.5441(3) 0.3262(2)
C37 C 0.7114(3) 0.2451(2) 0.2215(1)
C38 C 0.8069(3) 0.2584(3) 0.1977(2)
C39 C 0.9029(3) 0.2226(3) 0.2271(2)
C40 C 0.9009(3) 0.1731(3) 0.2798(2)
C41 C 0.8074(3) 0.1557(3) 0.3037(2)
C42 C 0.7120(3) 0.1904(2) 0.2745(1)
C43 C 0.1982(2) 0.5438(3) 0.3079(1)
C44 C 0.1466(3) 0.6463(3) 0.3139(2)
C45 C 0.0935(3) 0.6761(3) 0.3645(2)
C46 C 0.0930(3) 0.6032(3) 0.4083(2)
C47 C 0.1451(2) 0.5001(3) 0.4030(1)
C48 C 0.1980(2) 0.4690(2) 0.3529(1)
O11 O 0.2498(2) 0.3692(2) 0.3428(1)
C49 C 0.2508(3) 0.2918(2) 0.3888(1)
O12 O 0.4256(2) 0.1936(2) 0.3553(1)
C50 C 0.3179(3) 0.1908(3) 0.3702(1)
O13 O 0.6146(2) 0.1760(2) 0.2932(1)
C51 C 0.5058(3) 0.0958(3) 0.3522(1)
O14 O 0.6107(2) 0.2821(2) 0.1980(1)
C52 C 0.6147(3) 0.1097(3) 0.3440(1)
O15 O 0.4259(2) 0.4600(2) 0.1802(1)
C53 C 0.6042(3) 0.3562(3) 0.1499(1)
O16 O 0.2538(2) 0.5045(2) 0.2600(1)
C54 C 0.4868(3) 0.4038(3) 0.1355(1)
C55 C 0.3162(3) 0.5191(3) 0.1661(1)
C56 C 0.2588(3) 0.5780(3) 0.2131(1)
H41 H 0.5936(4) 0.3562(3) 0.3855(1)
H42 H 0.4771(4) 0.3420(3) 0.3987(1)
H43 H 0.2174(3) 0.3251(3) 0.1689(2)
H44 H 0.1834(3) 0.3282(3) 0.2330(2)
H45 H 0.1772(3) 0.1859(3) 0.1746(2)
H46 H 0.1691(3) 0.1772(3) 0.2404(2)
H47 H 0.4196(5) 0.4754(4) 0.4452(2)
H48 H 0.5424(5) 0.4753(4) 0.4418(2)
H49 H 0.3421(3) 0.0682(3) 0.2456(2)
H50 H 0.3401(3) 0.0601(3) 0.1811(2)
H51 H 0.4974(6) 0.6108(4) 0.3887(2)
H52 H 0.3753(6) 0.6098(4) 0.3913(2)
H53 H 0.4719(3) 0.1365(3) 0.2155(2)
H54 H 0.4193(3) 0.1793(3) 0.1570(2)
H55 H 0.4014(3) 0.5833(3) 0.3056(2)
H56 H 0.5296(3) 0.5597(3) 0.3076(2)
H57 H 0.8075(3) 0.2916(3) 0.1617(2)
H58 H 0.9677(3) 0.2321(3) 0.2112(2)
H59 H 0.9646(3) 0.1507(3) 0.2999(2)
H60 H 0.8081(3) 0.1209(3) 0.3393(2)
H61 H 0.1472(3) 0.6959(3) 0.2841(2)
H62 H 0.0583(3) 0.7457(3) 0.3685(2)
H63 H 0.0572(3) 0.6235(3) 0.4421(2)
H64 H 0.1446(2) 0.4511(3) 0.4331(1)
H65 H 0.1762(3) 0.2924(2) 0.3996(1)
H66 H 0.2827(3) 0.3051(2) 0.4208(1)
H67 H 0.3202(3) 0.1360(3) 0.3999(1)
H68 H 0.2857(3) 0.1777(3) 0.3383(1)
H69 H 0.4925(3) 0.0640(3) 0.3212(1)
H70 H 0.5027(3) 0.0513(3) 0.3863(1)
H71 H 0.6285(3) 0.1407(3) 0.3752(1)
H72 H 0.6722(3) 0.0435(3) 0.3416(1)
H73 H 0.6477(3) 0.3223(3) 0.1187(1)
H74 H 0.6333(3) 0.4089(3) 0.1578(1)
H75 H 0.4812(3) 0.4500(3) 0.1013(1)
H76 H 0.4566(3) 0.3505(3) 0.1297(1)
H77 H 0.2772(3) 0.4737(3) 0.1583(1)
H78 H 0.3175(3) 0.5664(3) 0.1329(1)
H79 H 0.2987(3) 0.6219(3) 0.2219(1)
H80 H 0.1849(3) 0.6212(3) 0.2032(1)
O17 O 0.2962(2) 0.9647(2) 0.3387(1)
C57 C 0.1850(3) 1.0008(3) 0.3222(2)
C58 C 0.1377(3) 0.9179(3) 0.3419(2)
C59 C 0.2113(4) 0.8554(4) 0.3887(2)
C60 C 0.2901(3) 0.9132(3) 0.3926(2)
H81 H 0.1827(3) 1.0154(3) 0.2820(2)
H82 H 0.1436(3) 1.0635(3) 0.3389(2)
H83 H 0.1406(3) 0.8759(3) 0.3123(2)
H84 H 0.0617(3) 0.9463(3) 0.3557(2)
H85 H 0.1684(4) 0.8523(4) 0.4235(2)
H86 H 0.2506(4) 0.7857(4) 0.3797(2)
H87 H 0.2626(3) 0.9624(3) 0.4200(2)
H88 H 0.3621(3) 0.8661(3) 0.4030(2)
C61 C 0.7229(3) 0.9589(3) 0.4711(1)
C62 C 0.8126(3) 0.9868(3) 0.4587(1)
B1 B 0.7108(3) 0.8493(3) 0.4716(1)
C63 C 0.6008(3) 0.8329(3) 0.4799(1)
C64 C 0.5929(3) 0.7362(3) 0.4784(1)
C65 C 0.6851(3) 0.6498(3) 0.4693(1)
C66 C 0.7891(3) 0.6606(3) 0.4615(1)
C67 C 0.8061(3) 0.7531(3) 0.4631(1)
C68 C 0.8258(3) 1.0879(3) 0.4594(1)
C69 C 0.7383(4) 1.1761(3) 0.4694(2)
C70 C 0.7554(5) 1.2698(4) 0.4720(2)
C71 C 0.8601(6) 1.2764(5) 0.4642(2)
C72 C 0.9467(5) 1.1910(5) 0.4540(2)
C73 C 0.9303(4) 1.0979(4) 0.4513(2)
H89 H 0.6591(3) 1.0113(3) 0.4807(1)
H90 H 0.8757(3) 0.9346(3) 0.4482(1)
H91 H 0.5374(3) 0.8884(3) 0.4861(1)
H92 H 0.5237(3) 0.7281(3) 0.4835(1)
H93 H 0.6770(3) 0.5856(3) 0.4686(1)
H94 H 0.8497(3) 0.6028(3) 0.4550(1)
H95 H 0.8775(3) 0.7562(3) 0.4587(1)
H96 H 0.6671(4) 1.1727(3) 0.4744(2)
H97 H 0.6958(5) 1.3280(4) 0.4792(2)
H98 H 0.8714(6) 1.3390(5) 0.4658(2)
H99 H 1.0176(5) 1.1952(5) 0.4487(2)
H100 H 0.9907(4) 1.0405(4) 0.4439(2)
C74 C 0.2966(3) 0.4640(3) 0.0167(1)
C75 C 0.2375(3) 0.3978(3) 0.0236(1)
B2 B 0.2566(4) 0.5809(3) 0.0003(1)
C76 C 0.1438(3) 0.6413(3) -0.0213(1)
C77 C 0.1147(3) 0.7453(3) -0.0383(2)
C78 C 0.1884(3) 0.7983(3) -0.0355(1)
C79 C 0.2934(3) 0.7494(3) -0.0156(1)
C80 C 0.3304(3) 0.6453(3) 0.0021(1)
C81 C 0.2781(3) 0.2846(3) 0.0345(1)
C82 C 0.2046(3) 0.2313(3) 0.0468(2)
C83 C 0.2425(4) 0.1242(3) 0.0578(2)
C84 C 0.3533(4) 0.0707(3) 0.0553(2)
C85 C 0.4266(3) 0.1225(3) 0.0422(1)
C86 C 0.3899(3) 0.2285(3) 0.0321(1)
H101 H 0.3716(3) 0.4343(3) 0.0227(1)
H102 H 0.1615(3) 0.4280(3) 0.0210(1)
H103 H 0.0931(3) 0.6073(3) -0.0231(1)
H104 H 0.0451(3) 0.7805(3) -0.0518(2)
H105 H 0.1668(3) 0.8686(3) -0.0473(1)
H106 H 0.3399(3) 0.7880(3) -0.0142(1)
H107 H 0.4010(3) 0.6146(3) 0.0152(1)
H108 H 0.1292(3) 0.2669(3) 0.0477(2)
H109 H 0.1923(4) 0.0888(3) 0.0668(2)
H110 H 0.3783(4) -0.0008(3) 0.0626(2)
H111 H 0.5018(3) 0.0862(3) 0.0399(1)
H112 H 0.4409(3) 0.2631(3) 0.0236(1)
loop_
_geom_bond_atom_site_label_1
_geom_bond_atom_site_label_2
_geom_bond_site_symmetry_1
_geom_bond_site_symmetry_2
Na1 O1 1_555 1_555
O1 C1 1_555 1_555
O2 Na1 1_555 1_555
C1 C3 1_555 1_555
C2 O2 1_555 1_555
C3 C5 1_555 1_555
C4 C2 1_555 1_555
C5 C7 1_555 1_555
C6 C4 1_555 1_555
C7 O1 1_555 1_555
C8 O2 1_555 1_555
C9 C10 1_555 1_555
C10 C11 1_555 1_555
C11 C12 1_555 1_555
C12 C13 1_555 1_555
C13 C14 1_555 1_555
C14 C9 1_555 1_555
C15 C16 1_555 1_555
C16 C17 1_555 1_555
C17 C18 1_555 1_555
C18 C19 1_555 1_555
C19 C20 1_555 1_555
C20 C15 1_555 1_555
O3 Na1 1_555 1_555
C21 O3 1_555 1_555
O4 Na1 1_555 1_555
C22 C21 1_555 1_555
O5 Na1 1_555 1_555
C23 O4 1_555 1_555
O6 Na1 1_555 1_555
C24 O5 1_555 1_555
O7 Na1 1_555 1_555
C25 O6 1_555 1_555
O8 Na1 1_555 1_555
C26 O7 1_555 1_555
C27 O7 1_555 1_555
C28 O8 1_555 1_555
O9 Na2 1_555 1_555
O10 Na2 1_555 1_555
Na2 O11 1_555 1_555
C29 O10 1_555 1_555
C30 O9 1_555 1_555
C31 C30 1_555 1_555
C32 C29 1_555 1_555
C33 C31 1_555 1_555
C34 C32 1_555 1_555
C35 O9 1_555 1_555
C36 O10 1_555 1_555
C37 C38 1_555 1_555
C38 C39 1_555 1_555
C39 C40 1_555 1_555
C40 C41 1_555 1_555
C41 C42 1_555 1_555
C42 C37 1_555 1_555
C43 C44 1_555 1_555
C44 C45 1_555 1_555
C45 C46 1_555 1_555
C46 C47 1_555 1_555
C47 C48 1_555 1_555
C48 C43 1_555 1_555
O11 C48 1_555 1_555
C49 O11 1_555 1_555
O12 Na2 1_555 1_555
C50 C49 1_555 1_555
O13 Na2 1_555 1_555
C51 O12 1_555 1_555
O14 Na2 1_555 1_555
C52 O13 1_555 1_555
O15 Na2 1_555 1_555
C53 O14 1_555 1_555
O16 Na2 1_555 1_555
C54 O15 1_555 1_555
C55 O15 1_555 1_555
C56 O16 1_555 1_555
O17 C57 1_555 1_555
C57 C58 1_555 1_555
C58 C59 1_555 1_555
C59 C60 1_555 1_555
C60 O17 1_555 1_555
C61 C62 1_555 1_555
C62 C68 1_555 1_555
B1 C61 1_555 1_555
C63 B1 1_555 1_555
C64 C63 1_555 1_555
C65 C64 1_555 1_555
C66 C65 1_555 1_555
C67 B1 1_555 1_555
C68 C69 1_555 1_555
C69 C70 1_555 1_555
C70 C71 1_555 1_555
C71 C72 1_555 1_555
C72 C73 1_555 1_555
C73 C68 1_555 1_555
C74 C75 1_555 1_555
C75 C81 1_555 1_555
B2 C74 1_555 1_555
C76 B2 1_555 1_555
C77 C76 1_555 1_555
C78 C77 1_555 1_555
C79 C78 1_555 1_555
C80 B2 1_555 1_555
C81 C82 1_555 1_555
C82 C83 1_555 1_555
C83 C84 1_555 1_555
C84 C85 1_555 1_555
C85 C86 1_555 1_555
C86 C81 1_555 1_555
H1 C1 1_555 1_555
H2 C1 1_555 1_555
H3 C2 1_555 1_555
H4 C2 1_555 1_555
H5 C3 1_555 1_555
H6 C3 1_555 1_555
H7 C4 1_555 1_555
H8 C4 1_555 1_555
H9 C5 1_555 1_555
H10 C5 1_555 1_555
H11 C6 1_555 1_555
H12 C6 1_555 1_555
H13 C7 1_555 1_555
H14 C7 1_555 1_555
H15 C8 1_555 1_555
H16 C8 1_555 1_555
H17 C10 1_555 1_555
H18 C11 1_555 1_555
H19 C12 1_555 1_555
H20 C13 1_555 1_555
H21 C16 1_555 1_555
H22 C17 1_555 1_555
H23 C18 1_555 1_555
H24 C19 1_555 1_555
H25 C21 1_555 1_555
H26 C21 1_555 1_555
H27 C22 1_555 1_555
H28 C22 1_555 1_555
H29 C23 1_555 1_555
H30 C23 1_555 1_555
H31 C24 1_555 1_555
H32 C24 1_555 1_555
H33 C25 1_555 1_555
H34 C25 1_555 1_555
H35 C26 1_555 1_555
H36 C26 1_555 1_555
H37 C27 1_555 1_555
H38 C27 1_555 1_555
H39 C28 1_555 1_555
H40 C28 1_555 1_555
H41 C29 1_555 1_555
H42 C29 1_555 1_555
H43 C30 1_555 1_555
H44 C30 1_555 1_555
H45 C31 1_555 1_555
H46 C31 1_555 1_555
H47 C32 1_555 1_555
H48 C32 1_555 1_555
H49 C33 1_555 1_555
H50 C33 1_555 1_555
H51 C34 1_555 1_555
H52 C34 1_555 1_555
H53 C35 1_555 1_555
H54 C35 1_555 1_555
H55 C36 1_555 1_555
H56 C36 1_555 1_555
H57 C38 1_555 1_555
H58 C39 1_555 1_555
H59 C40 1_555 1_555
H60 C41 1_555 1_555
H61 C44 1_555 1_555
H62 C45 1_555 1_555
H63 C46 1_555 1_555
H64 C47 1_555 1_555
H65 C49 1_555 1_555
H66 C49 1_555 1_555
H67 C50 1_555 1_555
H68 C50 1_555 1_555
H69 C51 1_555 1_555
H70 C51 1_555 1_555
H71 C52 1_555 1_555
H72 C52 1_555 1_555
H73 C53 1_555 1_555
H74 C53 1_555 1_555
H75 C54 1_555 1_555
H76 C54 1_555 1_555
H77 C55 1_555 1_555
H78 C55 1_555 1_555
H79 C56 1_555 1_555
H80 C56 1_555 1_555
H81 C57 1_555 1_555
H82 C57 1_555 1_555
H83 C58 1_555 1_555
H84 C58 1_555 1_555
H85 C59 1_555 1_555
H86 C59 1_555 1_555
H87 C60 1_555 1_555
H88 C60 1_555 1_555
H89 C61 1_555 1_555
H90 C62 1_555 1_555
H91 C63 1_555 1_555
H92 C64 1_555 1_555
H93 C65 1_555 1_555
H94 C66 1_555 1_555
H95 C67 1_555 1_555
H96 C69 1_555 1_555
H97 C70 1_555 1_555
H98 C71 1_555 1_555
H99 C72 1_555 1_555
H100 C73 1_555 1_555
H101 C74 1_555 1_555
H102 C75 1_555 1_555
H103 C76 1_555 1_555
H104 C77 1_555 1_555
H105 C78 1_555 1_555
H106 C79 1_555 1_555
H107 C80 1_555 1_555
H108 C82 1_555 1_555
H109 C83 1_555 1_555
H110 C84 1_555 1_555
H111 C85 1_555 1_555
H112 C86 1_555 1_555
C6 C8 1_555 1_555
C9 O6 1_555 1_555
C14 O5 1_555 1_555
C15 O8 1_555 1_555
C20 O3 1_555 1_555
O4 C22 1_555 1_555
C23 C24 1_555 1_555
C25 C26 1_555 1_555
C27 C28 1_555 1_555
C33 C35 1_555 1_555
C34 C36 1_555 1_555
C37 O14 1_555 1_555
C42 O13 1_555 1_555
C43 O16 1_555 1_555
O12 C50 1_555 1_555
C51 C52 1_555 1_555
C53 C54 1_555 1_555
C55 C56 1_555 1_555
C66 C67 1_555 1_555
C79 C80 1_555 1_555

#END
