
#######################################################################
#
#                 Cambridge Crystallographic Data Centre
#                                CCDC 
#
#######################################################################
#
# If this CIF has been generated from an entry in the Cambridge 
# Structural Database, then it will include bibliographic, chemical, 
# crystal, experimental, refinement or atomic coordinate data resulting 
# from the CCDC's data processing and validation procedures.
#
#######################################################################

data_QIMVUG
_chemical_formula_moiety         'C38 H38 Br2 N2'
_chemical_name_systematic        
2,12-dibromo-5,15-dihexyl-5,15-dihydrobenzo[1,2-b:5,6-c']dicarbazole
_symmetry_cell_setting           triclinic
_symmetry_space_group_name_H-M   'P -1'
_symmetry_Int_Tables_number      2
_space_group_name_Hall           '-P 1'
loop_
_symmetry_equiv_pos_site_id
_symmetry_equiv_pos_as_xyz
1 x,y,z
2 -x,-y,-z
_cell_length_a                   8.2069(11)
_cell_length_b                   11.9435(15)
_cell_length_c                   16.817(2)
_cell_angle_alpha                90.1190(10)
_cell_angle_beta                 97.9920(10)
_cell_angle_gamma                106.9950(10)
_cell_volume                     1559.5
_exptl_crystal_colour            yellow
_exptl_crystal_description       block
_cell_formula_units_Z            2
loop_
_atom_site_label
_atom_site_type_symbol
_atom_site_fract_x
_atom_site_fract_y
_atom_site_fract_z
Br1 Br 0.91687(3) 0.697859(17) 0.794856(11)
Br2 Br 1.08164(3) 1.378099(18) 0.412577(12)
N1 N 0.67921(19) 0.89855(14) 1.06870(8)
N2 N 0.76968(18) 1.03001(12) 0.64792(8)
C1 C 0.4626(4) 0.6257(2) 1.41650(14)
H1 H 0.3635 0.6000 1.3759
H2 H 0.4259 0.6278 1.4681
H3 H 0.5304 0.5724 1.4166
C2 C 0.5701(3) 0.74752(18) 1.39896(11)
H4 H 0.5047 0.8022 1.4042
H5 H 0.6729 0.7712 1.4387
C3 C 0.6228(2) 0.75463(16) 1.31570(10)
H6 H 0.6920 0.7021 1.3112
H7 H 0.5202 0.7279 1.2761
C4 C 0.7242(2) 0.87695(16) 1.29675(10)
H8 H 0.8258 0.9036 1.3370
H9 H 0.6543 0.9290 1.3012
C5 C 0.7814(2) 0.88774(17) 1.21358(10)
H10 H 0.8505 0.9677 1.2081
H11 H 0.8532 0.8370 1.2090
C6 C 0.6295(2) 0.85508(17) 1.14542(10)
H12 H 0.5817 0.7705 1.1404
H13 H 0.5404 0.8873 1.1587
C7 C 0.7004(2) 1.01186(16) 1.04650(10)
C8 C 0.7574(2) 1.02761(15) 0.97023(10)
C9 C 0.7802(2) 1.13914(15) 0.93551(10)
C10 C 0.8063(2) 1.16469(15) 0.85298(10)
C11 C 0.7609(2) 1.07529(14) 0.79208(9)
H14 H 0.7092 0.9979 0.8035
C12 C 0.7940(2) 1.10390(14) 0.71513(10)
C13 C 0.7056(2) 0.90330(14) 0.64624(10)
H15 H 0.7395 0.8767 0.6987
H16 H 0.7595 0.8714 0.6076
C14 C 0.5118(2) 0.85520(17) 0.62457(13)
H17 H 0.4789 0.8706 0.5690
H18 H 0.4572 0.8954 0.6579
C15 C 0.4475(3) 0.72346(17) 0.63609(13)
H19 H 0.5295 0.6871 0.6195
H20 H 0.3389 0.6910 0.6012
C16 C 0.4218(3) 0.69167(16) 0.72254(12)
H21 H 0.5271 0.7297 0.7584
H22 H 0.3314 0.7210 0.7376
C17 C 0.3744(3) 0.56068(18) 0.73291(14)
H23 H 0.2730 0.5231 0.6946
H24 H 0.4677 0.5328 0.7198
C18 C 0.3387(4) 0.5226(2) 0.81608(14)
H25 H 0.4369 0.5609 0.8549
H26 H 0.3164 0.4392 0.8181
H27 H 0.2401 0.5436 0.8280
C19 C 0.7291(2) 0.83904(16) 1.01061(10)
C20 C 0.7813(2) 0.91555(15) 0.94882(10)
C21 C 0.8482(2) 0.87274(15) 0.88654(10)
H28 H 0.8931 0.9215 0.8469
C22 C 0.8455(2) 0.75719(16) 0.88572(10)
C23 C 0.7871(3) 0.68139(17) 0.94493(12)
H29 H 0.7855 0.6034 0.9411
C24 C 0.7314(2) 0.72274(17) 1.00966(11)
H30 H 0.6964 0.6746 1.0513
C25 C 0.7687(2) 1.23239(16) 0.98529(10)
C26 C 0.7106(2) 1.21017(17) 1.06084(11)
H31 H 0.6983 1.2720 1.0908
C27 C 0.6724(2) 1.10153(17) 1.09112(10)
H32 H 0.6292 1.0875 1.1396
C28 C 0.8185(2) 1.35001(16) 0.95954(11)
H33 H 0.8124 1.4103 0.9930
C29 C 0.8738(2) 1.37594(16) 0.88841(11)
H34 H 0.9186 1.4539 0.8762
C30 C 0.8644(2) 1.28421(15) 0.83106(10)
C31 C 0.8989(2) 1.31044(15) 0.75271(10)
H35 H 0.9421 1.3881 0.7395
C32 C 0.8689(2) 1.22152(15) 0.69523(10)
C33 C 0.8927(2) 1.21716(15) 0.61180(10)
C34 C 0.9666(2) 1.30189(15) 0.56011(10)
H36 H 1.0098 1.3806 0.5768
C35 C 0.9734(2) 1.26465(16) 0.48328(11)
C36 C 0.9092(2) 1.14791(16) 0.45597(11)
H37 H 0.9163 1.1269 0.4036
C37 C 0.8350(2) 1.06309(15) 0.50653(10)
H38 H 0.7903 0.9849 0.4887
C38 C 0.8290(2) 1.09768(14) 0.58478(10)
loop_
_geom_bond_atom_site_label_1
_geom_bond_atom_site_label_2
_geom_bond_site_symmetry_1
_geom_bond_site_symmetry_2
Br1 C22 1_555 1_555
Br2 C35 1_555 1_555
N1 C6 1_555 1_555
N2 C12 1_555 1_555
C1 H1 1_555 1_555
H2 C1 1_555 1_555
H3 C1 1_555 1_555
C2 C1 1_555 1_555
H4 C2 1_555 1_555
H5 C2 1_555 1_555
C3 C2 1_555 1_555
H6 C3 1_555 1_555
H7 C3 1_555 1_555
C4 C3 1_555 1_555
H8 C4 1_555 1_555
H9 C4 1_555 1_555
C5 C4 1_555 1_555
H10 C5 1_555 1_555
H11 C5 1_555 1_555
C6 C5 1_555 1_555
H12 C6 1_555 1_555
H13 C6 1_555 1_555
C7 N1 1_555 1_555
C8 C7 1_555 1_555
C9 C8 1_555 1_555
C10 C9 1_555 1_555
C11 C10 1_555 1_555
H14 C11 1_555 1_555
C12 C11 1_555 1_555
C13 N2 1_555 1_555
H15 C13 1_555 1_555
H16 C13 1_555 1_555
C14 C13 1_555 1_555
H17 C14 1_555 1_555
H18 C14 1_555 1_555
C15 C14 1_555 1_555
H19 C15 1_555 1_555
H20 C15 1_555 1_555
C16 C15 1_555 1_555
H21 C16 1_555 1_555
H22 C16 1_555 1_555
C17 C16 1_555 1_555
H23 C17 1_555 1_555
H24 C17 1_555 1_555
C18 C17 1_555 1_555
H25 C18 1_555 1_555
H26 C18 1_555 1_555
H27 C18 1_555 1_555
C19 N1 1_555 1_555
C20 C8 1_555 1_555
C21 C20 1_555 1_555
H28 C21 1_555 1_555
C22 C21 1_555 1_555
C23 C22 1_555 1_555
H29 C23 1_555 1_555
C24 C19 1_555 1_555
H30 C24 1_555 1_555
C25 C9 1_555 1_555
C26 C25 1_555 1_555
H31 C26 1_555 1_555
C27 C7 1_555 1_555
H32 C27 1_555 1_555
C28 C25 1_555 1_555
H33 C28 1_555 1_555
C29 C28 1_555 1_555
H34 C29 1_555 1_555
C30 C10 1_555 1_555
C31 C30 1_555 1_555
H35 C31 1_555 1_555
C32 C12 1_555 1_555
C33 C32 1_555 1_555
C34 C33 1_555 1_555
H36 C34 1_555 1_555
C35 C34 1_555 1_555
C36 C35 1_555 1_555
H37 C36 1_555 1_555
C37 C36 1_555 1_555
H38 C37 1_555 1_555
C38 N2 1_555 1_555
C19 C20 1_555 1_555
C23 C24 1_555 1_555
C26 C27 1_555 1_555
C29 C30 1_555 1_555
C31 C32 1_555 1_555
C33 C38 1_555 1_555
C37 C38 1_555 1_555

#END
