
#######################################################################
#
#                 Cambridge Crystallographic Data Centre
#                                CCDC 
#
#######################################################################
#
# If this CIF has been generated from an entry in the Cambridge 
# Structural Database, then it will include bibliographic, chemical, 
# crystal, experimental, refinement or atomic coordinate data resulting 
# from the CCDC's data processing and validation procedures.
#
#######################################################################

data_QINBEU
_chemical_name_common            4,4'-bis(oxazolidinone)
_chemical_formula_moiety         'C6 H8 N2 O4'
_chemical_name_systematic        4,4'-bi(2-oxooxazolidine)
_symmetry_cell_setting           orthorhombic
_symmetry_space_group_name_H-M   'P 21 21 21'
_symmetry_Int_Tables_number      19
_space_group_name_Hall           'P 2ac 2ab'
loop_
_symmetry_equiv_pos_site_id
_symmetry_equiv_pos_as_xyz
1 x,y,z
2 1/2-x,-y,1/2+z
3 1/2+x,1/2-y,-z
4 -x,1/2+y,1/2-z
_cell_length_a                   5.638(3)
_cell_length_b                   5.649(2)
_cell_length_c                   22.237(5)
_cell_angle_alpha                90
_cell_angle_beta                 90
_cell_angle_gamma                90
_cell_volume                     708.228
_chemical_melting_point          247-249deg.C
_cell_formula_units_Z            4
loop_
_atom_site_label
_atom_site_type_symbol
_atom_site_fract_x
_atom_site_fract_y
_atom_site_fract_z
O1 O 0.3110(9) 0.5607(8) 0.0072(2)
O2 O 0.3818(8) 0.2705(8) 0.0725(2)
O3 O 0.6892(9) 0.9404(9) 0.2430(2)
O4 O 0.9806(8) 0.8698(7) 0.1779(2)
N1 N 0.6612(10) 0.5305(10) 0.0581(2)
N2 N 0.7176(10) 0.5874(10) 0.1922(2)
C1 C 0.4479(12) 0.4656(10) 0.0424(2)
C2 C 0.5739(11) 0.1908(11) 0.1092(2)
C3 C 0.7802(11) 0.3614(11) 0.0969(2)
C4 C 0.7843(10) 0.8049(11) 0.2079(2)
C5 C 1.0596(11) 0.6758(11) 0.1404(2)
C6 C 0.8890(11) 0.4712(11) 0.1533(2)
H1 H 0.7310(11) 0.6250(11) 0.0400(2)
H2 H 0.5740(13) 0.4990(15) 0.2180(3)
H3 H 0.6179 0.0301 0.0986
H4 H 0.5301 0.1947 0.1513
H5 H 0.9038 0.2790 0.0740
H6 H 1.2211 0.6315 0.1504
H7 H 1.0535 0.7199 0.0982
H8 H 0.9724 0.3483 0.1761
loop_
_geom_bond_atom_site_label_1
_geom_bond_atom_site_label_2
_geom_bond_site_symmetry_1
_geom_bond_site_symmetry_2
O1 C1 1_555 1_555
O2 C1 1_555 1_555
O3 C4 1_555 1_555
O4 C4 1_555 1_555
N1 C1 1_555 1_555
N2 C4 1_555 1_555
C2 O2 1_555 1_555
C3 N1 1_555 1_555
C5 O4 1_555 1_555
C6 N2 1_555 1_555
H1 N1 1_555 1_555
H2 N2 1_555 1_555
H3 C2 1_555 1_555
H4 C2 1_555 1_555
H5 C3 1_555 1_555
H6 C5 1_555 1_555
H7 C5 1_555 1_555
H8 C6 1_555 1_555
C2 C3 1_555 1_555
C3 C6 1_555 1_555
C5 C6 1_555 1_555

#END
