
#######################################################################
#
#                 Cambridge Crystallographic Data Centre
#                                CCDC 
#
#######################################################################
#
# If this CIF has been generated from an entry in the Cambridge 
# Structural Database, then it will include bibliographic, chemical, 
# crystal, experimental, refinement or atomic coordinate data resulting 
# from the CCDC's data processing and validation procedures.
#
#######################################################################

data_QIQDOM
_chemical_formula_moiety         'C16 H12 N4 S1'
_chemical_name_systematic        
3,6-diphenyl-7H-[1,2,4]triazolo[3,4-b][1,3,4]thiadiazine
_symmetry_cell_setting           monoclinic
_symmetry_space_group_name_H-M   'P 21/c'
_symmetry_Int_Tables_number      14
_space_group_name_Hall           '-P 2ybc'
loop_
_symmetry_equiv_pos_site_id
_symmetry_equiv_pos_as_xyz
1 x,y,z
2 -x,1/2+y,1/2-z
3 -x,-y,-z
4 x,1/2-y,1/2+z
_cell_length_a                   22.151(4)
_cell_length_b                   12.484(2)
_cell_length_c                   10.2018(19)
_cell_angle_alpha                90
_cell_angle_beta                 101.073(6)
_cell_angle_gamma                90
_cell_volume                     2768.61
_exptl_crystal_colour            colorless
_exptl_crystal_description       block
_cell_formula_units_Z            8
loop_
_atom_site_label
_atom_site_type_symbol
_atom_site_fract_x
_atom_site_fract_y
_atom_site_fract_z
S1 S 1.01482(3) 0.68847(5) 0.77855(6)
N1 N 0.95194(8) 0.40743(15) 0.82570(19)
N2 N 0.99357(8) 0.47456(16) 0.7820(2)
N3 N 0.93564(7) 0.57024(14) 0.88822(17)
N4 N 0.90355(8) 0.65660(14) 0.92540(17)
C1 C 0.84670(11) 0.4669(2) 1.0500(3)
H1 H 0.86461(11) 0.5300(2) 1.0874(3)
C2 C 0.80011(13) 0.4193(2) 1.1012(3)
H2 H 0.78647(13) 0.4506(2) 1.1730(3)
C3 C 0.77386(12) 0.3264(2) 1.0471(3)
H3 H 0.74245(12) 0.2946(2) 1.0821(3)
C4 C 0.79359(12) 0.2802(2) 0.9418(3)
H4 H 0.77576(12) 0.2167(2) 0.9054(3)
C5 C 0.83969(11) 0.32705(19) 0.8893(3)
H5 H 0.85291(11) 0.29561(19) 0.8172(3)
C6 C 0.86659(10) 0.42138(18) 0.9440(2)
C7 C 0.91681(9) 0.46518(17) 0.8869(2)
C8 C 0.98255(9) 0.57112(18) 0.8195(2)
C9 C 0.99639(9) 0.76330(18) 0.9161(2)
H6 H 1.02451(9) 0.74270(18) 0.9972(2)
H7 H 1.00259(9) 0.83891(18) 0.9013(2)
C10 C 0.93178(9) 0.74662(17) 0.9355(2)
C11 C 0.89831(9) 0.83837(17) 0.9776(2)
C12 C 0.86073(10) 0.82380(19) 1.0706(2)
H8 H 0.85573(10) 0.75574(19) 1.1040(2)
C13 C 0.83102(11) 0.9094(2) 1.1131(3)
H9 H 0.80652(11) 0.8993(2) 1.1766(3)
C14 C 0.83700(11) 1.0098(2) 1.0632(3)
H10 H 0.81623(11) 1.0674(2) 1.0918(3)
C15 C 0.87351(11) 1.0250(2) 0.9714(3)
H11 H 0.87750(11) 1.0932(2) 0.9371(3)
C16 C 0.90450(11) 0.93999(18) 0.9291(2)
H12 H 0.92978(11) 0.95123(18) 0.8674(2)
S2 S 0.48839(3) 0.30632(5) 0.76545(6)
N5 N 0.55283(9) 0.58464(16) 0.8805(2)
N6 N 0.51109(9) 0.51971(17) 0.7965(2)
N7 N 0.56759(7) 0.41840(15) 0.94700(17)
N8 N 0.59874(8) 0.32982(15) 1.00728(18)
C17 C 0.66889(12) 0.6492(2) 1.0444(3)
H13 H 0.65950(12) 0.6814(2) 0.9607(3)
C18 C 0.71533(14) 0.6898(3) 1.1404(4)
H14 H 0.73757(14) 0.7490(3) 1.1212(4)
C19 C 0.72905(13) 0.6434(3) 1.2642(4)
H15 H 0.76033(13) 0.6716(3) 1.3290(4)
C20 C 0.69702(12) 0.5563(3) 1.2926(3)
H16 H 0.70658(12) 0.5249(3) 1.3767(3)
C21 C 0.65051(11) 0.5143(2) 1.1973(3)
H17 H 0.62870(11) 0.4548(2) 1.2171(3)
C22 C 0.63624(10) 0.5609(2) 1.0721(2)
C23 C 0.58649(10) 0.52270(18) 0.9682(2)
C24 C 0.52124(10) 0.42145(19) 0.8371(2)
C25 C 0.56951(9) 0.24114(19) 0.9902(2)
C26 C 0.50434(9) 0.23081(19) 0.9186(2)
H18 H 0.47731(9) 0.25522(19) 0.9768(2)
H19 H 0.49537(9) 0.15585(19) 0.8987(2)
C27 C 0.60174(9) 0.14638(18) 1.0556(2)
C28 C 0.64398(11) 0.1569(2) 1.1740(2)
H20 H 0.65265(11) 0.2244(2) 1.2116(2)
C29 C 0.67308(11) 0.0685(2) 1.2361(3)
H21 H 0.70089(11) 0.0764(2) 1.3163(3)
C30 C 0.66173(11) -0.0307(2) 1.1817(3)
H22 H 0.68189(11) -0.0901(2) 1.2244(3)
C31 C 0.62046(11) -0.0430(2) 1.0636(3)
H23 H 0.61284(11) -0.1106(2) 1.0257(3)
C32 C 0.59043(10) 0.0455(2) 1.0018(2)
H24 H 0.56210(10) 0.0369(2) 0.9225(2)
loop_
_geom_bond_atom_site_label_1
_geom_bond_atom_site_label_2
_geom_bond_site_symmetry_1
_geom_bond_site_symmetry_2
S1 C8 1_555 1_555
N1 N2 1_555 1_555
N2 C8 1_555 1_555
N3 N4 1_555 1_555
N4 C10 1_555 1_555
C1 H1 1_555 1_555
C2 C1 1_555 1_555
H2 C2 1_555 1_555
C3 C2 1_555 1_555
H3 C3 1_555 1_555
C4 C3 1_555 1_555
H4 C4 1_555 1_555
C5 C4 1_555 1_555
H5 C5 1_555 1_555
C6 C1 1_555 1_555
C7 N1 1_555 1_555
C8 N3 1_555 1_555
C9 S1 1_555 1_555
H6 C9 1_555 1_555
H7 C9 1_555 1_555
C10 C9 1_555 1_555
C11 C10 1_555 1_555
C12 C11 1_555 1_555
H8 C12 1_555 1_555
C13 C12 1_555 1_555
H9 C13 1_555 1_555
C14 C13 1_555 1_555
H10 C14 1_555 1_555
C15 C14 1_555 1_555
H11 C15 1_555 1_555
C16 C11 1_555 1_555
H12 C16 1_555 1_555
S2 C24 1_555 1_555
N5 N6 1_555 1_555
N6 C24 1_555 1_555
N7 N8 1_555 1_555
N8 C25 1_555 1_555
C17 H13 1_555 1_555
C18 C17 1_555 1_555
H14 C18 1_555 1_555
C19 C18 1_555 1_555
H15 C19 1_555 1_555
C20 C19 1_555 1_555
H16 C20 1_555 1_555
C21 C20 1_555 1_555
H17 C21 1_555 1_555
C22 C17 1_555 1_555
C23 N5 1_555 1_555
C24 N7 1_555 1_555
C25 C26 1_555 1_555
C26 S2 1_555 1_555
H18 C26 1_555 1_555
H19 C26 1_555 1_555
C27 C25 1_555 1_555
C28 C27 1_555 1_555
H20 C28 1_555 1_555
C29 C28 1_555 1_555
H21 C29 1_555 1_555
C30 C29 1_555 1_555
H22 C30 1_555 1_555
C31 C30 1_555 1_555
H23 C31 1_555 1_555
C32 C27 1_555 1_555
H24 C32 1_555 1_555
N3 C7 1_555 1_555
C5 C6 1_555 1_555
C6 C7 1_555 1_555
C15 C16 1_555 1_555
N7 C23 1_555 1_555
C21 C22 1_555 1_555
C22 C23 1_555 1_555
C31 C32 1_555 1_555

#END
