
#######################################################################
#
#                 Cambridge Crystallographic Data Centre
#                                CCDC 
#
#######################################################################
#
# If this CIF has been generated from an entry in the Cambridge 
# Structural Database, then it will include bibliographic, chemical, 
# crystal, experimental, refinement or atomic coordinate data resulting 
# from the CCDC's data processing and validation procedures.
#
#######################################################################

data_QIQGEF
_chemical_formula_moiety         'C18 H16 N4 O5'
_chemical_name_systematic        
'methyl 2-({4-[(2-nitrophenoxy)methyl]-1H-1,2,3-triazol-1-yl}methyl)benzoate'
_symmetry_cell_setting           triclinic
_symmetry_space_group_name_H-M   'P -1'
_symmetry_Int_Tables_number      2
_space_group_name_Hall           '-P 1'
loop_
_symmetry_equiv_pos_site_id
_symmetry_equiv_pos_as_xyz
1 x,y,z
2 -x,-y,-z
_cell_length_a                   8.4076(6)
_cell_length_b                   8.6630(5)
_cell_length_c                   12.0763(8)
_cell_angle_alpha                102.046(3)
_cell_angle_beta                 97.453(3)
_cell_angle_gamma                99.280(3)
_cell_volume                     836.702
_exptl_crystal_colour            colorless
_exptl_crystal_description       block
_cell_formula_units_Z            2
loop_
_atom_site_label
_atom_site_type_symbol
_atom_site_fract_x
_atom_site_fract_y
_atom_site_fract_z
C1 C -0.3210(2) 0.8863(2) 1.04268(17)
H1 H -0.431627 0.856403 0.997580
H2 H -0.278612 1.000848 1.050113
H3 H -0.324308 0.865645 1.119186
C2 C -0.0615(2) 0.8167(2) 1.03980(15)
C3 C 0.0425(2) 0.71685(19) 0.97706(14)
C4 C 0.1719(2) 0.6819(2) 1.04606(15)
H4 H 0.187706 0.721566 1.126997
C5 C 0.2774(2) 0.5908(2) 0.99898(16)
H5 H 0.364446 0.567103 1.047063
C6 C 0.2552(2) 0.5342(2) 0.88113(16)
H6 H 0.327278 0.471368 0.847905
C7 C 0.1277(2) 0.5691(2) 0.81122(15)
H7 H 0.113860 0.529653 0.730344
C8 C 0.0199(2) 0.66052(19) 0.85714(14)
C9 C -0.1165(2) 0.6972(2) 0.77758(14)
H8 H -0.216805 0.615541 0.769888
H9 H -0.139697 0.803522 0.812238
C10 C 0.0344(2) 0.8044(2) 0.63306(14)
H10 H 0.110293 0.893324 0.681834
C11 C 0.01394(19) 0.75617(18) 0.51664(14)
C12 C 0.1035(2) 0.82741(19) 0.43488(14)
H11 H 0.168895 0.752944 0.397466
H12 H 0.026447 0.852292 0.374834
C13 C 0.31234(19) 1.06010(19) 0.45574(14)
C14 C 0.3213(2) 1.0217(2) 0.33959(15)
H13 H 0.249872 0.929780 0.290471
C15 C 0.4333(2) 1.1157(2) 0.29442(16)
H14 H 0.438301 1.086836 0.214794
C16 C 0.5378(2) 1.2509(2) 0.36352(17)
H15 H 0.613219 1.315591 0.331656
C17 C 0.5313(2) 1.2906(2) 0.47893(16)
H16 H 0.603260 1.382802 0.527272
C18 C 0.42052(19) 1.19703(19) 0.52509(14)
O1 O -0.01300(17) 0.90989(17) 1.13160(12)
O2 O -0.21560(14) 0.79185(14) 0.98537(10)
O3 O 0.20752(13) 0.97190(13) 0.50510(9)
O4 O 0.30660(17) 1.19395(16) 0.69004(11)
O5 O 0.54414(18) 1.33980(18) 0.70737(12)
N1 N -0.07676(16) 0.69827(16) 0.66396(11)
N2 N -0.16297(16) 0.58914(16) 0.57133(12)
N3 N -0.10834(16) 0.62464(16) 0.48047(12)
N4 N 0.42263(18) 1.24631(17) 0.64845(13)
loop_
_geom_bond_atom_site_label_1
_geom_bond_atom_site_label_2
_geom_bond_site_symmetry_1
_geom_bond_site_symmetry_2
C1 H1 1_555 1_555
H2 C1 1_555 1_555
H3 C1 1_555 1_555
C2 C3 1_555 1_555
C3 C4 1_555 1_555
C4 H4 1_555 1_555
C5 C4 1_555 1_555
H5 C5 1_555 1_555
C6 C5 1_555 1_555
H6 C6 1_555 1_555
C7 C6 1_555 1_555
H7 C7 1_555 1_555
C8 C3 1_555 1_555
C9 C8 1_555 1_555
H8 C9 1_555 1_555
H9 C9 1_555 1_555
C10 H10 1_555 1_555
C11 C10 1_555 1_555
C12 C11 1_555 1_555
H11 C12 1_555 1_555
H12 C12 1_555 1_555
C13 C14 1_555 1_555
C14 H13 1_555 1_555
C15 C14 1_555 1_555
H14 C15 1_555 1_555
C16 C15 1_555 1_555
H15 C16 1_555 1_555
C17 C16 1_555 1_555
H16 C17 1_555 1_555
C18 C13 1_555 1_555
O1 C2 1_555 1_555
O2 C1 1_555 1_555
O3 C12 1_555 1_555
O4 N4 1_555 1_555
O5 N4 1_555 1_555
N1 C9 1_555 1_555
N2 N1 1_555 1_555
N3 C11 1_555 1_555
N4 C18 1_555 1_555
C2 O2 1_555 1_555
C7 C8 1_555 1_555
C10 N1 1_555 1_555
C13 O3 1_555 1_555
C17 C18 1_555 1_555
N2 N3 1_555 1_555

#END
