
#######################################################################
#
#                 Cambridge Crystallographic Data Centre
#                                CCDC 
#
#######################################################################
#
# If this CIF has been generated from an entry in the Cambridge 
# Structural Database, then it will include bibliographic, chemical, 
# crystal, experimental, refinement or atomic coordinate data resulting 
# from the CCDC's data processing and validation procedures.
#
#######################################################################

data_QIQMUY
_chemical_formula_moiety         'C20 H26 N2 O4'
_chemical_name_systematic        10(R),11-Dihydroxydihydroquinine
_symmetry_cell_setting           orthorhombic
_symmetry_space_group_name_H-M   'P 21 21 21'
_symmetry_Int_Tables_number      19
_space_group_name_Hall           'P 2ac 2ab'
loop_
_symmetry_equiv_pos_site_id
_symmetry_equiv_pos_as_xyz
1 x,y,z
2 1/2-x,-y,1/2+z
3 -x,1/2+y,1/2-z
4 1/2+x,1/2-y,-z
_cell_length_a                   11.5467(2)
_cell_length_b                   11.7393(2)
_cell_length_c                   27.1560(4)
_cell_angle_alpha                90
_cell_angle_beta                 90
_cell_angle_gamma                90
_cell_volume                     3681
_chemical_melting_point          197-198deg.C
_cell_formula_units_Z            8
loop_
_atom_site_label
_atom_site_type_symbol
_atom_site_fract_x
_atom_site_fract_y
_atom_site_fract_z
N1 N -0.03839(15) -0.04556(16) 0.25092(7)
C1 C -0.13695(19) -0.1259(2) 0.24835(8)
H1 H -0.2029 -0.0933 0.2654
H2 H -0.1161 -0.1962 0.2650
C2 C -0.17160(19) -0.15299(19) 0.19449(8)
H3 H -0.2442 -0.1130 0.1874
C3 C -0.19313(18) -0.28054(19) 0.18856(8)
H4 H -0.1216 -0.3196 0.1982
O1 O -0.28146(13) -0.31577(14) 0.22248(6)
H5 H -0.347(2) -0.283(2) 0.2149(9)
C4 C -0.22226(19) -0.3194(2) 0.13728(8)
H6 H -0.1581 -0.3021 0.1155
H7 H -0.2336 -0.4012 0.1372
O2 O -0.32397(14) -0.26519(16) 0.11962(6)
H8 H -0.307(2) -0.245(2) 0.0872(9)
C5 C -0.0768(2) -0.1027(2) 0.16123(8)
H9 H -0.0910 -0.1243 0.1269
C6 C -0.0815(2) 0.0269(2) 0.16653(10)
H10 H -0.1542 0.0557 0.1536
H11 H -0.0186 0.0617 0.1482
C7 C -0.0706(2) 0.0561(2) 0.22163(10)
H12 H -0.0122 0.1147 0.2259
H13 H -0.1438 0.0860 0.2335
C8 C 0.04410(19) -0.1413(2) 0.17692(8)
H14 H 0.1020 -0.1070 0.1557
H15 H 0.0503 -0.2234 0.1740
C9 C 0.06498(18) -0.10517(19) 0.23057(8)
H16 H 0.0736 -0.1756 0.2496
C10 C 0.17676(18) -0.03668(18) 0.23856(8)
H17 H 0.1767 -0.0087 0.2726
O3 O 0.17853(14) 0.05963(13) 0.20656(6)
H18 H 0.222(2) 0.106(2) 0.2225(9)
N2 N 0.49289(16) -0.23077(17) 0.21509(7)
C11 C 0.4518(2) -0.1593(2) 0.18247(9)
H19 H 0.4935 -0.1489 0.1535
C12 C 0.3490(2) -0.09744(19) 0.18855(8)
H20 H 0.3236 -0.0490 0.1637
C13 C 0.28530(18) -0.10805(18) 0.23126(8)
C14 C 0.27331(19) -0.20034(19) 0.31449(8)
H21 H 0.2071 -0.1592 0.3224
C15 C 0.31861(19) -0.2754(2) 0.34778(8)
O4 O 0.27789(14) -0.29383(14) 0.39400(6)
C16 C 0.1816(2) -0.2264(2) 0.40961(9)
H22 H 0.1607 -0.2469 0.4427
H23 H 0.1170 -0.2397 0.3881
H24 H 0.2023 -0.1472 0.4086
C17 C 0.4166(2) -0.3418(2) 0.33557(9)
H25 H 0.4435 -0.3966 0.3575
C18 C 0.4715(2) -0.3258(2) 0.29207(9)
H26 H 0.5374 -0.3682 0.2849
C19 C 0.32689(18) -0.18466(18) 0.26763(8)
C20 C 0.43026(19) -0.24584(19) 0.25742(8)
N3 N 0.22128(15) 0.71869(15) -0.02186(6)
C21 C 0.15041(19) 0.61921(18) -0.00665(8)
H27 H 0.1643 0.5568 -0.0293
H28 H 0.0691 0.6392 -0.0087
C22 C 0.17815(18) 0.57917(18) 0.04649(8)
H29 H 0.2275 0.5115 0.0441
C23 C 0.06866(19) 0.54567(19) 0.07501(8)
H30 H 0.0227 0.6150 0.0797
O5 O 0.00024(13) 0.46816(13) 0.04674(6)
H31 H 0.029(2) 0.397(2) 0.0482(9)
C24 C 0.09429(19) 0.4972(2) 0.12539(8)
H32 H 0.1374 0.4268 0.1221
H33 H 0.1412 0.5506 0.1440
O6 O -0.01066(14) 0.47638(18) 0.15066(6)
H34 H 0.012(2) 0.473(3) 0.1838(11)
C25 C 0.25040(19) 0.6751(2) 0.07001(8)
H35 H 0.2619 0.6595 0.1051
C26 C 0.3675(2) 0.6791(2) 0.04372(9)
H36 H 0.4110 0.6101 0.0503
H37 H 0.4124 0.7437 0.0553
C27 C 0.34395(18) 0.6904(2) -0.01180(8)
H38 H 0.3932 0.7495 -0.0254
H39 H 0.3633 0.6192 -0.0280
C28 C 0.1905(2) 0.79003(18) 0.06341(8)
H40 H 0.2339 0.8489 0.0804
H41 H 0.1133 0.7871 0.0775
C29 C 0.18293(18) 0.81826(17) 0.00793(8)
H42 H 0.1008 0.8302 0.0004
C30 C 0.24648(17) 0.92880(18) -0.00636(8)
H43 H 0.2569 0.9299 -0.0422
O7 O 0.35778(13) 0.93024(14) 0.01646(6)
H44 H 0.402(2) 0.976(2) -0.0015(9)
N4 N 0.07355(16) 1.24094(16) 0.03855(7)
C31 C 0.1456(2) 1.1855(2) 0.06737(9)
H45 H 0.1608 1.2152 0.0985
C32 C 0.2007(2) 1.08390(19) 0.05363(9)
H46 H 0.2524 1.0494 0.0752
C33 C 0.17917(18) 1.03495(18) 0.00880(8)
C34 C 0.06437(18) 1.04672(19) -0.06982(8)
H47 H 0.0977 0.9802 -0.0819
C35 C -0.0164(2) 1.1040(2) -0.09743(8)
O8 O -0.05754(15) 1.07168(14) -0.14205(6)
C36 C -0.0084(2) 0.9739(2) -0.16452(9)
H48 H -0.0451 0.9607 -0.1957
H49 H -0.0197 0.9089 -0.1436
H50 H 0.0731 0.9859 -0.1695
C37 C -0.0661(2) 1.2063(2) -0.07999(9)
H51 H -0.1211 1.2440 -0.0990
C38 C -0.0342(2) 1.2499(2) -0.03585(8)
H52 H -0.0664 1.3182 -0.0252
C39 C 0.09717(18) 1.08916(18) -0.02266(8)
C40 C 0.04701(19) 1.19318(19) -0.00593(8)
loop_
_geom_bond_atom_site_label_1
_geom_bond_atom_site_label_2
_geom_bond_site_symmetry_1
_geom_bond_site_symmetry_2
N1 C1 1_555 1_555
C1 H1 1_555 1_555
H2 C1 1_555 1_555
C2 C1 1_555 1_555
H3 C2 1_555 1_555
C3 C2 1_555 1_555
H4 C3 1_555 1_555
O1 C3 1_555 1_555
H5 O1 1_555 1_555
C4 C3 1_555 1_555
H6 C4 1_555 1_555
H7 C4 1_555 1_555
O2 C4 1_555 1_555
H8 O2 1_555 1_555
C5 C2 1_555 1_555
H9 C5 1_555 1_555
C6 C5 1_555 1_555
H10 C6 1_555 1_555
H11 C6 1_555 1_555
C7 N1 1_555 1_555
H12 C7 1_555 1_555
H13 C7 1_555 1_555
C8 C5 1_555 1_555
H14 C8 1_555 1_555
H15 C8 1_555 1_555
C9 N1 1_555 1_555
H16 C9 1_555 1_555
C10 C9 1_555 1_555
H17 C10 1_555 1_555
O3 C10 1_555 1_555
H18 O3 1_555 1_555
N2 C11 1_555 1_555
C11 H19 1_555 1_555
C12 C11 1_555 1_555
H20 C12 1_555 1_555
C13 C10 1_555 1_555
C14 H21 1_555 1_555
C15 C14 1_555 1_555
O4 C15 1_555 1_555
C16 O4 1_555 1_555
H22 C16 1_555 1_555
H23 C16 1_555 1_555
H24 C16 1_555 1_555
C17 C15 1_555 1_555
H25 C17 1_555 1_555
C18 C17 1_555 1_555
H26 C18 1_555 1_555
C19 C13 1_555 1_555
C20 N2 1_555 1_555
N3 C21 1_555 1_555
C21 H27 1_555 1_555
H28 C21 1_555 1_555
C22 C21 1_555 1_555
H29 C22 1_555 1_555
C23 C22 1_555 1_555
H30 C23 1_555 1_555
O5 C23 1_555 1_555
H31 O5 1_555 1_555
C24 C23 1_555 1_555
H32 C24 1_555 1_555
H33 C24 1_555 1_555
O6 C24 1_555 1_555
H34 O6 1_555 1_555
C25 C22 1_555 1_555
H35 C25 1_555 1_555
C26 C25 1_555 1_555
H36 C26 1_555 1_555
H37 C26 1_555 1_555
C27 N3 1_555 1_555
H38 C27 1_555 1_555
H39 C27 1_555 1_555
C28 C25 1_555 1_555
H40 C28 1_555 1_555
H41 C28 1_555 1_555
C29 N3 1_555 1_555
H42 C29 1_555 1_555
C30 C29 1_555 1_555
H43 C30 1_555 1_555
O7 C30 1_555 1_555
H44 O7 1_555 1_555
N4 C31 1_555 1_555
C31 H45 1_555 1_555
C32 C31 1_555 1_555
H46 C32 1_555 1_555
C33 C30 1_555 1_555
C34 H47 1_555 1_555
C35 C34 1_555 1_555
O8 C35 1_555 1_555
C36 O8 1_555 1_555
H48 C36 1_555 1_555
H49 C36 1_555 1_555
H50 C36 1_555 1_555
C37 C35 1_555 1_555
H51 C37 1_555 1_555
C38 C37 1_555 1_555
H52 C38 1_555 1_555
C39 C33 1_555 1_555
C40 N4 1_555 1_555
C6 C7 1_555 1_555
C8 C9 1_555 1_555
C12 C13 1_555 1_555
C14 C19 1_555 1_555
C18 C20 1_555 1_555
C19 C20 1_555 1_555
C26 C27 1_555 1_555
C28 C29 1_555 1_555
C32 C33 1_555 1_555
C34 C39 1_555 1_555
C38 C40 1_555 1_555
C39 C40 1_555 1_555

#END
