
#######################################################################
#
#                 Cambridge Crystallographic Data Centre
#                                CCDC 
#
#######################################################################
#
# If this CIF has been generated from an entry in the Cambridge 
# Structural Database, then it will include bibliographic, chemical, 
# crystal, experimental, refinement or atomic coordinate data resulting 
# from the CCDC's data processing and validation procedures.
#
#######################################################################

data_QIQMIO
_chemical_formula_moiety         'C16 H14 Cl1 N3 O3 S1'
_chemical_name_systematic        
N-((2-((4-Chlorophenoxy)acetyl)hydrazino)carbothioyl)benzamide
_symmetry_cell_setting           monoclinic
_symmetry_space_group_name_H-M   'P 21/c'
_symmetry_Int_Tables_number      14
_space_group_name_Hall           '-P 2ybc'
loop_
_symmetry_equiv_pos_site_id
_symmetry_equiv_pos_as_xyz
1 x,y,z
2 -x,1/2+y,1/2-z
3 -x,-y,-z
4 x,1/2-y,1/2+z
_cell_length_a                   18.163(4)
_cell_length_b                   7.2623(15)
_cell_length_c                   13.383(3)
_cell_angle_alpha                90
_cell_angle_beta                 110.81(3)
_cell_angle_gamma                90
_cell_volume                     1650.13
_exptl_crystal_colour            colorless
_exptl_crystal_description       block
_cell_formula_units_Z            4
loop_
_atom_site_label
_atom_site_type_symbol
_atom_site_fract_x
_atom_site_fract_y
_atom_site_fract_z
S1 S 0.25566(3) 0.56903(10) 0.55691(5)
Cl1 Cl 0.64701(4) 0.09435(13) 1.19890(7)
N1 N 0.10719(10) 0.6855(3) 0.50296(14)
H1 H 0.1119 0.7143 0.4432
O1 O 0.15632(9) 0.5642(2) 0.86630(13)
N2 N 0.16590(10) 0.5840(3) 0.67497(14)
H2 H 0.1219 0.6098 0.6823
O2 O 0.02243(9) 0.6794(2) 0.59339(12)
C1 C -0.02903(11) 0.7922(3) 0.41642(16)
O3 O 0.34497(10) 0.3826(3) 0.91058(13)
N3 N 0.22601(11) 0.5140(3) 0.76001(14)
H3 H 0.2685 0.4739 0.7531
C2 C 0.21627(13) 0.5102(3) 0.85481(17)
C3 C 0.03437(12) 0.7159(3) 0.51108(16)
C4 C 0.17353(12) 0.6132(3) 0.58143(16)
C5 C 0.28328(13) 0.4315(4) 0.94655(18)
H4 H 0.3019 0.5218 1.0034
H5 H 0.2656 0.3237 0.9745
C6 C 0.41383(14) 0.3158(3) 0.98387(19)
C7 C -0.02616(12) 0.8020(3) 0.31433(17)
H6 H 0.0181 0.7597 0.3018
C8 C -0.15875(13) 0.9261(3) 0.34959(19)
H7 H -0.2035 0.9675 0.3613
C9 C -0.09655(13) 0.8542(3) 0.43333(17)
H8 H -0.0996 0.8470 0.5012
C10 C -0.15492(13) 0.9369(3) 0.24868(18)
H9 H -0.1968 0.9862 0.1926
C11 C -0.08885(13) 0.8744(3) 0.23128(18)
H10 H -0.0864 0.8810 0.1631
C12 C 0.47260(15) 0.2801(4) 0.9441(2)
H11 H 0.4637 0.3010 0.8722
C13 C 0.55728(14) 0.1831(4) 1.1158(2)
C14 C 0.54450(15) 0.2136(4) 1.0098(2)
H12 H 0.5840 0.1897 0.9826
C15 C 0.49952(16) 0.2185(5) 1.1556(2)
H13 H 0.5089 0.1983 1.2277
C16 C 0.42666(15) 0.2843(4) 1.0898(2)
H14 H 0.3871 0.3068 1.1172
loop_
_geom_bond_atom_site_label_1
_geom_bond_atom_site_label_2
_geom_bond_site_symmetry_1
_geom_bond_site_symmetry_2
S1 C4 1_555 1_555
Cl1 C13 1_555 1_555
N1 H1 1_555 1_555
O1 C2 1_555 1_555
N2 H2 1_555 1_555
O2 C3 1_555 1_555
C1 C3 1_555 1_555
O3 C5 1_555 1_555
N3 N2 1_555 1_555
H3 N3 1_555 1_555
C2 N3 1_555 1_555
C3 N1 1_555 1_555
C4 N1 1_555 1_555
C5 C2 1_555 1_555
H4 C5 1_555 1_555
H5 C5 1_555 1_555
C6 O3 1_555 1_555
C7 C1 1_555 1_555
H6 C7 1_555 1_555
C8 H7 1_555 1_555
C9 C1 1_555 1_555
H8 C9 1_555 1_555
C10 C8 1_555 1_555
H9 C10 1_555 1_555
C11 C7 1_555 1_555
H10 C11 1_555 1_555
C12 C6 1_555 1_555
H11 C12 1_555 1_555
C13 C14 1_555 1_555
C14 C12 1_555 1_555
H12 C14 1_555 1_555
C15 C13 1_555 1_555
H13 C15 1_555 1_555
C16 C6 1_555 1_555
H14 C16 1_555 1_555
N2 C4 1_555 1_555
C8 C9 1_555 1_555
C10 C11 1_555 1_555
C15 C16 1_555 1_555

#END
