
#######################################################################
#
#                 Cambridge Crystallographic Data Centre
#                                CCDC 
#
#######################################################################
#
# If this CIF has been generated from an entry in the Cambridge 
# Structural Database, then it will include bibliographic, chemical, 
# crystal, experimental, refinement or atomic coordinate data resulting 
# from the CCDC's data processing and validation procedures.
#
#######################################################################

data_QIQPOX
_chemical_formula_moiety         'C5 H3 Br3 O3'
_chemical_name_systematic        '5,5,5-tribromo-4-oxopent-2-enoic acid'
_symmetry_cell_setting           monoclinic
_symmetry_space_group_name_H-M   'P 21/c'
_symmetry_Int_Tables_number      14
_space_group_name_Hall           '-P 2ybc'
loop_
_symmetry_equiv_pos_site_id
_symmetry_equiv_pos_as_xyz
1 x,y,z
2 -x,1/2+y,1/2-z
3 -x,-y,-z
4 x,1/2-y,1/2+z
_cell_length_a                   6.6811(6)
_cell_length_b                   16.8056(15)
_cell_length_c                   23.719(2)
_cell_angle_alpha                90
_cell_angle_beta                 97.5930(10)
_cell_angle_gamma                90
_cell_volume                     2639.82
_cell_formula_units_Z            12
loop_
_atom_site_label
_atom_site_type_symbol
_atom_site_fract_x
_atom_site_fract_y
_atom_site_fract_z
Br1 Br 0.3842(1) 0.1761(1) 0.6529(1)
Br2 Br 0.5812(1) 0.0030(1) 0.6575(1)
Br3 Br 0.1441(1) 0.0298(1) 0.6918(1)
C1 C 0.4085(4) 0.0757(2) 0.6928(1)
C2 C 0.5119(5) 0.0904(2) 0.7539(1)
C3 C 0.7145(5) 0.1294(2) 0.7590(1)
C4 C 0.8278(5) 0.1332(2) 0.8091(1)
C5 C 1.0260(5) 0.1739(2) 0.8183(1)
O1 O 0.4323(3) 0.0713(1) 0.7942(1)
O2 O 1.1257(3) 0.1731(1) 0.8656(1)
O3 O 1.0778(4) 0.2104(2) 0.7743(1)
Br4 Br 0.3401(1) -0.1446(1) 0.7877(1)
Br5 Br 0.1361(1) -0.2154(1) 0.8894(1)
Br6 Br -0.1146(1) -0.1037(1) 0.7987(1)
C6 C 0.1478(5) -0.1238(2) 0.8401(1)
C7 C 0.2197(5) -0.0537(2) 0.8790(1)
C8 C 0.4312(5) -0.0584(2) 0.9081(1)
C9 C 0.5248(5) 0.0069(2) 0.9288(1)
C10 C 0.7340(5) 0.0031(2) 0.9591(1)
O4 O 0.1083(4) 0.0003(1) 0.8863(1)
O5 O 0.8179(3) -0.0597(1) 0.9729(1)
O6 O 0.8144(4) 0.0735(1) 0.9695(1)
Br7 Br 1.2099(1) 0.2356(1) 1.0050(1)
Br8 Br 1.4033(1) 0.4052(1) 0.9919(1)
Br9 Br 0.9727(1) 0.3924(1) 1.0329(1)
C11 C 1.1555(5) 0.3460(2) 0.9845(1)
C12 C 1.0468(5) 0.3480(2) 0.9231(1)
C13 C 0.8478(5) 0.3076(2) 0.9129(1)
C14 C 0.7315(5) 0.3180(2) 0.8642(1)
C15 C 0.5330(5) 0.2783(2) 0.8501(1)
O7 O 1.1227(3) 0.3806(1) 0.8861(1)
O8 O 0.4308(3) 0.2878(1) 0.8039(1)
O9 O 0.4835(4) 0.2322(1) 0.8904(1)
loop_
_geom_bond_atom_site_label_1
_geom_bond_atom_site_label_2
_geom_bond_site_symmetry_1
_geom_bond_site_symmetry_2
Br1 C1 1_555 1_555
Br2 C1 1_555 1_555
Br3 C1 1_555 1_555
C1 C2 1_555 1_555
C2 C3 1_555 1_555
C3 C4 1_555 1_555
C4 C5 1_555 1_555
C5 O2 1_555 1_555
O1 C2 1_555 1_555
O3 C5 1_555 1_555
Br4 C6 1_555 1_555
Br5 C6 1_555 1_555
Br6 C6 1_555 1_555
C6 C7 1_555 1_555
C7 C8 1_555 1_555
C8 C9 1_555 1_555
C9 C10 1_555 1_555
C10 O5 1_555 1_555
O4 C7 1_555 1_555
O6 C10 1_555 1_555
Br7 C11 1_555 1_555
Br8 C11 1_555 1_555
Br9 C11 1_555 1_555
C11 C12 1_555 1_555
C12 C13 1_555 1_555
C13 C14 1_555 1_555
C14 C15 1_555 1_555
C15 O8 1_555 1_555
O7 C12 1_555 1_555
O9 C15 1_555 1_555

#END
