
#######################################################################
#
#                 Cambridge Crystallographic Data Centre
#                                CCDC 
#
#######################################################################
#
# If this CIF has been generated from an entry in the Cambridge 
# Structural Database, then it will include bibliographic, chemical, 
# crystal, experimental, refinement or atomic coordinate data resulting 
# from the CCDC's data processing and validation procedures.
#
#######################################################################

data_QIQSER
_chemical_formula_moiety         'C44 H50 N4 S2'
_chemical_name_systematic        
7,8,13,14,21,22,27,28-octaethyl-31,34-dithia-29,30,32,33-tetraazaheptacyclo[24.2.1.1^2,5^.1^6,9^.1^12,15^.1^16,19^.1^20,23^]tetratriaconta-1(29),2,4,6,8,10,12(32),13,15,17,19,21,23,25,27-pentadecaene
_symmetry_cell_setting           triclinic
_symmetry_space_group_name_H-M   'P -1'
_symmetry_Int_Tables_number      2
_space_group_name_Hall           '-P 1'
loop_
_symmetry_equiv_pos_site_id
_symmetry_equiv_pos_as_xyz
1 x,y,z
2 -x,-y,-z
_cell_length_a                   8.7071(7)
_cell_length_b                   9.6083(5)
_cell_length_c                   12.2192(8)
_cell_angle_alpha                98.972(5)
_cell_angle_beta                 106.931(7)
_cell_angle_gamma                103.162(6)
_cell_volume                     924.76
_exptl_crystal_colour            bronze
_exptl_crystal_description       plate
_cell_formula_units_Z            1
loop_
_atom_site_label
_atom_site_type_symbol
_atom_site_fract_x
_atom_site_fract_y
_atom_site_fract_z
S1 S 0.24750(7) 0.80755(6) 0.71246(5)
N1 N 0.1665(2) 0.4071(2) 0.77962(16)
N2 N 0.0660(2) 0.8182(2) 0.37373(16)
C1 C 0.1634(3) 1.0662(2) 0.4023(2)
C2 C 0.3084(3) 0.6101(3) 0.93240(19)
C3 C 0.0620(3) 0.9305(3) 0.3180(2)
C4 C 0.2332(3) 0.6231(2) 0.71100(19)
C5 C 0.2230(3) 1.0324(2) 0.5094(2)
C6 C 0.1887(3) 0.3630(3) 0.88263(19)
C7 C 0.1291(3) 0.2164(3) 0.8891(2)
H1 H 0.1637 0.2013 0.9647
C8 C 0.2801(3) 0.4901(3) 0.97933(19)
C9 C 0.2374(3) 0.5549(2) 0.80631(19)
C10 C 0.1786(3) 0.6274(3) 0.5139(2)
H2 H 0.1548 0.5882 0.4342
C11 C 0.0280(3) 0.0905(3) 0.8029(2)
H3 H 0.0176 0.0044 0.8294
C12 C 0.3397(3) 1.1345(3) 0.6245(2)
H4 H 0.3076 1.1022 0.6882
H5 H 0.3275 1.2325 0.6257
C13 C 0.3263(3) 0.4878(3) 1.1074(2)
H6 H 0.4214 0.5724 1.1530
H7 H 0.3600 0.3999 1.1181
C14 C 0.1959(3) 0.7748(2) 0.55993(19)
C15 C 0.3987(3) 0.7680(3) 0.9967(2)
H8 H 0.4580 0.8149 0.9500
H9 H 0.4814 0.7707 1.0707
C16 C 0.1634(3) 0.8759(2) 0.48939(19)
C17 C 0.1998(3) 0.5455(3) 0.5968(2)
H10 H 0.1924 0.4460 0.5780
C18 C 0.1823(4) 0.4902(3) 1.1540(2)
H11 H 0.2177 0.4886 1.2358
H12 H 0.1499 0.5780 1.1453
H13 H 0.0885 0.4055 1.1104
C19 C 0.2047(3) 1.2133(3) 0.3741(2)
H14 H 0.2298 1.2897 0.4441
H15 H 0.1075 1.2209 0.3142
C20 C 0.2819(4) 0.8555(3) 1.0220(3)
H16 H 0.3463 0.9550 1.0630
H17 H 0.2012 0.8554 0.9491
H18 H 0.2247 0.8112 1.0699
C21 C 0.5208(3) 1.1414(4) 0.6459(3)
H19 H 0.5892 1.2079 0.7203
H20 H 0.5343 1.0451 0.6466
H21 H 0.5543 1.1755 0.5842
C22 C 0.3515(5) 1.2389(5) 0.3309(5)
H22 H 0.3728 1.3344 0.3142
H23 H 0.4488 1.2337 0.3905
H24 H 0.3266 1.1649 0.2606
H25 H -0.037(7) 0.699(5) 0.323(4)
S1A S -0.24750(7) 0.19245(6) 0.28754(5)
N1A N -0.1665(2) 0.5929(2) 0.22038(16)
N2A N -0.0660(2) 0.1818(2) 0.62627(16)
C1A C -0.1634(3) -0.0662(2) 0.5977(2)
C2A C -0.3084(3) 0.3899(3) 0.06760(19)
C3A C -0.0620(3) 0.0695(3) 0.6820(2)
C4A C -0.2332(3) 0.3769(2) 0.28900(19)
C5A C -0.2230(3) -0.0324(2) 0.4906(2)
C6A C -0.1887(3) 0.6370(3) 0.11737(19)
C7A C -0.1291(3) 0.7836(3) 0.1109(2)
H1A H -0.1637 0.7987 0.0353
C8A C -0.2801(3) 0.5099(3) 0.02067(19)
C9A C -0.2374(3) 0.4451(2) 0.19369(19)
C10A C -0.1786(3) 0.3726(3) 0.4861(2)
H2A H -0.1548 0.4118 0.5658
C11A C -0.0280(3) 0.9095(3) 0.1971(2)
H3A H -0.0176 0.9956 0.1706
C12A C -0.3397(3) -0.1345(3) 0.3755(2)
H4A H -0.3076 -0.1022 0.3118
H5A H -0.3275 -0.2325 0.3743
C13A C -0.3263(3) 0.5122(3) -0.1074(2)
H6A H -0.4214 0.4276 -0.1530
H7A H -0.3600 0.6001 -0.1181
C14A C -0.1959(3) 0.2252(2) 0.44007(19)
C15A C -0.3987(3) 0.2320(3) 0.0033(2)
H8A H -0.4580 0.1851 0.0500
H9A H -0.4814 0.2293 -0.0707
C16A C -0.1634(3) 0.1241(2) 0.51061(19)
C17A C -0.1998(3) 0.4545(3) 0.4032(2)
H10A H -0.1924 0.5540 0.4220
C18A C -0.1823(4) 0.5098(3) -0.1540(2)
H11A H -0.2177 0.5114 -0.2358
H12A H -0.1499 0.4220 -0.1453
H13A H -0.0885 0.5945 -0.1104
C19A C -0.2047(3) -0.2133(3) 0.6259(2)
H14A H -0.2298 -0.2897 0.5559
H15A H -0.1075 -0.2209 0.6858
C20A C -0.2819(4) 0.1445(3) -0.0220(3)
H16A H -0.3463 0.0450 -0.0630
H17A H -0.2012 0.1446 0.0509
H18A H -0.2247 0.1888 -0.0699
C21A C -0.5208(3) -0.1414(4) 0.3541(3)
H19A H -0.5892 -0.2079 0.2797
H20A H -0.5343 -0.0451 0.3534
H21A H -0.5543 -0.1755 0.4158
C22A C -0.3515(5) -0.2389(5) 0.6691(5)
H22A H -0.3728 -0.3344 0.6858
H23A H -0.4488 -0.2337 0.6095
H24A H -0.3266 -0.1649 0.7394
H25A H 0.037(7) 0.301(5) 0.677(4)
loop_
_geom_bond_atom_site_label_1
_geom_bond_atom_site_label_2
_geom_bond_site_symmetry_1
_geom_bond_site_symmetry_2
S1 C4 1_555 1_555
N1 C6 1_555 1_555
N2 C3 1_555 1_555
C1 C3 1_555 1_555
C2 C8 1_555 1_555
C3 C11A 1_555 1_555
C4 C9 1_555 1_555
C5 C1 1_555 1_555
C6 C7 1_555 1_555
C7 H1 1_555 1_555
C8 C6 1_555 1_555
C9 N1 1_555 1_555
C10 H2 1_555 1_555
C11 C7 1_555 1_555
H3 C11 1_555 1_555
C12 C5 1_555 1_555
H4 C12 1_555 1_555
H5 C12 1_555 1_555
C13 C8 1_555 1_555
H6 C13 1_555 1_555
H7 C13 1_555 1_555
C14 S1 1_555 1_555
C15 C2 1_555 1_555
H8 C15 1_555 1_555
H9 C15 1_555 1_555
C16 N2 1_555 1_555
C17 C4 1_555 1_555
H10 C17 1_555 1_555
C18 C13 1_555 1_555
H11 C18 1_555 1_555
H12 C18 1_555 1_555
H13 C18 1_555 1_555
C19 C1 1_555 1_555
H14 C19 1_555 1_555
H15 C19 1_555 1_555
C20 C15 1_555 1_555
H16 C20 1_555 1_555
H17 C20 1_555 1_555
H18 C20 1_555 1_555
C21 C12 1_555 1_555
H19 C21 1_555 1_555
H20 C21 1_555 1_555
H21 C21 1_555 1_555
C22 C19 1_555 1_555
H22 C22 1_555 1_555
H23 C22 1_555 1_555
H24 C22 1_555 1_555
H25 N2 1_555 1_555
S1A C4A 1_555 1_555
N1A C6A 1_555 1_555
N2A C3A 1_555 1_555
C1A C3A 1_555 1_555
C2A C8A 1_555 1_555
C3A C11 1_555 1_555
C4A C9A 1_555 1_555
C5A C1A 1_555 1_555
C6A C7A 1_555 1_555
C7A H1A 1_555 1_555
C8A C6A 1_555 1_555
C9A N1A 1_555 1_555
C10A H2A 1_555 1_555
C11A C7A 1_555 1_555
H3A C11A 1_555 1_555
C12A C5A 1_555 1_555
H4A C12A 1_555 1_555
H5A C12A 1_555 1_555
C13A C8A 1_555 1_555
H6A C13A 1_555 1_555
H7A C13A 1_555 1_555
C14A S1A 1_555 1_555
C15A C2A 1_555 1_555
H8A C15A 1_555 1_555
H9A C15A 1_555 1_555
C16A N2A 1_555 1_555
C17A C4A 1_555 1_555
H10A C17A 1_555 1_555
C18A C13A 1_555 1_555
H11A C18A 1_555 1_555
H12A C18A 1_555 1_555
H13A C18A 1_555 1_555
C19A C1A 1_555 1_555
H14A C19A 1_555 1_555
H15A C19A 1_555 1_555
C20A C15A 1_555 1_555
H16A C20A 1_555 1_555
H17A C20A 1_555 1_555
H18A C20A 1_555 1_555
C21A C12A 1_555 1_555
H19A C21A 1_555 1_555
H20A C21A 1_555 1_555
H21A C21A 1_555 1_555
C22A C19A 1_555 1_555
H22A C22A 1_555 1_555
H23A C22A 1_555 1_555
H24A C22A 1_555 1_555
H25A N2A 1_555 1_555
C2 C9 1_555 1_555
C5 C16 1_555 1_555
C10 C14 1_555 1_555
C10 C17 1_555 1_555
C14 C16 1_555 1_555
C2A C9A 1_555 1_555
C5A C16A 1_555 1_555
C10A C14A 1_555 1_555
C10A C17A 1_555 1_555
C14A C16A 1_555 1_555

#END
