
#######################################################################
#
#                 Cambridge Crystallographic Data Centre
#                                CCDC 
#
#######################################################################
#
# If this CIF has been generated from an entry in the Cambridge 
# Structural Database, then it will include bibliographic, chemical, 
# crystal, experimental, refinement or atomic coordinate data resulting 
# from the CCDC's data processing and validation procedures.
#
#######################################################################

data_QIRFOO
_chemical_name_common            
(E)-2,2'-diethoxycarbonyl-9,9'-bifluorenylidene
_chemical_formula_moiety         'C32 H24 O4'
_chemical_name_systematic        
'Ethyl 9-(2-(ethoxycarbonyl)-9H-fluoren-9-ylidene)-9H-fluorene-2-carboxylate'
_symmetry_cell_setting           monoclinic
_symmetry_space_group_name_H-M   'C 2/c'
_symmetry_Int_Tables_number      15
_space_group_name_Hall           '-C 2yn'
loop_
_symmetry_equiv_pos_site_id
_symmetry_equiv_pos_as_xyz
1 x,y,z
2 -x,y,1/2-z
3 1/2+x,1/2+y,z
4 1/2-x,1/2+y,1/2-z
5 -x,-y,-z
6 x,-y,1/2+z
7 1/2-x,1/2-y,-z
8 1/2+x,1/2-y,1/2+z
_cell_length_a                   28.484(8)
_cell_length_b                   3.9532(11)
_cell_length_c                   24.433(7)
_cell_angle_alpha                90
_cell_angle_beta                 124.659(3)
_cell_angle_gamma                90
_cell_volume                     2263.03
_exptl_crystal_colour            orange
_exptl_crystal_description       plate
_cell_formula_units_Z            4
loop_
_atom_site_label
_atom_site_type_symbol
_atom_site_fract_x
_atom_site_fract_y
_atom_site_fract_z
C1 C 0.22095(7) 0.6347(5) 0.11653(9)
H1 H 0.2214 0.3898 0.1106
H2 H 0.2582 0.7302 0.1314
H3 H 0.1912 0.7384 0.0742
C2 C 0.20889(7) 0.7046(5) 0.16775(8)
H4 H 0.2394 0.6072 0.2112
H5 H 0.2074 0.9516 0.1733
C3 C 0.14071(7) 0.5425(4) 0.18929(8)
C4 C 0.08438(7) 0.3801(4) 0.16182(8)
C5 C 0.06907(7) 0.3165(4) 0.20589(8)
H6 H 0.0941 0.3769 0.2515
C6 C 0.01700(7) 0.1646(4) 0.18277(8)
C7 C -0.01209(7) 0.1012(4) 0.21642(8)
C8 C -0.07125(7) 0.0008(4) 0.16199(8)
C9 C -0.11752(7) -0.1115(4) 0.16231(8)
H7 H -0.1164 -0.0996 0.2019
C10 C -0.16519(7) -0.2408(5) 0.10435(8)
H8 H -0.1969 -0.3134 0.1045
C11 C -0.16767(7) -0.2667(5) 0.04623(8)
H9 H -0.2006 -0.3586 0.0073
C12 C -0.12203(7) -0.1586(5) 0.04489(8)
H10 H -0.1234 -0.1761 0.0053
C13 C -0.07453(7) -0.0247(4) 0.10214(8)
C14 C -0.02090(7) 0.0956(4) 0.11445(8)
C15 C -0.00583(7) 0.1594(5) 0.07042(8)
H11 H -0.0316 0.1087 0.0244
C16 C 0.04714(7) 0.2977(4) 0.09445(8)
H12 H 0.0583 0.3369 0.0650
O1 O 0.15424(5) 0.5506(3) 0.14468(6)
O2 O 0.17153(5) 0.6549(3) 0.24531(6)
C1A C -0.22095(7) 0.6347(5) 0.38347(9)
H1A H -0.2214 0.3898 0.3894
H2A H -0.2582 0.7302 0.3686
H3A H -0.1912 0.7384 0.4258
C2A C -0.20889(7) 0.7046(5) 0.33225(8)
H4A H -0.2394 0.6072 0.2888
H5A H -0.2074 0.9516 0.3267
C3A C -0.14071(7) 0.5425(4) 0.31071(8)
C4A C -0.08438(7) 0.3801(4) 0.33818(8)
C5A C -0.06907(7) 0.3165(4) 0.29411(8)
H6A H -0.0941 0.3769 0.2485
C6A C -0.01700(7) 0.1646(4) 0.31723(8)
C7A C 0.01209(7) 0.1012(4) 0.28358(8)
C8A C 0.07125(7) 0.0008(4) 0.33801(8)
C9A C 0.11752(7) -0.1115(4) 0.33769(8)
H7A H 0.1164 -0.0996 0.2981
C10A C 0.16519(7) -0.2408(5) 0.39565(8)
H8A H 0.1969 -0.3134 0.3955
C11A C 0.16767(7) -0.2667(5) 0.45377(8)
H9A H 0.2006 -0.3586 0.4927
C12A C 0.12203(7) -0.1586(5) 0.45511(8)
H10A H 0.1234 -0.1761 0.4947
C13A C 0.07453(7) -0.0247(4) 0.39786(8)
C14A C 0.02090(7) 0.0956(4) 0.38555(8)
C15A C 0.00583(7) 0.1594(5) 0.42958(8)
H11A H 0.0316 0.1087 0.4756
C16A C -0.04714(7) 0.2977(4) 0.40555(8)
H12A H -0.0583 0.3369 0.4350
O1A O -0.15424(5) 0.5506(3) 0.35532(6)
O2A O -0.17153(5) 0.6549(3) 0.25469(6)
loop_
_geom_bond_atom_site_label_1
_geom_bond_atom_site_label_2
_geom_bond_site_symmetry_1
_geom_bond_site_symmetry_2
C1 H1 1_555 1_555
H2 C1 1_555 1_555
H3 C1 1_555 1_555
C2 C1 1_555 1_555
H4 C2 1_555 1_555
H5 C2 1_555 1_555
C3 C4 1_555 1_555
C4 C5 1_555 1_555
C5 H6 1_555 1_555
C6 C5 1_555 1_555
C7 C6 1_555 1_555
C8 C7 1_555 1_555
C9 C8 1_555 1_555
H7 C9 1_555 1_555
C10 C9 1_555 1_555
H8 C10 1_555 1_555
C11 C10 1_555 1_555
H9 C11 1_555 1_555
C12 C11 1_555 1_555
H10 C12 1_555 1_555
C13 C8 1_555 1_555
C14 C6 1_555 1_555
C15 C14 1_555 1_555
H11 C15 1_555 1_555
C16 C4 1_555 1_555
H12 C16 1_555 1_555
O1 C2 1_555 1_555
O2 C3 1_555 1_555
C1A H1A 1_555 1_555
H2A C1A 1_555 1_555
H3A C1A 1_555 1_555
C2A C1A 1_555 1_555
H4A C2A 1_555 1_555
H5A C2A 1_555 1_555
C3A C4A 1_555 1_555
C4A C5A 1_555 1_555
C5A H6A 1_555 1_555
C6A C5A 1_555 1_555
C7A C7 1_555 1_555
C8A C7A 1_555 1_555
C9A C8A 1_555 1_555
H7A C9A 1_555 1_555
C10A C9A 1_555 1_555
H8A C10A 1_555 1_555
C11A C10A 1_555 1_555
H9A C11A 1_555 1_555
C12A C11A 1_555 1_555
H10A C12A 1_555 1_555
C13A C8A 1_555 1_555
C14A C6A 1_555 1_555
C15A C14A 1_555 1_555
H11A C15A 1_555 1_555
C16A C4A 1_555 1_555
H12A C16A 1_555 1_555
O1A C2A 1_555 1_555
O2A C3A 1_555 1_555
C3 O1 1_555 1_555
C12 C13 1_555 1_555
C13 C14 1_555 1_555
C15 C16 1_555 1_555
C3A O1A 1_555 1_555
C6A C7A 1_555 1_555
C12A C13A 1_555 1_555
C13A C14A 1_555 1_555
C15A C16A 1_555 1_555

#END
