
#######################################################################
#
#                 Cambridge Crystallographic Data Centre
#                                CCDC 
#
#######################################################################
#
# If this CIF has been generated from an entry in the Cambridge 
# Structural Database, then it will include bibliographic, chemical, 
# crystal, experimental, refinement or atomic coordinate data resulting 
# from the CCDC's data processing and validation procedures.
#
#######################################################################

data_QIRHAC
_chemical_name_common            N-Propylfluorenimine
_chemical_formula_moiety         'C16 H15 N1'
_chemical_name_systematic        N-(9H-Fluoren-9-ylidene)propan-1-amine
_symmetry_cell_setting           monoclinic
_symmetry_space_group_name_H-M   'C 2/c'
_symmetry_Int_Tables_number      15
_space_group_name_Hall           '-C 2yn'
loop_
_symmetry_equiv_pos_site_id
_symmetry_equiv_pos_as_xyz
1 x,y,z
2 -x,y,1/2-z
3 1/2+x,1/2+y,z
4 1/2-x,1/2+y,1/2-z
5 -x,-y,-z
6 x,-y,1/2+z
7 1/2-x,1/2-y,-z
8 1/2+x,1/2-y,1/2+z
_cell_length_a                   30.642(2)
_cell_length_b                   5.0737(4)
_cell_length_c                   16.1971(13)
_cell_angle_alpha                90
_cell_angle_beta                 110.2550(10)
_cell_angle_gamma                90
_cell_volume                     2362.42
_exptl_crystal_colour            colorless
_exptl_crystal_description       plate
_chemical_melting_point          '327-330 K'
_cell_formula_units_Z            8
loop_
_atom_site_label
_atom_site_type_symbol
_atom_site_fract_x
_atom_site_fract_y
_atom_site_fract_z
C1 C 0.11960(4) 0.6633(2) 0.08060(7)
C2 C 0.15567(4) 0.8736(2) 0.11001(8)
C3 C 0.16724(4) 1.0382(2) 0.18286(8)
C4 C 0.20341(4) 1.2184(3) 0.19562(8)
C5 C 0.22732(4) 1.2323(3) 0.13635(9)
C6 C 0.21541(4) 1.0681(2) 0.06276(8)
C7 C 0.17946(4) 0.8900(2) 0.05009(8)
C8 C 0.15902(4) 0.6973(2) -0.02049(8)
C9 C 0.16968(4) 0.6475(3) -0.09551(8)
C10 C 0.14471(5) 0.4536(3) -0.15388(9)
C11 C 0.10993(5) 0.3128(3) -0.13671(9)
C12 C 0.09891(4) 0.3621(3) -0.06132(8)
C13 C 0.12350(4) 0.5568(2) -0.00292(8)
C14 C 0.05963(4) 0.3916(3) 0.09450(8)
C15 C 0.03354(5) 0.3439(3) 0.15765(10)
C16 C -0.00163(5) 0.1217(3) 0.12518(11)
H1 H 0.1503(6) 1.029(4) 0.2250(12)
H2 H 0.2121(6) 1.334(3) 0.2460(11)
H3 H 0.2532(6) 1.363(4) 0.1478(12)
H4 H 0.2329(5) 1.077(3) 0.0207(11)
H5 H 0.1949(6) 0.747(3) -0.1069(11)
H6 H 0.1506(6) 0.419(4) -0.2082(12)
H7 H 0.0918(6) 0.182(4) -0.1786(12)
H8 H 0.0743(6) 0.258(4) -0.0516(12)
H9 H 0.0360(6) 0.441(3) 0.0340(11)
H10 H 0.0168(7) 0.512(4) 0.1651(14)
H11 H -0.0253(7) 0.171(4) 0.0645(14)
H12 H 0.0760(5) 0.224(3) 0.0897(11)
H13 H 0.0562(7) 0.304(4) 0.2174(15)
H14 H 0.0144(7) -0.039(4) 0.1215(14)
H15 H -0.0192(7) 0.087(4) 0.1664(14)
N1 N 0.09315(3) 0.6073(2) 0.12438(7)
loop_
_geom_bond_atom_site_label_1
_geom_bond_atom_site_label_2
_geom_bond_site_symmetry_1
_geom_bond_site_symmetry_2
C1 C2 1_555 1_555
C2 C3 1_555 1_555
C3 C4 1_555 1_555
C4 C5 1_555 1_555
C5 C6 1_555 1_555
C6 C7 1_555 1_555
C7 C2 1_555 1_555
C8 C7 1_555 1_555
C9 C8 1_555 1_555
C10 C9 1_555 1_555
C11 C10 1_555 1_555
C12 C11 1_555 1_555
C13 C1 1_555 1_555
C14 C15 1_555 1_555
C15 C16 1_555 1_555
C16 H11 1_555 1_555
H1 C3 1_555 1_555
H2 C4 1_555 1_555
H3 C5 1_555 1_555
H4 C6 1_555 1_555
H5 C9 1_555 1_555
H6 C10 1_555 1_555
H7 C11 1_555 1_555
H8 C12 1_555 1_555
H9 C14 1_555 1_555
H10 C15 1_555 1_555
H12 C14 1_555 1_555
H13 C15 1_555 1_555
H14 C16 1_555 1_555
H15 C16 1_555 1_555
N1 C1 1_555 1_555
C8 C13 1_555 1_555
C12 C13 1_555 1_555
C14 N1 1_555 1_555

#END
