
#######################################################################
#
#                 Cambridge Crystallographic Data Centre
#                                CCDC 
#
#######################################################################
#
# If this CIF has been generated from an entry in the Cambridge 
# Structural Database, then it will include bibliographic, chemical, 
# crystal, experimental, refinement or atomic coordinate data resulting 
# from the CCDC's data processing and validation procedures.
#
#######################################################################

data_QISJAG
_chemical_formula_moiety         'C36 H35 N1 O1 Si1'
_chemical_name_systematic        
9-{[t-butyl(dimethyl)silyl]oxy}-1,3,4-triphenyl-9H-indeno[2,1-c]pyridine
_symmetry_cell_setting           monoclinic
_symmetry_space_group_name_H-M   'C 2/c'
_symmetry_Int_Tables_number      15
_space_group_name_Hall           '-C 2yn'
loop_
_symmetry_equiv_pos_site_id
_symmetry_equiv_pos_as_xyz
1 x,y,z
2 -x,y,1/2-z
3 1/2+x,1/2+y,z
4 1/2-x,1/2+y,1/2-z
5 -x,-y,-z
6 x,-y,1/2+z
7 1/2-x,1/2-y,-z
8 1/2+x,1/2-y,1/2+z
_cell_length_a                   20.052(4)
_cell_length_b                   6.3001(12)
_cell_length_c                   48.442(9)
_cell_angle_alpha                90
_cell_angle_beta                 96.918(9)
_cell_angle_gamma                90
_cell_volume                     6075.1
_exptl_crystal_colour            colorless
_exptl_crystal_description       prismatic
_cell_formula_units_Z            8
loop_
_atom_site_label
_atom_site_type_symbol
_atom_site_fract_x
_atom_site_fract_y
_atom_site_fract_z
Si1 Si 0.87694(7) 0.8715(2) 0.43081(3)
O1 O 0.90129(13) 0.6566(4) 0.41534(5)
N1 N 1.03481(15) 0.9937(5) 0.36243(6)
C1 C 0.8373(2) 0.6173(6) 0.36915(8)
C2 C 0.7789(2) 0.5112(8) 0.37344(10)
H1 H 0.7781 0.4203 0.3885
C3 C 0.7221(2) 0.5428(9) 0.35501(11)
H2 H 0.6823 0.4754 0.3580
C4 C 0.7231(2) 0.6723(8) 0.33225(10)
H3 H 0.6842 0.6896 0.3199
C5 C 0.7811(2) 0.7771(7) 0.32745(8)
H4 H 0.7814 0.8650 0.3120
C6 C 0.83902(19) 0.7491(6) 0.34608(8)
C7 C 0.90692(17) 0.8418(6) 0.34771(7)
C8 C 0.94579(18) 0.7670(6) 0.37171(7)
C9 C 0.90453(19) 0.6130(6) 0.38681(7)
H5 H 0.9237 0.4709 0.3854
C10 C 0.93310(18) 0.9883(6) 0.33030(7)
C11 C 0.99833(19) 1.0636(6) 0.33913(7)
C12 C 1.01082(19) 0.8429(6) 0.37818(7)
C13 C 1.05801(19) 0.7777(7) 0.40291(7)
C14 C 1.1073(2) 0.9175(8) 0.41387(8)
H6 H 1.1111 1.0491 0.4055
C15 C 1.1511(3) 0.8637(10) 0.43727(10)
H7 H 1.1835 0.9606 0.4446
C16 C 1.1471(3) 0.6703(11) 0.44958(10)
H8 H 1.1763 0.6354 0.4653
C17 C 1.0995(3) 0.5278(9) 0.43852(9)
H9 H 1.0969 0.3948 0.4466
C18 C 1.0556(2) 0.5804(7) 0.41547(8)
H10 H 1.0237 0.4818 0.4082
C19 C 0.89247(19) 1.0645(6) 0.30433(7)
C20 C 0.8609(2) 1.2586(7) 0.30341(8)
H11 H 0.8659 1.3462 0.3190
C21 C 0.8223(2) 1.3235(8) 0.27986(10)
H12 H 0.8013 1.4552 0.2796
C22 C 0.8140(3) 1.2007(9) 0.25682(9)
H13 H 0.7871 1.2468 0.2410
C23 C 0.8455(2) 1.0072(9) 0.25708(9)
H14 H 0.8407 0.9225 0.2412
C24 C 0.8843(2) 0.9386(7) 0.28076(8)
H15 H 0.9051 0.8066 0.2809
C25 C 1.03034(19) 1.2351(6) 0.32436(8)
C26 C 1.0326(2) 1.2354(8) 0.29611(9)
H16 H 1.0141 1.1218 0.2856
C27 C 1.0615(3) 1.3987(11) 0.28301(12)
H17 H 1.0623 1.3967 0.2639
C28 C 1.0891(3) 1.5651(11) 0.29878(17)
H18 H 1.1084 1.6778 0.2902
C29 C 1.0885(3) 1.5664(9) 0.32672(16)
H19 H 1.1074 1.6796 0.3372
C30 C 1.0600(3) 1.4012(7) 0.33960(11)
H20 H 1.0608 1.4017 0.3588
C31 C 0.9364(4) 1.0924(9) 0.42894(18)
H21 H 0.9807 1.0470 0.4356
H22 H 0.9128 1.2215 0.4335
H23 H 0.9358 1.1375 0.4102
C32 C 0.7936(4) 0.9623(12) 0.41537(12)
H24 H 0.7959 1.0069 0.3966
H25 H 0.7795 1.0793 0.4260
H26 H 0.7620 0.8481 0.4155
C33 C 0.8759(3) 0.7874(8) 0.46753(9)
C34 C 0.9439(4) 0.6978(13) 0.47911(12)
H27 H 0.9453 0.6773 0.4988
H28 H 0.9787 0.7952 0.4755
H29 H 0.9508 0.5642 0.4704
C35 C 0.8582(4) 0.9762(10) 0.48548(11)
H30 H 0.8576 0.9301 0.5043
H31 H 0.8147 1.0302 0.4784
H32 H 0.8912 1.0860 0.4849
C36 C 0.8223(4) 0.6167(11) 0.46894(13)
H33 H 0.8329 0.4955 0.4583
H34 H 0.7793 0.6720 0.4615
H35 H 0.8211 0.5753 0.4879
loop_
_geom_bond_atom_site_label_1
_geom_bond_atom_site_label_2
_geom_bond_site_symmetry_1
_geom_bond_site_symmetry_2
Si1 O1 1_555 1_555
O1 C9 1_555 1_555
N1 C11 1_555 1_555
C1 C2 1_555 1_555
C2 H1 1_555 1_555
C3 C2 1_555 1_555
H2 C3 1_555 1_555
C4 C3 1_555 1_555
H3 C4 1_555 1_555
C5 C4 1_555 1_555
H4 C5 1_555 1_555
C6 C1 1_555 1_555
C7 C6 1_555 1_555
C8 C7 1_555 1_555
C9 C1 1_555 1_555
H5 C9 1_555 1_555
C10 C7 1_555 1_555
C11 C10 1_555 1_555
C12 N1 1_555 1_555
C13 C12 1_555 1_555
C14 C13 1_555 1_555
H6 C14 1_555 1_555
C15 C14 1_555 1_555
H7 C15 1_555 1_555
C16 C15 1_555 1_555
H8 C16 1_555 1_555
C17 C16 1_555 1_555
H9 C17 1_555 1_555
C18 C13 1_555 1_555
H10 C18 1_555 1_555
C19 C10 1_555 1_555
C20 C19 1_555 1_555
H11 C20 1_555 1_555
C21 C20 1_555 1_555
H12 C21 1_555 1_555
C22 C21 1_555 1_555
H13 C22 1_555 1_555
C23 C22 1_555 1_555
H14 C23 1_555 1_555
C24 C19 1_555 1_555
H15 C24 1_555 1_555
C25 C11 1_555 1_555
C26 C25 1_555 1_555
H16 C26 1_555 1_555
C27 C26 1_555 1_555
H17 C27 1_555 1_555
C28 C27 1_555 1_555
H18 C28 1_555 1_555
C29 C28 1_555 1_555
H19 C29 1_555 1_555
C30 C25 1_555 1_555
H20 C30 1_555 1_555
C31 Si1 1_555 1_555
H21 C31 1_555 1_555
H22 C31 1_555 1_555
H23 C31 1_555 1_555
C32 Si1 1_555 1_555
H24 C32 1_555 1_555
H25 C32 1_555 1_555
H26 C32 1_555 1_555
C33 Si1 1_555 1_555
C34 C33 1_555 1_555
H27 C34 1_555 1_555
H28 C34 1_555 1_555
H29 C34 1_555 1_555
C35 C33 1_555 1_555
H30 C35 1_555 1_555
H31 C35 1_555 1_555
H32 C35 1_555 1_555
C36 C33 1_555 1_555
H33 C36 1_555 1_555
H34 C36 1_555 1_555
H35 C36 1_555 1_555
C5 C6 1_555 1_555
C8 C9 1_555 1_555
C8 C12 1_555 1_555
C17 C18 1_555 1_555
C23 C24 1_555 1_555
C29 C30 1_555 1_555

#END
