
#######################################################################
#
#                 Cambridge Crystallographic Data Centre
#                                CCDC 
#
#######################################################################
#
# If this CIF has been generated from an entry in the Cambridge 
# Structural Database, then it will include bibliographic, chemical, 
# crystal, experimental, refinement or atomic coordinate data resulting 
# from the CCDC's data processing and validation procedures.
#
#######################################################################

data_QISNAK
_chemical_formula_moiety         'C13 H16 N2 O2,0.5(C1 H1 Cl3)'
_chemical_name_systematic        
'2-(dimethoxymethyl)-4-(4-methylphenyl)-1H-imidazole chloroform solvate'
_symmetry_cell_setting           monoclinic
_symmetry_space_group_name_H-M   'P 21/c'
_symmetry_Int_Tables_number      14
_space_group_name_Hall           '-P 2ybc'
loop_
_symmetry_equiv_pos_site_id
_symmetry_equiv_pos_as_xyz
1 x,y,z
2 -x,1/2+y,1/2-z
3 -x,-y,-z
4 x,1/2-y,1/2+z
_cell_length_a                   7.1343(4)
_cell_length_b                   22.4930(10)
_cell_length_c                   9.7835(4)
_cell_angle_alpha                90
_cell_angle_beta                 106.876(5)
_cell_angle_gamma                90
_cell_volume                     1502.37
_exptl_crystal_colour            colorless
_exptl_crystal_description       block
_cell_formula_units_Z            4
loop_
_atom_site_label
_atom_site_type_symbol
_atom_site_fract_x
_atom_site_fract_y
_atom_site_fract_z
O1 O 1.0818(2) 0.82421(7) 0.84418(15)
O2 O 1.1315(2) 0.79755(7) 0.62672(14)
N1 N 0.8019(2) 0.73629(8) 0.56148(15)
H1 H 0.836(3) 0.7523(9) 0.486(2)
N2 N 0.8188(2) 0.71581(7) 0.78543(15)
C1 C 1.0890(3) 0.77795(10) 0.74974(19)
H2 H 1.1925 0.7503 0.7996
C2 C 0.9330(4) 0.86695(12) 0.7872(3)
H3 H 0.9569 0.8859 0.7060
H4 H 0.9338 0.8963 0.8587
H5 H 0.8078 0.8476 0.7585
C3 C 1.3273(4) 0.81779(13) 0.6519(3)
H6 H 1.3531 0.8248 0.5623
H7 H 1.4161 0.7882 0.7048
H8 H 1.3449 0.8541 0.7058
C4 C 0.9023(3) 0.74391(9) 0.70041(17)
C5 C 0.6455(3) 0.70124(9) 0.55780(19)
H9 H 0.5500 0.6884 0.4766
C6 C 0.6554(3) 0.68843(8) 0.69643(18)
C7 C 0.5243(3) 0.65141(9) 0.75170(19)
C8 C 0.5963(3) 0.61962(9) 0.8787(2)
H10 H 0.7282 0.6224 0.9296
C9 C 0.4738(3) 0.58414(10) 0.9297(2)
H11 H 0.5251 0.5630 1.0140
C10 C 0.2757(3) 0.57921(10) 0.8581(2)
C11 C 0.2040(3) 0.61126(11) 0.7325(2)
H12 H 0.0715 0.6090 0.6831
C12 C 0.3258(3) 0.64663(10) 0.6794(2)
H13 H 0.2743 0.6674 0.5945
C13 C 0.1406(4) 0.54248(13) 0.9168(3)
H14 H 0.0546 0.5198 0.8410
H15 H 0.0644 0.5682 0.9582
H16 H 0.2164 0.5160 0.9887
Cl1? Cl 0.7380(6) 0.9834(2) 1.0377(7)
Cl2? Cl 0.4369(12) 1.03526(19) 1.1120(7)
Cl3? Cl 0.3640(10) 0.9696(2) 0.8713(4)
C14? C 0.5216(13) 1.0160(3) 0.9642(9)
H17? H 0.535(3) 1.0531(7) 0.921(2)
loop_
_geom_bond_atom_site_label_1
_geom_bond_atom_site_label_2
_geom_bond_site_symmetry_1
_geom_bond_site_symmetry_2
O1 C1 1_555 1_555
O2 C1 1_555 1_555
N1 H1 1_555 1_555
N2 C4 1_555 1_555
C1 H2 1_555 1_555
C2 O1 1_555 1_555
H3 C2 1_555 1_555
H4 C2 1_555 1_555
H5 C2 1_555 1_555
C3 O2 1_555 1_555
H6 C3 1_555 1_555
H7 C3 1_555 1_555
H8 C3 1_555 1_555
C4 N1 1_555 1_555
C5 N1 1_555 1_555
H9 C5 1_555 1_555
C6 N2 1_555 1_555
C7 C6 1_555 1_555
C8 C7 1_555 1_555
H10 C8 1_555 1_555
C9 C8 1_555 1_555
H11 C9 1_555 1_555
C10 C9 1_555 1_555
C11 C10 1_555 1_555
H12 C11 1_555 1_555
C12 C7 1_555 1_555
H13 C12 1_555 1_555
C13 C10 1_555 1_555
H14 C13 1_555 1_555
H15 C13 1_555 1_555
H16 C13 1_555 1_555
C1 C4 1_555 1_555
C5 C6 1_555 1_555
C11 C12 1_555 1_555

#END
