
#######################################################################
#
#                 Cambridge Crystallographic Data Centre
#                                CCDC 
#
#######################################################################
#
# If this CIF has been generated from an entry in the Cambridge 
# Structural Database, then it will include bibliographic, chemical, 
# crystal, experimental, refinement or atomic coordinate data resulting 
# from the CCDC's data processing and validation procedures.
#
#######################################################################

data_QISTIX
_chemical_formula_moiety         'C21 H33 N3 O1 S4'
_chemical_name_systematic        
'((4-Formylphenyl)imino)diethane-2,1-diyl bis(diethylcarbamodithioate)'
_symmetry_cell_setting           monoclinic
_symmetry_space_group_name_H-M   'P 21/n'
_symmetry_Int_Tables_number      14
_space_group_name_Hall           '-P 2yn'
loop_
_symmetry_equiv_pos_site_id
_symmetry_equiv_pos_as_xyz
1 x,y,z
2 1/2-x,1/2+y,1/2-z
3 -x,-y,-z
4 1/2+x,1/2-y,1/2+z
_cell_length_a                   10.9079(16)
_cell_length_b                   18.507(3)
_cell_length_c                   13.192(2)
_cell_angle_alpha                90
_cell_angle_beta                 106.237(2)
_cell_angle_gamma                90
_cell_volume                     2556.88
_cell_formula_units_Z            4
loop_
_atom_site_label
_atom_site_type_symbol
_atom_site_fract_x
_atom_site_fract_y
_atom_site_fract_z
C1 C 0.2599(7) 1.2362(5) -0.1742(7)
H1 H 0.2392 1.2740 -0.1355
C2 C 0.3688(5) 1.1889(4) -0.1266(6)
C3 C 0.3942(6) 1.1233(4) -0.1675(5)
H2 H 0.3365 1.1062 -0.2287
C4 C 0.4992(5) 1.0828(4) -0.1224(5)
H3 H 0.5124 1.0392 -0.1528
C5 C 0.5872(6) 1.1071(3) -0.0301(5)
C6 C 0.5620(6) 1.1738(3) 0.0142(5)
H4 H 0.6187 1.1913 0.0757
C7 C 0.4552(6) 1.2116(4) -0.0337(6)
H5 H 0.4392 1.2544 -0.0030
C8 C 0.7139(6) 0.9945(3) -0.0147(5)
H6 H 0.6308 0.9716 -0.0392
H7 H 0.7633 0.9679 0.0465
C9 C 0.7791(7) 0.9898(3) -0.0990(6)
H8 H 0.8527 1.0216 -0.0818
H9 H 0.7213 1.0062 -0.1651
C10 C 0.6892(5) 0.8567(4) -0.1926(5)
C11 C 0.8096(10) 0.7429(6) -0.1337(8)
H10 H 0.7792 0.6998 -0.1066
H11 H 0.8597 0.7711 -0.0746
C12 C 0.8882(12) 0.7231(8) -0.2058(11)
H12 H 0.8601 0.6774 -0.2385
H13 H 0.9764 0.7198 -0.1660
H14 H 0.8787 0.7595 -0.2593
C13 C 0.5977(8) 0.7397(5) -0.2561(7)
H15 H 0.5177 0.7658 -0.2687
H16 H 0.5924 0.6971 -0.2148
C14 C 0.6170(12) 0.7172(7) -0.3597(8)
H17 H 0.6134 0.7590 -0.4036
H18 H 0.5512 0.6838 -0.3942
H19 H 0.6989 0.6944 -0.3477
C15 C 0.8019(6) 1.0977(4) 0.1016(5)
H20 H 0.8068 1.1497 0.0938
H21 H 0.8821 1.0768 0.0979
C16 C 0.7794(5) 1.0799(4) 0.2085(5)
H22 H 0.7628 1.0286 0.2125
H23 H 0.7056 1.1062 0.2163
C17 C 1.0192(6) 1.0286(4) 0.3278(5)
C18 C 1.1502(15) 1.0928(9) 0.4848(14)
H24 H 1.1311 1.0724 0.5464
H25 H 1.0925 1.1329 0.4595
C19 C 1.2869(18) 1.1187(15) 0.513(2)
H26 H 1.3433 1.0780 0.5327
H27 H 1.3017 1.1517 0.5715
H28 H 1.3026 1.1426 0.4536
C20 C 1.2417(14) 0.9882(9) 0.4014(11)
H29 H 1.2990 1.0120 0.3674
H30 H 1.2098 0.9446 0.3620
C21 C 1.3126(17) 0.9690(10) 0.5122(12)
H31 H 1.3669 1.0085 0.5439
H32 H 1.3637 0.9267 0.5119
H33 H 1.2529 0.9593 0.5519
N1 N 0.6970(5) 1.0686(3) 0.0167(4)
N2 N 0.7018(5) 0.7855(4) -0.1968(6)
N3 N 1.1339(7) 1.0367(4) 0.4005(7)
O1 O 0.1957(7) 1.2252(4) -0.2667(7)
S1 S 0.55908(16) 0.89994(11) -0.25174(16)
S2 S 0.83061(15) 0.89885(10) -0.1155(2)
S3 S 0.97934(18) 0.95395(10) 0.25606(16)
S4 S 0.92042(17) 1.10508(9) 0.31366(15)
C22? C 1.1892(15) 1.1099(6) 0.4285(11)
H34? H 1.1241 1.1469 0.4086
H35? H 1.2557 1.1198 0.3946
C23? C 1.244(3) 1.1056(13) 0.5480(12)
H36? H 1.1811 1.0850 0.5782
H37? H 1.2656 1.1532 0.5760
H38? H 1.3187 1.0758 0.5651
C24? C 1.2226(17) 0.9862(8) 0.4714(15)
H39? H 1.2614 0.9551 0.4298
H40? H 1.1751 0.9559 0.5071
C25? C 1.3288(17) 1.0268(12) 0.5547(14)
H41? H 1.3754 1.0572 0.5195
H42? H 1.3860 0.9924 0.5980
H43? H 1.2909 1.0559 0.5980
loop_
_geom_bond_atom_site_label_1
_geom_bond_atom_site_label_2
_geom_bond_site_symmetry_1
_geom_bond_site_symmetry_2
C1 H1 1_555 1_555
C2 C1 1_555 1_555
C3 C2 1_555 1_555
H2 C3 1_555 1_555
C4 C3 1_555 1_555
H3 C4 1_555 1_555
C5 C4 1_555 1_555
C6 C5 1_555 1_555
H4 C6 1_555 1_555
C7 C2 1_555 1_555
H5 C7 1_555 1_555
C8 H6 1_555 1_555
H7 C8 1_555 1_555
C9 C8 1_555 1_555
H8 C9 1_555 1_555
H9 C9 1_555 1_555
C10 N2 1_555 1_555
C11 H10 1_555 1_555
H11 C11 1_555 1_555
C12 C11 1_555 1_555
H12 C12 1_555 1_555
H13 C12 1_555 1_555
H14 C12 1_555 1_555
C13 H15 1_555 1_555
H16 C13 1_555 1_555
C14 C13 1_555 1_555
H17 C14 1_555 1_555
H18 C14 1_555 1_555
H19 C14 1_555 1_555
C15 H20 1_555 1_555
H21 C15 1_555 1_555
C16 C15 1_555 1_555
H22 C16 1_555 1_555
H23 C16 1_555 1_555
C17 N3 1_555 1_555
C18 H24 1_555 1_555
H25 C18 1_555 1_555
C19 C18 1_555 1_555
H26 C19 1_555 1_555
H27 C19 1_555 1_555
H28 C19 1_555 1_555
C20 H29 1_555 1_555
H30 C20 1_555 1_555
C21 C20 1_555 1_555
H31 C21 1_555 1_555
H32 C21 1_555 1_555
H33 C21 1_555 1_555
N1 C5 1_555 1_555
N2 C11 1_555 1_555
N3 C18 1_555 1_555
O1 C1 1_555 1_555
S1 C10 1_555 1_555
S2 C9 1_555 1_555
S3 C17 1_555 1_555
S4 C16 1_555 1_555
C6 C7 1_555 1_555
C8 N1 1_555 1_555
C10 S2 1_555 1_555
C13 N2 1_555 1_555
C15 N1 1_555 1_555
C17 S4 1_555 1_555
C20 N3 1_555 1_555

#END
