
#######################################################################
#
#                 Cambridge Crystallographic Data Centre
#                                CCDC 
#
#######################################################################
#
# If this CIF has been generated from an entry in the Cambridge 
# Structural Database, then it will include bibliographic, chemical, 
# crystal, experimental, refinement or atomic coordinate data resulting 
# from the CCDC's data processing and validation procedures.
#
#######################################################################

data_QITKUA
_chemical_formula_moiety         'C15 H22 O3 Si1'
_chemical_name_systematic        
'exo,exo-11-Oxo-10-(trimethylsilyl)tricyclo(6.2.1.0^1,6^)undec-6-ene-9-carboxylic acid'
_symmetry_cell_setting           triclinic
_symmetry_space_group_name_H-M   'P -1'
_symmetry_Int_Tables_number      2
_space_group_name_Hall           '-P 1'
loop_
_symmetry_equiv_pos_site_id
_symmetry_equiv_pos_as_xyz
1 x,y,z
2 -x,-y,-z
_cell_length_a                   6.5983(13)
_cell_length_b                   9.3785(19)
_cell_length_c                   13.160(3)
_cell_angle_alpha                75.32(3)
_cell_angle_beta                 83.75(3)
_cell_angle_gamma                73.23(3)
_cell_volume                     753.719
_exptl_crystal_colour            colorless
_exptl_crystal_description       block
_chemical_melting_point          '185.6-186.7 deg.C'
_cell_formula_units_Z            2
loop_
_atom_site_label
_atom_site_type_symbol
_atom_site_fract_x
_atom_site_fract_y
_atom_site_fract_z
Si1 Si 0.39285(9) 0.20993(7) 0.15495(5)
O1 O 0.4454(2) 0.34402(17) 0.44535(12)
O2 O 0.5150(2) 0.01707(18) 0.37645(12)
O3 O 0.2663(3) -0.10321(19) 0.43464(14)
H1 H 0.372(8) -0.184(5) 0.453(4)
C1 C 0.1509(3) 0.1608(2) 0.35904(15)
H2 H 0.0194 0.1338 0.3554
C2 C 0.1889(3) 0.2796(2) 0.25665(15)
H3 H 0.0541 0.3147 0.2212
C3 C 0.1997(3) 0.4207(2) 0.29935(15)
C4 C -0.0232(3) 0.4847(2) 0.34182(17)
C5 C -0.0604(3) 0.3848(3) 0.42703(18)
H4 H -0.1853 0.3969 0.4682
C6 C 0.1296(3) 0.2487(2) 0.44753(16)
H5 H 0.1443 0.1868 0.5199
C7 C 0.2928(3) 0.3355(2) 0.40603(16)
C8 C 0.3014(3) 0.5410(2) 0.23392(17)
H6 H 0.4130 0.4941 0.1887
H7 H 0.3657 0.5798 0.2802
C9 C 0.1438(4) 0.6740(3) 0.1665(2)
H8 H 0.2149 0.7507 0.1297
H9 H 0.0920 0.6377 0.1144
C10 C -0.0411(4) 0.7460(3) 0.2321(2)
H10 H 0.0102 0.7807 0.2853
H11 H -0.1337 0.8343 0.1877
C11 C -0.1630(4) 0.6320(3) 0.2842(2)
H12 H -0.2694 0.6754 0.3330
H13 H -0.2357 0.6122 0.2312
C12 C 0.3298(4) 0.0189(2) 0.38816(16)
C13 C 0.6736(4) 0.1999(3) 0.1733(2)
H14 H 0.7193 0.1309 0.2392
H15 H 0.6841 0.2999 0.1731
H16 H 0.7618 0.1636 0.1171
C14 C 0.3624(4) 0.0219(3) 0.1455(2)
H17 H 0.2163 0.0319 0.1360
H18 H 0.4084 -0.0536 0.2089
H19 H 0.4469 -0.0092 0.0867
C15 C 0.3108(4) 0.3454(3) 0.02650(18)
H20 H 0.1669 0.3518 0.0150
H21 H 0.4015 0.3093 -0.0291
H22 H 0.3218 0.4450 0.0274
loop_
_geom_bond_atom_site_label_1
_geom_bond_atom_site_label_2
_geom_bond_site_symmetry_1
_geom_bond_site_symmetry_2
Si1 C2 1_555 1_555
O1 C7 1_555 1_555
O2 C12 1_555 1_555
O3 H1 1_555 1_555
C1 H2 1_555 1_555
C2 C1 1_555 1_555
H3 C2 1_555 1_555
C3 C2 1_555 1_555
C4 C3 1_555 1_555
C5 C4 1_555 1_555
H4 C5 1_555 1_555
C6 C1 1_555 1_555
H5 C6 1_555 1_555
C7 C3 1_555 1_555
C8 C3 1_555 1_555
H6 C8 1_555 1_555
H7 C8 1_555 1_555
C9 C8 1_555 1_555
H8 C9 1_555 1_555
H9 C9 1_555 1_555
C10 C9 1_555 1_555
H10 C10 1_555 1_555
H11 C10 1_555 1_555
C11 C4 1_555 1_555
H12 C11 1_555 1_555
H13 C11 1_555 1_555
C12 O3 1_555 1_555
C13 Si1 1_555 1_555
H14 C13 1_555 1_555
H15 C13 1_555 1_555
H16 C13 1_555 1_555
C14 Si1 1_555 1_555
H17 C14 1_555 1_555
H18 C14 1_555 1_555
H19 C14 1_555 1_555
C15 Si1 1_555 1_555
H20 C15 1_555 1_555
H21 C15 1_555 1_555
H22 C15 1_555 1_555
C1 C12 1_555 1_555
C5 C6 1_555 1_555
C6 C7 1_555 1_555
C10 C11 1_555 1_555

#END
