
#######################################################################
#
#                 Cambridge Crystallographic Data Centre
#                                CCDC 
#
#######################################################################
#
# If this CIF has been generated from an entry in the Cambridge 
# Structural Database, then it will include bibliographic, chemical, 
# crystal, experimental, refinement or atomic coordinate data resulting 
# from the CCDC's data processing and validation procedures.
#
#######################################################################

data_QIWDUW
_chemical_formula_moiety         'C22 H24 Cl1 N1 O3'
_chemical_name_systematic        
N-t-Butoxycarbonyl-4-(2-chlorophenyl)-3-ethyl-3-phenylazetan-2-one
_symmetry_cell_setting           monoclinic
_symmetry_space_group_name_H-M   'P 21'
_symmetry_Int_Tables_number      4
_space_group_name_Hall           'P 2yb'
loop_
_symmetry_equiv_pos_site_id
_symmetry_equiv_pos_as_xyz
1 x,y,z
2 -x,1/2+y,-z
_cell_length_a                   8.0530(16)
_cell_length_b                   13.987(3)
_cell_length_c                   9.3010(19)
_cell_angle_alpha                90
_cell_angle_beta                 95.53(3)
_cell_angle_gamma                90
_cell_volume                     1042.76
_exptl_crystal_colour            colorless
_chemical_melting_point          '92-94 deg.C'
_cell_formula_units_Z            2
_exptl_crystal_recrystallization_method n-hexane/isopropanol
loop_
_atom_site_label
_atom_site_type_symbol
_atom_site_fract_x
_atom_site_fract_y
_atom_site_fract_z
Cl1 Cl 0.30309(9) 0.38260(4) 0.45056(7)
O1 O 0.12082(19) -0.02173(11) 0.22945(18)
O2 O 0.5706(2) 0.13380(11) 0.15570(18)
O3 O 0.44459(17) -0.00952(10) 0.10785(15)
N1 N 0.3355(2) 0.09305(12) 0.25439(18)
C1 C 0.1353(3) 0.17090(18) 0.6385(2)
H1 H 0.1461 0.2350 0.6145
C2 C 0.1248(3) 0.1455(2) 0.7816(3)
H2 H 0.1306 0.1925 0.8528
C3 C 0.1058(4) 0.0516(3) 0.8185(3)
H3 H 0.0981 0.0345 0.9143
C4 C 0.0983(4) -0.0166(2) 0.7130(3)
H4 H 0.0839 -0.0803 0.7377
C5 C 0.1117(3) 0.00736(17) 0.5695(3)
H5 H 0.1083 -0.0402 0.4994
C6 C 0.1301(2) 0.10248(14) 0.5314(2)
C7 C 0.1374(2) 0.13177(13) 0.3750(2)
C8 C 0.1846(2) 0.04943(14) 0.2761(2)
C9 C 0.3065(2) 0.18012(13) 0.3370(2)
H6 H 0.2831 0.2345 0.2718
C10 C 0.5585(2) 0.13908(16) 0.5083(2)
H7 H 0.5522 0.0764 0.4750
C11 C 0.6854(3) 0.1648(2) 0.6111(3)
H8 H 0.7641 0.1196 0.6457
C12 C 0.6963(3) 0.2569(2) 0.6628(3)
H9 H 0.7824 0.2740 0.7318
C13 C 0.5794(3) 0.32358(19) 0.6122(3)
H10 H 0.5851 0.3858 0.6475
C14 C 0.4537(3) 0.29714(14) 0.5085(2)
C15 C 0.4400(2) 0.20485(13) 0.4534(2)
C16 C -0.0223(3) 0.18344(16) 0.3168(2)
H11 H -0.1165 0.1426 0.3314
H12 H -0.0331 0.2408 0.3736
C17 C -0.0336(3) 0.2116(2) 0.1581(3)
H13 H -0.1377 0.2436 0.1322
H14 H -0.0273 0.1553 0.0999
H15 H 0.0570 0.2537 0.1422
C18 C 0.4638(2) 0.07623(13) 0.1664(2)
C19 C 0.5714(3) -0.04803(18) 0.0177(3)
C20 C 0.4932(5) -0.1423(2) -0.0316(4)
H16 H 0.3923 -0.1304 -0.0928
H17 H 0.4678 -0.1786 0.0511
H18 H 0.5697 -0.1775 -0.0843
C21 C 0.7309(4) -0.0627(3) 0.1132(4)
H19 H 0.7778 -0.0018 0.1417
H20 H 0.8085 -0.0977 0.0613
H21 H 0.7081 -0.0981 0.1975
C22 C 0.5905(5) 0.0181(3) -0.1080(3)
H22 H 0.4852 0.0242 -0.1652
H23 H 0.6718 -0.0077 -0.1663
H24 H 0.6265 0.0798 -0.0723
loop_
_geom_bond_atom_site_label_1
_geom_bond_atom_site_label_2
_geom_bond_site_symmetry_1
_geom_bond_site_symmetry_2
Cl1 C14 1_555 1_555
O1 C8 1_555 1_555
O2 C18 1_555 1_555
O3 C18 1_555 1_555
N1 C8 1_555 1_555
C1 H1 1_555 1_555
C2 C1 1_555 1_555
H2 C2 1_555 1_555
C3 C2 1_555 1_555
H3 C3 1_555 1_555
C4 C3 1_555 1_555
H4 C4 1_555 1_555
C5 C4 1_555 1_555
H5 C5 1_555 1_555
C6 C1 1_555 1_555
C7 C6 1_555 1_555
C8 C7 1_555 1_555
C9 N1 1_555 1_555
H6 C9 1_555 1_555
C10 H7 1_555 1_555
C11 C10 1_555 1_555
H8 C11 1_555 1_555
C12 C11 1_555 1_555
H9 C12 1_555 1_555
C13 C12 1_555 1_555
H10 C13 1_555 1_555
C14 C13 1_555 1_555
C15 C9 1_555 1_555
C16 C7 1_555 1_555
H11 C16 1_555 1_555
H12 C16 1_555 1_555
C17 C16 1_555 1_555
H13 C17 1_555 1_555
H14 C17 1_555 1_555
H15 C17 1_555 1_555
C18 N1 1_555 1_555
C19 O3 1_555 1_555
C20 C19 1_555 1_555
H16 C20 1_555 1_555
H17 C20 1_555 1_555
H18 C20 1_555 1_555
C21 C19 1_555 1_555
H19 C21 1_555 1_555
H20 C21 1_555 1_555
H21 C21 1_555 1_555
C22 C19 1_555 1_555
H22 C22 1_555 1_555
H23 C22 1_555 1_555
H24 C22 1_555 1_555
C5 C6 1_555 1_555
C7 C9 1_555 1_555
C10 C15 1_555 1_555
C14 C15 1_555 1_555

#END
