
#######################################################################
#
#                 Cambridge Crystallographic Data Centre
#                                CCDC 
#
#######################################################################
#
# If this CIF has been generated from an entry in the Cambridge 
# Structural Database, then it will include bibliographic, chemical, 
# crystal, experimental, refinement or atomic coordinate data resulting 
# from the CCDC's data processing and validation procedures.
#
#######################################################################

data_QIWPAP
_chemical_formula_moiety         'C20 H18 N2 O4 S1'
_chemical_name_systematic        
'ethyl 2-amino-4-(4-methylphenyl)-5-(4-nitrophenyl)thiophene-3-carboxylate'
_symmetry_cell_setting           monoclinic
_symmetry_space_group_name_H-M   'P 21/c'
_symmetry_Int_Tables_number      14
_space_group_name_Hall           '-P 2ybc'
loop_
_symmetry_equiv_pos_site_id
_symmetry_equiv_pos_as_xyz
1 x,y,z
2 -x,1/2+y,1/2-z
3 -x,-y,-z
4 x,1/2-y,1/2+z
_cell_length_a                   5.7628(18)
_cell_length_b                   13.483(4)
_cell_length_c                   25.240(8)
_cell_angle_alpha                90
_cell_angle_beta                 97.412(8)
_cell_angle_gamma                90
_cell_volume                     1944.76
_cell_formula_units_Z            4
loop_
_atom_site_label
_atom_site_type_symbol
_atom_site_fract_x
_atom_site_fract_y
_atom_site_fract_z
C1 C 1.2313(9) 0.6236(4) 0.14159(19)
H1 H 1.3726 0.6413 0.1614
C2 C 1.2065(11) 0.5308(4) 0.1159(2)
H2 H 1.3333 0.4875 0.1188
C3 C 0.9985(13) 0.5025(4) 0.0865(2)
C4 C 0.9737(13) 0.4005(4) 0.0593(3)
H3 H 0.9015 0.3551 0.0815
H4 H 1.1257 0.3762 0.0541
H5 H 0.8785 0.4065 0.0254
C5 C 0.8139(11) 0.5682(4) 0.0830(2)
H6 H 0.6724 0.5506 0.0633
C6 C 0.8333(10) 0.6591(4) 0.1080(2)
H7 H 0.7048 0.7014 0.1054
C7 C 1.0433(9) 0.6880(3) 0.13703(17)
C8 C 1.0706(8) 0.7887(3) 0.16156(17)
C9 C 0.9495(9) 0.8208(3) 0.20513(17)
C10 C 0.8163(10) 0.7548(4) 0.23498(19)
C11 C 0.5284(12) 0.7369(5) 0.2965(2)
H8 H 0.4287 0.6962 0.2714
H9 H 0.6244 0.6934 0.3209
C12 C 0.3866(12) 0.7995(4) 0.3259(2)
H10 H 0.3172 0.8513 0.3030
H11 H 0.4829 0.8284 0.3559
H12 H 0.2654 0.7605 0.3385
C13 C 0.9981(9) 0.9192(4) 0.21910(18)
C14 C 1.2041(8) 0.8610(3) 0.14298(18)
C15 C 1.3400(9) 0.8609(3) 0.09771(18)
C16 C 1.2650(9) 0.8069(3) 0.05097(19)
H13 H 1.1303 0.7684 0.0491
C17 C 1.3887(10) 0.8105(3) 0.0083(2)
H14 H 1.3377 0.7743 -0.0224
C18 C 1.5857(9) 0.8666(4) 0.01037(19)
C19 C 1.6656(9) 0.9220(3) 0.0548(2)
H15 H 1.7998 0.9606 0.0556
C20 C 1.5416(9) 0.9191(3) 0.09806(19)
H16 H 1.5933 0.9566 0.1282
N1 N 0.9204(8) 0.9761(3) 0.25726(16)
H17 H 0.8271 0.9516 0.2778
H18 H 0.9652 1.0368 0.2611
N2 N 1.7147(10) 0.8689(4) -0.0367(2)
O1 O 0.6814(7) 0.8016(2) 0.26711(14)
O2 O 0.8144(7) 0.6644(3) 0.23191(14)
O3 O 1.8827(8) 0.9220(4) -0.03527(16)
O4 O 1.6423(10) 0.8191(4) -0.0750(2)
S1 S 1.1902(3) 0.97136(9) 0.17942(5)
loop_
_geom_bond_atom_site_label_1
_geom_bond_atom_site_label_2
_geom_bond_site_symmetry_1
_geom_bond_site_symmetry_2
C1 H1 1_555 1_555
C2 C1 1_555 1_555
H2 C2 1_555 1_555
C3 C2 1_555 1_555
C4 C3 1_555 1_555
H3 C4 1_555 1_555
H4 C4 1_555 1_555
H5 C4 1_555 1_555
C5 C3 1_555 1_555
H6 C5 1_555 1_555
C6 C5 1_555 1_555
H7 C6 1_555 1_555
C7 C1 1_555 1_555
C8 C7 1_555 1_555
C9 C8 1_555 1_555
C10 C9 1_555 1_555
C11 H8 1_555 1_555
H9 C11 1_555 1_555
C12 C11 1_555 1_555
H10 C12 1_555 1_555
H11 C12 1_555 1_555
H12 C12 1_555 1_555
C13 C9 1_555 1_555
C14 C8 1_555 1_555
C15 C14 1_555 1_555
C16 C15 1_555 1_555
H13 C16 1_555 1_555
C17 C16 1_555 1_555
H14 C17 1_555 1_555
C18 C17 1_555 1_555
C19 C18 1_555 1_555
H15 C19 1_555 1_555
C20 C15 1_555 1_555
H16 C20 1_555 1_555
N1 C13 1_555 1_555
H17 N1 1_555 1_555
H18 N1 1_555 1_555
N2 C18 1_555 1_555
O1 C10 1_555 1_555
O2 C10 1_555 1_555
O3 N2 1_555 1_555
O4 N2 1_555 1_555
S1 C13 1_555 1_555
C6 C7 1_555 1_555
C11 O1 1_555 1_555
C14 S1 1_555 1_555
C19 C20 1_555 1_555

#END
