
#######################################################################
#
#                 Cambridge Crystallographic Data Centre
#                                CCDC 
#
#######################################################################
#
# If this CIF has been generated from an entry in the Cambridge 
# Structural Database, then it will include bibliographic, chemical, 
# crystal, experimental, refinement or atomic coordinate data resulting 
# from the CCDC's data processing and validation procedures.
#
#######################################################################

data_QIXHUC
_chemical_formula_moiety         'C20 H23 Br1 N2 O2'
_chemical_name_systematic        
4-bromo-N-(1-(1-hydroxybutan-2-yl)-3,4-dihydroisoquinolin-2(1H)-yl)benzamide
_symmetry_cell_setting           monoclinic
_symmetry_space_group_name_H-M   'P 21'
_symmetry_Int_Tables_number      4
_space_group_name_Hall           'P 2yb'
loop_
_symmetry_equiv_pos_site_id
_symmetry_equiv_pos_as_xyz
1 x,y,z
2 -x,1/2+y,-z
_cell_length_a                   6.4470(9)
_cell_length_b                   36.801(5)
_cell_length_c                   7.6513(11)
_cell_angle_alpha                90
_cell_angle_beta                 92.539(3)
_cell_angle_gamma                90
_cell_volume                     1813.54
_exptl_crystal_colour            colorless
_exptl_crystal_description       BLOCK
_cell_formula_units_Z            4
loop_
_atom_site_label
_atom_site_type_symbol
_atom_site_fract_x
_atom_site_fract_y
_atom_site_fract_z
Br1 Br 1.46789(6) 0.653903(8) 0.31755(5)
O1 O 0.4695(3) 0.46227(7) 0.3098(3)
H1 H 0.5724 0.4750 0.2857
O2 O 0.7571(3) 0.51567(6) 0.2539(3)
N1 N 0.9384(4) 0.44877(7) 0.3009(3)
N2 N 1.0472(5) 0.48214(8) 0.3147(4)
H2 H 1.177(6) 0.4817(9) 0.317(4)
C1 C 0.8938(5) 0.37176(9) 0.3133(4)
C2 C 0.8820(5) 0.33384(9) 0.3170(4)
H3 H 0.8563 0.3208 0.2110
C3 C 0.9075(5) 0.31493(9) 0.4741(5)
H4 H 0.8931 0.2892 0.4762
C4 C 0.9542(5) 0.33387(9) 0.6275(5)
H5 H 0.9771 0.3211 0.7346
C5 C 0.9672(5) 0.37139(9) 0.6243(4)
H6 H 1.0025 0.3842 0.7293
C6 C 0.9294(4) 0.39063(9) 0.4697(4)
C7 C 0.9251(5) 0.43212(8) 0.4763(4)
H7 H 1.0461 0.4406 0.5517
C8 C 1.0262(5) 0.42607(10) 0.1663(4)
H8 H 1.1695 0.4187 0.2023
H9 H 1.0302 0.4396 0.0547
C9 C 0.8876(5) 0.39275(9) 0.1441(4)
H10 H 0.7433 0.4003 0.1130
H11 H 0.9370 0.3772 0.0488
C10 C 0.7232(5) 0.44694(8) 0.5529(4)
H12 H 0.7326 0.4740 0.5478
C11 C 0.6975(5) 0.43716(9) 0.7450(4)
H13 H 0.6557 0.4113 0.7525
H14 H 0.8333 0.4398 0.8093
C12 C 0.5371(6) 0.46052(10) 0.8341(5)
H15 H 0.5774 0.4861 0.8278
H16 H 0.5305 0.4532 0.9570
H17 H 0.4006 0.4571 0.7748
C13 C 0.5303(5) 0.43626(9) 0.4394(4)
H18 H 0.5581 0.4129 0.3809
H19 H 0.4131 0.4324 0.5166
C14 C 0.9452(5) 0.51347(9) 0.2855(4)
C15 C 1.0784(5) 0.54728(9) 0.2975(4)
C16 C 1.2811(5) 0.54743(9) 0.3683(4)
H20 H 1.3410 0.5255 0.4125
C17 C 1.3965(5) 0.57928(9) 0.3749(5)
H21 H 1.5344 0.5795 0.4242
C18 C 1.3064(5) 0.61050(9) 0.3083(4)
C19 C 1.1068(6) 0.61131(9) 0.2367(5)
H22 H 1.0491 0.6332 0.1903
C20 C 0.9920(5) 0.57953(9) 0.2337(5)
H23 H 0.8527 0.5798 0.1876
Br2 Br 0.98438(6) 0.021567(9) 0.18795(5)
O3 O -0.0354(4) 0.20825(7) 0.0948(3)
H24 H 0.0697 0.1978 0.1399
O4 O 0.2566(3) 0.15729(7) 0.1979(3)
N3 N 0.4364(4) 0.22424(7) 0.1487(3)
N4 N 0.5440(4) 0.19082(8) 0.1474(4)
H25 H 0.670(6) 0.1929(10) 0.129(5)
C21 C 0.3917(5) 0.30102(9) 0.1245(4)
C22 C 0.3773(5) 0.33870(9) 0.1173(5)
H26 H 0.3489 0.3520 0.2200
C23 C 0.4042(5) 0.35706(9) -0.0385(5)
H27 H 0.3881 0.3827 -0.0437
C24 C 0.4543(5) 0.33792(10) -0.1855(4)
H28 H 0.4801 0.3505 -0.2907
C25 C 0.4673(5) 0.30037(9) -0.1803(4)
H29 H 0.5034 0.2874 -0.2818
C26 C 0.4277(4) 0.28154(9) -0.0275(4)
C27 C 0.4233(5) 0.23997(8) -0.0298(4)
H30 H 0.5453 0.2312 -0.0941
C28 C 0.5267(5) 0.24795(9) 0.2854(4)
H31 H 0.6687 0.2553 0.2563
H32 H 0.5346 0.2350 0.3990
C29 C 0.3881(5) 0.28104(9) 0.2962(4)
H33 H 0.2445 0.2735 0.3192
H34 H 0.4390 0.2971 0.3928
C30 C 0.2232(5) 0.22437(8) -0.1220(4)
H35 H 0.2352 0.1973 -0.1146
C31 C 0.2018(5) 0.23370(9) -0.3173(4)
H36 H 0.3391 0.2310 -0.3688
H37 H 0.1598 0.2595 -0.3299
C32 C 0.0439(6) 0.21000(10) -0.4207(5)
H38 H 0.0904 0.1846 -0.4175
H39 H 0.0320 0.2184 -0.5423
H40 H -0.0917 0.2118 -0.3682
C33 C 0.0278(5) 0.23461(8) -0.0265(4)
H41 H 0.0535 0.2578 0.0363
H42 H -0.0872 0.2387 -0.1143
C34 C 0.4449(5) 0.15953(9) 0.1787(4)
C35 C 0.5812(5) 0.12660(9) 0.1836(4)
C36 C 0.7858(5) 0.12734(9) 0.2499(4)
H43 H 0.8439 0.1494 0.2936
C37 C 0.9051(5) 0.09594(9) 0.2524(4)
H44 H 1.0442 0.0962 0.2988
C38 C 0.8175(5) 0.06427(8) 0.1859(4)
C39 C 0.6159(5) 0.06289(9) 0.1187(4)
H45 H 0.5599 0.0409 0.0720
C40 C 0.4968(5) 0.09393(9) 0.1202(5)
H46 H 0.3561 0.0931 0.0777
loop_
_geom_bond_atom_site_label_1
_geom_bond_atom_site_label_2
_geom_bond_site_symmetry_1
_geom_bond_site_symmetry_2
Br1 C18 1_555 1_555
O1 H1 1_555 1_555
O2 C14 1_555 1_555
N1 N2 1_555 1_555
N2 H2 1_555 1_555
C1 C2 1_555 1_555
C2 H3 1_555 1_555
C3 C2 1_555 1_555
H4 C3 1_555 1_555
C4 C3 1_555 1_555
H5 C4 1_555 1_555
C5 C4 1_555 1_555
H6 C5 1_555 1_555
C6 C1 1_555 1_555
C7 N1 1_555 1_555
H7 C7 1_555 1_555
C8 N1 1_555 1_555
H8 C8 1_555 1_555
H9 C8 1_555 1_555
C9 C1 1_555 1_555
H10 C9 1_555 1_555
H11 C9 1_555 1_555
C10 C7 1_555 1_555
H12 C10 1_555 1_555
C11 C10 1_555 1_555
H13 C11 1_555 1_555
H14 C11 1_555 1_555
C12 C11 1_555 1_555
H15 C12 1_555 1_555
H16 C12 1_555 1_555
H17 C12 1_555 1_555
C13 O1 1_555 1_555
H18 C13 1_555 1_555
H19 C13 1_555 1_555
C14 N2 1_555 1_555
C15 C14 1_555 1_555
C16 C15 1_555 1_555
H20 C16 1_555 1_555
C17 C16 1_555 1_555
H21 C17 1_555 1_555
C18 C17 1_555 1_555
C19 C18 1_555 1_555
H22 C19 1_555 1_555
C20 C15 1_555 1_555
H23 C20 1_555 1_555
Br2 C38 1_555 1_555
O3 H24 1_555 1_555
O4 C34 1_555 1_555
N3 N4 1_555 1_555
N4 H25 1_555 1_555
C21 C22 1_555 1_555
C22 H26 1_555 1_555
C23 C22 1_555 1_555
H27 C23 1_555 1_555
C24 C23 1_555 1_555
H28 C24 1_555 1_555
C25 C24 1_555 1_555
H29 C25 1_555 1_555
C26 C21 1_555 1_555
C27 N3 1_555 1_555
H30 C27 1_555 1_555
C28 N3 1_555 1_555
H31 C28 1_555 1_555
H32 C28 1_555 1_555
C29 C21 1_555 1_555
H33 C29 1_555 1_555
H34 C29 1_555 1_555
C30 C27 1_555 1_555
H35 C30 1_555 1_555
C31 C30 1_555 1_555
H36 C31 1_555 1_555
H37 C31 1_555 1_555
C32 C31 1_555 1_555
H38 C32 1_555 1_555
H39 C32 1_555 1_555
H40 C32 1_555 1_555
C33 O3 1_555 1_555
H41 C33 1_555 1_555
H42 C33 1_555 1_555
C34 N4 1_555 1_555
C35 C34 1_555 1_555
C36 C35 1_555 1_555
H43 C36 1_555 1_555
C37 C36 1_555 1_555
H44 C37 1_555 1_555
C38 C37 1_555 1_555
C39 C38 1_555 1_555
H45 C39 1_555 1_555
C40 C35 1_555 1_555
H46 C40 1_555 1_555
C5 C6 1_555 1_555
C6 C7 1_555 1_555
C8 C9 1_555 1_555
C10 C13 1_555 1_555
C19 C20 1_555 1_555
C25 C26 1_555 1_555
C26 C27 1_555 1_555
C28 C29 1_555 1_555
C30 C33 1_555 1_555
C39 C40 1_555 1_555

#END
