
#######################################################################
#
#                 Cambridge Crystallographic Data Centre
#                                CCDC 
#
#######################################################################
#
# If this CIF has been generated from an entry in the Cambridge 
# Structural Database, then it will include bibliographic, chemical, 
# crystal, experimental, refinement or atomic coordinate data resulting 
# from the CCDC's data processing and validation procedures.
#
#######################################################################

data_QIXQEV
_chemical_formula_moiety         'C34 H31 Cl1 I1 N1 O6 S1'
_chemical_name_systematic        
'diethyl (10-chloro-6-cyclopropyl-7-iodo-5-((4-methylphenyl)sulfonyl)-5,12-dihydrobenzo[4,5]cyclohepta[1,2-b]indol-12-yl)malonate'
_symmetry_cell_setting           triclinic
_symmetry_space_group_name_H-M   'P -1'
_symmetry_Int_Tables_number      2
_space_group_name_Hall           '-P 1'
loop_
_symmetry_equiv_pos_site_id
_symmetry_equiv_pos_as_xyz
1 x,y,z
2 -x,-y,-z
_cell_length_a                   8.380(3)
_cell_length_b                   9.942(4)
_cell_length_c                   19.911(7)
_cell_angle_alpha                87.992(7)
_cell_angle_beta                 88.509(7)
_cell_angle_gamma                72.843(7)
_cell_volume                     1583.86
_exptl_crystal_colour            colorless
_exptl_crystal_description       prism
_cell_formula_units_Z            2
loop_
_atom_site_label
_atom_site_type_symbol
_atom_site_fract_x
_atom_site_fract_y
_atom_site_fract_z
I1 I 0.35244(4) 1.05183(4) 0.36250(2)
Cl1 Cl -0.42722(17) 1.24960(15) 0.19859(8)
S1 S 0.52907(12) 0.71831(12) 0.12560(5)
N1 N 0.3975(4) 0.6543(4) 0.17313(17)
O1 O 0.0390(5) 0.5171(4) 0.33682(18)
O2 O 0.1541(4) 0.5667(4) 0.43013(17)
O3 O -0.1983(4) 0.8052(4) 0.42157(18)
O4 O -0.0583(4) 0.9649(3) 0.40805(15)
O5 O 0.6240(4) 0.6038(4) 0.08616(16)
O6 O 0.6116(4) 0.7844(4) 0.17001(16)
C1 C 0.2925(5) 0.5853(4) 0.1429(2)
C2 C 0.3194(5) 0.5039(5) 0.0863(2)
H1 H 0.4204 0.4864 0.0607
C3 C 0.1935(6) 0.4493(5) 0.0686(2)
H2 H 0.2084 0.3936 0.0299
C4 C 0.0445(5) 0.4733(5) 0.1062(2)
H3 H -0.0382 0.4319 0.0931
C5 C 0.0165(5) 0.5566(4) 0.1619(2)
H4 H -0.0842 0.5729 0.1876
C6 C 0.1405(5) 0.6160(4) 0.17932(19)
C7 C 0.1510(4) 0.7090(4) 0.23222(19)
C8 C 0.0133(4) 0.7873(4) 0.27876(18)
H5 H -0.0882 0.7581 0.2694
C9 C -0.0258(5) 0.9435(4) 0.26037(19)
C10 C -0.1859(5) 1.0177(5) 0.2387(2)
H6 H -0.2679 0.9701 0.2343
C11 C -0.2244(6) 1.1593(5) 0.2238(2)
C12 C -0.1069(7) 1.2291(5) 0.2276(3)
H7 H -0.1348 1.3267 0.2161
C13 C 0.0510(6) 1.1582(5) 0.2481(2)
H8 H 0.1315 1.2079 0.2507
C14 C 0.0972(5) 1.0141(5) 0.2655(2)
C15 C 0.2672(5) 0.9415(5) 0.2899(2)
C16 C 0.3677(5) 0.8136(5) 0.2735(2)
C17 C 0.3025(5) 0.7329(4) 0.22685(19)
C18 C 0.5307(5) 0.7449(5) 0.3061(2)
H9 H 0.6099 0.8030 0.3059
C19 C 0.5339(6) 0.6522(6) 0.3693(2)
H10 H 0.6091 0.6583 0.4058
H11 H 0.4279 0.6352 0.3844
C20 C 0.6117(6) 0.5882(6) 0.3055(3)
H12 H 0.5542 0.5310 0.2813
H13 H 0.7352 0.5540 0.3027
C21 C 0.0549(5) 0.7531(4) 0.3532(2)
H14 H 0.1611 0.7752 0.3624
C22 C 0.0790(5) 0.5991(5) 0.3705(2)
C23 C 0.1974(6) 0.4233(6) 0.4551(3)
H15 H 0.1373 0.3702 0.4295
H16 H 0.1632 0.4210 0.5029
C24 C 0.3805(6) 0.3563(5) 0.4481(3)
H17 H 0.4086 0.2586 0.4652
H18 H 0.4397 0.4083 0.4739
H19 H 0.4138 0.3577 0.4006
C25 C -0.0838(5) 0.8433(5) 0.3981(2)
C26 C -0.1899(6) 1.0682(5) 0.4447(3)
H20 H -0.1900 1.0400 0.4929
H21 H -0.3007 1.0753 0.4262
C27 C -0.1529(7) 1.2060(6) 0.4363(3)
H22 H -0.2382 1.2784 0.4603
H23 H -0.1534 1.2326 0.3885
H24 H -0.0429 1.1973 0.4547
C28 C 0.3982(5) 0.8481(5) 0.0731(2)
C29 C 0.3057(6) 0.9740(5) 0.1002(2)
H25 H 0.3142 0.9905 0.1465
C30 C 0.2012(6) 1.0749(5) 0.0597(3)
H26 H 0.1377 1.1615 0.0782
C31 C 0.1873(6) 1.0524(5) -0.0073(2)
C32 C 0.2832(7) 0.9273(6) -0.0332(3)
H27 H 0.2779 0.9124 -0.0798
C33 C 0.3870(6) 0.8227(6) 0.0066(2)
H28 H 0.4490 0.7355 -0.0118
C34 C 0.0743(6) 1.1637(6) -0.0525(3)
H29 H 0.0163 1.2456 -0.0260
H30 H -0.0079 1.1253 -0.0726
H31 H 0.1414 1.1923 -0.0882
loop_
_geom_bond_atom_site_label_1
_geom_bond_atom_site_label_2
_geom_bond_site_symmetry_1
_geom_bond_site_symmetry_2
I1 C15 1_555 1_555
Cl1 C11 1_555 1_555
S1 N1 1_555 1_555
N1 C1 1_555 1_555
O1 C22 1_555 1_555
O2 C22 1_555 1_555
O3 C25 1_555 1_555
O4 C25 1_555 1_555
O5 S1 1_555 1_555
O6 S1 1_555 1_555
C1 C2 1_555 1_555
C2 H1 1_555 1_555
C3 C2 1_555 1_555
H2 C3 1_555 1_555
C4 C3 1_555 1_555
H3 C4 1_555 1_555
C5 C4 1_555 1_555
H4 C5 1_555 1_555
C6 C1 1_555 1_555
C7 C6 1_555 1_555
C8 C7 1_555 1_555
H5 C8 1_555 1_555
C9 C8 1_555 1_555
C10 C9 1_555 1_555
H6 C10 1_555 1_555
C11 C10 1_555 1_555
C12 C11 1_555 1_555
H7 C12 1_555 1_555
C13 C12 1_555 1_555
H8 C13 1_555 1_555
C14 C9 1_555 1_555
C15 C14 1_555 1_555
C16 C15 1_555 1_555
C17 N1 1_555 1_555
C18 C16 1_555 1_555
H9 C18 1_555 1_555
C19 C18 1_555 1_555
H10 C19 1_555 1_555
H11 C19 1_555 1_555
C20 C18 1_555 1_555
H12 C20 1_555 1_555
H13 C20 1_555 1_555
C21 C8 1_555 1_555
H14 C21 1_555 1_555
C22 C21 1_555 1_555
C23 O2 1_555 1_555
H15 C23 1_555 1_555
H16 C23 1_555 1_555
C24 C23 1_555 1_555
H17 C24 1_555 1_555
H18 C24 1_555 1_555
H19 C24 1_555 1_555
C25 C21 1_555 1_555
C26 O4 1_555 1_555
H20 C26 1_555 1_555
H21 C26 1_555 1_555
C27 C26 1_555 1_555
H22 C27 1_555 1_555
H23 C27 1_555 1_555
H24 C27 1_555 1_555
C28 S1 1_555 1_555
C29 C28 1_555 1_555
H25 C29 1_555 1_555
C30 C29 1_555 1_555
H26 C30 1_555 1_555
C31 C30 1_555 1_555
C32 C31 1_555 1_555
H27 C32 1_555 1_555
C33 C28 1_555 1_555
H28 C33 1_555 1_555
C34 C31 1_555 1_555
H29 C34 1_555 1_555
H30 C34 1_555 1_555
H31 C34 1_555 1_555
C5 C6 1_555 1_555
C7 C17 1_555 1_555
C13 C14 1_555 1_555
C16 C17 1_555 1_555
C19 C20 1_555 1_555
C32 C33 1_555 1_555

#END
