
#######################################################################
#
#                 Cambridge Crystallographic Data Centre
#                                CCDC 
#
#######################################################################
#
# If this CIF has been generated from an entry in the Cambridge 
# Structural Database, then it will include bibliographic, chemical, 
# crystal, experimental, refinement or atomic coordinate data resulting 
# from the CCDC's data processing and validation procedures.
#
#######################################################################

data_QIXXIG
_chemical_formula_moiety         'C8 H13 N4 1+,C4 H5 O6 1-,H2 O1'
_chemical_name_systematic        
'4-(Pyrimidin-2-yl)piperazin-1-ium hydrogen (L)-tartrate monohydrate'
_symmetry_cell_setting           orthorhombic
_symmetry_space_group_name_H-M   'P 21 21 21'
_symmetry_Int_Tables_number      19
_space_group_name_Hall           'P 2ac 2ab'
loop_
_symmetry_equiv_pos_site_id
_symmetry_equiv_pos_as_xyz
1 x,y,z
2 1/2-x,-y,1/2+z
3 1/2+x,1/2-y,-z
4 -x,1/2+y,1/2-z
_cell_length_a                   7.062(5)
_cell_length_b                   7.522(5)
_cell_length_c                   29.25(2)
_cell_angle_alpha                90
_cell_angle_beta                 90
_cell_angle_gamma                90
_cell_volume                     1553.77
_exptl_crystal_colour            colorless
_exptl_crystal_description       rod
_cell_formula_units_Z            4
loop_
_atom_site_label
_atom_site_type_symbol
_atom_site_fract_x
_atom_site_fract_y
_atom_site_fract_z
C1 C 0.6675(4) 0.8085(4) 0.26537(8)
N1 N 0.4804(3) 0.8301(4) 0.26736(7)
C2 C 0.3942(5) 0.8303(5) 0.22680(10)
H1 H 0.2632 0.8431 0.2260
C3 C 0.4889(6) 0.8126(5) 0.18632(10)
H2 H 0.4258 0.8149 0.1584
C4 C 0.6774(5) 0.7917(6) 0.18881(10)
H3 H 0.7442 0.7764 0.1617
N2 N 0.7748(4) 0.7917(4) 0.22806(7)
N3 N 0.7629(3) 0.8105(4) 0.30617(6)
C5 C 0.6612(3) 0.8017(5) 0.34881(8)
H4 H 0.6373 0.6784 0.3566
H5 H 0.5401 0.8612 0.3456
C6 C 0.7704(4) 0.8866(5) 0.38574(9)
H6 H 0.7059 0.8671 0.4146
H7 H 0.7752 1.0138 0.3804
N4 N 0.9658(3) 0.8169(3) 0.38906(6)
H8 H 1.0307 0.8803 0.4099
H9 H 0.9623 0.7031 0.3985
C7 C 1.0640(3) 0.8265(4) 0.34486(9)
H10 H 1.1872 0.7704 0.3475
H11 H 1.0837 0.9501 0.3367
C8 C 0.9548(4) 0.7381(5) 0.30857(9)
H12 H 1.0179 0.7550 0.2794
H13 H 0.9488 0.6114 0.3147
C9 C 0.3034(3) 0.1746(2) 0.43334(6)
C10 C 0.3745(2) 0.3669(2) 0.43678(6)
C11 C 0.2828(3) 0.4600(2) 0.47754(6)
C12 C 0.3520(3) 0.6517(2) 0.47974(6)
O1 O 0.4238(2) 0.05596(19) 0.44028(7)
O2 O 0.13234(19) 0.15075(19) 0.42397(5)
O3 O 0.57338(19) 0.37433(19) 0.44082(6)
O4 O 0.3189(2) 0.3666(2) 0.51821(5)
O5 O 0.3220(2) 0.73535(19) 0.44139(5)
O6 O 0.4278(3) 0.7132(2) 0.51304(5)
H14 H 0.339(3) 0.434(3) 0.4087(6)
H15 H 0.144(3) 0.470(3) 0.4732(6)
H16 H 0.355(4) 0.814(4) 0.4419(10)
H17 H 0.611(4) 0.282(4) 0.4514(9)
H18 H 0.422(4) 0.383(4) 0.5267(9)
O7 O 0.9117(3) 0.4419(3) 0.39557(7)
H19 H 0.983(5) 0.355(5) 0.4075(12)
H20 H 0.804(5) 0.443(5) 0.4092(12)
loop_
_geom_bond_atom_site_label_1
_geom_bond_atom_site_label_2
_geom_bond_site_symmetry_1
_geom_bond_site_symmetry_2
C1 N1 1_555 1_555
N1 C2 1_555 1_555
C2 H1 1_555 1_555
C3 C2 1_555 1_555
H2 C3 1_555 1_555
C4 C3 1_555 1_555
H3 C4 1_555 1_555
N2 C1 1_555 1_555
N3 C1 1_555 1_555
C5 N3 1_555 1_555
H4 C5 1_555 1_555
H5 C5 1_555 1_555
C6 C5 1_555 1_555
H6 C6 1_555 1_555
H7 C6 1_555 1_555
N4 C6 1_555 1_555
H8 N4 1_555 1_555
H9 N4 1_555 1_555
C7 N4 1_555 1_555
H10 C7 1_555 1_555
H11 C7 1_555 1_555
C8 N3 1_555 1_555
H12 C8 1_555 1_555
H13 C8 1_555 1_555
C9 C10 1_555 1_555
C10 C11 1_555 1_555
C11 C12 1_555 1_555
C12 O5 1_555 1_555
O1 C9 1_555 1_555
O2 C9 1_555 1_555
O3 C10 1_555 1_555
O4 C11 1_555 1_555
O5 H16 1_555 1_555
O6 C12 1_555 1_555
H14 C10 1_555 1_555
H15 C11 1_555 1_555
H17 O3 1_555 1_555
H18 O4 1_555 1_555
O7 H19 1_555 1_555
H20 O7 1_555 1_555
C4 N2 1_555 1_555
C7 C8 1_555 1_555

#END
