
#######################################################################
#
#                 Cambridge Crystallographic Data Centre
#                                CCDC 
#
#######################################################################
#
# If this CIF has been generated from an entry in the Cambridge 
# Structural Database, then it will include bibliographic, chemical, 
# crystal, experimental, refinement or atomic coordinate data resulting 
# from the CCDC's data processing and validation procedures.
#
#######################################################################

data_QIZDOU
_chemical_formula_moiety         'C29 H22 F1 N3 O4'
_chemical_name_systematic        
'2-fluorophenyl 3-methyl-2-(13-nitro-1,9-diazatetracyclo[7.7.1.0^2,7^.0^10,15^]heptadeca-2,4,6,10,12,14-hexaen-5-yl)benzoate'
_symmetry_cell_setting           triclinic
_symmetry_space_group_name_H-M   'P -1'
_symmetry_Int_Tables_number      2
_space_group_name_Hall           '-P 1'
loop_
_symmetry_equiv_pos_site_id
_symmetry_equiv_pos_as_xyz
1 x,y,z
2 -x,-y,-z
_cell_length_a                   10.2077(5)
_cell_length_b                   10.7763(6)
_cell_length_c                   11.7493(6)
_cell_angle_alpha                88.911(2)
_cell_angle_beta                 89.463(2)
_cell_angle_gamma                62.211(2)
_cell_volume                     1143.17
_exptl_crystal_colour            'light yellow'
_exptl_crystal_description       rhombohedral
_chemical_melting_point          '477-480 K'
_cell_formula_units_Z            2
_exptl_crystal_recrystallization_method n-pentane/dichloromethane
loop_
_atom_site_label
_atom_site_type_symbol
_atom_site_fract_x
_atom_site_fract_y
_atom_site_fract_z
F1 F 0.2889(2) -0.1665(2) 1.1495(2)
O1 O -0.34936(19) 0.3771(2) 0.59345(18)
O2 O -0.2282(2) 0.1582(2) 0.55220(17)
N1 N 0.3077(2) 0.2806(2) 0.64287(16)
N2 N 0.1813(2) 0.5105(2) 0.72470(15)
N3 N -0.2335(2) 0.2684(2) 0.58065(16)
C1 C 0.3350(2) 0.1907(2) 1.23230(18)
C2 C 0.3754(2) 0.2800(2) 1.16960(17)
C3 C 0.4644(2) 0.3294(2) 1.22215(19)
C4 C 0.5107(3) 0.2883(3) 1.3336(2)
H1 H 0.5709 0.3221 1.3690
C5 C 0.4718(2) 0.1997(3) 1.39422(19)
H2 H 0.5056 0.1723 1.4701
C6 C 0.3837(2) 0.1511(2) 1.34413(19)
H3 H 0.3560 0.0905 1.3857
C7 C 0.2360(3) 0.1417(3) 1.1806(2)
C8 C 0.3203(2) 0.3316(2) 1.05208(18)
C9 C 0.3803(2) 0.2520(2) 0.95756(18)
H4 H 0.4572 0.1585 0.9666
C10 C 0.3304(2) 0.3055(2) 0.84762(18)
C11 C 0.3898(2) 0.2123(3) 0.7457(2)
H5 H 0.4954 0.1875 0.7346
H6 H 0.3836 0.1244 0.7600
C12 C 0.1680(2) 0.2800(2) 0.63184(18)
C13 C 0.1680(3) 0.1567(3) 0.60063(19)
H7 H 0.2593 0.0740 0.5909
C14 C 0.0366(3) 0.1532(3) 0.58365(19)
H8 H 0.0366 0.0689 0.5614
C15 C -0.0955(2) 0.2738(2) 0.59930(18)
C16 C -0.0983(2) 0.3976(2) 0.63239(18)
H9 H -0.1902 0.4790 0.6438
C17 C 0.0350(2) 0.4021(2) 0.64892(16)
C18 C 0.0339(2) 0.5351(2) 0.68826(19)
H10 H -0.0010 0.6054 0.6253
H11 H -0.0364 0.5737 0.7524
C19 C 0.2878(2) 0.4227(3) 0.63852(19)
H12 H 0.2520 0.4641 0.5620
H13 H 0.3843 0.4211 0.6513
C20 C 0.2234(2) 0.4438(2) 0.83477(18)
C21 C 0.1584(3) 0.5248(2) 0.93049(19)
H14 H 0.0817 0.6185 0.9217
C22 C 0.2057(3) 0.4686(2) 1.03774(19)
H15 H 0.1600 0.5234 1.1027
C23 C 0.5120(3) 0.4248(3) 1.1595(2)
H16 H 0.4292 0.5200 1.1562
H17 H 0.5426 0.3908 1.0821
H18 H 0.5954 0.4256 1.1996
C24 C 0.0908(3) 0.0310(3) 1.2093(2)
C25 C 0.1452(3) -0.0935(3) 1.1570(2)
C26 C 0.0532(4) -0.1432(3) 1.1137(2)
H19 H 0.0934 -0.2307 1.0763
C27 C -0.0953(3) -0.0650(3) 1.1257(2)
H20 H -0.1597 -0.0984 1.0973
C28 C -0.1528(4) 0.0614(4) 1.1784(3)
H21 H -0.2570 0.1163 1.1851
C29 C -0.0598(4) 0.1099(3) 1.2221(3)
H22 H -0.0997 0.1968 1.2604
O3 O 0.1621(5) 0.1908(5) 1.0966(3)
O4 O 0.2042(9) 0.0624(9) 1.2530(8)
O5? O 0.2636(9) 0.0923(9) 1.0774(4)
O6? O 0.1651(10) 0.0998(11) 1.2515(10)
H23? H 0.2494 -0.1486 1.1496
F2? F -0.0697(11) 0.1949(10) 1.2818(9)
loop_
_geom_bond_atom_site_label_1
_geom_bond_atom_site_label_2
_geom_bond_site_symmetry_1
_geom_bond_site_symmetry_2
F1 C25 1_555 1_555
O1 N3 1_555 1_555
O2 N3 1_555 1_555
N1 C11 1_555 1_555
N2 C18 1_555 1_555
N3 C15 1_555 1_555
C1 C2 1_555 1_555
C2 C3 1_555 1_555
C3 C4 1_555 1_555
C4 H1 1_555 1_555
C5 C4 1_555 1_555
H2 C5 1_555 1_555
C6 C1 1_555 1_555
H3 C6 1_555 1_555
C7 C1 1_555 1_555
C8 C2 1_555 1_555
C9 C8 1_555 1_555
H4 C9 1_555 1_555
C10 C9 1_555 1_555
C11 C10 1_555 1_555
H5 C11 1_555 1_555
H6 C11 1_555 1_555
C12 N1 1_555 1_555
C13 C12 1_555 1_555
H7 C13 1_555 1_555
C14 C13 1_555 1_555
H8 C14 1_555 1_555
C15 C14 1_555 1_555
C16 C15 1_555 1_555
H9 C16 1_555 1_555
C17 C12 1_555 1_555
C18 C17 1_555 1_555
H10 C18 1_555 1_555
H11 C18 1_555 1_555
C19 N1 1_555 1_555
H12 C19 1_555 1_555
H13 C19 1_555 1_555
C20 N2 1_555 1_555
C21 C20 1_555 1_555
H14 C21 1_555 1_555
C22 C8 1_555 1_555
H15 C22 1_555 1_555
C23 C3 1_555 1_555
H16 C23 1_555 1_555
H17 C23 1_555 1_555
H18 C23 1_555 1_555
C24 C25 1_555 1_555
C25 C26 1_555 1_555
C26 H19 1_555 1_555
C27 C26 1_555 1_555
H20 C27 1_555 1_555
C28 C27 1_555 1_555
H21 C28 1_555 1_555
C29 C24 1_555 1_555
H22 C29 1_555 1_555
O3 C7 1_555 1_555
O4 C7 1_555 1_555
N2 C19 1_555 1_555
C5 C6 1_555 1_555
C10 C20 1_555 1_555
C16 C17 1_555 1_555
C21 C22 1_555 1_555
C24 O4 1_555 1_555
C28 C29 1_555 1_555

#END
