
#######################################################################
#
#                 Cambridge Crystallographic Data Centre
#                                CCDC 
#
#######################################################################
#
# If this CIF has been generated from an entry in the Cambridge 
# Structural Database, then it will include bibliographic, chemical, 
# crystal, experimental, refinement or atomic coordinate data resulting 
# from the CCDC's data processing and validation procedures.
#
#######################################################################

data_QIZFAI
_chemical_formula_moiety         'C29 H29 Br1 N2 O1'
_chemical_name_systematic        
7-bromo-9-phenyl-3-propyl-3,4,4a,9,9a,10-hexahydro-1H-spiro[acridine-2,3'-indol]-2'(1'H)-one
_symmetry_cell_setting           monoclinic
_symmetry_space_group_name_H-M   'P 21/c'
_symmetry_Int_Tables_number      14
_space_group_name_Hall           '-P 2ybc'
loop_
_symmetry_equiv_pos_site_id
_symmetry_equiv_pos_as_xyz
1 x,y,z
2 -x,1/2+y,1/2-z
3 -x,-y,-z
4 x,1/2-y,1/2+z
_cell_length_a                   16.242(3)
_cell_length_b                   10.729(2)
_cell_length_c                   14.993(3)
_cell_angle_alpha                90
_cell_angle_beta                 101.45(3)
_cell_angle_gamma                90
_cell_volume                     2560.69
_cell_formula_units_Z            4
loop_
_atom_site_label
_atom_site_type_symbol
_atom_site_fract_x
_atom_site_fract_y
_atom_site_fract_z
Br1 Br 0.59637(3) 0.92039(6) 1.09867(5)
O1 O 0.11695(16) 0.4946(2) 1.03577(17)
N1 N 0.3938(3) 0.4561(4) 1.1307(3)
H1 H 0.396(4) 0.417(5) 1.184(2)
N2 N 0.03073(19) 0.3972(3) 0.9172(2)
H2 H -0.0177(16) 0.429(4) 0.926(3)
C1 C 0.4387(3) 0.5618(4) 1.1203(3)
C2 C 0.4976(3) 0.6068(5) 1.1951(4)
H3 H 0.5053 0.5645 1.2502
C3 C 0.5434(3) 0.7108(6) 1.1882(4)
H4 H 0.5827 0.7388 1.2380
C4 C 0.5314(3) 0.7742(5) 1.1074(4)
C5 C 0.4740(3) 0.7333(4) 1.0319(3)
H5 H 0.4669 0.7774 0.9775
C6 C 0.4272(2) 0.6262(4) 1.0377(3)
C7 C 0.3648(2) 0.5766(4) 0.9552(3)
H6 H 0.3963 0.5212 0.9221
C8 C 0.2977(2) 0.4966(4) 0.9866(2)
H7 H 0.2637 0.5509 1.0175
C9 C 0.2394(2) 0.4330(3) 0.9073(2)
H8 H 0.2732 0.3848 0.8732
H9 H 0.2103 0.4965 0.8669
C10 C 0.1741(2) 0.3465(3) 0.9360(2)
C11 C 0.2171(2) 0.2507(3) 1.0092(3)
H10 H 0.2524 0.1971 0.9795
C12 C 0.2759(3) 0.3165(4) 1.0873(3)
H11 H 0.2428 0.3672 1.1206
H12 H 0.3053 0.2544 1.1288
C13 C 0.3394(3) 0.3983(4) 1.0541(3)
H13 H 0.3739 0.3450 1.0232
C14 C 0.3267(2) 0.6784(4) 0.8890(3)
C15 C 0.3415(3) 0.6799(5) 0.8012(4)
H14 H 0.3755 0.6193 0.7828
C16 C 0.3054(5) 0.7719(8) 0.7403(4)
H15 H 0.3171 0.7740 0.6821
C17 C 0.2531(4) 0.8589(7) 0.7654(6)
H16 H 0.2279 0.9184 0.7237
C18 C 0.2379(4) 0.8584(5) 0.8517(5)
H17 H 0.2027 0.9181 0.8692
C19 C 0.2746(3) 0.7692(4) 0.9126(4)
H18 H 0.2640 0.7700 0.9714
C20 C 0.1539(3) 0.1650(4) 1.0423(3)
H19 H 0.1212 0.2146 1.0768
H20 H 0.1155 0.1324 0.9896
C21 C 0.1920(4) 0.0562(6) 1.1009(5)
H21 H 0.2284 0.0096 1.0689
H22 H 0.2262 0.0879 1.1568
C22 C 0.1268(6) -0.0293(8) 1.1239(7)
H23 H 0.0855 0.0184 1.1469
H24 H 0.1527 -0.0878 1.1693
H25 H 0.1001 -0.0735 1.0702
C23 C 0.1221(2) 0.2805(3) 0.8551(2)
C24 C 0.1447(3) 0.1965(4) 0.7947(3)
H26 H 0.2006 0.1735 0.7992
C25 C 0.0827(3) 0.1468(5) 0.7270(3)
H27 H 0.0969 0.0885 0.6867
C26 C 0.0003(3) 0.1831(5) 0.7189(3)
H28 H -0.0402 0.1507 0.6719
C27 C -0.0236(3) 0.2671(4) 0.7794(3)
H29 H -0.0794 0.2908 0.7743
C28 C 0.0381(2) 0.3139(3) 0.8470(2)
C29 C 0.1060(2) 0.4220(3) 0.9708(2)
loop_
_geom_bond_atom_site_label_1
_geom_bond_atom_site_label_2
_geom_bond_site_symmetry_1
_geom_bond_site_symmetry_2
Br1 C4 1_555 1_555
O1 C29 1_555 1_555
N1 H1 1_555 1_555
N2 H2 1_555 1_555
C1 N1 1_555 1_555
C2 C1 1_555 1_555
H3 C2 1_555 1_555
C3 C2 1_555 1_555
H4 C3 1_555 1_555
C4 C3 1_555 1_555
C5 C4 1_555 1_555
H5 C5 1_555 1_555
C6 C1 1_555 1_555
C7 C6 1_555 1_555
H6 C7 1_555 1_555
C8 C7 1_555 1_555
H7 C8 1_555 1_555
C9 C8 1_555 1_555
H8 C9 1_555 1_555
H9 C9 1_555 1_555
C10 C9 1_555 1_555
C11 C10 1_555 1_555
H10 C11 1_555 1_555
C12 C11 1_555 1_555
H11 C12 1_555 1_555
H12 C12 1_555 1_555
C13 N1 1_555 1_555
H13 C13 1_555 1_555
C14 C7 1_555 1_555
C15 C14 1_555 1_555
H14 C15 1_555 1_555
C16 C15 1_555 1_555
H15 C16 1_555 1_555
C17 C16 1_555 1_555
H16 C17 1_555 1_555
C18 C17 1_555 1_555
H17 C18 1_555 1_555
C19 C14 1_555 1_555
H18 C19 1_555 1_555
C20 C11 1_555 1_555
H19 C20 1_555 1_555
H20 C20 1_555 1_555
C21 C20 1_555 1_555
H21 C21 1_555 1_555
H22 C21 1_555 1_555
C22 C21 1_555 1_555
H23 C22 1_555 1_555
H24 C22 1_555 1_555
H25 C22 1_555 1_555
C23 C10 1_555 1_555
C24 C23 1_555 1_555
H26 C24 1_555 1_555
C25 C24 1_555 1_555
H27 C25 1_555 1_555
C26 C25 1_555 1_555
H28 C26 1_555 1_555
C27 C26 1_555 1_555
H29 C27 1_555 1_555
C28 N2 1_555 1_555
C29 N2 1_555 1_555
C5 C6 1_555 1_555
C8 C13 1_555 1_555
C10 C29 1_555 1_555
C12 C13 1_555 1_555
C18 C19 1_555 1_555
C23 C28 1_555 1_555
C27 C28 1_555 1_555

#END
