
#######################################################################
#
#                 Cambridge Crystallographic Data Centre
#                                CCDC 
#
#######################################################################
#
# If this CIF has been generated from an entry in the Cambridge 
# Structural Database, then it will include bibliographic, chemical, 
# crystal, experimental, refinement or atomic coordinate data resulting 
# from the CCDC's data processing and validation procedures.
#
#######################################################################

data_QIZQAS
_chemical_formula_moiety         'C41 H31 O3 P2 1+,Cl1 O4 1-'
_chemical_name_systematic        
'2,6-Dioxo-3,5-bis(triphenylphosphonio)-3,6-dihydro-2H-pyran-3-ide perchlorate'
_symmetry_cell_setting           monoclinic
_symmetry_space_group_name_H-M   'P 21/c'
_symmetry_Int_Tables_number      14
_space_group_name_Hall           '-P 2ybc'
loop_
_symmetry_equiv_pos_site_id
_symmetry_equiv_pos_as_xyz
1 x,y,z
2 -x,1/2+y,1/2-z
3 -x,-y,-z
4 x,1/2-y,1/2+z
_cell_length_a                   16.8145(5)
_cell_length_b                   12.2319(4)
_cell_length_c                   17.1881(5)
_cell_angle_alpha                90
_cell_angle_beta                 95.017(3)
_cell_angle_gamma                90
_cell_volume                     3521.59
_exptl_crystal_colour            orange
_exptl_crystal_description       block
_cell_formula_units_Z            4
_exptl_crystal_recrystallization_method 'dichloromethane/diethyl ether'
loop_
_atom_site_label
_atom_site_type_symbol
_atom_site_fract_x
_atom_site_fract_y
_atom_site_fract_z
Cl1 Cl 0.13162(5) -0.02644(7) 0.22308(4)
O2 O 0.19404(12) -0.04147(16) 0.17318(10)
O3 O 0.08076(13) -0.11972(17) 0.22101(10)
O4 O 0.16639(13) -0.01188(17) 0.30169(10)
O5 O 0.08714(14) 0.06820(19) 0.19890(13)
P1 P 0.31131(4) -0.25136(6) 0.43475(3)
P2 P 0.23738(4) 0.14987(6) 0.55676(4)
O1 O 0.45878(10) -0.11474(14) 0.39913(10)
O6 O 0.41376(10) 0.04636(14) 0.43227(9)
O7 O 0.37452(11) 0.21260(15) 0.46455(9)
C1 C 0.40511(17) -0.0671(2) 0.42719(14)
C2 C 0.33343(14) -0.11209(19) 0.45322(13)
C3 C 0.28335(14) -0.0455(2) 0.49223(12)
H1 H 0.2379 -0.0767 0.5115
C4 C 0.29738(14) 0.0640(2) 0.50395(13)
C5 C 0.36116(16) 0.1152(2) 0.46755(13)
C6 C 0.20760(14) -0.27006(19) 0.44568(14)
C7 C 0.15274(16) -0.2653(2) 0.38131(14)
H2 H 0.1705 -0.2540 0.3316
C8 C 0.07229(17) -0.2768(2) 0.38875(16)
H3 H 0.0355 -0.2735 0.3444
C9 C 0.04614(17) -0.2931(2) 0.46162(18)
H4 H -0.0085 -0.3037 0.4667
C10 C 0.09964(17) -0.2940(2) 0.52723(16)
H5 H 0.0813 -0.3015 0.5771
C11 C 0.17985(16) -0.2838(2) 0.51919(14)
H6 H 0.2165 -0.2860 0.5637
C12 C 0.36716(15) -0.3428(2) 0.50010(12)
C13 C 0.33485(16) -0.4442(2) 0.51708(14)
H7 H 0.2835 -0.4634 0.4954
C14 C 0.37806(17) -0.5157(2) 0.56534(16)
H8 H 0.3565 -0.5842 0.5764
C15 C 0.45270(18) -0.4875(3) 0.59751(16)
H9 H 0.4815 -0.5360 0.6318
C16 C 0.48584(16) -0.3883(2) 0.57981(14)
H10 H 0.5374 -0.3700 0.6013
C17 C 0.44344(15) -0.3164(2) 0.53077(13)
H11 H 0.4663 -0.2493 0.5181
C18 C 0.33277(14) -0.2848(2) 0.33699(13)
C19 C 0.32219(14) -0.2078(2) 0.27780(13)
H12 H 0.3011 -0.1385 0.2878
C20 C 0.34285(16) -0.2337(3) 0.20426(14)
H13 H 0.3358 -0.1817 0.1640
C21 C 0.37380(17) -0.3352(3) 0.18909(15)
H14 H 0.3886 -0.3515 0.1389
C22 C 0.38296(16) -0.4121(2) 0.24670(16)
H15 H 0.4036 -0.4813 0.2359
C23 C 0.36193(15) -0.3885(2) 0.32164(14)
H16 H 0.3674 -0.4417 0.3612
C24 C 0.16417(16) 0.0670(2) 0.59867(14)
C25 C 0.18850(19) -0.0007(3) 0.65946(18)
H17 H 0.2427 -0.0035 0.6780
C26 C 0.1337(2) -0.0651(3) 0.6938(2)
H18 H 0.1513 -0.1130 0.7345
C27 C 0.0557(2) -0.0598(3) 0.6698(2)
H19 H 0.0187 -0.1030 0.6940
C28 C 0.03076(19) 0.0072(3) 0.6113(2)
H20 H -0.0239 0.0117 0.5948
C29 C 0.08552(18) 0.0705(2) 0.57470(17)
H21 H 0.0675 0.1162 0.5328
C30 C 0.18731(14) 0.2472(2) 0.49201(13)
C31 C 0.17208(15) 0.3543(2) 0.51438(15)
H22 H 0.1908 0.3794 0.5643
C32 C 0.12929(17) 0.4231(2) 0.46263(18)
H23 H 0.1188 0.4951 0.4778
C33 C 0.10177(17) 0.3878(3) 0.38931(18)
H24 H 0.0729 0.4357 0.3546
C34 C 0.11641(18) 0.2829(3) 0.36680(15)
H25 H 0.0972 0.2584 0.3168
C35 C 0.15956(16) 0.2130(2) 0.41783(14)
H26 H 0.1702 0.1413 0.4019
C36 C 0.29643(15) 0.2118(2) 0.63700(12)
C37 C 0.37852(16) 0.1956(2) 0.64667(13)
H27 H 0.4036 0.1535 0.6102
C38 C 0.42307(16) 0.2408(2) 0.70941(13)
H28 H 0.4785 0.2291 0.7160
C39 C 0.38649(18) 0.3030(2) 0.76244(14)
H29 H 0.4172 0.3343 0.8050
C40 C 0.30638(19) 0.3198(3) 0.75397(15)
H30 H 0.2821 0.3628 0.7906
C41 C 0.26015(16) 0.2740(2) 0.69159(14)
H31 H 0.2046 0.2849 0.6863
loop_
_geom_bond_atom_site_label_1
_geom_bond_atom_site_label_2
_geom_bond_site_symmetry_1
_geom_bond_site_symmetry_2
Cl1 O2 1_555 1_555
P1 C2 1_555 1_555
P2 C4 1_555 1_555
O1 C1 1_555 1_555
O3 Cl1 1_555 1_555
O4 Cl1 1_555 1_555
O5 Cl1 1_555 1_555
O6 C1 1_555 1_555
O7 C5 1_555 1_555
C1 C2 1_555 1_555
C2 C3 1_555 1_555
C3 H1 1_555 1_555
C4 C3 1_555 1_555
C5 O6 1_555 1_555
C6 P1 1_555 1_555
C7 C6 1_555 1_555
H2 C7 1_555 1_555
C8 C7 1_555 1_555
H3 C8 1_555 1_555
C9 C8 1_555 1_555
H4 C9 1_555 1_555
C10 C9 1_555 1_555
H5 C10 1_555 1_555
C11 C6 1_555 1_555
H6 C11 1_555 1_555
C12 P1 1_555 1_555
C13 C12 1_555 1_555
H7 C13 1_555 1_555
C14 C13 1_555 1_555
H8 C14 1_555 1_555
C15 C14 1_555 1_555
H9 C15 1_555 1_555
C16 C15 1_555 1_555
H10 C16 1_555 1_555
C17 C12 1_555 1_555
H11 C17 1_555 1_555
C18 P1 1_555 1_555
C19 C18 1_555 1_555
H12 C19 1_555 1_555
C20 C19 1_555 1_555
H13 C20 1_555 1_555
C21 C20 1_555 1_555
H14 C21 1_555 1_555
C22 C21 1_555 1_555
H15 C22 1_555 1_555
C23 C18 1_555 1_555
H16 C23 1_555 1_555
C24 P2 1_555 1_555
C25 C24 1_555 1_555
H17 C25 1_555 1_555
C26 C25 1_555 1_555
H18 C26 1_555 1_555
C27 C26 1_555 1_555
H19 C27 1_555 1_555
C28 C27 1_555 1_555
H20 C28 1_555 1_555
C29 C24 1_555 1_555
H21 C29 1_555 1_555
C30 P2 1_555 1_555
C31 C30 1_555 1_555
H22 C31 1_555 1_555
C32 C31 1_555 1_555
H23 C32 1_555 1_555
C33 C32 1_555 1_555
H24 C33 1_555 1_555
C34 C33 1_555 1_555
H25 C34 1_555 1_555
C35 C30 1_555 1_555
H26 C35 1_555 1_555
C36 P2 1_555 1_555
C37 C36 1_555 1_555
H27 C37 1_555 1_555
C38 C37 1_555 1_555
H28 C38 1_555 1_555
C39 C38 1_555 1_555
H29 C39 1_555 1_555
C40 C39 1_555 1_555
H30 C40 1_555 1_555
C41 C36 1_555 1_555
H31 C41 1_555 1_555
C4 C5 1_555 1_555
C10 C11 1_555 1_555
C16 C17 1_555 1_555
C22 C23 1_555 1_555
C28 C29 1_555 1_555
C34 C35 1_555 1_555
C40 C41 1_555 1_555

#END
