
#######################################################################
#
#                 Cambridge Crystallographic Data Centre
#                                CCDC 
#
#######################################################################
#
# If this CIF has been generated from an entry in the Cambridge 
# Structural Database, then it will include bibliographic, chemical, 
# crystal, experimental, refinement or atomic coordinate data resulting 
# from the CCDC's data processing and validation procedures.
#
#######################################################################

data_QOCKOK
_chemical_formula_moiety         'C16 H32 Li1 O4 1+,C52 H40 B4 Li1 O4 1-,C7 H8'
_chemical_name_systematic        
"tetrakis(Tetrahydrofuran)-lithium (7',7'''-oxybis(5,7'-dihydrospiro[dibenzo[b,d]borole-5,5'-dibenzo[c,e][1,2,7]oxadiborepine-5-ide]))-tetrahydrofuran-lithium toluene solvate"
_symmetry_cell_setting           triclinic
_symmetry_space_group_name_H-M   'P -1'
_symmetry_Int_Tables_number      2
_space_group_name_Hall           '-P 1'
loop_
_symmetry_equiv_pos_site_id
_symmetry_equiv_pos_as_xyz
1 x,y,z
2 -x,-y,-z
_cell_length_a                   12.5628(18)
_cell_length_b                   14.9138(18)
_cell_length_c                   18.468(3)
_cell_angle_alpha                96.422(11)
_cell_angle_beta                 109.404(11)
_cell_angle_gamma                94.785(11)
_cell_volume                     3216.18
_exptl_crystal_colour            yellow
_exptl_crystal_description       block
_cell_formula_units_Z            2
loop_
_atom_site_label
_atom_site_type_symbol
_atom_site_fract_x
_atom_site_fract_y
_atom_site_fract_z
Li1 Li 0.3890(6) 0.2564(5) 0.2266(4)
O1 O 0.2670(2) 0.23096(18) 0.26373(14)
O2 O 0.2853(2) 0.38410(19) 0.32195(14)
O3 O 0.3969(2) 0.38557(18) 0.24119(14)
B1 B 0.2215(4) 0.1283(3) 0.2468(3)
B2 B 0.2354(4) 0.2934(4) 0.3077(3)
B3 B 0.3640(4) 0.4305(4) 0.2954(3)
B4 B 0.4844(4) 0.4279(4) 0.2084(3)
C1 C 0.2813(3) 0.0786(3) 0.1898(2)
C2 C 0.3310(4) 0.0047(3) 0.2220(3)
C3 C 0.3831(4) -0.0528(3) 0.1832(3)
H1 H 0.4149 -0.1035 0.2048
C4 C 0.3874(4) -0.0342(4) 0.1125(4)
H2 H 0.4228 -0.0730 0.0857
C5 C 0.3424(4) 0.0380(4) 0.0800(3)
H3 H 0.3479 0.0500 0.0318
C6 C 0.2879(4) 0.0945(3) 0.1186(3)
H4 H 0.2551 0.1442 0.0958
C7 C 0.2679(3) 0.0728(3) 0.3199(2)
C8 C 0.3233(4) 0.0014(3) 0.3001(3)
C9 C 0.3685(4) -0.0595(3) 0.3500(4)
H5 H 0.4030 -0.1085 0.3336
C10 C 0.3628(5) -0.0485(4) 0.4234(4)
H6 H 0.3931 -0.0899 0.4581
C11 C 0.3135(4) 0.0221(4) 0.4462(3)
H7 H 0.3124 0.0311 0.4977
C12 C 0.2649(4) 0.0813(3) 0.3953(3)
H8 H 0.2286 0.1287 0.4122
C13 C 0.0826(4) 0.1185(3) 0.2060(2)
C14 C 0.0109(4) 0.1558(3) 0.2417(2)
C15 C -0.1062(4) 0.1478(3) 0.2019(3)
H9 H -0.1533 0.1735 0.2274
C16 C -0.1559(4) 0.1036(3) 0.1262(3)
H10 H -0.2354 0.1003 0.0996
C17 C -0.0876(4) 0.0646(3) 0.0905(3)
H11 H -0.1197 0.0322 0.0393
C18 C 0.0285(4) 0.0729(3) 0.1298(2)
H12 H 0.0744 0.0462 0.1037
C19 C 0.1505(4) 0.2723(3) 0.3515(2)
C20 C 0.0535(4) 0.2053(3) 0.3231(2)
C21 C -0.0072(4) 0.1863(3) 0.3710(3)
H13 H -0.0722 0.1415 0.3516
C22 C 0.0237(4) 0.2306(3) 0.4462(3)
H14 H -0.0185 0.2153 0.4782
C23 C 0.1172(5) 0.2976(3) 0.4746(3)
H15 H 0.1391 0.3285 0.5262
C24 C 0.1782(4) 0.3192(3) 0.4272(2)
H16 H 0.2402 0.3667 0.4463
C25 C 0.4097(3) 0.5302(3) 0.3356(2)
C26 C 0.4450(3) 0.6009(3) 0.3005(2)
C27 C 0.4982(4) 0.6846(3) 0.3471(3)
H17 H 0.5207 0.7327 0.3236
C28 C 0.5185(4) 0.6987(4) 0.4256(3)
H18 H 0.5578 0.7549 0.4560
C29 C 0.4816(4) 0.6310(4) 0.4599(3)
H19 H 0.4929 0.6408 0.5138
C30 C 0.4277(4) 0.5482(3) 0.4149(2)
H20 H 0.4022 0.5021 0.4390
C31 C 0.4402(3) 0.5167(3) 0.1716(2)
C32 C 0.4208(3) 0.5938(3) 0.2155(2)
C33 C 0.3787(4) 0.6672(3) 0.1790(3)
H21 H 0.3659 0.7182 0.2093
C34 C 0.3550(4) 0.6683(4) 0.1008(3)
H22 H 0.3257 0.7187 0.0773
C35 C 0.3750(4) 0.5943(4) 0.0572(3)
H23 H 0.3604 0.5935 0.0033
C36 C 0.4161(4) 0.5217(3) 0.0925(3)
H24 H 0.4292 0.4717 0.0613
C37 C 0.6156(4) 0.4379(3) 0.2697(2)
C38 C 0.6819(4) 0.3855(3) 0.2381(2)
C39 C 0.7959(4) 0.3780(3) 0.2788(3)
H25 H 0.8387 0.3428 0.2553
C40 C 0.8451(4) 0.4231(4) 0.3541(3)
H26 H 0.9221 0.4183 0.3829
C41 C 0.7843(4) 0.4741(3) 0.3872(3)
H27 H 0.8188 0.5044 0.4390
C42 C 0.6716(4) 0.4823(3) 0.3455(2)
H28 H 0.6312 0.5195 0.3694
C43 C 0.4969(4) 0.3487(3) 0.1432(2)
C44 C 0.6110(4) 0.3344(3) 0.1603(3)
C45 C 0.6452(5) 0.2748(3) 0.1123(3)
H29 H 0.7230 0.2661 0.1249
C46 C 0.5631(7) 0.2279(4) 0.0451(3)
H30 H 0.5854 0.1869 0.0113
C47 C 0.4515(6) 0.2395(4) 0.0266(3)
H31 H 0.3968 0.2063 -0.0194
C48 C 0.4171(5) 0.3001(3) 0.0752(3)
H32 H 0.3391 0.3082 0.0620
O4 O 0.5245(2) 0.2150(2) 0.28658(15)
C49 C 0.5602(5) 0.2359(4) 0.3695(3)
H33 H 0.5019 0.2113 0.3898
H34 H 0.5799 0.3022 0.3875
C50 C 0.6740(17) 0.1819(10) 0.3935(7)
H35 H 0.7435 0.2233 0.4000
H36 H 0.6838 0.1567 0.4423
C51 C 0.6538(6) 0.1185(6) 0.3367(4)
H37 H 0.6059 0.0657 0.3427
H38 H 0.7259 0.0984 0.3344
C52 C 0.5951(4) 0.1541(3) 0.2665(3)
H39 H 0.6503 0.1866 0.2477
H40 H 0.5486 0.1042 0.2253
C54 C 0.2005(5) 0.0758(4) 0.7317(3)
C55 C 0.2117(7) 0.0873(4) 0.6591(5)
H47 H 0.2848 0.0949 0.6543
C56 C 0.1170(8) 0.0871(4) 0.5970(4)
H48 H 0.1246 0.0943 0.5484
C57 C 0.0090(7) 0.0769(4) 0.6018(4)
H49 H -0.0565 0.0764 0.5573
C58 C -0.0014(6) 0.0672(4) 0.6738(4)
H50 H -0.0740 0.0617 0.6795
C59 C 0.0938(6) 0.0657(4) 0.7345(4)
H51 H 0.0857 0.0570 0.7827
C60 C 0.3034(6) 0.0737(4) 0.7994(4)
H52 H 0.2916 0.0998 0.8468
H53 H 0.3684 0.1093 0.7935
H54 H 0.3186 0.0106 0.8028
Li2 Li 0.0074(7) 0.3783(6) 0.8151(5)
O5 O -0.0087(3) 0.2692(3) 0.8596(2)
C61 C -0.1094(10) 0.2320(14) 0.8676(9)
H55 H -0.1579 0.2810 0.8677
H56 H -0.1504 0.1861 0.8214
C62 C -0.0976(7) 0.1919(8) 0.9322(6)
H57 H -0.1482 0.1336 0.9198
H58 H -0.1128 0.2324 0.9729
C63 C 0.0311(4) 0.1766(4) 0.9573(3)
H59 H 0.0699 0.1960 1.0138
H60 H 0.0386 0.1117 0.9446
C64 C 0.0812(4) 0.2346(4) 0.9116(3)
H61 H 0.1370 0.2850 0.9469
H62 H 0.1205 0.1976 0.8830
O6 O -0.0014(3) 0.4871(2) 0.87866(18)
C65 C 0.0679(5) 0.5724(4) 0.8846(3)
H63 H 0.1089 0.5675 0.8472
H64 H 0.1241 0.5900 0.9377
C66 C -0.0144(5) 0.6392(4) 0.8661(3)
H65 H -0.0469 0.6393 0.8094
H66 H 0.0220 0.7013 0.8919
C67 C -0.1050(5) 0.6055(4) 0.8978(4)
H67 H -0.0829 0.6279 0.9540
H68 H -0.1792 0.6251 0.8700
C68 C -0.1098(5) 0.5052(4) 0.8834(4)
H69 H -0.1237 0.4776 0.9263
H70 H -0.1719 0.4796 0.8342
O7 O -0.1054(3) 0.3697(2) 0.71550(17)
C69 C -0.1027(5) 0.4424(4) 0.6714(3)
H71 H -0.0266 0.4790 0.6912
H72 H -0.1601 0.4829 0.6745
C70 C -0.1293(6) 0.3979(6) 0.5885(3)
H73 H -0.1924 0.4238 0.5524
H74 H -0.0616 0.4063 0.5725
C71 C -0.1620(7) 0.3012(6) 0.5890(4)
H75 H -0.1020 0.2651 0.5831
H76 H -0.2339 0.2782 0.5457
C72 C -0.1771(5) 0.2934(4) 0.6646(3)
H77 H -0.2574 0.2958 0.6604
H78 H -0.1534 0.2358 0.6829
O8 O 0.1510(3) 0.3915(2) 0.80136(18)
C73 C 0.1620(4) 0.3432(4) 0.7328(3)
H79 H 0.1436 0.3808 0.6904
H80 H 0.1091 0.2858 0.7153
C74 C 0.2839(4) 0.3231(4) 0.7532(4)
H81 H 0.2878 0.2618 0.7282
H82 H 0.3305 0.3689 0.7376
C75 C 0.3218(5) 0.3286(4) 0.8387(3)
H83 H 0.4056 0.3420 0.8625
H84 H 0.2961 0.2714 0.8541
C76 C 0.2646(5) 0.4060(4) 0.8610(3)
H85 H 0.2596 0.4042 0.9132
H86 H 0.3062 0.4652 0.8607
H41? H 0.6169 0.2912 0.3881
H42? H 0.4942 0.2475 0.3855
C53? C 0.6083(18) 0.1618(10) 0.4013(7)
H43? H 0.5506 0.1184 0.4092
H44? H 0.6711 0.1818 0.4513
H45? H 0.7370 0.1356 0.3523
H46? H 0.6374 0.0513 0.3285
C77? C -0.1099(10) 0.1962(10) 0.8409(8)
H87? H -0.1812 0.2236 0.8334
H88? H -0.1185 0.1536 0.7936
C78? C -0.0847(15) 0.1562(18) 0.9002(13)
H89? H -0.0992 0.0899 0.8820
H90? H -0.1383 0.1702 0.9277
H91? H 0.0685 0.1211 0.9672
H92? H 0.0332 0.2110 1.0069
loop_
_geom_bond_atom_site_label_1
_geom_bond_atom_site_label_2
_geom_bond_site_symmetry_1
_geom_bond_site_symmetry_2
Li1 O1 1_555 1_555
O1 B1 1_555 1_555
O2 B2 1_555 1_555
O3 Li1 1_555 1_555
B1 C1 1_555 1_555
B2 O1 1_555 1_555
B3 O2 1_555 1_555
B4 O3 1_555 1_555
C1 C2 1_555 1_555
C2 C3 1_555 1_555
C3 H1 1_555 1_555
C4 C3 1_555 1_555
H2 C4 1_555 1_555
C5 C4 1_555 1_555
H3 C5 1_555 1_555
C6 C1 1_555 1_555
H4 C6 1_555 1_555
C7 B1 1_555 1_555
C8 C2 1_555 1_555
C9 C8 1_555 1_555
H5 C9 1_555 1_555
C10 C9 1_555 1_555
H6 C10 1_555 1_555
C11 C10 1_555 1_555
H7 C11 1_555 1_555
C12 C7 1_555 1_555
H8 C12 1_555 1_555
C13 B1 1_555 1_555
C14 C13 1_555 1_555
C15 C14 1_555 1_555
H9 C15 1_555 1_555
C16 C15 1_555 1_555
H10 C16 1_555 1_555
C17 C16 1_555 1_555
H11 C17 1_555 1_555
C18 C13 1_555 1_555
H12 C18 1_555 1_555
C19 B2 1_555 1_555
C20 C14 1_555 1_555
C21 C20 1_555 1_555
H13 C21 1_555 1_555
C22 C21 1_555 1_555
H14 C22 1_555 1_555
C23 C22 1_555 1_555
H15 C23 1_555 1_555
C24 C19 1_555 1_555
H16 C24 1_555 1_555
C25 B3 1_555 1_555
C26 C25 1_555 1_555
C27 C26 1_555 1_555
H17 C27 1_555 1_555
C28 C27 1_555 1_555
H18 C28 1_555 1_555
C29 C28 1_555 1_555
H19 C29 1_555 1_555
C30 C25 1_555 1_555
H20 C30 1_555 1_555
C31 B4 1_555 1_555
C32 C26 1_555 1_555
C33 C32 1_555 1_555
H21 C33 1_555 1_555
C34 C33 1_555 1_555
H22 C34 1_555 1_555
C35 C34 1_555 1_555
H23 C35 1_555 1_555
C36 C31 1_555 1_555
H24 C36 1_555 1_555
C37 B4 1_555 1_555
C38 C37 1_555 1_555
C39 C38 1_555 1_555
H25 C39 1_555 1_555
C40 C39 1_555 1_555
H26 C40 1_555 1_555
C41 C40 1_555 1_555
H27 C41 1_555 1_555
C42 C37 1_555 1_555
H28 C42 1_555 1_555
C43 B4 1_555 1_555
C44 C38 1_555 1_555
C45 C44 1_555 1_555
H29 C45 1_555 1_555
C46 C45 1_555 1_555
H30 C46 1_555 1_555
C47 C46 1_555 1_555
H31 C47 1_555 1_555
C48 C43 1_555 1_555
H32 C48 1_555 1_555
O4 Li1 1_555 1_555
C49 O4 1_555 1_555
H33 C49 1_555 1_555
H34 C49 1_555 1_555
C50 C49 1_555 1_555
H35 C50 1_555 1_555
H36 C50 1_555 1_555
C51 C50 1_555 1_555
H37 C51 1_555 1_555
H38 C51 1_555 1_555
C52 O4 1_555 1_555
H39 C52 1_555 1_555
H40 C52 1_555 1_555
C54 C55 1_555 1_555
C55 H47 1_555 1_555
C56 C55 1_555 1_555
H48 C56 1_555 1_555
C57 C56 1_555 1_555
H49 C57 1_555 1_555
C58 C57 1_555 1_555
H50 C58 1_555 1_555
C59 C54 1_555 1_555
H51 C59 1_555 1_555
C60 C54 1_555 1_555
H52 C60 1_555 1_555
H53 C60 1_555 1_555
H54 C60 1_555 1_555
Li2 O5 1_555 1_555
O5 C61 1_555 1_555
C61 H55 1_555 1_555
H56 C61 1_555 1_555
C62 C61 1_555 1_555
H57 C62 1_555 1_555
H58 C62 1_555 1_555
C63 C62 1_555 1_555
H59 C63 1_555 1_555
H60 C63 1_555 1_555
C64 O5 1_555 1_555
H61 C64 1_555 1_555
H62 C64 1_555 1_555
O6 Li2 1_555 1_555
C65 O6 1_555 1_555
H63 C65 1_555 1_555
H64 C65 1_555 1_555
C66 C65 1_555 1_555
H65 C66 1_555 1_555
H66 C66 1_555 1_555
C67 C66 1_555 1_555
H67 C67 1_555 1_555
H68 C67 1_555 1_555
C68 O6 1_555 1_555
H69 C68 1_555 1_555
H70 C68 1_555 1_555
O7 Li2 1_555 1_555
C69 O7 1_555 1_555
H71 C69 1_555 1_555
H72 C69 1_555 1_555
C70 C69 1_555 1_555
H73 C70 1_555 1_555
H74 C70 1_555 1_555
C71 C70 1_555 1_555
H75 C71 1_555 1_555
H76 C71 1_555 1_555
C72 O7 1_555 1_555
H77 C72 1_555 1_555
H78 C72 1_555 1_555
O8 Li2 1_555 1_555
C73 O8 1_555 1_555
H79 C73 1_555 1_555
H80 C73 1_555 1_555
C74 C73 1_555 1_555
H81 C74 1_555 1_555
H82 C74 1_555 1_555
C75 C74 1_555 1_555
H83 C75 1_555 1_555
H84 C75 1_555 1_555
C76 O8 1_555 1_555
H85 C76 1_555 1_555
H86 C76 1_555 1_555
O3 B3 1_555 1_555
C5 C6 1_555 1_555
C7 C8 1_555 1_555
C11 C12 1_555 1_555
C17 C18 1_555 1_555
C19 C20 1_555 1_555
C23 C24 1_555 1_555
C29 C30 1_555 1_555
C31 C32 1_555 1_555
C35 C36 1_555 1_555
C41 C42 1_555 1_555
C43 C44 1_555 1_555
C47 C48 1_555 1_555
C51 C52 1_555 1_555
C58 C59 1_555 1_555
C63 C64 1_555 1_555
C67 C68 1_555 1_555
C71 C72 1_555 1_555
C75 C76 1_555 1_555

#END
