
#######################################################################
#
#                 Cambridge Crystallographic Data Centre
#                                CCDC 
#
#######################################################################
#
# If this CIF has been generated from an entry in the Cambridge 
# Structural Database, then it will include bibliographic, chemical, 
# crystal, experimental, refinement or atomic coordinate data resulting 
# from the CCDC's data processing and validation procedures.
#
#######################################################################

data_QOCPIJ
_chemical_formula_moiety         'C19 H16 N2 O2'
_chemical_name_systematic        
'Methyl 4-((2-(pyridin-2-yl)phenyl)amino)benzoate'
_symmetry_cell_setting           orthorhombic
_symmetry_space_group_name_H-M   'P n a 21'
_symmetry_Int_Tables_number      33
_space_group_name_Hall           'P 2c -2n'
loop_
_symmetry_equiv_pos_site_id
_symmetry_equiv_pos_as_xyz
1 x,y,z
2 -x,-y,1/2+z
3 1/2-x,1/2+y,1/2+z
4 1/2+x,1/2-y,z
_cell_length_a                   15.931(7)
_cell_length_b                   12.819(6)
_cell_length_c                   7.701(4)
_cell_angle_alpha                90
_cell_angle_beta                 90
_cell_angle_gamma                90
_cell_volume                     1572.69
_cell_formula_units_Z            4
loop_
_atom_site_label
_atom_site_type_symbol
_atom_site_fract_x
_atom_site_fract_y
_atom_site_fract_z
N1 N 0.18710(14) 0.34889(17) 0.3906(3)
O1 O -0.09182(12) -0.19428(14) 0.3885(3)
O2 O -0.00435(12) -0.29327(18) 0.2335(3)
N2 N 0.19500(12) 0.14229(19) 0.3306(3)
C1 C 0.1568(2) 0.5287(3) 0.3326(5)
H1 H 0.1217 0.5860 0.3481
C2 C 0.13940(19) 0.4341(3) 0.4072(4)
H2 H 0.0910 0.4288 0.4740
C3 C 0.25816(16) 0.3556(2) 0.2943(4)
C4 C 0.31146(14) 0.2610(2) 0.2790(4)
C5 C 0.28147(14) 0.1586(2) 0.3002(4)
C6 C 0.14614(15) 0.0533(2) 0.3154(4)
C7 C 0.16575(16) -0.0360(2) 0.2214(4)
H3 H 0.2154 -0.0389 0.1582
C8 C 0.11176(16) -0.1207(2) 0.2214(4)
H4 H 0.1266 -0.1802 0.1597
C9 C 0.03632(15) -0.1192(2) 0.3104(4)
C10 C -0.01947(17) -0.2122(2) 0.3037(4)
C11 C -0.15146(19) -0.2805(2) 0.3910(5)
H5 H -0.1635 -0.3018 0.2742
H6 H -0.2024 -0.2584 0.4466
H7 H -0.1278 -0.3380 0.4541
C12 C 0.2284(3) 0.5350(3) 0.2338(5)
H8 H 0.2428 0.5976 0.1805
C13 C 0.2789(2) 0.4486(3) 0.2138(4)
H9 H 0.3271 0.4528 0.1460
C14 C 0.39813(16) 0.2740(2) 0.2502(4)
H10 H 0.4194 0.3410 0.2362
C15 C 0.45204(17) 0.1908(3) 0.2422(4)
H11 H 0.5087 0.2019 0.2194
C16 C 0.42272(16) 0.0908(3) 0.2678(5)
H12 H 0.4595 0.0345 0.2653
C17 C 0.33729(17) 0.0751(2) 0.2974(5)
H13 H 0.3173 0.0078 0.3156
C18 C 0.06862(16) 0.0557(2) 0.4025(4)
H14 H 0.0532 0.1153 0.4636
C19 C 0.01502(15) -0.0288(2) 0.3987(4)
H15 H -0.0362 -0.0250 0.4563
H16 H 0.1709(15) 0.2060(19) 0.367(4)
loop_
_geom_bond_atom_site_label_1
_geom_bond_atom_site_label_2
_geom_bond_site_symmetry_1
_geom_bond_site_symmetry_2
N1 C2 1_555 1_555
O1 C10 1_555 1_555
O2 C10 1_555 1_555
N2 C5 1_555 1_555
C1 H1 1_555 1_555
C2 C1 1_555 1_555
H2 C2 1_555 1_555
C3 N1 1_555 1_555
C4 C3 1_555 1_555
C5 C4 1_555 1_555
C6 N2 1_555 1_555
C7 C6 1_555 1_555
H3 C7 1_555 1_555
C8 C7 1_555 1_555
H4 C8 1_555 1_555
C9 C8 1_555 1_555
C10 C9 1_555 1_555
C11 O1 1_555 1_555
H5 C11 1_555 1_555
H6 C11 1_555 1_555
H7 C11 1_555 1_555
C12 C1 1_555 1_555
H8 C12 1_555 1_555
C13 C3 1_555 1_555
H9 C13 1_555 1_555
C14 C4 1_555 1_555
H10 C14 1_555 1_555
C15 C14 1_555 1_555
H11 C15 1_555 1_555
C16 C15 1_555 1_555
H12 C16 1_555 1_555
C17 C5 1_555 1_555
H13 C17 1_555 1_555
C18 C6 1_555 1_555
H14 C18 1_555 1_555
C19 C9 1_555 1_555
H15 C19 1_555 1_555
H16 N2 1_555 1_555
C12 C13 1_555 1_555
C16 C17 1_555 1_555
C18 C19 1_555 1_555

#END
