
#######################################################################
#
#                 Cambridge Crystallographic Data Centre
#                                CCDC 
#
#######################################################################
#
# If this CIF has been generated from an entry in the Cambridge 
# Structural Database, then it will include bibliographic, chemical, 
# crystal, experimental, refinement or atomic coordinate data resulting 
# from the CCDC's data processing and validation procedures.
#
#######################################################################

data_QODREG
_chemical_formula_moiety         'C26 H18 Br2 O2'
_chemical_name_systematic        
cis-9,10-bis(3-Bromophenyl)-9,10-dihydroxy-9,10-dihydroanthracene
_symmetry_cell_setting           monoclinic
_symmetry_space_group_name_H-M   'C 2/c'
_symmetry_Int_Tables_number      15
_space_group_name_Hall           '-C 2yn'
loop_
_symmetry_equiv_pos_site_id
_symmetry_equiv_pos_as_xyz
1 x,y,z
2 1/2+x,1/2+y,z
3 x,-y,1/2+z
4 1/2+x,1/2-y,1/2+z
5 -x,-y,-z
6 1/2-x,1/2-y,-z
7 -x,y,1/2-z
8 1/2-x,1/2+y,1/2-z
_cell_length_a                   28.194(2)
_cell_length_b                   16.7384(14)
_cell_length_c                   18.6179(12)
_cell_angle_alpha                90
_cell_angle_beta                 97.453(6)
_cell_angle_gamma                90
_cell_volume                     8711.98
_exptl_crystal_colour            colorless
_exptl_crystal_description       cube
_chemical_melting_point          427K
_cell_formula_units_Z            16
_exptl_crystal_recrystallization_method toluene
loop_
_atom_site_label
_atom_site_type_symbol
_atom_site_fract_x
_atom_site_fract_y
_atom_site_fract_z
Br1 Br 0.09915(3) 0.38955(5) -0.35235(5)
Br2 Br 0.20258(4) 0.45126(6) -0.50547(5)
O1 O 0.23653(13) 0.2354(2) -0.1023(2)
H1 H 0.2603(26) 0.2390(46) -0.0808(39)
O2 O 0.3404(2) 0.2864(4) -0.3305(3)
H2 H 0.3562(36) 0.2799(67) -0.3052(53)
C1 C 0.2761(2) 0.1082(3) -0.1666(3)
H3 H 0.2599(2) 0.1007(3) -0.1267(3)
C2 C 0.3027(3) 0.0457(4) -0.1903(4)
H4 H 0.3038(3) -0.0037(4) -0.1671(4)
C3 C 0.3277(3) 0.0581(4) -0.2491(4)
H5 H 0.3458(3) 0.0170(4) -0.2655(4)
C4 C 0.3255(2) 0.1307(4) -0.2828(4)
H6 H 0.3420(2) 0.1383(4) -0.3224(4)
C5 C 0.3150(2) 0.4143(4) -0.2465(4)
H7 H 0.3338(2) 0.4232(4) -0.2832(4)
C6 C 0.3097(3) 0.4739(4) -0.1979(4)
H8 H 0.3255(3) 0.5222(4) -0.2012(4)
C7 C 0.2816(3) 0.4630(4) -0.1450(4)
H9 H 0.2771(3) 0.5046(4) -0.1134(4)
C8 C 0.2597(2) 0.3905(3) -0.1377(3)
H10 H 0.2410(2) 0.3830(3) -0.1007(3)
C9 C 0.2421(2) 0.2480(3) -0.1770(3)
C10 C 0.2974(2) 0.2741(4) -0.2972(3)
C11 C 0.2735(2) 0.1817(3) -0.2015(3)
C12 C 0.2992(2) 0.1936(3) -0.2596(3)
C13 C 0.2927(2) 0.3404(3) -0.2419(3)
C14 C 0.2653(2) 0.3285(3) -0.1855(3)
C15 C 0.1917(2) 0.2437(3) -0.2193(3)
C16 C 0.1704(2) 0.3094(3) -0.2566(3)
H11 H 0.1857(2) 0.3587(3) -0.2532(3)
C17 C 0.1262(2) 0.3009(4) -0.2988(3)
C18 C 0.1021(2) 0.2297(4) -0.3037(3)
H12 H 0.0727(2) 0.2249(4) -0.3323(3)
C19 C 0.1225(2) 0.1653(4) -0.2649(3)
H13 H 0.1066(2) 0.1165(4) -0.2676(3)
C20 C 0.1663(2) 0.1723(3) -0.2223(3)
H14 H 0.1789(2) 0.1287(3) -0.1952(3)
C21 C 0.2571(2) 0.2773(3) -0.3600(3)
C22 C 0.2296(2) 0.2110(4) -0.3830(3)
H15 H 0.2349(2) 0.1626(4) -0.3588(3)
C23 C 0.1942(3) 0.2167(4) -0.4421(4)
H16 H 0.1759(3) 0.1722(4) -0.4572(4)
C24 C 0.1861(3) 0.2883(5) -0.4785(4)
H17 H 0.1623(3) 0.2922(5) -0.5180(4)
C25 C 0.2133(2) 0.3534(4) -0.4562(3)
C26 C 0.2479(2) 0.3492(4) -0.3970(3)
H18 H 0.2653(2) 0.3946(4) -0.3816(3)
Br3 Br 0.44948(4) 0.43074(10) -0.18882(6)
Br4 Br 0.55448(4) 0.16034(8) -0.08794(7)
O3 O 0.31949(14) 0.2477(3) -0.0055(2)
H19 H 0.3084(31) 0.2446(55) 0.0279(46)
O4 O 0.4855(2) 0.3182(3) 0.1769(2)
H20 H 0.4707(32) 0.3174(59) 0.2042(47)
C27 C 0.3403(2) 0.4051(4) 0.0366(3)
H21 H 0.3122(2) 0.3939(4) 0.0063(3)
C28 C 0.3464(3) 0.4791(4) 0.0690(4)
H22 H 0.3226(3) 0.5178(4) 0.0603(4)
C29 C 0.3877(3) 0.4953(4) 0.1140(4)
H23 H 0.3916(3) 0.5449(4) 0.1366(4)
C30 C 0.4232(2) 0.4393(4) 0.1261(4)
H24 H 0.4511(2) 0.4515(4) 0.1565(4)
C31 C 0.4571(3) 0.1595(4) 0.1537(4)
H25 H 0.4857(3) 0.1702(4) 0.1830(4)
C32 C 0.4369(3) 0.0851(5) 0.1545(5)
H26 H 0.4516(3) 0.0459(5) 0.1851(5)
C33 C 0.3959(3) 0.0681(5) 0.1110(5)
H27 H 0.3827(3) 0.0171(5) 0.1115(5)
C34 C 0.3735(3) 0.1254(4) 0.0663(4)
H28 H 0.3452(3) 0.1132(4) 0.0370(4)
C35 C 0.3696(2) 0.2652(4) 0.0128(3)
C36 C 0.4573(2) 0.3010(4) 0.1088(3)
C37 C 0.3758(2) 0.3469(4) 0.0486(3)
C38 C 0.4180(2) 0.3645(4) 0.0936(3)
C39 C 0.4350(2) 0.2198(4) 0.1091(3)
C40 C 0.3929(2) 0.2022(4) 0.0641(3)
C41 C 0.3906(2) 0.2655(5) -0.0600(3)
C42 C 0.3963(3) 0.1940(6) -0.0952(4)
H29 H 0.3856(3) 0.1468(6) -0.0765(4)
C43 C 0.4179(3) 0.1921(8) -0.1581(5)
H30 H 0.4219(3) 0.1438(8) -0.1814(5)
C44 C 0.4335(3) 0.2631(9) -0.1859(4)
H31 H 0.4480(3) 0.2625(9) -0.2280(4)
C45 C 0.4276(3) 0.3340(7) -0.1514(4)
C46 C 0.4057(2) 0.3367(5) -0.0889(3)
H32 H 0.4011(2) 0.3853(5) -0.0665(3)
C47 C 0.4936(2) 0.3078(4) 0.0530(3)
C48 C 0.5164(3) 0.3795(5) 0.0463(5)
H33 H 0.5091(3) 0.4238(5) 0.0730(5)
C49 C 0.5507(3) 0.3849(6) -0.0017(6)
H34 H 0.5660(3) 0.4334(6) -0.0068(6)
C50 C 0.5622(3) 0.3209(6) -0.0408(5)
H35 H 0.5854(3) 0.3252(6) -0.0720(5)
C51 C 0.5394(2) 0.2506(5) -0.0338(4)
C52 C 0.5051(2) 0.2420(4) 0.0136(4)
H36 H 0.4903(2) 0.1930(4) 0.0185(4)
loop_
_geom_bond_atom_site_label_1
_geom_bond_atom_site_label_2
_geom_bond_site_symmetry_1
_geom_bond_site_symmetry_2
Br1 C17 1_555 1_555
Br2 C25 1_555 1_555
O1 H1 1_555 1_555
O2 H2 1_555 1_555
C1 H3 1_555 1_555
C2 C1 1_555 1_555
H4 C2 1_555 1_555
C3 C2 1_555 1_555
H5 C3 1_555 1_555
C4 C3 1_555 1_555
H6 C4 1_555 1_555
C5 H7 1_555 1_555
C6 C5 1_555 1_555
H8 C6 1_555 1_555
C7 C6 1_555 1_555
H9 C7 1_555 1_555
C8 C7 1_555 1_555
H10 C8 1_555 1_555
C9 O1 1_555 1_555
C10 O2 1_555 1_555
C11 C1 1_555 1_555
C12 C4 1_555 1_555
C13 C5 1_555 1_555
C14 C8 1_555 1_555
C15 C9 1_555 1_555
C16 C15 1_555 1_555
H11 C16 1_555 1_555
C17 C16 1_555 1_555
C18 C17 1_555 1_555
H12 C18 1_555 1_555
C19 C18 1_555 1_555
H13 C19 1_555 1_555
C20 C15 1_555 1_555
H14 C20 1_555 1_555
C21 C10 1_555 1_555
C22 C21 1_555 1_555
H15 C22 1_555 1_555
C23 C22 1_555 1_555
H16 C23 1_555 1_555
C24 C23 1_555 1_555
H17 C24 1_555 1_555
C25 C24 1_555 1_555
C26 C21 1_555 1_555
H18 C26 1_555 1_555
Br3 C45 1_555 1_555
Br4 C51 1_555 1_555
O3 H19 1_555 1_555
O4 H20 1_555 1_555
C27 H21 1_555 1_555
C28 C27 1_555 1_555
H22 C28 1_555 1_555
C29 C28 1_555 1_555
H23 C29 1_555 1_555
C30 C29 1_555 1_555
H24 C30 1_555 1_555
C31 H25 1_555 1_555
C32 C31 1_555 1_555
H26 C32 1_555 1_555
C33 C32 1_555 1_555
H27 C33 1_555 1_555
C34 C33 1_555 1_555
H28 C34 1_555 1_555
C35 O3 1_555 1_555
C36 O4 1_555 1_555
C37 C27 1_555 1_555
C38 C30 1_555 1_555
C39 C31 1_555 1_555
C40 C34 1_555 1_555
C41 C35 1_555 1_555
C42 C41 1_555 1_555
H29 C42 1_555 1_555
C43 C42 1_555 1_555
H30 C43 1_555 1_555
C44 C43 1_555 1_555
H31 C44 1_555 1_555
C45 C44 1_555 1_555
C46 C41 1_555 1_555
H32 C46 1_555 1_555
C47 C36 1_555 1_555
C48 C47 1_555 1_555
H33 C48 1_555 1_555
C49 C48 1_555 1_555
H34 C49 1_555 1_555
C50 C49 1_555 1_555
H35 C50 1_555 1_555
C51 C50 1_555 1_555
C52 C47 1_555 1_555
H36 C52 1_555 1_555
C9 C11 1_555 1_555
C9 C14 1_555 1_555
C10 C12 1_555 1_555
C10 C13 1_555 1_555
C11 C12 1_555 1_555
C13 C14 1_555 1_555
C19 C20 1_555 1_555
C25 C26 1_555 1_555
C35 C37 1_555 1_555
C35 C40 1_555 1_555
C36 C38 1_555 1_555
C36 C39 1_555 1_555
C37 C38 1_555 1_555
C39 C40 1_555 1_555
C45 C46 1_555 1_555
C51 C52 1_555 1_555

#END
