
#######################################################################
#
#                 Cambridge Crystallographic Data Centre
#                                CCDC 
#
#######################################################################
#
# If this CIF has been generated from an entry in the Cambridge 
# Structural Database, then it will include bibliographic, chemical, 
# crystal, experimental, refinement or atomic coordinate data resulting 
# from the CCDC's data processing and validation procedures.
#
#######################################################################

data_QOFJOM
_chemical_formula_moiety         'C25 H17 Cl4 N1 O4'
_chemical_name_systematic        
2-(2-(3,4-dichlorobenzoyl)-3-(nitromethyl)-2,3-dihydro-1H-inden-1-yl)-1-(3,4-dichlorophenyl)ethanone
_symmetry_cell_setting           orthorhombic
_symmetry_space_group_name_H-M   'P 21 21 21'
_symmetry_Int_Tables_number      19
_space_group_name_Hall           'P 2ac 2ab'
loop_
_symmetry_equiv_pos_site_id
_symmetry_equiv_pos_as_xyz
1 x,y,z
2 1/2+x,1/2-y,-z
3 -x,1/2+y,1/2-z
4 1/2-x,-y,1/2+z
_cell_length_a                   9.944(5)
_cell_length_b                   11.239(5)
_cell_length_c                   20.791(12)
_cell_angle_alpha                90
_cell_angle_beta                 90
_cell_angle_gamma                90
_cell_volume                     2323.61
_exptl_crystal_colour            colorless
_exptl_crystal_description       block
_cell_formula_units_Z            4
loop_
_atom_site_label
_atom_site_type_symbol
_atom_site_fract_x
_atom_site_fract_y
_atom_site_fract_z
Cl1 Cl 0.6265(2) 0.1448(3) 0.88776(13)
Cl2 Cl 0.4108(3) -0.0399(2) 0.84191(13)
Cl3 Cl 0.3002(3) 0.1521(2) 0.99987(13)
Cl4 Cl 0.0931(3) -0.03555(18) 0.94494(11)
O1 O 0.3845(6) 0.2550(6) 0.6253(3)
O2 O 0.4254(8) 0.0703(7) 0.6338(5)
O3 O 0.1513(6) 0.4100(5) 0.7168(3)
O4 O -0.1443(7) 0.4057(5) 0.8042(3)
N1 N 0.3530(7) 0.1516(7) 0.6212(4)
C1 C 0.1101(7) 0.2118(6) 0.6147(3)
H1 H 0.1366 0.2907 0.5991
C2 C 0.0755(7) 0.2194(5) 0.6889(4)
H2 H 0.0854 0.1405 0.7085
C3 C -0.0727(7) 0.2557(6) 0.6898(3)
H3 H -0.0773 0.3423 0.6848
C4 C -0.1291(8) 0.1992(6) 0.6289(3)
C5 C -0.2599(7) 0.1753(7) 0.6123(4)
H4 H -0.3296 0.1905 0.6410
C6 C -0.2865(10) 0.1272(8) 0.5508(5)
H5 H -0.3740 0.1074 0.5391
C7 C -0.1839(10) 0.1101(7) 0.5089(4)
H6 H -0.2039 0.0816 0.4680
C8 C -0.0524(10) 0.1325(6) 0.5237(4)
H7 H 0.0158 0.1182 0.4941
C9 C -0.0231(7) 0.1790(6) 0.5866(4)
C10 C 0.2168(8) 0.1234(7) 0.5976(4)
H8 H 0.1907 0.0465 0.6146
H9 H 0.2202 0.1164 0.5511
C11 C 0.1651(7) 0.3062(7) 0.7228(4)
C12 C 0.2806(7) 0.2602(7) 0.7644(4)
C13 C 0.3731(8) 0.3412(8) 0.7866(4)
H10 H 0.3628 0.4212 0.7764
C14 C 0.4809(10) 0.3063(9) 0.8238(5)
H11 H 0.5450 0.3612 0.8372
C15 C 0.4911(8) 0.1887(9) 0.8403(4)
C16 C 0.3999(8) 0.1081(7) 0.8198(4)
C17 C 0.2924(7) 0.1441(7) 0.7814(4)
H12 H 0.2292 0.0888 0.7675
C18 C -0.1512(8) 0.2220(7) 0.7506(4)
H13 H -0.1327 0.1400 0.7622
H14 H -0.2470 0.2299 0.7429
C19 C -0.1081(8) 0.3054(7) 0.8056(4)
C20 C -0.0132(8) 0.2618(6) 0.8564(4)
C21 C 0.0713(8) 0.3443(7) 0.8850(4)
H15 H 0.0631 0.4243 0.8743
C22 C 0.1673(9) 0.3102(7) 0.9290(4)
H16 H 0.2253 0.3663 0.9467
C23 C 0.1771(8) 0.1929(7) 0.9467(4)
C24 C 0.0875(8) 0.1118(6) 0.9210(4)
C25 C -0.0037(7) 0.1460(7) 0.8744(4)
H17 H -0.0590 0.0894 0.8553
loop_
_geom_bond_atom_site_label_1
_geom_bond_atom_site_label_2
_geom_bond_site_symmetry_1
_geom_bond_site_symmetry_2
Cl1 C15 1_555 1_555
Cl2 C16 1_555 1_555
Cl3 C23 1_555 1_555
Cl4 C24 1_555 1_555
O1 N1 1_555 1_555
O2 N1 1_555 1_555
O3 C11 1_555 1_555
O4 C19 1_555 1_555
N1 C10 1_555 1_555
C1 H1 1_555 1_555
C2 C1 1_555 1_555
H2 C2 1_555 1_555
C3 C2 1_555 1_555
H3 C3 1_555 1_555
C4 C3 1_555 1_555
C5 C4 1_555 1_555
H4 C5 1_555 1_555
C6 C5 1_555 1_555
H5 C6 1_555 1_555
C7 C6 1_555 1_555
H6 C7 1_555 1_555
C8 C7 1_555 1_555
H7 C8 1_555 1_555
C9 C1 1_555 1_555
C10 C1 1_555 1_555
H8 C10 1_555 1_555
H9 C10 1_555 1_555
C11 C2 1_555 1_555
C12 C11 1_555 1_555
C13 C12 1_555 1_555
H10 C13 1_555 1_555
C14 C13 1_555 1_555
H11 C14 1_555 1_555
C15 C14 1_555 1_555
C16 C15 1_555 1_555
C17 C12 1_555 1_555
H12 C17 1_555 1_555
C18 C3 1_555 1_555
H13 C18 1_555 1_555
H14 C18 1_555 1_555
C19 C18 1_555 1_555
C20 C19 1_555 1_555
C21 C20 1_555 1_555
H15 C21 1_555 1_555
C22 C21 1_555 1_555
H16 C22 1_555 1_555
C23 C22 1_555 1_555
C24 C23 1_555 1_555
C25 C20 1_555 1_555
H17 C25 1_555 1_555
C4 C9 1_555 1_555
C8 C9 1_555 1_555
C16 C17 1_555 1_555
C24 C25 1_555 1_555

#END
