
#######################################################################
#
#                 Cambridge Crystallographic Data Centre
#                                CCDC 
#
#######################################################################
#
# If this CIF has been generated from an entry in the Cambridge 
# Structural Database, then it will include bibliographic, chemical, 
# crystal, experimental, refinement or atomic coordinate data resulting 
# from the CCDC's data processing and validation procedures.
#
#######################################################################

data_QOFJOL
_chemical_formula_moiety         'C20 H26 Cl1 N1 O3 S1'
_chemical_name_systematic        
N-(2-(4-Chlorophenyl)propanoyl)-1-methylbornane-10,2-sultam
_symmetry_cell_setting           monoclinic
_symmetry_space_group_name_H-M   'C 2/c'
_symmetry_Int_Tables_number      15
_space_group_name_Hall           '-C 2yn'
loop_
_symmetry_equiv_pos_site_id
_symmetry_equiv_pos_as_xyz
1 x,y,z
2 1/2+x,1/2+y,z
3 -x,y,1/2-z
4 1/2-x,1/2+y,1/2-z
5 -x,-y,-z
6 1/2-x,1/2-y,-z
7 x,-y,1/2+z
8 1/2+x,1/2-y,1/2+z
_cell_length_a                   24.6517(10)
_cell_length_b                   7.6430(3)
_cell_length_c                   22.1608(9)
_cell_angle_alpha                90
_cell_angle_beta                 109.4770(10)
_cell_angle_gamma                90
_cell_volume                     3936.45
_exptl_crystal_colour            colorless
_exptl_crystal_description       block
_cell_formula_units_Z            8
_exptl_crystal_recrystallization_method dichloromethane
loop_
_atom_site_label
_atom_site_type_symbol
_atom_site_fract_x
_atom_site_fract_y
_atom_site_fract_z
C1 C 0.11339(8) 0.3105(3) -0.06399(9)
C2 C 0.11867(10) 0.3198(3) -0.13128(10)
H1 H 0.1137 0.4387 -0.1474
H2 H 0.1558 0.2766 -0.1308
C3 C 0.06989(11) 0.2015(4) -0.17175(11)
H3 H 0.0849 0.1021 -0.1884
H4 H 0.0434 0.2656 -0.2072
C4 C 0.04034(10) 0.1423(4) -0.12372(11)
H5 H 0.0007 0.1016 -0.1437
C5 C 0.08001(9) 0.0101(3) -0.07791(11)
H6 H 0.0912 -0.0828 -0.1012
H7 H 0.0617 -0.0407 -0.0495
C6 C 0.13243(8) 0.1241(3) -0.04048(8)
H8 H 0.1660 0.0908 -0.0521
C7 C 0.04633(9) 0.3049(3) -0.08060(11)
C8 C 0.01610(12) 0.4693(4) -0.11566(14)
H9 H -0.0248 0.4522 -0.1297
H10 H 0.0280 0.4909 -0.1520
H11 H 0.0261 0.5677 -0.0872
C9 C 0.02409(9) 0.2754(3) -0.02455(12)
H12 H -0.0171 0.2656 -0.0405
H13 H 0.0351 0.3723 0.0045
H14 H 0.0404 0.1696 -0.0026
C10 C 0.14806(8) 0.4422(2) -0.01475(9)
H15 H 0.1229 0.5401 -0.0131
C11 C 0.20150(10) 0.5146(3) -0.02619(12)
H16 H 0.2241 0.4196 -0.0333
H17 H 0.2239 0.5803 0.0106
H18 H 0.1901 0.5896 -0.0631
C12 C 0.16253(9) -0.0273(3) 0.06472(10)
C13 C 0.17899(9) -0.0208(3) 0.13723(9)
H19 H 0.1768 0.1006 0.1504
C14 C 0.13447(11) -0.1306(4) 0.15525(13)
H20 H 0.1346 -0.2482 0.1400
H21 H 0.0969 -0.0805 0.1361
H22 H 0.1441 -0.1318 0.2009
C15 C 0.23966(9) -0.0879(3) 0.16938(9)
C16 C 0.28060(10) 0.0159(3) 0.21258(10)
H23 H 0.2705 0.1279 0.2213
C17 C 0.33565(10) -0.0420(3) 0.24289(10)
H24 H 0.3623 0.0291 0.2723
C18 C 0.35098(9) -0.2068(3) 0.22924(10)
C19 C 0.31159(10) -0.3138(3) 0.18749(11)
H25 H 0.3222 -0.4253 0.1788
C20 C 0.25609(10) -0.2553(3) 0.15831(10)
H26 H 0.2292 -0.3294 0.1307
Cl1 Cl 0.42204(3) -0.27529(11) 0.26487(4)
N1 N 0.14780(7) 0.1266(2) 0.03007(7)
O1 O 0.13477(7) 0.3813(2) 0.09856(7)
O2 O 0.23002(7) 0.32702(19) 0.09180(8)
O3 O 0.15939(8) -0.1640(2) 0.03573(8)
S1 S 0.16878(2) 0.32760(6) 0.06102(2)
loop_
_geom_bond_atom_site_label_1
_geom_bond_atom_site_label_2
_geom_bond_site_symmetry_1
_geom_bond_site_symmetry_2
C1 C2 1_555 1_555
C2 H1 1_555 1_555
H2 C2 1_555 1_555
C3 C2 1_555 1_555
H3 C3 1_555 1_555
H4 C3 1_555 1_555
C4 C3 1_555 1_555
H5 C4 1_555 1_555
C5 C4 1_555 1_555
H6 C5 1_555 1_555
H7 C5 1_555 1_555
C6 C1 1_555 1_555
H8 C6 1_555 1_555
C7 C1 1_555 1_555
C8 C7 1_555 1_555
H9 C8 1_555 1_555
H10 C8 1_555 1_555
H11 C8 1_555 1_555
C9 C7 1_555 1_555
H12 C9 1_555 1_555
H13 C9 1_555 1_555
H14 C9 1_555 1_555
C10 C1 1_555 1_555
H15 C10 1_555 1_555
C11 C10 1_555 1_555
H16 C11 1_555 1_555
H17 C11 1_555 1_555
H18 C11 1_555 1_555
C12 C13 1_555 1_555
C13 H19 1_555 1_555
C14 C13 1_555 1_555
H20 C14 1_555 1_555
H21 C14 1_555 1_555
H22 C14 1_555 1_555
C15 C13 1_555 1_555
C16 C15 1_555 1_555
H23 C16 1_555 1_555
C17 C16 1_555 1_555
H24 C17 1_555 1_555
C18 C17 1_555 1_555
C19 C18 1_555 1_555
H25 C19 1_555 1_555
C20 C15 1_555 1_555
H26 C20 1_555 1_555
Cl1 C18 1_555 1_555
N1 C6 1_555 1_555
O1 S1 1_555 1_555
O2 S1 1_555 1_555
O3 C12 1_555 1_555
S1 C10 1_555 1_555
C4 C7 1_555 1_555
C5 C6 1_555 1_555
C12 N1 1_555 1_555
C19 C20 1_555 1_555
N1 S1 1_555 1_555

#END
