
#######################################################################
#
#                 Cambridge Crystallographic Data Centre
#                                CCDC 
#
#######################################################################
#
# If this CIF has been generated from an entry in the Cambridge 
# Structural Database, then it will include bibliographic, chemical, 
# crystal, experimental, refinement or atomic coordinate data resulting 
# from the CCDC's data processing and validation procedures.
#
#######################################################################

data_QOGLED
_chemical_formula_moiety         'C17 H15 N3'
_chemical_name_systematic        
3-Amino-5-ethyl-4'-methylbiphenyl-2,4-dicarbonitrile
_symmetry_cell_setting           monoclinic
_symmetry_space_group_name_H-M   'P 21/c'
_symmetry_Int_Tables_number      14
_space_group_name_Hall           '-P 2ybc'
loop_
_symmetry_equiv_pos_site_id
_symmetry_equiv_pos_as_xyz
1 x,y,z
2 x,1/2-y,1/2+z
3 -x,-y,-z
4 -x,1/2+y,1/2-z
_cell_length_a                   7.85790(10)
_cell_length_b                   23.7627(5)
_cell_length_c                   15.3423(2)
_cell_angle_alpha                90
_cell_angle_beta                 94.7650(10)
_cell_angle_gamma                90
_cell_volume                     2854.89
_exptl_crystal_colour            'pale yellow'
_exptl_crystal_description       rectangular
_cell_formula_units_Z            8
_exptl_crystal_recrystallization_method 'ethyl acetate/hexane'
loop_
_atom_site_label
_atom_site_type_symbol
_atom_site_fract_x
_atom_site_fract_y
_atom_site_fract_z
N1 N 0.1068(3) 0.60919(8) 0.46133(13)
H1 H 0.0857 0.5737 0.4591
H2 H 0.0840 0.6298 0.4158
N2 N 0.1276(3) 0.74519(9) 0.40063(14)
N3 N 0.1427(3) 0.49363(9) 0.60111(15)
C1 C 0.3287(3) 0.77552(9) 0.62858(15)
C2 C 0.4072(3) 0.80462(9) 0.56434(16)
H3 H 0.4315 0.7863 0.5133
C3 C 0.4492(3) 0.86090(10) 0.57616(17)
H4 H 0.5024 0.8797 0.5328
C4 C 0.4142(3) 0.88966(10) 0.6507(2)
C5 C 0.3381(3) 0.86051(11) 0.71425(19)
H5 H 0.3147 0.8789 0.7654
C6 C 0.2957(3) 0.80439(10) 0.70374(16)
H6 H 0.2442 0.7857 0.7479
C7 C 0.2871(3) 0.71471(9) 0.62019(14)
C8 C 0.2159(3) 0.69041(9) 0.54184(14)
C9 C 0.1760(3) 0.63275(9) 0.53688(15)
C10 C 0.2138(3) 0.59952(9) 0.61184(16)
C11 C 0.2864(3) 0.62302(10) 0.69014(16)
C12 C 0.3203(3) 0.67982(9) 0.69284(15)
H7 H 0.3671 0.6955 0.7449
C13 C 0.1699(3) 0.72288(9) 0.46506(16)
C14 C 0.1736(3) 0.54050(11) 0.60650(16)
C15 C 0.3286(5) 0.58558(11) 0.76820(18)
H8 H 0.2537 0.5531 0.7622
H9 H 0.4443 0.5719 0.7650
C16 C 0.3181(9) 0.60692(17) 0.8489(2)
H10 H 0.4159 0.6302 0.8643
H11 H 0.3148 0.5767 0.8903
H12 H 0.2160 0.6291 0.8497
C17 C 0.4596(4) 0.95143(11) 0.6617(2)
H13 H 0.5397 0.9561 0.7120
H14 H 0.3581 0.9727 0.6697
H15 H 0.5097 0.9646 0.6105
N4 N 0.1944(3) 0.37256(9) 0.68535(13)
H16 H 0.1666 0.4074 0.6789
H17 H 0.2350 0.3545 0.6432
N5 N 0.3510(3) 0.24409(10) 0.64279(15)
N6 N 0.0110(4) 0.47704(10) 0.80857(17)
C18 C 0.2250(3) 0.19896(9) 0.86189(15)
C19 C 0.1694(3) 0.16080(10) 0.79714(17)
H18 H 0.1092 0.1736 0.7463
C20 C 0.2025(3) 0.10379(10) 0.80748(18)
H19 H 0.1646 0.0790 0.7632
C21 C 0.2906(3) 0.08320(10) 0.88208(17)
C22 C 0.3420(3) 0.12094(11) 0.94698(17)
H20 H 0.4001 0.1078 0.9982
C23 C 0.3096(3) 0.17788(10) 0.93815(15)
H21 H 0.3447 0.2023 0.9835
C24 C 0.1905(3) 0.26010(9) 0.85158(16)
C25 C 0.2149(3) 0.28828(9) 0.77364(15)
C26 C 0.1739(3) 0.34595(10) 0.76246(16)
C27 C 0.1081(3) 0.37396(10) 0.83261(17)
C28 C 0.0889(3) 0.34729(10) 0.91243(16)
C29 C 0.1330(3) 0.29067(10) 0.92039(16)
H22 H 0.1236 0.2727 0.9736
C30 C 0.2900(3) 0.26140(10) 0.70208(17)
C31 C 0.0544(3) 0.43156(12) 0.82023(18)
C32 C 0.0220(4) 0.37831(11) 0.98761(18)
H23 H -0.0292 0.3514 1.0252
H24 H -0.0670 0.4040 0.9650
C33 C 0.1573(5) 0.41131(15) 1.0417(2)
H25 H 0.2464 0.3863 1.0640
H26 H 0.1071 0.4291 1.0895
H27 H 0.2042 0.4395 1.0058
C34 C 0.3303(4) 0.02109(10) 0.8916(2)
H28 H 0.2470 -0.0002 0.8561
H29 H 0.3274 0.0102 0.9517
H30 H 0.4419 0.0138 0.8730
loop_
_geom_bond_atom_site_label_1
_geom_bond_atom_site_label_2
_geom_bond_site_symmetry_1
_geom_bond_site_symmetry_2
N1 H1 1_555 1_555
H2 N1 1_555 1_555
N2 C13 1_555 1_555
N3 C14 1_555 1_555
C1 C2 1_555 1_555
C2 H3 1_555 1_555
C3 C2 1_555 1_555
H4 C3 1_555 1_555
C4 C3 1_555 1_555
C5 C4 1_555 1_555
H5 C5 1_555 1_555
C6 C1 1_555 1_555
H6 C6 1_555 1_555
C7 C1 1_555 1_555
C8 C7 1_555 1_555
C9 N1 1_555 1_555
C10 C9 1_555 1_555
C11 C10 1_555 1_555
C12 C7 1_555 1_555
H7 C12 1_555 1_555
C13 C8 1_555 1_555
C14 C10 1_555 1_555
C15 C11 1_555 1_555
H8 C15 1_555 1_555
H9 C15 1_555 1_555
C16 C15 1_555 1_555
H10 C16 1_555 1_555
H11 C16 1_555 1_555
H12 C16 1_555 1_555
C17 C4 1_555 1_555
H13 C17 1_555 1_555
H14 C17 1_555 1_555
H15 C17 1_555 1_555
N4 H16 1_555 1_555
H17 N4 1_555 1_555
N5 C30 1_555 1_555
N6 C31 1_555 1_555
C18 C19 1_555 1_555
C19 H18 1_555 1_555
C20 C19 1_555 1_555
H19 C20 1_555 1_555
C21 C20 1_555 1_555
C22 C21 1_555 1_555
H20 C22 1_555 1_555
C23 C18 1_555 1_555
H21 C23 1_555 1_555
C24 C18 1_555 1_555
C25 C24 1_555 1_555
C26 N4 1_555 1_555
C27 C26 1_555 1_555
C28 C27 1_555 1_555
C29 C24 1_555 1_555
H22 C29 1_555 1_555
C30 C25 1_555 1_555
C31 C27 1_555 1_555
C32 C28 1_555 1_555
H23 C32 1_555 1_555
H24 C32 1_555 1_555
C33 C32 1_555 1_555
H25 C33 1_555 1_555
H26 C33 1_555 1_555
H27 C33 1_555 1_555
C34 C21 1_555 1_555
H28 C34 1_555 1_555
H29 C34 1_555 1_555
H30 C34 1_555 1_555
C5 C6 1_555 1_555
C8 C9 1_555 1_555
C11 C12 1_555 1_555
C22 C23 1_555 1_555
C25 C26 1_555 1_555
C28 C29 1_555 1_555

#END
