
#######################################################################
#
#                 Cambridge Crystallographic Data Centre
#                                CCDC 
#
#######################################################################
#
# If this CIF has been generated from an entry in the Cambridge 
# Structural Database, then it will include bibliographic, chemical, 
# crystal, experimental, refinement or atomic coordinate data resulting 
# from the CCDC's data processing and validation procedures.
#
#######################################################################

data_QOGNOP
_chemical_formula_moiety         'C16 H8 N2 O4 S2,4.35(C2 H6 O1)'
_chemical_name_systematic        "N,N'-Dithiodiphthalimide ethanol solvate"
_symmetry_cell_setting           monoclinic
_symmetry_space_group_name_H-M   'C 2/c'
_symmetry_Int_Tables_number      15
_space_group_name_Hall           '-C 2yn'
loop_
_symmetry_equiv_pos_site_id
_symmetry_equiv_pos_as_xyz
1 x,y,z
2 1/2+x,1/2+y,z
3 x,-y,1/2+z
4 1/2+x,1/2-y,1/2+z
5 -x,-y,-z
6 1/2-x,1/2-y,-z
7 -x,y,1/2-z
8 1/2-x,1/2+y,1/2-z
_cell_length_a                   14.8129(11)
_cell_length_b                   15.9280(13)
_cell_length_c                   7.6616(6)
_cell_angle_alpha                90
_cell_angle_beta                 91.671(2)
_cell_angle_gamma                90
_cell_volume                     1806.91
_exptl_crystal_colour            colorless
_exptl_crystal_description       block
_cell_formula_units_Z            4
loop_
_atom_site_label
_atom_site_type_symbol
_atom_site_fract_x
_atom_site_fract_y
_atom_site_fract_z
S1 S 0.45648(4) 0.42497(4) 0.14513(9)
N1 N 0.37422(13) 0.35695(12) 0.1950(3)
C1 C 0.37365(17) 0.27062(15) 0.1540(3)
O1 O 0.43400(14) 0.23395(12) 0.0862(3)
C2 C 0.29386(15) 0.38224(15) 0.2797(3)
O2 O 0.27993(14) 0.45101(11) 0.3306(3)
C3 C 0.23833(16) 0.30546(15) 0.2844(3)
C4 C 0.15311(17) 0.29369(18) 0.3511(3)
C5 C 0.1180(2) 0.2122(2) 0.3447(4)
C6 C 0.1648(2) 0.14773(19) 0.2747(4)
C7 C 0.2497(2) 0.15907(16) 0.2075(3)
C8 C 0.28541(16) 0.23888(15) 0.2140(3)
H1 H 0.1208 0.3380 0.3980
H2 H 0.0613 0.2020 0.3894
H3 H 0.1391 0.0945 0.2719
H4 H 0.2813 0.1146 0.1599
S1F S 0.54352(4) 0.42497(4) 0.35487(9)
N1F N 0.62578(13) 0.35695(12) 0.3050(3)
C1F C 0.62635(17) 0.27062(15) 0.3460(3)
O1F O 0.56600(14) 0.23395(12) 0.4138(3)
C8F C 0.71459(16) 0.23888(15) 0.2860(3)
C3F C 0.76167(16) 0.30546(15) 0.2156(3)
C2F C 0.70614(15) 0.38224(15) 0.2203(3)
O2F O 0.72007(14) 0.45101(11) 0.1694(3)
C4F C 0.84689(17) 0.29369(18) 0.1489(3)
C5F C 0.8820(2) 0.2122(2) 0.1553(4)
C6F C 0.8352(2) 0.14773(19) 0.2253(4)
C7F C 0.7503(2) 0.15907(16) 0.2925(3)
H4F H 0.7187 0.1146 0.3401
H3F H 0.8609 0.0945 0.2281
H2F H 0.9387 0.2020 0.1106
H1F H 0.8792 0.3380 0.1020
loop_
_geom_bond_atom_site_label_1
_geom_bond_atom_site_label_2
_geom_bond_site_symmetry_1
_geom_bond_site_symmetry_2
S1 N1 1_555 1_555
N1 C1 1_555 1_555
C1 O1 1_555 1_555
C2 N1 1_555 1_555
O2 C2 1_555 1_555
C3 C2 1_555 1_555
C4 C3 1_555 1_555
C5 C4 1_555 1_555
C6 C5 1_555 1_555
C7 C6 1_555 1_555
C8 C1 1_555 1_555
H1 C4 1_555 1_555
H2 C5 1_555 1_555
H3 C6 1_555 1_555
H4 C7 1_555 1_555
S1F S1 1_555 1_555
N1F S1F 1_555 1_555
C1F N1F 1_555 1_555
O1F C1F 1_555 1_555
C8F C1F 1_555 1_555
C3F C8F 1_555 1_555
C2F N1F 1_555 1_555
O2F C2F 1_555 1_555
C4F C3F 1_555 1_555
C5F C4F 1_555 1_555
C6F C5F 1_555 1_555
C7F C8F 1_555 1_555
H4F C7F 1_555 1_555
H3F C6F 1_555 1_555
H2F C5F 1_555 1_555
H1F C4F 1_555 1_555
C3 C8 1_555 1_555
C7 C8 1_555 1_555
C3F C2F 1_555 1_555
C6F C7F 1_555 1_555

#END
