
#######################################################################
#
#                 Cambridge Crystallographic Data Centre
#                                CCDC 
#
#######################################################################
#
# If this CIF has been generated from an entry in the Cambridge 
# Structural Database, then it will include bibliographic, chemical, 
# crystal, experimental, refinement or atomic coordinate data resulting 
# from the CCDC's data processing and validation procedures.
#
#######################################################################

data_QOHFEZ
_chemical_name_common            
'C-Isobutylcalix[4]resorcinarene bis(1,2-bis(4-pyridyl)ethane) clathrate methanol solvate monohydrate'
_chemical_formula_moiety         'C44 H56 O8,2(C12 H12 N2),0.5(C1 H4 O1),H2 O1'
_chemical_name_systematic        
'2,8,14,20-Tetra-isobutyl-4,6,10,12,16,18,22,24-octahydroxycalix(4)arene bis(1,2-bis(4-pyridyl)ethane) clathrate methanol solvate monohydrate'
_symmetry_cell_setting           triclinic
_symmetry_space_group_name_H-M   'P -1'
_symmetry_Int_Tables_number      2
_space_group_name_Hall           '-P 1'
loop_
_symmetry_equiv_pos_site_id
_symmetry_equiv_pos_as_xyz
1 x,y,z
2 -x,-y,-z
_cell_length_a                   10.7020(7)
_cell_length_b                   17.3969(11)
_cell_length_c                   18.0905(12)
_cell_angle_alpha                85.027(2)
_cell_angle_beta                 85.346(2)
_cell_angle_gamma                72.182(2)
_cell_volume                     3189.19
_exptl_crystal_colour            colorless
_exptl_crystal_description       block
_cell_formula_units_Z            2
_exptl_crystal_recrystallization_method methanol
loop_
_atom_site_label
_atom_site_type_symbol
_atom_site_fract_x
_atom_site_fract_y
_atom_site_fract_z
O1 O 0.7675(3) 0.12052(16) 0.33934(16)
H1 H 0.7844 0.1164 0.3832
O2 O 0.6309(3) 0.39858(18) 0.39317(16)
H2 H 0.6575 0.3757 0.4330
O3 O 0.4308(3) 0.53200(18) 0.37132(17)
H3 H 0.3869 0.5540 0.4072
O4 O -0.0036(3) 0.55361(19) 0.30533(17)
H4 H -0.0199 0.5737 0.3457
O5 O -0.1032(3) 0.4315(2) 0.26546(19)
H5 H -0.0891 0.4754 0.2591
O6 O 0.0399(3) 0.16521(19) 0.1950(2)
H6 H 0.0945 0.1337 0.1687
O7 O 0.2615(3) 0.03783(18) 0.1664(2)
H7 H 0.2693 -0.0046 0.1918
O8 O 0.6550(3) 0.01506(18) 0.28314(18)
H8 H 0.7120 0.0374 0.2841
C1 C 0.7151(4) 0.2012(2) 0.3168(2)
C2 C 0.6986(4) 0.2614(3) 0.3652(2)
H9 H 0.7235 0.2478 0.4139
C3 C 0.6454(4) 0.3413(2) 0.3415(2)
C4 C 0.6074(4) 0.3644(2) 0.2693(2)
C5 C 0.6248(4) 0.3015(2) 0.2231(2)
H10 H 0.5982 0.3151 0.1748
C6 C 0.6783(4) 0.2205(2) 0.2438(2)
C7 C 0.3482(4) 0.5195(2) 0.3216(2)
C8 C 0.2135(4) 0.5441(3) 0.3378(2)
H11 H 0.1792 0.5691 0.3815
C9 C 0.1302(4) 0.5313(2) 0.2886(2)
C10 C 0.1795(4) 0.4952(2) 0.2228(2)
C11 C 0.3146(4) 0.4705(2) 0.2102(2)
H12 H 0.3491 0.4445 0.1670
C12 C 0.4020(4) 0.4816(2) 0.2577(2)
C13 C -0.0163(4) 0.3772(3) 0.2200(3)
C14 C -0.0277(4) 0.3008(3) 0.2243(3)
H13 H -0.0942 0.2891 0.2551
C15 C 0.0571(4) 0.2409(3) 0.1839(3)
C16 C 0.1565(4) 0.2568(2) 0.1358(2)
C17 C 0.1631(4) 0.3360(2) 0.1314(2)
H14 H 0.2276 0.3483 0.0992
C18 C 0.0791(4) 0.3981(2) 0.1721(2)
C19 C 0.3645(4) 0.0669(2) 0.1772(2)
C20 C 0.4623(4) 0.0264(2) 0.2245(2)
H15 H 0.4589 -0.0214 0.2508
C21 C 0.5651(4) 0.0568(2) 0.2326(2)
C22 C 0.5745(4) 0.1261(2) 0.1912(2)
C23 C 0.4719(4) 0.1670(2) 0.1481(2)
H16 H 0.4751 0.2152 0.1226
C24 C 0.3627(4) 0.1406(2) 0.1403(2)
C25 C 0.5519(4) 0.4523(2) 0.2422(2)
H17 H 0.588(4) 0.483(2) 0.272(2)
C26 C 0.5942(4) 0.4702(3) 0.1609(2)
H18 H 0.6871 0.4421 0.1525
H19 H 0.5465 0.4487 0.1287
C27 C 0.5703(7) 0.5594(3) 0.1393(4)
C28 C 0.5375(12) 0.5787(6) 0.0533(5)
H20 H 0.4621 0.5624 0.0449
H21 H 0.6115 0.5495 0.0228
H22 H 0.5192 0.6357 0.0409
C29 C 0.6869(10) 0.5797(5) 0.1281(9)
H23 H 0.6826 0.6235 0.1580
H24 H 0.6993 0.5958 0.0766
H25 H 0.7593 0.5336 0.1420
C31 C 0.0891(4) 0.4841(2) 0.1665(2)
H29 H 0.001(4) 0.519(2) 0.181(2)
C32 C 0.1211(5) 0.5146(3) 0.0870(2)
H30 H 0.2088 0.4824 0.0709
H31 H 0.0601 0.5058 0.0543
C33 C 0.1148(7) 0.6029(3) 0.0784(3)
H32 H 0.191(6) 0.606(3) 0.103(3)
C34 C 0.0032(9) 0.6605(4) 0.1131(5)
H33 H -0.0758 0.6596 0.0921
H34 H 0.0128 0.7137 0.1048
H35 H -0.0016 0.6465 0.1656
C35 C 0.1386(7) 0.6278(4) -0.0035(3)
H36 H 0.0801 0.6128 -0.0329
H37 H 0.2279 0.6009 -0.0195
H38 H 0.1228 0.6853 -0.0094
C36 C 0.2515(4) 0.1891(3) 0.0921(2)
H39 H 0.202(4) 0.152(3) 0.083(2)
C37 C 0.3026(5) 0.2161(3) 0.0157(2)
H40 H 0.2282 0.2473 -0.0124
H41 H 0.3549 0.2514 0.0226
C38 C 0.3856(6) 0.1463(3) -0.0296(3)
H42 H 0.459(5) 0.116(3) 0.000(3)
C39 C 0.4441(8) 0.1764(4) -0.1007(3)
H43 H 0.3748 0.2068 -0.1318
H44 H 0.4999 0.1311 -0.1262
H45 H 0.4948 0.2104 -0.0894
C40 C 0.3137(9) 0.0883(5) -0.0463(4)
H46 H 0.2413 0.1162 -0.0762
H47 H 0.2813 0.0669 -0.0006
H48 H 0.3727 0.0448 -0.0727
C41 C 0.6981(4) 0.1541(3) 0.1902(2)
H49 H 0.769(4) 0.107(2) 0.209(2)
C42 C 0.7434(4) 0.1784(3) 0.1116(2)
H50 H 0.6746 0.2241 0.0916
H51 H 0.8203 0.1961 0.1147
C43 C 0.7771(5) 0.1112(3) 0.0577(3)
H52 H 0.698(5) 0.095(3) 0.054(2)
C44 C 0.8147(6) 0.1430(4) -0.0194(3)
H53 H 0.7445 0.1891 -0.0357
H54 H 0.8303 0.1014 -0.0536
H55 H 0.8931 0.1585 -0.0174
C45 C 0.8858(6) 0.0367(3) 0.0856(3)
H56 H 0.9098 -0.0024 0.0486
H57 H 0.8546 0.0133 0.1306
H58 H 0.9612 0.0524 0.0951
O9 O 0.3170(4) 0.6497(2) 0.4593(2)
H86 H 0.337(7) 0.629(4) 0.5007(17)
H87 H 0.358(5) 0.680(3) 0.441(3)
O10 O 0.8410(8) 0.0926(4) 0.4777(3)
C70 C 0.8869(9) 0.1296(5) 0.5232(4)
H83 H 0.8158 0.1615 0.5539
H84 H 0.9309 0.1643 0.4955
H85 H 0.9480 0.0905 0.5540
H88 H 0.7664(14) 0.1035(18) 0.4866(17)
N1 N 0.7680(8) 0.9660(3) 0.5470(4)
N2 N 0.9238(4) 0.5987(3) 0.4465(2)
C46 C 0.8219(9) 0.9236(5) 0.6051(4)
H59 H 0.8896 0.9368 0.6249
C47 C 0.7823(8) 0.8587(4) 0.6392(3)
H60 H 0.8240 0.8296 0.6806
C48 C 0.6821(6) 0.8382(4) 0.6117(4)
C49 C 0.6367(9) 0.8817(6) 0.5479(5)
H61 H 0.5741 0.8679 0.5236
C50 C 0.6785(11) 0.9433(6) 0.5189(6)
H62 H 0.6413 0.9716 0.4761
C51 C 0.6343(7) 0.7694(5) 0.6467(4)
H63 H 0.5951 0.7839 0.6958
H64 H 0.5650 0.7652 0.6174
C52 C 0.7292(7) 0.6904(4) 0.6545(3)
H65 H 0.6852 0.6528 0.6783
H66 H 0.7954 0.6928 0.6871
C53 C 0.7967(6) 0.6580(3) 0.5822(3)
C54 C 0.7383(6) 0.6235(4) 0.5345(3)
H67 H 0.6540 0.6199 0.5462
C55 C 0.8054(6) 0.5944(4) 0.4694(3)
H68 H 0.7643 0.5700 0.4393
C56 C 0.9794(6) 0.6319(4) 0.4939(3)
H69 H 1.0638 0.6349 0.4814
C57 C 0.9191(6) 0.6619(4) 0.5600(3)
H70 H 0.9628 0.6850 0.5898
N3 N 1.1988(4) 0.9114(3) 0.2386(3)
N4 N 0.4795(5) 0.7355(3) 0.3843(3)
C58 C 1.2286(6) 0.8324(3) 0.2438(3)
H71 H 1.3131 0.8026 0.2280
C59 C 1.1434(6) 0.7911(3) 0.2709(3)
H72 H 1.1719 0.7349 0.2737
C60 C 1.0173(5) 0.8306(3) 0.2940(3)
C61 C 0.9852(5) 0.9136(3) 0.2889(3)
H73 H 0.9013 0.9449 0.3041
C62 C 1.0787(6) 0.9504(3) 0.2608(3)
H74 H 1.0542 1.0066 0.2576
C63 C 0.9175(5) 0.7889(4) 0.3229(3)
H75 H 0.8846 0.8059 0.3723
H76 H 0.9600 0.7309 0.3269
C64 C 0.8033(5) 0.8071(3) 0.2736(3)
H77 H 0.8323 0.7789 0.2284
H78 H 0.7737 0.8647 0.2599
C65 C 0.6888(5) 0.7814(3) 0.3120(3)
C66 C 0.6748(6) 0.7075(3) 0.3040(3)
H79 H 0.7353 0.6712 0.2740
C67 C 0.5708(6) 0.6870(4) 0.3404(4)
H80 H 0.5634 0.6361 0.3340
C68 C 0.4916(6) 0.8080(4) 0.3899(4)
H81 H 0.4283 0.8443 0.4186
C69 C 0.5940(6) 0.8321(4) 0.3551(3)
H82 H 0.5984 0.8838 0.3610
C30? C 0.477(2) 0.6163(10) 0.1601(13)
H26? H 0.5095 0.6562 0.1786
H27? H 0.4253 0.5969 0.1989
H28? H 0.4236 0.6400 0.1190
loop_
_geom_bond_atom_site_label_1
_geom_bond_atom_site_label_2
_geom_bond_site_symmetry_1
_geom_bond_site_symmetry_2
O1 H1 1_555 1_555
O2 H2 1_555 1_555
O3 H3 1_555 1_555
O4 H4 1_555 1_555
O5 H5 1_555 1_555
O6 H6 1_555 1_555
O7 H7 1_555 1_555
O8 H8 1_555 1_555
O9 H86 1_555 1_555
O10 C70 1_555 1_555
N1 C46 1_555 1_555
N2 C55 1_555 1_555
N3 C58 1_555 1_555
N4 C67 1_555 1_555
C1 O1 1_555 1_555
C2 C1 1_555 1_555
H9 C2 1_555 1_555
C3 O2 1_555 1_555
C4 C3 1_555 1_555
C5 C4 1_555 1_555
H10 C5 1_555 1_555
C6 C1 1_555 1_555
C7 O3 1_555 1_555
C8 C7 1_555 1_555
H11 C8 1_555 1_555
C9 O4 1_555 1_555
C10 C9 1_555 1_555
C11 C10 1_555 1_555
H12 C11 1_555 1_555
C12 C7 1_555 1_555
C13 O5 1_555 1_555
C14 C13 1_555 1_555
H13 C14 1_555 1_555
C15 O6 1_555 1_555
C16 C15 1_555 1_555
C17 C16 1_555 1_555
H14 C17 1_555 1_555
C18 C13 1_555 1_555
C19 O7 1_555 1_555
C20 C19 1_555 1_555
H15 C20 1_555 1_555
C21 O8 1_555 1_555
C22 C21 1_555 1_555
C23 C22 1_555 1_555
H16 C23 1_555 1_555
C24 C19 1_555 1_555
C25 C4 1_555 1_555
H17 C25 1_555 1_555
C26 C25 1_555 1_555
H18 C26 1_555 1_555
H19 C26 1_555 1_555
C27 C26 1_555 1_555
C28 C27 1_555 1_555
H20 C28 1_555 1_555
H21 C28 1_555 1_555
H22 C28 1_555 1_555
C29 C27 1_555 1_555
H23 C29 1_555 1_555
H24 C29 1_555 1_555
H25 C29 1_555 1_555
C31 C10 1_555 1_555
H29 C31 1_555 1_555
C32 C31 1_555 1_555
H30 C32 1_555 1_555
H31 C32 1_555 1_555
C33 C32 1_555 1_555
H32 C33 1_555 1_555
C34 C33 1_555 1_555
H33 C34 1_555 1_555
H34 C34 1_555 1_555
H35 C34 1_555 1_555
C35 C33 1_555 1_555
H36 C35 1_555 1_555
H37 C35 1_555 1_555
H38 C35 1_555 1_555
C36 C16 1_555 1_555
H39 C36 1_555 1_555
C37 C36 1_555 1_555
H40 C37 1_555 1_555
H41 C37 1_555 1_555
C38 C37 1_555 1_555
H42 C38 1_555 1_555
C39 C38 1_555 1_555
H43 C39 1_555 1_555
H44 C39 1_555 1_555
H45 C39 1_555 1_555
C40 C38 1_555 1_555
H46 C40 1_555 1_555
H47 C40 1_555 1_555
H48 C40 1_555 1_555
C41 C6 1_555 1_555
H49 C41 1_555 1_555
C42 C41 1_555 1_555
H50 C42 1_555 1_555
H51 C42 1_555 1_555
C43 C42 1_555 1_555
H52 C43 1_555 1_555
C44 C43 1_555 1_555
H53 C44 1_555 1_555
H54 C44 1_555 1_555
H55 C44 1_555 1_555
C45 C43 1_555 1_555
H56 C45 1_555 1_555
H57 C45 1_555 1_555
H58 C45 1_555 1_555
C46 H59 1_555 1_555
C47 C46 1_555 1_555
H60 C47 1_555 1_555
C48 C47 1_555 1_555
C49 C48 1_555 1_555
H61 C49 1_555 1_555
C50 N1 1_555 1_555
H62 C50 1_555 1_555
C51 C48 1_555 1_555
H63 C51 1_555 1_555
H64 C51 1_555 1_555
C52 C51 1_555 1_555
H65 C52 1_555 1_555
H66 C52 1_555 1_555
C53 C52 1_555 1_555
C54 C53 1_555 1_555
H67 C54 1_555 1_555
C55 C54 1_555 1_555
H68 C55 1_555 1_555
C56 N2 1_555 1_555
H69 C56 1_555 1_555
C57 C53 1_555 1_555
H70 C57 1_555 1_555
C58 H71 1_555 1_555
C59 C58 1_555 1_555
H72 C59 1_555 1_555
C60 C59 1_555 1_555
C61 C60 1_555 1_555
H73 C61 1_555 1_555
C62 N3 1_555 1_555
H74 C62 1_555 1_555
C63 C60 1_555 1_555
H75 C63 1_555 1_555
H76 C63 1_555 1_555
C64 C63 1_555 1_555
H77 C64 1_555 1_555
H78 C64 1_555 1_555
C65 C64 1_555 1_555
C66 C65 1_555 1_555
H79 C66 1_555 1_555
C67 C66 1_555 1_555
H80 C67 1_555 1_555
C68 N4 1_555 1_555
H81 C68 1_555 1_555
C69 C65 1_555 1_555
H82 C69 1_555 1_555
C70 H83 1_555 1_555
H84 C70 1_555 1_555
H85 C70 1_555 1_555
H87 O9 1_555 1_555
H88 O10 1_555 1_555
C2 C3 1_555 1_555
C5 C6 1_555 1_555
C8 C9 1_555 1_555
C11 C12 1_555 1_555
C12 C25 1_555 1_555
C14 C15 1_555 1_555
C17 C18 1_555 1_555
C18 C31 1_555 1_555
C20 C21 1_555 1_555
C22 C41 1_555 1_555
C23 C24 1_555 1_555
C24 C36 1_555 1_555
C49 C50 1_555 1_555
C56 C57 1_555 1_555
C61 C62 1_555 1_555
C68 C69 1_555 1_555

#END
