
#######################################################################
#
#                 Cambridge Crystallographic Data Centre
#                                CCDC 
#
#######################################################################
#
# If this CIF has been generated from an entry in the Cambridge 
# Structural Database, then it will include bibliographic, chemical, 
# crystal, experimental, refinement or atomic coordinate data resulting 
# from the CCDC's data processing and validation procedures.
#
#######################################################################

data_QOHPUA
_chemical_formula_moiety         'C18 H15 N1 O3'
_chemical_name_systematic        
3-hydroxy-3-(2-oxo-4-phenylbut-3-en-1-yl)-1,3-dihydro-2H-indol-2-one
_symmetry_cell_setting           triclinic
_symmetry_space_group_name_H-M   'P -1'
_symmetry_Int_Tables_number      2
_space_group_name_Hall           '-P 1'
loop_
_symmetry_equiv_pos_site_id
_symmetry_equiv_pos_as_xyz
1 x,y,z
2 -x,-y,-z
_cell_length_a                   6.7968(9)
_cell_length_b                   8.0102(10)
_cell_length_c                   13.909(2)
_cell_angle_alpha                93.368(12)
_cell_angle_beta                 100.498(12)
_cell_angle_gamma                97.966(11)
_cell_volume                     734.649
_exptl_crystal_colour            colorless
_exptl_crystal_description       block
_cell_formula_units_Z            2
loop_
_atom_site_label
_atom_site_type_symbol
_atom_site_fract_x
_atom_site_fract_y
_atom_site_fract_z
O1 O 0.23109(18) 0.47642(15) 0.46815(10)
O2 O 0.01747(18) 0.77705(14) 0.47017(9)
H1 H -0.0353 0.6946 0.4935
O3 O 0.2084(2) 0.54849(19) 0.23286(11)
N1 N 0.4522(2) 0.69679(17) 0.43350(10)
H2 H 0.5635 0.6601 0.4554
C1 C 0.2687(2) 0.6132(2) 0.43422(12)
C2 C 0.1086(2) 0.7216(2) 0.39219(12)
C3 C 0.2396(2) 0.8723(2) 0.36476(12)
C4 C 0.4414(2) 0.8524(2) 0.39247(12)
C5 C 0.5980(3) 0.9741(2) 0.38236(13)
H3 H 0.7323 0.9588 0.4013
C6 C 0.5470(3) 1.1207(2) 0.34263(14)
H4 H 0.6495 1.2052 0.3342
C7 C 0.3481(3) 1.1442(2) 0.31536(14)
H5 H 0.3181 1.2437 0.2889
C8 C 0.1917(3) 1.0195(2) 0.32721(13)
H6 H 0.0574 1.0357 0.3100
C9 C -0.0545(3) 0.6232(2) 0.31028(13)
H7 H -0.1350 0.5367 0.3386
H8 H -0.1435 0.7000 0.2824
C10 C 0.0272(3) 0.5397(2) 0.22853(14)
C11 C -0.1132(3) 0.4428(3) 0.14539(15)
H9 H -0.0552 0.3950 0.0969
C12 C -0.3095(3) 0.4160(2) 0.13137(14)
H10 H -0.3688 0.4663 0.1785
C13 C -0.4482(3) 0.3132(2) 0.04787(14)
C14 C -0.3848(4) 0.2577(3) -0.03530(16)
H11 H -0.2511 0.2892 -0.0416
C15 C -0.5169(5) 0.1568(3) -0.10879(18)
H12 H -0.4716 0.1189 -0.1642
C16 C -0.7145(5) 0.1112(3) -0.1017(2)
H13 H -0.8030 0.0409 -0.1513
C17 C -0.7815(4) 0.1705(3) -0.0201(2)
H14 H -0.9165 0.1422 -0.0152
C18 C -0.6488(3) 0.2712(3) 0.05380(16)
H15 H -0.6948 0.3114 0.1084
loop_
_geom_bond_atom_site_label_1
_geom_bond_atom_site_label_2
_geom_bond_site_symmetry_1
_geom_bond_site_symmetry_2
O1 C1 1_555 1_555
O2 H1 1_555 1_555
O3 C10 1_555 1_555
N1 H2 1_555 1_555
C1 N1 1_555 1_555
C2 O2 1_555 1_555
C3 C2 1_555 1_555
C4 N1 1_555 1_555
C5 C4 1_555 1_555
H3 C5 1_555 1_555
C6 C5 1_555 1_555
H4 C6 1_555 1_555
C7 C6 1_555 1_555
H5 C7 1_555 1_555
C8 C3 1_555 1_555
H6 C8 1_555 1_555
C9 C2 1_555 1_555
H7 C9 1_555 1_555
H8 C9 1_555 1_555
C10 C9 1_555 1_555
C11 C10 1_555 1_555
H9 C11 1_555 1_555
C12 C11 1_555 1_555
H10 C12 1_555 1_555
C13 C12 1_555 1_555
C14 C13 1_555 1_555
H11 C14 1_555 1_555
C15 C14 1_555 1_555
H12 C15 1_555 1_555
C16 C15 1_555 1_555
H13 C16 1_555 1_555
C17 C16 1_555 1_555
H14 C17 1_555 1_555
C18 C13 1_555 1_555
H15 C18 1_555 1_555
C1 C2 1_555 1_555
C3 C4 1_555 1_555
C7 C8 1_555 1_555
C17 C18 1_555 1_555

#END
