
#######################################################################
#
#                 Cambridge Crystallographic Data Centre
#                                CCDC 
#
#######################################################################
#
# If this CIF has been generated from an entry in the Cambridge 
# Structural Database, then it will include bibliographic, chemical, 
# crystal, experimental, refinement or atomic coordinate data resulting 
# from the CCDC's data processing and validation procedures.
#
#######################################################################

data_QOJNEJ
_chemical_formula_moiety         'C22 H24 N2 O2 S1'
_chemical_name_systematic        
(E)-2-((4-t-Butyl-5-(4-methoxybenzyl)thiazol-2-ylimino)methyl)phenol
_chemical_properties_biological  
'fungicidal activity; shown to have a 95% inhibition rate against Rhizoctonia solani at a concentration of 500 mg/L. Low inhibition rates were found with other phytopathogens (Graminearum zeae, Phytophora capsici, Pyriculoria oryza, Botrytis cinerea, Sclerotinia sclerotiorum and Blumeria graminis)'
_symmetry_cell_setting           monoclinic
_symmetry_space_group_name_H-M   'P 21/c'
_symmetry_Int_Tables_number      14
_space_group_name_Hall           '-P 2ybc'
loop_
_symmetry_equiv_pos_site_id
_symmetry_equiv_pos_as_xyz
1 x,y,z
2 -x,1/2+y,1/2-z
3 -x,-y,-z
4 x,1/2-y,1/2+z
_cell_length_a                   5.9362(8)
_cell_length_b                   11.5070(15)
_cell_length_c                   29.460(4)
_cell_angle_alpha                90
_cell_angle_beta                 97.326(3)
_cell_angle_gamma                90
_cell_volume                     1995.92
_exptl_crystal_colour            yellow
_exptl_crystal_description       block
_chemical_melting_point          '105-106 deg.C'
_cell_formula_units_Z            4
_exptl_crystal_recrystallization_method ethanol
loop_
_atom_site_label
_atom_site_type_symbol
_atom_site_fract_x
_atom_site_fract_y
_atom_site_fract_z
S1 S 0.41311(10) 0.67004(5) 0.136222(19)
C1 C 0.5956(3) 0.78076(19) 0.15464(7)
C2 C 0.3275(4) 0.8778(2) 0.11114(7)
C3 C 0.2354(3) 0.7693(2) 0.10570(7)
C4 C 0.9277(4) 0.8346(2) 0.19965(7)
H1 H 0.8899 0.9107 0.1912
C5 C 1.1346(3) 0.81348(18) 0.23003(7)
C6 C 1.1941(4) 0.70164(19) 0.24588(7)
C7 C 1.3927(4) 0.6851(2) 0.27550(9)
H2 H 1.4308 0.6112 0.2867
C8 C 1.5333(4) 0.7773(2) 0.28841(8)
H3 H 1.6670 0.7649 0.3079
C9 C 1.4789(4) 0.8879(2) 0.27288(8)
H4 H 1.5747 0.9500 0.2818
C10 C 1.2805(4) 0.9050(2) 0.24396(8)
H5 H 1.2430 0.9796 0.2335
C12 C 0.2638(13) 1.0796(4) 0.12341(18)
H6 H 0.1750 1.0607 0.1474
H7 H 0.2126 1.1522 0.1097
H8 H 0.4208 1.0861 0.1359
C13 C 0.3806(7) 1.0157(4) 0.05012(16)
H9 H 0.5380 1.0251 0.0618
H10 H 0.3263 1.0848 0.0341
H11 H 0.3638 0.9507 0.0295
C14 C -0.0116(7) 0.9802(4) 0.06731(17)
H12 H -0.1100 0.9673 0.0903
H13 H -0.0215 0.9154 0.0466
H14 H -0.0570 1.0498 0.0506
C15 C 0.2395(4) 0.9935(2) 0.09082(8)
C19 C 0.0170(4) 0.7219(3) 0.08067(8)
H24 H -0.1016 0.7787 0.0830
H25 H -0.0229 0.6526 0.0966
C20 C 0.0144(3) 0.69109(19) 0.03046(7)
C21 C -0.1784(4) 0.6379(2) 0.00781(8)
H26 H -0.3008 0.6228 0.0237
C22 C -0.1923(4) 0.6070(2) -0.03774(9)
H27 H -0.3223 0.5706 -0.0520
C23 C -0.0138(4) 0.6299(2) -0.06209(8)
C24 C 0.1792(4) 0.6820(2) -0.04051(8)
H28 H 0.3010 0.6972 -0.0566
C25 C 0.1917(4) 0.7121(2) 0.00574(8)
H29 H 0.3230 0.7471 0.0201
C26 C 0.1330(6) 0.6118(3) -0.13366(10)
H30 H 0.1678 0.6931 -0.1351
H31 H 0.0886 0.5828 -0.1641
H32 H 0.2646 0.5704 -0.1199
N1 N 0.5341(3) 0.88283(16) 0.13912(6)
N2 N 0.7945(3) 0.75256(16) 0.18396(5)
O1 O 1.0638(3) 0.60865(14) 0.23350(7)
H33 H 0.9573 0.6282 0.2145
O2 O -0.0459(4) 0.59583(18) -0.10731(6)
C11? C 0.2395(4) 0.9935(2) 0.09082(8)
C16? C 0.4429(14) 1.1005(8) 0.0963(4)
H15? H 0.5580 1.0824 0.0773
H16? H 0.5103 1.1052 0.1277
H17? H 0.3741 1.1737 0.0871
C17? C 0.139(2) 1.0083(8) 0.0481(3)
H18? H 0.0214 0.9511 0.0414
H19? H 0.2487 0.9998 0.0272
H20? H 0.0731 1.0846 0.0451
C18? C 0.0902(16) 1.0586(7) 0.1287(3)
H21? H -0.0427 1.0134 0.1320
H22? H 0.0455 1.1350 0.1179
H23? H 0.1828 1.0646 0.1578
loop_
_geom_bond_atom_site_label_1
_geom_bond_atom_site_label_2
_geom_bond_site_symmetry_1
_geom_bond_site_symmetry_2
S1 C1 1_555 1_555
C1 N1 1_555 1_555
C2 C3 1_555 1_555
C3 S1 1_555 1_555
C4 H1 1_555 1_555
C5 C4 1_555 1_555
C6 C5 1_555 1_555
C7 C6 1_555 1_555
H2 C7 1_555 1_555
C8 C7 1_555 1_555
H3 C8 1_555 1_555
C9 C8 1_555 1_555
H4 C9 1_555 1_555
C10 C5 1_555 1_555
H5 C10 1_555 1_555
C12 H6 1_555 1_555
H7 C12 1_555 1_555
H8 C12 1_555 1_555
C13 H9 1_555 1_555
H10 C13 1_555 1_555
H11 C13 1_555 1_555
C14 H12 1_555 1_555
H13 C14 1_555 1_555
H14 C14 1_555 1_555
C15 C2 1_555 1_555
C19 C3 1_555 1_555
H24 C19 1_555 1_555
H25 C19 1_555 1_555
C20 C19 1_555 1_555
C21 C20 1_555 1_555
H26 C21 1_555 1_555
C22 C21 1_555 1_555
H27 C22 1_555 1_555
C23 C22 1_555 1_555
C24 C23 1_555 1_555
H28 C24 1_555 1_555
C25 C20 1_555 1_555
H29 C25 1_555 1_555
C26 H30 1_555 1_555
H31 C26 1_555 1_555
H32 C26 1_555 1_555
N1 C2 1_555 1_555
N2 C1 1_555 1_555
O1 C6 1_555 1_555
H33 O1 1_555 1_555
O2 C23 1_555 1_555
C4 N2 1_555 1_555
C9 C10 1_555 1_555
C12 C15 1_555 1_555
C13 C15 1_555 1_555
C14 C15 1_555 1_555
C24 C25 1_555 1_555
C26 O2 1_555 1_555

#END
