
#######################################################################
#
#                 Cambridge Crystallographic Data Centre
#                                CCDC 
#
#######################################################################
#
# If this CIF has been generated from an entry in the Cambridge 
# Structural Database, then it will include bibliographic, chemical, 
# crystal, experimental, refinement or atomic coordinate data resulting 
# from the CCDC's data processing and validation procedures.
#
#######################################################################

data_QOJPUC
_chemical_formula_moiety         'C31 H22 N2 O3 S2'
_chemical_name_systematic        
4-Methyl-N-(5-(2-oxo-1,2-dihydro-3H-indol-3-ylidene)-3,4-diphenylthiophen-2(5H)-ylidene)benzenesulfonamide
_symmetry_cell_setting           monoclinic
_symmetry_space_group_name_H-M   'P 21/c'
_symmetry_Int_Tables_number      14
_space_group_name_Hall           '-P 2ybc'
loop_
_symmetry_equiv_pos_site_id
_symmetry_equiv_pos_as_xyz
1 x,y,z
2 -x,1/2+y,1/2-z
3 -x,-y,-z
4 x,1/2-y,1/2+z
_cell_length_a                   14.5520(15)
_cell_length_b                   9.7511(11)
_cell_length_c                   19.559(2)
_cell_angle_alpha                90
_cell_angle_beta                 105.499(2)
_cell_angle_gamma                90
_cell_volume                     2674.46
_cell_formula_units_Z            4
loop_
_atom_site_label
_atom_site_type_symbol
_atom_site_fract_x
_atom_site_fract_y
_atom_site_fract_z
N1 N 0.5702(3) 0.1452(4) 0.5421(2)
H1 H 0.5890 0.0666 0.5311
N2 N 0.1422(3) 0.4047(4) 0.58785(19)
O1 O 0.4150(2) 0.0899(3) 0.53752(19)
O2 O -0.0193(2) 0.3121(3) 0.55662(17)
O3 O 0.1143(2) 0.1507(3) 0.60111(18)
S1 S 0.29824(8) 0.26582(13) 0.57208(6)
S2 S 0.07523(9) 0.26790(14) 0.55990(7)
C1 C 0.4806(4) 0.1720(5) 0.5495(3)
C2 C 0.4829(4) 0.3165(5) 0.5747(2)
C3 C 0.5759(3) 0.3732(5) 0.5732(2)
C4 C 0.6264(4) 0.2629(5) 0.5550(2)
C5 C 0.7191(4) 0.2767(6) 0.5493(2)
H2 H 0.7508 0.2023 0.5364
C6 C 0.7624(4) 0.3999(6) 0.5628(3)
H3 H 0.8256 0.4100 0.5616
C7 C 0.7124(4) 0.5112(6) 0.5783(3)
H4 H 0.7421 0.5964 0.5858
C8 C 0.6196(3) 0.4993(5) 0.5830(2)
H5 H 0.5871 0.5759 0.5927
C9 C 0.4034(3) 0.3659(5) 0.5923(2)
C10 C 0.3874(3) 0.4951(4) 0.6264(2)
C11 C 0.2949(3) 0.5168(5) 0.6258(2)
C12 C 0.2325(4) 0.4007(4) 0.5950(2)
C13 C 0.4658(3) 0.5907(5) 0.6598(2)
C14 C 0.4638(3) 0.7257(5) 0.6374(2)
H6 H 0.4121 0.7580 0.6021
C15 C 0.5389(4) 0.8124(5) 0.6678(3)
H7 H 0.5383 0.9029 0.6527
C16 C 0.6149(4) 0.7635(6) 0.7210(3)
H8 H 0.6663 0.8210 0.7405
C17 C 0.6155(4) 0.6329(6) 0.7449(3)
H9 H 0.6652 0.6030 0.7825
C18 C 0.5430(4) 0.5452(5) 0.7140(3)
H10 H 0.5452 0.4546 0.7292
C19 C 0.2577(3) 0.6356(5) 0.6549(3)
C20 C 0.2906(4) 0.6682(5) 0.7258(3)
H11 H 0.3352 0.6118 0.7558
C21 C 0.2581(4) 0.7833(6) 0.7527(3)
H12 H 0.2810 0.8049 0.8006
C22 C 0.1916(4) 0.8663(5) 0.7086(3)
H13 H 0.1695 0.9443 0.7266
C23 C 0.1581(4) 0.8346(5) 0.6387(3)
H14 H 0.1138 0.8914 0.6088
C24 C 0.1898(3) 0.7186(5) 0.6124(3)
H15 H 0.1648 0.6959 0.5649
C25 C 0.0808(3) 0.2379(6) 0.4729(3)
C26 C 0.0517(4) 0.3380(6) 0.4221(4)
H16 H 0.0297 0.4215 0.4345
C27 C 0.0547(4) 0.3159(7) 0.3523(4)
H17 H 0.0358 0.3848 0.3186
C28 C 0.0859(5) 0.1917(9) 0.3335(4)
C29 C 0.1124(5) 0.0916(8) 0.3847(4)
H18 H 0.1308 0.0061 0.3720
C30 C 0.1123(4) 0.1146(6) 0.4538(4)
H19 H 0.1337 0.0468 0.4878
C31 C 0.0884(5) 0.1698(8) 0.2566(4)
H20 H 0.1386 0.2241 0.2470
H21 H 0.0284 0.1968 0.2252
H22 H 0.0999 0.0746 0.2492
loop_
_geom_bond_atom_site_label_1
_geom_bond_atom_site_label_2
_geom_bond_site_symmetry_1
_geom_bond_site_symmetry_2
N1 H1 1_555 1_555
N2 S2 1_555 1_555
O1 C1 1_555 1_555
O2 S2 1_555 1_555
O3 S2 1_555 1_555
S1 C9 1_555 1_555
S2 C25 1_555 1_555
C1 N1 1_555 1_555
C2 C1 1_555 1_555
C3 C2 1_555 1_555
C4 N1 1_555 1_555
C5 C4 1_555 1_555
H2 C5 1_555 1_555
C6 C5 1_555 1_555
H3 C6 1_555 1_555
C7 C6 1_555 1_555
H4 C7 1_555 1_555
C8 C3 1_555 1_555
H5 C8 1_555 1_555
C9 C2 1_555 1_555
C10 C9 1_555 1_555
C11 C10 1_555 1_555
C12 N2 1_555 1_555
C13 C10 1_555 1_555
C14 C13 1_555 1_555
H6 C14 1_555 1_555
C15 C14 1_555 1_555
H7 C15 1_555 1_555
C16 C15 1_555 1_555
H8 C16 1_555 1_555
C17 C16 1_555 1_555
H9 C17 1_555 1_555
C18 C13 1_555 1_555
H10 C18 1_555 1_555
C19 C11 1_555 1_555
C20 C19 1_555 1_555
H11 C20 1_555 1_555
C21 C20 1_555 1_555
H12 C21 1_555 1_555
C22 C21 1_555 1_555
H13 C22 1_555 1_555
C23 C22 1_555 1_555
H14 C23 1_555 1_555
C24 C19 1_555 1_555
H15 C24 1_555 1_555
C25 C26 1_555 1_555
C26 H16 1_555 1_555
C27 C26 1_555 1_555
H17 C27 1_555 1_555
C28 C27 1_555 1_555
C29 C28 1_555 1_555
H18 C29 1_555 1_555
C30 C25 1_555 1_555
H19 C30 1_555 1_555
C31 C28 1_555 1_555
H20 C31 1_555 1_555
H21 C31 1_555 1_555
H22 C31 1_555 1_555
S1 C12 1_555 1_555
C3 C4 1_555 1_555
C7 C8 1_555 1_555
C11 C12 1_555 1_555
C17 C18 1_555 1_555
C23 C24 1_555 1_555
C29 C30 1_555 1_555

#END
