
#######################################################################
#
#                 Cambridge Crystallographic Data Centre
#                                CCDC 
#
#######################################################################
#
# If this CIF has been generated from an entry in the Cambridge 
# Structural Database, then it will include bibliographic, chemical, 
# crystal, experimental, refinement or atomic coordinate data resulting 
# from the CCDC's data processing and validation procedures.
#
#######################################################################

data_QOJREO
_chemical_formula_moiety         'C14 H13 N1 O3'
_chemical_name_systematic        
1,4'-Dimethylspiro[indole-3,2'-pyran]-2,6'(1H,3'H)-dione
_symmetry_cell_setting           orthorhombic
_symmetry_space_group_name_H-M   'P 21 21 21'
_symmetry_Int_Tables_number      19
_space_group_name_Hall           'P 2ac 2ab'
loop_
_symmetry_equiv_pos_site_id
_symmetry_equiv_pos_as_xyz
1 x,y,z
2 1/2-x,-y,1/2+z
3 -x,1/2+y,1/2-z
4 1/2+x,1/2-y,-z
_cell_length_a                   10.4660(4)
_cell_length_b                   10.7577(5)
_cell_length_c                   10.8301(6)
_cell_angle_alpha                90
_cell_angle_beta                 90
_cell_angle_gamma                90
_cell_volume                     1219.36
_cell_formula_units_Z            4
loop_
_atom_site_label
_atom_site_type_symbol
_atom_site_fract_x
_atom_site_fract_y
_atom_site_fract_z
N1 N 0.97506(15) 0.03261(14) 0.62967(14)
O1 O 1.03635(14) 0.23658(12) 0.63664(13)
O2 O 0.76496(12) 0.25519(13) 0.55469(13)
O3 O 0.70309(15) 0.44691(14) 0.58684(17)
C1 C 0.96828(17) 0.15472(17) 0.59806(16)
C2 C 0.85706(17) 0.16921(16) 0.50367(17)
C3 C 0.80130(17) 0.04065(17) 0.50242(18)
C4 C 0.87555(17) -0.03623(17) 0.57568(16)
C5 C 0.8473(2) -0.16075(18) 0.5906(2)
H1 H 0.8968 -0.2117 0.6408
C6 C 0.7415(2) -0.20682(19) 0.5273(2)
H2 H 0.7198 -0.2903 0.5354
C7 C 0.6683(2) -0.1310(2) 0.4529(3)
H3 H 0.5985 -0.1641 0.4110
C8 C 0.6977(2) -0.0058(2) 0.4397(2)
H4 H 0.6484 0.0454 0.3896
C9 C 0.77629(18) 0.37910(18) 0.5335(2)
C10 C 0.8708(2) 0.42147(19) 0.4453(2)
H5 H 0.8888 0.5060 0.4415
C11 C 0.9326(2) 0.3459(2) 0.3699(2)
C12 C 0.9070(2) 0.20953(19) 0.37797(19)
H6 H 0.9853 0.1647 0.3604
H7 H 0.8449 0.1870 0.3153
C13 C 1.0749(2) -0.0176(2) 0.7077(2)
H8 H 1.1210 0.0494 0.7457
H9 H 1.1324 -0.0665 0.6586
H10 H 1.0375 -0.0689 0.7705
C14 C 1.0225(3) 0.3882(2) 0.2719(3)
H11 H 1.0377 0.4757 0.2807
H12 H 0.9858 0.3720 0.1922
H13 H 1.1018 0.3440 0.2795
loop_
_geom_bond_atom_site_label_1
_geom_bond_atom_site_label_2
_geom_bond_site_symmetry_1
_geom_bond_site_symmetry_2
N1 C1 1_555 1_555
O1 C1 1_555 1_555
O2 C2 1_555 1_555
O3 C9 1_555 1_555
C1 C2 1_555 1_555
C2 C3 1_555 1_555
C3 C4 1_555 1_555
C4 N1 1_555 1_555
C5 C4 1_555 1_555
H1 C5 1_555 1_555
C6 C5 1_555 1_555
H2 C6 1_555 1_555
C7 C6 1_555 1_555
H3 C7 1_555 1_555
C8 C3 1_555 1_555
H4 C8 1_555 1_555
C9 O2 1_555 1_555
C10 C9 1_555 1_555
H5 C10 1_555 1_555
C11 C10 1_555 1_555
C12 C2 1_555 1_555
H6 C12 1_555 1_555
H7 C12 1_555 1_555
C13 N1 1_555 1_555
H8 C13 1_555 1_555
H9 C13 1_555 1_555
H10 C13 1_555 1_555
C14 C11 1_555 1_555
H11 C14 1_555 1_555
H12 C14 1_555 1_555
H13 C14 1_555 1_555
C7 C8 1_555 1_555
C11 C12 1_555 1_555

#END
