
#######################################################################
#
#                 Cambridge Crystallographic Data Centre
#                                CCDC 
#
#######################################################################
#
# If this CIF has been generated from an entry in the Cambridge 
# Structural Database, then it will include bibliographic, chemical, 
# crystal, experimental, refinement or atomic coordinate data resulting 
# from the CCDC's data processing and validation procedures.
#
#######################################################################

data_QOJXIY
_chemical_compound_source        
'Isolated from the culture of Neosartorya fischeri CGMCC 3.5378'
_chemical_name_common            'neofipiperazine B'
_chemical_formula_moiety         'C27 H33 N3 O8'
_chemical_name_systematic        
(1S,5R,10S,10aR,14aS,15bR)-1,10,10a-trihydroxy-7-methoxy-2,2-dimethyl-5-(2-methylprop-1-en-1-yl)-1,10,10a,14,14a,15b-hexahydro-12H-3,4-dioxa-5a,11a,15a-triazacycloocta[1,2,3-lm]indeno[5,6-b]fluorene-11,15(2H,13H)-dione
_symmetry_cell_setting           orthorhombic
_symmetry_space_group_name_H-M   'P 21 21 21'
_symmetry_Int_Tables_number      19
_space_group_name_Hall           'P 2ac 2ab'
loop_
_symmetry_equiv_pos_site_id
_symmetry_equiv_pos_as_xyz
1 x,y,z
2 1/2-x,-y,1/2+z
3 1/2+x,1/2-y,-z
4 -x,1/2+y,1/2-z
_cell_length_a                   10.8093(5)
_cell_length_b                   13.7261(7)
_cell_length_c                   17.4341(9)
_cell_angle_alpha                90
_cell_angle_beta                 90
_cell_angle_gamma                90
_cell_volume                     2586.69
_cell_formula_units_Z            4
loop_
_atom_site_label
_atom_site_type_symbol
_atom_site_fract_x
_atom_site_fract_y
_atom_site_fract_z
O1 O 0.5054(2) 0.67774(15) 0.05119(12)
O2 O 0.60596(19) 0.60448(15) 0.04752(11)
O3 O 0.3760(2) 0.24407(15) -0.02268(13)
H1 H 0.4344 0.2578 0.0053
O4 O 0.4552(2) 0.46796(18) -0.16329(13)
C1 C 0.6042(3) 0.5561(2) 0.11833(16)
H2 H 0.6080 0.6041 0.1599
C2 C 0.4189(3) 0.4574(2) 0.06917(16)
C3 C 0.4548(3) 0.4598(2) 0.19534(16)
N1 N 0.3529(2) 0.40981(17) -0.05917(13)
N2 N 0.4915(2) 0.49820(18) 0.12619(13)
C4 C 0.4199(3) 0.48514(19) -0.01386(16)
H3 H 0.5059 0.4882 -0.0316
O5 O 0.2496(2) 0.59299(17) 0.01684(13)
H4 H 0.2066 0.5442 0.0115
C5 C 0.3354(3) 0.3956(2) 0.10117(16)
C6 C 0.3569(3) 0.5846(2) -0.02935(16)
H5 H 0.3286 0.5832 -0.0827
C7 C 0.2936(3) 0.3231(2) -0.02568(17)
C8 C 0.3851(3) 0.4085(2) -0.13479(17)
C9 C 0.3568(3) 0.3949(2) 0.18222(17)
C10 C 0.1899(3) 0.2880(2) -0.0793(2)
N3 N 0.2154(2) 0.28970(19) -0.15330(15)
C11 C 0.7188(3) 0.4954(2) 0.11944(17)
H6 H 0.7201 0.4406 0.0880
C12 C 0.5318(3) 0.6813(3) -0.08773(19)
H7 H 0.5795 0.6224 -0.0899
H8 H 0.5861 0.7358 -0.0801
H9 H 0.4873 0.6895 -0.1350
C13 C 0.8186(3) 0.5126(2) 0.16115(19)
O6 O 0.4800(3) 0.4413(2) 0.40430(13)
C14 C 0.4403(3) 0.6754(2) -0.02125(17)
C15 C 0.5026(3) 0.4782(2) 0.26887(16)
H10 H 0.5676 0.5214 0.2767
O7 O 0.0915(3) 0.2577(2) -0.05361(16)
C16 C 0.3638(4) 0.7679(2) -0.0165(2)
H11 H 0.3068 0.7631 0.0255
H12 H 0.3187 0.7765 -0.0635
H13 H 0.4176 0.8227 -0.0087
C17 C 0.2945(4) 0.3592(3) -0.26512(19)
H14 H 0.2597 0.4243 -0.2657
H15 H 0.3650 0.3569 -0.2996
C18 C 0.3533(4) 0.3609(3) 0.31625(19)
H16 H 0.3217 0.3261 0.3576
C19 C 0.2384(3) 0.3476(2) 0.05380(18)
H17 H 0.1686 0.3925 0.0472
C20 C 0.1980(4) 0.2832(3) -0.2869(2)
H18 H 0.1435 0.3079 -0.3265
H19 H 0.2374 0.2242 -0.3053
O8 O 0.1970(3) 0.2627(2) 0.09206(14)
H20 H 0.1434 0.2360 0.0663
C21 C 0.4481(3) 0.4288(3) 0.32864(17)
C22 C 0.3310(3) 0.3288(2) -0.18405(17)
H21 H 0.3913 0.2757 -0.1875
C23 C 0.3068(3) 0.3447(2) 0.24503(18)
H22 H 0.2424 0.3008 0.2380
C24 C 0.9300(4) 0.4468(3) 0.1584(3)
H23 H 0.9917 0.4705 0.1934
H24 H 0.9631 0.4461 0.1073
H25 H 0.9062 0.3820 0.1729
C25 C 0.1270(3) 0.2636(3) -0.2140(2)
H26 H 0.0532 0.3037 -0.2111
H27 H 0.1034 0.1956 -0.2104
C26 C 0.8316(4) 0.5977(3) 0.2154(3)
H28 H 0.9109 0.5949 0.2401
H29 H 0.7675 0.5949 0.2534
H30 H 0.8248 0.6575 0.1871
C27 C 0.5794(5) 0.5053(4) 0.4203(2)
H31 H 0.5933 0.5076 0.4746
H32 H 0.5596 0.5694 0.4020
H33 H 0.6528 0.4823 0.3951
loop_
_geom_bond_atom_site_label_1
_geom_bond_atom_site_label_2
_geom_bond_site_symmetry_1
_geom_bond_site_symmetry_2
O1 O2 1_555 1_555
O2 C1 1_555 1_555
O3 H1 1_555 1_555
O4 C8 1_555 1_555
C1 H2 1_555 1_555
C2 N2 1_555 1_555
C3 N2 1_555 1_555
N1 C4 1_555 1_555
N2 C1 1_555 1_555
C4 C2 1_555 1_555
H3 C4 1_555 1_555
O5 H4 1_555 1_555
C5 C2 1_555 1_555
C6 C4 1_555 1_555
H5 C6 1_555 1_555
C7 O3 1_555 1_555
C8 N1 1_555 1_555
C9 C3 1_555 1_555
C10 C7 1_555 1_555
N3 C10 1_555 1_555
C11 C1 1_555 1_555
H6 C11 1_555 1_555
C12 H7 1_555 1_555
H8 C12 1_555 1_555
H9 C12 1_555 1_555
C13 C11 1_555 1_555
O6 C21 1_555 1_555
C14 O1 1_555 1_555
C15 C3 1_555 1_555
H10 C15 1_555 1_555
O7 C10 1_555 1_555
C16 C14 1_555 1_555
H11 C16 1_555 1_555
H12 C16 1_555 1_555
H13 C16 1_555 1_555
C17 H14 1_555 1_555
H15 C17 1_555 1_555
C18 H16 1_555 1_555
C19 C5 1_555 1_555
H17 C19 1_555 1_555
C20 C17 1_555 1_555
H18 C20 1_555 1_555
H19 C20 1_555 1_555
O8 C19 1_555 1_555
H20 O8 1_555 1_555
C21 C15 1_555 1_555
C22 C8 1_555 1_555
H21 C22 1_555 1_555
C23 C9 1_555 1_555
H22 C23 1_555 1_555
C24 C13 1_555 1_555
H23 C24 1_555 1_555
H24 C24 1_555 1_555
H25 C24 1_555 1_555
C25 N3 1_555 1_555
H26 C25 1_555 1_555
H27 C25 1_555 1_555
C26 C13 1_555 1_555
H28 C26 1_555 1_555
H29 C26 1_555 1_555
H30 C26 1_555 1_555
C27 O6 1_555 1_555
H31 C27 1_555 1_555
H32 C27 1_555 1_555
H33 C27 1_555 1_555
N1 C7 1_555 1_555
O5 C6 1_555 1_555
C5 C9 1_555 1_555
C6 C14 1_555 1_555
C7 C19 1_555 1_555
N3 C22 1_555 1_555
C12 C14 1_555 1_555
C17 C22 1_555 1_555
C18 C21 1_555 1_555
C18 C23 1_555 1_555
C20 C25 1_555 1_555

#END
