
#######################################################################
#
#                 Cambridge Crystallographic Data Centre
#                                CCDC 
#
#######################################################################
#
# If this CIF has been generated from an entry in the Cambridge 
# Structural Database, then it will include bibliographic, chemical, 
# crystal, experimental, refinement or atomic coordinate data resulting 
# from the CCDC's data processing and validation procedures.
#
#######################################################################

data_QOKJIJ
_chemical_formula_moiety         'C19 H20 F3 N1 O3 S1'
_chemical_name_systematic        
'(+-)(2R,S~S~)-Ethyl N-(p-tolylsulfinyl)-(\a-trifluoromethyl)-phenylalaninate'
_symmetry_cell_setting           monoclinic
_symmetry_space_group_name_H-M   'P 21/c'
_symmetry_Int_Tables_number      14
_space_group_name_Hall           '-P 2ybc'
loop_
_symmetry_equiv_pos_site_id
_symmetry_equiv_pos_as_xyz
1 x,y,z
2 -x,1/2+y,1/2-z
3 -x,-y,-z
4 x,1/2-y,1/2+z
_cell_length_a                   12.1740(10)
_cell_length_b                   22.4470(10)
_cell_length_c                   7.7460(10)
_cell_angle_alpha                90
_cell_angle_beta                 107.250(10)
_cell_angle_gamma                90
_cell_volume                     2021.54
_exptl_crystal_colour            colorless
_chemical_melting_point          105-106deg.C
_cell_formula_units_Z            4
loop_
_atom_site_label
_atom_site_type_symbol
_atom_site_fract_x
_atom_site_fract_y
_atom_site_fract_z
S1 S 0.2281(1) 0.1688(1) 0.0883(1)
O1 O 0.2492(2) 0.2250(1) 0.0028(2)
N1 N 0.2802(2) 0.1717(1) 0.3115(3)
C1 C 0.3874(2) 0.1423(1) 0.4068(3)
C2 C 0.4896(2) 0.1766(1) 0.3776(4)
F1 F 0.4828(1) 0.2344(1) 0.4143(3)
F2 F 0.5923(1) 0.1578(1) 0.4828(3)
F3 F 0.4927(2) 0.1734(1) 0.2077(3)
O2 O 0.2896(2) 0.0521(1) 0.3019(2)
O3 O 0.4789(2) 0.0537(1) 0.3442(3)
C3 C 0.3916(2) 0.0778(1) 0.3436(3)
C4 C 0.2877(3) -0.0116(1) 0.2659(5)
C5 C 0.1684(3) -0.0323(2) 0.2454(6)
C6 C 0.3991(2) 0.1425(1) 0.6126(3)
C7 C 0.0793(2) 0.1730(1) 0.0790(3)
C8 C 0.0349(2) 0.1364(1) 0.1848(3)
C9 C -0.0808(2) 0.1382(1) 0.1681(4)
C10 C -0.1552(2) 0.1756(1) 0.0443(5)
C11 C -0.1086(3) 0.2110(2) -0.0589(5)
C12 C 0.0071(2) 0.2106(1) -0.0445(4)
C13 C -0.2822(3) 0.1761(2) 0.0254(7)
C14 C 0.3115(2) 0.1052(1) 0.6635(3)
C15 C 0.3381(3) 0.0470(1) 0.7243(4)
C16 C 0.2561(4) 0.0115(2) 0.7629(5)
C17 C 0.1488(4) 0.0324(2) 0.7434(5)
C18 C 0.1207(3) 0.0898(2) 0.6865(4)
C19 C 0.2025(2) 0.1262(1) 0.6482(3)
H1 H 0.2650(2) 0.2019(10) 0.3660(3)
H2 H 0.3419 -0.0323 0.3652
H3 H 0.3083 -0.0193 0.1561
H4 H 0.1632 -0.0744 0.2219
H5 H 0.1158 -0.0116 0.1465
H6 H 0.1491 -0.0242 0.3547
H7 H 0.4752 0.1282 0.6785
H8 H 0.3928 0.1832 0.6504
H9 H 0.0830 0.1105 0.2672
H10 H -0.1098 0.1138 0.2413
H11 H -0.1568 0.2364 -0.1425
H12 H 0.0359 0.2354 -0.1169
H13 H -0.3140 0.2142 -0.0192
H14 H -0.2934 0.1689 0.1412
H15 H -0.3200 0.1455 -0.0577
H16 H 0.4115 0.0321 0.7389
H17 H 0.2748 -0.0273 0.8028
H18 H 0.0940 0.0077 0.7685
H19 H 0.0471 0.1043 0.6737
H20 H 0.1836 0.1653 0.6116
loop_
_geom_bond_atom_site_label_1
_geom_bond_atom_site_label_2
_geom_bond_site_symmetry_1
_geom_bond_site_symmetry_2
S1 O1 1_555 1_555
N1 S1 1_555 1_555
C1 N1 1_555 1_555
C2 C1 1_555 1_555
F1 C2 1_555 1_555
F2 C2 1_555 1_555
F3 C2 1_555 1_555
O2 C3 1_555 1_555
O3 C3 1_555 1_555
C3 C1 1_555 1_555
C4 O2 1_555 1_555
C5 C4 1_555 1_555
C6 C1 1_555 1_555
C7 S1 1_555 1_555
C8 C7 1_555 1_555
C9 C8 1_555 1_555
C10 C9 1_555 1_555
C11 C10 1_555 1_555
C12 C7 1_555 1_555
C13 C10 1_555 1_555
C14 C6 1_555 1_555
C15 C14 1_555 1_555
C16 C15 1_555 1_555
C17 C16 1_555 1_555
C18 C17 1_555 1_555
C19 C14 1_555 1_555
H1 N1 1_555 1_555
H2 C4 1_555 1_555
H3 C4 1_555 1_555
H4 C5 1_555 1_555
H5 C5 1_555 1_555
H6 C5 1_555 1_555
H7 C6 1_555 1_555
H8 C6 1_555 1_555
H9 C8 1_555 1_555
H10 C9 1_555 1_555
H11 C11 1_555 1_555
H12 C12 1_555 1_555
H13 C13 1_555 1_555
H14 C13 1_555 1_555
H15 C13 1_555 1_555
H16 C15 1_555 1_555
H17 C16 1_555 1_555
H18 C17 1_555 1_555
H19 C18 1_555 1_555
H20 C19 1_555 1_555
C11 C12 1_555 1_555
C18 C19 1_555 1_555

#END
