
#######################################################################
#
#                 Cambridge Crystallographic Data Centre
#                                CCDC 
#
#######################################################################
#
# If this CIF has been generated from an entry in the Cambridge 
# Structural Database, then it will include bibliographic, chemical, 
# crystal, experimental, refinement or atomic coordinate data resulting 
# from the CCDC's data processing and validation procedures.
#
#######################################################################

data_QOKQAK
_chemical_formula_moiety         'C17 H17 N1 O1'
_chemical_name_systematic        
2-methyl-2-phenyl-4-vinyl-1,4-dihydro-2H-3,1-benzoxazine
_symmetry_cell_setting           orthorhombic
_symmetry_space_group_name_H-M   'P 21 21 21'
_symmetry_Int_Tables_number      19
_space_group_name_Hall           'P 2ac 2ab'
loop_
_symmetry_equiv_pos_site_id
_symmetry_equiv_pos_as_xyz
1 x,y,z
2 1/2-x,-y,1/2+z
3 -x,1/2+y,1/2-z
4 1/2+x,1/2-y,-z
_cell_length_a                   8.2349(3)
_cell_length_b                   12.5658(4)
_cell_length_c                   12.9900(5)
_cell_angle_alpha                90
_cell_angle_beta                 90
_cell_angle_gamma                90
_cell_volume                     1344.18
_cell_formula_units_Z            4
loop_
_atom_site_label
_atom_site_type_symbol
_atom_site_fract_x
_atom_site_fract_y
_atom_site_fract_z
C1 C 0.37360(14) 0.29246(10) 0.21376(9)
C2 C 0.11188(14) 0.31750(10) 0.40750(10)
C3 C 0.18916(15) 0.29845(10) 0.19977(9)
C4 C 0.62231(17) 0.19275(12) 0.19114(11)
H1 H 0.6761 0.1293 0.1708
C5 C 0.14473(15) 0.20837(9) 0.36093(9)
H2 H 0.2599 0.1873 0.3743
C6 C 0.09396(16) 0.32997(10) 0.51345(10)
H3 H 0.1087 0.2703 0.5574
C7 C 0.03232(17) 0.12703(10) 0.40573(10)
H4 H -0.0800 0.1325 0.3900
C8 C 0.05502(17) 0.42793(11) 0.55582(10)
H5 H 0.0459 0.4358 0.6283
C9 C 0.14435(16) 0.28695(11) 0.08656(9)
H6 H 0.1887 0.2201 0.0598
H7 H 0.1896 0.3468 0.0476
H8 H 0.0259 0.2866 0.0794
C10 C 0.04723(16) 0.50439(10) 0.38574(10)
H9 H 0.0283 0.5637 0.3420
C11 C 0.46387(16) 0.37711(10) 0.25131(10)
H10 H 0.4104 0.4404 0.2727
C12 C 0.02931(16) 0.51482(10) 0.49114(10)
H11 H -0.0007 0.5816 0.5196
C13 C 0.09332(14) 0.40644(10) 0.34361(9)
C14 C 0.45401(16) 0.19951(10) 0.18445(10)
H12 H 0.3934 0.1405 0.1598
C15 C 0.63269(16) 0.37007(12) 0.25786(11)
H13 H 0.6936 0.4286 0.2834
C16 C 0.71167(16) 0.27827(13) 0.22733(11)
H14 H 0.8267 0.2739 0.2312
C17 C 0.0799(2) 0.04818(11) 0.46577(11)
H15 H 0.1914 0.0406 0.4829
H16 H 0.0025 -0.0010 0.4919
O1 O 0.11433(10) 0.20958(7) 0.25161(6)
N1 N 0.12349(13) 0.39702(9) 0.23836(8)
H17 H 0.1028 0.4502 0.1963
loop_
_geom_bond_atom_site_label_1
_geom_bond_atom_site_label_2
_geom_bond_site_symmetry_1
_geom_bond_site_symmetry_2
C1 C3 1_555 1_555
C2 C5 1_555 1_555
C3 C9 1_555 1_555
C4 H1 1_555 1_555
C5 H2 1_555 1_555
C6 C2 1_555 1_555
H3 C6 1_555 1_555
C7 C5 1_555 1_555
H4 C7 1_555 1_555
C8 C6 1_555 1_555
H5 C8 1_555 1_555
C9 H6 1_555 1_555
H7 C9 1_555 1_555
H8 C9 1_555 1_555
C10 H9 1_555 1_555
C11 C1 1_555 1_555
H10 C11 1_555 1_555
C12 C8 1_555 1_555
H11 C12 1_555 1_555
C13 C2 1_555 1_555
C14 C1 1_555 1_555
H12 C14 1_555 1_555
C15 C11 1_555 1_555
H13 C15 1_555 1_555
C16 C4 1_555 1_555
H14 C16 1_555 1_555
C17 C7 1_555 1_555
H15 C17 1_555 1_555
H16 C17 1_555 1_555
O1 C3 1_555 1_555
N1 C3 1_555 1_555
H17 N1 1_555 1_555
C4 C14 1_555 1_555
C5 O1 1_555 1_555
C10 C12 1_555 1_555
C10 C13 1_555 1_555
C13 N1 1_555 1_555
C15 C16 1_555 1_555

#END
