
#######################################################################
#
#                 Cambridge Crystallographic Data Centre
#                                CCDC 
#
#######################################################################
#
# If this CIF has been generated from an entry in the Cambridge 
# Structural Database, then it will include bibliographic, chemical, 
# crystal, experimental, refinement or atomic coordinate data resulting 
# from the CCDC's data processing and validation procedures.
#
#######################################################################

data_QOLBEZ
_chemical_formula_moiety         'C16 H18 N2 O3'
_chemical_name_systematic        
'1-Hydroxy-3-oxo-5,6-dihydro-3H-pyrrolo(3,2,1-ij)quinoline-2-carboxylic acid sec-butylamide'
_chemical_properties_biological  
'moderate anti-inflammatory and diuretic activity'
_symmetry_cell_setting           triclinic
_symmetry_space_group_name_H-M   'P -1'
_symmetry_Int_Tables_number      2
_space_group_name_Hall           '-P 1'
loop_
_symmetry_equiv_pos_site_id
_symmetry_equiv_pos_as_xyz
1 x,y,z
2 -x,-y,-z
_cell_length_a                   7.198(1)
_cell_length_b                   8.658(1)
_cell_length_c                   12.591(1)
_cell_angle_alpha                71.88(1)
_cell_angle_beta                 82.29(1)
_cell_angle_gamma                77.59(1)
_cell_volume                     726.417
_exptl_crystal_colour            colorless
_exptl_crystal_description       plate
_chemical_melting_point          '176-178 deg.C'
_cell_formula_units_Z            2
_exptl_crystal_recrystallization_method ethanol
loop_
_atom_site_label
_atom_site_type_symbol
_atom_site_fract_x
_atom_site_fract_y
_atom_site_fract_z
N1 N 0.7756(2) 0.28172(17) 0.51707(13)
N2 N 0.6755(3) 0.2785(2) 0.19576(15)
H1 H 0.7284 0.1910 0.2440
O1 O 0.76144(19) 0.12664(16) 0.40519(12)
O2 O 0.6465(2) 0.71528(16) 0.26795(13)
H3 H 0.6337 0.6970 0.2095
O3 O 0.6219(3) 0.55856(19) 0.14162(13)
C1 C 0.7667(2) 0.4312(2) 0.53476(16)
C2 C 0.8076(3) 0.4138(3) 0.64309(18)
C3 C 0.8038(3) 0.5544(3) 0.6717(2)
H4 H 0.8315 0.5476 0.7433
C4 C 0.7579(3) 0.7088(3) 0.5924(2)
H5 H 0.7543 0.8037 0.6129
C5 C 0.7182(3) 0.7250(2) 0.4858(2)
H6 H 0.6885 0.8293 0.4349
C6 C 0.7228(2) 0.5810(2) 0.45414(17)
C7 C 0.6888(3) 0.5731(2) 0.34714(17)
C8 C 0.7012(2) 0.4224(2) 0.32787(16)
C9 C 0.7471(2) 0.2667(2) 0.41584(16)
C10 C 0.8214(3) 0.1454(2) 0.61826(16)
H7 H 0.9365 0.0700 0.6046
H8 H 0.7176 0.0845 0.6446
C11 C 0.8511(3) 0.2314(3) 0.70387(18)
H9 H 0.7651 0.2039 0.7704
H10 H 0.9813 0.1986 0.7257
C12 C 0.6653(3) 0.4228(3) 0.21595(17)
C13 C 0.6045(5) 0.2560(5) 0.0984(2)
H11 H 0.5545 0.3640 0.0473
C14 C 0.7826(6) 0.1710(7) 0.0416(4)
H12 H 0.8177 0.0575 0.0874
H13 H 0.7518 0.1686 -0.0305
C15 C 0.9541(8) 0.2583(12) 0.0242(6)
H14 H 1.0624 0.1978 -0.0084
H15 H 0.9838 0.2630 0.0950
H16 H 0.9232 0.3685 -0.0251
C16 C 0.4590(8) 0.1406(8) 0.1206(6)
H17 H 0.3413 0.1888 0.1532
H18 H 0.5083 0.0354 0.1711
H19 H 0.4367 0.1258 0.0512
H2? H 0.6617 0.1903 0.2491
C17? C 0.7115(9) 0.2772(8) 0.0782(2)
H20? H 0.6222 0.3720 0.0362
C18? C 0.6369(12) 0.1231(9) 0.0789(6)
H21? H 0.6410 0.1148 0.0035
H22? H 0.7115 0.0232 0.1245
C19? C 0.4298(14) 0.151(2) 0.1295(15)
H23? H 0.3752 0.0551 0.1382
H24? H 0.3567 0.2458 0.0805
H25? H 0.4285 0.1680 0.2012
C20? C 0.8993(9) 0.2737(10) 0.0035(7)
H26? H 0.8735 0.2814 -0.0710
H27? H 0.9854 0.1722 0.0335
H28? H 0.9561 0.3655 0.0014
loop_
_geom_bond_atom_site_label_1
_geom_bond_atom_site_label_2
_geom_bond_site_symmetry_1
_geom_bond_site_symmetry_2
N1 C1 1_555 1_555
N2 H1 1_555 1_555
O1 C9 1_555 1_555
O2 H3 1_555 1_555
O3 C12 1_555 1_555
C1 C2 1_555 1_555
C2 C3 1_555 1_555
C3 H4 1_555 1_555
C4 C3 1_555 1_555
H5 C4 1_555 1_555
C5 C4 1_555 1_555
H6 C5 1_555 1_555
C6 C1 1_555 1_555
C7 O2 1_555 1_555
C8 C7 1_555 1_555
C9 N1 1_555 1_555
C10 N1 1_555 1_555
H7 C10 1_555 1_555
H8 C10 1_555 1_555
C11 C2 1_555 1_555
H9 C11 1_555 1_555
H10 C11 1_555 1_555
C12 N2 1_555 1_555
C13 N2 1_555 1_555
H11 C13 1_555 1_555
C14 C13 1_555 1_555
H12 C14 1_555 1_555
H13 C14 1_555 1_555
C15 C14 1_555 1_555
H14 C15 1_555 1_555
H15 C15 1_555 1_555
H16 C15 1_555 1_555
C16 C13 1_555 1_555
H17 C16 1_555 1_555
H18 C16 1_555 1_555
H19 C16 1_555 1_555
C5 C6 1_555 1_555
C6 C7 1_555 1_555
C8 C9 1_555 1_555
C8 C12 1_555 1_555
C10 C11 1_555 1_555

#END
