
#######################################################################
#
#                 Cambridge Crystallographic Data Centre
#                                CCDC 
#
#######################################################################
#
# If this CIF has been generated from an entry in the Cambridge 
# Structural Database, then it will include bibliographic, chemical, 
# crystal, experimental, refinement or atomic coordinate data resulting 
# from the CCDC's data processing and validation procedures.
#
#######################################################################

data_QOLVIY
_chemical_formula_moiety         'C42 H28,0.5(C1 H2 Cl2)'
_chemical_name_systematic        
"9,9'-(2,2-Diphenylethene-1,1-diyl)dianthracene dichloromethane solvate"
_symmetry_cell_setting           triclinic
_symmetry_space_group_name_H-M   'P -1'
_symmetry_Int_Tables_number      2
_space_group_name_Hall           '-P 1'
loop_
_symmetry_equiv_pos_site_id
_symmetry_equiv_pos_as_xyz
1 x,y,z
2 -x,-y,-z
_cell_length_a                   11.1338(17)
_cell_length_b                   11.7377(18)
_cell_length_c                   13.640(2)
_cell_angle_alpha                99.497(2)
_cell_angle_beta                 106.951(2)
_cell_angle_gamma                114.788(2)
_cell_volume                     1460.88
_exptl_crystal_colour            colorless
_exptl_crystal_description       block
_cell_formula_units_Z            2
loop_
_atom_site_label
_atom_site_type_symbol
_atom_site_fract_x
_atom_site_fract_y
_atom_site_fract_z
C1 C 0.1144(3) 0.9156(2) 0.27143(19)
C2 C -0.0217(3) 0.8279(2) 0.1851(2)
C3 C -0.0456(3) 0.8100(2) 0.0730(2)
H1 H 0.0336 0.8572 0.0552
C4 C -0.1788(3) 0.7272(3) -0.0086(2)
H2 H -0.1903 0.7161 -0.0819
C5 C -0.3009(3) 0.6573(3) 0.0146(2)
H3 H -0.3939 0.6013 -0.0427
C6 C -0.2834(3) 0.6713(2) 0.1193(2)
H4 H -0.3653 0.6242 0.1344
C7 C -0.1457(3) 0.7545(2) 0.2075(2)
C8 C -0.1295(3) 0.7692(2) 0.3149(2)
H5 H -0.2110 0.7194 0.3294
C9 C 0.0035(3) 0.8550(2) 0.4013(2)
C10 C 0.0165(3) 0.8702(2) 0.5111(2)
H6 H -0.0659 0.8192 0.5242
C11 C 0.1445(3) 0.9561(3) 0.5966(2)
H7 H 0.1513 0.9650 0.6688
C12 C 0.2683(3) 1.0328(2) 0.5776(2)
H8 H 0.3575 1.0933 0.6375
C13 C 0.2605(3) 1.0207(2) 0.4742(2)
H9 H 0.3452 1.0720 0.4638
C14 C 0.1279(3) 0.9326(2) 0.38109(19)
C15 C 0.2476(3) 0.9910(2) 0.25130(18)
C16 C 0.2968(2) 0.9111(2) 0.19125(19)
C17 C 0.3283(2) 0.8178(2) 0.23002(19)
C18 C 0.3282(3) 0.7997(2) 0.3316(2)
H10 H 0.3092 0.8546 0.3770
C19 C 0.3544(3) 0.7059(3) 0.3647(2)
H11 H 0.3506 0.6951 0.4315
C20 C 0.3874(3) 0.6238(3) 0.3008(2)
H12 H 0.4043 0.5579 0.3241
C21 C 0.3942(3) 0.6410(2) 0.2060(2)
H13 H 0.4185 0.5878 0.1642
C22 C 0.3658(2) 0.7370(2) 0.16768(19)
C23 C 0.3728(3) 0.7522(2) 0.0697(2)
H14 H 0.3990 0.6995 0.0294
C24 C 0.3420(2) 0.8429(2) 0.03008(19)
C25 C 0.3469(3) 0.8545(2) -0.0716(2)
H15 H 0.3735 0.8011 -0.1108
C26 C 0.3143(3) 0.9403(3) -0.1131(2)
H16 H 0.3185 0.9472 -0.1806
C27 C 0.2740(3) 1.0197(2) -0.0551(2)
H17 H 0.2499 1.0788 -0.0848
C28 C 0.2692(2) 1.0126(2) 0.0424(2)
H18 H 0.2422 1.0674 0.0794
C29 C 0.3038(2) 0.9247(2) 0.09108(19)
C30 C 0.3192(3) 1.1256(2) 0.28579(18)
C31 C 0.2553(3) 1.2061(2) 0.32044(19)
C32 C 0.3338(3) 1.3132(2) 0.4186(2)
H19 H 0.4251 1.3299 0.4664
C33 C 0.2799(3) 1.3944(2) 0.4466(2)
H20 H 0.3333 1.4650 0.5140
C34 C 0.1476(3) 1.3733(3) 0.3763(2)
H21 H 0.1118 1.4305 0.3950
C35 C 0.0682(3) 1.2680(2) 0.2786(2)
H22 H -0.0219 1.2533 0.2304
C36 C 0.1206(3) 1.1845(2) 0.2517(2)
H23 H 0.0645 1.1115 0.1858
C37 C 0.4691(3) 1.2079(2) 0.29394(18)
C38 C 0.5808(3) 1.1844(2) 0.3458(2)
H24 H 0.5593 1.1091 0.3693
C39 C 0.7225(3) 1.2699(3) 0.3632(2)
H25 H 0.7975 1.2540 0.4003
C40 C 0.7552(3) 1.3784(3) 0.3266(2)
H26 H 0.8522 1.4365 0.3382
C41 C 0.6452(3) 1.4011(3) 0.2730(2)
H27 H 0.6668 1.4739 0.2463
C42 C 0.5042(3) 1.3187(2) 0.25807(19)
H28 H 0.4304 1.3371 0.2233
Cl1? Cl 0.9510(2) 0.51710(18) 0.1409(2)
Cl2? Cl 1.0004(8) 0.5189(8) -0.0645(6)
C43? C 1.0014(19) 0.4679(18) 0.0430(12)
H29? H 1.1016 0.4874 0.0818
H30? H 0.9411 0.3698 0.0131
loop_
_geom_bond_atom_site_label_1
_geom_bond_atom_site_label_2
_geom_bond_site_symmetry_1
_geom_bond_site_symmetry_2
C1 C2 1_555 1_555
C2 C3 1_555 1_555
C3 H1 1_555 1_555
C4 C3 1_555 1_555
H2 C4 1_555 1_555
C5 C4 1_555 1_555
H3 C5 1_555 1_555
C6 C5 1_555 1_555
H4 C6 1_555 1_555
C7 C2 1_555 1_555
C8 C7 1_555 1_555
H5 C8 1_555 1_555
C9 C8 1_555 1_555
C10 C9 1_555 1_555
H6 C10 1_555 1_555
C11 C10 1_555 1_555
H7 C11 1_555 1_555
C12 C11 1_555 1_555
H8 C12 1_555 1_555
C13 C12 1_555 1_555
H9 C13 1_555 1_555
C14 C1 1_555 1_555
C15 C1 1_555 1_555
C16 C15 1_555 1_555
C17 C16 1_555 1_555
C18 C17 1_555 1_555
H10 C18 1_555 1_555
C19 C18 1_555 1_555
H11 C19 1_555 1_555
C20 C19 1_555 1_555
H12 C20 1_555 1_555
C21 C20 1_555 1_555
H13 C21 1_555 1_555
C22 C17 1_555 1_555
C23 C22 1_555 1_555
H14 C23 1_555 1_555
C24 C23 1_555 1_555
C25 C24 1_555 1_555
H15 C25 1_555 1_555
C26 C25 1_555 1_555
H16 C26 1_555 1_555
C27 C26 1_555 1_555
H17 C27 1_555 1_555
C28 C27 1_555 1_555
H18 C28 1_555 1_555
C29 C16 1_555 1_555
C30 C15 1_555 1_555
C31 C30 1_555 1_555
C32 C31 1_555 1_555
H19 C32 1_555 1_555
C33 C32 1_555 1_555
H20 C33 1_555 1_555
C34 C33 1_555 1_555
H21 C34 1_555 1_555
C35 C34 1_555 1_555
H22 C35 1_555 1_555
C36 C31 1_555 1_555
H23 C36 1_555 1_555
C37 C30 1_555 1_555
C38 C37 1_555 1_555
H24 C38 1_555 1_555
C39 C38 1_555 1_555
H25 C39 1_555 1_555
C40 C39 1_555 1_555
H26 C40 1_555 1_555
C41 C40 1_555 1_555
H27 C41 1_555 1_555
C42 C37 1_555 1_555
H28 C42 1_555 1_555
C6 C7 1_555 1_555
C9 C14 1_555 1_555
C13 C14 1_555 1_555
C21 C22 1_555 1_555
C24 C29 1_555 1_555
C28 C29 1_555 1_555
C35 C36 1_555 1_555
C41 C42 1_555 1_555

#END
