
#######################################################################
#
#                 Cambridge Crystallographic Data Centre
#                                CCDC 
#
#######################################################################
#
# If this CIF has been generated from an entry in the Cambridge 
# Structural Database, then it will include bibliographic, chemical, 
# crystal, experimental, refinement or atomic coordinate data resulting 
# from the CCDC's data processing and validation procedures.
#
#######################################################################

data_QOLVOE
_chemical_formula_moiety         'C42 H28,C1 H4 O1'
_chemical_name_systematic        
"9,9'-(2,2-Diphenylethene-1,1-diyl)dianthracene methanol solvate"
_symmetry_cell_setting           triclinic
_symmetry_space_group_name_H-M   'P -1'
_symmetry_Int_Tables_number      2
_space_group_name_Hall           '-P 1'
loop_
_symmetry_equiv_pos_site_id
_symmetry_equiv_pos_as_xyz
1 x,y,z
2 -x,-y,-z
_cell_length_a                   11.171(3)
_cell_length_b                   11.660(3)
_cell_length_c                   13.685(4)
_cell_angle_alpha                99.793(4)
_cell_angle_beta                 107.008(3)
_cell_angle_gamma                114.141(4)
_cell_volume                     1467.25
_exptl_crystal_colour            colorless
_exptl_crystal_description       block
_cell_formula_units_Z            2
loop_
_atom_site_label
_atom_site_type_symbol
_atom_site_fract_x
_atom_site_fract_y
_atom_site_fract_z
C1 C 0.79761(15) 0.41147(15) 0.19266(12)
C2 C 0.80396(15) 0.42436(14) 0.09226(12)
C3 C 0.76831(16) 0.51247(15) 0.04420(12)
H1 H 0.7410 0.5675 0.0813
C4 C 0.77247(17) 0.51942(16) -0.05350(13)
H2 H 0.7473 0.5783 -0.0833
C5 C 0.81396(17) 0.43959(17) -0.11101(13)
H3 H 0.8181 0.4463 -0.1783
C6 C 0.84765(17) 0.35366(16) -0.06953(13)
H4 H 0.8750 0.3003 -0.1085
C7 C 0.84271(16) 0.34209(15) 0.03195(12)
C8 C 0.87409(17) 0.25052(16) 0.07170(13)
H5 H 0.8998 0.1969 0.0312
C9 C 0.86841(16) 0.23621(15) 0.16957(13)
C10 C 0.89821(18) 0.14059(16) 0.20866(13)
H6 H 0.9218 0.0861 0.1668
C11 C 0.89369(18) 0.12542(16) 0.30393(14)
H7 H 0.9112 0.0595 0.3274
C12 C 0.86248(17) 0.20948(16) 0.36789(13)
H8 H 0.8614 0.2007 0.4354
C13 C 0.83398(16) 0.30295(15) 0.33391(12)
H9 H 0.8154 0.3589 0.3792
C14 C 0.83143(15) 0.31863(15) 0.23173(12)
C15 C 0.74686(15) 0.49047(14) 0.25177(12)
C16 C 0.61509(15) 0.41525(14) 0.27188(12)
C17 C 0.48068(16) 0.32640(14) 0.18495(12)
C18 C 0.62708(15) 0.43170(14) 0.38022(12)
C19 C 0.75784(16) 0.51994(15) 0.47357(12)
H10 H 0.8415 0.5722 0.4635
C20 C 0.76572(17) 0.53113(16) 0.57620(13)
H11 H 0.8541 0.5911 0.6361
C21 C 0.64271(18) 0.45372(16) 0.59465(13)
H12 H 0.6493 0.4619 0.6665
C22 C 0.51615(17) 0.36830(16) 0.50919(13)
H13 H 0.4344 0.3171 0.5219
C23 C 0.50396(16) 0.35425(15) 0.40037(12)
C24 C 0.37234(16) 0.26906(15) 0.31367(13)
H14 H 0.2912 0.2198 0.3277
C25 C 0.35714(16) 0.25452(14) 0.20702(13)
C26 C 0.22015(17) 0.17116(16) 0.11872(14)
H15 H 0.1386 0.1254 0.1335
C27 C 0.20418(17) 0.15612(16) 0.01449(14)
H16 H 0.1122 0.1009 -0.0429
C28 C 0.32589(17) 0.22349(17) -0.00870(14)
H17 H 0.3152 0.2107 -0.0818
C29 C 0.45822(17) 0.30649(16) 0.07364(13)
H18 H 0.5374 0.3522 0.0563
C30 C 0.81661(15) 0.62582(14) 0.28658(12)
C31 C 0.75232(16) 0.70691(14) 0.32138(12)
C32 C 0.83125(16) 0.81458(15) 0.41850(13)
H19 H 0.9227 0.8313 0.4651
C33 C 0.77728(17) 0.89735(16) 0.44753(13)
H20 H 0.8307 0.9686 0.5146
C34 C 0.64466(18) 0.87587(16) 0.37825(14)
H21 H 0.6087 0.9335 0.3972
C35 C 0.56582(17) 0.77012(16) 0.28174(14)
H22 H 0.4757 0.7554 0.2344
C36 C 0.61801(16) 0.68520(16) 0.25381(13)
H23 H 0.5620 0.6117 0.1882
C37 C 0.96463(16) 0.70726(15) 0.29384(12)
C38 C 0.99742(17) 0.81672(15) 0.25664(13)
H24 H 0.9235 0.8349 0.2218
C39 C 1.13706(18) 0.89868(16) 0.27033(14)
H25 H 1.1575 0.9712 0.2433
C40 C 1.24748(18) 0.87509(17) 0.32351(14)
H26 H 1.3431 0.9322 0.3339
C41 C 1.21657(17) 0.76771(17) 0.36104(14)
H27 H 1.2914 0.7514 0.3975
C42 C 1.07604(17) 0.68344(16) 0.34553(13)
H28 H 1.0557 0.6091 0.3703
C43 C 0.4873(4) 0.0020(3) 0.1375(3)
H29 H 0.4993 0.0735 0.1062
H30 H 0.3932 -0.0763 0.0929
H31 H 0.5625 -0.0216 0.1397
O1 O 0.4970(3) 0.0463(3) 0.2455(3)
H32 H 0.5685 0.1226 0.2795
loop_
_geom_bond_atom_site_label_1
_geom_bond_atom_site_label_2
_geom_bond_site_symmetry_1
_geom_bond_site_symmetry_2
C1 C2 1_555 1_555
C2 C3 1_555 1_555
C3 H1 1_555 1_555
C4 C3 1_555 1_555
H2 C4 1_555 1_555
C5 C4 1_555 1_555
H3 C5 1_555 1_555
C6 C5 1_555 1_555
H4 C6 1_555 1_555
C7 C2 1_555 1_555
C8 C7 1_555 1_555
H5 C8 1_555 1_555
C9 C8 1_555 1_555
C10 C9 1_555 1_555
H6 C10 1_555 1_555
C11 C10 1_555 1_555
H7 C11 1_555 1_555
C12 C11 1_555 1_555
H8 C12 1_555 1_555
C13 C12 1_555 1_555
H9 C13 1_555 1_555
C14 C1 1_555 1_555
C15 C1 1_555 1_555
C16 C15 1_555 1_555
C17 C16 1_555 1_555
C18 C16 1_555 1_555
C19 C18 1_555 1_555
H10 C19 1_555 1_555
C20 C19 1_555 1_555
H11 C20 1_555 1_555
C21 C20 1_555 1_555
H12 C21 1_555 1_555
C22 C21 1_555 1_555
H13 C22 1_555 1_555
C23 C18 1_555 1_555
C24 C23 1_555 1_555
H14 C24 1_555 1_555
C25 C17 1_555 1_555
C26 C25 1_555 1_555
H15 C26 1_555 1_555
C27 C26 1_555 1_555
H16 C27 1_555 1_555
C28 C27 1_555 1_555
H17 C28 1_555 1_555
C29 C17 1_555 1_555
H18 C29 1_555 1_555
C30 C15 1_555 1_555
C31 C30 1_555 1_555
C32 C31 1_555 1_555
H19 C32 1_555 1_555
C33 C32 1_555 1_555
H20 C33 1_555 1_555
C34 C33 1_555 1_555
H21 C34 1_555 1_555
C35 C34 1_555 1_555
H22 C35 1_555 1_555
C36 C31 1_555 1_555
H23 C36 1_555 1_555
C37 C30 1_555 1_555
C38 C37 1_555 1_555
H24 C38 1_555 1_555
C39 C38 1_555 1_555
H25 C39 1_555 1_555
C40 C39 1_555 1_555
H26 C40 1_555 1_555
C41 C40 1_555 1_555
H27 C41 1_555 1_555
C42 C37 1_555 1_555
H28 C42 1_555 1_555
C43 H29 1_555 1_555
H30 C43 1_555 1_555
H31 C43 1_555 1_555
O1 C43 1_555 1_555
H32 O1 1_555 1_555
C6 C7 1_555 1_555
C9 C14 1_555 1_555
C13 C14 1_555 1_555
C22 C23 1_555 1_555
C24 C25 1_555 1_555
C28 C29 1_555 1_555
C35 C36 1_555 1_555
C41 C42 1_555 1_555

#END
