
#######################################################################
#
#                 Cambridge Crystallographic Data Centre
#                                CCDC 
#
#######################################################################
#
# If this CIF has been generated from an entry in the Cambridge 
# Structural Database, then it will include bibliographic, chemical, 
# crystal, experimental, refinement or atomic coordinate data resulting 
# from the CCDC's data processing and validation procedures.
#
#######################################################################

data_QOMXOF
_chemical_formula_moiety         'C29 H29 N5 O2'
_chemical_name_systematic        
2,5-bis(2-(4-t-Butylphenyl)-1,3,4-oxadiazol-5-yl)pyridine
_symmetry_cell_setting           monoclinic
_symmetry_space_group_name_H-M   'P 21/c'
_symmetry_Int_Tables_number      14
_space_group_name_Hall           '-P 2ybc'
loop_
_symmetry_equiv_pos_site_id
_symmetry_equiv_pos_as_xyz
1 x,y,z
2 x,1/2-y,1/2+z
3 -x,-y,-z
4 -x,1/2+y,1/2-z
_cell_length_a                   12.993(2)
_cell_length_b                   6.222(2)
_cell_length_c                   15.977(4)
_cell_angle_alpha                90
_cell_angle_beta                 99.26(1)
_cell_angle_gamma                90
_cell_volume                     1274.79
_exptl_crystal_colour            'pale yellow'
_exptl_crystal_description       prism
_chemical_melting_point          586.7-587.5K
_cell_formula_units_Z            2
_exptl_crystal_recrystallization_method chloroform
loop_
_atom_site_label
_atom_site_type_symbol
_atom_site_fract_x
_atom_site_fract_y
_atom_site_fract_z
O1 O 0.87871(14) 0.0385(3) 0.27587(10)
N1 N 0.9354(2) 0.3655(4) 0.31176(15)
N2 N 0.8862(2) 0.3668(4) 0.22568(15)
C1 C 0.9283(2) 0.1714(5) 0.33772(16)
C2 C 0.8552(2) 0.1738(5) 0.20825(16)
C3 C 0.9663(2) 0.0813(5) 0.42126(15)
C4 C 1.0097(2) 0.2157(5) 0.48404(16)
H1 H 1.0152 0.3619 0.4735
C5 C 0.9551(2) -0.1339(5) 0.43705(16)
H2 H 0.9236 -0.2241 0.3941
C6 C 0.6176(3) -0.1308(6) -0.10983(18)
C7 C 0.5277(4) -0.2816(12) -0.0904(3)
H3 H 0.4869 -0.1885 -0.0608
H4 H 0.5483 -0.4059 -0.0563
H5 H 0.4869 -0.3255 -0.1431
C8 C 0.6833(4) -0.2623(10) -0.1580(3)
H6 H 0.6423 -0.3125 -0.2096
H7 H 0.7038 -0.3822 -0.1214
H8 H 0.7443 -0.1904 -0.1707
C9 C 0.5643(8) 0.0556(12) -0.1599(5)
H9 H 0.5215 0.1515 -0.1334
H10 H 0.5249 0.0000 -0.2113
H11 H 0.6240 0.1320 -0.1729
C13 C 0.7982(2) 0.0908(5) 0.12845(15)
C14 C 0.7619(3) -0.1177(5) 0.11999(18)
H21 H 0.7757 -0.2121 0.1655
C15 C 0.7049(3) -0.1873(5) 0.04350(18)
H22 H 0.6814 -0.3285 0.0389
C16 C 0.6822(2) -0.0525(5) -0.02579(17)
C17 C 0.7222(3) 0.1522(6) -0.01677(19)
H23 H 0.7110 0.2450 -0.0629
C18 C 0.7788(2) 0.2253(5) 0.05891(18)
H24 H 0.8039 0.3655 0.0629
C5B C 1.0449(2) 0.1339(5) 0.56295(16)
C3B C 1.0337(2) -0.0813(5) 0.57874(15)
C1B C 1.0717(2) -0.1714(5) 0.66228(16)
O1B O 1.12129(14) -0.0385(3) 0.72413(10)
C2B C 1.1448(2) -0.1738(5) 0.79175(16)
N2B N 1.1138(2) -0.3668(4) 0.77432(15)
N1B N 1.0646(2) -0.3655(4) 0.68824(15)
C13B C 1.2018(2) -0.0908(5) 0.87155(15)
C14B C 1.2381(3) 0.1177(5) 0.88001(18)
H21B H 1.2243 0.2121 0.8345
C15B C 1.2951(3) 0.1873(5) 0.95650(18)
H22B H 1.3186 0.3285 0.9611
C16B C 1.3178(2) 0.0525(5) 1.02579(17)
C6B C 1.3824(3) 0.1308(6) 1.10983(18)
C7B C 1.4723(4) 0.2816(12) 1.0904(3)
H3B H 1.5131 0.1885 1.0608
H4B H 1.4517 0.4059 1.0563
H5B H 1.5131 0.3255 1.1431
C8B C 1.3167(4) 0.2623(10) 1.1580(3)
H6B H 1.3577 0.3125 1.2096
H7B H 1.2962 0.3822 1.1214
H8B H 1.2557 0.1904 1.1707
C9B C 1.4357(8) -0.0556(12) 1.1599(5)
H9B H 1.4785 -0.1515 1.1334
H10B H 1.4751 0.0000 1.2113
H11B H 1.3760 -0.1320 1.1729
C17B C 1.2778(3) -0.1522(6) 1.01677(19)
H23B H 1.2890 -0.2450 1.0629
C18B C 1.2212(2) -0.2253(5) 0.94109(18)
H24B H 1.1961 -0.3655 0.9371
C4B C 0.9903(2) -0.2157(5) 0.51596(16)
H1B H 0.9848 -0.3619 0.5265
H2B H 1.0764 0.2241 0.6059
C10? C 0.6733(13) -0.031(3) -0.1846(7)
H12? H 0.7456 -0.0706 -0.1777
H13? H 0.6672 0.1221 -0.1828
H14? H 0.6382 -0.0835 -0.2382
C11? C 0.5154(10) -0.029(3) -0.1292(12)
H15? H 0.4792 -0.0817 -0.1822
H16? H 0.5152 0.1255 -0.1299
H17? H 0.4812 -0.0789 -0.0839
C12? C 0.6246(17) -0.366(2) -0.1236(12)
H18? H 0.6965 -0.4070 -0.1200
H19? H 0.5879 -0.3994 -0.1791
H20? H 0.5940 -0.4438 -0.0819
loop_
_geom_bond_atom_site_label_1
_geom_bond_atom_site_label_2
_geom_bond_site_symmetry_1
_geom_bond_site_symmetry_2
O1 C1 1_555 1_555
N1 N2 1_555 1_555
N2 C2 1_555 1_555
C1 N1 1_555 1_555
C2 O1 1_555 1_555
C3 C1 1_555 1_555
C4 C3 1_555 1_555
H1 C4 1_555 1_555
C5 C3 1_555 1_555
H2 C5 1_555 1_555
C6 C7 1_555 1_555
C7 H3 1_555 1_555
H4 C7 1_555 1_555
H5 C7 1_555 1_555
C8 C6 1_555 1_555
H6 C8 1_555 1_555
H7 C8 1_555 1_555
H8 C8 1_555 1_555
C9 C6 1_555 1_555
H9 C9 1_555 1_555
H10 C9 1_555 1_555
H11 C9 1_555 1_555
C13 C2 1_555 1_555
C14 C13 1_555 1_555
H21 C14 1_555 1_555
C15 C14 1_555 1_555
H22 C15 1_555 1_555
C16 C6 1_555 1_555
C17 C16 1_555 1_555
H23 C17 1_555 1_555
C18 C13 1_555 1_555
H24 C18 1_555 1_555
C5B C4 1_555 1_555
C3B C5B 1_555 1_555
C1B C3B 1_555 1_555
O1B C1B 1_555 1_555
C2B O1B 1_555 1_555
N2B C2B 1_555 1_555
N1B C1B 1_555 1_555
C13B C2B 1_555 1_555
C14B C13B 1_555 1_555
H21B C14B 1_555 1_555
C15B C14B 1_555 1_555
H22B C15B 1_555 1_555
C16B C15B 1_555 1_555
C6B C16B 1_555 1_555
C7B C6B 1_555 1_555
H3B C7B 1_555 1_555
H4B C7B 1_555 1_555
H5B C7B 1_555 1_555
C8B C6B 1_555 1_555
H6B C8B 1_555 1_555
H7B C8B 1_555 1_555
H8B C8B 1_555 1_555
C9B C6B 1_555 1_555
H9B C9B 1_555 1_555
H10B C9B 1_555 1_555
H11B C9B 1_555 1_555
C17B C16B 1_555 1_555
H23B C17B 1_555 1_555
C18B C13B 1_555 1_555
H24B C18B 1_555 1_555
C4B C5 1_555 1_555
H1B C4B 1_555 1_555
H2B C5B 1_555 1_555
C15 C16 1_555 1_555
C17 C18 1_555 1_555
C3B C4B 1_555 1_555
N2B N1B 1_555 1_555
C17B C18B 1_555 1_555

#END
