
#######################################################################
#
#                 Cambridge Crystallographic Data Centre
#                                CCDC 
#
#######################################################################
#
# If this CIF has been generated from an entry in the Cambridge 
# Structural Database, then it will include bibliographic, chemical, 
# crystal, experimental, refinement or atomic coordinate data resulting 
# from the CCDC's data processing and validation procedures.
#
#######################################################################

data_QOMZOI
_chemical_formula_moiety         'C17 H25 N1 O2 S1'
_chemical_name_systematic        
N-((1R,2S,3R)-2-Allyl-3-methylcyclohexyl)-4-toluenesulfonamide
_symmetry_cell_setting           monoclinic
_symmetry_space_group_name_H-M   'P 21'
_symmetry_Int_Tables_number      4
_space_group_name_Hall           'P 2yb'
loop_
_symmetry_equiv_pos_site_id
_symmetry_equiv_pos_as_xyz
1 x,y,z
2 -x,1/2+y,-z
_cell_length_a                   11.3300(5)
_cell_length_b                   10.9724(5)
_cell_length_c                   13.7035(7)
_cell_angle_alpha                90
_cell_angle_beta                 98.732(1)
_cell_angle_gamma                90
_cell_volume                     1683.84
_exptl_crystal_colour            colorless
_exptl_crystal_description       block
_chemical_melting_point          '92-94 deg.C'
_cell_formula_units_Z            4
_exptl_crystal_recrystallization_method heptane
loop_
_atom_site_label
_atom_site_type_symbol
_atom_site_fract_x
_atom_site_fract_y
_atom_site_fract_z
S1 S 0.25744(5) 1.00728(6) 0.27570(4)
O1 O 0.30696(18) 1.10819(19) 0.33640(14)
O2 O 0.21465(18) 0.90198(19) 0.32196(14)
N1 N 0.1479(2) 1.0643(2) 0.19988(17)
C1 C 0.3657(2) 0.9571(2) 0.20553(19)
C2 C 0.3777(3) 0.8328(3) 0.1877(2)
C3 C 0.4571(3) 0.7947(3) 0.1255(2)
C4 C 0.5243(3) 0.8796(3) 0.0814(2)
C5 C 0.5114(3) 1.0021(3) 0.1009(2)
C6 C 0.4326(3) 1.0426(3) 0.1619(2)
C7 C 0.6095(3) 0.8376(3) 0.0136(3)
C8 C 0.0810(2) 0.9867(2) 0.12245(19)
C9 C 0.1270(3) 0.9969(3) 0.0232(2)
C10 C 0.1029(3) 1.1223(3) -0.0226(2)
C11 C -0.0298(3) 1.1529(3) -0.0327(2)
C12 C -0.0772(3) 1.1449(3) 0.0653(2)
C13 C -0.2107(3) 1.1758(4) 0.0492(3)
C14 C -0.0532(2) 1.0168(3) 0.11053(19)
C15 C -0.1034(3) 0.9979(4) 0.2081(2)
C16 C -0.0876(3) 0.8722(4) 0.2502(3)
C17 C -0.1756(4) 0.7948(5) 0.2557(3)
H1 H 0.166(4) 1.128(4) 0.184(3)
H2 H 0.14971 1.18427 0.01929
H3 H -0.07520 1.09598 -0.08031
H4 H -0.24068 1.17315 0.11264
H5 H -0.25417 1.11629 0.00397
H6 H -0.18972 1.01744 0.19668
H7 H -0.15890 0.71616 0.28346
H8 H 0.33230 0.77473 0.21764
H9 H 0.46564 0.71030 0.11295
H10 H 0.55774 1.05999 0.07167
H11 H 0.42424 1.12717 0.17389
H12 H 0.56437 0.79930 -0.04508
H13 H 0.66570 0.77841 0.04827
H14 H 0.65377 0.90775 -0.00632
H15 H 0.09126 0.90007 0.14490
H16 H 0.21399 0.98093 0.03315
H17 H 0.08757 0.93439 -0.02264
H18 H 0.12853 1.12406 -0.08853
H19 H -0.04285 1.23647 -0.05940
H20 H -0.03411 1.20616 0.11168
H21 H -0.22267 1.25763 0.02085
H22 H -0.09500 0.95722 0.06186
H23 H -0.06388 1.05640 0.25762
H24 H -0.00868 0.84620 0.27478
H25 H -0.25569 0.81767 0.23187
S2 S 0.27657(6) 0.41811(6) 0.22809(5)
O3 O 0.2202(2) 0.31864(19) 0.17048(15)
O4 O 0.30525(19) 0.52697(19) 0.17807(16)
N2 N 0.3999(2) 0.3626(3) 0.2866(2)
C18 C 0.1812(3) 0.4611(3) 0.3124(2)
C19 C 0.1315(5) 0.3716(3) 0.3651(3)
C20 C 0.0539(5) 0.4039(3) 0.4293(4)
C21 C 0.0225(3) 0.5235(3) 0.4407(2)
C22 C 0.0699(4) 0.6109(3) 0.3857(3)
C23 C 0.1504(4) 0.5800(3) 0.3229(3)
C24 C -0.0636(4) 0.5585(4) 0.5103(3)
C25 C 0.4898(3) 0.4399(3) 0.3511(3)
C26 C 0.5517(6) 0.5325(8) 0.2908(6)
C27 C 0.6230(6) 0.4666(14) 0.2224(5)
C28 C 0.7136(7) 0.3849(17) 0.2813(8)
C29 C 0.6567(8) 0.2955(10) 0.3425(8)
C30 C 0.7512(12) 0.2132(14) 0.4010(15)
C31 C 0.5837(5) 0.3617(4) 0.4060(4)
C32 C 0.5319(10) 0.2773(9) 0.4818(8)
C33 C 0.4428(19) 0.2764(11) 0.5446(7)
C34 C 0.403(2) 0.3911(12) 0.5557(8)
H26 H 0.381(3) 0.309(3) 0.311(2)
H27 H 0.66395 0.52655 0.18522
H28 H 0.77169 0.43537 0.32507
H29 H 0.80439 0.18146 0.35691
H30 H 0.71186 0.14507 0.42939
H31 H 0.60469 0.25665 0.52852
H32 H 0.34308 0.40560 0.59574
H33 H 0.15090 0.28833 0.35702
H34 H 0.02166 0.34236 0.46626
H35 H 0.04706 0.69364 0.39079
H36 H 0.18409 0.64186 0.28716
H37 H -0.02055 0.60262 0.56701
H38 H -0.09960 0.48477 0.53341
H39 H -0.12650 0.61087 0.47562
H40 H 0.44832 0.48507 0.39939
H41 H 0.49091 0.58491 0.25174
H42 H 0.60547 0.58543 0.33630
H43 H 0.56870 0.41741 0.17436
H44 H 0.75789 0.33995 0.23569
H45 H 0.60183 0.24260 0.29659
H46 H 0.79780 0.26028 0.45420
H47 H 0.63993 0.41867 0.44668
H48 H 0.51274 0.20216 0.44256
H49 H 0.41523 0.20575 0.57433
H50 H 0.43525 0.45713 0.52340
loop_
_geom_bond_atom_site_label_1
_geom_bond_atom_site_label_2
_geom_bond_site_symmetry_1
_geom_bond_site_symmetry_2
S1 O1 1_555 1_555
O2 S1 1_555 1_555
N1 S1 1_555 1_555
C1 S1 1_555 1_555
C2 C1 1_555 1_555
C3 C2 1_555 1_555
C4 C3 1_555 1_555
C5 C4 1_555 1_555
C6 C1 1_555 1_555
C7 C4 1_555 1_555
C8 N1 1_555 1_555
C9 C8 1_555 1_555
C10 C9 1_555 1_555
C11 C10 1_555 1_555
C12 C11 1_555 1_555
C13 C12 1_555 1_555
C14 C8 1_555 1_555
C15 C14 1_555 1_555
C16 C15 1_555 1_555
C17 C16 1_555 1_555
S2 O3 1_555 1_555
O4 S2 1_555 1_555
N2 S2 1_555 1_555
C18 S2 1_555 1_555
C19 C18 1_555 1_555
C20 C19 1_555 1_555
C21 C20 1_555 1_555
C22 C21 1_555 1_555
C23 C18 1_555 1_555
C24 C21 1_555 1_555
C25 N2 1_555 1_555
C26 C25 1_555 1_555
C27 C26 1_555 1_555
C28 C27 1_555 1_555
C29 C28 1_555 1_555
C30 C29 1_555 1_555
C31 C25 1_555 1_555
C32 C31 1_555 1_555
C33 C32 1_555 1_555
C34 C33 1_555 1_555
H1 N1 1_555 1_555
H2 C10 1_555 1_555
H3 C11 1_555 1_555
H4 C13 1_555 1_555
H5 C13 1_555 1_555
H6 C15 1_555 1_555
H7 C17 1_555 1_555
H8 C2 1_555 1_555
H9 C3 1_555 1_555
H10 C5 1_555 1_555
H11 C6 1_555 1_555
H12 C7 1_555 1_555
H13 C7 1_555 1_555
H14 C7 1_555 1_555
H15 C8 1_555 1_555
H16 C9 1_555 1_555
H17 C9 1_555 1_555
H18 C10 1_555 1_555
H19 C11 1_555 1_555
H20 C12 1_555 1_555
H21 C13 1_555 1_555
H22 C14 1_555 1_555
H23 C15 1_555 1_555
H24 C16 1_555 1_555
H25 C17 1_555 1_555
H26 N2 1_555 1_555
H27 C27 1_555 1_555
H28 C28 1_555 1_555
H29 C30 1_555 1_555
H30 C30 1_555 1_555
H31 C32 1_555 1_555
H32 C34 1_555 1_555
H33 C19 1_555 1_555
H34 C20 1_555 1_555
H35 C22 1_555 1_555
H36 C23 1_555 1_555
H37 C24 1_555 1_555
H38 C24 1_555 1_555
H39 C24 1_555 1_555
H40 C25 1_555 1_555
H41 C26 1_555 1_555
H42 C26 1_555 1_555
H43 C27 1_555 1_555
H44 C28 1_555 1_555
H45 C29 1_555 1_555
H46 C30 1_555 1_555
H47 C31 1_555 1_555
H48 C32 1_555 1_555
H49 C33 1_555 1_555
H50 C34 1_555 1_555
C5 C6 1_555 1_555
C12 C14 1_555 1_555
C22 C23 1_555 1_555
C29 C31 1_555 1_555

#END
