
#######################################################################
#
#                 Cambridge Crystallographic Data Centre
#                                CCDC 
#
#######################################################################
#
# If this CIF has been generated from an entry in the Cambridge 
# Structural Database, then it will include bibliographic, chemical, 
# crystal, experimental, refinement or atomic coordinate data resulting 
# from the CCDC's data processing and validation procedures.
#
#######################################################################

data_QONGAC
_chemical_formula_moiety         'C26 H26 N2 O2 S1'
_chemical_name_systematic        
3',6'-bis(ethylamino)-2',7'-dimethyl-3H-spiro[2-benzothiophene-1,9'-xanthen]-3-one
_symmetry_cell_setting           monoclinic
_symmetry_space_group_name_H-M   'P 21/n'
_symmetry_Int_Tables_number      14
_space_group_name_Hall           '-P 2yn'
loop_
_symmetry_equiv_pos_site_id
_symmetry_equiv_pos_as_xyz
1 x,y,z
2 1/2-x,1/2+y,1/2-z
3 -x,-y,-z
4 1/2+x,1/2-y,1/2+z
_cell_length_a                   10.068(2)
_cell_length_b                   16.117(3)
_cell_length_c                   13.490(3)
_cell_angle_alpha                90
_cell_angle_beta                 95.75(3)
_cell_angle_gamma                90
_cell_volume                     2177.95
_exptl_crystal_colour            yellow
_exptl_crystal_description       plate
_cell_formula_units_Z            4
_exptl_crystal_recrystallization_method acetonitrile
_exptl_crystal_preparation       chemsensor
loop_
_atom_site_label
_atom_site_type_symbol
_atom_site_fract_x
_atom_site_fract_y
_atom_site_fract_z
C1 C 0.5961(4) 0.2986(3) 1.0425(3)
C2 C 0.6387(4) 0.2151(3) 1.0504(3)
C3 C 0.7613(4) 0.1948(2) 1.0210(3)
H1 H 0.7889 0.1398 1.0259
C4 C 0.8471(4) 0.2532(2) 0.9840(3)
C5 C 0.9850(3) 0.2308(2) 0.9565(3)
C6 C 1.0524(4) 0.3049(2) 0.9137(3)
C7 C 1.1774(4) 0.2981(3) 0.8766(3)
H2 H 1.2197 0.2467 0.8802
C8 C 1.2404(3) 0.3630(3) 0.8356(3)
C9 C 1.1758(4) 0.4405(3) 0.8285(3)
C10 C 1.0545(4) 0.4494(2) 0.8680(3)
H3 H 1.0129 0.5010 0.8672
C11 C 0.9950(4) 0.3813(3) 0.9088(3)
C12 C 0.8018(4) 0.3332(2) 0.9768(3)
C13 C 0.6795(4) 0.3573(3) 1.0058(3)
H4 H 0.6533 0.4126 1.0008
C14 C 0.4317(4) 0.4064(3) 1.0766(3)
H5 H 0.4298 0.4313 1.0110
H6 H 0.4962 0.4365 1.1211
C15 C 0.2952(4) 0.4138(2) 1.1134(3)
H7 H 0.2304 0.3867 1.0674
H8 H 0.2723 0.4714 1.1185
H9 H 0.2964 0.3882 1.1777
C16 C 0.5521(4) 0.1505(3) 1.0905(3)
H10 H 0.5958 0.0975 1.0902
H11 H 0.4685 0.1477 1.0496
H12 H 0.5363 0.1646 1.1574
C17 C 1.1704(4) 0.5858(3) 0.7639(3)
H13 H 1.2374 0.6264 0.7506
H14 H 1.1300 0.6040 0.8225
C18 C 1.0644(4) 0.5842(3) 0.6769(3)
H15 H 1.1035 0.5676 0.6179
H16 H 1.0262 0.6385 0.6672
H17 H 0.9959 0.5454 0.6900
C19 C 1.3736(3) 0.3512(3) 0.7953(3)
H18 H 1.4041 0.2954 0.8081
H19 H 1.4372 0.3894 0.8274
H20 H 1.3643 0.3613 0.7248
C20 C 1.0793(4) 0.0762(3) 0.9319(3)
C21 C 1.1207(4) 0.1135(3) 1.0299(3)
C22 C 1.2017(4) 0.0738(3) 1.1049(4)
H21 H 1.2347 0.0209 1.0949
C23 C 1.2320(4) 0.1140(4) 1.1939(4)
H22 H 1.2866 0.0885 1.2448
C24 C 1.1819(4) 0.1916(4) 1.2077(3)
H23 H 1.2028 0.2178 1.2687
C25 C 1.1008(4) 0.2328(3) 1.1341(3)
H24 H 1.0676 0.2856 1.1447
C26 C 1.0713(3) 0.1919(3) 1.0438(3)
N1 N 0.4724(3) 0.3209(2) 1.0716(3)
H25 H 0.438(4) 0.2852(18) 1.109(2)
N2 N 1.2362(3) 0.5068(2) 0.7860(3)
H26 H 1.296(3) 0.493(2) 0.748(2)
O1 O 0.8737(2) 0.39924(16) 0.94315(18)
O2 O 1.1122(3) 0.00958(19) 0.9025(2)
S1 S 0.97100(11) 0.14490(7) 0.86167(8)
loop_
_geom_bond_atom_site_label_1
_geom_bond_atom_site_label_2
_geom_bond_site_symmetry_1
_geom_bond_site_symmetry_2
C1 C2 1_555 1_555
C2 C3 1_555 1_555
C3 H1 1_555 1_555
C4 C3 1_555 1_555
C5 C4 1_555 1_555
C6 C5 1_555 1_555
C7 C6 1_555 1_555
H2 C7 1_555 1_555
C8 C7 1_555 1_555
C9 C8 1_555 1_555
C10 C9 1_555 1_555
H3 C10 1_555 1_555
C11 C6 1_555 1_555
C12 C4 1_555 1_555
C13 C1 1_555 1_555
H4 C13 1_555 1_555
C14 H5 1_555 1_555
H6 C14 1_555 1_555
C15 C14 1_555 1_555
H7 C15 1_555 1_555
H8 C15 1_555 1_555
H9 C15 1_555 1_555
C16 C2 1_555 1_555
H10 C16 1_555 1_555
H11 C16 1_555 1_555
H12 C16 1_555 1_555
C17 H13 1_555 1_555
H14 C17 1_555 1_555
C18 C17 1_555 1_555
H15 C18 1_555 1_555
H16 C18 1_555 1_555
H17 C18 1_555 1_555
C19 C8 1_555 1_555
H18 C19 1_555 1_555
H19 C19 1_555 1_555
H20 C19 1_555 1_555
C20 C21 1_555 1_555
C21 C22 1_555 1_555
C22 H21 1_555 1_555
C23 C22 1_555 1_555
H22 C23 1_555 1_555
C24 C23 1_555 1_555
H23 C24 1_555 1_555
C25 C24 1_555 1_555
H24 C25 1_555 1_555
C26 C5 1_555 1_555
N1 C1 1_555 1_555
H25 N1 1_555 1_555
N2 C9 1_555 1_555
H26 N2 1_555 1_555
O1 C11 1_555 1_555
O2 C20 1_555 1_555
S1 C5 1_555 1_555
C10 C11 1_555 1_555
C12 C13 1_555 1_555
C12 O1 1_555 1_555
C14 N1 1_555 1_555
C17 N2 1_555 1_555
C20 S1 1_555 1_555
C21 C26 1_555 1_555
C25 C26 1_555 1_555

#END
