
#######################################################################
#
#                 Cambridge Crystallographic Data Centre
#                                CCDC 
#
#######################################################################
#
# If this CIF has been generated from an entry in the Cambridge 
# Structural Database, then it will include bibliographic, chemical, 
# crystal, experimental, refinement or atomic coordinate data resulting 
# from the CCDC's data processing and validation procedures.
#
#######################################################################

data_QONLOU
_chemical_formula_moiety         'C14 H25 I1 O4'
_chemical_name_systematic        
3-t-Butyl-9-(iodomethyl)-9-methyl-7,8,11,12-tetraoxaspiro(5.6)dodecane
_chemical_properties_biological  'no notable antimalarial activity'
_symmetry_cell_setting           monoclinic
_symmetry_space_group_name_H-M   'P 21/c'
_symmetry_Int_Tables_number      14
_space_group_name_Hall           '-P 2ybc'
loop_
_symmetry_equiv_pos_site_id
_symmetry_equiv_pos_as_xyz
1 x,y,z
2 -x,1/2+y,1/2-z
3 -x,-y,-z
4 x,1/2-y,1/2+z
_cell_length_a                   6.1435(6)
_cell_length_b                   9.3090(13)
_cell_length_c                   28.0931(19)
_cell_angle_alpha                90
_cell_angle_beta                 90.963(6)
_cell_angle_gamma                90
_cell_volume                     1606.41
_cell_formula_units_Z            4
loop_
_atom_site_label
_atom_site_type_symbol
_atom_site_fract_x
_atom_site_fract_y
_atom_site_fract_z
I1 I 0.1881(1) 0.1172(1) 0.1272(1)
O1 O 0.0822(5) -0.1194(3) 0.2553(1)
O2 O 0.2850(5) 0.0973(3) 0.2957(1)
O3 O 0.4741(5) 0.0454(3) 0.2692(1)
O4 O 0.1898(5) -0.1464(3) 0.3017(1)
C1 C 0.1814(6) 0.1266(4) 0.4219(1)
C2 C 0.2766(7) 0.1396(4) 0.2012(1)
C3 C 0.2559(7) -0.1266(4) 0.2222(1)
C4 C 0.3975(6) 0.0087(4) 0.2213(1)
C5 C 0.3167(8) 0.3791(5) 0.4443(2)
C6 C 0.0278(6) 0.1693(4) 0.3804(2)
C7 C 0.3989(7) 0.0801(5) 0.4006(1)
C8 C 0.2048(7) 0.2424(5) 0.4620(1)
C9 C 0.2107(7) -0.0129(4) 0.3267(1)
C10 C 0.3720(7) -0.0477(5) 0.3667(1)
C11 C -0.0052(7) 0.0440(4) 0.3449(1)
C12 C 0.6122(7) -0.0222(5) 0.1963(2)
C13 C -0.0207(8) 0.2817(6) 0.4805(2)
C14 C 0.3374(9) 0.1781(6) 0.5035(2)
H1 H 0.1170 0.0393 0.4369
H2 H 0.3700 0.2256 0.2052
H3 H 0.1430 0.1553 0.2198
H4 H 0.1936 -0.1430 0.1899
H5 H 0.3492 -0.2101 0.2303
H6 H 0.3168 0.4518 0.4695
H7 H 0.2377 0.4160 0.4163
H8 H 0.4670 0.3568 0.4358
H9 H 0.0895 0.2529 0.3635
H10 H -0.1149 0.1982 0.3932
H11 H 0.4626 0.1619 0.3832
H12 H 0.5013 0.0536 0.4268
H13 H 0.5148 -0.0721 0.3530
H14 H 0.3200 -0.1322 0.3846
H15 H -0.0842 -0.0349 0.3608
H16 H -0.0957 0.0773 0.3176
H17 H 0.6963 0.0669 0.1938
H18 H 0.5816 -0.0603 0.1644
H19 H 0.6961 -0.0929 0.2148
H20 H -0.0976 0.1940 0.4897
H21 H -0.1042 0.3313 0.4554
H22 H -0.0046 0.3450 0.5082
H23 H 0.3564 0.2503 0.5285
H24 H 0.4804 0.1480 0.4921
H25 H 0.2604 0.0947 0.5162
loop_
_geom_bond_atom_site_label_1
_geom_bond_atom_site_label_2
_geom_bond_site_symmetry_1
_geom_bond_site_symmetry_2
I1 C2 1_555 1_555
O1 O4 1_555 1_555
O2 O3 1_555 1_555
O3 C4 1_555 1_555
O4 C9 1_555 1_555
C1 C6 1_555 1_555
C2 C4 1_555 1_555
C3 O1 1_555 1_555
C4 C3 1_555 1_555
C5 C8 1_555 1_555
C6 C11 1_555 1_555
C7 C1 1_555 1_555
C8 C1 1_555 1_555
C9 O2 1_555 1_555
C10 C7 1_555 1_555
C11 C9 1_555 1_555
C12 C4 1_555 1_555
C13 C8 1_555 1_555
C14 C8 1_555 1_555
H1 C1 1_555 1_555
H2 C2 1_555 1_555
H3 C2 1_555 1_555
H4 C3 1_555 1_555
H5 C3 1_555 1_555
H6 C5 1_555 1_555
H7 C5 1_555 1_555
H8 C5 1_555 1_555
H9 C6 1_555 1_555
H10 C6 1_555 1_555
H11 C7 1_555 1_555
H12 C7 1_555 1_555
H13 C10 1_555 1_555
H14 C10 1_555 1_555
H15 C11 1_555 1_555
H16 C11 1_555 1_555
H17 C12 1_555 1_555
H18 C12 1_555 1_555
H19 C12 1_555 1_555
H20 C13 1_555 1_555
H21 C13 1_555 1_555
H22 C13 1_555 1_555
H23 C14 1_555 1_555
H24 C14 1_555 1_555
H25 C14 1_555 1_555
C9 C10 1_555 1_555

#END
