
#######################################################################
#
#                 Cambridge Crystallographic Data Centre
#                                CCDC 
#
#######################################################################
#
# If this CIF has been generated from an entry in the Cambridge 
# Structural Database, then it will include bibliographic, chemical, 
# crystal, experimental, refinement or atomic coordinate data resulting 
# from the CCDC's data processing and validation procedures.
#
#######################################################################

data_QONNOX
_chemical_formula_moiety         'C38 H33 N3 O1'
_chemical_name_systematic        
2,2,17,17-Tetramethyl-7,12-diphenyl-5,23,24-triazapentacyclo[16.3.1.1^3,6^.1^8,11^.1^13,16^]pentacosa-1(22),3(25),6,8(24),9,11,13,15,18,20-decaen-4-one
_symmetry_cell_setting           monoclinic
_symmetry_space_group_name_H-M   'P 21/n'
_symmetry_Int_Tables_number      14
_space_group_name_Hall           '-P 2yn'
loop_
_symmetry_equiv_pos_site_id
_symmetry_equiv_pos_as_xyz
1 x,y,z
2 1/2-x,1/2+y,1/2-z
3 -x,-y,-z
4 1/2+x,1/2-y,1/2+z
_cell_length_a                   16.531(2)
_cell_length_b                   10.0937(16)
_cell_length_c                   18.392(3)
_cell_angle_alpha                90
_cell_angle_beta                 111.677(4)
_cell_angle_gamma                90
_cell_volume                     2851.84
_cell_formula_units_Z            4
loop_
_atom_site_label
_atom_site_type_symbol
_atom_site_fract_x
_atom_site_fract_y
_atom_site_fract_z
O1 O 0.53899(12) 0.8833(2) 0.07548(12)
N1 N 0.89598(15) 1.1040(3) 0.07464(14)
N2 N 1.01567(15) 0.8994(3) 0.14303(14)
H1 H 0.9588 0.9090 0.1218
C1 C 0.75315(18) 0.9811(3) 0.12174(17)
H2 H 0.8143 0.9823 0.1499
N3 N 0.61965(15) 1.0300(3) 0.03355(14)
H3 H 0.5770 1.0669 -0.0053
C2 C 0.8573(2) 1.3000(3) 0.00519(18)
H4 H 0.8217 1.3699 -0.0243
C3 C 1.07586(19) 0.9925(3) 0.13828(18)
C4 C 1.0573(2) 0.7907(3) 0.18535(18)
C5 C 1.12536(19) 1.1961(3) 0.09371(18)
C6 C 0.93770(19) 0.7810(3) 0.36362(19)
H5 H 0.9633 0.7949 0.4185
C7 C 0.67442(19) 1.2351(3) -0.0483(2)
C8 C 0.86298(19) 0.7357(3) 0.20599(19)
H6 H 0.8370 0.7186 0.1514
C9 C 0.96969(19) 1.1679(3) 0.07136(18)
C10 C 0.94393(19) 1.2897(3) 0.02754(18)
H7 H 0.9815 1.3511 0.0166
C11 C 0.98910(19) 0.7428(3) 0.3237(2)
H8 H 1.0501 0.7330 0.3506
C12 C 0.8093(2) 0.7782(3) 0.2461(2)
C13 C 1.15700(18) 0.9396(3) 0.17981(17)
H9 H 1.2113 0.9810 0.1881
C14 C 1.17932(18) 1.1449(3) 0.05741(17)
H10 H 1.1705 1.0567 0.0382
C15 C 0.71155(19) 0.7956(3) 0.20060(19)
C16 C 1.14094(19) 1.3252(3) 0.12229(18)
H11 H 1.1053 1.3626 0.1473
C17 C 0.9517(2) 0.7181(3) 0.24303(19)
C18 C 0.66271(17) 0.8379(3) 0.25479(18)
H12 H 0.6878 0.9206 0.2816
H13 H 0.6687 0.7683 0.2936
H14 H 0.6009 0.8515 0.2233
C19 C 0.69721(19) 0.9002(3) 0.13852(18)
C20 C 0.73692(18) 1.1553(3) 0.01769(18)
C21 C 1.05187(19) 1.1162(3) 0.10027(17)
C22 C 0.70838(19) 1.0650(3) 0.05592(18)
C23 C 0.8288(2) 1.1839(3) 0.03474(17)
C24 C 0.95579(18) 0.6086(3) 0.11996(16)
H15 H 0.9177 0.6752 0.0852
H16 H 0.9204 0.5366 0.1283
H17 H 0.9953 0.5730 0.0961
C25 C 1.2063(2) 1.3984(3) 0.11488(18)
H18 H 1.2163 1.4860 0.1352
C26 C 1.25860(19) 1.3467(3) 0.07817(19)
H19 H 1.3040 1.3993 0.0732
C27 C 0.84817(19) 0.7999(3) 0.32504(19)
H20 H 0.8139 0.8282 0.3538
C28 C 1.14540(19) 0.8137(3) 0.20782(19)
H21 H 1.1905 0.7548 0.2371
C29 C 0.67319(17) 0.6630(3) 0.16154(18)
H22 H 0.6103 0.6727 0.1333
H23 H 0.6840 0.5944 0.2017
H24 H 0.7008 0.6375 0.1248
C30 C 1.24566(18) 1.2201(3) 0.04874(17)
H25 H 1.2813 1.1846 0.0231
C31 C 0.6086(2) 0.9312(3) 0.08024(19)
C32 C 1.00913(19) 0.6728(3) 0.19890(19)
C33 C 0.6230(2) 1.3331(3) -0.0352(2)
H26 H 0.6262 1.3499 0.0166
C34 C 1.07576(18) 0.5696(3) 0.24821(17)
H27 H 1.1122 0.5406 0.2196
H28 H 1.0448 0.4933 0.2583
H29 H 1.1125 0.6096 0.2980
C35 C 0.5638(2) 1.3866(4) -0.1712(2)
H30 H 0.5263 1.4389 -0.2130
C36 C 0.6144(2) 1.2916(4) -0.1853(2)
H31 H 0.6122 1.2762 -0.2369
C37 C 0.56720(19) 1.4069(3) -0.0960(2)
H32 H 0.5309 1.4719 -0.0861
C38 C 0.6686(2) 1.2180(3) -0.1238(2)
H33 H 0.7038 1.1520 -0.1342
loop_
_geom_bond_atom_site_label_1
_geom_bond_atom_site_label_2
_geom_bond_site_symmetry_1
_geom_bond_site_symmetry_2
O1 C31 1_555 1_555
N1 C9 1_555 1_555
N2 H1 1_555 1_555
C1 H2 1_555 1_555
N3 H3 1_555 1_555
C2 H4 1_555 1_555
C3 N2 1_555 1_555
C4 N2 1_555 1_555
C5 C14 1_555 1_555
C6 H5 1_555 1_555
C7 C20 1_555 1_555
C8 H6 1_555 1_555
C9 C10 1_555 1_555
C10 C2 1_555 1_555
H7 C10 1_555 1_555
C11 C6 1_555 1_555
H8 C11 1_555 1_555
C12 C8 1_555 1_555
C13 C3 1_555 1_555
H9 C13 1_555 1_555
C14 H10 1_555 1_555
C15 C12 1_555 1_555
C16 C5 1_555 1_555
H11 C16 1_555 1_555
C17 C8 1_555 1_555
C18 C15 1_555 1_555
H12 C18 1_555 1_555
H13 C18 1_555 1_555
H14 C18 1_555 1_555
C19 C1 1_555 1_555
C20 C22 1_555 1_555
C21 C3 1_555 1_555
C22 C1 1_555 1_555
C23 N1 1_555 1_555
C24 H15 1_555 1_555
H16 C24 1_555 1_555
H17 C24 1_555 1_555
C25 C16 1_555 1_555
H18 C25 1_555 1_555
C26 C25 1_555 1_555
H19 C26 1_555 1_555
C27 C6 1_555 1_555
H20 C27 1_555 1_555
C28 C4 1_555 1_555
H21 C28 1_555 1_555
C29 C15 1_555 1_555
H22 C29 1_555 1_555
H23 C29 1_555 1_555
H24 C29 1_555 1_555
C30 C14 1_555 1_555
H25 C30 1_555 1_555
C31 N3 1_555 1_555
C32 C4 1_555 1_555
C33 C7 1_555 1_555
H26 C33 1_555 1_555
C34 C32 1_555 1_555
H27 C34 1_555 1_555
H28 C34 1_555 1_555
H29 C34 1_555 1_555
C35 H30 1_555 1_555
C36 C35 1_555 1_555
H31 C36 1_555 1_555
C37 C33 1_555 1_555
H32 C37 1_555 1_555
C38 C7 1_555 1_555
H33 C38 1_555 1_555
N3 C22 1_555 1_555
C2 C23 1_555 1_555
C5 C21 1_555 1_555
C9 C21 1_555 1_555
C11 C17 1_555 1_555
C12 C27 1_555 1_555
C13 C28 1_555 1_555
C15 C19 1_555 1_555
C17 C32 1_555 1_555
C19 C31 1_555 1_555
C20 C23 1_555 1_555
C24 C32 1_555 1_555
C26 C30 1_555 1_555
C35 C37 1_555 1_555
C36 C38 1_555 1_555

#END
