
#######################################################################
#
#                 Cambridge Crystallographic Data Centre
#                                CCDC 
#
#######################################################################
#
# If this CIF has been generated from an entry in the Cambridge 
# Structural Database, then it will include bibliographic, chemical, 
# crystal, experimental, refinement or atomic coordinate data resulting 
# from the CCDC's data processing and validation procedures.
#
#######################################################################

data_QONNUD
_chemical_formula_moiety         'C38 H33 N3 O1'
_chemical_name_systematic        
2,2,17,17-Tetramethyl-7,12-diphenyl-4,23,24-triazapentacyclo[16.3.1.1^3,6^.1^8,11^.1^13,16^]pentacosa-1(22),3(25),6,8(24),9,11,13,15,18,20-decaen-5-one
_symmetry_cell_setting           monoclinic
_symmetry_space_group_name_H-M   'P 21/n'
_symmetry_Int_Tables_number      14
_space_group_name_Hall           '-P 2yn'
loop_
_symmetry_equiv_pos_site_id
_symmetry_equiv_pos_as_xyz
1 x,y,z
2 1/2-x,1/2+y,1/2-z
3 -x,-y,-z
4 1/2+x,1/2-y,1/2+z
_cell_length_a                   17.069(3)
_cell_length_b                   10.047(2)
_cell_length_c                   18.578(4)
_cell_angle_alpha                90
_cell_angle_beta                 115.17(3)
_cell_angle_gamma                90
_cell_volume                     2883.47
_exptl_crystal_colour            black
_exptl_crystal_description       prism
_cell_formula_units_Z            4
loop_
_atom_site_label
_atom_site_type_symbol
_atom_site_fract_x
_atom_site_fract_y
_atom_site_fract_z
O1 O 0.05510(8) 0.11434(13) -0.03699(8)
N1 N 0.39983(10) 0.11766(15) 0.07705(8)
N2 N 0.50561(10) -0.10935(17) 0.14226(8)
H1 H 0.4513 -0.0909 0.1221
N3 N 0.11235(10) -0.03966(17) 0.06450(9)
H2 H 0.0649 -0.0787 0.0579
C1 C 0.33550(13) 0.2030(2) 0.03272(11)
C2 C 0.36738(13) 0.30560(19) -0.00139(11)
H3 H 0.3353 0.3744 -0.0342
C3 C 0.45356(13) 0.2832(2) 0.02329(11)
H4 H 0.4918 0.3342 0.0111
C4 C 0.47415(13) 0.1658(2) 0.07159(11)
C5 C 0.55413(13) 0.1011(2) 0.10388(11)
C6 C 0.56984(13) -0.0261(2) 0.14011(11)
C7 C 0.64890(13) -0.0937(2) 0.18054(11)
H5 H 0.7035 -0.0621 0.1893
C8 C 0.63068(13) -0.2158(2) 0.20486(11)
H6 H 0.6711 -0.2809 0.2324
C9 C 0.54160(13) -0.2243(2) 0.18101(11)
C10 C 0.48819(12) -0.3375(2) 0.19104(11)
C11 C 0.43054(12) -0.39342(19) 0.10779(11)
H7 H 0.3965 -0.4659 0.1128
H8 H 0.4664 -0.4246 0.0831
H9 H 0.3929 -0.3246 0.0757
C12 C 0.54931(12) -0.45097(19) 0.23830(11)
H10 H 0.5159 -0.5227 0.2450
H11 H 0.5889 -0.4185 0.2895
H12 H 0.5812 -0.4823 0.2098
C13 C 0.34694(13) -0.25960(18) 0.19339(11)
H13 H 0.3211 -0.2696 0.1384
C14 C 0.43456(13) -0.28930(18) 0.23466(12)
C15 C 0.47283(12) -0.27413(19) 0.31737(12)
H14 H 0.5315 -0.2916 0.3464
C16 C 0.42347(13) -0.23334(19) 0.35567(12)
H15 H 0.4490 -0.2255 0.4108
C17 C 0.33556(13) -0.20338(18) 0.31332(12)
H16 H 0.3036 -0.1754 0.3405
C18 C 0.29580(13) -0.21496(19) 0.23151(12)
C19 C 0.20047(13) -0.1833(2) 0.18137(12)
C20 C 0.15390(11) -0.30920(19) 0.13546(11)
H17 H 0.1585 -0.3786 0.1725
H18 H 0.1803 -0.3379 0.1016
H19 H 0.0940 -0.2893 0.1036
C21 C 0.15359(11) -0.13572(19) 0.23216(11)
H20 H 0.1575 -0.2035 0.2700
H21 H 0.0938 -0.1186 0.1981
H22 H 0.1804 -0.0556 0.2599
C22 C 0.25510(12) 0.0043(2) 0.11576(11)
H23 H 0.3144 0.0001 0.1473
C23 C 0.19457(13) -0.0742(2) 0.12360(12)
C24 C 0.11750(14) 0.0639(2) 0.01887(14)
C25 C 0.21245(12) 0.0961(2) 0.05007(11)
C26 C 0.24450(13) 0.1869(2) 0.01523(11)
C27 C 0.62911(12) 0.1713(2) 0.09947(11)
C28 C 0.64944(12) 0.3025(2) 0.12660(11)
H24 H 0.6171 0.3451 0.1493
C29 C 0.71642(13) 0.3691(2) 0.12015(11)
H25 H 0.7293 0.4559 0.1388
C30 C 0.76497(13) 0.3068(3) 0.08584(12)
H26 H 0.8097 0.3527 0.0809
C31 C 0.74734(13) 0.1784(2) 0.05938(11)
H27 H 0.7800 0.1368 0.0366
C32 C 0.67972(12) 0.1100(2) 0.06686(11)
H28 H 0.6684 0.0222 0.0497
C33 C 0.18219(12) 0.2746(2) -0.04884(13)
C34 C 0.16323(13) 0.2522(2) -0.12812(13)
H29 H 0.1929 0.1862 -0.1415
C35 C 0.10094(14) 0.3266(2) -0.18758(13)
H30 H 0.0886 0.3096 -0.2405
C36 C 0.05682(13) 0.4261(2) -0.16886(13)
H31 H 0.0146 0.4758 -0.2089
C37 C 0.07625(13) 0.4509(2) -0.08973(14)
H32 H 0.0472 0.5178 -0.0764
C38 C 0.13912(12) 0.3759(2) -0.03020(12)
H33 H 0.1524 0.3941 0.0228
loop_
_geom_bond_atom_site_label_1
_geom_bond_atom_site_label_2
_geom_bond_site_symmetry_1
_geom_bond_site_symmetry_2
O1 C24 1_555 1_555
N1 C1 1_555 1_555
N2 H1 1_555 1_555
N3 H2 1_555 1_555
C1 C2 1_555 1_555
C2 H3 1_555 1_555
C3 C2 1_555 1_555
H4 C3 1_555 1_555
C4 N1 1_555 1_555
C5 C4 1_555 1_555
C6 N2 1_555 1_555
C7 C6 1_555 1_555
H5 C7 1_555 1_555
C8 C7 1_555 1_555
H6 C8 1_555 1_555
C9 N2 1_555 1_555
C10 C9 1_555 1_555
C11 C10 1_555 1_555
H7 C11 1_555 1_555
H8 C11 1_555 1_555
H9 C11 1_555 1_555
C12 C10 1_555 1_555
H10 C12 1_555 1_555
H11 C12 1_555 1_555
H12 C12 1_555 1_555
C13 H13 1_555 1_555
C14 C10 1_555 1_555
C15 C14 1_555 1_555
H14 C15 1_555 1_555
C16 C15 1_555 1_555
H15 C16 1_555 1_555
C17 C16 1_555 1_555
H16 C17 1_555 1_555
C18 C13 1_555 1_555
C19 C18 1_555 1_555
C20 C19 1_555 1_555
H17 C20 1_555 1_555
H18 C20 1_555 1_555
H19 C20 1_555 1_555
C21 C19 1_555 1_555
H20 C21 1_555 1_555
H21 C21 1_555 1_555
H22 C21 1_555 1_555
C22 H23 1_555 1_555
C23 N3 1_555 1_555
C24 N3 1_555 1_555
C25 C22 1_555 1_555
C26 C1 1_555 1_555
C27 C5 1_555 1_555
C28 C27 1_555 1_555
H24 C28 1_555 1_555
C29 C28 1_555 1_555
H25 C29 1_555 1_555
C30 C29 1_555 1_555
H26 C30 1_555 1_555
C31 C30 1_555 1_555
H27 C31 1_555 1_555
C32 C27 1_555 1_555
H28 C32 1_555 1_555
C33 C26 1_555 1_555
C34 C33 1_555 1_555
H29 C34 1_555 1_555
C35 C34 1_555 1_555
H30 C35 1_555 1_555
C36 C35 1_555 1_555
H31 C36 1_555 1_555
C37 C36 1_555 1_555
H32 C37 1_555 1_555
C38 C33 1_555 1_555
H33 C38 1_555 1_555
C3 C4 1_555 1_555
C5 C6 1_555 1_555
C8 C9 1_555 1_555
C13 C14 1_555 1_555
C17 C18 1_555 1_555
C19 C23 1_555 1_555
C22 C23 1_555 1_555
C24 C25 1_555 1_555
C25 C26 1_555 1_555
C31 C32 1_555 1_555
C37 C38 1_555 1_555

#END
