
#######################################################################
#
#                 Cambridge Crystallographic Data Centre
#                                CCDC 
#
#######################################################################
#
# If this CIF has been generated from an entry in the Cambridge 
# Structural Database, then it will include bibliographic, chemical, 
# crystal, experimental, refinement or atomic coordinate data resulting 
# from the CCDC's data processing and validation procedures.
#
#######################################################################

data_QONWUN
_chemical_formula_moiety         'C31 H24 O3'
_chemical_name_systematic        
3,4-bis(4-Methoxyphenyl)-2,5-diphenylcyclopenta-2,4-dien-1-one
_symmetry_cell_setting           monoclinic
_symmetry_space_group_name_H-M   'P 21/n'
_symmetry_Int_Tables_number      14
_space_group_name_Hall           '-P 2yn'
loop_
_symmetry_equiv_pos_site_id
_symmetry_equiv_pos_as_xyz
1 x,y,z
2 1/2-x,1/2+y,1/2-z
3 -x,-y,-z
4 1/2+x,1/2-y,1/2+z
_cell_length_a                   10.1080(8)
_cell_length_b                   9.5276(8)
_cell_length_c                   24.183(3)
_cell_angle_alpha                90
_cell_angle_beta                 98.053(10)
_cell_angle_gamma                90
_cell_volume                     2305.98
_exptl_crystal_colour            'orange red'
_exptl_crystal_description       plate
_cell_formula_units_Z            4
_exptl_crystal_recrystallization_method dichloromethane/hexane
loop_
_atom_site_label
_atom_site_type_symbol
_atom_site_fract_x
_atom_site_fract_y
_atom_site_fract_z
C1 C 0.3825(3) 0.4069(3) 0.08889(12)
C2 C 0.5152(3) 0.3569(3) 0.11965(12)
C3 C 0.5174(3) 0.3924(3) 0.17333(12)
C4 C 0.3873(3) 0.4671(3) 0.18090(12)
C5 C 0.3085(3) 0.4759(3) 0.13139(12)
C6 C 0.1818(3) 0.5526(3) 0.11531(11)
C7 C 0.0747(3) 0.4909(3) 0.08100(12)
H1 H 0.0789 0.3969 0.0709
C8 C -0.0383(3) 0.5698(3) 0.06194(12)
H2 H -0.1098 0.5277 0.0397
C9 C -0.0454(3) 0.7094(3) 0.07569(12)
H3 H -0.1196 0.7625 0.0614
C10 C 0.0596(3) 0.7711(3) 0.11121(12)
H4 H 0.0541 0.8647 0.1216
C11 C 0.1715(3) 0.6929(3) 0.13085(12)
H5 H 0.2407 0.7343 0.1547
C12 C 0.3585(3) 0.5191(3) 0.23542(12)
C13 C 0.2404(3) 0.4805(3) 0.25519(12)
H6 H 0.1785 0.4251 0.2329
C14 C 0.2135(3) 0.5227(3) 0.30728(12)
H7 H 0.1350 0.4941 0.3199
C15 C 0.3030(3) 0.6073(3) 0.34055(12)
C16 C 0.4195(3) 0.6519(3) 0.32078(12)
H8 H 0.4782 0.7124 0.3421
C17 C 0.4473(3) 0.6060(3) 0.26958(12)
H9 H 0.5267 0.6333 0.2574
C18 C 0.6282(3) 0.3717(3) 0.21900(12)
C19 C 0.6113(3) 0.3074(3) 0.26906(12)
H10 H 0.5265 0.2778 0.2746
C20 C 0.7178(3) 0.2861(3) 0.31116(13)
H11 H 0.7049 0.2401 0.3439
C21 C 0.8440(3) 0.3345(3) 0.30387(12)
C22 C 0.8626(3) 0.4006(3) 0.25426(12)
H12 H 0.9468 0.4337 0.2495
C23 C 0.7573(3) 0.4174(3) 0.21226(12)
H13 H 0.7716 0.4596 0.1789
C24 C 0.6172(3) 0.2796(3) 0.09308(11)
C25 C 0.6811(3) 0.1614(3) 0.11860(12)
H14 H 0.6572 0.1289 0.1521
C26 C 0.7795(3) 0.0918(3) 0.09488(12)
H15 H 0.8207 0.0128 0.1121
C27 C 0.8161(3) 0.1417(3) 0.04480(13)
H16 H 0.8836 0.0973 0.0290
C28 C 0.7520(3) 0.2568(3) 0.01888(13)
H17 H 0.7759 0.2888 -0.0147
C29 C 0.6522(3) 0.3256(3) 0.04232(12)
H18 H 0.6087 0.4022 0.0242
C30 C 0.1955(3) 0.5712(3) 0.42108(13)
H19 H 0.1067 0.5858 0.4021
H20 H 0.2006 0.6025 0.4591
H21 H 0.2171 0.4731 0.4205
C31 C 0.9408(3) 0.2565(4) 0.39507(13)
H22 H 0.9059 0.1632 0.3890
H23 H 0.8802 0.3117 0.4133
H24 H 1.0261 0.2525 0.4182
O1 O 0.3454(2) 0.3973(2) 0.03929(9)
O2 O 0.9561(2) 0.3192(2) 0.34262(9)
O3 O 0.2885(2) 0.6492(2) 0.39352(8)
loop_
_geom_bond_atom_site_label_1
_geom_bond_atom_site_label_2
_geom_bond_site_symmetry_1
_geom_bond_site_symmetry_2
C1 C2 1_555 1_555
C2 C3 1_555 1_555
C3 C4 1_555 1_555
C4 C5 1_555 1_555
C5 C1 1_555 1_555
C6 C5 1_555 1_555
C7 C6 1_555 1_555
H1 C7 1_555 1_555
C8 C7 1_555 1_555
H2 C8 1_555 1_555
C9 C8 1_555 1_555
H3 C9 1_555 1_555
C10 C9 1_555 1_555
H4 C10 1_555 1_555
C11 C6 1_555 1_555
H5 C11 1_555 1_555
C12 C4 1_555 1_555
C13 C12 1_555 1_555
H6 C13 1_555 1_555
C14 C13 1_555 1_555
H7 C14 1_555 1_555
C15 C14 1_555 1_555
C16 C15 1_555 1_555
H8 C16 1_555 1_555
C17 C12 1_555 1_555
H9 C17 1_555 1_555
C18 C3 1_555 1_555
C19 C18 1_555 1_555
H10 C19 1_555 1_555
C20 C19 1_555 1_555
H11 C20 1_555 1_555
C21 C20 1_555 1_555
C22 C21 1_555 1_555
H12 C22 1_555 1_555
C23 C18 1_555 1_555
H13 C23 1_555 1_555
C24 C2 1_555 1_555
C25 C24 1_555 1_555
H14 C25 1_555 1_555
C26 C25 1_555 1_555
H15 C26 1_555 1_555
C27 C26 1_555 1_555
H16 C27 1_555 1_555
C28 C27 1_555 1_555
H17 C28 1_555 1_555
C29 C24 1_555 1_555
H18 C29 1_555 1_555
C30 H19 1_555 1_555
H20 C30 1_555 1_555
H21 C30 1_555 1_555
C31 H22 1_555 1_555
H23 C31 1_555 1_555
H24 C31 1_555 1_555
O1 C1 1_555 1_555
O2 C21 1_555 1_555
O3 C15 1_555 1_555
C10 C11 1_555 1_555
C16 C17 1_555 1_555
C22 C23 1_555 1_555
C28 C29 1_555 1_555
C30 O3 1_555 1_555
C31 O2 1_555 1_555

#END
