
#######################################################################
#
#                 Cambridge Crystallographic Data Centre
#                                CCDC 
#
#######################################################################
#
# If this CIF has been generated from an entry in the Cambridge 
# Structural Database, then it will include bibliographic, chemical, 
# crystal, experimental, refinement or atomic coordinate data resulting 
# from the CCDC's data processing and validation procedures.
#
#######################################################################

data_QONYUP01
_chemical_formula_moiety         'C6 H12 N4,C6 H3 N3 O7'
_chemical_name_systematic        
'2,4,6-trinitrophenol 1,3,5,7-tetraazatricyclo[3.3.1.1^3,7^]decane'
_symmetry_cell_setting           monoclinic
_symmetry_space_group_name_H-M   'P 21/c'
_symmetry_Int_Tables_number      14
_space_group_name_Hall           '-P 2ybc'
loop_
_symmetry_equiv_pos_site_id
_symmetry_equiv_pos_as_xyz
1 x,y,z
2 -x,1/2+y,1/2-z
3 -x,-y,-z
4 x,1/2-y,1/2+z
_cell_length_a                   12.475(4)
_cell_length_b                   6.719(2)
_cell_length_c                   18.719(7)
_cell_angle_alpha                90
_cell_angle_beta                 107.137(10)
_cell_angle_gamma                90
_cell_volume                     1499.36
_exptl_crystal_colour            yellow
_exptl_crystal_description       Rod
_cell_formula_units_Z            4
loop_
_atom_site_label
_atom_site_type_symbol
_atom_site_fract_x
_atom_site_fract_y
_atom_site_fract_z
O1 O 0.04135(19) -0.3509(3) 0.94961(17)
O2 O -0.17852(15) 0.4642(3) 0.79745(13)
O3 O -0.23754(14) 0.2432(3) 0.85707(14)
O4 O -0.10331(12) -0.0557(3) 0.92030(10)
H1 H -0.1613 0.0097 0.9111
O5 O 0.20773(18) -0.2871(4) 0.95538(18)
O6 O 0.19339(16) 0.4915(3) 0.78681(13)
O7 O 0.31336(12) 0.2708(3) 0.84288(10)
N1 N 0.10983(15) -0.2420(3) 0.93823(10)
N2 N -0.16289(13) 0.3134(3) 0.83512(10)
N3 N 0.21741(14) 0.3371(3) 0.82253(9)
C1 C 0.02540(15) 0.3135(3) 0.82887(10)
H2 H 0.0088 0.4338 0.8034
C2 C 0.13087(14) 0.2306(3) 0.84312(10)
C3 C 0.15633(14) 0.0479(3) 0.87834(9)
H3 H 0.2270 -0.0081 0.8859
C4 C 0.07652(15) -0.0492(3) 0.90182(10)
C5 C -0.05475(14) 0.2163(3) 0.85268(10)
C6 C -0.03560(14) 0.0293(3) 0.89376(10)
N4 N 0.50801(13) 0.0979(2) 0.08531(8)
C7 C 0.48869(16) 0.2880(3) 0.04469(10)
H4 H 0.4584 0.2621 -0.0084
H5 H 0.5597 0.3566 0.0528
C8 C 0.45730(16) 0.4524(3) 0.14984(10)
H6 H 0.5279 0.5231 0.1592
H7 H 0.4062 0.5358 0.1668
C9 C 0.30423(15) 0.3174(3) 0.05521(10)
H8 H 0.2726 0.2934 0.0020
H9 H 0.2525 0.4009 0.0715
N5 N 0.41048(13) 0.4169(2) 0.06913(8)
C10 C 0.37008(15) 0.1635(3) 0.17971(9)
H10 H 0.3188 0.2452 0.1972
H11 H 0.3814 0.0395 0.2075
N6 N 0.47609(12) 0.2656(2) 0.19271(8)
C11 C 0.55293(15) 0.1400(3) 0.16569(10)
H12 H 0.6247 0.2069 0.1752
H13 H 0.5653 0.0156 0.1932
C12 C 0.40244(17) -0.0052(3) 0.07125(11)
H14 H 0.4139 -0.1312 0.0977
H15 H 0.3722 -0.0325 0.0182
N7 N 0.32016(12) 0.1212(2) 0.09711(8)
loop_
_geom_bond_atom_site_label_1
_geom_bond_atom_site_label_2
_geom_bond_site_symmetry_1
_geom_bond_site_symmetry_2
O1 N1 1_555 1_555
O2 N2 1_555 1_555
O3 N2 1_555 1_555
O4 H1 1_555 1_555
O5 N1 1_555 1_555
O6 N3 1_555 1_555
O7 N3 1_555 1_555
N1 C4 1_555 1_555
N2 C5 1_555 1_555
N3 C2 1_555 1_555
C1 H2 1_555 1_555
C2 C1 1_555 1_555
C3 C2 1_555 1_555
H3 C3 1_555 1_555
C4 C3 1_555 1_555
C5 C1 1_555 1_555
C6 O4 1_555 1_555
N4 C7 1_555 1_555
C7 H4 1_555 1_555
H5 C7 1_555 1_555
C8 H6 1_555 1_555
H7 C8 1_555 1_555
C9 H8 1_555 1_555
H9 C9 1_555 1_555
N5 C7 1_555 1_555
C10 H10 1_555 1_555
H11 C10 1_555 1_555
N6 C8 1_555 1_555
C11 N4 1_555 1_555
H12 C11 1_555 1_555
H13 C11 1_555 1_555
C12 N4 1_555 1_555
H14 C12 1_555 1_555
H15 C12 1_555 1_555
N7 C9 1_555 1_555
C4 C6 1_555 1_555
C5 C6 1_555 1_555
C8 N5 1_555 1_555
C9 N5 1_555 1_555
C10 N6 1_555 1_555
C10 N7 1_555 1_555
N6 C11 1_555 1_555
C12 N7 1_555 1_555

#END
