
#######################################################################
#
#                 Cambridge Crystallographic Data Centre
#                                CCDC 
#
#######################################################################
#
# If this CIF has been generated from an entry in the Cambridge 
# Structural Database, then it will include bibliographic, chemical, 
# crystal, experimental, refinement or atomic coordinate data resulting 
# from the CCDC's data processing and validation procedures.
#
#######################################################################

data_QOPXIE
_chemical_formula_moiety         'C35 H26 O4,0.5(C2 H3 N1)'
_chemical_name_systematic        
'(3-(4-methoxyphenyl)-5-(1-naphthyl)-2,5-dihydrofuran-2,2-diyl)bis(phenylmethanone) acetonitrile solvate'
_symmetry_cell_setting           monoclinic
_symmetry_space_group_name_H-M   'P 21'
_symmetry_Int_Tables_number      4
_space_group_name_Hall           'P 2yb'
loop_
_symmetry_equiv_pos_site_id
_symmetry_equiv_pos_as_xyz
1 x,y,z
2 -x,1/2+y,-z
_cell_length_a                   11.77380(9)
_cell_length_b                   12.39402(7)
_cell_length_c                   19.49664(13)
_cell_angle_alpha                90
_cell_angle_beta                 106.9173(7)
_cell_angle_gamma                90
_cell_volume                     2721.92
_exptl_crystal_colour            colorless
_exptl_crystal_description       block
_cell_formula_units_Z            4
loop_
_atom_site_label
_atom_site_type_symbol
_atom_site_fract_x
_atom_site_fract_y
_atom_site_fract_z
O1 O -0.04991(10) 1.14957(10) 0.92133(6)
O2 O 0.22299(11) 1.23965(11) 1.01497(7)
O3 O 0.19799(11) 1.05883(11) 0.88039(7)
O4 O 0.46043(13) 0.82091(13) 1.19214(8)
C1 C 0.07190(15) 1.11809(14) 0.94806(9)
C2 C 0.08101(15) 1.06726(15) 1.02119(9)
C3 C -0.01277(16) 1.10174(15) 1.03998(9)
H1 H -0.0268 1.0858 1.0845
C4 C -0.09354(15) 1.16905(15) 0.98198(9)
H2 H -0.0823 1.2469 0.9957
C5 C 0.15082(15) 1.22140(15) 0.95742(9)
C6 C 0.13197(16) 1.29857(15) 0.89650(10)
C7 C 0.05329(17) 1.27881(15) 0.82852(10)
H3 H 0.0093 1.2134 0.8195
C8 C 0.03962(18) 1.35441(16) 0.77457(10)
H4 H -0.0135 1.3406 0.7284
C9 C 0.10314(19) 1.45032(16) 0.78752(10)
H5 H 0.0926 1.5024 0.7504
C10 C 0.18209(19) 1.47022(16) 0.85455(11)
H6 H 0.2262 1.5356 0.8632
C11 C 0.19661(17) 1.39452(16) 0.90892(10)
H7 H 0.2508 1.4081 0.9548
C12 C 0.10431(16) 1.04394(14) 0.89314(9)
C13 C 0.02001(16) 0.95851(14) 0.85548(10)
C14 C 0.01951(17) 0.93317(16) 0.78562(10)
H8 H 0.0708 0.9705 0.7641
C15 C -0.05521(18) 0.85416(17) 0.74778(10)
H9 H -0.0574 0.8388 0.6997
C16 C -0.12725(19) 0.79705(17) 0.78014(11)
H10 H -0.1775 0.7416 0.7544
C17 C -0.12604(18) 0.82079(17) 0.85006(11)
H11 H -0.1744 0.7807 0.8723
C18 C -0.05443(16) 0.90273(15) 0.88725(10)
H12 H -0.0559 0.9210 0.9343
C19 C 0.17989(16) 0.99911(14) 1.06203(9)
C20 C 0.28746(16) 0.99395(15) 1.04602(9)
H13 H 0.2961 1.0325 1.0057
C21 C 0.38258(17) 0.93396(16) 1.08725(10)
H14 H 0.4551 0.9316 1.0751
C22 C 0.37096(17) 0.87749(15) 1.14622(10)
C23 C 0.26242(18) 0.87782(17) 1.16161(11)
H15 H 0.2531 0.8368 1.2008
C24 C 0.16865(17) 0.93764(16) 1.12011(10)
H16 H 0.0951 0.9372 1.1311
C25 C 0.57339(18) 0.82361(19) 1.17908(12)
H17 H 0.5677 0.7884 1.1332
H18 H 0.6317 0.7856 1.2177
H19 H 0.5984 0.8987 1.1773
C26 C -0.22462(15) 1.14104(14) 0.96374(9)
C27 C -0.27748(17) 1.07637(16) 0.90648(10)
H20 H -0.2319 1.0497 0.8772
C28 C -0.39874(17) 1.04863(17) 0.89022(11)
H21 H -0.4336 1.0026 0.8508
C29 C -0.46607(17) 1.08776(16) 0.93102(11)
H22 H -0.5473 1.0678 0.9202
C30 C -0.41586(16) 1.15794(16) 0.98950(10)
C31 C -0.48605(17) 1.20529(17) 1.02964(11)
H23 H -0.5680 1.1879 1.0181
C32 C -0.43812(19) 1.27513(17) 1.08442(11)
H24 H -0.4870 1.3074 1.1099
C33 C -0.31547(18) 1.29957(16) 1.10334(10)
H25 H -0.2818 1.3475 1.1419
C34 C -0.24520(16) 1.25435(15) 1.06619(10)
H26 H -0.1627 1.2703 1.0801
C35 C -0.29284(16) 1.18423(14) 1.00733(10)
O5 O -0.96259(10) 1.32112(10) 0.58347(6)
O6 O -0.81853(12) 1.20397(11) 0.47740(7)
O7 O -0.66834(11) 1.38227(10) 0.60736(7)
O8 O -0.73670(12) 1.64522(11) 0.30131(7)
C36 C -0.86966(15) 1.34021(14) 0.55081(9)
C37 C -0.93397(15) 1.39465(14) 0.47941(9)
C38 C -1.04918(15) 1.37338(14) 0.46631(9)
H27 H -1.1090 1.3964 0.4247
C39 C -1.07230(15) 1.30817(14) 0.52589(9)
H28 H -1.0812 1.2306 0.5112
C40 C -0.81604(14) 1.22925(14) 0.53803(9)
C41 C -0.76692(14) 1.15375(14) 0.59932(9)
C42 C -0.77790(15) 1.17025(15) 0.66815(9)
H29 H -0.8159 1.2334 0.6783
C43 C -0.73340(17) 1.09468(16) 0.72148(10)
H30 H -0.7423 1.1055 0.7679
C44 C -0.67578(17) 1.00311(16) 0.70752(11)
H31 H -0.6455 0.9515 0.7443
C45 C -0.66247(17) 0.98699(15) 0.63992(11)
H32 H -0.6218 0.9250 0.6307
C46 C -0.70857(16) 1.06134(15) 0.58575(10)
H33 H -0.7005 1.0495 0.5393
C47 C -0.77030(15) 1.40985(14) 0.59934(9)
C48 C -0.79739(16) 1.50974(14) 0.63410(9)
C49 C -0.70718(16) 1.54953(15) 0.69232(9)
H34 H -0.6342 1.5116 0.7089
C50 C -0.72402(17) 1.64422(16) 0.72592(10)
H35 H -0.6627 1.6709 0.7656
C51 C -0.83048(17) 1.70012(15) 0.70167(10)
H36 H -0.8418 1.7651 0.7247
C52 C -0.92051(16) 1.66141(14) 0.64385(9)
H37 H -0.9932 1.6998 0.6274
C53 C -0.90398(15) 1.56641(14) 0.61010(9)
H38 H -0.9655 1.5400 0.5705
C54 C -0.87564(16) 1.45916(14) 0.43601(9)
C55 C -0.76054(16) 1.43947(15) 0.43289(9)
H39 H -0.7152 1.3837 0.4616
C56 C -0.71067(16) 1.49947(16) 0.38875(10)
H40 H -0.6325 1.4840 0.3870
C57 C -0.77561(17) 1.58232(15) 0.34713(9)
C58 C -0.88957(17) 1.60497(15) 0.35114(9)
H41 H -0.9338 1.6624 0.3237
C59 C -0.93832(16) 1.54428(14) 0.39477(9)
H42 H -1.0161 1.5606 0.3969
C60 C -0.61996(19) 1.62306(18) 0.29600(11)
H43 H -0.6031 1.6708 0.2601
H44 H -0.6156 1.5477 0.2817
H45 H -0.5614 1.6355 0.3426
C61 C -1.17754(15) 1.34105(14) 0.55107(9)
C62 C -1.16546(16) 1.41734(15) 0.60356(9)
H46 H -1.0912 1.4525 0.6225
C63 C -1.26133(17) 1.44458(16) 0.63002(10)
H47 H -1.2512 1.4981 0.6662
C64 C -1.36805(16) 1.39474(16) 0.60407(10)
H48 H -1.4315 1.4125 0.6230
C65 C -1.38555(16) 1.31637(15) 0.54894(10)
C66 C -1.49576(16) 1.26230(16) 0.52204(10)
H49 H -1.5589 1.2786 0.5416
C67 C -1.51307(17) 1.18737(17) 0.46869(11)
H50 H -1.5877 1.1523 0.4511
C68 C -1.41943(17) 1.16246(17) 0.43994(11)
H51 H -1.4314 1.1104 0.4028
C69 C -1.31183(16) 1.21214(15) 0.46475(10)
H52 H -1.2504 1.1946 0.4441
C70 C -1.28980(15) 1.28963(14) 0.52089(9)
N1 N -0.4490(2) 1.83121(19) 0.75050(14)
C71 C -0.4233(2) 1.7440(2) 0.76332(13)
C72 C -0.3904(3) 1.6318(2) 0.7804(2)
H53 H -0.4036 1.5905 0.7359
H54 H -0.4390 1.6017 0.8089
H55 H -0.3064 1.6278 0.8079
loop_
_geom_bond_atom_site_label_1
_geom_bond_atom_site_label_2
_geom_bond_site_symmetry_1
_geom_bond_site_symmetry_2
O1 C1 1_555 1_555
O2 C5 1_555 1_555
O3 C12 1_555 1_555
O4 C22 1_555 1_555
C1 C2 1_555 1_555
C2 C3 1_555 1_555
C3 H1 1_555 1_555
C4 O1 1_555 1_555
H2 C4 1_555 1_555
C5 C1 1_555 1_555
C6 C5 1_555 1_555
C7 C6 1_555 1_555
H3 C7 1_555 1_555
C8 C7 1_555 1_555
H4 C8 1_555 1_555
C9 C8 1_555 1_555
H5 C9 1_555 1_555
C10 C9 1_555 1_555
H6 C10 1_555 1_555
C11 C6 1_555 1_555
H7 C11 1_555 1_555
C12 C1 1_555 1_555
C13 C12 1_555 1_555
C14 C13 1_555 1_555
H8 C14 1_555 1_555
C15 C14 1_555 1_555
H9 C15 1_555 1_555
C16 C15 1_555 1_555
H10 C16 1_555 1_555
C17 C16 1_555 1_555
H11 C17 1_555 1_555
C18 C13 1_555 1_555
H12 C18 1_555 1_555
C19 C2 1_555 1_555
C20 C19 1_555 1_555
H13 C20 1_555 1_555
C21 C20 1_555 1_555
H14 C21 1_555 1_555
C22 C21 1_555 1_555
C23 C22 1_555 1_555
H15 C23 1_555 1_555
C24 C19 1_555 1_555
H16 C24 1_555 1_555
C25 O4 1_555 1_555
H17 C25 1_555 1_555
H18 C25 1_555 1_555
H19 C25 1_555 1_555
C26 C4 1_555 1_555
C27 C26 1_555 1_555
H20 C27 1_555 1_555
C28 C27 1_555 1_555
H21 C28 1_555 1_555
C29 C28 1_555 1_555
H22 C29 1_555 1_555
C30 C29 1_555 1_555
C31 C30 1_555 1_555
H23 C31 1_555 1_555
C32 C31 1_555 1_555
H24 C32 1_555 1_555
C33 C32 1_555 1_555
H25 C33 1_555 1_555
C34 C33 1_555 1_555
H26 C34 1_555 1_555
C35 C26 1_555 1_555
O5 C36 1_555 1_555
O6 C40 1_555 1_555
O7 C47 1_555 1_555
O8 C57 1_555 1_555
C36 C37 1_555 1_555
C37 C38 1_555 1_555
C38 H27 1_555 1_555
C39 O5 1_555 1_555
H28 C39 1_555 1_555
C40 C36 1_555 1_555
C41 C40 1_555 1_555
C42 C41 1_555 1_555
H29 C42 1_555 1_555
C43 C42 1_555 1_555
H30 C43 1_555 1_555
C44 C43 1_555 1_555
H31 C44 1_555 1_555
C45 C44 1_555 1_555
H32 C45 1_555 1_555
C46 C41 1_555 1_555
H33 C46 1_555 1_555
C47 C36 1_555 1_555
C48 C47 1_555 1_555
C49 C48 1_555 1_555
H34 C49 1_555 1_555
C50 C49 1_555 1_555
H35 C50 1_555 1_555
C51 C50 1_555 1_555
H36 C51 1_555 1_555
C52 C51 1_555 1_555
H37 C52 1_555 1_555
C53 C48 1_555 1_555
H38 C53 1_555 1_555
C54 C37 1_555 1_555
C55 C54 1_555 1_555
H39 C55 1_555 1_555
C56 C55 1_555 1_555
H40 C56 1_555 1_555
C57 C56 1_555 1_555
C58 C57 1_555 1_555
H41 C58 1_555 1_555
C59 C54 1_555 1_555
H42 C59 1_555 1_555
C60 O8 1_555 1_555
H43 C60 1_555 1_555
H44 C60 1_555 1_555
H45 C60 1_555 1_555
C61 C39 1_555 1_555
C62 C61 1_555 1_555
H46 C62 1_555 1_555
C63 C62 1_555 1_555
H47 C63 1_555 1_555
C64 C63 1_555 1_555
H48 C64 1_555 1_555
C65 C64 1_555 1_555
C66 C65 1_555 1_555
H49 C66 1_555 1_555
C67 C66 1_555 1_555
H50 C67 1_555 1_555
C68 C67 1_555 1_555
H51 C68 1_555 1_555
C69 C68 1_555 1_555
H52 C69 1_555 1_555
C70 C61 1_555 1_555
N1 C71 1_555 1_555
C71 C72 1_555 1_555
C72 H53 1_555 1_555
H54 C72 1_555 1_555
H55 C72 1_555 1_555
C3 C4 1_555 1_555
C10 C11 1_555 1_555
C17 C18 1_555 1_555
C23 C24 1_555 1_555
C30 C35 1_555 1_555
C34 C35 1_555 1_555
C38 C39 1_555 1_555
C45 C46 1_555 1_555
C52 C53 1_555 1_555
C58 C59 1_555 1_555
C65 C70 1_555 1_555
C69 C70 1_555 1_555

#END
