
#######################################################################
#
#                 Cambridge Crystallographic Data Centre
#                                CCDC 
#
#######################################################################
#
# If this CIF has been generated from an entry in the Cambridge 
# Structural Database, then it will include bibliographic, chemical, 
# crystal, experimental, refinement or atomic coordinate data resulting 
# from the CCDC's data processing and validation procedures.
#
#######################################################################

data_QOQBAB
_chemical_formula_moiety         'C44 H40 O4'
_chemical_name_systematic        
1,1'-((2,2-diphenylethene-1,1-diyl)bis(4,1-phenylenemethylene))bis(2,5-dimethoxybenzene)
_symmetry_cell_setting           orthorhombic
_symmetry_space_group_name_H-M   'P 21 21 21'
_symmetry_Int_Tables_number      19
_space_group_name_Hall           'P 2ac 2ab'
loop_
_symmetry_equiv_pos_site_id
_symmetry_equiv_pos_as_xyz
1 x,y,z
2 1/2-x,-y,1/2+z
3 1/2+x,1/2-y,-z
4 -x,1/2+y,1/2-z
_cell_length_a                   9.6016(19)
_cell_length_b                   14.338(3)
_cell_length_c                   24.574(5)
_cell_angle_alpha                90
_cell_angle_beta                 90
_cell_angle_gamma                90
_cell_volume                     3383.05
_cell_formula_units_Z            4
loop_
_atom_site_label
_atom_site_type_symbol
_atom_site_fract_x
_atom_site_fract_y
_atom_site_fract_z
O1 O 0.8500(3) 0.5027(2) -0.05201(12)
O2 O 0.2968(3) 0.57207(17) -0.00255(11)
O3 O 0.1911(3) -0.27486(19) 0.16205(12)
O4 O 0.7649(3) -0.30022(17) 0.14077(12)
C1 C 0.9477(4) 0.2119(2) 0.16024(15)
C2 C 0.9935(4) 0.3034(2) 0.13683(15)
C3 C 0.9676(5) 0.3254(3) 0.08248(17)
H1 H 0.9185 0.2822 0.0603
C4 C 1.0122(5) 0.4094(3) 0.06007(17)
H2 H 0.9944 0.4232 0.0229
C5 C 1.0826(4) 0.4727(3) 0.09245(18)
H3 H 1.1126 0.5304 0.0775
C6 C 1.1093(4) 0.4524(2) 0.14618(18)
H4 H 1.1575 0.4964 0.1681
C7 C 1.0664(4) 0.3677(2) 0.16874(16)
H5 H 1.0867 0.3538 0.2057
C8 C 1.0622(4) 0.1561(2) 0.18584(16)
C9 C 1.1942(4) 0.1530(3) 0.16146(18)
H6 H 1.2102 0.1866 0.1287
C10 C 1.3009(5) 0.1020(3) 0.18423(18)
H7 H 1.3890 0.0995 0.1667
C11 C 1.2804(5) 0.0549(3) 0.2320(2)
H8 H 1.3550 0.0206 0.2476
C12 C 1.1526(4) 0.0567(3) 0.25774(18)
H9 H 1.1387 0.0231 0.2906
C13 C 1.0436(4) 0.1086(2) 0.23495(16)
H10 H 0.9563 0.1116 0.2530
C14 C 0.8139(4) 0.1821(2) 0.15741(14)
C15 C 0.7010(4) 0.2395(2) 0.13292(15)
C16 C 0.6174(5) 0.2029(3) 0.09127(17)
H11 H 0.6250 0.1387 0.0823
C17 C 0.5238(5) 0.2584(3) 0.06292(17)
H12 H 0.4705 0.2323 0.0341
C18 C 0.5077(4) 0.3520(3) 0.07645(16)
C19 C 0.5811(4) 0.3869(3) 0.12104(16)
H13 H 0.5644 0.4490 0.1329
C20 C 0.6779(4) 0.3328(2) 0.14834(15)
H14 H 0.7292 0.3588 0.1777
C21 C 0.4183(5) 0.4159(3) 0.04209(17)
H15 H 0.3591 0.4538 0.0666
H16 H 0.3557 0.3772 0.0194
C22 C 0.4995(4) 0.4812(2) 0.00504(15)
C23 C 0.6384(4) 0.4650(3) -0.00852(16)
H17 H 0.6836 0.4107 0.0049
C24 C 0.7124(4) 0.5272(3) -0.04161(16)
C25 C 0.6497(5) 0.6083(3) -0.06009(16)
H18 H 0.7008 0.6523 -0.0810
C26 C 0.5093(4) 0.6241(3) -0.04738(16)
H19 H 0.4645 0.6786 -0.0607
C27 C 0.4355(4) 0.5623(3) -0.01602(15)
C28 C 0.9276(5) 0.5626(3) -0.0879(2)
H20 H 0.8779 0.5687 -0.1225
H21 H 1.0199 0.5356 -0.0944
H22 H 0.9380 0.6242 -0.0711
C29 C 0.2321(5) 0.6593(3) -0.01625(19)
H23 H 0.2819 0.7103 0.0018
H24 H 0.1349 0.6587 -0.0041
H25 H 0.2354 0.6683 -0.0558
C30 C 0.7732(4) 0.0858(2) 0.17432(14)
C31 C 0.8347(4) 0.0067(2) 0.14972(14)
H26 H 0.9007 0.0148 0.1213
C32 C 0.7997(4) -0.0819(2) 0.16657(15)
H27 H 0.8406 -0.1342 0.1490
C33 C 0.7048(4) -0.0964(2) 0.20918(14)
C34 C 0.6439(4) -0.0178(2) 0.23311(15)
H28 H 0.5798 -0.0256 0.2622
C35 C 0.6753(4) 0.0705(2) 0.21518(15)
H29 H 0.6291 0.1224 0.2310
C36 C 0.6671(4) -0.1938(2) 0.22808(16)
H30 H 0.6216 -0.1900 0.2642
H31 H 0.7533 -0.2310 0.2322
C37 C 0.5700(4) -0.2431(2) 0.18851(15)
C38 C 0.4256(4) -0.2338(2) 0.19459(15)
H32 H 0.3891 -0.1960 0.2230
C39 C 0.3351(4) -0.2797(2) 0.15929(15)
C40 C 0.3887(5) -0.3356(3) 0.11808(17)
H33 H 0.3274 -0.3688 0.0947
C41 C 0.5307(5) -0.3430(3) 0.11113(16)
H34 H 0.5667 -0.3800 0.0823
C42 C 0.6212(4) -0.2973(2) 0.14564(16)
C43 C 0.1333(5) -0.2088(3) 0.19919(18)
H35 H 0.1617 -0.2247 0.2364
H36 H 0.0315 -0.2101 0.1966
H37 H 0.1671 -0.1462 0.1901
C44 C 0.8224(5) -0.3658(3) 0.1035(2)
H38 H 0.7879 -0.4283 0.1121
H39 H 0.9242 -0.3649 0.1062
H40 H 0.7946 -0.3491 0.0663
loop_
_geom_bond_atom_site_label_1
_geom_bond_atom_site_label_2
_geom_bond_site_symmetry_1
_geom_bond_site_symmetry_2
O1 C24 1_555 1_555
O2 C27 1_555 1_555
O3 C39 1_555 1_555
O4 C42 1_555 1_555
C1 C2 1_555 1_555
C2 C3 1_555 1_555
C3 H1 1_555 1_555
C4 C3 1_555 1_555
H2 C4 1_555 1_555
C5 C4 1_555 1_555
H3 C5 1_555 1_555
C6 C5 1_555 1_555
H4 C6 1_555 1_555
C7 C2 1_555 1_555
H5 C7 1_555 1_555
C8 C1 1_555 1_555
C9 C8 1_555 1_555
H6 C9 1_555 1_555
C10 C9 1_555 1_555
H7 C10 1_555 1_555
C11 C10 1_555 1_555
H8 C11 1_555 1_555
C12 C11 1_555 1_555
H9 C12 1_555 1_555
C13 C8 1_555 1_555
H10 C13 1_555 1_555
C14 C1 1_555 1_555
C15 C14 1_555 1_555
C16 C15 1_555 1_555
H11 C16 1_555 1_555
C17 C16 1_555 1_555
H12 C17 1_555 1_555
C18 C17 1_555 1_555
C19 C18 1_555 1_555
H13 C19 1_555 1_555
C20 C15 1_555 1_555
H14 C20 1_555 1_555
C21 C18 1_555 1_555
H15 C21 1_555 1_555
H16 C21 1_555 1_555
C22 C21 1_555 1_555
C23 C22 1_555 1_555
H17 C23 1_555 1_555
C24 C23 1_555 1_555
C25 C24 1_555 1_555
H18 C25 1_555 1_555
C26 C25 1_555 1_555
H19 C26 1_555 1_555
C27 C22 1_555 1_555
C28 O1 1_555 1_555
H20 C28 1_555 1_555
H21 C28 1_555 1_555
H22 C28 1_555 1_555
C29 O2 1_555 1_555
H23 C29 1_555 1_555
H24 C29 1_555 1_555
H25 C29 1_555 1_555
C30 C14 1_555 1_555
C31 C30 1_555 1_555
H26 C31 1_555 1_555
C32 C31 1_555 1_555
H27 C32 1_555 1_555
C33 C32 1_555 1_555
C34 C33 1_555 1_555
H28 C34 1_555 1_555
C35 C30 1_555 1_555
H29 C35 1_555 1_555
C36 C33 1_555 1_555
H30 C36 1_555 1_555
H31 C36 1_555 1_555
C37 C36 1_555 1_555
C38 C37 1_555 1_555
H32 C38 1_555 1_555
C39 C38 1_555 1_555
C40 C39 1_555 1_555
H33 C40 1_555 1_555
C41 C40 1_555 1_555
H34 C41 1_555 1_555
C42 C37 1_555 1_555
C43 O3 1_555 1_555
H35 C43 1_555 1_555
H36 C43 1_555 1_555
H37 C43 1_555 1_555
C44 O4 1_555 1_555
H38 C44 1_555 1_555
H39 C44 1_555 1_555
H40 C44 1_555 1_555
C6 C7 1_555 1_555
C12 C13 1_555 1_555
C19 C20 1_555 1_555
C26 C27 1_555 1_555
C34 C35 1_555 1_555
C41 C42 1_555 1_555

#END
