
#######################################################################
#
#                 Cambridge Crystallographic Data Centre
#                                CCDC 
#
#######################################################################
#
# If this CIF has been generated from an entry in the Cambridge 
# Structural Database, then it will include bibliographic, chemical, 
# crystal, experimental, refinement or atomic coordinate data resulting 
# from the CCDC's data processing and validation procedures.
#
#######################################################################

data_QOQFEH
_chemical_compound_source        'leaves and stems of Zanthoxylum fagara'
_chemical_name_common            Meridinol
_chemical_formula_moiety         'C20 H18 O7'
_chemical_name_systematic        
(1S,2R)-1,2-bis(3,4-Methylenedioxybenzyl)-1-hydroxybutyrolactone
_chemical_properties_biological  
'leaves, fruits and stems of source plant have sudorific and sedative activity'
_symmetry_cell_setting           orthorhombic
_symmetry_space_group_name_H-M   'P 21 21 21'
_symmetry_Int_Tables_number      19
_space_group_name_Hall           'P 2ac 2ab'
loop_
_symmetry_equiv_pos_site_id
_symmetry_equiv_pos_as_xyz
1 x,y,z
2 1/2-x,-y,1/2+z
3 -x,1/2+y,1/2-z
4 1/2+x,1/2-y,-z
_cell_length_a                   6.4782(7)
_cell_length_b                   10.1748(4)
_cell_length_c                   25.903(2)
_cell_angle_alpha                90
_cell_angle_beta                 90
_cell_angle_gamma                90
_cell_volume                     1707.38
_exptl_crystal_colour            colorless
_chemical_melting_point          395-396K
_cell_formula_units_Z            4
_exptl_crystal_recrystallization_method 'petrol/ethyl acetate'
loop_
_atom_site_label
_atom_site_type_symbol
_atom_site_fract_x
_atom_site_fract_y
_atom_site_fract_z
O1 O 0.0558(2) 0.8383(1) 0.08748(5)
O2 O 0.4578(2) 0.6691(1) 0.07795(5)
O3 O 0.2865(2) 0.6826(1) 0.00356(5)
O4 O 0.0663(2) 1.4710(1) 0.10061(5)
O5 O -0.1973(2) 1.3183(1) 0.09647(5)
O6 O 0.9587(3) 1.1132(2) 0.29334(5)
O7 O 0.9416(3) 1.2133(2) 0.21376(6)
C1 C 0.2573(3) 0.8613(1) 0.06698(6)
C2 C 0.4074(3) 0.8845(2) 0.11136(6)
C3 C 0.4809(4) 0.7463(2) 0.12495(8)
C4 C 0.3325(3) 0.7298(2) 0.04472(7)
C5 C 0.2588(3) 0.9677(1) 0.02502(6)
C6 C 0.2131(3) 1.1044(1) 0.04489(5)
C7 C 0.3705(3) 1.1965(2) 0.04739(6)
C8 C 0.3359(3) 1.3245(2) 0.06613(7)
C9 C 0.1418(3) 1.3529(2) 0.08219(6)
C10 C -0.0157(3) 1.2619(2) 0.08000(6)
C11 C 0.0126(3) 1.1371(2) 0.06123(6)
C12 C -0.1386(4) 1.4439(2) 0.11630(8)
C13 C 0.3226(3) 0.9596(2) 0.15826(6)
C14 C 0.4908(3) 0.9952(2) 0.19638(6)
C15 C 0.5019(4) 0.9365(2) 0.24462(7)
C16 C 0.6553(4) 0.9692(2) 0.28023(7)
C17 C 0.7972(3) 1.0615(2) 0.26553(6)
C18 C 0.7870(3) 1.1207(2) 0.21787(7)
C19 C 0.6364(4) 1.0913(2) 0.18280(6)
C20 C 1.0620(4) 1.2003(2) 0.25960(8)
H1 H -0.021(4) 0.814(2) 0.0626(9)
H2 H 0.538(3) 0.930(2) 0.0964(7)
H3 H 0.388(4) 0.704(2) 0.1504(8)
H4 H 0.633(4) 0.743(2) 0.1347(8)
H5 H 0.400(3) 0.967(1) 0.0094(6)
H6 H 0.150(3) 0.944(2) -0.0020(6)
H7 H 0.516(3) 1.171(1) 0.0360(6)
H8 H 0.443(3) 1.385(2) 0.0650(7)
H9 H -0.095(3) 1.078(1) 0.0588(6)
H10 H -0.149(4) 1.442(2) 0.1540(8)
H11 H -0.248(4) 1.519(2) 0.0971(8)
H12 H 0.250(3) 1.038(2) 0.1456(7)
H13 H 0.214(3) 0.907(2) 0.1762(7)
H14 H 0.394(3) 0.871(2) 0.2532(7)
H15 H 0.668(4) 0.931(2) 0.3138(8)
H16 H 0.629(4) 1.141(2) 0.1503(7)
H17 H 1.078(4) 1.289(2) 0.2763(9)
H18 H 1.213(4) 1.162(2) 0.2510(9)
loop_
_geom_bond_atom_site_label_1
_geom_bond_atom_site_label_2
_geom_bond_site_symmetry_1
_geom_bond_site_symmetry_2
O1 C1 1_555 1_555
O2 C3 1_555 1_555
O3 C4 1_555 1_555
O4 C9 1_555 1_555
O5 C10 1_555 1_555
O6 C17 1_555 1_555
O7 C18 1_555 1_555
C1 C2 1_555 1_555
C2 C3 1_555 1_555
C3 H3 1_555 1_555
C4 O2 1_555 1_555
C5 C1 1_555 1_555
C6 C5 1_555 1_555
C7 C6 1_555 1_555
C8 C7 1_555 1_555
C9 C8 1_555 1_555
C10 C9 1_555 1_555
C11 C6 1_555 1_555
C12 O4 1_555 1_555
C13 C2 1_555 1_555
C14 C13 1_555 1_555
C15 C14 1_555 1_555
C16 C15 1_555 1_555
C17 C16 1_555 1_555
C18 C17 1_555 1_555
C19 C14 1_555 1_555
C20 O6 1_555 1_555
H1 O1 1_555 1_555
H2 C2 1_555 1_555
H4 C3 1_555 1_555
H5 C5 1_555 1_555
H6 C5 1_555 1_555
H7 C7 1_555 1_555
H8 C8 1_555 1_555
H9 C11 1_555 1_555
H10 C12 1_555 1_555
H11 C12 1_555 1_555
H12 C13 1_555 1_555
H13 C13 1_555 1_555
H14 C15 1_555 1_555
H15 C16 1_555 1_555
H16 C19 1_555 1_555
H17 C20 1_555 1_555
H18 C20 1_555 1_555
O5 C12 1_555 1_555
O7 C20 1_555 1_555
C1 C4 1_555 1_555
C10 C11 1_555 1_555
C18 C19 1_555 1_555

#END
