
#######################################################################
#
#                 Cambridge Crystallographic Data Centre
#                                CCDC 
#
#######################################################################
#
# If this CIF has been generated from an entry in the Cambridge 
# Structural Database, then it will include bibliographic, chemical, 
# crystal, experimental, refinement or atomic coordinate data resulting 
# from the CCDC's data processing and validation procedures.
#
#######################################################################

data_QOQNAM
_chemical_formula_moiety         
'C4 H12 N1 1+,C16 H14 N1 O4 1-,0.5(C1 H3 N1 O2)'
_chemical_name_systematic        
'tetramethylammonium 2-(((2-hydroxyphenyl)(2-oxidophenyl)methylene)ammonio)propanoate nitromethane solvate'
_symmetry_cell_setting           monoclinic
_symmetry_space_group_name_H-M   'C 2/c'
_symmetry_Int_Tables_number      15
_space_group_name_Hall           '-C 2yn'
loop_
_symmetry_equiv_pos_site_id
_symmetry_equiv_pos_as_xyz
1 x,y,z
2 -x,y,1/2-z
3 1/2+x,1/2+y,z
4 1/2-x,1/2+y,1/2-z
5 -x,-y,-z
6 x,-y,1/2+z
7 1/2-x,1/2-y,-z
8 1/2+x,1/2-y,1/2+z
_cell_length_a                   37.757(3)
_cell_length_b                   7.4155(3)
_cell_length_c                   16.4442(12)
_cell_angle_alpha                90
_cell_angle_beta                 115.008(3)
_cell_angle_gamma                90
_cell_volume                     4172.52
_exptl_crystal_colour            colorless
_exptl_crystal_description       plate
_cell_formula_units_Z            8
loop_
_atom_site_label
_atom_site_type_symbol
_atom_site_fract_x
_atom_site_fract_y
_atom_site_fract_z
N2 N 0.25168(5) -0.0182(2) 0.62794(12)
C17 C 0.22895(7) 0.0112(3) 0.52948(14)
H15 H 0.2100 -0.0865 0.5042
H16 H 0.2468 0.0127 0.5003
H17 H 0.2151 0.1268 0.5193
C18 C 0.28118(7) 0.1290(3) 0.66604(16)
H18 H 0.2962 0.1096 0.7306
H19 H 0.2678 0.2456 0.6560
H20 H 0.2989 0.1285 0.6365
C19 C 0.22436(7) -0.0167(3) 0.67252(15)
H21 H 0.2392 -0.0360 0.7371
H22 H 0.2050 -0.1131 0.6474
H23 H 0.2110 0.1000 0.6622
C20 C 0.27243(7) -0.1949(3) 0.64420(16)
H24 H 0.2874 -0.2131 0.7089
H25 H 0.2903 -0.1954 0.6149
H26 H 0.2533 -0.2923 0.6195
O1 O 0.14887(4) 0.12775(19) 0.71000(10)
H1 H 0.1468(9) 0.270(4) 0.6312(19)
O2 O 0.13308(5) 0.7910(2) 0.66967(10)
H2 H 0.1422(9) 0.919(4) 0.6874(19)
O3 O 0.20636(5) 0.4160(2) 0.62509(11)
O4 O 0.19286(5) 0.5714(3) 0.50061(12)
N1 N 0.13170(5) 0.3794(2) 0.59368(12)
C1 C 0.10677(6) 0.4450(3) 0.62136(14)
C2 C 0.13968(6) 0.4445(3) 0.51943(14)
H3 H 0.1248 0.5588 0.4955
C3 C 0.18379(7) 0.4813(3) 0.55211(16)
C4 C 0.12646(7) 0.3022(3) 0.44504(15)
H4 H 0.0983 0.2815 0.4236
H5 H 0.1406 0.1893 0.4687
H6 H 0.1320 0.3447 0.3952
C5 C 0.10257(7) 0.3610(3) 0.69595(14)
C6 C 0.12459(7) 0.2031(3) 0.73789(14)
C7 C 0.11863(8) 0.1287(3) 0.80987(16)
H7 H 0.1327 0.0236 0.8387
C8 C 0.09308(9) 0.2038(4) 0.83934(18)
H8 H 0.0903 0.1519 0.8891
C9 C 0.07108(8) 0.3555(4) 0.79735(17)
H9 H 0.0528 0.4049 0.8170
C10 C 0.07621(7) 0.4320(3) 0.72729(15)
H10 H 0.0615 0.5362 0.6991
C11 C 0.08254(6) 0.6037(3) 0.57377(14)
C12 C 0.09719(6) 0.7775(3) 0.60147(14)
C13 C 0.07434(7) 0.9250(3) 0.55626(15)
H11 H 0.0838 1.0439 0.5742
C14 C 0.03836(7) 0.8999(3) 0.48624(15)
H12 H 0.0232 1.0017 0.4561
C15 C 0.02381(7) 0.7278(3) 0.45889(15)
H13 H -0.0011 0.7114 0.4104
C16 C 0.04603(7) 0.5807(3) 0.50306(15)
H14 H 0.0362 0.4624 0.4849
N3? N 0.0000 0.7840(4) 0.7500
O5? O 0.00901(9) 0.7136(3) 0.82122(17)
C21? C -0.0191(2) 0.9581(8) 0.7498(5)
H27? H -0.0096 1.0036 0.8113
H28? H -0.0474 0.9410 0.7249
H29? H -0.0128 1.0451 0.7129
loop_
_geom_bond_atom_site_label_1
_geom_bond_atom_site_label_2
_geom_bond_site_symmetry_1
_geom_bond_site_symmetry_2
O1 C6 1_555 1_555
H1 N1 1_555 1_555
O2 H2 1_555 1_555
O3 C3 1_555 1_555
O4 C3 1_555 1_555
N1 C1 1_555 1_555
C1 C5 1_555 1_555
C2 N1 1_555 1_555
H3 C2 1_555 1_555
C3 C2 1_555 1_555
C4 C2 1_555 1_555
H4 C4 1_555 1_555
H5 C4 1_555 1_555
H6 C4 1_555 1_555
C5 C6 1_555 1_555
C6 C7 1_555 1_555
C7 H7 1_555 1_555
C8 C7 1_555 1_555
H8 C8 1_555 1_555
C9 C8 1_555 1_555
H9 C9 1_555 1_555
C10 C5 1_555 1_555
H10 C10 1_555 1_555
C11 C1 1_555 1_555
C12 O2 1_555 1_555
C13 C12 1_555 1_555
H11 C13 1_555 1_555
C14 C13 1_555 1_555
H12 C14 1_555 1_555
C15 C14 1_555 1_555
H13 C15 1_555 1_555
C16 C11 1_555 1_555
H14 C16 1_555 1_555
N2 C17 1_555 1_555
C17 H15 1_555 1_555
H16 C17 1_555 1_555
H17 C17 1_555 1_555
C18 N2 1_555 1_555
H18 C18 1_555 1_555
H19 C18 1_555 1_555
H20 C18 1_555 1_555
C19 N2 1_555 1_555
H21 C19 1_555 1_555
H22 C19 1_555 1_555
H23 C19 1_555 1_555
C20 N2 1_555 1_555
H24 C20 1_555 1_555
H25 C20 1_555 1_555
H26 C20 1_555 1_555
C9 C10 1_555 1_555
C11 C12 1_555 1_555
C15 C16 1_555 1_555

#END
