
#######################################################################
#
#                 Cambridge Crystallographic Data Centre
#                                CCDC 
#
#######################################################################
#
# If this CIF has been generated from an entry in the Cambridge 
# Structural Database, then it will include bibliographic, chemical, 
# crystal, experimental, refinement or atomic coordinate data resulting 
# from the CCDC's data processing and validation procedures.
#
#######################################################################

data_QORGOT
_chemical_formula_moiety         'C36 H38 N6 Se2'
_chemical_name_systematic        
14,28-Diselena-4,7,10,18,21,24-hexa-aza-tetrabenzo(a,l,o,z)cyclo-octacosa-1,3,10,12,15,17,24,26-octaene
_symmetry_cell_setting           monoclinic
_symmetry_space_group_name_H-M   'C 2/c'
_symmetry_Int_Tables_number      15
_space_group_name_Hall           '-C 2yn'
loop_
_symmetry_equiv_pos_site_id
_symmetry_equiv_pos_as_xyz
1 x,y,z
2 1/2+x,1/2+y,z
3 x,-y,1/2+z
4 1/2+x,1/2-y,1/2+z
5 -x,-y,-z
6 1/2-x,1/2-y,-z
7 -x,y,1/2-z
8 1/2-x,1/2+y,1/2-z
_cell_length_a                   18.732(3)
_cell_length_b                   8.6515(10)
_cell_length_c                   22.590(3)
_cell_angle_alpha                90
_cell_angle_beta                 113.376(8)
_cell_angle_gamma                90
_cell_volume                     3360.45
_exptl_crystal_colour            colorless
_exptl_crystal_description       chunk
_chemical_melting_point          '172-174 deg.C'
_cell_formula_units_Z            4
_exptl_crystal_recrystallization_method chloroform/acetonitrile
loop_
_atom_site_label
_atom_site_type_symbol
_atom_site_fract_x
_atom_site_fract_y
_atom_site_fract_z
Se1 Se 0.11190(2) 0.43034(4) 0.32276(2)
N1 N -0.0615(2) 0.4579(3) 0.41434(14)
N2 N -0.1425(2) 0.1915(3) 0.33453(13)
H1 H -0.1377(18) 0.2754(42) 0.3148(15)
C1 C 0.0656(2) 0.6167(4) 0.3408(2)
C2 C 0.0845(2) 0.7564(4) 0.3213(2)
H2 H 0.1208(2) 0.7590(4) 0.3027(2)
N3 N 0.2006(2) 0.1803(3) 0.30957(13)
C3 C 0.0505(2) 0.8925(4) 0.3288(2)
H3 H 0.0652(2) 0.9861(4) 0.3168(2)
C4 C -0.0055(2) 0.8890(4) 0.3544(2)
H4 H -0.0298(2) 0.9799(4) 0.3582(2)
C5 C -0.0250(2) 0.7510(4) 0.3741(2)
H5 H -0.0624(2) 0.7499(4) 0.3915(2)
C6 C 0.0103(2) 0.6114(4) 0.3686(2)
C7 C -0.0077(2) 0.4681(4) 0.3946(2)
H6 H 0.0222(2) 0.3807(4) 0.3965(2)
C8 C -0.0726(2) 0.3096(5) 0.4403(2)
H7 H -0.0745(2) 0.3256(5) 0.4822(2)
H8 H -0.0289(2) 0.2424(5) 0.4461(2)
C9 C -0.1470(2) 0.2330(4) 0.3957(2)
H9 H -0.1561(2) 0.1406(4) 0.4161(2)
H10 H -0.1904(2) 0.3028(4) 0.3877(2)
C10 C -0.2114(2) 0.1078(4) 0.2918(2)
H11 H -0.2564(2) 0.1749(4) 0.2800(2)
H12 H -0.2200(2) 0.0196(4) 0.3147(2)
C11 C 0.2035(2) 0.4247(3) 0.40229(14)
C12 C 0.2136(2) 0.5297(4) 0.4516(2)
H13 H 0.1757(2) 0.6041(4) 0.4463(2)
C13 C 0.2796(2) 0.5247(4) 0.5086(2)
H14 H 0.2856(2) 0.5960(4) 0.5411(2)
C14 C 0.3364(2) 0.4146(4) 0.5176(2)
H15 H 0.3809(2) 0.4122(4) 0.5556(2)
C15 C 0.3263(2) 0.3087(4) 0.4696(2)
H16 H 0.3641(2) 0.2335(4) 0.4760(2)
C16 C 0.2609(2) 0.3109(3) 0.41148(14)
C17 C 0.2552(2) 0.1906(4) 0.3645(2)
H17 H 0.2946(2) 0.1169(4) 0.3758(2)
C18 C -0.2036(2) 0.0526(4) 0.2315(2)
H18 H -0.1565(2) -0.0086(4) 0.2433(2)
H19 H -0.2474(2) -0.0135(4) 0.2075(2)
N3F N -0.2006(2) 0.1803(3) 0.19043(13)
C17F C -0.2552(2) 0.1906(4) 0.1355(2)
C16F C -0.2609(2) 0.3109(3) 0.08852(14)
C11F C -0.2035(2) 0.4247(3) 0.09771(14)
Se1F Se -0.11190(2) 0.43034(4) 0.17724(2)
C1F C -0.0656(2) 0.6167(4) 0.1592(2)
C2F C -0.0845(2) 0.7564(4) 0.1787(2)
H2F H -0.1208(2) 0.7590(4) 0.1973(2)
C3F C -0.0505(2) 0.8925(4) 0.1712(2)
H3F H -0.0652(2) 0.9861(4) 0.1832(2)
C4F C 0.0055(2) 0.8890(4) 0.1456(2)
H4F H 0.0298(2) 0.9799(4) 0.1418(2)
C5F C 0.0250(2) 0.7510(4) 0.1259(2)
H5F H 0.0624(2) 0.7499(4) 0.1085(2)
C6F C -0.0103(2) 0.6114(4) 0.1314(2)
C7F C 0.0077(2) 0.4681(4) 0.1054(2)
N1F N 0.0615(2) 0.4579(3) 0.08566(14)
C8F C 0.0726(2) 0.3096(5) 0.0597(2)
H7F H 0.0745(2) 0.3256(5) 0.0178(2)
H8F H 0.0289(2) 0.2424(5) 0.0539(2)
C9F C 0.1470(2) 0.2330(4) 0.1043(2)
N2F N 0.1425(2) 0.1915(3) 0.16547(13)
H1F H 0.1377(18) 0.2754(42) 0.1852(15)
C10F C 0.2114(2) 0.1078(4) 0.2082(2)
H11F H 0.2564(2) 0.1749(4) 0.2200(2)
H12F H 0.2200(2) 0.0196(4) 0.1853(2)
C18F C 0.2036(2) 0.0526(4) 0.2685(2)
H18F H 0.1565(2) -0.0086(4) 0.2567(2)
H19F H 0.2474(2) -0.0135(4) 0.2925(2)
H9F H 0.1561(2) 0.1406(4) 0.0839(2)
H10F H 0.1904(2) 0.3028(4) 0.1123(2)
H6F H -0.0222(2) 0.3807(4) 0.1035(2)
C12F C -0.2136(2) 0.5297(4) 0.0484(2)
H13F H -0.1757(2) 0.6041(4) 0.0537(2)
C13F C -0.2796(2) 0.5247(4) -0.0086(2)
H14F H -0.2856(2) 0.5960(4) -0.0411(2)
C14F C -0.3364(2) 0.4146(4) -0.0176(2)
H15F H -0.3809(2) 0.4122(4) -0.0556(2)
C15F C -0.3263(2) 0.3087(4) 0.0304(2)
H16F H -0.3641(2) 0.2335(4) 0.0240(2)
H17F H -0.2946(2) 0.1169(4) 0.1242(2)
loop_
_geom_bond_atom_site_label_1
_geom_bond_atom_site_label_2
_geom_bond_site_symmetry_1
_geom_bond_site_symmetry_2
Se1 C1 1_555 1_555
N1 C7 1_555 1_555
N2 H1 1_555 1_555
C1 C2 1_555 1_555
C2 H2 1_555 1_555
N3 C17 1_555 1_555
C3 C2 1_555 1_555
H3 C3 1_555 1_555
C4 C3 1_555 1_555
H4 C4 1_555 1_555
C5 C4 1_555 1_555
H5 C5 1_555 1_555
C6 C1 1_555 1_555
C7 C6 1_555 1_555
H6 C7 1_555 1_555
C8 N1 1_555 1_555
H7 C8 1_555 1_555
H8 C8 1_555 1_555
C9 N2 1_555 1_555
H9 C9 1_555 1_555
H10 C9 1_555 1_555
C10 N2 1_555 1_555
H11 C10 1_555 1_555
H12 C10 1_555 1_555
C11 Se1 1_555 1_555
C12 C11 1_555 1_555
H13 C12 1_555 1_555
C13 C12 1_555 1_555
H14 C13 1_555 1_555
C14 C13 1_555 1_555
H15 C14 1_555 1_555
C15 C14 1_555 1_555
H16 C15 1_555 1_555
C16 C11 1_555 1_555
C17 C16 1_555 1_555
H17 C17 1_555 1_555
C18 C10 1_555 1_555
H18 C18 1_555 1_555
H19 C18 1_555 1_555
N3F C18 1_555 1_555
C17F N3F 1_555 1_555
C16F C17F 1_555 1_555
C11F C16F 1_555 1_555
Se1F C11F 1_555 1_555
C1F Se1F 1_555 1_555
C2F C1F 1_555 1_555
H2F C2F 1_555 1_555
C3F C2F 1_555 1_555
H3F C3F 1_555 1_555
C4F C3F 1_555 1_555
H4F C4F 1_555 1_555
C5F C4F 1_555 1_555
H5F C5F 1_555 1_555
C6F C1F 1_555 1_555
C7F C6F 1_555 1_555
N1F C7F 1_555 1_555
C8F N1F 1_555 1_555
H7F C8F 1_555 1_555
H8F C8F 1_555 1_555
C9F C8F 1_555 1_555
N2F C9F 1_555 1_555
H1F N2F 1_555 1_555
C10F N2F 1_555 1_555
H11F C10F 1_555 1_555
H12F C10F 1_555 1_555
C18F N3 1_555 1_555
H18F C18F 1_555 1_555
H19F C18F 1_555 1_555
H9F C9F 1_555 1_555
H10F C9F 1_555 1_555
H6F C7F 1_555 1_555
C12F C11F 1_555 1_555
H13F C12F 1_555 1_555
C13F C12F 1_555 1_555
H14F C13F 1_555 1_555
C14F C13F 1_555 1_555
H15F C14F 1_555 1_555
C15F C16F 1_555 1_555
H16F C15F 1_555 1_555
H17F C17F 1_555 1_555
C5 C6 1_555 1_555
C8 C9 1_555 1_555
C15 C16 1_555 1_555
C5F C6F 1_555 1_555
C10F C18F 1_555 1_555
C14F C15F 1_555 1_555

#END
