
#######################################################################
#
#                 Cambridge Crystallographic Data Centre
#                                CCDC 
#
#######################################################################
#
# If this CIF has been generated from an entry in the Cambridge 
# Structural Database, then it will include bibliographic, chemical, 
# crystal, experimental, refinement or atomic coordinate data resulting 
# from the CCDC's data processing and validation procedures.
#
#######################################################################

data_QOSNAN
_chemical_formula_moiety         'C32 H42 N8 O9 S1'
_chemical_name_systematic        
Bicyclo(Alanyl-D-threonyl-cystyl-cis-4-hydroxy-prolyl-alanyl-2-mercapto-tryptophyl-alanine(S-3-6))
_symmetry_cell_setting           orthorhombic
_symmetry_space_group_name_H-M   'P 21 21 21'
_symmetry_Int_Tables_number      19
_space_group_name_Hall           'P 2ac 2ab'
loop_
_symmetry_equiv_pos_site_id
_symmetry_equiv_pos_as_xyz
1 x,y,z
2 1/2-x,-y,1/2+z
3 1/2+x,1/2-y,-z
4 -x,1/2+y,1/2-z
_cell_length_a                   10.468(3)
_cell_length_b                   12.192(4)
_cell_length_c                   27.350(3)
_cell_angle_alpha                90
_cell_angle_beta                 90
_cell_angle_gamma                90
_cell_volume                     3490.57
_cell_formula_units_Z            4
loop_
_atom_site_label
_atom_site_type_symbol
_atom_site_fract_x
_atom_site_fract_y
_atom_site_fract_z
N1 N 0.2524(3) -0.1700(2) 0.45797(10)
H1 H 0.2917 -0.2013 0.4342
C1 C 0.2748(3) -0.2099(3) 0.50714(12)
H2 H 0.1964 -0.2006 0.5263
C2 C 0.3082(5) -0.3298(3) 0.50568(16)
H3 H 0.2391 -0.3700 0.4911
H4 H 0.3224 -0.3558 0.5383
H5 H 0.3842 -0.3400 0.4866
C3 C 0.3815(3) -0.1433(3) 0.53108(13)
O1 O 0.4898(3) -0.1792(2) 0.53694(14)
N2 N 0.3474(3) -0.0418(2) 0.54511(10)
H6 H 0.2753 -0.0159 0.5354
C4 C 0.4278(3) 0.0256(3) 0.57606(12)
H7 H 0.5068 -0.0155 0.5819
C5 C 0.3645(4) 0.0437(3) 0.62569(13)
H8 H 0.4194 0.0914 0.6454
C6 C 0.3438(5) -0.0632(4) 0.65321(15)
H9 H 0.3047 -0.0480 0.6842
H10 H 0.4246 -0.0987 0.6584
H11 H 0.2892 -0.1104 0.6344
O2 O 0.2461(3) 0.0985(2) 0.61717(10)
H12 H 0.2100 0.1095 0.6433
C7 C 0.4655(3) 0.1343(2) 0.55325(11)
O3 O 0.5257(3) 0.2017(2) 0.57715(9)
N3 N 0.4343(3) 0.1507(2) 0.50646(9)
H13 H 0.3844 0.1045 0.4923
C8 C 0.4812(3) 0.2429(2) 0.47873(10)
H14 H 0.4618 0.3101 0.4969
C9 C 0.6276(3) 0.2378(3) 0.47016(13)
H15 H 0.6699 0.2784 0.4960
H16 H 0.6471 0.2741 0.4395
S1 S 0.69292(9) 0.09988(7) 0.46838(3)
C10 C 0.4056(3) 0.2447(2) 0.43117(11)
O4 O 0.3637(3) 0.15815(18) 0.41405(8)
N4 N 0.3896(3) 0.3412(2) 0.40849(9)
C11 C 0.3016(3) 0.3480(3) 0.36675(11)
H17 H 0.2166 0.3242 0.3773
C12 C 0.2979(4) 0.4727(3) 0.35640(14)
H18 H 0.2992 0.4867 0.3215
H19 H 0.2215 0.5053 0.3702
C13 C 0.4164(4) 0.5192(3) 0.38060(12)
H20 H 0.4058 0.5969 0.3889
O5 O 0.5277(2) 0.5013(2) 0.35179(9)
H21 H 0.5131 0.5185 0.3233
C14 C 0.4303(4) 0.4491(2) 0.42572(12)
H22 H 0.5182 0.4476 0.4370
H23 H 0.3759 0.4752 0.4519
C15 C 0.3418(3) 0.2797(3) 0.32236(12)
O6 O 0.2612(3) 0.2336(3) 0.29782(10)
N5 N 0.4670(3) 0.2709(2) 0.31303(10)
H24 H 0.5213 0.3027 0.3319
C16 C 0.5118(4) 0.2082(3) 0.27146(11)
H25 H 0.4617 0.2295 0.2427
C17 C 0.6522(4) 0.2341(3) 0.26153(14)
H26 H 0.6621 0.3114 0.2563
H27 H 0.6800 0.1949 0.2330
H28 H 0.7028 0.2121 0.2891
C18 C 0.4963(3) 0.0854(3) 0.27936(11)
O7 O 0.4985(3) 0.0217(2) 0.24458(9)
N6 N 0.4838(3) 0.0519(2) 0.32550(9)
H29 H 0.4703 0.1006 0.3477
C19 C 0.4917(3) -0.0619(2) 0.34026(11)
H30 H 0.5219 -0.1050 0.3123
C20 C 0.5893(3) -0.0742(3) 0.38254(13)
H31 H 0.5475 -0.0560 0.4131
H32 H 0.6162 -0.1503 0.3844
C21 C 0.7041(3) -0.0036(3) 0.37669(11)
C22 C 0.7901(3) -0.0009(3) 0.33584(12)
C23 C 0.7439(3) 0.0764(3) 0.40861(12)
N7 N 0.8500(3) 0.1284(2) 0.38976(11)
H33 H 0.8914 0.1806 0.4038
C24 C 0.8028(4) -0.0626(4) 0.29292(14)
H34 H 0.7469 -0.1197 0.2859
C25 C 0.8790(3) 0.0839(3) 0.34534(13)
C26 C 0.9013(5) -0.0356(6) 0.26127(16)
H35 H 0.9104 -0.0749 0.2323
C27 C 0.9770(4) 0.1106(5) 0.31323(16)
H36 H 1.0335 0.1678 0.3195
C28 C 0.9855(5) 0.0472(7) 0.27132(16)
H37 H 1.0509 0.0614 0.2492
C29 C 0.3665(3) -0.1104(3) 0.35778(11)
O8 O 0.3622(3) -0.21161(18) 0.36522(9)
N8 N 0.2719(3) -0.0414(2) 0.36770(11)
H38 H 0.2821 0.0252 0.3581
C30 C 0.1510(3) -0.0661(3) 0.39336(13)
H39 H 0.0988 0.0004 0.3911
C31 C 0.0746(4) -0.1563(4) 0.36910(16)
H40 H 0.0638 -0.1395 0.3351
H41 H -0.0076 -0.1618 0.3844
H42 H 0.1192 -0.2247 0.3724
C32 C 0.1731(3) -0.0864(3) 0.44777(12)
O9 O 0.1221(3) -0.0303(2) 0.47927(10)
loop_
_geom_bond_atom_site_label_1
_geom_bond_atom_site_label_2
_geom_bond_site_symmetry_1
_geom_bond_site_symmetry_2
N1 H1 1_555 1_555
C1 N1 1_555 1_555
H2 C1 1_555 1_555
C2 C1 1_555 1_555
H3 C2 1_555 1_555
H4 C2 1_555 1_555
H5 C2 1_555 1_555
C3 C1 1_555 1_555
O1 C3 1_555 1_555
N2 C3 1_555 1_555
H6 N2 1_555 1_555
C4 N2 1_555 1_555
H7 C4 1_555 1_555
C5 C4 1_555 1_555
H8 C5 1_555 1_555
C6 C5 1_555 1_555
H9 C6 1_555 1_555
H10 C6 1_555 1_555
H11 C6 1_555 1_555
O2 C5 1_555 1_555
H12 O2 1_555 1_555
C7 C4 1_555 1_555
O3 C7 1_555 1_555
N3 C7 1_555 1_555
H13 N3 1_555 1_555
C8 N3 1_555 1_555
H14 C8 1_555 1_555
C9 C8 1_555 1_555
H15 C9 1_555 1_555
H16 C9 1_555 1_555
S1 C9 1_555 1_555
C10 C8 1_555 1_555
O4 C10 1_555 1_555
N4 C10 1_555 1_555
C11 N4 1_555 1_555
H17 C11 1_555 1_555
C12 C11 1_555 1_555
H18 C12 1_555 1_555
H19 C12 1_555 1_555
C13 C12 1_555 1_555
H20 C13 1_555 1_555
O5 C13 1_555 1_555
H21 O5 1_555 1_555
C14 N4 1_555 1_555
H22 C14 1_555 1_555
H23 C14 1_555 1_555
C15 C11 1_555 1_555
O6 C15 1_555 1_555
N5 C15 1_555 1_555
H24 N5 1_555 1_555
C16 N5 1_555 1_555
H25 C16 1_555 1_555
C17 C16 1_555 1_555
H26 C17 1_555 1_555
H27 C17 1_555 1_555
H28 C17 1_555 1_555
C18 C16 1_555 1_555
O7 C18 1_555 1_555
N6 C18 1_555 1_555
H29 N6 1_555 1_555
C19 N6 1_555 1_555
H30 C19 1_555 1_555
C20 C19 1_555 1_555
H31 C20 1_555 1_555
H32 C20 1_555 1_555
C21 C20 1_555 1_555
C22 C21 1_555 1_555
C23 S1 1_555 1_555
N7 C23 1_555 1_555
H33 N7 1_555 1_555
C24 C22 1_555 1_555
H34 C24 1_555 1_555
C25 C22 1_555 1_555
C26 C24 1_555 1_555
H35 C26 1_555 1_555
C27 C25 1_555 1_555
H36 C27 1_555 1_555
C28 C26 1_555 1_555
H37 C28 1_555 1_555
C29 C19 1_555 1_555
O8 C29 1_555 1_555
N8 C29 1_555 1_555
H38 N8 1_555 1_555
C30 N8 1_555 1_555
H39 C30 1_555 1_555
C31 C30 1_555 1_555
H40 C31 1_555 1_555
H41 C31 1_555 1_555
H42 C31 1_555 1_555
C32 N1 1_555 1_555
O9 C32 1_555 1_555
C13 C14 1_555 1_555
C21 C23 1_555 1_555
N7 C25 1_555 1_555
C27 C28 1_555 1_555
C30 C32 1_555 1_555

#END
