
#######################################################################
#
#                 Cambridge Crystallographic Data Centre
#                                CCDC 
#
#######################################################################
#
# If this CIF has been generated from an entry in the Cambridge 
# Structural Database, then it will include bibliographic, chemical, 
# crystal, experimental, refinement or atomic coordinate data resulting 
# from the CCDC's data processing and validation procedures.
#
#######################################################################

data_QOSREX
_chemical_formula_moiety         'C11 H8 Br1 F3 N2 O1'
_chemical_name_systematic        
5-bromo-1-methyl-3-((2,2,2-trifluoroethyl)imino)-1,3-dihydro-2H-indol-2-one
_symmetry_cell_setting           monoclinic
_symmetry_space_group_name_H-M   'P 21/n'
_symmetry_Int_Tables_number      14
_space_group_name_Hall           '-P 2yn'
loop_
_symmetry_equiv_pos_site_id
_symmetry_equiv_pos_as_xyz
1 x,y,z
2 1/2-x,1/2+y,1/2-z
3 -x,-y,-z
4 1/2+x,1/2-y,1/2+z
_cell_length_a                   6.8291(12)
_cell_length_b                   12.139(2)
_cell_length_c                   14.882(3)
_cell_angle_alpha                90
_cell_angle_beta                 101.467(3)
_cell_angle_gamma                90
_cell_volume                     1209.07
_exptl_crystal_colour            yellow
_exptl_crystal_description       block
_cell_formula_units_Z            4
loop_
_atom_site_label
_atom_site_type_symbol
_atom_site_fract_x
_atom_site_fract_y
_atom_site_fract_z
Br1 Br 0.38502(5) -0.20095(2) 0.01715(2)
O1 O -0.1259(3) 0.26955(18) 0.22984(15)
N1 N -0.1372(3) 0.0815(2) 0.20754(16)
N2 N 0.1979(4) 0.25023(19) 0.11387(17)
C1 C 0.2139(4) -0.1171(2) 0.07743(19)
C2 C 0.2389(4) -0.0029(2) 0.08255(18)
H1 H 0.3355 0.0320 0.0566
C3 C 0.1153(4) 0.0563(2) 0.12752(18)
C4 C -0.0330(4) 0.0029(2) 0.16562(18)
C5 C -0.0598(5) -0.1097(2) 0.1586(2)
H2 H -0.1588 -0.1449 0.1827
C6 C 0.0681(5) -0.1685(2) 0.1139(2)
H3 H 0.0544 -0.2446 0.1085
C7 C 0.0981(4) 0.1744(2) 0.14369(19)
C8 C -0.0672(4) 0.1854(2) 0.1989(2)
C9 C -0.3034(5) 0.0587(3) 0.2533(2)
H4 H -0.2597 0.0678 0.3183
H5 H -0.3487 -0.0155 0.2404
H6 H -0.4109 0.1089 0.2314
C10 C 0.1565(5) 0.3650(2) 0.1324(2)
H7 H 0.1933 0.3794 0.1977
H8 H 0.0149 0.3799 0.1127
C11 C 0.2728(6) 0.4373(3) 0.0823(3)
F1 F 0.4684(3) 0.41770(17) 0.10307(17)
F2 F 0.2184(4) 0.4278(2) -0.00819(15)
F3 F 0.2479(4) 0.54358(16) 0.10300(19)
loop_
_geom_bond_atom_site_label_1
_geom_bond_atom_site_label_2
_geom_bond_site_symmetry_1
_geom_bond_site_symmetry_2
Br1 C1 1_555 1_555
O1 C8 1_555 1_555
N1 C4 1_555 1_555
N2 C7 1_555 1_555
C1 C2 1_555 1_555
C2 H1 1_555 1_555
C3 C2 1_555 1_555
C4 C3 1_555 1_555
C5 C4 1_555 1_555
H2 C5 1_555 1_555
C6 C1 1_555 1_555
H3 C6 1_555 1_555
C7 C3 1_555 1_555
C8 N1 1_555 1_555
C9 N1 1_555 1_555
H4 C9 1_555 1_555
H5 C9 1_555 1_555
H6 C9 1_555 1_555
C10 N2 1_555 1_555
H7 C10 1_555 1_555
H8 C10 1_555 1_555
C11 C10 1_555 1_555
F1 C11 1_555 1_555
F2 C11 1_555 1_555
F3 C11 1_555 1_555
C5 C6 1_555 1_555
C7 C8 1_555 1_555

#END
