
#######################################################################
#
#                 Cambridge Crystallographic Data Centre
#                                CCDC 
#
#######################################################################
#
# If this CIF has been generated from an entry in the Cambridge 
# Structural Database, then it will include bibliographic, chemical, 
# crystal, experimental, refinement or atomic coordinate data resulting 
# from the CCDC's data processing and validation procedures.
#
#######################################################################

data_QOSXED
_chemical_formula_moiety         'C26 H31 N1 O5'
_chemical_name_systematic        
'diethyl ((2-t-butyl-4-phenyl-4H-3,1-benzoxazin-4-yl)methyl)malonate'
_symmetry_cell_setting           orthorhombic
_symmetry_space_group_name_H-M   'P b c n'
_symmetry_Int_Tables_number      60
_space_group_name_Hall           '-P 2n 2ab'
loop_
_symmetry_equiv_pos_site_id
_symmetry_equiv_pos_as_xyz
1 x,y,z
2 1/2+x,1/2-y,-z
3 -x,y,1/2-z
4 1/2-x,1/2-y,1/2+z
5 -x,-y,-z
6 1/2-x,1/2+y,z
7 x,-y,1/2+z
8 1/2+x,1/2+y,1/2-z
_cell_length_a                   29.508(5)
_cell_length_b                   8.3721(14)
_cell_length_c                   19.678(3)
_cell_angle_alpha                90
_cell_angle_beta                 90
_cell_angle_gamma                90
_cell_volume                     4861.33
_exptl_crystal_colour            colorless
_exptl_crystal_description       Block
_cell_formula_units_Z            8
loop_
_atom_site_label
_atom_site_type_symbol
_atom_site_fract_x
_atom_site_fract_y
_atom_site_fract_z
O1 O 0.11457(5) 1.0548(2) 0.02636(9)
O2 O 0.09895(8) 0.8111(3) -0.10936(13)
C1 C 0.20066(12) 1.1853(5) 0.22062(19)
H1 H 0.2041 1.1723 0.2673
C2 C 0.17608(10) 1.0736(4) 0.18358(16)
H2 H 0.1630 0.9869 0.2057
C3 C 0.19065(9) 1.2224(4) 0.08294(16)
H3 H 0.1879 1.2351 0.0362
N1 N 0.05567(7) 1.0464(3) 0.10509(14)
C4 C 0.13428(11) 0.7125(4) 0.13992(16)
H4 H 0.1630 0.6769 0.1277
C5 C 0.10788(14) 0.6227(5) 0.1840(2)
H5 H 0.1188 0.5265 0.2010
O3 O 0.17708(10) 0.5611(4) -0.10105(15)
O4 O 0.16317(9) 0.9455(3) -0.12245(12)
C6 C 0.05536(10) 1.2471(4) 0.0151(2)
C7 C 0.07511(8) 1.1076(3) 0.05417(15)
C8 C 0.14547(8) 0.9676(3) 0.07105(12)
C9 C 0.21982(12) 1.3141(5) 0.1892(2)
H6 H 0.2366 1.3874 0.2143
C10 C 0.17100(8) 1.0906(3) 0.11422(13)
C11 C 0.21429(10) 1.3353(4) 0.1204(2)
H7 H 0.2264 1.4248 0.0991
C12 C 0.07458(9) 0.9058(4) 0.13208(14)
C13 C 0.11795(8) 0.8549(3) 0.11411(13)
C14 C 0.06555(14) 0.6757(5) 0.2023(2)
H8 H 0.0482 0.6161 0.2326
O5 O 0.2140(4) 0.5789(15) -0.0074(7)
C15 C 0.00516(19) 1.2615(10) 0.0248(5)
H9 H -0.0090 1.1614 0.0142
H10 H -0.0065 1.3430 -0.0047
H11 H -0.0012 1.2893 0.0712
C16 C 0.17834(8) 0.8840(3) 0.02303(13)
H12 H 0.2001 0.8244 0.0499
H13 H 0.1949 0.9646 -0.0022
C17 C 0.15605(8) 0.7699(3) -0.02759(13)
H14 H 0.1296 0.7212 -0.0057
C18 C 0.14046(10) 0.8542(3) -0.09162(14)
C19 C 0.0817(2) 0.8786(6) -0.1722(3)
H15 H 0.1054 0.9390 -0.1949
H16 H 0.0566 0.9501 -0.1628
C20 C 0.0664(3) 0.7453(8) -0.2161(3)
H17 H 0.0550 0.7873 -0.2581
H18 H 0.0429 0.6868 -0.1934
H19 H 0.0915 0.6754 -0.2252
C21 C 0.04867(11) 0.8148(5) 0.17668(18)
H20 H 0.0198 0.8488 0.1890
C22 C 0.08539(18) 1.3882(5) 0.0201(4)
H21 H 0.0925 1.4082 0.0670
H22 H 0.0703 1.4796 0.0012
H23 H 0.1129 1.3682 -0.0046
C23 C 0.0545(2) 1.2013(8) -0.0619(3)
H24 H 0.0847 1.1771 -0.0768
H25 H 0.0428 1.2892 -0.0879
H26 H 0.0355 1.1095 -0.0683
C24 C 0.18895(11) 0.6381(4) -0.04705(17)
C25 C 0.1824(2) 0.3347(7) -0.1730(4)
H27 H 0.1829 0.3877 -0.2163
H28 H 0.1516 0.3221 -0.1582
H29 H 0.1964 0.2315 -0.1772
C26 C 0.2080(2) 0.4325(7) -0.1221(3)
H30 H 0.2166 0.3675 -0.0834
H31 H 0.2352 0.4766 -0.1424
O6? O 0.2278(4) 0.6315(16) -0.0247(8)
C27? C 0.0168(6) 1.317(2) 0.0623(9)
H32? H 0.0009 1.2306 0.0838
H33? H -0.0040 1.3782 0.0354
H34? H 0.0301 1.3842 0.0964
loop_
_geom_bond_atom_site_label_1
_geom_bond_atom_site_label_2
_geom_bond_site_symmetry_1
_geom_bond_site_symmetry_2
O1 C7 1_555 1_555
O2 C18 1_555 1_555
C1 H1 1_555 1_555
C2 C1 1_555 1_555
H2 C2 1_555 1_555
C3 H3 1_555 1_555
N1 C7 1_555 1_555
C4 H4 1_555 1_555
C5 C4 1_555 1_555
H5 C5 1_555 1_555
O3 C24 1_555 1_555
O4 C18 1_555 1_555
C6 C7 1_555 1_555
C8 O1 1_555 1_555
C9 C1 1_555 1_555
H6 C9 1_555 1_555
C10 C2 1_555 1_555
C11 C3 1_555 1_555
H7 C11 1_555 1_555
C12 N1 1_555 1_555
C13 C4 1_555 1_555
C14 C5 1_555 1_555
H8 C14 1_555 1_555
O5 C24 1_555 1_555
C15 C6 1_555 1_555
H9 C15 1_555 1_555
H10 C15 1_555 1_555
H11 C15 1_555 1_555
C16 C8 1_555 1_555
H12 C16 1_555 1_555
H13 C16 1_555 1_555
C17 C16 1_555 1_555
H14 C17 1_555 1_555
C18 C17 1_555 1_555
C19 O2 1_555 1_555
H15 C19 1_555 1_555
H16 C19 1_555 1_555
C20 C19 1_555 1_555
H17 C20 1_555 1_555
H18 C20 1_555 1_555
H19 C20 1_555 1_555
C21 C12 1_555 1_555
H20 C21 1_555 1_555
C22 C6 1_555 1_555
H21 C22 1_555 1_555
H22 C22 1_555 1_555
H23 C22 1_555 1_555
C23 C6 1_555 1_555
H24 C23 1_555 1_555
H25 C23 1_555 1_555
H26 C23 1_555 1_555
C24 C17 1_555 1_555
C25 H27 1_555 1_555
H28 C25 1_555 1_555
H29 C25 1_555 1_555
C26 O3 1_555 1_555
H30 C26 1_555 1_555
H31 C26 1_555 1_555
C3 C10 1_555 1_555
C8 C10 1_555 1_555
C8 C13 1_555 1_555
C9 C11 1_555 1_555
C12 C13 1_555 1_555
C14 C21 1_555 1_555
C25 C26 1_555 1_555

#END
