
#######################################################################
#
#                 Cambridge Crystallographic Data Centre
#                                CCDC 
#
#######################################################################
#
# If this CIF has been generated from an entry in the Cambridge 
# Structural Database, then it will include bibliographic, chemical, 
# crystal, experimental, refinement or atomic coordinate data resulting 
# from the CCDC's data processing and validation procedures.
#
#######################################################################

data_QOTDEI
_chemical_formula_moiety         'C24 H16 N2 O4 S2'
_chemical_name_systematic        
5,15-Dimethyl-2,8-dithia-5,15-diaza-11,12:17,18-dibenzopentacyclo(7.4.3.2^10,13^.0.0^3,7^)octadeca-3(7),11,17-triene-4,6,14,16-tetraone
_symmetry_cell_setting           triclinic
_symmetry_space_group_name_H-M   'P -1'
_symmetry_Int_Tables_number      2
_space_group_name_Hall           '-P 1'
loop_
_symmetry_equiv_pos_site_id
_symmetry_equiv_pos_as_xyz
1 x,y,z
2 -x,-y,-z
_cell_length_a                   8.6318(3)
_cell_length_b                   10.9019(3)
_cell_length_c                   11.5549(3)
_cell_angle_alpha                76.9650(10)
_cell_angle_beta                 87.4130(10)
_cell_angle_gamma                69.5580(10)
_cell_volume                     991.948
_exptl_crystal_colour            'pale yellow'
_cell_formula_units_Z            2
_exptl_crystal_recrystallization_method dichloromethane
loop_
_atom_site_label
_atom_site_type_symbol
_atom_site_fract_x
_atom_site_fract_y
_atom_site_fract_z
S1 S 0.62533(2) 0.44518(2) 0.20015(2)
S2 S 0.60440(2) 0.24633(2) 0.465243(15)
O1 O 0.85594(8) -0.02498(6) 0.44459(5)
O2 O 0.90810(8) 0.24999(6) 0.09453(5)
O3 O 0.28352(9) 0.70155(6) 0.19724(6)
O4 O 0.25412(8) 0.43111(6) 0.55662(5)
N1 N 0.92147(8) 0.09500(6) 0.27004(6)
N2 N 0.22680(8) 0.59089(6) 0.38126(6)
C1 C 0.60338(9) 0.10221(7) 0.11759(6)
C2 C 0.67943(10) 0.03969(8) 0.02699(7)
C3 C 0.72892(12) -0.10013(9) 0.04703(8)
C4 C 0.70212(12) -0.17550(9) 0.15544(8)
C5 C 0.62860(10) -0.11324(8) 0.24707(7)
C6 C 0.58009(9) 0.02593(7) 0.22717(6)
C7 C 0.51378(9) 0.10867(7) 0.31898(6)
C8 C 0.35717(9) 0.22351(7) 0.27025(6)
C9 C 0.21018(10) 0.26216(8) 0.32965(7)
C10 C 0.07957(10) 0.37760(9) 0.27582(8)
C11 C 0.09726(10) 0.45250(9) 0.16470(8)
C12 C 0.24576(10) 0.41460(8) 0.10557(7)
C13 C 0.37551(9) 0.29956(7) 0.15859(6)
C14 C 0.54883(9) 0.25156(7) 0.11379(6)
C15 C 0.81784(9) 0.06827(7) 0.35869(6)
C16 C 0.64532(9) 0.17537(7) 0.33183(6)
C17 C 0.66130(9) 0.26566(7) 0.21038(6)
C18 C 0.84321(9) 0.20694(7) 0.18122(6)
C19 C 0.31969(10) 0.60637(7) 0.28073(7)
C20 C 0.47176(9) 0.48205(7) 0.30022(6)
C21 C 0.46303(9) 0.40321(7) 0.40610(6)
C22 C 0.30498(9) 0.47059(7) 0.46136(7)
C23 C 1.09347(10) 0.00991(8) 0.26489(8)
C24 C 0.06278(11) 0.68345(9) 0.39687(9)
H1 H 0.7007(17) 0.0914(13) -0.0486(12)
H2 H 0.7858(19) -0.1472(15) -0.0167(14)
H3 H 0.7326(18) -0.2710(14) 0.1649(13)
H4 H 0.6129(17) -0.1656(13) 0.3232(12)
H5 H 0.5071(15) 0.0546(12) 0.3959(11)
H6 H 0.2020(16) 0.2114(13) 0.4049(12)
H7 H -0.0255(19) 0.4115(15) 0.3130(13)
H8 H 0.0043(18) 0.5297(14) 0.1296(13)
H9 H 0.2624(18) 0.4656(15) 0.0307(13)
H10 H 0.5645(15) 0.3026(12) 0.0360(11)
H11 H 1.1498(19) 0.0652(15) 0.2304(13)
H12 H 1.1025(19) -0.0534(16) 0.2271(14)
H13 H 1.1353(20) -0.0386(16) 0.3457(15)
H14 H 0.0194(20) 0.7378(16) 0.3193(15)
H15 H -0.0054(19) 0.6358(15) 0.4304(13)
H16 H 0.0707(20) 0.7379(16) 0.4442(14)
loop_
_geom_bond_atom_site_label_1
_geom_bond_atom_site_label_2
_geom_bond_site_symmetry_1
_geom_bond_site_symmetry_2
S1 C17 1_555 1_555
S2 C16 1_555 1_555
O1 C15 1_555 1_555
O2 C18 1_555 1_555
O3 C19 1_555 1_555
O4 C22 1_555 1_555
N1 C15 1_555 1_555
N2 C19 1_555 1_555
C1 C2 1_555 1_555
C2 C3 1_555 1_555
C3 C4 1_555 1_555
C4 C5 1_555 1_555
C5 C6 1_555 1_555
C6 C1 1_555 1_555
C7 C6 1_555 1_555
C8 C7 1_555 1_555
C9 C8 1_555 1_555
C10 C9 1_555 1_555
C11 C10 1_555 1_555
C12 C11 1_555 1_555
C13 C8 1_555 1_555
C14 C1 1_555 1_555
C15 C16 1_555 1_555
C16 C7 1_555 1_555
C17 C14 1_555 1_555
C18 N1 1_555 1_555
C19 C20 1_555 1_555
C20 S1 1_555 1_555
C21 S2 1_555 1_555
C22 N2 1_555 1_555
C23 N1 1_555 1_555
C24 N2 1_555 1_555
H1 C2 1_555 1_555
H2 C3 1_555 1_555
H3 C4 1_555 1_555
H4 C5 1_555 1_555
H5 C7 1_555 1_555
H6 C9 1_555 1_555
H7 C10 1_555 1_555
H8 C11 1_555 1_555
H9 C12 1_555 1_555
H10 C14 1_555 1_555
H11 C23 1_555 1_555
H12 C23 1_555 1_555
H13 C23 1_555 1_555
H14 C24 1_555 1_555
H15 C24 1_555 1_555
H16 C24 1_555 1_555
C12 C13 1_555 1_555
C13 C14 1_555 1_555
C16 C17 1_555 1_555
C17 C18 1_555 1_555
C20 C21 1_555 1_555
C21 C22 1_555 1_555

#END
