
#######################################################################
#
#                 Cambridge Crystallographic Data Centre
#                                CCDC 
#
#######################################################################
#
# If this CIF has been generated from an entry in the Cambridge 
# Structural Database, then it will include bibliographic, chemical, 
# crystal, experimental, refinement or atomic coordinate data resulting 
# from the CCDC's data processing and validation procedures.
#
#######################################################################

data_QOTNET
_chemical_formula_moiety         'C12 H16 Cl1 N1 O4'
_chemical_name_systematic        
'Methyl 2-amino-4-(3-chloropropoxy)-5-methoxybenzoate'
_symmetry_cell_setting           triclinic
_symmetry_space_group_name_H-M   'P -1'
_symmetry_Int_Tables_number      2
_space_group_name_Hall           '-P 1'
loop_
_symmetry_equiv_pos_site_id
_symmetry_equiv_pos_as_xyz
1 x,y,z
2 -x,-y,-z
_cell_length_a                   8.1080(16)
_cell_length_b                   9.818(2)
_cell_length_c                   17.739(3)
_cell_angle_alpha                82.07(2)
_cell_angle_beta                 83.41(2)
_cell_angle_gamma                89.37(3)
_cell_volume                     1389.34
_exptl_crystal_colour            colorless
_exptl_crystal_description       block
_chemical_melting_point          '377 K'
_cell_formula_units_Z            4
_exptl_crystal_recrystallization_method methanol
loop_
_atom_site_label
_atom_site_type_symbol
_atom_site_fract_x
_atom_site_fract_y
_atom_site_fract_z
Cl1 Cl -0.15324(14) 0.65740(12) 0.56167(7)
O1 O -0.0021(3) 0.9054(2) 0.70177(14)
O2 O 0.2315(3) 1.0836(2) 0.66023(13)
O3 O 0.5434(3) 0.8244(3) 0.94591(14)
O4 O 0.6278(3) 1.0083(3) 0.85978(14)
N1 N 0.2572(4) 0.7010(3) 0.92623(18)
H1 H 0.3373 0.6986 0.9542
H2 H 0.1770 0.6425 0.9381
C1 C -0.1746(5) 0.8327(4) 0.5747(2)
H5 H -0.0664 0.8770 0.5646
H6 H -0.2447 0.8784 0.5383
C2 C -0.2507(4) 0.8486(4) 0.6564(3)
H7 H -0.2840 0.9436 0.6574
H8 H -0.3503 0.7924 0.6685
C3 C -0.1379(4) 0.8095(4) 0.7191(2)
H9 H -0.1966 0.8168 0.7691
H10 H -0.0983 0.7160 0.7184
C4 C 0.1200(4) 0.8952(3) 0.7498(2)
C5 C 0.1262(4) 0.8003(4) 0.8155(2)
H11 H 0.0414 0.7356 0.8294
C6 C 0.2574(4) 0.7991(3) 0.8619(2)
C7 C 0.3857(4) 0.8969(3) 0.84021(18)
C8 C 0.3773(4) 0.9923(3) 0.77157(18)
H12 H 0.4628 1.0561 0.7566
C9 C 0.2495(4) 0.9941(3) 0.72703(19)
C10 C 0.3629(5) 1.1770(4) 0.6326(2)
H13 H 0.3364 1.2330 0.5868
H14 H 0.4630 1.1269 0.6213
H15 H 0.3786 1.2345 0.6708
C11 C 0.5223(4) 0.9032(3) 0.88748(19)
C12 C 0.7633(5) 1.0256(4) 0.9052(2)
H16 H 0.8318 1.1018 0.8807
H17 H 0.8288 0.9434 0.9093
H18 H 0.7185 1.0429 0.9554
Cl2 Cl 0.35436(14) 0.80677(12) 0.56017(6)
O5 O 0.4986(3) 0.4748(2) 0.69292(14)
O6 O 0.7348(3) 0.3139(2) 0.65050(13)
O7 O 1.1359(3) 0.2938(2) 0.84821(13)
O8 O 1.0455(3) 0.4302(3) 0.93563(13)
N2 N 0.7544(4) 0.5646(3) 0.91837(16)
H3 H 0.8342 0.5523 0.9466
H4 H 0.6729 0.6173 0.9303
C13 C 0.3339(5) 0.6258(4) 0.5663(2)
H19 H 0.2670 0.6044 0.5275
H20 H 0.4427 0.5856 0.5564
C14 C 0.2526(4) 0.5629(4) 0.6458(3)
H21 H 0.1515 0.6130 0.6580
H22 H 0.2214 0.4686 0.6434
C15 C 0.3612(4) 0.5635(4) 0.7106(2)
H23 H 0.4001 0.6559 0.7126
H24 H 0.2997 0.5290 0.7595
C16 C 0.6215(4) 0.4591(3) 0.7408(2)
C17 C 0.7518(4) 0.3703(3) 0.71711(18)
C18 C 0.8796(4) 0.3485(3) 0.76205(17)
H25 H 0.9653 0.2904 0.7476
C19 C 0.8872(4) 0.4108(3) 0.83011(17)
C20 C 0.7570(4) 0.4991(3) 0.85342(19)
C21 C 0.6255(4) 0.5203(3) 0.8067(2)
H26 H 0.5385 0.5774 0.8208
C22 C 0.8708(5) 0.2353(4) 0.6222(2)
H27 H 0.8456 0.2011 0.5766
H28 H 0.8905 0.1595 0.6604
H29 H 0.9682 0.2925 0.6104
C23 C 1.0255(4) 0.3818(3) 0.87674(18)
C24 C 1.2755(5) 0.2593(4) 0.8929(2)
H30 H 1.3482 0.1968 0.8683
H31 H 1.2343 0.2169 0.9435
H32 H 1.3356 0.3416 0.8962
loop_
_geom_bond_atom_site_label_1
_geom_bond_atom_site_label_2
_geom_bond_site_symmetry_1
_geom_bond_site_symmetry_2
Cl1 C1 1_555 1_555
Cl2 C13 1_555 1_555
O1 C3 1_555 1_555
O2 C9 1_555 1_555
O3 C11 1_555 1_555
O4 C11 1_555 1_555
O5 C15 1_555 1_555
O6 C17 1_555 1_555
O7 C23 1_555 1_555
O8 C23 1_555 1_555
N1 H1 1_555 1_555
H2 N1 1_555 1_555
N2 H3 1_555 1_555
H4 N2 1_555 1_555
C1 H5 1_555 1_555
H6 C1 1_555 1_555
C2 C1 1_555 1_555
H7 C2 1_555 1_555
H8 C2 1_555 1_555
C3 C2 1_555 1_555
H9 C3 1_555 1_555
H10 C3 1_555 1_555
C4 O1 1_555 1_555
C5 C4 1_555 1_555
H11 C5 1_555 1_555
C6 N1 1_555 1_555
C7 C6 1_555 1_555
C8 C7 1_555 1_555
H12 C8 1_555 1_555
C9 C4 1_555 1_555
C10 O2 1_555 1_555
H13 C10 1_555 1_555
H14 C10 1_555 1_555
H15 C10 1_555 1_555
C11 C7 1_555 1_555
C12 O4 1_555 1_555
H16 C12 1_555 1_555
H17 C12 1_555 1_555
H18 C12 1_555 1_555
C13 H19 1_555 1_555
H20 C13 1_555 1_555
C14 C13 1_555 1_555
H21 C14 1_555 1_555
H22 C14 1_555 1_555
C15 C14 1_555 1_555
H23 C15 1_555 1_555
H24 C15 1_555 1_555
C16 O5 1_555 1_555
C17 C16 1_555 1_555
C18 C17 1_555 1_555
H25 C18 1_555 1_555
C19 C18 1_555 1_555
C20 N2 1_555 1_555
C21 C16 1_555 1_555
H26 C21 1_555 1_555
C22 O6 1_555 1_555
H27 C22 1_555 1_555
H28 C22 1_555 1_555
H29 C22 1_555 1_555
C23 C19 1_555 1_555
C24 O7 1_555 1_555
H30 C24 1_555 1_555
H31 C24 1_555 1_555
H32 C24 1_555 1_555
C5 C6 1_555 1_555
C8 C9 1_555 1_555
C19 C20 1_555 1_555
C20 C21 1_555 1_555

#END
