
#######################################################################
#
#                 Cambridge Crystallographic Data Centre
#                                CCDC 
#
#######################################################################
#
# If this CIF has been generated from an entry in the Cambridge 
# Structural Database, then it will include bibliographic, chemical, 
# crystal, experimental, refinement or atomic coordinate data resulting 
# from the CCDC's data processing and validation procedures.
#
#######################################################################

data_QOVCOV
_chemical_name_common            
"ethyl 1',1''-dimethyl-2'',3-dioxo-3H-dispiro[benzo[b]thiophene-2,3'-pyrrolidine-2',3''-indoline]-4'-carboxylate"
_chemical_formula_moiety         'C23 H22 N2 O4 S1'
_chemical_name_systematic        
"ethyl 1',1''-dimethyl-2'',3-dioxo-1'',2''-dihydro-3H-dispiro[1-benzothiophene-2,3'-pyrrolidine-2',3''-indole]-4'-carboxylate"
_symmetry_cell_setting           monoclinic
_symmetry_space_group_name_H-M   'C 2/c'
_symmetry_Int_Tables_number      15
_space_group_name_Hall           '-C 2yn'
loop_
_symmetry_equiv_pos_site_id
_symmetry_equiv_pos_as_xyz
1 x,y,z
2 -x,y,1/2-z
3 1/2+x,1/2+y,z
4 1/2-x,1/2+y,1/2-z
5 -x,-y,-z
6 x,-y,1/2+z
7 1/2-x,1/2-y,-z
8 1/2+x,1/2-y,1/2+z
_cell_length_a                   23.7049(11)
_cell_length_b                   8.2632(3)
_cell_length_c                   22.1003(8)
_cell_angle_alpha                90
_cell_angle_beta                 102.337(2)
_cell_angle_gamma                90
_cell_volume                     4229
_exptl_crystal_colour            colorless
_exptl_crystal_description       block
_cell_formula_units_Z            8
loop_
_atom_site_label
_atom_site_type_symbol
_atom_site_fract_x
_atom_site_fract_y
_atom_site_fract_z
S1 S 0.141873(15) 0.31779(4) 0.413751(16)
C1 C 0.13418(6) 0.09712(17) 0.41066(6)
N1 N 0.16154(6) -0.18548(15) 0.30761(6)
C2 C 0.18787(6) 0.08191(18) 0.32013(6)
O1 O 0.05531(5) -0.07835(14) 0.36475(6)
O2 O 0.17197(6) -0.27090(14) 0.40812(6)
C3 C 0.18360(6) 0.02047(17) 0.38341(6)
C4 C 0.07265(6) 0.05908(19) 0.37426(7)
C5 C 0.07062(6) 0.34826(19) 0.37340(7)
C6 C 0.17122(6) -0.16405(18) 0.37017(7)
N2 N 0.23289(5) 0.05295(16) 0.43401(6)
C7 C 0.03980(6) 0.2070(2) 0.35486(7)
C8 C 0.17075(6) -0.04172(19) 0.27721(7)
C9 C 0.20526(7) 0.2287(2) 0.30060(8)
H1 H 0.2187 0.3105 0.3290
O3 O 0.06476(6) 0.13849(16) 0.49836(6)
C10 C 0.14909(7) 0.0263(2) 0.47706(7)
H2 H 0.1360 -0.0865 0.4747
C11 C 0.21520(8) 0.0253(2) 0.49324(8)
H3 H 0.2298 0.1104 0.5226
H4 H 0.2296 -0.0780 0.5110
C12 C 0.04484(7) 0.4995(2) 0.36049(8)
H5 H 0.0654 0.5942 0.3726
C13 C 0.28698(7) -0.0239(2) 0.42869(9)
H6 H 0.2826 -0.1394 0.4290
H7 H 0.3170 0.0083 0.4630
H8 H 0.2969 0.0088 0.3906
C14 C -0.01766(8) 0.2148(2) 0.32301(9)
H9 H -0.0384 0.1206 0.3105
C15 C 0.12051(9) 0.1125(2) 0.52268(7)
C16 C 0.16713(7) -0.0205(2) 0.21453(7)
H10 H 0.1547 -0.1032 0.1863
C17 C 0.20234(8) 0.2522(2) 0.23745(8)
H11 H 0.2136 0.3508 0.2236
O4 O 0.14426(8) 0.1504(2) 0.57445(6)
C18 C 0.18291(8) 0.1304(3) 0.19547(8)
H12 H 0.1803 0.1495 0.1535
C19 C 0.15024(10) -0.3419(2) 0.27783(10)
H13 H 0.1551 -0.4252 0.3088
H14 H 0.1767 -0.3596 0.2511
H15 H 0.1114 -0.3445 0.2538
C20 C -0.01201(9) 0.5045(3) 0.32919(11)
H16 H -0.0300 0.6043 0.3204
C21 C -0.04313(8) 0.3642(3) 0.31035(11)
H17 H -0.0814 0.3713 0.2891
C22 C 0.03086(12) 0.2257(3) 0.53552(11)
H18 H 0.0519 0.3201 0.5544
H19 H 0.0230 0.1565 0.5682
C23 C -0.02388(11) 0.2757(3) 0.49378(13)
H20 H -0.0156 0.3458 0.4621
H21 H -0.0475 0.3320 0.5172
H22 H -0.0440 0.1815 0.4749
loop_
_geom_bond_atom_site_label_1
_geom_bond_atom_site_label_2
_geom_bond_site_symmetry_1
_geom_bond_site_symmetry_2
S1 C1 1_555 1_555
C1 C3 1_555 1_555
N1 C6 1_555 1_555
C2 C3 1_555 1_555
O1 C4 1_555 1_555
O2 C6 1_555 1_555
C3 C6 1_555 1_555
C4 C1 1_555 1_555
C5 S1 1_555 1_555
N2 C3 1_555 1_555
C7 C4 1_555 1_555
C8 N1 1_555 1_555
C9 C2 1_555 1_555
H1 C9 1_555 1_555
O3 C15 1_555 1_555
C10 C1 1_555 1_555
H2 C10 1_555 1_555
C11 N2 1_555 1_555
H3 C11 1_555 1_555
H4 C11 1_555 1_555
C12 C5 1_555 1_555
H5 C12 1_555 1_555
C13 N2 1_555 1_555
H6 C13 1_555 1_555
H7 C13 1_555 1_555
H8 C13 1_555 1_555
C14 C7 1_555 1_555
H9 C14 1_555 1_555
C15 C10 1_555 1_555
C16 C8 1_555 1_555
H10 C16 1_555 1_555
C17 C9 1_555 1_555
H11 C17 1_555 1_555
O4 C15 1_555 1_555
C18 C16 1_555 1_555
H12 C18 1_555 1_555
C19 N1 1_555 1_555
H13 C19 1_555 1_555
H14 C19 1_555 1_555
H15 C19 1_555 1_555
C20 C12 1_555 1_555
H16 C20 1_555 1_555
C21 C14 1_555 1_555
H17 C21 1_555 1_555
C22 O3 1_555 1_555
H18 C22 1_555 1_555
H19 C22 1_555 1_555
C23 C22 1_555 1_555
H20 C23 1_555 1_555
H21 C23 1_555 1_555
H22 C23 1_555 1_555
C2 C8 1_555 1_555
C5 C7 1_555 1_555
C10 C11 1_555 1_555
C17 C18 1_555 1_555
C20 C21 1_555 1_555

#END
