
#######################################################################
#
#                 Cambridge Crystallographic Data Centre
#                                CCDC 
#
#######################################################################
#
# If this CIF has been generated from an entry in the Cambridge 
# Structural Database, then it will include bibliographic, chemical, 
# crystal, experimental, refinement or atomic coordinate data resulting 
# from the CCDC's data processing and validation procedures.
#
#######################################################################

data_QOVFIS
_chemical_formula_moiety         'C64 H96 N8 O8,4(C3 H7 N1 O1)'
_chemical_name_systematic        
'5,10,15,20-tetrakis(1-(t-Butoxycarbonyl)piperidin-4-yl)-5,10,15,20-tetramethylcalix(4)pyrrole dimethylformamide solvate'
_symmetry_cell_setting           triclinic
_symmetry_space_group_name_H-M   'P -1'
_symmetry_Int_Tables_number      2
_space_group_name_Hall           '-P 1'
loop_
_symmetry_equiv_pos_site_id
_symmetry_equiv_pos_as_xyz
1 x,y,z
2 -x,-y,-z
_cell_length_a                   12.0149(15)
_cell_length_b                   12.3661(16)
_cell_length_c                   16.000(3)
_cell_angle_alpha                101.083(3)
_cell_angle_beta                 98.353(3)
_cell_angle_gamma                115.773(2)
_cell_volume                     2029.17
_exptl_crystal_colour            colorless
_exptl_crystal_description       block
_cell_formula_units_Z            1
loop_
_atom_site_label
_atom_site_type_symbol
_atom_site_fract_x
_atom_site_fract_y
_atom_site_fract_z
O1 O 0.00905(19) 0.24303(18) -0.31465(13)
O2 O -0.09281(18) 0.33827(16) -0.37372(12)
O3 O 1.2248(2) 1.3262(2) 0.33994(14)
O4 O 1.17234(17) 1.20117(17) 0.42988(11)
N1 N 0.54711(17) 0.83722(17) -0.03943(11)
H1 H 0.4813 0.8350 -0.0229
N2 N 0.0801(2) 0.45036(19) -0.26155(15)
N3 N 0.60840(16) 1.04174(17) 0.14345(11)
H2 H 0.6372 1.0734 0.1029
N4 N 1.05513(19) 1.13203(19) 0.29167(13)
C1 C 0.6596(2) 0.8640(2) 0.01659(14)
C2 C 0.7386(2) 0.8579(3) -0.03530(16)
H3 H 0.8218 0.8720 -0.0156
C3 C 0.6724(2) 0.8264(3) -0.12367(16)
H4 H 0.7041 0.8156 -0.1725
C4 C 0.5540(2) 0.8146(2) -0.12556(14)
C5 C 0.4486(2) 0.7887(2) -0.20405(14)
C6 C 0.4857(2) 0.7492(3) -0.28823(15)
H5 H 0.5655 0.8158 -0.2893
H6 H 0.4204 0.7315 -0.3390
H7 H 0.4945 0.6755 -0.2890
C7 C 0.3160(2) 0.6843(2) -0.20215(15)
H8 H 0.2974 0.7160 -0.1478
C8 C 0.3134(2) 0.5607(2) -0.19848(17)
H9 H 0.3310 0.5255 -0.2514
H10 H 0.3797 0.5761 -0.1482
C9 C 0.1837(2) 0.4676(3) -0.19087(18)
H11 H 0.1817 0.3877 -0.1938
H12 H 0.1713 0.4979 -0.1342
C10 C 0.2063(2) 0.6574(2) -0.27812(16)
H13 H 0.2056 0.7351 -0.2799
H14 H 0.2194 0.6231 -0.3334
C11 C 0.0790(2) 0.5657(2) -0.26795(19)
H15 H 0.0622 0.6028 -0.2153
H16 H 0.0112 0.5473 -0.3183
C12 C 0.0004(2) 0.3364(2) -0.31674(16)
C13 C -0.1893(3) 0.2248(3) -0.44317(19)
C14 C -0.1271(4) 0.1810(5) -0.5070(3)
H17 H -0.0703 0.2507 -0.5244
H18 H -0.1918 0.1182 -0.5581
H19 H -0.0796 0.1462 -0.4793
C15 C -0.2726(4) 0.2729(4) -0.4858(3)
H20 H -0.3114 0.2996 -0.4436
H21 H -0.3382 0.2072 -0.5352
H22 H -0.2210 0.3425 -0.5056
C16 C -0.2661(4) 0.1249(3) -0.4029(3)
H23 H -0.2143 0.0911 -0.3794
H24 H -0.3401 0.0592 -0.4473
H25 H -0.2928 0.1610 -0.3564
C17 C 0.6737(2) 0.8715(2) 0.11364(14)
C18 C 0.6154(2) 0.7345(2) 0.11816(17)
H26 H 0.6177 0.7337 0.1783
H27 H 0.6640 0.6966 0.0959
H28 H 0.5284 0.6883 0.0831
C19 C 0.6053(2) 0.9342(2) 0.15751(14)
C20 C 0.5515(2) 0.9157(2) 0.22666(17)
H29 H 0.5360 0.8495 0.2509
C21 C 0.5237(2) 1.0143(2) 0.25479(16)
H30 H 0.4872 1.0244 0.3011
C22 C 0.4408(2) 0.9082(2) -0.20314(14)
C23 C 0.8197(2) 0.9429(2) 0.16245(14)
H31 H 0.8595 0.8985 0.1321
C24 C 0.8889(2) 1.0780(2) 0.15941(16)
H32 H 0.8753 1.0797 0.0985
H33 H 0.8531 1.1256 0.1900
C25 C 1.0308(2) 1.1388(3) 0.20138(16)
H34 H 1.0684 1.0969 0.1671
H35 H 1.0708 1.2259 0.2013
C26 C 0.8478(2) 0.9437(2) 0.25866(16)
H36 H 0.8100 0.9875 0.2909
H37 H 0.8083 0.8581 0.2620
C27 C 0.9898(2) 1.0062(2) 0.30169(17)
H38 H 1.0032 1.0113 0.3639
H39 H 1.0259 0.9560 0.2750
C28 C 1.1567(3) 1.2277(3) 0.35276(17)
C29 C 1.2778(3) 1.2908(3) 0.50585(17)
C30 C 1.2704(4) 1.4095(3) 0.5333(2)
H40 H 1.2828 1.4505 0.4876
H41 H 1.3357 1.4638 0.5866
H42 H 1.1879 1.3906 0.5433
C31 C 1.4046(3) 1.3132(4) 0.4851(2)
H43 H 1.4045 1.2345 0.4669
H44 H 1.4735 1.3666 0.5368
H45 H 1.4156 1.3526 0.4385
C32 C 1.2535(3) 1.2212(3) 0.57535(19)
H46 H 1.1718 1.2052 0.5858
H47 H 1.3194 1.2713 0.6291
H48 H 1.2539 1.1431 0.5551
O1A O 0.99095(19) 1.75697(18) 0.31465(13)
O2A O 1.09281(18) 1.66173(16) 0.37372(12)
O3A O -0.2248(2) 0.6738(2) -0.33994(14)
O4A O -0.17234(17) 0.79883(17) -0.42988(11)
N1A N 0.45289(17) 1.16278(17) 0.03943(11)
H1A H 0.5187 1.1650 0.0229
N2A N 0.9199(2) 1.54964(19) 0.26155(15)
N3A N 0.39160(16) 0.95826(17) -0.14345(11)
H2A H 0.3628 0.9266 -0.1029
N4A N -0.05513(19) 0.86797(19) -0.29167(13)
C1A C 0.3404(2) 1.1360(2) -0.01659(14)
C2A C 0.2614(2) 1.1421(3) 0.03530(16)
H3A H 0.1782 1.1280 0.0156
C3A C 0.3276(2) 1.1736(3) 0.12367(16)
H4A H 0.2959 1.1844 0.1725
C4A C 0.4460(2) 1.1854(2) 0.12556(14)
C5A C 0.5514(2) 1.2113(2) 0.20405(14)
C6A C 0.5143(2) 1.2508(3) 0.28823(15)
H5A H 0.4345 1.1842 0.2893
H6A H 0.5796 1.2685 0.3390
H7A H 0.5055 1.3245 0.2890
C7A C 0.6840(2) 1.3157(2) 0.20215(15)
H8A H 0.7026 1.2840 0.1478
C8A C 0.6866(2) 1.4393(2) 0.19848(17)
H9A H 0.6690 1.4745 0.2514
H10A H 0.6203 1.4239 0.1482
C9A C 0.8163(2) 1.5324(3) 0.19087(18)
H11A H 0.8183 1.6123 0.1938
H12A H 0.8287 1.5021 0.1342
C10A C 0.7937(2) 1.3426(2) 0.27812(16)
H13A H 0.7944 1.2649 0.2799
H14A H 0.7806 1.3769 0.3334
C11A C 0.9210(2) 1.4343(2) 0.26795(19)
H15A H 0.9378 1.3972 0.2153
H16A H 0.9888 1.4527 0.3183
C12A C 0.9996(2) 1.6636(2) 0.31674(16)
C13A C 1.1893(3) 1.7752(3) 0.44317(19)
C14A C 1.1271(4) 1.8190(5) 0.5070(3)
H17A H 1.0703 1.7493 0.5244
H18A H 1.1918 1.8818 0.5581
H19A H 1.0796 1.8538 0.4793
C15A C 1.2726(4) 1.7271(4) 0.4858(3)
H20A H 1.3114 1.7004 0.4436
H21A H 1.3382 1.7928 0.5352
H22A H 1.2210 1.6575 0.5056
C16A C 1.2661(4) 1.8751(3) 0.4029(3)
H23A H 1.2143 1.9089 0.3794
H24A H 1.3401 1.9408 0.4473
H25A H 1.2928 1.8390 0.3564
C17A C 0.3263(2) 1.1285(2) -0.11364(14)
C18A C 0.3846(2) 1.2655(2) -0.11816(17)
H26A H 0.3823 1.2663 -0.1783
H27A H 0.3360 1.3034 -0.0959
H28A H 0.4716 1.3117 -0.0831
C19A C 0.3947(2) 1.0658(2) -0.15751(14)
C20A C 0.4485(2) 1.0843(2) -0.22666(17)
H29A H 0.4640 1.1505 -0.2509
C21A C 0.4763(2) 0.9857(2) -0.25479(16)
H30A H 0.5128 0.9756 -0.3011
C22A C 0.5592(2) 1.0918(2) 0.20314(14)
C23A C 0.1803(2) 1.0571(2) -0.16245(14)
H31A H 0.1405 1.1015 -0.1321
C24A C 0.1111(2) 0.9220(2) -0.15941(16)
H32A H 0.1247 0.9203 -0.0985
H33A H 0.1469 0.8744 -0.1900
C25A C -0.0308(2) 0.8612(3) -0.20138(16)
H34A H -0.0684 0.9031 -0.1671
H35A H -0.0708 0.7741 -0.2013
C26A C 0.1522(2) 1.0563(2) -0.25866(16)
H36A H 0.1900 1.0125 -0.2909
H37A H 0.1917 1.1419 -0.2620
C27A C 0.0102(2) 0.9938(2) -0.30169(17)
H38A H -0.0032 0.9887 -0.3639
H39A H -0.0259 1.0440 -0.2750
C28A C -0.1567(3) 0.7723(3) -0.35276(17)
C29A C -0.2778(3) 0.7092(3) -0.50585(17)
C30A C -0.2704(4) 0.5905(3) -0.5333(2)
H40A H -0.2828 0.5495 -0.4876
H41A H -0.3357 0.5362 -0.5866
H42A H -0.1879 0.6094 -0.5433
C31A C -0.4046(3) 0.6868(4) -0.4851(2)
H43A H -0.4045 0.7655 -0.4669
H44A H -0.4735 0.6334 -0.5368
H45A H -0.4156 0.6474 -0.4385
C32A C -0.2535(3) 0.7788(3) -0.57535(19)
H46A H -0.1718 0.7948 -0.5858
H47A H -0.3194 0.7287 -0.6291
H48A H -0.2539 0.8569 -0.5551
O5 O 0.30489(17) 0.82749(18) -0.01205(12)
N5 N 0.1610(2) 0.7957(2) 0.06752(16)
C33 C 0.2707(3) 0.8544(3) 0.05291(18)
H49 H 0.3312 0.9259 0.0973
C34 C 0.0602(4) 0.6903(5) -0.0012(3)
H50 H 0.0902 0.6790 -0.0529
H51 H 0.0343 0.6162 0.0182
H52 H -0.0115 0.7052 -0.0147
C35 C 0.1284(5) 0.8374(5) 0.1458(3)
H53 H 0.0591 0.8549 0.1301
H54 H 0.2013 0.9120 0.1844
H55 H 0.1030 0.7730 0.1752
O6 O 0.2469(5) 0.4625(5) 0.0179(3)
N6 N 0.3074(3) 0.5162(3) 0.1651(3)
C36 C 0.3073(5) 0.4620(5) 0.0852(4)
H56 H 0.3564 0.4212 0.0805
C37 C 0.3939(6) 0.5189(5) 0.2373(4)
H57 H 0.3470 0.4626 0.2683
H58 H 0.4414 0.6024 0.2767
H59 H 0.4519 0.4936 0.2157
C38 C 0.2350(6) 0.5734(7) 0.1814(7)
H60 H 0.2197 0.6046 0.1329
H61 H 0.2796 0.6419 0.2345
H62 H 0.1548 0.5143 0.1881
loop_
_geom_bond_atom_site_label_1
_geom_bond_atom_site_label_2
_geom_bond_site_symmetry_1
_geom_bond_site_symmetry_2
O1 C12 1_555 1_555
O2 C12 1_555 1_555
O3 C28 1_555 1_555
O4 C28 1_555 1_555
N1 H1 1_555 1_555
N2 C9 1_555 1_555
N3 H2 1_555 1_555
N4 C25 1_555 1_555
C1 N1 1_555 1_555
C2 C1 1_555 1_555
H3 C2 1_555 1_555
C3 C2 1_555 1_555
H4 C3 1_555 1_555
C4 N1 1_555 1_555
C5 C4 1_555 1_555
C6 C5 1_555 1_555
H5 C6 1_555 1_555
H6 C6 1_555 1_555
H7 C6 1_555 1_555
C7 C5 1_555 1_555
H8 C7 1_555 1_555
C8 C7 1_555 1_555
H9 C8 1_555 1_555
H10 C8 1_555 1_555
C9 C8 1_555 1_555
H11 C9 1_555 1_555
H12 C9 1_555 1_555
C10 C7 1_555 1_555
H13 C10 1_555 1_555
H14 C10 1_555 1_555
C11 N2 1_555 1_555
H15 C11 1_555 1_555
H16 C11 1_555 1_555
C12 N2 1_555 1_555
C13 O2 1_555 1_555
C14 C13 1_555 1_555
H17 C14 1_555 1_555
H18 C14 1_555 1_555
H19 C14 1_555 1_555
C15 C13 1_555 1_555
H20 C15 1_555 1_555
H21 C15 1_555 1_555
H22 C15 1_555 1_555
C16 C13 1_555 1_555
H23 C16 1_555 1_555
H24 C16 1_555 1_555
H25 C16 1_555 1_555
C17 C1 1_555 1_555
C18 C17 1_555 1_555
H26 C18 1_555 1_555
H27 C18 1_555 1_555
H28 C18 1_555 1_555
C19 N3 1_555 1_555
C20 C19 1_555 1_555
H29 C20 1_555 1_555
C21 C20 1_555 1_555
H30 C21 1_555 1_555
C22 C5 1_555 1_555
C23 C17 1_555 1_555
H31 C23 1_555 1_555
C24 C23 1_555 1_555
H32 C24 1_555 1_555
H33 C24 1_555 1_555
C25 C24 1_555 1_555
H34 C25 1_555 1_555
H35 C25 1_555 1_555
C26 C23 1_555 1_555
H36 C26 1_555 1_555
H37 C26 1_555 1_555
C27 N4 1_555 1_555
H38 C27 1_555 1_555
H39 C27 1_555 1_555
C28 N4 1_555 1_555
C29 O4 1_555 1_555
C30 C29 1_555 1_555
H40 C30 1_555 1_555
H41 C30 1_555 1_555
H42 C30 1_555 1_555
C31 C29 1_555 1_555
H43 C31 1_555 1_555
H44 C31 1_555 1_555
H45 C31 1_555 1_555
C32 C29 1_555 1_555
H46 C32 1_555 1_555
H47 C32 1_555 1_555
H48 C32 1_555 1_555
O5 C33 1_555 1_555
N5 C33 1_555 1_555
C33 H49 1_555 1_555
C34 N5 1_555 1_555
H50 C34 1_555 1_555
H51 C34 1_555 1_555
H52 C34 1_555 1_555
C35 N5 1_555 1_555
H53 C35 1_555 1_555
H54 C35 1_555 1_555
H55 C35 1_555 1_555
O6 C36 1_555 1_555
N6 C36 1_555 1_555
C36 H56 1_555 1_555
C37 N6 1_555 1_555
H57 C37 1_555 1_555
H58 C37 1_555 1_555
H59 C37 1_555 1_555
C38 N6 1_555 1_555
H60 C38 1_555 1_555
H61 C38 1_555 1_555
H62 C38 1_555 1_555
O1A C12A 1_555 1_555
O2A C12A 1_555 1_555
O3A C28A 1_555 1_555
O4A C28A 1_555 1_555
N1A H1A 1_555 1_555
N2A C9A 1_555 1_555
N3A C22 1_555 1_555
H2A N3A 1_555 1_555
N4A C25A 1_555 1_555
C1A N1A 1_555 1_555
C2A C1A 1_555 1_555
H3A C2A 1_555 1_555
C3A C2A 1_555 1_555
H4A C3A 1_555 1_555
C4A N1A 1_555 1_555
C5A C4A 1_555 1_555
C6A C5A 1_555 1_555
H5A C6A 1_555 1_555
H6A C6A 1_555 1_555
H7A C6A 1_555 1_555
C7A C5A 1_555 1_555
H8A C7A 1_555 1_555
C8A C7A 1_555 1_555
H9A C8A 1_555 1_555
H10A C8A 1_555 1_555
C9A C8A 1_555 1_555
H11A C9A 1_555 1_555
H12A C9A 1_555 1_555
C10A C7A 1_555 1_555
H13A C10A 1_555 1_555
H14A C10A 1_555 1_555
C11A N2A 1_555 1_555
H15A C11A 1_555 1_555
H16A C11A 1_555 1_555
C12A N2A 1_555 1_555
C13A O2A 1_555 1_555
C14A C13A 1_555 1_555
H17A C14A 1_555 1_555
H18A C14A 1_555 1_555
H19A C14A 1_555 1_555
C15A C13A 1_555 1_555
H20A C15A 1_555 1_555
H21A C15A 1_555 1_555
H22A C15A 1_555 1_555
C16A C13A 1_555 1_555
H23A C16A 1_555 1_555
H24A C16A 1_555 1_555
H25A C16A 1_555 1_555
C17A C1A 1_555 1_555
C18A C17A 1_555 1_555
H26A C18A 1_555 1_555
H27A C18A 1_555 1_555
H28A C18A 1_555 1_555
C19A N3A 1_555 1_555
C20A C19A 1_555 1_555
H29A C20A 1_555 1_555
C21A C22 1_555 1_555
H30A C21A 1_555 1_555
C22A N3 1_555 1_555
C23A C17A 1_555 1_555
H31A C23A 1_555 1_555
C24A C23A 1_555 1_555
H32A C24A 1_555 1_555
H33A C24A 1_555 1_555
C25A C24A 1_555 1_555
H34A C25A 1_555 1_555
H35A C25A 1_555 1_555
C26A C23A 1_555 1_555
H36A C26A 1_555 1_555
H37A C26A 1_555 1_555
C27A N4A 1_555 1_555
H38A C27A 1_555 1_555
H39A C27A 1_555 1_555
C28A N4A 1_555 1_555
C29A O4A 1_555 1_555
C30A C29A 1_555 1_555
H40A C30A 1_555 1_555
H41A C30A 1_555 1_555
H42A C30A 1_555 1_555
C31A C29A 1_555 1_555
H43A C31A 1_555 1_555
H44A C31A 1_555 1_555
H45A C31A 1_555 1_555
C32A C29A 1_555 1_555
H46A C32A 1_555 1_555
H47A C32A 1_555 1_555
H48A C32A 1_555 1_555
C3 C4 1_555 1_555
C10 C11 1_555 1_555
C17 C19 1_555 1_555
C21 C22A 1_555 1_555
C26 C27 1_555 1_555
C3A C4A 1_555 1_555
C5A C22A 1_555 1_555
C10A C11A 1_555 1_555
C17A C19A 1_555 1_555
C20A C21A 1_555 1_555
C26A C27A 1_555 1_555

#END
