
#######################################################################
#
#                 Cambridge Crystallographic Data Centre
#                                CCDC 
#
#######################################################################
#
# If this CIF has been generated from an entry in the Cambridge 
# Structural Database, then it will include bibliographic, chemical, 
# crystal, experimental, refinement or atomic coordinate data resulting 
# from the CCDC's data processing and validation procedures.
#
#######################################################################

data_QOVFOY
_chemical_formula_moiety         
'C44 H68 N8 4+,4(C1 H3 O3 S1 1-),2(C2 H3 N1),2(H2 O1)'
_chemical_name_systematic        
'5,10,15,20-tetrakis(Piperidinium-4-yl)-5,10,15,20-tetramethylcalix(4)pyrrole tetrakis(methanesulfonate) acetonitrile solvate dihydrate'
_symmetry_cell_setting           triclinic
_symmetry_space_group_name_H-M   'P -1'
_symmetry_Int_Tables_number      2
_space_group_name_Hall           '-P 1'
loop_
_symmetry_equiv_pos_site_id
_symmetry_equiv_pos_as_xyz
1 x,y,z
2 -x,-y,-z
_cell_length_a                   10.921(10)
_cell_length_b                   16.393(15)
_cell_length_c                   18.378(17)
_cell_angle_alpha                81.386(16)
_cell_angle_beta                 79.686(15)
_cell_angle_gamma                70.994(15)
_cell_volume                     3045.71
_exptl_crystal_colour            colorless
_exptl_crystal_description       block
_cell_formula_units_Z            2
loop_
_atom_site_label
_atom_site_type_symbol
_atom_site_fract_x
_atom_site_fract_y
_atom_site_fract_z
N1 N 0.3313(4) 0.2672(3) 0.7283(2)
H1 H 0.4081 0.2712 0.7116
N2 N 0.5664(4) 0.2014(3) 0.8354(2)
H2 H 0.5875 0.2286 0.7937
N3 N 0.7457(4) 0.0621(3) 0.7235(2)
H3 H 0.6721 0.0543 0.7430
N4 N 0.5284(4) 0.1288(3) 0.6136(2)
H4 H 0.5605 0.1681 0.6202
N5 N 0.3928(7) 0.5551(4) 0.8164(4)
H5 H 0.3320 0.5763 0.8546
H6 H 0.4265 0.5975 0.7946
N6 N 1.0127(5) -0.1698(3) 0.9081(3)
H7 H 1.0414 -0.1823 0.8608
H8 H 1.0454 -0.2178 0.9382
N7 N 0.9484(5) -0.2559(3) 0.6743(3)
H9 H 0.9918 -0.2396 0.7039
H10 H 0.9727 -0.3142 0.6789
N8 N 0.3534(5) 0.4425(4) 0.4495(3)
H11 H 0.3867 0.4846 0.4262
H12 H 0.2879 0.4429 0.4258
C1 C 0.2529(5) 0.2486(3) 0.6876(3)
C2 C 0.1418(5) 0.2484(4) 0.7330(3)
H13 H 0.0703 0.2376 0.7202
C3 C 0.1523(5) 0.2674(4) 0.8033(4)
H14 H 0.0892 0.2715 0.8450
C4 C 0.2711(5) 0.2787(3) 0.7994(3)
C5 C 0.3344(5) 0.3017(3) 0.8562(3)
C6 C 0.3825(6) 0.3801(3) 0.8252(3)
H15 H 0.4492 0.3620 0.7824
C7 C 0.2756(6) 0.4577(4) 0.7961(4)
H16 H 0.2386 0.4405 0.7589
H17 H 0.2063 0.4773 0.8366
C8 C 0.3295(8) 0.5311(4) 0.7624(4)
H18 H 0.3925 0.5135 0.7188
H19 H 0.2590 0.5809 0.7469
C9 C 0.4983(8) 0.4818(5) 0.8458(5)
H20 H 0.5325 0.5005 0.8833
H21 H 0.5691 0.4627 0.8059
C10 C 0.4476(6) 0.4083(4) 0.8788(4)
H22 H 0.3849 0.4255 0.9226
H23 H 0.5194 0.3595 0.8944
C11 C 0.2340(6) 0.3226(4) 0.9259(3)
H24 H 0.1640 0.3739 0.9146
H25 H 0.2754 0.3322 0.9644
H26 H 0.1998 0.2750 0.9425
C12 C 0.4465(5) 0.2242(3) 0.8776(3)
C13 C 0.4535(6) 0.1648(4) 0.9365(3)
H27 H 0.3854 0.1634 0.9747
C14 C 0.5788(6) 0.1053(4) 0.9317(3)
H28 H 0.6086 0.0579 0.9657
C15 C 0.6486(5) 0.1287(3) 0.8691(3)
C16 C 0.7923(5) 0.0996(3) 0.8417(3)
C17 C 0.8561(5) 0.0120(3) 0.8875(3)
H29 H 0.8284 0.0208 0.9402
C18 C 1.0031(6) -0.0167(4) 0.8749(4)
H30 H 1.0338 0.0284 0.8866
H31 H 1.0336 -0.0254 0.8228
C19 C 1.0599(6) -0.1000(4) 0.9222(4)
H32 H 1.1546 -0.1175 0.9114
H33 H 1.0357 -0.0900 0.9743
C20 C 0.8697(6) -0.1446(4) 0.9209(4)
H34 H 0.8389 -0.1356 0.9728
H35 H 0.8410 -0.1908 0.9095
C21 C 0.8122(6) -0.0624(3) 0.8730(3)
H36 H 0.7175 -0.0463 0.8828
H37 H 0.8385 -0.0728 0.8210
C22 C 0.8486(6) 0.1688(3) 0.8562(3)
H38 H 0.9406 0.1523 0.8384
H39 H 0.8349 0.1740 0.9086
H40 H 0.8057 0.2234 0.8306
C23 C 0.8213(5) 0.0883(3) 0.7606(3)
C24 C 0.9278(5) 0.0922(3) 0.7107(3)
H41 H 0.9976 0.1082 0.7198
C25 C 0.9146(5) 0.0680(3) 0.6437(3)
H42 H 0.9745 0.0650 0.6005
C26 C 0.8003(5) 0.0496(3) 0.6518(3)
C27 C 0.7448(5) 0.0132(3) 0.5999(3)
C28 C 0.7944(5) -0.0878(3) 0.6100(3)
H43 H 0.7484 -0.1082 0.5789
C29 C 0.7635(6) -0.1250(4) 0.6889(3)
H44 H 0.8058 -0.1044 0.7212
H45 H 0.6698 -0.1037 0.7043
C30 C 0.8062(6) -0.2216(4) 0.6987(4)
H46 H 0.7862 -0.2415 0.7505
H47 H 0.7592 -0.2429 0.6696
C31 C 0.9837(6) -0.2243(4) 0.5966(4)
H48 H 0.9436 -0.2466 0.5643
H49 H 1.0778 -0.2458 0.5831
C32 C 0.9392(6) -0.1269(4) 0.5856(3)
H50 H 0.9595 -0.1084 0.5334
H51 H 0.9875 -0.1052 0.6135
C33 C 0.7885(6) 0.0452(4) 0.5200(3)
H52 H 0.7499 0.1068 0.5122
H53 H 0.7610 0.0176 0.4861
H54 H 0.8821 0.0311 0.5116
C34 C 0.5976(5) 0.0431(3) 0.6097(3)
C35 C 0.5129(6) 0.0028(4) 0.6001(3)
H55 H 0.5327 -0.0562 0.5961
C36 C 0.3917(6) 0.0639(4) 0.5970(3)
H56 H 0.3164 0.0529 0.5903
C37 C 0.3998(5) 0.1431(3) 0.6055(3)
C38 C 0.2966(5) 0.2294(3) 0.6085(3)
C39 C 0.3498(5) 0.3018(3) 0.5636(3)
H57 H 0.4221 0.3035 0.5875
C40 C 0.4034(6) 0.2873(4) 0.4834(3)
H58 H 0.4723 0.2322 0.4812
H59 H 0.3345 0.2845 0.4580
C41 C 0.4562(7) 0.3579(4) 0.4449(4)
H60 H 0.5294 0.3582 0.4679
H61 H 0.4875 0.3478 0.3933
C42 C 0.2481(6) 0.3906(4) 0.5663(4)
H62 H 0.1736 0.3908 0.5444
H63 H 0.2180 0.4024 0.6177
C43 C 0.3020(7) 0.4608(4) 0.5255(4)
H64 H 0.2334 0.5161 0.5261
H65 H 0.3710 0.4648 0.5502
C44 C 0.1797(6) 0.2244(4) 0.5767(4)
H66 H 0.1421 0.1839 0.6082
H67 H 0.2079 0.2055 0.5277
H68 H 0.1154 0.2806 0.5741
S1 S 0.0917(2) 0.46182(14) 0.34695(19)
O1 O 0.2099(6) 0.3987(4) 0.3512(4)
O2 O 0.0794(7) 0.5176(5) 0.4106(4)
O3 O -0.0168(6) 0.4299(4) 0.3514(4)
C45 C 0.0868(12) 0.5343(8) 0.2744(6)
H69 H 0.1494 0.5639 0.2748
H70 H 0.0007 0.5754 0.2762
H71 H 0.1074 0.5059 0.2297
S2 S 0.34336(15) 0.66369(10) 0.35243(10)
O4 O 0.4023(4) 0.7308(3) 0.3326(2)
O5 O 0.3080(7) 0.6449(5) 0.2840(4)
O6 O 0.4235(5) 0.5874(3) 0.3872(3)
C46 C 0.1981(8) 0.7004(5) 0.4049(5)
H72 H 0.1589 0.6547 0.4182
H73 H 0.1419 0.7480 0.3773
H74 H 0.2102 0.7197 0.4491
S3 S 0.77105(18) 0.20846(11) 0.27381(11)
O7 O 0.6975(7) 0.2471(5) 0.2164(5)
O8 O 0.7409(7) 0.2587(5) 0.3345(4)
O9 O 0.9094(5) 0.1843(3) 0.2491(3)
C47 C 0.7384(10) 0.1135(6) 0.3084(6)
H75 H 0.6547 0.1261 0.3390
H76 H 0.8048 0.0782 0.3376
H77 H 0.7373 0.0828 0.2680
S4 S 0.1769(2) 0.61483(11) -0.00596(11)
O10 O 0.3125(8) 0.5960(5) -0.0165(5)
O11 O 0.1525(10) 0.6002(7) -0.0717(5)
O12 O 0.1014(6) 0.6982(3) 0.0140(3)
C48 C 0.1465(13) 0.5410(8) 0.0642(8)
H78 H 0.2197 0.4890 0.0631
H79 H 0.0696 0.5279 0.0582
H80 H 0.1330 0.5644 0.1109
N9 N 0.432(2) 0.1670(14) 0.1469(11)
C49 C 0.473(2) 0.2252(17) 0.1093(14)
C50 C 0.5618(12) 0.2543(8) 0.0665(7)
H81 H 0.6212 0.2612 0.0961
H82 H 0.5203 0.3093 0.0410
H83 H 0.6093 0.2139 0.0308
N10 N 0.2541(9) 0.0235(6) 0.9180(5)
C51 C 0.4029(8) 0.0497(5) 0.8001(4)
H84 H 0.3505 0.0783 0.7615
H85 H 0.4634 -0.0041 0.7847
H86 H 0.4504 0.0861 0.8095
C52 C 0.3219(8) 0.0333(6) 0.8649(5)
O13 O 0.4315(7) 0.3529(5) 0.2440(5)
H87 H 0.4897 0.3047 0.2498
H88 H 0.3618 0.3454 0.2641
O14 O 0.0429(9) 0.3424(5) 0.1634(5)
H89 H -0.0247 0.3445 0.1486
H90 H 0.0985 0.3414 0.1268
loop_
_geom_bond_atom_site_label_1
_geom_bond_atom_site_label_2
_geom_bond_site_symmetry_1
_geom_bond_site_symmetry_2
N1 H1 1_555 1_555
N2 H2 1_555 1_555
N3 H3 1_555 1_555
N4 H4 1_555 1_555
N5 H5 1_555 1_555
H6 N5 1_555 1_555
N6 H7 1_555 1_555
H8 N6 1_555 1_555
N7 H9 1_555 1_555
H10 N7 1_555 1_555
N8 H11 1_555 1_555
H12 N8 1_555 1_555
C1 N1 1_555 1_555
C2 C1 1_555 1_555
H13 C2 1_555 1_555
C3 C2 1_555 1_555
H14 C3 1_555 1_555
C4 N1 1_555 1_555
C5 C4 1_555 1_555
C6 C5 1_555 1_555
H15 C6 1_555 1_555
C7 C6 1_555 1_555
H16 C7 1_555 1_555
H17 C7 1_555 1_555
C8 N5 1_555 1_555
H18 C8 1_555 1_555
H19 C8 1_555 1_555
C9 N5 1_555 1_555
H20 C9 1_555 1_555
H21 C9 1_555 1_555
C10 C6 1_555 1_555
H22 C10 1_555 1_555
H23 C10 1_555 1_555
C11 C5 1_555 1_555
H24 C11 1_555 1_555
H25 C11 1_555 1_555
H26 C11 1_555 1_555
C12 N2 1_555 1_555
C13 C12 1_555 1_555
H27 C13 1_555 1_555
C14 C13 1_555 1_555
H28 C14 1_555 1_555
C15 N2 1_555 1_555
C16 C15 1_555 1_555
C17 C16 1_555 1_555
H29 C17 1_555 1_555
C18 C17 1_555 1_555
H30 C18 1_555 1_555
H31 C18 1_555 1_555
C19 N6 1_555 1_555
H32 C19 1_555 1_555
H33 C19 1_555 1_555
C20 N6 1_555 1_555
H34 C20 1_555 1_555
H35 C20 1_555 1_555
C21 C17 1_555 1_555
H36 C21 1_555 1_555
H37 C21 1_555 1_555
C22 C16 1_555 1_555
H38 C22 1_555 1_555
H39 C22 1_555 1_555
H40 C22 1_555 1_555
C23 N3 1_555 1_555
C24 C23 1_555 1_555
H41 C24 1_555 1_555
C25 C24 1_555 1_555
H42 C25 1_555 1_555
C26 N3 1_555 1_555
C27 C26 1_555 1_555
C28 C27 1_555 1_555
H43 C28 1_555 1_555
C29 C28 1_555 1_555
H44 C29 1_555 1_555
H45 C29 1_555 1_555
C30 N7 1_555 1_555
H46 C30 1_555 1_555
H47 C30 1_555 1_555
C31 N7 1_555 1_555
H48 C31 1_555 1_555
H49 C31 1_555 1_555
C32 C28 1_555 1_555
H50 C32 1_555 1_555
H51 C32 1_555 1_555
C33 C27 1_555 1_555
H52 C33 1_555 1_555
H53 C33 1_555 1_555
H54 C33 1_555 1_555
C34 N4 1_555 1_555
C35 C34 1_555 1_555
H55 C35 1_555 1_555
C36 C35 1_555 1_555
H56 C36 1_555 1_555
C37 N4 1_555 1_555
C38 C1 1_555 1_555
C39 C38 1_555 1_555
H57 C39 1_555 1_555
C40 C39 1_555 1_555
H58 C40 1_555 1_555
H59 C40 1_555 1_555
C41 N8 1_555 1_555
H60 C41 1_555 1_555
H61 C41 1_555 1_555
C42 C39 1_555 1_555
H62 C42 1_555 1_555
H63 C42 1_555 1_555
C43 N8 1_555 1_555
H64 C43 1_555 1_555
H65 C43 1_555 1_555
C44 C38 1_555 1_555
H66 C44 1_555 1_555
H67 C44 1_555 1_555
H68 C44 1_555 1_555
S1 O1 1_555 1_555
O2 S1 1_555 1_555
O3 S1 1_555 1_555
C45 S1 1_555 1_555
H69 C45 1_555 1_555
H70 C45 1_555 1_555
H71 C45 1_555 1_555
S2 O4 1_555 1_555
O5 S2 1_555 1_555
O6 S2 1_555 1_555
C46 S2 1_555 1_555
H72 C46 1_555 1_555
H73 C46 1_555 1_555
H74 C46 1_555 1_555
S3 O7 1_555 1_555
O8 S3 1_555 1_555
O9 S3 1_555 1_555
C47 S3 1_555 1_555
H75 C47 1_555 1_555
H76 C47 1_555 1_555
H77 C47 1_555 1_555
S4 O10 1_555 1_555
O11 S4 1_555 1_555
O12 S4 1_555 1_555
C48 S4 1_555 1_555
H78 C48 1_555 1_555
H79 C48 1_555 1_555
H80 C48 1_555 1_555
N9 C49 1_555 1_555
C49 C50 1_555 1_555
C50 H81 1_555 1_555
H82 C50 1_555 1_555
H83 C50 1_555 1_555
N10 C52 1_555 1_555
C51 H84 1_555 1_555
H85 C51 1_555 1_555
H86 C51 1_555 1_555
C52 C51 1_555 1_555
O13 H87 1_555 1_555
H88 O13 1_555 1_555
O14 H89 1_555 1_555
H90 O14 1_555 1_555
C3 C4 1_555 1_555
C5 C12 1_555 1_555
C7 C8 1_555 1_555
C9 C10 1_555 1_555
C14 C15 1_555 1_555
C16 C23 1_555 1_555
C18 C19 1_555 1_555
C20 C21 1_555 1_555
C25 C26 1_555 1_555
C27 C34 1_555 1_555
C29 C30 1_555 1_555
C31 C32 1_555 1_555
C36 C37 1_555 1_555
C37 C38 1_555 1_555
C40 C41 1_555 1_555
C42 C43 1_555 1_555

#END
