
#######################################################################
#
#                 Cambridge Crystallographic Data Centre
#                                CCDC 
#
#######################################################################
#
# If this CIF has been generated from an entry in the Cambridge 
# Structural Database, then it will include bibliographic, chemical, 
# crystal, experimental, refinement or atomic coordinate data resulting 
# from the CCDC's data processing and validation procedures.
#
#######################################################################

data_QOVJOB
_chemical_formula_moiety         'C66 H72 N6 S6,C3 H7 N1 O1'
_chemical_name_systematic        
'2,23,25,46,65,66-Hexaethyl-12,13,35,36,55,56-hexathia-5,20,28,43,48,63-hexaazadecacyclo[22.22.18.1^3,45^.1^22,26^.0^6,11^.0^14,19^.0^29,34^.0^37,42^.0^49,54^.0^57,62^]hexahexaconta-1,3(65),6,8,10,14,16,18,22(66),23,25,29,31,33,37,39,41,45,49,51,53,57,59,61-tetracosaene dimethylformamide clathrate'
_symmetry_cell_setting           rhombohedral
_symmetry_space_group_name_H-M   'R -3 c'
_symmetry_Int_Tables_number      167
_space_group_name_Hall           '-R 3 2"c'
loop_
_symmetry_equiv_pos_site_id
_symmetry_equiv_pos_as_xyz
1 x,y,z
2 -y,x-y,z
3 -x+y,-x,z
4 y,x,1/2-z
5 x-y,-y,1/2-z
6 -x,-x+y,1/2-z
7 2/3+x,1/3+y,1/3+z
8 2/3-y,1/3+x-y,1/3+z
9 2/3-x+y,1/3-x,1/3+z
10 2/3+y,1/3+x,5/6-z
11 2/3+x-y,1/3-y,5/6-z
12 2/3-x,1/3-x+y,5/6-z
13 1/3+x,2/3+y,2/3+z
14 1/3-y,2/3+x-y,2/3+z
15 1/3-x+y,2/3-x,2/3+z
16 1/3+y,2/3+x,1/6-z
17 1/3+x-y,2/3-y,1/6-z
18 1/3-x,2/3-x+y,1/6-z
19 -x,-y,-z
20 y,-x+y,-z
21 x-y,x,-z
22 -y,-x,1/2+z
23 -x+y,y,1/2+z
24 x,x-y,1/2+z
25 1/3-x,2/3-y,2/3-z
26 1/3+y,2/3-x+y,2/3-z
27 1/3+x-y,2/3+x,2/3-z
28 1/3-y,2/3-x,1/6+z
29 1/3-x+y,2/3+y,1/6+z
30 1/3+x,2/3+x-y,1/6+z
31 2/3-x,1/3-y,1/3-z
32 2/3+y,1/3-x+y,1/3-z
33 2/3+x-y,1/3+x,1/3-z
34 2/3-y,1/3-x,5/6+z
35 2/3-x+y,1/3+y,5/6+z
36 2/3+x,1/3+x-y,5/6+z
_cell_length_a                   17.2686(2)
_cell_length_b                   17.2686(2)
_cell_length_c                   50.3116(13)
_cell_angle_alpha                90
_cell_angle_beta                 90
_cell_angle_gamma                120
_cell_volume                     12993.1
_exptl_crystal_colour            'pale yellow'
_exptl_crystal_description       prism
_cell_formula_units_Z            6
loop_
_atom_site_label
_atom_site_type_symbol
_atom_site_fract_x
_atom_site_fract_y
_atom_site_fract_z
C12 C 0.6667 0.3564(4) 0.0833
C13 C 0.6783(10) 0.4680(15) 0.1123(3)
H12 H 0.6779 0.5245 0.1116
H13 H 0.7352 0.4784 0.1197
H14 H 0.6289 0.4252 0.1235
N2 N 0.6667 0.4290(13) 0.0833
O1 O 0.6667 0.3333 0.05827(13)
C12A C 0.6436(4) 0.3103(4) 0.0833
C12B C 0.6897(4) 0.3333 0.0833
C13Q C 0.6550(10) 0.4564(18) 0.0544(3)
C13B C 0.7897(18) 0.3217(10) 0.1123(3)
C13O C 0.8013(15) 0.3450(10) 0.0544(3)
C13A C 0.5320(15) 0.2103(18) 0.1123(3)
C13P C 0.5436(18) 0.1987(15) 0.0544(3)
H12Q H 0.6554 0.5133 0.0551
H12B H 0.8466 0.3221 0.1116
H12O H 0.8578 0.3446 0.0551
H12A H 0.4755 0.1534 0.1116
H12P H 0.4867 0.1422 0.0551
H13Q H 0.5981 0.4099 0.0470
H13B H 0.7432 0.2648 0.1197
H13O H 0.8117 0.4019 0.0470
H13A H 0.5216 0.2568 0.1197
H13P H 0.5901 0.1883 0.0470
H14Q H 0.7044 0.4630 0.0432
H14B H 0.7963 0.3711 0.1235
H14O H 0.7585 0.2956 0.0432
H14A H 0.5748 0.2037 0.1235
H14P H 0.5370 0.2415 0.0432
N2B N 0.7623(13) 0.3333 0.0833
N2A N 0.5710(13) 0.2377(13) 0.0833
O1P O 0.6667 0.3334 0.10840(13)
C1 C 1.0011(2) 0.5953(3) 0.11543(7)
C2 C 1.0853(3) 0.6665(4) 0.11028(9)
H1 H 1.1048 0.6817 0.0924
C3 C 1.1416(3) 0.7159(4) 0.13087(11)
H2 H 1.1997 0.7646 0.1274
C4 C 1.1116(2) 0.6929(4) 0.15628(9)
H3 H 1.1495 0.7269 0.1705
C5 C 1.0286(2) 0.6224(3) 0.16195(7)
H4 H 1.0104 0.6078 0.1800
C6 C 0.97030(19) 0.57161(26) 0.14147(6)
C7 C 0.85218(19) 0.47562(28) 0.17371(5)
H5 H 0.8571 0.5277 0.1835
H6 H 0.8888 0.4549 0.1831
C8 C 0.75610(17) 0.40174(24) 0.17336(4)
C9 C 0.68777(17) 0.42344(24) 0.17314(5)
C10 C 0.7107(2) 0.52016(28) 0.17253(6)
H7 H 0.6635 0.5250 0.1628
H8 H 0.7678 0.5561 0.1629
C11 C 0.7195(3) 0.5581(4) 0.20027(7)
H9 H 0.7337 0.6205 0.1991
H10 H 0.7675 0.5552 0.2098
H11 H 0.6630 0.5231 0.2099
N1 N 0.88639(16) 0.50298(23) 0.14659(5)
H15 H 0.8513 0.4740 0.1331
S1 S 0.93165(8) 0.53215(12) 0.088597(19)
C1O C 0.9286(3) 0.6678(2) 0.05124(7)
C1P C 0.7391(4) 0.0714(3) 0.05124(7)
C1B C 0.5942(4) -0.0011(2) 0.11543(7)
C1A C 0.4047(3) 0.4058(4) 0.11543(7)
C1Q C 0.3322(2) 0.2609(4) 0.05124(7)
C2O C 0.9998(4) 0.7520(3) 0.05639(9)
C2P C 0.7521(5) 0.0002(4) 0.05639(9)
C2B C 0.5812(5) -0.0853(3) 0.11028(9)
C2A C 0.3335(4) 0.4188(5) 0.11028(9)
C2Q C 0.2480(3) 0.2479(5) 0.05639(9)
H1O H 1.0150 0.7715 0.0743
H1P H 0.7564 -0.0150 0.0743
H1B H 0.5769 -0.1048 0.0924
H1A H 0.3183 0.4231 0.0924
H1Q H 0.2285 0.2436 0.0743
C3O C 1.0492(4) 0.8083(3) 0.03580(11)
C3P C 0.7590(5) -0.0492(4) 0.03580(11)
C3B C 0.5743(5) -0.1416(3) 0.13087(11)
C3A C 0.2841(4) 0.4257(5) 0.13087(11)
C3Q C 0.1917(3) 0.2410(5) 0.03580(11)
H2O H 1.0979 0.8664 0.0393
H2P H 0.7684 -0.0979 0.0393
H2B H 0.5649 -0.1997 0.1274
H2A H 0.2354 0.4351 0.1274
H2Q H 0.1336 0.2316 0.0393
C4O C 1.0262(4) 0.7783(2) 0.01039(9)
C4P C 0.7520(4) -0.0262(4) 0.01039(9)
C4B C 0.5813(4) -0.1116(2) 0.15628(9)
C4A C 0.3071(4) 0.4187(4) 0.15628(9)
C4Q C 0.2217(2) 0.2480(4) 0.01039(9)
H3O H 1.0602 0.8162 -0.0038
H3P H 0.7559 -0.0602 -0.0038
H3B H 0.5774 -0.1495 0.1705
H3A H 0.2731 0.4226 0.1705
H3Q H 0.1838 0.2441 -0.0038
C5O C 0.9557(3) 0.6953(2) 0.00472(7)
C5P C 0.7395(4) 0.0443(3) 0.00472(7)
C5B C 0.5938(4) -0.0286(2) 0.16195(7)
C5A C 0.3776(3) 0.4062(4) 0.16195(7)
C5Q C 0.3047(2) 0.2605(4) 0.00472(7)
H4O H 0.9411 0.6771 -0.0133
H4P H 0.7359 0.0589 -0.0133
H4B H 0.5974 -0.0104 0.1800
H4A H 0.3922 0.4026 0.1800
H4Q H 0.3229 0.2641 -0.0133
C6O C 0.90494(26) 0.63697(19) 0.02520(6)
C6P C 0.73202(32) 0.09506(26) 0.02520(6)
C6B C 0.60131(32) 0.02970(19) 0.14147(6)
C6A C 0.42839(26) 0.39869(32) 0.14147(6)
C6Q C 0.36303(19) 0.26798(32) 0.02520(6)
C7O C 0.80895(28) 0.51885(19) -0.00704(5)
C7P C 0.70989(34) 0.19105(28) -0.00704(5)
C7B C 0.62344(34) 0.14782(19) 0.17371(5)
C7A C 0.52438(28) 0.37656(34) 0.17371(5)
C7Q C 0.48115(19) 0.29011(34) -0.00704(5)
H5O H 0.8610 0.5238 -0.0168
H5P H 0.6627 0.1390 -0.0168
H5B H 0.6706 0.1429 0.1835
H5A H 0.4723 0.3294 0.1835
H5Q H 0.4762 0.3373 -0.0168
H6O H 0.7882 0.5555 -0.0164
H6P H 0.7672 0.2118 -0.0164
H6B H 0.5661 0.1112 0.1831
H6A H 0.5451 0.4339 0.1831
H6Q H 0.4445 0.2328 -0.0164
C8O C 0.73507(24) 0.42277(17) -0.00669(4)
C8P C 0.68769(29) 0.26493(24) -0.00669(4)
C8B C 0.64564(29) 0.24390(17) 0.17336(4)
C8A C 0.59826(24) 0.35436(29) 0.17336(4)
C8Q C 0.57723(17) 0.31231(29) -0.00669(4)
C9O C 0.75677(24) 0.35444(17) -0.00647(5)
C9B C 0.73567(29) 0.31223(17) 0.17314(5)
C9Q C 0.64556(17) 0.40234(29) -0.00647(5)
C9P C 0.59766(29) 0.24323(24) -0.00647(5)
C9A C 0.57656(24) 0.26433(29) 0.17314(5)
C10Q C 0.6226(2) 0.47613(34) -0.00586(6)
C10P C 0.52387(34) 0.14651(28) -0.00586(6)
C10A C 0.47984(28) 0.19054(34) 0.17253(6)
C10B C 0.80946(34) 0.2893(2) 0.17253(6)
C10O C 0.85349(28) 0.3774(2) -0.00586(6)
H7Q H 0.6698 0.5282 0.0039
H7P H 0.4718 0.1417 0.0039
H7A H 0.4750 0.1385 0.1628
H7B H 0.8615 0.3365 0.1628
H7O H 0.8583 0.3302 0.0039
H8Q H 0.5655 0.4550 0.0038
H8P H 0.5450 0.1106 0.0038
H8A H 0.4439 0.2117 0.1629
H8B H 0.7883 0.2322 0.1629
H8O H 0.8894 0.4345 0.0038
C11Q C 0.6138(3) 0.5053(5) -0.03360(7)
C11P C 0.4947(5) 0.1086(4) -0.03360(7)
C11A C 0.4419(4) 0.1614(5) 0.20027(7)
C11B C 0.8386(5) 0.2805(3) 0.20027(7)
C11O C 0.8914(4) 0.3862(3) -0.03360(7)
H9Q H 0.5996 0.5535 -0.0324
H9P H 0.4465 0.0462 -0.0324
H9A H 0.3795 0.1132 0.1991
H9B H 0.8868 0.2663 0.1991
H9O H 0.9538 0.4004 -0.0324
H10Q H 0.5658 0.4544 -0.0431
H10P H 0.5456 0.1115 -0.0431
H10A H 0.4448 0.2123 0.2098
H10B H 0.7877 0.2325 0.2098
H10O H 0.8885 0.4342 -0.0431
H11Q H 0.6703 0.5268 -0.0432
H11P H 0.4732 0.1436 -0.0432
H11A H 0.4769 0.1399 0.2099
H11B H 0.8601 0.3370 0.2099
H11O H 0.8564 0.3297 -0.0432
N1O N 0.83631(23) 0.55306(16) 0.02008(5)
N1P N 0.71674(28) 0.16369(23) 0.02008(5)
N1B N 0.61659(28) 0.11361(16) 0.14659(5)
N1A N 0.49702(23) 0.38341(28) 0.14659(5)
N1Q N 0.44694(16) 0.28326(28) 0.02008(5)
H15Q H 0.4820 0.2894 0.0336
H15A H 0.5260 0.3773 0.1331
H15B H 0.6227 0.1487 0.1331
H15P H 0.7106 0.1927 0.0336
H15O H 0.8073 0.5180 0.0336
S1O S 0.86548(12) 0.59832(8) 0.078070(19)
S1P S 0.73283(14) 0.13452(12) 0.078070(19)
S1B S 0.60050(14) 0.06835(8) 0.088597(19)
S1A S 0.46785(12) 0.39950(14) 0.088597(19)
S1Q S 0.40168(8) 0.26717(14) 0.078070(19)
loop_
_geom_bond_atom_site_label_1
_geom_bond_atom_site_label_2
_geom_bond_site_symmetry_1
_geom_bond_site_symmetry_2
C1 C2 1_555 1_555
C2 H1 1_555 1_555
C3 C2 1_555 1_555
H2 C3 1_555 1_555
C4 C3 1_555 1_555
H3 C4 1_555 1_555
C5 C4 1_555 1_555
H4 C5 1_555 1_555
C6 C1 1_555 1_555
C7 H5 1_555 1_555
H6 C7 1_555 1_555
C8 C7 1_555 1_555
C9 C8 1_555 1_555
C10 C9 1_555 1_555
H7 C10 1_555 1_555
H8 C10 1_555 1_555
C11 C10 1_555 1_555
H9 C11 1_555 1_555
H10 C11 1_555 1_555
H11 C11 1_555 1_555
C12 N2 1_555 1_555
C13 H12 1_555 1_555
H13 C13 1_555 1_555
H14 C13 1_555 1_555
N1 C6 1_555 1_555
H15 N1 1_555 1_555
N2 C13 1_555 1_555
O1 C12 1_555 1_555
S1 C1 1_555 1_555
C1O C2O 1_555 1_555
C1P C2P 1_555 1_555
C1B C2B 1_555 1_555
C1A C2A 1_555 1_555
C1Q C2Q 1_555 1_555
C2O H1O 1_555 1_555
C2P H1P 1_555 1_555
C2B H1B 1_555 1_555
C2A H1A 1_555 1_555
C2Q H1Q 1_555 1_555
C3O C2O 1_555 1_555
C3P C2P 1_555 1_555
C3B C2B 1_555 1_555
C3A C2A 1_555 1_555
C3Q C2Q 1_555 1_555
H2O C3O 1_555 1_555
H2P C3P 1_555 1_555
H2B C3B 1_555 1_555
H2A C3A 1_555 1_555
H2Q C3Q 1_555 1_555
C4O C3O 1_555 1_555
C4P C3P 1_555 1_555
C4B C3B 1_555 1_555
C4A C3A 1_555 1_555
C4Q C3Q 1_555 1_555
H3O C4O 1_555 1_555
H3P C4P 1_555 1_555
H3B C4B 1_555 1_555
H3A C4A 1_555 1_555
H3Q C4Q 1_555 1_555
C5O C4O 1_555 1_555
C5P C4P 1_555 1_555
C5B C4B 1_555 1_555
C5A C4A 1_555 1_555
C5Q C4Q 1_555 1_555
H4O C5O 1_555 1_555
H4P C5P 1_555 1_555
H4B C5B 1_555 1_555
H4A C5A 1_555 1_555
H4Q C5Q 1_555 1_555
C6O C1O 1_555 1_555
C6P C1P 1_555 1_555
C6B C1B 1_555 1_555
C6A C1A 1_555 1_555
C6Q C1Q 1_555 1_555
C7O H5O 1_555 1_555
C7P H5P 1_555 1_555
C7B H5B 1_555 1_555
C7A H5A 1_555 1_555
C7Q H5Q 1_555 1_555
H6O C7O 1_555 1_555
H6P C7P 1_555 1_555
H6B C7B 1_555 1_555
H6A C7A 1_555 1_555
H6Q C7Q 1_555 1_555
C8O C7O 1_555 1_555
C8P C7P 1_555 1_555
C8B C7B 1_555 1_555
C8A C9 1_555 1_555
C8Q C7Q 1_555 1_555
C9O C8O 1_555 1_555
C9B C8 1_555 1_555
C9Q C8O 1_555 1_555
C9P C8P 1_555 1_555
C9A C8B 1_555 1_555
C10Q C9Q 1_555 1_555
C10P C9P 1_555 1_555
C10A C9A 1_555 1_555
C10B C9B 1_555 1_555
C10O C9O 1_555 1_555
H7Q C10Q 1_555 1_555
H7P C10P 1_555 1_555
H7A C10A 1_555 1_555
H7B C10B 1_555 1_555
H7O C10O 1_555 1_555
H8Q C10Q 1_555 1_555
H8P C10P 1_555 1_555
H8A C10A 1_555 1_555
H8B C10B 1_555 1_555
H8O C10O 1_555 1_555
C11Q C10Q 1_555 1_555
C11P C10P 1_555 1_555
C11A C10A 1_555 1_555
C11B C10B 1_555 1_555
C11O C10O 1_555 1_555
H9Q C11Q 1_555 1_555
H9P C11P 1_555 1_555
H9A C11A 1_555 1_555
H9B C11B 1_555 1_555
H9O C11O 1_555 1_555
H10Q C11Q 1_555 1_555
H10P C11P 1_555 1_555
H10A C11A 1_555 1_555
H10B C11B 1_555 1_555
H10O C11O 1_555 1_555
H11Q C11Q 1_555 1_555
H11P C11P 1_555 1_555
H11A C11A 1_555 1_555
H11B C11B 1_555 1_555
H11O C11O 1_555 1_555
C12A C12 1_555 1_555
C12B C12 1_555 1_555
C13Q N2 1_555 1_555
C13B H12B 1_555 1_555
C13O H12O 1_555 1_555
C13A H12A 1_555 1_555
C13P H12P 1_555 1_555
H12Q C13Q 1_555 1_555
H13Q C13Q 1_555 1_555
H13B C13B 1_555 1_555
H13O C13O 1_555 1_555
H13A C13A 1_555 1_555
H13P C13P 1_555 1_555
H14Q C13Q 1_555 1_555
H14B C13B 1_555 1_555
H14O C13O 1_555 1_555
H14A C13A 1_555 1_555
H14P C13P 1_555 1_555
N1O C6O 1_555 1_555
N1P C6P 1_555 1_555
N1B C6B 1_555 1_555
N1A C6A 1_555 1_555
N1Q C6Q 1_555 1_555
H15Q N1Q 1_555 1_555
H15A N1A 1_555 1_555
H15B N1B 1_555 1_555
H15P N1P 1_555 1_555
H15O N1O 1_555 1_555
N2B C12B 1_555 1_555
N2A C12A 1_555 1_555
O1P C12 1_555 1_555
S1O S1 1_555 1_555
S1P C1P 1_555 1_555
S1B C1B 1_555 1_555
S1A C1A 1_555 1_555
S1Q C1Q 1_555 1_555
C5 C6 1_555 1_555
C7 N1 1_555 1_555
O1 C12A 1_555 1_555
O1 C12B 1_555 1_555
C1O S1O 1_555 1_555
C5O C6O 1_555 1_555
C5P C6P 1_555 1_555
C5B C6B 1_555 1_555
C5A C6A 1_555 1_555
C5Q C6Q 1_555 1_555
C7O N1O 1_555 1_555
C7P N1P 1_555 1_555
C7B N1B 1_555 1_555
C7A C8A 1_555 1_555
C7A N1A 1_555 1_555
C7Q N1Q 1_555 1_555
C8P C9O 1_555 1_555
C8B C9B 1_555 1_555
C8A C9A 1_555 1_555
C8Q C9Q 1_555 1_555
C8Q C9P 1_555 1_555
C12A C12B 1_555 1_555
C12A O1P 1_555 1_555
C12B O1P 1_555 1_555
C13B N2B 1_555 1_555
C13O N2B 1_555 1_555
C13A N2A 1_555 1_555
C13P N2A 1_555 1_555
S1P S1B 1_555 1_555
S1A S1Q 1_555 1_555

#END
