
#######################################################################
#
#                 Cambridge Crystallographic Data Centre
#                                CCDC 
#
#######################################################################
#
# If this CIF has been generated from an entry in the Cambridge 
# Structural Database, then it will include bibliographic, chemical, 
# crystal, experimental, refinement or atomic coordinate data resulting 
# from the CCDC's data processing and validation procedures.
#
#######################################################################

data_QOVYIK
_chemical_formula_moiety         'C18 H10 F7 N3 O4 S1'
_chemical_name_systematic        
4-Fluoro-N-(4-fluoro-2-nitrophenyl)-2-nitro-N-(4-(pentafluoro-\l^6^-sulfanyl)phenyl)aniline
_symmetry_cell_setting           monoclinic
_symmetry_space_group_name_H-M   'C 2/c'
_symmetry_Int_Tables_number      15
_space_group_name_Hall           '-C 2yn'
loop_
_symmetry_equiv_pos_site_id
_symmetry_equiv_pos_as_xyz
1 x,y,z
2 1/2+x,1/2+y,z
3 -x,y,1/2-z
4 1/2-x,1/2+y,1/2-z
5 -x,-y,-z
6 1/2-x,1/2-y,-z
7 x,-y,1/2+z
8 1/2+x,1/2-y,1/2+z
_cell_length_a                   12.8804(6)
_cell_length_b                   15.7370(8)
_cell_length_c                   11.1786(5)
_cell_angle_alpha                90
_cell_angle_beta                 123.574(3)
_cell_angle_gamma                90
_cell_volume                     1887.88
_exptl_crystal_colour            yellow
_exptl_crystal_description       cube
_chemical_melting_point          186deg.C
_cell_formula_units_Z            4
loop_
_atom_site_label
_atom_site_type_symbol
_atom_site_fract_x
_atom_site_fract_y
_atom_site_fract_z
S1 S 0.5000 0.34726(6) 0.7500
F1 F 0.12016(17) -0.19884(13) 0.26692(17)
F2 F 0.64545(15) 0.35166(11) 0.8537(2)
F3 F 0.4882(2) 0.35095(11) 0.8829(2)
F4 F 0.5000 0.44729(14) 0.7500
O1 O 0.1485(2) 0.02524(16) 0.6019(2)
O2 O 0.30665(18) -0.02387(15) 0.79887(18)
N1 N 0.24120(19) -0.01836(14) 0.6679(2)
N2 N 0.5000 -0.03339(18) 0.7500
C1 C 0.4014(2) -0.07992(15) 0.6334(2)
C2 C 0.2761(2) -0.07002(15) 0.5852(2)
C3 C 0.1798(2) -0.10767(18) 0.4614(3)
C4 C 0.2118(2) -0.16039(17) 0.3887(3)
C5 C 0.3336(3) -0.17583(18) 0.4344(3)
C6 C 0.4273(3) -0.13486(17) 0.5551(3)
C7 C 0.5000 0.0557(2) 0.7500
C8 C 0.5806(2) 0.10100(16) 0.8760(2)
C9 C 0.5808(2) 0.18871(16) 0.8761(2)
C10 C 0.5000 0.2332(2) 0.7500
H1 H 0.630(2) 0.0699(16) 0.963(3)
H2 H 0.640(3) 0.2196(17) 0.965(3)
H3 H 0.505(3) -0.1412(18) 0.580(3)
H4 H 0.352(3) -0.211(2) 0.386(3)
H5 H 0.098(3) -0.102(2) 0.427(3)
F1B F 0.87984(17) -0.19884(13) 1.23308(17)
F2B F 0.35455(15) 0.35166(11) 0.6463(2)
F3B F 0.5118(2) 0.35095(11) 0.6171(2)
O1B O 0.8515(2) 0.02524(16) 0.8981(2)
O2B O 0.69335(18) -0.02387(15) 0.70113(18)
N1B N 0.75880(19) -0.01836(14) 0.8321(2)
C1B C 0.5986(2) -0.07992(15) 0.8666(2)
C2B C 0.7239(2) -0.07002(15) 0.9148(2)
C3B C 0.8202(2) -0.10767(18) 1.0386(3)
C4B C 0.7882(2) -0.16039(17) 1.1113(3)
C5B C 0.6664(3) -0.17583(18) 1.0656(3)
C6B C 0.5727(3) -0.13486(17) 0.9449(3)
C8B C 0.4194(2) 0.10100(16) 0.6240(2)
C9B C 0.4192(2) 0.18871(16) 0.6239(2)
H1B H 0.370(2) 0.0699(16) 0.537(3)
H2B H 0.360(3) 0.2196(17) 0.535(3)
H3B H 0.495(3) -0.1412(18) 0.920(3)
H4B H 0.648(3) -0.211(2) 1.114(3)
H5B H 0.902(3) -0.102(2) 1.073(3)
loop_
_geom_bond_atom_site_label_1
_geom_bond_atom_site_label_2
_geom_bond_site_symmetry_1
_geom_bond_site_symmetry_2
S1 F2 1_555 1_555
F1 C4 1_555 1_555
F3 S1 1_555 1_555
F4 S1 1_555 1_555
O1 N1 1_555 1_555
O2 N1 1_555 1_555
N1 C2 1_555 1_555
N2 C1 1_555 1_555
C1 C2 1_555 1_555
C2 C3 1_555 1_555
C3 C4 1_555 1_555
C4 C5 1_555 1_555
C5 C6 1_555 1_555
C6 C1 1_555 1_555
C7 N2 1_555 1_555
C8 C7 1_555 1_555
C9 C8 1_555 1_555
C10 S1 1_555 1_555
H1 C8 1_555 1_555
H2 C9 1_555 1_555
H3 C6 1_555 1_555
H4 C5 1_555 1_555
H5 C3 1_555 1_555
F1B C4B 1_555 1_555
F2B S1 1_555 1_555
F3B S1 1_555 1_555
O1B N1B 1_555 1_555
O2B N1B 1_555 1_555
N1B C2B 1_555 1_555
C1B N2 1_555 1_555
C2B C1B 1_555 1_555
C3B C2B 1_555 1_555
C4B C3B 1_555 1_555
C5B C4B 1_555 1_555
C6B C1B 1_555 1_555
C8B C7 1_555 1_555
C9B C10 1_555 1_555
H1B C8B 1_555 1_555
H2B C9B 1_555 1_555
H3B C6B 1_555 1_555
H4B C5B 1_555 1_555
H5B C3B 1_555 1_555
C9 C10 1_555 1_555
C5B C6B 1_555 1_555
C8B C9B 1_555 1_555

#END
