
#######################################################################
#
#                 Cambridge Crystallographic Data Centre
#                                CCDC 
#
#######################################################################
#
# If this CIF has been generated from an entry in the Cambridge 
# Structural Database, then it will include bibliographic, chemical, 
# crystal, experimental, refinement or atomic coordinate data resulting 
# from the CCDC's data processing and validation procedures.
#
#######################################################################

data_QOWTOL
_chemical_formula_moiety         '2(C1 H6 N3 1+),C10 H6 O6 S2 2-,2(C11 H10)'
_chemical_name_systematic        
'bis(Guanidinium) 2,6-naphthalenedisulfonate bis(1-methylnaphthalene) clathrate'
_symmetry_cell_setting           orthorhombic
_symmetry_space_group_name_H-M   'P b c a'
_symmetry_Int_Tables_number      61
_space_group_name_Hall           '-P 2ac 2ab'
loop_
_symmetry_equiv_pos_site_id
_symmetry_equiv_pos_as_xyz
1 x,y,z
2 1/2+x,y,1/2-z
3 1/2-x,1/2+y,z
4 x,1/2-y,1/2+z
5 -x,-y,-z
6 1/2-x,-y,1/2+z
7 1/2+x,1/2-y,-z
8 -x,1/2+y,1/2-z
_cell_length_a                   13.3756(3)
_cell_length_b                   12.4586(3)
_cell_length_c                   22.3040(5)
_cell_angle_alpha                90
_cell_angle_beta                 90
_cell_angle_gamma                90
_cell_volume                     3716.77
_exptl_crystal_colour            colorless
_exptl_crystal_description       prism
_cell_formula_units_Z            4
loop_
_atom_site_label
_atom_site_type_symbol
_atom_site_fract_x
_atom_site_fract_y
_atom_site_fract_z
S1 S 0.58860(5) 0.06848(6) 0.32129(3)
O1 O 0.68712(14) 0.01822(16) 0.32075(9)
C1 C 0.5387(2) 0.0499(2) 0.39347(13)
O2 O 0.51913(15) 0.01620(16) 0.28040(9)
C2 C 0.4423(2) 0.0924(3) 0.40547(15)
H5 H 0.4069 0.1303 0.3752
O3 O 0.59353(14) 0.18401(16) 0.31128(10)
C3 C 0.4010(2) 0.0784(2) 0.46091(15)
H8 H 0.3368 0.1075 0.4690
C4 C 0.45168(19) 0.0217(2) 0.50625(13)
C5 C 0.59055(19) -0.0052(2) 0.43657(14)
H9 H 0.6553 -0.0324 0.4279
C4D C 0.54832(19) -0.0217(2) 0.49375(13)
C3D C 0.5990(2) -0.0784(2) 0.53909(15)
C2D C 0.5577(2) -0.0924(3) 0.59453(15)
C1D C 0.4613(2) -0.0499(2) 0.60653(13)
S1D S 0.41140(5) -0.06848(6) 0.67871(3)
O1D O 0.31288(14) -0.01822(16) 0.67925(9)
O2D O 0.48087(15) -0.01620(16) 0.71960(9)
O3D O 0.40647(14) -0.18401(16) 0.68872(10)
C5D C 0.40945(19) 0.0052(2) 0.56343(14)
H9D H 0.3447 0.0324 0.5721
H5D H 0.5931 -0.1303 0.6248
H8D H 0.6632 -0.1075 0.5310
N1 N 0.55569(19) -0.2122(2) 0.26223(13)
H1 H 0.5073 -0.2477 0.2443
H2 H 0.5492 -0.1430 0.2692
N2 N 0.64705(19) -0.3665(2) 0.26797(13)
H3 H 0.5983 -0.4014 0.2500
H4 H 0.7017 -0.4008 0.2788
N3 N 0.71135(19) -0.2097(2) 0.30552(13)
H6 H 0.7662 -0.2436 0.3163
H7 H 0.7051 -0.1405 0.3126
C6 C 0.6382(2) -0.2627(2) 0.27869(14)
C7 C 0.1468(3) 0.0376(4) 0.40239(16)
C8 C 0.1380(3) 0.1337(5) 0.37115(19)
H10 H 0.1451 0.1345 0.3288
C9 C 0.1187(3) 0.2285(4) 0.4019(3)
H11 H 0.1126 0.2941 0.3806
C10 C 0.1082(3) 0.2272(3) 0.4639(3)
H12 H 0.0950 0.2919 0.4849
C11 C 0.1170(2) 0.1311(3) 0.4952(2)
C12 C 0.13632(17) 0.0363(3) 0.46439(16)
C13 C 0.1452(3) -0.0598(3) 0.4956(2)
H13 H 0.1583 -0.1246 0.4746
C14 C 0.1347(3) -0.0611(5) 0.5576(2)
H14 H 0.1407 -0.1267 0.5790
C15 C 0.1154(4) 0.0337(6) 0.58839(16)
H15 H 0.1083 0.0328 0.6308
C16 C 0.1066(3) 0.1298(5) 0.5572(2)
H16 H 0.0934 0.1946 0.5782
C17 C 0.1639(4) -0.0706(5) 0.3703(2)
H17 H 0.1004 -0.0966 0.3539
H18 H 0.1901 -0.1231 0.3990
H19 H 0.2120 -0.0608 0.3377
C18? C 0.1398(7) -0.0333(6) 0.5274(3)
C19? C 0.1184(9) 0.0299(7) 0.5772(3)
H20? H 0.1164 -0.0014 0.6160
C20? C 0.1001(9) 0.1390(7) 0.5701(4)
H21? H 0.0855 0.1822 0.6041
C21? C 0.1032(9) 0.1849(6) 0.5133(4)
H22? H 0.0907 0.2594 0.5085
C22? C 0.1246(6) 0.1217(5) 0.4636(3)
C23? C 0.1429(5) 0.0126(5) 0.4707(3)
C24? C 0.1642(6) -0.0507(6) 0.4209(3)
H23? H 0.1768 -0.1252 0.4258
C25? C 0.1673(8) -0.0048(9) 0.3642(3)
H24? H 0.1819 -0.0480 0.3302
C26? C 0.1490(10) 0.1043(9) 0.3571(3)
H25? H 0.1511 0.1357 0.3183
C27? C 0.1276(9) 0.1675(7) 0.4068(4)
H26? H 0.1151 0.2421 0.4020
C28? C 0.1530(11) -0.1481(6) 0.5330(4)
H27? H 0.1039 -0.1767 0.5614
H28? H 0.2206 -0.1634 0.5475
H29? H 0.1433 -0.1819 0.4937
loop_
_geom_bond_atom_site_label_1
_geom_bond_atom_site_label_2
_geom_bond_site_symmetry_1
_geom_bond_site_symmetry_2
S1 O1 1_555 1_555
N1 H1 1_555 1_555
H2 N1 1_555 1_555
C1 S1 1_555 1_555
O2 S1 1_555 1_555
N2 H3 1_555 1_555
H4 N2 1_555 1_555
C2 C1 1_555 1_555
H5 C2 1_555 1_555
O3 S1 1_555 1_555
N3 H6 1_555 1_555
H7 N3 1_555 1_555
C3 C2 1_555 1_555
H8 C3 1_555 1_555
C4 C3 1_555 1_555
C5 C1 1_555 1_555
H9 C5 1_555 1_555
C6 N1 1_555 1_555
C7 C8 1_555 1_555
C8 H10 1_555 1_555
C9 C8 1_555 1_555
H11 C9 1_555 1_555
C10 C9 1_555 1_555
H12 C10 1_555 1_555
C11 C10 1_555 1_555
C12 C7 1_555 1_555
C13 C12 1_555 1_555
H13 C13 1_555 1_555
C14 C13 1_555 1_555
H14 C14 1_555 1_555
C15 C14 1_555 1_555
H15 C15 1_555 1_555
C16 C11 1_555 1_555
H16 C16 1_555 1_555
C17 C7 1_555 1_555
H17 C17 1_555 1_555
H18 C17 1_555 1_555
H19 C17 1_555 1_555
C4D C4 1_555 1_555
C3D C4D 1_555 1_555
C2D C3D 1_555 1_555
C1D C2D 1_555 1_555
S1D C1D 1_555 1_555
O1D S1D 1_555 1_555
O2D S1D 1_555 1_555
O3D S1D 1_555 1_555
C5D C4 1_555 1_555
H9D C5D 1_555 1_555
H5D C2D 1_555 1_555
H8D C3D 1_555 1_555
N2 C6 1_555 1_555
N3 C6 1_555 1_555
C5 C4D 1_555 1_555
C11 C12 1_555 1_555
C15 C16 1_555 1_555
C1D C5D 1_555 1_555

#END
