
#######################################################################
#
#                 Cambridge Crystallographic Data Centre
#                                CCDC 
#
#######################################################################
#
# If this CIF has been generated from an entry in the Cambridge 
# Structural Database, then it will include bibliographic, chemical, 
# crystal, experimental, refinement or atomic coordinate data resulting 
# from the CCDC's data processing and validation procedures.
#
#######################################################################

data_QOWVON
_chemical_formula_moiety         '2(C1 H6 N3 1+),C14 H8 O6 S2 2-,C10 H8'
_chemical_name_systematic        
'bis(Guanidinium) 2,6-anthracenedisulfonate naphthalene clathrate'
_symmetry_cell_setting           triclinic
_symmetry_space_group_name_H-M   'P -1'
_symmetry_Int_Tables_number      2
_space_group_name_Hall           '-P 1'
loop_
_symmetry_equiv_pos_site_id
_symmetry_equiv_pos_as_xyz
1 x,y,z
2 -x,-y,-z
_cell_length_a                   6.2127(6)
_cell_length_b                   7.1975(7)
_cell_length_c                   15.3717(16)
_cell_angle_alpha                78.105(2)
_cell_angle_beta                 81.376(2)
_cell_angle_gamma                87.493(2)
_cell_volume                     664.937
_exptl_crystal_colour            'pale yellow'
_exptl_crystal_description       plate
_cell_formula_units_Z            1
loop_
_atom_site_label
_atom_site_type_symbol
_atom_site_fract_x
_atom_site_fract_y
_atom_site_fract_z
S1 S 0.38167(7) 0.78930(6) 0.36263(3)
O1 O 0.1438(2) 0.79385(19) 0.37291(9)
C1 C 0.4730(3) 0.8818(3) 0.24730(12)
O2 O 0.4678(2) 0.59675(19) 0.38149(9)
C2 C 0.6815(3) 0.9673(3) 0.22246(13)
H5 H 0.7685 0.9768 0.2671
O3 O 0.4673(2) 0.9129(2) 0.41279(9)
C3 C 0.7548(3) 1.0351(3) 0.13444(13)
H8 H 0.8928 1.0943 0.1182
C4 C 0.6300(3) 1.0198(3) 0.06554(12)
C5 C 0.4199(3) 0.9313(3) 0.09146(12)
C6 C 0.3457(3) 0.8650(3) 0.18457(12)
H9 H 0.2065 0.8086 0.2030
C7 C 0.7042(3) 1.0856(3) -0.02506(13)
H10 H 0.8427 1.1436 -0.0422
C7A C 0.2958(3) 0.9144(3) 0.02506(13)
C4A C 0.3700(3) 0.9802(3) -0.06554(12)
C3A C 0.2452(3) 0.9649(3) -0.13444(13)
C2A C 0.3185(3) 1.0327(3) -0.22246(13)
C1A C 0.5270(3) 1.1182(3) -0.24730(12)
S1A S 0.61833(7) 1.21070(6) -0.36263(3)
O1A O 0.8562(2) 1.20615(19) -0.37291(9)
O2A O 0.5322(2) 1.40325(19) -0.38149(9)
O3A O 0.5327(2) 1.0871(2) -0.41279(9)
C6A C 0.6543(3) 1.1350(3) -0.18457(12)
C5A C 0.5801(3) 1.0687(3) -0.09146(12)
H9A H 0.7935 1.1914 -0.2030
H5A H 0.2315 1.0232 -0.2671
H8A H 0.1072 0.9057 -0.1182
H10A H 0.1573 0.8564 0.0422
N1 N -0.1194(3) 1.1255(2) 0.41184(11)
H1 H -0.2622 1.1321 0.4156
H2 H -0.0509 1.0165 0.4097
N2 N 0.2071(3) 1.2680(3) 0.40203(13)
H3 H 0.2834 1.3698 0.3993
H4 H 0.2737 1.1583 0.3999
N3 N -0.1061(3) 1.4449(2) 0.41257(11)
H6 H -0.0293 1.5464 0.4098
H7 H -0.2490 1.4535 0.4175
C8 C -0.0071(3) 1.2800(3) 0.40938(12)
C9 C -0.1888(4) 1.5410(3) 0.10053(16)
H11 H -0.3327 1.5867 0.1153
C10 C -0.0616(5) 1.4819(3) 0.16684(16)
H12 H -0.1176 1.4875 0.2273
C11 C 0.1498(4) 1.4133(3) 0.14628(18)
H13 H 0.2362 1.3726 0.1929
C12 C 0.2327(4) 1.4042(3) 0.06069(17)
H14 H 0.3764 1.3564 0.0479
C13 C -0.1074(3) 1.5346(3) 0.01043(14)
C13A C 0.1074(3) 1.4654(3) -0.01043(14)
C9A C 0.1888(4) 1.4590(3) -0.10053(16)
H11A H 0.3327 1.4133 -0.1153
C10A C 0.0616(5) 1.5181(3) -0.16684(16)
H12A H 0.1176 1.5125 -0.2273
C11A C -0.1498(4) 1.5867(3) -0.14628(18)
H13A H -0.2362 1.6274 -0.1929
C12A C -0.2327(4) 1.5958(3) -0.06069(17)
H14A H -0.3764 1.6436 -0.0479
loop_
_geom_bond_atom_site_label_1
_geom_bond_atom_site_label_2
_geom_bond_site_symmetry_1
_geom_bond_site_symmetry_2
S1 O1 1_555 1_555
N1 H1 1_555 1_555
H2 N1 1_555 1_555
C1 S1 1_555 1_555
O2 S1 1_555 1_555
N2 H3 1_555 1_555
H4 N2 1_555 1_555
C2 C1 1_555 1_555
H5 C2 1_555 1_555
O3 S1 1_555 1_555
N3 H6 1_555 1_555
H7 N3 1_555 1_555
C3 C2 1_555 1_555
H8 C3 1_555 1_555
C4 C3 1_555 1_555
C5 C4 1_555 1_555
C6 C1 1_555 1_555
H9 C6 1_555 1_555
C7 C4 1_555 1_555
H10 C7 1_555 1_555
C8 N1 1_555 1_555
C9 H11 1_555 1_555
C10 C9 1_555 1_555
H12 C10 1_555 1_555
C11 C10 1_555 1_555
H13 C11 1_555 1_555
C12 C11 1_555 1_555
H14 C12 1_555 1_555
C13 C9 1_555 1_555
C7A C5 1_555 1_555
C4A C7A 1_555 1_555
C3A C4A 1_555 1_555
C2A C3A 1_555 1_555
C1A C2A 1_555 1_555
S1A C1A 1_555 1_555
O1A S1A 1_555 1_555
O2A S1A 1_555 1_555
O3A S1A 1_555 1_555
C6A C1A 1_555 1_555
C5A C7 1_555 1_555
H9A C6A 1_555 1_555
H5A C2A 1_555 1_555
H8A C3A 1_555 1_555
H10A C7A 1_555 1_555
C13A C12 1_555 1_555
C9A C13A 1_555 1_555
H11A C9A 1_555 1_555
C10A C9A 1_555 1_555
H12A C10A 1_555 1_555
C11A C10A 1_555 1_555
H13A C11A 1_555 1_555
C12A C13 1_555 1_555
H14A C12A 1_555 1_555
N2 C8 1_555 1_555
N3 C8 1_555 1_555
C5 C6 1_555 1_555
C13 C13A 1_555 1_555
C4A C5A 1_555 1_555
C6A C5A 1_555 1_555
C11A C12A 1_555 1_555

#END
