
#######################################################################
#
#                 Cambridge Crystallographic Data Centre
#                                CCDC 
#
#######################################################################
#
# If this CIF has been generated from an entry in the Cambridge 
# Structural Database, then it will include bibliographic, chemical, 
# crystal, experimental, refinement or atomic coordinate data resulting 
# from the CCDC's data processing and validation procedures.
#
#######################################################################

data_QOWVUT
_chemical_formula_moiety         '2(C1 H6 N3 1+),C14 H8 O6 S2 2-,C16 H10'
_chemical_name_systematic        
'bis(Guanidinium) 2,6-anthracenedisulfonate pyrene clathrate'
_symmetry_cell_setting           monoclinic
_symmetry_space_group_name_H-M   'P 21/n'
_symmetry_Int_Tables_number      14
_space_group_name_Hall           '-P 2yn'
loop_
_symmetry_equiv_pos_site_id
_symmetry_equiv_pos_as_xyz
1 x,y,z
2 1/2+x,1/2-y,1/2+z
3 -x,-y,-z
4 1/2-x,1/2+y,1/2-z
_cell_length_a                   7.4472(10)
_cell_length_b                   9.8732(13)
_cell_length_c                   20.756(3)
_cell_angle_alpha                90
_cell_angle_beta                 94.601(3)
_cell_angle_gamma                90
_cell_volume                     1521.22
_exptl_crystal_colour            'pale yellow'
_exptl_crystal_description       plate
_cell_formula_units_Z            2
loop_
_atom_site_label
_atom_site_type_symbol
_atom_site_fract_x
_atom_site_fract_y
_atom_site_fract_z
S1 S 0.51379(8) 0.92103(6) 0.16680(3)
O1 O 0.3479(2) 0.99879(15) 0.15294(8)
O2 O 0.5082(2) 0.83977(15) 0.22529(7)
O3 O 0.6728(2) 1.00823(15) 0.16875(8)
C1 C 0.4964(3) 0.5845(2) 0.05469(11)
C2 C 0.4916(3) 0.6741(2) 0.10833(11)
H1 H 0.4600 0.6404 0.1488
C3 C 0.5320(3) 0.8081(2) 0.10202(11)
C4 C 0.5454(3) 0.6381(2) -0.00597(11)
C5 C 0.5844(3) 0.8611(2) 0.04277(11)
H2 H 0.6150 0.9542 0.0396
C6 C 0.4528(3) 0.4477(2) 0.05876(12)
H3 H 0.4210 0.4123 0.0988
C7 C 0.5907(3) 0.7789(2) -0.00931(12)
H4 H 0.6258 0.8153 -0.0488
C6B C 0.5472(3) 0.5523(2) -0.05876(12)
C1B C 0.5036(3) 0.4155(2) -0.05469(11)
C2B C 0.5084(3) 0.3259(2) -0.10833(11)
H1B H 0.5400 0.3596 -0.1488
C3B C 0.4680(3) 0.1919(2) -0.10202(11)
S1B S 0.48621(8) 0.07897(6) -0.16680(3)
O1B O 0.6521(2) 0.00121(15) -0.15294(8)
O2B O 0.4918(2) 0.16023(15) -0.22529(7)
O3B O 0.3272(2) -0.00823(15) -0.16875(8)
C5B C 0.4156(3) 0.1389(2) -0.04277(11)
H2B H 0.3850 0.0458 -0.0396
C7B C 0.4093(3) 0.2211(2) 0.00931(12)
C4B C 0.4546(3) 0.3619(2) 0.00597(11)
H4B H 0.3742 0.1847 0.0488
H3B H 0.5790 0.5877 -0.0988
C8 C 0.9829(3) 0.4331(2) 0.01095(11)
C9 C 0.9574(3) 0.3251(3) -0.03342(12)
C10 C 0.9729(3) 0.4087(3) 0.07820(12)
C11 C 0.9406(3) 0.2765(3) 0.09887(14)
H5 H 0.9365 0.2585 0.1437
C12 C 0.9692(3) 0.3545(3) -0.10087(13)
H6 H 0.9529 0.2829 -0.1313
C13 C 0.9214(3) 0.1959(3) -0.01043(14)
H7 H 0.9013 0.1233 -0.0401
C14 C 0.9147(3) 0.1722(3) 0.05488(14)
H8 H 0.8921 0.0832 0.0697
C15 C 0.9976(4) 0.5211(3) 0.12204(13)
H9 H 0.9901 0.5065 0.1670
C8B C 1.0171(3) 0.5669(2) -0.01095(11)
C9B C 1.0426(3) 0.6749(3) 0.03342(12)
C12B C 1.0308(3) 0.6455(3) 0.10087(13)
H6B H 1.0471 0.7171 0.1313
C15B C 1.0024(4) 0.4789(3) -0.12204(13)
C10B C 1.0271(3) 0.5913(3) -0.07820(12)
C11B C 1.0594(3) 0.7235(3) -0.09887(14)
H5B H 1.0635 0.7415 -0.1437
C14B C 1.0853(3) 0.8278(3) -0.05488(14)
C13B C 1.0786(3) 0.8041(3) 0.01043(14)
H7B H 1.0987 0.8767 0.0401
H8B H 1.1079 0.9168 -0.0697
H9B H 1.0099 0.4935 -0.1670
C16 C 1.0283(3) 0.8236(2) 0.26020(11)
N1 N 1.0310(3) 0.93072(19) 0.22207(10)
H10 H 0.9300 0.9729 0.2097
H11 H 1.1338 0.9598 0.2091
N2 N 0.8743(3) 0.7795(2) 0.27986(10)
H12 H 0.8734 0.7097 0.3062
H13 H 0.7727 0.8200 0.2666
N3 N 1.1802(3) 0.7622(2) 0.28034(10)
H14 H 1.1784 0.6924 0.3067
H15 H 1.2832 0.7910 0.2674
loop_
_geom_bond_atom_site_label_1
_geom_bond_atom_site_label_2
_geom_bond_site_symmetry_1
_geom_bond_site_symmetry_2
S1 O1 1_555 1_555
O2 S1 1_555 1_555
O3 S1 1_555 1_555
C1 C2 1_555 1_555
C2 H1 1_555 1_555
C3 S1 1_555 1_555
C4 C1 1_555 1_555
C5 C3 1_555 1_555
H2 C5 1_555 1_555
C6 C1 1_555 1_555
H3 C6 1_555 1_555
C7 C4 1_555 1_555
H4 C7 1_555 1_555
C8 C9 1_555 1_555
C9 C12 1_555 1_555
C10 C8 1_555 1_555
C11 C10 1_555 1_555
H5 C11 1_555 1_555
C12 H6 1_555 1_555
C13 C9 1_555 1_555
H7 C13 1_555 1_555
C14 C11 1_555 1_555
H8 C14 1_555 1_555
C15 C10 1_555 1_555
H9 C15 1_555 1_555
C16 N1 1_555 1_555
N1 H10 1_555 1_555
H11 N1 1_555 1_555
N2 C16 1_555 1_555
H12 N2 1_555 1_555
H13 N2 1_555 1_555
N3 C16 1_555 1_555
H14 N3 1_555 1_555
H15 N3 1_555 1_555
C6B C4 1_555 1_555
C1B C6B 1_555 1_555
C2B C1B 1_555 1_555
H1B C2B 1_555 1_555
C3B C2B 1_555 1_555
S1B C3B 1_555 1_555
O1B S1B 1_555 1_555
O2B S1B 1_555 1_555
O3B S1B 1_555 1_555
C5B C3B 1_555 1_555
H2B C5B 1_555 1_555
C7B C5B 1_555 1_555
C4B C6 1_555 1_555
H4B C7B 1_555 1_555
H3B C6B 1_555 1_555
C8B C8 1_555 1_555
C9B C8B 1_555 1_555
C12B C15 1_555 1_555
H6B C12B 1_555 1_555
C15B C12 1_555 1_555
C10B C8B 1_555 1_555
C11B C10B 1_555 1_555
H5B C11B 1_555 1_555
C14B C11B 1_555 1_555
C13B C9B 1_555 1_555
H7B C13B 1_555 1_555
H8B C14B 1_555 1_555
H9B C15B 1_555 1_555
C2 C3 1_555 1_555
C5 C7 1_555 1_555
C13 C14 1_555 1_555
C1B C4B 1_555 1_555
C7B C4B 1_555 1_555
C9B C12B 1_555 1_555
C15B C10B 1_555 1_555
C14B C13B 1_555 1_555

#END
