
#######################################################################
#
#                 Cambridge Crystallographic Data Centre
#                                CCDC 
#
#######################################################################
#
# If this CIF has been generated from an entry in the Cambridge 
# Structural Database, then it will include bibliographic, chemical, 
# crystal, experimental, refinement or atomic coordinate data resulting 
# from the CCDC's data processing and validation procedures.
#
#######################################################################

data_QOWXEF
_chemical_formula_moiety         
'2(C1 H6 N3 1+),C12 H8 O7 S2 2-,C9 H12,C1 H4 O1'
_chemical_name_systematic        
"bis(Guanidinium) 4,4'-diphenyletherdisulfonate mesitylene methanol clathrate"
_symmetry_cell_setting           orthorhombic
_symmetry_space_group_name_H-M   'P 21 21 21'
_symmetry_Int_Tables_number      19
_space_group_name_Hall           'P 2ac 2ab'
loop_
_symmetry_equiv_pos_site_id
_symmetry_equiv_pos_as_xyz
1 x,y,z
2 1/2-x,-y,1/2+z
3 1/2+x,1/2-y,-z
4 -x,1/2+y,1/2-z
_cell_length_a                   7.5839(4)
_cell_length_b                   14.2280(8)
_cell_length_c                   27.7485(16)
_cell_angle_alpha                90
_cell_angle_beta                 90
_cell_angle_gamma                90
_cell_volume                     2994.17
_exptl_crystal_colour            colorless
_exptl_crystal_description       prism
_cell_formula_units_Z            4
loop_
_atom_site_label
_atom_site_type_symbol
_atom_site_fract_x
_atom_site_fract_y
_atom_site_fract_z
S1 S 0.49871(12) 0.36677(4) 0.06883(2)
O1 O 0.5051(3) 0.45286(12) 0.09733(6)
C1 C 0.4804(4) 0.39988(17) 0.00774(9)
S2 S 0.51225(11) 0.81917(4) -0.23704(2)
O2 O 0.3410(3) 0.31098(16) 0.07950(7)
C2 C 0.5054(4) 0.33205(17) -0.02753(9)
H5 H 0.5381 0.2699 -0.0187
O3 O 0.6590(3) 0.31093(16) 0.07331(7)
C3 C 0.4825(5) 0.35508(18) -0.07538(9)
H8 H 0.5032 0.3096 -0.0998
O4 O 0.5183(3) 0.79937(13) -0.28849(6)
C4 C 0.4288(4) 0.4457(2) -0.08765(10)
O5 O 0.6755(3) 0.86088(15) -0.21886(7)
C5 C 0.4009(4) 0.5133(2) -0.05315(10)
H13 H 0.3642 0.5748 -0.0620
O6 O 0.3580(3) 0.87470(14) -0.22399(8)
C6 C 0.4278(4) 0.4899(2) -0.00459(10)
H16 H 0.4098 0.5358 0.0198
O7 O 0.3947(3) 0.45982(14) -0.13604(7)
C7 C 0.4310(4) 0.54510(19) -0.15787(10)
C8 C 0.3305(4) 0.5643(2) -0.19868(10)
H17 H 0.2429 0.5212 -0.2092
C9 C 0.3601(4) 0.6469(2) -0.22361(10)
H18 H 0.2929 0.6610 -0.2516
C10 C 0.4893(4) 0.70993(17) -0.20755(8)
C11 C 0.5887(4) 0.6880(2) -0.16727(10)
H19 H 0.6766 0.7306 -0.1564
C12 C 0.5612(4) 0.6050(2) -0.14289(10)
H20 H 0.6321 0.5895 -0.1158
N1 N 0.1532(4) 0.4905(2) 0.14555(10)
H1 H 0.1543 0.5320 0.1691
H2 H 0.2530 0.4672 0.1346
N2 N 0.0010(4) 0.40126(15) 0.09079(8)
H3 H 0.1011 0.3785 0.0798
H4 H -0.0996 0.3830 0.0781
N3 N -0.1484(4) 0.4981(2) 0.14289(10)
H6 H -0.1479 0.5395 0.1664
H7 H -0.2490 0.4797 0.1302
C13 C 0.0019(5) 0.46331(18) 0.12665(9)
N4 N 0.6327(3) 0.2065(2) 0.16629(9)
H9 H 0.7347 0.1973 0.1807
H10 H 0.6295 0.2306 0.1371
N5 N 0.3300(3) 0.1988(2) 0.16681(9)
H11 H 0.2311 0.1843 0.1817
H12 H 0.3269 0.2229 0.1376
N6 N 0.4865(4) 0.14835(16) 0.23226(8)
H14 H 0.5875 0.1387 0.2470
H15 H 0.3867 0.1339 0.2467
C14 C 0.4844(5) 0.18436(18) 0.18857(9)
O8 O 0.5032(4) 0.4477(2) 0.21253(9)
H21 H 0.5337 0.4325 0.1845
C15 C 0.6252(6) 0.4092(3) 0.24643(14)
H22 H 0.7456 0.4166 0.2342
H23 H 0.5998 0.3423 0.2512
H24 H 0.6139 0.4423 0.2772
C16 C 0.5514(4) 0.8163(2) 0.00067(11)
C17 C 0.4974(5) 0.9074(2) 0.01100(10)
H25 H 0.4748 0.9495 -0.0149
C18 C 0.4757(5) 0.9384(2) 0.05757(11)
C19 C 0.5053(5) 0.8764(2) 0.09550(10)
H26 H 0.4903 0.8975 0.1277
C20 C 0.5563(4) 0.7842(2) 0.08712(12)
C21 C 0.5809(4) 0.7560(2) 0.03947(12)
H27 H 0.6191 0.6936 0.0332
C22 C 0.5786(5) 0.7840(3) -0.05064(13)
H28 H 0.6722 0.7366 -0.0516
H29 H 0.6124 0.8378 -0.0707
H30 H 0.4689 0.7567 -0.0630
C23 C 0.4257(5) 1.0408(2) 0.06747(15)
H31 H 0.5289 1.0811 0.0625
H32 H 0.3849 1.0470 0.1008
H33 H 0.3312 1.0599 0.0455
C24 C 0.5858(6) 0.7172(3) 0.12825(14)
H34 H 0.5098 0.6621 0.1242
H35 H 0.5573 0.7486 0.1587
H36 H 0.7095 0.6974 0.1286
loop_
_geom_bond_atom_site_label_1
_geom_bond_atom_site_label_2
_geom_bond_site_symmetry_1
_geom_bond_site_symmetry_2
S1 O1 1_555 1_555
N1 H1 1_555 1_555
H2 N1 1_555 1_555
C1 S1 1_555 1_555
S2 O4 1_555 1_555
O2 S1 1_555 1_555
N2 H3 1_555 1_555
H4 N2 1_555 1_555
C2 C1 1_555 1_555
H5 C2 1_555 1_555
O3 S1 1_555 1_555
N3 H6 1_555 1_555
H7 N3 1_555 1_555
C3 C2 1_555 1_555
H8 C3 1_555 1_555
N4 H9 1_555 1_555
H10 N4 1_555 1_555
C4 C3 1_555 1_555
O5 S2 1_555 1_555
N5 H11 1_555 1_555
H12 N5 1_555 1_555
C5 C4 1_555 1_555
H13 C5 1_555 1_555
O6 S2 1_555 1_555
N6 H14 1_555 1_555
H15 N6 1_555 1_555
C6 C1 1_555 1_555
H16 C6 1_555 1_555
O7 C4 1_555 1_555
C7 O7 1_555 1_555
C8 C7 1_555 1_555
H17 C8 1_555 1_555
C9 C8 1_555 1_555
H18 C9 1_555 1_555
C10 S2 1_555 1_555
C11 C10 1_555 1_555
H19 C11 1_555 1_555
C12 C7 1_555 1_555
H20 C12 1_555 1_555
C13 N1 1_555 1_555
C14 N4 1_555 1_555
O8 H21 1_555 1_555
C15 O8 1_555 1_555
H22 C15 1_555 1_555
H23 C15 1_555 1_555
H24 C15 1_555 1_555
C16 C17 1_555 1_555
C17 H25 1_555 1_555
C18 C17 1_555 1_555
C19 C18 1_555 1_555
H26 C19 1_555 1_555
C20 C19 1_555 1_555
C21 C16 1_555 1_555
H27 C21 1_555 1_555
C22 C16 1_555 1_555
H28 C22 1_555 1_555
H29 C22 1_555 1_555
H30 C22 1_555 1_555
C23 C18 1_555 1_555
H31 C23 1_555 1_555
H32 C23 1_555 1_555
H33 C23 1_555 1_555
C24 C20 1_555 1_555
H34 C24 1_555 1_555
H35 C24 1_555 1_555
H36 C24 1_555 1_555
N2 C13 1_555 1_555
N3 C13 1_555 1_555
N5 C14 1_555 1_555
C5 C6 1_555 1_555
N6 C14 1_555 1_555
C9 C10 1_555 1_555
C11 C12 1_555 1_555
C20 C21 1_555 1_555

#END
