
#######################################################################
#
#                 Cambridge Crystallographic Data Centre
#                                CCDC 
#
#######################################################################
#
# If this CIF has been generated from an entry in the Cambridge 
# Structural Database, then it will include bibliographic, chemical, 
# crystal, experimental, refinement or atomic coordinate data resulting 
# from the CCDC's data processing and validation procedures.
#
#######################################################################

data_QOXVUU
_chemical_formula_moiety         'C81 H105 N1 O12,5(C1 H1 Cl3),C1 H4 O1'
_chemical_name_systematic        
'5,11,17,23,29,35-hexa-t-butyl-37,39,41-trimethoxy-38,40,42-(tris(3-oxapentan-4-on-5-olato)amine)calix(6)arene chloroform methanol solvate'
_symmetry_cell_setting           triclinic
_symmetry_space_group_name_H-M   'P -1'
_symmetry_Int_Tables_number      2
_space_group_name_Hall           '-P 1'
loop_
_symmetry_equiv_pos_site_id
_symmetry_equiv_pos_as_xyz
1 x,y,z
2 -x,-y,-z
_cell_length_a                   13.8518(12)
_cell_length_b                   16.2265(17)
_cell_length_c                   22.565(3)
_cell_angle_alpha                84.264(13)
_cell_angle_beta                 87.665(12)
_cell_angle_gamma                88.863(11)
_cell_volume                     5041.63
_exptl_crystal_colour            colorless
_chemical_melting_point          'over 300 deg.C'
_cell_formula_units_Z            2
loop_
_atom_site_label
_atom_site_type_symbol
_atom_site_fract_x
_atom_site_fract_y
_atom_site_fract_z
O1 O -0.5919(4) 0.9790(3) 0.1378(2)
O2 O -0.6293(5) 0.9367(3) 0.0503(2)
O3 O -0.6235(4) 0.7781(3) 0.09484(19)
O4 O -0.5291(5) 0.9987(3) 0.3064(2)
O5 O -0.6218(5) 0.9465(4) 0.3844(3)
O6 O -0.4946(4) 0.8235(3) 0.4085(2)
O7 O -0.3146(4) 1.0684(3) 0.1818(3)
O8 O -0.1597(5) 1.0955(3) 0.1984(3)
O9 O -0.1079(4) 0.9404(3) 0.1723(2)
O10 O -0.6513(4) 0.7521(3) 0.2684(2)
O11 O -0.2294(4) 0.8869(3) 0.3321(2)
O12 O -0.3337(3) 0.8527(2) 0.08399(18)
N1 N -0.5173(5) 1.1143(4) 0.1979(3)
C1 C -0.6057(7) 1.1177(5) 0.1635(4)
H1 H -0.6189 1.1758 0.1478
H2 H -0.6610 1.0990 0.1904
C2 C -0.5983(7) 1.0655(4) 0.1130(4)
H3 H -0.6558 1.0744 0.0884
H4 H -0.5401 1.0802 0.0875
C3 C -0.6076(6) 0.9216(4) 0.1001(3)
C4 C -0.5893(6) 0.8373(4) 0.1315(3)
H5 H -0.5194 0.8285 0.1377
H6 H -0.6241 0.8317 0.1709
C5 C -0.5404(8) 1.1374(5) 0.2583(4)
H7 H -0.5804 1.1888 0.2553
H8 H -0.4796 1.1494 0.2771
C6 C -0.5930(8) 1.0723(6) 0.2975(4)
H9 H -0.6109 1.0929 0.3364
H10 H -0.6529 1.0578 0.2787
C7 C -0.5557(7) 0.9411(5) 0.3492(4)
C8 C -0.4871(6) 0.8668(5) 0.3502(3)
H11 H -0.5049 0.8300 0.3200
H12 H -0.4200 0.8853 0.3410
C9 C -0.4428(7) 1.1677(5) 0.1678(5)
H13 H -0.4619 1.2262 0.1713
H14 H -0.4398 1.1594 0.1249
C10 C -0.3426(7) 1.1527(4) 0.1921(5)
H15 H -0.2963 1.1924 0.1712
H16 H -0.3436 1.1595 0.2352
C11 C -0.2222(7) 1.0483(4) 0.1893(3)
C12 C -0.2074(6) 0.9577(4) 0.1843(3)
H17 H -0.2294 0.9258 0.2219
H18 H -0.2461 0.9408 0.1517
C13 C -0.5748(6) 0.7017(4) 0.1029(3)
C14 C -0.4920(6) 0.6901(4) 0.0673(3)
C15 C -0.4450(6) 0.6142(4) 0.0750(3)
H19 H -0.3881 0.6056 0.0513
C16 C -0.4770(6) 0.5497(4) 0.1159(3)
C17 C -0.4249(7) 0.4650(4) 0.1229(3)
C18 C -0.4072(11) 0.4371(7) 0.1870(4)
H20 H -0.3780 0.4822 0.2056
H21 H -0.3634 0.3889 0.1893
H22 H -0.4687 0.4221 0.2080
C19 C -0.4835(10) 0.4037(6) 0.0946(6)
H23 H -0.4949 0.4246 0.0531
H24 H -0.5456 0.3958 0.1166
H25 H -0.4483 0.3506 0.0955
C20 C -0.3261(9) 0.4643(6) 0.0896(6)
H26 H -0.2851 0.5065 0.1034
H27 H -0.3348 0.4764 0.0467
H28 H -0.2952 0.4097 0.0974
C21 C -0.5605(6) 0.5636(4) 0.1489(3)
H29 H -0.5846 0.5200 0.1763
C22 C -0.6114(6) 0.6389(4) 0.1438(3)
C23 C -0.7054(6) 0.6498(5) 0.1788(3)
H30 H -0.7567 0.6203 0.1606
H31 H -0.7233 0.7094 0.1755
C24 C -0.7022(5) 0.6182(5) 0.2442(3)
C25 C -0.7221(6) 0.5364(5) 0.2636(3)
H32 H -0.7424 0.5012 0.2354
C26 C -0.7138(6) 0.5034(5) 0.3225(3)
C27 C -0.7338(7) 0.4123(5) 0.3417(3)
C28 C -0.8378(11) 0.3962(8) 0.3344(8)
H33 H -0.8773 0.4403 0.3504
H34 H -0.8548 0.3428 0.3560
H35 H -0.8498 0.3951 0.2920
C29 C -0.7141(11) 0.3886(7) 0.4076(5)
H36 H -0.6449 0.3929 0.4139
H37 H -0.7345 0.3315 0.4191
H38 H -0.7504 0.4261 0.4321
C30 C -0.6676(15) 0.3608(7) 0.3078(7)
H39 H -0.6240 0.3965 0.2819
H40 H -0.7051 0.3273 0.2835
H41 H -0.6297 0.3242 0.3356
C31 C -0.6853(6) 0.5575(5) 0.3624(3)
H42 H -0.6813 0.5373 0.4032
C32 C -0.6627(5) 0.6388(5) 0.3455(3)
C33 C -0.6730(5) 0.6692(5) 0.2862(3)
C34 C -0.7336(6) 0.8058(5) 0.2768(4)
H43 H -0.7154 0.8634 0.2651
H44 H -0.7555 0.7997 0.3188
H45 H -0.7858 0.7908 0.2521
C35 C -0.6211(5) 0.6919(5) 0.3899(3)
H46 H -0.6329 0.7511 0.3763
H47 H -0.6553 0.6799 0.4290
C36 C -0.5133(5) 0.6772(4) 0.3972(3)
C37 C -0.4709(5) 0.6002(4) 0.3967(3)
H48 H -0.5097 0.5558 0.3879
C38 C -0.3747(5) 0.5836(4) 0.4084(3)
C39 C -0.3187(6) 0.6502(4) 0.4217(3)
H49 H -0.2526 0.6407 0.4302
C40 C -0.3582(6) 0.7300(4) 0.4229(3)
C41 C -0.4547(6) 0.7428(5) 0.4091(3)
C42 C -0.3332(6) 0.4957(4) 0.4066(3)
C43 C -0.3858(8) 0.4385(6) 0.4556(4)
H50 H -0.4536 0.4338 0.4457
H51 H -0.3826 0.4619 0.4939
H52 H -0.3548 0.3836 0.4585
C44 C -0.2257(7) 0.4898(5) 0.4163(5)
H53 H -0.2021 0.4336 0.4109
H54 H -0.2133 0.5026 0.4568
H55 H -0.1920 0.5295 0.3874
C45 C -0.3508(7) 0.4654(5) 0.3456(4)
H56 H -0.4205 0.4637 0.3399
H57 H -0.3226 0.4098 0.3440
H58 H -0.3207 0.5035 0.3140
C46 C -0.2987(6) 0.8001(5) 0.4421(3)
H59 H -0.3287 0.8537 0.4272
H60 H -0.3009 0.7967 0.4862
C47 C -0.1945(6) 0.7987(4) 0.4200(3)
C48 C -0.1257(6) 0.7518(4) 0.4541(3)
H61 H -0.1455 0.7247 0.4918
C49 C -0.0310(6) 0.7443(4) 0.4345(3)
C50 C 0.0416(6) 0.6923(5) 0.4723(3)
C51 C 0.0035(12) 0.6052(9) 0.4852(9)
H62 H 0.0445 0.5733 0.5139
H63 H 0.0041 0.5783 0.4482
H64 H -0.0628 0.6075 0.5019
C52 C 0.1440(11) 0.6951(13) 0.4443(8)
H65 H 0.1618 0.7529 0.4330
H66 H 0.1465 0.6649 0.4088
H67 H 0.1893 0.6694 0.4732
C53 C 0.0479(14) 0.7324(12) 0.5319(7)
H68 H 0.0621 0.7914 0.5233
H69 H 0.0994 0.7049 0.5555
H70 H -0.0139 0.7262 0.5545
C57 C -0.0043(6) 0.7857(4) 0.3799(3)
H80 H 0.0609 0.7815 0.3656
C58 C -0.0688(7) 0.8331(4) 0.3451(3)
C59 C -0.1627(6) 0.8400(4) 0.3658(3)
C60 C -0.2297(9) 0.9735(5) 0.3443(4)
H81 H -0.2783 1.0047 0.3204
H82 H -0.1658 0.9968 0.3340
H83 H -0.2454 0.9773 0.3867
C61 C -0.0362(6) 0.8716(5) 0.2832(3)
H84 H -0.0678 0.9267 0.2755
H85 H 0.0344 0.8799 0.2823
C62 C -0.0598(6) 0.8190(4) 0.2338(3)
C63 C -0.0908(6) 0.8548(4) 0.1792(3)
C64 C -0.1047(5) 0.8086(4) 0.1324(3)
C65 C -0.0927(6) 0.7236(4) 0.1422(3)
H86 H -0.1041 0.6909 0.1107
C66 C -0.0646(6) 0.6841(4) 0.1962(4)
C67 C -0.0561(6) 0.5907(5) 0.2067(4)
C68 C -0.121(3) 0.5573(15) 0.2595(14)
H87 H -0.1890 0.5677 0.2498
H88 H -0.1068 0.5853 0.2945
H89 H -0.1097 0.4976 0.2679
C69 C -0.091(3) 0.5467(11) 0.1522(11)
H90 H -0.0600 0.5722 0.1152
H91 H -0.1614 0.5530 0.1499
H92 H -0.0736 0.4877 0.1576
C70 C 0.0489(16) 0.5602(18) 0.211(2)
H93 H 0.0807 0.5672 0.1708
H94 H 0.0504 0.5015 0.2258
H95 H 0.0828 0.5924 0.2375
C74 C -0.0476(6) 0.7342(5) 0.2408(4)
H105 H -0.0265 0.7088 0.2779
C75 C -0.1272(6) 0.8509(4) 0.0702(3)
H106 H -0.1592 0.9051 0.0749
H107 H -0.0656 0.8617 0.0472
C76 C -0.1910(6) 0.8011(4) 0.0349(3)
C77 C -0.1482(7) 0.7475(4) -0.0043(3)
H108 H -0.0797 0.7434 -0.0079
C78 C -0.2032(7) 0.7009(5) -0.0377(3)
C79 C -0.1568(9) 0.6418(6) -0.0788(4)
C80 C -0.0512(12) 0.6515(10) -0.0872(9)
H109 H -0.0350 0.7098 -0.0856
H110 H -0.0301 0.6342 -0.1261
H111 H -0.0186 0.6171 -0.0557
C81 C -0.1865(16) 0.5547(7) -0.0573(8)
H112 H -0.2552 0.5546 -0.0450
H113 H -0.1480 0.5339 -0.0233
H114 H -0.1755 0.5191 -0.0896
C82 C -0.1993(13) 0.6594(10) -0.1411(6)
H115 H -0.2699 0.6636 -0.1370
H116 H -0.1811 0.6141 -0.1652
H117 H -0.1738 0.7116 -0.1606
C83 C -0.3033(7) 0.7081(4) -0.0304(3)
H118 H -0.3422 0.6774 -0.0538
C84 C -0.3497(6) 0.7582(4) 0.0095(3)
C85 C -0.2898(6) 0.8039(4) 0.0416(3)
C86 C -0.4581(6) 0.7566(4) 0.0193(3)
H119 H -0.4878 0.7473 -0.0186
H120 H -0.4811 0.8113 0.0305
C87 C -0.3592(6) 0.9347(4) 0.0587(3)
H121 H -0.3837 0.9675 0.0904
H122 H -0.4093 0.9313 0.0297
H123 H -0.3020 0.9611 0.0388
Cl1 Cl 0.1293(2) 0.7606(2) 0.06302(15)
Cl2 Cl 0.1425(2) 0.8815(2) -0.03724(14)
Cl3 Cl 0.2637(4) 0.7351(4) -0.0331(2)
C88 C 0.2082(7) 0.8078(6) 0.0082(4)
H124 H 0.2590 0.8370 0.0280
Cl4 Cl 0.1892(3) 0.1341(2) 0.3914(2)
Cl5 Cl 0.1350(4) 0.0366(3) 0.49741(18)
Cl6 Cl 0.1094(4) -0.0300(3) 0.3890(2)
C89 C 0.1801(8) 0.0305(6) 0.4260(5)
H125 H 0.2464 0.0051 0.4278
Cl7 Cl 0.6949(4) 0.1731(4) 0.4697(3)
Cl8 Cl 0.5804(6) 0.0402(4) 0.4452(3)
Cl9 Cl 0.5042(4) 0.2085(5) 0.4318(2)
C90 C 0.5820(9) 0.1369(9) 0.4710(5)
H126 H 0.5579 0.1304 0.5135
C91 C -0.1137(6) 0.2380(5) 0.2702(4)
Cl10 Cl -0.0081(5) 0.2853(5) 0.2851(3)
Cl11 Cl -0.1980(5) 0.2131(4) 0.3281(2)
Cl12 Cl -0.1761(6) 0.3190(3) 0.2216(4)
Cl16 Cl -0.8827(3) 1.1055(2) 0.10665(16)
Cl17 Cl -0.8550(3) 0.9392(3) 0.1576(2)
Cl18 Cl -0.8783(4) 1.0648(4) 0.23241(19)
C92 C -0.9133(4) 1.0333(4) 0.1648(2)
H127 H -0.9848 1.0252 0.1664
O13 O 0.6125(4) 0.8147(4) 0.2146(2)
C93 C 0.6459(4) 0.7280(4) 0.2339(2)
C54? C -0.0032(13) 0.6448(13) 0.5292(9)
H71? H 0.0455 0.6072 0.5479
H72? H -0.0581 0.6128 0.5187
H73? H -0.0253 0.6844 0.5571
C55? C 0.0807(16) 0.6223(12) 0.4334(8)
H74? H 0.1255 0.5857 0.4566
H75? H 0.1144 0.6476 0.3973
H76? H 0.0264 0.5900 0.4223
C56? C 0.1298(15) 0.7439(15) 0.4841(13)
H77? H 0.1825 0.7068 0.4982
H78? H 0.1119 0.7812 0.5144
H79? H 0.1509 0.7766 0.4471
C71? C -0.151(2) 0.5573(13) 0.2127(18)
H96? H -0.1917 0.5899 0.2384
H97? H -0.1475 0.4997 0.2303
H98? H -0.1787 0.5593 0.1733
C72? C 0.016(2) 0.5587(13) 0.1681(14)
H99? H 0.0711 0.5967 0.1630
H100? H -0.0105 0.5533 0.1292
H101? H 0.0387 0.5043 0.1856
C73? C -0.015(3) 0.5637(10) 0.2729(9)
H102? H 0.0499 0.5863 0.2753
H103? H -0.0113 0.5031 0.2799
H104? H -0.0582 0.5854 0.3032
Cl13? Cl -0.0546(14) 0.1829(10) 0.3333(7)
Cl14? Cl -0.2064(12) 0.2872(11) 0.2999(9)
Cl15? Cl -0.0318(16) 0.3055(11) 0.2429(11)
O14? O 0.6905(4) 0.7163(4) 0.2916(2)
O15? O 0.6233(4) 0.6867(4) 0.1874(2)
loop_
_geom_bond_atom_site_label_1
_geom_bond_atom_site_label_2
_geom_bond_site_symmetry_1
_geom_bond_site_symmetry_2
O1 C2 1_555 1_555
O2 C3 1_555 1_555
O3 C4 1_555 1_555
O4 C6 1_555 1_555
O5 C7 1_555 1_555
O6 C8 1_555 1_555
O7 C10 1_555 1_555
O8 C11 1_555 1_555
O9 C12 1_555 1_555
O10 C33 1_555 1_555
O11 C59 1_555 1_555
O12 C85 1_555 1_555
N1 C1 1_555 1_555
C1 H1 1_555 1_555
H2 C1 1_555 1_555
C2 C1 1_555 1_555
H3 C2 1_555 1_555
H4 C2 1_555 1_555
C3 O1 1_555 1_555
C4 C3 1_555 1_555
H5 C4 1_555 1_555
H6 C4 1_555 1_555
C5 N1 1_555 1_555
H7 C5 1_555 1_555
H8 C5 1_555 1_555
C6 C5 1_555 1_555
H9 C6 1_555 1_555
H10 C6 1_555 1_555
C7 O4 1_555 1_555
C8 C7 1_555 1_555
H11 C8 1_555 1_555
H12 C8 1_555 1_555
C9 N1 1_555 1_555
H13 C9 1_555 1_555
H14 C9 1_555 1_555
C10 C9 1_555 1_555
H15 C10 1_555 1_555
H16 C10 1_555 1_555
C11 O7 1_555 1_555
C12 C11 1_555 1_555
H17 C12 1_555 1_555
H18 C12 1_555 1_555
C13 O3 1_555 1_555
C14 C13 1_555 1_555
C15 C14 1_555 1_555
H19 C15 1_555 1_555
C16 C15 1_555 1_555
C17 C16 1_555 1_555
C18 C17 1_555 1_555
H20 C18 1_555 1_555
H21 C18 1_555 1_555
H22 C18 1_555 1_555
C19 C17 1_555 1_555
H23 C19 1_555 1_555
H24 C19 1_555 1_555
H25 C19 1_555 1_555
C20 C17 1_555 1_555
H26 C20 1_555 1_555
H27 C20 1_555 1_555
H28 C20 1_555 1_555
C21 C16 1_555 1_555
H29 C21 1_555 1_555
C22 C13 1_555 1_555
C23 C22 1_555 1_555
H30 C23 1_555 1_555
H31 C23 1_555 1_555
C24 C23 1_555 1_555
C25 C24 1_555 1_555
H32 C25 1_555 1_555
C26 C25 1_555 1_555
C27 C26 1_555 1_555
C28 C27 1_555 1_555
H33 C28 1_555 1_555
H34 C28 1_555 1_555
H35 C28 1_555 1_555
C29 C27 1_555 1_555
H36 C29 1_555 1_555
H37 C29 1_555 1_555
H38 C29 1_555 1_555
C30 C27 1_555 1_555
H39 C30 1_555 1_555
H40 C30 1_555 1_555
H41 C30 1_555 1_555
C31 C26 1_555 1_555
H42 C31 1_555 1_555
C32 C31 1_555 1_555
C33 C24 1_555 1_555
C34 O10 1_555 1_555
H43 C34 1_555 1_555
H44 C34 1_555 1_555
H45 C34 1_555 1_555
C35 C32 1_555 1_555
H46 C35 1_555 1_555
H47 C35 1_555 1_555
C36 C35 1_555 1_555
C37 C36 1_555 1_555
H48 C37 1_555 1_555
C38 C37 1_555 1_555
C39 C38 1_555 1_555
H49 C39 1_555 1_555
C40 C39 1_555 1_555
C41 O6 1_555 1_555
C42 C38 1_555 1_555
C43 C42 1_555 1_555
H50 C43 1_555 1_555
H51 C43 1_555 1_555
H52 C43 1_555 1_555
C44 C42 1_555 1_555
H53 C44 1_555 1_555
H54 C44 1_555 1_555
H55 C44 1_555 1_555
C45 C42 1_555 1_555
H56 C45 1_555 1_555
H57 C45 1_555 1_555
H58 C45 1_555 1_555
C46 C40 1_555 1_555
H59 C46 1_555 1_555
H60 C46 1_555 1_555
C47 C46 1_555 1_555
C48 C47 1_555 1_555
H61 C48 1_555 1_555
C49 C48 1_555 1_555
C50 C49 1_555 1_555
C51 C50 1_555 1_555
H62 C51 1_555 1_555
H63 C51 1_555 1_555
H64 C51 1_555 1_555
C52 C50 1_555 1_555
H65 C52 1_555 1_555
H66 C52 1_555 1_555
H67 C52 1_555 1_555
C53 C50 1_555 1_555
H68 C53 1_555 1_555
H69 C53 1_555 1_555
H70 C53 1_555 1_555
C57 C49 1_555 1_555
H80 C57 1_555 1_555
C58 C57 1_555 1_555
C59 C47 1_555 1_555
C60 O11 1_555 1_555
H81 C60 1_555 1_555
H82 C60 1_555 1_555
H83 C60 1_555 1_555
C61 C58 1_555 1_555
H84 C61 1_555 1_555
H85 C61 1_555 1_555
C62 C61 1_555 1_555
C63 O9 1_555 1_555
C64 C63 1_555 1_555
C65 C64 1_555 1_555
H86 C65 1_555 1_555
C66 C65 1_555 1_555
C67 C66 1_555 1_555
C68 C67 1_555 1_555
H87 C68 1_555 1_555
H88 C68 1_555 1_555
H89 C68 1_555 1_555
C69 C67 1_555 1_555
H90 C69 1_555 1_555
H91 C69 1_555 1_555
H92 C69 1_555 1_555
C70 C67 1_555 1_555
H93 C70 1_555 1_555
H94 C70 1_555 1_555
H95 C70 1_555 1_555
C74 C62 1_555 1_555
H105 C74 1_555 1_555
C75 C64 1_555 1_555
H106 C75 1_555 1_555
H107 C75 1_555 1_555
C76 C75 1_555 1_555
C77 C76 1_555 1_555
H108 C77 1_555 1_555
C78 C77 1_555 1_555
C79 C78 1_555 1_555
C80 C79 1_555 1_555
H109 C80 1_555 1_555
H110 C80 1_555 1_555
H111 C80 1_555 1_555
C81 C79 1_555 1_555
H112 C81 1_555 1_555
H113 C81 1_555 1_555
H114 C81 1_555 1_555
C82 C79 1_555 1_555
H115 C82 1_555 1_555
H116 C82 1_555 1_555
H117 C82 1_555 1_555
C83 C78 1_555 1_555
H118 C83 1_555 1_555
C84 C83 1_555 1_555
C85 C76 1_555 1_555
C86 C14 1_555 1_555
H119 C86 1_555 1_555
H120 C86 1_555 1_555
C87 O12 1_555 1_555
H121 C87 1_555 1_555
H122 C87 1_555 1_555
H123 C87 1_555 1_555
Cl1 C88 1_555 1_555
Cl2 C88 1_555 1_555
Cl3 C88 1_555 1_555
C88 H124 1_555 1_555
Cl4 C89 1_555 1_555
Cl5 C89 1_555 1_555
Cl6 C89 1_555 1_555
C89 H125 1_555 1_555
Cl7 C90 1_555 1_555
Cl8 C90 1_555 1_555
Cl9 C90 1_555 1_555
C90 H126 1_555 1_555
C91 Cl10 1_555 1_555
Cl11 C91 1_555 1_555
Cl12 C91 1_555 1_555
Cl16 C92 1_555 1_555
Cl17 C92 1_555 1_555
Cl18 C92 1_555 1_555
C92 H127 1_555 1_555
O13 C93 1_555 1_555
C21 C22 1_555 1_555
C32 C33 1_555 1_555
C36 C41 1_555 1_555
C40 C41 1_555 1_555
C58 C59 1_555 1_555
C62 C63 1_555 1_555
C66 C74 1_555 1_555
C84 C86 1_555 1_555
C84 C85 1_555 1_555

#END
