
#######################################################################
#
#                 Cambridge Crystallographic Data Centre
#                                CCDC 
#
#######################################################################
#
# If this CIF has been generated from an entry in the Cambridge 
# Structural Database, then it will include bibliographic, chemical, 
# crystal, experimental, refinement or atomic coordinate data resulting 
# from the CCDC's data processing and validation procedures.
#
#######################################################################

data_QOYROL
_chemical_formula_moiety         'C42 H40 N2 O4 S2'
_chemical_name_systematic        
(S~a~)-2,2'-bis(N,N-Diethylcarbamoyloxy)-3,3'-bis(phenylthio)-1,1'-binaphthalene
_symmetry_cell_setting           orthorhombic
_symmetry_space_group_name_H-M   'P 21 21 2'
_symmetry_Int_Tables_number      18
_space_group_name_Hall           'P 2 2ab'
loop_
_symmetry_equiv_pos_site_id
_symmetry_equiv_pos_as_xyz
1 x,y,z
2 -x,-y,z
3 1/2+x,1/2-y,-z
4 1/2-x,1/2+y,-z
_cell_length_a                   12.154(8)
_cell_length_b                   16.732(3)
_cell_length_c                   9.286(6)
_cell_angle_alpha                90
_cell_angle_beta                 90
_cell_angle_gamma                90
_cell_volume                     1888.41
_exptl_crystal_colour            colorless
_exptl_crystal_description       prism
_chemical_melting_point          145-146deg.C
_cell_formula_units_Z            2
_exptl_crystal_recrystallization_method 'dichloromethane/light petroleum ether'
loop_
_atom_site_label
_atom_site_type_symbol
_atom_site_fract_x
_atom_site_fract_y
_atom_site_fract_z
S1 S 0.9676(1) 0.24014(7) 0.7497(2)
O1 O 1.0887(3) 0.4047(2) 0.7690(4)
O2 O 1.1785(4) 0.3229(2) 0.9263(5)
N1 N 1.2668(4) 0.3744(3) 0.7306(6)
C1 C 0.9655(5) 0.4629(3) 0.9347(6)
C2 C 0.9942(5) 0.3984(3) 0.8523(5)
C3 C 0.9286(5) 0.3280(3) 0.8439(6)
C4 C 0.8349(5) 0.3250(3) 0.9235(7)
C5 C 0.7042(5) 0.3834(4) 1.0980(7)
C6 C 0.6744(6) 0.4450(4) 1.1856(8)
C7 C 0.7391(6) 0.5148(4) 1.1928(7)
C8 C 0.8337(6) 0.5210(3) 1.1120(7)
C9 C 0.8663(5) 0.4580(3) 1.0194(6)
C10 C 0.8018(4) 0.3878(3) 1.0147(6)
C11 C 1.1808(5) 0.3626(3) 0.8179(7)
C12 C 1.2614(6) 0.4234(5) 0.6003(8)
C13 C 1.290(1) 0.5093(6) 0.624(1)
C14 C 1.3707(5) 0.3348(4) 0.7707(9)
C15 C 1.4345(7) 0.3780(7) 0.881(1)
C16 C 1.0119(5) 0.2706(3) 0.5770(6)
C17 C 1.1018(6) 0.2309(4) 0.5195(8)
C18 C 1.1360(7) 0.2441(5) 0.3811(9)
C19 C 1.0825(8) 0.3008(5) 0.2994(8)
C20 C 0.9964(8) 0.3437(4) 0.3551(8)
C21 C 0.9597(6) 0.3282(4) 0.4948(7)
H1 H 0.7858 0.2790 0.9217
H2 H 0.6577 0.3349 1.0974
H3 H 0.5943 0.4433 1.2337
H4 H 0.7086 0.5635 1.2389
H5 H 0.8826 0.5707 1.1092
H6 H 1.1400 0.1919 0.5905
H7 H 1.2022 0.2152 0.3369
H8 H 1.1086 0.3078 0.2031
H9 H 0.9663 0.3853 0.2888
H10 H 0.9027 0.3551 0.5399
H11 H 1.3143 0.3982 0.5323
H12 H 1.1878 0.4200 0.5529
H13 H 1.3688 0.5102 0.6575
H14 H 1.2860 0.5384 0.5349
H15 H 1.2342 0.5337 0.7044
H16 H 1.3421 0.2756 0.8044
H17 H 1.4149 0.3300 0.6659
H18 H 1.5003 0.3565 0.9073
H19 H 1.4502 0.4286 0.8446
H20 H 1.3792 0.3826 0.9785
C1A C 1.0345(5) 0.5371(3) 0.9347(6)
C2A C 1.0058(5) 0.6016(3) 0.8523(5)
O1A O 0.9113(3) 0.5953(2) 0.7690(4)
C11A C 0.8192(5) 0.6374(3) 0.8179(7)
O2A O 0.8215(4) 0.6771(2) 0.9263(5)
N1A N 0.7332(4) 0.6256(3) 0.7306(6)
C12A C 0.7386(6) 0.5766(5) 0.6003(8)
C13A C 0.710(1) 0.4907(6) 0.624(1)
H13A H 0.6312 0.4898 0.6575
H14A H 0.7140 0.4616 0.5349
H15A H 0.7658 0.4663 0.7044
H11A H 0.6857 0.6018 0.5323
H12A H 0.8122 0.5800 0.5529
C14A C 0.6293(5) 0.6652(4) 0.7707(9)
C15A C 0.5655(7) 0.6220(7) 0.881(1)
H18A H 0.4997 0.6435 0.9073
H19A H 0.5498 0.5714 0.8446
H20A H 0.6208 0.6174 0.9785
H16A H 0.6579 0.7244 0.8044
H17A H 0.5851 0.6700 0.6659
C3A C 1.0714(5) 0.6720(3) 0.8439(6)
S1A S 1.0324(1) 0.75986(7) 0.7497(2)
C16A C 0.9881(5) 0.7294(3) 0.5770(6)
C17A C 0.8982(6) 0.7691(4) 0.5195(8)
C18A C 0.8640(7) 0.7559(5) 0.3811(9)
C19A C 0.9175(8) 0.6992(5) 0.2994(8)
C20A C 1.0036(8) 0.6563(4) 0.3551(8)
C21A C 1.0403(6) 0.6718(4) 0.4948(7)
H10A H 1.0973 0.6449 0.5399
H9A H 1.0337 0.6147 0.2888
H8A H 0.8914 0.6922 0.2031
H7A H 0.7978 0.7848 0.3369
H6A H 0.8600 0.8081 0.5905
C4A C 1.1651(5) 0.6750(3) 0.9235(7)
C10A C 1.1982(4) 0.6122(3) 1.0147(6)
C5A C 1.2958(5) 0.6166(4) 1.0980(7)
C6A C 1.3256(6) 0.5550(4) 1.1856(8)
C7A C 1.2609(6) 0.4852(4) 1.1928(7)
C8A C 1.1663(6) 0.4790(3) 1.1120(7)
C9A C 1.1337(5) 0.5420(3) 1.0194(6)
H5A H 1.1174 0.4293 1.1092
H4A H 1.2914 0.4365 1.2389
H3A H 1.4057 0.5567 1.2337
H2A H 1.3423 0.6651 1.0974
H1A H 1.2142 0.7210 0.9217
loop_
_geom_bond_atom_site_label_1
_geom_bond_atom_site_label_2
_geom_bond_site_symmetry_1
_geom_bond_site_symmetry_2
S1 C3 1_555 1_555
O1 C2 1_555 1_555
O2 C11 1_555 1_555
N1 C11 1_555 1_555
C1 C2 1_555 1_555
C2 C3 1_555 1_555
C3 C4 1_555 1_555
C4 C10 1_555 1_555
C5 C6 1_555 1_555
C6 C7 1_555 1_555
C7 C8 1_555 1_555
C8 C9 1_555 1_555
C9 C1 1_555 1_555
C10 C5 1_555 1_555
C11 O1 1_555 1_555
C12 N1 1_555 1_555
C13 C12 1_555 1_555
C14 N1 1_555 1_555
C15 C14 1_555 1_555
C16 S1 1_555 1_555
C17 C16 1_555 1_555
C18 C17 1_555 1_555
C19 C18 1_555 1_555
C20 C19 1_555 1_555
C21 C16 1_555 1_555
H1 C4 1_555 1_555
H2 C5 1_555 1_555
H3 C6 1_555 1_555
H4 C7 1_555 1_555
H5 C8 1_555 1_555
H6 C17 1_555 1_555
H7 C18 1_555 1_555
H8 C19 1_555 1_555
H9 C20 1_555 1_555
H10 C21 1_555 1_555
H11 C12 1_555 1_555
H12 C12 1_555 1_555
H13 C13 1_555 1_555
H14 C13 1_555 1_555
H15 C13 1_555 1_555
H16 C14 1_555 1_555
H17 C14 1_555 1_555
H18 C15 1_555 1_555
H19 C15 1_555 1_555
H20 C15 1_555 1_555
C1A C1 1_555 1_555
C2A C1A 1_555 1_555
O1A C2A 1_555 1_555
C11A O1A 1_555 1_555
O2A C11A 1_555 1_555
N1A C11A 1_555 1_555
C12A N1A 1_555 1_555
C13A C12A 1_555 1_555
H13A C13A 1_555 1_555
H14A C13A 1_555 1_555
H15A C13A 1_555 1_555
H11A C12A 1_555 1_555
H12A C12A 1_555 1_555
C14A N1A 1_555 1_555
C15A C14A 1_555 1_555
H18A C15A 1_555 1_555
H19A C15A 1_555 1_555
H20A C15A 1_555 1_555
H16A C14A 1_555 1_555
H17A C14A 1_555 1_555
C3A C2A 1_555 1_555
S1A C3A 1_555 1_555
C16A S1A 1_555 1_555
C17A C16A 1_555 1_555
C18A C17A 1_555 1_555
C19A C18A 1_555 1_555
C20A C19A 1_555 1_555
C21A C16A 1_555 1_555
H10A C21A 1_555 1_555
H9A C20A 1_555 1_555
H8A C19A 1_555 1_555
H7A C18A 1_555 1_555
H6A C17A 1_555 1_555
C4A C3A 1_555 1_555
C10A C4A 1_555 1_555
C5A C10A 1_555 1_555
C6A C5A 1_555 1_555
C7A C6A 1_555 1_555
C8A C7A 1_555 1_555
C9A C1A 1_555 1_555
H5A C8A 1_555 1_555
H4A C7A 1_555 1_555
H3A C6A 1_555 1_555
H2A C5A 1_555 1_555
H1A C4A 1_555 1_555
C9 C10 1_555 1_555
C20 C21 1_555 1_555
C20A C21A 1_555 1_555
C10A C9A 1_555 1_555
C8A C9A 1_555 1_555

#END
