
#######################################################################
#
#                 Cambridge Crystallographic Data Centre
#                                CCDC 
#
#######################################################################
#
# If this CIF has been generated from an entry in the Cambridge 
# Structural Database, then it will include bibliographic, chemical, 
# crystal, experimental, refinement or atomic coordinate data resulting 
# from the CCDC's data processing and validation procedures.
#
#######################################################################

data_QOZTOQ
_chemical_name_common            
5,11,17,23-tetra-t-butyl-25,27-(2,2'-(benzene-1,3-diylbis[imino(6-chloro-1,3,5-triazine-4,2-diyl)imino])diethanolate)-26,28-bis(2-methoxyethoxy)calix(4)arene
_chemical_formula_moiety         'C62 H74 Cl2 N10 O6 S4,C4 H8 O2,3(H2 O1)'
_chemical_name_systematic        
'31,37,43,48-tetra-t-butyl-9,21-dichloro-52,53-bis(2-methoxyethoxy)-3,27-dioxa-34,40,45,51-tetrathia-6,8,10,12,18,20,22,24,54,56-decaazanonacyclo[27.15.7.1^7,11^.1^13,17^.1^19,23^.1^35,39^.1^46,50^.0^2,41^.0^28,33^]hexapentaconta-1,7(56),8,10,13(55),14,16,19(54),20,22,28,30,32,35(53),36,38,41,43,46(52),47,49-henicosaene ethyl acetate solvate trihydrate'
_symmetry_cell_setting           monoclinic
_symmetry_space_group_name_H-M   'P 21/n'
_symmetry_Int_Tables_number      14
_space_group_name_Hall           '-P 2yn'
loop_
_symmetry_equiv_pos_site_id
_symmetry_equiv_pos_as_xyz
1 x,y,z
2 1/2-x,1/2+y,1/2-z
3 -x,-y,-z
4 1/2+x,1/2-y,1/2+z
_cell_length_a                   15.6034(7)
_cell_length_b                   24.9078(11)
_cell_length_c                   19.4826(9)
_cell_angle_alpha                90
_cell_angle_beta                 97.318(2)
_cell_angle_gamma                90
_cell_volume                     7510.17
_cell_formula_units_Z            4
loop_
_atom_site_label
_atom_site_type_symbol
_atom_site_fract_x
_atom_site_fract_y
_atom_site_fract_z
S1 S 0.52021(8) 0.30097(4) 0.38280(6)
S2 S 0.56485(8) 0.24037(4) 0.11393(6)
S3 S 0.42423(7) 0.43559(4) 0.02267(5)
S4 S 0.36636(7) 0.49502(4) 0.28855(6)
Cl1 Cl 1.08611(8) 0.16056(4) 0.38461(8)
Cl2 Cl 0.89387(8) 0.65594(5) 0.14542(8)
O1 O 0.47815(16) 0.46755(10) 0.17780(14)
O2 O 0.60624(17) 0.30558(10) 0.25045(16)
O3 O 0.38128(17) 0.36918(11) 0.29834(14)
O4 O 0.2259(2) 0.34628(14) 0.41787(19)
N1 N 0.7430(2) 0.62049(12) 0.16269(18)
N2 N 0.9214(2) 0.30081(13) 0.3353(2)
O5 O 0.42067(18) 0.32233(12) 0.08194(16)
N3 N 0.6070(2) 0.59056(14) 0.1776(2)
N4 N 1.0607(2) 0.26203(13) 0.3634(2)
N5 N 0.7216(2) 0.53504(12) 0.21424(18)
N6 N 0.8381(2) 0.48569(14) 0.2579(2)
N7 N 0.8643(2) 0.56603(13) 0.20321(19)
C1 C 1.0210(3) 0.21647(16) 0.3639(2)
C2 C 0.4193(3) 0.23348(16) 0.2999(2)
H1 H 0.3887 0.2316 0.3378
N8 N 1.0489(3) 0.35085(14) 0.3466(2)
C3 C 0.6922(3) 0.58075(15) 0.1851(2)
C4 C 0.3346(2) 0.46613(15) 0.2064(2)
C5 C 0.3922(2) 0.45896(14) 0.15816(19)
C6 C 0.2473(2) 0.45659(16) 0.1874(2)
H2 H 0.2096 0.4613 0.2203
C7 C 0.5359(2) 0.27295(14) 0.2468(2)
C8 C 0.5181(3) 0.37166(17) 0.3696(2)
C9 C 0.9233(3) 0.47245(15) 0.2861(2)
C10 C 0.5459(3) 0.55345(16) 0.2015(2)
H3 H 0.4960 0.5731 0.2130
H4 H 0.5725 0.5356 0.2431
C11 C 0.2723(3) 0.43187(17) 0.0744(2)
H5 H 0.2519 0.4199 0.0301
C12 C 0.9406(3) 0.41867(15) 0.3012(2)
H6 H 0.8976 0.3930 0.2911
C13 C 0.5134(3) 0.39360(16) 0.0519(2)
C14 C 0.3603(2) 0.44077(15) 0.0915(2)
C15 C 0.8248(3) 0.60835(15) 0.1735(2)
C16 C 0.4480(2) 0.39842(16) 0.33305(19)
C17 C 0.4879(3) 0.26927(15) 0.3020(2)
N9 N 0.8048(2) 0.24211(16) 0.3345(2)
C18 C 0.2140(3) 0.44034(18) 0.1215(2)
C19 C 1.0221(3) 0.40369(15) 0.3313(2)
C20 C 0.3945(3) 0.20042(16) 0.2434(2)
C21 C 0.6546(3) 0.32775(18) 0.0813(2)
H7 H 0.7022 0.3054 0.0921
C22 C 0.5850(3) 0.4006(2) 0.4069(2)
H8 H 0.6311 0.3820 0.4309
C23 C 0.6679(3) 0.37886(18) 0.0572(2)
C24 C 0.4504(3) 0.45441(16) 0.3309(2)
C25 C 0.8074(3) 0.53066(15) 0.2245(2)
C26 C 0.5849(3) 0.4556(2) 0.4090(2)
C27 C 0.5012(3) 0.34072(16) 0.0742(2)
C28 C 1.0065(3) 0.30376(15) 0.3474(2)
C29 C 0.5177(3) 0.51269(17) 0.1475(2)
H9 H 0.4765 0.5287 0.1118
H10 H 0.5671 0.5005 0.1262
C30 C 0.4402(3) 0.20674(16) 0.1870(2)
H11 H 0.4238 0.1864 0.1475
C31 C 0.5952(3) 0.41078(17) 0.0433(2)
H12 H 0.6020 0.4455 0.0274
C32 C 0.5736(3) 0.30838(16) 0.0901(2)
C33 C 0.5178(3) 0.48189(18) 0.3695(2)
H13 H 0.5177 0.5192 0.3687
C34 C 0.8901(3) 0.25073(15) 0.3406(2)
C35 C 0.5082(3) 0.24167(15) 0.1870(2)
C36 C 1.0862(3) 0.44186(17) 0.3457(3)
H14 H 1.1412 0.4317 0.3655
C37 C 0.1168(3) 0.4299(2) 0.1039(3)
C38 C 0.7580(3) 0.3993(2) 0.0482(3)
C39 C 0.6594(3) 0.4860(2) 0.4517(3)
C40 C 1.0684(3) 0.49474(18) 0.3308(3)
H15 H 1.1117 0.5203 0.3406
C41 C 0.6882(3) 0.2777(2) 0.2549(3)
H16 H 0.7225 0.2928 0.2214
H17 H 0.6781 0.2401 0.2437
C42 C 0.9866(3) 0.51081(17) 0.3011(3)
H18 H 0.9749 0.5468 0.2916
C43 C 0.3020(3) 0.3376(2) 0.3909(3)
H19 H 0.3073 0.2999 0.3794
H20 H 0.3508 0.3472 0.4246
C44 C 0.3015(3) 0.3711(2) 0.3277(3)
H21 H 0.2551 0.3590 0.2932
H22 H 0.2897 0.4080 0.3391
C45 C 0.7361(3) 0.2825(2) 0.3250(3)
H23 H 0.7610 0.3181 0.3313
H24 H 0.6969 0.2773 0.3593
C46 C 0.3757(4) 0.2999(3) 0.0184(4)
H25 H 0.4047 0.2677 0.0055
H26 H 0.3743 0.3257 -0.0190
C47 C 0.3211(4) 0.1611(2) 0.2449(3)
C48 C 0.0920(5) 0.3833(4) 0.1498(4)
H27 H 0.0313 0.3760 0.1394
H28 H 0.1050 0.3931 0.1976
H29 H 0.1243 0.3518 0.1408
C49 C 0.2991(5) 0.1311(2) 0.1750(4)
H30 H 0.2523 0.1065 0.1784
H31 H 0.3489 0.1115 0.1648
H32 H 0.2824 0.1566 0.1389
C50 C 0.0683(4) 0.4812(3) 0.1171(4)
H33 H 0.0852 0.5094 0.0880
H34 H 0.0819 0.4915 0.1648
H35 H 0.0072 0.4751 0.1069
C51 C 0.0914(4) 0.4154(4) 0.0278(3)
H36 H 0.1073 0.4442 -0.0008
H37 H 0.0301 0.4098 0.0193
H38 H 0.1209 0.3832 0.0173
C52 C 0.7317(5) 0.4909(5) 0.4117(5)
H39 H 0.7126 0.5083 0.3685
H40 H 0.7534 0.4558 0.4030
H41 H 0.7767 0.5118 0.4372
C53 C 0.2173(4) 0.3129(4) 0.4773(4)
H42 H 0.1630 0.3202 0.4937
H43 H 0.2636 0.3206 0.5133
H44 H 0.2196 0.2758 0.4644
C54 C 0.6865(6) 0.4590(4) 0.5192(4)
H45 H 0.6376 0.4557 0.5442
H46 H 0.7305 0.4800 0.5458
H47 H 0.7088 0.4240 0.5111
C55 C 0.6283(5) 0.5436(3) 0.4714(4)
H48 H 0.5813 0.5403 0.4984
H49 H 0.6095 0.5634 0.4299
H50 H 0.6753 0.5623 0.4977
C56 C 0.3483(7) 0.1196(4) 0.3006(5)
H51 H 0.3024 0.0941 0.3023
H52 H 0.3605 0.1371 0.3446
H53 H 0.3991 0.1012 0.2900
C57 C 0.8188(5) 0.3853(5) 0.1180(6)
H54 H 0.7919 0.3972 0.1570
H55 H 0.8735 0.4030 0.1182
H56 H 0.8276 0.3472 0.1210
C58 C 0.2845(7) 0.2867(4) 0.0326(7)
H57 H 0.2706 0.3081 0.0714
H58 H 0.2440 0.2962 -0.0075
C59 C 0.2409(5) 0.1910(4) 0.2580(6)
H59 H 0.1942 0.1660 0.2590
H60 H 0.2259 0.2167 0.2217
H61 H 0.2514 0.2093 0.3016
C60 C 0.7652(6) 0.4562(4) 0.0544(8)
H62 H 0.7524 0.4671 0.0993
H63 H 0.7250 0.4729 0.0194
H64 H 0.8229 0.4670 0.0487
N10 N 0.9383(2) 0.20630(13) 0.35356(19)
C61 C 0.7814(9) 0.3843(10) -0.0139(7)
H65 H 0.7747 0.3462 -0.0194
H66 H 0.8406 0.3939 -0.0157
H67 H 0.7453 0.4023 -0.0504
O6 O 0.2763(10) 0.2398(7) 0.0456(8)
C62 C 0.261(3) 0.2091(16) -0.0034(18)
H68 H 0.2583 0.1730 0.0133
H69 H 0.3065 0.2117 -0.0323
H70 H 0.2071 0.2185 -0.0297
H71 H 0.588(3) 0.6243(18) 0.162(2)
H72 H 1.110(3) 0.3494(16) 0.366(2)
H73 H 0.792(3) 0.2044(18) 0.345(2)
H74 H 0.801(3) 0.4601(18) 0.268(2)
O7 O 0.6788(3) 0.41529(14) 0.2500(2)
O8 O 0.9337(7) 0.5700(4) 0.4735(5)
O9 O 0.5790(13) 0.6612(7) 0.3479(9)
C63 C 0.6644(14) 0.6798(8) 0.3404(9)
C64 C 0.523(4) 0.701(2) 0.374(3)
H75 H 0.5628 0.7229 0.4045
H76 H 0.5051 0.7233 0.3342
C65 C 0.7218(10) 0.6515(6) 0.3355(8)
H77 H 0.7724 0.6724 0.3307
H78 H 0.7085 0.6290 0.2955
H79 H 0.7324 0.6295 0.3761
O10 O 0.6525(9) 0.7332(6) 0.3569(7)
C66 C 0.469(3) 0.700(2) 0.399(3)
H80 H 0.4519 0.7360 0.4094
H81 H 0.4810 0.6803 0.4419
H82 H 0.4222 0.6827 0.3704
O11 O 1.0474(7) 0.6090(5) 0.4960(6)
O12? O 1.0225(5) 0.5261(5) 0.5014(4)
loop_
_geom_bond_atom_site_label_1
_geom_bond_atom_site_label_2
_geom_bond_site_symmetry_1
_geom_bond_site_symmetry_2
S1 C8 1_555 1_555
S2 C32 1_555 1_555
S3 C13 1_555 1_555
S4 C4 1_555 1_555
Cl1 C1 1_555 1_555
Cl2 C15 1_555 1_555
O1 C5 1_555 1_555
O2 C7 1_555 1_555
O3 C16 1_555 1_555
O4 C43 1_555 1_555
N1 C3 1_555 1_555
N2 C28 1_555 1_555
O5 C27 1_555 1_555
N3 C3 1_555 1_555
N4 C1 1_555 1_555
N5 C3 1_555 1_555
N6 C9 1_555 1_555
N7 C15 1_555 1_555
C1 N10 1_555 1_555
C2 H1 1_555 1_555
N8 C19 1_555 1_555
C4 C5 1_555 1_555
C5 C14 1_555 1_555
C6 C4 1_555 1_555
H2 C6 1_555 1_555
C7 C17 1_555 1_555
C8 C16 1_555 1_555
C9 C12 1_555 1_555
C10 N3 1_555 1_555
H3 C10 1_555 1_555
H4 C10 1_555 1_555
C11 H5 1_555 1_555
C12 H6 1_555 1_555
C13 C27 1_555 1_555
C14 S3 1_555 1_555
C15 N1 1_555 1_555
C16 C24 1_555 1_555
C17 S1 1_555 1_555
N9 C34 1_555 1_555
C18 C6 1_555 1_555
C19 C12 1_555 1_555
C20 C2 1_555 1_555
C21 H7 1_555 1_555
C22 C8 1_555 1_555
H8 C22 1_555 1_555
C23 C21 1_555 1_555
C24 S4 1_555 1_555
C25 N5 1_555 1_555
C26 C22 1_555 1_555
C27 C32 1_555 1_555
C28 N4 1_555 1_555
C29 O1 1_555 1_555
H9 C29 1_555 1_555
H10 C29 1_555 1_555
C30 C20 1_555 1_555
H11 C30 1_555 1_555
C31 C13 1_555 1_555
H12 C31 1_555 1_555
C32 C21 1_555 1_555
C33 C24 1_555 1_555
H13 C33 1_555 1_555
C34 N2 1_555 1_555
C35 S2 1_555 1_555
C36 C19 1_555 1_555
H14 C36 1_555 1_555
C37 C18 1_555 1_555
C38 C23 1_555 1_555
C39 C26 1_555 1_555
C40 C36 1_555 1_555
H15 C40 1_555 1_555
C41 O2 1_555 1_555
H16 C41 1_555 1_555
H17 C41 1_555 1_555
C42 C9 1_555 1_555
H18 C42 1_555 1_555
C43 H19 1_555 1_555
H20 C43 1_555 1_555
C44 O3 1_555 1_555
H21 C44 1_555 1_555
H22 C44 1_555 1_555
C45 N9 1_555 1_555
H23 C45 1_555 1_555
H24 C45 1_555 1_555
C46 O5 1_555 1_555
H25 C46 1_555 1_555
H26 C46 1_555 1_555
C47 C20 1_555 1_555
C48 C37 1_555 1_555
H27 C48 1_555 1_555
H28 C48 1_555 1_555
H29 C48 1_555 1_555
C49 C47 1_555 1_555
H30 C49 1_555 1_555
H31 C49 1_555 1_555
H32 C49 1_555 1_555
C50 C37 1_555 1_555
H33 C50 1_555 1_555
H34 C50 1_555 1_555
H35 C50 1_555 1_555
C51 C37 1_555 1_555
H36 C51 1_555 1_555
H37 C51 1_555 1_555
H38 C51 1_555 1_555
C52 C39 1_555 1_555
H39 C52 1_555 1_555
H40 C52 1_555 1_555
H41 C52 1_555 1_555
C53 O4 1_555 1_555
H42 C53 1_555 1_555
H43 C53 1_555 1_555
H44 C53 1_555 1_555
C54 C39 1_555 1_555
H45 C54 1_555 1_555
H46 C54 1_555 1_555
H47 C54 1_555 1_555
C55 C39 1_555 1_555
H48 C55 1_555 1_555
H49 C55 1_555 1_555
H50 C55 1_555 1_555
C56 C47 1_555 1_555
H51 C56 1_555 1_555
H52 C56 1_555 1_555
H53 C56 1_555 1_555
C57 C38 1_555 1_555
H54 C57 1_555 1_555
H55 C57 1_555 1_555
H56 C57 1_555 1_555
C58 C46 1_555 1_555
H57 C58 1_555 1_555
H58 C58 1_555 1_555
C59 C47 1_555 1_555
H59 C59 1_555 1_555
H60 C59 1_555 1_555
H61 C59 1_555 1_555
C60 C38 1_555 1_555
H62 C60 1_555 1_555
H63 C60 1_555 1_555
H64 C60 1_555 1_555
N10 C34 1_555 1_555
C61 C38 1_555 1_555
H65 C61 1_555 1_555
H66 C61 1_555 1_555
H67 C61 1_555 1_555
O6 C58 1_555 1_555
C62 O6 1_555 1_555
H68 C62 1_555 1_555
H69 C62 1_555 1_555
H70 C62 1_555 1_555
H71 N3 1_555 1_555
H72 N8 1_555 1_555
H73 N9 1_555 1_555
H74 N6 1_555 1_555
O9 C63 1_555 1_555
C63 C65 1_555 1_555
C64 O9 1_555 1_555
H75 C64 1_555 1_555
H76 C64 1_555 1_555
C65 H77 1_555 1_555
H78 C65 1_555 1_555
H79 C65 1_555 1_555
O10 C63 1_555 1_555
C66 C64 1_555 1_555
H80 C66 1_555 1_555
H81 C66 1_555 1_555
H82 C66 1_555 1_555
N6 C25 1_555 1_555
N7 C25 1_555 1_555
C2 C17 1_555 1_555
N8 C28 1_555 1_555
C7 C35 1_555 1_555
C10 C29 1_555 1_555
C11 C14 1_555 1_555
C11 C18 1_555 1_555
C23 C31 1_555 1_555
C26 C33 1_555 1_555
C30 C35 1_555 1_555
C40 C42 1_555 1_555
C41 C45 1_555 1_555
C43 C44 1_555 1_555

#END
