
#######################################################################
#
#                 Cambridge Crystallographic Data Centre
#                                CCDC 
#
#######################################################################
#
# If this CIF has been generated from an entry in the Cambridge 
# Structural Database, then it will include bibliographic, chemical, 
# crystal, experimental, refinement or atomic coordinate data resulting 
# from the CCDC's data processing and validation procedures.
#
#######################################################################

data_QOZZEM
_chemical_formula_moiety         'C20 H14 F3 N1 O3'
_chemical_name_systematic        
'Methyl 4-benzoyl-6-methyl-2-(trifluoromethyl)quinoline-3-carboxylate'
_symmetry_cell_setting           monoclinic
_symmetry_space_group_name_H-M   'C c'
_symmetry_Int_Tables_number      9
_space_group_name_Hall           'C -2yc'
loop_
_symmetry_equiv_pos_site_id
_symmetry_equiv_pos_as_xyz
1 x,y,z
2 x,-y,1/2+z
3 1/2+x,1/2+y,z
4 1/2+x,1/2-y,1/2+z
_cell_length_a                   19.44(2)
_cell_length_b                   12.279(14)
_cell_length_c                   15.916(19)
_cell_angle_alpha                90
_cell_angle_beta                 113.637(13)
_cell_angle_gamma                90
_cell_volume                     3480.47
_cell_formula_units_Z            8
loop_
_atom_site_label
_atom_site_type_symbol
_atom_site_fract_x
_atom_site_fract_y
_atom_site_fract_z
F1 F 0.60146(16) 0.8156(2) 0.7315(2)
F2 F 0.52343(14) 0.7717(2) 0.7879(2)
F3 F 0.59815(17) 0.9037(2) 0.8451(2)
O1 O 0.55754(19) 0.5845(3) 0.7078(2)
O2 O 0.67154(18) 0.5558(3) 0.7119(2)
O3 O 0.7957(2) 0.4297(3) 0.8764(3)
N1 N 0.6832(2) 0.7619(3) 0.9577(3)
C1 C 0.7367(3) 0.6982(3) 1.0206(3)
C2 C 0.7719(3) 0.7350(4) 1.1100(3)
H1 H 0.7587 0.8020 1.1265
C3 C 0.8257(3) 0.6730(4) 1.1737(4)
H2 H 0.8490 0.6989 1.2335
C4 C 0.8471(3) 0.5716(4) 1.1523(3)
C5 C 0.8127(2) 0.5339(3) 1.0650(3)
H3 H 0.8264 0.4663 1.0501
C6 C 0.7564(2) 0.5954(3) 0.9960(3)
C7 C 0.7186(2) 0.5602(3) 0.9055(3)
C8 C 0.7348(3) 0.4470(3) 0.8792(3)
C9 C 0.6766(2) 0.3640(3) 0.8592(3)
C10 C 0.6847(3) 0.2652(4) 0.8224(4)
H4 H 0.7260 0.2521 0.8083
C11 C 0.6303(5) 0.1863(4) 0.8067(5)
H5 H 0.6347 0.1204 0.7805
C12 C 0.5699(5) 0.2034(5) 0.8292(6)
H6 H 0.5339 0.1492 0.8181
C13 C 0.5625(4) 0.2984(5) 0.8674(5)
H7 H 0.5224 0.3088 0.8844
C14 C 0.6153(3) 0.3807(4) 0.8811(4)
H8 H 0.6093 0.4474 0.9051
C15 C 0.6659(2) 0.6260(3) 0.8429(3)
C16 C 0.6501(2) 0.7273(3) 0.8735(3)
C17 C 0.5936(3) 0.8052(3) 0.8094(3)
C18 C 0.6245(2) 0.5887(3) 0.7476(3)
C19 C 0.6381(4) 0.5079(7) 0.6220(4)
H9 H 0.6206 0.5645 0.5767
H10 H 0.5966 0.4628 0.6180
H11 H 0.6748 0.4644 0.6112
C20 C 0.9080(3) 0.5061(4) 1.2231(4)
H12 H 0.9549 0.5196 1.2180
H13 H 0.8960 0.4300 1.2134
H14 H 0.9122 0.5267 1.2831
F4 F 1.0412(2) 0.7406(3) 0.5645(3)
F5 F 0.9732(2) 0.6830(3) 0.4334(3)
F6 F 0.9713(2) 0.6032(2) 0.5495(3)
O4 O 0.88645(19) 0.9186(3) 0.3149(2)
O5 O 0.99992(19) 0.9209(3) 0.4300(3)
O6 O 0.7479(2) 1.0247(3) 0.3295(3)
N2 N 0.8769(2) 0.7408(3) 0.5621(3)
C21 C 0.8185(2) 0.8029(3) 0.5620(3)
C22 C 0.7793(3) 0.7657(4) 0.6136(4)
H15 H 0.7933 0.7010 0.6465
C23 C 0.7206(3) 0.8251(4) 0.6150(4)
H16 H 0.6944 0.7993 0.6486
C24 C 0.6984(3) 0.9242(4) 0.5673(3)
C25 C 0.7357(2) 0.9606(4) 0.5161(3)
H17 H 0.7220 1.0262 0.4846
C26 C 0.7953(2) 0.8986(3) 0.5110(3)
C27 C 0.8333(2) 0.9300(3) 0.4558(3)
C28 C 0.8074(2) 1.0289(4) 0.3972(3)
C29 C 0.8530(3) 1.1293(3) 0.4247(3)
C30 C 0.9117(3) 1.1400(4) 0.5056(4)
H18 H 0.9280 1.0806 0.5449
C31 C 0.9477(4) 1.2386(5) 0.5303(5)
H19 H 0.9868 1.2462 0.5877
C32 C 0.9274(4) 1.3242(4) 0.4729(5)
H20 H 0.9533 1.3897 0.4898
C33 C 0.8690(4) 1.3145(4) 0.3902(6)
H21 H 0.8555 1.3735 0.3501
C34 C 0.8292(3) 1.2183(4) 0.3646(4)
H22 H 0.7879 1.2126 0.3089
C35 C 0.8927(2) 0.8673(3) 0.4572(3)
C36 C 0.9119(3) 0.7736(3) 0.5121(3)
C37 C 0.9747(3) 0.6999(4) 0.5157(4)
C38 C 0.9349(3) 0.9050(3) 0.4012(3)
C39 C 0.9148(4) 0.9671(5) 0.2532(4)
H23 H 0.9683 0.9749 0.2836
H24 H 0.8922 1.0374 0.2345
H25 H 0.9027 0.9214 0.2003
C40 C 0.6354(3) 0.9884(5) 0.5743(5)
H26 H 0.5886 0.9521 0.5407
H27 H 0.6343 1.0598 0.5492
H28 H 0.6429 0.9945 0.6376
loop_
_geom_bond_atom_site_label_1
_geom_bond_atom_site_label_2
_geom_bond_site_symmetry_1
_geom_bond_site_symmetry_2
F1 C17 1_555 1_555
F2 C17 1_555 1_555
F3 C17 1_555 1_555
O1 C18 1_555 1_555
O2 C18 1_555 1_555
O3 C8 1_555 1_555
N1 C1 1_555 1_555
C1 C2 1_555 1_555
C2 H1 1_555 1_555
C3 C2 1_555 1_555
H2 C3 1_555 1_555
C4 C3 1_555 1_555
C5 C4 1_555 1_555
H3 C5 1_555 1_555
C6 C1 1_555 1_555
C7 C6 1_555 1_555
C8 C7 1_555 1_555
C9 C8 1_555 1_555
C10 C9 1_555 1_555
H4 C10 1_555 1_555
C11 C10 1_555 1_555
H5 C11 1_555 1_555
C12 C11 1_555 1_555
H6 C12 1_555 1_555
C13 C12 1_555 1_555
H7 C13 1_555 1_555
C14 C9 1_555 1_555
H8 C14 1_555 1_555
C15 C7 1_555 1_555
C16 N1 1_555 1_555
C17 C16 1_555 1_555
C18 C15 1_555 1_555
C19 O2 1_555 1_555
H9 C19 1_555 1_555
H10 C19 1_555 1_555
H11 C19 1_555 1_555
C20 C4 1_555 1_555
H12 C20 1_555 1_555
H13 C20 1_555 1_555
H14 C20 1_555 1_555
F4 C37 1_555 1_555
F5 C37 1_555 1_555
F6 C37 1_555 1_555
O4 C38 1_555 1_555
O5 C38 1_555 1_555
O6 C28 1_555 1_555
N2 C21 1_555 1_555
C21 C22 1_555 1_555
C22 H15 1_555 1_555
C23 C22 1_555 1_555
H16 C23 1_555 1_555
C24 C23 1_555 1_555
C25 C24 1_555 1_555
H17 C25 1_555 1_555
C26 C21 1_555 1_555
C27 C26 1_555 1_555
C28 C27 1_555 1_555
C29 C28 1_555 1_555
C30 C29 1_555 1_555
H18 C30 1_555 1_555
C31 C30 1_555 1_555
H19 C31 1_555 1_555
C32 C31 1_555 1_555
H20 C32 1_555 1_555
C33 C32 1_555 1_555
H21 C33 1_555 1_555
C34 C29 1_555 1_555
H22 C34 1_555 1_555
C35 C27 1_555 1_555
C36 N2 1_555 1_555
C37 C36 1_555 1_555
C38 C35 1_555 1_555
C39 O4 1_555 1_555
H23 C39 1_555 1_555
H24 C39 1_555 1_555
H25 C39 1_555 1_555
C40 C24 1_555 1_555
H26 C40 1_555 1_555
H27 C40 1_555 1_555
H28 C40 1_555 1_555
C5 C6 1_555 1_555
C13 C14 1_555 1_555
C15 C16 1_555 1_555
C25 C26 1_555 1_555
C33 C34 1_555 1_555
C35 C36 1_555 1_555

#END
