
#######################################################################
#
#                 Cambridge Crystallographic Data Centre
#                                CCDC 
#
#######################################################################
#
# If this CIF has been generated from an entry in the Cambridge 
# Structural Database, then it will include bibliographic, chemical, 
# crystal, experimental, refinement or atomic coordinate data resulting 
# from the CCDC's data processing and validation procedures.
#
#######################################################################

data_QQQBSS01
_chemical_name_common            Probenecid
_chemical_formula_moiety         'C13 H19 N1 O4 S1'
_chemical_name_systematic        '4-(Dipropylsulfamoyl)benzoic acid'
_chemical_properties_biological  'possible biological activity'
_symmetry_cell_setting           triclinic
_symmetry_space_group_name_H-M   'P -1'
_symmetry_Int_Tables_number      2
_space_group_name_Hall           '-P 1'
loop_
_symmetry_equiv_pos_site_id
_symmetry_equiv_pos_as_xyz
1 x,y,z
2 -x,-y,-z
_cell_length_a                   7.535(2)
_cell_length_b                   18.473(5)
_cell_length_c                   5.317(9)
_cell_angle_alpha                92.00(5)
_cell_angle_beta                 99.02(5)
_cell_angle_gamma                94.89(2)
_cell_volume                     727.406
_cell_formula_units_Z            2
loop_
_atom_site_label
_atom_site_type_symbol
_atom_site_fract_x
_atom_site_fract_y
_atom_site_fract_z
S1 S 0.5252(2) 0.2773(1) 0.0970(3)
O1 O 0.6983(6) 0.3138(3) 0.0850(9)
O2 O 0.4030(6) 0.2525(3) -0.1295(8)
C1 C 0.4088(8) 0.3351(3) 0.2800(11)
C2 C 0.2215(9) 0.3285(3) 0.2354(12)
C3 C 0.1311(8) 0.3688(4) 0.3908(13)
C4 C 0.2282(8) 0.4144(3) 0.5859(11)
C5 C 0.4127(8) 0.4218(3) 0.6266(12)
C6 C 0.5070(8) 0.3814(4) 0.4692(12)
C7 C 0.1264(10) 0.4541(3) 0.7650(12)
O3 O 0.2200(6) 0.4995(3) 0.9284(9)
O4 O -0.0402(6) 0.4416(3) 0.7408(8)
N1 N 0.5605(8) 0.2057(3) 0.2609(11)
C8 C 0.4002(11) 0.1567(4) 0.2840(15)
C9 C 0.4064(13) 0.0831(5) 0.1686(21)
C10 C 0.2499(15) 0.0322(5) 0.2005(24)
C11 C 0.7080(11) 0.2127(5) 0.4807(14)
C12 C 0.8457(11) 0.1623(5) 0.4533(18)
C13 C 0.9861(13) 0.1666(6) 0.6819(20)
loop_
_geom_bond_atom_site_label_1
_geom_bond_atom_site_label_2
_geom_bond_site_symmetry_1
_geom_bond_site_symmetry_2
S1 O1 1_555 1_555
O2 S1 1_555 1_555
C1 S1 1_555 1_555
C2 C1 1_555 1_555
C3 C2 1_555 1_555
C4 C3 1_555 1_555
C5 C4 1_555 1_555
C6 C1 1_555 1_555
C7 C4 1_555 1_555
O3 C7 1_555 1_555
O4 C7 1_555 1_555
N1 S1 1_555 1_555
C8 N1 1_555 1_555
C9 C8 1_555 1_555
C10 C9 1_555 1_555
C11 N1 1_555 1_555
C12 C11 1_555 1_555
C13 C12 1_555 1_555
C5 C6 1_555 1_555

#END
