
#######################################################################
#
#                 Cambridge Crystallographic Data Centre
#                                CCDC 
#
#######################################################################
#
# If this CIF has been generated from an entry in the Cambridge 
# Structural Database, then it will include bibliographic, chemical, 
# crystal, experimental, refinement or atomic coordinate data resulting 
# from the CCDC's data processing and validation procedures.
#
#######################################################################

data_QUBCOF
_chemical_formula_moiety         'C41 H45 N3 O2,0.5(C3 H6 O1)'
_chemical_name_systematic        
'8,11,14-Tribenzyl-8,11,14-triaza-1,4-dioxadibenzo(e,p)cycloheptadecane acetone solvate'
_symmetry_cell_setting           orthorhombic
_symmetry_space_group_name_H-M   'P b c n'
_symmetry_Int_Tables_number      60
_space_group_name_Hall           '-P 2n 2ab'
loop_
_symmetry_equiv_pos_site_id
_symmetry_equiv_pos_as_xyz
1 x,y,z
2 1/2-x,1/2-y,1/2+z
3 1/2+x,1/2-y,-z
4 -x,y,1/2-z
5 -x,-y,-z
6 1/2+x,1/2+y,1/2-z
7 1/2-x,1/2+y,z
8 x,-y,1/2+z
_cell_length_a                   28.646(2)
_cell_length_b                   10.3600(8)
_cell_length_c                   24.664(2)
_cell_angle_alpha                90
_cell_angle_beta                 90
_cell_angle_gamma                90
_cell_volume                     7319.6
_exptl_crystal_colour            colorless
_chemical_melting_point          '94.4-95.2 deg.C'
_cell_formula_units_Z            8
loop_
_atom_site_label
_atom_site_type_symbol
_atom_site_fract_x
_atom_site_fract_y
_atom_site_fract_z
O1 O 0.0665(1) 0.9579(1) -0.0238(1)
O2 O 0.0384(1) 0.7063(1) 0.0245(1)
N1 N 0.1577(1) 1.0156(2) 0.0381(1)
N2 N 0.2010(1) 0.7730(2) -0.0239(1)
N3 N 0.1297(1) 0.5763(2) 0.0724(1)
C1 C 0.0893(1) 1.0306(2) -0.0620(1)
C2 C 0.0807(1) 1.0220(2) -0.1170(1)
C3 C 0.1041(1) 1.1010(3) -0.1530(1)
C4 C 0.1358(1) 1.1890(3) -0.1342(1)
C5 C 0.1444(1) 1.1976(2) -0.0796(1)
C6 C 0.1221(1) 1.1189(2) -0.0423(1)
C7 C 0.1330(1) 1.1280(2) 0.0171(1)
C8 C 0.1974(1) 0.8202(2) -0.0787(1)
C9 C 0.1884(1) 0.7155(2) -0.1203(1)
C10 C 0.1547(1) 0.7329(3) -0.1590(1)
C11 C 0.1461(1) 0.6379(3) -0.1985(1)
C12 C 0.1718(1) 0.5296(3) -0.1979(1)
C13 C 0.2051(1) 0.5128(3) -0.1602(1)
C14 C 0.2132(1) 0.6048(3) -0.1220(1)
C15 C 0.2233(1) 0.8658(2) 0.0120(1)
C16 C 0.2042(1) 1.0025(2) 0.0132(1)
C17 C 0.1623(1) 1.0243(2) 0.0969(1)
C18 C 0.1167(1) 1.0238(2) 0.1267(1)
C19 C 0.1067(1) 1.1158(3) 0.1655(1)
C20 C 0.0647(1) 1.1114(4) 0.1939(1)
C21 C 0.0333(1) 1.0162(4) 0.1840(1)
C22 C 0.0428(1) 0.9237(3) 0.1457(1)
C23 C 0.0840(1) 0.9282(3) 0.1172(1)
C24 C 0.1575(1) 0.7181(2) -0.0026(1)
C25 C 0.1687(1) 0.6100(2) 0.0371(1)
C26 C 0.1460(1) 0.5064(2) 0.1205(1)
C27 C 0.1757(1) 0.5885(2) 0.1570(1)
C28 C 0.2205(1) 0.5528(3) 0.1708(1)
C29 C 0.2474(1) 0.6270(4) 0.2050(1)
C30 C 0.2303(1) 0.7382(4) 0.2260(1)
C31 C 0.1856(1) 0.7768(3) 0.2129(1)
C32 C 0.1585(1) 0.7014(3) 0.1789(1)
C33 C 0.0945(1) 0.5000(2) 0.0434(1)
C34 C 0.0469(1) 0.5082(2) 0.0680(1)
C35 C 0.0286(1) 0.4115(2) 0.1005(1)
C36 C -0.0162(1) 0.4194(3) 0.1216(1)
C37 C -0.0429(1) 0.5253(3) 0.1109(1)
C38 C -0.0259(1) 0.6238(2) 0.0790(1)
C39 C 0.0189(1) 0.6151(2) 0.0575(1)
C40 C 0.0090(1) 0.8043(2) 0.0034(1)
C41 C 0.0327(1) 0.8682(2) -0.0429(1)
H1 H 0.0583 0.9607 -0.1302
H2 H 0.0982 1.0941 -0.1912
H3 H 0.1519 1.2446 -0.1591
H4 H 0.1666 1.2600 -0.0668
H5 H 0.1517 1.2035 0.0234
H6 H 0.1043 1.1382 0.0368
H7 H 0.2259 0.8638 -0.0880
H8 H 0.1726 0.8823 -0.0805
H9 H 0.1367 0.8110 -0.1591
H10 H 0.1223 0.6504 -0.2254
H11 H 0.1663 0.4638 -0.2246
H12 H 0.2234 0.4352 -0.1603
H13 H 0.2372 0.5906 -0.0955
H14 H 0.2557 0.8704 0.0023
H15 H 0.2218 0.8320 0.0482
H16 H 0.2257 1.0562 0.0327
H17 H 0.2026 1.0343 -0.0233
H18 H 0.1788 1.1021 0.1057
H19 H 0.1808 0.9529 0.1094
H20 H 0.1287 1.1832 0.1729
H21 H 0.0580 1.1761 0.2206
H22 H 0.0045 1.0134 0.2039
H23 H 0.0207 0.8560 0.1389
H24 H 0.0901 0.8639 0.0901
H25 H 0.1390 0.6850 -0.0319
H26 H 0.1399 0.7841 0.0154
H27 H 0.1778 0.5348 0.0170
H28 H 0.1947 0.6357 0.0591
H29 H 0.1636 0.4324 0.1092
H30 H 0.1194 0.4761 0.1406
H31 H 0.2333 0.4744 0.1562
H32 H 0.2784 0.5998 0.2140
H33 H 0.2491 0.7898 0.2498
H34 H 0.1732 0.8557 0.2274
H35 H 0.1272 0.7280 0.1704
H36 H 0.1042 0.4113 0.0429
H37 H 0.0929 0.5294 0.0065
H38 H 0.0474 0.3372 0.1087
H39 H -0.0283 0.3507 0.1437
H40 H -0.0738 0.5313 0.1258
H41 H -0.0449 0.6981 0.0716
H42 H 0.0023 0.8666 0.0311
H43 H -0.0200 0.7672 -0.0085
H44 H 0.0477 0.8042 -0.0651
H45 H 0.0101 0.9123 -0.0648
O3 O 0.0000 0.4045(5) 0.2500
C42 C 0.0413(2) 0.5900(6) 0.2372(2)
C43 C 0.0000 0.5201(6) 0.2500
H46 H 0.0663 0.5305 0.2304
H47 H 0.0494 0.6448 0.2672
H48 H 0.0360 0.6418 0.2056
C42C C -0.0413(2) 0.5900(6) 0.2628(2)
H46C H -0.0663 0.5305 0.2696
H47C H -0.0494 0.6448 0.2328
H48C H -0.0360 0.6418 0.2944
loop_
_geom_bond_atom_site_label_1
_geom_bond_atom_site_label_2
_geom_bond_site_symmetry_1
_geom_bond_site_symmetry_2
O1 C1 1_555 1_555
O2 C39 1_555 1_555
N1 C7 1_555 1_555
N2 C8 1_555 1_555
N3 C25 1_555 1_555
C1 C2 1_555 1_555
C2 C3 1_555 1_555
C3 C4 1_555 1_555
C4 C5 1_555 1_555
C5 C6 1_555 1_555
C6 C1 1_555 1_555
C7 C6 1_555 1_555
C8 C9 1_555 1_555
C9 C10 1_555 1_555
C10 C11 1_555 1_555
C11 C12 1_555 1_555
C12 C13 1_555 1_555
C13 C14 1_555 1_555
C14 C9 1_555 1_555
C15 N2 1_555 1_555
C16 N1 1_555 1_555
C17 N1 1_555 1_555
C18 C17 1_555 1_555
C19 C18 1_555 1_555
C20 C19 1_555 1_555
C21 C20 1_555 1_555
C22 C21 1_555 1_555
C23 C18 1_555 1_555
C24 N2 1_555 1_555
C25 C24 1_555 1_555
C26 N3 1_555 1_555
C27 C26 1_555 1_555
C28 C27 1_555 1_555
C29 C28 1_555 1_555
C30 C29 1_555 1_555
C31 C30 1_555 1_555
C32 C27 1_555 1_555
C33 N3 1_555 1_555
C34 C33 1_555 1_555
C35 C34 1_555 1_555
C36 C35 1_555 1_555
C37 C36 1_555 1_555
C38 C37 1_555 1_555
C39 C34 1_555 1_555
C40 O2 1_555 1_555
C41 O1 1_555 1_555
H1 C2 1_555 1_555
H2 C3 1_555 1_555
H3 C4 1_555 1_555
H4 C5 1_555 1_555
H5 C7 1_555 1_555
H6 C7 1_555 1_555
H7 C8 1_555 1_555
H8 C8 1_555 1_555
H9 C10 1_555 1_555
H10 C11 1_555 1_555
H11 C12 1_555 1_555
H12 C13 1_555 1_555
H13 C14 1_555 1_555
H14 C15 1_555 1_555
H15 C15 1_555 1_555
H16 C16 1_555 1_555
H17 C16 1_555 1_555
H18 C17 1_555 1_555
H19 C17 1_555 1_555
H20 C19 1_555 1_555
H21 C20 1_555 1_555
H22 C21 1_555 1_555
H23 C22 1_555 1_555
H24 C23 1_555 1_555
H25 C24 1_555 1_555
H26 C24 1_555 1_555
H27 C25 1_555 1_555
H28 C25 1_555 1_555
H29 C26 1_555 1_555
H30 C26 1_555 1_555
H31 C28 1_555 1_555
H32 C29 1_555 1_555
H33 C30 1_555 1_555
H34 C31 1_555 1_555
H35 C32 1_555 1_555
H36 C33 1_555 1_555
H37 C33 1_555 1_555
H38 C35 1_555 1_555
H39 C36 1_555 1_555
H40 C37 1_555 1_555
H41 C38 1_555 1_555
H42 C40 1_555 1_555
H43 C40 1_555 1_555
H44 C41 1_555 1_555
H45 C41 1_555 1_555
O3 C43 1_555 1_555
C42 C43 1_555 1_555
C43 C42C 1_555 1_555
H46 C42 1_555 1_555
H47 C42 1_555 1_555
H48 C42 1_555 1_555
C42C H46C 1_555 1_555
H47C C42C 1_555 1_555
H48C C42C 1_555 1_555
C15 C16 1_555 1_555
C22 C23 1_555 1_555
C31 C32 1_555 1_555
C38 C39 1_555 1_555
C40 C41 1_555 1_555

#END
