
#######################################################################
#
#                 Cambridge Crystallographic Data Centre
#                                CCDC 
#
#######################################################################
#
# If this CIF has been generated from an entry in the Cambridge 
# Structural Database, then it will include bibliographic, chemical, 
# crystal, experimental, refinement or atomic coordinate data resulting 
# from the CCDC's data processing and validation procedures.
#
#######################################################################

data_QUBDUN
_chemical_formula_moiety         'C20 H33 N1 O3'
_chemical_name_systematic        
(1S,4R,5R)-6-Cyclohexyl-4-((1R,2S,5R)-(2-isopropyl-5-methylcyclohexyl)oxy)-3-oxa-6-azabicyclo[3.1.0]hexan-2-one
_symmetry_cell_setting           triclinic
_symmetry_space_group_name_H-M   'P 1'
_symmetry_Int_Tables_number      1
_space_group_name_Hall           'P 1'
loop_
_symmetry_equiv_pos_site_id
_symmetry_equiv_pos_as_xyz
1 x,y,z
_cell_length_a                   5.438(11)
_cell_length_b                   8.117(2)
_cell_length_c                   11.572(2)
_cell_angle_alpha                96.84(3)
_cell_angle_beta                 94.48(3)
_cell_angle_gamma                101.86(3)
_cell_volume                     493.555
_cell_formula_units_Z            1
loop_
_atom_site_label
_atom_site_type_symbol
_atom_site_fract_x
_atom_site_fract_y
_atom_site_fract_z
N1 N 0.5445(7) 1.0398(5) 0.2734(4)
O1 O 0.8226(11) 0.7218(1) 0.3528(5)
O2 O 0.8223(7) 0.8158(5) 0.1791(4)
O3 O 0.5474(6) 0.7498(4) 0.0080(3)
C1 C 0.7281(9) 0.7152(6) -0.0775(4)
C2 C 0.6306(10) 0.5332(7) -0.1347(4)
C3 C 0.8064(15) 0.4956(9) -0.2258(6)
C4 C 0.8318(18) 0.6202(11) -0.3134(7)
C5 C 0.9225(16) 0.8032(10) -0.2555(6)
C6 C 0.7486(12) 0.8409(8) -0.1621(6)
C7 C 0.3524(11) 1.2808(7) 0.2550(5)
C8 C 0.1719(12) 1.3846(8) 0.3039(5)
C9 C 0.2376(13) 1.4445(7) 0.4340(6)
C10 C 0.2514(11) 1.2957(7) 0.4996(5)
C11 C 0.4338(10) 1.1913(8) 0.4508(5)
C12 C 0.3588(8) 1.1312(6) 0.3219(4)
C13 C 0.7233(10) 0.7876(7) 0.2804(5)
C14 C 0.4864(10) 0.8554(6) 0.2847(5)
C15 C 0.4449(9) 0.9123(6) 0.1709(5)
C16 C 0.6506(9) 0.8764(6) 0.1006(5)
C17 C 0.5826(12) 0.4007(8) -0.0487(6)
C18 C 0.8168(18) 0.3792(11) 0.0182(8)
C19 C 0.4304(15) 0.2318(9) -0.1092(8)
C20 C 0.9317(29) 0.9279(17) -0.3451(9)
loop_
_geom_bond_atom_site_label_1
_geom_bond_atom_site_label_2
_geom_bond_site_symmetry_1
_geom_bond_site_symmetry_2
N1 C12 1_555 1_555
O1 C13 1_555 1_555
O2 C13 1_555 1_555
O3 C1 1_555 1_555
C1 C2 1_555 1_555
C2 C3 1_555 1_555
C3 C4 1_555 1_555
C4 C5 1_555 1_555
C5 C6 1_555 1_555
C6 C1 1_555 1_555
C7 C8 1_555 1_555
C8 C9 1_555 1_555
C9 C10 1_555 1_555
C10 C11 1_555 1_555
C11 C12 1_555 1_555
C12 C7 1_555 1_555
C13 C14 1_555 1_555
C14 N1 1_555 1_555
C15 N1 1_555 1_555
C16 O2 1_555 1_555
C17 C2 1_555 1_555
C18 C17 1_555 1_555
C19 C17 1_555 1_555
C20 C5 1_555 1_555
O3 C16 1_555 1_555
C14 C15 1_555 1_555
C15 C16 1_555 1_555

#END
