
#######################################################################
#
#                 Cambridge Crystallographic Data Centre
#                                CCDC 
#
#######################################################################
#
# If this CIF has been generated from an entry in the Cambridge 
# Structural Database, then it will include bibliographic, chemical, 
# crystal, experimental, refinement or atomic coordinate data resulting 
# from the CCDC's data processing and validation procedures.
#
#######################################################################

data_QUBNIM01
_chemical_formula_moiety         'C37 H24 N2 O1 S1'
_chemical_name_systematic        
(4-(9H-carbazol-9-yl)phenyl)(4-(10H-phenothiazin-10-yl)phenyl)methanone
_symmetry_cell_setting           monoclinic
_symmetry_space_group_name_H-M   'P 21/c'
_symmetry_Int_Tables_number      14
_space_group_name_Hall           '-P 2ybc'
loop_
_symmetry_equiv_pos_site_id
_symmetry_equiv_pos_as_xyz
1 x,y,z
2 -x,1/2+y,1/2-z
3 -x,-y,-z
4 x,1/2-y,1/2+z
_cell_length_a                   9.43380(10)
_cell_length_b                   19.2193(2)
_cell_length_c                   15.1296(2)
_cell_angle_alpha                90
_cell_angle_beta                 95.1050(10)
_cell_angle_gamma                90
_cell_volume                     2732.28
_exptl_crystal_colour            colorless
_exptl_crystal_description       block
_cell_formula_units_Z            4
loop_
_atom_site_label
_atom_site_type_symbol
_atom_site_fract_x
_atom_site_fract_y
_atom_site_fract_z
S1 S 0.85570(5) -0.26004(3) 0.68285(3)
N1 N 0.61284(15) -0.18349(7) 0.74448(9)
N2 N 0.82257(15) 0.29269(7) 1.00656(9)
C1 C 0.64864(17) -0.13820(8) 0.81550(10)
C2 C 0.66058(19) -0.16152(8) 0.90340(11)
H1 H 0.6397 -0.2076 0.9158
C3 C 0.79526(19) 0.07484(8) 1.02307(10)
O1 O 0.85136(19) -0.02952(7) 1.09903(9)
C4 C 0.81943(17) 0.40197(8) 0.94723(11)
C5 C 0.80313(17) 0.33085(8) 0.92756(11)
C6 C 0.60290(18) -0.25728(8) 0.75728(10)
C7 C 0.85047(17) 0.40769(8) 1.04225(11)
C8 C 0.85393(17) 0.33946(8) 1.07666(11)
C9 C 0.91344(19) 0.11004(9) 1.06127(11)
H2 H 0.9872 0.0851 1.0914
C10 C 0.6831(2) 0.11332(9) 0.98184(12)
H3 H 0.6025 0.0905 0.9565
C11 C 0.70901(18) -0.29955(9) 0.72822(10)
C12 C 0.48644(18) -0.28736(9) 0.79201(11)
H4 H 0.4156 -0.2594 0.8122
C13 C 0.7938(2) -0.00284(9) 1.03120(11)
C14 C 0.6770(2) -0.06799(9) 0.80037(11)
H5 H 0.6692 -0.0510 0.7426
C15 C 0.90977(19) 0.38257(10) 1.22216(12)
H6 H 0.9301 0.3751 1.2827
C16 C 0.69046(19) 0.18522(9) 0.97817(12)
H7 H 0.6140 0.2106 0.9520
C17 C 0.81209(17) 0.21925(8) 1.01360(10)
C18 C 0.73175(19) -0.04673(8) 0.95696(11)
C19 C 0.5590(2) -0.11756(9) 0.60564(12)
H8 H 0.4790 -0.0982 0.6278
C20 C 0.88313(18) 0.32624(9) 1.16647(11)
H9 H 0.8847 0.2810 1.1885
C21 C 0.64365(18) -0.16427(8) 0.65635(10)
C22 C 0.7030(2) -0.11680(8) 0.97177(11)
H10 H 0.7128 -0.1338 1.0295
C23 C 0.7684(2) 0.35592(10) 0.77423(12)
H11 H 0.7514 0.3413 0.7156
C24 C 0.80867(19) 0.44990(9) 0.87795(12)
H12 H 0.8182 0.4973 0.8896
C25 C 0.7777(2) 0.30688(9) 0.84108(11)
H13 H 0.7673 0.2597 0.8287
C26 C 0.92371(18) 0.18146(8) 1.05548(11)
H14 H 1.0052 0.2041 1.0796
C27 C 0.5948(2) -0.10000(10) 0.52179(12)
H15 H 0.5390 -0.0683 0.4878
C28 C 0.9068(2) 0.45032(10) 1.18952(12)
H16 H 0.9255 0.4873 1.2285
C29 C 0.7942(2) -0.17707(10) 0.53676(12)
H17 H 0.8725 -0.1972 0.5135
C30 C 0.5800(2) -0.40063(9) 0.76649(12)
H18 H 0.5713 -0.4488 0.7691
C31 C 0.4758(2) -0.35903(9) 0.79665(12)
H19 H 0.3978 -0.3792 0.8202
C32 C 0.75901(18) -0.19528(9) 0.62094(11)
C33 C 0.6969(2) -0.37158(9) 0.73248(11)
H20 H 0.7673 -0.3999 0.7125
C34 C 0.87683(19) 0.46339(9) 1.10039(12)
H21 H 0.8742 0.5088 1.0792
C35 C 0.7161(2) -0.02365(9) 0.86948(11)
H22 H 0.7325 0.0230 0.8575
C36 C 0.7839(2) 0.42657(10) 0.79222(12)
H23 H 0.7775 0.4584 0.7457
C37 C 0.7123(2) -0.12899(10) 0.48803(12)
H24 H 0.7363 -0.1160 0.4321
loop_
_geom_bond_atom_site_label_1
_geom_bond_atom_site_label_2
_geom_bond_site_symmetry_1
_geom_bond_site_symmetry_2
S1 C11 1_555 1_555
N1 C1 1_555 1_555
N2 C5 1_555 1_555
C1 C2 1_555 1_555
C2 H1 1_555 1_555
C3 C9 1_555 1_555
O1 C13 1_555 1_555
C4 C5 1_555 1_555
C5 C25 1_555 1_555
C6 N1 1_555 1_555
C7 C4 1_555 1_555
C8 N2 1_555 1_555
C9 H2 1_555 1_555
C10 C3 1_555 1_555
H3 C10 1_555 1_555
C11 C6 1_555 1_555
C12 C6 1_555 1_555
H4 C12 1_555 1_555
C13 C3 1_555 1_555
C14 C1 1_555 1_555
H5 C14 1_555 1_555
C15 H6 1_555 1_555
C16 C10 1_555 1_555
H7 C16 1_555 1_555
C17 N2 1_555 1_555
C18 C13 1_555 1_555
C19 H8 1_555 1_555
C20 C8 1_555 1_555
H9 C20 1_555 1_555
C21 N1 1_555 1_555
C22 C2 1_555 1_555
H10 C22 1_555 1_555
C23 H11 1_555 1_555
C24 C4 1_555 1_555
H12 C24 1_555 1_555
C25 C23 1_555 1_555
H13 C25 1_555 1_555
C26 C9 1_555 1_555
H14 C26 1_555 1_555
C27 C19 1_555 1_555
H15 C27 1_555 1_555
C28 C15 1_555 1_555
H16 C28 1_555 1_555
C29 H17 1_555 1_555
C30 H18 1_555 1_555
C31 C12 1_555 1_555
H19 C31 1_555 1_555
C32 S1 1_555 1_555
C33 C11 1_555 1_555
H20 C33 1_555 1_555
C34 C7 1_555 1_555
H21 C34 1_555 1_555
C35 C14 1_555 1_555
H22 C35 1_555 1_555
C36 C23 1_555 1_555
H23 C36 1_555 1_555
C37 C27 1_555 1_555
H24 C37 1_555 1_555
C7 C8 1_555 1_555
C15 C20 1_555 1_555
C16 C17 1_555 1_555
C17 C26 1_555 1_555
C18 C22 1_555 1_555
C18 C35 1_555 1_555
C19 C21 1_555 1_555
C21 C32 1_555 1_555
C24 C36 1_555 1_555
C28 C34 1_555 1_555
C29 C32 1_555 1_555
C29 C37 1_555 1_555
C30 C31 1_555 1_555
C30 C33 1_555 1_555

#END
