
#######################################################################
#
#                 Cambridge Crystallographic Data Centre
#                                CCDC 
#
#######################################################################
#
# If this CIF has been generated from an entry in the Cambridge 
# Structural Database, then it will include bibliographic, chemical, 
# crystal, experimental, refinement or atomic coordinate data resulting 
# from the CCDC's data processing and validation procedures.
#
#######################################################################

data_QUCBOH
_chemical_formula_moiety         'C18 H22 N2 O3'
_chemical_name_systematic        
4-Isopropyl-3-(3-(1H-indol-3-yl)-2-methylpropanoyl)-1,3-oxazolidin-2-one
_symmetry_cell_setting           orthorhombic
_symmetry_space_group_name_H-M   'P 21 21 21'
_symmetry_Int_Tables_number      19
_space_group_name_Hall           'P 2ac 2ab'
loop_
_symmetry_equiv_pos_site_id
_symmetry_equiv_pos_as_xyz
1 x,y,z
2 1/2-x,-y,1/2+z
3 -x,1/2+y,1/2-z
4 1/2+x,1/2-y,-z
_cell_length_a                   7.2477(7)
_cell_length_b                   14.8835(15)
_cell_length_c                   15.7520(15)
_cell_angle_alpha                90
_cell_angle_beta                 90
_cell_angle_gamma                90
_cell_volume                     1699.19
_exptl_crystal_colour            colorless
_exptl_crystal_description       prismatic
_chemical_melting_point          '169-172 deg.C'
_cell_formula_units_Z            4
loop_
_atom_site_label
_atom_site_type_symbol
_atom_site_fract_x
_atom_site_fract_y
_atom_site_fract_z
N1 N 1.2449(4) 0.8970(2) 0.3469(2)
N2 N 0.7674(3) 0.94141(17) -0.01574(15)
O1 O 1.0212(3) 1.02380(17) -0.03386(15)
O2 O 0.5845(4) 0.9209(3) 0.10250(17)
O3 O 0.4847(3) 0.8903(2) -0.02769(19)
C1 C 0.9704(4) 0.86225(17) 0.29208(16)
C2 C 0.7885(4) 0.83118(18) 0.29630(19)
H1 H 0.7179 0.8258 0.2473
C3 C 0.7158(5) 0.8088(2) 0.3740(2)
H2 H 0.5950 0.7879 0.3774
C4 C 0.8204(6) 0.8168(2) 0.4476(2)
H3 H 0.7674 0.8018 0.4995
C5 C 0.9974(5) 0.8459(2) 0.4458(2)
H4 H 1.0664 0.8511 0.4953
C6 C 1.0716(4) 0.86762(19) 0.36777(18)
C7 C 1.2534(5) 0.9112(3) 0.2619(2)
H5 H 1.3569 0.9321 0.2332
C8 C 1.0894(4) 0.8907(2) 0.22470(18)
C9 C 1.0453(4) 0.9004(2) 0.13308(19)
H6 H 0.9627 0.8522 0.1165
H7 H 1.1582 0.8938 0.1006
C10 C 0.9556(5) 0.9906(2) 0.11028(19)
H8 H 0.8385 0.9963 0.1410
C11 C 0.9174(5) 0.9896(2) 0.0166(2)
C12 C 0.6112(5) 0.9184(3) 0.0278(3)
C13 C 0.5477(6) 0.8999(3) -0.1120(2)
H9 H 0.4756 0.9451 -0.1415
H10 H 0.5359 0.8434 -0.1423
C14 C 0.7470(5) 0.9279(3) -0.10799(19)
C15 C 0.9088(15) 0.8786(7) -0.1433(7)
H11 H 0.9859 0.9325 -0.1467
C16 C 0.8917(19) 0.8694(7) -0.2393(7)
H12 H 1.0075 0.8500 -0.2625
H13 H 0.8589 0.9265 -0.2634
H14 H 0.7980 0.8260 -0.2526
C17 C 1.0439(15) 0.8277(8) -0.1165(6)
H15 H 1.0575 0.8347 -0.0562
H16 H 1.1563 0.8451 -0.1442
H17 H 1.0170 0.7661 -0.1294
C18 C 1.0789(7) 1.0703(3) 0.1328(3)
H18 H 1.1951 1.0644 0.1040
H19 H 1.0992 1.0715 0.1930
H20 H 1.0200 1.1251 0.1154
H21 H 1.336(6) 0.915(3) 0.384(2)
H22 H 0.741(4) 0.996(2) -0.1332(17)
C19? C 0.842(2) 0.8400(8) -0.1459(9)
H23? H 0.9609 0.8704 -0.1519
C20? C 0.819(2) 0.8323(10) -0.2403(10)
H24? H 0.8992 0.7861 -0.2615
H25? H 0.8503 0.8885 -0.2665
H26? H 0.6934 0.8173 -0.2534
C21? C 0.9066(17) 0.7834(6) -0.0984(5)
H27? H 0.8104 0.7437 -0.0796
H28? H 0.9613 0.8124 -0.0502
H29? H 0.9990 0.7495 -0.1280
loop_
_geom_bond_atom_site_label_1
_geom_bond_atom_site_label_2
_geom_bond_site_symmetry_1
_geom_bond_site_symmetry_2
N1 C6 1_555 1_555
N2 C11 1_555 1_555
O1 C11 1_555 1_555
O2 C12 1_555 1_555
O3 C12 1_555 1_555
C1 C2 1_555 1_555
C2 H1 1_555 1_555
C3 C2 1_555 1_555
H2 C3 1_555 1_555
C4 C3 1_555 1_555
H3 C4 1_555 1_555
C5 C4 1_555 1_555
H4 C5 1_555 1_555
C6 C1 1_555 1_555
C7 N1 1_555 1_555
H5 C7 1_555 1_555
C8 C1 1_555 1_555
C9 C8 1_555 1_555
H6 C9 1_555 1_555
H7 C9 1_555 1_555
C10 C9 1_555 1_555
H8 C10 1_555 1_555
C11 C10 1_555 1_555
C12 N2 1_555 1_555
C13 O3 1_555 1_555
H9 C13 1_555 1_555
H10 C13 1_555 1_555
C14 N2 1_555 1_555
C15 C14 1_555 1_555
H11 C15 1_555 1_555
C16 C15 1_555 1_555
H12 C16 1_555 1_555
H13 C16 1_555 1_555
H14 C16 1_555 1_555
C17 C15 1_555 1_555
H15 C17 1_555 1_555
H16 C17 1_555 1_555
H17 C17 1_555 1_555
C18 C10 1_555 1_555
H18 C18 1_555 1_555
H19 C18 1_555 1_555
H20 C18 1_555 1_555
H21 N1 1_555 1_555
H22 C14 1_555 1_555
C5 C6 1_555 1_555
C7 C8 1_555 1_555
C13 C14 1_555 1_555

#END
