
#######################################################################
#
#                 Cambridge Crystallographic Data Centre
#                                CCDC 
#
#######################################################################
#
# If this CIF has been generated from an entry in the Cambridge 
# Structural Database, then it will include bibliographic, chemical, 
# crystal, experimental, refinement or atomic coordinate data resulting 
# from the CCDC's data processing and validation procedures.
#
#######################################################################

data_QUCMIL
_chemical_name_common            'bis(1,3,4-thiadiazol-2-yl) disulfide'
_chemical_formula_moiety         'C4 H2 N4 S4'
_chemical_name_systematic        2,2'-Disulfanediylbis(1,3,4-thiadiazole)
_symmetry_cell_setting           monoclinic
_symmetry_space_group_name_H-M   'C 2/c'
_symmetry_Int_Tables_number      15
_space_group_name_Hall           '-C 2yn'
loop_
_symmetry_equiv_pos_site_id
_symmetry_equiv_pos_as_xyz
1 x,y,z
2 -x,y,1/2-z
3 1/2+x,1/2+y,z
4 1/2-x,1/2+y,1/2-z
5 -x,-y,-z
6 x,-y,1/2+z
7 1/2-x,1/2-y,-z
8 1/2+x,1/2-y,1/2+z
_cell_length_a                   9.706(2)
_cell_length_b                   4.8980(12)
_cell_length_c                   18.008(5)
_cell_angle_alpha                90
_cell_angle_beta                 100.074(3)
_cell_angle_gamma                90
_cell_volume                     842.901
_exptl_crystal_colour            colorless
_exptl_crystal_description       block
_chemical_melting_point          '384 K'
_cell_formula_units_Z            4
_exptl_crystal_recrystallization_method ethanol
loop_
_atom_site_label
_atom_site_type_symbol
_atom_site_fract_x
_atom_site_fract_y
_atom_site_fract_z
S1 S 0.58334(4) 0.20034(8) 0.72250(2)
S2 S 0.37175(4) 0.60103(10) 0.63157(3)
C1 C 0.53518(15) 0.4548(3) 0.65306(8)
C2 C 0.43894(19) 0.7877(4) 0.56554(9)
H1 H 0.3858 0.9153 0.5347
N1 N 0.62594(14) 0.5425(3) 0.61357(8)
N2 N 0.56803(16) 0.7391(3) 0.56152(8)
S1A S 0.41666(4) 0.20034(8) 0.77750(2)
S2A S 0.62825(4) 0.60103(10) 0.86843(3)
C1A C 0.46482(15) 0.4548(3) 0.84694(8)
C2A C 0.56106(19) 0.7877(4) 0.93446(9)
H1A H 0.6142 0.9153 0.9653
N1A N 0.37406(14) 0.5425(3) 0.88643(8)
N2A N 0.43197(16) 0.7391(3) 0.93848(8)
loop_
_geom_bond_atom_site_label_1
_geom_bond_atom_site_label_2
_geom_bond_site_symmetry_1
_geom_bond_site_symmetry_2
S1 C1 1_555 1_555
S2 C1 1_555 1_555
C1 N1 1_555 1_555
C2 S2 1_555 1_555
H1 C2 1_555 1_555
N1 N2 1_555 1_555
N2 C2 1_555 1_555
S1A S1 1_555 1_555
S2A C1A 1_555 1_555
C1A S1A 1_555 1_555
C2A S2A 1_555 1_555
H1A C2A 1_555 1_555
N1A C1A 1_555 1_555
N2A C2A 1_555 1_555
N1A N2A 1_555 1_555

#END
