
#######################################################################
#
#                 Cambridge Crystallographic Data Centre
#                                CCDC 
#
#######################################################################
#
# If this CIF has been generated from an entry in the Cambridge 
# Structural Database, then it will include bibliographic, chemical, 
# crystal, experimental, refinement or atomic coordinate data resulting 
# from the CCDC's data processing and validation procedures.
#
#######################################################################

data_QUDVOC
_chemical_formula_moiety         'C30 H24 Cl1 N3 O1'
_chemical_name_systematic        
2-(4-chlorophenyl)-3-(diphenylamino)-1-(1-phenyl-1H-imidazol-2-yl)propan-1-one
_symmetry_cell_setting           orthorhombic
_symmetry_space_group_name_H-M   'P 21 21 21'
_symmetry_Int_Tables_number      19
_space_group_name_Hall           'P 2ac 2ab'
loop_
_symmetry_equiv_pos_site_id
_symmetry_equiv_pos_as_xyz
1 x,y,z
2 1/2+x,1/2-y,-z
3 -x,1/2+y,1/2-z
4 1/2-x,-y,1/2+z
_cell_length_a                   9.2411(4)
_cell_length_b                   11.5916(6)
_cell_length_c                   23.1471(12)
_cell_angle_alpha                90
_cell_angle_beta                 90
_cell_angle_gamma                90
_cell_volume                     2479.5
_exptl_crystal_colour            colorless
_exptl_crystal_description       needle
_cell_formula_units_Z            4
loop_
_atom_site_label
_atom_site_type_symbol
_atom_site_fract_x
_atom_site_fract_y
_atom_site_fract_z
Cl1 Cl -0.02803(9) 0.32824(7) 0.01552(3)
O1 O 0.0551(2) 0.36943(17) 0.30632(9)
C1 C 0.0727(3) 0.2667(3) 0.29690(12)
C2 C -0.0439(3) 0.1940(2) 0.26713(11)
H1 H -0.0195 0.1104 0.2713
C3 C -0.1918(3) 0.2176(2) 0.29559(12)
H2 H -0.2083 0.3020 0.2967
H3 H -0.2687 0.1830 0.2714
N1 N -0.2043(2) 0.1722(2) 0.35388(9)
C4 C 0.2084(3) 0.2074(2) 0.31148(12)
N2 N 0.3275(2) 0.2606(2) 0.33505(10)
C5 C 0.4312(3) 0.1777(3) 0.34110(12)
H4 H 0.5261 0.1878 0.3560
C6 C 0.3716(3) 0.0775(3) 0.32155(13)
H5 H 0.4195 0.0050 0.3211
N3 N 0.2333(2) 0.0958(2) 0.30274(10)
C7 C 0.3464(3) 0.3798(3) 0.35101(13)
C8 C 0.4289(3) 0.4508(3) 0.31618(13)
H6 H 0.4733 0.4213 0.2822
C9 C 0.4460(3) 0.5650(3) 0.33135(13)
H7 H 0.5022 0.6147 0.3076
C10 C 0.3820(3) 0.6075(3) 0.38075(14)
H8 H 0.3925 0.6866 0.3906
C11 C 0.3023(3) 0.5348(3) 0.41608(14)
H9 H 0.2602 0.5637 0.4506
C12 C 0.2840(3) 0.4203(3) 0.40116(13)
H10 H 0.2293 0.3702 0.4251
C13 C -0.0446(3) 0.2261(2) 0.20342(12)
C14 C 0.0053(3) 0.1485(2) 0.16226(12)
H11 H 0.0366 0.0739 0.1738
C15 C 0.0098(3) 0.1794(3) 0.10446(12)
H12 H 0.0447 0.1265 0.0764
C16 C -0.0371(3) 0.2876(2) 0.08808(12)
C17 C -0.0893(3) 0.3650(2) 0.12792(13)
H13 H -0.1230 0.4387 0.1160
C18 C -0.0922(3) 0.3342(3) 0.18570(12)
H14 H -0.1272 0.3876 0.2136
C19 C -0.1710(3) 0.2454(3) 0.40170(12)
C20 C -0.2423(3) 0.3498(3) 0.40855(13)
H15 H -0.3118 0.3736 0.3807
C21 C -0.2128(3) 0.4200(3) 0.45578(14)
H16 H -0.2616 0.4917 0.4600
C22 C -0.1124(3) 0.3855(3) 0.49673(13)
H17 H -0.0931 0.4326 0.5294
C23 C -0.0405(3) 0.2818(3) 0.48963(13)
H18 H 0.0288 0.2580 0.5175
C24 C -0.0686(3) 0.2126(3) 0.44244(12)
H19 H -0.0176 0.1421 0.4378
C25 C -0.2446(3) 0.0565(2) 0.36291(12)
C26 C -0.2909(3) 0.0194(2) 0.41695(12)
H20 H -0.2917 0.0721 0.4484
C27 C -0.3357(3) -0.0930(3) 0.42550(13)
H21 H -0.3675 -0.1166 0.4627
C28 C -0.3348(3) -0.1717(3) 0.38057(13)
H22 H -0.3632 -0.2495 0.3867
C29 C -0.2915(3) -0.1346(2) 0.32663(13)
H23 H -0.2925 -0.1874 0.2953
C30 C -0.2469(3) -0.0226(2) 0.31719(12)
H24 H -0.2178 0.0009 0.2796
loop_
_geom_bond_atom_site_label_1
_geom_bond_atom_site_label_2
_geom_bond_site_symmetry_1
_geom_bond_site_symmetry_2
Cl1 C16 1_555 1_555
O1 C1 1_555 1_555
C1 C2 1_555 1_555
C2 H1 1_555 1_555
C3 C2 1_555 1_555
H2 C3 1_555 1_555
H3 C3 1_555 1_555
N1 C3 1_555 1_555
C4 C1 1_555 1_555
N2 C4 1_555 1_555
C5 N2 1_555 1_555
H4 C5 1_555 1_555
C6 C5 1_555 1_555
H5 C6 1_555 1_555
N3 C4 1_555 1_555
C7 N2 1_555 1_555
C8 C7 1_555 1_555
H6 C8 1_555 1_555
C9 C8 1_555 1_555
H7 C9 1_555 1_555
C10 C9 1_555 1_555
H8 C10 1_555 1_555
C11 C10 1_555 1_555
H9 C11 1_555 1_555
C12 C7 1_555 1_555
H10 C12 1_555 1_555
C13 C2 1_555 1_555
C14 C13 1_555 1_555
H11 C14 1_555 1_555
C15 C14 1_555 1_555
H12 C15 1_555 1_555
C16 C15 1_555 1_555
C17 C16 1_555 1_555
H13 C17 1_555 1_555
C18 C13 1_555 1_555
H14 C18 1_555 1_555
C19 N1 1_555 1_555
C20 C19 1_555 1_555
H15 C20 1_555 1_555
C21 C20 1_555 1_555
H16 C21 1_555 1_555
C22 C21 1_555 1_555
H17 C22 1_555 1_555
C23 C22 1_555 1_555
H18 C23 1_555 1_555
C24 C19 1_555 1_555
H19 C24 1_555 1_555
C25 N1 1_555 1_555
C26 C25 1_555 1_555
H20 C26 1_555 1_555
C27 C26 1_555 1_555
H21 C27 1_555 1_555
C28 C27 1_555 1_555
H22 C28 1_555 1_555
C29 C28 1_555 1_555
H23 C29 1_555 1_555
C30 C25 1_555 1_555
H24 C30 1_555 1_555
C6 N3 1_555 1_555
C11 C12 1_555 1_555
C17 C18 1_555 1_555
C23 C24 1_555 1_555
C29 C30 1_555 1_555

#END
