
#######################################################################
#
#                 Cambridge Crystallographic Data Centre
#                                CCDC 
#
#######################################################################
#
# If this CIF has been generated from an entry in the Cambridge 
# Structural Database, then it will include bibliographic, chemical, 
# crystal, experimental, refinement or atomic coordinate data resulting 
# from the CCDC's data processing and validation procedures.
#
#######################################################################

data_QUJXUQ
_chemical_formula_moiety         'C4 H4 N6'
_chemical_name_systematic        N'-Cyano-1H-1,2,3-triazole-1-carboximidamide
_symmetry_cell_setting           monoclinic
_symmetry_space_group_name_H-M   'P 21/n'
_symmetry_Int_Tables_number      14
_space_group_name_Hall           '-P 2yn'
loop_
_symmetry_equiv_pos_site_id
_symmetry_equiv_pos_as_xyz
1 x,y,z
2 1/2-x,1/2+y,1/2-z
3 -x,-y,-z
4 1/2+x,1/2-y,1/2+z
_cell_length_a                   3.7428(17)
_cell_length_b                   19.927(8)
_cell_length_c                   7.875(4)
_cell_angle_alpha                90
_cell_angle_beta                 100.296(7)
_cell_angle_gamma                90
_cell_volume                     577.882
_exptl_crystal_colour            colorless
_exptl_crystal_description       Prism
_cell_formula_units_Z            4
_exptl_crystal_recrystallization_method methanol
loop_
_atom_site_label
_atom_site_type_symbol
_atom_site_fract_x
_atom_site_fract_y
_atom_site_fract_z
N1 N 0.0218(8) 0.73142(13) 0.5279(3)
N2 N 0.1207(7) 0.70918(12) 0.3870(3)
N3 N 0.1283(7) 0.64083(12) 0.4007(3)
N4 N 0.3429(7) 0.62930(12) 0.1425(3)
H1 H 0.3595 0.6737 0.1345
H2 H 0.4165 0.6044 0.0554
N5 N 0.1895(7) 0.53576(12) 0.2998(3)
N6 N 0.3579(8) 0.44411(13) 0.1176(4)
C1 C -0.0318(9) 0.67836(15) 0.6306(4)
H3 H -0.1037 0.6815 0.7401
C2 C 0.0344(9) 0.62074(15) 0.5508(4)
H4 H 0.0184 0.5761 0.5911
C3 C 0.2282(8) 0.59983(14) 0.2705(4)
C4 C 0.2859(9) 0.48999(14) 0.1942(4)
loop_
_geom_bond_atom_site_label_1
_geom_bond_atom_site_label_2
_geom_bond_site_symmetry_1
_geom_bond_site_symmetry_2
N1 N2 1_555 1_555
N2 N3 1_555 1_555
N3 C2 1_555 1_555
N4 H1 1_555 1_555
H2 N4 1_555 1_555
N5 C3 1_555 1_555
N6 C4 1_555 1_555
C1 N1 1_555 1_555
H3 C1 1_555 1_555
C2 C1 1_555 1_555
H4 C2 1_555 1_555
C3 N3 1_555 1_555
C4 N5 1_555 1_555
N4 C3 1_555 1_555

#END
