
#######################################################################
#
#                 Cambridge Crystallographic Data Centre
#                                CCDC 
#
#######################################################################
#
# If this CIF has been generated from an entry in the Cambridge 
# Structural Database, then it will include bibliographic, chemical, 
# crystal, experimental, refinement or atomic coordinate data resulting 
# from the CCDC's data processing and validation procedures.
#
#######################################################################

data_QUKBOO
_chemical_formula_moiety         'C36 H54 Ba2 Cl4 N2 O28'
_chemical_name_systematic        
bis(\m~2~-Perchlorato-O,O',O'')-bis(16-methyl-2,3,5,6,8,9,11,12,15,16-decahydro-14H-1,4,7,10,13,16-benzopentaoxazacyclooctadecine-19-carbaldehyde)-bis(perchlorato-O)-di-barium(ii)
_symmetry_cell_setting           monoclinic
_symmetry_space_group_name_H-M   'P 21/n'
_symmetry_Int_Tables_number      14
_space_group_name_Hall           '-P 2yn'
loop_
_symmetry_equiv_pos_site_id
_symmetry_equiv_pos_as_xyz
1 x,y,z
2 1/2-x,1/2+y,1/2-z
3 -x,-y,-z
4 1/2+x,1/2-y,1/2+z
_cell_length_a                   8.9885(5)
_cell_length_b                   26.7470(14)
_cell_length_c                   10.7487(6)
_cell_angle_alpha                90
_cell_angle_beta                 107.870(2)
_cell_angle_gamma                90
_cell_volume                     2459.48
_exptl_crystal_colour            colorless
_chemical_melting_point          '302-305 deg.C (dec.)'
_cell_formula_units_Z            2
loop_
_atom_site_label
_atom_site_type_symbol
_atom_site_fract_x
_atom_site_fract_y
_atom_site_fract_z
Ba1 Ba 0.92697(5) 0.891722(16) 0.62179(4)
Cl1 Cl 0.9029(2) 1.02476(6) 0.63851(16)
O1 O 0.7868(6) 0.9922(2) 0.5528(6)
O2 O 1.0231(7) 0.9931(2) 0.7213(6)
O3 O 0.8328(8) 1.0544(2) 0.7156(6)
O4 O 1.0310(8) 0.9431(2) 0.4378(6)
Cl2 Cl 0.8207(3) 0.75324(8) 0.6669(2)
O5 O 0.9159(15) 0.7963(3) 0.7024(9)
O6 O 0.8265(9) 0.7265(3) 0.7803(9)
O7 O 0.8727(10) 0.7241(3) 0.5767(9)
O8 O 0.6656(16) 0.7692(7) 0.6069(14)
O9 O 0.6190(6) 0.90570(19) 0.6495(5)
O10 O 0.6571(6) 0.8726(2) 0.4119(5)
O11 O 0.9383(7) 0.8275(2) 0.4214(5)
O12 O 1.2086(8) 0.8379(3) 0.6291(7)
O13 O 1.1736(7) 0.8854(2) 0.8598(6)
O14 O 0.4236(10) 1.0880(3) 0.8900(8)
N1 N 0.8553(8) 0.8963(3) 0.8751(7)
C1 C 1.0019(11) 0.9023(4) 0.9821(8)
H1 H 0.9823 0.8952 1.0661
H2 H 1.0368 0.9375 0.9843
C2 C 0.7491(9) 0.9382(3) 0.8607(7)
C3 C 0.7657(10) 0.9738(3) 0.9572(8)
H3 H 0.8514 0.9718 1.0352
C4 C 0.6595(12) 1.0120(3) 0.9415(9)
H4 H 0.6730 1.0366 1.0077
C5 C 0.5327(10) 1.0147(3) 0.8293(9)
C6 C 0.5137(9) 0.9794(3) 0.7295(8)
H5 H 0.4264 0.9812 0.6526
C7 C 0.6244(9) 0.9416(3) 0.7444(7)
C8 C 0.4959(9) 0.9122(3) 0.5258(7)
H6 H 0.5091 0.9445 0.4853
H7 H 0.3922 0.9121 0.5401
C9 C 0.5077(9) 0.8700(3) 0.4394(8)
H8 H 0.5000 0.8378 0.4825
H9 H 0.4206 0.8717 0.3565
C10 C 0.6639(10) 0.8323(3) 0.3239(8)
H10 H 0.5786 0.8359 0.2404
H11 H 0.6521 0.7997 0.3632
C11 C 0.8208(10) 0.8352(3) 0.3000(8)
H12 H 0.8280 0.8092 0.2365
H13 H 0.8342 0.8683 0.2638
C12 C 1.0871(10) 0.8151(3) 0.4078(9)
H14 H 1.1341 0.8449 0.3798
H15 H 1.0755 0.7886 0.3413
C13 C 1.1879(10) 0.7975(3) 0.5368(9)
H16 H 1.1384 0.7686 0.5661
H17 H 1.2905 0.7867 0.5302
C14 C 1.2994(13) 0.8219(4) 0.7614(11)
H18 H 1.2431 0.7953 0.7924
H19 H 1.4024 0.8088 0.7615
C15 C 1.3200(12) 0.8659(4) 0.8468(11)
H20 H 1.3900 0.8569 0.9347
H21 H 1.3720 0.8926 0.8117
C16 C 1.1305(12) 0.8685(4) 0.9689(9)
H22 H 1.2214 0.8700 1.0491
H23 H 1.0932 0.8335 0.9554
C17 C 0.7748(11) 0.8491(3) 0.9014(9)
H24 H 0.7538 0.8524 0.9853
H25 H 0.8427 0.8202 0.9044
H26 H 0.6760 0.8444 0.8314
C18 C 0.4141(12) 1.0528(3) 0.8137(9)
H27 H 0.3230 1.0505 0.7401
Ba1B Ba 1.07303(5) 1.108278(16) 0.37821(4)
Cl1B Cl 1.0971(2) 0.97524(6) 0.36149(16)
O1B O 1.2132(6) 1.0078(2) 0.4472(6)
O2B O 0.9769(7) 1.0069(2) 0.2787(6)
O3B O 1.1672(8) 0.9456(2) 0.2844(6)
O4B O 0.9690(8) 1.0569(2) 0.5622(6)
Cl2B Cl 1.1793(3) 1.24676(8) 0.3331(2)
O5B O 1.0841(15) 1.2037(3) 0.2976(9)
O6B O 1.1735(9) 1.2735(3) 0.2197(9)
O7B O 1.1273(10) 1.2759(3) 0.4233(9)
O8B O 1.3344(16) 1.2308(7) 0.3931(14)
O9B O 1.3810(6) 1.09430(19) 0.3505(5)
O10B O 1.3429(6) 1.1274(2) 0.5881(5)
O11B O 1.0617(7) 1.1725(2) 0.5786(5)
O12B O 0.7914(8) 1.1621(3) 0.3709(7)
O13B O 0.8264(7) 1.1146(2) 0.1402(6)
O14B O 1.5764(10) 0.9120(3) 0.1100(8)
N1B N 1.1447(8) 1.1037(3) 0.1249(7)
C1B C 0.9981(11) 1.0977(4) 0.0179(8)
H1B H 1.0177 1.1048 -0.0661
H2B H 0.9632 1.0625 0.0157
C2B C 1.2509(9) 1.0618(3) 0.1393(7)
C3B C 1.2343(10) 1.0262(3) 0.0428(8)
H3B H 1.1486 1.0282 -0.0352
C4B C 1.3405(12) 0.9880(3) 0.0585(9)
H4B H 1.3270 0.9634 -0.0077
C5B C 1.4673(10) 0.9853(3) 0.1707(9)
C6B C 1.4863(9) 1.0206(3) 0.2705(8)
H5B H 1.5736 1.0188 0.3474
C7B C 1.3756(9) 1.0584(3) 0.2556(7)
C8B C 1.5041(9) 1.0878(3) 0.4742(7)
H6B H 1.4909 1.0555 0.5147
H7B H 1.6078 1.0879 0.4599
C9B C 1.4923(9) 1.1300(3) 0.5606(8)
H8B H 1.5000 1.1622 0.5175
H9B H 1.5794 1.1283 0.6435
C10B C 1.3361(10) 1.1677(3) 0.6761(8)
H10B H 1.4214 1.1641 0.7596
H11B H 1.3479 1.2003 0.6368
C11B C 1.1792(10) 1.1648(3) 0.7000(8)
H12B H 1.1720 1.1908 0.7635
H13B H 1.1658 1.1317 0.7362
C12B C 0.9129(10) 1.1849(3) 0.5922(9)
H14B H 0.8659 1.1551 0.6202
H15B H 0.9245 1.2114 0.6587
C13B C 0.8121(10) 1.2025(3) 0.4632(9)
H16B H 0.8616 1.2314 0.4339
H17B H 0.7095 1.2133 0.4698
C14B C 0.7006(13) 1.1781(4) 0.2386(11)
H18B H 0.7569 1.2047 0.2076
H19B H 0.5976 1.1912 0.2385
C15B C 0.6800(12) 1.1341(4) 0.1532(11)
H20B H 0.6100 1.1431 0.0653
H21B H 0.6280 1.1074 0.1883
C16B C 0.8695(12) 1.1315(4) 0.0311(9)
H22B H 0.7786 1.1300 -0.0491
H23B H 0.9068 1.1665 0.0446
C17B C 1.2252(11) 1.1509(3) 0.0986(9)
H24B H 1.2462 1.1476 0.0147
H25B H 1.1573 1.1798 0.0956
H26B H 1.3240 1.1556 0.1686
C18B C 1.5859(12) 0.9472(3) 0.1863(9)
H27B H 1.6770 0.9495 0.2599
loop_
_geom_bond_atom_site_label_1
_geom_bond_atom_site_label_2
_geom_bond_site_symmetry_1
_geom_bond_site_symmetry_2
Ba1 O1 1_555 1_555
Cl1 O1 1_555 1_555
O2 Ba1 1_555 1_555
O3 Cl1 1_555 1_555
O4 Ba1 1_555 1_555
Cl2 O5 1_555 1_555
O5 Ba1 1_555 1_555
O6 Cl2 1_555 1_555
O7 Cl2 1_555 1_555
O8 Cl2 1_555 1_555
O9 Ba1 1_555 1_555
O10 Ba1 1_555 1_555
O11 Ba1 1_555 1_555
O12 Ba1 1_555 1_555
O13 Ba1 1_555 1_555
O14 C18 1_555 1_555
N1 Ba1 1_555 1_555
C1 N1 1_555 1_555
H1 C1 1_555 1_555
H2 C1 1_555 1_555
C2 N1 1_555 1_555
C3 C2 1_555 1_555
H3 C3 1_555 1_555
C4 C3 1_555 1_555
H4 C4 1_555 1_555
C5 C4 1_555 1_555
C6 C5 1_555 1_555
H5 C6 1_555 1_555
C7 O9 1_555 1_555
C8 O9 1_555 1_555
H6 C8 1_555 1_555
H7 C8 1_555 1_555
C9 O10 1_555 1_555
H8 C9 1_555 1_555
H9 C9 1_555 1_555
C10 O10 1_555 1_555
H10 C10 1_555 1_555
H11 C10 1_555 1_555
C11 O11 1_555 1_555
H12 C11 1_555 1_555
H13 C11 1_555 1_555
C12 O11 1_555 1_555
H14 C12 1_555 1_555
H15 C12 1_555 1_555
C13 O12 1_555 1_555
H16 C13 1_555 1_555
H17 C13 1_555 1_555
C14 O12 1_555 1_555
H18 C14 1_555 1_555
H19 C14 1_555 1_555
C15 O13 1_555 1_555
H20 C15 1_555 1_555
H21 C15 1_555 1_555
C16 O13 1_555 1_555
H22 C16 1_555 1_555
H23 C16 1_555 1_555
C17 N1 1_555 1_555
H24 C17 1_555 1_555
H25 C17 1_555 1_555
H26 C17 1_555 1_555
C18 C5 1_555 1_555
H27 C18 1_555 1_555
Ba1B O1B 1_555 1_555
Cl1B O4 1_555 1_555
O1B Cl1B 1_555 1_555
O2B Ba1B 1_555 1_555
O3B Cl1B 1_555 1_555
O4B Cl1 1_555 1_555
Cl2B O5B 1_555 1_555
O5B Ba1B 1_555 1_555
O6B Cl2B 1_555 1_555
O7B Cl2B 1_555 1_555
O8B Cl2B 1_555 1_555
O9B Ba1B 1_555 1_555
O10B Ba1B 1_555 1_555
O11B Ba1B 1_555 1_555
O12B Ba1B 1_555 1_555
O13B Ba1B 1_555 1_555
O14B C18B 1_555 1_555
N1B Ba1B 1_555 1_555
C1B N1B 1_555 1_555
H1B C1B 1_555 1_555
H2B C1B 1_555 1_555
C2B N1B 1_555 1_555
C3B C2B 1_555 1_555
H3B C3B 1_555 1_555
C4B C3B 1_555 1_555
H4B C4B 1_555 1_555
C5B C4B 1_555 1_555
C6B C5B 1_555 1_555
H5B C6B 1_555 1_555
C7B O9B 1_555 1_555
C8B O9B 1_555 1_555
H6B C8B 1_555 1_555
H7B C8B 1_555 1_555
C9B O10B 1_555 1_555
H8B C9B 1_555 1_555
H9B C9B 1_555 1_555
C10B O10B 1_555 1_555
H10B C10B 1_555 1_555
H11B C10B 1_555 1_555
C11B O11B 1_555 1_555
H12B C11B 1_555 1_555
H13B C11B 1_555 1_555
C12B O11B 1_555 1_555
H14B C12B 1_555 1_555
H15B C12B 1_555 1_555
C13B O12B 1_555 1_555
H16B C13B 1_555 1_555
H17B C13B 1_555 1_555
C14B O12B 1_555 1_555
H18B C14B 1_555 1_555
H19B C14B 1_555 1_555
C15B O13B 1_555 1_555
H20B C15B 1_555 1_555
H21B C15B 1_555 1_555
C16B O13B 1_555 1_555
H22B C16B 1_555 1_555
H23B C16B 1_555 1_555
C17B N1B 1_555 1_555
H24B C17B 1_555 1_555
H25B C17B 1_555 1_555
H26B C17B 1_555 1_555
C18B C5B 1_555 1_555
H27B C18B 1_555 1_555
Cl1 O2 1_555 1_555
C1 C16 1_555 1_555
C2 C7 1_555 1_555
C6 C7 1_555 1_555
C8 C9 1_555 1_555
C10 C11 1_555 1_555
C12 C13 1_555 1_555
C14 C15 1_555 1_555
Ba1B O4B 1_555 1_555
Cl1B O2B 1_555 1_555
C1B C16B 1_555 1_555
C2B C7B 1_555 1_555
C6B C7B 1_555 1_555
C8B C9B 1_555 1_555
C10B C11B 1_555 1_555
C12B C13B 1_555 1_555
C14B C15B 1_555 1_555

#END
