
#######################################################################
#
#                 Cambridge Crystallographic Data Centre
#                                CCDC 
#
#######################################################################
#
# If this CIF has been generated from an entry in the Cambridge 
# Structural Database, then it will include bibliographic, chemical, 
# crystal, experimental, refinement or atomic coordinate data resulting 
# from the CCDC's data processing and validation procedures.
#
#######################################################################

data_QUKWUQ
_chemical_formula_moiety         'C20 H16 N4 O4'
_chemical_name_systematic        
N'-((2-(2-Furyl)-4-oxo-1-phenylazetidin-3-yl)carbonyl)isonicotinohydrazide
_chemical_properties_biological  'antibacterial activity'
_symmetry_cell_setting           monoclinic
_symmetry_space_group_name_H-M   'P 21/c'
_symmetry_Int_Tables_number      14
_space_group_name_Hall           '-P 2ybc'
loop_
_symmetry_equiv_pos_site_id
_symmetry_equiv_pos_as_xyz
1 x,y,z
2 -x,1/2+y,1/2-z
3 -x,-y,-z
4 x,1/2-y,1/2+z
_cell_length_a                   20.746(6)
_cell_length_b                   19.501(6)
_cell_length_c                   9.294(3)
_cell_angle_alpha                90
_cell_angle_beta                 92.116(10)
_cell_angle_gamma                90
_cell_volume                     3757.49
_exptl_crystal_colour            colorless
_exptl_crystal_description       rod
_cell_formula_units_Z            8
loop_
_atom_site_label
_atom_site_type_symbol
_atom_site_fract_x
_atom_site_fract_y
_atom_site_fract_z
O1 O 0.36544(14) 0.64144(17) 0.4939(3)
O2 O 0.24123(15) 0.71383(16) 0.7205(4)
O3 O 0.12400(15) 0.80156(17) 0.6815(3)
N1 N 0.19907(17) 0.73489(19) 0.4956(4)
H1 H 0.2063 0.7494 0.4104
N2 N 0.40113(17) 0.73252(18) 0.6434(4)
O4 O 0.41368(16) 0.86303(16) 0.4867(3)
N3 N 0.13786(17) 0.71314(19) 0.5283(4)
H2 H 0.1212 0.6775 0.4871
C1 C 0.5822(2) 0.6913(3) 0.8347(5)
H3 H 0.6225 0.6822 0.8775
N4 N -0.07889(19) 0.6704(2) 0.7438(5)
C2 C 0.0411(2) 0.7185(2) 0.6636(5)
C3 C 0.4622(2) 0.7188(2) 0.7077(5)
C4 C 0.3826(2) 0.8600(2) 0.6138(5)
C5 C 0.1050(2) 0.7486(3) 0.6253(5)
C6 C 0.4959(2) 0.6603(2) 0.6713(5)
H4 H 0.4778 0.6298 0.6044
C7 C 0.3759(2) 0.9228(2) 0.6679(5)
H5 H 0.3561 0.9342 0.7529
C8 C -0.0443(2) 0.6360(3) 0.6529(5)
H6 H -0.0609 0.5952 0.6156
C9 C 0.3119(2) 0.7552(2) 0.5425(5)
H7 H 0.3092 0.7782 0.4486
C10 C 0.4885(2) 0.7627(2) 0.8100(5)
H8 H 0.4657 0.8014 0.8368
C11 C 0.3575(2) 0.7922(2) 0.6545(5)
H9 H 0.3382 0.7939 0.7492
C12 C 0.4049(2) 0.9696(3) 0.5701(6)
H10 H 0.4079 1.0170 0.5787
C13 C 0.2470(2) 0.7334(2) 0.5956(6)
C14 C 0.3612(2) 0.6976(3) 0.5504(5)
C15 C 0.0157(2) 0.6574(2) 0.6096(5)
H11 H 0.0386 0.6312 0.5452
C16 C 0.5558(2) 0.6470(3) 0.7332(5)
H12 H 0.5785 0.6082 0.7066
C17 C 0.5487(2) 0.7495(3) 0.8731(6)
H13 H 0.5666 0.7796 0.9411
C18 C 0.0035(2) 0.7546(3) 0.7570(6)
H14 H 0.0179 0.7965 0.7937
C19 C -0.0548(2) 0.7290(3) 0.7958(6)
H15 H -0.0786 0.7536 0.8613
C20 C 0.4266(2) 0.9307(3) 0.4645(6)
H16 H 0.4479 0.9476 0.3856
O5 O 0.24849(16) 0.23866(16) 0.8531(4)
O6 O 0.15658(17) 0.35698(17) 0.5814(4)
N5 N 0.20651(18) 0.13929(19) 0.6680(4)
H17 H 0.1652 0.1350 0.6643
O7 O 0.30285(16) 0.08503(16) 0.7091(4)
N6 N 0.23525(18) 0.20020(19) 0.6248(4)
H18 H 0.2427 0.2069 0.5355
O8 O 0.35195(16) 0.44638(18) 0.6056(4)
N7 N 0.23387(18) 0.40874(19) 0.7403(4)
C21 C 0.2082(2) 0.4684(2) 0.7992(5)
N8 N 0.1411(2) -0.0778(2) 0.9104(5)
C22 C 0.2959(2) 0.3716(2) 0.7665(5)
H19 H 0.2995 0.3540 0.8652
C23 C 0.2066(2) 0.0291(2) 0.7815(5)
C24 C 0.2328(2) -0.0044(2) 0.9008(5)
H20 H 0.2731 0.0080 0.9392
C25 C 0.2205(3) 0.5704(3) 0.9409(6)
H21 H 0.2464 0.5994 0.9976
C26 C 0.1435(2) 0.4843(3) 0.7726(6)
H22 H 0.1171 0.4553 0.7170
C27 C 0.3553(2) 0.4077(2) 0.7281(5)
C28 C 0.2692(2) 0.3157(2) 0.6603(5)
H23 H 0.2930 0.3120 0.5716
C29 C 0.2468(3) 0.5107(3) 0.8842(5)
H24 H 0.2898 0.4996 0.9036
C30 C 0.2447(3) 0.0869(2) 0.7159(5)
C31 C 0.1173(3) -0.0457(2) 0.7928(6)
H25 H 0.0778 -0.0606 0.7537
C32 C 0.2083(3) 0.3612(2) 0.6458(5)
C33 C 0.1471(2) 0.0078(2) 0.7256(5)
H26 H 0.1280 0.0291 0.6454
C34 C 0.4158(2) 0.4059(2) 0.7816(6)
H27 H 0.4303 0.3824 0.8635
C35 C 0.4540(2) 0.4464(3) 0.6909(6)
H28 H 0.4981 0.4544 0.7011
C36 C 0.4135(3) 0.4707(3) 0.5878(6)
H29 H 0.4252 0.5000 0.5143
C37 C 0.2512(2) 0.2483(2) 0.7228(5)
C38 C 0.1982(3) -0.0564(2) 0.9622(6)
H30 H 0.2157 -0.0777 1.0442
C39 C 0.1569(3) 0.5866(3) 0.9137(5)
H31 H 0.1397 0.6263 0.9520
C40 C 0.1188(3) 0.5440(3) 0.8298(6)
H32 H 0.0757 0.5553 0.8110
loop_
_geom_bond_atom_site_label_1
_geom_bond_atom_site_label_2
_geom_bond_site_symmetry_1
_geom_bond_site_symmetry_2
O1 C14 1_555 1_555
O2 C13 1_555 1_555
O3 C5 1_555 1_555
N1 H1 1_555 1_555
N2 C3 1_555 1_555
O4 C4 1_555 1_555
N3 N1 1_555 1_555
H2 N3 1_555 1_555
C1 H3 1_555 1_555
N4 C8 1_555 1_555
C2 C5 1_555 1_555
C3 C6 1_555 1_555
C4 C7 1_555 1_555
C5 N3 1_555 1_555
C6 H4 1_555 1_555
C7 H5 1_555 1_555
C8 H6 1_555 1_555
C9 H7 1_555 1_555
C10 C3 1_555 1_555
H8 C10 1_555 1_555
C11 N2 1_555 1_555
H9 C11 1_555 1_555
C12 C7 1_555 1_555
H10 C12 1_555 1_555
C13 N1 1_555 1_555
C14 N2 1_555 1_555
C15 C2 1_555 1_555
H11 C15 1_555 1_555
C16 C1 1_555 1_555
H12 C16 1_555 1_555
C17 C1 1_555 1_555
H13 C17 1_555 1_555
C18 C2 1_555 1_555
H14 C18 1_555 1_555
C19 N4 1_555 1_555
H15 C19 1_555 1_555
C20 O4 1_555 1_555
H16 C20 1_555 1_555
O5 C37 1_555 1_555
O6 C32 1_555 1_555
N5 H17 1_555 1_555
O7 C30 1_555 1_555
N6 N5 1_555 1_555
H18 N6 1_555 1_555
O8 C27 1_555 1_555
N7 C21 1_555 1_555
C21 C26 1_555 1_555
N8 C31 1_555 1_555
C22 N7 1_555 1_555
H19 C22 1_555 1_555
C23 C24 1_555 1_555
C24 H20 1_555 1_555
C25 H21 1_555 1_555
C26 H22 1_555 1_555
C27 C22 1_555 1_555
C28 C22 1_555 1_555
H23 C28 1_555 1_555
C29 C21 1_555 1_555
H24 C29 1_555 1_555
C30 N5 1_555 1_555
C31 H25 1_555 1_555
C32 N7 1_555 1_555
C33 C23 1_555 1_555
H26 C33 1_555 1_555
C34 C27 1_555 1_555
H27 C34 1_555 1_555
C35 C34 1_555 1_555
H28 C35 1_555 1_555
C36 O8 1_555 1_555
H29 C36 1_555 1_555
C37 N6 1_555 1_555
C38 N8 1_555 1_555
H30 C38 1_555 1_555
C39 C25 1_555 1_555
H31 C39 1_555 1_555
C40 C26 1_555 1_555
H32 C40 1_555 1_555
C4 C11 1_555 1_555
C6 C16 1_555 1_555
C8 C15 1_555 1_555
C9 C11 1_555 1_555
C9 C13 1_555 1_555
C9 C14 1_555 1_555
C10 C17 1_555 1_555
C12 C20 1_555 1_555
C18 C19 1_555 1_555
C23 C30 1_555 1_555
C24 C38 1_555 1_555
C25 C29 1_555 1_555
C28 C32 1_555 1_555
C28 C37 1_555 1_555
C31 C33 1_555 1_555
C35 C36 1_555 1_555
C39 C40 1_555 1_555

#END
