
#######################################################################
#
#                 Cambridge Crystallographic Data Centre
#                                CCDC 
#
#######################################################################
#
# If this CIF has been generated from an entry in the Cambridge 
# Structural Database, then it will include bibliographic, chemical, 
# crystal, experimental, refinement or atomic coordinate data resulting 
# from the CCDC's data processing and validation procedures.
#
#######################################################################

data_QUKXEA
_chemical_formula_moiety         'C58 H70 S4'
_chemical_name_systematic        
9,10-bis(5-(5'-Dodecyl-2,2'-bithienyl)vinyl)anthracene
_symmetry_cell_setting           monoclinic
_symmetry_space_group_name_H-M   'P 21/c'
_symmetry_Int_Tables_number      14
_space_group_name_Hall           '-P 2ybc'
loop_
_symmetry_equiv_pos_site_id
_symmetry_equiv_pos_as_xyz
1 x,y,z
2 -x,1/2+y,1/2-z
3 -x,-y,-z
4 x,1/2-y,1/2+z
_cell_length_a                   5.5798(3)
_cell_length_b                   7.4484(4)
_cell_length_c                   58.222(3)
_cell_angle_alpha                90
_cell_angle_beta                 92.5160(10)
_cell_angle_gamma                90
_cell_volume                     2417.41
_exptl_crystal_colour            orange
_exptl_crystal_description       plate
_cell_formula_units_Z            2
_exptl_crystal_recrystallization_method chloroform/hexane
loop_
_atom_site_label
_atom_site_type_symbol
_atom_site_fract_x
_atom_site_fract_y
_atom_site_fract_z
S1 S 0.55807(10) -0.35953(8) 0.067416(10)
S2 S 0.31981(10) 0.01801(8) 0.119591(10)
C1 C 0.3576(4) -0.5373(3) 0.06552(4)
C2 C 0.1816(5) -0.5160(3) 0.08100(4)
H1 H 0.0541 -0.5990 0.0825
C3 C 0.2075(4) -0.3585(3) 0.09454(4)
H2 H 0.0997 -0.3257 0.1060
C4 C 0.4039(4) -0.2588(3) 0.08939(4)
C5 C 0.4873(4) -0.0907(3) 0.09929(4)
C6 C 0.6921(4) 0.0039(3) 0.09564(4)
H3 H 0.8092 -0.0333 0.0853
C7 C 0.7118(4) 0.1636(3) 0.10894(4)
H4 H 0.8438 0.2437 0.1083
C8 C 0.5253(4) 0.1913(3) 0.12268(4)
C9 C 0.3734(4) -0.6815(3) 0.04887(4)
H5 H 0.2683 -0.7800 0.0509
C10 C 0.5128(4) -0.6947(3) 0.03136(4)
H6 H 0.6238 -0.6007 0.0289
C11 C 0.5054(4) -0.8500(3) 0.01520(4)
C12 C 0.3303(4) -0.8589(3) -0.00290(4)
C13 C 0.3250(4) -1.0112(3) -0.01818(4)
C14 C 0.1423(4) -1.0168(3) -0.03624(4)
H7 H 0.1380 -1.1151 -0.0466
C15 C -0.0247(4) -0.8851(3) -0.03886(4)
H8 H -0.1463 -0.8939 -0.0508
C16 C -0.0190(4) -0.7349(3) -0.02400(4)
H9 H -0.1350 -0.6423 -0.0261
C17 C 0.1528(4) -0.7226(3) -0.00663(4)
H10 H 0.1543 -0.6208 0.0032
C18 C 0.4836(4) 0.3409(3) 0.13928(4)
H11 H 0.4800 0.2903 0.1550
H12 H 0.3245 0.3949 0.1355
C19 C 0.6742(4) 0.4885(3) 0.13907(4)
H13 H 0.8342 0.4346 0.1424
H14 H 0.6743 0.5426 0.1235
C20 C 0.6304(4) 0.6350(3) 0.15667(4)
H15 H 0.4693 0.6872 0.1534
H16 H 0.6313 0.5804 0.1722
C21 C 0.8161(4) 0.7851(3) 0.15671(4)
H17 H 0.8091 0.8443 0.1415
H18 H 0.9780 0.7323 0.1591
C22 C 0.7786(4) 0.9263(3) 0.17523(4)
H19 H 0.6164 0.9788 0.1728
H20 H 0.7852 0.8668 0.1904
C23 C 0.9633(4) 1.0776(3) 0.17549(4)
H21 H 0.9551 1.1384 0.1604
H22 H 1.1257 1.0252 0.1777
C24 C 0.9262(4) 1.2167(3) 0.19427(4)
H23 H 0.7637 1.2688 0.1920
H24 H 0.9344 1.1557 0.2094
C25 C 1.1101(4) 1.3685(3) 0.19463(4)
H25 H 1.2727 1.3165 0.1969
H26 H 1.1020 1.4296 0.1795
C26 C 1.0725(4) 1.5074(3) 0.21341(4)
H27 H 0.9090 1.5580 0.2112
H28 H 1.0824 1.4464 0.2285
C27 C 1.2531(4) 1.6608(3) 0.21377(4)
H29 H 1.4166 1.6108 0.2162
H30 H 1.2448 1.7214 0.1986
C28 C 1.2107(4) 1.7990(3) 0.23242(4)
H31 H 1.0480 1.8503 0.2298
H32 H 1.2159 1.7378 0.2475
C29 C 1.3924(5) 1.9511(4) 0.23321(5)
H33 H 1.5528 1.9026 0.2369
H34 H 1.3506 2.0379 0.2450
H35 H 1.3912 2.0109 0.2182
S1B S 0.44193(10) -1.64047(8) -0.067416(10)
S2B S 0.68019(10) -2.01801(8) -0.119591(10)
C1B C 0.6424(4) -1.4627(3) -0.06552(4)
C2B C 0.8184(5) -1.4840(3) -0.08100(4)
H1B H 0.9459 -1.4010 -0.0825
C3B C 0.7925(4) -1.6415(3) -0.09454(4)
H2B H 0.9003 -1.6743 -0.1060
C4B C 0.5961(4) -1.7412(3) -0.08939(4)
C5B C 0.5127(4) -1.9093(3) -0.09929(4)
C6B C 0.3079(4) -2.0039(3) -0.09564(4)
H3B H 0.1908 -1.9667 -0.0853
C7B C 0.2882(4) -2.1636(3) -0.10894(4)
H4B H 0.1562 -2.2437 -0.1083
C8B C 0.4747(4) -2.1913(3) -0.12268(4)
C9B C 0.6266(4) -1.3185(3) -0.04887(4)
H5B H 0.7317 -1.2200 -0.0509
C10B C 0.4872(4) -1.3053(3) -0.03136(4)
H6B H 0.3762 -1.3993 -0.0289
C11B C 0.4946(4) -1.1500(3) -0.01520(4)
C12B C 0.6697(4) -1.1411(3) 0.00290(4)
C13B C 0.6750(4) -0.9888(3) 0.01818(4)
C14B C 0.8577(4) -0.9832(3) 0.03624(4)
H7B H 0.8620 -0.8849 0.0466
C15B C 1.0247(4) -1.1149(3) 0.03886(4)
H8B H 1.1463 -1.1061 0.0508
C16B C 1.0190(4) -1.2651(3) 0.02400(4)
H9B H 1.1350 -1.3577 0.0261
C17B C 0.8472(4) -1.2774(3) 0.00663(4)
H10B H 0.8457 -1.3792 -0.0032
C18B C 0.5164(4) -2.3409(3) -0.13928(4)
H11B H 0.5200 -2.2903 -0.1550
H12B H 0.6755 -2.3949 -0.1355
C19B C 0.3258(4) -2.4885(3) -0.13907(4)
H13B H 0.1658 -2.4346 -0.1424
H14B H 0.3257 -2.5426 -0.1235
C20B C 0.3696(4) -2.6350(3) -0.15667(4)
H15B H 0.5307 -2.6872 -0.1534
H16B H 0.3687 -2.5804 -0.1722
C21B C 0.1839(4) -2.7851(3) -0.15671(4)
H17B H 0.1909 -2.8443 -0.1415
H18B H 0.0220 -2.7323 -0.1591
C22B C 0.2214(4) -2.9263(3) -0.17523(4)
H19B H 0.3836 -2.9788 -0.1728
H20B H 0.2148 -2.8668 -0.1904
C23B C 0.0367(4) -3.0776(3) -0.17549(4)
H21B H 0.0449 -3.1384 -0.1604
H22B H -0.1257 -3.0252 -0.1777
C24B C 0.0738(4) -3.2167(3) -0.19427(4)
H23B H 0.2363 -3.2688 -0.1920
H24B H 0.0656 -3.1557 -0.2094
C25B C -0.1101(4) -3.3685(3) -0.19463(4)
H25B H -0.2727 -3.3165 -0.1969
H26B H -0.1020 -3.4296 -0.1795
C26B C -0.0725(4) -3.5074(3) -0.21341(4)
H27B H 0.0910 -3.5580 -0.2112
H28B H -0.0824 -3.4464 -0.2285
C27B C -0.2531(4) -3.6608(3) -0.21377(4)
H29B H -0.4166 -3.6108 -0.2162
H30B H -0.2448 -3.7214 -0.1986
C28B C -0.2107(4) -3.7990(3) -0.23242(4)
H31B H -0.0480 -3.8503 -0.2298
H32B H -0.2159 -3.7378 -0.2475
C29B C -0.3924(5) -3.9511(4) -0.23321(5)
H33B H -0.5528 -3.9026 -0.2369
H34B H -0.3506 -4.0379 -0.2450
H35B H -0.3912 -4.0109 -0.2182
loop_
_geom_bond_atom_site_label_1
_geom_bond_atom_site_label_2
_geom_bond_site_symmetry_1
_geom_bond_site_symmetry_2
S1 C1 1_555 1_555
S2 C5 1_555 1_555
C1 C2 1_555 1_555
C2 H1 1_555 1_555
C3 C2 1_555 1_555
H2 C3 1_555 1_555
C4 S1 1_555 1_555
C5 C4 1_555 1_555
C6 C5 1_555 1_555
H3 C6 1_555 1_555
C7 C6 1_555 1_555
H4 C7 1_555 1_555
C8 S2 1_555 1_555
C9 C1 1_555 1_555
H5 C9 1_555 1_555
C10 C9 1_555 1_555
H6 C10 1_555 1_555
C11 C10 1_555 1_555
C12 C11 1_555 1_555
C13 C12 1_555 1_555
C14 C13 1_555 1_555
H7 C14 1_555 1_555
C15 C14 1_555 1_555
H8 C15 1_555 1_555
C16 C15 1_555 1_555
H9 C16 1_555 1_555
C17 C12 1_555 1_555
H10 C17 1_555 1_555
C18 C8 1_555 1_555
H11 C18 1_555 1_555
H12 C18 1_555 1_555
C19 C18 1_555 1_555
H13 C19 1_555 1_555
H14 C19 1_555 1_555
C20 C19 1_555 1_555
H15 C20 1_555 1_555
H16 C20 1_555 1_555
C21 C20 1_555 1_555
H17 C21 1_555 1_555
H18 C21 1_555 1_555
C22 C21 1_555 1_555
H19 C22 1_555 1_555
H20 C22 1_555 1_555
C23 C22 1_555 1_555
H21 C23 1_555 1_555
H22 C23 1_555 1_555
C24 C23 1_555 1_555
H23 C24 1_555 1_555
H24 C24 1_555 1_555
C25 C24 1_555 1_555
H25 C25 1_555 1_555
H26 C25 1_555 1_555
C26 C25 1_555 1_555
H27 C26 1_555 1_555
H28 C26 1_555 1_555
C27 C26 1_555 1_555
H29 C27 1_555 1_555
H30 C27 1_555 1_555
C28 C27 1_555 1_555
H31 C28 1_555 1_555
H32 C28 1_555 1_555
C29 C28 1_555 1_555
H33 C29 1_555 1_555
H34 C29 1_555 1_555
H35 C29 1_555 1_555
S1B C1B 1_555 1_555
S2B C5B 1_555 1_555
C1B C2B 1_555 1_555
C2B H1B 1_555 1_555
C3B C2B 1_555 1_555
H2B C3B 1_555 1_555
C4B S1B 1_555 1_555
C5B C4B 1_555 1_555
C6B C5B 1_555 1_555
H3B C6B 1_555 1_555
C7B C6B 1_555 1_555
H4B C7B 1_555 1_555
C8B S2B 1_555 1_555
C9B C1B 1_555 1_555
H5B C9B 1_555 1_555
C10B C9B 1_555 1_555
H6B C10B 1_555 1_555
C11B C13 1_555 1_555
C12B C11B 1_555 1_555
C13B C11 1_555 1_555
C14B C13B 1_555 1_555
H7B C14B 1_555 1_555
C15B C14B 1_555 1_555
H8B C15B 1_555 1_555
C16B C15B 1_555 1_555
H9B C16B 1_555 1_555
C17B C12B 1_555 1_555
H10B C17B 1_555 1_555
C18B C8B 1_555 1_555
H11B C18B 1_555 1_555
H12B C18B 1_555 1_555
C19B C18B 1_555 1_555
H13B C19B 1_555 1_555
H14B C19B 1_555 1_555
C20B C19B 1_555 1_555
H15B C20B 1_555 1_555
H16B C20B 1_555 1_555
C21B C20B 1_555 1_555
H17B C21B 1_555 1_555
H18B C21B 1_555 1_555
C22B C21B 1_555 1_555
H19B C22B 1_555 1_555
H20B C22B 1_555 1_555
C23B C22B 1_555 1_555
H21B C23B 1_555 1_555
H22B C23B 1_555 1_555
C24B C23B 1_555 1_555
H23B C24B 1_555 1_555
H24B C24B 1_555 1_555
C25B C24B 1_555 1_555
H25B C25B 1_555 1_555
H26B C25B 1_555 1_555
C26B C25B 1_555 1_555
H27B C26B 1_555 1_555
H28B C26B 1_555 1_555
C27B C26B 1_555 1_555
H29B C27B 1_555 1_555
H30B C27B 1_555 1_555
C28B C27B 1_555 1_555
H31B C28B 1_555 1_555
H32B C28B 1_555 1_555
C29B C28B 1_555 1_555
H33B C29B 1_555 1_555
H34B C29B 1_555 1_555
H35B C29B 1_555 1_555
C3 C4 1_555 1_555
C7 C8 1_555 1_555
C16 C17 1_555 1_555
C3B C4B 1_555 1_555
C7B C8B 1_555 1_555
C10B C11B 1_555 1_555
C12B C13B 1_555 1_555
C16B C17B 1_555 1_555

#END
