
#######################################################################
#
#                 Cambridge Crystallographic Data Centre
#                                CCDC 
#
#######################################################################
#
# If this CIF has been generated from an entry in the Cambridge 
# Structural Database, then it will include bibliographic, chemical, 
# crystal, experimental, refinement or atomic coordinate data resulting 
# from the CCDC's data processing and validation procedures.
#
#######################################################################

data_QUKYUS
_chemical_formula_moiety         'C20 H19 N3 O3'
_chemical_name_systematic        
2-(3-((1H-Indol-3-yl)methyl)-4-mehoxy-2-oxoindolin-3-yl)acetamide
_symmetry_cell_setting           monoclinic
_symmetry_space_group_name_H-M   'P 21/c'
_symmetry_Int_Tables_number      14
_space_group_name_Hall           '-P 2ybc'
loop_
_symmetry_equiv_pos_site_id
_symmetry_equiv_pos_as_xyz
1 x,y,z
2 -x,1/2+y,1/2-z
3 -x,-y,-z
4 x,1/2-y,1/2+z
_cell_length_a                   7.32981(17)
_cell_length_b                   14.9887(4)
_cell_length_c                   15.9162(5)
_cell_angle_alpha                90
_cell_angle_beta                 95.973(3)
_cell_angle_gamma                90
_cell_volume                     1739.13
_exptl_crystal_colour            colorless
_cell_formula_units_Z            4
loop_
_atom_site_label
_atom_site_type_symbol
_atom_site_fract_x
_atom_site_fract_y
_atom_site_fract_z
O1 O 1.07100(13) 0.14392(7) 0.18701(6)
O2 O 0.48390(14) -0.08364(6) 0.17574(7)
O3 O 0.79918(14) -0.08091(7) 0.03385(7)
N1 N 1.10048(17) -0.09832(9) 0.07594(8)
H1 H 1.1249 -0.1155 0.0254
H2 H 1.1892 -0.0949 0.1175
N2 N 0.49963(17) 0.23061(8) 0.34704(7)
H3 H 0.4824 0.2885 0.3512
N3 N 0.48434(15) 0.04719(8) 0.10105(7)
H4 H 0.3725 0.0439 0.0751
C1 C 0.77007(19) 0.10186(9) 0.14064(8)
C2 C 0.62734(19) 0.10012(9) 0.31538(9)
C3 C 0.75383(18) 0.01665(9) 0.19000(8)
C4 C 0.92919(19) -0.07751(9) 0.08943(9)
C5 C 0.3882(2) 0.16552(9) 0.37476(9)
C6 C 0.60560(18) 0.11788(9) 0.09122(8)
C7 C 0.4646(2) 0.08196(9) 0.35599(9)
C8 C 0.57182(19) 0.19355(9) 0.04209(9)
H5 H 0.4583 0.2023 0.0085
C9 C 0.64203(19) 0.19077(9) 0.31192(9)
H6 H 0.7376 0.2219 0.2885
C10 C 0.91056(18) 0.16416(9) 0.14003(8)
C11 C 1.22278(19) 0.20123(10) 0.17671(10)
H7 H 1.2359 0.2082 0.1164
H8 H 1.3351 0.1751 0.2053
H9 H 1.2014 0.2597 0.2014
C12 C 0.8799(2) 0.24219(9) 0.09200(9)
H10 H 0.9740 0.2858 0.0920
C13 C 0.3767(2) 0.00360(10) 0.37853(10)
H11 H 0.4249 -0.0533 0.3667
C14 C 0.56011(19) -0.01508(9) 0.15509(9)
C15 C 0.7121(2) 0.25603(10) 0.04430(9)
H12 H 0.6932 0.3095 0.0125
C16 C 0.75923(19) 0.03291(9) 0.28705(9)
H13 H 0.7362 -0.0248 0.3143
H14 H 0.8849 0.0520 0.3083
C17 C 0.2273(2) 0.17291(10) 0.41431(9)
H15 H 0.1767 0.2294 0.4258
C18 C 0.1450(2) 0.09473(11) 0.43597(10)
H16 H 0.0362 0.0974 0.4635
C19 C 0.90182(19) -0.05444(9) 0.17967(9)
H17 H 1.0200 -0.0330 0.2084
H18 H 0.8687 -0.1096 0.2088
C20 C 0.2189(2) 0.01104(11) 0.41821(10)
H19 H 0.1587 -0.0416 0.4339
loop_
_geom_bond_atom_site_label_1
_geom_bond_atom_site_label_2
_geom_bond_site_symmetry_1
_geom_bond_site_symmetry_2
O1 C10 1_555 1_555
O2 C14 1_555 1_555
O3 C4 1_555 1_555
N1 H1 1_555 1_555
H2 N1 1_555 1_555
N2 H3 1_555 1_555
N3 H4 1_555 1_555
C1 C3 1_555 1_555
C2 C7 1_555 1_555
C3 C14 1_555 1_555
C4 N1 1_555 1_555
C5 N2 1_555 1_555
C6 N3 1_555 1_555
C7 C5 1_555 1_555
C8 C6 1_555 1_555
H5 C8 1_555 1_555
C9 N2 1_555 1_555
H6 C9 1_555 1_555
C10 C1 1_555 1_555
C11 O1 1_555 1_555
H7 C11 1_555 1_555
H8 C11 1_555 1_555
H9 C11 1_555 1_555
C12 C10 1_555 1_555
H10 C12 1_555 1_555
C13 C7 1_555 1_555
H11 C13 1_555 1_555
C14 N3 1_555 1_555
C15 C8 1_555 1_555
H12 C15 1_555 1_555
C16 C2 1_555 1_555
H13 C16 1_555 1_555
H14 C16 1_555 1_555
C17 C5 1_555 1_555
H15 C17 1_555 1_555
C18 C17 1_555 1_555
H16 C18 1_555 1_555
C19 C3 1_555 1_555
H17 C19 1_555 1_555
H18 C19 1_555 1_555
C20 C13 1_555 1_555
H19 C20 1_555 1_555
C1 C6 1_555 1_555
C2 C9 1_555 1_555
C3 C16 1_555 1_555
C4 C19 1_555 1_555
C12 C15 1_555 1_555
C18 C20 1_555 1_555

#END
