
#######################################################################
#
#                 Cambridge Crystallographic Data Centre
#                                CCDC 
#
#######################################################################
#
# If this CIF has been generated from an entry in the Cambridge 
# Structural Database, then it will include bibliographic, chemical, 
# crystal, experimental, refinement or atomic coordinate data resulting 
# from the CCDC's data processing and validation procedures.
#
#######################################################################

data_QUKZIH
_chemical_compound_source        'Abies fabri'
_chemical_formula_moiety         'C30 H40 O5,H2 O1'
_chemical_name_systematic        
'17,23:23,26-diepoxylanosta-8,24-diene-3,7,26-trione monohydrate'
_symmetry_cell_setting           monoclinic
_symmetry_space_group_name_H-M   'P 21'
_symmetry_Int_Tables_number      4
_space_group_name_Hall           'P 2yb'
loop_
_symmetry_equiv_pos_site_id
_symmetry_equiv_pos_as_xyz
1 x,y,z
2 -x,1/2+y,-z
_cell_length_a                   6.57460(10)
_cell_length_b                   30.6608(6)
_cell_length_c                   7.3017(2)
_cell_angle_alpha                90
_cell_angle_beta                 115.8180(10)
_cell_angle_gamma                90
_cell_volume                     1324.97
_exptl_crystal_colour            colorless
_exptl_crystal_description       block
_cell_formula_units_Z            2
loop_
_atom_site_label
_atom_site_type_symbol
_atom_site_fract_x
_atom_site_fract_y
_atom_site_fract_z
O1 O -0.0869(2) 0.52763(5) -0.0714(2)
O2 O 0.6620(3) 0.66185(4) -0.2543(2)
O3 O 0.42040(17) 0.82593(4) -0.00909(17)
O4 O 0.4384(2) 0.88093(4) -0.22162(18)
O5 O 0.2016(3) 0.91846(5) -0.4941(2)
C1 C 0.2182(3) 0.61360(5) 0.2144(2)
H1 H 0.2643 0.6268 0.3505
H2 H 0.0796 0.6287 0.1181
C2 C 0.1660(3) 0.56502(5) 0.2235(2)
H3 H 0.3013 0.5500 0.3255
H4 H 0.0423 0.5619 0.2654
C3 C 0.0973(3) 0.54450(5) 0.0178(2)
C4 C 0.2668(3) 0.54732(5) -0.0709(2)
C5 C 0.3398(2) 0.59625(5) -0.0587(2)
H5 H 0.2031 0.6119 -0.1587
C6 C 0.5201(3) 0.60344(5) -0.1333(2)
H6 H 0.6597 0.5880 -0.0412
H7 H 0.4681 0.5904 -0.2704
C7 C 0.5744(3) 0.65081(5) -0.1434(2)
C8 C 0.5183(2) 0.68291(5) -0.0206(2)
C9 C 0.4333(2) 0.66926(5) 0.1084(2)
C10 C 0.4074(2) 0.62057(5) 0.1466(2)
C11 C 0.3796(3) 0.70082(5) 0.2412(2)
H8 H 0.4777 0.6935 0.3851
H9 H 0.2215 0.6957 0.2179
C12 C 0.4072(3) 0.74981(5) 0.2114(2)
H10 H 0.2639 0.7616 0.1057
H11 H 0.4424 0.7656 0.3400
C13 C 0.5958(2) 0.75697(5) 0.1477(2)
C14 C 0.5390(2) 0.73151(5) -0.0550(2)
C15 C 0.7287(3) 0.74762(6) -0.1086(2)
H12 H 0.6860 0.7439 -0.2555
H13 H 0.8714 0.7317 -0.0294
C16 C 0.7523(3) 0.79660(6) -0.0494(2)
H14 H 0.6777 0.8148 -0.1728
H15 H 0.9139 0.8048 0.0196
C17 C 0.6387(2) 0.80396(5) 0.0956(2)
C18 C 0.8226(3) 0.73997(6) 0.3162(2)
H16 H 0.8343 0.7483 0.4500
H17 H 0.9487 0.7528 0.2972
H18 H 0.8281 0.7081 0.3076
C19 C 0.6368(3) 0.60659(5) 0.3208(2)
H19 H 0.6728 0.6256 0.4389
H20 H 0.7558 0.6091 0.2746
H21 H 0.6269 0.5763 0.3588
C20 C 0.7683(3) 0.83729(6) 0.2655(2)
H22 H 0.9348 0.8325 0.3193
C21 C 0.7006(4) 0.83882(6) 0.4409(3)
H23 H 0.7751 0.8636 0.5295
H24 H 0.7470 0.8117 0.5193
H25 H 0.5364 0.8421 0.3862
C22 C 0.6998(3) 0.87989(6) 0.1413(3)
H26 H 0.7040 0.9049 0.2284
H27 H 0.8005 0.8860 0.0756
C23 C 0.4568(3) 0.87055(6) -0.0184(3)
C24 C 0.2663(3) 0.89625(6) -0.0113(3)
H28 H 0.2338 0.8976 0.1033
C25 C 0.1493(3) 0.91679(6) -0.1857(3)
C26 C 0.2562(3) 0.90671(6) -0.3213(3)
C27 C -0.0536(4) 0.94601(7) -0.2537(5)
H29 H -0.1058 0.9475 -0.1470
H30 H -0.1745 0.9343 -0.3785
H31 H -0.0130 0.9753 -0.2801
C28 C 0.1535(3) 0.53288(6) -0.2944(3)
H32 H 0.0859 0.5040 -0.3041
H33 H 0.2668 0.5316 -0.3477
H34 H 0.0355 0.5539 -0.3739
C29 C 0.4602(3) 0.51462(5) 0.0463(3)
H35 H 0.5197 0.5201 0.1928
H36 H 0.5814 0.5184 0.0038
H37 H 0.4018 0.4848 0.0165
C30 C 0.3110(3) 0.74377(5) -0.2342(2)
H38 H 0.2848 0.7251 -0.3513
H39 H 0.3151 0.7744 -0.2714
H40 H 0.1886 0.7396 -0.1935
O6 O 0.5716(3) 0.49364(9) 0.5654(3)
H41 H 0.583(4) 0.4642(9) 0.624(4)
H42 H 0.707(7) 0.5022(13) 0.703(6)
loop_
_geom_bond_atom_site_label_1
_geom_bond_atom_site_label_2
_geom_bond_site_symmetry_1
_geom_bond_site_symmetry_2
O1 C3 1_555 1_555
O2 C7 1_555 1_555
O3 C17 1_555 1_555
O4 C23 1_555 1_555
O5 C26 1_555 1_555
C1 H1 1_555 1_555
H2 C1 1_555 1_555
C2 C1 1_555 1_555
H3 C2 1_555 1_555
H4 C2 1_555 1_555
C3 C2 1_555 1_555
C4 C3 1_555 1_555
C5 C4 1_555 1_555
H5 C5 1_555 1_555
C6 C5 1_555 1_555
H6 C6 1_555 1_555
H7 C6 1_555 1_555
C7 C6 1_555 1_555
C8 C7 1_555 1_555
C9 C8 1_555 1_555
C10 C1 1_555 1_555
C11 C9 1_555 1_555
H8 C11 1_555 1_555
H9 C11 1_555 1_555
C12 C11 1_555 1_555
H10 C12 1_555 1_555
H11 C12 1_555 1_555
C13 C12 1_555 1_555
C14 C8 1_555 1_555
C15 C14 1_555 1_555
H12 C15 1_555 1_555
H13 C15 1_555 1_555
C16 C15 1_555 1_555
H14 C16 1_555 1_555
H15 C16 1_555 1_555
C17 C13 1_555 1_555
C18 C13 1_555 1_555
H16 C18 1_555 1_555
H17 C18 1_555 1_555
H18 C18 1_555 1_555
C19 C10 1_555 1_555
H19 C19 1_555 1_555
H20 C19 1_555 1_555
H21 C19 1_555 1_555
C20 C17 1_555 1_555
H22 C20 1_555 1_555
C21 C20 1_555 1_555
H23 C21 1_555 1_555
H24 C21 1_555 1_555
H25 C21 1_555 1_555
C22 C20 1_555 1_555
H26 C22 1_555 1_555
H27 C22 1_555 1_555
C23 O3 1_555 1_555
C24 C23 1_555 1_555
H28 C24 1_555 1_555
C25 C24 1_555 1_555
C26 O4 1_555 1_555
C27 C25 1_555 1_555
H29 C27 1_555 1_555
H30 C27 1_555 1_555
H31 C27 1_555 1_555
C28 C4 1_555 1_555
H32 C28 1_555 1_555
H33 C28 1_555 1_555
H34 C28 1_555 1_555
C29 C4 1_555 1_555
H35 C29 1_555 1_555
H36 C29 1_555 1_555
H37 C29 1_555 1_555
C30 C14 1_555 1_555
H38 C30 1_555 1_555
H39 C30 1_555 1_555
H40 C30 1_555 1_555
O6 H41 1_555 1_555
H42 O6 1_555 1_555
C5 C10 1_555 1_555
C9 C10 1_555 1_555
C13 C14 1_555 1_555
C16 C17 1_555 1_555
C22 C23 1_555 1_555
C25 C26 1_555 1_555

#END
