
#######################################################################
#
#                 Cambridge Crystallographic Data Centre
#                                CCDC 
#
#######################################################################
#
# If this CIF has been generated from an entry in the Cambridge 
# Structural Database, then it will include bibliographic, chemical, 
# crystal, experimental, refinement or atomic coordinate data resulting 
# from the CCDC's data processing and validation procedures.
#
#######################################################################

data_QULFIO
_chemical_compound_source        'Rhododendron micranthum'
_chemical_formula_moiety         'C22 H34 O6'
_chemical_name_systematic        
'3,5,6,16-tetrahydroxygrayanotox-10-en-14-yl acetate'
_symmetry_cell_setting           orthorhombic
_symmetry_space_group_name_H-M   'P 21 21 21'
_symmetry_Int_Tables_number      19
_space_group_name_Hall           'P 2ac 2ab'
loop_
_symmetry_equiv_pos_site_id
_symmetry_equiv_pos_as_xyz
1 x,y,z
2 1/2+x,1/2-y,-z
3 -x,1/2+y,1/2-z
4 1/2-x,-y,1/2+z
_cell_length_a                   9.9188(2)
_cell_length_b                   12.5661(2)
_cell_length_c                   16.7315(3)
_cell_angle_alpha                90
_cell_angle_beta                 90
_cell_angle_gamma                90
_cell_volume                     2085.42
_exptl_crystal_colour            colorless
_exptl_crystal_description       block
_cell_formula_units_Z            4
loop_
_atom_site_label
_atom_site_type_symbol
_atom_site_fract_x
_atom_site_fract_y
_atom_site_fract_z
C1 C 0.39136(14) 0.65100(10) 0.91043(8)
H1 H 0.3537 0.7015 0.9491
C2 C 0.54653(15) 0.65923(14) 0.91808(9)
H2 H 0.5709 0.6955 0.9672
H3 H 0.5868 0.5889 0.9185
C3 C 0.59479(15) 0.72197(12) 0.84613(9)
H4 H 0.6873 0.7023 0.8318
C4 C 0.49594(15) 0.69266(10) 0.77905(8)
C5 C 0.35862(14) 0.69747(10) 0.82466(8)
C6 C 0.23902(14) 0.64290(11) 0.78501(8)
H5 H 0.2621 0.5676 0.7785
C7 C 0.10978(14) 0.64874(11) 0.83562(9)
H6 H 0.1145 0.7122 0.8685
H7 H 0.0338 0.6573 0.7997
C8 C 0.08102(13) 0.55374(11) 0.89024(8)
C9 C 0.18587(14) 0.54349(11) 0.95945(8)
H8 H 0.1764 0.6085 0.9913
C10 C 0.33205(13) 0.54189(11) 0.93134(7)
C11 C 0.14513(16) 0.45144(13) 1.01543(8)
H9 H 0.2229 0.4317 1.0473
H10 H 0.0762 0.4770 1.0518
C12 C 0.09201(17) 0.35159(13) 0.97332(10)
H11 H 0.0447 0.3077 1.0119
H12 H 0.1678 0.3108 0.9533
C13 C -0.00345(15) 0.37682(12) 0.90370(9)
H13 H -0.0336 0.3115 0.8772
C14 C 0.07711(13) 0.44653(11) 0.84667(8)
H14 H 0.1678 0.4182 0.8373
C15 C -0.06373(15) 0.56125(13) 0.92600(10)
H15 H -0.0601 0.5892 0.9800
H16 H -0.1191 0.6083 0.8938
C16 C -0.12415(15) 0.44771(14) 0.92631(10)
C17 C -0.1960(2) 0.4184(2) 1.00335(14)
H17 H -0.2721 0.4645 1.0108
H18 H -0.1351 0.4261 1.0475
H19 H -0.2263 0.3459 1.0004
C18 C 0.52653(17) 0.57915(12) 0.74993(9)
H20 H 0.6184 0.5752 0.7321
H21 H 0.4673 0.5615 0.7065
H22 H 0.5130 0.5298 0.7930
C19 C 0.50988(19) 0.76807(13) 0.70786(10)
H23 H 0.4781 0.8375 0.7226
H24 H 0.4574 0.7417 0.6639
H25 H 0.6029 0.7724 0.6923
C20 C 0.40421(15) 0.45304(12) 0.93176(8)
H26 H 0.3658 0.3898 0.9495
H27 H 0.4932 0.4540 0.9143
C21 C 0.05912(16) 0.43312(14) 0.70335(9)
C22 C -0.0262(2) 0.4625(2) 0.63385(10)
H28 H 0.0152 0.4373 0.5856
H29 H -0.0352 0.5385 0.6315
H30 H -0.1137 0.4308 0.6396
O1 O 0.58576(12) 0.83376(9) 0.86540(7)
H31 H 0.6542 0.8642 0.8501
O2 O 0.31715(11) 0.80714(8) 0.83273(7)
H32 H 0.3825 0.8437 0.8449
O3 O 0.21553(13) 0.68592(11) 0.70716(7)
H33 H 0.2210 0.7510 0.7089
O4 O -0.22813(11) 0.43766(12) 0.86609(8)
H34 H -0.1972 0.4540 0.8223
O5 O 0.00201(10) 0.46041(8) 0.77190(5)
O6 O 0.16785(16) 0.39265(15) 0.69940(9)
loop_
_geom_bond_atom_site_label_1
_geom_bond_atom_site_label_2
_geom_bond_site_symmetry_1
_geom_bond_site_symmetry_2
C1 H1 1_555 1_555
C2 C1 1_555 1_555
H2 C2 1_555 1_555
H3 C2 1_555 1_555
C3 C2 1_555 1_555
H4 C3 1_555 1_555
C4 C3 1_555 1_555
C5 C1 1_555 1_555
C6 C5 1_555 1_555
H5 C6 1_555 1_555
C7 C6 1_555 1_555
H6 C7 1_555 1_555
H7 C7 1_555 1_555
C8 C7 1_555 1_555
C9 C8 1_555 1_555
H8 C9 1_555 1_555
C10 C1 1_555 1_555
C11 C9 1_555 1_555
H9 C11 1_555 1_555
H10 C11 1_555 1_555
C12 C11 1_555 1_555
H11 C12 1_555 1_555
H12 C12 1_555 1_555
C13 C12 1_555 1_555
H13 C13 1_555 1_555
C14 C8 1_555 1_555
H14 C14 1_555 1_555
C15 C8 1_555 1_555
H15 C15 1_555 1_555
H16 C15 1_555 1_555
C16 C13 1_555 1_555
C17 C16 1_555 1_555
H17 C17 1_555 1_555
H18 C17 1_555 1_555
H19 C17 1_555 1_555
C18 C4 1_555 1_555
H20 C18 1_555 1_555
H21 C18 1_555 1_555
H22 C18 1_555 1_555
C19 C4 1_555 1_555
H23 C19 1_555 1_555
H24 C19 1_555 1_555
H25 C19 1_555 1_555
C20 C10 1_555 1_555
H26 C20 1_555 1_555
H27 C20 1_555 1_555
C21 C22 1_555 1_555
C22 H28 1_555 1_555
H29 C22 1_555 1_555
H30 C22 1_555 1_555
O1 C3 1_555 1_555
H31 O1 1_555 1_555
O2 C5 1_555 1_555
H32 O2 1_555 1_555
O3 C6 1_555 1_555
H33 O3 1_555 1_555
O4 C16 1_555 1_555
H34 O4 1_555 1_555
O5 C14 1_555 1_555
O6 C21 1_555 1_555
C4 C5 1_555 1_555
C9 C10 1_555 1_555
C13 C14 1_555 1_555
C15 C16 1_555 1_555
C21 O5 1_555 1_555

#END
