
#######################################################################
#
#                 Cambridge Crystallographic Data Centre
#                                CCDC 
#
#######################################################################
#
# If this CIF has been generated from an entry in the Cambridge 
# Structural Database, then it will include bibliographic, chemical, 
# crystal, experimental, refinement or atomic coordinate data resulting 
# from the CCDC's data processing and validation procedures.
#
#######################################################################

data_QULPEU
_chemical_compound_source        'roots of Patrinia scabra'
_chemical_formula_moiety         'C12 H22 O5'
_chemical_name_systematic        
1,3-Dimethoxy-4,7-dimethyl-octahyhro-cyclopenta[c]pyran-6,7-diol
_symmetry_cell_setting           triclinic
_symmetry_space_group_name_H-M   'P 1'
_symmetry_Int_Tables_number      1
_space_group_name_Hall           'P 1'
loop_
_symmetry_equiv_pos_site_id
_symmetry_equiv_pos_as_xyz
1 x,y,z
_cell_length_a                   6.121(6)
_cell_length_b                   6.761(7)
_cell_length_c                   8.139(9)
_cell_angle_alpha                101.288(10)
_cell_angle_beta                 90.979(11)
_cell_angle_gamma                91.686(11)
_cell_volume                     330.077
_exptl_crystal_colour            colorless
_exptl_crystal_description       block
_cell_formula_units_Z            1
loop_
_atom_site_label
_atom_site_type_symbol
_atom_site_fract_x
_atom_site_fract_y
_atom_site_fract_z
C1 C 0.5519(6) 0.7268(5) 0.0367(4)
H1 H 0.4328 0.6257 0.0327
C2 C 0.4533(6) 0.9342(5) 0.0270(5)
H2 H 0.5315 0.9975 -0.0527
H3 H 0.3004 0.9167 -0.0077
C3 C 0.4776(5) 1.0623(5) 0.2018(5)
H4 H 0.4877 1.2063 0.1981
C4 C 0.6940(5) 0.9912(5) 0.2699(4)
C5 C 0.6677(5) 0.7606(5) 0.2094(4)
H5 H 0.5677 0.7102 0.2857
C6 C 0.8768(5) 0.6428(4) 0.2072(4)
H6 H 1.0015 0.7177 0.1723
C7 C 0.8146(6) 0.4592(5) -0.0789(4)
H7 H 0.7199 0.3451 -0.1337
C8 C 0.7090(6) 0.6544(5) -0.1051(4)
H8 H 0.8256 0.7582 -0.0998
C9 C 0.6001(8) 0.6209(7) -0.2804(5)
H9 H 0.4831 0.5215 -0.2880
H10 H 0.7063 0.5746 -0.3635
H11 H 0.5430 0.7455 -0.2992
C10 C 0.7352(7) 1.0633(6) 0.4553(5)
H12 H 0.8671 1.0068 0.4885
H13 H 0.6146 1.0211 0.5156
H14 H 0.7502 1.2079 0.4799
C11 C 1.1331(7) 0.5468(7) 0.3976(6)
H15 H 1.1726 0.4335 0.3138
H16 H 1.1421 0.5118 0.5062
H17 H 1.2315 0.6592 0.3946
C12 C 1.1148(8) 0.2548(6) -0.1666(6)
H18 H 1.1852 0.2527 -0.0606
H19 H 1.2213 0.2357 -0.2530
H20 H 1.0049 0.1482 -0.1906
O1 O 0.8386(4) 0.4482(3) 0.0936(3)
O2 O 1.0149(4) 0.4453(4) -0.1599(3)
O3 O 0.9138(3) 0.6004(3) 0.3648(3)
O4 O 0.3094(4) 1.0213(4) 0.3100(4)
H21 H 0.1900 1.0370 0.2681
O5 O 0.8704(4) 1.0586(3) 0.1769(3)
H22 H 0.8652 1.1809 0.1832
loop_
_geom_bond_atom_site_label_1
_geom_bond_atom_site_label_2
_geom_bond_site_symmetry_1
_geom_bond_site_symmetry_2
C1 H1 1_555 1_555
C2 C1 1_555 1_555
H2 C2 1_555 1_555
H3 C2 1_555 1_555
C3 C2 1_555 1_555
H4 C3 1_555 1_555
C4 C3 1_555 1_555
C5 C1 1_555 1_555
H5 C5 1_555 1_555
C6 C5 1_555 1_555
H6 C6 1_555 1_555
C7 H7 1_555 1_555
C8 C1 1_555 1_555
H8 C8 1_555 1_555
C9 C8 1_555 1_555
H9 C9 1_555 1_555
H10 C9 1_555 1_555
H11 C9 1_555 1_555
C10 C4 1_555 1_555
H12 C10 1_555 1_555
H13 C10 1_555 1_555
H14 C10 1_555 1_555
C11 H15 1_555 1_555
H16 C11 1_555 1_555
H17 C11 1_555 1_555
C12 H18 1_555 1_555
H19 C12 1_555 1_555
H20 C12 1_555 1_555
O1 C6 1_555 1_555
O2 C7 1_555 1_555
O3 C6 1_555 1_555
O4 C3 1_555 1_555
H21 O4 1_555 1_555
O5 C4 1_555 1_555
H22 O5 1_555 1_555
C4 C5 1_555 1_555
C7 C8 1_555 1_555
C7 O1 1_555 1_555
C11 O3 1_555 1_555
C12 O2 1_555 1_555

#END
