
#######################################################################
#
#                 Cambridge Crystallographic Data Centre
#                                CCDC 
#
#######################################################################
#
# If this CIF has been generated from an entry in the Cambridge 
# Structural Database, then it will include bibliographic, chemical, 
# crystal, experimental, refinement or atomic coordinate data resulting 
# from the CCDC's data processing and validation procedures.
#
#######################################################################

data_QULREW
_chemical_formula_moiety         'C32 H48 O5,C2 H6 O1'
_chemical_name_systematic        
'6-(3-acetoxy-4,4,6b,11b-tetramethyl-10-methylene-2,3,4,4a,5,6b,7,8,9,10,10a,11,11a,11b-tetradecahydro-1H-benzo[a]fluoren-9-yl)-4-hydroxy-2-methylhept-2-enoic acid ethanol solvate'
_symmetry_cell_setting           monoclinic
_symmetry_space_group_name_H-M   'P 21'
_symmetry_Int_Tables_number      4
_space_group_name_Hall           'P 2yb'
loop_
_symmetry_equiv_pos_site_id
_symmetry_equiv_pos_as_xyz
1 x,y,z
2 -x,1/2+y,-z
_cell_length_a                   7.9562(3)
_cell_length_b                   33.6801(14)
_cell_length_c                   12.6170(5)
_cell_angle_alpha                90
_cell_angle_beta                 107.429(2)
_cell_angle_gamma                90
_cell_volume                     3225.7
_exptl_crystal_colour            colorless
_exptl_crystal_description       prism
_cell_formula_units_Z            4
loop_
_atom_site_label
_atom_site_type_symbol
_atom_site_fract_x
_atom_site_fract_y
_atom_site_fract_z
O1 O 0.0302(4) 0.60843(9) 0.2469(2)
O2 O -0.0630(4) 0.41980(8) 0.5865(2)
O3 O -0.1852(4) 0.40848(9) 0.7212(2)
O4 O -0.2674(4) 0.56031(8) -0.2141(2)
H1 H -0.3527 0.5755 -0.2178
O5 O 0.1849(4) 0.59947(8) 0.1287(2)
H2 H 0.2615 0.6119 0.1780
C1 C 0.0437(5) 0.59502(10) 0.1598(3)
C2 C -0.0988(5) 0.57146(11) 0.0819(3)
C3 C -0.0955(5) 0.56499(10) -0.0224(3)
H3 H -0.0040 0.5778 -0.0434
C4 C -0.2190(5) 0.53990(11) -0.1096(3)
H4 H -0.3270 0.5340 -0.0874
C5 C -0.1283(5) 0.50159(11) -0.1225(3)
H5 H -0.0131 0.5079 -0.1334
H6 H -0.2005 0.4876 -0.1899
C6 C -0.0984(4) 0.47356(10) -0.0213(3)
H7 H -0.0703 0.4902 0.0475
C7 C 0.0587(5) 0.44521(10) -0.0122(3)
H8 H 0.0374 0.4326 -0.0868
C8 C 0.0750(4) 0.41138(10) 0.0715(3)
C9 C 0.1555(5) 0.42061(10) 0.1939(3)
H9 H 0.1902 0.3944 0.2314
C10 C 0.0370(5) 0.44121(10) 0.2567(3)
H10 H -0.0693 0.4527 0.2031
H11 H -0.0006 0.4218 0.3040
C11 C 0.1510(4) 0.47426(9) 0.3289(3)
H12 H 0.1284 0.4989 0.2824
C12 C 0.1291(4) 0.48619(10) 0.4434(3)
C13 C 0.2414(4) 0.45691(10) 0.5324(2)
H13 H 0.2056 0.4297 0.5021
C14 C 0.2099(5) 0.45765(10) 0.6493(3)
C15 C 0.0119(5) 0.45796(10) 0.6341(3)
H14 H -0.0082 0.4616 0.7080
C16 C -0.1570(5) 0.39873(11) 0.6364(3)
C17 C -0.2308(7) 0.36233(12) 0.5706(4)
H15 H -0.2871 0.3455 0.6136
H16 H -0.1354 0.3475 0.5544
H17 H -0.3181 0.3701 0.5008
C18 C -0.0650(5) 0.48397(11) 0.4397(3)
H18 H -0.1324 0.5047 0.3887
H19 H -0.1134 0.4578 0.4100
C19 C -0.0883(5) 0.48983(10) 0.5545(3)
H20 H -0.0440 0.5164 0.5834
H21 H -0.2150 0.4885 0.5488
C20 C 0.1933(5) 0.52931(11) 0.4648(3)
H22 H 0.1193 0.5465 0.4067
H23 H 0.3158 0.5310 0.4638
H24 H 0.1859 0.5379 0.5375
C21 C 0.2372(5) 0.46648(11) 0.0141(3)
H25 H 0.3241 0.4484 -0.0026
H26 H 0.2249 0.4900 -0.0348
C22 C 0.3066(4) 0.47980(10) 0.1351(3)
H27 H 0.2247 0.4997 0.1496
H28 H 0.4222 0.4929 0.1470
C23 C 0.3280(4) 0.44541(10) 0.2195(3)
C24 C 0.3356(4) 0.46061(10) 0.3348(3)
C25 C 0.4616(5) 0.45464(12) 0.4275(3)
H29 H 0.5738 0.4463 0.4239
C26 C 0.4352(5) 0.46060(13) 0.5403(3)
H30 H 0.4787 0.4872 0.5692
H31 H 0.5040 0.4405 0.5929
C27 C 0.4842(5) 0.41980(13) 0.2187(3)
H32 H 0.5912 0.4361 0.2381
H33 H 0.4647 0.4085 0.1444
H34 H 0.4976 0.3983 0.2729
C28 C -0.2671(5) 0.45082(12) -0.0309(3)
H35 H -0.2910 0.4326 -0.0942
H36 H -0.3652 0.4695 -0.0422
H37 H -0.2540 0.4357 0.0374
C29 C -0.2358(5) 0.55608(13) 0.1312(3)
H38 H -0.3191 0.5392 0.0769
H39 H -0.2992 0.5785 0.1510
H40 H -0.1787 0.5405 0.1980
C30 C 0.0300(6) 0.37493(12) 0.0361(3)
H41 H 0.0478 0.3537 0.0878
H42 H -0.0203 0.3699 -0.0410
C31 C 0.2921(5) 0.49332(12) 0.7217(3)
H43 H 0.2805 0.4899 0.7963
H44 H 0.2312 0.5177 0.6885
H45 H 0.4171 0.4953 0.7265
C32 C 0.2913(6) 0.42042(12) 0.7146(3)
H46 H 0.4201 0.4223 0.7359
H47 H 0.2523 0.3969 0.6682
H48 H 0.2537 0.4183 0.7816
O6 O 0.1693(4) 0.10527(10) 0.3543(3)
H49 H 0.1715 0.0886 0.3052
O7 O -0.3508(3) 0.28730(8) -0.0651(2)
O8 O -0.5942(4) 0.30035(10) -0.2041(2)
O9 O -0.1134(4) 0.09425(10) 0.2893(3)
O10 O 0.2309(3) 0.15461(8) 0.71566(19)
H50 H 0.1552 0.1412 0.7342
C33 C 0.0086(5) 0.11021(11) 0.3555(3)
C34 C -0.0120(5) 0.13665(10) 0.4469(3)
C35 C 0.1316(5) 0.15210(11) 0.5171(3)
H51 H 0.2395 0.1463 0.5025
C36 C 0.1452(5) 0.17786(10) 0.6176(3)
H52 H 0.0255 0.1864 0.6189
C37 C 0.2624(5) 0.21370(10) 0.6213(3)
H53 H 0.3811 0.2043 0.6230
H54 H 0.2745 0.2284 0.6911
C38 C 0.1941(5) 0.24252(10) 0.5225(3)
H55 H 0.1599 0.2267 0.4522
C39 C 0.3391(5) 0.27224(10) 0.5176(3)
H56 H 0.3805 0.2853 0.5921
C40 C 0.2765(5) 0.30500(11) 0.4331(3)
C41 C 0.2451(5) 0.29499(10) 0.3115(3)
H57 H 0.2427 0.3209 0.2722
C42 C 0.0681(5) 0.27348(10) 0.2509(3)
H58 H 0.0112 0.2635 0.3055
H59 H -0.0139 0.2919 0.1994
C43 C 0.1170(4) 0.23849(10) 0.1857(3)
H60 H 0.1422 0.2152 0.2373
C44 C -0.0109(5) 0.22377(10) 0.0758(3)
C45 C -0.2002(5) 0.22430(11) 0.0819(3)
H61 H -0.2133 0.2034 0.1340
H62 H -0.2231 0.2502 0.1119
C46 C -0.3370(5) 0.21755(12) -0.0310(3)
H63 H -0.3193 0.1910 -0.0594
H64 H -0.4566 0.2184 -0.0224
C47 C -0.3221(5) 0.24901(11) -0.1139(3)
H65 H -0.4147 0.2448 -0.1867
C48 C -0.4880(5) 0.30934(11) -0.1183(3)
C49 C 0.5020(5) 0.25296(12) 0.4971(3)
H66 H 0.5983 0.2727 0.5116
H67 H 0.5426 0.2307 0.5497
C50 C 0.4631(5) 0.23737(11) 0.3775(3)
H68 H 0.3735 0.2161 0.3652
H69 H 0.5719 0.2256 0.3684
C51 C 0.3960(5) 0.26999(11) 0.2887(3)
C52 C 0.2923(5) 0.25240(11) 0.1765(3)
C53 C 0.3271(5) 0.25706(13) 0.0818(3)
H70 H 0.4411 0.2658 0.0829
C54 C 0.1928(5) 0.24901(14) -0.0279(3)
H71 H 0.2115 0.2220 -0.0535
H72 H 0.2077 0.2683 -0.0835
C55 C 0.0062(5) 0.25216(11) -0.0189(3)
H73 H -0.0017 0.2796 0.0097
C56 C -0.1401(5) 0.25017(11) -0.1309(3)
C57 C -0.1277(5) 0.21356(14) -0.2026(3)
H74 H -0.2231 0.2145 -0.2728
H75 H -0.1382 0.1892 -0.1624
H76 H -0.0139 0.2137 -0.2177
C58 C 0.0422(5) 0.18084(12) 0.0607(4)
H77 H 0.0348 0.1648 0.1239
H78 H 0.1633 0.1804 0.0567
H79 H -0.0375 0.1700 -0.0081
C59 C 0.2611(7) 0.34179(12) 0.4654(3)
H80 H 0.2894 0.3478 0.5423
H81 H 0.2216 0.3622 0.4117
C60 C -0.4968(6) 0.34639(13) -0.0556(4)
H82 H -0.4128 0.3658 -0.0678
H83 H -0.4671 0.3403 0.0238
H84 H -0.6162 0.3574 -0.0817
C61 C -0.1330(6) 0.28691(14) -0.2020(3)
H85 H -0.2353 0.2869 -0.2687
H86 H -0.0247 0.2862 -0.2238
H87 H -0.1345 0.3110 -0.1588
C62 C 0.5488(5) 0.29643(13) 0.2843(3)
H88 H 0.6370 0.2805 0.2634
H89 H 0.6024 0.3084 0.3574
H90 H 0.5054 0.3174 0.2291
C63 C 0.0305(5) 0.26402(13) 0.5334(3)
H91 H 0.0609 0.2787 0.6036
H92 H -0.0616 0.2445 0.5322
H93 H -0.0127 0.2826 0.4713
C64 C -0.1948(6) 0.14143(14) 0.4522(4)
H94 H -0.1919 0.1484 0.5281
H95 H -0.2593 0.1165 0.4307
H96 H -0.2539 0.1626 0.4012
O11 O 0.4708(5) 0.60599(13) 0.7892(3)
H97 H 0.3847 0.5907 0.7824
C65 C 0.4995(7) 0.62884(16) 0.8878(5)
H98 H 0.4635 0.6566 0.8673
H99 H 0.6270 0.6289 0.9284
C66 C 0.4029(9) 0.6140(2) 0.9616(5)
H100 H 0.2772 0.6121 0.9206
H101 H 0.4192 0.6322 1.0245
H102 H 0.4474 0.5876 0.9891
O12 O 0.4456(4) 0.62839(9) 0.2862(2)
H103 H 0.5451 0.6368 0.2865
C67 C 0.4650(5) 0.60189(13) 0.3784(3)
H104 H 0.3478 0.5915 0.3764
H105 H 0.5124 0.6169 0.4485
C68 C 0.5853(6) 0.56768(13) 0.3773(4)
H106 H 0.5353 0.5518 0.3102
H107 H 0.5980 0.5511 0.4431
H108 H 0.7010 0.5778 0.3778
loop_
_geom_bond_atom_site_label_1
_geom_bond_atom_site_label_2
_geom_bond_site_symmetry_1
_geom_bond_site_symmetry_2
O1 C1 1_555 1_555
O2 C15 1_555 1_555
O3 C16 1_555 1_555
O4 H1 1_555 1_555
O5 H2 1_555 1_555
C1 O5 1_555 1_555
C2 C1 1_555 1_555
C3 C2 1_555 1_555
H3 C3 1_555 1_555
C4 O4 1_555 1_555
H4 C4 1_555 1_555
C5 C4 1_555 1_555
H5 C5 1_555 1_555
H6 C5 1_555 1_555
C6 C5 1_555 1_555
H7 C6 1_555 1_555
C7 C6 1_555 1_555
H8 C7 1_555 1_555
C8 C7 1_555 1_555
C9 C8 1_555 1_555
H9 C9 1_555 1_555
C10 C9 1_555 1_555
H10 C10 1_555 1_555
H11 C10 1_555 1_555
C11 C10 1_555 1_555
H12 C11 1_555 1_555
C12 C11 1_555 1_555
C13 C12 1_555 1_555
H13 C13 1_555 1_555
C14 C13 1_555 1_555
C15 C14 1_555 1_555
H14 C15 1_555 1_555
C16 O2 1_555 1_555
C17 C16 1_555 1_555
H15 C17 1_555 1_555
H16 C17 1_555 1_555
H17 C17 1_555 1_555
C18 C12 1_555 1_555
H18 C18 1_555 1_555
H19 C18 1_555 1_555
C19 C15 1_555 1_555
H20 C19 1_555 1_555
H21 C19 1_555 1_555
C20 C12 1_555 1_555
H22 C20 1_555 1_555
H23 C20 1_555 1_555
H24 C20 1_555 1_555
C21 C7 1_555 1_555
H25 C21 1_555 1_555
H26 C21 1_555 1_555
C22 C21 1_555 1_555
H27 C22 1_555 1_555
H28 C22 1_555 1_555
C23 C9 1_555 1_555
C24 C11 1_555 1_555
C25 C24 1_555 1_555
H29 C25 1_555 1_555
C26 C13 1_555 1_555
H30 C26 1_555 1_555
H31 C26 1_555 1_555
C27 C23 1_555 1_555
H32 C27 1_555 1_555
H33 C27 1_555 1_555
H34 C27 1_555 1_555
C28 C6 1_555 1_555
H35 C28 1_555 1_555
H36 C28 1_555 1_555
H37 C28 1_555 1_555
C29 C2 1_555 1_555
H38 C29 1_555 1_555
H39 C29 1_555 1_555
H40 C29 1_555 1_555
C30 C8 1_555 1_555
H41 C30 1_555 1_555
H42 C30 1_555 1_555
C31 C14 1_555 1_555
H43 C31 1_555 1_555
H44 C31 1_555 1_555
H45 C31 1_555 1_555
C32 C14 1_555 1_555
H46 C32 1_555 1_555
H47 C32 1_555 1_555
H48 C32 1_555 1_555
O6 H49 1_555 1_555
O7 C47 1_555 1_555
O8 C48 1_555 1_555
O9 C33 1_555 1_555
O10 H50 1_555 1_555
C33 O6 1_555 1_555
C34 C33 1_555 1_555
C35 C34 1_555 1_555
H51 C35 1_555 1_555
C36 O10 1_555 1_555
H52 C36 1_555 1_555
C37 C36 1_555 1_555
H53 C37 1_555 1_555
H54 C37 1_555 1_555
C38 C37 1_555 1_555
H55 C38 1_555 1_555
C39 C38 1_555 1_555
H56 C39 1_555 1_555
C40 C39 1_555 1_555
C41 C40 1_555 1_555
H57 C41 1_555 1_555
C42 C41 1_555 1_555
H58 C42 1_555 1_555
H59 C42 1_555 1_555
C43 C42 1_555 1_555
H60 C43 1_555 1_555
C44 C43 1_555 1_555
C45 C44 1_555 1_555
H61 C45 1_555 1_555
H62 C45 1_555 1_555
C46 C45 1_555 1_555
H63 C46 1_555 1_555
H64 C46 1_555 1_555
C47 C46 1_555 1_555
H65 C47 1_555 1_555
C48 O7 1_555 1_555
C49 C39 1_555 1_555
H66 C49 1_555 1_555
H67 C49 1_555 1_555
C50 C49 1_555 1_555
H68 C50 1_555 1_555
H69 C50 1_555 1_555
C51 C41 1_555 1_555
C52 C43 1_555 1_555
C53 C52 1_555 1_555
H70 C53 1_555 1_555
C54 C53 1_555 1_555
H71 C54 1_555 1_555
H72 C54 1_555 1_555
C55 C44 1_555 1_555
H73 C55 1_555 1_555
C56 C47 1_555 1_555
C57 C56 1_555 1_555
H74 C57 1_555 1_555
H75 C57 1_555 1_555
H76 C57 1_555 1_555
C58 C44 1_555 1_555
H77 C58 1_555 1_555
H78 C58 1_555 1_555
H79 C58 1_555 1_555
C59 C40 1_555 1_555
H80 C59 1_555 1_555
H81 C59 1_555 1_555
C60 C48 1_555 1_555
H82 C60 1_555 1_555
H83 C60 1_555 1_555
H84 C60 1_555 1_555
C61 C56 1_555 1_555
H85 C61 1_555 1_555
H86 C61 1_555 1_555
H87 C61 1_555 1_555
C62 C51 1_555 1_555
H88 C62 1_555 1_555
H89 C62 1_555 1_555
H90 C62 1_555 1_555
C63 C38 1_555 1_555
H91 C63 1_555 1_555
H92 C63 1_555 1_555
H93 C63 1_555 1_555
C64 C34 1_555 1_555
H94 C64 1_555 1_555
H95 C64 1_555 1_555
H96 C64 1_555 1_555
O11 H97 1_555 1_555
C65 O11 1_555 1_555
H98 C65 1_555 1_555
H99 C65 1_555 1_555
C66 C65 1_555 1_555
H100 C66 1_555 1_555
H101 C66 1_555 1_555
H102 C66 1_555 1_555
O12 H103 1_555 1_555
C67 O12 1_555 1_555
H104 C67 1_555 1_555
H105 C67 1_555 1_555
C68 C67 1_555 1_555
H106 C68 1_555 1_555
H107 C68 1_555 1_555
H108 C68 1_555 1_555
C3 C4 1_555 1_555
C18 C19 1_555 1_555
C22 C23 1_555 1_555
C23 C24 1_555 1_555
C25 C26 1_555 1_555
C35 C36 1_555 1_555
C50 C51 1_555 1_555
C51 C52 1_555 1_555
C54 C55 1_555 1_555
C55 C56 1_555 1_555

#END
