
#######################################################################
#
#                 Cambridge Crystallographic Data Centre
#                                CCDC 
#
#######################################################################
#
# If this CIF has been generated from an entry in the Cambridge 
# Structural Database, then it will include bibliographic, chemical, 
# crystal, experimental, refinement or atomic coordinate data resulting 
# from the CCDC's data processing and validation procedures.
#
#######################################################################

data_QUMVAX
_chemical_formula_moiety         'C19 H13 N3 O1'
_chemical_name_systematic        
2-amino-4-phenyl-4H-pyrano[3,2-h]quinoline-3-carbonitrile
_symmetry_cell_setting           triclinic
_symmetry_space_group_name_H-M   'P -1'
_symmetry_Int_Tables_number      2
_space_group_name_Hall           '-P 1'
loop_
_symmetry_equiv_pos_site_id
_symmetry_equiv_pos_as_xyz
1 x,y,z
2 -x,-y,-z
_cell_length_a                   6.754(3)
_cell_length_b                   9.099(4)
_cell_length_c                   12.284(5)
_cell_angle_alpha                74.773(6)
_cell_angle_beta                 76.055(7)
_cell_angle_gamma                80.788(7)
_cell_volume                     703.152
_exptl_crystal_colour            yellow
_exptl_crystal_description       block
_cell_formula_units_Z            2
loop_
_atom_site_label
_atom_site_type_symbol
_atom_site_fract_x
_atom_site_fract_y
_atom_site_fract_z
C1 C 0.12809(15) 0.86110(11) 0.41073(8)
H1 H -0.0021 0.9138 0.4010
C2 C 0.23311(15) 0.77431(11) 0.33019(8)
H2 H 0.1732 0.7674 0.2695
H3 H 0.283(2) 1.0201(17) 0.8898(13)
H4 H 0.148(2) 1.0293(16) 0.8084(12)
C3 C 0.42246(15) 0.70065(11) 0.34141(8)
H5 H 0.4963 0.6422 0.2880
C4 C 0.50829(15) 0.71196(11) 0.43322(8)
C5 C 0.70438(15) 0.63976(11) 0.45042(8)
H6 H 0.7851 0.5811 0.3988
C6 C 0.77738(15) 0.65457(11) 0.54139(8)
H7 H 0.9086 0.6051 0.5522
C7 C 0.66181(14) 0.74201(10) 0.61996(7)
C8 C 0.47116(14) 0.80972(10) 0.60464(8)
C9 C 0.38846(14) 0.79886(10) 0.51059(8)
C10 C 0.75421(14) 0.76036(10) 0.71590(8)
H8 H 0.8828 0.8112 0.6799
C11 C 0.60618(14) 0.86382(10) 0.78390(8)
C12 C 0.41473(14) 0.91952(10) 0.76493(8)
C13 C 0.67341(15) 0.90558(11) 0.87140(8)
C14 C 0.80992(14) 0.60558(10) 0.79337(8)
C15 C 1.01174(15) 0.55804(12) 0.80551(9)
H9 H 1.1166 0.6225 0.7652
C16 C 1.06047(16) 0.41597(13) 0.87670(9)
H10 H 1.1981 0.3847 0.8853
C17 C 0.90836(17) 0.32038(12) 0.93498(9)
H11 H 0.9421 0.2232 0.9825
C18 C 0.70613(16) 0.36740(11) 0.92361(9)
H12 H 0.6016 0.3024 0.9636
C19 C 0.65740(14) 0.50948(11) 0.85375(8)
H13 H 0.5191 0.5416 0.8470
N1 N 0.19982(12) 0.87351(9) 0.49892(7)
N2 N 0.27297(13) 1.00743(10) 0.82455(7)
N3 N 0.73391(15) 0.93888(11) 0.94113(8)
O1 O 0.34204(10) 0.89391(8) 0.67798(6)
loop_
_geom_bond_atom_site_label_1
_geom_bond_atom_site_label_2
_geom_bond_site_symmetry_1
_geom_bond_site_symmetry_2
C1 H1 1_555 1_555
C2 C1 1_555 1_555
H2 C2 1_555 1_555
H3 N2 1_555 1_555
H4 N2 1_555 1_555
C3 C2 1_555 1_555
H5 C3 1_555 1_555
C4 C3 1_555 1_555
C5 C4 1_555 1_555
H6 C5 1_555 1_555
C6 C5 1_555 1_555
H7 C6 1_555 1_555
C7 C6 1_555 1_555
C8 C7 1_555 1_555
C9 C4 1_555 1_555
C10 C7 1_555 1_555
H8 C10 1_555 1_555
C11 C10 1_555 1_555
C12 C11 1_555 1_555
C13 C11 1_555 1_555
C14 C10 1_555 1_555
C15 C14 1_555 1_555
H9 C15 1_555 1_555
C16 C15 1_555 1_555
H10 C16 1_555 1_555
C17 C16 1_555 1_555
H11 C17 1_555 1_555
C18 C17 1_555 1_555
H12 C18 1_555 1_555
C19 C14 1_555 1_555
H13 C19 1_555 1_555
N1 C1 1_555 1_555
N2 C12 1_555 1_555
N3 C13 1_555 1_555
O1 C8 1_555 1_555
C8 C9 1_555 1_555
C9 N1 1_555 1_555
C12 O1 1_555 1_555
C18 C19 1_555 1_555

#END
