
#######################################################################
#
#                 Cambridge Crystallographic Data Centre
#                                CCDC 
#
#######################################################################
#
# If this CIF has been generated from an entry in the Cambridge 
# Structural Database, then it will include bibliographic, chemical, 
# crystal, experimental, refinement or atomic coordinate data resulting 
# from the CCDC's data processing and validation procedures.
#
#######################################################################

data_QUPKAP01
_chemical_formula_moiety         'C12 H10 N2,C10 H2 N4'
_chemical_name_systematic        
"benzene-1,2,4,5-tetracarbonitrile 4,4'-ethene-1,2-diyldipyridine"
_symmetry_cell_setting           triclinic
_symmetry_space_group_name_H-M   'P -1'
_symmetry_Int_Tables_number      2
_space_group_name_Hall           '-P 1'
loop_
_symmetry_equiv_pos_site_id
_symmetry_equiv_pos_as_xyz
1 x,y,z
2 -x,-y,-z
_cell_length_a                   6.8211(8)
_cell_length_b                   7.1445(9)
_cell_length_c                   10.4533(13)
_cell_angle_alpha                76.807(5)
_cell_angle_beta                 79.148(6)
_cell_angle_gamma                75.911(5)
_cell_volume                     476.285
_exptl_crystal_colour            colorless
_exptl_crystal_description       Platelet
_cell_formula_units_Z            1
loop_
_atom_site_label
_atom_site_type_symbol
_atom_site_fract_x
_atom_site_fract_y
_atom_site_fract_z
N1 N -0.5036(2) 0.4821(2) 0.25271(13)
C1 C -0.4418(3) 0.3256(3) 0.34412(17)
C2 C -0.2982(3) 0.3133(3) 0.42304(18)
C3 C -0.4185(3) 0.6356(3) 0.24053(18)
C4 C -0.2723(3) 0.6350(3) 0.31570(19)
C5 C -0.2086(2) 0.4693(3) 0.41029(17)
C6 C -0.0540(3) 0.4344(3) 0.50279(19)
H1 H -0.0345 0.3180 0.5650
H2 H -0.465(3) 0.747(3) 0.1743(18)
H3 H -0.222(3) 0.754(3) 0.298(2)
H4 H -0.255(3) 0.187(3) 0.489(2)
H5 H -0.498(3) 0.212(3) 0.3552(19)
N1A N 0.5036(2) 0.5179(2) 0.74729(13)
C1A C 0.4418(3) 0.6744(3) 0.65588(17)
C2A C 0.2982(3) 0.6867(3) 0.57696(18)
C3A C 0.4185(3) 0.3644(3) 0.75947(18)
C4A C 0.2723(3) 0.3650(3) 0.68430(19)
C5A C 0.2086(2) 0.5307(3) 0.58971(17)
C6A C 0.0540(3) 0.5656(3) 0.49721(19)
H1A H 0.0345 0.6820 0.4350
H2A H 0.465(3) 0.253(3) 0.8257(18)
H3A H 0.222(3) 0.246(3) 0.702(2)
H4A H 0.255(3) 0.813(3) 0.511(2)
H5A H 0.498(3) 0.788(3) 0.6448(19)
N2 N 0.1503(3) 0.0278(2) 0.27526(18)
N3 N 0.2901(3) 0.9371(2) -0.06073(19)
C8 C 0.1095(3) 0.1621(2) 0.19534(16)
C9 C 0.0549(2) 0.3336(2) 0.09558(14)
C10 C 0.1553(2) 0.4872(2) 0.07457(14)
C11 C 0.1005(2) 0.6532(2) -0.02085(14)
C12 C 0.2065(3) 0.8117(2) -0.04321(17)
H7 H 0.263(2) 0.479(2) 0.1285(15)
N2A N -0.1503(3) 0.9722(2) -0.27526(18)
N3A N -0.2901(3) 0.0629(2) 0.06073(19)
C8A C -0.1095(3) 0.8379(2) -0.19534(16)
C9A C -0.0549(2) 0.6664(2) -0.09558(14)
C10A C -0.1553(2) 0.5128(2) -0.07457(14)
C11A C -0.1005(2) 0.3468(2) 0.02085(14)
C12A C -0.2065(3) 0.1883(2) 0.04321(17)
H7A H -0.263(2) 0.521(2) -0.1285(15)
C7? C -0.0522(7) 0.5507(5) 0.4522(5)
H6? H -0.0293 0.6744 0.4097
loop_
_geom_bond_atom_site_label_1
_geom_bond_atom_site_label_2
_geom_bond_site_symmetry_1
_geom_bond_site_symmetry_2
N1 C1 1_555 1_555
C1 C2 1_555 1_555
C2 C5 1_555 1_555
C3 N1 1_555 1_555
C4 C3 1_555 1_555
C5 C4 1_555 1_555
C6 C5 1_555 1_555
H1 C6 1_555 1_555
H2 C3 1_555 1_555
H3 C4 1_555 1_555
H4 C2 1_555 1_555
H5 C1 1_555 1_555
N2 C8 1_555 1_555
N3 C12 1_555 1_555
C8 C9 1_555 1_555
C9 C10 1_555 1_555
C10 C11 1_555 1_555
C11 C12 1_555 1_555
H7 C10 1_555 1_555
N1A C1A 1_555 1_555
C1A C2A 1_555 1_555
C2A C5A 1_555 1_555
C3A N1A 1_555 1_555
C4A C3A 1_555 1_555
C5A C4A 1_555 1_555
C6A C6 1_555 1_555
H1A C6A 1_555 1_555
H2A C3A 1_555 1_555
H3A C4A 1_555 1_555
H4A C2A 1_555 1_555
H5A C1A 1_555 1_555
N2A C8A 1_555 1_555
N3A C12A 1_555 1_555
C8A C9A 1_555 1_555
C9A C11 1_555 1_555
C10A C9A 1_555 1_555
C11A C9 1_555 1_555
C12A C11A 1_555 1_555
H7A C10A 1_555 1_555
C5A C6A 1_555 1_555
C10A C11A 1_555 1_555

#END
