
#######################################################################
#
#                 Cambridge Crystallographic Data Centre
#                                CCDC 
#
#######################################################################
#
# If this CIF has been generated from an entry in the Cambridge 
# Structural Database, then it will include bibliographic, chemical, 
# crystal, experimental, refinement or atomic coordinate data resulting 
# from the CCDC's data processing and validation procedures.
#
#######################################################################

data_QUPNUL
_chemical_formula_moiety         'C52 H80 O4'
_chemical_name_systematic        5,5,10,10,15,15,20,20-octabutylcalix[4]furan
_symmetry_cell_setting           triclinic
_symmetry_space_group_name_H-M   'P -1'
_symmetry_Int_Tables_number      2
_space_group_name_Hall           '-P 1'
loop_
_symmetry_equiv_pos_site_id
_symmetry_equiv_pos_as_xyz
1 x,y,z
2 -x,-y,-z
_cell_length_a                   12.969(2)
_cell_length_b                   14.641(2)
_cell_length_c                   15.502(2)
_cell_angle_alpha                65.333(9)
_cell_angle_beta                 68.547(9)
_cell_angle_gamma                82.873(9)
_cell_volume                     2488.16
_exptl_crystal_colour            colorless
_exptl_crystal_description       prism
_chemical_melting_point          '271.5-272.5 deg.C'
_cell_formula_units_Z            2
_exptl_crystal_recrystallization_method n-hexane/toluene
loop_
_atom_site_label
_atom_site_type_symbol
_atom_site_fract_x
_atom_site_fract_y
_atom_site_fract_z
C1 C 0.2218(2) -0.0118(2) 1.11543(19)
C2 C 0.3204(2) -0.0163(2) 1.1268(2)
H1 H 0.3416 0.0170 1.1592
C3 C 0.3870(2) -0.0801(2) 1.0815(2)
H2 H 0.4610 -0.0976 1.0780
C4 C 0.3263(2) -0.1110(2) 1.0448(2)
C5 C 0.3439(2) -0.17769(19) 0.9894(2)
C6 C 0.2535(2) -0.2619(2) 1.0489(2)
H3 H 0.1807 -0.2308 1.0517
H4 H 0.2656 -0.3047 1.0110
C7 C 0.2480(3) -0.3289(2) 1.1565(2)
H5 H 0.3175 -0.3661 1.1540
H6 H 0.2430 -0.2861 1.1931
C8 C 0.1507(3) -0.4036(2) 1.2149(2)
H7 H 0.0814 -0.3661 1.2188
H8 H 0.1546 -0.4447 1.1768
C9 C 0.1453(3) -0.4726(3) 1.3200(3)
H9 H 0.0805 -0.5185 1.3527
H10 H 0.1392 -0.4329 1.3591
H11 H 0.2127 -0.5116 1.3170
C10 C 0.4614(2) -0.2195(2) 0.9769(2)
H12 H 0.5156 -0.1622 0.9420
H13 H 0.4661 -0.2588 1.0450
C11 C 0.4940(3) -0.2854(3) 0.9185(3)
H14 H 0.4393 -0.3422 0.9525
H15 H 0.4913 -0.2458 0.8497
C12 C 0.6079(3) -0.3267(3) 0.9094(3)
H16 H 0.6620 -0.2696 0.8771
H17 H 0.6097 -0.3671 0.9783
C13 C 0.6442(4) -0.3902(4) 0.8503(4)
H18 H 0.7194 -0.4126 0.8471
H19 H 0.6435 -0.3509 0.7815
H20 H 0.5935 -0.4489 0.8833
C14 C 0.3354(2) -0.11721(19) 0.8871(2)
C15 C 0.2722(2) -0.1215(2) 0.8372(2)
H21 H 0.2146 -0.1698 0.8618
C16 C 0.3075(2) -0.0400(2) 0.7405(2)
H22 H 0.2778 -0.0240 0.6884
C17 C 0.3901(2) 0.0101(2) 0.7360(2)
C18 C 0.4622(2) 0.1019(2) 0.65993(19)
C19 C 0.5851(2) 0.0729(2) 0.6310(2)
H23 H 0.6319 0.1345 0.5833
H24 H 0.6053 0.0443 0.6927
C20 C 0.6112(3) -0.0032(3) 0.5823(3)
H25 H 0.5523 -0.0568 0.6209
H26 H 0.6100 0.0311 0.5125
C21 C 0.7232(3) -0.0513(3) 0.5785(3)
H27 H 0.7241 -0.0859 0.6483
H28 H 0.7319 -0.1027 0.5507
C22 C 0.8191(3) 0.0217(4) 0.5162(4)
H29 H 0.8880 -0.0139 0.5175
H30 H 0.8120 0.0723 0.5438
H31 H 0.8205 0.0548 0.4462
C23 C 0.4241(3) 0.1499(2) 0.5676(2)
H32 H 0.4337 0.1010 0.5366
H33 H 0.3440 0.1628 0.5915
C24 C 0.4850(3) 0.2472(3) 0.4869(2)
H34 H 0.4888 0.2911 0.5199
H35 H 0.5619 0.2321 0.4529
C25 C 0.4328(4) 0.3037(3) 0.4081(3)
H36 H 0.4368 0.2628 0.3697
H37 H 0.3535 0.3119 0.4426
C26 C 0.4853(5) 0.4046(4) 0.3352(4)
H38 H 0.4459 0.4372 0.2873
H39 H 0.5630 0.3972 0.2980
H40 H 0.4815 0.4460 0.3722
C27 C 0.4490(2) 0.1756(2) 0.70634(19)
C28 C 0.5164(3) 0.2200(2) 0.7268(2)
H41 H 0.5934 0.2098 0.7142
C29 C 0.4501(3) 0.2852(2) 0.7712(2)
H42 H 0.4750 0.3268 0.7936
C30 C 0.3468(3) 0.2771(2) 0.7754(2)
C31 C 0.2377(3) 0.3219(2) 0.8144(2)
C32 C 0.1926(3) 0.3792(2) 0.7263(2)
H43 H 0.1851 0.3314 0.6986
H44 H 0.1174 0.4019 0.7544
C33 C 0.2621(3) 0.4688(2) 0.6406(2)
H45 H 0.3383 0.4474 0.6135
H46 H 0.2665 0.5189 0.6667
C34 C 0.2153(4) 0.5182(3) 0.5548(3)
H47 H 0.2169 0.4699 0.5248
H48 H 0.1370 0.5343 0.5830
C35 C 0.2782(5) 0.6118(4) 0.4739(4)
H49 H 0.2444 0.6409 0.4214
H50 H 0.3552 0.5959 0.4439
H51 H 0.2765 0.6601 0.5030
C36 C 0.2566(3) 0.3912(2) 0.8592(2)
H52 H 0.2874 0.3515 0.9132
H53 H 0.3127 0.4442 0.8056
C37 C 0.1540(4) 0.4411(3) 0.9027(3)
H54 H 0.0990 0.3899 0.9608
H55 H 0.1198 0.4794 0.8508
C38 C 0.1917(9) 0.5146(7) 0.9383(10)
H56 H 0.1224 0.5388 0.9757
H57 H 0.2254 0.4715 0.9891
C39 C 0.2538(10) 0.5889(7) 0.8838(8)
H58 H 0.2636 0.6202 0.9253
H59 H 0.2216 0.6372 0.8348
H60 H 0.3259 0.5689 0.8475
C40 C 0.1564(2) 0.2392(2) 0.8940(2)
C41 C 0.0606(2) 0.2030(2) 0.9049(2)
H61 H 0.0240 0.2275 0.8568
C42 C 0.0234(2) 0.1212(2) 1.0012(2)
H62 H -0.0425 0.0811 1.0298
C43 C 0.1000(2) 0.1117(2) 1.0440(2)
C44 C 0.1165(2) 0.0428(2) 1.1412(2)
C45 C 0.1295(3) 0.1049(2) 1.1961(2)
H63 H 0.1406 0.0579 1.2597
H64 H 0.1976 0.1481 1.1532
C46 C 0.0346(3) 0.1709(3) 1.2218(3)
H65 H 0.0222 0.2177 1.1587
H66 H -0.0335 0.1282 1.2665
C47 C 0.0533(4) 0.2302(3) 1.2725(3)
H67 H 0.1231 0.2708 1.2287
H68 H 0.0636 0.1830 1.3365
C48 C -0.0379(5) 0.2994(4) 1.2963(4)
H69 H -0.0191 0.3345 1.3305
H70 H -0.1074 0.2601 1.3405
H71 H -0.0467 0.3486 1.2332
C49 C 0.0168(2) -0.0329(2) 1.2063(2)
H72 H -0.0514 0.0050 1.2212
H73 H 0.0096 -0.0678 1.1660
C50 C 0.0237(3) -0.1112(2) 1.3052(2)
H74 H 0.0935 -0.1472 1.2907
H75 H 0.0272 -0.0767 1.3471
C51 C -0.0709(3) -0.1866(3) 1.3650(3)
H76 H -0.0745 -0.2206 1.3227
H77 H -0.1406 -0.1504 1.3793
C52 C -0.0656(4) -0.2654(3) 1.4633(3)
H78 H -0.1306 -0.3112 1.4969
H79 H -0.0644 -0.2330 1.5070
H80 H 0.0019 -0.3034 1.4502
O1 O 0.22299(14) -0.06975(13) 1.06494(13)
O2 O 0.40973(15) -0.03651(13) 0.82617(13)
O3 O 0.34335(15) 0.21008(13) 0.73615(13)
O4 O 0.18292(15) 0.18429(13) 0.97926(13)
C53? C 0.1504(12) 0.4785(9) 0.9857(9)
C54? C 0.134(3) 0.5700(12) 0.950(2)
H81? H 0.0895 0.4433 1.0501
H82? H 0.2213 0.4660 0.9984
H83? H 0.1309 0.5980 0.9986
H84? H 0.0643 0.5808 0.9374
H85? H 0.1954 0.6034 0.8866
loop_
_geom_bond_atom_site_label_1
_geom_bond_atom_site_label_2
_geom_bond_site_symmetry_1
_geom_bond_site_symmetry_2
C1 C2 1_555 1_555
C2 H1 1_555 1_555
C3 C2 1_555 1_555
H2 C3 1_555 1_555
C4 C3 1_555 1_555
C5 C4 1_555 1_555
C6 C5 1_555 1_555
H3 C6 1_555 1_555
H4 C6 1_555 1_555
C7 C6 1_555 1_555
H5 C7 1_555 1_555
H6 C7 1_555 1_555
C8 C7 1_555 1_555
H7 C8 1_555 1_555
H8 C8 1_555 1_555
C9 C8 1_555 1_555
H9 C9 1_555 1_555
H10 C9 1_555 1_555
H11 C9 1_555 1_555
C10 C5 1_555 1_555
H12 C10 1_555 1_555
H13 C10 1_555 1_555
C11 C10 1_555 1_555
H14 C11 1_555 1_555
H15 C11 1_555 1_555
C12 C11 1_555 1_555
H16 C12 1_555 1_555
H17 C12 1_555 1_555
C13 C12 1_555 1_555
H18 C13 1_555 1_555
H19 C13 1_555 1_555
H20 C13 1_555 1_555
C14 C5 1_555 1_555
C15 C14 1_555 1_555
H21 C15 1_555 1_555
C16 C15 1_555 1_555
H22 C16 1_555 1_555
C17 C16 1_555 1_555
C18 C17 1_555 1_555
C19 C18 1_555 1_555
H23 C19 1_555 1_555
H24 C19 1_555 1_555
C20 C19 1_555 1_555
H25 C20 1_555 1_555
H26 C20 1_555 1_555
C21 C20 1_555 1_555
H27 C21 1_555 1_555
H28 C21 1_555 1_555
C22 C21 1_555 1_555
H29 C22 1_555 1_555
H30 C22 1_555 1_555
H31 C22 1_555 1_555
C23 C18 1_555 1_555
H32 C23 1_555 1_555
H33 C23 1_555 1_555
C24 C23 1_555 1_555
H34 C24 1_555 1_555
H35 C24 1_555 1_555
C25 C24 1_555 1_555
H36 C25 1_555 1_555
H37 C25 1_555 1_555
C26 C25 1_555 1_555
H38 C26 1_555 1_555
H39 C26 1_555 1_555
H40 C26 1_555 1_555
C27 C18 1_555 1_555
C28 C27 1_555 1_555
H41 C28 1_555 1_555
C29 C28 1_555 1_555
H42 C29 1_555 1_555
C30 C29 1_555 1_555
C31 C30 1_555 1_555
C32 C31 1_555 1_555
H43 C32 1_555 1_555
H44 C32 1_555 1_555
C33 C32 1_555 1_555
H45 C33 1_555 1_555
H46 C33 1_555 1_555
C34 C33 1_555 1_555
H47 C34 1_555 1_555
H48 C34 1_555 1_555
C35 C34 1_555 1_555
H49 C35 1_555 1_555
H50 C35 1_555 1_555
H51 C35 1_555 1_555
C36 C31 1_555 1_555
H52 C36 1_555 1_555
H53 C36 1_555 1_555
C37 C36 1_555 1_555
H54 C37 1_555 1_555
H55 C37 1_555 1_555
C38 C37 1_555 1_555
H56 C38 1_555 1_555
H57 C38 1_555 1_555
C39 C38 1_555 1_555
H58 C39 1_555 1_555
H59 C39 1_555 1_555
H60 C39 1_555 1_555
C40 C31 1_555 1_555
C41 C40 1_555 1_555
H61 C41 1_555 1_555
C42 C41 1_555 1_555
H62 C42 1_555 1_555
C43 C42 1_555 1_555
C44 C1 1_555 1_555
C45 C44 1_555 1_555
H63 C45 1_555 1_555
H64 C45 1_555 1_555
C46 C45 1_555 1_555
H65 C46 1_555 1_555
H66 C46 1_555 1_555
C47 C46 1_555 1_555
H67 C47 1_555 1_555
H68 C47 1_555 1_555
C48 C47 1_555 1_555
H69 C48 1_555 1_555
H70 C48 1_555 1_555
H71 C48 1_555 1_555
C49 C44 1_555 1_555
H72 C49 1_555 1_555
H73 C49 1_555 1_555
C50 C49 1_555 1_555
H74 C50 1_555 1_555
H75 C50 1_555 1_555
C51 C50 1_555 1_555
H76 C51 1_555 1_555
H77 C51 1_555 1_555
C52 C51 1_555 1_555
H78 C52 1_555 1_555
H79 C52 1_555 1_555
H80 C52 1_555 1_555
O1 C1 1_555 1_555
O2 C14 1_555 1_555
O3 C27 1_555 1_555
O4 C40 1_555 1_555
C4 O1 1_555 1_555
C17 O2 1_555 1_555
C30 O3 1_555 1_555
C43 C44 1_555 1_555
C43 O4 1_555 1_555

#END
