
#######################################################################
#
#                 Cambridge Crystallographic Data Centre
#                                CCDC 
#
#######################################################################
#
# If this CIF has been generated from an entry in the Cambridge 
# Structural Database, then it will include bibliographic, chemical, 
# crystal, experimental, refinement or atomic coordinate data resulting 
# from the CCDC's data processing and validation procedures.
#
#######################################################################

data_QUPQAV
_chemical_formula_moiety         'C23 H22 Cl1 N1 O2 S1'
_chemical_name_systematic        
N-(1-chloro-2,3,3-triphenylprop-1-en-1-yl)-N-methylmethanesulfonamide
_symmetry_cell_setting           triclinic
_symmetry_space_group_name_H-M   'P -1'
_symmetry_Int_Tables_number      2
_space_group_name_Hall           '-P 1'
loop_
_symmetry_equiv_pos_site_id
_symmetry_equiv_pos_as_xyz
1 x,y,z
2 -x,-y,-z
_cell_length_a                   8.3660(6)
_cell_length_b                   11.2874(8)
_cell_length_c                   12.1577(9)
_cell_angle_alpha                86.279(2)
_cell_angle_beta                 71.4270(10)
_cell_angle_gamma                82.812(2)
_cell_volume                     1079.33
_exptl_crystal_colour            colorless
_exptl_crystal_description       block
_cell_formula_units_Z            2
loop_
_atom_site_label
_atom_site_type_symbol
_atom_site_fract_x
_atom_site_fract_y
_atom_site_fract_z
O1 O 0.6828(2) 0.83329(18) 0.99518(15)
Cl1 Cl 0.63785(8) 0.92503(7) 0.71861(6)
S1 S 0.56887(7) 0.75971(5) 0.97682(5)
C1 C 1.1032(2) 0.94268(16) 0.67381(17)
C2 C 0.7494(2) 0.79641(18) 0.75952(17)
C3 C 0.9159(2) 0.77283(17) 0.71395(16)
C4 C 1.2377(3) 0.99985(19) 0.6019(2)
H1 H 1.2826 0.9801 0.5242
C5 C 0.9987(2) 0.66024(17) 0.75421(17)
C6 C 1.0584(3) 0.6588(2) 0.84829(19)
H2 H 1.0454 0.7285 0.8884
C7 C 1.1577(3) 0.78031(18) 0.52650(17)
N1 N 0.6464(2) 0.72108(16) 0.84115(15)
C8 C 1.0255(2) 0.85287(17) 0.62209(16)
H3 H 0.9493 0.9002 0.5851
C9 C 1.0386(3) 0.97517(19) 0.78888(19)
H4 H 0.9470 0.9397 0.8387
C10 C 1.1095(4) 1.0603(2) 0.8306(2)
H5 H 1.0657 1.0805 0.9082
C11 C 1.1290(3) 0.7683(2) 0.4221(2)
H6 H 1.0293 0.8047 0.4105
C12 C 1.3075(3) 0.7252(2) 0.5413(2)
H7 H 1.3289 0.7325 0.6109
C13 C 1.0196(3) 0.5554(2) 0.6960(2)
H8 H 0.9813 0.5546 0.6322
C14 C 1.2487(4) 0.7021(3) 0.3340(2)
H9 H 1.2282 0.6943 0.2642
C15 C 1.0984(4) 0.4502(2) 0.7328(3)
H10 H 1.1116 0.3798 0.6935
C16 C 1.4257(3) 0.6591(2) 0.4530(3)
H11 H 1.5253 0.6218 0.4640
C17 C 1.1373(3) 0.5545(3) 0.8834(2)
H12 H 1.1779 0.5550 0.9462
C18 C 1.3063(3) 1.0856(2) 0.6437(2)
H13 H 1.3954 1.1236 0.5938
C19 C 1.2434(3) 1.1150(2) 0.7585(2)
H14 H 1.2911 1.1713 0.7871
C20 C 1.3954(4) 0.6489(3) 0.3494(3)
H15 H 1.4752 0.6055 0.2899
C21 C 1.1557(3) 0.4508(3) 0.8256(3)
H16 H 1.2074 0.3807 0.8500
O2 O 0.5346(3) 0.65272(17) 1.04455(16)
C22 C 0.3730(3) 0.8472(3) 0.9933(3)
H17 H 0.3221 0.8690 1.0730
H18 H 0.2989 0.8021 0.9709
H19 H 0.3914 0.9181 0.9450
C23 C 0.5615(4) 0.6355(3) 0.7994(3)
H20 H 0.4752 0.6781 0.7710
H21 H 0.5106 0.5823 0.8621
H22 H 0.6431 0.5904 0.7380
loop_
_geom_bond_atom_site_label_1
_geom_bond_atom_site_label_2
_geom_bond_site_symmetry_1
_geom_bond_site_symmetry_2
O1 S1 1_555 1_555
Cl1 C2 1_555 1_555
S1 N1 1_555 1_555
C1 C4 1_555 1_555
C2 C3 1_555 1_555
C3 C5 1_555 1_555
C4 H1 1_555 1_555
C5 C6 1_555 1_555
C6 H2 1_555 1_555
C7 C8 1_555 1_555
N1 C2 1_555 1_555
C8 C1 1_555 1_555
H3 C8 1_555 1_555
C9 C1 1_555 1_555
H4 C9 1_555 1_555
C10 C9 1_555 1_555
H5 C10 1_555 1_555
C11 C7 1_555 1_555
H6 C11 1_555 1_555
C12 C7 1_555 1_555
H7 C12 1_555 1_555
C13 C5 1_555 1_555
H8 C13 1_555 1_555
C14 C11 1_555 1_555
H9 C14 1_555 1_555
C15 C13 1_555 1_555
H10 C15 1_555 1_555
C16 C12 1_555 1_555
H11 C16 1_555 1_555
C17 C6 1_555 1_555
H12 C17 1_555 1_555
C18 C4 1_555 1_555
H13 C18 1_555 1_555
C19 C10 1_555 1_555
H14 C19 1_555 1_555
C20 C14 1_555 1_555
H15 C20 1_555 1_555
C21 C15 1_555 1_555
H16 C21 1_555 1_555
O2 S1 1_555 1_555
C22 S1 1_555 1_555
H17 C22 1_555 1_555
H18 C22 1_555 1_555
H19 C22 1_555 1_555
C23 N1 1_555 1_555
H20 C23 1_555 1_555
H21 C23 1_555 1_555
H22 C23 1_555 1_555
C3 C8 1_555 1_555
C16 C20 1_555 1_555
C17 C21 1_555 1_555
C18 C19 1_555 1_555

#END
