
#######################################################################
#
#                 Cambridge Crystallographic Data Centre
#                                CCDC 
#
#######################################################################
#
# If this CIF has been generated from an entry in the Cambridge 
# Structural Database, then it will include bibliographic, chemical, 
# crystal, experimental, refinement or atomic coordinate data resulting 
# from the CCDC's data processing and validation procedures.
#
#######################################################################

data_QUPROK
_chemical_formula_moiety         'C39 H42 Mg1 N2 O2'
_chemical_name_systematic        
benzyl-(2-(((triphenylmethyl)imino)methyl)-1H-pyrrol-1-yl)-bis(tetrahydrofuran)-magnesium
_symmetry_cell_setting           triclinic
_symmetry_space_group_name_H-M   'P -1'
_symmetry_Int_Tables_number      2
_space_group_name_Hall           '-P 1'
loop_
_symmetry_equiv_pos_site_id
_symmetry_equiv_pos_as_xyz
1 x,y,z
2 -x,-y,-z
_cell_length_a                   9.530(3)
_cell_length_b                   17.850(6)
_cell_length_c                   20.350(7)
_cell_angle_alpha                109.890(4)
_cell_angle_beta                 96.251(2)
_cell_angle_gamma                93.303(3)
_cell_volume                     3219.26
_cell_formula_units_Z            4
loop_
_atom_site_label
_atom_site_type_symbol
_atom_site_fract_x
_atom_site_fract_y
_atom_site_fract_z
Mg1 Mg 1.60716(9) 1.21044(5) 0.50556(4)
O1 O 1.76725(18) 1.19491(10) 0.43281(9)
O2 O 1.43040(18) 1.23107(11) 0.57057(9)
N1 N 1.7414(2) 1.30177(12) 0.58117(10)
N2 N 1.55201(19) 1.31043(11) 0.47097(10)
C1 C 1.8483(3) 1.31698(16) 0.63493(13)
H1 H 1.8767 1.2792 0.6559
C2 C 1.9113(3) 1.39527(16) 0.65549(13)
H2 H 1.9886 1.4196 0.6917
C3 C 1.8386(3) 1.43125(15) 0.61255(13)
H3 H 1.8561 1.4847 0.6139
C4 C 1.7349(2) 1.37230(14) 0.56719(12)
C5 C 1.6367(2) 1.37369(14) 0.50961(12)
H4 H 1.6329 1.4216 0.4992
C6 C 1.4561(2) 1.31222(13) 0.40844(12)
C7 C 1.5265(2) 1.36615(14) 0.37356(12)
C8 C 1.4611(3) 1.42848(14) 0.36075(12)
H5 H 1.3698 1.4390 0.3741
C9 C 1.5274(3) 1.47575(15) 0.32857(13)
H6 H 1.4811 1.5181 0.3203
C10 C 1.6600(3) 1.46143(16) 0.30862(13)
H7 H 1.7045 1.4932 0.2861
C11 C 1.7277(3) 1.40003(16) 0.32178(13)
H8 H 1.8193 1.3901 0.3086
C12 C 1.6622(3) 1.35307(15) 0.35416(12)
H9 H 1.7099 1.3116 0.3633
C13 C 1.3123(2) 1.34051(13) 0.42927(12)
C14 C 1.1931(2) 1.31892(15) 0.37771(13)
H10 H 1.2014 1.2851 0.3311
C15 C 1.0630(3) 1.34592(15) 0.39341(14)
H11 H 0.9837 1.3311 0.3574
C16 C 1.0480(3) 1.39432(15) 0.46108(14)
H12 H 0.9588 1.4126 0.4720
C17 C 1.1649(3) 1.41584(16) 0.51278(14)
H13 H 1.1557 1.4489 0.5595
C18 C 1.2961(3) 1.38939(15) 0.49679(13)
H14 H 1.3755 1.4051 0.5327
C19 C 1.4267(2) 1.22377(14) 0.35840(12)
C20 C 1.4480(2) 1.19687(15) 0.28788(12)
H15 H 1.4845 1.2335 0.2678
C21 C 1.4157(3) 1.11624(15) 0.24670(13)
H16 H 1.4307 1.0983 0.1986
C22 C 1.3621(3) 1.06182(15) 0.27490(14)
H17 H 1.3415 1.0068 0.2465
C23 C 1.3384(3) 1.08822(15) 0.34504(13)
H18 H 1.3010 1.0516 0.3648
C24 C 1.3701(2) 1.16854(14) 0.38574(12)
H19 H 1.3529 1.1865 0.4335
C25 C 1.5991(3) 1.08524(16) 0.49828(14)
H20 H 1.5016 1.0644 0.5002
H21 H 1.6309 1.0516 0.4539
C26 C 1.6961(3) 1.08642(15) 0.55968(14)
C27 C 1.8343(3) 1.06335(17) 0.55526(16)
H22 H 1.8630 1.0402 0.5100
C28 C 1.9301(3) 1.07311(18) 0.61449(16)
H23 H 2.0233 1.0580 0.6090
C29 C 1.8927(3) 1.10442(18) 0.68152(16)
H24 H 1.9591 1.1116 0.7220
C30 C 1.7566(3) 1.12499(17) 0.68801(15)
H25 H 1.7285 1.1458 0.7336
C31 C 1.6598(3) 1.11591(16) 0.62905(14)
H26 H 1.5663 1.1299 0.6354
C32 C 1.9137(3) 1.19651(16) 0.46311(14)
H27 H 1.9169 1.1790 0.5045
H28 H 1.9627 1.2513 0.4784
C33 C 1.9836(3) 1.13956(16) 0.40564(14)
H29 H 2.0540 1.1116 0.4255
H30 H 2.0313 1.1682 0.3789
C34 C 1.8594(3) 1.08095(16) 0.35897(14)
H31 H 1.8798 1.0567 0.3099
H32 H 1.8366 1.0379 0.3776
C35 C 1.7407(3) 1.13383(16) 0.36292(13)
H33 H 1.7406 1.1586 0.3261
H34 H 1.6478 1.1024 0.3561
C36 C 1.2963(3) 1.1845(2) 0.56170(17)
H35 H 1.3110 1.1276 0.5526
H36 H 1.2327 1.1879 0.5212
C37 C 1.2330(4) 1.2173(3) 0.6270(2)
H37 H 1.2560 1.1872 0.6589
H38 H 1.1286 1.2149 0.6165
C38 C 1.2970(3) 1.3014(2) 0.65908(19)
H39 H 1.3026 1.3205 0.7111
H40 H 1.2418 1.3372 0.6408
C39 C 1.4432(3) 1.29767(17) 0.63667(15)
H41 H 1.4752 1.3482 0.6302
H42 H 1.5124 1.2889 0.6726
Mg2 Mg 0.38206(8) 0.77766(5) -0.03750(4)
O3 O 0.56294(19) 0.74196(11) -0.09593(9)
O4 O 0.23256(17) 0.81574(10) 0.03644(9)
N3 N 0.2460(2) 0.67822(12) -0.10176(10)
N4 N 0.4357(2) 0.69020(12) 0.01649(10)
C40 C 0.1413(3) 0.65300(16) -0.15711(13)
H43 H 0.1109 0.6841 -0.1847
C41 C 0.0835(3) 0.57497(16) -0.16854(13)
H44 H 0.0086 0.5446 -0.2041
C42 C 0.1572(3) 0.55073(15) -0.11762(13)
H45 H 0.1431 0.5004 -0.1117
C43 C 0.2561(2) 0.61516(14) -0.07694(12)
C44 C 0.3531(2) 0.62415(14) -0.01578(12)
H46 H 0.3578 0.5812 0.0018
C45 C 0.5330(2) 0.69649(14) 0.08106(12)
C46 C 0.6749(2) 0.66353(14) 0.06121(13)
C47 C 0.6835(3) 0.60328(16) -0.00242(14)
H47 H 0.6004 0.5823 -0.0357
C48 C 0.8122(3) 0.57295(17) -0.01836(15)
H48 H 0.8161 0.5321 -0.0624
C49 C 0.9336(3) 0.60190(17) 0.02947(16)
H49 H 1.0214 0.5814 0.0187
C50 C 0.9260(3) 0.66105(17) 0.09317(17)
H50 H 1.0091 0.6812 0.1265
C51 C 0.7981(3) 0.69158(16) 0.10917(15)
H51 H 0.7948 0.7321 0.1535
C52 C 0.5664(2) 0.78762(14) 0.12317(12)
C53 C 0.6122(2) 0.83668(14) 0.08741(13)
H52 H 0.6199 0.8134 0.0386
C54 C 0.6466(3) 0.91830(15) 0.12104(14)
H53 H 0.6756 0.9506 0.0953
C55 C 0.6385(3) 0.95252(16) 0.19267(14)
H54 H 0.6618 1.0085 0.2163
C56 C 0.5963(3) 0.90485(16) 0.22943(14)
H55 H 0.5915 0.9283 0.2785
C57 C 0.5605(3) 0.82258(15) 0.19535(13)
H56 H 0.5321 0.7904 0.2213
C58 C 0.4646(2) 0.65330(14) 0.12495(12)
C59 C 0.3343(3) 0.67457(15) 0.14765(13)
H57 H 0.2890 0.7144 0.1345
C60 C 0.2702(3) 0.63873(16) 0.18888(13)
H58 H 0.1828 0.6549 0.2046
C61 C 0.3334(3) 0.57915(16) 0.20729(13)
H59 H 0.2902 0.5548 0.2359
C62 C 0.4593(3) 0.55574(16) 0.18355(13)
H60 H 0.5017 0.5140 0.1948
C63 C 0.5253(3) 0.59282(15) 0.14308(12)
H61 H 0.6129 0.5765 0.1277
C64 C 0.3893(3) 0.89104(17) -0.05917(15)
H62 H 0.4012 0.9374 -0.0145
H63 H 0.4695 0.8952 -0.0852
C65 C 0.2546(3) 0.88946(15) -0.10167(14)
C66 C 0.1404(3) 0.92960(17) -0.07347(16)
H64 H 0.1527 0.9618 -0.0249
C67 C 0.0109(3) 0.92423(19) -0.11344(19)
H65 H -0.0631 0.9523 -0.0917
C68 C -0.0126(3) 0.8790(2) -0.1841(2)
H66 H -0.1019 0.8754 -0.2114
C69 C 0.0970(3) 0.83869(18) -0.21442(16)
H67 H 0.0831 0.8073 -0.2632
C70 C 0.2269(3) 0.84373(17) -0.17430(14)
H68 H 0.3000 0.8153 -0.1966
C71 C 0.5537(3) 0.66642(16) -0.15330(14)
H69 H 0.4889 0.6673 -0.1945
H70 H 0.5175 0.6222 -0.1387
C72 C 0.7027(3) 0.65519(19) -0.17180(16)
H71 H 0.7399 0.6100 -0.1601
H72 H 0.7048 0.6451 -0.2226
C73 C 0.7851(4) 0.7314(2) -0.1282(3)
H73 H 0.8541 0.7224 -0.0923
H74 H 0.8387 0.7525 -0.1583
C74 C 0.6942(3) 0.7875(2) -0.09461(17)
H75 H 0.6773 0.8253 -0.1200
H76 H 0.7364 0.8184 -0.0454
C75 C 0.0826(3) 0.79275(16) 0.01057(14)
H77 H 0.0564 0.7370 0.0073
H78 H 0.0603 0.7965 -0.0368
C76 C 0.0024(3) 0.85010(17) 0.06273(14)
H79 H -0.0828 0.8219 0.0709
H80 H -0.0268 0.8936 0.0460
C77 C 0.1099(3) 0.88250(17) 0.12909(14)
H81 H 0.0906 0.9363 0.1595
H82 H 0.1105 0.8461 0.1565
C78 C 0.2477(3) 0.88599(16) 0.09955(13)
H83 H 0.2620 0.9354 0.0882
H84 H 0.3291 0.8845 0.1336
loop_
_geom_bond_atom_site_label_1
_geom_bond_atom_site_label_2
_geom_bond_site_symmetry_1
_geom_bond_site_symmetry_2
Mg1 O1 1_555 1_555
O1 C32 1_555 1_555
O2 Mg1 1_555 1_555
N1 Mg1 1_555 1_555
N2 Mg1 1_555 1_555
C1 N1 1_555 1_555
H1 C1 1_555 1_555
C2 C1 1_555 1_555
H2 C2 1_555 1_555
C3 C2 1_555 1_555
H3 C3 1_555 1_555
C4 N1 1_555 1_555
C5 N2 1_555 1_555
H4 C5 1_555 1_555
C6 N2 1_555 1_555
C7 C6 1_555 1_555
C8 C7 1_555 1_555
H5 C8 1_555 1_555
C9 C8 1_555 1_555
H6 C9 1_555 1_555
C10 C9 1_555 1_555
H7 C10 1_555 1_555
C11 C10 1_555 1_555
H8 C11 1_555 1_555
C12 C7 1_555 1_555
H9 C12 1_555 1_555
C13 C6 1_555 1_555
C14 C13 1_555 1_555
H10 C14 1_555 1_555
C15 C14 1_555 1_555
H11 C15 1_555 1_555
C16 C15 1_555 1_555
H12 C16 1_555 1_555
C17 C16 1_555 1_555
H13 C17 1_555 1_555
C18 C13 1_555 1_555
H14 C18 1_555 1_555
C19 C6 1_555 1_555
C20 C19 1_555 1_555
H15 C20 1_555 1_555
C21 C20 1_555 1_555
H16 C21 1_555 1_555
C22 C21 1_555 1_555
H17 C22 1_555 1_555
C23 C22 1_555 1_555
H18 C23 1_555 1_555
C24 C19 1_555 1_555
H19 C24 1_555 1_555
C25 Mg1 1_555 1_555
H20 C25 1_555 1_555
H21 C25 1_555 1_555
C26 C25 1_555 1_555
C27 C26 1_555 1_555
H22 C27 1_555 1_555
C28 C27 1_555 1_555
H23 C28 1_555 1_555
C29 C28 1_555 1_555
H24 C29 1_555 1_555
C30 C29 1_555 1_555
H25 C30 1_555 1_555
C31 C26 1_555 1_555
H26 C31 1_555 1_555
C32 H27 1_555 1_555
H28 C32 1_555 1_555
C33 C32 1_555 1_555
H29 C33 1_555 1_555
H30 C33 1_555 1_555
C34 C33 1_555 1_555
H31 C34 1_555 1_555
H32 C34 1_555 1_555
C35 O1 1_555 1_555
H33 C35 1_555 1_555
H34 C35 1_555 1_555
C36 O2 1_555 1_555
H35 C36 1_555 1_555
H36 C36 1_555 1_555
C37 C36 1_555 1_555
H37 C37 1_555 1_555
H38 C37 1_555 1_555
C38 C37 1_555 1_555
H39 C38 1_555 1_555
H40 C38 1_555 1_555
C39 O2 1_555 1_555
H41 C39 1_555 1_555
H42 C39 1_555 1_555
Mg2 O3 1_555 1_555
O3 C71 1_555 1_555
O4 Mg2 1_555 1_555
N3 Mg2 1_555 1_555
N4 Mg2 1_555 1_555
C40 N3 1_555 1_555
H43 C40 1_555 1_555
C41 C40 1_555 1_555
H44 C41 1_555 1_555
C42 C41 1_555 1_555
H45 C42 1_555 1_555
C43 N3 1_555 1_555
C44 N4 1_555 1_555
H46 C44 1_555 1_555
C45 N4 1_555 1_555
C46 C45 1_555 1_555
C47 C46 1_555 1_555
H47 C47 1_555 1_555
C48 C47 1_555 1_555
H48 C48 1_555 1_555
C49 C48 1_555 1_555
H49 C49 1_555 1_555
C50 C49 1_555 1_555
H50 C50 1_555 1_555
C51 C46 1_555 1_555
H51 C51 1_555 1_555
C52 C45 1_555 1_555
C53 C52 1_555 1_555
H52 C53 1_555 1_555
C54 C53 1_555 1_555
H53 C54 1_555 1_555
C55 C54 1_555 1_555
H54 C55 1_555 1_555
C56 C55 1_555 1_555
H55 C56 1_555 1_555
C57 C52 1_555 1_555
H56 C57 1_555 1_555
C58 C45 1_555 1_555
C59 C58 1_555 1_555
H57 C59 1_555 1_555
C60 C59 1_555 1_555
H58 C60 1_555 1_555
C61 C60 1_555 1_555
H59 C61 1_555 1_555
C62 C61 1_555 1_555
H60 C62 1_555 1_555
C63 C58 1_555 1_555
H61 C63 1_555 1_555
C64 Mg2 1_555 1_555
H62 C64 1_555 1_555
H63 C64 1_555 1_555
C65 C64 1_555 1_555
C66 C65 1_555 1_555
H64 C66 1_555 1_555
C67 C66 1_555 1_555
H65 C67 1_555 1_555
C68 C67 1_555 1_555
H66 C68 1_555 1_555
C69 C68 1_555 1_555
H67 C69 1_555 1_555
C70 C65 1_555 1_555
H68 C70 1_555 1_555
C71 H69 1_555 1_555
H70 C71 1_555 1_555
C72 C71 1_555 1_555
H71 C72 1_555 1_555
H72 C72 1_555 1_555
C73 C72 1_555 1_555
H73 C73 1_555 1_555
H74 C73 1_555 1_555
C74 O3 1_555 1_555
H75 C74 1_555 1_555
H76 C74 1_555 1_555
C75 O4 1_555 1_555
H77 C75 1_555 1_555
H78 C75 1_555 1_555
C76 C75 1_555 1_555
H79 C76 1_555 1_555
H80 C76 1_555 1_555
C77 C76 1_555 1_555
H81 C77 1_555 1_555
H82 C77 1_555 1_555
C78 O4 1_555 1_555
H83 C78 1_555 1_555
H84 C78 1_555 1_555
C3 C4 1_555 1_555
C4 C5 1_555 1_555
C11 C12 1_555 1_555
C17 C18 1_555 1_555
C23 C24 1_555 1_555
C30 C31 1_555 1_555
C34 C35 1_555 1_555
C38 C39 1_555 1_555
C42 C43 1_555 1_555
C43 C44 1_555 1_555
C50 C51 1_555 1_555
C56 C57 1_555 1_555
C62 C63 1_555 1_555
C69 C70 1_555 1_555
C73 C74 1_555 1_555
C77 C78 1_555 1_555

#END
