
#######################################################################
#
#                 Cambridge Crystallographic Data Centre
#                                CCDC 
#
#######################################################################
#
# If this CIF has been generated from an entry in the Cambridge 
# Structural Database, then it will include bibliographic, chemical, 
# crystal, experimental, refinement or atomic coordinate data resulting 
# from the CCDC's data processing and validation procedures.
#
#######################################################################

data_QUPSOK
_chemical_name_common            'bis(1,5-Dimexylbiguanidium) adipate'
_chemical_formula_moiety         '2(C18 H24 N5 1+),C6 H8 O4 2-'
_chemical_name_systematic        
'bis(1,5-bis(3,5-Dimethylphenyl)biguanidium) hexanedioate'
_symmetry_cell_setting           triclinic
_symmetry_space_group_name_H-M   'P -1'
_symmetry_Int_Tables_number      2
_space_group_name_Hall           '-P 1'
loop_
_symmetry_equiv_pos_site_id
_symmetry_equiv_pos_as_xyz
1 x,y,z
2 -x,-y,-z
_cell_length_a                   9.7875(19)
_cell_length_b                   10.587(2)
_cell_length_c                   12.438(3)
_cell_angle_alpha                93.946(3)
_cell_angle_beta                 109.581(2)
_cell_angle_gamma                114.975(2)
_cell_volume                     1066.85
_exptl_crystal_colour            colorless
_exptl_crystal_description       block
_chemical_melting_point          '201 deg.C (dec.)'
_cell_formula_units_Z            1
_exptl_crystal_recrystallization_method methanol
loop_
_atom_site_label
_atom_site_type_symbol
_atom_site_fract_x
_atom_site_fract_y
_atom_site_fract_z
O1 O 0.32458(16) 0.13062(14) 0.95343(13)
O2 O 0.32710(18) 0.32479(15) 1.03441(14)
C19 C 0.2526(3) 0.2011(2) 0.96823(19)
C20 C 0.0675(3) 0.1295(2) 0.9028(2)
H25 H 0.0386 0.1097 0.8170
H26 H 0.0265 0.1954 0.9218
C21 C -0.0157(3) -0.0105(2) 0.9356(2)
H27 H 0.027(2) -0.076(2) 0.9192(17)
H28 H -0.138(3) -0.060(3) 0.885(2)
O1A O -0.32458(16) -0.13062(14) 1.04657(13)
O2A O -0.32710(18) -0.32479(15) 0.96559(14)
C19A C -0.2526(3) -0.2011(2) 1.03177(19)
C20A C -0.0675(3) -0.1295(2) 1.0972(2)
H25A H -0.0386 -0.1097 1.1830
H26A H -0.0265 -0.1954 1.0782
C21A C 0.0157(3) 0.0105(2) 1.0644(2)
H27A H -0.027(2) 0.076(2) 1.0808(17)
H28A H 0.138(3) 0.060(3) 1.115(2)
N1 N 0.7696(2) 0.49123(19) 0.88006(16)
H1 H 0.749(3) 0.564(3) 0.902(2)
N2 N 0.6236(2) 0.3822(2) 0.98449(17)
H2 H 0.620(3) 0.460(3) 1.000(2)
H3 H 0.535(3) 0.294(3) 0.982(2)
N3 N 0.6887(2) 0.24825(17) 0.87059(15)
N4 N 0.7253(2) 0.16759(18) 1.04496(15)
H4 H 0.7830 0.2559 1.0896
H5 H 0.7063 0.0941 1.0774
N5 N 0.5927(2) 0.00622(18) 0.86984(16)
H6 H 0.602(2) -0.051(2) 0.9149(18)
C1 C 0.8618(2) 0.5206(2) 0.81047(17)
C2 C 0.8678(2) 0.6317(2) 0.75631(18)
H7 H 0.8063 0.6785 0.7642
C3 C 0.9617(3) 0.6758(2) 0.69088(18)
C4 C 1.0491(3) 0.6049(2) 0.67930(19)
H8 H 1.1133 0.6336 0.6341
C5 C 1.0446(3) 0.4928(2) 0.73253(19)
C6 C 0.9507(3) 0.4514(2) 0.79931(18)
H9 H 0.9478 0.3759 0.8371
C7 C 0.9695(3) 0.7989(3) 0.6351(2)
H10 H 0.8864 0.8242 0.6409
H11 H 0.9482 0.7706 0.5521
H12 H 1.0791 0.8821 0.6760
C8 C 1.1419(3) 0.4186(3) 0.7192(2)
H13 H 1.1462 0.3592 0.7760
H14 H 1.2541 0.4908 0.7339
H15 H 1.0888 0.3576 0.6392
C9 C 0.6954(2) 0.3701(2) 0.91274(18)
C10 C 0.6669(2) 0.1451(2) 0.92818(18)
C11 C 0.5075(2) -0.0571(2) 0.74770(18)
C12 C 0.4246(3) -0.0018(2) 0.6688(2)
H16 H 0.4253 0.0848 0.6956
C13 C 0.3403(3) -0.0728(3) 0.5503(2)
C14 C 0.3405(3) -0.1992(3) 0.5130(2)
H17 H 0.2842 -0.2470 0.4317
C15 C 0.4203(3) -0.2578(2) 0.5910(2)
C16 C 0.5030(3) -0.1859(2) 0.70927(19)
H18 H 0.5570 -0.2250 0.7645
C17 C 0.2480(3) -0.0140(3) 0.4641(2)
H19 H 0.2973 0.0901 0.4943
H20 H 0.1325 -0.0600 0.4536
H21 H 0.2543 -0.0337 0.3882
C18 C 0.4226(3) -0.3933(3) 0.5493(2)
H22 H 0.4570 -0.4321 0.6167
H23 H 0.5002 -0.3718 0.5114
H24 H 0.3121 -0.4642 0.4927
loop_
_geom_bond_atom_site_label_1
_geom_bond_atom_site_label_2
_geom_bond_site_symmetry_1
_geom_bond_site_symmetry_2
O1 C19 1_555 1_555
O2 C19 1_555 1_555
N1 H1 1_555 1_555
N2 H2 1_555 1_555
H3 N2 1_555 1_555
N3 C9 1_555 1_555
N4 H4 1_555 1_555
H5 N4 1_555 1_555
N5 H6 1_555 1_555
C1 N1 1_555 1_555
C2 C1 1_555 1_555
H7 C2 1_555 1_555
C3 C2 1_555 1_555
C4 C3 1_555 1_555
H8 C4 1_555 1_555
C5 C4 1_555 1_555
C6 C1 1_555 1_555
H9 C6 1_555 1_555
C7 C3 1_555 1_555
H10 C7 1_555 1_555
H11 C7 1_555 1_555
H12 C7 1_555 1_555
C8 C5 1_555 1_555
H13 C8 1_555 1_555
H14 C8 1_555 1_555
H15 C8 1_555 1_555
C9 N1 1_555 1_555
C10 N3 1_555 1_555
C11 N5 1_555 1_555
C12 C11 1_555 1_555
H16 C12 1_555 1_555
C13 C12 1_555 1_555
C14 C13 1_555 1_555
H17 C14 1_555 1_555
C15 C14 1_555 1_555
C16 C11 1_555 1_555
H18 C16 1_555 1_555
C17 C13 1_555 1_555
H19 C17 1_555 1_555
H20 C17 1_555 1_555
H21 C17 1_555 1_555
C18 C15 1_555 1_555
H22 C18 1_555 1_555
H23 C18 1_555 1_555
H24 C18 1_555 1_555
C19 C20 1_555 1_555
C20 H25 1_555 1_555
H26 C20 1_555 1_555
C21 C20 1_555 1_555
H27 C21 1_555 1_555
H28 C21 1_555 1_555
O1A C19A 1_555 1_555
O2A C19A 1_555 1_555
C19A C20A 1_555 1_555
C20A H25A 1_555 1_555
H26A C20A 1_555 1_555
C21A C21 1_555 1_555
H27A C21A 1_555 1_555
H28A C21A 1_555 1_555
N2 C9 1_555 1_555
N4 C10 1_555 1_555
N5 C10 1_555 1_555
C5 C6 1_555 1_555
C15 C16 1_555 1_555
C20A C21A 1_555 1_555

#END
