
#######################################################################
#
#                 Cambridge Crystallographic Data Centre
#                                CCDC 
#
#######################################################################
#
# If this CIF has been generated from an entry in the Cambridge 
# Structural Database, then it will include bibliographic, chemical, 
# crystal, experimental, refinement or atomic coordinate data resulting 
# from the CCDC's data processing and validation procedures.
#
#######################################################################

data_QUPSIF
_chemical_formula_moiety         'C60 H62 Ba1 N4 O3,2(C4 H8 O1)'
_chemical_name_systematic        
'bis(2-(((triphenylmethyl)imino)methyl)-1H-pyrrol-1-yl)-tris(tetrahydrofuran)-barium tetrahydrofuran solvate'
_symmetry_cell_setting           triclinic
_symmetry_space_group_name_H-M   'P -1'
_symmetry_Int_Tables_number      2
_space_group_name_Hall           '-P 1'
loop_
_symmetry_equiv_pos_site_id
_symmetry_equiv_pos_as_xyz
1 x,y,z
2 -x,-y,-z
_cell_length_a                   10.7818(11)
_cell_length_b                   14.4888(15)
_cell_length_c                   21.2076(19)
_cell_angle_alpha                109.626(9)
_cell_angle_beta                 93.344(8)
_cell_angle_gamma                106.825(9)
_cell_volume                     2942.12
_exptl_crystal_colour            colorless
_exptl_crystal_description       plates
_cell_formula_units_Z            2
loop_
_atom_site_label
_atom_site_type_symbol
_atom_site_fract_x
_atom_site_fract_y
_atom_site_fract_z
Ba1 Ba 0.56406(3) 0.57044(2) 0.227264(16)
N1 N 0.6605(5) 0.4512(4) 0.2792(2)
N2 N 0.5337(5) 0.5938(4) 0.3684(2)
N3 N 0.4443(5) 0.6480(4) 0.1477(3)
N4 N 0.6983(5) 0.7850(4) 0.2405(2)
O1 O 0.3066(5) 0.4418(4) 0.2176(3)
O2 O 0.7687(5) 0.5504(3) 0.1505(2)
O3 O 0.4866(5) 0.3939(4) 0.1051(2)
C1 C 0.6686(6) 0.4813(4) 0.3493(3)
C2 C 0.7490(6) 0.4364(5) 0.3753(3)
H1 H 0.7702 0.4446 0.4204
C3 C 0.7902(7) 0.3768(5) 0.3189(3)
H2 H 0.8441 0.3370 0.3191
C4 C 0.7345(7) 0.3888(5) 0.2624(3)
H3 H 0.7470 0.3574 0.2183
C5 C 0.6083(6) 0.5503(4) 0.3900(3)
H4 H 0.6237 0.5659 0.4366
C6 C 0.4670(6) 0.6530(4) 0.4179(3)
C7 C 0.3358(6) 0.5752(4) 0.4218(3)
C8 C 0.2207(6) 0.6010(4) 0.4256(3)
H5 H 0.2208 0.6641 0.4234
C9 C 0.1057(7) 0.5330(5) 0.4325(3)
H6 H 0.0296 0.5511 0.4348
C10 C 0.1035(7) 0.4395(5) 0.4360(3)
H7 H 0.0263 0.3947 0.4407
C11 C 0.2162(6) 0.4123(5) 0.4324(3)
H8 H 0.2152 0.3489 0.4344
C12 C 0.3320(6) 0.4809(5) 0.4258(3)
H9 H 0.4081 0.4627 0.4241
C13 C 0.5539(6) 0.7131(4) 0.4895(3)
C14 C 0.5100(6) 0.7069(5) 0.5487(3)
H10 H 0.4279 0.6600 0.5456
C15 C 0.5853(7) 0.7687(6) 0.6121(3)
H11 H 0.5535 0.7640 0.6511
C16 C 0.7089(7) 0.8380(5) 0.6171(3)
H12 H 0.7600 0.8804 0.6595
C17 C 0.7552(7) 0.8436(5) 0.5587(4)
H13 H 0.8384 0.8891 0.5619
C18 C 0.6788(7) 0.7818(5) 0.4954(3)
H14 H 0.7112 0.7862 0.4564
C19 C 0.4335(6) 0.7318(4) 0.3919(3)
C20 C 0.4425(6) 0.8309(5) 0.4343(3)
H15 H 0.4783 0.8542 0.4801
C21 C 0.3997(7) 0.8954(5) 0.4102(4)
H16 H 0.4055 0.9611 0.4398
C22 C 0.3483(7) 0.8632(5) 0.3423(4)
H17 H 0.3233 0.9082 0.3258
C23 C 0.3342(7) 0.7646(5) 0.2992(4)
H18 H 0.2980 0.7419 0.2536
C24 C 0.3745(6) 0.6984(5) 0.3242(3)
H19 H 0.3618 0.6308 0.2952
C25 C 0.3261(6) 0.6209(5) 0.1070(3)
H20 H 0.2691 0.5531 0.0863
C26 C 0.3012(7) 0.7056(5) 0.1003(4)
H21 H 0.2277 0.7053 0.0749
C27 C 0.4088(6) 0.7919(5) 0.1395(3)
H22 H 0.4211 0.8607 0.1454
C28 C 0.4950(6) 0.7543(4) 0.1682(3)
C29 C 0.6179(6) 0.8181(4) 0.2136(3)
H23 H 0.6414 0.8894 0.2246
C30 C 0.8275(6) 0.8630(4) 0.2806(3)
C31 C 0.9254(7) 0.8727(4) 0.2311(3)
C32 C 1.0559(7) 0.8812(5) 0.2473(3)
H24 H 1.0830 0.8745 0.2875
C33 C 1.1467(8) 0.8991(6) 0.2060(4)
H25 H 1.2334 0.9047 0.2186
C34 C 1.1091(8) 0.9088(6) 0.1465(4)
H26 H 1.1700 0.9213 0.1185
C35 C 0.9805(8) 0.8999(6) 0.1285(4)
H27 H 0.9546 0.9061 0.0879
C36 C 0.8891(7) 0.8820(5) 0.1696(3)
H28 H 0.8025 0.8760 0.1563
C37 C 0.8162(6) 0.9718(4) 0.3192(3)
C38 C 0.7198(7) 0.9789(5) 0.3599(3)
H29 H 0.6611 0.9188 0.3616
C39 C 0.7107(7) 1.0747(5) 0.3978(4)
H30 H 0.6459 1.0783 0.4247
C40 C 0.7967(8) 1.1646(5) 0.3961(4)
H31 H 0.7898 1.2287 0.4214
C41 C 0.8928(8) 1.1588(5) 0.3564(4)
H32 H 0.9521 1.2192 0.3554
C42 C 0.9015(7) 1.0631(5) 0.3179(3)
H33 H 0.9659 1.0601 0.2907
C43 C 0.8793(6) 0.8240(4) 0.3324(3)
C44 C 0.8746(6) 0.7189(4) 0.3088(3)
C45 C 0.9276(6) 0.6826(5) 0.3537(3)
H34 H 0.9234 0.6134 0.3386
C46 C 0.9866(7) 0.7472(5) 0.4203(3)
H35 H 1.0195 0.7218 0.4500
C47 C 0.9946(7) 0.8499(5) 0.4409(3)
H36 H 1.0372 0.8946 0.4846
C48 C 0.9415(7) 0.8885(5) 0.3988(3)
H37 H 0.9471 0.9580 0.4148
C49 C 0.7523(8) 0.5812(6) 0.0929(4)
H38 H 0.7236 0.6416 0.1059
H39 H 0.6873 0.5253 0.0561
C50 C 0.8838(8) 0.6061(7) 0.0715(4)
H40 H 0.8749 0.5937 0.0233
H41 H 0.9374 0.6776 0.0970
C51 C 0.9407(10) 0.5329(8) 0.0878(6)
H42 H 1.0360 0.5599 0.0963
H43 H 0.9118 0.4658 0.0508
C52 C 0.8894(8) 0.5245(7) 0.1506(4)
H44 H 0.8718 0.4546 0.1500
H45 H 0.9532 0.5724 0.1909
C53 C 0.3808(9) 0.3730(7) 0.0525(4)
H46 H 0.3964 0.4303 0.0367
H47 H 0.2982 0.3637 0.0695
C54 C 0.3757(12) 0.2769(8) -0.0036(5)
H48 H 0.4221 0.2930 -0.0384
H49 H 0.2855 0.2340 -0.0241
C55 C 0.4416(10) 0.2240(6) 0.0295(4)
H50 H 0.4844 0.1829 -0.0019
H51 H 0.3793 0.1795 0.0469
C56 C 0.5394(9) 0.3118(6) 0.0857(4)
H52 H 0.5546 0.2914 0.1237
H53 H 0.6224 0.3332 0.0704
C57 C 0.1722(8) 0.4362(7) 0.2033(5)
H54 H 0.1401 0.4047 0.1547
H55 H 0.1649 0.5052 0.2199
C58 C 0.0964(10) 0.3735(10) 0.2377(5)
H56 H 0.0073 0.3358 0.2131
H57 H 0.0934 0.4161 0.2836
C59 C 0.1708(11) 0.3000(9) 0.2383(5)
H58 H 0.1718 0.2888 0.2809
H59 H 0.1305 0.2336 0.2013
C60 C 0.3073(9) 0.3511(6) 0.2299(5)
H60 H 0.3693 0.3696 0.2707
H61 H 0.3325 0.3047 0.1920
O4 O 1.0248(11) 0.1967(8) 0.0545(5)
C61 C 0.9549(19) 0.1049(12) 0.0673(9)
H62 H 0.9535 0.1223 0.1155
H63 H 0.9983 0.0532 0.0525
C62 C 0.8184(16) 0.0638(10) 0.0288(7)
H64 H 0.7565 0.0259 0.0501
H65 H 0.8127 0.0200 -0.0181
C63 C 0.7983(14) 0.1651(11) 0.0345(7)
H66 H 0.7366 0.1551 -0.0043
H67 H 0.7641 0.1923 0.0756
C64 C 0.9283(13) 0.2370(9) 0.0365(6)
H68 H 0.9351 0.2424 -0.0076
H69 H 0.9411 0.3055 0.0698
O5 O 0.4158(10) 0.0649(9) 0.1368(4)
C65 C 0.4464(11) 0.1254(8) 0.2084(5)
H70 H 0.3698 0.1085 0.2295
H71 H 0.4736 0.1988 0.2162
C66 C 0.5554(10) 0.1000(7) 0.2379(5)
H72 H 0.5227 0.0375 0.2478
H73 H 0.6075 0.1568 0.2788
C67 C 0.6334(11) 0.0840(8) 0.1793(6)
H74 H 0.7042 0.1474 0.1859
H75 H 0.6706 0.0294 0.1759
C68 C 0.5368(14) 0.0547(9) 0.1180(6)
H76 H 0.5700 0.0990 0.0930
H77 H 0.5231 -0.0165 0.0888
loop_
_geom_bond_atom_site_label_1
_geom_bond_atom_site_label_2
_geom_bond_site_symmetry_1
_geom_bond_site_symmetry_2
Ba1 N1 1_555 1_555
N1 C1 1_555 1_555
N2 Ba1 1_555 1_555
N3 Ba1 1_555 1_555
N4 Ba1 1_555 1_555
O1 Ba1 1_555 1_555
O2 Ba1 1_555 1_555
O3 Ba1 1_555 1_555
C1 C2 1_555 1_555
C2 H1 1_555 1_555
C3 C2 1_555 1_555
H2 C3 1_555 1_555
C4 N1 1_555 1_555
H3 C4 1_555 1_555
C5 N2 1_555 1_555
H4 C5 1_555 1_555
C6 N2 1_555 1_555
C7 C6 1_555 1_555
C8 C7 1_555 1_555
H5 C8 1_555 1_555
C9 C8 1_555 1_555
H6 C9 1_555 1_555
C10 C9 1_555 1_555
H7 C10 1_555 1_555
C11 C10 1_555 1_555
H8 C11 1_555 1_555
C12 C7 1_555 1_555
H9 C12 1_555 1_555
C13 C6 1_555 1_555
C14 C13 1_555 1_555
H10 C14 1_555 1_555
C15 C14 1_555 1_555
H11 C15 1_555 1_555
C16 C15 1_555 1_555
H12 C16 1_555 1_555
C17 C16 1_555 1_555
H13 C17 1_555 1_555
C18 C13 1_555 1_555
H14 C18 1_555 1_555
C19 C6 1_555 1_555
C20 C19 1_555 1_555
H15 C20 1_555 1_555
C21 C20 1_555 1_555
H16 C21 1_555 1_555
C22 C21 1_555 1_555
H17 C22 1_555 1_555
C23 C22 1_555 1_555
H18 C23 1_555 1_555
C24 C19 1_555 1_555
H19 C24 1_555 1_555
C25 N3 1_555 1_555
H20 C25 1_555 1_555
C26 C25 1_555 1_555
H21 C26 1_555 1_555
C27 C26 1_555 1_555
H22 C27 1_555 1_555
C28 N3 1_555 1_555
C29 N4 1_555 1_555
H23 C29 1_555 1_555
C30 N4 1_555 1_555
C31 C30 1_555 1_555
C32 C31 1_555 1_555
H24 C32 1_555 1_555
C33 C32 1_555 1_555
H25 C33 1_555 1_555
C34 C33 1_555 1_555
H26 C34 1_555 1_555
C35 C34 1_555 1_555
H27 C35 1_555 1_555
C36 C31 1_555 1_555
H28 C36 1_555 1_555
C37 C30 1_555 1_555
C38 C37 1_555 1_555
H29 C38 1_555 1_555
C39 C38 1_555 1_555
H30 C39 1_555 1_555
C40 C39 1_555 1_555
H31 C40 1_555 1_555
C41 C40 1_555 1_555
H32 C41 1_555 1_555
C42 C37 1_555 1_555
H33 C42 1_555 1_555
C43 C30 1_555 1_555
C44 C43 1_555 1_555
C45 C44 1_555 1_555
H34 C45 1_555 1_555
C46 C45 1_555 1_555
H35 C46 1_555 1_555
C47 C46 1_555 1_555
H36 C47 1_555 1_555
C48 C43 1_555 1_555
H37 C48 1_555 1_555
C49 O2 1_555 1_555
H38 C49 1_555 1_555
H39 C49 1_555 1_555
C50 C49 1_555 1_555
H40 C50 1_555 1_555
H41 C50 1_555 1_555
C51 C50 1_555 1_555
H42 C51 1_555 1_555
H43 C51 1_555 1_555
C52 O2 1_555 1_555
H44 C52 1_555 1_555
H45 C52 1_555 1_555
C53 O3 1_555 1_555
H46 C53 1_555 1_555
H47 C53 1_555 1_555
C54 C53 1_555 1_555
H48 C54 1_555 1_555
H49 C54 1_555 1_555
C55 C54 1_555 1_555
H50 C55 1_555 1_555
H51 C55 1_555 1_555
C56 O3 1_555 1_555
H52 C56 1_555 1_555
H53 C56 1_555 1_555
C57 O1 1_555 1_555
H54 C57 1_555 1_555
H55 C57 1_555 1_555
C58 C57 1_555 1_555
H56 C58 1_555 1_555
H57 C58 1_555 1_555
C59 C58 1_555 1_555
H58 C59 1_555 1_555
H59 C59 1_555 1_555
C60 O1 1_555 1_555
H60 C60 1_555 1_555
H61 C60 1_555 1_555
O4 C61 1_555 1_555
C61 H62 1_555 1_555
H63 C61 1_555 1_555
C62 C61 1_555 1_555
H64 C62 1_555 1_555
H65 C62 1_555 1_555
C63 C62 1_555 1_555
H66 C63 1_555 1_555
H67 C63 1_555 1_555
C64 O4 1_555 1_555
H68 C64 1_555 1_555
H69 C64 1_555 1_555
O5 C65 1_555 1_555
C65 H70 1_555 1_555
H71 C65 1_555 1_555
C66 C65 1_555 1_555
H72 C66 1_555 1_555
H73 C66 1_555 1_555
C67 C66 1_555 1_555
H74 C67 1_555 1_555
H75 C67 1_555 1_555
C68 O5 1_555 1_555
H76 C68 1_555 1_555
H77 C68 1_555 1_555
C1 C5 1_555 1_555
C3 C4 1_555 1_555
C11 C12 1_555 1_555
C17 C18 1_555 1_555
C23 C24 1_555 1_555
C27 C28 1_555 1_555
C28 C29 1_555 1_555
C35 C36 1_555 1_555
C41 C42 1_555 1_555
C47 C48 1_555 1_555
C51 C52 1_555 1_555
C55 C56 1_555 1_555
C59 C60 1_555 1_555
C63 C64 1_555 1_555
C67 C68 1_555 1_555

#END
