
#######################################################################
#
#                 Cambridge Crystallographic Data Centre
#                                CCDC 
#
#######################################################################
#
# If this CIF has been generated from an entry in the Cambridge 
# Structural Database, then it will include bibliographic, chemical, 
# crystal, experimental, refinement or atomic coordinate data resulting 
# from the CCDC's data processing and validation procedures.
#
#######################################################################

data_QUPTOL
_chemical_name_common            
'bis(1,5-Dimexylbiguanidium) benzene-1,3-dicarboxylate ethanol solvate'
_chemical_formula_moiety         '2(C18 H24 N5 1+),C8 H4 O4 2-,2.12(C2 H6 O1)'
_chemical_name_systematic        
'bis(1,5-bis(3,5-Dimethylphenyl)biguanidium) isophthalate ethanol solvate'
_symmetry_cell_setting           triclinic
_symmetry_space_group_name_H-M   'P -1'
_symmetry_Int_Tables_number      2
_space_group_name_Hall           '-P 1'
loop_
_symmetry_equiv_pos_site_id
_symmetry_equiv_pos_as_xyz
1 x,y,z
2 -x,-y,-z
_cell_length_a                   13.574(2)
_cell_length_b                   18.461(3)
_cell_length_c                   22.346(4)
_cell_angle_alpha                111.710(2)
_cell_angle_beta                 94.025(2)
_cell_angle_gamma                91.123(2)
_cell_volume                     5183.37
_exptl_crystal_colour            colorless
_exptl_crystal_description       plate
_chemical_melting_point          '186 deg.C (dec.)'
_cell_formula_units_Z            4
_exptl_crystal_recrystallization_method ethanol
loop_
_atom_site_label
_atom_site_type_symbol
_atom_site_fract_x
_atom_site_fract_y
_atom_site_fract_z
O1 O 0.8441(3) 0.5111(2) 0.64803(18)
O2 O 0.8314(3) 0.3942(2) 0.56945(17)
O3 O 0.8099(2) 0.3727(2) 0.34079(16)
O4 O 0.8167(3) 0.4804(2) 0.31912(17)
C73 C 0.8552(4) 0.5035(3) 0.5397(3)
C74 C 0.8358(3) 0.4594(3) 0.4744(2)
H97 H 0.8169 0.4056 0.4608
C75 C 0.8438(4) 0.4933(3) 0.4285(2)
C76 C 0.8750(6) 0.5707(4) 0.4484(3)
H98 H 0.8810 0.5940 0.4173
C77 C 0.8975(6) 0.6144(4) 0.5128(3)
H99 H 0.9202 0.6675 0.5262
C78 C 0.8867(6) 0.5802(4) 0.5583(3)
H100 H 0.9014 0.6106 0.6030
C79 C 0.8433(4) 0.4664(3) 0.5890(3)
C80 C 0.8217(3) 0.4464(3) 0.3584(2)
O5 O 0.2848(3) 0.4880(2) 0.16192(17)
O6 O 0.2988(2) 0.37409(19) 0.08267(16)
O7 O 0.3545(2) 0.3792(2) -0.13705(16)
O8 O 0.3658(3) 0.4943(2) -0.14636(17)
C81 C 0.3394(3) 0.4897(3) 0.0641(2)
C82 C 0.3409(3) 0.4519(3) -0.0021(2)
H101 H 0.3240 0.3976 -0.0214
C83 C 0.3667(3) 0.4922(3) -0.0410(2)
C84 C 0.3945(4) 0.5712(3) -0.0108(3)
H102 H 0.4111 0.5999 -0.0366
C85 C 0.3987(4) 0.6084(3) 0.0547(3)
H103 H 0.4214 0.6616 0.0745
C86 C 0.3695(4) 0.5677(3) 0.0916(3)
H104 H 0.3700 0.5939 0.1371
C87 C 0.3055(3) 0.4477(3) 0.1053(3)
C88 C 0.3626(3) 0.4523(3) -0.1126(2)
N1 N -0.0248(3) 0.2921(2) 0.2891(2)
H1 H -0.0802 0.3133 0.3036
N2 N -0.0358(3) 0.3737(2) 0.2346(2)
H2 H -0.0166 0.3920 0.2059
H3 H -0.0876 0.3922 0.2558
N3 N 0.0924(3) 0.2852(2) 0.2172(2)
N4 N 0.1628(3) 0.3973(2) 0.2083(2)
H4 H 0.2029 0.4176 0.1887
H5 H 0.1333 0.4280 0.2416
N5 N 0.1938(3) 0.2773(2) 0.1371(2)
H6 H 0.2287 0.3041 0.1199
C1 C 0.0099(4) 0.2364(3) 0.3149(2)
C2 C -0.0463(5) 0.2295(3) 0.3624(3)
H25 H -0.1026 0.2598 0.3741
C3 C -0.0204(5) 0.1788(4) 0.3926(3)
C4 C 0.0609(6) 0.1341(4) 0.3738(3)
H26 H 0.0793 0.0990 0.3943
C5 C 0.1151(4) 0.1395(3) 0.3265(3)
C6 C 0.0890(4) 0.1908(3) 0.2959(3)
H27 H 0.1258 0.1940 0.2623
C7 C -0.0824(6) 0.1729(5) 0.4447(4)
H28 H -0.0549 0.1347 0.4614
H29 H -0.1505 0.1562 0.4263
H30 H -0.0819 0.2240 0.4799
C8 C 0.2054(6) 0.0907(5) 0.3058(4)
H31 H 0.2144 0.0573 0.3310
H32 H 0.2643 0.1254 0.3135
H33 H 0.1952 0.0581 0.2597
C9 C 0.0138(4) 0.3176(3) 0.2459(3)
C10 C 0.1469(4) 0.3201(3) 0.1875(3)
C11 C 0.1962(4) 0.1940(3) 0.1064(2)
C12 C 0.1225(4) 0.1433(3) 0.1094(3)
H34 H 0.0670 0.1626 0.1331
C13 C 0.1306(5) 0.0636(4) 0.0772(3)
C14 C 0.2077(5) 0.0366(4) 0.0410(3)
H35 H 0.2111 -0.0180 0.0181
C15 C 0.2815(5) 0.0866(3) 0.0365(3)
C16 C 0.2745(4) 0.1655(3) 0.0703(3)
H36 H 0.3250 0.2008 0.0686
C17 C 0.0509(7) 0.0081(4) 0.0835(4)
H37 H 0.0660 -0.0459 0.0584
H38 H -0.0135 0.0194 0.0671
H39 H 0.0489 0.0152 0.1291
C18 C 0.3674(6) 0.0559(4) -0.0040(4)
H40 H 0.3607 -0.0013 -0.0235
H41 H 0.4296 0.0719 0.0234
H42 H 0.3674 0.0771 -0.0383
N6 N 0.6999(3) 0.2849(2) 0.2213(2)
H7 H 0.7420 0.3096 0.2549
N7 N 0.6884(3) 0.4009(2) 0.2089(2)
H8 H 0.7278 0.4228 0.2445
H9 H 0.6653 0.4293 0.1874
N8 N 0.6092(3) 0.2901(2) 0.1311(2)
N9 N 0.4716(3) 0.3621(2) 0.1717(2)
H10 H 0.4966 0.3761 0.2120
H11 H 0.4134 0.3779 0.1631
N10 N 0.4731(3) 0.2942(2) 0.0636(2)
H12 H 0.4140 0.3130 0.0635
C19 C 0.6766(4) 0.2037(3) 0.2079(2)
C20 C 0.7525(4) 0.1591(3) 0.2157(3)
H43 H 0.8179 0.1817 0.2268
C21 C 0.7352(5) 0.0812(3) 0.2075(3)
C22 C 0.6389(5) 0.0508(3) 0.1900(3)
H44 H 0.6256 -0.0027 0.1825
C23 C 0.5615(5) 0.0951(3) 0.1830(3)
C24 C 0.5806(4) 0.1725(3) 0.1918(3)
H45 H 0.5283 0.2038 0.1868
C25 C 0.8185(6) 0.0335(4) 0.2155(5)
H46 H 0.8801 0.0660 0.2280
H47 H 0.8245 -0.0103 0.1746
H48 H 0.8058 0.0132 0.2493
C26 C 0.4560(5) 0.0602(4) 0.1667(4)
H49 H 0.4557 0.0053 0.1620
H50 H 0.4293 0.0639 0.1261
H51 H 0.4151 0.0889 0.2015
C27 C 0.6640(4) 0.3259(3) 0.1880(2)
C28 C 0.5225(4) 0.3163(3) 0.1230(3)
C29 C 0.4998(4) 0.2464(3) 0.0020(2)
C30 C 0.5926(4) 0.2176(3) -0.0117(3)
H52 H 0.6439 0.2275 0.0219
C31 C 0.6095(4) 0.1737(3) -0.0757(3)
C32 C 0.5343(5) 0.1581(3) -0.1238(3)
H53 H 0.5462 0.1273 -0.1671
C33 C 0.4412(4) 0.1865(3) -0.1105(3)
C34 C 0.4255(4) 0.2310(3) -0.0469(3)
H54 H 0.3623 0.2511 -0.0368
C35 C 0.7118(5) 0.1420(4) -0.0903(3)
H55 H 0.7049 0.0897 -0.1244
H56 H 0.7456 0.1390 -0.0512
H57 H 0.7505 0.1768 -0.1049
C36 C 0.3599(5) 0.1706(3) -0.1639(3)
H58 H 0.3001 0.1957 -0.1457
H59 H 0.3460 0.1142 -0.1851
H60 H 0.3808 0.1916 -0.1956
N11 N 0.8277(3) 0.6811(3) 0.2049(2)
H13 H 0.7666 0.6666 0.1882
N12 N 0.8017(3) 0.5992(3) 0.2577(2)
H14 H 0.8176 0.5807 0.2880
H15 H 0.7463 0.5826 0.2328
N13 N 0.9467(3) 0.6817(3) 0.2837(2)
N14 N 1.0015(3) 0.5686(3) 0.2983(2)
H16 H 0.9640 0.5377 0.2644
H17 H 1.0394 0.5486 0.3212
N15 N 1.0640(4) 0.6897(3) 0.3642(2)
H18 H 1.097(4) 0.664(3) 0.379(3)
C37 C 0.8787(4) 0.7320(3) 0.1818(3)
C38 C 0.8661(4) 0.7173(3) 0.1176(3)
H61 H 0.8266 0.6730 0.0899
C39 C 0.9103(4) 0.7662(4) 0.0918(3)
C40 C 0.9666(5) 0.8305(4) 0.1331(3)
H62 H 0.9966 0.8647 0.1160
C41 C 0.9806(5) 0.8465(3) 0.1979(3)
C42 C 0.9346(4) 0.7976(3) 0.2232(3)
H63 H 0.9413 0.8089 0.2684
C43 C 0.8959(7) 0.7496(5) 0.0189(4)
H64 H 0.9326 0.7898 0.0094
H65 H 0.8254 0.7501 0.0061
H66 H 0.9205 0.6982 -0.0053
C44 C 1.0431(6) 0.9152(4) 0.2403(4)
H67 H 1.0694 0.9426 0.2143
H68 H 1.0979 0.8982 0.2620
H69 H 1.0033 0.9505 0.2728
C45 C 0.8614(4) 0.6522(3) 0.2494(3)
C46 C 1.0009(4) 0.6456(3) 0.3149(3)
C47 C 1.0941(5) 0.7742(4) 0.3892(5)
C48 C 1.1921(5) 0.7967(4) 0.4089(4)
H70 H 1.2390 0.7585 0.4069
C49 C 1.2220(5) 0.8744(3) 0.4315(3)
C50 C 1.1539(5) 0.9297(3) 0.4344(3)
H71 H 1.1746 0.9834 0.4500
C51 C 1.0559(5) 0.9072(4) 0.4146(4)
C52 C 1.0260(5) 0.8294(4) 0.3920(4)
H72 H 0.9584 0.8139 0.3784
C53 C 1.3310(8) 0.8996(6) 0.4558(5)
H73 H 1.3397 0.9565 0.4704
H74 H 1.3731 0.8750 0.4207
H75 H 1.3494 0.8832 0.4920
C54 C 0.9854(9) 0.9690(6) 0.4161(5)
H76 H 0.9259 0.9613 0.4359
H77 H 0.9673 0.9656 0.3719
H78 H 1.0169 1.0205 0.4415
N16 N 0.4681(3) 0.3191(3) 0.7507(2)
H19 H 0.431(4) 0.335(3) 0.780(2)
N17 N 0.4929(3) 0.4424(2) 0.7535(2)
H20 H 0.4594 0.4599 0.7879
H21 H 0.5176 0.4752 0.7375
N18 N 0.5491(3) 0.3352(2) 0.6705(2)
N19 N 0.6848(3) 0.4255(2) 0.6956(2)
H22 H 0.6777 0.4426 0.7373
H23 H 0.7328 0.4455 0.6811
N20 N 0.6435(4) 0.3447(3) 0.5920(3)
H24 H 0.697(4) 0.362(4) 0.584(3)
C55 C 0.5845(10) 0.2907(8) 0.5323(6)
C56 C 0.6353(12) 0.2646(11) 0.4764(7)
H79 H 0.7000 0.2855 0.4769
C57 C 0.5908(12) 0.2080(11) 0.4199(7)
C58 C 0.4957(10) 0.1773(9) 0.4194(6)
H80 H 0.4654 0.1386 0.3809
C59 C 0.4449(7) 0.2033(6) 0.4752(5)
C60 C 0.4894(7) 0.2600(6) 0.5317(4)
H81 H 0.4550 0.2778 0.5697
C61 C 0.6452(12) 0.1828(9) 0.3603(8)
H82 H 0.7106 0.2099 0.3701
H83 H 0.6079 0.1957 0.3267
H84 H 0.6528 0.1263 0.3449
C62 C 0.3452(11) 0.1703(8) 0.4782(7)
H85 H 0.3218 0.1322 0.4354
H86 H 0.2990 0.2125 0.4915
H87 H 0.3491 0.1446 0.5095
C63 C 0.6229(4) 0.3692(3) 0.6544(3)
C64 C 0.5061(4) 0.3669(3) 0.7257(2)
C65 C 0.4661(6) 0.2352(4) 0.7174(5)
C66 C 0.5508(6) 0.1963(5) 0.7199(5)
H88 H 0.6106 0.2248 0.7409
C67 C 0.5489(7) 0.1162(5) 0.6920(5)
C68 C 0.4623(7) 0.0750(4) 0.6615(4)
H89 H 0.4610 0.0196 0.6422
C69 C 0.3775(6) 0.1139(4) 0.6590(4)
C70 C 0.3794(6) 0.1940(5) 0.6869(4)
H90 H 0.3210 0.2209 0.6852
C71 C 0.6401(11) 0.0717(8) 0.6931(6)
H91 H 0.6956 0.1084 0.7164
H92 H 0.6558 0.0422 0.6488
H93 H 0.6284 0.0355 0.7151
C72 C 0.2814(13) 0.0689(10) 0.6300(8)
H94 H 0.2291 0.1054 0.6321
H95 H 0.2645 0.0363 0.6542
H96 H 0.2878 0.0357 0.5848
O9 O 0.9626(3) 0.4745(3) 0.1574(3)
H105 H 1.0089 0.5045 0.1560
C89 C 0.8906(7) 0.4660(7) 0.1085(4)
H106 H 0.8478 0.5109 0.1245
H107 H 0.8494 0.4187 0.1026
C90 C 0.916(2) 0.4599(19) 0.0424(8)
H108 H 0.9383 0.5114 0.0440
H109 H 0.8572 0.4409 0.0118
H110 H 0.9686 0.4233 0.0284
O10 O 0.4925(3) 0.4494(2) 0.31165(17)
H111 H 0.4394 0.4326 0.3201
C91 C 0.5624(5) 0.4640(5) 0.3628(3)
H112 H 0.6252 0.4800 0.3500
H113 H 0.5731 0.4139 0.3684
C92 C 0.5449(12) 0.5232(8) 0.4274(5)
H114 H 0.5308 0.5730 0.4231
H115 H 0.6039 0.5301 0.4572
H116 H 0.4884 0.5053 0.4442
O11 O 0.3200(3) 0.3946(3) 0.3353(3)
H117 H 0.2886 0.4267 0.3636
C93 C 0.3165(7) 0.3234(4) 0.3425(4)
H118 H 0.2468 0.3043 0.3386
H119 H 0.3461 0.3298 0.3861
C94 C 0.3717(9) 0.2648(6) 0.2922(5)
H120 H 0.3677 0.2146 0.2977
H121 H 0.4411 0.2830 0.2969
H122 H 0.3424 0.2585 0.2491
O12 O 0.1161(4) 0.5681(3) 0.1595(4)
H123 H 0.167(9) 0.532(6) 0.158(6)
C95 C 0.1250(8) 0.6387(4) 0.1512(5)
H124 H 0.0585 0.6570 0.1446
H125 H 0.1609 0.6320 0.1126
C96 C 0.1798(9) 0.6968(6) 0.2096(5)
H126 H 0.1975 0.7436 0.2011
H127 H 0.2402 0.6743 0.2204
H128 H 0.1381 0.7108 0.2459
C97 C 0.868(3) 0.2866(16) 0.0741(18)
H129 H 0.9334 0.3127 0.0899
H130 H 0.8174 0.3197 0.0984
H131 H 0.8552 0.2776 0.0281
C98 C 0.864(2) 0.2100(15) 0.0828(15)
H132 H 0.9205 0.1822 0.0601
H133 H 0.8834 0.2237 0.1294
O13 O 0.790(3) 0.153(2) 0.068(2)
H134 H 0.8109 0.1160 0.0781
C99? C 1.0608(12) 0.7654(8) 0.3804(12)
C100? C 1.1521(11) 0.8042(8) 0.3984(10)
C101? C 1.1590(12) 0.8844(8) 0.4215(8)
C102? C 1.0748(13) 0.9257(8) 0.4266(9)
C103? C 0.9835(13) 0.8869(9) 0.4087(9)
C104? C 0.9765(11) 0.8067(9) 0.3856(10)
C105? C 1.2598(19) 0.9219(16) 0.4443(12)
C106? C 0.8957(19) 0.9358(13) 0.4071(11)
C107? C 0.6075(14) 0.2801(11) 0.5445(9)
C108? C 0.6314(19) 0.2826(15) 0.4868(11)
C109? C 0.5938(19) 0.2262(15) 0.4303(10)
C110? C 0.5324(14) 0.1673(12) 0.4314(8)
C111? C 0.5086(10) 0.1648(8) 0.4891(6)
C112? C 0.5461(10) 0.2211(7) 0.5456(6)
C113? C 0.6279(16) 0.2218(12) 0.3625(10)
C114? C 0.4373(14) 0.0984(10) 0.4894(9)
C115? C 0.4968(12) 0.2396(7) 0.7340(9)
C116? C 0.5925(11) 0.2187(7) 0.7426(8)
C117? C 0.6145(10) 0.1410(7) 0.7199(7)
C118? C 0.5408(10) 0.0841(7) 0.6887(8)
C119? C 0.4451(10) 0.1050(8) 0.6802(8)
C120? C 0.4231(11) 0.1827(8) 0.7029(8)
C121? C 0.7177(18) 0.1198(13) 0.7274(11)
C122? C 0.357(2) 0.0421(11) 0.6506(13)
C123? C 0.8906(7) 0.4660(7) 0.1085(4)
C124? C 0.872(2) 0.3812(8) 0.0675(13)
C125? C 0.5624(5) 0.4640(5) 0.3628(3)
C126? C 0.568(2) 0.4424(16) 0.4212(9)
H135? H 1.2102 0.7757 0.3948
H136? H 1.0796 0.9811 0.4426
H137? H 0.9135 0.7798 0.3731
H138? H 1.3085 0.8816 0.4357
H139? H 1.2628 0.9525 0.4908
H140? H 1.2744 0.9565 0.4213
H141? H 0.9170 0.9912 0.4251
H142? H 0.8451 0.9260 0.4327
H143? H 0.8681 0.9217 0.3623
H144? H 0.6741 0.3237 0.4862
H145? H 0.5062 0.1280 0.3920
H146? H 0.5297 0.2195 0.5857
H147? H 0.5930 0.1773 0.3278
H148? H 0.6993 0.2152 0.3618
H149? H 0.6123 0.2701 0.3560
H150? H 0.4193 0.0624 0.4449
H151? H 0.3775 0.1207 0.5097
H152? H 0.4700 0.0699 0.5140
H153? H 0.6431 0.2579 0.7640
H154? H 0.5559 0.0306 0.6731
H155? H 0.3573 0.1970 0.6970
H156? H 0.7212 0.0629 0.7089
H157? H 0.7406 0.1392 0.7734
H158? H 0.7598 0.1433 0.7049
H159? H 0.3831 -0.0102 0.6367
H160? H 0.3233 0.0498 0.6134
H161? H 0.3105 0.0476 0.6834
H162? H 0.9121 0.4946 0.0815
H163? H 0.8288 0.4883 0.1271
H164? H 0.8469 0.3536 0.0938
H165? H 0.9337 0.3590 0.0505
H166? H 0.8228 0.3755 0.0316
H167? H 0.5724 0.5216 0.3808
H168? H 0.6236 0.4442 0.3420
H169? H 0.5841 0.3875 0.4087
H170? H 0.5040 0.4501 0.4399
H171? H 0.6194 0.4755 0.4531
loop_
_geom_bond_atom_site_label_1
_geom_bond_atom_site_label_2
_geom_bond_site_symmetry_1
_geom_bond_site_symmetry_2
O1 C79 1_555 1_555
O2 C79 1_555 1_555
O3 C80 1_555 1_555
O4 C80 1_555 1_555
O5 C87 1_555 1_555
O6 C87 1_555 1_555
O7 C88 1_555 1_555
O8 C88 1_555 1_555
N1 H1 1_555 1_555
N2 H2 1_555 1_555
H3 N2 1_555 1_555
N3 C9 1_555 1_555
N4 H4 1_555 1_555
H5 N4 1_555 1_555
N5 H6 1_555 1_555
N6 H7 1_555 1_555
N7 H8 1_555 1_555
H9 N7 1_555 1_555
N8 C27 1_555 1_555
N9 H10 1_555 1_555
H11 N9 1_555 1_555
N10 H12 1_555 1_555
N11 H13 1_555 1_555
N12 H14 1_555 1_555
H15 N12 1_555 1_555
N13 C45 1_555 1_555
N14 H16 1_555 1_555
H17 N14 1_555 1_555
N15 H18 1_555 1_555
N16 H19 1_555 1_555
N17 H20 1_555 1_555
H21 N17 1_555 1_555
N18 C63 1_555 1_555
N19 H22 1_555 1_555
H23 N19 1_555 1_555
N20 H24 1_555 1_555
C1 N1 1_555 1_555
C2 C1 1_555 1_555
H25 C2 1_555 1_555
C3 C2 1_555 1_555
C4 C3 1_555 1_555
H26 C4 1_555 1_555
C5 C4 1_555 1_555
C6 C1 1_555 1_555
H27 C6 1_555 1_555
C7 C3 1_555 1_555
H28 C7 1_555 1_555
H29 C7 1_555 1_555
H30 C7 1_555 1_555
C8 C5 1_555 1_555
H31 C8 1_555 1_555
H32 C8 1_555 1_555
H33 C8 1_555 1_555
C9 N1 1_555 1_555
C10 N3 1_555 1_555
C11 N5 1_555 1_555
C12 C11 1_555 1_555
H34 C12 1_555 1_555
C13 C12 1_555 1_555
C14 C13 1_555 1_555
H35 C14 1_555 1_555
C15 C14 1_555 1_555
C16 C11 1_555 1_555
H36 C16 1_555 1_555
C17 C13 1_555 1_555
H37 C17 1_555 1_555
H38 C17 1_555 1_555
H39 C17 1_555 1_555
C18 C15 1_555 1_555
H40 C18 1_555 1_555
H41 C18 1_555 1_555
H42 C18 1_555 1_555
C19 N6 1_555 1_555
C20 C19 1_555 1_555
H43 C20 1_555 1_555
C21 C20 1_555 1_555
C22 C21 1_555 1_555
H44 C22 1_555 1_555
C23 C22 1_555 1_555
C24 C19 1_555 1_555
H45 C24 1_555 1_555
C25 C21 1_555 1_555
H46 C25 1_555 1_555
H47 C25 1_555 1_555
H48 C25 1_555 1_555
C26 C23 1_555 1_555
H49 C26 1_555 1_555
H50 C26 1_555 1_555
H51 C26 1_555 1_555
C27 N6 1_555 1_555
C28 N8 1_555 1_555
C29 N10 1_555 1_555
C30 C29 1_555 1_555
H52 C30 1_555 1_555
C31 C30 1_555 1_555
C32 C31 1_555 1_555
H53 C32 1_555 1_555
C33 C32 1_555 1_555
C34 C29 1_555 1_555
H54 C34 1_555 1_555
C35 C31 1_555 1_555
H55 C35 1_555 1_555
H56 C35 1_555 1_555
H57 C35 1_555 1_555
C36 C33 1_555 1_555
H58 C36 1_555 1_555
H59 C36 1_555 1_555
H60 C36 1_555 1_555
C37 N11 1_555 1_555
C38 C37 1_555 1_555
H61 C38 1_555 1_555
C39 C38 1_555 1_555
C40 C39 1_555 1_555
H62 C40 1_555 1_555
C41 C40 1_555 1_555
C42 C37 1_555 1_555
H63 C42 1_555 1_555
C43 C39 1_555 1_555
H64 C43 1_555 1_555
H65 C43 1_555 1_555
H66 C43 1_555 1_555
C44 C41 1_555 1_555
H67 C44 1_555 1_555
H68 C44 1_555 1_555
H69 C44 1_555 1_555
C45 N11 1_555 1_555
C46 N13 1_555 1_555
C47 N15 1_555 1_555
C48 C47 1_555 1_555
H70 C48 1_555 1_555
C49 C48 1_555 1_555
C50 C49 1_555 1_555
H71 C50 1_555 1_555
C51 C50 1_555 1_555
C52 C47 1_555 1_555
H72 C52 1_555 1_555
C53 C49 1_555 1_555
H73 C53 1_555 1_555
H74 C53 1_555 1_555
H75 C53 1_555 1_555
C54 C51 1_555 1_555
H76 C54 1_555 1_555
H77 C54 1_555 1_555
H78 C54 1_555 1_555
C55 N20 1_555 1_555
C56 C55 1_555 1_555
H79 C56 1_555 1_555
C57 C56 1_555 1_555
C58 C57 1_555 1_555
H80 C58 1_555 1_555
C59 C58 1_555 1_555
C60 C55 1_555 1_555
H81 C60 1_555 1_555
C61 C57 1_555 1_555
H82 C61 1_555 1_555
H83 C61 1_555 1_555
H84 C61 1_555 1_555
C62 C59 1_555 1_555
H85 C62 1_555 1_555
H86 C62 1_555 1_555
H87 C62 1_555 1_555
C63 N19 1_555 1_555
C64 N16 1_555 1_555
C65 N16 1_555 1_555
C66 C65 1_555 1_555
H88 C66 1_555 1_555
C67 C66 1_555 1_555
C68 C67 1_555 1_555
H89 C68 1_555 1_555
C69 C68 1_555 1_555
C70 C65 1_555 1_555
H90 C70 1_555 1_555
C71 C67 1_555 1_555
H91 C71 1_555 1_555
H92 C71 1_555 1_555
H93 C71 1_555 1_555
C72 C69 1_555 1_555
H94 C72 1_555 1_555
H95 C72 1_555 1_555
H96 C72 1_555 1_555
C73 C74 1_555 1_555
C74 H97 1_555 1_555
C75 C74 1_555 1_555
C76 C75 1_555 1_555
H98 C76 1_555 1_555
C77 C76 1_555 1_555
H99 C77 1_555 1_555
C78 C73 1_555 1_555
H100 C78 1_555 1_555
C79 C73 1_555 1_555
C80 C75 1_555 1_555
C81 C82 1_555 1_555
C82 H101 1_555 1_555
C83 C82 1_555 1_555
C84 C83 1_555 1_555
H102 C84 1_555 1_555
C85 C84 1_555 1_555
H103 C85 1_555 1_555
C86 C81 1_555 1_555
H104 C86 1_555 1_555
C87 C81 1_555 1_555
C88 C83 1_555 1_555
O9 H105 1_555 1_555
C89 O9 1_555 1_555
H106 C89 1_555 1_555
H107 C89 1_555 1_555
C90 C89 1_555 1_555
H108 C90 1_555 1_555
H109 C90 1_555 1_555
H110 C90 1_555 1_555
O10 H111 1_555 1_555
C91 O10 1_555 1_555
H112 C91 1_555 1_555
H113 C91 1_555 1_555
C92 C91 1_555 1_555
H114 C92 1_555 1_555
H115 C92 1_555 1_555
H116 C92 1_555 1_555
O11 H117 1_555 1_555
C93 O11 1_555 1_555
H118 C93 1_555 1_555
H119 C93 1_555 1_555
C94 C93 1_555 1_555
H120 C94 1_555 1_555
H121 C94 1_555 1_555
H122 C94 1_555 1_555
O12 H123 1_555 1_555
C95 O12 1_555 1_555
H124 C95 1_555 1_555
H125 C95 1_555 1_555
C96 C95 1_555 1_555
H126 C96 1_555 1_555
H127 C96 1_555 1_555
H128 C96 1_555 1_555
C97 H129 1_555 1_555
H130 C97 1_555 1_555
H131 C97 1_555 1_555
C98 C97 1_555 1_555
H132 C98 1_555 1_555
H133 C98 1_555 1_555
O13 C98 1_555 1_555
H134 O13 1_555 1_555
N2 C9 1_555 1_555
N4 C10 1_555 1_555
N5 C10 1_555 1_555
N7 C27 1_555 1_555
N9 C28 1_555 1_555
N10 C28 1_555 1_555
N12 C45 1_555 1_555
N14 C46 1_555 1_555
N15 C46 1_555 1_555
N17 C64 1_555 1_555
N18 C64 1_555 1_555
N20 C63 1_555 1_555
C5 C6 1_555 1_555
C15 C16 1_555 1_555
C23 C24 1_555 1_555
C33 C34 1_555 1_555
C41 C42 1_555 1_555
C51 C52 1_555 1_555
C59 C60 1_555 1_555
C69 C70 1_555 1_555
C77 C78 1_555 1_555
C85 C86 1_555 1_555

#END
