
#######################################################################
#
#                 Cambridge Crystallographic Data Centre
#                                CCDC 
#
#######################################################################
#
# If this CIF has been generated from an entry in the Cambridge 
# Structural Database, then it will include bibliographic, chemical, 
# crystal, experimental, refinement or atomic coordinate data resulting 
# from the CCDC's data processing and validation procedures.
#
#######################################################################

data_QURKAR
_chemical_name_common            
8-(o-(hydroxylmethane)phenyl)-4,4-difluoro-4-bora-3a,4a-diaza-s-indacene
_chemical_formula_moiety         'C16 H13 B1 F2 N2 O1'
_chemical_name_systematic        
(2-(5,5-difluoro-5H-6,5-dipyrrolo[1,2-c:2',1'-f][1,3,2]diazaborinin-10-yl)phenyl)methanol
_symmetry_cell_setting           monoclinic
_symmetry_space_group_name_H-M   'P 21/n'
_symmetry_Int_Tables_number      14
_space_group_name_Hall           '-P 2yn'
loop_
_symmetry_equiv_pos_site_id
_symmetry_equiv_pos_as_xyz
1 x,y,z
2 1/2-x,1/2+y,1/2-z
3 -x,-y,-z
4 1/2+x,1/2-y,1/2+z
_cell_length_a                   12.6567(9)
_cell_length_b                   11.3448(8)
_cell_length_c                   19.7788(14)
_cell_angle_alpha                90
_cell_angle_beta                 97.3750(10)
_cell_angle_gamma                90
_cell_volume                     2816.5
_exptl_crystal_colour            red
_exptl_crystal_description       Prism
_cell_formula_units_Z            8
loop_
_atom_site_label
_atom_site_type_symbol
_atom_site_fract_x
_atom_site_fract_y
_atom_site_fract_z
B1 B 0.6475(3) 0.5540(3) 0.12191(18)
F1 F 0.67700(16) 0.50161(17) 0.06404(9)
F2 F 0.65259(16) 0.47157(16) 0.17394(9)
N1 N 0.7220(2) 0.6600(2) 0.14328(13)
N2 N 0.5338(2) 0.6059(2) 0.10762(13)
C1 C 0.6338(5) 0.9942(5) 0.0518(3)
H1 H 0.7072 0.9698 0.0696
H2 H 0.5994 0.9271 0.0256
O1 O 0.6393(4) 1.0867(5) 0.0085(3)
H3 H 0.7033 1.1059 0.0080
C2 C 0.8280(3) 0.6572(3) 0.15862(17)
H4 H 0.8710 0.5891 0.1564
C3 C 0.8662(3) 0.7685(3) 0.17827(19)
H5 H 0.9385 0.7898 0.1911
C4 C 0.7795(3) 0.8419(3) 0.1756(2)
H6 H 0.7806 0.9232 0.1871
C5 C 0.6890(2) 0.7745(3) 0.15265(16)
C6 C 0.5816(3) 0.8053(3) 0.14097(16)
C7 C 0.5053(2) 0.7221(3) 0.11878(15)
C8 C 0.3939(3) 0.7314(4) 0.09927(17)
H7 H 0.3519 0.8003 0.1016
C9 C 0.3580(3) 0.6232(4) 0.07649(19)
H8 H 0.2865 0.6030 0.0598
C10 C 0.4453(3) 0.5482(4) 0.08224(18)
H9 H 0.4426 0.4672 0.0699
C11 C 0.5481(3) 0.9293(3) 0.15211(18)
C12 C 0.5752(3) 1.0173(4) 0.1101(2)
C13 C 0.5417(4) 1.1338(4) 0.1228(3)
H10 H 0.5586 1.1967 0.0944
C14 C 0.4855(3) 1.1555(4) 0.1755(2)
H11 H 0.4648 1.2342 0.1837
C15 C 0.4574(3) 1.0665(4) 0.2177(2)
H12 H 0.4179 1.0838 0.2541
C16 C 0.4876(3) 0.9530(3) 0.20599(19)
H13 H 0.4681 0.8906 0.2339
B2 B -0.0197(3) 0.3550(3) 0.07527(19)
F3 F -0.08519(16) 0.36362(19) 0.01344(10)
F4 F -0.00395(19) 0.46532(16) 0.10393(12)
N3 N -0.0704(2) 0.2715(2) 0.12329(13)
N4 N 0.0885(2) 0.2983(2) 0.06450(12)
O3 O 0.1606(3) -0.1349(5) 0.02882(18)
H17 H 0.1369 -0.1938 0.0060
C17 C 0.0844(3) -0.0956(3) 0.06845(17)
H18 H 0.0248 -0.1527 0.0649
H19 H 0.0556 -0.0191 0.0504
C18 C -0.1678(3) 0.2812(3) 0.14305(17)
H20 H -0.2183 0.3408 0.1282
C19 C -0.1838(3) 0.1908(3) 0.18868(18)
H21 H -0.2460 0.1784 0.2099
C20 C -0.0935(3) 0.1236(3) 0.19723(16)
H22 H -0.0812 0.0564 0.2258
C21 C -0.0219(2) 0.1725(2) 0.15584(15)
C22 C 0.0770(2) 0.1341(2) 0.14163(14)
C23 C 0.1317(2) 0.1965(2) 0.09618(14)
C24 C 0.2316(2) 0.1778(3) 0.07413(15)
H23 H 0.2791 0.1146 0.0872
C25 C 0.2479(3) 0.2680(3) 0.03021(16)
H24 H 0.3089 0.2788 0.0075
C26 C 0.1588(3) 0.3403(3) 0.02525(16)
H25 H 0.1490 0.4094 -0.0020
C27 C 0.1239(2) 0.0260(3) 0.17690(14)
C28 C 0.1287(2) -0.0808(3) 0.14224(16)
C29 C 0.1712(3) -0.1791(3) 0.17890(18)
H26 H 0.1743 -0.2527 0.1563
C30 C 0.2083(3) -0.1709(3) 0.24689(18)
H27 H 0.2386 -0.2381 0.2706
C31 C 0.2021(3) -0.0662(3) 0.28104(17)
H28 H 0.2274 -0.0612 0.3283
C32 C 0.1590(3) 0.0316(3) 0.24658(16)
H29 H 0.1532 0.1034 0.2705
H14? H 0.7088 0.9740 0.0682
H15? H 0.6329 1.0651 0.0226
O2? O 0.5802(9) 0.8930(11) 0.0120(6)
H16? H 0.5139 0.8992 0.0107
O4? O -0.0242(11) -0.087(2) 0.0559(10)
H30? H -0.0512 -0.1106 0.0901
H31? H 0.1158 -0.0343 0.0415
H32? H 0.1072 -0.1732 0.0526
loop_
_geom_bond_atom_site_label_1
_geom_bond_atom_site_label_2
_geom_bond_site_symmetry_1
_geom_bond_site_symmetry_2
B1 F1 1_555 1_555
F2 B1 1_555 1_555
N1 B1 1_555 1_555
N2 B1 1_555 1_555
C1 H1 1_555 1_555
H2 C1 1_555 1_555
O1 C1 1_555 1_555
H3 O1 1_555 1_555
C2 N1 1_555 1_555
H4 C2 1_555 1_555
C3 C2 1_555 1_555
H5 C3 1_555 1_555
C4 C3 1_555 1_555
H6 C4 1_555 1_555
C5 N1 1_555 1_555
C6 C5 1_555 1_555
C7 N2 1_555 1_555
C8 C7 1_555 1_555
H7 C8 1_555 1_555
C9 C8 1_555 1_555
H8 C9 1_555 1_555
C10 N2 1_555 1_555
H9 C10 1_555 1_555
C11 C6 1_555 1_555
C12 C1 1_555 1_555
C13 C12 1_555 1_555
H10 C13 1_555 1_555
C14 C13 1_555 1_555
H11 C14 1_555 1_555
C15 C14 1_555 1_555
H12 C15 1_555 1_555
C16 C11 1_555 1_555
H13 C16 1_555 1_555
B2 F3 1_555 1_555
F4 B2 1_555 1_555
N3 B2 1_555 1_555
N4 B2 1_555 1_555
O3 H17 1_555 1_555
C17 O3 1_555 1_555
H18 C17 1_555 1_555
H19 C17 1_555 1_555
C18 N3 1_555 1_555
H20 C18 1_555 1_555
C19 C18 1_555 1_555
H21 C19 1_555 1_555
C20 C19 1_555 1_555
H22 C20 1_555 1_555
C21 N3 1_555 1_555
C22 C21 1_555 1_555
C23 N4 1_555 1_555
C24 C23 1_555 1_555
H23 C24 1_555 1_555
C25 C24 1_555 1_555
H24 C25 1_555 1_555
C26 N4 1_555 1_555
H25 C26 1_555 1_555
C27 C22 1_555 1_555
C28 C17 1_555 1_555
C29 C28 1_555 1_555
H26 C29 1_555 1_555
C30 C29 1_555 1_555
H27 C30 1_555 1_555
C31 C30 1_555 1_555
H28 C31 1_555 1_555
C32 C27 1_555 1_555
H29 C32 1_555 1_555
C4 C5 1_555 1_555
C6 C7 1_555 1_555
C9 C10 1_555 1_555
C11 C12 1_555 1_555
C15 C16 1_555 1_555
C20 C21 1_555 1_555
C22 C23 1_555 1_555
C25 C26 1_555 1_555
C27 C28 1_555 1_555
C31 C32 1_555 1_555

#END
