
#######################################################################
#
#                 Cambridge Crystallographic Data Centre
#                                CCDC 
#
#######################################################################
#
# If this CIF has been generated from an entry in the Cambridge 
# Structural Database, then it will include bibliographic, chemical, 
# crystal, experimental, refinement or atomic coordinate data resulting 
# from the CCDC's data processing and validation procedures.
#
#######################################################################

data_QURLOE
_chemical_formula_moiety         'C36 H28 O4,C5 H5 N1'
_chemical_name_systematic        
'1,4,11,14-Tetramethoxy-dibenzo(b,n)tetraphenylene pyridine clathrate'
_symmetry_cell_setting           triclinic
_symmetry_space_group_name_H-M   'P -1'
_symmetry_Int_Tables_number      2
_space_group_name_Hall           '-P 1'
loop_
_symmetry_equiv_pos_site_id
_symmetry_equiv_pos_as_xyz
1 x,y,z
2 -x,-y,-z
_cell_length_a                   11.796(2)
_cell_length_b                   16.075(3)
_cell_length_c                   9.004(2)
_cell_angle_alpha                98.39(3)
_cell_angle_beta                 90.01(3)
_cell_angle_gamma                108.19(3)
_cell_volume                     1602.76
_exptl_crystal_colour            colorless
_exptl_crystal_description       plate
_chemical_melting_point          'above 340deg.C'
_cell_formula_units_Z            2
loop_
_atom_site_label
_atom_site_type_symbol
_atom_site_fract_x
_atom_site_fract_y
_atom_site_fract_z
C37 C 0.2323(9) 0.1552(7) 0.7677(11)
H29 H 0.2489 0.1744 0.8703
C38 C 0.2585(14) 0.0838(8) 0.700(2)
H30 H 0.3003 0.0563 0.7531
C39 C 0.224(2) 0.0521(8) 0.5537(19)
H31 H 0.2383 0.0021 0.5021
C40 C 0.1677(15) 0.0992(11) 0.4910(13)
H32 H 0.1354 0.0762 0.3938
C41 C 0.1526(9) 0.1749(9) 0.5511(13)
H33 H 0.1219 0.2083 0.4960
C42 C 0.1824(9) 0.1978(7) 0.6864(15)
H34 H 0.1688 0.2488 0.7345
O1 O 1.5323(3) 0.5854(2) 0.3209(4)
O2 O 1.5465(4) 0.7407(3) -0.1925(4)
O3 O 0.8865(3) 0.6224(2) -0.2217(4)
O4 O 0.8697(3) 0.4690(2) 0.2928(4)
C1 C 1.1659(4) 0.7744(3) 0.4246(5)
C2 C 1.1115(5) 0.7971(3) 0.5541(5)
H1 H 1.0288 0.7828 0.5522
C3 C 1.1769(6) 0.8401(3) 0.6857(5)
H2 H 1.1390 0.8560 0.7706
C4 C 1.2986(6) 0.8592(3) 0.6895(6)
H3 H 1.3435 0.8876 0.7779
C5 C 1.3548(5) 0.8365(3) 0.5634(6)
H4 H 1.4373 0.8494 0.5679
C6 C 1.2904(4) 0.7948(3) 0.4297(5)
C7 C 1.3544(4) 0.7688(3) 0.2968(5)
C8 C 1.4141(4) 0.7086(3) 0.3037(5)
H5 H 1.4114 0.6836 0.3909
C9 C 1.4794(4) 0.6831(3) 0.1843(5)
C10 C 1.5417(5) 0.6209(3) 0.1890(6)
C11 C 1.6064(5) 0.6011(4) 0.0732(6)
H6 H 1.6483 0.5613 0.0795
C12 C 1.6107(5) 0.6409(4) -0.0579(6)
H7 H 1.6556 0.6269 -0.1370
C13 C 1.5504(4) 0.6994(3) -0.0701(5)
C14 C 1.4833(4) 0.7218(3) 0.0508(6)
C15 C 1.4212(4) 0.7839(3) 0.0464(5)
H8 H 1.4229 0.8096 -0.0400
C16 C 1.3584(4) 0.8078(3) 0.1648(5)
C17 C 1.2985(4) 0.8757(3) 0.1509(5)
C18 C 1.3690(5) 0.9616(3) 0.1330(6)
H9 H 1.4518 0.9763 0.1376
C19 C 1.3167(6) 1.0242(4) 0.1087(6)
H10 H 1.3645 1.0808 0.0968
C20 C 1.1948(6) 1.0041(4) 0.1020(6)
H11 H 1.1603 1.0470 0.0861
C21 C 1.1233(5) 0.9199(3) 0.1189(6)
H12 H 1.0406 0.9059 0.1127
C22 C 1.1748(5) 0.8561(3) 0.1451(5)
C23 C 1.0948(4) 0.7635(3) 0.1545(5)
C24 C 1.0230(4) 0.7167(3) 0.0314(5)
H13 H 1.0243 0.7434 -0.0538
C25 C 0.9468(4) 0.6286(3) 0.0293(5)
C26 C 0.8779(4) 0.5778(3) -0.1021(5)
C27 C 0.8129(4) 0.4920(3) -0.1008(6)
H14 H 0.7714 0.4581 -0.1883
C28 C 0.8070(4) 0.4530(3) 0.0307(6)
H15 H 0.7597 0.3946 0.0301
C29 C 0.8697(4) 0.5000(3) 0.1574(5)
C30 C 0.9435(4) 0.5901(3) 0.1617(5)
C31 C 1.0163(4) 0.6403(3) 0.2885(5)
H16 H 1.0127 0.6155 0.3762
C32 C 1.0924(4) 0.7246(3) 0.2868(5)
C33 C 1.6073(6) 0.5335(5) 0.3393(7)
H17 H 1.5883 0.4834 0.2607
H18 H 1.5952 0.5133 0.4350
H19 H 1.6893 0.5687 0.3348
C34 C 1.6196(7) 0.7277(5) -0.3138(7)
H20 H 1.7007 0.7419 -0.2762
H21 H 1.6161 0.7655 -0.3857
H22 H 1.5914 0.6670 -0.3611
C35 C 0.8393(6) 0.5724(5) -0.3625(6)
H23 H 0.8789 0.5289 -0.3898
H24 H 0.8516 0.6110 -0.4370
H25 H 0.7553 0.5432 -0.3567
C36 C 0.8015(6) 0.3787(3) 0.2954(7)
H26 H 0.7190 0.3701 0.2708
H27 H 0.8091 0.3643 0.3939
H28 H 0.8305 0.3410 0.2232
loop_
_geom_bond_atom_site_label_1
_geom_bond_atom_site_label_2
_geom_bond_site_symmetry_1
_geom_bond_site_symmetry_2
O1 C10 1_555 1_555
O2 C13 1_555 1_555
O3 C26 1_555 1_555
O4 C29 1_555 1_555
C1 C2 1_555 1_555
C2 H1 1_555 1_555
C3 C2 1_555 1_555
H2 C3 1_555 1_555
C4 C3 1_555 1_555
H3 C4 1_555 1_555
C5 C4 1_555 1_555
H4 C5 1_555 1_555
C6 C1 1_555 1_555
C7 C6 1_555 1_555
C8 C7 1_555 1_555
H5 C8 1_555 1_555
C9 C8 1_555 1_555
C10 C9 1_555 1_555
C11 C10 1_555 1_555
H6 C11 1_555 1_555
C12 C11 1_555 1_555
H7 C12 1_555 1_555
C13 C12 1_555 1_555
C14 C9 1_555 1_555
C15 C14 1_555 1_555
H8 C15 1_555 1_555
C16 C7 1_555 1_555
C17 C16 1_555 1_555
C18 C17 1_555 1_555
H9 C18 1_555 1_555
C19 C18 1_555 1_555
H10 C19 1_555 1_555
C20 C19 1_555 1_555
H11 C20 1_555 1_555
C21 C20 1_555 1_555
H12 C21 1_555 1_555
C22 C17 1_555 1_555
C23 C22 1_555 1_555
C24 C23 1_555 1_555
H13 C24 1_555 1_555
C25 C24 1_555 1_555
C26 C25 1_555 1_555
C27 C26 1_555 1_555
H14 C27 1_555 1_555
C28 C27 1_555 1_555
H15 C28 1_555 1_555
C29 C28 1_555 1_555
C30 C25 1_555 1_555
C31 C30 1_555 1_555
H16 C31 1_555 1_555
C32 C1 1_555 1_555
C33 O1 1_555 1_555
H17 C33 1_555 1_555
H18 C33 1_555 1_555
H19 C33 1_555 1_555
C34 O2 1_555 1_555
H20 C34 1_555 1_555
H21 C34 1_555 1_555
H22 C34 1_555 1_555
C35 O3 1_555 1_555
H23 C35 1_555 1_555
H24 C35 1_555 1_555
H25 C35 1_555 1_555
C36 O4 1_555 1_555
H26 C36 1_555 1_555
H27 C36 1_555 1_555
H28 C36 1_555 1_555
C37 H29 1_555 1_555
C38 C37 1_555 1_555
H30 C38 1_555 1_555
C39 C38 1_555 1_555
H31 C39 1_555 1_555
C40 C39 1_555 1_555
H32 C40 1_555 1_555
C41 C40 1_555 1_555
H33 C41 1_555 1_555
C42 C37 1_555 1_555
H34 C42 1_555 1_555
C5 C6 1_555 1_555
C13 C14 1_555 1_555
C15 C16 1_555 1_555
C21 C22 1_555 1_555
C23 C32 1_555 1_555
C29 C30 1_555 1_555
C31 C32 1_555 1_555
C41 C42 1_555 1_555

#END
