
#######################################################################
#
#                 Cambridge Crystallographic Data Centre
#                                CCDC 
#
#######################################################################
#
# If this CIF has been generated from an entry in the Cambridge 
# Structural Database, then it will include bibliographic, chemical, 
# crystal, experimental, refinement or atomic coordinate data resulting 
# from the CCDC's data processing and validation procedures.
#
#######################################################################

data_QUSKEW
_chemical_formula_moiety         'C20 H26 N2 S2 Si3'
_chemical_name_systematic        
((7,7-dimethyl-4,6-bis(trimethylsilyl)-7H-thieno[3',4':4,5]silolo[2,3-b]thiophen-2-yl)methylene)malononitrile
_symmetry_cell_setting           monoclinic
_symmetry_space_group_name_H-M   'P 21/c'
_symmetry_Int_Tables_number      14
_space_group_name_Hall           '-P 2ybc'
loop_
_symmetry_equiv_pos_site_id
_symmetry_equiv_pos_as_xyz
1 x,y,z
2 -x,1/2+y,1/2-z
3 -x,-y,-z
4 x,1/2-y,1/2+z
_cell_length_a                   12.979(10)
_cell_length_b                   12.411(9)
_cell_length_c                   15.532(12)
_cell_angle_alpha                90
_cell_angle_beta                 92.684(15)
_cell_angle_gamma                90
_cell_volume                     2499.19
_exptl_crystal_colour            yellow
_exptl_crystal_description       block
_cell_formula_units_Z            4
loop_
_atom_site_label
_atom_site_type_symbol
_atom_site_fract_x
_atom_site_fract_y
_atom_site_fract_z
S1 S 0.82917(6) 0.87283(6) -0.16815(5)
S2 S 0.60732(6) 1.11568(5) 0.13960(4)
Si1 Si 0.94676(6) 1.08304(7) -0.20946(5)
Si2 Si 0.71393(6) 0.70777(6) -0.06063(6)
Si3 Si 0.76694(6) 1.16597(6) -0.01797(5)
N1 N 0.3096(2) 0.8831(2) 0.35195(17)
C1 C 0.74537(19) 0.85139(19) -0.08564(15)
C2 C 0.78792(19) 1.03951(19) -0.08119(15)
C3 C 0.4398(2) 1.1052(2) 0.27962(18)
C4 C 0.8468(2) 1.0083(2) -0.14889(16)
C5 C 0.43120(19) 0.9946(2) 0.26034(16)
C6 C 0.8855(2) 1.2206(3) 0.03552(19)
H1 H 0.9243 1.2589 -0.0058
H2 H 0.9264 1.1626 0.0595
H3 H 0.8676 1.2689 0.0807
C7 C 0.9123(3) 1.2280(2) -0.21852(19)
H4 H 0.8473 1.2353 -0.2501
H5 H 0.9647 1.2656 -0.2482
H6 H 0.9070 1.2580 -0.1619
C8 C 0.3622(2) 0.9337(2) 0.31108(18)
C9 C 0.6012(2) 0.92355(19) 0.07804(16)
H7 H 0.5858 0.8511 0.0694
C10 C 0.6813(2) 1.08783(19) 0.05428(16)
C11 C 0.73089(18) 0.95040(19) -0.04626(15)
C12 C 0.9543(2) 1.0207(2) -0.31771(17)
H8 H 0.9732 0.9462 -0.3114
H9 H 1.0052 1.0576 -0.3495
H10 H 0.8884 1.0260 -0.3481
C13 C 0.6939(2) 1.2756(2) -0.07420(19)
H11 H 0.7388 1.3142 -0.1107
H12 H 0.6673 1.3240 -0.0325
H13 H 0.6377 1.2453 -0.1086
N2 N 0.4462(2) 1.1938(2) 0.29687(19)
C14 C 0.4846(2) 0.94433(19) 0.19919(16)
H14 H 0.4713 0.8710 0.1935
C15 C 1.0724(3) 1.0685(3) -0.1485(2)
H15 H 1.0905 0.9936 -0.1444
H16 H 1.0672 1.0978 -0.0917
H17 H 1.1247 1.1066 -0.1780
C16 C 0.5585(2) 0.98587(19) 0.14165(16)
C17 C 0.67000(19) 0.98137(19) 0.02809(15)
C18 C 0.5755(2) 0.6771(2) -0.0515(2)
H18 H 0.5490 0.7175 -0.0047
H19 H 0.5670 0.6015 -0.0409
H20 H 0.5384 0.6964 -0.1042
C19 C 0.7580(3) 0.6241(3) -0.1512(3)
H21 H 0.7217 0.6454 -0.2037
H22 H 0.7443 0.5496 -0.1398
H23 H 0.8307 0.6342 -0.1567
C20 C 0.7833(3) 0.6726(3) 0.0420(3)
H24 H 0.7593 0.7175 0.0872
H25 H 0.8559 0.6837 0.0366
H26 H 0.7707 0.5984 0.0554
loop_
_geom_bond_atom_site_label_1
_geom_bond_atom_site_label_2
_geom_bond_site_symmetry_1
_geom_bond_site_symmetry_2
S1 C1 1_555 1_555
S2 C10 1_555 1_555
Si1 C4 1_555 1_555
Si2 C1 1_555 1_555
Si3 C2 1_555 1_555
N1 C8 1_555 1_555
C1 C11 1_555 1_555
C2 C4 1_555 1_555
C3 C5 1_555 1_555
C4 S1 1_555 1_555
C5 C8 1_555 1_555
C6 Si3 1_555 1_555
H1 C6 1_555 1_555
H2 C6 1_555 1_555
H3 C6 1_555 1_555
C7 Si1 1_555 1_555
H4 C7 1_555 1_555
H5 C7 1_555 1_555
H6 C7 1_555 1_555
C9 H7 1_555 1_555
C10 Si3 1_555 1_555
C11 C2 1_555 1_555
C12 Si1 1_555 1_555
H8 C12 1_555 1_555
H9 C12 1_555 1_555
H10 C12 1_555 1_555
C13 Si3 1_555 1_555
H11 C13 1_555 1_555
H12 C13 1_555 1_555
H13 C13 1_555 1_555
N2 C3 1_555 1_555
C14 C5 1_555 1_555
H14 C14 1_555 1_555
C15 Si1 1_555 1_555
H15 C15 1_555 1_555
H16 C15 1_555 1_555
H17 C15 1_555 1_555
C16 S2 1_555 1_555
C17 C9 1_555 1_555
C18 Si2 1_555 1_555
H18 C18 1_555 1_555
H19 C18 1_555 1_555
H20 C18 1_555 1_555
C19 Si2 1_555 1_555
H21 C19 1_555 1_555
H22 C19 1_555 1_555
H23 C19 1_555 1_555
C20 Si2 1_555 1_555
H24 C20 1_555 1_555
H25 C20 1_555 1_555
H26 C20 1_555 1_555
C9 C16 1_555 1_555
C10 C17 1_555 1_555
C11 C17 1_555 1_555
C14 C16 1_555 1_555

#END
