
#######################################################################
#
#                 Cambridge Crystallographic Data Centre
#                                CCDC 
#
#######################################################################
#
# If this CIF has been generated from an entry in the Cambridge 
# Structural Database, then it will include bibliographic, chemical, 
# crystal, experimental, refinement or atomic coordinate data resulting 
# from the CCDC's data processing and validation procedures.
#
#######################################################################

data_QUSMIA
_chemical_formula_moiety         '2(C10 H12 N4 O8 P1),C5 H9 N1 O4,11(H2 O1)'
_chemical_name_systematic        
"bis(Inosine-5'-monophosphate) L-glutamic acid undecahydrate"
_symmetry_cell_setting           monoclinic
_symmetry_space_group_name_H-M   'P 21'
_symmetry_Int_Tables_number      4
_space_group_name_Hall           'P 2yb'
loop_
_symmetry_equiv_pos_site_id
_symmetry_equiv_pos_as_xyz
1 x,y,z
2 -x,1/2+y,-z
_cell_length_a                   8.650(1)
_cell_length_b                   21.900(1)
_cell_length_c                   12.370(1)
_cell_angle_alpha                90
_cell_angle_beta                 110.4(9)
_cell_angle_gamma                90
_cell_volume                     2196.34
_exptl_crystal_colour            colorless
_exptl_crystal_description       needle
_cell_formula_units_Z            2
loop_
_atom_site_label
_atom_site_type_symbol
_atom_site_fract_x
_atom_site_fract_y
_atom_site_fract_z
P1 P 0.2623(8) 0.0610 0.2524(5)
O1 O 0.3975(15) 0.0220(7) 0.3166(11)
O2 O 0.1163(18) 0.0522(8) 0.2790(12)
O3 O 0.3066(16) 0.1257(8) 0.2562(10)
O4 O 0.2088(14) 0.0440(6) 0.1218(11)
C1 C 0.3206(30) 0.0470(12) 0.0670(15)
H1 H 0.4201(30) 0.0268(12) 0.1160(15)
H2 H 0.3481(30) 0.0897(12) 0.0636(15)
O5 O 0.1272(17) 0.0389(7) -0.2451(12)
O6 O 0.2431(18) -0.0425(8) -0.0485(12)
C2 C 0.2799(21) 0.0213(10) -0.0523(15)
H3 H 0.3708(21) 0.0275(10) -0.0811(15)
C3 C 0.1027(34) 0.0450(10) -0.1469(16)
H4 H 0.0717(34) 0.0864(10) -0.1324(16)
C4 C -0.0201(35) -0.0020(11) -0.1478(23)
H5 H -0.0558(35) 0.0055(11) -0.0820(23)
O7 O -0.1521(20) -0.0058(8) -0.2408(15)
C5 C 0.0757(24) -0.0515(12) -0.1245(19)
H6 H 0.0818(24) -0.0655(12) -0.1982(19)
N1 N -0.0125(24) -0.1578(10) 0.0831(16)
C6 C -0.0464(28) -0.1577(13) -0.1182(21)
N2 N 0.0352(21) -0.1129(10) -0.0599(20)
N3 N -0.1940(23) -0.2627(11) -0.1623(21)
H7 H -0.2298(23) -0.2988(11) -0.1851(21)
C7 C -0.1615(32) -0.2499(15) -0.0536(29)
O8 O -0.1874(24) -0.2903(9) 0.0110(18)
N4 N -0.0985(21) -0.1765(8) -0.2263(15)
C8 C -0.1754(32) -0.2220(16) -0.2462(35)
H8 H -0.2284(32) -0.2322(16) -0.3233(35)
C9 C 0.0572(24) -0.1139(12) 0.0531(17)
H9 H 0.1185(24) -0.0845(12) 0.1047(17)
C10 C -0.0779(36) -0.1986(24) -0.0178(31)
P2 P 0.5081(7) 0.1150(4) -0.2539(4)
O9 O 0.3180(13) 0.1209(6) -0.2908(9)
O10 O 0.5732(19) 0.0447(7) -0.2614(15)
O11 O 0.5779(20) 0.1629(7) -0.3288(11)
C11 C 0.7011(23) 0.2361(10) 0.1184(19)
H10 H 0.7760(23) 0.2495(10) 0.1941(19)
C12 C 0.7626(22) 0.1293(10) 0.1419(16)
H11 H 0.7236(22) 0.0871(10) 0.1243(16)
O12 O 0.5884(17) 0.1354(8) -0.1139(11)
O13 O 0.5825(17) 0.1853(7) 0.2327(10)
O14 O 0.8706(15) 0.1365(8) 0.2508(10)
C13 C 0.7608(23) 0.1300(9) -0.0652(22)
H12 H 0.8094(23) 0.1495(9) -0.1161(22)
H13 H 0.7895(23) 0.0870(9) -0.0610(22)
C14 C 0.8352(25) 0.1569(11) 0.0517(20)
H14 H 0.9549(25) 0.1508(11) 0.0794(20)
O15 O 0.7987(20) 0.2232(8) 0.0463(11)
C15 C 0.6192(23) 0.1763(10) 0.1348(16)
H15 H 0.5196(23) 0.1678(10) 0.0683(16)
N5 N 0.5918(22) 0.2888(10) 0.0624(15)
C16 C 0.4024(34) 0.4262(13) 0.0551(29)
O16 O 0.3095(24) 0.4668(7) -0.0155(11)
N6 N 0.4857(30) 0.4368(9) 0.1662(17)
H16 H 0.4592(30) 0.4715(9) 0.1874(17)
N7 N 0.4004(22) 0.3405(11) -0.0781(16)
N8 N 0.6390(25) 0.3471(9) 0.2298(16)
C17 C 0.4933(31) 0.2935(11) -0.0396(19)
H17 H 0.4870(31) 0.2613(11) -0.0901(19)
C18 C 0.5484(23) 0.3366(11) 0.1035(16)
C19 C 0.4439(25) 0.3723(11) 0.0209(16)
C20 C 0.5872(37) 0.4114(12) 0.2443(19)
H18 H 0.6345(37) 0.4313(12) 0.3146(19)
O17 O 0.9049(17) 0.0245(9) 0.5813(13)
O18 O 0.8221(16) 0.1539(7) 0.4257(10)
O19 O 0.7300(18) 0.0376(8) 0.3812(13)
O20 O 0.1212(14) 0.4651(7) 0.7481(9)
O21 O 0.1161(18) 0.3361(8) 0.7449(13)
O22 O 0.0738(18) 0.0787(9) 0.5016(11)
O23 O 0.4368(20) 0.1934(8) 0.4607(12)
O24 O 0.5009(17) 0.4042(8) 0.7326(11)
O25 O 0.5878(17) -0.0007(8) 0.5757(11)
O26 O 0.2792(16) 0.4077(8) 0.4171(9)
O27 O 0.2801(18) 0.3471(8) 0.6444(11)
N9 N 0.6851(22) 0.2799(9) 0.7302(15)
H19 H 0.5838(22) 0.2684(9) 0.7068(15)
H20 H 0.7410(22) 0.2816(9) 0.8028(15)
C21 C 0.7629(35) 0.2970(13) 0.6459(25)
H21 H 0.7973(35) 0.3398(13) 0.6589(25)
C22 C 0.6444(44) 0.2909(15) 0.5249(25)
O28 O 0.5061(22) 0.2695(8) 0.5001(16)
O29 O 0.7014(22) 0.2992(9) 0.4583(17)
C23 C 0.9241(29) 0.2559(14) 0.6741(23)
H22 H 0.9950(29) 0.2627(14) 0.7534(23)
H23 H 0.8929(29) 0.2131(14) 0.6658(23)
C24 C 1.0169(53) 0.2708(25) 0.5948(28)
H24 H 1.0469(53) 0.3137(25) 0.6046(28)
H25 H 0.9421(53) 0.2656(25) 0.5161(28)
C25 C 1.1796(39) 0.2325(14) 0.6097(26)
O30 O 1.2659(21) 0.2397(8) 0.5524(14)
O31 O 1.2205(26) 0.1936(12) 0.6960(22)
loop_
_geom_bond_atom_site_label_1
_geom_bond_atom_site_label_2
_geom_bond_site_symmetry_1
_geom_bond_site_symmetry_2
P1 O1 1_555 1_555
O2 P1 1_555 1_555
O3 P1 1_555 1_555
O4 P1 1_555 1_555
C1 O4 1_555 1_555
H1 C1 1_555 1_555
H2 C1 1_555 1_555
O5 C3 1_555 1_555
O6 C2 1_555 1_555
C2 C1 1_555 1_555
H3 C2 1_555 1_555
C3 C2 1_555 1_555
H4 C3 1_555 1_555
C4 C3 1_555 1_555
H5 C4 1_555 1_555
O7 C4 1_555 1_555
C5 O6 1_555 1_555
H6 C5 1_555 1_555
N1 C9 1_555 1_555
C6 N2 1_555 1_555
N2 C5 1_555 1_555
N3 H7 1_555 1_555
C7 N3 1_555 1_555
O8 C7 1_555 1_555
N4 C6 1_555 1_555
C8 N3 1_555 1_555
H8 C8 1_555 1_555
C9 N2 1_555 1_555
H9 C9 1_555 1_555
C10 N1 1_555 1_555
P2 O9 1_555 1_555
O10 P2 1_555 1_555
O11 P2 1_555 1_555
C11 H10 1_555 1_555
C12 H11 1_555 1_555
O12 P2 1_555 1_555
O13 C15 1_555 1_555
O14 C12 1_555 1_555
C13 O12 1_555 1_555
H12 C13 1_555 1_555
H13 C13 1_555 1_555
C14 C12 1_555 1_555
H14 C14 1_555 1_555
O15 C11 1_555 1_555
C15 C11 1_555 1_555
H15 C15 1_555 1_555
N5 C11 1_555 1_555
C16 O16 1_555 1_555
N6 C16 1_555 1_555
H16 N6 1_555 1_555
N7 C17 1_555 1_555
N8 C18 1_555 1_555
C17 N5 1_555 1_555
H17 C17 1_555 1_555
C18 N5 1_555 1_555
C19 C16 1_555 1_555
C20 N6 1_555 1_555
H18 C20 1_555 1_555
N9 H19 1_555 1_555
H20 N9 1_555 1_555
C21 N9 1_555 1_555
H21 C21 1_555 1_555
C22 C21 1_555 1_555
O28 C22 1_555 1_555
O29 C22 1_555 1_555
C23 C21 1_555 1_555
H22 C23 1_555 1_555
H23 C23 1_555 1_555
C24 C23 1_555 1_555
H24 C24 1_555 1_555
H25 C24 1_555 1_555
C25 C24 1_555 1_555
O30 C25 1_555 1_555
O31 C25 1_555 1_555
C4 C5 1_555 1_555
C6 C10 1_555 1_555
C7 C10 1_555 1_555
N4 C8 1_555 1_555
C12 C15 1_555 1_555
C13 C14 1_555 1_555
C14 O15 1_555 1_555
N7 C19 1_555 1_555
N8 C20 1_555 1_555
C18 C19 1_555 1_555

#END
