
#######################################################################
#
#                 Cambridge Crystallographic Data Centre
#                                CCDC 
#
#######################################################################
#
# If this CIF has been generated from an entry in the Cambridge 
# Structural Database, then it will include bibliographic, chemical, 
# crystal, experimental, refinement or atomic coordinate data resulting 
# from the CCDC's data processing and validation procedures.
#
#######################################################################

data_QUVPUU
_chemical_compound_source        'Boswellia carterii'
_chemical_name_common            'Boscartane A dihydrate'
_chemical_formula_moiety         'C20 H34 O4,2(H2 O1)'
_chemical_name_systematic        
'4-isopropyl-1,7,11-trimethyl-15,16-dioxatricyclo[10.2.1.1^4,7^]hexadec-10-ene-2,8-diol dihydrate'
_chemical_properties_biological  'antiulcerative colitis activity'
_symmetry_cell_setting           triclinic
_symmetry_space_group_name_H-M   'P 1'
_symmetry_Int_Tables_number      1
_space_group_name_Hall           'P 1'
loop_
_symmetry_equiv_pos_site_id
_symmetry_equiv_pos_as_xyz
1 x,y,z
_cell_length_a                   7.5468(4)
_cell_length_b                   8.5723(4)
_cell_length_c                   10.2666(6)
_cell_angle_alpha                99.326(4)
_cell_angle_beta                 107.867(5)
_cell_angle_gamma                114.786(5)
_cell_volume                     540.469
_cell_formula_units_Z            1
loop_
_atom_site_label
_atom_site_type_symbol
_atom_site_fract_x
_atom_site_fract_y
_atom_site_fract_z
O1 O -0.19630(18) -0.81874(15) -0.66076(13)
O2 O 0.13974(19) -0.88823(15) -0.33609(13)
O3 O -0.44504(19) -1.18070(16) -0.49509(14)
H1 H -0.5113 -1.1291 -0.4752
O4 O 0.3720(2) -0.54757(16) -0.59352(14)
H2 H 0.4082 -0.4366 -0.5685
C1 C -0.0623(3) -1.0275(2) -0.34251(19)
C2 C -0.2394(3) -1.0464(2) -0.47875(18)
H3 H -0.2358 -0.9267 -0.4640
C3 C 0.1913(3) -0.6484(2) -0.5628(2)
H4 H 0.1892 -0.7641 -0.5559
C4 C -0.0200(3) -0.7025(2) -0.69043(19)
C5 C -0.0758(3) -0.9464(2) -0.20166(19)
H5 H -0.2198 -0.9605 -0.2229
H6 H -0.0446 -1.0063 -0.1299
C6 C -0.5290(3) -1.0977(2) -0.8031(2)
H7 H -0.5754 -1.0787 -0.7234
C7 C 0.2112(3) -0.5475(2) -0.41652(19)
H8 H 0.2065 -0.4350 -0.4219
H9 H 0.0859 -0.6257 -0.3997
C8 C 0.2658(3) -0.7541(2) -0.1923(2)
H10 H 0.3376 -0.8058 -0.1281
C9 C -0.2053(3) -1.0919(2) -0.61641(18)
H11 H -0.2811 -1.2263 -0.6613
H12 H -0.0500 -1.0465 -0.5879
C10 C 0.4403(3) -0.5808(2) -0.1923(2)
C11 C -0.0436(3) -0.5365(3) -0.7049(2)
H13 H -0.0503 -0.4787 -0.6174
H14 H -0.1757 -0.5756 -0.7900
H15 H 0.0803 -0.4489 -0.7165
C12 C -0.2826(3) -1.0126(2) -0.73214(19)
C13 C 0.4130(3) -0.4971(2) -0.2896(2)
H16 H 0.5386 -0.3911 -0.2766
C14 C -0.1795(3) -1.0185(3) -0.8413(2)
H17 H -0.0837 -1.0702 -0.8143
H18 H -0.2921 -1.0948 -0.9410
C15 C -0.5998(4) -1.0040(3) -0.9068(3)
H19 H -0.5628 -1.0252 -0.9890
H20 H -0.5263 -0.8726 -0.8550
H21 H -0.7555 -1.0545 -0.9427
C16 C 0.0969(3) -0.7442(2) -0.1456(2)
H22 H 0.0405 -0.6720 -0.1916
H23 H 0.1547 -0.6913 -0.0386
C17 C -0.6458(3) -1.3038(3) -0.8827(2)
H24 H -0.6119 -1.3644 -0.8135
H25 H -0.5989 -1.3275 -0.9591
H26 H -0.8012 -1.3511 -0.9264
C18 C 0.6585(3) -0.5069(3) -0.0703(2)
H27 H 0.7057 -0.5970 -0.0798
H28 H 0.6491 -0.4822 0.0232
H29 H 0.7621 -0.3937 -0.0753
C19 C -0.0511(3) -0.8212(3) -0.8335(2)
H30 H -0.1311 -0.7979 -0.9172
H31 H 0.0895 -0.7952 -0.8338
C20 C -0.0535(3) -1.2031(2) -0.3500(2)
H32 H 0.0691 -1.1802 -0.2644
H33 H -0.0374 -1.2447 -0.4382
H34 H -0.1867 -1.2971 -0.3523
O5 O -0.3555(2) -0.67939(19) -0.48789(17)
H35 H -0.321(4) -0.719(3) -0.553(2)
H36 H -0.424(4) -0.628(3) -0.526(2)
O6 O 0.4391(4) -0.9526(3) -0.3948(3)
H37 H 0.362(4) -0.991(4) -0.4888(11)
H38 H 0.352(3) -0.933(3) -0.367(2)
loop_
_geom_bond_atom_site_label_1
_geom_bond_atom_site_label_2
_geom_bond_site_symmetry_1
_geom_bond_site_symmetry_2
O1 C4 1_555 1_555
O2 C1 1_555 1_555
O3 H1 1_555 1_555
O4 H2 1_555 1_555
C1 C2 1_555 1_555
C2 O3 1_555 1_555
H3 C2 1_555 1_555
C3 O4 1_555 1_555
H4 C3 1_555 1_555
C4 C3 1_555 1_555
C5 C1 1_555 1_555
H5 C5 1_555 1_555
H6 C5 1_555 1_555
C6 H7 1_555 1_555
C7 C3 1_555 1_555
H8 C7 1_555 1_555
H9 C7 1_555 1_555
C8 O2 1_555 1_555
H10 C8 1_555 1_555
C9 C2 1_555 1_555
H11 C9 1_555 1_555
H12 C9 1_555 1_555
C10 C8 1_555 1_555
C11 C4 1_555 1_555
H13 C11 1_555 1_555
H14 C11 1_555 1_555
H15 C11 1_555 1_555
C12 O1 1_555 1_555
C13 C7 1_555 1_555
H16 C13 1_555 1_555
C14 C12 1_555 1_555
H17 C14 1_555 1_555
H18 C14 1_555 1_555
C15 C6 1_555 1_555
H19 C15 1_555 1_555
H20 C15 1_555 1_555
H21 C15 1_555 1_555
C16 C5 1_555 1_555
H22 C16 1_555 1_555
H23 C16 1_555 1_555
C17 C6 1_555 1_555
H24 C17 1_555 1_555
H25 C17 1_555 1_555
H26 C17 1_555 1_555
C18 C10 1_555 1_555
H27 C18 1_555 1_555
H28 C18 1_555 1_555
H29 C18 1_555 1_555
C19 C4 1_555 1_555
H30 C19 1_555 1_555
H31 C19 1_555 1_555
C20 C1 1_555 1_555
H32 C20 1_555 1_555
H33 C20 1_555 1_555
H34 C20 1_555 1_555
O5 H35 1_555 1_555
H36 O5 1_555 1_555
O6 H37 1_555 1_555
H38 O6 1_555 1_555
C6 C12 1_555 1_555
C8 C16 1_555 1_555
C9 C12 1_555 1_555
C10 C13 1_555 1_555
C14 C19 1_555 1_555

#END
