
#######################################################################
#
#                 Cambridge Crystallographic Data Centre
#                                CCDC 
#
#######################################################################
#
# If this CIF has been generated from an entry in the Cambridge 
# Structural Database, then it will include bibliographic, chemical, 
# crystal, experimental, refinement or atomic coordinate data resulting 
# from the CCDC's data processing and validation procedures.
#
#######################################################################

data_QUVPOO
_chemical_compound_source        'Boswellia carterii'
_chemical_name_common            'Boscartane C'
_chemical_formula_moiety         'C20 H34 O4'
_chemical_name_systematic        
1-isopropyl-5,9,13-trimethyl-4,16-dioxatricyclo[11.2.1.0^3,5^]hexadec-8-ene-7,12-diol
_chemical_properties_biological  'antiulcerative colitis activity'
_symmetry_cell_setting           monoclinic
_symmetry_space_group_name_H-M   'P 21'
_symmetry_Int_Tables_number      4
_space_group_name_Hall           'P 2yb'
loop_
_symmetry_equiv_pos_site_id
_symmetry_equiv_pos_as_xyz
1 x,y,z
2 -x,1/2+y,-z
_cell_length_a                   6.9899(4)
_cell_length_b                   15.3898(8)
_cell_length_c                   8.8510(7)
_cell_angle_alpha                90
_cell_angle_beta                 98.479(7)
_cell_angle_gamma                90
_cell_volume                     941.723
_cell_formula_units_Z            2
loop_
_atom_site_label
_atom_site_type_symbol
_atom_site_fract_x
_atom_site_fract_y
_atom_site_fract_z
O1 O -0.05974(13) -0.15336(6) -0.09494(10)
O2 O -0.44934(15) 0.20355(7) -0.35393(11)
H1 H -0.5101 0.2313 -0.2978
O3 O -0.35835(15) -0.16970(7) 0.21393(11)
H2 H -0.3099 -0.1419 0.2890
O4 O -0.24213(14) -0.07035(6) -0.52932(10)
C1 C -0.1245(2) -0.27893(9) 0.03914(16)
H3 H -0.2134 -0.3003 0.1051
H4 H -0.0009 -0.3079 0.0658
C2 C -0.31276(18) -0.16920(9) -0.31147(14)
H5 H -0.3586 -0.2059 -0.3983
H6 H -0.4170 -0.1632 -0.2510
C3 C -0.3793(2) 0.07002(9) -0.45886(15)
H7 H -0.4194 0.0946 -0.5595
H8 H -0.2434 0.0835 -0.4293
C4 C -0.4955(2) 0.11339(8) -0.34557(16)
H9 H -0.6341 0.1047 -0.3792
C5 C -0.4727(2) 0.00947(9) 0.06394(16)
H10 H -0.5663 -0.0285 0.1010
H11 H -0.4629 0.0615 0.1265
C6 C -0.6008(2) -0.06138(10) -0.52900(16)
H12 H -0.5936 -0.1228 -0.5464
H13 H -0.6483 -0.0327 -0.6234
H14 H -0.6869 -0.0504 -0.4561
C7 C -0.4415(2) 0.07939(9) -0.18510(15)
H15 H -0.3154 0.0906 -0.1394
C8 C -0.2747(2) -0.03644(8) 0.08802(15)
H16 H -0.1999 -0.0168 0.0105
H17 H -0.2051 -0.0200 0.1869
C9 C -0.5509(2) 0.03529(8) -0.10008(16)
C10 C -0.26386(19) -0.08102(9) -0.36839(14)
H18 H -0.1707 -0.0480 -0.2970
C11 C 0.2027(2) -0.27140(10) -0.21233(19)
H19 H 0.3038 -0.2785 -0.2738
H20 H 0.1691 -0.3270 -0.1747
H21 H 0.2466 -0.2338 -0.1278
C12 C -0.20603(19) -0.29384(9) -0.13001(15)
H22 H -0.3461 -0.2976 -0.1440
H23 H -0.1547 -0.3469 -0.1674
C13 C -0.1014(2) -0.18026(9) 0.05307(15)
C14 C -0.7585(2) 0.01026(10) -0.14980(18)
H24 H -0.8361 0.0311 -0.0765
H25 H -0.7687 -0.0519 -0.1569
H26 H -0.8034 0.0355 -0.2478
C15 C -0.2921(2) -0.13561(9) 0.08032(15)
H27 H -0.3902 -0.1497 -0.0071
C16 C -0.4030(2) -0.02736(9) -0.46816(14)
C17 C 0.0682(2) -0.15277(10) 0.17111(17)
H28 H 0.0900 -0.0915 0.1621
H29 H 0.1820 -0.1840 0.1541
H30 H 0.0397 -0.1654 0.2716
C18 C 0.0250(2) -0.23137(9) -0.30906(16)
H31 H 0.0648 -0.1750 -0.3455
C19 C -0.0382(2) -0.28768(10) -0.45029(17)
H32 H -0.0730 -0.3445 -0.4188
H33 H 0.0664 -0.2924 -0.5090
H34 H -0.1477 -0.2614 -0.5116
C20 C -0.13952(19) -0.21373(9) -0.21397(15)
loop_
_geom_bond_atom_site_label_1
_geom_bond_atom_site_label_2
_geom_bond_site_symmetry_1
_geom_bond_site_symmetry_2
O1 C13 1_555 1_555
O2 H1 1_555 1_555
O3 H2 1_555 1_555
O4 C10 1_555 1_555
C1 H3 1_555 1_555
H4 C1 1_555 1_555
C2 H5 1_555 1_555
H6 C2 1_555 1_555
C3 H7 1_555 1_555
H8 C3 1_555 1_555
C4 O2 1_555 1_555
H9 C4 1_555 1_555
C5 H10 1_555 1_555
H11 C5 1_555 1_555
C6 H12 1_555 1_555
H13 C6 1_555 1_555
H14 C6 1_555 1_555
C7 C4 1_555 1_555
H15 C7 1_555 1_555
C8 C5 1_555 1_555
H16 C8 1_555 1_555
H17 C8 1_555 1_555
C9 C5 1_555 1_555
C10 C2 1_555 1_555
H18 C10 1_555 1_555
C11 H19 1_555 1_555
H20 C11 1_555 1_555
H21 C11 1_555 1_555
C12 C1 1_555 1_555
H22 C12 1_555 1_555
H23 C12 1_555 1_555
C13 C1 1_555 1_555
C14 C9 1_555 1_555
H24 C14 1_555 1_555
H25 C14 1_555 1_555
H26 C14 1_555 1_555
C15 O3 1_555 1_555
H27 C15 1_555 1_555
C16 O4 1_555 1_555
C17 C13 1_555 1_555
H28 C17 1_555 1_555
H29 C17 1_555 1_555
H30 C17 1_555 1_555
C18 C11 1_555 1_555
H31 C18 1_555 1_555
C19 C18 1_555 1_555
H32 C19 1_555 1_555
H33 C19 1_555 1_555
H34 C19 1_555 1_555
C20 O1 1_555 1_555
C2 C20 1_555 1_555
C3 C4 1_555 1_555
C3 C16 1_555 1_555
C6 C16 1_555 1_555
C7 C9 1_555 1_555
C8 C15 1_555 1_555
C10 C16 1_555 1_555
C12 C20 1_555 1_555
C13 C15 1_555 1_555
C18 C20 1_555 1_555

#END
