
#######################################################################
#
#                 Cambridge Crystallographic Data Centre
#                                CCDC 
#
#######################################################################
#
# If this CIF has been generated from an entry in the Cambridge 
# Structural Database, then it will include bibliographic, chemical, 
# crystal, experimental, refinement or atomic coordinate data resulting 
# from the CCDC's data processing and validation procedures.
#
#######################################################################

data_QUVQAB
_chemical_compound_source        'Boswellia carterii'
_chemical_name_common            'Boscartane B monohydrate'
_chemical_formula_moiety         'C20 H34 O5,H2 O1'
_chemical_name_systematic        
'13-isopropyl-1,5,10-trimethyl-9,16,17-trioxatetracyclo[11.2.1.1^2,5^.0^8,10^]heptadecane-6,11-diol monohydrate'
_chemical_properties_biological  'antiulcerative colitis activity'
_symmetry_cell_setting           monoclinic
_symmetry_space_group_name_H-M   'P 21'
_symmetry_Int_Tables_number      4
_space_group_name_Hall           'P 2yb'
loop_
_symmetry_equiv_pos_site_id
_symmetry_equiv_pos_as_xyz
1 x,y,z
2 -x,1/2+y,-z
_cell_length_a                   6.0890(12)
_cell_length_b                   16.766(3)
_cell_length_c                   9.846(2)
_cell_angle_alpha                90
_cell_angle_beta                 95.88(3)
_cell_angle_gamma                90
_cell_volume                     999.872
_exptl_crystal_colour            colorless
_exptl_crystal_description       Prism
_cell_formula_units_Z            2
loop_
_atom_site_label
_atom_site_type_symbol
_atom_site_fract_x
_atom_site_fract_y
_atom_site_fract_z
C1 C -0.1322(4) -0.83893(14) -0.7349(3)
C2 C 0.0510(4) -0.86157(17) -0.6248(3)
H1 H 0.1864 -0.8740 -0.6643
H2 H 0.0794 -0.8188 -0.5590
C3 C -0.0396(4) -0.93448(17) -0.5594(3)
H3 H 0.0258 -0.9407 -0.4659
H4 H -0.0120 -0.9823 -0.6103
C4 C -0.2850(4) -0.91779(16) -0.5644(2)
C5 C -0.4313(5) -0.99189(16) -0.5895(3)
H5 H -0.5820 -0.9780 -0.5715
C6 C -0.3590(5) -1.06753(19) -0.5053(3)
H6 H -0.2143 -1.0602 -0.4559
H7 H -0.4640 -1.0801 -0.4406
C7 C -0.3543(5) -1.13274(16) -0.6115(3)
H8 H -0.4190 -1.1816 -0.5809
H9 H -0.2044 -1.1435 -0.6312
C8 C -0.4925(4) -1.09871(16) -0.7371(3)
C9 C -0.4205(4) -1.12871(15) -0.8729(3)
H10 H -0.2625 -1.1179 -0.8740
C10 C -0.5454(5) -1.09072(15) -1.0011(3)
H11 H -0.4854 -1.1117 -1.0814
H12 H -0.6994 -1.1064 -1.0061
C11 C -0.5326(4) -1.00072(17) -1.0040(3)
H13 H -0.6058 -0.9739 -0.9326
C12 C -0.3485(4) -0.95741(16) -1.0499(2)
C13 C -0.2914(4) -0.87886(14) -0.9813(2)
H14 H -0.4237 -0.8574 -0.9455
C14 C -0.1131(4) -0.89048(14) -0.8634(2)
H15 H 0.0287 -0.8796 -0.8963
H16 H -0.1132 -0.9461 -0.8365
C15 C -0.1467(5) -0.74948(16) -0.7684(3)
H17 H -0.2637 -0.7429 -0.8436
C16 C 0.0658(6) -0.71869(19) -0.8183(4)
H18 H 0.1847 -0.7244 -0.7470
H19 H 0.0486 -0.6634 -0.8425
H20 H 0.0982 -0.7488 -0.8967
C17 C -0.2080(6) -0.69813(19) -0.6514(4)
H21 H -0.3310 -0.7216 -0.6125
H22 H -0.2474 -0.6457 -0.6847
H23 H -0.0843 -0.6945 -0.5829
C18 C -0.3466(5) -0.8753(2) -0.4354(3)
H24 H -0.4885 -0.8504 -0.4541
H25 H -0.2377 -0.8355 -0.4081
H26 H -0.3521 -0.9135 -0.3632
C19 C -0.7381(5) -1.1120(2) -0.7281(4)
H27 H -0.8219 -1.0769 -0.7907
H28 H -0.7720 -1.1010 -0.6368
H29 H -0.7752 -1.1663 -0.7510
C20 C -0.1629(5) -0.99944(17) -1.1109(3)
H30 H -0.0857 -0.9620 -1.1625
H31 H -0.2223 -1.0415 -1.1700
H32 H -0.0627 -1.0216 -1.0392
O1 O -0.3325(3) -0.86250(10) -0.67756(16)
O2 O -0.4354(3) -1.01652(9) -0.72935(17)
O3 O -0.4549(3) -1.21145(10) -0.8872(2)
H33 H -0.3679 -1.2352 -0.8323
O4 O -0.5574(3) -0.96131(11) -1.13494(17)
O5 O -0.2168(3) -0.82265(11) -1.07778(18)
H34 H -0.2946 -0.7827 -1.0803
O6 O -0.1655(4) -0.32189(14) -0.7836(2)
H35 H -0.2640 -0.3536 -0.8193
H36 H -0.0960 -0.3017 -0.8458
loop_
_geom_bond_atom_site_label_1
_geom_bond_atom_site_label_2
_geom_bond_site_symmetry_1
_geom_bond_site_symmetry_2
C1 C2 1_555 1_555
C2 H1 1_555 1_555
H2 C2 1_555 1_555
C3 C2 1_555 1_555
H3 C3 1_555 1_555
H4 C3 1_555 1_555
C4 C3 1_555 1_555
C5 C4 1_555 1_555
H5 C5 1_555 1_555
C6 C5 1_555 1_555
H6 C6 1_555 1_555
H7 C6 1_555 1_555
C7 C6 1_555 1_555
H8 C7 1_555 1_555
H9 C7 1_555 1_555
C8 C7 1_555 1_555
C9 C8 1_555 1_555
H10 C9 1_555 1_555
C10 C9 1_555 1_555
H11 C10 1_555 1_555
H12 C10 1_555 1_555
C11 C10 1_555 1_555
H13 C11 1_555 1_555
C12 C11 1_555 1_555
C13 C12 1_555 1_555
H14 C13 1_555 1_555
C14 C1 1_555 1_555
H15 C14 1_555 1_555
H16 C14 1_555 1_555
C15 C1 1_555 1_555
H17 C15 1_555 1_555
C16 C15 1_555 1_555
H18 C16 1_555 1_555
H19 C16 1_555 1_555
H20 C16 1_555 1_555
C17 C15 1_555 1_555
H21 C17 1_555 1_555
H22 C17 1_555 1_555
H23 C17 1_555 1_555
C18 C4 1_555 1_555
H24 C18 1_555 1_555
H25 C18 1_555 1_555
H26 C18 1_555 1_555
C19 C8 1_555 1_555
H27 C19 1_555 1_555
H28 C19 1_555 1_555
H29 C19 1_555 1_555
C20 C12 1_555 1_555
H30 C20 1_555 1_555
H31 C20 1_555 1_555
H32 C20 1_555 1_555
O1 C1 1_555 1_555
O2 C5 1_555 1_555
O3 C9 1_555 1_555
H33 O3 1_555 1_555
O4 C11 1_555 1_555
O5 C13 1_555 1_555
H34 O5 1_555 1_555
O6 H35 1_555 1_555
H36 O6 1_555 1_555
C4 O1 1_555 1_555
C8 O2 1_555 1_555
C12 O4 1_555 1_555
C13 C14 1_555 1_555

#END
