
#######################################################################
#
#                 Cambridge Crystallographic Data Centre
#                                CCDC 
#
#######################################################################
#
# If this CIF has been generated from an entry in the Cambridge 
# Structural Database, then it will include bibliographic, chemical, 
# crystal, experimental, refinement or atomic coordinate data resulting 
# from the CCDC's data processing and validation procedures.
#
#######################################################################

data_QUVRAC
_chemical_formula_moiety         'C12 H24 O6,C6 H7 N2 O2 1+,C2 H3 N1,B1 F4 1-'
_chemical_name_systematic        
'4-Nitroanilinium 18-crown-6 tetrafluoroborate acetonitrile solvate'
_symmetry_cell_setting           orthorhombic
_symmetry_space_group_name_H-M   'P 21 21 21'
_symmetry_Int_Tables_number      19
_space_group_name_Hall           'P 2ac 2ab'
loop_
_symmetry_equiv_pos_site_id
_symmetry_equiv_pos_as_xyz
1 x,y,z
2 1/2-x,-y,1/2+z
3 1/2+x,1/2-y,-z
4 -x,1/2+y,1/2-z
_cell_length_a                   7.8808(9)
_cell_length_b                   17.0665(18)
_cell_length_c                   19.808(2)
_cell_angle_alpha                90
_cell_angle_beta                 90
_cell_angle_gamma                90
_cell_volume                     2664.13
_exptl_crystal_colour            yellow
_exptl_crystal_description       block
_cell_formula_units_Z            4
loop_
_atom_site_label
_atom_site_type_symbol
_atom_site_fract_x
_atom_site_fract_y
_atom_site_fract_z
B1 B 0.3599(7) 0.4377(2) 0.03858(18)
F1 F 0.3935(7) 0.50877(18) 0.02152(16)
F2 F 0.2945(4) 0.39568(14) -0.01289(11)
F3 F 0.4812(8) 0.4030(3) 0.0687(4)
F4 F 0.2471(8) 0.4402(3) 0.08687(19)
O1 O -0.1471(3) 0.23135(14) 0.35598(11)
O2 O 0.1192(3) 0.13018(12) 0.39415(10)
O3 O 0.3632(3) 0.11285(12) 0.28836(10)
O4 O 0.3098(2) 0.15120(12) 0.15057(10)
O5 O 0.0389(3) 0.25552(12) 0.13238(10)
O6 O -0.2297(3) 0.26909(11) 0.22126(11)
C1 C -0.1427(6) 0.1916(2) 0.41982(17)
H1 H -0.1967 0.1407 0.4159
H2 H -0.2036 0.2219 0.4535
C2 C 0.0352(6) 0.1821(2) 0.44025(16)
H3 H 0.0915 0.2326 0.4402
H4 H 0.0406 0.1608 0.4856
C3 C 0.2964(5) 0.1255(2) 0.40431(17)
H5 H 0.3200 0.1044 0.4488
H6 H 0.3460 0.1775 0.4016
C4 C 0.3720(5) 0.0739(2) 0.35155(18)
H7 H 0.4893 0.0624 0.3627
H8 H 0.3102 0.0248 0.3494
C5 C 0.4420(4) 0.0730(2) 0.2341(2)
H9 H 0.3708 0.0299 0.2194
H10 H 0.5500 0.0517 0.2488
C6 C 0.4690(4) 0.1282(2) 0.17748(19)
H11 H 0.5301 0.1740 0.1933
H12 H 0.5364 0.1032 0.1426
C7 C 0.3211(5) 0.2194(2) 0.11003(17)
H13 H 0.4049 0.2116 0.0748
H14 H 0.3564 0.2636 0.1374
C8 C 0.1530(5) 0.2355(2) 0.07949(15)
H15 H 0.1617 0.2785 0.0476
H16 H 0.1123 0.1896 0.0556
C9 C -0.1250(5) 0.2768(2) 0.10912(17)
H17 H -0.1891 0.2303 0.0972
H18 H -0.1157 0.3098 0.0694
C10 C -0.2131(5) 0.32025(19) 0.1647(2)
H19 H -0.1477 0.3662 0.1772
H20 H -0.3242 0.3373 0.1497
C11 C -0.2963(5) 0.3091(2) 0.2776(2)
H21 H -0.4067 0.3306 0.2665
H22 H -0.2219 0.3522 0.2897
C12 C -0.3124(4) 0.2548(2) 0.3354(2)
H23 H -0.3703 0.2806 0.3724
H24 H -0.3783 0.2092 0.3223
O7 O 0.7558(4) -0.19410(14) 0.21900(16)
O8 O 0.7357(5) -0.15633(15) 0.11650(17)
C13 C 0.9595(3) 0.07596(13) 0.23033(12)
C14 C 0.9388(4) 0.05794(15) 0.16291(13)
H25 H 0.9676 0.0942 0.1298
C15 C 0.8749(4) -0.01460(16) 0.14506(14)
H26 H 0.8577 -0.0275 0.1000
C16 C 0.8377(3) -0.06666(14) 0.19504(14)
C17 C 0.8555(4) -0.04929(15) 0.26241(14)
H27 H 0.8255 -0.0856 0.2953
C18 C 0.9185(3) 0.02285(15) 0.28015(13)
H28 H 0.9335 0.0357 0.3254
N1 N 1.0304(3) 0.15259(12) 0.24848(11)
N2 N 0.7718(3) -0.14517(14) 0.17587(17)
H29 H 1.139(6) 0.150(2) 0.2602(19)
H30 H 0.974(6) 0.183(3) 0.285(2)
H31 H 1.034(5) 0.191(2) 0.217(2)
C19 C 0.3624(9) -0.0202(3) 0.0608(3)
C20 C 0.3862(9) 0.0334(3) 0.0063(2)
H32 H 0.4501 0.0778 0.0218
H33 H 0.2777 0.0506 -0.0100
H34 H 0.4468 0.0079 -0.0295
N3 N 0.3498(14) -0.0609(3) 0.1032(3)
loop_
_geom_bond_atom_site_label_1
_geom_bond_atom_site_label_2
_geom_bond_site_symmetry_1
_geom_bond_site_symmetry_2
B1 F1 1_555 1_555
F2 B1 1_555 1_555
F3 B1 1_555 1_555
F4 B1 1_555 1_555
O1 C1 1_555 1_555
O2 C2 1_555 1_555
O3 C4 1_555 1_555
O4 C6 1_555 1_555
O5 C8 1_555 1_555
O6 C10 1_555 1_555
C1 H1 1_555 1_555
H2 C1 1_555 1_555
C2 C1 1_555 1_555
H3 C2 1_555 1_555
H4 C2 1_555 1_555
C3 O2 1_555 1_555
H5 C3 1_555 1_555
H6 C3 1_555 1_555
C4 C3 1_555 1_555
H7 C4 1_555 1_555
H8 C4 1_555 1_555
C5 O3 1_555 1_555
H9 C5 1_555 1_555
H10 C5 1_555 1_555
C6 C5 1_555 1_555
H11 C6 1_555 1_555
H12 C6 1_555 1_555
C7 O4 1_555 1_555
H13 C7 1_555 1_555
H14 C7 1_555 1_555
C8 C7 1_555 1_555
H15 C8 1_555 1_555
H16 C8 1_555 1_555
C9 O5 1_555 1_555
H17 C9 1_555 1_555
H18 C9 1_555 1_555
C10 C9 1_555 1_555
H19 C10 1_555 1_555
H20 C10 1_555 1_555
C11 O6 1_555 1_555
H21 C11 1_555 1_555
H22 C11 1_555 1_555
C12 O1 1_555 1_555
H23 C12 1_555 1_555
H24 C12 1_555 1_555
O7 N2 1_555 1_555
O8 N2 1_555 1_555
C13 C14 1_555 1_555
C14 H25 1_555 1_555
C15 C14 1_555 1_555
H26 C15 1_555 1_555
C16 C15 1_555 1_555
C17 C16 1_555 1_555
H27 C17 1_555 1_555
C18 C13 1_555 1_555
H28 C18 1_555 1_555
N1 C13 1_555 1_555
N2 C16 1_555 1_555
H29 N1 1_555 1_555
H30 N1 1_555 1_555
H31 N1 1_555 1_555
C19 C20 1_555 1_555
C20 H32 1_555 1_555
H33 C20 1_555 1_555
H34 C20 1_555 1_555
N3 C19 1_555 1_555
C11 C12 1_555 1_555
C17 C18 1_555 1_555

#END
