
#######################################################################
#
#                 Cambridge Crystallographic Data Centre
#                                CCDC 
#
#######################################################################
#
# If this CIF has been generated from an entry in the Cambridge 
# Structural Database, then it will include bibliographic, chemical, 
# crystal, experimental, refinement or atomic coordinate data resulting 
# from the CCDC's data processing and validation procedures.
#
#######################################################################

data_QUWCER01
_chemical_formula_moiety         'C9 H13 Cl1 N1 O1 1+,Cl1 1-'
_chemical_name_systematic        
'2-(chloromethyl)-4-methoxy-3,5-dimethylpyridin-1-ium chloride'
_symmetry_cell_setting           monoclinic
_symmetry_space_group_name_H-M   'P 21/c'
_symmetry_Int_Tables_number      14
_space_group_name_Hall           '-P 2ybc'
loop_
_symmetry_equiv_pos_site_id
_symmetry_equiv_pos_as_xyz
1 x,y,z
2 -x,1/2+y,1/2-z
3 -x,-y,-z
4 x,1/2-y,1/2+z
_cell_length_a                   6.074(11)
_cell_length_b                   19.88(4)
_cell_length_c                   9.230(16)
_cell_angle_alpha                90
_cell_angle_beta                 99.67(4)
_cell_angle_gamma                90
_cell_volume                     1098.7
_exptl_crystal_colour            colourless
_exptl_crystal_description       flake
_cell_formula_units_Z            4
loop_
_atom_site_label
_atom_site_type_symbol
_atom_site_fract_x
_atom_site_fract_y
_atom_site_fract_z
Cl1 Cl -0.1350(2) 0.73503(6) 0.25281(15)
O1 O 0.3991(5) 0.65100(15) 0.7635(4)
N1 N -0.1267(4) 0.58860(13) 0.4687(3)
H1 H -0.2394 0.5764 0.4047
C1 C -0.1057(7) 0.56526(15) 0.6052(5)
H2 H -0.2156 0.5366 0.6285
C2 C 0.0698(7) 0.58134(17) 0.7134(5)
C3 C 0.2241(7) 0.62641(18) 0.6721(5)
C4 C 0.2031(6) 0.65150(16) 0.5305(5)
C5 C 0.0259(6) 0.63111(16) 0.4288(4)
C6 C -0.0169(7) 0.65176(18) 0.2736(4)
H3 H -0.1190 0.6201 0.2174
H4 H 0.1219 0.6509 0.2348
C7 C 0.3735(6) 0.70065(18) 0.4909(5)
H5 H 0.5183 0.6799 0.5065
H6 H 0.3768 0.7400 0.5516
H7 H 0.3335 0.7133 0.3895
C8 C 0.0709(7) 0.55244(19) 0.8632(5)
H8 H -0.0650 0.5279 0.8642
H9 H 0.0822 0.5882 0.9340
H10 H 0.1961 0.5227 0.8876
C9 C 0.5062(6) 0.6227(2) 0.8953(5)
H11 H 0.4190 0.6309 0.9712
H12 H 0.6511 0.6427 0.9225
H13 H 0.5220 0.5751 0.8828
Cl2 Cl 0.46443(16) 0.55369(5) 0.25009(12)
loop_
_geom_bond_atom_site_label_1
_geom_bond_atom_site_label_2
_geom_bond_site_symmetry_1
_geom_bond_site_symmetry_2
Cl1 C6 1_555 1_555
O1 C3 1_555 1_555
N1 H1 1_555 1_555
C1 N1 1_555 1_555
H2 C1 1_555 1_555
C2 C1 1_555 1_555
C3 C2 1_555 1_555
C4 C3 1_555 1_555
C5 N1 1_555 1_555
C6 C5 1_555 1_555
H3 C6 1_555 1_555
H4 C6 1_555 1_555
C7 C4 1_555 1_555
H5 C7 1_555 1_555
H6 C7 1_555 1_555
H7 C7 1_555 1_555
C8 C2 1_555 1_555
H8 C8 1_555 1_555
H9 C8 1_555 1_555
H10 C8 1_555 1_555
C9 O1 1_555 1_555
H11 C9 1_555 1_555
H12 C9 1_555 1_555
H13 C9 1_555 1_555
C4 C5 1_555 1_555

#END
