
#######################################################################
#
#                 Cambridge Crystallographic Data Centre
#                                CCDC 
#
#######################################################################
#
# If this CIF has been generated from an entry in the Cambridge 
# Structural Database, then it will include bibliographic, chemical, 
# crystal, experimental, refinement or atomic coordinate data resulting 
# from the CCDC's data processing and validation procedures.
#
#######################################################################

data_QUWKUQ
_chemical_formula_moiety         'C39 H29 N1 O2'
_chemical_name_systematic        
'Ethyl 2,3,7,8-tetraphenyl-1H-benzo[de]quinoline-9-carboxylate'
_symmetry_cell_setting           triclinic
_symmetry_space_group_name_H-M   'P -1'
_symmetry_Int_Tables_number      2
_space_group_name_Hall           '-P 1'
loop_
_symmetry_equiv_pos_site_id
_symmetry_equiv_pos_as_xyz
1 x,y,z
2 -x,-y,-z
_cell_length_a                   10.6212(19)
_cell_length_b                   11.083(2)
_cell_length_c                   14.287(2)
_cell_angle_alpha                67.824(4)
_cell_angle_beta                 76.998(4)
_cell_angle_gamma                68.483(4)
_cell_volume                     1441.52
_exptl_crystal_colour            colorless
_exptl_crystal_description       block
_cell_formula_units_Z            2
loop_
_atom_site_label
_atom_site_type_symbol
_atom_site_fract_x
_atom_site_fract_y
_atom_site_fract_z
C1 C 0.0400(4) 0.2048(3) 0.3879(2)
C2 C 0.1756(3) 0.1735(3) 0.3866(2)
C3 C 0.2278(3) 0.1965(3) 0.4627(2)
C4 C 0.3641(4) 0.1638(4) 0.4703(3)
H1 H 0.4279 0.1271 0.4238
C5 C 0.4094(4) 0.1842(4) 0.5463(3)
H2 H 0.5019 0.1652 0.5477
C6 C 0.3176(4) 0.2324(4) 0.6190(3)
H3 H 0.3491 0.2436 0.6698
C7 C 0.1789(3) 0.2643(3) 0.6175(3)
C8 C 0.1314(3) 0.2478(3) 0.5386(2)
C9 C -0.0079(3) 0.2778(3) 0.5356(2)
C10 C -0.1059(4) 0.3267(4) 0.6095(3)
C11 C -0.0570(3) 0.3304(4) 0.6948(3)
C12 C 0.0795(4) 0.3015(4) 0.6977(3)
C13 C -0.2482(4) 0.3774(4) 0.5910(3)
C14 C -0.0295(4) 0.1819(4) 0.3192(3)
C15 C -0.1221(4) 0.1084(4) 0.3597(3)
H4 H -0.1393 0.0723 0.4297
C16 C -0.1879(5) 0.0887(4) 0.2971(4)
H5 H -0.2466 0.0362 0.3250
C17 C -0.1682(4) 0.1455(5) 0.1943(3)
H6 H -0.2155 0.1340 0.1525
C18 C -0.0803(4) 0.2183(5) 0.1531(3)
H7 H -0.0670 0.2560 0.0828
C19 C -0.0087(4) 0.2380(5) 0.2144(3)
H8 H 0.0521 0.2880 0.1853
C20 C 0.2757(4) 0.1099(4) 0.3120(3)
C21 C 0.2786(4) -0.0157(4) 0.3110(3)
H9 H 0.2176 -0.0593 0.3548
C22 C 0.3743(5) -0.0766(5) 0.2435(4)
H10 H 0.3769 -0.1616 0.2440
C23 C 0.4617(5) -0.0155(6) 0.1785(3)
H11 H 0.5230 -0.0568 0.1334
C24 C 0.4607(4) 0.1121(6) 0.1787(3)
H12 H 0.5216 0.1558 0.1348
C25 C 0.3655(4) 0.1705(4) 0.2467(3)
H13 H 0.3635 0.2548 0.2472
C26 C 0.1318(4) 0.2924(4) 0.7904(3)
C27 C 0.1713(5) 0.3947(5) 0.7941(3)
H14 H 0.1665 0.4728 0.7374
C28 C 0.2183(6) 0.3843(6) 0.8807(4)
H15 H 0.2406 0.4570 0.8824
C29 C 0.2321(5) 0.2691(6) 0.9628(3)
H16 H 0.2671 0.2609 1.0198
C30 C 0.1935(4) 0.1646(5) 0.9606(3)
H17 H 0.2008 0.0860 1.0171
C31 C 0.1440(4) 0.1753(4) 0.8752(3)
H18 H 0.1187 0.1037 0.8745
C32 C -0.1518(4) 0.3469(4) 0.7860(3)
C33 C -0.1833(4) 0.4587(4) 0.8186(3)
H19 H -0.1445 0.5279 0.7814
C34 C -0.2694(5) 0.4697(5) 0.9034(3)
H20 H -0.2888 0.5458 0.9235
C35 C -0.3292(5) 0.3659(5) 0.9609(3)
H21 H -0.3891 0.3732 1.0185
C36 C -0.2975(5) 0.2546(5) 0.9305(3)
H22 H -0.3359 0.1851 0.9678
C37 C -0.2095(4) 0.2439(4) 0.8451(3)
H23 H -0.1879 0.1663 0.8263
C38 C -0.4760(4) 0.5007(5) 0.6369(4)
H24 H -0.5079 0.4229 0.6530
H25 H -0.4936 0.5589 0.5677
C39 C -0.5467(5) 0.5784(5) 0.7082(4)
H26 H -0.5284 0.5199 0.7763
H27 H -0.6429 0.6103 0.7033
H28 H -0.5148 0.6554 0.6912
N1 N -0.0495(3) 0.2570(3) 0.4596(2)
H29 H -0.1353 0.2776 0.4570
O1 O -0.2964(3) 0.3517(3) 0.5325(2)
O2 O -0.3325(3) 0.4543(3) 0.6472(2)
loop_
_geom_bond_atom_site_label_1
_geom_bond_atom_site_label_2
_geom_bond_site_symmetry_1
_geom_bond_site_symmetry_2
C1 C2 1_555 1_555
C2 C3 1_555 1_555
C3 C4 1_555 1_555
C4 H1 1_555 1_555
C5 C4 1_555 1_555
H2 C5 1_555 1_555
C6 C5 1_555 1_555
H3 C6 1_555 1_555
C7 C6 1_555 1_555
C8 C3 1_555 1_555
C9 C8 1_555 1_555
C10 C9 1_555 1_555
C11 C10 1_555 1_555
C12 C7 1_555 1_555
C13 C10 1_555 1_555
C14 C1 1_555 1_555
C15 C14 1_555 1_555
H4 C15 1_555 1_555
C16 C15 1_555 1_555
H5 C16 1_555 1_555
C17 C16 1_555 1_555
H6 C17 1_555 1_555
C18 C17 1_555 1_555
H7 C18 1_555 1_555
C19 C14 1_555 1_555
H8 C19 1_555 1_555
C20 C2 1_555 1_555
C21 C20 1_555 1_555
H9 C21 1_555 1_555
C22 C21 1_555 1_555
H10 C22 1_555 1_555
C23 C22 1_555 1_555
H11 C23 1_555 1_555
C24 C23 1_555 1_555
H12 C24 1_555 1_555
C25 C20 1_555 1_555
H13 C25 1_555 1_555
C26 C12 1_555 1_555
C27 C26 1_555 1_555
H14 C27 1_555 1_555
C28 C27 1_555 1_555
H15 C28 1_555 1_555
C29 C28 1_555 1_555
H16 C29 1_555 1_555
C30 C29 1_555 1_555
H17 C30 1_555 1_555
C31 C26 1_555 1_555
H18 C31 1_555 1_555
C32 C11 1_555 1_555
C33 C32 1_555 1_555
H19 C33 1_555 1_555
C34 C33 1_555 1_555
H20 C34 1_555 1_555
C35 C34 1_555 1_555
H21 C35 1_555 1_555
C36 C35 1_555 1_555
H22 C36 1_555 1_555
C37 C32 1_555 1_555
H23 C37 1_555 1_555
C38 H24 1_555 1_555
H25 C38 1_555 1_555
C39 C38 1_555 1_555
H26 C39 1_555 1_555
H27 C39 1_555 1_555
H28 C39 1_555 1_555
N1 C1 1_555 1_555
H29 N1 1_555 1_555
O1 C13 1_555 1_555
O2 C13 1_555 1_555
C7 C8 1_555 1_555
C9 N1 1_555 1_555
C11 C12 1_555 1_555
C18 C19 1_555 1_555
C24 C25 1_555 1_555
C30 C31 1_555 1_555
C36 C37 1_555 1_555
C38 O2 1_555 1_555

#END
