
#######################################################################
#
#                 Cambridge Crystallographic Data Centre
#                                CCDC 
#
#######################################################################
#
# If this CIF has been generated from an entry in the Cambridge 
# Structural Database, then it will include bibliographic, chemical, 
# crystal, experimental, refinement or atomic coordinate data resulting 
# from the CCDC's data processing and validation procedures.
#
#######################################################################

data_QUWLUR
_chemical_formula_moiety         'C24 H25 Br1 N2 O4 S1'
_chemical_name_systematic        
'2-((4-Bromophenyl)sulfonyl)-1,2,3,3a,4,8a-hexahydrocyclohepta[c]pyrrol-6-yl 4-(dimethylamino)benzoate unknown solvate'
_symmetry_cell_setting           monoclinic
_symmetry_space_group_name_H-M   'C 2'
_symmetry_Int_Tables_number      5
_space_group_name_Hall           'C 2y'
loop_
_symmetry_equiv_pos_site_id
_symmetry_equiv_pos_as_xyz
1 x,y,z
2 -x,y,-z
3 1/2+x,1/2+y,z
4 1/2-x,1/2+y,-z
_cell_length_a                   9.512(4)
_cell_length_b                   19.054(7)
_cell_length_c                   30.838(14)
_cell_angle_alpha                90
_cell_angle_beta                 93.810(8)
_cell_angle_gamma                90
_cell_volume                     5576.78
_exptl_crystal_colour            colorless
_exptl_crystal_description       plate
_cell_formula_units_Z            8
loop_
_atom_site_label
_atom_site_type_symbol
_atom_site_fract_x
_atom_site_fract_y
_atom_site_fract_z
Br1 Br 0.23058(7) 0.84917(5) 0.47622(2)
S1 S 0.34172(14) 0.78711(6) 0.67935(4)
O1 O 0.3427(4) 0.36593(16) 0.69286(11)
N1 N 0.3511(4) 0.7034(2) 0.68672(15)
C1 C 0.4736(5) 0.6665(2) 0.6695(2)
H1 H 0.5599 0.6734 0.6888
H2 H 0.4912 0.6831 0.6400
C2 C 0.4274(4) 0.5897(2) 0.66898(16)
H3 H 0.4757 0.5637 0.6461
C3 C 0.4550(5) 0.5531(2) 0.71274(17)
H4 H 0.5491 0.5670 0.7256
H5 H 0.3840 0.5687 0.7327
C4 C 0.4492(5) 0.4747(2) 0.70866(17)
H6 H 0.5286 0.4484 0.7196
C5 C 0.3382(5) 0.4399(2) 0.69035(16)
C6 C 0.2033(5) 0.4682(2) 0.67342(17)
H7 H 0.1264 0.4363 0.6716
C7 C 0.1750(5) 0.5338(2) 0.66014(18)
H8 H 0.0784 0.5425 0.6521
C8 C 0.2687(5) 0.5957(2) 0.65575(16)
H9 H 0.2607 0.6092 0.6243
C9 C 0.2202(5) 0.6596(2) 0.68121(18)
H10 H 0.1436 0.6851 0.6646
H11 H 0.1872 0.6454 0.7097
O2 O 0.4784(4) 0.81552(19) 0.69234(12)
O3 O 0.2205(5) 0.8115(2) 0.69943(13)
O4 O 0.3247(5) 0.3602(2) 0.61987(12)
N2 N 0.2992(5) 0.0359(2) 0.67322(16)
C10 C 0.3140(3) 0.80293(19) 0.62380(8)
C11 C 0.1769(3) 0.8031(2) 0.60512(10)
H12 H 0.1003 0.7935 0.6225
C12 C 0.1520(3) 0.8175(2) 0.56108(11)
H13 H 0.0583 0.8176 0.5483
C13 C 0.2641(4) 0.8316(3) 0.53573(8)
C14 C 0.4012(3) 0.8314(3) 0.55441(11)
H14 H 0.4778 0.8410 0.5371
C15 C 0.4261(3) 0.8170(2) 0.59845(11)
H15 H 0.5198 0.8169 0.6112
C16 C 0.3318(5) 0.3306(3) 0.65428(16)
C17 C 0.3311(3) 0.25299(10) 0.66024(9)
C18 C 0.3498(3) 0.22168(13) 0.70093(7)
H16 H 0.3675 0.2499 0.7261
C19 C 0.3425(3) 0.14911(14) 0.70478(7)
H17 H 0.3553 0.1277 0.7326
C20 C 0.3166(4) 0.10784(10) 0.66794(9)
C21 C 0.2980(4) 0.13915(14) 0.62725(8)
H18 H 0.2803 0.1110 0.6021
C22 C 0.3052(4) 0.21173(14) 0.62340(7)
H19 H 0.2925 0.2331 0.5956
C23 C 0.3372(6) 0.0023(3) 0.71366(19)
H20 H 0.4360 0.0125 0.7224
H21 H 0.3245 -0.0485 0.7105
H22 H 0.2771 0.0199 0.7359
C24 C 0.2692(7) -0.0091(3) 0.6351(2)
H23 H 0.1939 0.0120 0.6161
H24 H 0.2392 -0.0556 0.6445
H25 H 0.3544 -0.0139 0.6191
Br2 Br 0.78444(5) 0.08133(4) 1.01495(2)
S2 S 0.58519(12) 0.12008(5) 0.81420(4)
O5 O 0.5933(3) 0.54737(16) 0.82043(11)
N3 N 0.5718(4) 0.20315(19) 0.80541(13)
C25 C 0.4670(4) 0.2429(2) 0.82884(17)
H26 H 0.4808 0.2348 0.8606
H27 H 0.3700 0.2287 0.8189
C26 C 0.4928(9) 0.3192(3) 0.8180(3)
H28 H 0.4138 0.3352 0.7974
C27 C 0.4944(11) 0.3653(4) 0.8578(3)
H29 H 0.4120 0.3533 0.8744
H30 H 0.5803 0.3547 0.8766
C28 C 0.4910(9) 0.4423(4) 0.8482(3)
H31 H 0.4134 0.4695 0.8564
C29 C 0.5951(5) 0.4736(2) 0.82838(17)
C30 C 0.7246(8) 0.4411(4) 0.8161(4)
H32 H 0.8076 0.4690 0.8181
C31 C 0.7364(8) 0.3755(4) 0.8021(4)
H33 H 0.8300 0.3623 0.7968
C32 C 0.6297(8) 0.3184(3) 0.7931(3)
H34 H 0.6026 0.3179 0.7612
C33 C 0.7000(5) 0.2471(2) 0.80569(17)
H35 H 0.7649 0.2312 0.7839
H36 H 0.7507 0.2487 0.8348
O6 O 0.6957(4) 0.09435(17) 0.78897(11)
O7 O 0.4466(4) 0.09113(18) 0.80857(10)
O8 O 0.6717(4) 0.56163(19) 0.89003(12)
N4 N 0.6182(5) 0.8786(2) 0.82530(15)
C34 C 0.6403(3) 0.10980(17) 0.86883(7)
C35 C 0.5416(2) 0.1004(2) 0.89959(9)
H37 H 0.4439 0.0996 0.8908
C36 C 0.5857(3) 0.0921(2) 0.94317(8)
H38 H 0.5182 0.0856 0.9642
C37 C 0.7286(3) 0.0932(2) 0.95598(7)
C38 C 0.8273(2) 0.1026(2) 0.92523(9)
H39 H 0.9249 0.1033 0.9340
C39 C 0.7832(2) 0.11089(18) 0.88165(8)
H40 H 0.8506 0.1173 0.8606
C40 C 0.6339(4) 0.5871(3) 0.85543(15)
C41 C 0.6226(3) 0.66289(10) 0.84585(9)
C42 C 0.5997(3) 0.68927(12) 0.80395(8)
H41 H 0.5867 0.6580 0.7800
C43 C 0.5958(3) 0.76136(13) 0.79708(7)
H42 H 0.5801 0.7794 0.7684
C44 C 0.6147(3) 0.80708(10) 0.83210(9)
C45 C 0.6376(4) 0.78071(14) 0.87400(8)
H43 H 0.6506 0.8120 0.8979
C46 C 0.6415(4) 0.70861(15) 0.88088(7)
H44 H 0.6572 0.6906 0.9095
C47 C 0.6158(6) 0.9076(3) 0.78183(18)
H45 H 0.6836 0.8824 0.7650
H46 H 0.6412 0.9574 0.7835
H47 H 0.5211 0.9026 0.7676
C48 C 0.6083(9) 0.9265(3) 0.8616(2)
H48 H 0.5316 0.9116 0.8792
H49 H 0.5892 0.9740 0.8505
H50 H 0.6973 0.9263 0.8795
H51? H 0.4848 0.2379 0.8607
H52? H 0.3700 0.2269 0.8204
H53? H 0.7589 0.2339 0.7817
H54? H 0.7569 0.2426 0.8336
C49? C 0.4899(13) 0.3186(5) 0.8144(5)
H55? H 0.4224 0.3295 0.7890
C50? C 0.4662(18) 0.3700(6) 0.8509(5)
H56? H 0.3731 0.3605 0.8622
H57? H 0.5389 0.3620 0.8749
C51? C 0.4717(12) 0.4453(6) 0.8369(6)
H58? H 0.3880 0.4726 0.8342
C52? C 0.7332(11) 0.4416(6) 0.8284(6)
H59? H 0.8146 0.4689 0.8361
C53? C 0.7473(13) 0.3742(5) 0.8178(8)
H60? H 0.8404 0.3565 0.8226
C54? C 0.6423(12) 0.3214(5) 0.7995(5)
H61? H 0.6332 0.3297 0.7675
loop_
_geom_bond_atom_site_label_1
_geom_bond_atom_site_label_2
_geom_bond_site_symmetry_1
_geom_bond_site_symmetry_2
Br1 C13 1_555 1_555
S1 N1 1_555 1_555
O1 C5 1_555 1_555
N1 C1 1_555 1_555
C1 H1 1_555 1_555
H2 C1 1_555 1_555
C2 C1 1_555 1_555
H3 C2 1_555 1_555
C3 C2 1_555 1_555
H4 C3 1_555 1_555
H5 C3 1_555 1_555
C4 C3 1_555 1_555
H6 C4 1_555 1_555
C5 C4 1_555 1_555
C6 C5 1_555 1_555
H7 C6 1_555 1_555
C7 C6 1_555 1_555
H8 C7 1_555 1_555
C8 C2 1_555 1_555
H9 C8 1_555 1_555
C9 N1 1_555 1_555
H10 C9 1_555 1_555
H11 C9 1_555 1_555
O2 S1 1_555 1_555
O3 S1 1_555 1_555
O4 C16 1_555 1_555
N2 C20 1_555 1_555
C10 S1 1_555 1_555
C11 C10 1_555 1_555
H12 C11 1_555 1_555
C12 C11 1_555 1_555
H13 C12 1_555 1_555
C13 C12 1_555 1_555
C14 C13 1_555 1_555
H14 C14 1_555 1_555
C15 C10 1_555 1_555
H15 C15 1_555 1_555
C16 O1 1_555 1_555
C17 C16 1_555 1_555
C18 C17 1_555 1_555
H16 C18 1_555 1_555
C19 C18 1_555 1_555
H17 C19 1_555 1_555
C20 C19 1_555 1_555
C21 C20 1_555 1_555
H18 C21 1_555 1_555
C22 C17 1_555 1_555
H19 C22 1_555 1_555
C23 N2 1_555 1_555
H20 C23 1_555 1_555
H21 C23 1_555 1_555
H22 C23 1_555 1_555
C24 N2 1_555 1_555
H23 C24 1_555 1_555
H24 C24 1_555 1_555
H25 C24 1_555 1_555
Br2 C37 1_555 1_555
S2 N3 1_555 1_555
O5 C29 1_555 1_555
N3 C25 1_555 1_555
C25 H26 1_555 1_555
H27 C25 1_555 1_555
C26 C25 1_555 1_555
H28 C26 1_555 1_555
C27 C26 1_555 1_555
H29 C27 1_555 1_555
H30 C27 1_555 1_555
C28 C27 1_555 1_555
H31 C28 1_555 1_555
C29 C28 1_555 1_555
C30 C29 1_555 1_555
H32 C30 1_555 1_555
C31 C30 1_555 1_555
H33 C31 1_555 1_555
C32 C26 1_555 1_555
H34 C32 1_555 1_555
C33 N3 1_555 1_555
H35 C33 1_555 1_555
H36 C33 1_555 1_555
O6 S2 1_555 1_555
O7 S2 1_555 1_555
O8 C40 1_555 1_555
N4 C44 1_555 1_555
C34 S2 1_555 1_555
C35 C34 1_555 1_555
H37 C35 1_555 1_555
C36 C35 1_555 1_555
H38 C36 1_555 1_555
C37 C36 1_555 1_555
C38 C37 1_555 1_555
H39 C38 1_555 1_555
C39 C34 1_555 1_555
H40 C39 1_555 1_555
C40 O5 1_555 1_555
C41 C40 1_555 1_555
C42 C41 1_555 1_555
H41 C42 1_555 1_555
C43 C42 1_555 1_555
H42 C43 1_555 1_555
C44 C43 1_555 1_555
C45 C44 1_555 1_555
H43 C45 1_555 1_555
C46 C41 1_555 1_555
H44 C46 1_555 1_555
C47 N4 1_555 1_555
H45 C47 1_555 1_555
H46 C47 1_555 1_555
H47 C47 1_555 1_555
C48 N4 1_555 1_555
H48 C48 1_555 1_555
H49 C48 1_555 1_555
H50 C48 1_555 1_555
C7 C8 1_555 1_555
C8 C9 1_555 1_555
C14 C15 1_555 1_555
C21 C22 1_555 1_555
C31 C32 1_555 1_555
C32 C33 1_555 1_555
C38 C39 1_555 1_555
C45 C46 1_555 1_555

#END
