
#######################################################################
#
#                 Cambridge Crystallographic Data Centre
#                                CCDC 
#
#######################################################################
#
# If this CIF has been generated from an entry in the Cambridge 
# Structural Database, then it will include bibliographic, chemical, 
# crystal, experimental, refinement or atomic coordinate data resulting 
# from the CCDC's data processing and validation procedures.
#
#######################################################################

data_QUWXAI02
_chemical_formula_moiety         'C4 H8 N5 1+,C8 H5 O4 1-'
_chemical_name_systematic        
'2,4-diamino-6-methyl-1,3,5-triazin-1-ium 2-carboxybenzoate'
_symmetry_cell_setting           monoclinic
_symmetry_space_group_name_H-M   'P 21/c'
_symmetry_Int_Tables_number      14
_space_group_name_Hall           '-P 2ybc'
loop_
_symmetry_equiv_pos_site_id
_symmetry_equiv_pos_as_xyz
1 x,y,z
2 -x,1/2+y,1/2-z
3 -x,-y,-z
4 x,1/2-y,1/2+z
_cell_length_a                   7.1971(5)
_cell_length_b                   23.4885(11)
_cell_length_c                   8.1234(4)
_cell_angle_alpha                90
_cell_angle_beta                 107.145(6)
_cell_angle_gamma                90
_cell_volume                     1312.23
_exptl_crystal_colour            colorless
_exptl_crystal_description       block
_cell_formula_units_Z            4
loop_
_atom_site_label
_atom_site_type_symbol
_atom_site_fract_x
_atom_site_fract_y
_atom_site_fract_z
N1 N 0.1645(2) 0.59465(7) 0.6121(2)
H1 H 0.1982 0.5604 0.5970
N2 N 0.0238(2) 0.68071(6) 0.4949(2)
N3 N 0.1583(3) 0.66815(7) 0.8022(2)
N4 N 0.0277(3) 0.60421(7) 0.3204(2)
H2 H -0.0319 0.6239 0.2312
H3 H 0.0591 0.5694 0.3086
C1 C 0.0710(3) 0.62720(8) 0.4744(2)
N5 N 0.0211(3) 0.75178(7) 0.6831(2)
H4 H -0.0354 0.7730 0.5966
H5 H 0.0471 0.7650 0.7861
C2 C 0.0676(3) 0.69926(8) 0.6579(2)
C3 C 0.2045(3) 0.61618(8) 0.7727(3)
C4 C 0.3019(4) 0.57783(10) 0.9178(3)
H6 H 0.3440 0.5439 0.8735
H7 H 0.2122 0.5680 0.9804
H8 H 0.4124 0.5969 0.9934
O1 O -0.2195(2) 0.65613(7) 0.0004(2)
O2 O -0.1869(3) 0.50796(6) -0.2964(2)
O3 O -0.2917(3) 0.50992(7) -0.57723(19)
O4 O -0.1676(3) 0.56786(7) -0.0552(2)
C5 C -0.3276(3) 0.63030(8) -0.2948(3)
C6 C -0.2705(3) 0.53320(8) -0.4372(3)
C7 C -0.3463(3) 0.59349(8) -0.4377(3)
C8 C -0.2314(3) 0.61810(9) -0.1058(3)
C9 C -0.4408(3) 0.61416(9) -0.6008(3)
H9 H -0.4537 0.5904 -0.6951
C10 C -0.4047(3) 0.68485(8) -0.3275(3)
H10 H -0.3925 0.7094 -0.2350
C11 C -0.5165(3) 0.66838(9) -0.6289(3)
H11 H -0.5795 0.6807 -0.7402
C12 C -0.4981(3) 0.70406(9) -0.4908(3)
H12 H -0.5483 0.7408 -0.5076
H13 H -0.172(4) 0.5391(12) -0.169(4)
loop_
_geom_bond_atom_site_label_1
_geom_bond_atom_site_label_2
_geom_bond_site_symmetry_1
_geom_bond_site_symmetry_2
N1 H1 1_555 1_555
N2 C1 1_555 1_555
N3 C2 1_555 1_555
N4 H2 1_555 1_555
H3 N4 1_555 1_555
C1 N1 1_555 1_555
N5 H4 1_555 1_555
H5 N5 1_555 1_555
C2 N2 1_555 1_555
C3 N1 1_555 1_555
C4 C3 1_555 1_555
H6 C4 1_555 1_555
H7 C4 1_555 1_555
H8 C4 1_555 1_555
O1 C8 1_555 1_555
O2 C6 1_555 1_555
O3 C6 1_555 1_555
O4 C8 1_555 1_555
C5 C7 1_555 1_555
C6 C7 1_555 1_555
C7 C9 1_555 1_555
C8 C5 1_555 1_555
C9 H9 1_555 1_555
C10 C5 1_555 1_555
H10 C10 1_555 1_555
C11 C9 1_555 1_555
H11 C11 1_555 1_555
C12 C10 1_555 1_555
H12 C12 1_555 1_555
H13 O4 1_555 1_555
N3 C3 1_555 1_555
N4 C1 1_555 1_555
N5 C2 1_555 1_555
C11 C12 1_555 1_555

#END
