
#######################################################################
#
#                 Cambridge Crystallographic Data Centre
#                                CCDC 
#
#######################################################################
#
# If this CIF has been generated from an entry in the Cambridge 
# Structural Database, then it will include bibliographic, chemical, 
# crystal, experimental, refinement or atomic coordinate data resulting 
# from the CCDC's data processing and validation procedures.
#
#######################################################################

data_QUXJEA
_chemical_formula_moiety         'C17 H16 N2 O1'
_chemical_name_systematic        
1-(9-allyl-4-methyl-9H-pyrido[2,3-b]indol-2-yl)ethanone
_symmetry_cell_setting           monoclinic
_symmetry_space_group_name_H-M   'P 21/n'
_symmetry_Int_Tables_number      14
_space_group_name_Hall           '-P 2yn'
loop_
_symmetry_equiv_pos_site_id
_symmetry_equiv_pos_as_xyz
1 x,y,z
2 1/2-x,1/2+y,1/2-z
3 -x,-y,-z
4 1/2+x,1/2-y,1/2+z
_cell_length_a                   7.6543(9)
_cell_length_b                   11.1582(12)
_cell_length_c                   16.8881(16)
_cell_angle_alpha                90
_cell_angle_beta                 101.198(11)
_cell_angle_gamma                90
_cell_volume                     1414.92
_exptl_crystal_colour            yellow
_exptl_crystal_description       block
_cell_formula_units_Z            4
_exptl_crystal_recrystallization_method 'ethyl acetate'
loop_
_atom_site_label
_atom_site_type_symbol
_atom_site_fract_x
_atom_site_fract_y
_atom_site_fract_z
O1 O 0.0813(2) 0.71807(13) -0.09949(8)
N1 N 0.45450(19) 0.34588(12) 0.11311(8)
N2 N 0.28692(19) 0.47359(12) 0.01293(8)
C1 C 0.5592(3) 0.50081(18) 0.30294(11)
H1 H 0.5396 0.5766 0.3224
C2 C 0.6528(3) 0.4156(2) 0.35303(12)
H2 H 0.6966 0.4344 0.4069
C3 C 0.6830(3) 0.3028(2) 0.32488(13)
H3 H 0.7462 0.2472 0.3603
C4 C 0.6219(3) 0.27044(17) 0.24573(11)
H4 H 0.6436 0.1945 0.2271
C5 C 0.5271(2) 0.35519(15) 0.19491(10)
C6 C 0.4942(2) 0.47062(15) 0.22224(10)
C7 C 0.3957(2) 0.53410(15) 0.15343(9)
C8 C 0.3730(2) 0.45306(14) 0.08786(10)
C9 C 0.2201(2) 0.58503(15) 0.00092(10)
C10 C 0.2348(2) 0.67095(15) 0.06113(10)
H5 H 0.1848 0.7462 0.0485
C11 C 0.3220(2) 0.64801(15) 0.13976(10)
C12 C 0.4505(3) 0.23912(15) 0.06403(11)
H6 H 0.5666 0.2011 0.0758
H7 H 0.4269 0.2620 0.0075
C13 C 0.3145(3) 0.15195(17) 0.07780(12)
H8 H 0.1989 0.1800 0.0746
C14 C 0.3436(4) 0.0399(2) 0.09393(17)
H9 H 0.4575 0.0086 0.0976
H10 H 0.2508 -0.0095 0.1019
C15 C 0.1253(2) 0.61524(17) -0.08298(11)
C16 C 0.0915(3) 0.51807(18) -0.14419(11)
H11 H 0.2029 0.4863 -0.1527
H12 H 0.0258 0.5497 -0.1941
H13 H 0.0238 0.4554 -0.1254
C17 C 0.3328(3) 0.73831(17) 0.20541(12)
H14 H 0.2865 0.7044 0.2494
H15 H 0.2640 0.8076 0.1852
H16 H 0.4548 0.7612 0.2240
loop_
_geom_bond_atom_site_label_1
_geom_bond_atom_site_label_2
_geom_bond_site_symmetry_1
_geom_bond_site_symmetry_2
O1 C15 1_555 1_555
N1 C5 1_555 1_555
N2 C8 1_555 1_555
C1 H1 1_555 1_555
C2 C1 1_555 1_555
H2 C2 1_555 1_555
C3 C2 1_555 1_555
H3 C3 1_555 1_555
C4 C3 1_555 1_555
H4 C4 1_555 1_555
C5 C4 1_555 1_555
C6 C1 1_555 1_555
C7 C6 1_555 1_555
C8 N1 1_555 1_555
C9 N2 1_555 1_555
C10 C9 1_555 1_555
H5 C10 1_555 1_555
C11 C7 1_555 1_555
C12 N1 1_555 1_555
H6 C12 1_555 1_555
H7 C12 1_555 1_555
C13 C12 1_555 1_555
H8 C13 1_555 1_555
C14 C13 1_555 1_555
H9 C14 1_555 1_555
H10 C14 1_555 1_555
C15 C9 1_555 1_555
C16 C15 1_555 1_555
H11 C16 1_555 1_555
H12 C16 1_555 1_555
H13 C16 1_555 1_555
C17 C11 1_555 1_555
H14 C17 1_555 1_555
H15 C17 1_555 1_555
H16 C17 1_555 1_555
C5 C6 1_555 1_555
C7 C8 1_555 1_555
C10 C11 1_555 1_555

#END
