
#######################################################################
#
#                 Cambridge Crystallographic Data Centre
#                                CCDC 
#
#######################################################################
#
# If this CIF has been generated from an entry in the Cambridge 
# Structural Database, then it will include bibliographic, chemical, 
# crystal, experimental, refinement or atomic coordinate data resulting 
# from the CCDC's data processing and validation procedures.
#
#######################################################################

data_QUXSUZ
_chemical_formula_moiety         'C24 H20 I1 N3 O4 S1,C1 H2 Cl2'
_chemical_name_systematic        
'5-(3-iodoprop-1-en-1-yl)-1-((4-nitrophenyl)sulfonyl)-3,5-diphenyl-4,5-dihydro-1H-pyrazole dichloromethane solvate'
_symmetry_cell_setting           monoclinic
_symmetry_space_group_name_H-M   'P 21'
_symmetry_Int_Tables_number      4
_space_group_name_Hall           'P 2yb'
loop_
_symmetry_equiv_pos_site_id
_symmetry_equiv_pos_as_xyz
1 x,y,z
2 -x,1/2+y,-z
_cell_length_a                   10.469(3)
_cell_length_b                   11.122(3)
_cell_length_c                   11.473(4)
_cell_angle_alpha                90
_cell_angle_beta                 92.129(15)
_cell_angle_gamma                90
_cell_volume                     1334.95
_exptl_crystal_colour            'light colorless'
_exptl_crystal_description       block
_cell_formula_units_Z            2
loop_
_atom_site_label
_atom_site_type_symbol
_atom_site_fract_x
_atom_site_fract_y
_atom_site_fract_z
I1 I 1.03086(5) 0.24506(6) 0.47202(4)
S1 S 0.46595(17) 0.56280(14) 0.44440(15)
O1 O 0.3831(5) 0.6643(4) 0.4486(4)
O2 O 0.4139(5) 0.4450(4) 0.4231(5)
N1 N 0.6155(5) 0.7032(4) 0.3376(5)
N2 N 0.5624(5) 0.5866(4) 0.3368(5)
O3 O 0.8243(7) 0.6443(7) 0.9212(5)
C1 C 0.7126(7) 0.4200(6) 0.3833(6)
H1 H 0.6626 0.3564 0.4128
C2 C 0.9051(9) 1.0290(8) 0.1984(8)
H2 H 0.9455 1.1028 0.1803
C3 C 0.9308(9) 0.9275(9) 0.1372(8)
H3 H 0.9900 0.9309 0.0765
C4 C 0.8710(8) 0.8177(7) 0.1624(7)
H4 H 0.8906 0.7470 0.1201
C5 C 0.7839(7) 0.8142(7) 0.2491(6)
C6 C 0.7158(7) 0.7011(6) 0.2750(7)
C7 C 0.5557(8) 0.5597(7) 0.5761(7)
C8 C 0.5678(7) 0.4532(6) 0.6380(6)
H5 H 0.5300 0.3814 0.6081
C9 C 0.6355(8) 0.4525(7) 0.7436(6)
H6 H 0.6426 0.3812 0.7889
C10 C 0.6921(8) 0.5568(7) 0.7815(6)
N3 N 0.7644(7) 0.5531(7) 0.8934(6)
O4 O 0.7617(7) 0.4617(7) 0.9514(5)
C11 C 0.7597(8) 0.9173(7) 0.3141(8)
H7 H 0.7025 0.9138 0.3763
C12 C 0.8187(9) 1.0236(7) 0.2880(8)
H8 H 0.8007 1.0940 0.3313
C13 C 0.6829(8) 0.6643(7) 0.7201(7)
H9 H 0.7236 0.7350 0.7494
C14 C 0.6137(8) 0.6662(7) 0.6164(7)
H10 H 0.6053 0.7384 0.5725
C15 C 0.6523(7) 0.4947(6) 0.2867(6)
C16 C 0.8278(7) 0.4343(6) 0.4309(6)
H11 H 0.8813 0.4948 0.4005
C17 C 0.8780(8) 0.3603(7) 0.5300(7)
H12 H 0.8084 0.3104 0.5605
H13 H 0.9108 0.4133 0.5936
C18 C 0.7434(7) 0.5807(6) 0.2253(6)
H14 H 0.8337 0.5578 0.2419
H15 H 0.7264 0.5800 0.1399
C19 C 0.5814(7) 0.4163(6) 0.1964(6)
C20 C 0.4764(7) 0.4594(7) 0.1318(6)
H16 H 0.4420 0.5362 0.1489
C21 C 0.4218(9) 0.3911(8) 0.0429(7)
H17 H 0.3517 0.4220 -0.0027
C22 C 0.4688(9) 0.2780(8) 0.0199(7)
H18 H 0.4294 0.2299 -0.0396
C23 C 0.5730(8) 0.2352(9) 0.0837(7)
H19 H 0.6075 0.1585 0.0665
C24 C 0.6269(8) 0.3033(7) 0.1721(7)
H20 H 0.6971 0.2719 0.2174
Cl1 Cl 1.1914(4) 0.6699(3) 0.1535(5)
Cl2 Cl 1.0760(3) 0.4347(3) 0.1809(3)
C25 C 1.1542(13) 0.5511(17) 0.2510(11)
H21 H 1.2342 0.5205 0.2889
H22 H 1.0999 0.5829 0.3127
loop_
_geom_bond_atom_site_label_1
_geom_bond_atom_site_label_2
_geom_bond_site_symmetry_1
_geom_bond_site_symmetry_2
I1 C17 1_555 1_555
S1 O1 1_555 1_555
O2 S1 1_555 1_555
N1 N2 1_555 1_555
N2 S1 1_555 1_555
O3 N3 1_555 1_555
C1 H1 1_555 1_555
C2 H2 1_555 1_555
C3 C2 1_555 1_555
H3 C3 1_555 1_555
C4 C3 1_555 1_555
H4 C4 1_555 1_555
C5 C4 1_555 1_555
C6 N1 1_555 1_555
C7 S1 1_555 1_555
C8 C7 1_555 1_555
H5 C8 1_555 1_555
C9 C8 1_555 1_555
H6 C9 1_555 1_555
C10 C9 1_555 1_555
N3 C10 1_555 1_555
O4 N3 1_555 1_555
C11 C5 1_555 1_555
H7 C11 1_555 1_555
C12 C2 1_555 1_555
H8 C12 1_555 1_555
C13 C10 1_555 1_555
H9 C13 1_555 1_555
C14 C7 1_555 1_555
H10 C14 1_555 1_555
C15 N2 1_555 1_555
C16 C1 1_555 1_555
H11 C16 1_555 1_555
C17 C16 1_555 1_555
H12 C17 1_555 1_555
H13 C17 1_555 1_555
C18 C6 1_555 1_555
H14 C18 1_555 1_555
H15 C18 1_555 1_555
C19 C15 1_555 1_555
C20 C19 1_555 1_555
H16 C20 1_555 1_555
C21 C20 1_555 1_555
H17 C21 1_555 1_555
C22 C21 1_555 1_555
H18 C22 1_555 1_555
C23 C22 1_555 1_555
H19 C23 1_555 1_555
C24 C19 1_555 1_555
H20 C24 1_555 1_555
Cl1 C25 1_555 1_555
Cl2 C25 1_555 1_555
C25 H21 1_555 1_555
H22 C25 1_555 1_555
C1 C15 1_555 1_555
C5 C6 1_555 1_555
C11 C12 1_555 1_555
C13 C14 1_555 1_555
C15 C18 1_555 1_555
C23 C24 1_555 1_555

#END
