
#######################################################################
#
#                 Cambridge Crystallographic Data Centre
#                                CCDC 
#
#######################################################################
#
# If this CIF has been generated from an entry in the Cambridge 
# Structural Database, then it will include bibliographic, chemical, 
# crystal, experimental, refinement or atomic coordinate data resulting 
# from the CCDC's data processing and validation procedures.
#
#######################################################################

data_QUYGEX01
_chemical_formula_moiety         'C32 H28 N6 O4'
_chemical_name_systematic        
4,4'-(Ethane-1,2-diylbis(imino(2-furylmethylylidene)))-bis(5-methyl-2-phenyl-2,4-dihydro-3H-pyrazol-3-one)
_symmetry_cell_setting           monoclinic
_symmetry_space_group_name_H-M   'P 21/c'
_symmetry_Int_Tables_number      14
_space_group_name_Hall           '-P 2ybc'
loop_
_symmetry_equiv_pos_site_id
_symmetry_equiv_pos_as_xyz
1 x,y,z
2 -x,1/2+y,1/2-z
3 -x,-y,-z
4 x,1/2-y,1/2+z
_cell_length_a                   10.7485(11)
_cell_length_b                   7.6972(8)
_cell_length_c                   16.8367(18)
_cell_angle_alpha                90
_cell_angle_beta                 93.937(2)
_cell_angle_gamma                90
_cell_volume                     1389.67
_exptl_crystal_colour            green
_exptl_crystal_description       block
_cell_formula_units_Z            2
loop_
_atom_site_label
_atom_site_type_symbol
_atom_site_fract_x
_atom_site_fract_y
_atom_site_fract_z
C1 C 0.29334(17) 1.2880(3) 1.11901(12)
C2 C 0.36995(19) 1.2531(3) 1.18664(12)
H1 H 0.4050 1.1434 1.1942
C3 C 0.3941(2) 1.3818(4) 1.24281(14)
H2 H 0.4452 1.3584 1.2884
C4 C 0.3429(2) 1.5444(4) 1.23158(18)
H3 H 0.3595 1.6309 1.2694
C5 C 0.2675(2) 1.5785(3) 1.16482(17)
H4 H 0.2334 1.6888 1.1573
C6 C 0.24130(19) 1.4515(3) 1.10825(14)
H5 H 0.1891 1.4757 1.0633
C7 C 0.33117(18) 1.0054(2) 1.04813(12)
C8 C 0.26316(17) 0.9266(2) 0.98082(11)
C9 C 0.16726(18) 1.0490(3) 0.95638(12)
C10 C 0.0738(2) 1.0475(3) 0.88606(14)
H6 H 0.0093 0.9649 0.8950
H7 H 0.1144 1.0156 0.8392
H8 H 0.0378 1.1611 0.8790
C11 C 0.29843(16) 0.7650(2) 0.95145(11)
C12 C 0.21699(19) 0.6666(2) 0.89524(11)
C13 C 0.09546(18) 0.6410(3) 0.89223(12)
H9 H 0.0408 0.6838 0.9280
C14 C 0.0637(2) 0.5378(3) 0.82555(15)
H10 H -0.0158 0.4995 0.8086
C15 C 0.1678(2) 0.5052(3) 0.79111(14)
H11 H 0.1735 0.4395 0.7451
C16 C 0.45281(16) 0.5222(2) 0.96625(12)
H12 H 0.4912 0.5152 0.9159
H13 H 0.3840 0.4404 0.9650
N1 N 0.26734(15) 1.1577(2) 1.06109(9)
N2 N 0.17003(15) 1.1853(2) 1.00291(10)
N3 N 0.40720(15) 0.6976(2) 0.97832(11)
O1 O 0.42694(12) 0.95481(17) 1.08701(8)
O2 O 0.26626(13) 0.5829(2) 0.83351(9)
H14 H 0.4506(19) 0.767(3) 1.0157(13)
C1B C 0.70666(17) -0.2880(3) 0.88099(12)
C2B C 0.63005(19) -0.2531(3) 0.81336(12)
H1B H 0.5950 -0.1434 0.8058
C3B C 0.6059(2) -0.3818(4) 0.75719(14)
H2B H 0.5548 -0.3584 0.7116
C4B C 0.6571(2) -0.5444(4) 0.76842(18)
H3B H 0.6405 -0.6309 0.7306
C5B C 0.7325(2) -0.5785(3) 0.83518(17)
H4B H 0.7666 -0.6888 0.8427
C6B C 0.75870(19) -0.4515(3) 0.89175(14)
H5B H 0.8109 -0.4757 0.9367
C7B C 0.66883(18) -0.0054(2) 0.95187(12)
C8B C 0.73684(17) 0.0734(2) 1.01918(11)
C9B C 0.83274(18) -0.0490(3) 1.04362(12)
C10B C 0.9262(2) -0.0475(3) 1.11394(14)
H6B H 0.9907 0.0351 1.1050
H7B H 0.8856 -0.0156 1.1608
H8B H 0.9622 -0.1611 1.1210
C11B C 0.70157(16) 0.2350(2) 1.04855(11)
C12B C 0.78301(19) 0.3334(2) 1.10476(11)
C13B C 0.90454(18) 0.3590(3) 1.10777(12)
H9B H 0.9592 0.3162 1.0720
C14B C 0.9363(2) 0.4622(3) 1.17445(15)
H10B H 1.0158 0.5005 1.1914
C15B C 0.8322(2) 0.4948(3) 1.20889(14)
H11B H 0.8265 0.5605 1.2549
C16B C 0.54719(16) 0.4778(2) 1.03375(12)
H12B H 0.5088 0.4848 1.0841
H13B H 0.6160 0.5596 1.0350
N1B N 0.73266(15) -0.1577(2) 0.93891(9)
N2B N 0.82997(15) -0.1853(2) 0.99709(10)
N3B N 0.59280(15) 0.3024(2) 1.02168(11)
O1B O 0.57306(12) 0.04519(17) 0.91299(8)
O2B O 0.73374(13) 0.4171(2) 1.16649(9)
H14B H 0.5494(19) 0.233(3) 0.9843(13)
loop_
_geom_bond_atom_site_label_1
_geom_bond_atom_site_label_2
_geom_bond_site_symmetry_1
_geom_bond_site_symmetry_2
C1 C2 1_555 1_555
C2 H1 1_555 1_555
C3 C2 1_555 1_555
H2 C3 1_555 1_555
C4 C3 1_555 1_555
H3 C4 1_555 1_555
C5 C4 1_555 1_555
H4 C5 1_555 1_555
C6 C1 1_555 1_555
H5 C6 1_555 1_555
C7 C8 1_555 1_555
C8 C9 1_555 1_555
C9 C10 1_555 1_555
C10 H6 1_555 1_555
H7 C10 1_555 1_555
H8 C10 1_555 1_555
C11 C8 1_555 1_555
C12 C11 1_555 1_555
C13 C12 1_555 1_555
H9 C13 1_555 1_555
C14 C13 1_555 1_555
H10 C14 1_555 1_555
C15 C14 1_555 1_555
H11 C15 1_555 1_555
C16 H12 1_555 1_555
H13 C16 1_555 1_555
N1 C1 1_555 1_555
N2 C9 1_555 1_555
N3 C11 1_555 1_555
O1 C7 1_555 1_555
O2 C12 1_555 1_555
H14 N3 1_555 1_555
C1B C2B 1_555 1_555
C2B H1B 1_555 1_555
C3B C2B 1_555 1_555
H2B C3B 1_555 1_555
C4B C3B 1_555 1_555
H3B C4B 1_555 1_555
C5B C4B 1_555 1_555
H4B C5B 1_555 1_555
C6B C1B 1_555 1_555
H5B C6B 1_555 1_555
C7B C8B 1_555 1_555
C8B C9B 1_555 1_555
C9B C10B 1_555 1_555
C10B H6B 1_555 1_555
H7B C10B 1_555 1_555
H8B C10B 1_555 1_555
C11B C8B 1_555 1_555
C12B C11B 1_555 1_555
C13B C12B 1_555 1_555
H9B C13B 1_555 1_555
C14B C13B 1_555 1_555
H10B C14B 1_555 1_555
C15B C14B 1_555 1_555
H11B C15B 1_555 1_555
C16B C16 1_555 1_555
H12B C16B 1_555 1_555
H13B C16B 1_555 1_555
N1B C1B 1_555 1_555
N2B C9B 1_555 1_555
N3B C11B 1_555 1_555
O1B C7B 1_555 1_555
O2B C12B 1_555 1_555
H14B N3B 1_555 1_555
C5 C6 1_555 1_555
C7 N1 1_555 1_555
C15 O2 1_555 1_555
C16 N3 1_555 1_555
N1 N2 1_555 1_555
C5B C6B 1_555 1_555
C7B N1B 1_555 1_555
C15B O2B 1_555 1_555
C16B N3B 1_555 1_555
N1B N2B 1_555 1_555

#END
