
#######################################################################
#
#                 Cambridge Crystallographic Data Centre
#                                CCDC 
#
#######################################################################
#
# If this CIF has been generated from an entry in the Cambridge 
# Structural Database, then it will include bibliographic, chemical, 
# crystal, experimental, refinement or atomic coordinate data resulting 
# from the CCDC's data processing and validation procedures.
#
#######################################################################

data_QUYLEC
_chemical_formula_moiety         'C8 H12 N1 1+,Cl1 1-'
_chemical_name_systematic        '2,4-Dimethylanilinium chloride'
_symmetry_cell_setting           monoclinic
_symmetry_space_group_name_H-M   'P 21/c'
_symmetry_Int_Tables_number      14
_space_group_name_Hall           '-P 2ybc'
loop_
_symmetry_equiv_pos_site_id
_symmetry_equiv_pos_as_xyz
1 x,y,z
2 -x,1/2+y,1/2-z
3 -x,-y,-z
4 x,1/2-y,1/2+z
_cell_length_a                   9.4739(19)
_cell_length_b                   9.894(2)
_cell_length_c                   9.6709(19)
_cell_angle_alpha                90
_cell_angle_beta                 96.31(3)
_cell_angle_gamma                90
_cell_volume                     901.008
_exptl_crystal_colour            colorless
_exptl_crystal_description       prism
_cell_formula_units_Z            4
loop_
_atom_site_label
_atom_site_type_symbol
_atom_site_fract_x
_atom_site_fract_y
_atom_site_fract_z
N1 N 0.61300(18) 0.39383(17) 0.84555(17)
H1 H 0.5798 0.4779 0.8370
H2 H 0.5968 0.3608 0.9279
H3 H 0.5694 0.3426 0.7783
C1 C 0.7662(2) 0.39422(18) 0.8348(2)
C2 C 0.9610(2) 0.4527(2) 0.7141(2)
H4 H 0.9972 0.4933 0.6388
C3 C 0.8145(2) 0.4537(2) 0.7185(2)
C4 C 0.8563(2) 0.3347(2) 0.9380(2)
H5 H 0.8205 0.2946 1.0138
C5 C 1.0551(2) 0.3944(2) 0.8157(2)
C6 C 1.0013(3) 0.3352(2) 0.9280(3)
H6 H 1.0628 0.2951 0.9977
C7 C 0.7157(3) 0.5163(3) 0.6043(2)
H7 H 0.6591 0.5843 0.6427
H8 H 0.6547 0.4478 0.5600
H9 H 0.7700 0.5567 0.5370
C8 C 1.2133(3) 0.3985(3) 0.8049(3)
H10 H 1.2629 0.3545 0.8843
H11 H 1.2440 0.4908 0.8018
H12 H 1.2332 0.3529 0.7216
Cl1 Cl 0.49251(6) 0.19132(5) 0.62110(6)
loop_
_geom_bond_atom_site_label_1
_geom_bond_atom_site_label_2
_geom_bond_site_symmetry_1
_geom_bond_site_symmetry_2
N1 H1 1_555 1_555
H2 N1 1_555 1_555
H3 N1 1_555 1_555
C1 N1 1_555 1_555
C2 H4 1_555 1_555
C3 C1 1_555 1_555
C4 C1 1_555 1_555
H5 C4 1_555 1_555
C5 C2 1_555 1_555
C6 C4 1_555 1_555
H6 C6 1_555 1_555
C7 C3 1_555 1_555
H7 C7 1_555 1_555
H8 C7 1_555 1_555
H9 C7 1_555 1_555
C8 C5 1_555 1_555
H10 C8 1_555 1_555
H11 C8 1_555 1_555
H12 C8 1_555 1_555
C2 C3 1_555 1_555
C5 C6 1_555 1_555

#END
