
#######################################################################
#
#                 Cambridge Crystallographic Data Centre
#                                CCDC 
#
#######################################################################
#
# If this CIF has been generated from an entry in the Cambridge 
# Structural Database, then it will include bibliographic, chemical, 
# crystal, experimental, refinement or atomic coordinate data resulting 
# from the CCDC's data processing and validation procedures.
#
#######################################################################

data_QUYVIR
_chemical_formula_moiety         'C19 H18 N1 O2 1+,C7 H7 O3 S1 1-'
_chemical_name_systematic        
'4-(2-(4-Hydroxy-3-methoxyphenyl)vinyl)-1-methylquinolinium 4-methylbenzenesulfonate'
_symmetry_cell_setting           monoclinic
_symmetry_space_group_name_H-M   'P 21/n'
_symmetry_Int_Tables_number      14
_space_group_name_Hall           '-P 2yn'
loop_
_symmetry_equiv_pos_site_id
_symmetry_equiv_pos_as_xyz
1 x,y,z
2 1/2-x,1/2+y,1/2-z
3 -x,-y,-z
4 1/2+x,1/2-y,1/2+z
_cell_length_a                   10.927(3)
_cell_length_b                   9.599(2)
_cell_length_c                   21.072(5)
_cell_angle_alpha                90
_cell_angle_beta                 102.741(4)
_cell_angle_gamma                90
_cell_volume                     2155.78
_exptl_crystal_colour            red
_exptl_crystal_description       Prism
_cell_formula_units_Z            4
loop_
_atom_site_label
_atom_site_type_symbol
_atom_site_fract_x
_atom_site_fract_y
_atom_site_fract_z
S1 S 0.50941(4) 0.67625(4) 0.74120(2)
O1 O 0.59155(13) 0.70096(15) 0.80538(7)
O2 O 0.38113(12) 0.72059(14) 0.73716(8)
O3 O 0.56486(13) 0.72772(14) 0.68902(7)
C1 C 0.50567(15) 0.49178(18) 0.73346(8)
C2 C 0.61618(16) 0.42179(19) 0.73075(9)
H1 H 0.6897 0.4730 0.7288
C3 C 0.61881(17) 0.27699(19) 0.73085(9)
H2 H 0.6944 0.2298 0.7290
C4 C 0.51152(17) 0.20000(19) 0.73361(9)
C5 C 0.40005(17) 0.27134(19) 0.73333(9)
H3 H 0.3254 0.2204 0.7331
C6 C 0.39716(16) 0.41671(19) 0.73346(9)
H4 H 0.3209 0.4642 0.7335
C7 C 0.5177(2) 0.0438(2) 0.73934(11)
H5 H 0.4371 0.0081 0.7456
H6 H 0.5843 0.0175 0.7767
H7 H 0.5356 0.0040 0.6995
O4 O 0.91840(12) 0.28566(15) 0.57313(7)
O5 O 0.89334(12) 0.38090(15) 0.45318(6)
N1 N 0.20977(14) 1.07444(16) 0.43459(7)
C8 C 0.21947(15) 1.03436(18) 0.49870(9)
C9 C 0.14291(17) 1.0973(2) 0.53629(10)
H8 H 0.0845 1.1677 0.5181
C10 C 0.15381(18) 1.0558(2) 0.59947(10)
H9 H 0.1036 1.0989 0.6254
C11 C 0.23836(19) 0.9501(2) 0.62637(10)
H10 H 0.2428 0.9205 0.6698
C12 C 0.31424(17) 0.8895(2) 0.59067(9)
H11 H 0.3716 0.8190 0.6099
C13 C 0.30854(15) 0.93006(18) 0.52563(8)
C14 C 0.38831(15) 0.86968(18) 0.48680(9)
C15 C 0.37239(18) 0.9178(2) 0.42333(9)
H12 H 0.4232 0.8809 0.3961
C16 C 0.28410(18) 1.0181(2) 0.39908(9)
H13 H 0.2759 1.0483 0.3554
C17 C 0.11614(18) 1.1805(2) 0.40503(10)
H14 H 0.1202 1.1949 0.3595
H15 H 0.1342 1.2683 0.4289
H16 H 0.0320 1.1483 0.4071
C18 C 0.48193(16) 0.76585(19) 0.51419(9)
H17 H 0.4921 0.7444 0.5591
C19 C 0.55541(16) 0.69769(19) 0.48085(9)
H18 H 0.5458 0.7208 0.4362
C20 C 0.64861(16) 0.59143(19) 0.50723(9)
C21 C 0.66589(16) 0.54053(19) 0.57064(9)
H19 H 0.6158 0.5753 0.5987
C22 C 0.75598(16) 0.43928(19) 0.59300(9)
H20 H 0.7667 0.4055 0.6363
C23 C 0.83073(15) 0.38654(19) 0.55312(9)
C24 C 0.81503(16) 0.43703(19) 0.48899(9)
C25 C 0.72394(16) 0.53720(19) 0.46660(9)
H21 H 0.7121 0.5698 0.4231
C26 C 0.87441(19) 0.4276(2) 0.38744(9)
H22 H 0.7906 0.3998 0.3635
H23 H 0.9379 0.3858 0.3670
H24 H 0.8817 0.5293 0.3867
H25 H 0.918(3) 0.265(3) 0.6141(15)
loop_
_geom_bond_atom_site_label_1
_geom_bond_atom_site_label_2
_geom_bond_site_symmetry_1
_geom_bond_site_symmetry_2
S1 O1 1_555 1_555
O2 S1 1_555 1_555
O3 S1 1_555 1_555
C1 S1 1_555 1_555
C2 C1 1_555 1_555
H1 C2 1_555 1_555
C3 C2 1_555 1_555
H2 C3 1_555 1_555
C4 C3 1_555 1_555
C5 C4 1_555 1_555
H3 C5 1_555 1_555
C6 C1 1_555 1_555
H4 C6 1_555 1_555
C7 C4 1_555 1_555
H5 C7 1_555 1_555
H6 C7 1_555 1_555
H7 C7 1_555 1_555
O4 C23 1_555 1_555
O5 C24 1_555 1_555
N1 C8 1_555 1_555
C8 C9 1_555 1_555
C9 H8 1_555 1_555
C10 C9 1_555 1_555
H9 C10 1_555 1_555
C11 C10 1_555 1_555
H10 C11 1_555 1_555
C12 C11 1_555 1_555
H11 C12 1_555 1_555
C13 C8 1_555 1_555
C14 C13 1_555 1_555
C15 C14 1_555 1_555
H12 C15 1_555 1_555
C16 N1 1_555 1_555
H13 C16 1_555 1_555
C17 N1 1_555 1_555
H14 C17 1_555 1_555
H15 C17 1_555 1_555
H16 C17 1_555 1_555
C18 C14 1_555 1_555
H17 C18 1_555 1_555
C19 C18 1_555 1_555
H18 C19 1_555 1_555
C20 C19 1_555 1_555
C21 C20 1_555 1_555
H19 C21 1_555 1_555
C22 C21 1_555 1_555
H20 C22 1_555 1_555
C23 C22 1_555 1_555
C24 C23 1_555 1_555
C25 C20 1_555 1_555
H21 C25 1_555 1_555
C26 O5 1_555 1_555
H22 C26 1_555 1_555
H23 C26 1_555 1_555
H24 C26 1_555 1_555
H25 O4 1_555 1_555
C5 C6 1_555 1_555
C12 C13 1_555 1_555
C15 C16 1_555 1_555
C24 C25 1_555 1_555

#END
