
#######################################################################
#
#                 Cambridge Crystallographic Data Centre
#                                CCDC 
#
#######################################################################
#
# If this CIF has been generated from an entry in the Cambridge 
# Structural Database, then it will include bibliographic, chemical, 
# crystal, experimental, refinement or atomic coordinate data resulting 
# from the CCDC's data processing and validation procedures.
#
#######################################################################

data_QUYVAI
_chemical_formula_moiety         'C22 H21 N1 O1'
_chemical_name_systematic        
5-Phenyl-3,4,4a,5,6,12c-hexahydro-2H-benzo[f]pyrano[3,2-c]quinoline
_symmetry_cell_setting           monoclinic
_symmetry_space_group_name_H-M   'P 21/c'
_symmetry_Int_Tables_number      14
_space_group_name_Hall           '-P 2ybc'
loop_
_symmetry_equiv_pos_site_id
_symmetry_equiv_pos_as_xyz
1 x,y,z
2 -x,1/2+y,1/2-z
3 -x,-y,-z
4 x,1/2-y,1/2+z
_cell_length_a                   8.1106(2)
_cell_length_b                   10.9560(2)
_cell_length_c                   18.5020(3)
_cell_angle_alpha                90
_cell_angle_beta                 93.5520(10)
_cell_angle_gamma                90
_cell_volume                     1640.92
_exptl_crystal_colour            colorless
_exptl_crystal_description       block
_cell_formula_units_Z            4
loop_
_atom_site_label
_atom_site_type_symbol
_atom_site_fract_x
_atom_site_fract_y
_atom_site_fract_z
C1 C 0.3714(2) 1.07478(15) 0.36093(9)
N1 N 0.61481(19) 0.95714(14) 0.39789(10)
O1 O 0.18206(15) 0.97459(12) 0.43549(7)
C2 C 0.3017(2) 1.18875(15) 0.33707(9)
C3 C 0.5404(2) 1.06466(16) 0.37471(10)
C4 C 0.2648(2) 0.96399(16) 0.36947(10)
H1 H 0.1808 0.9625 0.3291
C5 C 0.4069(2) 1.29013(16) 0.32593(9)
C6 C 0.6433(2) 1.16641(18) 0.36261(11)
H2 H 0.7571 1.1589 0.3711
C7 C 0.5156(2) 0.85413(16) 0.42038(10)
H3 H 0.4798 0.8705 0.4691
C8 C 0.3629(2) 0.84524(16) 0.36796(10)
H4 H 0.4012 0.8359 0.3191
C9 C 0.5791(2) 1.27409(18) 0.33898(11)
H5 H 0.6497 1.3390 0.3311
C10 C 0.6191(2) 0.73967(16) 0.42288(9)
C11 C 0.1721(3) 1.41656(19) 0.29126(12)
H6 H 0.1281 1.4914 0.2761
C12 C 0.6980(2) 0.69912(17) 0.36296(10)
H7 H 0.6887 0.7443 0.3203
C13 C 0.3376(3) 1.40304(17) 0.30283(10)
H8 H 0.4068 1.4690 0.2955
C14 C 0.0673(3) 1.31761(19) 0.30220(12)
H9 H -0.0462 1.3270 0.2940
C15 C 0.1299(2) 1.20753(17) 0.32474(10)
H10 H 0.0579 1.1433 0.3322
C16 C 0.2505(3) 0.73714(18) 0.38181(12)
H11 H 0.1730 0.7260 0.3403
H12 H 0.3168 0.6637 0.3874
C17 C 0.6379(3) 0.6707(2) 0.48508(11)
H13 H 0.5869 0.6954 0.5263
C18 C 0.7894(3) 0.59365(18) 0.36538(11)
H14 H 0.8399 0.5676 0.3243
C19 C 0.8067(3) 0.52664(18) 0.42770(12)
H15 H 0.8693 0.4555 0.4293
C20 C 0.1569(3) 0.7550(2) 0.44793(14)
H16 H 0.2325 0.7529 0.4907
H17 H 0.0773 0.6896 0.4517
C21 C 0.0693(3) 0.8750(2) 0.44381(14)
H18 H -0.0120 0.8742 0.4031
H19 H 0.0115 0.8871 0.4876
C22 C 0.7316(3) 0.5649(2) 0.48709(12)
H20 H 0.7431 0.5197 0.5296
H21 H 0.7087 0.965 0.4204
loop_
_geom_bond_atom_site_label_1
_geom_bond_atom_site_label_2
_geom_bond_site_symmetry_1
_geom_bond_site_symmetry_2
C1 C2 1_555 1_555
N1 C3 1_555 1_555
O1 C4 1_555 1_555
C2 C5 1_555 1_555
C3 C1 1_555 1_555
C4 C1 1_555 1_555
H1 C4 1_555 1_555
C5 C9 1_555 1_555
C6 C3 1_555 1_555
H2 C6 1_555 1_555
C7 N1 1_555 1_555
H3 C7 1_555 1_555
C8 C4 1_555 1_555
H4 C8 1_555 1_555
C9 C6 1_555 1_555
H5 C9 1_555 1_555
C10 C7 1_555 1_555
C11 H6 1_555 1_555
C12 C10 1_555 1_555
H7 C12 1_555 1_555
C13 C5 1_555 1_555
H8 C13 1_555 1_555
C14 C11 1_555 1_555
H9 C14 1_555 1_555
C15 C2 1_555 1_555
H10 C15 1_555 1_555
C16 C8 1_555 1_555
H11 C16 1_555 1_555
H12 C16 1_555 1_555
C17 C10 1_555 1_555
H13 C17 1_555 1_555
C18 C12 1_555 1_555
H14 C18 1_555 1_555
C19 C18 1_555 1_555
H15 C19 1_555 1_555
C20 C16 1_555 1_555
H16 C20 1_555 1_555
H17 C20 1_555 1_555
C21 O1 1_555 1_555
H18 C21 1_555 1_555
H19 C21 1_555 1_555
C22 C17 1_555 1_555
H20 C22 1_555 1_555
H21 N1 1_555 1_555
C7 C8 1_555 1_555
C11 C13 1_555 1_555
C14 C15 1_555 1_555
C19 C22 1_555 1_555
C20 C21 1_555 1_555

#END
