
#######################################################################
#
#                 Cambridge Crystallographic Data Centre
#                                CCDC 
#
#######################################################################
#
# If this CIF has been generated from an entry in the Cambridge 
# Structural Database, then it will include bibliographic, chemical, 
# crystal, experimental, refinement or atomic coordinate data resulting 
# from the CCDC's data processing and validation procedures.
#
#######################################################################

data_QUZKIG
_chemical_formula_moiety         'C5 H3 F3 N2 O2,H2 O1'
_chemical_name_systematic        
'6-(Trifluoromethyl)pyrimidine-2,4(1H,3H)-dione monohydrate'
_symmetry_cell_setting           monoclinic
_symmetry_space_group_name_H-M   'P 21/c'
_symmetry_Int_Tables_number      14
_space_group_name_Hall           '-P 2ybc'
loop_
_symmetry_equiv_pos_site_id
_symmetry_equiv_pos_as_xyz
1 x,y,z
2 -x,1/2+y,1/2-z
3 -x,-y,-z
4 x,1/2-y,1/2+z
_cell_length_a                   5.0250(8)
_cell_length_b                   7.046(1)
_cell_length_c                   20.769(2)
_cell_angle_alpha                90
_cell_angle_beta                 91.300(7)
_cell_angle_gamma                90
_cell_volume                     735.161
_exptl_crystal_colour            colorless
_exptl_crystal_description       prism
_cell_formula_units_Z            4
_exptl_crystal_recrystallization_method water
loop_
_atom_site_label
_atom_site_type_symbol
_atom_site_fract_x
_atom_site_fract_y
_atom_site_fract_z
F1 F 0.74748(17) 0.37877(12) 0.26992(4)
F2 F 0.33139(17) 0.43344(12) 0.28202(4)
F3 F 0.54045(16) 0.25207(11) 0.34843(4)
O1 O 0.32964(16) 0.78481(12) 0.48978(4)
O2 O 1.03039(17) 0.99065(12) 0.37275(4)
N1 N 0.67605(19) 0.88773(14) 0.42979(5)
N2 N 0.46193(19) 0.60395(14) 0.40583(5)
C1 C 0.4798(2) 0.76007(17) 0.44449(5)
C2 C 0.8566(2) 0.87123(17) 0.38039(6)
C3 C 0.8191(2) 0.70430(17) 0.34028(6)
H1 H 0.9296 0.6828 0.3045
C4 C 0.6262(2) 0.58089(16) 0.35448(5)
C5 C 0.5641(2) 0.40964(18) 0.31352(6)
H2 H 0.681(3) 0.999(2) 0.4561(9)
H3 H 0.340(3) 0.518(2) 0.4169(8)
O3 O 0.09114(19) 0.33980(15) 0.43644(5)
H4 H 0.081(3) 0.234(3) 0.4166(10)
H5 H -0.024(3) 0.336(3) 0.4642(8)
loop_
_geom_bond_atom_site_label_1
_geom_bond_atom_site_label_2
_geom_bond_site_symmetry_1
_geom_bond_site_symmetry_2
F1 C5 1_555 1_555
F2 C5 1_555 1_555
F3 C5 1_555 1_555
O1 C1 1_555 1_555
O2 C2 1_555 1_555
O3 H4 1_555 1_555
N1 C1 1_555 1_555
N2 C1 1_555 1_555
C2 N1 1_555 1_555
C3 C2 1_555 1_555
H1 C3 1_555 1_555
C4 N2 1_555 1_555
C5 C4 1_555 1_555
H2 N1 1_555 1_555
H3 N2 1_555 1_555
H5 O3 1_555 1_555
C3 C4 1_555 1_555

#END
