
#######################################################################
#
#                 Cambridge Crystallographic Data Centre
#                                CCDC 
#
#######################################################################
#
# If this CIF has been generated from an entry in the Cambridge 
# Structural Database, then it will include bibliographic, chemical, 
# crystal, experimental, refinement or atomic coordinate data resulting 
# from the CCDC's data processing and validation procedures.
#
#######################################################################

data_QUZQAE
_chemical_formula_moiety         'C18 H24 N4 O1,H2 O1'
_chemical_name_systematic        
'N-(2-[4-(2-Methoxyphenyl)piperazin-1-yl]ethyl)pyridin-2-amine monohydrate'
_symmetry_cell_setting           orthorhombic
_symmetry_space_group_name_H-M   'P n a 21'
_symmetry_Int_Tables_number      33
_space_group_name_Hall           'P 2c -2n'
loop_
_symmetry_equiv_pos_site_id
_symmetry_equiv_pos_as_xyz
1 x,y,z
2 -x,-y,1/2+z
3 1/2+x,1/2-y,z
4 1/2-x,1/2+y,1/2+z
_cell_length_a                   13.451(3)
_cell_length_b                   19.847(4)
_cell_length_c                   6.8596(15)
_cell_angle_alpha                90
_cell_angle_beta                 90
_cell_angle_gamma                90
_cell_volume                     1831.25
_exptl_crystal_colour            colorless
_exptl_crystal_description       prism
_cell_formula_units_Z            4
_exptl_crystal_recrystallization_method acetone/water
loop_
_atom_site_label
_atom_site_type_symbol
_atom_site_fract_x
_atom_site_fract_y
_atom_site_fract_z
O1 O 0.43965(12) 0.13354(8) 0.6019(3)
N1 N 0.75758(14) 0.58179(9) 0.4876(3)
N2 N 0.69260(15) 0.52222(10) 0.7505(3)
N3 N 0.52175(13) 0.38007(8) 0.6319(3)
N4 N 0.44650(13) 0.25939(8) 0.4558(3)
C1 C 0.82362(19) 0.62843(12) 0.4242(4)
H1 H 0.8274 0.6364 0.2879
C2 C 0.88518(19) 0.66487(13) 0.5425(4)
H2 H 0.9308 0.6966 0.4900
C3 C 0.87886(17) 0.65392(12) 0.7421(4)
H3 H 0.9195 0.6789 0.8293
C4 C 0.81411(17) 0.60715(11) 0.8117(3)
H4 H 0.8095 0.5990 0.9479
C5 C 0.75372(15) 0.57077(10) 0.6798(3)
C6 C 0.62161(16) 0.48524(10) 0.6333(3)
H5 H 0.6490 0.4776 0.5012
H6 H 0.5593 0.5115 0.6204
C7 C 0.60037(17) 0.41825(11) 0.7313(3)
H7 H 0.6620 0.3910 0.7333
H8 H 0.5802 0.4265 0.8681
C8 C 0.55437(16) 0.35756(11) 0.4378(3)
H9 H 0.6145 0.3291 0.4509
H10 H 0.5718 0.3972 0.3572
C9 C 0.47335(16) 0.31789(10) 0.3383(3)
H11 H 0.4142 0.3469 0.3195
H12 H 0.4966 0.3029 0.2084
C10 C 0.41288(17) 0.28054(11) 0.6490(3)
H13 H 0.3967 0.2404 0.7288
H14 H 0.3520 0.3083 0.6367
C11 C 0.49388(19) 0.32103(11) 0.7477(3)
H15 H 0.4704 0.3359 0.8776
H16 H 0.5530 0.2921 0.7671
C12 C 0.38607(15) 0.21023(10) 0.3614(3)
C13 C 0.33403(17) 0.22331(11) 0.1915(4)
H17 H 0.3335 0.2678 0.1403
C14 C 0.28283(19) 0.17297(13) 0.0947(4)
H18 H 0.2476 0.1831 -0.0218
C15 C 0.28287(19) 0.10831(13) 0.1670(4)
H19 H 0.2484 0.0736 0.0997
C16 C 0.33326(18) 0.09392(12) 0.3380(4)
H20 H 0.3322 0.0494 0.3889
C17 C 0.38516(16) 0.14392(11) 0.4357(4)
C18 C 0.4404(2) 0.06745(13) 0.6815(5)
H21 H 0.3720 0.0530 0.7072
H22 H 0.4782 0.0674 0.8036
H23 H 0.4715 0.0364 0.5886
H25 H 0.686(2) 0.5217(13) 0.871(4)
O2 O 0.35365(13) 0.46544(8) 0.6564(3)
H24 H 0.320(2) 0.4515(15) 0.757(5)
H26 H 0.400(2) 0.4384(17) 0.647(6)
loop_
_geom_bond_atom_site_label_1
_geom_bond_atom_site_label_2
_geom_bond_site_symmetry_1
_geom_bond_site_symmetry_2
O1 C17 1_555 1_555
O2 H24 1_555 1_555
N1 C1 1_555 1_555
N2 C5 1_555 1_555
N3 C7 1_555 1_555
N4 C9 1_555 1_555
C1 H1 1_555 1_555
C2 C1 1_555 1_555
H2 C2 1_555 1_555
C3 C2 1_555 1_555
H3 C3 1_555 1_555
C4 C3 1_555 1_555
H4 C4 1_555 1_555
C5 N1 1_555 1_555
C6 N2 1_555 1_555
H5 C6 1_555 1_555
H6 C6 1_555 1_555
C7 C6 1_555 1_555
H7 C7 1_555 1_555
H8 C7 1_555 1_555
C8 N3 1_555 1_555
H9 C8 1_555 1_555
H10 C8 1_555 1_555
C9 C8 1_555 1_555
H11 C9 1_555 1_555
H12 C9 1_555 1_555
C10 N4 1_555 1_555
H13 C10 1_555 1_555
H14 C10 1_555 1_555
C11 N3 1_555 1_555
H15 C11 1_555 1_555
H16 C11 1_555 1_555
C12 N4 1_555 1_555
C13 C12 1_555 1_555
H17 C13 1_555 1_555
C14 C13 1_555 1_555
H18 C14 1_555 1_555
C15 C14 1_555 1_555
H19 C15 1_555 1_555
C16 C15 1_555 1_555
H20 C16 1_555 1_555
C17 C12 1_555 1_555
C18 O1 1_555 1_555
H21 C18 1_555 1_555
H22 C18 1_555 1_555
H23 C18 1_555 1_555
H25 N2 1_555 1_555
H26 O2 1_555 1_555
C4 C5 1_555 1_555
C10 C11 1_555 1_555
C16 C17 1_555 1_555

#END
