
#######################################################################
#
#                 Cambridge Crystallographic Data Centre
#                                CCDC 
#
#######################################################################
#
# If this CIF has been generated from an entry in the Cambridge 
# Structural Database, then it will include bibliographic, chemical, 
# crystal, experimental, refinement or atomic coordinate data resulting 
# from the CCDC's data processing and validation procedures.
#
#######################################################################

data_QUZSOU
_chemical_name_common            
'2-O-t-Butyldimethylsilyl-4,6-O-ethylidene-myo-insitol 1,3,5-orthoformate'
_chemical_formula_moiety         'C15 H26 O6 Si1'
_chemical_name_systematic        
t-Butyl-(dimethyl)-((4-methyl-3,5,8,10,13-pentaoxatetracyclo[7.3.1.0^2,7^.0^6,11^]tridec-12-yl)oxy)silane
_symmetry_cell_setting           orthorhombic
_symmetry_space_group_name_H-M   'P b c a'
_symmetry_Int_Tables_number      61
_space_group_name_Hall           '-P 2ac 2ab'
loop_
_symmetry_equiv_pos_site_id
_symmetry_equiv_pos_as_xyz
1 x,y,z
2 1/2-x,-y,1/2+z
3 -x,1/2+y,1/2-z
4 1/2+x,1/2-y,-z
5 -x,-y,-z
6 1/2+x,y,1/2-z
7 x,1/2-y,1/2+z
8 1/2-x,1/2+y,z
_cell_length_a                   12.0170(4)
_cell_length_b                   11.2808(3)
_cell_length_c                   25.6942(8)
_cell_angle_alpha                90
_cell_angle_beta                 90
_cell_angle_gamma                90
_cell_volume                     3483.14
_exptl_crystal_colour            colorless
_exptl_crystal_description       block
_cell_formula_units_Z            8
_exptl_crystal_recrystallization_method 'ethyl acetate/petroleum ether'
loop_
_atom_site_label
_atom_site_type_symbol
_atom_site_fract_x
_atom_site_fract_y
_atom_site_fract_z
C1 C 1.0701(3) 0.6537(3) 0.59939(13)
H1 H 1.1352 0.6900 0.5848
H2 H 1.0112 0.7110 0.6013
H3 H 1.0473 0.5886 0.5778
C2 C 1.0960(2) 0.6094(2) 0.65278(12)
H4 H 1.1226 0.6746 0.6747
C3 C 1.2002(2) 0.4541(3) 0.69423(11)
H5 H 1.2794 0.4578 0.7032
C4 C 1.0113(2) 0.4980(2) 0.72188(10)
H6 H 0.9641 0.5327 0.7490
C5 C 1.1318(2) 0.4988(3) 0.73907(11)
H7 H 1.1545 0.5797 0.7481
C6 C 1.1663(2) 0.3251(2) 0.68424(10)
H8 H 1.2134 0.2913 0.6569
C7 C 0.9784(2) 0.3686(2) 0.71229(10)
H9 H 0.8989 0.3641 0.7041
C8 C 1.0450(2) 0.3186(2) 0.66778(10)
H10 H 1.0333 0.3668 0.6365
C9 C 1.1140(3) 0.3057(3) 0.77096(12)
H11 H 1.1255 0.2570 0.8021
C10 C 1.0905(3) 0.2103(4) 0.55151(14)
H12 H 1.0859 0.2952 0.5534
H13 H 1.0710 0.1847 0.5171
H14 H 1.1651 0.1856 0.5593
C11 C 1.0206(3) -0.0159(3) 0.60583(12)
H15 H 1.0988 -0.0286 0.6111
H16 H 0.9973 -0.0561 0.5748
H17 H 0.9800 -0.0465 0.6351
C12 C 0.8465(3) 0.1719(3) 0.57919(11)
C13 C 0.8201(3) 0.1084(3) 0.52793(12)
H18 H 0.7429 0.1190 0.5196
H19 H 0.8359 0.0254 0.5315
H20 H 0.8651 0.1411 0.5006
C14 C 0.7693(3) 0.1210(4) 0.62207(15)
H21 H 0.7834 0.1612 0.6543
H22 H 0.7837 0.0378 0.6262
H23 H 0.6930 0.1324 0.6122
C15 C 0.8231(4) 0.3032(3) 0.57262(19)
H24 H 0.7474 0.3141 0.5618
H25 H 0.8722 0.3354 0.5468
H26 H 0.8351 0.3431 0.6052
O1 O 0.99714(14) 0.56100(14) 0.67385(7)
O2 O 1.18006(14) 0.52151(17) 0.64779(7)
O3 O 1.14699(17) 0.42203(18) 0.78300(7)
O4 O 1.00096(16) 0.30181(15) 0.75876(7)
O5 O 1.18069(15) 0.25908(18) 0.73137(8)
O6 O 1.01461(16) 0.19916(15) 0.65769(7)
Si1 Si 0.99324(6) 0.14381(6) 0.59918(3)
loop_
_geom_bond_atom_site_label_1
_geom_bond_atom_site_label_2
_geom_bond_site_symmetry_1
_geom_bond_site_symmetry_2
C1 H1 1_555 1_555
H2 C1 1_555 1_555
H3 C1 1_555 1_555
C2 C1 1_555 1_555
H4 C2 1_555 1_555
C3 H5 1_555 1_555
C4 H6 1_555 1_555
C5 C3 1_555 1_555
H7 C5 1_555 1_555
C6 C3 1_555 1_555
H8 C6 1_555 1_555
C7 C4 1_555 1_555
H9 C7 1_555 1_555
C8 C6 1_555 1_555
H10 C8 1_555 1_555
C9 H11 1_555 1_555
C10 H12 1_555 1_555
H13 C10 1_555 1_555
H14 C10 1_555 1_555
C11 H15 1_555 1_555
H16 C11 1_555 1_555
H17 C11 1_555 1_555
C12 C13 1_555 1_555
C13 H18 1_555 1_555
H19 C13 1_555 1_555
H20 C13 1_555 1_555
C14 C12 1_555 1_555
H21 C14 1_555 1_555
H22 C14 1_555 1_555
H23 C14 1_555 1_555
C15 C12 1_555 1_555
H24 C15 1_555 1_555
H25 C15 1_555 1_555
H26 C15 1_555 1_555
O1 C2 1_555 1_555
O2 C2 1_555 1_555
O3 C5 1_555 1_555
O4 C7 1_555 1_555
O5 C6 1_555 1_555
O6 C8 1_555 1_555
Si1 C10 1_555 1_555
C3 O2 1_555 1_555
C4 C5 1_555 1_555
C4 O1 1_555 1_555
C7 C8 1_555 1_555
C9 O3 1_555 1_555
C9 O4 1_555 1_555
C9 O5 1_555 1_555
C11 Si1 1_555 1_555
C12 Si1 1_555 1_555
O6 Si1 1_555 1_555

#END
