
#######################################################################
#
#                 Cambridge Crystallographic Data Centre
#                                CCDC 
#
#######################################################################
#
# If this CIF has been generated from an entry in the Cambridge 
# Structural Database, then it will include bibliographic, chemical, 
# crystal, experimental, refinement or atomic coordinate data resulting 
# from the CCDC's data processing and validation procedures.
#
#######################################################################

data_QUZZIU
_chemical_formula_moiety         'C59 H78 O5 Si2,C1 H1 Cl3'
_chemical_name_systematic        
'(\m~2~-5,11,17,23,29-penta-t-butyl-31-hydroxycalix(5)arene-32,33,34,35-tetraoxy)-bis(dimethylsilane) chloroform solvate'
_symmetry_cell_setting           triclinic
_symmetry_space_group_name_H-M   'P -1'
_symmetry_Int_Tables_number      2
_space_group_name_Hall           '-P 1'
loop_
_symmetry_equiv_pos_site_id
_symmetry_equiv_pos_as_xyz
1 x,y,z
2 -x,-y,-z
_cell_length_a                   14.612(3)
_cell_length_b                   15.595(2)
_cell_length_c                   15.718(3)
_cell_angle_alpha                93.24(1)
_cell_angle_beta                 115.47(1)
_cell_angle_gamma                108.98(1)
_cell_volume                     2975.81
_exptl_crystal_colour            colorless
_chemical_melting_point          249-251deg.C
_cell_formula_units_Z            2
loop_
_atom_site_label
_atom_site_type_symbol
_atom_site_fract_x
_atom_site_fract_y
_atom_site_fract_z
Si1 Si 0.5926(1) 0.2025(1) 0.4722(1)
Si2 Si 0.3662(1) 0.1041(1) 0.0741(1)
O1 O 0.4802(3) 0.3298(2) 0.2502(2)
O2 O 0.5407(3) 0.2725(2) 0.4994(2)
O3 O 0.5042(3) 0.0933(2) 0.4304(2)
O4 O 0.4214(3) 0.0296(2) 0.1175(2)
O5 O 0.4626(3) 0.2090(2) 0.1046(2)
C1 C 0.6407(5) 0.2418(4) 0.3861(4)
C2 C 0.7034(5) 0.2059(4) 0.5880(4)
C3 C 0.2858(5) 0.0623(4) -0.0588(4)
C4 C 0.2843(4) 0.1208(4) 0.1295(4)
C5 C 0.5240(4) 0.4221(3) 0.2546(4)
C6 C 0.5234(4) 0.4570(3) 0.1752(3)
C7 C 0.5695(4) 0.5526(3) 0.1874(3)
C8 C 0.6146(4) 0.6156(3) 0.2756(3)
C9 C 0.6112(4) 0.5770(3) 0.3519(4)
C10 C 0.5681(4) 0.4821(3) 0.3454(4)
C11 C 0.6631(4) 0.7204(3) 0.2863(4)
C12 C 0.6826(8) 0.7461(4) 0.2024(5)
C13 C 0.5834(6) 0.7591(4) 0.2938(6)
C14 C 0.7706(5) 0.7657(4) 0.3796(4)
C15 C 0.4481(4) 0.2894(3) 0.4433(4)
C16 C 0.4590(4) 0.3724(3) 0.4125(3)
C17 C 0.3647(5) 0.3884(4) 0.3592(4)
C18 C 0.2599(4) 0.3254(4) 0.3341(3)
C19 C 0.2537(4) 0.2439(4) 0.3683(4)
C20 C 0.3455(4) 0.2242(3) 0.4216(3)
C21 C 0.1587(4) 0.3443(4) 0.2708(4)
C22 C 0.1605(12) 0.4321(8) 0.3186(9)
C23 C 0.0509(7) 0.2653(8) 0.2454(10)
C24 C 0.1595(9) 0.3583(11) 0.1760(6)
C28 C 0.3962(4) 0.0440(3) 0.3617(4)
C29 C 0.3116(4) 0.0573(3) 0.3716(3)
C30 C 0.2029(4) -0.0003(4) 0.3051(4)
C31 C 0.1772(4) -0.0706(4) 0.2311(4)
C32 C 0.2636(4) -0.0806(3) 0.2234(4)
C33 C 0.3730(4) -0.0272(3) 0.2869(4)
C34 C 0.0570(4) -0.1349(4) 0.1611(4)
C35 C -0.0006(10) -0.0751(8) 0.1050(13)
C36 C 0.0013(10) -0.1778(12) 0.2198(8)
C37 C 0.0448(10) -0.2130(10) 0.0892(12)
C41 C 0.5298(4) 0.0474(3) 0.1835(4)
C42 C 0.5507(4) 0.0123(3) 0.2663(4)
C43 C 0.6603(4) 0.0318(3) 0.3319(3)
C44 C 0.7474(4) 0.0840(3) 0.3186(4)
C45 C 0.7219(4) 0.1138(3) 0.2326(4)
C46 C 0.6145(4) 0.0955(3) 0.1638(3)
C47 C 0.8684(4) 0.1076(3) 0.3919(4)
C48 C 0.9225(5) 0.0671(4) 0.3455(5)
C49 C 0.8794(4) 0.0679(4) 0.4817(4)
C50 C 0.9282(5) 0.2141(4) 0.4263(5)
C51 C 0.5373(4) 0.2581(3) 0.0750(3)
C52 C 0.6040(4) 0.2194(3) 0.0595(3)
C53 C 0.6800(4) 0.2729(3) 0.0342(4)
C54 C 0.6934(4) 0.3636(3) 0.0242(3)
C55 C 0.6250(4) 0.3986(3) 0.0396(3)
C56 C 0.5466(4) 0.3485(3) 0.0655(3)
C57 C 0.7784(4) 0.4193(4) -0.0054(4)
C58 C 0.7479(7) 0.3749(5) -0.1063(5)
C59 C 0.7877(6) 0.5201(4) -0.0013(6)
C60 C 0.8907(5) 0.4226(6) 0.0653(6)
C61 C 0.5692(4) 0.4430(3) 0.4309(3)
C62 C 0.3327(4) 0.1321(3) 0.4504(4)
C63 C 0.4625(4) -0.0535(3) 0.2838(4)
C64 C 0.5903(4) 0.1196(3) 0.0654(3)
C65 C 0.4716(4) 0.3905(3) 0.0771(3)
H1 H 0.4817 0.2999 0.2065
H2 H 0.6762 0.2035 0.3750
H3 H 0.6920 0.3054 0.4120
H4 H 0.5793 0.2369 0.3261
H5 H 0.6788 0.2021 0.6359
H6 H 0.7659 0.2632 0.6080
H7 H 0.7236 0.1542 0.5811
H8 H 0.3341 0.0612 -0.0849
H9 H 0.2499 0.1033 -0.0858
H10 H 0.2316 0.0005 -0.0750
H11 H 0.2264 0.0623 0.1171
H12 H 0.2530 0.1645 0.1024
H13 H 0.3304 0.1445 0.1981
H14 H 0.5705 0.5761 0.1346
H15 H 0.6395 0.6173 0.4111
H16 H 0.7288 0.7176 0.1951
H17 H 0.7179 0.8126 0.2148
H18 H 0.6135 0.7244 0.1441
H19 H 0.5180 0.7394 0.2324
H20 H 0.6172 0.8259 0.3118
H21 H 0.5646 0.7364 0.3420
H22 H 0.7577 0.7545 0.4337
H23 H 0.8004 0.8316 0.3847
H24 H 0.8218 0.7397 0.3796
H25 H 0.3720 0.4441 0.3392
H26 H 0.1850 0.2009 0.3546
H27 H 0.0959 0.4424 0.2773
H28 H 0.2248 0.4841 0.3293
H29 H 0.1618 0.4255 0.3794
H30 H -0.0093 0.2816 0.2054
H31 H 0.0476 0.2544 0.3037
H32 H 0.0462 0.2098 0.2110
H33 H 0.0960 0.3702 0.1350
H34 H 0.1581 0.3032 0.1441
H35 H 0.2249 0.4104 0.1891
H45 H 0.1460 0.0091 0.3110
H46 H 0.2475 -0.1260 0.1723
H47 H 0.0050 -0.0265 0.1496
H48 H -0.0767 -0.1131 0.0626
H49 H 0.0337 -0.0479 0.0675
H50 H 0.0090 -0.1291 0.2656
H51 H 0.0352 -0.2175 0.2536
H52 H -0.0753 -0.2137 0.1770
H53 H 0.0784 -0.1867 0.0510
H54 H -0.0319 -0.2499 0.0476
H55 H 0.0801 -0.2516 0.1238
H65 H 0.6754 0.0083 0.3873
H66 H 0.7790 0.1474 0.2208
H67 H 0.8848 0.0006 0.3253
H68 H 0.9981 0.0829 0.3918
H69 H 0.9186 0.0924 0.2904
H70 H 0.8405 0.0015 0.4620
H71 H 0.8490 0.0947 0.5139
H72 H 0.9557 0.0827 0.5250
H73 H 1.0041 0.2298 0.4715
H74 H 0.8946 0.2383 0.4572
H75 H 0.9231 0.2408 0.3717
H76 H 0.7243 0.2472 0.0233
H77 H 0.6315 0.4587 0.0324
H78 H 0.7991 0.4127 -0.1253
H79 H 0.6750 0.3697 -0.1502
H80 H 0.7501 0.3140 -0.1078
H81 H 0.8469 0.5548 -0.0131
H82 H 0.8018 0.5476 0.0615
H83 H 0.7201 0.5213 -0.0498
H84 H 0.8880 0.3603 0.0656
H85 H 0.9114 0.4538 0.1291
H86 H 0.9439 0.4559 0.0461
H87 H 0.5941 0.4941 0.4841
H88 H 0.6221 0.4138 0.4509
H89 H 0.3989 0.1395 0.5086
H90 H 0.2719 0.1131 0.4651
H91 H 0.4994 -0.0692 0.3449
H92 H 0.4263 -0.1104 0.2339
H93 H 0.6379 0.1043 0.0446
H94 H 0.5152 0.0793 0.0192
H95 H 0.4056 0.3405 0.0682
H96 H 0.4499 0.4239 0.0266
Cl1 Cl 0.8183(2) 0.3975(1) 0.2913(1)
Cl2 Cl 0.8710(2) 0.5292(2) 0.4558(2)
Cl3 Cl 0.9122(3) 0.5932(2) 0.3046(2)
C66 C 0.8274(5) 0.5067(4) 0.3327(5)
H97 H 0.7535 0.5074 0.2998
C25? C 0.1024(18) 0.3440(2) 0.3323(14)
C26? C 0.0790(17) 0.2718(14) 0.1774(12)
C27? C 0.1882(17) 0.4392(10) 0.2476(19)
C38? C -0.0279(11) -0.1146(15) 0.1810(16)
C39? C 0.0458(14) -0.2344(7) 0.1689(19)
C40? C 0.0342(15) -0.1266(18) 0.0585(7)
H36? H 0.0369 0.3552 0.2970
H37? H 0.1512 0.3912 0.3909
H38? H 0.0832 0.2839 0.3480
H39? H 0.0177 0.2885 0.1416
H40? H 0.0532 0.2123 0.1916
H41? H 0.1152 0.2685 0.1397
H42? H 0.1221 0.4481 0.2077
H43? H 0.2302 0.4431 0.2138
H44? H 0.2311 0.4866 0.3067
H56? H -0.0166 -0.1230 0.2443
H57? H -0.1004 -0.1563 0.1333
H58? H -0.0202 -0.0514 0.1780
H59? H 0.0978 -0.2485 0.1549
H60? H -0.0274 -0.2769 0.1234
H61? H 0.0600 -0.2406 0.2334
H62? H 0.0894 -0.1367 0.0464
H63? H 0.0359 -0.0654 0.0514
H64? H -0.0369 -0.1724 0.0131
loop_
_geom_bond_atom_site_label_1
_geom_bond_atom_site_label_2
_geom_bond_site_symmetry_1
_geom_bond_site_symmetry_2
Si1 O2 1_555 1_555
Si2 O4 1_555 1_555
Cl1 C66 1_555 1_555
Cl2 C66 1_555 1_555
Cl3 C66 1_555 1_555
O1 C5 1_555 1_555
O2 C15 1_555 1_555
O3 Si1 1_555 1_555
O4 C41 1_555 1_555
O5 Si2 1_555 1_555
C1 Si1 1_555 1_555
C2 Si1 1_555 1_555
C3 Si2 1_555 1_555
C4 Si2 1_555 1_555
C5 C6 1_555 1_555
C6 C7 1_555 1_555
C7 C8 1_555 1_555
C8 C9 1_555 1_555
C9 C10 1_555 1_555
C10 C5 1_555 1_555
C11 C8 1_555 1_555
C12 C11 1_555 1_555
C13 C11 1_555 1_555
C14 C11 1_555 1_555
C15 C16 1_555 1_555
C16 C17 1_555 1_555
C17 C18 1_555 1_555
C18 C19 1_555 1_555
C19 C20 1_555 1_555
C20 C15 1_555 1_555
C21 C18 1_555 1_555
C22 C21 1_555 1_555
C23 C21 1_555 1_555
C24 C21 1_555 1_555
C28 O3 1_555 1_555
C29 C28 1_555 1_555
C30 C29 1_555 1_555
C31 C30 1_555 1_555
C32 C31 1_555 1_555
C33 C28 1_555 1_555
C34 C31 1_555 1_555
C35 C34 1_555 1_555
C36 C34 1_555 1_555
C37 C34 1_555 1_555
C41 C42 1_555 1_555
C42 C43 1_555 1_555
C43 C44 1_555 1_555
C44 C45 1_555 1_555
C45 C46 1_555 1_555
C46 C41 1_555 1_555
C47 C44 1_555 1_555
C48 C47 1_555 1_555
C49 C47 1_555 1_555
C50 C47 1_555 1_555
C51 O5 1_555 1_555
C52 C51 1_555 1_555
C53 C52 1_555 1_555
C54 C53 1_555 1_555
C55 C54 1_555 1_555
C56 C51 1_555 1_555
C57 C54 1_555 1_555
C58 C57 1_555 1_555
C59 C57 1_555 1_555
C60 C57 1_555 1_555
C61 C10 1_555 1_555
C62 C20 1_555 1_555
C63 C33 1_555 1_555
C64 C46 1_555 1_555
C65 C6 1_555 1_555
C66 H97 1_555 1_555
H1 O1 1_555 1_555
H2 C1 1_555 1_555
H3 C1 1_555 1_555
H4 C1 1_555 1_555
H5 C2 1_555 1_555
H6 C2 1_555 1_555
H7 C2 1_555 1_555
H8 C3 1_555 1_555
H9 C3 1_555 1_555
H10 C3 1_555 1_555
H11 C4 1_555 1_555
H12 C4 1_555 1_555
H13 C4 1_555 1_555
H14 C7 1_555 1_555
H15 C9 1_555 1_555
H16 C12 1_555 1_555
H17 C12 1_555 1_555
H18 C12 1_555 1_555
H19 C13 1_555 1_555
H20 C13 1_555 1_555
H21 C13 1_555 1_555
H22 C14 1_555 1_555
H23 C14 1_555 1_555
H24 C14 1_555 1_555
H25 C17 1_555 1_555
H26 C19 1_555 1_555
H27 C22 1_555 1_555
H28 C22 1_555 1_555
H29 C22 1_555 1_555
H30 C23 1_555 1_555
H31 C23 1_555 1_555
H32 C23 1_555 1_555
H33 C24 1_555 1_555
H34 C24 1_555 1_555
H35 C24 1_555 1_555
H45 C30 1_555 1_555
H46 C32 1_555 1_555
H47 C35 1_555 1_555
H48 C35 1_555 1_555
H49 C35 1_555 1_555
H50 C36 1_555 1_555
H51 C36 1_555 1_555
H52 C36 1_555 1_555
H53 C37 1_555 1_555
H54 C37 1_555 1_555
H55 C37 1_555 1_555
H65 C43 1_555 1_555
H66 C45 1_555 1_555
H67 C48 1_555 1_555
H68 C48 1_555 1_555
H69 C48 1_555 1_555
H70 C49 1_555 1_555
H71 C49 1_555 1_555
H72 C49 1_555 1_555
H73 C50 1_555 1_555
H74 C50 1_555 1_555
H75 C50 1_555 1_555
H76 C53 1_555 1_555
H77 C55 1_555 1_555
H78 C58 1_555 1_555
H79 C58 1_555 1_555
H80 C58 1_555 1_555
H81 C59 1_555 1_555
H82 C59 1_555 1_555
H83 C59 1_555 1_555
H84 C60 1_555 1_555
H85 C60 1_555 1_555
H86 C60 1_555 1_555
H87 C61 1_555 1_555
H88 C61 1_555 1_555
H89 C62 1_555 1_555
H90 C62 1_555 1_555
H91 C63 1_555 1_555
H92 C63 1_555 1_555
H93 C64 1_555 1_555
H94 C64 1_555 1_555
H95 C65 1_555 1_555
H96 C65 1_555 1_555
C16 C61 1_555 1_555
C29 C62 1_555 1_555
C32 C33 1_555 1_555
C42 C63 1_555 1_555
C52 C64 1_555 1_555
C55 C56 1_555 1_555
C56 C65 1_555 1_555

#END
