
#######################################################################
#
#                 Cambridge Crystallographic Data Centre
#                                CCDC 
#
#######################################################################
#
# If this CIF has been generated from an entry in the Cambridge 
# Structural Database, then it will include bibliographic, chemical, 
# crystal, experimental, refinement or atomic coordinate data resulting 
# from the CCDC's data processing and validation procedures.
#
#######################################################################

data_RABBEE
_chemical_formula_moiety         '2(C8 H5 Cl2 O3 1-),C2 H10 N2 2+'
_chemical_name_systematic        
'ethane-1,2-diaminium bis((2,4-dichlorophenoxy)acetate)'
_symmetry_cell_setting           monoclinic
_symmetry_space_group_name_H-M   'C 2/c'
_symmetry_Int_Tables_number      15
_space_group_name_Hall           '-C 2yn'
loop_
_symmetry_equiv_pos_site_id
_symmetry_equiv_pos_as_xyz
1 x,y,z
2 -x,y,1/2-z
3 1/2+x,1/2+y,z
4 1/2-x,1/2+y,1/2-z
5 -x,-y,-z
6 x,-y,1/2+z
7 1/2-x,1/2-y,-z
8 1/2+x,1/2-y,1/2+z
_cell_length_a                   40.328(7)
_cell_length_b                   7.2054(14)
_cell_length_c                   7.6464(17)
_cell_angle_alpha                90
_cell_angle_beta                 97.364(16)
_cell_angle_gamma                90
_cell_volume                     2203.56
_exptl_crystal_colour            colorless
_exptl_crystal_description       block
_cell_formula_units_Z            4
loop_
_atom_site_label
_atom_site_type_symbol
_atom_site_fract_x
_atom_site_fract_y
_atom_site_fract_z
Cl1 Cl 0.12421(6) 0.9323(3) 0.4681(4)
Cl2 Cl 0.01665(8) 0.7630(5) 0.0111(6)
O1 O 0.19725(13) 0.4880(7) 0.6514(7)
O2 O 0.14230(13) 0.5561(6) 0.4303(8)
O3 O 0.19055(15) 0.1813(7) 0.6277(7)
C1 C 0.1007(2) 0.7719(10) 0.3382(11)
C2 C 0.0527(2) 0.6932(13) 0.1421(14)
C3 C 0.11193(19) 0.5890(11) 0.3334(10)
C4 C 0.0925(2) 0.4607(11) 0.2361(11)
H1 H 0.0994 0.3376 0.2351
C5 C 0.0714(2) 0.8257(13) 0.2411(13)
H2 H 0.0642 0.9484 0.2418
C6 C 0.0628(2) 0.5132(14) 0.1398(13)
H3 H 0.0497 0.4259 0.0733
C7 C 0.15197(19) 0.3663(9) 0.4510(11)
H4 H 0.1570 0.3174 0.3392
H5 H 0.1337 0.2945 0.4872
C8 C 0.18244(19) 0.3489(10) 0.5883(10)
C9 C 0.24213(19) 0.1685(10) 0.0418(12)
H6 H 0.2511 0.0533 0.0022
H7 H 0.2473 0.1750 0.1690
N1 N 0.20557(17) 0.1725(10) -0.0081(10)
H8 H 0.197(2) 0.273(12) 0.038(12)
H9 H 0.197(2) 0.071(12) 0.033(12)
H10 H 0.201(2) 0.176(12) -0.125(12)
C9F C 0.25787(19) 0.3315(10) -0.0418(12)
H6F H 0.2489 0.4467 -0.0022
H7F H 0.2527 0.3250 -0.1690
N1F N 0.29443(17) 0.3275(10) 0.0081(10)
H8F H 0.303(2) 0.227(12) -0.038(12)
H9F H 0.303(2) 0.429(12) -0.033(12)
H10F H 0.299(2) 0.324(12) 0.125(12)
loop_
_geom_bond_atom_site_label_1
_geom_bond_atom_site_label_2
_geom_bond_site_symmetry_1
_geom_bond_site_symmetry_2
Cl1 C1 1_555 1_555
Cl2 C2 1_555 1_555
O1 C8 1_555 1_555
O2 C3 1_555 1_555
O3 C8 1_555 1_555
C1 C3 1_555 1_555
C2 C5 1_555 1_555
C3 C4 1_555 1_555
C4 H1 1_555 1_555
C5 C1 1_555 1_555
H2 C5 1_555 1_555
C6 C2 1_555 1_555
H3 C6 1_555 1_555
C7 O2 1_555 1_555
H4 C7 1_555 1_555
H5 C7 1_555 1_555
C8 C7 1_555 1_555
C9 H6 1_555 1_555
H7 C9 1_555 1_555
N1 C9 1_555 1_555
H8 N1 1_555 1_555
H9 N1 1_555 1_555
H10 N1 1_555 1_555
C9F C9 1_555 1_555
H6F C9F 1_555 1_555
H7F C9F 1_555 1_555
N1F C9F 1_555 1_555
H8F N1F 1_555 1_555
H9F N1F 1_555 1_555
H10F N1F 1_555 1_555
C4 C6 1_555 1_555

#END
