
#######################################################################
#
#                 Cambridge Crystallographic Data Centre
#                                CCDC 
#
#######################################################################
#
# If this CIF has been generated from an entry in the Cambridge 
# Structural Database, then it will include bibliographic, chemical, 
# crystal, experimental, refinement or atomic coordinate data resulting 
# from the CCDC's data processing and validation procedures.
#
#######################################################################

data_RABHOR
_chemical_formula_moiety         'C10 H8 Cl4 N5 P3 S2'
_chemical_name_systematic        
1,1-bis(Pyridyl-2-thiolato)-3,3,5,5-tetrachloro-cyclotriphosphazene
_symmetry_cell_setting           monoclinic
_symmetry_space_group_name_H-M   'P 21/n'
_symmetry_Int_Tables_number      14
_space_group_name_Hall           '-P 2yn'
loop_
_symmetry_equiv_pos_site_id
_symmetry_equiv_pos_as_xyz
1 x,y,z
2 1/2-x,1/2+y,1/2-z
3 -x,-y,-z
4 1/2+x,1/2-y,1/2+z
_cell_length_a                   8.672(4)
_cell_length_b                   15.276(5)
_cell_length_c                   14.221(2)
_cell_angle_alpha                90
_cell_angle_beta                 98.80(2)
_cell_angle_gamma                90
_cell_volume                     1861.73
_exptl_crystal_colour            colorless
_chemical_melting_point          130-133deg.C
_cell_formula_units_Z            4
loop_
_atom_site_label
_atom_site_type_symbol
_atom_site_fract_x
_atom_site_fract_y
_atom_site_fract_z
P1 P 0.1064(1) 0.8592(1) 0.7852(1)
P2 P -0.0157(2) 0.6936(1) 0.7573(1)
P3 P -0.2121(2) 0.8341(1) 0.7478(1)
N1 N 0.1290(5) 0.7557(3) 0.7757(3)
N2 N -0.1869(5) 0.7321(3) 0.7430(3)
N3 N -0.0673(4) 0.8965(2) 0.7715(3)
N4 N 0.0247(6) 0.8388(3) 0.5767(3)
N5 N 0.0061(6) 0.8063(3) 0.9668(3)
S1 S 0.2384(2) 0.9269(1) 0.6984(1)
S2 S 0.2306(2) 0.9061(1) 0.9127(1)
Cl1 Cl 0.0070(2) 0.6154(1) 0.6474(1)
Cl2 Cl -0.0002(2) 0.6040(1) 0.8619(1)
Cl3 Cl -0.3427(2) 0.8742(1) 0.6268(1)
Cl4 Cl -0.3614(2) 0.8574(1) 0.8389(1)
C1 C 0.1363(6) 0.8979(3) 0.5833(3)
C2 C -0.0474(8) 0.8199(4) 0.4889(4)
C3 C -0.0108(7) 0.8577(4) 0.4086(4)
C4 C 0.1053(7) 0.9188(4) 0.4175(4)
C5 C 0.1824(7) 0.9400(4) 0.5064(4)
C6 C 0.0977(6) 0.8741(3) 0.9913(3)
C7 C -0.0891(7) 0.7822(4) 1.0269(4)
C8 C -0.0939(8) 0.8241(4) 1.1125(4)
C9 C -0.0012(7) 0.8943(4) 1.1349(4)
C10 C 0.0977(7) 0.9220(4) 1.0738(3)
H1 H -0.1269(8) 0.7785(4) 0.4825(4)
H2 H -0.0637(7) 0.8423(4) 0.3490(4)
H3 H 0.1322(7) 0.9459(4) 0.3638(4)
H4 H 0.2624(7) 0.9811(4) 0.5143(4)
H5 H -0.1555(7) 0.7350(4) 1.0107(4)
H6 H -0.1597(8) 0.8043(4) 1.1539(4)
H7 H -0.0040(7) 0.9240(4) 1.1917(4)
H8 H 0.1615(7) 0.9708(4) 1.0874(3)
loop_
_geom_bond_atom_site_label_1
_geom_bond_atom_site_label_2
_geom_bond_site_symmetry_1
_geom_bond_site_symmetry_2
P1 N1 1_555 1_555
P2 N1 1_555 1_555
P3 N2 1_555 1_555
N2 P2 1_555 1_555
N3 P1 1_555 1_555
N4 C1 1_555 1_555
N5 C6 1_555 1_555
S1 P1 1_555 1_555
S2 P1 1_555 1_555
Cl1 P2 1_555 1_555
Cl2 P2 1_555 1_555
Cl3 P3 1_555 1_555
Cl4 P3 1_555 1_555
C1 S1 1_555 1_555
C2 N4 1_555 1_555
C3 C2 1_555 1_555
C4 C3 1_555 1_555
C5 C1 1_555 1_555
C6 S2 1_555 1_555
C7 N5 1_555 1_555
C8 C7 1_555 1_555
C9 C8 1_555 1_555
C10 C6 1_555 1_555
H1 C2 1_555 1_555
H2 C3 1_555 1_555
H3 C4 1_555 1_555
H4 C5 1_555 1_555
H5 C7 1_555 1_555
H6 C8 1_555 1_555
H7 C9 1_555 1_555
H8 C10 1_555 1_555
P3 N3 1_555 1_555
C4 C5 1_555 1_555
C9 C10 1_555 1_555

#END
