
#######################################################################
#
#                 Cambridge Crystallographic Data Centre
#                                CCDC 
#
#######################################################################
#
# If this CIF has been generated from an entry in the Cambridge 
# Structural Database, then it will include bibliographic, chemical, 
# crystal, experimental, refinement or atomic coordinate data resulting 
# from the CCDC's data processing and validation procedures.
#
#######################################################################

data_RABKOV
_chemical_formula_moiety         'C17 H16 N2 O2'
_chemical_name_systematic        
anti-5-(Hydroxy(phenyl)methyl)-4-methyl-1-(pyridin-2-yl)-1,5-dihydropyrrole-2-one
_symmetry_cell_setting           orthorhombic
_symmetry_space_group_name_H-M   'P b c a'
_symmetry_Int_Tables_number      61
_space_group_name_Hall           '-P 2ac 2ab'
loop_
_symmetry_equiv_pos_site_id
_symmetry_equiv_pos_as_xyz
1 x,y,z
2 1/2+x,y,1/2-z
3 1/2-x,1/2+y,z
4 x,1/2-y,1/2+z
5 -x,-y,-z
6 1/2-x,-y,1/2+z
7 1/2+x,1/2-y,-z
8 -x,1/2+y,1/2-z
_cell_length_a                   7.4603(1)
_cell_length_b                   18.4567(3)
_cell_length_c                   20.7189(5)
_cell_angle_alpha                90
_cell_angle_beta                 90
_cell_angle_gamma                90
_cell_volume                     2852.84
_exptl_crystal_colour            colorless
_exptl_crystal_description       block
_chemical_melting_point          124-125deg.C
_cell_formula_units_Z            8
loop_
_atom_site_label
_atom_site_type_symbol
_atom_site_fract_x
_atom_site_fract_y
_atom_site_fract_z
O1 O 0.54191(13) 0.24089(5) 0.27497(4)
H1 H 0.138(2) 0.3013(9) 0.1673(9)
O2 O 0.18357(12) 0.33265(5) 0.13651(4)
N1 N 0.44999(13) 0.22313(5) 0.16905(4)
N2 N 0.30274(14) 0.12921(5) 0.11807(5)
C1 C 0.53491(17) 0.26001(6) 0.21788(6)
C2 C 0.61350(18) 0.32487(7) 0.18893(7)
H2 H 0.6830 0.3597 0.2116
C3 C 0.57399(17) 0.32818(6) 0.12660(6)
C4 C 0.45448(16) 0.26533(6) 0.10867(5)
H3 H 0.5113 0.2361 0.0735
C5 C 0.6345(2) 0.38446(7) 0.07949(7)
H4 H 0.7297 0.4138 0.0990
H5 H 0.5331 0.4157 0.0681
H6 H 0.6804 0.3608 0.0405
C6 C 0.26246(16) 0.28876(6) 0.08831(5)
H7 H 0.1878 0.2441 0.0835
C7 C 0.26223(15) 0.32836(6) 0.02427(5)
C8 C 0.17878(17) 0.39547(6) 0.01801(6)
H8 H 0.1203 0.4166 0.0541
C9 C 0.18055(18) 0.43187(7) -0.04085(6)
H9 H 0.1240 0.4778 -0.0446
C10 C 0.26398(18) 0.40166(8) -0.09384(6)
H10 H 0.2664 0.4270 -0.1337
C11 C 0.34421(18) 0.33426(7) -0.08872(6)
H11 H 0.3997 0.3129 -0.1253
C12 C 0.34349(16) 0.29793(6) -0.03002(6)
H12 H 0.3990 0.2518 -0.0268
C13 C 0.38586(16) 0.15115(6) 0.17139(5)
C14 C 0.41610(18) 0.10637(6) 0.22468(6)
H13 H 0.4752 0.1239 0.2622
C15 C 0.3567(2) 0.03551(7) 0.22079(6)
H14 H 0.3766 0.0033 0.2558
C16 C 0.2684(2) 0.01141(6) 0.16602(7)
H15 H 0.2257 -0.0370 0.1628
C17 C 0.24464(19) 0.06026(6) 0.11647(7)
H16 H 0.1835 0.0443 0.0789
loop_
_geom_bond_atom_site_label_1
_geom_bond_atom_site_label_2
_geom_bond_site_symmetry_1
_geom_bond_site_symmetry_2
O1 C1 1_555 1_555
H1 O2 1_555 1_555
O2 C6 1_555 1_555
N1 C1 1_555 1_555
N2 C13 1_555 1_555
C1 C2 1_555 1_555
C2 H2 1_555 1_555
C3 C2 1_555 1_555
C4 N1 1_555 1_555
H3 C4 1_555 1_555
C5 C3 1_555 1_555
H4 C5 1_555 1_555
H5 C5 1_555 1_555
H6 C5 1_555 1_555
C6 C4 1_555 1_555
H7 C6 1_555 1_555
C7 C6 1_555 1_555
C8 C7 1_555 1_555
H8 C8 1_555 1_555
C9 C8 1_555 1_555
H9 C9 1_555 1_555
C10 C9 1_555 1_555
H10 C10 1_555 1_555
C11 C10 1_555 1_555
H11 C11 1_555 1_555
C12 C7 1_555 1_555
H12 C12 1_555 1_555
C13 N1 1_555 1_555
C14 C13 1_555 1_555
H13 C14 1_555 1_555
C15 C14 1_555 1_555
H14 C15 1_555 1_555
C16 C15 1_555 1_555
H15 C16 1_555 1_555
C17 N2 1_555 1_555
H16 C17 1_555 1_555
C3 C4 1_555 1_555
C11 C12 1_555 1_555
C16 C17 1_555 1_555

#END
