
#######################################################################
#
#                 Cambridge Crystallographic Data Centre
#                                CCDC 
#
#######################################################################
#
# If this CIF has been generated from an entry in the Cambridge 
# Structural Database, then it will include bibliographic, chemical, 
# crystal, experimental, refinement or atomic coordinate data resulting 
# from the CCDC's data processing and validation procedures.
#
#######################################################################

data_RACVAU
_chemical_formula_moiety         'C24 H22 N4 O4'
_chemical_name_systematic        
2-(2-Diacetylpyridinyl-3-ethylene)-7-acetylamino-1,8-naphthyridine
_symmetry_cell_setting           triclinic
_symmetry_space_group_name_H-M   'P -1'
_symmetry_Int_Tables_number      2
_space_group_name_Hall           '-P 1'
loop_
_symmetry_equiv_pos_site_id
_symmetry_equiv_pos_as_xyz
1 x,y,z
2 -x,-y,-z
_cell_length_a                   8.1747(9)
_cell_length_b                   10.9683(16)
_cell_length_c                   13.163(2)
_cell_angle_alpha                72.119(2)
_cell_angle_beta                 88.134(3)
_cell_angle_gamma                73.414(2)
_cell_volume                     1074.52
_exptl_crystal_colour            red
_chemical_melting_point          '197-198 deg.C'
_cell_formula_units_Z            2
_exptl_crystal_recrystallization_method 'diethyl ether/dichloromethane'
loop_
_atom_site_label
_atom_site_type_symbol
_atom_site_fract_x
_atom_site_fract_y
_atom_site_fract_z
N1 N 0.2587(2) 0.48549(17) 0.00503(14)
H1 H 0.2010 0.5654 0.0026
N2 N 0.3972(2) 0.48051(17) 0.15601(14)
N3 N 0.4344(3) 0.8841(2) 0.42033(17)
N4 N 0.2595(3) 0.87576(18) 0.28718(16)
O1 O 0.0386(2) 0.70588(15) -0.08900(13)
O2 O 0.0351(3) 0.5423(2) -0.33482(17)
O3 O 0.4446(3) 0.92902(18) 0.16252(14)
O4 O -0.0309(3) 0.9611(2) 0.2696(2)
C1 C 0.3789(3) 0.4159(2) 0.08762(17)
C2 C 0.5137(3) 0.4125(2) 0.23742(18)
C3 C 0.6107(3) 0.2792(2) 0.25346(19)
H2 H 0.6879 0.2341 0.3125
C4 C 0.5915(3) 0.2159(2) 0.1821(2)
H3 H 0.6566 0.1281 0.1913
C5 C 0.4736(3) 0.2840(2) 0.09569(18)
C6 C 0.4408(3) 0.2337(2) 0.01346(19)
H4 H 0.5019 0.1469 0.0162
C7 C 0.3254(3) 0.3066(2) -0.06743(19)
H5 H 0.3111 0.2708 -0.1209
C8 C 0.2226(3) 0.4393(2) -0.07376(18)
C9 C 0.0995(3) 0.5238(2) -0.15656(18)
C10 C 0.0141(3) 0.6597(2) -0.16115(19)
C11 C -0.1132(3) 0.7520(3) -0.2516(2)
H6 H -0.1847 0.8248 -0.2300
H7 H -0.1826 0.7035 -0.2698
H8 H -0.0535 0.7865 -0.3127
C12 C 0.0549(3) 0.4736(3) -0.2399(2)
C13 C 0.0179(4) 0.3401(3) -0.2105(3)
H9 H -0.0891 0.3509 -0.2453
H10 H 0.0115 0.3070 -0.1344
H11 H 0.1077 0.2776 -0.2332
C14 C 0.5436(3) 0.4824(2) 0.31022(18)
H12 H 0.6211 0.4331 0.3685
C15 C 0.4692(3) 0.6104(2) 0.29997(18)
H13 H 0.3858 0.6580 0.2446
C16 C 0.4057(3) 0.8117(2) 0.36193(18)
C17 C 0.5070(3) 0.6830(2) 0.36812(17)
C18 C 0.6471(3) 0.6308(2) 0.44152(19)
H14 H 0.7201 0.5458 0.4491
C19 C 0.6791(3) 0.7035(3) 0.5030(2)
H15 H 0.7728 0.6686 0.5522
C20 C 0.5696(3) 0.8283(3) 0.4902(2)
H16 H 0.5907 0.8769 0.5325
C21 C 0.2977(4) 0.9307(2) 0.1797(2)
C22 C 0.1601(4) 0.9825(3) 0.0929(2)
H17 H 0.2097 1.0004 0.0248
H18 H 0.0815 1.0636 0.0986
H19 H 0.1004 0.9170 0.0995
C23 C 0.0950(4) 0.8919(3) 0.3256(3)
C24 C 0.0843(4) 0.8167(4) 0.4394(3)
H20 H 0.1321 0.8535 0.4846
H21 H 0.1471 0.7243 0.4529
H22 H -0.0332 0.8239 0.4542
loop_
_geom_bond_atom_site_label_1
_geom_bond_atom_site_label_2
_geom_bond_site_symmetry_1
_geom_bond_site_symmetry_2
N1 H1 1_555 1_555
N2 C1 1_555 1_555
N3 C16 1_555 1_555
N4 C16 1_555 1_555
O1 C10 1_555 1_555
O2 C12 1_555 1_555
O3 C21 1_555 1_555
O4 C23 1_555 1_555
C1 N1 1_555 1_555
C2 N2 1_555 1_555
C3 C2 1_555 1_555
H2 C3 1_555 1_555
C4 C3 1_555 1_555
H3 C4 1_555 1_555
C5 C1 1_555 1_555
C6 C5 1_555 1_555
H4 C6 1_555 1_555
C7 C6 1_555 1_555
H5 C7 1_555 1_555
C8 N1 1_555 1_555
C9 C8 1_555 1_555
C10 C9 1_555 1_555
C11 C10 1_555 1_555
H6 C11 1_555 1_555
H7 C11 1_555 1_555
H8 C11 1_555 1_555
C12 C9 1_555 1_555
C13 C12 1_555 1_555
H9 C13 1_555 1_555
H10 C13 1_555 1_555
H11 C13 1_555 1_555
C14 C2 1_555 1_555
H12 C14 1_555 1_555
C15 C14 1_555 1_555
H13 C15 1_555 1_555
C16 C17 1_555 1_555
C17 C15 1_555 1_555
C18 C17 1_555 1_555
H14 C18 1_555 1_555
C19 C18 1_555 1_555
H15 C19 1_555 1_555
C20 N3 1_555 1_555
H16 C20 1_555 1_555
C21 N4 1_555 1_555
C22 C21 1_555 1_555
H17 C22 1_555 1_555
H18 C22 1_555 1_555
H19 C22 1_555 1_555
C23 N4 1_555 1_555
C24 C23 1_555 1_555
H20 C24 1_555 1_555
H21 C24 1_555 1_555
H22 C24 1_555 1_555
C4 C5 1_555 1_555
C7 C8 1_555 1_555
C19 C20 1_555 1_555

#END
