
#######################################################################
#
#                 Cambridge Crystallographic Data Centre
#                                CCDC 
#
#######################################################################
#
# If this CIF has been generated from an entry in the Cambridge 
# Structural Database, then it will include bibliographic, chemical, 
# crystal, experimental, refinement or atomic coordinate data resulting 
# from the CCDC's data processing and validation procedures.
#
#######################################################################

data_RADCOO
_chemical_formula_moiety         'C52 H88 O2 Si4'
_chemical_name_systematic        
(E,E,E)-6,7-bis((Tri-isopropylsilyl)ethynyl)-1,12-bis(tri-isopropyl)dodeca-4,6,8-triene-1,1-diyne-3,10-dione
_symmetry_cell_setting           monoclinic
_symmetry_space_group_name_H-M   'P 21/n'
_symmetry_Int_Tables_number      14
_space_group_name_Hall           '-P 2yn'
loop_
_symmetry_equiv_pos_site_id
_symmetry_equiv_pos_as_xyz
1 x,y,z
2 1/2-x,1/2+y,1/2-z
3 -x,-y,-z
4 1/2+x,1/2-y,1/2+z
_cell_length_a                   15.639(15)
_cell_length_b                   13.910(11)
_cell_length_c                   26.95(2)
_cell_angle_alpha                90
_cell_angle_beta                 96.39(8)
_cell_angle_gamma                90
_cell_volume                     5826.24
_exptl_crystal_colour            yellow
_chemical_melting_point          208deg.C
_cell_formula_units_Z            4
loop_
_atom_site_label
_atom_site_type_symbol
_atom_site_fract_x
_atom_site_fract_y
_atom_site_fract_z
Si1 Si 0.3082(1) 0.3345(1) 0.1575(1)
Si2 Si 0.8932(1) -0.0939(2) 0.1085(1)
Si3 Si 0.1047(2) 0.3137(2) 0.4081(1)
O1 O 0.6140(4) 0.1186(5) 0.1048(2)
Si4 Si 0.6882(1) -0.0988(2) 0.3616(1)
O2 O 0.3783(3) 0.0981(5) 0.4066(2)
C1 C 0.3740(4) 0.2546(5) 0.1998(3)
C2 C 0.4153(4) 0.1986(5) 0.2283(3)
C3 C 0.5324(4) 0.0869(4) 0.2498(3)
C4 C 0.5616(4) 0.0981(5) 0.2016(3)
C5 C 0.6292(4) 0.0528(5) 0.1856(3)
C6 C 0.6540(5) 0.0684(5) 0.1358(3)
C7 C 0.7305(5) 0.0190(5) 0.1233(3)
C8 C 0.7947(5) -0.0238(5) 0.1162(3)
C9 C 0.3993(15) 0.2579(18) 0.0818(6)
C10 C 0.3592(13) 0.3348(12) 0.0982(4)
C11 C 0.3137(13) 0.4041(14) 0.0586(5)
C12 C 0.2835(19) 0.4582(13) 0.2343(6)
C13 C 0.3132(8) 0.4569(7) 0.1843(4)
C14 C 0.4042(13) 0.5026(12) 0.1861(9)
C15 C 0.1738(9) 0.2058(12) 0.1751(7)
C16 C 0.1955(7) 0.2921(11) 0.1606(7)
C17 C 0.1285(7) 0.3515(10) 0.1305(8)
C18 C 0.9483(8) -0.2330(11) 0.0412(6)
C19 C 0.8775(8) -0.1571(11) 0.0472(5)
C20 C 0.7974(11) -0.1845(16) 0.0292(7)
C21 C 0.9690(9) 0.0700(10) 0.0691(5)
C22 C 0.9835(5) -0.0079(8) 0.1119(5)
C23 C 1.0736(6) -0.0561(12) 0.1152(10)
C24 C 0.9209(10) -0.1221(12) 0.2122(5)
C25 C 0.9050(7) -0.1751(8) 0.1636(4)
C26 C 0.8274(9) -0.2453(9) 0.1650(5)
C27 C 0.6223(4) -0.0234(5) 0.3153(3)
C28 C 0.5804(4) 0.0262(5) 0.2850(3)
C29 C 0.4622(4) 0.1354(4) 0.2628(3)
C30 C 0.4325(4) 0.1243(4) 0.3111(3)
C31 C 0.3649(4) 0.1673(5) 0.3268(3)
C32 C 0.3394(5) 0.1505(5) 0.3764(3)
C33 C 0.2621(5) 0.1997(5) 0.3878(3)
C34 C 0.1998(5) 0.2436(6) 0.3958(3)
C35 C 0.6114(13) -0.0031(14) 0.4384(6)
C36 C 0.6343(14) -0.0951(13) 0.4208(4)
C37 C 0.6776(15) -0.1651(16) 0.4615(5)
C38 C 0.8267(8) 0.0220(13) 0.3370(7)
C39 C 0.7978(8) -0.0487(15) 0.3679(10)
C40 C 0.8645(10) -0.1041(18) 0.3966(10)
C41 C 0.5921(9) -0.2618(10) 0.3272(6)
C42 C 0.6826(7) -0.2222(7) 0.3348(4)
C43 C 0.7274(10) -0.2314(11) 0.2875(6)
C44 C 0.0440(16) 0.3208(16) 0.3084(6)
C45 C 0.0758(10) 0.3878(12) 0.3515(6)
C46 C 0.1488(12) 0.4615(12) 0.3434(7)
C47 C 0.0422(10) 0.1558(12) 0.4617(7)
C48 C 0.0206(7) 0.2258(11) 0.4210(7)
C49 C -0.0704(8) 0.2792(14) 0.4203(8)
C50 C 0.2320(12) 0.4089(14) 0.4767(7)
C51 C 0.1422(11) 0.3882(12) 0.4650(7)
C52 C 0.0841(12) 0.4692(14) 0.4693(8)
H1 H 0.5312 0.1412 0.1781
H2 H 0.6610 0.0094 0.2085
H3 H 0.4235 0.2715 0.0514
H4 H 0.4438 0.2361 0.1067
H5 H 0.3562 0.2087 0.0759
H6 H 0.4087 0.3742 0.1076
H7 H 0.3412 0.4051 0.0285
H8 H 0.2567 0.3783 0.0516
H9 H 0.3105 0.4684 0.0713
H10 H 0.2859 0.5223 0.2476
H11 H 0.2257 0.4342 0.2329
H12 H 0.3214 0.4173 0.2554
H13 H 0.2741 0.4969 0.1635
H14 H 0.4037 0.5661 0.2000
H15 H 0.4441 0.4631 0.2066
H16 H 0.4212 0.5060 0.1530
H17 H 0.1129 0.1976 0.1673
H18 H 0.2032 0.1510 0.1635
H19 H 0.1875 0.2119 0.2106
H20 H 0.2031 0.2563 0.1310
H21 H 0.0718 0.3248 0.1297
H22 H 0.1299 0.4135 0.1463
H23 H 0.1432 0.3582 0.0971
H24 H 0.9359 -0.2622 0.0089
H25 H 1.0047 -0.2051 0.0440
H26 H 0.9459 -0.2810 0.0666
H27 H 0.8925 -0.1083 0.0246
H28 H 0.8016 -0.2156 -0.0022
H29 H 0.7729 -0.2283 0.0513
H30 H 0.7613 -0.1288 0.0240
H31 H 1.0158 0.1151 0.0714
H32 H 0.9654 0.0374 0.0376
H33 H 0.9162 0.1037 0.0719
H34 H 0.9840 0.0267 0.1427
H35 H 1.1209 -0.0118 0.1163
H36 H 1.0799 -0.0956 0.1446
H37 H 1.0731 -0.0961 0.0862
H38 H 0.9273 -0.1651 0.2403
H39 H 0.9729 -0.0857 0.2113
H40 H 0.8738 -0.0791 0.2153
H41 H 0.9549 -0.2140 0.1608
H42 H 0.8355 -0.2859 0.1940
H43 H 0.7754 -0.2088 0.1656
H44 H 0.8232 -0.2843 0.1354
H45 H 0.4633 0.0824 0.3351
H46 H 0.3318 0.2100 0.3042
H47 H 0.5804 -0.0078 0.4671
H48 H 0.6647 0.0302 0.4473
H49 H 0.5775 0.0317 0.4124
H50 H 0.5799 -0.1260 0.4119
H51 H 0.6516 -0.1677 0.4922
H52 H 0.6794 -0.2286 0.4477
H53 H 0.7350 -0.1403 0.4680
H54 H 0.8828 0.0471 0.3479
H55 H 0.8292 -0.0163 0.3075
H56 H 0.7872 0.0743 0.3296
H57 H 0.7887 -0.0013 0.3927
H58 H 0.9200 -0.0740 0.4016
H59 H 0.8449 -0.1179 0.4283
H60 H 0.8686 -0.1628 0.3783
H61 H 0.5918 -0.3256 0.3136
H62 H 0.5707 -0.2636 0.3592
H63 H 0.5561 -0.2208 0.3051
H64 H 0.7158 -0.2626 0.3585
H65 H 0.7242 -0.2962 0.2752
H66 H 0.6972 -0.1894 0.2633
H67 H 0.7865 -0.2120 0.2935
H68 H 0.0292 0.3619 0.2801
H69 H 0.0889 0.2775 0.3013
H70 H -0.0057 0.2845 0.3151
H71 H 0.0276 0.4266 0.3583
H72 H 0.1356 0.5000 0.3139
H73 H 0.1566 0.5026 0.3722
H74 H 0.2007 0.4259 0.3408
H75 H -0.0055 0.1137 0.4651
H76 H 0.0906 0.1187 0.4538
H77 H 0.0571 0.1896 0.4925
H78 H 0.0094 0.1878 0.3912
H79 H -0.1154 0.2364 0.4278
H80 H -0.0604 0.3264 0.4463
H81 H -0.0871 0.3108 0.3890
H82 H 0.2394 0.4476 0.5063
H83 H 0.2606 0.3483 0.4831
H84 H 0.2564 0.4415 0.4502
H85 H 0.1261 0.3492 0.4919
H86 H 0.1052 0.5051 0.4986
H87 H 0.0873 0.5083 0.4402
H88 H 0.0255 0.4509 0.4714
loop_
_geom_bond_atom_site_label_1
_geom_bond_atom_site_label_2
_geom_bond_site_symmetry_1
_geom_bond_site_symmetry_2
Si1 C1 1_555 1_555
Si2 C8 1_555 1_555
Si3 C34 1_555 1_555
O1 C6 1_555 1_555
Si4 C27 1_555 1_555
O2 C32 1_555 1_555
C1 C2 1_555 1_555
C2 C29 1_555 1_555
C3 C4 1_555 1_555
C4 C5 1_555 1_555
C5 C6 1_555 1_555
C6 C7 1_555 1_555
C7 C8 1_555 1_555
C9 C10 1_555 1_555
C10 Si1 1_555 1_555
C11 C10 1_555 1_555
C12 C13 1_555 1_555
C13 Si1 1_555 1_555
C14 C13 1_555 1_555
C15 C16 1_555 1_555
C16 Si1 1_555 1_555
C17 C16 1_555 1_555
C18 C19 1_555 1_555
C19 Si2 1_555 1_555
C20 C19 1_555 1_555
C21 C22 1_555 1_555
C22 Si2 1_555 1_555
C23 C22 1_555 1_555
C24 C25 1_555 1_555
C25 Si2 1_555 1_555
C26 C25 1_555 1_555
C27 C28 1_555 1_555
C28 C3 1_555 1_555
C29 C3 1_555 1_555
C30 C29 1_555 1_555
C31 C30 1_555 1_555
C32 C31 1_555 1_555
C33 C32 1_555 1_555
C34 C33 1_555 1_555
C35 C36 1_555 1_555
C36 Si4 1_555 1_555
C37 C36 1_555 1_555
C38 C39 1_555 1_555
C39 Si4 1_555 1_555
C40 C39 1_555 1_555
C41 C42 1_555 1_555
C42 Si4 1_555 1_555
C43 C42 1_555 1_555
C44 C45 1_555 1_555
C45 Si3 1_555 1_555
C46 C45 1_555 1_555
C47 C48 1_555 1_555
C48 Si3 1_555 1_555
C49 C48 1_555 1_555
C50 C51 1_555 1_555
C51 Si3 1_555 1_555
C52 C51 1_555 1_555
H1 C4 1_555 1_555
H2 C5 1_555 1_555
H3 C9 1_555 1_555
H4 C9 1_555 1_555
H5 C9 1_555 1_555
H6 C10 1_555 1_555
H7 C11 1_555 1_555
H8 C11 1_555 1_555
H9 C11 1_555 1_555
H10 C12 1_555 1_555
H11 C12 1_555 1_555
H12 C12 1_555 1_555
H13 C13 1_555 1_555
H14 C14 1_555 1_555
H15 C14 1_555 1_555
H16 C14 1_555 1_555
H17 C15 1_555 1_555
H18 C15 1_555 1_555
H19 C15 1_555 1_555
H20 C16 1_555 1_555
H21 C17 1_555 1_555
H22 C17 1_555 1_555
H23 C17 1_555 1_555
H24 C18 1_555 1_555
H25 C18 1_555 1_555
H26 C18 1_555 1_555
H27 C19 1_555 1_555
H28 C20 1_555 1_555
H29 C20 1_555 1_555
H30 C20 1_555 1_555
H31 C21 1_555 1_555
H32 C21 1_555 1_555
H33 C21 1_555 1_555
H34 C22 1_555 1_555
H35 C23 1_555 1_555
H36 C23 1_555 1_555
H37 C23 1_555 1_555
H38 C24 1_555 1_555
H39 C24 1_555 1_555
H40 C24 1_555 1_555
H41 C25 1_555 1_555
H42 C26 1_555 1_555
H43 C26 1_555 1_555
H44 C26 1_555 1_555
H45 C30 1_555 1_555
H46 C31 1_555 1_555
H47 C35 1_555 1_555
H48 C35 1_555 1_555
H49 C35 1_555 1_555
H50 C36 1_555 1_555
H51 C37 1_555 1_555
H52 C37 1_555 1_555
H53 C37 1_555 1_555
H54 C38 1_555 1_555
H55 C38 1_555 1_555
H56 C38 1_555 1_555
H57 C39 1_555 1_555
H58 C40 1_555 1_555
H59 C40 1_555 1_555
H60 C40 1_555 1_555
H61 C41 1_555 1_555
H62 C41 1_555 1_555
H63 C41 1_555 1_555
H64 C42 1_555 1_555
H65 C43 1_555 1_555
H66 C43 1_555 1_555
H67 C43 1_555 1_555
H68 C44 1_555 1_555
H69 C44 1_555 1_555
H70 C44 1_555 1_555
H71 C45 1_555 1_555
H72 C46 1_555 1_555
H73 C46 1_555 1_555
H74 C46 1_555 1_555
H75 C47 1_555 1_555
H76 C47 1_555 1_555
H77 C47 1_555 1_555
H78 C48 1_555 1_555
H79 C49 1_555 1_555
H80 C49 1_555 1_555
H81 C49 1_555 1_555
H82 C50 1_555 1_555
H83 C50 1_555 1_555
H84 C50 1_555 1_555
H85 C51 1_555 1_555
H86 C52 1_555 1_555
H87 C52 1_555 1_555
H88 C52 1_555 1_555

#END
