
#######################################################################
#
#                 Cambridge Crystallographic Data Centre
#                                CCDC 
#
#######################################################################
#
# If this CIF has been generated from an entry in the Cambridge 
# Structural Database, then it will include bibliographic, chemical, 
# crystal, experimental, refinement or atomic coordinate data resulting 
# from the CCDC's data processing and validation procedures.
#
#######################################################################

data_RADYIH
_chemical_formula_moiety         'C18 H19 N1 O2 S1'
_chemical_name_systematic        
'8-methyl-9-phenyl-8,9,10,10a-tetrahydro-7H-pyrido[1,2-b][1,2]benzothiazole 5,5-dioxide'
_symmetry_cell_setting           orthorhombic
_symmetry_space_group_name_H-M   'P c a 21'
_symmetry_Int_Tables_number      29
_space_group_name_Hall           'P 2c -2ac'
loop_
_symmetry_equiv_pos_site_id
_symmetry_equiv_pos_as_xyz
1 x,y,z
2 -x,-y,1/2+z
3 1/2-x,y,1/2+z
4 1/2+x,-y,z
_cell_length_a                   13.5652(5)
_cell_length_b                   5.65988(18)
_cell_length_c                   20.4099(6)
_cell_angle_alpha                90
_cell_angle_beta                 90
_cell_angle_gamma                90
_cell_volume                     1567.02
_exptl_crystal_colour            colorless
_exptl_crystal_description       block
_cell_formula_units_Z            4
loop_
_atom_site_label
_atom_site_type_symbol
_atom_site_fract_x
_atom_site_fract_y
_atom_site_fract_z
S1 S 0.92373(4) 0.73585(10) 0.98127(3)
O1 O 0.97630(16) 0.5794(4) 1.02375(11)
O2 O 0.98604(18) 0.8858(4) 0.94273(12)
N1 N 0.84435(17) 0.6065(5) 0.93488(13)
C1 C 0.8470(2) 1.0722(5) 1.06845(13)
H1 H 0.9096 1.1330 1.0764
C2 C 0.7646(2) 1.1613(5) 1.10008(14)
H2 H 0.7716 1.2845 1.1299
C3 C 0.6723(2) 1.0697(6) 1.08788(14)
H3 H 0.6180 1.1320 1.1097
C4 C 0.6587(2) 0.8857(5) 1.04359(13)
H4 H 0.5961 0.8249 1.0359
C5 C 0.73964(19) 0.7950(5) 1.01130(12)
C6 C 0.83237(19) 0.8885(4) 1.02453(12)
C7 C 0.74316(18) 0.5979(5) 0.96216(12)
H5 H 0.7326 0.4463 0.9843
C8 C 0.67374(17) 0.6187(4) 0.90405(12)
H6 H 0.6834 0.7702 0.8828
H7 H 0.6060 0.6108 0.9192
C9 C 0.69289(18) 0.4187(4) 0.85474(12)
H8 H 0.6783 0.2694 0.8770
C10 C 0.80262(18) 0.4108(4) 0.83379(13)
H9 H 0.8161 0.5533 0.8080
C11 C 0.8710(2) 0.4121(6) 0.89160(15)
H10 H 0.8661 0.2634 0.9150
H11 H 0.9385 0.4310 0.8768
C12 C 0.8267(2) 0.1986(6) 0.79117(16)
H12 H 0.8135 0.0561 0.8151
H13 H 0.8950 0.2032 0.7791
H14 H 0.7867 0.2024 0.7524
C13 C 0.62560(19) 0.4340(4) 0.79553(11)
C14 C 0.5559(2) 0.2618(4) 0.78334(13)
H15 H 0.5487 0.1370 0.8126
C15 C 0.4962(2) 0.2719(5) 0.72786(14)
H16 H 0.4498 0.1539 0.7206
C16 C 0.5050(2) 0.4524(5) 0.68422(13)
H17 H 0.4652 0.4583 0.6472
C17 C 0.5739(2) 0.6264(6) 0.69571(15)
H18 H 0.5810 0.7498 0.6660
C18 C 0.6323(2) 0.6187(5) 0.75086(14)
H19 H 0.6773 0.7398 0.7584
loop_
_geom_bond_atom_site_label_1
_geom_bond_atom_site_label_2
_geom_bond_site_symmetry_1
_geom_bond_site_symmetry_2
S1 O1 1_555 1_555
O2 S1 1_555 1_555
N1 S1 1_555 1_555
C1 H1 1_555 1_555
C2 C1 1_555 1_555
H2 C2 1_555 1_555
C3 C2 1_555 1_555
H3 C3 1_555 1_555
C4 C3 1_555 1_555
H4 C4 1_555 1_555
C5 C4 1_555 1_555
C6 S1 1_555 1_555
C7 N1 1_555 1_555
H5 C7 1_555 1_555
C8 C7 1_555 1_555
H6 C8 1_555 1_555
H7 C8 1_555 1_555
C9 C8 1_555 1_555
H8 C9 1_555 1_555
C10 C9 1_555 1_555
H9 C10 1_555 1_555
C11 N1 1_555 1_555
H10 C11 1_555 1_555
H11 C11 1_555 1_555
C12 C10 1_555 1_555
H12 C12 1_555 1_555
H13 C12 1_555 1_555
H14 C12 1_555 1_555
C13 C9 1_555 1_555
C14 C13 1_555 1_555
H15 C14 1_555 1_555
C15 C14 1_555 1_555
H16 C15 1_555 1_555
C16 C15 1_555 1_555
H17 C16 1_555 1_555
C17 C16 1_555 1_555
H18 C17 1_555 1_555
C18 C13 1_555 1_555
H19 C18 1_555 1_555
C1 C6 1_555 1_555
C5 C6 1_555 1_555
C5 C7 1_555 1_555
C10 C11 1_555 1_555
C17 C18 1_555 1_555

#END
