
#######################################################################
#
#                 Cambridge Crystallographic Data Centre
#                                CCDC 
#
#######################################################################
#
# If this CIF has been generated from an entry in the Cambridge 
# Structural Database, then it will include bibliographic, chemical, 
# crystal, experimental, refinement or atomic coordinate data resulting 
# from the CCDC's data processing and validation procedures.
#
#######################################################################

data_RAFGOV
_chemical_formula_moiety         'C22 H18 N2'
_chemical_name_systematic        
trans-4-(N-(4-Cyanophenyl)-N-methylamino)stilbene
_symmetry_cell_setting           triclinic
_symmetry_space_group_name_H-M   'P -1'
_symmetry_Int_Tables_number      2
_space_group_name_Hall           '-P 1'
loop_
_symmetry_equiv_pos_site_id
_symmetry_equiv_pos_as_xyz
1 x,y,z
2 -x,-y,-z
_cell_length_a                   9.6247(7)
_cell_length_b                   9.7637(7)
_cell_length_c                   18.7912(14)
_cell_angle_alpha                85.5920(10)
_cell_angle_beta                 81.7970(10)
_cell_angle_gamma                74.0610(10)
_cell_volume                     1679.28
_exptl_crystal_colour            yellow
_exptl_crystal_description       tabular
_chemical_melting_point          '173-174 deg.C'
_cell_formula_units_Z            4
loop_
_atom_site_label
_atom_site_type_symbol
_atom_site_fract_x
_atom_site_fract_y
_atom_site_fract_z
N1 N 0.4792(4) 0.5741(3) 0.20493(17)
N2 N 0.1035(6) 0.8754(6) -0.0714(2)
C1 C 0.0785(5) 0.9941(5) 0.6203(2)
C2 C 0.0291(5) 1.0308(5) 0.6906(2)
C3 C 0.0351(4) 0.9282(5) 0.7451(2)
C4 C 0.0907(4) 0.7861(5) 0.7284(2)
C5 C 0.1417(4) 0.7490(4) 0.6576(2)
C6 C 0.1370(4) 0.8531(4) 0.6025(2)
C7 C 0.1950(5) 0.8242(5) 0.5251(2)
C8 C 0.2719(5) 0.7023(5) 0.4999(2)
C9 C 0.3312(4) 0.6754(5) 0.4233(2)
C10 C 0.3935(5) 0.5358(5) 0.4032(2)
C11 C 0.4410(4) 0.5029(4) 0.3323(2)
C12 C 0.4302(4) 0.6095(4) 0.2779(2)
C13 C 0.3750(4) 0.7501(4) 0.2978(2)
C14 C 0.3245(4) 0.7829(4) 0.3689(2)
C15 C 0.6117(5) 0.4598(5) 0.1881(2)
C16 C 0.4025(4) 0.6407(4) 0.1492(2)
C17 C 0.4683(4) 0.6347(4) 0.0776(2)
C18 C 0.3910(5) 0.6952(5) 0.0224(2)
C19 C 0.2445(5) 0.7634(4) 0.0346(2)
C20 C 0.1753(4) 0.7717(4) 0.1052(2)
C21 C 0.2533(4) 0.7117(4) 0.1613(2)
C22 C 0.1643(6) 0.8253(6) -0.0244(3)
H1 H 0.0705 1.0613 0.5834
H2 H -0.0111 1.1348 0.7006
H3 H -0.0029 0.9446 0.7951
H4 H 0.0938 0.7102 0.7660
H5 H 0.1811 0.6525 0.6453
H6 H 0.1864 0.9139 0.4913
H7 H 0.2850 0.6174 0.5334
H8 H 0.4081 0.4583 0.4426
H9 H 0.4893 0.4054 0.3220
H10 H 0.3733 0.8290 0.2632
H11 H 0.2994 0.8788 0.3748
H12 H 0.6951 0.5012 0.1602
H13 H 0.6577 0.4409 0.2272
H14 H 0.6060 0.3818 0.1740
H15 H 0.5658 0.5958 0.0665
H16 H 0.4278 0.6952 -0.0204
H17 H 0.0699 0.8227 0.1173
H24 H 0.2008 0.7209 0.2067
N3 N 0.4790(4) 0.0775(4) 0.20169(18)
N4 N 0.0949(5) 0.3808(6) -0.0709(2)
C23 C -0.0024(5) 0.4143(4) 0.6214(2)
C24 C -0.0492(5) 0.4556(4) 0.6917(2)
C25 C 0.0466(5) 0.4236(5) 0.7419(2)
C26 C 0.1899(5) 0.3526(5) 0.7217(2)
C27 C 0.2383(4) 0.3116(4) 0.6517(2)
C28 C 0.1426(4) 0.3411(4) 0.6000(2)
C29 C 0.1845(4) 0.2957(4) 0.5254(2)
C30 C 0.3123(4) 0.2185(4) 0.4971(2)
C31 C 0.3514(4) 0.1771(4) 0.4214(2)
C32 C 0.4975(4) 0.1214(4) 0.3942(2)
C33 C 0.5409(4) 0.0907(4) 0.3227(2)
C34 C 0.4381(4) 0.1118(4) 0.2746(2)
C35 C 0.2912(4) 0.1608(4) 0.3019(2)
C36 C 0.2498(4) 0.1940(4) 0.3733(2)
C37 C 0.6179(6) -0.0218(6) 0.1809(3)
C38 C 0.3910(4) 0.1403(4) 0.1481(2)
C39 C 0.3767(5) 0.0607(4) 0.0934(2)
C40 C 0.2954(5) 0.1240(5) 0.0389(2)
C41 C 0.2268(4) 0.2683(5) 0.0377(2)
C42 C 0.2380(4) 0.3500(4) 0.0933(2)
C43 C 0.3197(4) 0.2870(4) 0.1474(2)
C44 C 0.1492(5) 0.3326(5) -0.0218(2)
H18 H -0.1529 0.5046 0.6998
H19 H 0.0142 0.4422 0.7932
H20 H 0.2574 0.3336 0.7533
H21 H 0.3382 0.2574 0.6354
H22 H 0.1134 0.3135 0.4924
H23 H 0.3922 0.1944 0.5242
H25 H -0.0623 0.4298 0.5841
H26 H 0.5636 0.1164 0.4286
H27 H 0.6443 0.0620 0.3073
H28 H 0.2171 0.1717 0.2731
H29 H 0.1487 0.2270 0.3864
H30 H 0.6595 -0.0276 0.1378
H31 H 0.6762 -0.0658 0.2110
H32 H 0.5770 -0.1058 0.1776
H33 H 0.4315 -0.0423 0.0912
H34 H 0.2898 0.0647 0.0026
H35 H 0.1937 0.4603 0.0931
H36 H 0.3231 0.3428 0.1893
loop_
_geom_bond_atom_site_label_1
_geom_bond_atom_site_label_2
_geom_bond_site_symmetry_1
_geom_bond_site_symmetry_2
N1 C12 1_555 1_555
N2 C22 1_555 1_555
N3 C34 1_555 1_555
N4 C44 1_555 1_555
C1 C2 1_555 1_555
C2 C3 1_555 1_555
C3 C4 1_555 1_555
C4 C5 1_555 1_555
C5 C6 1_555 1_555
C6 C1 1_555 1_555
C7 C6 1_555 1_555
C8 C7 1_555 1_555
C9 C8 1_555 1_555
C10 C9 1_555 1_555
C11 C10 1_555 1_555
C12 C11 1_555 1_555
C13 C12 1_555 1_555
C14 C9 1_555 1_555
C15 N1 1_555 1_555
C16 N1 1_555 1_555
C17 C16 1_555 1_555
C18 C17 1_555 1_555
C19 C18 1_555 1_555
C20 C19 1_555 1_555
C21 C16 1_555 1_555
C22 C19 1_555 1_555
C23 C24 1_555 1_555
C24 C25 1_555 1_555
C25 C26 1_555 1_555
C26 C27 1_555 1_555
C27 C28 1_555 1_555
C28 C23 1_555 1_555
C29 C28 1_555 1_555
C30 C29 1_555 1_555
C31 C30 1_555 1_555
C32 C31 1_555 1_555
C33 C32 1_555 1_555
C34 C33 1_555 1_555
C35 C34 1_555 1_555
C36 C31 1_555 1_555
C37 N3 1_555 1_555
C38 N3 1_555 1_555
C39 C38 1_555 1_555
C40 C39 1_555 1_555
C41 C40 1_555 1_555
C42 C41 1_555 1_555
C43 C38 1_555 1_555
C44 C41 1_555 1_555
H1 C1 1_555 1_555
H2 C2 1_555 1_555
H3 C3 1_555 1_555
H4 C4 1_555 1_555
H5 C5 1_555 1_555
H6 C7 1_555 1_555
H7 C8 1_555 1_555
H8 C10 1_555 1_555
H9 C11 1_555 1_555
H10 C13 1_555 1_555
H11 C14 1_555 1_555
H12 C15 1_555 1_555
H13 C15 1_555 1_555
H14 C15 1_555 1_555
H15 C17 1_555 1_555
H16 C18 1_555 1_555
H17 C20 1_555 1_555
H18 C24 1_555 1_555
H19 C25 1_555 1_555
H20 C26 1_555 1_555
H21 C27 1_555 1_555
H22 C29 1_555 1_555
H23 C30 1_555 1_555
H24 C21 1_555 1_555
H25 C23 1_555 1_555
H26 C32 1_555 1_555
H27 C33 1_555 1_555
H28 C35 1_555 1_555
H29 C36 1_555 1_555
H30 C37 1_555 1_555
H31 C37 1_555 1_555
H32 C37 1_555 1_555
H33 C39 1_555 1_555
H34 C40 1_555 1_555
H35 C42 1_555 1_555
H36 C43 1_555 1_555
C13 C14 1_555 1_555
C20 C21 1_555 1_555
C35 C36 1_555 1_555
C42 C43 1_555 1_555

#END
