
#######################################################################
#
#                 Cambridge Crystallographic Data Centre
#                                CCDC 
#
#######################################################################
#
# If this CIF has been generated from an entry in the Cambridge 
# Structural Database, then it will include bibliographic, chemical, 
# crystal, experimental, refinement or atomic coordinate data resulting 
# from the CCDC's data processing and validation procedures.
#
#######################################################################

data_RAFYED
_chemical_compound_source        'leaves and tender branches of Isodon henryi'
_chemical_name_common            
6beta,15beta-diacetoxy-7,20-epoxy-7beta-hydroxy-ent-kaur-2,16-dien-1-one
_chemical_formula_moiety         'C24 H30 O7'
_chemical_name_systematic        Odonicin
_symmetry_cell_setting           monoclinic
_symmetry_space_group_name_H-M   'P 21'
_symmetry_Int_Tables_number      4
_space_group_name_Hall           'P 2yb'
loop_
_symmetry_equiv_pos_site_id
_symmetry_equiv_pos_as_xyz
1 x,y,z
2 -x,1/2+y,-z
_cell_length_a                   9.965(1)
_cell_length_b                   11.212(1)
_cell_length_c                   10.636(1)
_cell_angle_alpha                90
_cell_angle_beta                 113.50(1)
_cell_angle_gamma                90
_cell_volume                     1089.77
_exptl_crystal_colour            colorless
_exptl_crystal_description       prisms
_cell_formula_units_Z            2
loop_
_atom_site_label
_atom_site_type_symbol
_atom_site_fract_x
_atom_site_fract_y
_atom_site_fract_z
O1 O 0.3942(2) -0.17685(15) 0.26014(18)
O2 O 0.7734(2) -0.0124(2) 0.5437(2)
O3 O 0.23478(16) 0.07184(15) 0.03002(14)
O4 O 0.1911(2) -0.0493(2) -0.14916(18)
O5 O 0.1548(2) -0.13117(18) 0.13450(18)
O6 O 0.21106(15) 0.19373(15) 0.25770(14)
O7 O -0.01840(17) 0.2233(2) 0.10368(18)
C1 C 0.7006(3) 0.0395(3) 0.4383(3)
C2 C 0.7604(3) 0.1392(3) 0.3896(3)
H1 H 0.8333 0.1856 0.4533
C3 C 0.7145(3) 0.1661(3) 0.2577(3)
H2 H 0.7611 0.2274 0.2319
C4 C 0.5907(3) 0.1018(3) 0.1482(3)
C5 C 0.4798(2) 0.0657(2) 0.2102(2)
H3 H 0.4398 0.1408 0.2273
C6 C 0.3477(2) -0.0069(2) 0.1185(2)
H4 H 0.3777 -0.0607 0.0618
C7 C 0.2908(2) -0.0815(2) 0.2083(2)
C8 C 0.2845(2) -0.0155(2) 0.3324(2)
C9 C 0.4417(2) 0.0318(2) 0.4248(2)
H5 H 0.4356 0.1189 0.4269
C10 C 0.5444(2) 0.0004(2) 0.3517(2)
C11 C 0.4924(3) -0.0126(3) 0.5747(2)
H6 H 0.5158 -0.0969 0.5781
H7 H 0.5809 0.0295 0.6315
C12 C 0.3759(3) 0.0061(4) 0.6333(3)
H8 H 0.3932 -0.0496 0.7079
H9 H 0.3850 0.0862 0.6703
C13 C 0.2203(4) -0.0116(3) 0.5248(3)
H10 H 0.1537 -0.0401 0.5657
C14 C 0.2264(3) -0.0981(3) 0.4155(3)
H11 H 0.1303 -0.1293 0.3593
H12 H 0.2929 -0.1638 0.4563
C15 C 0.1704(2) 0.0839(2) 0.3043(2)
H13 H 0.0752 0.0565 0.2376
C16 C 0.1640(3) 0.1022(3) 0.4423(2)
C17 C 0.1251(3) 0.2025(4) 0.4833(3)
H14 H 0.0991 0.2684 0.4255
H15 H 0.1237 0.2072 0.5701
C18 C 0.5172(4) 0.1864(4) 0.0277(4)
H16 H 0.4765 0.2530 0.0570
H17 H 0.4406 0.1449 -0.0446
H18 H 0.5884 0.2144 -0.0053
C19 C 0.6575(4) -0.0011(3) 0.0977(4)
H19 H 0.7210 0.0304 0.0577
H20 H 0.5807 -0.0465 0.0301
H21 H 0.7125 -0.0518 0.1735
C20 C 0.5412(3) -0.1351(3) 0.3307(3)
H22 H 0.5982 -0.1554 0.2780
H23 H 0.5853 -0.1744 0.4191
C21 C 0.0519(3) 0.1295(3) -0.1797(2)
H24 H 0.0989 0.2030 -0.1851
H25 H -0.0121 0.1432 -0.1335
H26 H -0.0039 0.1004 -0.2706
C22 C 0.1647(3) 0.0398(3) -0.1022(2)
C23 C 0.1698(3) 0.3640(3) 0.1223(3)
H27 H 0.1018 0.3962 0.0370
H28 H 0.2598 0.3445 0.1142
H29 H 0.1883 0.4221 0.1936
C24 C 0.1068(3) 0.2545(3) 0.1565(2)
H30 H 0.146(4) -0.166(3) 0.060(2)
loop_
_geom_bond_atom_site_label_1
_geom_bond_atom_site_label_2
_geom_bond_site_symmetry_1
_geom_bond_site_symmetry_2
O1 C7 1_555 1_555
O2 C1 1_555 1_555
O3 C6 1_555 1_555
O4 C22 1_555 1_555
O5 C7 1_555 1_555
O6 C15 1_555 1_555
O7 C24 1_555 1_555
C1 C2 1_555 1_555
C2 H1 1_555 1_555
C3 C2 1_555 1_555
H2 C3 1_555 1_555
C4 C3 1_555 1_555
C5 C4 1_555 1_555
H3 C5 1_555 1_555
C6 C5 1_555 1_555
H4 C6 1_555 1_555
C7 C6 1_555 1_555
C8 C7 1_555 1_555
C9 C8 1_555 1_555
H5 C9 1_555 1_555
C10 C1 1_555 1_555
C11 C9 1_555 1_555
H6 C11 1_555 1_555
H7 C11 1_555 1_555
C12 C11 1_555 1_555
H8 C12 1_555 1_555
H9 C12 1_555 1_555
C13 C12 1_555 1_555
H10 C13 1_555 1_555
C14 C8 1_555 1_555
H11 C14 1_555 1_555
H12 C14 1_555 1_555
C15 C8 1_555 1_555
H13 C15 1_555 1_555
C16 C13 1_555 1_555
C17 C16 1_555 1_555
H14 C17 1_555 1_555
H15 C17 1_555 1_555
C18 C4 1_555 1_555
H16 C18 1_555 1_555
H17 C18 1_555 1_555
H18 C18 1_555 1_555
C19 C4 1_555 1_555
H19 C19 1_555 1_555
H20 C19 1_555 1_555
H21 C19 1_555 1_555
C20 O1 1_555 1_555
H22 C20 1_555 1_555
H23 C20 1_555 1_555
C21 H24 1_555 1_555
H25 C21 1_555 1_555
H26 C21 1_555 1_555
C22 O3 1_555 1_555
C23 H27 1_555 1_555
H28 C23 1_555 1_555
H29 C23 1_555 1_555
C24 O6 1_555 1_555
H30 O5 1_555 1_555
C5 C10 1_555 1_555
C9 C10 1_555 1_555
C10 C20 1_555 1_555
C13 C14 1_555 1_555
C15 C16 1_555 1_555
C21 C22 1_555 1_555
C23 C24 1_555 1_555

#END
