
#######################################################################
#
#                 Cambridge Crystallographic Data Centre
#                                CCDC 
#
#######################################################################
#
# If this CIF has been generated from an entry in the Cambridge 
# Structural Database, then it will include bibliographic, chemical, 
# crystal, experimental, refinement or atomic coordinate data resulting 
# from the CCDC's data processing and validation procedures.
#
#######################################################################

data_RAGPOH
_chemical_formula_moiety         'C9 H4 Cl1 F2 N1'
_chemical_name_systematic        2-chloro-6,8-difluoroquinoline
_symmetry_cell_setting           monoclinic
_symmetry_space_group_name_H-M   'P 21/n'
_symmetry_Int_Tables_number      14
_space_group_name_Hall           '-P 2yn'
loop_
_symmetry_equiv_pos_site_id
_symmetry_equiv_pos_as_xyz
1 x,y,z
2 1/2-x,1/2+y,1/2-z
3 -x,-y,-z
4 1/2+x,1/2-y,1/2+z
_cell_length_a                   3.85810(10)
_cell_length_b                   6.0538(2)
_cell_length_c                   34.1045(13)
_cell_angle_alpha                90
_cell_angle_beta                 92.559(2)
_cell_angle_gamma                90
_cell_volume                     795.756
_exptl_crystal_colour            colorless
_exptl_crystal_description       needle/plate
_chemical_melting_point          '383 K'
_cell_formula_units_Z            4
loop_
_atom_site_label
_atom_site_type_symbol
_atom_site_fract_x
_atom_site_fract_y
_atom_site_fract_z
Cl1 Cl 0.41938(17) -0.30022(11) 0.035827(18)
F1 F -0.1634(4) 0.3677(3) 0.22146(5)
F2 F 0.3685(4) -0.2888(2) 0.18474(4)
N1 N 0.3027(4) -0.1825(3) 0.10725(5)
C1 C 0.2699(5) -0.1177(4) 0.07119(6)
C2 C 0.1827(5) -0.0400(3) 0.13480(6)
C3 C 0.0292(5) 0.1665(3) 0.12509(6)
C4 C -0.0920(6) 0.3070(4) 0.15465(7)
H1 H -0.1951 0.4421 0.1484
C5 C -0.0523(6) 0.2378(4) 0.19228(7)
C6 C 0.0086(6) 0.2247(4) 0.08479(6)
H2 H -0.0874 0.3594 0.0769
C7 C 0.1292(6) 0.0834(4) 0.05771(6)
H3 H 0.1189 0.1187 0.0311
C8 C 0.1010(6) 0.0374(4) 0.20351(6)
H4 H 0.1241 -0.0032 0.2298
C9 C 0.2153(5) -0.0963(3) 0.17491(6)
loop_
_geom_bond_atom_site_label_1
_geom_bond_atom_site_label_2
_geom_bond_site_symmetry_1
_geom_bond_site_symmetry_2
Cl1 C1 1_555 1_555
F1 C5 1_555 1_555
F2 C9 1_555 1_555
N1 C1 1_555 1_555
C1 C7 1_555 1_555
C2 N1 1_555 1_555
C3 C2 1_555 1_555
C4 C3 1_555 1_555
H1 C4 1_555 1_555
C5 C4 1_555 1_555
C6 C3 1_555 1_555
H2 C6 1_555 1_555
C7 C6 1_555 1_555
H3 C7 1_555 1_555
C8 C5 1_555 1_555
H4 C8 1_555 1_555
C9 C2 1_555 1_555
C8 C9 1_555 1_555

#END
