
#######################################################################
#
#                 Cambridge Crystallographic Data Centre
#                                CCDC 
#
#######################################################################
#
# If this CIF has been generated from an entry in the Cambridge 
# Structural Database, then it will include bibliographic, chemical, 
# crystal, experimental, refinement or atomic coordinate data resulting 
# from the CCDC's data processing and validation procedures.
#
#######################################################################

data_RAGWUR01
_chemical_name_common            
4-(N-Methylthiocarbamoyl)-5,4',5'-trimethyl-2,2'-bis(1,3-dithiolylidene)
_chemical_formula_moiety         'C11 H13 N1 S5'
_chemical_name_systematic        
4-(N-Methylthiocarbamoyl)-5,4',5'-trimethyl-tetrathiafulvalene
_symmetry_cell_setting           monoclinic
_symmetry_space_group_name_H-M   'P 21/c'
_symmetry_Int_Tables_number      14
_space_group_name_Hall           '-P 2ybc'
loop_
_symmetry_equiv_pos_site_id
_symmetry_equiv_pos_as_xyz
1 x,y,z
2 -x,1/2+y,1/2-z
3 -x,-y,-z
4 x,1/2-y,1/2+z
_cell_length_a                   19.055(1)
_cell_length_b                   6.603(1)
_cell_length_c                   11.544(1)
_cell_angle_alpha                90
_cell_angle_beta                 102.85(1)
_cell_angle_gamma                90
_cell_volume                     1416.09
_exptl_crystal_colour            'very dark red'
_exptl_crystal_description       needles
_chemical_melting_point          174-175deg.C
_cell_formula_units_Z            4
loop_
_atom_site_label
_atom_site_type_symbol
_atom_site_fract_x
_atom_site_fract_y
_atom_site_fract_z
S1 S 0.2884(1) 0.2645(1) 0.3826(1)
S2 S 0.2419(1) 0.6548(1) 0.2655(1)
S3 S 0.1779(1) 0.3172(1) 0.5536(1)
S4 S 0.1270(1) 0.7061(1) 0.4396(1)
S5 S 0.4317(1) 0.0626(1) 0.3709(1)
N1 N 0.4095(1) 0.2121(3) 0.1538(2)
C1 C 0.2317(1) 0.4773(3) 0.3736(2)
C2 C 0.3342(1) 0.3523(3) 0.2751(2)
C3 C 0.3127(1) 0.5306(3) 0.2215(2)
C4 C 0.1855(1) 0.4986(3) 0.4454(2)
C5 C 0.1145(1) 0.4537(3) 0.6126(2)
C6 C 0.0912(1) 0.6288(3) 0.5606(2)
C7 C 0.3919(1) 0.2134(3) 0.2587(2)
C8 C 0.3414(1) 0.6421(4) 0.1280(2)
C9 C 0.0921(2) 0.3597(4) 0.7168(2)
C10 C 0.0379(1) 0.7697(4) 0.5951(2)
C11 C 0.4658(1) 0.0866(1) 0.1249(2)
H1 H 0.3852(13) 0.2794(37) 0.1036(22)
H2 H 0.3126(15) 0.6067(44) 0.0492(26)
H3 H 0.3368(15) 0.7800(47) 0.1395(26)
H4 H 0.3913(15) 0.6085(40) 0.1321(22)
H5 H 0.0523(22) 0.4171(62) 0.7275(34)
H6 H 0.0832(17) 0.2262(53) 0.7095(30)
H7 H 0.1259(17) 0.3874(48) 0.7826(29)
H8 H 0.0226(21) 0.7203(59) 0.6566(39)
H9 H 0.0555(20) 0.9004(66) 0.6215(33)
H10 H 0.0005(19) 0.7845(52) 0.5389(31)
H11 H 0.4660(22) 0.0959(66) 0.0495(40)
H12 H 0.5146(17) 0.1341(48) 0.1631(27)
H13 H 0.4623(16) -0.0475(49) 0.1520(27)
loop_
_geom_bond_atom_site_label_1
_geom_bond_atom_site_label_2
_geom_bond_site_symmetry_1
_geom_bond_site_symmetry_2
S1 C1 1_555 1_555
S2 C1 1_555 1_555
S3 C4 1_555 1_555
S4 C4 1_555 1_555
S5 C7 1_555 1_555
N1 C7 1_555 1_555
C1 C4 1_555 1_555
C2 S1 1_555 1_555
C3 S2 1_555 1_555
C5 S3 1_555 1_555
C6 S4 1_555 1_555
C7 C2 1_555 1_555
C8 C3 1_555 1_555
C9 C5 1_555 1_555
C10 C6 1_555 1_555
C11 N1 1_555 1_555
H1 N1 1_555 1_555
H2 C8 1_555 1_555
H3 C8 1_555 1_555
H4 C8 1_555 1_555
H5 C9 1_555 1_555
H6 C9 1_555 1_555
H7 C9 1_555 1_555
H8 C10 1_555 1_555
H9 C10 1_555 1_555
H10 C10 1_555 1_555
H11 C11 1_555 1_555
H12 C11 1_555 1_555
H13 C11 1_555 1_555
C2 C3 1_555 1_555
C5 C6 1_555 1_555

#END
