
#######################################################################
#
#                 Cambridge Crystallographic Data Centre
#                                CCDC 
#
#######################################################################
#
# If this CIF has been generated from an entry in the Cambridge 
# Structural Database, then it will include bibliographic, chemical, 
# crystal, experimental, refinement or atomic coordinate data resulting 
# from the CCDC's data processing and validation procedures.
#
#######################################################################

data_RAHJES
_chemical_formula_moiety         'C23 H17 N1 O1'
_chemical_name_systematic        
1-methyl-3-(2-phenyl-1-benzofuran-3-yl)-1H-indole
_symmetry_cell_setting           monoclinic
_symmetry_space_group_name_H-M   'P 21/c'
_symmetry_Int_Tables_number      14
_space_group_name_Hall           '-P 2ybc'
loop_
_symmetry_equiv_pos_site_id
_symmetry_equiv_pos_as_xyz
1 x,y,z
2 -x,1/2+y,1/2-z
3 -x,-y,-z
4 x,1/2-y,1/2+z
_cell_length_a                   18.0738(14)
_cell_length_b                   5.5903(4)
_cell_length_c                   17.8711(13)
_cell_angle_alpha                90
_cell_angle_beta                 111.098(3)
_cell_angle_gamma                90
_cell_volume                     1684.62
_exptl_crystal_colour            colorless
_exptl_crystal_description       prism
_cell_formula_units_Z            4
loop_
_atom_site_label
_atom_site_type_symbol
_atom_site_fract_x
_atom_site_fract_y
_atom_site_fract_z
C1 C 0.1491(2) 1.2260(8) 0.2310(2)
C2 C 0.0950(3) 1.3772(8) 0.2446(2)
H1 H 0.1101 1.4891 0.2875
C3 C 0.0173(3) 1.3563(9) 0.1921(3)
H2 H -0.0223 1.4555 0.1991
C4 C -0.0040(3) 1.1922(9) 0.1288(3)
H3 H -0.0578 1.1829 0.0937
C5 C 0.0510(2) 1.0444(8) 0.1162(2)
H4 H 0.0359 0.9338 0.0730
C6 C 0.1296(2) 1.0610(7) 0.1688(2)
C7 C 0.2038(2) 0.9520(7) 0.1727(2)
C8 C 0.2614(2) 1.0547(7) 0.2376(2)
C9 C 0.3472(2) 1.0219(8) 0.2782(2)
C10 C 0.3867(3) 0.8248(8) 0.2649(2)
H5 H 0.3586 0.7075 0.2268
C11 C 0.4678(3) 0.7972(9) 0.3073(2)
H6 H 0.4947 0.6618 0.2975
C12 C 0.5091(3) 0.9652(9) 0.3633(3)
H7 H 0.5643 0.9458 0.3923
C13 C 0.4698(3) 1.1598(9) 0.3768(3)
H8 H 0.4980 1.2756 0.4155
C14 C 0.3895(3) 1.1900(8) 0.3347(2)
H9 H 0.3631 1.3267 0.3444
C15 C 0.2123(2) 0.7882(7) 0.1120(2)
C16 C 0.1654(2) 0.5953(7) 0.0797(2)
H10 H 0.1253 0.5355 0.0974
C17 C 0.1440(3) 0.3004(8) -0.0319(2)
H11 H 0.1162 0.2064 -0.0039
H12 H 0.1829 0.1989 -0.0432
H13 H 0.1057 0.3612 -0.0824
C18 C 0.2434(2) 0.6360(7) 0.0084(2)
C19 C 0.2797(3) 0.6185(8) -0.0482(2)
H14 H 0.2668 0.4929 -0.0866
C20 C 0.3349(3) 0.7892(9) -0.0465(2)
H15 H 0.3609 0.7807 -0.0841
C21 C 0.3536(3) 0.9751(8) 0.0093(2)
H16 H 0.3908 1.0934 0.0079
C22 C 0.3193(2) 0.9904(8) 0.0662(2)
H17 H 0.3337 1.1151 0.1050
C23 C 0.2631(2) 0.8204(7) 0.0663(2)
N1 N 0.1843(2) 0.4997(6) 0.01818(18)
O1 O 0.22887(17) 1.2231(5) 0.27364(15)
loop_
_geom_bond_atom_site_label_1
_geom_bond_atom_site_label_2
_geom_bond_site_symmetry_1
_geom_bond_site_symmetry_2
C1 C2 1_555 1_555
C2 H1 1_555 1_555
C3 C2 1_555 1_555
H2 C3 1_555 1_555
C4 C3 1_555 1_555
H3 C4 1_555 1_555
C5 C4 1_555 1_555
H4 C5 1_555 1_555
C6 C1 1_555 1_555
C7 C6 1_555 1_555
C8 C7 1_555 1_555
C9 C8 1_555 1_555
C10 C9 1_555 1_555
H5 C10 1_555 1_555
C11 C10 1_555 1_555
H6 C11 1_555 1_555
C12 C11 1_555 1_555
H7 C12 1_555 1_555
C13 C12 1_555 1_555
H8 C13 1_555 1_555
C14 C9 1_555 1_555
H9 C14 1_555 1_555
C15 C7 1_555 1_555
C16 C15 1_555 1_555
H10 C16 1_555 1_555
C17 H11 1_555 1_555
H12 C17 1_555 1_555
H13 C17 1_555 1_555
C18 C19 1_555 1_555
C19 H14 1_555 1_555
C20 C19 1_555 1_555
H15 C20 1_555 1_555
C21 C20 1_555 1_555
H16 C21 1_555 1_555
C22 C21 1_555 1_555
H17 C22 1_555 1_555
C23 C15 1_555 1_555
N1 C16 1_555 1_555
O1 C1 1_555 1_555
C5 C6 1_555 1_555
C8 O1 1_555 1_555
C13 C14 1_555 1_555
C17 N1 1_555 1_555
C18 C23 1_555 1_555
C18 N1 1_555 1_555
C22 C23 1_555 1_555

#END
