
#######################################################################
#
#                 Cambridge Crystallographic Data Centre
#                                CCDC 
#
#######################################################################
#
# If this CIF has been generated from an entry in the Cambridge 
# Structural Database, then it will include bibliographic, chemical, 
# crystal, experimental, refinement or atomic coordinate data resulting 
# from the CCDC's data processing and validation procedures.
#
#######################################################################

data_RAJBOT
_chemical_formula_moiety         'C30 H48 O2'
_chemical_name_systematic        Olean-2\a-epoxy-12-ene-15\a-ol
_symmetry_cell_setting           monoclinic
_symmetry_space_group_name_H-M   'P 21'
_symmetry_Int_Tables_number      4
_space_group_name_Hall           'P 2yb'
loop_
_symmetry_equiv_pos_site_id
_symmetry_equiv_pos_as_xyz
1 x,y,z
2 -x,1/2+y,-z
_cell_length_a                   15.002(9)
_cell_length_b                   11.783(7)
_cell_length_c                   7.423(3)
_cell_angle_alpha                90
_cell_angle_beta                 98.94(6)
_cell_angle_gamma                90
_cell_volume                     1296.21
_exptl_crystal_colour            colorless
_exptl_crystal_description       prismatic
_chemical_melting_point          190-193deg.C
_cell_formula_units_Z            2
_exptl_crystal_recrystallization_method methanol
loop_
_atom_site_label
_atom_site_type_symbol
_atom_site_fract_x
_atom_site_fract_y
_atom_site_fract_z
O1 O 0.2731(4) 0.5055(5) 0.2923(8)
C1 C 0.1481(6) 0.5876(7) 0.4386(10)
C2 C 0.2470(5) 0.5763(7) 0.4373(10)
C3 C 0.2898(5) 0.6260(6) 0.2899(10)
C4 C 0.2366(4) 0.6918(6) 0.1328(8)
C5 C 0.2776(4) 0.8127(6) 0.1426(10)
C6 C 0.2569(5) 0.6374(8) -0.0483(10)
C7 C 0.1343(4) 0.6880(6) 0.1386(8)
C8 C 0.0787(4) 0.7772(6) 0.0144(9)
C9 C -0.0204(5) 0.7521(7) -0.0139(9)
C10 C -0.0625(4) 0.7493(5) 0.1616(8)
C11 C -0.0668(5) 0.8735(6) 0.2304(12)
C12 C -0.0008(4) 0.6756(5) 0.3089(7)
C13 C 0.1037(4) 0.6904(5) 0.3285(7)
C14 C 0.1408(5) 0.8000(6) 0.4388(10)
C15 C -0.0355(5) 0.6804(10) 0.4919(9)
C16 C -0.1341(5) 0.6703(7) 0.4729(8)
C17 C -0.1935(4) 0.6768(6) 0.3173(8)
C18 C -0.1598(4) 0.6939(5) 0.1340(7)
C19 C -0.1599(4) 0.5766(6) 0.0355(8)
C20 C -0.2319(5) 0.7702(6) 0.0153(9)
O2 O -0.2140(4) 0.7719(5) -0.1686(6)
C21 C -0.3283(5) 0.7331(7) 0.0140(10)
C22 C -0.3565(4) 0.7320(6) 0.2049(9)
C23 C -0.3472(7) 0.8553(7) 0.2831(13)
C24 C -0.2911(5) 0.6560(5) 0.3339(9)
C25 C -0.3160(5) 0.5282(6) 0.3176(12)
C26 C -0.4143(5) 0.5017(7) 0.3273(12)
C27 C -0.4410(6) 0.5308(9) 0.5112(12)
C28 C -0.4283(7) 0.3717(8) 0.2934(16)
C29 C -0.4719(5) 0.5664(8) 0.1731(11)
C30 C -0.4565(5) 0.6957(9) 0.1948(12)
H1 H 0.130 0.583 0.565
H2 H 0.133 0.510 0.382
H3 H 0.302 0.568 0.536
H4 H 0.358 0.639 0.322
H5 H 0.251 0.853 0.025
H6 H 0.347 0.812 0.152
H7 H 0.260 0.854 0.252
H8 H 0.228 0.688 -0.152
H9 H 0.230 0.558 -0.062
H10 H 0.325 0.636 -0.044
H11 H 0.110 0.613 0.086
H12 H 0.086 0.856 0.074
H13 H 0.107 0.780 -0.103
H14 H -0.021 0.678 -0.083
H15 H -0.051 0.815 -0.095
H16 H -0.102 0.869 0.341
H17 H -0.100 0.932 0.141
H18 H -0.002 0.900 0.276
H19 H -0.003 0.595 0.260
H20 H 0.119 0.876 0.377
H21 H 0.210 0.803 0.465
H22 H 0.118 0.800 0.565
H23 H -0.006 0.615 0.572
H24 H -0.012 0.755 0.554
H25 H -0.162 0.660 0.589
H26 H -0.135 0.575 -0.084
H27 H -0.226 0.549 0.015
H28 H -0.123 0.524 0.128
H29 H -0.223 0.849 0.072
H30 H -0.161 0.815 -0.203
H31 H -0.368 0.793 -0.058
H32 H -0.341 0.655 -0.047
H33 H -0.369 0.856 0.408
H34 H -0.387 0.911 0.199
H35 H -0.281 0.881 0.298
H36 H -0.290 0.681 0.468
H37 H -0.298 0.503 0.193
H38 H -0.268 0.493 0.417
H39 H -0.404 0.482 0.611
H40 H -0.509 0.510 0.507
H41 H -0.434 0.615 0.553
H42 H -0.410 0.339 0.175
H43 H -0.497 0.357 0.289
H44 H -0.395 0.326 0.402
H45 H -0.540 0.549 0.165
H46 H -0.451 0.544 0.052
H47 H -0.487 0.712 0.309
H48 H -0.496 0.731 0.084
loop_
_geom_bond_atom_site_label_1
_geom_bond_atom_site_label_2
_geom_bond_site_symmetry_1
_geom_bond_site_symmetry_2
O1 C2 1_555 1_555
C1 C2 1_555 1_555
C2 C3 1_555 1_555
C3 O1 1_555 1_555
C4 C3 1_555 1_555
C5 C4 1_555 1_555
C6 C4 1_555 1_555
C7 C4 1_555 1_555
C8 C7 1_555 1_555
C9 C8 1_555 1_555
C10 C9 1_555 1_555
C11 C10 1_555 1_555
C12 C10 1_555 1_555
C13 C1 1_555 1_555
C14 C13 1_555 1_555
C15 C12 1_555 1_555
C16 C15 1_555 1_555
C17 C16 1_555 1_555
C18 C10 1_555 1_555
C19 C18 1_555 1_555
C20 C18 1_555 1_555
O2 C20 1_555 1_555
C21 C20 1_555 1_555
C22 C21 1_555 1_555
C23 C22 1_555 1_555
C24 C17 1_555 1_555
C25 C24 1_555 1_555
C26 C25 1_555 1_555
C27 C26 1_555 1_555
C28 C26 1_555 1_555
C29 C26 1_555 1_555
C30 C22 1_555 1_555
H1 C1 1_555 1_555
H2 C1 1_555 1_555
H3 C2 1_555 1_555
H4 C3 1_555 1_555
H5 C5 1_555 1_555
H6 C5 1_555 1_555
H7 C5 1_555 1_555
H8 C6 1_555 1_555
H9 C6 1_555 1_555
H10 C6 1_555 1_555
H11 C7 1_555 1_555
H12 C8 1_555 1_555
H13 C8 1_555 1_555
H14 C9 1_555 1_555
H15 C9 1_555 1_555
H16 C11 1_555 1_555
H17 C11 1_555 1_555
H18 C11 1_555 1_555
H19 C12 1_555 1_555
H20 C14 1_555 1_555
H21 C14 1_555 1_555
H22 C14 1_555 1_555
H23 C15 1_555 1_555
H24 C15 1_555 1_555
H25 C16 1_555 1_555
H26 C19 1_555 1_555
H27 C19 1_555 1_555
H28 C19 1_555 1_555
H29 C20 1_555 1_555
H30 O2 1_555 1_555
H31 C21 1_555 1_555
H32 C21 1_555 1_555
H33 C23 1_555 1_555
H34 C23 1_555 1_555
H35 C23 1_555 1_555
H36 C24 1_555 1_555
H37 C25 1_555 1_555
H38 C25 1_555 1_555
H39 C27 1_555 1_555
H40 C27 1_555 1_555
H41 C27 1_555 1_555
H42 C28 1_555 1_555
H43 C28 1_555 1_555
H44 C28 1_555 1_555
H45 C29 1_555 1_555
H46 C29 1_555 1_555
H47 C30 1_555 1_555
H48 C30 1_555 1_555
C7 C13 1_555 1_555
C12 C13 1_555 1_555
C17 C18 1_555 1_555
C22 C24 1_555 1_555
C29 C30 1_555 1_555

#END
