
#######################################################################
#
#                 Cambridge Crystallographic Data Centre
#                                CCDC 
#
#######################################################################
#
# If this CIF has been generated from an entry in the Cambridge 
# Structural Database, then it will include bibliographic, chemical, 
# crystal, experimental, refinement or atomic coordinate data resulting 
# from the CCDC's data processing and validation procedures.
#
#######################################################################

data_RAJDAK
_chemical_name_common            'dipulchellin A acetone solvate'
_chemical_formula_moiety         'C30 H44 O6,C3 H6 O1'
_chemical_name_systematic        
"5-hydroxy-7'-(3-hydroxybutyl)-4a,7a',8-trimethyl-3'-methylideneoctadecahydro-2H-spiro[azuleno[6,5-b]furan-3,5'-indeno[5,6-b]furan]-2,2'(3'H)-dione acetone unknown solvate"
_symmetry_cell_setting           orthorhombic
_symmetry_space_group_name_H-M   'P 21 21 21'
_symmetry_Int_Tables_number      19
_space_group_name_Hall           'P 2ac 2ab'
loop_
_symmetry_equiv_pos_site_id
_symmetry_equiv_pos_as_xyz
1 x,y,z
2 1/2+x,1/2-y,-z
3 -x,1/2+y,1/2-z
4 1/2-x,-y,1/2+z
_cell_length_a                   10.45830(10)
_cell_length_b                   13.3200(2)
_cell_length_c                   22.0536(3)
_cell_angle_alpha                90
_cell_angle_beta                 90
_cell_angle_gamma                90
_cell_volume                     3072.17
_exptl_crystal_colour            colorless
_exptl_crystal_description       plate
_cell_formula_units_Z            4
loop_
_atom_site_label
_atom_site_type_symbol
_atom_site_fract_x
_atom_site_fract_y
_atom_site_fract_z
C1 C 0.7027(4) 0.4608(3) 0.80976(17)
H1 H 0.7762 0.4977 0.7948
H2 H 0.6745 0.4171 0.7772
C2 C 0.4635(12) 0.4565(6) 0.6034(3)
H3 H 0.4945 0.3996 0.6266
H4 H 0.3829 0.4777 0.6209
O1 O 0.8910(3) 0.2825(2) 0.80244(15)
H5 H 0.8719 0.2884 0.7666
O2 O 0.5241(3) 0.6837(2) 0.87141(12)
O3 O 0.4236(2) 0.75784(19) 0.79432(13)
O4 O 0.7425(5) 1.0678(3) 0.6509(3)
C3 C 0.7006(5) 0.2695(3) 0.94059(19)
H6 H 0.7490 0.2847 0.9770
H7 H 0.6306 0.2252 0.9514
C4 C 0.6479(4) 0.3683(3) 0.91163(14)
H8 H 0.5689 0.3506 0.8902
C5 C 0.7491(3) 0.3930(3) 0.86279(15)
C6 C 0.5964(3) 0.5363(3) 0.82178(15)
H9 H 0.5169 0.4974 0.8231
C7 C 0.5745(3) 0.6205(2) 0.77410(14)
C8 C 0.5038(3) 0.5880(3) 0.71656(15)
H10 H 0.4474 0.5319 0.7248
H11 H 0.4538 0.6430 0.7002
C9 C 0.6097(3) 0.5576(2) 0.67264(13)
H12 H 0.6432 0.4927 0.6863
C10 C 0.5617(5) 0.5437(3) 0.60760(16)
H13 H 0.6337 0.5296 0.5812
H14 H 0.5219 0.6054 0.5938
C11 C 0.4428(12) 0.4254(6) 0.5392(4)
H15 H 0.5249 0.4199 0.5180
C12 C 0.7167(3) 0.6363(3) 0.68196(15)
C13 C 0.6998(3) 0.6729(2) 0.74999(14)
H16 H 0.7719 0.6466 0.7735
C14 C 0.8683(4) 0.4377(3) 0.8924(2)
H17 H 0.8924 0.3976 0.9267
H18 H 0.8505 0.5050 0.9055
H19 H 0.9371 0.4387 0.8635
C15 C 0.7791(3) 0.2890(3) 0.83847(17)
H20 H 0.7066 0.2673 0.8136
C16 C 0.7880(5) 0.2186(4) 0.8929(2)
H21 H 0.8753 0.2135 0.9074
H22 H 0.7571 0.1520 0.8827
C17 C 0.6127(4) 0.4466(3) 0.95882(15)
H23 H 0.6916 0.4684 0.9789
C18 C 0.5446(4) 0.5392(3) 0.93539(16)
H24 H 0.5383 0.5868 0.9685
H25 H 0.4581 0.5199 0.9245
C19 C 0.6031(4) 0.5933(3) 0.88144(16)
H26 H 0.6916 0.6124 0.8904
C20 C 0.4982(3) 0.6941(3) 0.81214(16)
C21 C 0.5236(5) 0.3997(4) 1.00766(18)
H27 H 0.5061 0.4486 1.0386
H28 H 0.5649 0.3425 1.0255
H29 H 0.4449 0.3791 0.9891
C22 C 0.7001(3) 0.7877(3) 0.75650(19)
H30 H 0.6202 0.8148 0.7413
H31 H 0.7078 0.8057 0.7990
C23 C 0.8124(3) 0.8323(3) 0.72067(18)
H32 H 0.8936 0.8052 0.7357
C24 C 0.7969(4) 0.8086(3) 0.65279(19)
H33 H 0.8799 0.7903 0.6354
O5 O 0.7513(4) 0.9025(3) 0.6253(2)
C25 C 0.7670(5) 0.9824(3) 0.6644(3)
C26 C 0.8151(4) 0.9454(3) 0.7218(3)
C27 C 0.8474(5) 1.0061(4) 0.7674(4)
H34 H 0.8395 1.0753 0.7630
H35 H 0.8780 0.9793 0.8035
C28 C 0.7004(4) 0.7272(3) 0.63963(16)
H36 H 0.7099 0.7055 0.5979
H37 H 0.6149 0.7543 0.6444
C29 C 0.8499(4) 0.5881(3) 0.67242(17)
H38 H 0.8593 0.5689 0.6307
H39 H 0.8577 0.5298 0.6977
H40 H 0.9152 0.6356 0.6829
O6 O 0.3784(8) 0.3270(4) 0.5412(3)
H41 H 0.4234 0.2867 0.5595
C30 C 0.3598(12) 0.4908(6) 0.5074(4)
H42 H 0.2876 0.5068 0.5325
H43 H 0.3308 0.4585 0.4710
H44 H 0.4047 0.5513 0.4972
C31 C 0.3902(12) 0.2189(10) 0.3718(4)
C32 C 0.3096(17) 0.1813(12) 0.4222(6)
C33 C 0.3287(5) 0.1855(4) 0.3176(2)
O7 O 0.5097(19) 0.255(2) 0.3650(9)
C34? C 0.115(8) 0.228(3) 0.4804(19)
loop_
_geom_bond_atom_site_label_1
_geom_bond_atom_site_label_2
_geom_bond_site_symmetry_1
_geom_bond_site_symmetry_2
C1 H1 1_555 1_555
H2 C1 1_555 1_555
C2 H3 1_555 1_555
H4 C2 1_555 1_555
O1 H5 1_555 1_555
O2 C19 1_555 1_555
O3 C20 1_555 1_555
O4 C25 1_555 1_555
C3 H6 1_555 1_555
H7 C3 1_555 1_555
C4 C3 1_555 1_555
H8 C4 1_555 1_555
C5 C1 1_555 1_555
C6 C1 1_555 1_555
H9 C6 1_555 1_555
C7 C6 1_555 1_555
C8 C7 1_555 1_555
H10 C8 1_555 1_555
H11 C8 1_555 1_555
C9 C8 1_555 1_555
H12 C9 1_555 1_555
C10 C2 1_555 1_555
H13 C10 1_555 1_555
H14 C10 1_555 1_555
C11 C2 1_555 1_555
H15 C11 1_555 1_555
C12 C9 1_555 1_555
C13 C7 1_555 1_555
H16 C13 1_555 1_555
C14 C5 1_555 1_555
H17 C14 1_555 1_555
H18 C14 1_555 1_555
H19 C14 1_555 1_555
C15 O1 1_555 1_555
H20 C15 1_555 1_555
C16 C3 1_555 1_555
H21 C16 1_555 1_555
H22 C16 1_555 1_555
C17 C4 1_555 1_555
H23 C17 1_555 1_555
C18 C17 1_555 1_555
H24 C18 1_555 1_555
H25 C18 1_555 1_555
C19 C6 1_555 1_555
H26 C19 1_555 1_555
C20 O2 1_555 1_555
C21 C17 1_555 1_555
H27 C21 1_555 1_555
H28 C21 1_555 1_555
H29 C21 1_555 1_555
C22 C13 1_555 1_555
H30 C22 1_555 1_555
H31 C22 1_555 1_555
C23 C22 1_555 1_555
H32 C23 1_555 1_555
C24 C23 1_555 1_555
H33 C24 1_555 1_555
O5 C24 1_555 1_555
C25 O5 1_555 1_555
C26 C23 1_555 1_555
C27 C26 1_555 1_555
H34 C27 1_555 1_555
H35 C27 1_555 1_555
C28 C12 1_555 1_555
H36 C28 1_555 1_555
H37 C28 1_555 1_555
C29 C12 1_555 1_555
H38 C29 1_555 1_555
H39 C29 1_555 1_555
H40 C29 1_555 1_555
O6 C11 1_555 1_555
H41 O6 1_555 1_555
C30 C11 1_555 1_555
H42 C30 1_555 1_555
H43 C30 1_555 1_555
H44 C30 1_555 1_555
C31 C32 1_555 1_555
C33 C31 1_555 1_555
O7 C31 1_555 1_555
C4 C5 1_555 1_555
C5 C15 1_555 1_555
C7 C20 1_555 1_555
C9 C10 1_555 1_555
C12 C13 1_555 1_555
C15 C16 1_555 1_555
C18 C19 1_555 1_555
C24 C28 1_555 1_555
C25 C26 1_555 1_555

#END
