
#######################################################################
#
#                 Cambridge Crystallographic Data Centre
#                                CCDC 
#
#######################################################################
#
# If this CIF has been generated from an entry in the Cambridge 
# Structural Database, then it will include bibliographic, chemical, 
# crystal, experimental, refinement or atomic coordinate data resulting 
# from the CCDC's data processing and validation procedures.
#
#######################################################################

data_RAJHES
_chemical_formula_moiety         'C34 H28 O2 S2'
_chemical_name_systematic        
'2,3,5,6-tetrakis(4-methylphenyl)thieno[3,2-b]thiophene 1,1-dioxide'
_symmetry_cell_setting           triclinic
_symmetry_space_group_name_H-M   'P -1'
_symmetry_Int_Tables_number      2
_space_group_name_Hall           '-P 1'
loop_
_symmetry_equiv_pos_site_id
_symmetry_equiv_pos_as_xyz
1 x,y,z
2 -x,-y,-z
_cell_length_a                   9.7867(6)
_cell_length_b                   11.6737(7)
_cell_length_c                   12.7066(9)
_cell_angle_alpha                107.280(2)
_cell_angle_beta                 96.692(2)
_cell_angle_gamma                96.036(2)
_cell_volume                     1361.69
_exptl_crystal_description       block
_cell_formula_units_Z            2
loop_
_atom_site_label
_atom_site_type_symbol
_atom_site_fract_x
_atom_site_fract_y
_atom_site_fract_z
C1 C 0.4396(4) 0.6810(3) 0.1970(3)
C2 C 0.3788(4) 0.5655(3) 0.1429(3)
C3 C 0.2840(4) 0.5579(3) 0.0407(3)
C4 C 0.2707(4) 0.6644(3) 0.0194(3)
C5 C 0.1683(4) 0.6566(3) -0.0725(3)
C6 C 0.1058(4) 0.5368(3) -0.1228(3)
C7 C 0.5541(4) 0.7316(3) 0.2901(3)
C8 C 0.6606(4) 0.6638(4) 0.3068(3)
H1 H 0.6568 0.5837 0.2582
C9 C 0.7700(4) 0.7123(4) 0.3926(3)
H2 H 0.8397 0.6642 0.4032
C10 C 0.7811(4) 0.8300(4) 0.4640(4)
C11 C 0.6778(5) 0.8963(4) 0.4461(4)
H3 H 0.6835 0.9770 0.4940
C12 C 0.5661(4) 0.8502(4) 0.3613(3)
H4 H 0.4974 0.8994 0.3514
C13 C 0.9017(5) 0.8801(5) 0.5576(4)
H5 H 0.8951 0.9647 0.5978
H6 H 0.9891 0.8763 0.5270
H7 H 0.8994 0.8321 0.6091
C14 C 0.3908(4) 0.4574(3) 0.1782(3)
C15 C 0.3903(4) 0.3440(3) 0.1012(3)
H8 H 0.3863 0.3364 0.0243
C16 C 0.3956(4) 0.2423(3) 0.1350(3)
H9 H 0.3948 0.1658 0.0808
C17 C 0.4022(4) 0.2497(3) 0.2465(3)
C18 C 0.4007(4) 0.3625(3) 0.3236(3)
H10 H 0.4033 0.3695 0.4002
C19 C 0.3957(4) 0.4645(3) 0.2904(3)
H11 H 0.3956 0.5407 0.3446
C20 C 0.4120(5) 0.1388(4) 0.2827(4)
H12 H 0.4179 0.1614 0.3640
H13 H 0.4952 0.1042 0.2606
H14 H 0.3292 0.0786 0.2472
C21 C 0.1389(4) 0.7655(3) -0.1038(3)
C22 C 0.0069(4) 0.7979(3) -0.1134(3)
H15 H -0.0698 0.7466 -0.1043
C23 C -0.0145(4) 0.9037(3) -0.1362(3)
H16 H -0.1057 0.9249 -0.1411
C24 C 0.0948(4) 0.9799(3) -0.1521(3)
C25 C 0.2267(4) 0.9472(3) -0.1430(3)
H17 H 0.3030 0.9979 -0.1535
C26 C 0.2493(4) 0.8417(3) -0.1189(3)
H18 H 0.3406 0.8213 -0.1126
C27 C 0.0731(5) 1.0973(3) -0.1739(4)
H19 H 0.1204 1.1657 -0.1101
H20 H -0.0267 1.1023 -0.1847
H21 H 0.1113 1.1003 -0.2412
C28 C 0.0069(4) 0.4792(3) -0.2260(3)
C29 C -0.0663(4) 0.3637(3) -0.2462(3)
H22 H -0.0579 0.3258 -0.1897
C30 C -0.1505(4) 0.3034(4) -0.3464(3)
H23 H -0.1968 0.2239 -0.3581
C31 C -0.1691(4) 0.3558(4) -0.4300(3)
C32 C -0.1001(4) 0.4728(4) -0.4093(3)
H24 H -0.1133 0.5120 -0.4646
C33 C -0.0128(4) 0.5330(4) -0.3100(3)
H25 H 0.0344 0.6121 -0.2988
C34 C -0.2624(5) 0.2909(5) -0.5393(4)
H26 H -0.2121 0.2346 -0.5885
H27 H -0.2909 0.3504 -0.5749
H28 H -0.3451 0.2456 -0.5257
O1 O 0.4823(3) 0.8466(2) 0.0960(2)
O2 O 0.2800(3) 0.8526(2) 0.1947(2)
S1 S 0.37108(10) 0.78219(8) 0.12925(8)
S2 S 0.17196(10) 0.44136(8) -0.05325(8)
loop_
_geom_bond_atom_site_label_1
_geom_bond_atom_site_label_2
_geom_bond_site_symmetry_1
_geom_bond_site_symmetry_2
C1 C2 1_555 1_555
C2 C3 1_555 1_555
C3 C4 1_555 1_555
C4 C5 1_555 1_555
C5 C6 1_555 1_555
C6 C28 1_555 1_555
C7 C1 1_555 1_555
C8 C7 1_555 1_555
H1 C8 1_555 1_555
C9 C8 1_555 1_555
H2 C9 1_555 1_555
C10 C9 1_555 1_555
C11 C10 1_555 1_555
H3 C11 1_555 1_555
C12 C7 1_555 1_555
H4 C12 1_555 1_555
C13 C10 1_555 1_555
H5 C13 1_555 1_555
H6 C13 1_555 1_555
H7 C13 1_555 1_555
C14 C2 1_555 1_555
C15 C14 1_555 1_555
H8 C15 1_555 1_555
C16 C15 1_555 1_555
H9 C16 1_555 1_555
C17 C16 1_555 1_555
C18 C17 1_555 1_555
H10 C18 1_555 1_555
C19 C14 1_555 1_555
H11 C19 1_555 1_555
C20 C17 1_555 1_555
H12 C20 1_555 1_555
H13 C20 1_555 1_555
H14 C20 1_555 1_555
C21 C5 1_555 1_555
C22 C21 1_555 1_555
H15 C22 1_555 1_555
C23 C22 1_555 1_555
H16 C23 1_555 1_555
C24 C23 1_555 1_555
C25 C24 1_555 1_555
H17 C25 1_555 1_555
C26 C21 1_555 1_555
H18 C26 1_555 1_555
C27 C24 1_555 1_555
H19 C27 1_555 1_555
H20 C27 1_555 1_555
H21 C27 1_555 1_555
C28 C29 1_555 1_555
C29 H22 1_555 1_555
C30 C29 1_555 1_555
H23 C30 1_555 1_555
C31 C30 1_555 1_555
C32 C31 1_555 1_555
H24 C32 1_555 1_555
C33 C28 1_555 1_555
H25 C33 1_555 1_555
C34 C31 1_555 1_555
H26 C34 1_555 1_555
H27 C34 1_555 1_555
H28 C34 1_555 1_555
O1 S1 1_555 1_555
O2 S1 1_555 1_555
S1 C1 1_555 1_555
S2 C3 1_555 1_555
C4 S1 1_555 1_555
C6 S2 1_555 1_555
C11 C12 1_555 1_555
C18 C19 1_555 1_555
C25 C26 1_555 1_555
C32 C33 1_555 1_555

#END
