
#######################################################################
#
#                 Cambridge Crystallographic Data Centre
#                                CCDC 
#
#######################################################################
#
# If this CIF has been generated from an entry in the Cambridge 
# Structural Database, then it will include bibliographic, chemical, 
# crystal, experimental, refinement or atomic coordinate data resulting 
# from the CCDC's data processing and validation procedures.
#
#######################################################################

data_RAKFIT
_chemical_formula_moiety         'C24 H30 N3 P3 S3'
_chemical_name_systematic        
cis-2,4,6-Triphenyl-2,4,6-tris(methylsulfanylmethyl)cyclotriphosphazene
_symmetry_cell_setting           monoclinic
_symmetry_space_group_name_H-M   'P 21'
_symmetry_Int_Tables_number      4
_space_group_name_Hall           'P 2yb'
loop_
_symmetry_equiv_pos_site_id
_symmetry_equiv_pos_as_xyz
1 x,y,z
2 -x,1/2+y,-z
_cell_length_a                   11.796(1)
_cell_length_b                   8.755(1)
_cell_length_c                   13.806(1)
_cell_angle_alpha                90
_cell_angle_beta                 103.653(6)
_cell_angle_gamma                90
_cell_volume                     1385.51
_exptl_crystal_colour            colorless
_exptl_crystal_description       rods
_cell_formula_units_Z            2
loop_
_atom_site_label
_atom_site_type_symbol
_atom_site_fract_x
_atom_site_fract_y
_atom_site_fract_z
P1 P 0.32257(9) 0.73116(15) 0.24138(8)
P2 P 0.09635(8) 0.79408(14) 0.25919(7)
P3 P 0.25468(9) 0.64939(13) 0.41510(7)
N1 N 0.1943(3) 0.7933(5) 0.1965(2)
N2 N 0.1285(3) 0.7150(5) 0.3664(2)
N3 N 0.3493(3) 0.6511(5) 0.3479(2)
S1 S 0.40087(11) 1.03491(17) 0.32934(10)
S2 S -0.01874(13) 1.08559(17) 0.16801(10)
S3 S 0.22846(12) 0.76114(17) 0.61833(9)
C1 C 0.4259(4) 0.8863(6) 0.2474(4)
H1 H 0.5046 0.8474 0.2708
H2 H 0.4189 0.9280 0.1811
C2 C 0.0524(4) 0.9862(6) 0.2810(3)
H3 H 0.1208 1.0437 0.3144
H4 H -0.0004 0.9822 0.3253
C3 C 0.3184(4) 0.7542(6) 0.5281(3)
H5 H 0.3339 0.8580 0.5102
H6 H 0.3926 0.7078 0.5595
C4 C 0.3204(6) 1.1697(9) 0.2424(5)
H7 H 0.3652 1.1981 0.1956
H8 H 0.3046 1.2589 0.2775
H9 H 0.2481 1.1245 0.2075
C5 C -0.0053(7) 1.2804(8) 0.2101(6)
H10 H -0.0353 1.2899 0.2687
H11 H -0.0489 1.3455 0.1586
H12 H 0.0753 1.3098 0.2254
C6 C 0.2835(5) 0.6040(8) 0.6992(3)
H13 H 0.2636 0.5097 0.6638
H14 H 0.2495 0.6061 0.7559
H15 H 0.3668 0.6121 0.7212
C7 C 0.3641(4) 0.6002(6) 0.1544(3)
C8 C 0.2995(5) 0.5886(9) 0.0559(4)
H16 H 0.2336 0.6492 0.0341
C9 C 0.3323(6) 0.4886(11) -0.0092(5)
H17 H 0.2873 0.4792 -0.0740
C10 C 0.4315(6) 0.4025(9) 0.0214(5)
H18 H 0.4544 0.3362 -0.0231
C11 C 0.4973(5) 0.4141(8) 0.1178(5)
H19 H 0.5646 0.3558 0.1385
C12 C 0.4633(4) 0.5115(7) 0.1831(4)
H20 H 0.5079 0.5181 0.2482
C13 C -0.0338(3) 0.7071(6) 0.1839(3)
C14 C -0.1276(4) 0.6827(7) 0.2249(4)
H21 H -0.1233 0.7115 0.2905
C15 C -0.2280(4) 0.6161(9) 0.1698(5)
H22 H -0.2910 0.6007 0.1983
C16 C -0.2356(4) 0.5723(9) 0.0731(4)
H23 H -0.3041 0.5297 0.0354
C17 C -0.1427(5) 0.5916(9) 0.0332(4)
H24 H -0.1459 0.5573 -0.0311
C18 C -0.0422(4) 0.6623(8) 0.0872(3)
H25 H 0.0198 0.6794 0.0577
C19 C 0.2395(4) 0.4581(5) 0.4581(3)
C20 C 0.3379(4) 0.3670(6) 0.4913(3)
H26 H 0.4111 0.4020 0.4872
C21 C 0.3258(5) 0.2242(7) 0.5305(4)
H27 H 0.3909 0.1620 0.5513
C22 C 0.2192(6) 0.1738(7) 0.5387(4)
H28 H 0.2124 0.0785 0.5666
C23 C 0.1216(5) 0.2629(7) 0.5062(4)
H29 H 0.0492 0.2277 0.5121
C24 C 0.1309(4) 0.4035(6) 0.4652(3)
H30 H 0.0645 0.4625 0.4420
loop_
_geom_bond_atom_site_label_1
_geom_bond_atom_site_label_2
_geom_bond_site_symmetry_1
_geom_bond_site_symmetry_2
P1 N1 1_555 1_555
P2 N1 1_555 1_555
P3 N2 1_555 1_555
N2 P2 1_555 1_555
N3 P1 1_555 1_555
S1 C1 1_555 1_555
S2 C2 1_555 1_555
S3 C3 1_555 1_555
C1 P1 1_555 1_555
H1 C1 1_555 1_555
H2 C1 1_555 1_555
C2 P2 1_555 1_555
H3 C2 1_555 1_555
H4 C2 1_555 1_555
C3 P3 1_555 1_555
H5 C3 1_555 1_555
H6 C3 1_555 1_555
C4 S1 1_555 1_555
H7 C4 1_555 1_555
H8 C4 1_555 1_555
H9 C4 1_555 1_555
C5 S2 1_555 1_555
H10 C5 1_555 1_555
H11 C5 1_555 1_555
H12 C5 1_555 1_555
C6 S3 1_555 1_555
H13 C6 1_555 1_555
H14 C6 1_555 1_555
H15 C6 1_555 1_555
C7 P1 1_555 1_555
C8 C7 1_555 1_555
H16 C8 1_555 1_555
C9 C8 1_555 1_555
H17 C9 1_555 1_555
C10 C9 1_555 1_555
H18 C10 1_555 1_555
C11 C10 1_555 1_555
H19 C11 1_555 1_555
C12 C7 1_555 1_555
H20 C12 1_555 1_555
C13 P2 1_555 1_555
C14 C13 1_555 1_555
H21 C14 1_555 1_555
C15 C14 1_555 1_555
H22 C15 1_555 1_555
C16 C15 1_555 1_555
H23 C16 1_555 1_555
C17 C16 1_555 1_555
H24 C17 1_555 1_555
C18 C13 1_555 1_555
H25 C18 1_555 1_555
C19 P3 1_555 1_555
C20 C19 1_555 1_555
H26 C20 1_555 1_555
C21 C20 1_555 1_555
H27 C21 1_555 1_555
C22 C21 1_555 1_555
H28 C22 1_555 1_555
C23 C22 1_555 1_555
H29 C23 1_555 1_555
C24 C19 1_555 1_555
H30 C24 1_555 1_555
P3 N3 1_555 1_555
C11 C12 1_555 1_555
C17 C18 1_555 1_555
C23 C24 1_555 1_555

#END
