
#######################################################################
#
#                 Cambridge Crystallographic Data Centre
#                                CCDC 
#
#######################################################################
#
# If this CIF has been generated from an entry in the Cambridge 
# Structural Database, then it will include bibliographic, chemical, 
# crystal, experimental, refinement or atomic coordinate data resulting 
# from the CCDC's data processing and validation procedures.
#
#######################################################################

data_RAKTOO
_chemical_name_common            'Secologanic acid'
_chemical_formula_moiety         'C16 H22 O10'
_chemical_name_systematic        
3-Hydroxy-6-((3,4,5-trihydroxy-6-(hydroxymethyl)tetrahydro-2H-pyran-2-yl)oxy)-5-vinyl-4,4a,5,6-tetrahydro-1H,3H-pyrano[3,4-c]pyran-1-one
_symmetry_cell_setting           orthorhombic
_symmetry_space_group_name_H-M   'P 21 21 21'
_symmetry_Int_Tables_number      19
_space_group_name_Hall           'P 2ac 2ab'
loop_
_symmetry_equiv_pos_site_id
_symmetry_equiv_pos_as_xyz
1 x,y,z
2 1/2-x,-y,1/2+z
3 -x,1/2+y,1/2-z
4 1/2+x,1/2-y,-z
_cell_length_a                   8.4601(17)
_cell_length_b                   11.033(2)
_cell_length_c                   18.202(4)
_cell_angle_alpha                90
_cell_angle_beta                 90
_cell_angle_gamma                90
_cell_volume                     1698.98
_exptl_crystal_colour            yellow
_exptl_crystal_description       block
_cell_formula_units_Z            4
loop_
_atom_site_label
_atom_site_type_symbol
_atom_site_fract_x
_atom_site_fract_y
_atom_site_fract_z
O1 O -0.1247(4) -0.3993(3) -0.21123(17)
O2 O -0.6041(3) -0.3517(3) -0.22508(15)
O3 O -0.1207(4) -0.0522(3) -0.27964(17)
H1 H -0.0426 -0.0094 -0.2857
O4 O -0.0718(3) -0.2575(3) -0.29269(18)
O5 O -0.6441(3) -0.1463(2) -0.20414(14)
O6 O -0.4764(3) -0.1872(3) -0.07293(17)
H2 H -0.4021 -0.1508 -0.0916
O7 O -0.6019(4) -0.0606(3) 0.05003(17)
H3 H -0.6285 -0.0837 0.0910
O8 O -0.9456(4) -0.0629(3) 0.05701(16)
H4 H -0.9610 -0.1343 0.0672
O9 O -0.8642(3) -0.0915(2) -0.14013(13)
O10 O -1.2139(3) -0.0919(3) -0.13481(17)
H5 H -1.1802 -0.0854 -0.1769
C1 C -0.7221(4) -0.1597(4) -0.1367(2)
H6 H -0.7467 -0.2454 -0.1284
C2 C -0.6150(5) -0.1140(4) -0.0767(2)
H7 H -0.5842 -0.0304 -0.0878
C3 C -0.6997(5) -0.1163(4) -0.0038(2)
H8 H -0.7166 -0.2011 0.0103
C4 C -0.8588(5) -0.0551(4) -0.0099(2)
H9 H -0.8391 0.0310 -0.0193
C5 C -0.9542(4) -0.1032(4) -0.0743(2)
H10 H -0.9778 -0.1891 -0.0659
C6 C -1.1068(5) -0.0352(5) -0.0851(2)
H11 H -1.1585 -0.0263 -0.0379
H12 H -1.0827 0.0454 -0.1032
C7 C -0.6628(5) -0.2403(4) -0.2556(2)
H13 H -0.7752 -0.2495 -0.2673
C8 C -0.4463(5) -0.3627(4) -0.2244(2)
H14 H -0.4046 -0.4283 -0.1989
C9 C -0.3429(5) -0.2880(4) -0.2573(2)
C10 C -0.3980(4) -0.1816(3) -0.3015(2)
H15 H -0.3970 -0.1102 -0.2696
C11 C -0.2819(5) -0.1598(5) -0.3632(2)
H16 H -0.2832 -0.2277 -0.3970
H17 H -0.3108 -0.0872 -0.3900
C12 C -0.1199(5) -0.1455(5) -0.3307(3)
H18 H -0.0440 -0.1270 -0.3698
C13 C -0.5885(5) -0.3018(4) -0.3816(2)
H19 H -0.5590 -0.3794 -0.3671
C14 C -0.5726(5) -0.2054(4) -0.3252(2)
H20 H -0.6173 -0.1300 -0.3447
C15 C -0.637(4) -0.2910(17) -0.4472(8)
H21 H -0.6686 -0.2156 -0.4648
H22 H -0.6422 -0.3586 -0.4776
C16 C -0.1769(5) -0.3183(4) -0.2511(2)
loop_
_geom_bond_atom_site_label_1
_geom_bond_atom_site_label_2
_geom_bond_site_symmetry_1
_geom_bond_site_symmetry_2
O1 C16 1_555 1_555
O2 C7 1_555 1_555
O3 H1 1_555 1_555
O4 C12 1_555 1_555
O5 C1 1_555 1_555
O6 H2 1_555 1_555
O7 H3 1_555 1_555
O8 H4 1_555 1_555
O9 C1 1_555 1_555
O10 H5 1_555 1_555
C1 H6 1_555 1_555
C2 O6 1_555 1_555
H7 C2 1_555 1_555
C3 O7 1_555 1_555
H8 C3 1_555 1_555
C4 O8 1_555 1_555
H9 C4 1_555 1_555
C5 O9 1_555 1_555
H10 C5 1_555 1_555
C6 O10 1_555 1_555
H11 C6 1_555 1_555
H12 C6 1_555 1_555
C7 O5 1_555 1_555
H13 C7 1_555 1_555
C8 O2 1_555 1_555
H14 C8 1_555 1_555
C9 C8 1_555 1_555
C10 C9 1_555 1_555
H15 C10 1_555 1_555
C11 C10 1_555 1_555
H16 C11 1_555 1_555
H17 C11 1_555 1_555
C12 O3 1_555 1_555
H18 C12 1_555 1_555
C13 H19 1_555 1_555
C14 C7 1_555 1_555
H20 C14 1_555 1_555
C15 C13 1_555 1_555
H21 C15 1_555 1_555
H22 C15 1_555 1_555
C16 O4 1_555 1_555
C1 C2 1_555 1_555
C2 C3 1_555 1_555
C3 C4 1_555 1_555
C4 C5 1_555 1_555
C5 C6 1_555 1_555
C9 C16 1_555 1_555
C10 C14 1_555 1_555
C11 C12 1_555 1_555
C13 C14 1_555 1_555

#END
