
#######################################################################
#
#                 Cambridge Crystallographic Data Centre
#                                CCDC 
#
#######################################################################
#
# If this CIF has been generated from an entry in the Cambridge 
# Structural Database, then it will include bibliographic, chemical, 
# crystal, experimental, refinement or atomic coordinate data resulting 
# from the CCDC's data processing and validation procedures.
#
#######################################################################

data_RALQIE
_chemical_formula_moiety         'C78 H108 O6'
_chemical_name_systematic        
5,11,17,23,29,35-Hexa-t-butyl-hexa-O-ethylcalix(6)arene
_symmetry_cell_setting           monoclinic
_symmetry_space_group_name_H-M   'P 21/c'
_symmetry_Int_Tables_number      14
_space_group_name_Hall           '-P 2ybc'
loop_
_symmetry_equiv_pos_site_id
_symmetry_equiv_pos_as_xyz
1 x,y,z
2 x,1/2-y,1/2+z
3 -x,-y,-z
4 -x,1/2+y,1/2-z
_cell_length_a                   13.9631(9)
_cell_length_b                   25.5857(16)
_cell_length_c                   10.1442(6)
_cell_angle_alpha                90
_cell_angle_beta                 92.1940(10)
_cell_angle_gamma                90
_cell_volume                     3621.42
_exptl_crystal_colour            colorless
_exptl_crystal_description       orthorhombic
_cell_formula_units_Z            2
_exptl_crystal_recrystallization_method dichloromethane
loop_
_atom_site_label
_atom_site_type_symbol
_atom_site_fract_x
_atom_site_fract_y
_atom_site_fract_z
H1 H 0.013(4) 0.646(2) -0.008(6)
O1 O 0.21546(12) 0.37964(6) 0.40042(17)
O2 O 0.59443(12) 0.60079(7) 0.14485(16)
O3 O 0.32214(13) 0.50068(7) 0.25320(18)
C1 C 0.21770(18) 0.44570(10) 0.7225(3)
C2 C 0.45722(18) 0.62745(9) 0.2679(2)
C3 C 0.58177(19) 0.67296(10) 0.4572(3)
C4 C 0.55676(18) 0.62670(9) 0.2529(2)
C5 C 0.48377(18) 0.67559(9) 0.4754(2)
C6 C 0.42236(19) 0.65241(9) 0.3790(3)
C7 C 0.12464(19) 0.62416(10) 0.2178(3)
C8 C 0.19953(17) 0.41773(9) 0.4964(2)
C9 C 0.0975(2) 0.57418(10) 0.2611(2)
C10 C 0.16308(19) 0.53352(9) 0.2747(2)
C11 C 0.72827(18) 0.64598(10) 0.3323(3)
C12 C 0.18027(17) 0.49529(9) 0.6907(2)
C13 C 0.17796(19) 0.53717(10) 0.7989(2)
C14 C 0.25930(18) 0.54276(9) 0.2461(2)
C15 C 0.39107(19) 0.60169(11) 0.1629(3)
C16 C 0.22029(19) 0.63139(10) 0.1887(3)
C17 C 0.15160(18) 0.50423(10) 0.5589(2)
C18 C 0.1322(2) 0.47923(10) 0.3181(3)
C19 C 0.62002(18) 0.64859(9) 0.3471(2)
C20 C 0.16121(18) 0.46637(9) 0.4609(2)
C21 C 0.28889(18) 0.59170(10) 0.2022(2)
C22 C 0.22838(17) 0.40666(10) 0.6277(2)
C23 C 0.2816(2) 0.54729(13) 0.8504(3)
C24 C 0.3799(2) 0.74998(12) 0.5464(3)
C25 C 0.1175(2) 0.51803(12) 0.9138(3)
C26 C 0.5982(3) 0.63163(14) 0.0259(3)
C27 C 0.5195(2) 0.72386(13) 0.6921(3)
C28 C 0.44139(18) 0.70317(10) 0.5951(3)
C29 C 0.1358(2) 0.58916(11) 0.7477(3)
C30 C 0.1326(2) 0.34918(13) 0.3620(3)
C31 C 0.3793(3) 0.66453(13) 0.6702(3)
C32 C 0.0502(2) 0.66832(11) 0.2039(3)
C33 C 0.0031(3) 0.67643(17) 0.3353(5)
C34 C -0.0330(3) 0.64890(19) 0.1007(5)
C35 C 0.0909(4) 0.71780(19) 0.1509(7)
C36 C 0.1603(5) 0.3095(3) 0.2670(7)
C37 C 0.6670(3) 0.60525(18) -0.0636(4)
C38 C 0.3881(2) 0.50044(11) 0.3674(3)
C39 C 0.4461(3) 0.45082(14) 0.3599(5)
H2 H 0.061(2) 0.4775(10) 0.302(3)
H3 H 0.6236(18) 0.6869(10) 0.520(3)
H4 H 0.1246(19) 0.5417(11) 0.530(3)
H5 H 0.388(2) 0.6248(10) 0.085(3)
H6 H 0.4194(19) 0.5682(11) 0.137(3)
H7 H 0.0314(19) 0.5680(10) 0.283(2)
H8 H 0.1604(19) 0.4541(10) 0.257(3)
H9 H 0.2389(18) 0.6656(10) 0.153(2)
H10 H 0.2442(18) 0.4411(10) 0.816(3)
H11 H 0.6297(14) 0.6670(8) 0.0124(19)
H12 H 0.067(2) 0.5884(12) 0.710(3)
H13 H 0.7414(17) 0.6535(8) 0.243(2)
H14 H 0.429(2) 0.5303(11) 0.365(3)
H15 H 0.136(2) 0.6170(11) 0.820(3)
H16 H 0.046(2) 0.5090(11) 0.882(3)
H17 H 0.144(2) 0.4857(11) 0.957(3)
H18 H 0.310(2) 0.5154(12) 0.892(3)
H19 H 0.484(2) 0.7415(11) 0.765(3)
H20 H 0.324(2) 0.6492(12) 0.616(3)
H21 H 0.121(2) 0.5450(12) 0.984(3)
H22 H 0.173(2) 0.6049(10) 0.669(3)
H23 H 0.405(2) 0.4192(12) 0.365(3)
H24 H 0.355(2) 0.5028(11) 0.448(3)
H25 H 0.487(3) 0.4503(15) 0.440(4)
H26 H 0.344(2) 0.6787(12) 0.745(3)
H27 H 0.320(2) 0.5601(13) 0.771(3)
H28 H 0.282(2) 0.5806(12) 0.915(3)
H29 H 0.3483(19) 0.6522(9) 0.385(2)
H30 H 0.361(2) 0.7678(13) 0.629(4)
H31 H 0.760(2) 0.6745(11) 0.387(3)
H32 H 0.327(3) 0.7367(13) 0.490(4)
H33 H 0.563(2) 0.6930(13) 0.737(3)
H34 H 0.421(2) 0.7783(12) 0.496(3)
H35 H 0.533(2) 0.6373(12) -0.008(3)
H36 H 0.113(3) 0.3187(15) 0.436(4)
H37 H 0.417(2) 0.6346(12) 0.712(3)
H38 H 0.668(2) 0.6261(12) -0.149(4)
H39 H 0.562(2) 0.7484(11) 0.656(3)
H40 H 0.484(3) 0.4539(15) 0.283(4)
H41 H 0.074(3) 0.3701(15) 0.331(4)
H42 H -0.079(4) 0.676(2) 0.129(6)
H43 H 0.118(3) 0.7075(15) 0.057(4)
H44 H -0.028(3) 0.6420(15) 0.366(4)
H45 H -0.054(3) 0.7055(16) 0.323(4)
H46 H 0.113(4) 0.2922(18) 0.241(5)
H47 H 0.059(3) 0.7370(18) 0.149(5)
H48 H 0.211(3) 0.2966(16) 0.237(4)
H49 H 0.744(6) 0.598(3) -0.022(7)
H50 H 0.626(3) 0.5674(18) -0.075(4)
C22B C 0.77162(17) 0.59334(10) 0.3723(2)
C1B C 0.78230(18) 0.55430(10) 0.2775(3)
C12B C 0.81973(17) 0.50471(9) 0.3093(2)
C13B C 0.82204(19) 0.46283(10) 0.2011(2)
C23B C 0.7184(2) 0.45271(13) 0.1496(3)
H18B H 0.690(2) 0.4846(12) 0.108(3)
H27B H 0.680(2) 0.4399(13) 0.229(3)
H28B H 0.718(2) 0.4194(12) 0.085(3)
C25B C 0.8825(2) 0.48197(12) 0.0862(3)
H16B H 0.954(2) 0.4910(11) 0.118(3)
H17B H 0.856(2) 0.5143(11) 0.043(3)
H21B H 0.879(2) 0.4550(12) 0.016(3)
C29B C 0.8642(2) 0.41084(11) 0.2523(3)
H12B H 0.933(2) 0.4116(12) 0.290(3)
H15B H 0.864(2) 0.3830(11) 0.180(3)
H22B H 0.827(2) 0.3951(10) 0.331(3)
C17B C 0.84840(18) 0.49577(10) 0.4411(2)
C20B C 0.83879(18) 0.53363(9) 0.5391(2)
C8B C 0.80047(17) 0.58227(9) 0.5036(2)
O1B O 0.78454(12) 0.62036(6) 0.59958(17)
C30B C 0.8674(2) 0.65082(13) 0.6380(3)
C36B C 0.8397(5) 0.6905(3) 0.7330(7)
H46B H 0.887(4) 0.7078(18) 0.759(5)
H48B H 0.789(3) 0.7034(16) 0.763(4)
H36B H 0.887(3) 0.6813(15) 0.564(4)
H41B H 0.926(3) 0.6299(15) 0.669(4)
C18B C 0.8678(2) 0.52077(10) 0.6819(3)
C10B C 0.83692(19) 0.46648(9) 0.7253(2)
C9B C 0.9025(2) 0.42582(10) 0.7389(2)
C7B C 0.87536(19) 0.37584(10) 0.7822(3)
C16B C 0.77971(19) 0.36861(10) 0.8113(3)
C21B C 0.71111(18) 0.40830(10) 0.7978(2)
C14B C 0.74070(18) 0.45724(9) 0.7539(2)
O3B O 0.67786(13) 0.49932(7) 0.74680(18)
C38B C 0.6119(2) 0.49956(11) 0.6326(3)
C39B C 0.5539(3) 0.54918(14) 0.6401(5)
H23B H 0.595(2) 0.5808(12) 0.635(3)
H25B H 0.513(3) 0.5497(15) 0.560(4)
H40B H 0.516(3) 0.5461(15) 0.717(4)
H14B H 0.571(2) 0.4697(11) 0.635(3)
H24B H 0.645(2) 0.4972(11) 0.552(3)
C15B C 0.60893(19) 0.39831(11) 0.8371(3)
C2B C 0.54278(18) 0.37255(9) 0.7321(2)
C4B C 0.44324(18) 0.37330(9) 0.7471(2)
O2B O 0.40557(12) 0.39921(7) 0.85515(16)
C26B C 0.4018(3) 0.36837(14) 0.9741(3)
C37B C 0.3330(3) 0.39475(18) 1.0636(4)
H38B H 0.332(2) 0.3739(12) 1.149(4)
H49B H 0.256(6) 0.402(3) 1.022(7)
H50B H 0.374(3) 0.4326(18) 1.075(4)
H11B H 0.3703(14) 0.3330(8) 0.9876(19)
H35B H 0.467(2) 0.3627(12) 1.008(3)
C19B C 0.37998(18) 0.35141(9) 0.6529(2)
C3B C 0.41823(19) 0.32704(10) 0.5428(3)
C5B C 0.51623(18) 0.32441(9) 0.5246(2)
C6B C 0.57764(19) 0.34759(9) 0.6210(3)
H29B H 0.6517(19) 0.3478(9) 0.615(2)
C28B C 0.55861(18) 0.29683(10) 0.4049(3)
C24B C 0.6201(2) 0.25002(12) 0.4536(3)
H30B H 0.639(2) 0.2322(13) 0.371(4)
H32B H 0.673(3) 0.2633(13) 0.510(4)
H34B H 0.579(2) 0.2217(12) 0.504(3)
C27B C 0.4805(2) 0.27614(13) 0.3079(3)
H19B H 0.516(2) 0.2585(11) 0.235(3)
H33B H 0.437(2) 0.3070(13) 0.263(3)
H39B H 0.438(2) 0.2516(11) 0.344(3)
C31B C 0.6207(3) 0.33547(13) 0.3298(3)
H20B H 0.676(2) 0.3508(12) 0.384(3)
H26B H 0.656(2) 0.3213(12) 0.255(3)
H37B H 0.583(2) 0.3654(12) 0.288(3)
H3B H 0.3764(18) 0.3131(10) 0.480(3)
C11B C 0.27173(18) 0.35402(10) 0.6677(3)
H13B H 0.2586(17) 0.3465(8) 0.757(2)
H31B H 0.240(2) 0.3255(11) 0.613(3)
H5B H 0.612(2) 0.3752(10) 0.915(3)
H6B H 0.5806(19) 0.4318(11) 0.863(3)
H9B H 0.7611(18) 0.3344(10) 0.847(2)
C32B C 0.9498(2) 0.33168(11) 0.7961(3)
C33B C 0.9969(3) 0.32357(17) 0.6647(5)
H44B H 1.028(3) 0.3580(15) 0.634(4)
H45B H 1.054(3) 0.2945(16) 0.677(4)
C34B C 1.0330(3) 0.35110(19) 0.8993(5)
H1B H 0.987(4) 0.354(2) 1.008(6)
H42B H 1.079(4) 0.324(2) 0.871(6)
C35B C 0.9091(4) 0.28220(19) 0.8491(7)
H43B H 0.882(3) 0.2925(15) 0.943(4)
H47B H 0.941(3) 0.2630(18) 0.851(5)
H7B H 0.9686(19) 0.4320(10) 0.717(2)
H2B H 0.939(2) 0.5225(10) 0.698(3)
H8B H 0.8396(19) 0.5459(10) 0.743(3)
H4B H 0.8754(19) 0.4583(11) 0.470(3)
H10B H 0.7558(18) 0.5589(10) 0.184(3)
loop_
_geom_bond_atom_site_label_1
_geom_bond_atom_site_label_2
_geom_bond_site_symmetry_1
_geom_bond_site_symmetry_2
H1 C34 1_555 1_555
O1 C8 1_555 1_555
O2 C4 1_555 1_555
O3 C14 1_555 1_555
C1 C12 1_555 1_555
C2 C4 1_555 1_555
C3 C5 1_555 1_555
C4 C19 1_555 1_555
C5 C6 1_555 1_555
C6 C2 1_555 1_555
C7 C9 1_555 1_555
C8 C20 1_555 1_555
C9 C10 1_555 1_555
C10 C14 1_555 1_555
C11 C19 1_555 1_555
C12 C13 1_555 1_555
C13 C23 1_555 1_555
C14 C21 1_555 1_555
C15 C2 1_555 1_555
C16 C7 1_555 1_555
C17 C12 1_555 1_555
C18 C10 1_555 1_555
C19 C3 1_555 1_555
C20 C17 1_555 1_555
C21 C15 1_555 1_555
C22 C1 1_555 1_555
C23 H18 1_555 1_555
C24 C28 1_555 1_555
C25 C13 1_555 1_555
C26 O2 1_555 1_555
C27 C28 1_555 1_555
C28 C5 1_555 1_555
C29 C13 1_555 1_555
C30 O1 1_555 1_555
C31 C28 1_555 1_555
C32 C7 1_555 1_555
C33 C32 1_555 1_555
C34 C32 1_555 1_555
C35 C32 1_555 1_555
C36 C30 1_555 1_555
C37 C26 1_555 1_555
C38 O3 1_555 1_555
C39 C38 1_555 1_555
H2 C18 1_555 1_555
H3 C3 1_555 1_555
H4 C17 1_555 1_555
H5 C15 1_555 1_555
H6 C15 1_555 1_555
H7 C9 1_555 1_555
H8 C18 1_555 1_555
H9 C16 1_555 1_555
H10 C1 1_555 1_555
H11 C26 1_555 1_555
H12 C29 1_555 1_555
H13 C11 1_555 1_555
H14 C38 1_555 1_555
H15 C29 1_555 1_555
H16 C25 1_555 1_555
H17 C25 1_555 1_555
H19 C27 1_555 1_555
H20 C31 1_555 1_555
H21 C25 1_555 1_555
H22 C29 1_555 1_555
H23 C39 1_555 1_555
H24 C38 1_555 1_555
H25 C39 1_555 1_555
H26 C31 1_555 1_555
H27 C23 1_555 1_555
H28 C23 1_555 1_555
H29 C6 1_555 1_555
H30 C24 1_555 1_555
H31 C11 1_555 1_555
H32 C24 1_555 1_555
H33 C27 1_555 1_555
H34 C24 1_555 1_555
H35 C26 1_555 1_555
H36 C30 1_555 1_555
H37 C31 1_555 1_555
H38 C37 1_555 1_555
H39 C27 1_555 1_555
H40 C39 1_555 1_555
H41 C30 1_555 1_555
H42 C34 1_555 1_555
H43 C35 1_555 1_555
H44 C33 1_555 1_555
H45 C33 1_555 1_555
H46 C36 1_555 1_555
H47 C35 1_555 1_555
H48 C36 1_555 1_555
H49 C37 1_555 1_555
H50 C37 1_555 1_555
C22B C11 1_555 1_555
C1B C22B 1_555 1_555
C12B C1B 1_555 1_555
C13B C12B 1_555 1_555
C23B C13B 1_555 1_555
H18B C23B 1_555 1_555
H27B C23B 1_555 1_555
H28B C23B 1_555 1_555
C25B C13B 1_555 1_555
H16B C25B 1_555 1_555
H17B C25B 1_555 1_555
H21B C25B 1_555 1_555
C29B C13B 1_555 1_555
H12B C29B 1_555 1_555
H15B C29B 1_555 1_555
H22B C29B 1_555 1_555
C17B C12B 1_555 1_555
C20B C17B 1_555 1_555
C8B C22B 1_555 1_555
O1B C8B 1_555 1_555
C30B O1B 1_555 1_555
C36B C30B 1_555 1_555
H46B C36B 1_555 1_555
H48B C36B 1_555 1_555
H36B C30B 1_555 1_555
H41B C30B 1_555 1_555
C18B C20B 1_555 1_555
C10B C18B 1_555 1_555
C9B C10B 1_555 1_555
C7B C9B 1_555 1_555
C16B C7B 1_555 1_555
C21B C16B 1_555 1_555
C14B C10B 1_555 1_555
O3B C14B 1_555 1_555
C38B O3B 1_555 1_555
C39B C38B 1_555 1_555
H23B C39B 1_555 1_555
H25B C39B 1_555 1_555
H40B C39B 1_555 1_555
H14B C38B 1_555 1_555
H24B C38B 1_555 1_555
C15B C21B 1_555 1_555
C2B C15B 1_555 1_555
C4B C2B 1_555 1_555
O2B C4B 1_555 1_555
C26B O2B 1_555 1_555
C37B C26B 1_555 1_555
H38B C37B 1_555 1_555
H49B C37B 1_555 1_555
H50B C37B 1_555 1_555
H11B C26B 1_555 1_555
H35B C26B 1_555 1_555
C19B C4B 1_555 1_555
C3B C19B 1_555 1_555
C5B C3B 1_555 1_555
C6B C2B 1_555 1_555
H29B C6B 1_555 1_555
C28B C5B 1_555 1_555
C24B C28B 1_555 1_555
H30B C24B 1_555 1_555
H32B C24B 1_555 1_555
H34B C24B 1_555 1_555
C27B C28B 1_555 1_555
H19B C27B 1_555 1_555
H33B C27B 1_555 1_555
H39B C27B 1_555 1_555
C31B C28B 1_555 1_555
H20B C31B 1_555 1_555
H26B C31B 1_555 1_555
H37B C31B 1_555 1_555
H3B C3B 1_555 1_555
C11B C22 1_555 1_555
H13B C11B 1_555 1_555
H31B C11B 1_555 1_555
H5B C15B 1_555 1_555
H6B C15B 1_555 1_555
H9B C16B 1_555 1_555
C32B C7B 1_555 1_555
C33B C32B 1_555 1_555
H44B C33B 1_555 1_555
H45B C33B 1_555 1_555
C34B C32B 1_555 1_555
H1B C34B 1_555 1_555
H42B C34B 1_555 1_555
C35B C32B 1_555 1_555
H43B C35B 1_555 1_555
H47B C35B 1_555 1_555
H7B C9B 1_555 1_555
H2B C18B 1_555 1_555
H8B C18B 1_555 1_555
H4B C17B 1_555 1_555
H10B C1B 1_555 1_555
C8 C22 1_555 1_555
C16 C21 1_555 1_555
C18 C20 1_555 1_555
C20B C8B 1_555 1_555
C21B C14B 1_555 1_555
C19B C11B 1_555 1_555
C5B C6B 1_555 1_555

#END
