
#######################################################################
#
#                 Cambridge Crystallographic Data Centre
#                                CCDC 
#
#######################################################################
#
# If this CIF has been generated from an entry in the Cambridge 
# Structural Database, then it will include bibliographic, chemical, 
# crystal, experimental, refinement or atomic coordinate data resulting 
# from the CCDC's data processing and validation procedures.
#
#######################################################################

data_RALSIH
_chemical_formula_moiety         'C18 H22 N4'
_chemical_name_systematic        
1,4-bis(4-Dimethylaminophenyl)-2,3-diaza-1,3-butadiene
_symmetry_cell_setting           monoclinic
_symmetry_space_group_name_H-M   'P 21/c'
_symmetry_Int_Tables_number      14
_space_group_name_Hall           '-P 2ybc'
loop_
_symmetry_equiv_pos_site_id
_symmetry_equiv_pos_as_xyz
1 x,y,z
2 -x,1/2+y,1/2-z
3 -x,-y,-z
4 x,1/2-y,1/2+z
_cell_length_a                   8.232(4)
_cell_length_b                   6.065(3)
_cell_length_c                   16.710(9)
_cell_angle_alpha                90
_cell_angle_beta                 97.864(6)
_cell_angle_gamma                90
_cell_volume                     826.436
_exptl_crystal_colour            yellow
_exptl_crystal_description       block
_cell_formula_units_Z            2
_exptl_crystal_recrystallization_method dichloromethane/DMF
loop_
_atom_site_label
_atom_site_type_symbol
_atom_site_fract_x
_atom_site_fract_y
_atom_site_fract_z
N1 N 0.3398(2) -0.0872(3) 0.63132(10)
N2 N 0.0441(2) -0.0437(3) 0.97031(10)
C1 C 0.3090(4) 0.0617(4) 0.56302(14)
H1 H 0.1959 0.1059 0.5560
H2 H 0.3329 -0.0119 0.5151
H3 H 0.3776 0.1895 0.5728
C2 C 0.4157(3) -0.2941(4) 0.61729(15)
H4 H 0.5003 -0.3253 0.6613
H5 H 0.4628 -0.2863 0.5679
H6 H 0.3349 -0.4091 0.6133
C3 C 0.2806(2) -0.0412(3) 0.70215(12)
C4 C 0.2039(3) 0.1609(3) 0.71400(13)
H7 H 0.1973 0.270 0.6733
C5 C 0.1382(2) 0.2034(3) 0.78379(11)
H8 H 0.0873 0.343 0.78996
C6 C 0.1438(2) 0.0491(3) 0.84561(11)
C7 C 0.2249(2) -0.1495(3) 0.83540(12)
H9 H 0.2334 -0.258 0.8779
C8 C 0.2929(2) -0.1941(3) 0.76631(12)
H10 H 0.3512 -0.336 0.76160
C9 C 0.0604(2) 0.0973(4) 0.91475(11)
H11 H 0.0111 0.255 0.91949
N1B N -0.3398(2) 0.0872(3) 1.36868(10)
N2B N -0.0441(2) 0.0437(3) 1.02969(10)
C1B C -0.3090(4) -0.0617(4) 1.43698(14)
H1B H -0.1959 -0.1059 1.4440
H2B H -0.3329 0.0119 1.4849
H3B H -0.3776 -0.1895 1.4272
C2B C -0.4157(3) 0.2941(4) 1.38271(15)
H4B H -0.5003 0.3253 1.3387
H5B H -0.4628 0.2863 1.4321
H6B H -0.3349 0.4091 1.3867
C3B C -0.2806(2) 0.0412(3) 1.29785(12)
C4B C -0.2039(3) -0.1609(3) 1.28600(13)
H7B H -0.1973 -0.270 1.3267
C5B C -0.1382(2) -0.2034(3) 1.21621(11)
H8B H -0.0873 -0.343 1.21004
C6B C -0.1438(2) -0.0491(3) 1.15439(11)
C7B C -0.2249(2) 0.1495(3) 1.16460(12)
H9B H -0.2334 0.258 1.1221
C8B C -0.2929(2) 0.1941(3) 1.23369(12)
H10B H -0.3512 0.336 1.23840
C9B C -0.0604(2) -0.0973(4) 1.08525(11)
H11B H -0.0111 -0.255 1.08051
loop_
_geom_bond_atom_site_label_1
_geom_bond_atom_site_label_2
_geom_bond_site_symmetry_1
_geom_bond_site_symmetry_2
N1 C1 1_555 1_555
N2 C9 1_555 1_555
C1 H1 1_555 1_555
H2 C1 1_555 1_555
H3 C1 1_555 1_555
C2 N1 1_555 1_555
H4 C2 1_555 1_555
H5 C2 1_555 1_555
H6 C2 1_555 1_555
C3 N1 1_555 1_555
C4 C3 1_555 1_555
H7 C4 1_555 1_555
C5 C4 1_555 1_555
H8 C5 1_555 1_555
C6 C5 1_555 1_555
C7 C6 1_555 1_555
H9 C7 1_555 1_555
C8 C3 1_555 1_555
H10 C8 1_555 1_555
C9 C6 1_555 1_555
H11 C9 1_555 1_555
N1B C1B 1_555 1_555
N2B N2 1_555 1_555
C1B H1B 1_555 1_555
H2B C1B 1_555 1_555
H3B C1B 1_555 1_555
C2B N1B 1_555 1_555
H4B C2B 1_555 1_555
H5B C2B 1_555 1_555
H6B C2B 1_555 1_555
C3B N1B 1_555 1_555
C4B C3B 1_555 1_555
H7B C4B 1_555 1_555
C5B C4B 1_555 1_555
H8B C5B 1_555 1_555
C6B C5B 1_555 1_555
C7B C6B 1_555 1_555
H9B C7B 1_555 1_555
C8B C3B 1_555 1_555
H10B C8B 1_555 1_555
C9B N2B 1_555 1_555
H11B C9B 1_555 1_555
C7 C8 1_555 1_555
C6B C9B 1_555 1_555
C7B C8B 1_555 1_555

#END
