
#######################################################################
#
#                 Cambridge Crystallographic Data Centre
#                                CCDC 
#
#######################################################################
#
# If this CIF has been generated from an entry in the Cambridge 
# Structural Database, then it will include bibliographic, chemical, 
# crystal, experimental, refinement or atomic coordinate data resulting 
# from the CCDC's data processing and validation procedures.
#
#######################################################################

data_RAMMAW
_chemical_formula_moiety         'C20 H23 F1 N2 O2 S1'
_chemical_name_systematic        
N-((3-fluoro-1-methyl-2-oxo-2,3-dihydro-1H-indol-3-yl)(phenyl)methyl)-2-methylpropane-2-sulfinamide
_symmetry_cell_setting           tetragonal
_symmetry_space_group_name_H-M   'P 43'
_symmetry_Int_Tables_number      78
_space_group_name_Hall           'P 4cw'
loop_
_symmetry_equiv_pos_site_id
_symmetry_equiv_pos_as_xyz
1 x,y,z
2 -x,-y,1/2+z
3 -y,x,3/4+z
4 y,-x,1/4+z
_cell_length_a                   9.6264(4)
_cell_length_b                   9.6264(4)
_cell_length_c                   42.6146(18)
_cell_angle_alpha                90
_cell_angle_beta                 90
_cell_angle_gamma                90
_cell_volume                     3948.99
_cell_formula_units_Z            8
loop_
_atom_site_label
_atom_site_type_symbol
_atom_site_fract_x
_atom_site_fract_y
_atom_site_fract_z
C1 C 0.7608(8) 0.0193(9) 0.54724(18)
H1 H 0.7105 0.0435 0.5286
H2 H 0.7283 0.0749 0.5644
H3 H 0.7463 -0.0772 0.5519
C2 C 0.9924(8) 0.0066(8) 0.57252(19)
H4 H 0.9715 -0.0879 0.5779
H5 H 0.9633 0.0669 0.5892
H6 H 1.0907 0.0163 0.5693
C3 C 0.9692(12) -0.0269(9) 0.51417(17)
H7 H 0.9772 -0.1244 0.5186
H8 H 1.0589 0.0097 0.5088
H9 H 0.9066 -0.0133 0.4969
C4 C 0.9151(6) 0.0458(6) 0.54216(13)
C5 C 0.9059(5) 0.3522(5) 0.48090(11)
H10 H 0.9840 0.4035 0.4900
C6 C 0.9600(5) 0.2754(5) 0.45194(11)
C7 C 1.0840(5) 0.3146(5) 0.43841(12)
H11 H 1.1340 0.3887 0.4467
C8 C 1.1340(6) 0.2447(7) 0.41268(13)
H12 H 1.2171 0.2723 0.4035
C9 C 1.0618(7) 0.1340(7) 0.40045(14)
H13 H 1.0973 0.0852 0.3834
C10 C 0.9388(7) 0.0963(6) 0.41330(13)
H14 H 0.8879 0.0237 0.4047
C11 C 0.8892(5) 0.1663(5) 0.43939(13)
H15 H 0.8060 0.1383 0.4485
C12 C 0.7933(5) 0.4579(5) 0.47254(11)
C13 C 0.6564(5) 0.3913(5) 0.46112(12)
C14 C 0.7297(6) 0.5353(5) 0.42223(12)
C15 C 0.7361(8) 0.6097(7) 0.39481(16)
H16 H 0.6684 0.5998 0.3794
C16 C 0.8455(11) 0.6987(8) 0.39085(19)
H17 H 0.8527 0.7489 0.3723
C17 C 0.9448(9) 0.7157(6) 0.4137(2)
H18 H 1.0177 0.7772 0.4102
C18 C 0.9389(6) 0.6441(6) 0.44137(17)
H19 H 1.0063 0.6559 0.4568
C19 C 0.8282(5) 0.5529(5) 0.44558(12)
C20 C 0.5037(6) 0.4003(7) 0.41481(16)
H20 H 0.4640 0.3175 0.4236
H21 H 0.5262 0.3842 0.3932
H22 H 0.4379 0.4750 0.4163
F1 F 0.7610(3) 0.5322(3) 0.49962(7)
N1 N 0.8536(4) 0.2585(4) 0.50487(10)
H23 H 0.8439 0.1758 0.4958
N2 N 0.6298(4) 0.4368(4) 0.43202(10)
O1 O 0.8716(6) 0.2964(5) 0.56458(10)
O2 O 0.5855(3) 0.3100(4) 0.47614(10)
S1 S 0.94231(15) 0.23311(17) 0.53746(3)
C21 C 0.3153(9) 0.9675(7) 0.4688(2)
H24 H 0.3270 1.0634 0.4632
H25 H 0.3055 0.9596 0.4911
H26 H 0.2336 0.9314 0.4587
C22 C 0.4638(10) 0.9012(8) 0.42322(17)
H27 H 0.4896 0.9953 0.4186
H28 H 0.3796 0.8785 0.4123
H29 H 0.5366 0.8397 0.4166
C23 C 0.5711(9) 0.9194(9) 0.4768(2)
H30 H 0.6434 0.8550 0.4713
H31 H 0.5515 0.9123 0.4988
H32 H 0.6007 1.0122 0.4720
C24 C 0.4410(7) 0.8855(6) 0.45818(13)
C25 C 0.4146(4) 0.5863(4) 0.52204(10)
H33 H 0.4845 0.5328 0.5105
C26 C 0.4808(4) 0.6351(4) 0.55266(10)
C27 C 0.5923(5) 0.5641(6) 0.56497(12)
H34 H 0.6286 0.4882 0.5542
C28 C 0.6512(6) 0.6047(7) 0.59322(15)
H35 H 0.7260 0.5554 0.6014
C29 C 0.6000(7) 0.7165(7) 0.60907(14)
H36 H 0.6400 0.7434 0.6280
C30 C 0.4899(7) 0.7893(6) 0.59724(14)
H37 H 0.4547 0.8655 0.6080
C31 C 0.4309(6) 0.7481(5) 0.56891(13)
H38 H 0.3563 0.7980 0.5608
C32 C 0.2896(5) 0.4892(5) 0.52842(10)
C33 C 0.1723(5) 0.5655(5) 0.54539(13)
C34 C 0.2370(5) 0.3842(5) 0.57615(11)
C35 C 0.2421(6) 0.2889(6) 0.60027(14)
H39 H 0.1878 0.2994 0.6182
C36 C 0.3304(7) 0.1780(7) 0.59684(17)
H40 H 0.3362 0.1126 0.6128
C37 C 0.4099(6) 0.1608(6) 0.57066(18)
H41 H 0.4676 0.0837 0.5690
C38 C 0.4053(5) 0.2577(5) 0.54645(14)
H42 H 0.4603 0.2471 0.5287
C39 C 0.3176(4) 0.3689(4) 0.54945(11)
C40 C 0.0514(7) 0.5478(7) 0.59681(16)
H43 H 0.0985 0.5794 0.6153
H44 H -0.0084 0.4715 0.6021
H45 H -0.0031 0.6224 0.5883
F2 F 0.2413(3) 0.4451(3) 0.49903(7)
N3 N 0.3736(4) 0.7044(4) 0.50228(9)
H46 H 0.2819 0.7136 0.5040
N4 N 0.1541(4) 0.5024(4) 0.57348(10)
O3 O 0.1098(4) 0.6659(5) 0.53547(12)
O4 O 0.2892(5) 0.6633(5) 0.44532(10)
S2 S 0.41151(14) 0.69859(13) 0.46428(3)
loop_
_geom_bond_atom_site_label_1
_geom_bond_atom_site_label_2
_geom_bond_site_symmetry_1
_geom_bond_site_symmetry_2
C1 H1 1_555 1_555
H2 C1 1_555 1_555
H3 C1 1_555 1_555
C2 H4 1_555 1_555
H5 C2 1_555 1_555
H6 C2 1_555 1_555
C3 H7 1_555 1_555
H8 C3 1_555 1_555
H9 C3 1_555 1_555
C4 C1 1_555 1_555
C5 H10 1_555 1_555
C6 C5 1_555 1_555
C7 C6 1_555 1_555
H11 C7 1_555 1_555
C8 C7 1_555 1_555
H12 C8 1_555 1_555
C9 C8 1_555 1_555
H13 C9 1_555 1_555
C10 C9 1_555 1_555
H14 C10 1_555 1_555
C11 C6 1_555 1_555
H15 C11 1_555 1_555
C12 C5 1_555 1_555
C13 C12 1_555 1_555
C14 C15 1_555 1_555
C15 H16 1_555 1_555
C16 C15 1_555 1_555
H17 C16 1_555 1_555
C17 C16 1_555 1_555
H18 C17 1_555 1_555
C18 C17 1_555 1_555
H19 C18 1_555 1_555
C19 C12 1_555 1_555
C20 H20 1_555 1_555
H21 C20 1_555 1_555
H22 C20 1_555 1_555
F1 C12 1_555 1_555
N1 C5 1_555 1_555
H23 N1 1_555 1_555
N2 C13 1_555 1_555
O1 S1 1_555 1_555
O2 C13 1_555 1_555
S1 C4 1_555 1_555
C21 H24 1_555 1_555
H25 C21 1_555 1_555
H26 C21 1_555 1_555
C22 H27 1_555 1_555
H28 C22 1_555 1_555
H29 C22 1_555 1_555
C23 H30 1_555 1_555
H31 C23 1_555 1_555
H32 C23 1_555 1_555
C24 C21 1_555 1_555
C25 H33 1_555 1_555
C26 C25 1_555 1_555
C27 C26 1_555 1_555
H34 C27 1_555 1_555
C28 C27 1_555 1_555
H35 C28 1_555 1_555
C29 C28 1_555 1_555
H36 C29 1_555 1_555
C30 C29 1_555 1_555
H37 C30 1_555 1_555
C31 C26 1_555 1_555
H38 C31 1_555 1_555
C32 C25 1_555 1_555
C33 C32 1_555 1_555
C34 C35 1_555 1_555
C35 H39 1_555 1_555
C36 C35 1_555 1_555
H40 C36 1_555 1_555
C37 C36 1_555 1_555
H41 C37 1_555 1_555
C38 C37 1_555 1_555
H42 C38 1_555 1_555
C39 C32 1_555 1_555
C40 H43 1_555 1_555
H44 C40 1_555 1_555
H45 C40 1_555 1_555
F2 C32 1_555 1_555
N3 C25 1_555 1_555
H46 N3 1_555 1_555
N4 C33 1_555 1_555
O3 C33 1_555 1_555
O4 S2 1_555 1_555
S2 C24 1_555 1_555
C2 C4 1_555 1_555
C3 C4 1_555 1_555
C10 C11 1_555 1_555
C14 C19 1_555 1_555
C14 N2 1_555 1_555
C18 C19 1_555 1_555
C20 N2 1_555 1_555
N1 S1 1_555 1_555
C22 C24 1_555 1_555
C23 C24 1_555 1_555
C30 C31 1_555 1_555
C34 C39 1_555 1_555
C34 N4 1_555 1_555
C38 C39 1_555 1_555
C40 N4 1_555 1_555
N3 S2 1_555 1_555

#END
