
#######################################################################
#
#                 Cambridge Crystallographic Data Centre
#                                CCDC 
#
#######################################################################
#
# If this CIF has been generated from an entry in the Cambridge 
# Structural Database, then it will include bibliographic, chemical, 
# crystal, experimental, refinement or atomic coordinate data resulting 
# from the CCDC's data processing and validation procedures.
#
#######################################################################

data_RAMPON
_chemical_formula_moiety         'C28 H20 O2 S2'
_chemical_name_systematic        
2,7-bis(4-methoxyphenyl)[1]benzothieno[3,2-b][1]benzothiophene
_symmetry_cell_setting           orthorhombic
_symmetry_space_group_name_H-M   'P b c a'
_symmetry_Int_Tables_number      61
_space_group_name_Hall           '-P 2ac 2ab'
loop_
_symmetry_equiv_pos_site_id
_symmetry_equiv_pos_as_xyz
1 x,y,z
2 1/2-x,-y,1/2+z
3 -x,1/2+y,1/2-z
4 1/2+x,1/2-y,-z
5 -x,-y,-z
6 1/2+x,y,1/2-z
7 x,1/2-y,1/2+z
8 1/2-x,1/2+y,z
_cell_length_a                   7.5863(5)
_cell_length_b                   6.0552(4)
_cell_length_c                   46.173(3)
_cell_angle_alpha                90
_cell_angle_beta                 90
_cell_angle_gamma                90
_cell_volume                     2121.03
_cell_formula_units_Z            4
loop_
_atom_site_label
_atom_site_type_symbol
_atom_site_fract_x
_atom_site_fract_y
_atom_site_fract_z
S1 S 0.60240(11) 0.79058(14) 0.48221(2)
C1 C 0.4186(8) 0.0229(9) 0.72461(9)
H1 H 0.4352 0.0047 0.7451
H2 H 0.4624 -0.1050 0.7147
H3 H 0.2952 0.0405 0.7206
C2 C 0.5955(5) 0.4508(7) 0.67767(7)
H4 H 0.6587 0.5317 0.6913
C3 C 0.5009(5) 0.2659(6) 0.68627(7)
O1 O 0.5115(4) 0.2130(5) 0.71506(5)
C4 C 0.5961(5) 0.5145(6) 0.64911(7)
H5 H 0.6632 0.6361 0.6437
C5 C 0.4994(4) 0.4032(5) 0.62800(7)
C6 C 0.4026(5) 0.2219(6) 0.63749(7)
H6 H 0.3356 0.1439 0.6241
C7 C 0.4021(5) 0.1525(7) 0.66618(7)
H7 H 0.3356 0.0307 0.6717
C8 C 0.5032(4) 0.4675(5) 0.59695(6)
C9 C 0.5718(4) 0.6736(6) 0.58790(7)
H8 H 0.6096 0.7740 0.6018
C10 C 0.5842(4) 0.7299(5) 0.55917(7)
H9 H 0.6292 0.8670 0.5539
C11 C 0.5292(4) 0.5812(5) 0.53767(6)
C12 C 0.4578(4) 0.3783(5) 0.54668(7)
C13 C 0.4451(4) 0.3227(5) 0.57570(6)
H10 H 0.3971 0.1872 0.5810
C14 C 0.5320(4) 0.5919(5) 0.50669(6)
S1D S 0.39760(11) 0.20942(14) 0.51779(2)
C1D C 0.5814(8) 0.9771(9) 0.27539(9)
H1D H 0.5648 0.9953 0.2549
H2D H 0.5376 1.1050 0.2853
H3D H 0.7048 0.9595 0.2794
C2D C 0.4045(5) 0.5492(7) 0.32233(7)
H4D H 0.3413 0.4683 0.3087
C3D C 0.4991(5) 0.7341(6) 0.31373(7)
O1D O 0.4885(4) 0.7870(5) 0.28494(5)
C4D C 0.4039(5) 0.4855(6) 0.35089(7)
H5D H 0.3368 0.3639 0.3563
C5D C 0.5006(4) 0.5968(5) 0.37200(7)
C6D C 0.5974(5) 0.7781(6) 0.36251(7)
H6D H 0.6644 0.8561 0.3759
C7D C 0.5979(5) 0.8475(7) 0.33382(7)
H7D H 0.6644 0.9693 0.3283
C8D C 0.4968(4) 0.5325(5) 0.40305(6)
C9D C 0.4282(4) 0.3264(6) 0.41210(7)
H8D H 0.3904 0.2260 0.3982
C10D C 0.4158(4) 0.2701(5) 0.44083(7)
H9D H 0.3708 0.1330 0.4461
C11D C 0.4708(4) 0.4188(5) 0.46233(6)
C12D C 0.5422(4) 0.6217(5) 0.45332(7)
C13D C 0.5549(4) 0.6773(5) 0.42430(6)
H10D H 0.6029 0.8128 0.4190
C14D C 0.4680(4) 0.4081(5) 0.49331(6)
loop_
_geom_bond_atom_site_label_1
_geom_bond_atom_site_label_2
_geom_bond_site_symmetry_1
_geom_bond_site_symmetry_2
S1 C14 1_555 1_555
C1 H1 1_555 1_555
H2 C1 1_555 1_555
H3 C1 1_555 1_555
C2 H4 1_555 1_555
C3 C2 1_555 1_555
O1 C1 1_555 1_555
C4 C2 1_555 1_555
H5 C4 1_555 1_555
C5 C4 1_555 1_555
C6 C5 1_555 1_555
H6 C6 1_555 1_555
C7 C3 1_555 1_555
H7 C7 1_555 1_555
C8 C5 1_555 1_555
C9 C8 1_555 1_555
H8 C9 1_555 1_555
C10 C9 1_555 1_555
H9 C10 1_555 1_555
C11 C10 1_555 1_555
C12 C11 1_555 1_555
C13 C8 1_555 1_555
H10 C13 1_555 1_555
C14 C11 1_555 1_555
S1D C12 1_555 1_555
C1D H1D 1_555 1_555
H2D C1D 1_555 1_555
H3D C1D 1_555 1_555
C2D H4D 1_555 1_555
C3D C2D 1_555 1_555
O1D C1D 1_555 1_555
C4D C2D 1_555 1_555
H5D C4D 1_555 1_555
C5D C4D 1_555 1_555
C6D C5D 1_555 1_555
H6D C6D 1_555 1_555
C7D C3D 1_555 1_555
H7D C7D 1_555 1_555
C8D C5D 1_555 1_555
C9D C8D 1_555 1_555
H8D C9D 1_555 1_555
C10D C9D 1_555 1_555
H9D C10D 1_555 1_555
C11D C10D 1_555 1_555
C12D S1 1_555 1_555
C13D C8D 1_555 1_555
H10D C13D 1_555 1_555
C14D C14 1_555 1_555
C3 O1 1_555 1_555
C6 C7 1_555 1_555
C12 C13 1_555 1_555
S1D C14D 1_555 1_555
C3D O1D 1_555 1_555
C6D C7D 1_555 1_555
C11D C12D 1_555 1_555
C11D C14D 1_555 1_555
C12D C13D 1_555 1_555

#END
