
#######################################################################
#
#                 Cambridge Crystallographic Data Centre
#                                CCDC 
#
#######################################################################
#
# If this CIF has been generated from an entry in the Cambridge 
# Structural Database, then it will include bibliographic, chemical, 
# crystal, experimental, refinement or atomic coordinate data resulting 
# from the CCDC's data processing and validation procedures.
#
#######################################################################

data_RAPPAA
_chemical_formula_moiety         'C11 H9 F1 N2 O1'
_chemical_name_systematic        3-Benzyloxy-6-fluoropyridazine
_symmetry_cell_setting           monoclinic
_symmetry_space_group_name_H-M   'P 21/c'
_symmetry_Int_Tables_number      14
_space_group_name_Hall           '-P 2ybc'
loop_
_symmetry_equiv_pos_site_id
_symmetry_equiv_pos_as_xyz
1 x,y,z
2 -x,1/2+y,1/2-z
3 -x,-y,-z
4 x,1/2-y,1/2+z
_cell_length_a                   29.409(4)
_cell_length_b                   5.8286(14)
_cell_length_c                   11.730(3)
_cell_angle_alpha                90
_cell_angle_beta                 101.220(8)
_cell_angle_gamma                90
_cell_volume                     1972.25
_exptl_crystal_colour            colorless
_exptl_crystal_description       Prism
_cell_formula_units_Z            8
_exptl_crystal_recrystallization_method 'petroleum ether'
loop_
_atom_site_label
_atom_site_type_symbol
_atom_site_fract_x
_atom_site_fract_y
_atom_site_fract_z
F1 F 0.48100(10) 0.5454(5) 0.7021(2)
O1 O 0.39338(10) 0.6940(5) 0.2737(3)
N1 N 0.44145(13) 0.4134(6) 0.5349(4)
N2 N 0.41844(12) 0.4478(6) 0.4236(3)
C1 C 0.45872(15) 0.5906(8) 0.5925(4)
C2 C 0.45740(15) 0.8144(7) 0.5547(4)
H1 H 0.4712 0.9334 0.6019
C3 C 0.43479(14) 0.8496(7) 0.4447(4)
H2 H 0.4320 0.9953 0.4117
C4 C 0.41598(14) 0.6577(7) 0.3831(4)
C5 C 0.36976(16) 0.5009(8) 0.2125(4)
H3 H 0.3498 0.4294 0.2591
H4 H 0.3921 0.3880 0.1978
C6 C 0.34158(14) 0.5829(7) 0.1005(4)
C7 C 0.32036(17) 0.7928(8) 0.0888(4)
H5 H 0.3248 0.8938 0.1514
C8 C 0.29256(16) 0.8555(8) -0.0144(4)
H6 H 0.2778 0.9974 -0.0211
C9 C 0.28655(17) 0.7099(10) -0.1073(4)
H7 H 0.2677 0.7520 -0.1774
C10 C 0.30805(17) 0.5050(9) -0.0967(4)
H8 H 0.3042 0.4070 -0.1605
C11 C 0.33561(15) 0.4373(8) 0.0064(4)
H9 H 0.3501 0.2947 0.0124
F2 F 0.01645(10) 0.4133(5) 0.7216(2)
O2 O 0.10756(10) 0.3212(5) 0.3789(3)
N3 N 0.05422(14) 0.5680(6) 0.5952(4)
N4 N 0.07796(13) 0.5468(6) 0.5059(4)
C12 C 0.03887(16) 0.3823(9) 0.6335(4)
C13 C 0.04386(15) 0.1618(8) 0.5949(4)
H10 H 0.0318 0.0351 0.6270
C14 C 0.06739(14) 0.1425(7) 0.5077(4)
H11 H 0.0724 0.0001 0.4766
C15 C 0.08393(15) 0.3435(8) 0.4656(4)
C16 C 0.12771(18) 0.5227(8) 0.3419(4)
H12 H 0.1459 0.6006 0.4086
H13 H 0.1035 0.6263 0.3049
C17 C 0.15775(15) 0.4612(8) 0.2590(4)
C18 C 0.18083(19) 0.2557(10) 0.2613(5)
H14 H 0.1770 0.1455 0.3160
C19 C 0.20943(19) 0.2095(11) 0.1843(5)
H15 H 0.2241 0.0678 0.1868
C20 C 0.21663(18) 0.3690(11) 0.1041(5)
H16 H 0.2367 0.3394 0.0535
C21 C 0.19380(18) 0.5705(10) 0.1007(5)
H17 H 0.1978 0.6799 0.0457
C22 C 0.16490(16) 0.6175(9) 0.1764(5)
H18 H 0.1498 0.7583 0.1718
loop_
_geom_bond_atom_site_label_1
_geom_bond_atom_site_label_2
_geom_bond_site_symmetry_1
_geom_bond_site_symmetry_2
F1 C1 1_555 1_555
O1 C4 1_555 1_555
N1 N2 1_555 1_555
N2 C4 1_555 1_555
C1 N1 1_555 1_555
C2 C1 1_555 1_555
H1 C2 1_555 1_555
C3 C2 1_555 1_555
H2 C3 1_555 1_555
C4 C3 1_555 1_555
C5 O1 1_555 1_555
H3 C5 1_555 1_555
H4 C5 1_555 1_555
C6 C5 1_555 1_555
C7 C6 1_555 1_555
H5 C7 1_555 1_555
C8 C7 1_555 1_555
H6 C8 1_555 1_555
C9 C8 1_555 1_555
H7 C9 1_555 1_555
C10 C9 1_555 1_555
H8 C10 1_555 1_555
C11 C6 1_555 1_555
H9 C11 1_555 1_555
F2 C12 1_555 1_555
O2 C15 1_555 1_555
N3 N4 1_555 1_555
N4 C15 1_555 1_555
C12 N3 1_555 1_555
C13 C12 1_555 1_555
H10 C13 1_555 1_555
C14 C13 1_555 1_555
H11 C14 1_555 1_555
C15 C14 1_555 1_555
C16 O2 1_555 1_555
H12 C16 1_555 1_555
H13 C16 1_555 1_555
C17 C16 1_555 1_555
C18 C17 1_555 1_555
H14 C18 1_555 1_555
C19 C18 1_555 1_555
H15 C19 1_555 1_555
C20 C19 1_555 1_555
H16 C20 1_555 1_555
C21 C20 1_555 1_555
H17 C21 1_555 1_555
C22 C17 1_555 1_555
H18 C22 1_555 1_555
C10 C11 1_555 1_555
C21 C22 1_555 1_555

#END
