
#######################################################################
#
#                 Cambridge Crystallographic Data Centre
#                                CCDC 
#
#######################################################################
#
# If this CIF has been generated from an entry in the Cambridge 
# Structural Database, then it will include bibliographic, chemical, 
# crystal, experimental, refinement or atomic coordinate data resulting 
# from the CCDC's data processing and validation procedures.
#
#######################################################################

data_RAPPAC
_chemical_compound_source        'twigs and leaves of Catharanthus roseus'
_chemical_name_common            
'methyl 2,3-didehydro-6,7-epoxyaspidospermidine-3-carboxylate'
_chemical_formula_moiety         'C21 H24 N2 O3'
_chemical_name_systematic        
"methyl 2b-ethyl-1a,2a,2b,2b^1^,3,5,10,11-octahydro-1H-oxireno[2',3':6,7]indolizino[8,1-cd]carbazole-4-carboxylate"
_symmetry_cell_setting           orthorhombic
_symmetry_space_group_name_H-M   'P 21 21 21'
_symmetry_Int_Tables_number      19
_space_group_name_Hall           'P 2ac 2ab'
loop_
_symmetry_equiv_pos_site_id
_symmetry_equiv_pos_as_xyz
1 x,y,z
2 1/2-x,-y,1/2+z
3 1/2+x,1/2-y,-z
4 -x,1/2+y,1/2-z
_cell_length_a                   9.7186(12)
_cell_length_b                   13.4479(16)
_cell_length_c                   13.6679(17)
_cell_angle_alpha                90
_cell_angle_beta                 90
_cell_angle_gamma                90
_cell_volume                     1786.32
_exptl_crystal_colour            colorless
_exptl_crystal_description       needle
_cell_formula_units_Z            4
loop_
_atom_site_label
_atom_site_type_symbol
_atom_site_fract_x
_atom_site_fract_y
_atom_site_fract_z
C1 C 0.4940(2) 0.29914(15) 0.25706(15)
C2 C 0.6346(2) 0.31259(18) 0.26874(16)
H1 H 0.6808 0.3674 0.2397
C3 C 0.7059(2) 0.24262(19) 0.32472(16)
H2 H 0.8025 0.2493 0.3330
C4 C 0.6380(2) 0.16362(17) 0.36840(16)
H3 H 0.6885 0.1164 0.4055
C5 C 0.4958(2) 0.15295(15) 0.35829(15)
H4 H 0.4491 0.0996 0.3895
C6 C 0.4241(2) 0.22061(14) 0.30251(14)
C7 C 0.27161(19) 0.23440(14) 0.28302(14)
C8 C 0.2756(2) 0.30714(14) 0.19794(14)
C9 C 0.1748(2) 0.31335(14) 0.12948(14)
C10 C 0.0598(2) 0.23769(14) 0.13498(15)
H5 H 0.0118 0.2341 0.0712
H6 H -0.0078 0.2582 0.1853
C11 C 0.1197(2) 0.13424(15) 0.16134(15)
C12 C 0.18175(19) 0.14042(14) 0.26462(15)
H7 H 0.2369 0.0792 0.2783
C13 C 0.2029(2) 0.28330(15) 0.37573(15)
H8 H 0.2732 0.3111 0.4204
H9 H 0.1380 0.3366 0.3567
C14 C 0.1278(2) 0.19643(17) 0.42266(16)
H10 H 0.1917 0.1517 0.4579
H11 H 0.0548 0.2192 0.4679
C15 C -0.0045(2) 0.05744(17) 0.35023(18)
H12 H -0.0836 0.0691 0.3944
H13 H 0.0562 0.0072 0.3809
C16 C -0.0549(2) 0.01968(16) 0.25342(19)
H14 H -0.1535 -0.0016 0.2508
C17 C 0.0035(2) 0.05829(15) 0.16209(19)
H15 H -0.0599 0.0598 0.1045
C18 C 0.2303(2) 0.10004(16) 0.08803(16)
H16 H 0.3128 0.1424 0.0963
H17 H 0.2571 0.0309 0.1041
C19 C 0.1859(3) 0.1039(2) -0.01941(18)
H18 H 0.2590 0.0762 -0.0606
H19 H 0.1686 0.1730 -0.0383
H20 H 0.1016 0.0648 -0.0281
C20 C 0.1935(2) 0.38065(14) 0.04768(15)
C21 C 0.1084(3) 0.4374(2) -0.10497(16)
H21 H 0.0251 0.4337 -0.1452
H22 H 0.1876 0.4150 -0.1434
H23 H 0.1231 0.5063 -0.0840
N1 N 0.40036(18) 0.35554(13) 0.20148(13)
H24 H 0.4187 0.4129 0.1733
N2 N 0.07076(18) 0.14928(13) 0.33618(13)
O1 O 0.29034(15) 0.43840(11) 0.03840(11)
O2 O 0.09263(15) 0.37451(11) -0.02002(10)
O3 O 0.04108(18) -0.03961(11) 0.19778(14)
loop_
_geom_bond_atom_site_label_1
_geom_bond_atom_site_label_2
_geom_bond_site_symmetry_1
_geom_bond_site_symmetry_2
C1 C2 1_555 1_555
C2 H1 1_555 1_555
C3 C2 1_555 1_555
H2 C3 1_555 1_555
C4 C3 1_555 1_555
H3 C4 1_555 1_555
C5 C4 1_555 1_555
H4 C5 1_555 1_555
C6 C1 1_555 1_555
C7 C6 1_555 1_555
C8 C7 1_555 1_555
C9 C8 1_555 1_555
C10 C9 1_555 1_555
H5 C10 1_555 1_555
H6 C10 1_555 1_555
C11 C10 1_555 1_555
C12 C7 1_555 1_555
H7 C12 1_555 1_555
C13 C7 1_555 1_555
H8 C13 1_555 1_555
H9 C13 1_555 1_555
C14 C13 1_555 1_555
H10 C14 1_555 1_555
H11 C14 1_555 1_555
C15 H12 1_555 1_555
H13 C15 1_555 1_555
C16 C15 1_555 1_555
H14 C16 1_555 1_555
C17 C11 1_555 1_555
H15 C17 1_555 1_555
C18 C11 1_555 1_555
H16 C18 1_555 1_555
H17 C18 1_555 1_555
C19 C18 1_555 1_555
H18 C19 1_555 1_555
H19 C19 1_555 1_555
H20 C19 1_555 1_555
C20 C9 1_555 1_555
C21 H21 1_555 1_555
H22 C21 1_555 1_555
H23 C21 1_555 1_555
N1 C1 1_555 1_555
H24 N1 1_555 1_555
N2 C12 1_555 1_555
O1 C20 1_555 1_555
O2 C20 1_555 1_555
O3 C16 1_555 1_555
C5 C6 1_555 1_555
C8 N1 1_555 1_555
C11 C12 1_555 1_555
C14 N2 1_555 1_555
C15 N2 1_555 1_555
C16 C17 1_555 1_555
C17 O3 1_555 1_555
C21 O2 1_555 1_555

#END
