
#######################################################################
#
#                 Cambridge Crystallographic Data Centre
#                                CCDC 
#
#######################################################################
#
# If this CIF has been generated from an entry in the Cambridge 
# Structural Database, then it will include bibliographic, chemical, 
# crystal, experimental, refinement or atomic coordinate data resulting 
# from the CCDC's data processing and validation procedures.
#
#######################################################################

data_RAPTAE
_chemical_formula_moiety         'C20 H18 N4 O2,2(H2 O1)'
_chemical_name_systematic        
"N,N'-bis(Pyridin-4-ylmethyl)terephthalamide dihydrate"
_symmetry_cell_setting           monoclinic
_symmetry_space_group_name_H-M   'P 21/c'
_symmetry_Int_Tables_number      14
_space_group_name_Hall           '-P 2ybc'
loop_
_symmetry_equiv_pos_site_id
_symmetry_equiv_pos_as_xyz
1 x,y,z
2 -x,1/2+y,1/2-z
3 -x,-y,-z
4 x,1/2-y,1/2+z
_cell_length_a                   8.1173(13)
_cell_length_b                   9.8449(15)
_cell_length_c                   13.6802(17)
_cell_angle_alpha                90
_cell_angle_beta                 122.944(7)
_cell_angle_gamma                90
_cell_volume                     917.449
_exptl_crystal_colour            colorless
_exptl_crystal_description       block
_cell_formula_units_Z            2
loop_
_atom_site_label
_atom_site_type_symbol
_atom_site_fract_x
_atom_site_fract_y
_atom_site_fract_z
C1 C 1.1628(4) 0.4881(3) 0.4382(2)
H1 H 1.2916 0.4698 0.4980
C2 C 1.0272(4) 0.3858(3) 0.4040(2)
H2 H 1.0651 0.3015 0.4404
C3 C 0.8329(4) 0.4085(3) 0.3148(2)
C4 C 0.7902(4) 0.5367(3) 0.2655(2)
H3 H 0.6627 0.5582 0.2056
C5 C 0.9370(4) 0.6320(3) 0.3055(3)
H4 H 0.9040 0.7171 0.2703
C6 C 0.6833(4) 0.2970(3) 0.2768(2)
H5 H 0.7259 0.2188 0.2530
H6 H 0.6765 0.2700 0.3427
C7 C 0.3610(4) 0.3997(2) 0.1994(2)
C8 C 0.1765(4) 0.4506(2) 0.0941(2)
C9 C 0.1572(4) 0.4784(2) -0.0099(2)
H7 H 0.2632 0.4644 -0.0173
C10 C 0.0170(4) 0.4730(2) 0.1035(2)
H8 H 0.0276 0.4550 0.1734
N1 N 1.1223(3) 0.6115(2) 0.3913(2)
N2 N 0.4893(3) 0.3366(2) 0.18205(19)
H9 H 0.4552 0.3192 0.1119
O1 O 0.3929(3) 0.41625(19) 0.29726(16)
C1B C -1.1628(4) 0.5119(3) -0.4382(2)
H1B H -1.2916 0.5302 -0.4980
C2B C -1.0272(4) 0.6142(3) -0.4040(2)
H2B H -1.0651 0.6985 -0.4404
C3B C -0.8329(4) 0.5915(3) -0.3148(2)
C4B C -0.7902(4) 0.4633(3) -0.2655(2)
H3B H -0.6627 0.4418 -0.2056
C5B C -0.9370(4) 0.3680(3) -0.3055(3)
H4B H -0.9040 0.2829 -0.2703
C6B C -0.6833(4) 0.7030(3) -0.2768(2)
H5B H -0.7259 0.7812 -0.2530
H6B H -0.6765 0.7300 -0.3427
C7B C -0.3610(4) 0.6003(2) -0.1994(2)
C8B C -0.1765(4) 0.5494(2) -0.0941(2)
C9B C -0.1572(4) 0.5216(2) 0.0099(2)
H7B H -0.2632 0.5356 0.0173
C10B C -0.0170(4) 0.5270(2) -0.1035(2)
H8B H -0.0276 0.5450 -0.1734
N1B N -1.1223(3) 0.3885(2) -0.3913(2)
N2B N -0.4893(3) 0.6634(2) -0.18205(19)
H9B H -0.4552 0.6808 -0.1119
O1B O -0.3929(3) 0.58375(19) -0.29726(16)
O2 O 0.5247(3) 0.23635(19) 0.49215(16)
H10 H 0.4403 0.2605 0.4226
H11 H 0.6322 0.2267 0.4962
loop_
_geom_bond_atom_site_label_1
_geom_bond_atom_site_label_2
_geom_bond_site_symmetry_1
_geom_bond_site_symmetry_2
C1 H1 1_555 1_555
C2 C1 1_555 1_555
H2 C2 1_555 1_555
C3 C2 1_555 1_555
C4 C3 1_555 1_555
H3 C4 1_555 1_555
C5 C4 1_555 1_555
H4 C5 1_555 1_555
C6 C3 1_555 1_555
H5 C6 1_555 1_555
H6 C6 1_555 1_555
C7 C8 1_555 1_555
C8 C9 1_555 1_555
C9 H7 1_555 1_555
C10 C8 1_555 1_555
H8 C10 1_555 1_555
N1 C1 1_555 1_555
N2 C6 1_555 1_555
H9 N2 1_555 1_555
O1 C7 1_555 1_555
O2 H10 1_555 1_555
H11 O2 1_555 1_555
C1B H1B 1_555 1_555
C2B C1B 1_555 1_555
H2B C2B 1_555 1_555
C3B C2B 1_555 1_555
C4B C3B 1_555 1_555
H3B C4B 1_555 1_555
C5B C4B 1_555 1_555
H4B C5B 1_555 1_555
C6B C3B 1_555 1_555
H5B C6B 1_555 1_555
H6B C6B 1_555 1_555
C7B C8B 1_555 1_555
C8B C9B 1_555 1_555
C9B C10 1_555 1_555
H7B C9B 1_555 1_555
C10B C9 1_555 1_555
H8B C10B 1_555 1_555
N1B C1B 1_555 1_555
N2B C6B 1_555 1_555
H9B N2B 1_555 1_555
O1B C7B 1_555 1_555
C5 N1 1_555 1_555
C7 N2 1_555 1_555
C5B N1B 1_555 1_555
C7B N2B 1_555 1_555
C8B C10B 1_555 1_555

#END
