
#######################################################################
#
#                 Cambridge Crystallographic Data Centre
#                                CCDC 
#
#######################################################################
#
# If this CIF has been generated from an entry in the Cambridge 
# Structural Database, then it will include bibliographic, chemical, 
# crystal, experimental, refinement or atomic coordinate data resulting 
# from the CCDC's data processing and validation procedures.
#
#######################################################################

data_RAPZIU
_chemical_formula_moiety         'C38 H44 N2 O6'
_chemical_name_systematic        
"dimethyl 4,4'-((2,5-bis(2-(diethylamino)ethoxy)-1,4-phenylene)diethyne-2,1-diyl)dibenzoate"
_symmetry_cell_setting           monoclinic
_symmetry_space_group_name_H-M   'P 21/n'
_symmetry_Int_Tables_number      14
_space_group_name_Hall           '-P 2yn'
loop_
_symmetry_equiv_pos_site_id
_symmetry_equiv_pos_as_xyz
1 x,y,z
2 1/2-x,1/2+y,1/2-z
3 -x,-y,-z
4 1/2+x,1/2-y,1/2+z
_cell_length_a                   6.156(2)
_cell_length_b                   23.845(10)
_cell_length_c                   12.467(5)
_cell_angle_alpha                90
_cell_angle_beta                 100.295(7)
_cell_angle_gamma                90
_cell_volume                     1800.57
_exptl_crystal_colour            colorless
_exptl_crystal_description       block
_cell_formula_units_Z            2
loop_
_atom_site_label
_atom_site_type_symbol
_atom_site_fract_x
_atom_site_fract_y
_atom_site_fract_z
C1 C -0.1795(9) 0.1083(3) -0.3247(4)
H1 H -0.1316 0.1434 -0.3502
H2 H -0.3314 0.1112 -0.3169
H3 H -0.1642 0.0793 -0.3762
C2 C 0.1690(9) 0.1071(2) -0.2086(4)
C3 C 0.2909(7) 0.0918(2) -0.0969(3)
C4 C 0.5079(8) 0.1088(2) -0.0687(4)
H4 H 0.5739 0.1290 -0.1181
C5 C 0.6276(8) 0.0959(2) 0.0336(4)
H5 H 0.7732 0.1078 0.0529
C6 C 0.5310(8) 0.0654(2) 0.1068(3)
C7 C 0.3142(8) 0.0491(2) 0.0781(4)
H6 H 0.2470 0.0289 0.1270
C8 C 0.1957(8) 0.0627(2) -0.0239(4)
H7 H 0.0488 0.0517 -0.0426
C9 C 0.6585(8) 0.0502(2) 0.2113(4)
C10 C 0.7658(8) 0.0374(2) 0.2968(4)
C11 C 0.8855(7) 0.0190(2) 0.4005(3)
C12 C 1.0927(8) 0.0416(2) 0.4429(4)
C13 C 0.7964(7) -0.0225(2) 0.4577(4)
H8 H 0.6595 -0.0377 0.4285
C14 C 1.3527(8) 0.1157(2) 0.4377(4)
H9 H 1.4866 0.0934 0.4489
H10 H 1.3261 0.1283 0.5081
C15 C 1.3769(10) 0.1646(3) 0.3672(5)
H11 H 1.4154 0.1518 0.2991
H12 H 1.2382 0.1848 0.3507
C16 C 1.6584(19) 0.2266(5) 0.3599(8)
H13 H 1.7989 0.2330 0.4077
H14 H 1.5881 0.2631 0.3510
C17 C 1.4498(17) 0.2452(4) 0.4888(9)
H15 H 1.3665 0.2726 0.4407
H16 H 1.3518 0.2278 0.5319
C18 C 1.722(2) 0.2174(5) 0.2552(10)
H17 H 1.7732 0.1795 0.2512
H18 H 1.8389 0.2429 0.2467
H19 H 1.5978 0.2237 0.1983
C19 C 1.639(2) 0.2728(5) 0.5615(10)
H20 H 1.7095 0.2463 0.6144
H21 H 1.5854 0.3039 0.5982
H22 H 1.7434 0.2860 0.5186
N1 N 1.5461(10) 0.2008(3) 0.4224(5)
O1 O -0.0450(6) 0.09472(17) -0.2198(3)
O2 O 0.2536(7) 0.12779(18) -0.2783(3)
O3 O 1.1692(6) 0.08277(15) 0.3842(3)
C1B C 2.1795(9) -0.1083(3) 1.3247(4)
H1B H 2.1316 -0.1434 1.3502
H2B H 2.3314 -0.1112 1.3169
H3B H 2.1642 -0.0793 1.3762
C2B C 1.8310(9) -0.1071(2) 1.2086(4)
C3B C 1.7091(7) -0.0918(2) 1.0969(3)
C4B C 1.4921(8) -0.1088(2) 1.0687(4)
H4B H 1.4261 -0.1290 1.1181
C5B C 1.3724(8) -0.0959(2) 0.9664(4)
H5B H 1.2268 -0.1078 0.9471
C6B C 1.4690(8) -0.0654(2) 0.8932(3)
C7B C 1.6858(8) -0.0491(2) 0.9219(4)
H6B H 1.7530 -0.0289 0.8730
C8B C 1.8043(8) -0.0627(2) 1.0239(4)
H7B H 1.9512 -0.0517 1.0426
C9B C 1.3415(8) -0.0502(2) 0.7887(4)
C10B C 1.2342(8) -0.0374(2) 0.7032(4)
C11B C 1.1145(7) -0.0190(2) 0.5995(3)
C12B C 0.9073(8) -0.0416(2) 0.5571(4)
C13B C 1.2036(7) 0.0225(2) 0.5423(4)
H8B H 1.3405 0.0377 0.5715
C14B C 0.6473(8) -0.1157(2) 0.5623(4)
H9B H 0.5134 -0.0934 0.5511
H10B H 0.6739 -0.1283 0.4919
C15B C 0.6231(10) -0.1646(3) 0.6328(5)
H11B H 0.5846 -0.1518 0.7009
H12B H 0.7618 -0.1848 0.6493
C16B C 0.3416(19) -0.2266(5) 0.6401(8)
H13B H 0.2011 -0.2330 0.5923
H14B H 0.4119 -0.2631 0.6490
C17B C 0.5502(17) -0.2452(4) 0.5112(9)
H15B H 0.6335 -0.2726 0.5593
H16B H 0.6482 -0.2278 0.4681
C18B C 0.278(2) -0.2174(5) 0.7448(10)
H17B H 0.2268 -0.1795 0.7488
H18B H 0.1611 -0.2429 0.7533
H19B H 0.4022 -0.2237 0.8017
C19B C 0.361(2) -0.2728(5) 0.4385(10)
H20B H 0.2905 -0.2463 0.3856
H21B H 0.4146 -0.3039 0.4018
H22B H 0.2566 -0.2860 0.4814
N1B N 0.4539(10) -0.2008(3) 0.5776(5)
O1B O 2.0450(6) -0.09472(17) 1.2198(3)
O2B O 1.7464(7) -0.12779(18) 1.2783(3)
O3B O 0.8308(6) -0.08277(15) 0.6158(3)
loop_
_geom_bond_atom_site_label_1
_geom_bond_atom_site_label_2
_geom_bond_site_symmetry_1
_geom_bond_site_symmetry_2
C1 H1 1_555 1_555
H2 C1 1_555 1_555
H3 C1 1_555 1_555
C2 C3 1_555 1_555
C3 C4 1_555 1_555
C4 H4 1_555 1_555
C5 C4 1_555 1_555
H5 C5 1_555 1_555
C6 C5 1_555 1_555
C7 C6 1_555 1_555
H6 C7 1_555 1_555
C8 C3 1_555 1_555
H7 C8 1_555 1_555
C9 C6 1_555 1_555
C10 C9 1_555 1_555
C11 C10 1_555 1_555
C12 C11 1_555 1_555
C13 C11 1_555 1_555
H8 C13 1_555 1_555
C14 H9 1_555 1_555
H10 C14 1_555 1_555
C15 C14 1_555 1_555
H11 C15 1_555 1_555
H12 C15 1_555 1_555
C16 H13 1_555 1_555
H14 C16 1_555 1_555
C17 H15 1_555 1_555
H16 C17 1_555 1_555
C18 C16 1_555 1_555
H17 C18 1_555 1_555
H18 C18 1_555 1_555
H19 C18 1_555 1_555
C19 C17 1_555 1_555
H20 C19 1_555 1_555
H21 C19 1_555 1_555
H22 C19 1_555 1_555
N1 C15 1_555 1_555
O1 C1 1_555 1_555
O2 C2 1_555 1_555
O3 C12 1_555 1_555
C1B H1B 1_555 1_555
H2B C1B 1_555 1_555
H3B C1B 1_555 1_555
C2B C3B 1_555 1_555
C3B C4B 1_555 1_555
C4B H4B 1_555 1_555
C5B C4B 1_555 1_555
H5B C5B 1_555 1_555
C6B C5B 1_555 1_555
C7B C6B 1_555 1_555
H6B C7B 1_555 1_555
C8B C3B 1_555 1_555
H7B C8B 1_555 1_555
C9B C6B 1_555 1_555
C10B C9B 1_555 1_555
C11B C10B 1_555 1_555
C12B C13 1_555 1_555
C13B C12 1_555 1_555
H8B C13B 1_555 1_555
C14B H9B 1_555 1_555
H10B C14B 1_555 1_555
C15B C14B 1_555 1_555
H11B C15B 1_555 1_555
H12B C15B 1_555 1_555
C16B H13B 1_555 1_555
H14B C16B 1_555 1_555
C17B H15B 1_555 1_555
H16B C17B 1_555 1_555
C18B C16B 1_555 1_555
H17B C18B 1_555 1_555
H18B C18B 1_555 1_555
H19B C18B 1_555 1_555
C19B C17B 1_555 1_555
H20B C19B 1_555 1_555
H21B C19B 1_555 1_555
H22B C19B 1_555 1_555
N1B C15B 1_555 1_555
O1B C1B 1_555 1_555
O2B C2B 1_555 1_555
O3B C12B 1_555 1_555
C2 O1 1_555 1_555
C7 C8 1_555 1_555
C14 O3 1_555 1_555
C16 N1 1_555 1_555
C17 N1 1_555 1_555
C2B O1B 1_555 1_555
C7B C8B 1_555 1_555
C11B C12B 1_555 1_555
C11B C13B 1_555 1_555
C14B O3B 1_555 1_555
C16B N1B 1_555 1_555
C17B N1B 1_555 1_555

#END
