
#######################################################################
#
#                 Cambridge Crystallographic Data Centre
#                                CCDC 
#
#######################################################################
#
# If this CIF has been generated from an entry in the Cambridge 
# Structural Database, then it will include bibliographic, chemical, 
# crystal, experimental, refinement or atomic coordinate data resulting 
# from the CCDC's data processing and validation procedures.
#
#######################################################################

data_RAQDIW
_chemical_formula_moiety         'C16 H12 S12 2+,2(I3 1-)'
_chemical_name_systematic        
'cis,cis-2,5,7,10-Tetrathia-1,6(2,7)-ditetrathiafulvalenacyclodecaphane bis(triiodide)'
_symmetry_cell_setting           triclinic
_symmetry_space_group_name_H-M   'P -1'
_symmetry_Int_Tables_number      2
_space_group_name_Hall           '-P 1'
loop_
_symmetry_equiv_pos_site_id
_symmetry_equiv_pos_as_xyz
1 x,y,z
2 -x,-y,-z
_cell_length_a                   13.529(3)
_cell_length_b                   13.540(3)
_cell_length_c                   8.177(1)
_cell_angle_alpha                90.33(2)
_cell_angle_beta                 99.84(2)
_cell_angle_gamma                145.21(1)
_cell_volume                     813.138
_exptl_crystal_description       plate
_cell_formula_units_Z            1
loop_
_atom_site_label
_atom_site_type_symbol
_atom_site_fract_x
_atom_site_fract_y
_atom_site_fract_z
I1 I 0.0000 0.0000 1.0000
I2 I 0.1899(3) -0.0214(3) 0.9497(2)
I2A I -0.1899(3) 0.0214(3) 1.0503(2)
S1 S 0.6159(7) 0.4721(7) 0.7839(7)
S2 S 0.3127(7) 0.1825(6) 0.4743(8)
S3 S 0.4724(8) 0.5693(8) 0.8108(7)
S4 S 0.1642(7) 0.2872(7) 0.5010(8)
S5 S 0.4574(7) 0.0971(7) 0.4330(9)
S6 S 0.0619(7) 0.4226(8) 0.4950(9)
C1 C 0.414(3) 0.346(3) 0.636(3)
C2 C 0.470(2) 0.216(2) 0.555(3)
C3 C 0.603(2) 0.347(3) 0.692(3)
C4 C 0.351(2) 0.390(3) 0.654(3)
C5 C 0.193(3) 0.429(3) 0.606(4)
C6 C 0.326(3) 0.550(3) 0.749(3)
C7 C 0.222(2) -0.132(3) 0.390(3)
C8 C -0.171(3) 0.190(3) 0.456(3)
C8A C 0.171(3) -0.190(3) 0.544(3)
S6A S -0.0619(7) -0.4226(8) 0.5050(9)
C5A C -0.193(3) -0.429(3) 0.394(4)
S4A S -0.1642(7) -0.2872(7) 0.4990(8)
C4A C -0.351(2) -0.390(3) 0.346(3)
S3A S -0.4724(8) -0.5693(8) 0.1892(7)
C6A C -0.326(3) -0.550(3) 0.251(3)
C1A C -0.414(3) -0.346(3) 0.364(3)
S1A S -0.6159(7) -0.4721(7) 0.2161(7)
C3A C -0.603(2) -0.347(3) 0.308(3)
C2A C -0.470(2) -0.216(2) 0.445(3)
S2A S -0.3127(7) -0.1825(6) 0.5257(8)
S5A S -0.4574(7) -0.0971(7) 0.5670(9)
C7A C -0.222(2) 0.132(3) 0.610(3)
I3? I 1.0000 0.50000 1.0000
I4? I 0.642(1) 0.158(1) 0.9961(5)
loop_
_geom_bond_atom_site_label_1
_geom_bond_atom_site_label_2
_geom_bond_site_symmetry_1
_geom_bond_site_symmetry_2
I1 I2 1_555 1_555
S1 C1 1_555 1_555
S2 C1 1_555 1_555
S3 C4 1_555 1_555
S4 C4 1_555 1_555
S5 C2 1_555 1_555
S6 C5 1_555 1_555
C1 C4 1_555 1_555
C2 S2 1_555 1_555
C3 S1 1_555 1_555
C5 S4 1_555 1_555
C6 S3 1_555 1_555
C7 S5 1_555 1_555
C8 S6 1_555 1_555
I2A I1 1_555 1_555
C8A C7 1_555 1_555
S6A C8A 1_555 1_555
C5A S6A 1_555 1_555
S4A C5A 1_555 1_555
C4A S4A 1_555 1_555
S3A C4A 1_555 1_555
C6A C5A 1_555 1_555
C1A C4A 1_555 1_555
S1A C1A 1_555 1_555
C3A S1A 1_555 1_555
C2A C3A 1_555 1_555
S2A C1A 1_555 1_555
S5A C2A 1_555 1_555
C7A C8 1_555 1_555
C2 C3 1_555 1_555
C5 C6 1_555 1_555
S3A C6A 1_555 1_555
C2A S2A 1_555 1_555
S5A C7A 1_555 1_555

#END
