
#######################################################################
#
#                 Cambridge Crystallographic Data Centre
#                                CCDC 
#
#######################################################################
#
# If this CIF has been generated from an entry in the Cambridge 
# Structural Database, then it will include bibliographic, chemical, 
# crystal, experimental, refinement or atomic coordinate data resulting 
# from the CCDC's data processing and validation procedures.
#
#######################################################################

data_RAQDOC
_chemical_formula_moiety         'C18 H16 S12 1+,F6 P1 1-'
_chemical_name_systematic        
'trans,trans-2,6,8,12-Tetrathia-1,7(2,6)-ditetrathiafulvalenacyclododecaphane chloroform solvate hexafluorophosphate'
_symmetry_cell_setting           triclinic
_symmetry_space_group_name_H-M   'P -1'
_symmetry_Int_Tables_number      2
_space_group_name_Hall           '-P 1'
loop_
_symmetry_equiv_pos_site_id
_symmetry_equiv_pos_as_xyz
1 x,y,z
2 -x,-y,-z
_cell_length_a                   7.929(1)
_cell_length_b                   12.467(3)
_cell_length_c                   7.618(3)
_cell_angle_alpha                109.37(2)
_cell_angle_beta                 90.22(2)
_cell_angle_gamma                94.60(1)
_cell_volume                     707.761
_exptl_crystal_colour            black
_cell_formula_units_Z            1
loop_
_atom_site_label
_atom_site_type_symbol
_atom_site_fract_x
_atom_site_fract_y
_atom_site_fract_z
S1 S 0.2604(2) 0.0333(2) 0.2140(3)
C1 C 0.4776(9) 0.0285(6) 0.2433(11)
S2 S 0.5404(2) -0.1071(2) 0.2113(3)
C2 C 0.3376(9) -0.1760(7) 0.1618(12)
C3 C 0.2103(9) -0.1129(7) 0.1648(11)
S3 S 0.5189(3) 0.2568(2) 0.3067(4)
C4 C 0.5861(9) 0.1231(6) 0.2831(11)
S4 S 0.8050(3) 0.1223(2) 0.3106(3)
C5 C 0.8508(10) 0.2681(7) 0.3538(12)
C6 C 0.7170(10) 0.3286(7) 0.3545(13)
S5 S -0.0055(2) -0.1538(2) 0.1175(3)
C7 C -0.0182(10) -0.3071(7) 0.0724(12)
C8 C 0.0081(10) -0.3448(7) 0.2386(11)
C9 C -0.1146(10) -0.2937(8) 0.3961(11)
S6 S 1.0623(3) 0.3264(2) 0.3953(12)
S6A S -0.0623(3) -0.3264(2) 0.6047(12)
C5A C 0.1492(10) -0.2681(7) 0.6462(12)
S4A S 0.1950(3) -0.1223(2) 0.6894(3)
C4A C 0.4139(9) -0.1231(6) 0.7169(11)
C1A C 0.5224(9) -0.0285(6) 0.7567(11)
S1A S 0.7396(2) -0.0333(2) 0.7860(3)
C3A C 0.7897(9) 0.1129(7) 0.8352(11)
C2A C 0.6624(9) 0.1760(7) 0.8382(12)
S2A S 0.4596(2) 0.1071(2) 0.7887(3)
S5A S 1.0055(2) 0.1538(2) 0.8825(3)
C7A C 1.0182(10) 0.3071(7) 0.9276(12)
C8A C 0.9919(10) 0.3448(7) 0.7614(11)
C9A C 1.1146(10) 0.2937(8) 0.6039(11)
S3A S 0.4811(3) -0.2568(2) 0.6933(4)
C6A C 0.2830(10) -0.3286(7) 0.6455(13)
P1 P 0.5000 0.5000 1.0000
F1 F 0.3175(7) 0.5330(5) 0.9651(12)
F2 F 0.5659(9) 0.6280(5) 1.0773(15)
F3 F 0.4567(15) 0.5011(2) 1.1960(14)
F1A F 0.6825(7) 0.4670(5) 1.0349(12)
F2A F 0.4341(9) 0.3720(5) 0.9227(15)
F3A F 0.5433(15) 0.4989(2) 0.8040(14)
loop_
_geom_bond_atom_site_label_1
_geom_bond_atom_site_label_2
_geom_bond_site_symmetry_1
_geom_bond_site_symmetry_2
S1 C1 1_555 1_555
C1 S2 1_555 1_555
S2 C2 1_555 1_555
C2 C3 1_555 1_555
C3 S1 1_555 1_555
S3 C4 1_555 1_555
C4 C1 1_555 1_555
S4 C4 1_555 1_555
C5 S4 1_555 1_555
C6 S3 1_555 1_555
S5 C3 1_555 1_555
C7 S5 1_555 1_555
C8 C7 1_555 1_555
C9 C8 1_555 1_555
S6 C5 1_555 1_555
P1 F1 1_555 1_555
F2 P1 1_555 1_555
F3 P1 1_555 1_555
S6A C9 1_555 1_555
C5A S6A 1_555 1_555
S4A C5A 1_555 1_555
C4A S4A 1_555 1_555
C1A C4A 1_555 1_555
S1A C1A 1_555 1_555
C3A S1A 1_555 1_555
C2A C3A 1_555 1_555
S2A C1A 1_555 1_555
S5A C3A 1_555 1_555
C7A S5A 1_555 1_555
C8A C7A 1_555 1_555
C9A S6 1_555 1_555
S3A C4A 1_555 1_555
C6A C5A 1_555 1_555
F1A P1 1_555 1_555
F2A P1 1_555 1_555
F3A P1 1_555 1_555
C5 C6 1_555 1_555
C2A S2A 1_555 1_555
C8A C9A 1_555 1_555
S3A C6A 1_555 1_555

#END
