
#######################################################################
#
#                 Cambridge Crystallographic Data Centre
#                                CCDC 
#
#######################################################################
#
# If this CIF has been generated from an entry in the Cambridge 
# Structural Database, then it will include bibliographic, chemical, 
# crystal, experimental, refinement or atomic coordinate data resulting 
# from the CCDC's data processing and validation procedures.
#
#######################################################################

data_RAQFEX
_chemical_formula_moiety         'C44 H24 B2 F25 N1 O2'
_chemical_name_systematic        
'(2,2-bis(pentafluorophenyl)-3-(1-(2,2,6,6-tetramethylpiperidinium-1-ylidene)propan-2-yl)-1,4,2-dioxaborol-1-ium-5-yl)(tris(pentafluorophenyl))borate unknown solvate'
_symmetry_cell_setting           monoclinic
_symmetry_space_group_name_H-M   'P 21/n'
_symmetry_Int_Tables_number      14
_space_group_name_Hall           '-P 2yn'
loop_
_symmetry_equiv_pos_site_id
_symmetry_equiv_pos_as_xyz
1 x,y,z
2 1/2-x,1/2+y,1/2-z
3 -x,-y,-z
4 1/2+x,1/2-y,1/2+z
_cell_length_a                   11.0648(2)
_cell_length_b                   22.0848(4)
_cell_length_c                   20.1904(4)
_cell_angle_alpha                90
_cell_angle_beta                 102.354(1)
_cell_angle_gamma                90
_cell_volume                     4819.56
_exptl_crystal_colour            colorless
_exptl_crystal_description       plate
_cell_formula_units_Z            4
loop_
_atom_site_label
_atom_site_type_symbol
_atom_site_fract_x
_atom_site_fract_y
_atom_site_fract_z
O1 O 0.1139(2) 0.19590(11) 0.75429(12)
O2 O -0.0281(2) 0.14088(11) 0.78543(12)
C1 C 0.2128(4) 0.25049(17) 0.85697(18)
H1 H 0.1409 0.2767 0.8586
C2 C 0.2949(4) 0.2428(2) 0.9281(2)
H2 H 0.3693 0.2208 0.9249
H3 H 0.2500 0.2204 0.9565
H4 H 0.3172 0.2823 0.9479
C3 C 0.1700(3) 0.18847(17) 0.82827(18)
H5 H 0.2424 0.1611 0.8336
C4 C 0.0134(3) 0.16242(16) 0.73703(19)
C5 C 0.2907(4) 0.27806(19) 0.8138(2)
H6 H 0.3458 0.2505 0.8005
N1 N 0.2986(13) 0.3321(5) 0.7906(8)
C6 C 0.2092(11) 0.3830(5) 0.7981(7)
C7 C 0.0829(9) 0.3674(5) 0.7508(5)
H7 H 0.0887 0.3729 0.7039
H8 H 0.0194 0.3939 0.7610
H9 H 0.0617 0.3256 0.7579
C8 C 0.196(2) 0.3891(10) 0.8722(7)
H10 H 0.1423 0.3574 0.8824
H11 H 0.1612 0.4283 0.8787
H12 H 0.2771 0.3854 0.9021
C9 C 0.2560(10) 0.4424(4) 0.7762(5)
H13 H 0.1874 0.4713 0.7711
H14 H 0.3203 0.4568 0.8141
C10 C 0.3049(15) 0.4468(7) 0.7170(9)
H15 H 0.3308 0.4884 0.7103
H16 H 0.2436 0.4342 0.6768
C11 C 0.4110(12) 0.4058(5) 0.7297(7)
H17 H 0.4705 0.4205 0.7696
H18 H 0.4513 0.4081 0.6910
C12 C 0.3839(11) 0.3415(5) 0.7409(6)
C13 C 0.3225(13) 0.3121(7) 0.6739(6)
H19 H 0.3147 0.2689 0.6806
H20 H 0.3726 0.3191 0.6407
H21 H 0.2410 0.3295 0.6579
C14 C 0.5064(10) 0.3107(7) 0.7683(8)
H22 H 0.5268 0.3142 0.8173
H23 H 0.5705 0.3300 0.7496
H24 H 0.5005 0.2683 0.7556
B1 B 0.0592(4) 0.1544(2) 0.8564(2)
C15 C -0.0121(4) 0.19779(18) 0.9008(2)
F1 F -0.1149(3) 0.25303(14) 0.80489(15)
C16 C -0.0935(4) 0.2429(2) 0.8733(2)
F2 F -0.2266(4) 0.32566(19) 0.8782(2)
C17 C -0.1501(5) 0.2818(3) 0.9102(4)
F3 F -0.1781(4) 0.31477(19) 1.0171(2)
C18 C -0.1258(6) 0.2769(3) 0.9801(4)
F4 F -0.0079(4) 0.23231(18) 1.07836(17)
C19 C -0.0408(6) 0.2351(3) 1.0097(3)
F5 F 0.0944(3) 0.15729(12) 1.00533(12)
C20 C 0.0102(5) 0.1964(2) 0.9709(2)
C21 C 0.0903(4) 0.08766(17) 0.89030(18)
F6 F 0.3059(2) 0.10416(12) 0.92818(13)
C22 C 0.2061(4) 0.06700(18) 0.9220(2)
F7 F 0.3458(3) -0.00617(14) 0.97962(15)
C23 C 0.2305(5) 0.0103(2) 0.9509(2)
F8 F 0.1543(4) -0.08434(12) 0.97552(15)
C24 C 0.1331(6) -0.0288(2) 0.9486(2)
F9 F -0.0789(3) -0.04923(13) 0.91522(16)
C25 C 0.0172(5) -0.0113(2) 0.9182(2)
F10 F -0.1204(2) 0.06091(12) 0.86297(14)
C26 C -0.0032(4) 0.04574(19) 0.8905(2)
B2 B -0.0467(4) 0.1537(2) 0.6566(2)
C27 C -0.0807(4) 0.22378(18) 0.63172(18)
F11 F -0.2501(2) 0.22499(12) 0.68587(12)
C28 C -0.1767(4) 0.25488(19) 0.6514(2)
F12 F -0.2967(3) 0.34177(13) 0.66004(15)
C29 C -0.2038(4) 0.3147(2) 0.6377(2)
F13 F -0.1569(3) 0.40663(12) 0.58973(15)
C30 C -0.1344(5) 0.3478(2) 0.6025(2)
F14 F 0.0334(3) 0.35214(13) 0.54827(14)
C31 C -0.0383(5) 0.3203(2) 0.5821(2)
F15 F 0.0861(2) 0.23747(11) 0.57600(13)
C32 C -0.0139(4) 0.25973(19) 0.5969(2)
C33 C 0.0504(3) 0.12012(17) 0.61731(18)
F16 F 0.2080(2) 0.09616(12) 0.71399(11)
C34 C 0.1643(4) 0.09483(19) 0.6458(2)
F17 F 0.3511(2) 0.04523(13) 0.64085(14)
C35 C 0.2394(4) 0.0662(2) 0.6095(2)
F18 F 0.2703(3) 0.02883(15) 0.50538(15)
C36 C 0.2004(4) 0.0581(2) 0.5416(2)
F19 F 0.0468(3) 0.07389(16) 0.44296(13)
C37 C 0.0883(5) 0.0805(2) 0.5105(2)
F20 F -0.0921(2) 0.13357(13) 0.51393(11)
C38 C 0.0179(4) 0.11068(19) 0.5482(2)
C39 C -0.1663(4) 0.10741(18) 0.64562(19)
F21 F -0.0438(2) 0.03532(10) 0.71719(12)
C40 C -0.1535(4) 0.05114(19) 0.6769(2)
F22 F -0.2245(3) -0.04573(12) 0.70071(18)
C41 C -0.2440(4) 0.0073(2) 0.6676(3)
F23 F -0.4433(3) -0.02463(14) 0.61255(19)
C42 C -0.3545(4) 0.0180(2) 0.6234(3)
F24 F -0.4776(2) 0.08275(15) 0.54461(16)
C43 C -0.3721(4) 0.0717(2) 0.5898(2)
F25 F -0.3042(2) 0.16581(12) 0.56339(12)
C44 C -0.2797(4) 0.1149(2) 0.6012(2)
N2? N 0.2774(17) 0.3285(6) 0.7817(10)
C45? C 0.1861(14) 0.3773(6) 0.7930(9)
C46? C 0.0519(13) 0.3536(8) 0.7739(9)
H25? H 0.0427 0.3277 0.7342
H26? H -0.0047 0.3875 0.7639
H27? H 0.0335 0.3305 0.8114
C47? C 0.217(3) 0.3951(13) 0.8690(8)
H28? H 0.2068 0.3601 0.8964
H29? H 0.1616 0.4271 0.8769
H30? H 0.3018 0.4093 0.8815
C48? C 0.1966(18) 0.4326(7) 0.7522(9)
H31? H 0.1121 0.4438 0.7298
H32? H 0.2272 0.4650 0.7847
C49? C 0.270(2) 0.4354(8) 0.7005(11)
H33? H 0.3391 0.4635 0.7161
H34? H 0.2187 0.4525 0.6592
C50? C 0.3218(14) 0.3774(6) 0.6827(6)
H35? H 0.3842 0.3859 0.6560
H36? H 0.2554 0.3540 0.6540
C51? C 0.3792(14) 0.3398(6) 0.7418(8)
C52? C 0.4206(16) 0.2805(6) 0.7138(8)
H37? H 0.4682 0.2568 0.7508
H38? H 0.4715 0.2896 0.6814
H39? H 0.3485 0.2577 0.6915
C53? C 0.4950(12) 0.3672(8) 0.7873(7)
H40? H 0.4743 0.4058 0.8050
H41? H 0.5580 0.3733 0.7610
H42? H 0.5262 0.3398 0.8246
loop_
_geom_bond_atom_site_label_1
_geom_bond_atom_site_label_2
_geom_bond_site_symmetry_1
_geom_bond_site_symmetry_2
O1 C3 1_555 1_555
O2 C4 1_555 1_555
C1 H1 1_555 1_555
C2 C1 1_555 1_555
H2 C2 1_555 1_555
H3 C2 1_555 1_555
H4 C2 1_555 1_555
C3 C1 1_555 1_555
H5 C3 1_555 1_555
C4 O1 1_555 1_555
C5 C1 1_555 1_555
H6 C5 1_555 1_555
N1 C5 1_555 1_555
C6 N1 1_555 1_555
C7 C6 1_555 1_555
H7 C7 1_555 1_555
H8 C7 1_555 1_555
H9 C7 1_555 1_555
C8 C6 1_555 1_555
H10 C8 1_555 1_555
H11 C8 1_555 1_555
H12 C8 1_555 1_555
C9 C6 1_555 1_555
H13 C9 1_555 1_555
H14 C9 1_555 1_555
C10 C9 1_555 1_555
H15 C10 1_555 1_555
H16 C10 1_555 1_555
C11 C10 1_555 1_555
H17 C11 1_555 1_555
H18 C11 1_555 1_555
C12 N1 1_555 1_555
C13 C12 1_555 1_555
H19 C13 1_555 1_555
H20 C13 1_555 1_555
H21 C13 1_555 1_555
C14 C12 1_555 1_555
H22 C14 1_555 1_555
H23 C14 1_555 1_555
H24 C14 1_555 1_555
B1 O2 1_555 1_555
C15 B1 1_555 1_555
F1 C16 1_555 1_555
C16 C15 1_555 1_555
F2 C17 1_555 1_555
C17 C16 1_555 1_555
F3 C18 1_555 1_555
C18 C17 1_555 1_555
F4 C19 1_555 1_555
C19 C18 1_555 1_555
F5 C20 1_555 1_555
C20 C15 1_555 1_555
C21 B1 1_555 1_555
F6 C22 1_555 1_555
C22 C21 1_555 1_555
F7 C23 1_555 1_555
C23 C22 1_555 1_555
F8 C24 1_555 1_555
C24 C23 1_555 1_555
F9 C25 1_555 1_555
C25 C24 1_555 1_555
F10 C26 1_555 1_555
C26 C21 1_555 1_555
B2 C4 1_555 1_555
C27 B2 1_555 1_555
F11 C28 1_555 1_555
C28 C27 1_555 1_555
F12 C29 1_555 1_555
C29 C28 1_555 1_555
F13 C30 1_555 1_555
C30 C29 1_555 1_555
F14 C31 1_555 1_555
C31 C30 1_555 1_555
F15 C32 1_555 1_555
C32 C27 1_555 1_555
C33 B2 1_555 1_555
F16 C34 1_555 1_555
C34 C33 1_555 1_555
F17 C35 1_555 1_555
C35 C34 1_555 1_555
F18 C36 1_555 1_555
C36 C35 1_555 1_555
F19 C37 1_555 1_555
C37 C36 1_555 1_555
F20 C38 1_555 1_555
C38 C33 1_555 1_555
C39 B2 1_555 1_555
F21 C40 1_555 1_555
C40 C39 1_555 1_555
F22 C41 1_555 1_555
C41 C40 1_555 1_555
F23 C42 1_555 1_555
C42 C41 1_555 1_555
F24 C43 1_555 1_555
C43 C42 1_555 1_555
F25 C44 1_555 1_555
C44 C39 1_555 1_555
C3 B1 1_555 1_555
C11 C12 1_555 1_555
C19 C20 1_555 1_555
C25 C26 1_555 1_555
C31 C32 1_555 1_555
C37 C38 1_555 1_555
C43 C44 1_555 1_555

#END
