
#######################################################################
#
#                 Cambridge Crystallographic Data Centre
#                                CCDC 
#
#######################################################################
#
# If this CIF has been generated from an entry in the Cambridge 
# Structural Database, then it will include bibliographic, chemical, 
# crystal, experimental, refinement or atomic coordinate data resulting 
# from the CCDC's data processing and validation procedures.
#
#######################################################################

data_RAQWEO
_chemical_formula_moiety         'C17 H15 Br1 N1 O3 P1'
_chemical_name_systematic        
'dimethyl (6-bromo-4-phenylquinolin-3-yl)phosphonate'
_symmetry_cell_setting           triclinic
_symmetry_space_group_name_H-M   'P -1'
_symmetry_Int_Tables_number      2
_space_group_name_Hall           '-P 1'
loop_
_symmetry_equiv_pos_site_id
_symmetry_equiv_pos_as_xyz
1 x,y,z
2 -x,-y,-z
_cell_length_a                   9.9828(14)
_cell_length_b                   10.1134(15)
_cell_length_c                   10.6034(16)
_cell_angle_alpha                62.258(2)
_cell_angle_beta                 64.050(2)
_cell_angle_gamma                65.117(2)
_cell_volume                     819.634
_exptl_crystal_colour            colorless
_exptl_crystal_description       prismatic
_cell_formula_units_Z            2
loop_
_atom_site_label
_atom_site_type_symbol
_atom_site_fract_x
_atom_site_fract_y
_atom_site_fract_z
Br1 Br -0.20176(2) 0.71182(2) 0.69741(2)
P1 P 0.22940(5) -0.19277(5) 0.76104(5)
N1 N -0.14363(16) 0.12362(17) 0.63423(16)
O1 O 0.38324(14) -0.21062(15) 0.65116(14)
O2 O 0.23091(14) -0.22415(14) 0.92095(13)
O3 O 0.13598(16) -0.30442(15) 0.79496(17)
C1 C -0.14981(18) 0.25362(19) 0.64896(18)
C2 C -0.27417(19) 0.3880(2) 0.61748(19)
H1 H -0.3480 0.3850 0.5857
C3 C -0.28963(19) 0.5216(2) 0.63204(19)
H2 H -0.3741 0.6103 0.6123
C4 C -0.17781(19) 0.52500(19) 0.67690(18)
C5 C -0.05394(19) 0.40016(19) 0.70572(18)
H3 H 0.0208 0.4074 0.7331
C6 C -0.03835(18) 0.25940(19) 0.69417(17)
C7 C 0.08570(18) 0.12210(19) 0.72631(17)
C8 C 0.08727(18) -0.00908(19) 0.71467(17)
C9 C -0.03009(19) -0.0005(2) 0.66681(18)
H4 H -0.0258 -0.0915 0.6578
C10 C 0.20861(18) 0.12550(18) 0.76806(18)
C11 C 0.17483(19) 0.14039(19) 0.90389(19)
H5 H 0.0727 0.1476 0.9712
C12 C 0.2895(2) 0.1448(2) 0.9414(2)
H6 H 0.2663 0.1528 1.0349
C13 C 0.4385(2) 0.1374(2) 0.8417(2)
H7 H 0.5166 0.1418 0.8666
C14 C 0.4729(2) 0.1235(2) 0.7059(2)
H8 H 0.5745 0.1190 0.6378
C15 C 0.35855(19) 0.11607(19) 0.66931(18)
H9 H 0.3828 0.1046 0.5771
C16 C 0.3716(2) -0.2604(2) 0.9521(2)
H10 H 0.4592 -0.3120 0.8850
H11 H 0.3631 -0.3295 1.0560
H12 H 0.3882 -0.1644 0.9366
C17 C 0.2094(3) -0.4695(2) 0.8315(3)
H13 H 0.2987 -0.4889 0.7464
H14 H 0.1351 -0.5229 0.8539
H15 H 0.2442 -0.5087 0.9188
loop_
_geom_bond_atom_site_label_1
_geom_bond_atom_site_label_2
_geom_bond_site_symmetry_1
_geom_bond_site_symmetry_2
Br1 C4 1_555 1_555
P1 O1 1_555 1_555
N1 C1 1_555 1_555
O2 P1 1_555 1_555
O3 P1 1_555 1_555
C1 C2 1_555 1_555
C2 H1 1_555 1_555
C3 C2 1_555 1_555
H2 C3 1_555 1_555
C4 C3 1_555 1_555
C5 C4 1_555 1_555
H3 C5 1_555 1_555
C6 C1 1_555 1_555
C7 C6 1_555 1_555
C8 P1 1_555 1_555
C9 N1 1_555 1_555
H4 C9 1_555 1_555
C10 C7 1_555 1_555
C11 C10 1_555 1_555
H5 C11 1_555 1_555
C12 C11 1_555 1_555
H6 C12 1_555 1_555
C13 C12 1_555 1_555
H7 C13 1_555 1_555
C14 C13 1_555 1_555
H8 C14 1_555 1_555
C15 C10 1_555 1_555
H9 C15 1_555 1_555
C16 O2 1_555 1_555
H10 C16 1_555 1_555
H11 C16 1_555 1_555
H12 C16 1_555 1_555
C17 O3 1_555 1_555
H13 C17 1_555 1_555
H14 C17 1_555 1_555
H15 C17 1_555 1_555
C5 C6 1_555 1_555
C7 C8 1_555 1_555
C8 C9 1_555 1_555
C14 C15 1_555 1_555

#END
