
#######################################################################
#
#                 Cambridge Crystallographic Data Centre
#                                CCDC 
#
#######################################################################
#
# If this CIF has been generated from an entry in the Cambridge 
# Structural Database, then it will include bibliographic, chemical, 
# crystal, experimental, refinement or atomic coordinate data resulting 
# from the CCDC's data processing and validation procedures.
#
#######################################################################

data_RARFOH
_chemical_formula_moiety         'C17 H13 N1 O1'
_chemical_name_systematic        
10b-Methyl-11-methylene-10b,11-dihydro-6H-isoindolo[2,1-a]indol-6-one
_symmetry_cell_setting           monoclinic
_symmetry_space_group_name_H-M   'P 21/c'
_symmetry_Int_Tables_number      14
_space_group_name_Hall           '-P 2ybc'
loop_
_symmetry_equiv_pos_site_id
_symmetry_equiv_pos_as_xyz
1 x,y,z
2 -x,1/2+y,1/2-z
3 -x,-y,-z
4 x,1/2-y,1/2+z
_cell_length_a                   10.626(2)
_cell_length_b                   7.5650(15)
_cell_length_c                   16.123(3)
_cell_angle_alpha                90
_cell_angle_beta                 93.05(3)
_cell_angle_gamma                90
_cell_volume                     1294.22
_chemical_melting_point          '151-153 deg.C'
_cell_formula_units_Z            4
loop_
_atom_site_label
_atom_site_type_symbol
_atom_site_fract_x
_atom_site_fract_y
_atom_site_fract_z
N1 N 0.18794(17) 0.5345(2) 0.44991(10)
O1 O 0.26006(18) 0.8023(2) 0.50272(10)
C1 C 0.3387(2) 0.5197(3) 0.55569(13)
C2 C 0.4235(2) 0.5622(4) 0.62046(15)
H1 H 0.4351 0.6783 0.6382
C3 C 0.4900(3) 0.4254(5) 0.65749(17)
H2 H 0.5477 0.4492 0.7015
C4 C 0.4732(2) 0.2529(5) 0.63083(17)
H3 H 0.5203 0.1634 0.6570
C5 C 0.3880(2) 0.2103(3) 0.56615(15)
H4 H 0.3760 0.0941 0.5487
C6 C 0.3215(2) 0.3481(3) 0.52863(13)
C7 C 0.21633(19) 0.3434(3) 0.46134(13)
C8 C 0.2605(2) 0.6412(3) 0.50303(14)
C9 C 0.2428(2) 0.2843(3) 0.37355(13)
C10 C 0.19862(19) 0.4241(3) 0.31817(13)
C11 C 0.1664(2) 0.5719(3) 0.36424(13)
C12 C 0.1897(2) 0.4336(4) 0.23244(14)
H5 H 0.2105 0.3366 0.2004
C13 C 0.1496(3) 0.5887(5) 0.19529(17)
H6 H 0.1431 0.5959 0.1376
C14 C 0.1188(3) 0.7332(4) 0.24163(18)
H7 H 0.0929 0.8365 0.2146
C15 C 0.1256(2) 0.7289(3) 0.32799(16)
H8 H 0.1038 0.8261 0.3596
C16 C 0.1015(2) 0.2460(3) 0.49119(14)
H9 H 0.0853 0.2841 0.5464
H10 H 0.1173 0.1211 0.4913
H11 H 0.0295 0.2716 0.4546
C17 C 0.2926(3) 0.1254(3) 0.35414(17)
H12 H 0.3018 0.0953 0.2989
H13 H 0.3175 0.0466 0.3961
loop_
_geom_bond_atom_site_label_1
_geom_bond_atom_site_label_2
_geom_bond_site_symmetry_1
_geom_bond_site_symmetry_2
N1 C7 1_555 1_555
O1 C8 1_555 1_555
C1 C2 1_555 1_555
C2 H1 1_555 1_555
C3 C2 1_555 1_555
H2 C3 1_555 1_555
C4 C3 1_555 1_555
H3 C4 1_555 1_555
C5 C4 1_555 1_555
H4 C5 1_555 1_555
C6 C1 1_555 1_555
C7 C6 1_555 1_555
C8 N1 1_555 1_555
C9 C7 1_555 1_555
C10 C9 1_555 1_555
C11 N1 1_555 1_555
C12 C10 1_555 1_555
H5 C12 1_555 1_555
C13 C12 1_555 1_555
H6 C13 1_555 1_555
C14 C13 1_555 1_555
H7 C14 1_555 1_555
C15 C11 1_555 1_555
H8 C15 1_555 1_555
C16 C7 1_555 1_555
H9 C16 1_555 1_555
H10 C16 1_555 1_555
H11 C16 1_555 1_555
C17 C9 1_555 1_555
H12 C17 1_555 1_555
H13 C17 1_555 1_555
C1 C8 1_555 1_555
C5 C6 1_555 1_555
C10 C11 1_555 1_555
C14 C15 1_555 1_555

#END
