
#######################################################################
#
#                 Cambridge Crystallographic Data Centre
#                                CCDC 
#
#######################################################################
#
# If this CIF has been generated from an entry in the Cambridge 
# Structural Database, then it will include bibliographic, chemical, 
# crystal, experimental, refinement or atomic coordinate data resulting 
# from the CCDC's data processing and validation procedures.
#
#######################################################################

data_RARJIF
_chemical_compound_source        
'stems of Tinospora cordifolia Miers (Menispermaceae)'
_chemical_name_common            'Cordifolide A methanol solvate'
_chemical_formula_moiety         'C28 H38 O12 S1,C1 H4 O1'
_chemical_name_systematic        
'9-(3-Furyl)-3a-hydroxy-10a,10c-dimethyl-3-((2-((3,4,5-trihydroxy-6-(hydroxymethyl)tetrahydro-2H-pyran-2-yl)oxy)ethyl)sulfanyl)dodecahydro-4H,7H-[2]benzofuro[7,1-fg]isochromene-4,7-dione methanol solvate'
_symmetry_cell_setting           monoclinic
_symmetry_space_group_name_H-M   'P 21'
_symmetry_Int_Tables_number      4
_space_group_name_Hall           'P 2yb'
loop_
_symmetry_equiv_pos_site_id
_symmetry_equiv_pos_as_xyz
1 x,y,z
2 -x,1/2+y,-z
_cell_length_a                   10.0464(1)
_cell_length_b                   7.8254(1)
_cell_length_c                   19.3562(3)
_cell_angle_alpha                90
_cell_angle_beta                 102.457(1)
_cell_angle_gamma                90
_cell_volume                     1485.9
_exptl_crystal_colour            colorless
_exptl_crystal_description       'rectangular prism'
_chemical_melting_point          '185-188 deg.C'
_cell_formula_units_Z            2
loop_
_atom_site_label
_atom_site_type_symbol
_atom_site_fract_x
_atom_site_fract_y
_atom_site_fract_z
C1 C -0.1002(2) 0.9448(2) 0.73315(11)
H1 H -0.0536 0.9185 0.6942
H2 H -0.1205 1.0687 0.7315
C2 C -0.00594(19) 0.9019(3) 0.80339(10)
H3 H -0.0542 0.9222 0.8422
H4 H 0.0745 0.9782 0.811
C3 C 0.04121(17) 0.7168(2) 0.80567(9)
H5 H 0.0948 0.6949 0.8547
C4 C -0.08484(17) 0.5971(2) 0.79388(9)
C5 C -0.20733(16) 0.6502(2) 0.73415(9)
C6 C -0.15794(17) 0.5769(2) 0.67117(9)
H6 H -0.081 0.6502 0.6633
C7 C -0.26480(19) 0.5750(3) 0.60331(10)
H7 H -0.3476 0.5133 0.6093
H8 H -0.2296 0.5209 0.5646
C8 C -0.29510(18) 0.7683(2) 0.58820(9)
H9 H -0.2081 0.8177 0.5799
C9 C -0.33238(19) 0.8793(3) 0.64785(10)
C10 C -0.23493(18) 0.8437(2) 0.72184(9)
H10 H -0.2838 0.8831 0.7588
C11 C -0.48499(19) 0.8553(3) 0.65068(10)
H11 H -0.4898 0.7981 0.6957
H12 H -0.5275 0.9694 0.6508
C12 C -0.56741(18) 0.7516(3) 0.58959(10)
H13 H -0.5475 0.6273 0.5986
C13 C -0.7172(2) 0.7800(3) 0.57869(10)
C14 C -0.7884(2) 0.9397(3) 0.57365(12)
H14 H -0.7495 1.0508 0.5773
C15 C -0.9214(2) 0.9002(4) 0.56273(13)
H15 H -0.9928 0.982 0.557
C16 C -0.8138(2) 0.6571(4) 0.57091(11)
H16 H -0.7958 0.5378 0.5722
C17 C -0.39878(18) 0.7949(3) 0.51925(10)
C18 C -0.05071(18) 0.4227(2) 0.76631(10)
C19 C -0.33243(18) 0.5512(3) 0.74768(10)
H17 H -0.4061 0.556 0.7053
H18 H -0.3634 0.603 0.7876
H19 H -0.3071 0.4317 0.7588
C20 C -0.3178(2) 1.0670(3) 0.62627(11)
H20 H -0.2254 1.0862 0.6189
H21 H -0.3344 1.1427 0.6638
H22 H -0.3842 1.0913 0.5823
C21 C 0.30882(18) 0.6059(3) 0.80630(10)
H23 H 0.2839 0.5105 0.8346
H24 H 0.3742 0.5615 0.779
C22 C 0.37675(19) 0.7447(3) 0.85555(12)
H25 H 0.3933 0.8464 0.8282
H26 H 0.318 0.7786 0.8882
C23 C 0.57823(18) 0.7941(2) 0.94339(10)
H27 H 0.5226 0.8328 0.9775
C24 C 0.70685(17) 0.7018(2) 0.98233(10)
H28 H 0.7532 0.6536 0.9459
C25 C 0.80447(17) 0.8289(2) 1.02676(10)
H29 H 0.7644 0.8687 1.067
C26 C 0.82684(18) 0.9823(3) 0.98276(10)
H30 H 0.8734 0.9446 0.9446
C27 C 0.68870(19) 1.0615(2) 0.94904(10)
H31 H 0.6396 1.0933 0.987
C28 C 0.7021(2) 1.2176(3) 0.90480(12)
H32 H 0.7696 1.2972 0.9327
H33 H 0.7358 1.1826 0.8625
O1 O -0.10081(13) 0.40870(17) 0.69587(7)
O2 O 0.00688(14) 0.30614(18) 0.80098(7)
O3 O -0.12606(13) 0.57910(19) 0.85872(7)
H34 H -0.053(2) 0.573(3) 0.8905(12)
O4 O -0.53077(13) 0.8006(2) 0.52276(7)
O5 O -0.36974(14) 0.8163(2) 0.46234(7)
O6 O -0.94077(14) 0.7277(3) 0.56090(9)
O7 O 0.50446(12) 0.67665(18) 0.89492(7)
O8 O 0.61159(13) 0.93498(17) 0.90386(7)
O9 O 0.67309(16) 0.5635(2) 1.02255(9)
H35 H 0.686(4) 0.598(5) 1.0651(19)
O10 O 0.93071(13) 0.74472(19) 1.05464(8)
H36 H 0.949(3) 0.762(3) 1.0934(14)
O11 O 0.91133(15) 1.1026(2) 1.02743(7)
H37 H 0.954(2) 1.162(4) 1.0046(13)
O12 O 0.57470(18) 1.3027(2) 0.88318(10)
H38 H 0.573(4) 1.406(6) 0.9082(19)
S1 S 0.15724(4) 0.68098(7) 0.74532(2)
O13 O 0.32188(16) 0.1737(2) 0.83600(9)
H39 H 0.4213 0.2074 0.8575
C29 C 0.2918(3) 0.1654(4) 0.75884(14)
H40 H 0.2132 0.2383 0.7397
H41 H 0.271 0.0472 0.7436
H42 H 0.3711 0.2053 0.7414
loop_
_geom_bond_atom_site_label_1
_geom_bond_atom_site_label_2
_geom_bond_site_symmetry_1
_geom_bond_site_symmetry_2
C1 H1 1_555 1_555
H2 C1 1_555 1_555
C2 C1 1_555 1_555
H3 C2 1_555 1_555
H4 C2 1_555 1_555
C3 C2 1_555 1_555
H5 C3 1_555 1_555
C4 C3 1_555 1_555
C5 C4 1_555 1_555
C6 C5 1_555 1_555
H6 C6 1_555 1_555
C7 C6 1_555 1_555
H7 C7 1_555 1_555
H8 C7 1_555 1_555
C8 C7 1_555 1_555
H9 C8 1_555 1_555
C9 C8 1_555 1_555
C10 C1 1_555 1_555
H10 C10 1_555 1_555
C11 C9 1_555 1_555
H11 C11 1_555 1_555
H12 C11 1_555 1_555
C12 C11 1_555 1_555
H13 C12 1_555 1_555
C13 C12 1_555 1_555
C14 C13 1_555 1_555
H14 C14 1_555 1_555
C15 C14 1_555 1_555
H15 C15 1_555 1_555
C16 C13 1_555 1_555
H16 C16 1_555 1_555
C17 C8 1_555 1_555
C18 C4 1_555 1_555
C19 C5 1_555 1_555
H17 C19 1_555 1_555
H18 C19 1_555 1_555
H19 C19 1_555 1_555
C20 C9 1_555 1_555
H20 C20 1_555 1_555
H21 C20 1_555 1_555
H22 C20 1_555 1_555
C21 H23 1_555 1_555
H24 C21 1_555 1_555
C22 C21 1_555 1_555
H25 C22 1_555 1_555
H26 C22 1_555 1_555
C23 H27 1_555 1_555
C24 C23 1_555 1_555
H28 C24 1_555 1_555
C25 C24 1_555 1_555
H29 C25 1_555 1_555
C26 C25 1_555 1_555
H30 C26 1_555 1_555
C27 C26 1_555 1_555
H31 C27 1_555 1_555
C28 C27 1_555 1_555
H32 C28 1_555 1_555
H33 C28 1_555 1_555
O1 C6 1_555 1_555
O2 C18 1_555 1_555
O3 C4 1_555 1_555
H34 O3 1_555 1_555
O4 C12 1_555 1_555
O5 C17 1_555 1_555
O6 C15 1_555 1_555
O7 C22 1_555 1_555
O8 C23 1_555 1_555
O9 C24 1_555 1_555
H35 O9 1_555 1_555
O10 C25 1_555 1_555
H36 O10 1_555 1_555
O11 C26 1_555 1_555
H37 O11 1_555 1_555
O12 C28 1_555 1_555
H38 O12 1_555 1_555
S1 C3 1_555 1_555
O13 H39 1_555 1_555
C29 O13 1_555 1_555
H40 C29 1_555 1_555
H41 C29 1_555 1_555
H42 C29 1_555 1_555
C5 C10 1_555 1_555
C9 C10 1_555 1_555
C16 O6 1_555 1_555
C17 O4 1_555 1_555
C18 O1 1_555 1_555
C21 S1 1_555 1_555
C23 O7 1_555 1_555
C27 O8 1_555 1_555

#END
