
#######################################################################
#
#                 Cambridge Crystallographic Data Centre
#                                CCDC 
#
#######################################################################
#
# If this CIF has been generated from an entry in the Cambridge 
# Structural Database, then it will include bibliographic, chemical, 
# crystal, experimental, refinement or atomic coordinate data resulting 
# from the CCDC's data processing and validation procedures.
#
#######################################################################

data_RASKUU
_chemical_formula_moiety         'C30 H39 B1 F2 N5 1+,C1 F3 O3 S1 1-,C1 H1 Cl3'
_chemical_name_systematic        
'(4-butyl-1-{4-[(4-ethyl-3,5-dimethyl-1H-pyrrol-2-yl)(4-ethyl-3,5-dimethyl-2H-pyrrol-2-ylidene)methyl]phenyl}-3-methyl-1H-1,2,3-triazol-3-iumato)(difluoro)boron trifluoromethanesulfonate chloroform solvate'
_symmetry_cell_setting           monoclinic
_symmetry_space_group_name_H-M   'P 21/c'
_symmetry_Int_Tables_number      14
_space_group_name_Hall           '-P 2ybc'
loop_
_symmetry_equiv_pos_site_id
_symmetry_equiv_pos_as_xyz
1 x,y,z
2 -x,1/2+y,1/2-z
3 -x,-y,-z
4 x,1/2-y,1/2+z
_cell_length_a                   7.9707(2)
_cell_length_b                   25.7264(4)
_cell_length_c                   17.9969(4)
_cell_angle_alpha                90
_cell_angle_beta                 99.950(2)
_cell_angle_gamma                90
_cell_volume                     3634.89
_exptl_crystal_colour            red
_exptl_crystal_description       needle
_cell_formula_units_Z            4
_exptl_crystal_recrystallization_method Ether/Chloroform
loop_
_atom_site_label
_atom_site_type_symbol
_atom_site_fract_x
_atom_site_fract_y
_atom_site_fract_z
F1 F 0.72500(15) 0.27211(5) 1.19633(6)
F2 F 0.81853(15) 0.20728(4) 1.12829(6)
N1 N 0.6129(2) 0.26703(6) 1.06248(9)
N2 N 0.91092(19) 0.29436(6) 1.10896(8)
N3 N 0.75508(18) 0.43090(5) 0.71106(8)
N4 N 0.77023(18) 0.48202(5) 0.70673(8)
N5 N 0.75762(18) 0.49051(6) 0.63360(8)
C1 C 0.4614(2) 0.24285(7) 1.05604(11)
C2 C 0.3585(2) 0.25594(7) 0.98652(11)
C3 C 0.4517(2) 0.28983(7) 0.94927(10)
C4 C 0.6136(2) 0.29671(7) 0.99755(10)
C5 C 0.7589(2) 0.32503(6) 0.98904(10)
C6 C 0.9058(2) 0.32468(7) 1.04429(10)
C7 C 1.0673(2) 0.35045(7) 1.04990(10)
C8 C 1.1648(2) 0.33497(7) 1.11818(10)
C9 C 1.0649(2) 0.30053(7) 1.15269(10)
C10 C 0.4156(3) 0.20753(7) 1.11487(11)
H1 H 0.4304 0.1713 1.1002
H2 H 0.2966 0.2134 1.1199
H3 H 0.4897 0.2146 1.1632
C11 C 0.1832(2) 0.23414(8) 0.96009(12)
H4 H 0.1243 0.2556 0.9178
H5 H 0.1169 0.2364 1.0017
C12 C 0.1866(3) 0.17751(8) 0.93415(13)
H6 H 0.2556 0.1748 0.8942
H7 H 0.0702 0.1659 0.9147
H8 H 0.2362 0.1556 0.9769
C13 C 0.3920(2) 0.31358(8) 0.87351(11)
H9 H 0.4052 0.3514 0.8770
H10 H 0.2717 0.3050 0.8565
H11 H 0.4598 0.2999 0.8374
C14 C 0.7597(2) 0.35457(7) 0.91750(10)
C15 C 0.8062(2) 0.32843(7) 0.85651(10)
H12 H 0.8369 0.2927 0.8614
C16 C 0.8084(2) 0.35384(7) 0.78847(10)
H13 H 0.8426 0.3362 0.7472
C17 C 0.7594(2) 0.40572(7) 0.78255(9)
C18 C 0.7101(2) 0.43264(7) 0.84198(10)
H14 H 0.6757 0.4680 0.8364
C19 C 0.7123(2) 0.40663(7) 0.90997(10)
H15 H 0.6811 0.4246 0.9516
C20 C 0.7348(2) 0.40744(7) 0.64272(10)
H16 H 0.7218 0.3713 0.6326
C21 C 0.7369(2) 0.44648(7) 0.59142(10)
C22 C 0.7253(2) 0.44399(7) 0.50821(10)
H17 H 0.8305 0.4586 0.4942
H18 H 0.6280 0.4654 0.4838
C23 C 0.7015(3) 0.38802(7) 0.47945(10)
H19 H 0.7949 0.3663 0.5067
H20 H 0.5929 0.3743 0.4912
C24 C 0.6994(3) 0.38310(8) 0.39499(11)
H21 H 0.8085 0.3963 0.3831
H22 H 0.6065 0.4049 0.3676
C25 C 0.6737(3) 0.32704(9) 0.36787(12)
H23 H 0.6778 0.3254 0.3138
H24 H 0.5627 0.3145 0.3767
H25 H 0.7641 0.3052 0.3956
C26 C 0.7746(3) 0.54380(7) 0.60731(11)
H26 H 0.6942 0.5664 0.6274
H27 H 0.7499 0.5446 0.5521
H28 H 0.8911 0.5561 0.6248
C27 C 1.1237(2) 0.38787(8) 0.99537(11)
H29 H 1.0989 0.3733 0.9443
H30 H 1.2465 0.3939 1.0094
H31 H 1.0627 0.4208 0.9967
C28 C 1.3395(2) 0.35334(8) 1.15316(11)
H32 H 1.3997 0.3663 1.1131
H33 H 1.4055 0.3238 1.1786
C29 C 1.3301(3) 0.39670(9) 1.21057(13)
H34 H 1.2654 0.4261 1.1854
H35 H 1.4455 0.4082 1.2321
H36 H 1.2732 0.3836 1.2510
C30 C 1.1119(3) 0.27361(8) 1.22718(11)
H37 H 1.2330 0.2793 1.2469
H38 H 1.0899 0.2363 1.2206
H39 H 1.0435 0.2877 1.2628
B1 B 0.7666(3) 0.25969(8) 1.12660(11)
S1 S 0.27023(5) 0.457147(17) 0.64038(3)
F3 F 0.36728(15) 0.37609(4) 0.72558(7)
F4 F 0.11489(16) 0.36890(5) 0.66042(8)
F5 F 0.15753(19) 0.41873(5) 0.75777(8)
O1 O 0.3386(2) 0.43225(6) 0.58010(8)
O2 O 0.3912(2) 0.48676(6) 0.69236(9)
O3 O 0.10638(19) 0.48123(6) 0.61846(10)
C31 C 0.2254(2) 0.40249(7) 0.69843(11)
C32 C 0.2464(3) 0.53434(8) 0.83980(12)
H40 H 0.2659 0.5138 0.7949
Cl1 Cl 0.20867(7) 0.599650(19) 0.81272(3)
Cl2 Cl 0.06968(7) 0.50825(2) 0.87348(3)
Cl3 Cl 0.42954(7) 0.52951(2) 0.91086(3)
loop_
_geom_bond_atom_site_label_1
_geom_bond_atom_site_label_2
_geom_bond_site_symmetry_1
_geom_bond_site_symmetry_2
F1 B1 1_555 1_555
F2 B1 1_555 1_555
N1 C1 1_555 1_555
N2 C6 1_555 1_555
N3 N4 1_555 1_555
N4 N5 1_555 1_555
N5 C21 1_555 1_555
C1 C2 1_555 1_555
C2 C3 1_555 1_555
C3 C4 1_555 1_555
C4 N1 1_555 1_555
C5 C4 1_555 1_555
C6 C5 1_555 1_555
C7 C6 1_555 1_555
C8 C7 1_555 1_555
C9 N2 1_555 1_555
C10 C1 1_555 1_555
H1 C10 1_555 1_555
H2 C10 1_555 1_555
H3 C10 1_555 1_555
C11 C2 1_555 1_555
H4 C11 1_555 1_555
H5 C11 1_555 1_555
C12 C11 1_555 1_555
H6 C12 1_555 1_555
H7 C12 1_555 1_555
H8 C12 1_555 1_555
C13 C3 1_555 1_555
H9 C13 1_555 1_555
H10 C13 1_555 1_555
H11 C13 1_555 1_555
C14 C5 1_555 1_555
C15 C14 1_555 1_555
H12 C15 1_555 1_555
C16 C15 1_555 1_555
H13 C16 1_555 1_555
C17 N3 1_555 1_555
C18 C17 1_555 1_555
H14 C18 1_555 1_555
C19 C14 1_555 1_555
H15 C19 1_555 1_555
C20 N3 1_555 1_555
H16 C20 1_555 1_555
C21 C20 1_555 1_555
C22 C21 1_555 1_555
H17 C22 1_555 1_555
H18 C22 1_555 1_555
C23 C22 1_555 1_555
H19 C23 1_555 1_555
H20 C23 1_555 1_555
C24 C23 1_555 1_555
H21 C24 1_555 1_555
H22 C24 1_555 1_555
C25 C24 1_555 1_555
H23 C25 1_555 1_555
H24 C25 1_555 1_555
H25 C25 1_555 1_555
C26 N5 1_555 1_555
H26 C26 1_555 1_555
H27 C26 1_555 1_555
H28 C26 1_555 1_555
C27 C7 1_555 1_555
H29 C27 1_555 1_555
H30 C27 1_555 1_555
H31 C27 1_555 1_555
C28 C8 1_555 1_555
H32 C28 1_555 1_555
H33 C28 1_555 1_555
C29 C28 1_555 1_555
H34 C29 1_555 1_555
H35 C29 1_555 1_555
H36 C29 1_555 1_555
C30 C9 1_555 1_555
H37 C30 1_555 1_555
H38 C30 1_555 1_555
H39 C30 1_555 1_555
B1 N1 1_555 1_555
S1 O1 1_555 1_555
F3 C31 1_555 1_555
F4 C31 1_555 1_555
F5 C31 1_555 1_555
O2 S1 1_555 1_555
O3 S1 1_555 1_555
C31 S1 1_555 1_555
C32 H40 1_555 1_555
Cl1 C32 1_555 1_555
Cl2 C32 1_555 1_555
Cl3 C32 1_555 1_555
N2 B1 1_555 1_555
C8 C9 1_555 1_555
C16 C17 1_555 1_555
C18 C19 1_555 1_555

#END
