
#######################################################################
#
#                 Cambridge Crystallographic Data Centre
#                                CCDC 
#
#######################################################################
#
# If this CIF has been generated from an entry in the Cambridge 
# Structural Database, then it will include bibliographic, chemical, 
# crystal, experimental, refinement or atomic coordinate data resulting 
# from the CCDC's data processing and validation procedures.
#
#######################################################################

data_RATWUH
_chemical_formula_moiety         'C4 H20 Mg1 O6 2+,2(C8 H5 N8 1-),2(C1 H4 O1)'
_chemical_name_systematic        
'diaqua-tetrakis(methanol)-magnesium bis(5-[4-(1H-tetrazol-5-yl)phenyl]tetrazol-1-ide) methanol solvate'
_symmetry_cell_setting           triclinic
_symmetry_space_group_name_H-M   'P -1'
_symmetry_Int_Tables_number      2
_space_group_name_Hall           '-P 1'
loop_
_symmetry_equiv_pos_site_id
_symmetry_equiv_pos_as_xyz
1 x,y,z
2 -x,-y,-z
_cell_length_a                   8.3004(18)
_cell_length_b                   8.4879(19)
_cell_length_c                   12.510(3)
_cell_angle_alpha                88.571(4)
_cell_angle_beta                 76.477(4)
_cell_angle_gamma                67.363(4)
_cell_volume                     788.834
_exptl_crystal_colour            yellow
_exptl_crystal_description       block
_cell_formula_units_Z            1
loop_
_atom_site_label
_atom_site_type_symbol
_atom_site_fract_x
_atom_site_fract_y
_atom_site_fract_z
Mg1 Mg 0.0000 1.0000 0.5000
O1 O 0.0515(3) 1.21779(19) 0.49521(15)
O2 O 0.2735(2) 0.8503(2) 0.43841(15)
O3 O 0.0265(2) 0.9730(2) 0.65884(14)
C1 C 0.0255(5) 1.0914(3) 0.7376(2)
H1 H 0.1486 1.0830 0.7309
H2 H -0.0229 1.0651 0.8120
H3 H -0.0500 1.2078 0.7243
C2 C 0.4158(4) 0.8220(4) 0.4910(3)
H4 H 0.3790 0.9144 0.5481
H5 H 0.5228 0.8199 0.4364
H6 H 0.4438 0.7122 0.5248
H7 H 0.125(3) 1.238(3) 0.4462(18)
H8 H -0.034(3) 1.314(3) 0.526(2)
H9 H 0.307(4) 0.769(3) 0.390(2)
H10 H 0.042(4) 0.875(3) 0.685(2)
O1A O -0.0515(3) 0.78221(19) 0.50479(15)
O2A O -0.2735(2) 1.1497(2) 0.56159(15)
O3A O -0.0265(2) 1.0270(2) 0.34116(14)
C1A C -0.0255(5) 0.9086(3) 0.2624(2)
H1A H -0.1486 0.9170 0.2691
H2A H 0.0229 0.9349 0.1880
H3A H 0.0500 0.7922 0.2757
C2A C -0.4158(4) 1.1780(4) 0.5090(3)
H4A H -0.3790 1.0856 0.4519
H5A H -0.5228 1.1801 0.5636
H6A H -0.4438 1.2878 0.4752
H7A H -0.125(3) 0.762(3) 0.5538(18)
H8A H 0.034(3) 0.686(3) 0.474(2)
H9A H -0.307(4) 1.231(3) 0.610(2)
H10A H -0.042(4) 1.125(3) 0.315(2)
N1 N 0.2764(3) 1.3370(2) 0.34525(16)
N2 N 0.8553(3) 0.5972(2) -0.07763(16)
N3 N 0.6894(3) 0.5066(2) 0.04513(17)
N4 N 0.4582(3) 1.4320(2) 0.22934(16)
N5 N 0.2420(3) 1.4978(2) 0.37853(16)
N6 N 0.7933(3) 0.3741(2) -0.03016(17)
N7 N 0.3506(3) 1.5545(2) 0.31020(16)
N8 N 0.8924(3) 0.4305(2) -0.10331(17)
C3 C 0.6498(3) 1.0863(3) 0.1093(2)
H11 H 0.7072 1.1647 0.0931
C4 C 0.6450(3) 0.8115(3) 0.07551(19)
C5 C 0.7281(3) 0.6423(3) 0.01564(19)
C6 C 0.4850(4) 0.8580(3) 0.1556(2)
H12 H 0.4272 0.7798 0.1713
C7 C 0.7261(3) 0.9283(3) 0.0518(2)
H13 H 0.8343 0.8991 -0.0042
C8 C 0.4910(3) 1.1324(3) 0.19014(19)
C9 C 0.4098(3) 1.2996(3) 0.25399(19)
C10 C 0.4085(4) 1.0165(3) 0.2128(2)
H14 H 0.2991 1.0465 0.2678
H15 H 0.620(3) 0.489(3) 0.0993(14)
O4 O 0.0913(3) 0.6831(2) 0.75514(15)
C11 C 0.1836(4) 0.5255(3) 0.6893(2)
H16 H 0.2690 0.5392 0.6247
H17 H 0.0964 0.4920 0.6652
H18 H 0.2488 0.4367 0.7328
H19 H 0.009(3) 0.675(4) 0.805(2)
loop_
_geom_bond_atom_site_label_1
_geom_bond_atom_site_label_2
_geom_bond_site_symmetry_1
_geom_bond_site_symmetry_2
Mg1 O1 1_555 1_555
O1 H7 1_555 1_555
O2 Mg1 1_555 1_555
O3 Mg1 1_555 1_555
C1 O3 1_555 1_555
H1 C1 1_555 1_555
H2 C1 1_555 1_555
H3 C1 1_555 1_555
C2 O2 1_555 1_555
H4 C2 1_555 1_555
H5 C2 1_555 1_555
H6 C2 1_555 1_555
H8 O1 1_555 1_555
H9 O2 1_555 1_555
H10 O3 1_555 1_555
N1 N5 1_555 1_555
N2 N8 1_555 1_555
N3 N6 1_555 1_555
N4 N7 1_555 1_555
N5 N7 1_555 1_555
N6 N8 1_555 1_555
C3 H11 1_555 1_555
C4 C5 1_555 1_555
C5 N2 1_555 1_555
C6 C4 1_555 1_555
H12 C6 1_555 1_555
C7 C3 1_555 1_555
H13 C7 1_555 1_555
C8 C3 1_555 1_555
C9 N1 1_555 1_555
C10 C6 1_555 1_555
H14 C10 1_555 1_555
H15 N3 1_555 1_555
O4 C11 1_555 1_555
C11 H16 1_555 1_555
H17 C11 1_555 1_555
H18 C11 1_555 1_555
H19 O4 1_555 1_555
O1A Mg1 1_555 1_555
O2A Mg1 1_555 1_555
O3A Mg1 1_555 1_555
C1A O3A 1_555 1_555
H1A C1A 1_555 1_555
H2A C1A 1_555 1_555
H3A C1A 1_555 1_555
C2A O2A 1_555 1_555
H4A C2A 1_555 1_555
H5A C2A 1_555 1_555
H6A C2A 1_555 1_555
H7A O1A 1_555 1_555
H8A O1A 1_555 1_555
H9A O2A 1_555 1_555
H10A O3A 1_555 1_555
N3 C5 1_555 1_555
N4 C9 1_555 1_555
C4 C7 1_555 1_555
C8 C9 1_555 1_555
C8 C10 1_555 1_555

#END
