
#######################################################################
#
#                 Cambridge Crystallographic Data Centre
#                                CCDC 
#
#######################################################################
#
# If this CIF has been generated from an entry in the Cambridge 
# Structural Database, then it will include bibliographic, chemical, 
# crystal, experimental, refinement or atomic coordinate data resulting 
# from the CCDC's data processing and validation procedures.
#
#######################################################################

data_RAVLIK01
_chemical_formula_moiety         'C16 H20 N2 2+,2(Cl1 O4 1-)'
_chemical_name_systematic        
"4,4'-(E)-ethene-1,2-diylbis(1-ethylpyridinium) diperchlorate"
_symmetry_cell_setting           monoclinic
_symmetry_space_group_name_H-M   'P 21'
_symmetry_Int_Tables_number      4
_space_group_name_Hall           'P 2yb'
loop_
_symmetry_equiv_pos_site_id
_symmetry_equiv_pos_as_xyz
1 x,y,z
2 -x,1/2+y,-z
_cell_length_a                   8.1710(6)
_cell_length_b                   11.6542(7)
_cell_length_c                   10.6396(8)
_cell_angle_alpha                90
_cell_angle_beta                 107.320(7)
_cell_angle_gamma                90
_cell_volume                     967.231
_exptl_crystal_colour            colorless
_exptl_crystal_description       prism
_cell_formula_units_Z            2
_exptl_crystal_recrystallization_method 'acetonitrile/ benzene'
loop_
_atom_site_label
_atom_site_type_symbol
_atom_site_fract_x
_atom_site_fract_y
_atom_site_fract_z
Cl1 Cl -0.08995(18) 1.39366(12) 0.16404(13)
O1 O -0.0173(5) 1.3202(4) 0.0863(4)
O2 O 0.0223(5) 1.4015(5) 0.2951(4)
O3 O -0.1104(7) 1.5061(4) 0.1067(5)
O4 O -0.2515(5) 1.3502(5) 0.1674(4)
Cl2 Cl 0.59925(19) 0.72190(12) 0.33259(13)
O5 O 0.4766(6) 0.6604(4) 0.3798(4)
O6 O 0.6816(6) 0.6419(4) 0.2660(4)
O7 O 0.7292(6) 0.7690(4) 0.4432(4)
O8 O 0.5179(6) 0.8109(4) 0.2439(4)
N1 N 0.1112(6) 0.7232(5) 0.4455(5)
N2 N 0.3831(6) 1.3970(5) 0.0814(4)
C1 C 0.0759(7) 0.7198(6) 0.3134(6)
H1 H 0.0243 0.6532 0.2666
C2 C 0.1137(7) 0.8116(6) 0.2454(6)
H2 H 0.0856 0.8085 0.1522
C3 C 0.1922(7) 0.9084(6) 0.3117(5)
C4 C 0.2320(8) 0.9099(6) 0.4500(6)
H3 H 0.2876 0.9743 0.4991
C5 C 0.1890(8) 0.8164(6) 0.5130(6)
H4 H 0.2148 0.8175 0.6061
C6 C 0.3964(7) 1.4045(6) 0.2101(5)
H5 H 0.4228 1.4763 0.2538
C7 C 0.3721(7) 1.3095(5) 0.2793(6)
H6 H 0.3856 1.3154 0.3709
C8 C 0.3280(7) 1.2054(6) 0.2158(6)
C9 C 0.3174(8) 1.1990(5) 0.0818(6)
H7 H 0.2910 1.1284 0.0355
C10 C 0.3457(8) 1.2964(6) 0.0188(6)
H8 H 0.3387 1.2923 -0.0719
C11 C 0.2311(8) 1.0052(6) 0.2373(6)
H9 H 0.2115 0.9950 0.1454
C12 C 0.2920(8) 1.1066(6) 0.2890(6)
H10 H 0.3139 1.1156 0.3813
C13 C 0.0735(8) 0.6243(6) 0.5182(6)
H11 H -0.0107 0.5739 0.4566
H12 H 0.0213 0.6518 0.5856
C14 C 0.2345(9) 0.5556(7) 0.5851(7)
H13 H 0.2049 0.4915 0.6339
H14 H 0.3181 0.6053 0.6462
H15 H 0.2840 0.5257 0.5184
C15 C 0.4093(8) 1.5002(6) 0.0088(6)
H16 H 0.4458 1.4768 -0.0682
H17 H 0.5012 1.5481 0.0667
C16 C 0.2458(11) 1.5689(8) -0.0368(9)
H18 H 0.2681 1.6409 -0.0764
H19 H 0.2041 1.5858 0.0385
H20 H 0.1590 1.5246 -0.1024
loop_
_geom_bond_atom_site_label_1
_geom_bond_atom_site_label_2
_geom_bond_site_symmetry_1
_geom_bond_site_symmetry_2
Cl1 O1 1_555 1_555
O2 Cl1 1_555 1_555
O3 Cl1 1_555 1_555
O4 Cl1 1_555 1_555
Cl2 O5 1_555 1_555
O6 Cl2 1_555 1_555
O7 Cl2 1_555 1_555
O8 Cl2 1_555 1_555
N1 C1 1_555 1_555
N2 C6 1_555 1_555
C1 H1 1_555 1_555
C2 C1 1_555 1_555
H2 C2 1_555 1_555
C3 C2 1_555 1_555
C4 C3 1_555 1_555
H3 C4 1_555 1_555
C5 N1 1_555 1_555
H4 C5 1_555 1_555
C6 H5 1_555 1_555
C7 C6 1_555 1_555
H6 C7 1_555 1_555
C8 C7 1_555 1_555
C9 C8 1_555 1_555
H7 C9 1_555 1_555
C10 N2 1_555 1_555
H8 C10 1_555 1_555
C11 C3 1_555 1_555
H9 C11 1_555 1_555
C12 C8 1_555 1_555
H10 C12 1_555 1_555
C13 N1 1_555 1_555
H11 C13 1_555 1_555
H12 C13 1_555 1_555
C14 C13 1_555 1_555
H13 C14 1_555 1_555
H14 C14 1_555 1_555
H15 C14 1_555 1_555
C15 N2 1_555 1_555
H16 C15 1_555 1_555
H17 C15 1_555 1_555
C16 C15 1_555 1_555
H18 C16 1_555 1_555
H19 C16 1_555 1_555
H20 C16 1_555 1_555
C4 C5 1_555 1_555
C9 C10 1_555 1_555
C11 C12 1_555 1_555

#END
