
#######################################################################
#
#                 Cambridge Crystallographic Data Centre
#                                CCDC 
#
#######################################################################
#
# If this CIF has been generated from an entry in the Cambridge 
# Structural Database, then it will include bibliographic, chemical, 
# crystal, experimental, refinement or atomic coordinate data resulting 
# from the CCDC's data processing and validation procedures.
#
#######################################################################

data_RAVLOQ
_chemical_formula_moiety         'C14 H18 N2 2+,2(Cl1 O4 1-)'
_chemical_name_systematic        
'1-Ethyl-4-(1-ethylpyridinium-4-yl)pyridinium diperchlorate'
_symmetry_cell_setting           monoclinic
_symmetry_space_group_name_H-M   'P 21/c'
_symmetry_Int_Tables_number      14
_space_group_name_Hall           '-P 2ybc'
loop_
_symmetry_equiv_pos_site_id
_symmetry_equiv_pos_as_xyz
1 x,y,z
2 -x,1/2+y,1/2-z
3 -x,-y,-z
4 x,1/2-y,1/2+z
_cell_length_a                   12.6135(4)
_cell_length_b                   14.2532(4)
_cell_length_c                   9.7307(3)
_cell_angle_alpha                90
_cell_angle_beta                 101.388(1)
_cell_angle_gamma                90
_cell_volume                     1714.97
_exptl_crystal_colour            colorless
_exptl_crystal_description       block
_chemical_melting_point          '277-280deg. C'
_cell_formula_units_Z            4
_chemical_properties_physical    air-sensitive
_exptl_crystal_recrystallization_method acetonitrile
loop_
_atom_site_label
_atom_site_type_symbol
_atom_site_fract_x
_atom_site_fract_y
_atom_site_fract_z
Cl1 Cl 0.85840(6) -0.15742(5) 1.24441(7)
O1 O 0.8831(2) -0.23893(18) 1.1718(3)
O2 O 0.8941(4) -0.1749(4) 1.3919(5)
O3 O 0.7451(4) -0.1401(4) 1.2124(6)
O4 O 0.9184(4) -0.0765(3) 1.2102(5)
Cl2 Cl 0.62432(6) 0.15636(5) 0.77135(9)
O8 O 0.5807(3) 0.2385(2) 0.8228(3)
O9 O 0.6996(8) 0.1722(6) 0.6926(10)
O10 O 0.6728(7) 0.1087(6) 0.9108(9)
O11 O 0.5473(8) 0.0861(8) 0.7078(13)
N1 N 0.6858(2) -0.13227(18) 1.7716(3)
N2 N 0.8355(2) 0.14250(17) 1.2436(3)
C1 C 0.6275(3) -0.1346(2) 1.6409(3)
H1 H 0.5646 -0.1728 1.6206
C2 C 0.6572(3) -0.0826(2) 1.5353(3)
H2 H 0.6159 -0.0861 1.4425
C3 C 0.7482(2) -0.02488(18) 1.5649(3)
C4 C 0.8078(2) -0.0250(2) 1.7009(3)
H3 H 0.8712 0.0124 1.7242
C5 C 0.7753(2) -0.0792(2) 1.8022(3)
H4 H 0.8168 -0.0790 1.8950
C6 C 0.6473(3) -0.1842(2) 1.8851(3)
H5 H 0.7099 -0.2025 1.9587
H6 H 0.6093 -0.2421 1.8465
C7 C 0.5716(3) -0.1230(3) 1.9478(4)
H7 H 0.5417 -0.1592 2.0169
H8 H 0.5126 -0.1013 1.8735
H9 H 0.6113 -0.0688 1.9937
C8 C 0.7358(3) 0.1063(2) 1.2265(4)
H10 H 0.6852 0.1181 1.1421
C9 C 0.7056(2) 0.0523(2) 1.3298(4)
H11 H 0.6346 0.0270 1.3160
C10 C 0.7780(2) 0.03486(18) 1.4533(3)
C11 C 0.8809(3) 0.0749(2) 1.4697(3)
H12 H 0.9323 0.0653 1.5541
C12 C 0.9081(3) 0.1284(2) 1.3639(3)
H13 H 0.9782 0.1554 1.3755
C13 C 0.8695(3) 0.1960(2) 1.1278(3)
H14 H 0.9162 0.2492 1.1673
H15 H 0.8048 0.2218 1.0645
C14 C 0.9303(3) 0.1331(3) 1.0459(4)
H16 H 0.9578 0.1703 0.9757
H17 H 0.8817 0.0842 0.9988
H18 H 0.9911 0.1038 1.1098
O5? O 0.9093(9) -0.1517(7) 1.3876(11)
O6? O 0.7396(6) -0.1588(5) 1.2439(8)
O7? O 0.8791(7) -0.0773(5) 1.1670(9)
O12? O 0.5705(8) 0.0688(7) 0.7800(12)
O13? O 0.5995(9) 0.1767(8) 0.6121(11)
O14? O 0.7350(9) 0.1569(7) 0.8030(12)
O15? O 0.6462(9) 0.0873(7) 0.8828(11)
O16? O 0.5549(9) 0.1244(8) 0.6588(11)
O17? O 0.7339(5) 0.1746(4) 0.7378(8)
loop_
_geom_bond_atom_site_label_1
_geom_bond_atom_site_label_2
_geom_bond_site_symmetry_1
_geom_bond_site_symmetry_2
Cl1 O1 1_555 1_555
O2 Cl1 1_555 1_555
O3 Cl1 1_555 1_555
O4 Cl1 1_555 1_555
Cl2 O8 1_555 1_555
O9 Cl2 1_555 1_555
O10 Cl2 1_555 1_555
O11 Cl2 1_555 1_555
N1 C1 1_555 1_555
N2 C8 1_555 1_555
C1 H1 1_555 1_555
C2 C1 1_555 1_555
H2 C2 1_555 1_555
C3 C2 1_555 1_555
C4 C3 1_555 1_555
H3 C4 1_555 1_555
C5 N1 1_555 1_555
H4 C5 1_555 1_555
C6 N1 1_555 1_555
H5 C6 1_555 1_555
H6 C6 1_555 1_555
C7 C6 1_555 1_555
H7 C7 1_555 1_555
H8 C7 1_555 1_555
H9 C7 1_555 1_555
C8 H10 1_555 1_555
C9 C8 1_555 1_555
H11 C9 1_555 1_555
C10 C3 1_555 1_555
C11 C10 1_555 1_555
H12 C11 1_555 1_555
C12 N2 1_555 1_555
H13 C12 1_555 1_555
C13 N2 1_555 1_555
H14 C13 1_555 1_555
H15 C13 1_555 1_555
C14 C13 1_555 1_555
H16 C14 1_555 1_555
H17 C14 1_555 1_555
H18 C14 1_555 1_555
C4 C5 1_555 1_555
C9 C10 1_555 1_555
C11 C12 1_555 1_555

#END
