
#######################################################################
#
#                 Cambridge Crystallographic Data Centre
#                                CCDC 
#
#######################################################################
#
# If this CIF has been generated from an entry in the Cambridge 
# Structural Database, then it will include bibliographic, chemical, 
# crystal, experimental, refinement or atomic coordinate data resulting 
# from the CCDC's data processing and validation procedures.
#
#######################################################################

data_RAVMOT
_chemical_formula_moiety         'C6 H12 N10 2+,2(Cl1 O4 1-)'
_chemical_name_systematic        
"3,3'-(ethene-1,2-diyl)bis(4,5-diamino-4H-1,2,4-triazol-1-ium) diperchlorate"
_symmetry_cell_setting           tetragonal
_symmetry_space_group_name_H-M   'I 41/a c d'
_symmetry_Int_Tables_number      142
_space_group_name_Hall           '-I 4bd 2c'
loop_
_symmetry_equiv_pos_site_id
_symmetry_equiv_pos_as_xyz
1 x,y,z
2 1/4-y,3/4+x,1/4+z
3 -x,1/2-y,z
4 1/4+y,1/4-x,3/4+z
5 x,-y,1/2-z
6 1/2-x,y,-z
7 3/4+y,1/4+x,1/4-z
8 1/4-y,1/4-x,1/4-z
9 1/2+x,1/2+y,1/2+z
10 3/4-y,1/4+x,3/4+z
11 1/2-x,-y,1/2+z
12 3/4+y,3/4-x,1/4+z
13 1/2+x,1/2-y,-z
14 -x,1/2+y,1/2-z
15 1/4+y,3/4+x,3/4-z
16 3/4-y,3/4-x,3/4-z
17 -x,-y,-z
18 3/4+y,1/4-x,3/4-z
19 x,1/2+y,-z
20 3/4-y,3/4+x,1/4-z
21 -x,y,1/2+z
22 1/2+x,-y,z
23 1/4-y,3/4-x,3/4+z
24 3/4+y,3/4+x,3/4+z
25 1/2-x,1/2-y,1/2-z
26 1/4+y,3/4-x,1/4-z
27 1/2+x,y,1/2-z
28 1/4-y,1/4+x,3/4-z
29 1/2-x,1/2+y,z
30 x,1/2-y,1/2+z
31 3/4-y,1/4-x,1/4+z
32 1/4+y,1/4+x,1/4+z
_cell_length_a                   12.2856(7)
_cell_length_b                   12.2856(7)
_cell_length_c                   40.490(4)
_cell_angle_alpha                90
_cell_angle_beta                 90
_cell_angle_gamma                90
_cell_volume                     6111.4
_exptl_crystal_colour            colorless
_exptl_crystal_description       block
_cell_formula_units_Z            16
loop_
_atom_site_label
_atom_site_type_symbol
_atom_site_fract_x
_atom_site_fract_y
_atom_site_fract_z
N1 N -0.12818(10) 0.70822(10) 0.08843(3)
H1 H -0.0824(18) 0.6654(18) 0.0940(5)
N2 N -0.18611(10) 0.76460(10) 0.11232(3)
N3 N -0.24937(10) 0.79883(10) 0.06229(3)
N4 N -0.31164(10) 0.83496(10) 0.03549(3)
H2 H -0.2942(16) 0.9037(17) 0.0310(5)
H3 H -0.3812(19) 0.8268(17) 0.0405(5)
N5 N -0.13132(12) 0.69309(12) 0.02927(3)
H4 H -0.1545(18) 0.7225(18) 0.0121(5)
H5 H -0.0864(19) 0.6451(19) 0.0289(6)
C1 C -0.16618(11) 0.72847(11) 0.05814(3)
C2 C -0.25878(12) 0.81989(11) 0.09588(3)
C3 C -0.33911(12) 0.89544(12) 0.10888(3)
H6 H -0.3794(17) 0.9371(17) 0.0932(5)
N1F N -0.54178(10) 1.12182(10) 0.16157(3)
H1F H -0.5846(18) 1.1676(18) 0.1560(5)
N2F N -0.48540(10) 1.06389(10) 0.13768(3)
N3F N -0.45117(10) 1.00063(10) 0.18771(3)
N4F N -0.41504(10) 0.93836(10) 0.21451(3)
H2F H -0.3463(17) 0.9558(16) 0.2190(5)
H3F H -0.4232(17) 0.8688(19) 0.2095(5)
N5F N -0.55691(12) 1.11868(12) 0.22073(3)
H4F H -0.5275(18) 1.0955(18) 0.2379(5)
H5F H -0.6049(19) 1.1636(19) 0.2211(6)
C1F C -0.52153(11) 1.08382(11) 0.19186(3)
C2F C -0.43011(11) 0.99122(12) 0.15412(3)
C3F C -0.35456(12) 0.91089(12) 0.14112(3)
H6F H -0.3129(17) 0.8706(17) 0.1568(5)
Cl1 Cl 0.09442(3) 0.46682(3) 0.04750(2)
O1 O 0.01164(11) 0.53892(10) 0.06025(3)
O2 O 0.12943(13) 0.50754(13) 0.01602(3)
O3 O 0.04920(10) 0.35946(10) 0.04353(4)
O4 O 0.18461(11) 0.46301(11) 0.06991(4)
loop_
_geom_bond_atom_site_label_1
_geom_bond_atom_site_label_2
_geom_bond_site_symmetry_1
_geom_bond_site_symmetry_2
N1 H1 1_555 1_555
N2 N1 1_555 1_555
N3 N4 1_555 1_555
N4 H2 1_555 1_555
H3 N4 1_555 1_555
N5 H4 1_555 1_555
H5 N5 1_555 1_555
C1 N1 1_555 1_555
C2 N2 1_555 1_555
C3 C2 1_555 1_555
H6 C3 1_555 1_555
Cl1 O1 1_555 1_555
O2 Cl1 1_555 1_555
O3 Cl1 1_555 1_555
O4 Cl1 1_555 1_555
N1F H1F 1_555 1_555
N2F N1F 1_555 1_555
N3F N4F 1_555 1_555
N4F H2F 1_555 1_555
H3F N4F 1_555 1_555
N5F H4F 1_555 1_555
H5F N5F 1_555 1_555
C1F N1F 1_555 1_555
C2F N2F 1_555 1_555
C3F C3 1_555 1_555
H6F C3F 1_555 1_555
N3 C1 1_555 1_555
N3 C2 1_555 1_555
N5 C1 1_555 1_555
N3F C1F 1_555 1_555
N3F C2F 1_555 1_555
N5F C1F 1_555 1_555
C2F C3F 1_555 1_555

#END
