
#######################################################################
#
#                 Cambridge Crystallographic Data Centre
#                                CCDC 
#
#######################################################################
#
# If this CIF has been generated from an entry in the Cambridge 
# Structural Database, then it will include bibliographic, chemical, 
# crystal, experimental, refinement or atomic coordinate data resulting 
# from the CCDC's data processing and validation procedures.
#
#######################################################################

data_RAVQEL
_chemical_name_common            '4-Phthalimidomethyl phthalonitrile'
_chemical_formula_moiety         'C17 H9 N3 O2'
_chemical_name_systematic        
4-(4-(1,3-Dioxo-2,3-dihydro-1H-isoindol-2-yl)methyl)phthalonitrile
_symmetry_cell_setting           monoclinic
_symmetry_space_group_name_H-M   'P 21/c'
_symmetry_Int_Tables_number      14
_space_group_name_Hall           '-P 2ybc'
loop_
_symmetry_equiv_pos_site_id
_symmetry_equiv_pos_as_xyz
1 x,y,z
2 -x,1/2+y,1/2-z
3 -x,-y,-z
4 x,1/2-y,1/2+z
_cell_length_a                   4.9331(3)
_cell_length_b                   26.2490(13)
_cell_length_c                   10.4901(6)
_cell_angle_alpha                90
_cell_angle_beta                 93.0930(13)
_cell_angle_gamma                90
_cell_volume                     1356.37
_exptl_crystal_colour            colorless
_exptl_crystal_description       needle
_chemical_melting_point          '550-551 K'
_cell_formula_units_Z            4
_exptl_crystal_recrystallization_method THF/dichloromethane
loop_
_atom_site_label
_atom_site_type_symbol
_atom_site_fract_x
_atom_site_fract_y
_atom_site_fract_z
O1 O 0.2424(4) 0.45468(6) 0.53538(16)
N1 N 0.6074(4) 0.43376(6) 0.67135(16)
O2 O 0.9408(3) 0.43535(6) 0.83339(16)
N2 N -0.0776(5) 0.31120(8) 1.0056(2)
N3 N 0.1309(5) 0.17509(8) 0.8964(2)
H1 H 0.538(5) 0.6111(9) 0.953(2)
H2 H 0.093(5) 0.5598(8) 0.641(2)
H3 H 0.808(5) 0.5375(8) 0.950(2)
H4 H 0.187(5) 0.6222(10) 0.795(2)
H5 H 0.871(5) 0.3810(8) 0.612(2)
H6 H 0.583(5) 0.3847(9) 0.525(3)
H7 H 0.582(4) 0.2153(9) 0.675(2)
H8 H 0.771(5) 0.2870(8) 0.580(2)
H9 H 0.317(4) 0.3757(8) 0.7989(19)
C1 C 0.3429(5) 0.25312(8) 0.7931(2)
C2 C 0.2638(4) 0.30184(7) 0.83024(19)
C3 C 0.3708(5) 0.34450(8) 0.7736(2)
C4 C 0.5586(4) 0.33982(7) 0.6807(2)
C5 C 0.6381(5) 0.29126(9) 0.6455(2)
C6 C 0.5322(5) 0.24848(9) 0.7004(2)
C7 C 0.2260(5) 0.20910(9) 0.8501(2)
C8 C 0.0730(5) 0.30722(8) 0.9279(2)
C9 C 0.6713(6) 0.38532(8) 0.6138(2)
C10 C 0.4034(4) 0.51094(7) 0.70815(19)
C11 C 0.6141(4) 0.50473(7) 0.80021(19)
C12 C 0.6674(5) 0.54112(9) 0.8928(2)
C13 C 0.5050(6) 0.58403(9) 0.8901(3)
C14 C 0.2955(5) 0.59030(9) 0.7978(3)
C15 C 0.2404(5) 0.55369(8) 0.7046(2)
C16 C 0.3947(5) 0.46518(8) 0.6249(2)
C17 C 0.7488(5) 0.45506(8) 0.7767(2)
loop_
_geom_bond_atom_site_label_1
_geom_bond_atom_site_label_2
_geom_bond_site_symmetry_1
_geom_bond_site_symmetry_2
O1 C16 1_555 1_555
N1 C9 1_555 1_555
O2 C17 1_555 1_555
N2 C8 1_555 1_555
N3 C7 1_555 1_555
H1 C13 1_555 1_555
H2 C15 1_555 1_555
H3 C12 1_555 1_555
H4 C14 1_555 1_555
H5 C9 1_555 1_555
H6 C9 1_555 1_555
H7 C6 1_555 1_555
H8 C5 1_555 1_555
H9 C3 1_555 1_555
C1 C2 1_555 1_555
C2 C3 1_555 1_555
C3 C4 1_555 1_555
C4 C5 1_555 1_555
C5 C6 1_555 1_555
C6 C1 1_555 1_555
C7 C1 1_555 1_555
C8 C2 1_555 1_555
C9 C4 1_555 1_555
C10 C11 1_555 1_555
C11 C12 1_555 1_555
C12 C13 1_555 1_555
C13 C14 1_555 1_555
C14 C15 1_555 1_555
C15 C10 1_555 1_555
C16 N1 1_555 1_555
C17 N1 1_555 1_555
C10 C16 1_555 1_555
C11 C17 1_555 1_555

#END
