
#######################################################################
#
#                 Cambridge Crystallographic Data Centre
#                                CCDC 
#
#######################################################################
#
# If this CIF has been generated from an entry in the Cambridge 
# Structural Database, then it will include bibliographic, chemical, 
# crystal, experimental, refinement or atomic coordinate data resulting 
# from the CCDC's data processing and validation procedures.
#
#######################################################################

data_RAVYOE
_chemical_formula_moiety         
'2(H3 O1 1+),C54 H68 N16 O24 S4,2(C2 F3 O2 1-),5(C2 H1 F3 O2),6.62(H2 O1)'
_chemical_name_systematic        
"bis(Oxonium) 3,3',3'',3'''-((19b,19c,25b,25c-tetramethyl-6,8,10,12,19,21,23,25-octaoxo-5a,6a,7a,8a,9a,10a,11a,12a,18a,19a,20a,21a,22a,23a,24a,25a-hexadecaazabenzo[5,6]cyclohepta[1,2,3-cd]benzo[5'''''',6'''''']cyclohepta[1'''''',2'''''',3'''''':3''''',4''''']pentaleno[1''''',6''''':5'''',6'''',7'''']cycloocta[1'''',2'''',3'''':3''',4''']pentaleno[1''',6''':5'',6'',7'']cycloocta[1'',2'',3'':3',4']pentaleno[1',6':5,6,7]cycloocta[1,2,3-gh]pentalene-1,4,14,17-tetrayl)tetrakis(oxy))tetrapropane-1-sulfonic acid acyclic cucurbit[6]uril bis(trifluoroacetate) trifluoroacetic acid solvate hydrate"
_symmetry_cell_setting           monoclinic
_symmetry_space_group_name_H-M   'P 21/c'
_symmetry_Int_Tables_number      14
_space_group_name_Hall           '-P 2ybc'
loop_
_symmetry_equiv_pos_site_id
_symmetry_equiv_pos_as_xyz
1 x,y,z
2 -x,1/2+y,1/2-z
3 -x,-y,-z
4 x,1/2-y,1/2+z
_cell_length_a                   18.9372(19)
_cell_length_b                   27.548(3)
_cell_length_c                   18.7708(18)
_cell_angle_alpha                90
_cell_angle_beta                 100.644(1)
_cell_angle_gamma                90
_cell_volume                     9623.9
_exptl_crystal_colour            colorless
_exptl_crystal_description       prism
_cell_formula_units_Z            4
loop_
_atom_site_label
_atom_site_type_symbol
_atom_site_fract_x
_atom_site_fract_y
_atom_site_fract_z
C1 C 0.6913(2) 0.31859(14) 0.6773(2)
C2 C 0.7209(2) 0.29708(13) 0.6225(2)
H1 H 0.6905 0.2841 0.5809
C3 C 0.7949(2) 0.29458(13) 0.6287(2)
H2 H 0.8147 0.2797 0.5912
C4 C 0.8403(2) 0.31339(13) 0.6883(2)
C5 C 0.7366(2) 0.33780(13) 0.73827(19)
C6 C 0.8104(2) 0.33590(13) 0.74398(19)
C7 C 0.7031(2) 0.36211(13) 0.7972(2)
H3 H 0.6504 0.3576 0.7858
H4 H 0.7212 0.3459 0.8441
C8 C 0.8596(2) 0.35963(13) 0.8070(2)
H5 H 0.8523 0.3441 0.8527
H6 H 0.9101 0.3541 0.8020
N1 N 0.71888(17) 0.41404(11) 0.80483(16)
C9 C 0.7878(2) 0.43235(13) 0.84150(19)
C10 C 0.7986(2) 0.42394(14) 0.9234(2)
H7 H 0.7599 0.4400 0.9427
H8 H 0.8450 0.4374 0.9467
H9 H 0.7976 0.3890 0.9332
N2 N 0.84698(17) 0.41212(11) 0.81124(16)
C11 C 0.6804(2) 0.44729(14) 0.7598(2)
O1 O 0.62220(14) 0.44004(10) 0.72027(14)
C12 C 0.8736(2) 0.44383(13) 0.7677(2)
O2 O 0.91839(14) 0.43440(9) 0.72962(14)
N3 N 0.71577(17) 0.49073(11) 0.76903(17)
C13 C 0.7862(2) 0.48735(13) 0.81613(19)
C14 C 0.7959(2) 0.52491(14) 0.8767(2)
H10 H 0.7933 0.5576 0.8558
H11 H 0.8427 0.5203 0.9083
H12 H 0.7577 0.5210 0.9052
N4 N 0.84512(16) 0.48866(11) 0.77569(16)
C15 C 0.6813(2) 0.53512(14) 0.7398(2)
H13 H 0.6942 0.5613 0.7759
H14 H 0.6286 0.5306 0.7323
C16 C 0.8718(2) 0.53108(13) 0.7435(2)
H15 H 0.9218 0.5247 0.7373
H16 H 0.8729 0.5588 0.7773
N5 N 0.70063(16) 0.55048(11) 0.67138(17)
C17 C 0.7667(2) 0.57549(13) 0.66665(19)
H17 H 0.7750 0.6037 0.7006
N6 N 0.82929(16) 0.54472(11) 0.67357(16)
C18 C 0.6517(2) 0.55329(14) 0.6086(2)
O3 O 0.58875(14) 0.53943(10) 0.60042(15)
C19 C 0.85772(19) 0.54379(13) 0.61184(19)
O4 O 0.91516(14) 0.52509(10) 0.60522(14)
N7 N 0.68336(17) 0.57473(12) 0.55724(17)
C20 C 0.7546(2) 0.59214(13) 0.58603(19)
H18 H 0.7580 0.6282 0.5818
N8 N 0.81211(16) 0.56782(11) 0.55892(16)
C21 C 0.6465(2) 0.58462(15) 0.4836(2)
H19 H 0.5941 0.5818 0.4814
H20 H 0.6569 0.6184 0.4707
C22 C 0.8322(2) 0.58042(13) 0.49006(19)
H21 H 0.8212 0.6151 0.4797
H22 H 0.8848 0.5761 0.4943
N9 N 0.79599(16) 0.55167(11) 0.43012(16)
C23 C 0.72438(19) 0.56341(13) 0.39203(19)
H23 H 0.7210 0.5977 0.3742
N10 N 0.66782(17) 0.55186(12) 0.43094(17)
C24 C 0.8277(2) 0.51602(13) 0.3972(2)
O5 O 0.88992(14) 0.50137(9) 0.41538(14)
C25 C 0.6219(2) 0.51672(14) 0.3977(2)
O6 O 0.56637(15) 0.50341(11) 0.41497(17)
N11 N 0.77895(17) 0.49886(11) 0.34016(17)
C26 C 0.7123(2) 0.52637(13) 0.3285(2)
H24 H 0.7038 0.5431 0.2804
N12 N 0.65029(17) 0.49966(12) 0.33941(19)
C27 C 0.8010(2) 0.46944(13) 0.2839(2)
H25 H 0.7888 0.4869 0.2371
H26 H 0.8539 0.4655 0.2951
C28 C 0.6081(2) 0.46893(15) 0.2845(3)
H27 H 0.5599 0.4642 0.2968
H28 H 0.6016 0.4859 0.2372
N13 N 0.76786(17) 0.42178(11) 0.27606(18)
C29 C 0.6957(2) 0.41174(14) 0.2351(2)
C30 C 0.6821(3) 0.43672(16) 0.1617(2)
H29 H 0.6360 0.4259 0.1337
H30 H 0.7207 0.4284 0.1355
H31 H 0.6810 0.4720 0.1686
N14 N 0.63987(18) 0.42178(12) 0.2772(2)
C31 C 0.8083(2) 0.38051(14) 0.29348(19)
O7 O 0.87023(14) 0.37917(10) 0.32706(14)
C32 C 0.6159(2) 0.38117(15) 0.3062(2)
O8 O 0.57095(16) 0.37941(11) 0.34603(18)
N15 N 0.76881(17) 0.34172(11) 0.26385(17)
C33 C 0.6955(2) 0.35436(14) 0.2329(2)
C34 C 0.6712(2) 0.33192(15) 0.1585(2)
H32 H 0.6734 0.2965 0.1626
H33 H 0.7027 0.3429 0.1258
H34 H 0.6217 0.3419 0.1392
N16 N 0.64720(19) 0.34202(12) 0.2818(2)
C35 C 0.7906(2) 0.29154(13) 0.2801(2)
H35 H 0.8436 0.2896 0.2858
H36 H 0.7699 0.2712 0.2379
C36 C 0.6368(2) 0.29233(14) 0.3055(2)
H37 H 0.6288 0.2710 0.2623
H38 H 0.5926 0.2914 0.3266
C37 C 0.7687(2) 0.26991(13) 0.3475(2)
C38 C 0.6979(2) 0.27166(14) 0.3602(2)
C39 C 0.6826(2) 0.25060(15) 0.4244(2)
C40 C 0.7350(2) 0.22639(15) 0.4709(2)
H39 H 0.7234 0.2113 0.5128
C41 C 0.8040(2) 0.22350(14) 0.4583(2)
H40 H 0.8397 0.2064 0.4910
C42 C 0.8215(2) 0.24580(13) 0.3972(2)
O9 O 0.61936(15) 0.32307(11) 0.67592(16)
C43 C 0.5690(2) 0.30685(16) 0.6148(2)
H41 H 0.5684 0.2709 0.6126
H42 H 0.5817 0.3196 0.5695
C44 C 0.4967(2) 0.32583(18) 0.6243(2)
H43 H 0.4589 0.3118 0.5864
H44 H 0.4956 0.3616 0.6184
C45 C 0.4812(2) 0.31296(16) 0.6987(2)
H45 H 0.5210 0.3251 0.7363
H46 H 0.4797 0.2772 0.7032
S1 S 0.39954(6) 0.33752(5) 0.71456(6)
O10 O 0.34192(18) 0.31300(16) 0.6668(2)
O11 O 0.4009(2) 0.38899(13) 0.6992(2)
O12 O 0.39840(18) 0.32736(12) 0.79075(17)
O13 O 0.91335(14) 0.31226(10) 0.69856(15)
C46 C 0.9460(2) 0.29663(15) 0.6389(2)
H47 H 0.9287 0.3168 0.5955
H48 H 0.9338 0.2623 0.6268
C47 C 1.0258(2) 0.30239(15) 0.6627(2)
H49 H 1.0503 0.2915 0.6232
H50 H 1.0423 0.2814 0.7054
C48 C 1.0468(2) 0.35492(15) 0.6822(2)
H51 H 1.0250 0.3651 0.7239
H52 H 1.0274 0.3762 0.6407
S2 S 1.14100(5) 0.36270(4) 0.70463(6)
O14 O 1.15322(17) 0.41339(11) 0.72610(17)
O15 O 1.16777(16) 0.32929(12) 0.76447(16)
O16 O 1.17058(16) 0.35083(11) 0.64062(16)
O17 O 0.61525(17) 0.25748(12) 0.44258(19)
C49 C 0.5658(3) 0.21767(18) 0.4240(3)
H53 H 0.5829 0.1890 0.4540
H54 H 0.5629 0.2088 0.3724
C50 C 0.4924(3) 0.23281(19) 0.4371(3)
H55 H 0.4952 0.2398 0.4893
H56 H 0.4581 0.2057 0.4239
C51 C 0.4648(3) 0.27765(19) 0.3928(3)
H57 H 0.4684 0.2717 0.3416
H58 H 0.4968 0.3053 0.4102
S3 S 0.37537(7) 0.29454(5) 0.39637(8)
O18 O 0.32881(19) 0.25497(15) 0.3641(2)
O19 O 0.3621(2) 0.33975(14) 0.3551(2)
O20 O 0.3701(2) 0.30098(15) 0.4723(2)
O21 O 0.8872(3) 0.2430(4) 0.3807(6)
C52 C 0.9476(4) 0.2301(4) 0.4350(5)
H59 H 0.9458 0.1951 0.4469
H60 H 0.9477 0.2491 0.4798
C53 C 1.0139(3) 0.24116(19) 0.4041(3)
H61 H 1.0161 0.2190 0.3631
H62 H 1.0572 0.2355 0.4417
C54 C 1.0136(3) 0.29363(18) 0.3779(3)
H63 H 0.9961 0.3148 0.4136
H64 H 0.9793 0.2965 0.3314
S4 S 1.09776(8) 0.31456(4) 0.36556(8)
O22 O 1.1441(2) 0.31666(14) 0.4360(2)
O23 O 1.1255(2) 0.27944(13) 0.31862(19)
O24 O 1.0869(3) 0.36195(16) 0.3304(3)
O25 O 0.00935(18) 0.60892(11) 0.77820(17)
H65 H -0.025(2) 0.620(2) 0.746(2)
O26 O 0.06269(19) 0.68204(11) 0.79843(18)
C55 C 0.0563(2) 0.63947(14) 0.8111(2)
C56 C 0.1072(2) 0.61515(16) 0.8733(2)
F1 F 0.13289(17) 0.57351(11) 0.85342(17)
F2 F 0.16334(17) 0.64296(12) 0.89850(17)
F3 F 0.07401(18) 0.60636(15) 0.92849(16)
O27 O 0.13869(16) 0.58849(11) 0.40410(15)
H66 H 0.114(2) 0.5811(19) 0.3633(14)
O28 O 0.24508(17) 0.57347(11) 0.37100(16)
C57 C 0.2080(2) 0.58612(14) 0.4138(2)
C58 C 0.2434(2) 0.59991(15) 0.4916(2)
F4 F 0.20677(19) 0.63386(14) 0.51927(17)
F5 F 0.30877(15) 0.61714(11) 0.49595(15)
F6 F 0.2479(2) 0.56104(13) 0.53333(18)
O29 O 0.08811(19) 0.46047(11) 0.81538(18)
H67 H 0.108(3) 0.4417(17) 0.789(3)
O30 O 0.0450(2) 0.39135(12) 0.85561(18)
C59 C 0.0552(2) 0.43451(14) 0.8567(2)
C60 C 0.0288(2) 0.46684(16) 0.9131(2)
F7 F 0.08422(15) 0.48452(11) 0.95950(15)
F8 F -0.01233(18) 0.44212(14) 0.94997(17)
F9 F -0.00951(17) 0.50411(12) 0.88223(16)
O31 O 0.3949(3) 0.36896(15) 0.2383(3)
H68 H 0.392(5) 0.358(3) 0.280(2)
O32 O 0.4628(3) 0.30546(16) 0.2198(3)
C61 C 0.4336(3) 0.34405(18) 0.2027(3)
C62 C 0.4501(3) 0.3702(2) 0.1359(3)
F10 F 0.3939(2) 0.3941(2) 0.1026(3)
F11 F 0.4740(3) 0.3404(2) 0.0909(3)
F12 F 0.5021(3) 0.40239(18) 0.1552(3)
O33 O 0.1976(2) 0.35407(13) 0.19041(19)
O34 O 0.1060(2) 0.30147(13) 0.18184(19)
C63 C 0.1431(2) 0.33325(15) 0.1591(2)
C64 C 0.1135(3) 0.34845(16) 0.0810(2)
F13 F 0.08378(19) 0.39234(11) 0.0824(2)
F14 F 0.0628(2) 0.31890(13) 0.0490(2)
F15 F 0.1646(2) 0.35076(17) 0.0419(2)
O35 O 0.3218(2) 0.36352(13) 0.8802(2)
H69 H 0.345(4) 0.356(3) 0.846(3)
O36 O 0.3405(2) 0.43930(13) 0.8419(2)
C65 C 0.31408(18) 0.41064(14) 0.87762(17)
C66 C 0.2633(3) 0.42719(19) 0.9281(3)
F16 F 0.2458(3) 0.47374(15) 0.9174(3)
F17 F 0.2934(3) 0.4213(2) 0.9965(2)
F18 F 0.2016(2) 0.40213(13) 0.9170(2)
O37 O 0.6229(8) 0.3993(4) 0.9910(6)
O38 O 0.5335(7) 0.3986(4) 0.8906(6)
C67 C 0.5770(3) 0.4181(2) 0.9393(3)
C68 C 0.5777(4) 0.4737(2) 0.9383(4)
F19 F 0.6188(10) 0.4880(6) 0.8920(9)
F20 F 0.5120(6) 0.4917(6) 0.9173(10)
F21 F 0.6044(9) 0.4929(5) 1.0029(5)
O39 O 0.01056(15) 0.54646(10) 0.44711(16)
H70 H -0.0293(11) 0.5317(14) 0.439(2)
H71 H 0.0433(15) 0.5268(12) 0.442(2)
H72 H 0.019(2) 0.5568(15) 0.4902(11)
O40 O 0.48068(17) 0.59392(11) 0.54189(19)
H73 H 0.5158(16) 0.5760(14) 0.561(2)
H74 H 0.4513(18) 0.5742(12) 0.5175(13)
H75 H 0.4584(19) 0.6019(16) 0.5759(16)
O41 O 0.4206(3) 0.55799(16) 0.4290(2)
H76 H 0.392(4) 0.573(3) 0.400(4)
H77 H 0.430(4) 0.528(3) 0.429(4)
O42 O 0.25976(19) 0.23347(14) 0.23885(19)
H78 H 0.224(2) 0.2168(19) 0.248(3)
H79 H 0.279(3) 0.244(2) 0.2808(14)
O43 O 0.1850(2) 0.26911(13) 0.56478(18)
H80 H 0.2292(9) 0.2747(12) 0.562(2)
H81 H 0.161(2) 0.282(2) 0.5265(19)
O44 O 0.02175(19) 0.58780(13) 0.56515(19)
O45 O 0.1946(2) 0.29463(14) 0.9100(2)
O46 O 0.2888(2) 0.26640(15) 0.0152(2)
O47 O 0.4954(3) 0.4425(2) 0.7714(3)
loop_
_geom_bond_atom_site_label_1
_geom_bond_atom_site_label_2
_geom_bond_site_symmetry_1
_geom_bond_site_symmetry_2
C1 C2 1_555 1_555
C2 H1 1_555 1_555
C3 C2 1_555 1_555
H2 C3 1_555 1_555
C4 C3 1_555 1_555
C5 C1 1_555 1_555
C6 C4 1_555 1_555
C7 C5 1_555 1_555
H3 C7 1_555 1_555
H4 C7 1_555 1_555
C8 C6 1_555 1_555
H5 C8 1_555 1_555
H6 C8 1_555 1_555
N1 C7 1_555 1_555
C9 N1 1_555 1_555
C10 C9 1_555 1_555
H7 C10 1_555 1_555
H8 C10 1_555 1_555
H9 C10 1_555 1_555
N2 C8 1_555 1_555
C11 N1 1_555 1_555
O1 C11 1_555 1_555
C12 N2 1_555 1_555
O2 C12 1_555 1_555
N3 C11 1_555 1_555
C13 C9 1_555 1_555
C14 C13 1_555 1_555
H10 C14 1_555 1_555
H11 C14 1_555 1_555
H12 C14 1_555 1_555
N4 C12 1_555 1_555
C15 N3 1_555 1_555
H13 C15 1_555 1_555
H14 C15 1_555 1_555
C16 N4 1_555 1_555
H15 C16 1_555 1_555
H16 C16 1_555 1_555
N5 C15 1_555 1_555
C17 N5 1_555 1_555
H17 C17 1_555 1_555
N6 C16 1_555 1_555
C18 N5 1_555 1_555
O3 C18 1_555 1_555
C19 N6 1_555 1_555
O4 C19 1_555 1_555
N7 C18 1_555 1_555
C20 C17 1_555 1_555
H18 C20 1_555 1_555
N8 C19 1_555 1_555
C21 N7 1_555 1_555
H19 C21 1_555 1_555
H20 C21 1_555 1_555
C22 N8 1_555 1_555
H21 C22 1_555 1_555
H22 C22 1_555 1_555
N9 C22 1_555 1_555
C23 N9 1_555 1_555
H23 C23 1_555 1_555
N10 C21 1_555 1_555
C24 N9 1_555 1_555
O5 C24 1_555 1_555
C25 N10 1_555 1_555
O6 C25 1_555 1_555
N11 C24 1_555 1_555
C26 C23 1_555 1_555
H24 C26 1_555 1_555
N12 C25 1_555 1_555
C27 N11 1_555 1_555
H25 C27 1_555 1_555
H26 C27 1_555 1_555
C28 N12 1_555 1_555
H27 C28 1_555 1_555
H28 C28 1_555 1_555
N13 C27 1_555 1_555
C29 N13 1_555 1_555
C30 C29 1_555 1_555
H29 C30 1_555 1_555
H30 C30 1_555 1_555
H31 C30 1_555 1_555
N14 C28 1_555 1_555
C31 N13 1_555 1_555
O7 C31 1_555 1_555
C32 N14 1_555 1_555
O8 C32 1_555 1_555
N15 C31 1_555 1_555
C33 C29 1_555 1_555
C34 C33 1_555 1_555
H32 C34 1_555 1_555
H33 C34 1_555 1_555
H34 C34 1_555 1_555
N16 C32 1_555 1_555
C35 N15 1_555 1_555
H35 C35 1_555 1_555
H36 C35 1_555 1_555
C36 N16 1_555 1_555
H37 C36 1_555 1_555
H38 C36 1_555 1_555
C37 C35 1_555 1_555
C38 C36 1_555 1_555
C39 C38 1_555 1_555
C40 C39 1_555 1_555
H39 C40 1_555 1_555
C41 C40 1_555 1_555
H40 C41 1_555 1_555
C42 C37 1_555 1_555
O9 C1 1_555 1_555
C43 O9 1_555 1_555
H41 C43 1_555 1_555
H42 C43 1_555 1_555
C44 C43 1_555 1_555
H43 C44 1_555 1_555
H44 C44 1_555 1_555
C45 C44 1_555 1_555
H45 C45 1_555 1_555
H46 C45 1_555 1_555
S1 C45 1_555 1_555
O10 S1 1_555 1_555
O11 S1 1_555 1_555
O12 S1 1_555 1_555
O13 C4 1_555 1_555
C46 O13 1_555 1_555
H47 C46 1_555 1_555
H48 C46 1_555 1_555
C47 C46 1_555 1_555
H49 C47 1_555 1_555
H50 C47 1_555 1_555
C48 C47 1_555 1_555
H51 C48 1_555 1_555
H52 C48 1_555 1_555
S2 C48 1_555 1_555
O14 S2 1_555 1_555
O15 S2 1_555 1_555
O16 S2 1_555 1_555
O17 C39 1_555 1_555
C49 O17 1_555 1_555
H53 C49 1_555 1_555
H54 C49 1_555 1_555
C50 C49 1_555 1_555
H55 C50 1_555 1_555
H56 C50 1_555 1_555
C51 C50 1_555 1_555
H57 C51 1_555 1_555
H58 C51 1_555 1_555
S3 C51 1_555 1_555
O18 S3 1_555 1_555
O19 S3 1_555 1_555
O20 S3 1_555 1_555
O21 C42 1_555 1_555
C52 O21 1_555 1_555
H59 C52 1_555 1_555
H60 C52 1_555 1_555
C53 C52 1_555 1_555
H61 C53 1_555 1_555
H62 C53 1_555 1_555
C54 C53 1_555 1_555
H63 C54 1_555 1_555
H64 C54 1_555 1_555
S4 C54 1_555 1_555
O22 S4 1_555 1_555
O23 S4 1_555 1_555
O24 S4 1_555 1_555
O25 H65 1_555 1_555
O26 C55 1_555 1_555
C55 O25 1_555 1_555
C56 C55 1_555 1_555
F1 C56 1_555 1_555
F2 C56 1_555 1_555
F3 C56 1_555 1_555
O27 H66 1_555 1_555
O28 C57 1_555 1_555
C57 O27 1_555 1_555
C58 C57 1_555 1_555
F4 C58 1_555 1_555
F5 C58 1_555 1_555
F6 C58 1_555 1_555
O29 H67 1_555 1_555
O30 C59 1_555 1_555
C59 O29 1_555 1_555
C60 C59 1_555 1_555
F7 C60 1_555 1_555
F8 C60 1_555 1_555
F9 C60 1_555 1_555
O31 H68 1_555 1_555
O32 C61 1_555 1_555
C61 O31 1_555 1_555
C62 C61 1_555 1_555
F10 C62 1_555 1_555
F11 C62 1_555 1_555
F12 C62 1_555 1_555
O33 C63 1_555 1_555
O34 C63 1_555 1_555
C63 C64 1_555 1_555
C64 F13 1_555 1_555
F14 C64 1_555 1_555
F15 C64 1_555 1_555
O35 H69 1_555 1_555
O36 C65 1_555 1_555
C65 O35 1_555 1_555
C66 C65 1_555 1_555
F16 C66 1_555 1_555
F17 C66 1_555 1_555
F18 C66 1_555 1_555
O37 C67 1_555 1_555
O38 C67 1_555 1_555
C67 C68 1_555 1_555
C68 F19 1_555 1_555
F20 C68 1_555 1_555
F21 C68 1_555 1_555
O39 H70 1_555 1_555
H71 O39 1_555 1_555
H72 O39 1_555 1_555
O40 H73 1_555 1_555
H74 O40 1_555 1_555
H75 O40 1_555 1_555
O41 H76 1_555 1_555
H77 O41 1_555 1_555
O42 H78 1_555 1_555
H79 O42 1_555 1_555
O43 H80 1_555 1_555
H81 O43 1_555 1_555
C5 C6 1_555 1_555
C9 N2 1_555 1_555
N3 C13 1_555 1_555
C13 N4 1_555 1_555
C17 N6 1_555 1_555
N7 C20 1_555 1_555
C20 N8 1_555 1_555
C23 N10 1_555 1_555
N11 C26 1_555 1_555
C26 N12 1_555 1_555
C29 N14 1_555 1_555
N15 C33 1_555 1_555
C33 N16 1_555 1_555
C37 C38 1_555 1_555
C41 C42 1_555 1_555

#END
