
#######################################################################
#
#                 Cambridge Crystallographic Data Centre
#                                CCDC 
#
#######################################################################
#
# If this CIF has been generated from an entry in the Cambridge 
# Structural Database, then it will include bibliographic, chemical, 
# crystal, experimental, refinement or atomic coordinate data resulting 
# from the CCDC's data processing and validation procedures.
#
#######################################################################

data_RAWCUQ
_chemical_formula_moiety         'C30 H28 F1 N3 O6'
_chemical_name_systematic        
'diethyl 4-(4-fluorophenyl)-5-methyl-1-(4-nitrophenyl)-1,2-dihydropyrimido[1,6-a]indole-3,3(4H)-dicarboxylate'
_symmetry_cell_setting           orthorhombic
_symmetry_space_group_name_H-M   'P 21 21 21'
_symmetry_Int_Tables_number      19
_space_group_name_Hall           'P 2ac 2ab'
loop_
_symmetry_equiv_pos_site_id
_symmetry_equiv_pos_as_xyz
1 x,y,z
2 1/2-x,-y,1/2+z
3 1/2+x,1/2-y,-z
4 -x,1/2+y,1/2-z
_cell_length_a                   11.3435(2)
_cell_length_b                   12.9322(2)
_cell_length_c                   18.0713(3)
_cell_angle_alpha                90
_cell_angle_beta                 90
_cell_angle_gamma                90
_cell_volume                     2650.99
_exptl_crystal_colour            colorless
_exptl_crystal_description       block
_cell_formula_units_Z            4
loop_
_atom_site_label
_atom_site_type_symbol
_atom_site_fract_x
_atom_site_fract_y
_atom_site_fract_z
F1 F -0.15440(14) 0.00290(15) 0.04364(9)
O1 O 0.29019(16) 0.15190(15) 0.40487(9)
O2 O 0.42119(16) 0.08545(14) 0.32495(10)
O3 O 0.10896(14) 0.02450(12) 0.33641(9)
O4 O 0.02628(15) 0.17650(14) 0.30458(10)
O5 O 0.2496(2) 0.74838(15) 0.10440(12)
O6 O 0.2725(3) 0.78456(17) 0.21871(14)
N1 N 0.39077(18) 0.23187(14) 0.17645(11)
N2 N 0.23418(17) 0.25630(15) 0.26483(11)
H1 H 0.1724 0.2961 0.2725
N3 N 0.2680(2) 0.72321(17) 0.16819(14)
C1 C -0.0537(2) 0.0218(2) 0.08281(14)
C2 C -0.0200(2) -0.0498(2) 0.13517(14)
H2 H -0.0657 -0.1101 0.1442
C3 C 0.0829(2) -0.03076(19) 0.17431(13)
H3 H 0.1087 -0.0794 0.2102
C4 C 0.1494(2) 0.05852(18) 0.16194(13)
C5 C 0.2592(2) 0.07896(17) 0.20831(12)
H4 H 0.2888 0.0104 0.2258
C6 C 0.3576(2) 0.12889(18) 0.16532(13)
C7 C 0.3451(2) 0.29605(18) 0.23698(12)
H5 H 0.4037 0.2941 0.2783
C8 C 0.2325(2) 0.14560(18) 0.27893(12)
C9 C 0.3271(2) 0.12300(18) 0.33845(13)
C10 C 0.3729(2) 0.1353(2) 0.46606(13)
H6 H 0.4215 0.0733 0.4560
H7 H 0.3286 0.1235 0.5125
C11 C 0.4518(3) 0.2286(2) 0.47478(17)
H8 H 0.5019 0.2356 0.4309
H9 H 0.5014 0.2199 0.5187
H10 H 0.4033 0.2908 0.4804
C12 C 0.1101(2) 0.12022(19) 0.30863(12)
C13 C -0.0068(2) -0.0138(2) 0.35755(14)
H11 H -0.0628 -0.0065 0.3159
H12 H -0.0375 0.0258 0.4003
C14 C 0.0078(2) -0.1259(2) 0.37784(17)
H13 H 0.0412 -0.1637 0.3357
H14 H -0.0692 -0.1553 0.3906
H15 H 0.0609 -0.1318 0.4204
C15 C 0.32560(19) 0.40805(18) 0.21593(12)
C16 C 0.3160(2) 0.48008(19) 0.27275(13)
H16 H 0.3232 0.4578 0.3226
C17 C 0.2961(2) 0.5838(2) 0.25800(14)
H17 H 0.2894 0.6329 0.2969
C18 C 0.2862(2) 0.61336(19) 0.18514(14)
C19 C 0.2942(2) 0.54427(19) 0.12702(13)
H18 H 0.2866 0.5672 0.0773
C20 C 0.3134(2) 0.44094(18) 0.14281(13)
H19 H 0.3184 0.3921 0.1036
C21 C 0.4945(2) 0.24957(18) 0.13798(12)
C22 C 0.5196(2) 0.15911(19) 0.09713(12)
C23 C 0.4314(2) 0.08408(19) 0.11508(13)
C24 C 0.4243(3) -0.0241(2) 0.08614(16)
H20 H 0.3713 -0.0648 0.1176
H21 H 0.5030 -0.0553 0.0865
H22 H 0.3937 -0.0231 0.0354
C25 C 0.6231(2) 0.1557(2) 0.05440(13)
H23 H 0.6418 0.0962 0.0259
C26 C 0.6973(2) 0.2409(2) 0.05461(14)
H24 H 0.7678 0.2393 0.0263
C27 C 0.6701(2) 0.3290(2) 0.09578(14)
H25 H 0.7225 0.3863 0.0947
C28 C 0.5692(2) 0.33493(19) 0.13798(13)
H26 H 0.5513 0.3950 0.1660
C29 C 0.1133(2) 0.12630(19) 0.10692(13)
H27 H 0.1594 0.1858 0.0965
C30 C 0.0104(2) 0.1085(2) 0.06667(14)
H28 H -0.0145 0.1552 0.0292
loop_
_geom_bond_atom_site_label_1
_geom_bond_atom_site_label_2
_geom_bond_site_symmetry_1
_geom_bond_site_symmetry_2
F1 C1 1_555 1_555
O1 C9 1_555 1_555
O2 C9 1_555 1_555
O3 C12 1_555 1_555
O4 C12 1_555 1_555
O5 N3 1_555 1_555
O6 N3 1_555 1_555
N1 C6 1_555 1_555
N2 H1 1_555 1_555
N3 C18 1_555 1_555
C1 C2 1_555 1_555
C2 H2 1_555 1_555
C3 C2 1_555 1_555
H3 C3 1_555 1_555
C4 C3 1_555 1_555
C5 C4 1_555 1_555
H4 C5 1_555 1_555
C6 C5 1_555 1_555
C7 N1 1_555 1_555
H5 C7 1_555 1_555
C8 N2 1_555 1_555
C9 C8 1_555 1_555
C10 O1 1_555 1_555
H6 C10 1_555 1_555
H7 C10 1_555 1_555
C11 C10 1_555 1_555
H8 C11 1_555 1_555
H9 C11 1_555 1_555
H10 C11 1_555 1_555
C12 C8 1_555 1_555
C13 O3 1_555 1_555
H11 C13 1_555 1_555
H12 C13 1_555 1_555
C14 C13 1_555 1_555
H13 C14 1_555 1_555
H14 C14 1_555 1_555
H15 C14 1_555 1_555
C15 C7 1_555 1_555
C16 C15 1_555 1_555
H16 C16 1_555 1_555
C17 C16 1_555 1_555
H17 C17 1_555 1_555
C18 C17 1_555 1_555
C19 C18 1_555 1_555
H18 C19 1_555 1_555
C20 C15 1_555 1_555
H19 C20 1_555 1_555
C21 N1 1_555 1_555
C22 C21 1_555 1_555
C23 C6 1_555 1_555
C24 C23 1_555 1_555
H20 C24 1_555 1_555
H21 C24 1_555 1_555
H22 C24 1_555 1_555
C25 C22 1_555 1_555
H23 C25 1_555 1_555
C26 C25 1_555 1_555
H24 C26 1_555 1_555
C27 C26 1_555 1_555
H25 C27 1_555 1_555
C28 C21 1_555 1_555
H26 C28 1_555 1_555
C29 C4 1_555 1_555
H27 C29 1_555 1_555
C30 C1 1_555 1_555
H28 C30 1_555 1_555
N2 C7 1_555 1_555
C5 C8 1_555 1_555
C19 C20 1_555 1_555
C22 C23 1_555 1_555
C27 C28 1_555 1_555
C29 C30 1_555 1_555

#END
