
#######################################################################
#
#                 Cambridge Crystallographic Data Centre
#                                CCDC 
#
#######################################################################
#
# If this CIF has been generated from an entry in the Cambridge 
# Structural Database, then it will include bibliographic, chemical, 
# crystal, experimental, refinement or atomic coordinate data resulting 
# from the CCDC's data processing and validation procedures.
#
#######################################################################

data_RAWGED
_chemical_formula_moiety         'C25 H30 O4'
_chemical_name_systematic        
8'-Allyloxy-4,4'-dimethoxy-5,5',6,6',7,7',8,8'-octahydro-1,1'-binaphthalen-8-ol
_symmetry_cell_setting           triclinic
_symmetry_space_group_name_H-M   'P -1'
_symmetry_Int_Tables_number      2
_space_group_name_Hall           '-P 1'
loop_
_symmetry_equiv_pos_site_id
_symmetry_equiv_pos_as_xyz
1 x,y,z
2 -x,-y,-z
_cell_length_a                   8.5173(4)
_cell_length_b                   9.7285(5)
_cell_length_c                   13.5315(7)
_cell_angle_alpha                108.877(1)
_cell_angle_beta                 90.131(1)
_cell_angle_gamma                99.366(1)
_cell_volume                     1044.97
_exptl_crystal_colour            colorless
_cell_formula_units_Z            2
loop_
_atom_site_label
_atom_site_type_symbol
_atom_site_fract_x
_atom_site_fract_y
_atom_site_fract_z
O1 O 0.88936(11) 0.00542(10) 0.38609(7)
O2 O 1.14979(12) 0.49846(10) 0.23946(7)
O3 O 1.18536(12) -0.03065(11) 0.30640(8)
H1 H 1.0929 -0.0249 0.3268
O4 O 0.63325(12) -0.53514(10) 0.07841(7)
C1 C 0.8004(2) 0.36739(18) 0.49183(13)
H2 H 0.7348 0.3525 0.5454
H3 H 0.7986 0.4510 0.4704
C2 C 0.89345(18) 0.27235(16) 0.44732(11)
H4 H 0.9576 0.2902 0.3939
C3 C 0.90423(18) 0.13830(16) 0.47566(10)
H5 H 1.0080 0.1532 0.5141
H6 H 0.8191 0.1255 0.5232
C4 C 0.73678(16) -0.03611(15) 0.32778(10)
H7 H 0.7069 0.0533 0.3167
C5 C 0.76014(15) -0.14592(14) 0.22236(10)
C6 C 0.85101(15) -0.09637(15) 0.14926(10)
C7 C 0.93025(16) 0.06134(14) 0.17344(10)
C8 C 0.84093(16) 0.16530(15) 0.16631(10)
H8 H 0.7306 0.1349 0.1458
C9 C 0.90853(17) 0.31295(15) 0.18833(10)
H9 H 0.8452 0.3826 0.1835
C10 C 1.06947(16) 0.35673(14) 0.21742(10)
C11 C 1.05715(19) 0.60976(16) 0.24264(12)
H10 H 1.0056 0.5889 0.1733
H11 H 1.1268 0.7063 0.2631
H12 H 0.9756 0.6104 0.2937
C12 C 0.60888(18) -0.09692(17) 0.38827(11)
H13 H 0.6166 -0.0306 0.4617
H14 H 0.5023 -0.1007 0.3572
C13 C 0.62807(18) -0.25047(17) 0.38566(11)
H15 H 0.5509 -0.2847 0.4309
H16 H 0.7370 -0.2484 0.4125
C14 C 0.59921(17) -0.35565(16) 0.27380(11)
H17 H 0.6315 -0.4504 0.2701
H18 H 0.4839 -0.3756 0.2536
C15 C 0.69071(15) -0.29430(15) 0.19707(10)
C16 C 1.09500(16) 0.10715(14) 0.20152(10)
C17 C 1.19697(16) -0.00516(15) 0.20773(11)
H19 H 1.1592 -0.1003 0.1504
C18 C 1.37201(16) 0.04592(15) 0.19658(11)
H20 H 1.3878 0.0501 0.1251
H21 H 1.4356 -0.0249 0.2077
C19 C 1.42765(17) 0.19811(15) 0.27666(11)
H22 H 1.4052 0.1954 0.3478
H23 H 1.5441 0.2275 0.2743
C20 C 1.34108(16) 0.30972(15) 0.25266(11)
H24 H 1.3545 0.4003 0.3145
H25 H 1.3913 0.3365 0.1940
C21 C 1.16507(16) 0.25459(14) 0.22429(10)
C22 C 0.86563(16) -0.19679(15) 0.05131(10)
H26 H 0.9262 -0.1641 0.0018
C23 C 0.79369(17) -0.34415(15) 0.02394(10)
H27 H 0.8035 -0.4110 -0.0438
C24 C 0.70767(16) -0.39188(15) 0.09676(10)
C25 C 0.66127(19) -0.64234(16) -0.01764(11)
H28 H 0.6257 -0.6149 -0.0765
H29 H 0.6019 -0.7393 -0.0215
H30 H 0.7754 -0.6464 -0.0208
loop_
_geom_bond_atom_site_label_1
_geom_bond_atom_site_label_2
_geom_bond_site_symmetry_1
_geom_bond_site_symmetry_2
O1 C3 1_555 1_555
O2 C10 1_555 1_555
O3 H1 1_555 1_555
O4 C24 1_555 1_555
C1 H2 1_555 1_555
H3 C1 1_555 1_555
C2 C1 1_555 1_555
H4 C2 1_555 1_555
C3 C2 1_555 1_555
H5 C3 1_555 1_555
H6 C3 1_555 1_555
C4 O1 1_555 1_555
H7 C4 1_555 1_555
C5 C4 1_555 1_555
C6 C5 1_555 1_555
C7 C6 1_555 1_555
C8 C7 1_555 1_555
H8 C8 1_555 1_555
C9 C8 1_555 1_555
H9 C9 1_555 1_555
C10 C9 1_555 1_555
C11 O2 1_555 1_555
H10 C11 1_555 1_555
H11 C11 1_555 1_555
H12 C11 1_555 1_555
C12 C4 1_555 1_555
H13 C12 1_555 1_555
H14 C12 1_555 1_555
C13 C12 1_555 1_555
H15 C13 1_555 1_555
H16 C13 1_555 1_555
C14 C13 1_555 1_555
H17 C14 1_555 1_555
H18 C14 1_555 1_555
C15 C5 1_555 1_555
C16 C7 1_555 1_555
C17 O3 1_555 1_555
H19 C17 1_555 1_555
C18 C17 1_555 1_555
H20 C18 1_555 1_555
H21 C18 1_555 1_555
C19 C18 1_555 1_555
H22 C19 1_555 1_555
H23 C19 1_555 1_555
C20 C19 1_555 1_555
H24 C20 1_555 1_555
H25 C20 1_555 1_555
C21 C10 1_555 1_555
C22 C6 1_555 1_555
H26 C22 1_555 1_555
C23 C22 1_555 1_555
H27 C23 1_555 1_555
C24 C15 1_555 1_555
C25 O4 1_555 1_555
H28 C25 1_555 1_555
H29 C25 1_555 1_555
H30 C25 1_555 1_555
C14 C15 1_555 1_555
C16 C17 1_555 1_555
C16 C21 1_555 1_555
C20 C21 1_555 1_555
C23 C24 1_555 1_555

#END
