
#######################################################################
#
#                 Cambridge Crystallographic Data Centre
#                                CCDC 
#
#######################################################################
#
# If this CIF has been generated from an entry in the Cambridge 
# Structural Database, then it will include bibliographic, chemical, 
# crystal, experimental, refinement or atomic coordinate data resulting 
# from the CCDC's data processing and validation procedures.
#
#######################################################################

data_RAXCEZ
_chemical_name_common            2,3,5,6-bis(o-1,10-decylidene)dihydropyrazine
_chemical_formula_moiety         'C24 H42 N2'
_chemical_name_systematic        Docosahydrodicyclododeca(b,e)pyrazine
_symmetry_cell_setting           monoclinic
_symmetry_space_group_name_H-M   'P 21/n'
_symmetry_Int_Tables_number      14
_space_group_name_Hall           '-P 2yn'
loop_
_symmetry_equiv_pos_site_id
_symmetry_equiv_pos_as_xyz
1 x,y,z
2 1/2-x,1/2+y,1/2-z
3 -x,-y,-z
4 1/2+x,1/2-y,1/2+z
_cell_length_a                   4.8028(3)
_cell_length_b                   28.646(4)
_cell_length_c                   7.7097(6)
_cell_angle_alpha                90
_cell_angle_beta                 98.432(12)
_cell_angle_gamma                90
_cell_volume                     1049.24
_exptl_crystal_colour            colorless
_exptl_crystal_description       platelet
_cell_formula_units_Z            2
_exptl_crystal_recrystallization_method 'diethyl ether'
loop_
_atom_site_label
_atom_site_type_symbol
_atom_site_fract_x
_atom_site_fract_y
_atom_site_fract_z
N1 N 0.8958(4) 0.02234(5) 0.84977(19)
H1 H 0.8284 0.0364 0.7542
C1 C 1.1061(4) 0.04143(6) 0.9566(2)
C2 C 1.2115(5) 0.08807(6) 0.8996(3)
H2 H 1.3021 0.0834 0.7965
H3 H 1.3515 0.1001 0.9922
C3 C 0.9775(5) 0.12383(6) 0.8581(3)
H4 H 0.8633 0.1237 0.9519
H5 H 0.8578 0.1145 0.7512
C4 C 1.0818(6) 0.17391(7) 0.8349(3)
H6 H 1.1907 0.1742 0.7384
H7 H 0.9196 0.1940 0.8027
C5 C 1.2596(5) 0.19412(7) 0.9949(3)
H8 H 1.3284 0.2245 0.9649
H9 H 1.4218 0.1741 1.0273
C6 C 1.1052(6) 0.19962(8) 1.1535(3)
H10 H 1.0175 0.2302 1.1487
H11 H 0.9565 0.1765 1.1461
C7 C 1.2902(6) 0.19445(7) 1.3263(3)
H12 H 1.1809 0.2022 1.4186
H13 H 1.4418 0.2170 1.3315
C8 C 1.4194(5) 0.14593(7) 1.3643(3)
H14 H 1.5342 0.1386 1.2744
H15 H 1.5430 0.1470 1.4756
C9 C 1.2068(5) 0.10645(7) 1.3714(2)
H16 H 1.0787 0.1058 1.2618
H17 H 1.0969 0.1129 1.4647
C10 C 1.3462(5) 0.05824(7) 1.4029(2)
H18 H 1.5040 0.0610 1.4965
H19 H 1.2115 0.0370 1.4428
C11 C 1.4512(4) 0.03682(6) 1.2433(2)
H20 H 1.5558 0.0602 1.1884
H21 H 1.5785 0.0113 1.2811
C12 C 0.7868(4) -0.01884(6) 0.8895(2)
N1B N 1.1042(4) -0.02234(5) 1.15023(19)
H1B H 1.1716 -0.0364 1.2458
C1B C 0.8939(4) -0.04143(6) 1.0434(2)
C2B C 0.7885(5) -0.08807(6) 1.1004(3)
H2B H 0.6979 -0.0834 1.2035
H3B H 0.6485 -0.1001 1.0078
C3B C 1.0225(5) -0.12383(6) 1.1419(3)
H4B H 1.1367 -0.1237 1.0481
H5B H 1.1422 -0.1145 1.2488
C4B C 0.9182(6) -0.17391(7) 1.1651(3)
H6B H 0.8093 -0.1742 1.2616
H7B H 1.0804 -0.1940 1.1973
C5B C 0.7404(5) -0.19412(7) 1.0051(3)
H8B H 0.6716 -0.2245 1.0351
H9B H 0.5782 -0.1741 0.9727
C6B C 0.8948(6) -0.19962(8) 0.8465(3)
H10B H 0.9825 -0.2302 0.8513
H11B H 1.0435 -0.1765 0.8539
C7B C 0.7098(6) -0.19445(7) 0.6737(3)
H12B H 0.8191 -0.2022 0.5814
H13B H 0.5582 -0.2170 0.6685
C8B C 0.5806(5) -0.14593(7) 0.6357(3)
H14B H 0.4658 -0.1386 0.7256
H15B H 0.4570 -0.1470 0.5244
C9B C 0.7932(5) -0.10645(7) 0.6286(2)
H16B H 0.9213 -0.1058 0.7382
H17B H 0.9031 -0.1129 0.5353
C10B C 0.6538(5) -0.05824(7) 0.5971(2)
H18B H 0.4960 -0.0610 0.5035
H19B H 0.7885 -0.0370 0.5572
C11B C 0.5488(4) -0.03682(6) 0.7567(2)
H20B H 0.4442 -0.0602 0.8116
H21B H 0.4215 -0.0113 0.7189
C12B C 1.2132(4) 0.01884(6) 1.1105(2)
loop_
_geom_bond_atom_site_label_1
_geom_bond_atom_site_label_2
_geom_bond_site_symmetry_1
_geom_bond_site_symmetry_2
N1 H1 1_555 1_555
C1 N1 1_555 1_555
C2 C1 1_555 1_555
H2 C2 1_555 1_555
H3 C2 1_555 1_555
C3 C2 1_555 1_555
H4 C3 1_555 1_555
H5 C3 1_555 1_555
C4 C3 1_555 1_555
H6 C4 1_555 1_555
H7 C4 1_555 1_555
C5 C4 1_555 1_555
H8 C5 1_555 1_555
H9 C5 1_555 1_555
C6 C5 1_555 1_555
H10 C6 1_555 1_555
H11 C6 1_555 1_555
C7 C6 1_555 1_555
H12 C7 1_555 1_555
H13 C7 1_555 1_555
C8 C7 1_555 1_555
H14 C8 1_555 1_555
H15 C8 1_555 1_555
C9 C8 1_555 1_555
H16 C9 1_555 1_555
H17 C9 1_555 1_555
C10 C9 1_555 1_555
H18 C10 1_555 1_555
H19 C10 1_555 1_555
C11 C10 1_555 1_555
H20 C11 1_555 1_555
H21 C11 1_555 1_555
C12 N1 1_555 1_555
N1B H1B 1_555 1_555
C1B C12 1_555 1_555
C2B C1B 1_555 1_555
H2B C2B 1_555 1_555
H3B C2B 1_555 1_555
C3B C2B 1_555 1_555
H4B C3B 1_555 1_555
H5B C3B 1_555 1_555
C4B C3B 1_555 1_555
H6B C4B 1_555 1_555
H7B C4B 1_555 1_555
C5B C4B 1_555 1_555
H8B C5B 1_555 1_555
H9B C5B 1_555 1_555
C6B C5B 1_555 1_555
H10B C6B 1_555 1_555
H11B C6B 1_555 1_555
C7B C6B 1_555 1_555
H12B C7B 1_555 1_555
H13B C7B 1_555 1_555
C8B C7B 1_555 1_555
H14B C8B 1_555 1_555
H15B C8B 1_555 1_555
C9B C8B 1_555 1_555
H16B C9B 1_555 1_555
H17B C9B 1_555 1_555
C10B C9B 1_555 1_555
H18B C10B 1_555 1_555
H19B C10B 1_555 1_555
C11B C12 1_555 1_555
H20B C11B 1_555 1_555
H21B C11B 1_555 1_555
C12B C1 1_555 1_555
C11 C12B 1_555 1_555
N1B C1B 1_555 1_555
N1B C12B 1_555 1_555
C10B C11B 1_555 1_555

#END
