
#######################################################################
#
#                 Cambridge Crystallographic Data Centre
#                                CCDC 
#
#######################################################################
#
# If this CIF has been generated from an entry in the Cambridge 
# Structural Database, then it will include bibliographic, chemical, 
# crystal, experimental, refinement or atomic coordinate data resulting 
# from the CCDC's data processing and validation procedures.
#
#######################################################################

data_RAXDEC
_chemical_formula_moiety         'C38 H47 N3 O4'
_chemical_name_systematic        
'3-[benzoylamino]-1-[3-(t-butylcarbamoyl)octahydroisoquinolin-2(1H)-yl]-4-phenylbutan-2-yl benzoate'
_symmetry_cell_setting           monoclinic
_symmetry_space_group_name_H-M   'P 21'
_symmetry_Int_Tables_number      4
_space_group_name_Hall           'P 2yb'
loop_
_symmetry_equiv_pos_site_id
_symmetry_equiv_pos_as_xyz
1 x,y,z
2 -x,1/2+y,-z
_cell_length_a                   11.4866(3)
_cell_length_b                   9.4448(2)
_cell_length_c                   16.8257(5)
_cell_angle_alpha                90
_cell_angle_beta                 109.227(3)
_cell_angle_gamma                90
_cell_volume                     1723.58
_exptl_crystal_colour            colorless
_exptl_crystal_description       needle
_cell_formula_units_Z            2
loop_
_atom_site_label
_atom_site_type_symbol
_atom_site_fract_x
_atom_site_fract_y
_atom_site_fract_z
C1 C 0.1094(4) 0.3195(4) 0.1956(2)
H1 H 0.1950 0.3530 0.2069
H2 H 0.0566 0.3672 0.1438
C2 C 0.1046(3) 0.1585(4) 0.1806(2)
H3 H 0.1668 0.1113 0.2295
C3 C 0.1262(3) 0.1138(4) 0.0997(2)
H4 H 0.1265 0.0079 0.0988
C4 C 0.2513(3) 0.1625(4) 0.0978(2)
H5 H 0.2491 0.2665 0.0900
H6 H 0.3140 0.1414 0.1530
C5 C -0.0678(3) 0.0764(4) -0.0162(2)
C6 C -0.0309(4) 0.0410(4) 0.2415(2)
C7 C 0.1555(3) 0.4553(4) 0.3252(2)
H7 H 0.1668 0.5406 0.2933
C8 C 0.1086(4) 0.5037(5) 0.3955(3)
H8 H 0.1674 0.5733 0.4311
H9 H 0.1060 0.4213 0.4312
C9 C -0.0194(4) 0.5709(5) 0.3631(3)
H10 H -0.0135 0.6587 0.3314
C10 C -0.0665(4) 0.6127(5) 0.4343(3)
H11 H -0.1408 0.6726 0.4114
H12 H -0.0027 0.6698 0.4759
C11 C -0.0984(4) 0.4852(5) 0.4784(3)
H13 H -0.0224 0.4307 0.5069
H14 H -0.1330 0.5179 0.5218
C12 C -0.1913(4) 0.3899(5) 0.4161(3)
H15 H -0.2702 0.4415 0.3917
H16 H -0.2072 0.3054 0.4457
C13 C -0.1435(4) 0.3435(5) 0.3454(3)
H17 H -0.0704 0.2821 0.3691
H18 H -0.2079 0.2871 0.3038
C14 C -0.1088(4) 0.4686(5) 0.3014(2)
H19 H -0.1863 0.5225 0.2732
C15 C -0.0557(3) 0.4256(4) 0.2330(3)
H20 H -0.1128 0.3580 0.1944
H21 H -0.0501 0.5105 0.1999
C16 C 0.2805(4) 0.3896(5) 0.3683(3)
C17 C 0.3889(4) 0.1660(5) 0.4317(3)
C18 C 0.4024(4) 0.1975(5) 0.5232(3)
H22 H 0.4144 0.2995 0.5336
H23 H 0.4737 0.1462 0.5604
H24 H 0.3277 0.1673 0.5345
C19 C 0.3574(4) 0.0085(5) 0.4131(3)
H25 H 0.2764 -0.0113 0.4182
H26 H 0.4200 -0.0499 0.4533
H27 H 0.3556 -0.0135 0.3557
C20 C 0.5072(4) 0.1970(6) 0.4129(3)
H28 H 0.5284 0.2973 0.4235
H29 H 0.4952 0.1751 0.3538
H30 H 0.5742 0.1386 0.4492
C21 C 0.2909(3) 0.0951(4) 0.0296(2)
C22 C 0.3112(4) -0.0514(5) 0.0303(3)
H31 H 0.2960 -0.1089 0.0721
C23 C 0.3533(4) -0.1124(5) -0.0299(3)
H32 H 0.3680 -0.2115 -0.0282
C24 C 0.3743(4) -0.0325(6) -0.0919(3)
H33 H 0.4034 -0.0756 -0.1328
C25 C 0.3523(4) 0.1131(6) -0.0941(3)
H34 H 0.3657 0.1698 -0.1369
C26 C 0.3109(4) 0.1745(5) -0.0337(3)
H35 H 0.2959 0.2736 -0.0358
C27 C -0.1602(3) 0.1360(4) -0.0933(2)
C28 C -0.1291(4) 0.2311(4) -0.1467(2)
H36 H -0.0470 0.2653 -0.1323
C29 C -0.2175(4) 0.2756(4) -0.2206(3)
H37 H -0.1955 0.3395 -0.2568
C30 C -0.3380(4) 0.2273(4) -0.2417(3)
H38 H -0.3984 0.2582 -0.2923
C31 C -0.3700(4) 0.1339(4) -0.1889(3)
H39 H -0.4525 0.1011 -0.2033
C32 C -0.2825(3) 0.0883(4) -0.1156(3)
H40 H -0.3052 0.0240 -0.0798
C33 C -0.1626(3) 0.0098(4) 0.2289(2)
C34 C -0.2557(4) 0.0418(5) 0.1540(3)
H41 H -0.2354 0.0806 0.1081
C35 C -0.3772(4) 0.0176(5) 0.1463(3)
H42 H -0.4406 0.0405 0.0952
C36 C -0.4071(4) -0.0400(5) 0.2126(3)
H43 H -0.4910 -0.0566 0.2068
C37 C -0.3155(4) -0.0735(5) 0.2872(3)
H44 H -0.3363 -0.1127 0.3328
C38 C -0.1931(4) -0.0496(5) 0.2950(3)
H45 H -0.1298 -0.0738 0.3458
N1 N 0.0677(3) 0.3598(3) 0.26662(19)
N2 N 0.2845(3) 0.2467(4) 0.3755(2)
H46 H 0.208(4) 0.209(6) 0.358(3)
N3 N 0.0279(3) 0.1602(3) 0.02500(19)
H47 H 0.027(4) 0.252(6) 0.005(3)
O1 O 0.3711(3) 0.4674(3) 0.3992(2)
O2 O -0.0799(2) -0.0457(3) 0.00716(17)
O3 O -0.0177(2) 0.1111(3) 0.17533(16)
O4 O 0.0540(2) 0.0080(4) 0.30361(18)
loop_
_geom_bond_atom_site_label_1
_geom_bond_atom_site_label_2
_geom_bond_site_symmetry_1
_geom_bond_site_symmetry_2
C1 H1 1_555 1_555
H2 C1 1_555 1_555
C2 C1 1_555 1_555
H3 C2 1_555 1_555
C3 C2 1_555 1_555
H4 C3 1_555 1_555
C4 C3 1_555 1_555
H5 C4 1_555 1_555
H6 C4 1_555 1_555
C5 C27 1_555 1_555
C6 C33 1_555 1_555
C7 H7 1_555 1_555
C8 C7 1_555 1_555
H8 C8 1_555 1_555
H9 C8 1_555 1_555
C9 C8 1_555 1_555
H10 C9 1_555 1_555
C10 C9 1_555 1_555
H11 C10 1_555 1_555
H12 C10 1_555 1_555
C11 C10 1_555 1_555
H13 C11 1_555 1_555
H14 C11 1_555 1_555
C12 C11 1_555 1_555
H15 C12 1_555 1_555
H16 C12 1_555 1_555
C13 C12 1_555 1_555
H17 C13 1_555 1_555
H18 C13 1_555 1_555
C14 C9 1_555 1_555
H19 C14 1_555 1_555
C15 C14 1_555 1_555
H20 C15 1_555 1_555
H21 C15 1_555 1_555
C16 C7 1_555 1_555
C17 C18 1_555 1_555
C18 H22 1_555 1_555
H23 C18 1_555 1_555
H24 C18 1_555 1_555
C19 C17 1_555 1_555
H25 C19 1_555 1_555
H26 C19 1_555 1_555
H27 C19 1_555 1_555
C20 C17 1_555 1_555
H28 C20 1_555 1_555
H29 C20 1_555 1_555
H30 C20 1_555 1_555
C21 C4 1_555 1_555
C22 C21 1_555 1_555
H31 C22 1_555 1_555
C23 C22 1_555 1_555
H32 C23 1_555 1_555
C24 C23 1_555 1_555
H33 C24 1_555 1_555
C25 C24 1_555 1_555
H34 C25 1_555 1_555
C26 C21 1_555 1_555
H35 C26 1_555 1_555
C27 C28 1_555 1_555
C28 H36 1_555 1_555
C29 C28 1_555 1_555
H37 C29 1_555 1_555
C30 C29 1_555 1_555
H38 C30 1_555 1_555
C31 C30 1_555 1_555
H39 C31 1_555 1_555
C32 C27 1_555 1_555
H40 C32 1_555 1_555
C33 C34 1_555 1_555
C34 H41 1_555 1_555
C35 C34 1_555 1_555
H42 C35 1_555 1_555
C36 C35 1_555 1_555
H43 C36 1_555 1_555
C37 C36 1_555 1_555
H44 C37 1_555 1_555
C38 C33 1_555 1_555
H45 C38 1_555 1_555
N1 C1 1_555 1_555
N2 C16 1_555 1_555
H46 N2 1_555 1_555
N3 C3 1_555 1_555
H47 N3 1_555 1_555
O1 C16 1_555 1_555
O2 C5 1_555 1_555
O3 C2 1_555 1_555
O4 C6 1_555 1_555
C5 N3 1_555 1_555
C6 O3 1_555 1_555
C7 N1 1_555 1_555
C13 C14 1_555 1_555
C15 N1 1_555 1_555
C17 N2 1_555 1_555
C25 C26 1_555 1_555
C31 C32 1_555 1_555
C37 C38 1_555 1_555

#END
