
#######################################################################
#
#                 Cambridge Crystallographic Data Centre
#                                CCDC 
#
#######################################################################
#
# If this CIF has been generated from an entry in the Cambridge 
# Structural Database, then it will include bibliographic, chemical, 
# crystal, experimental, refinement or atomic coordinate data resulting 
# from the CCDC's data processing and validation procedures.
#
#######################################################################

data_RAXWUL
_chemical_formula_moiety         'C11 H6 F8 O3 S1'
_chemical_name_systematic        
'6-(pentafluoro-sulfanyl)-2-(trifluoromethyl)-2H-chromene-3-carboxylic acid'
_chemical_properties_biological  
'COX-2 inhibitor with exceptional efficacy in the adjuvant induced arthritis model'
_symmetry_cell_setting           monoclinic
_symmetry_space_group_name_H-M   'P 21/c'
_symmetry_Int_Tables_number      14
_space_group_name_Hall           '-P 2ybc'
loop_
_symmetry_equiv_pos_site_id
_symmetry_equiv_pos_as_xyz
1 x,y,z
2 -x,1/2+y,1/2-z
3 -x,-y,-z
4 x,1/2-y,1/2+z
_cell_length_a                   9.10556(15)
_cell_length_b                   11.3030(2)
_cell_length_c                   12.5197(2)
_cell_angle_alpha                90
_cell_angle_beta                 91.1775(14)
_cell_angle_gamma                90
_cell_volume                     1288.26
_exptl_crystal_colour            'light colorless'
_exptl_crystal_description       plate
_cell_formula_units_Z            4
_exptl_crystal_recrystallization_method methanol
_exptl_crystal_preparation       methanol
loop_
_atom_site_label
_atom_site_type_symbol
_atom_site_fract_x
_atom_site_fract_y
_atom_site_fract_z
S1 S 1.42726(6) 0.42216(5) -0.31802(5)
F1 F 1.42863(17) 0.32259(14) -0.40519(12)
F2 F 1.31534(17) 0.49623(14) -0.38799(14)
F3 F 1.03207(16) 0.26777(14) 0.08755(12)
F4 F 0.81168(18) 0.28096(14) 0.14607(12)
O1 O 0.93550(17) 0.18008(14) -0.10681(13)
F5 F 0.89959(18) 0.11099(13) 0.10186(12)
F6 F 1.55106(16) 0.35328(18) -0.25212(14)
O2 O 0.57870(18) 0.37110(15) -0.00232(14)
F7 F 1.55493(17) 0.48520(15) -0.38062(15)
O3 O 0.67883(17) 0.54469(14) -0.05083(14)
H1 H 0.5987 0.5709 -0.0337
F8 F 1.43795(19) 0.52735(16) -0.23368(15)
C1 C 1.2876(3) 0.2302(2) -0.2283(2)
H2 H 1.3681 0.1865 -0.2502
C2 C 1.2829(2) 0.3519(2) -0.24555(18)
C3 C 1.1724(3) 0.1745(2) -0.1784(2)
H3 H 1.1746 0.0932 -0.1671
C4 C 1.0514(2) 0.3638(2) -0.15869(18)
C5 C 0.8196(2) 0.3715(2) -0.06712(18)
C6 C 0.9226(2) 0.4276(2) -0.12242(18)
H4 H 0.9120 0.5076 -0.1378
C7 C 1.1662(2) 0.4192(2) -0.21072(18)
H5 H 1.1646 0.5005 -0.2220
C8 C 0.6810(3) 0.4291(2) -0.03650(19)
C9 C 0.8373(3) 0.2422(2) -0.03845(19)
H6 H 0.7406 0.2044 -0.0443
C10 C 0.8955(3) 0.2257(2) 0.0750(2)
C11 C 1.0541(2) 0.2407(2) -0.14552(19)
loop_
_geom_bond_atom_site_label_1
_geom_bond_atom_site_label_2
_geom_bond_site_symmetry_1
_geom_bond_site_symmetry_2
S1 F1 1_555 1_555
F2 S1 1_555 1_555
F3 C10 1_555 1_555
F4 C10 1_555 1_555
O1 C9 1_555 1_555
F5 C10 1_555 1_555
F6 S1 1_555 1_555
O2 C8 1_555 1_555
F7 S1 1_555 1_555
O3 H1 1_555 1_555
F8 S1 1_555 1_555
C1 H2 1_555 1_555
C2 S1 1_555 1_555
C3 C1 1_555 1_555
H3 C3 1_555 1_555
C4 C6 1_555 1_555
C5 C6 1_555 1_555
C6 H4 1_555 1_555
C7 C2 1_555 1_555
H5 C7 1_555 1_555
C8 O3 1_555 1_555
C9 C5 1_555 1_555
H6 C9 1_555 1_555
C10 C9 1_555 1_555
C11 O1 1_555 1_555
C1 C2 1_555 1_555
C3 C11 1_555 1_555
C4 C7 1_555 1_555
C4 C11 1_555 1_555
C5 C8 1_555 1_555

#END
