
#######################################################################
#
#                 Cambridge Crystallographic Data Centre
#                                CCDC 
#
#######################################################################
#
# If this CIF has been generated from an entry in the Cambridge 
# Structural Database, then it will include bibliographic, chemical, 
# crystal, experimental, refinement or atomic coordinate data resulting 
# from the CCDC's data processing and validation procedures.
#
#######################################################################

data_RAZPOX
_chemical_formula_moiety         'C14 H16 P1 1+,C18 H26 Li1 1-'
_chemical_name_systematic        
'Dimethyldiphenylphosphonium bis(\h^5^-t-butyl-cyclopentadienyl)-lithium'
_symmetry_cell_setting           triclinic
_symmetry_space_group_name_H-M   'P -1'
_symmetry_Int_Tables_number      2
_space_group_name_Hall           '-P 1'
loop_
_symmetry_equiv_pos_site_id
_symmetry_equiv_pos_as_xyz
1 x,y,z
2 -x,-y,-z
_cell_length_a                   8.409(1)
_cell_length_b                   12.554(1)
_cell_length_c                   14.282(2)
_cell_angle_alpha                92.09(1)
_cell_angle_beta                 92.87(1)
_cell_angle_gamma                103.04(2)
_cell_volume                     1465.21
_exptl_crystal_colour            colorless
_chemical_melting_point          170-172deg.C(dec)
_cell_formula_units_Z            2
loop_
_atom_site_label
_atom_site_type_symbol
_atom_site_fract_x
_atom_site_fract_y
_atom_site_fract_z
P1 P 0.8489(1) 0.32338(8) 0.65474(7)
C19 C 0.6566(5) 0.2325(3) 0.6254(3)
C20 C 0.8356(5) 0.4579(3) 0.6231(3)
C21 C 1.0047(4) 0.2847(3) 0.5893(2)
C22 C 1.1573(5) 0.3557(3) 0.5905(3)
C23 C 1.2767(5) 0.3305(4) 0.5378(3)
C24 C 1.2471(6) 0.2350(4) 0.4832(3)
C25 C 1.0984(7) 0.1647(4) 0.4827(3)
C26 C 0.9760(5) 0.1879(3) 0.5349(3)
C27 C 0.8986(4) 0.3238(3) 0.7777(3)
C28 C 0.8302(5) 0.2358(3) 0.8291(3)
C29 C 0.8735(7) 0.2354(4) 0.9234(4)
C30 C 0.9861(6) 0.3215(5) 0.9663(3)
C31 C 1.0547(6) 0.4090(4) 0.9150(4)
C32 C 1.0122(5) 0.4112(3) 0.8218(3)
H9 H 1.1792 0.4221 0.6279
H10 H 1.3810 0.3795 0.5390
H11 H 1.3297 0.2183 0.4461
H12 H 1.0784 0.0981 0.4456
H13 H 0.8725 0.1379 0.5336
H14 H 0.7530 0.1754 0.7995
H15 H 0.8251 0.1751 0.9587
H16 H 1.0167 0.3208 1.0312
H17 H 1.1329 0.4687 0.9449
H18 H 1.0600 0.4723 0.7872
H37 H 0.5752 0.2541 0.6606
H38 H 0.6292 0.2348 0.5603
H39 H 0.6626 0.1602 0.6397
H40 H 0.9378 0.5076 0.6380
H41 H 0.8088 0.4573 0.5576
H42 H 0.7533 0.4803 0.6569
C1 C 1.3839(5) -0.0094(3) 0.6513(3)
C2 C 1.5208(5) -0.0438(3) 0.6230(3)
C3 C 1.6202(5) -0.0478(3) 0.7025(3)
C4 C 1.5426(5) -0.0167(3) 0.7802(3)
C5 C 1.3941(4) 0.0079(2) 0.7490(3)
C6 C 1.2760(5) 0.0504(3) 0.8091(3)
C7 C 1.1032(7) 0.0064(6) 0.7717(5)
C8 C 1.3085(7) 0.1734(4) 0.8082(4)
C9 C 1.2897(10) 0.0196(6) 0.9091(4)
C10 C 1.2555(5) -0.3177(3) 0.8016(3)
C11 C 1.1519(5) -0.3063(3) 0.7250(4)
C12 C 1.2201(7) -0.3353(3) 0.6439(3)
C13 C 1.3655(6) -0.3643(3) 0.6700(3)
C14 C 1.3891(5) -0.3541(3) 0.7689(3)
C15 C 1.5275(5) -0.3820(3) 0.8268(3)
C16 C 1.6922(5) -0.3263(4) 0.7898(4)
C17 C 1.5133(6) -0.5062(4) 0.8211(4)
C18 C 1.5261(7) -0.3454(5) 0.9297(4)
Li1 Li 1.3848(8) -0.1783(5) 0.7129(5)
H1 H 1.2965 0.0008 0.6104
H2 H 1.5423 -0.0613 0.5603
H3 H 1.7225 -0.0681 0.7040
H4 H 1.5837 -0.0129 0.8437
H5 H 1.2381 -0.3032 0.8656
H6 H 1.0523 -0.2829 0.7278
H7 H 1.1752 -0.3352 0.5815
H8 H 1.4372 -0.3871 0.6283
H19 H 1.0312 0.0336 0.8105
H20 H 1.0903 0.0290 0.7096
H21 H 1.0783 -0.0713 0.7713
H22 H 1.4164 0.2042 0.8336
H23 H 1.2974 0.1947 0.7455
H24 H 1.2322 0.1987 0.8450
H25 H 1.2120 0.0459 0.9439
H26 H 1.2691 -0.0579 0.9113
H27 H 1.3967 0.0510 0.9354
H28 H 1.7784 -0.3449 0.8267
H29 H 1.6963 -0.3503 0.7263
H30 H 1.7042 -0.2492 0.7936
H31 H 1.4121 -0.5423 0.8442
H32 H 1.5180 -0.5302 0.7577
H33 H 1.6008 -0.5230 0.8580
H34 H 1.6137 -0.3648 0.9645
H35 H 1.5385 -0.2682 0.9348
H36 H 1.4253 -0.3802 0.9538
loop_
_geom_bond_atom_site_label_1
_geom_bond_atom_site_label_2
_geom_bond_site_symmetry_1
_geom_bond_site_symmetry_2
P1 C19 1_555 1_555
C1 C2 1_555 1_555
C2 C3 1_555 1_555
C3 C4 1_555 1_555
C4 C5 1_555 1_555
C5 C1 1_555 1_555
C6 C5 1_555 1_555
C7 C6 1_555 1_555
C8 C6 1_555 1_555
C9 C6 1_555 1_555
C10 C11 1_555 1_555
C11 C12 1_555 1_555
C12 C13 1_555 1_555
C13 C14 1_555 1_555
C14 C10 1_555 1_555
C15 C14 1_555 1_555
C16 C15 1_555 1_555
C17 C15 1_555 1_555
C18 C15 1_555 1_555
C19 H37 1_555 1_555
C20 P1 1_555 1_555
C21 P1 1_555 1_555
C22 C21 1_555 1_555
C23 C22 1_555 1_555
C24 C23 1_555 1_555
C25 C24 1_555 1_555
C26 C21 1_555 1_555
C27 P1 1_555 1_555
C28 C27 1_555 1_555
C29 C28 1_555 1_555
C30 C29 1_555 1_555
C31 C30 1_555 1_555
C32 C27 1_555 1_555
Li1 C1 1_555 1_555
H1 C1 1_555 1_555
H2 C2 1_555 1_555
H3 C3 1_555 1_555
H4 C4 1_555 1_555
H5 C10 1_555 1_555
H6 C11 1_555 1_555
H7 C12 1_555 1_555
H8 C13 1_555 1_555
H9 C22 1_555 1_555
H10 C23 1_555 1_555
H11 C24 1_555 1_555
H12 C25 1_555 1_555
H13 C26 1_555 1_555
H14 C28 1_555 1_555
H15 C29 1_555 1_555
H16 C30 1_555 1_555
H17 C31 1_555 1_555
H18 C32 1_555 1_555
H19 C7 1_555 1_555
H20 C7 1_555 1_555
H21 C7 1_555 1_555
H22 C8 1_555 1_555
H23 C8 1_555 1_555
H24 C8 1_555 1_555
H25 C9 1_555 1_555
H26 C9 1_555 1_555
H27 C9 1_555 1_555
H28 C16 1_555 1_555
H29 C16 1_555 1_555
H30 C16 1_555 1_555
H31 C17 1_555 1_555
H32 C17 1_555 1_555
H33 C17 1_555 1_555
H34 C18 1_555 1_555
H35 C18 1_555 1_555
H36 C18 1_555 1_555
H38 C19 1_555 1_555
H39 C19 1_555 1_555
H40 C20 1_555 1_555
H41 C20 1_555 1_555
H42 C20 1_555 1_555
C2 Li1 1_555 1_555
C3 Li1 1_555 1_555
C4 Li1 1_555 1_555
C5 Li1 1_555 1_555
C10 Li1 1_555 1_555
C11 Li1 1_555 1_555
C12 Li1 1_555 1_555
C13 Li1 1_555 1_555
C14 Li1 1_555 1_555
C25 C26 1_555 1_555
C31 C32 1_555 1_555

#END
