
#######################################################################
#
#                 Cambridge Crystallographic Data Centre
#                                CCDC 
#
#######################################################################
#
# If this CIF has been generated from an entry in the Cambridge 
# Structural Database, then it will include bibliographic, chemical, 
# crystal, experimental, refinement or atomic coordinate data resulting 
# from the CCDC's data processing and validation procedures.
#
#######################################################################

data_RAZYUN
_chemical_formula_moiety         'C13 H12 F2 N4 S1'
_chemical_name_systematic        
6-(2,4-Difluorophenyl)-3-propyl-7H-1,2,4-triazolo(3,4-b)(1,3,4)thiadiazine
_symmetry_cell_setting           monoclinic
_symmetry_space_group_name_H-M   'P 21/c'
_symmetry_Int_Tables_number      14
_space_group_name_Hall           '-P 2ybc'
loop_
_symmetry_equiv_pos_site_id
_symmetry_equiv_pos_as_xyz
1 x,y,z
2 -x,1/2+y,1/2-z
3 -x,-y,-z
4 x,1/2-y,1/2+z
_cell_length_a                   12.6930(14)
_cell_length_b                   14.5268(16)
_cell_length_c                   7.2715(8)
_cell_angle_alpha                90
_cell_angle_beta                 100.667(2)
_cell_angle_gamma                90
_cell_volume                     1317.61
_exptl_crystal_colour            colorless
_exptl_crystal_description       plate
_cell_formula_units_Z            4
_exptl_crystal_recrystallization_method '95% ethanol'
loop_
_atom_site_label
_atom_site_type_symbol
_atom_site_fract_x
_atom_site_fract_y
_atom_site_fract_z
S1 S 0.53450(6) 0.82851(6) 0.20194(12)
F1 F -0.03189(19) 0.58687(17) 0.1204(4)
N1 N 0.30719(19) 0.90677(16) 0.2227(3)
N2 N 0.39521(19) 0.96393(15) 0.2331(3)
N3 N 0.5616(2) 1.01362(18) 0.2750(4)
N4 N 0.4937(2) 1.08668(18) 0.3037(4)
F2 F 0.09515(15) 0.88649(13) 0.1293(3)
C1 C 0.0517(3) 0.6450(3) 0.1219(5)
C2 C 0.0326(3) 0.7371(3) 0.1277(5)
H1 H -0.0358 0.7594 0.1301
C3 C 0.1173(2) 0.7959(2) 0.1300(4)
C4 C 0.2211(2) 0.76568(19) 0.1292(4)
C5 C 0.2342(2) 0.6706(2) 0.1213(4)
H2 H 0.3020 0.6474 0.1175
C6 C 0.1511(3) 0.6099(2) 0.1188(5)
H3 H 0.1622 0.5467 0.1152
C7 C 0.3134(2) 0.8292(2) 0.1401(4)
C8 C 0.4077(2) 0.8017(2) 0.0528(4)
H4 H 0.4033 0.8335 -0.0657
H5 H 0.4043 0.7361 0.0276
C9 C 0.5001(2) 0.9420(2) 0.2338(4)
C10 C 0.3956(3) 1.0553(2) 0.2803(4)
C11 C 0.2974(3) 1.1077(2) 0.2951(5)
H6 H 0.3150 1.1536 0.3927
H7 H 0.2455 1.0659 0.3321
C12 C 0.2460(3) 1.1557(2) 0.1129(6)
H8 H 0.1863 1.1928 0.1367
H9 H 0.2982 1.1971 0.0756
C13 C 0.2061(3) 1.0914(3) -0.0464(6)
H10 H 0.2641 1.0535 -0.0697
H11 H 0.1782 1.1264 -0.1566
H12 H 0.1504 1.0531 -0.0146
loop_
_geom_bond_atom_site_label_1
_geom_bond_atom_site_label_2
_geom_bond_site_symmetry_1
_geom_bond_site_symmetry_2
S1 C8 1_555 1_555
F1 C1 1_555 1_555
N1 N2 1_555 1_555
N2 C9 1_555 1_555
N3 N4 1_555 1_555
N4 C10 1_555 1_555
F2 C3 1_555 1_555
C1 C2 1_555 1_555
C2 H1 1_555 1_555
C3 C2 1_555 1_555
C4 C3 1_555 1_555
C5 C4 1_555 1_555
H2 C5 1_555 1_555
C6 C1 1_555 1_555
H3 C6 1_555 1_555
C7 N1 1_555 1_555
C8 C7 1_555 1_555
H4 C8 1_555 1_555
H5 C8 1_555 1_555
C9 S1 1_555 1_555
C10 N2 1_555 1_555
C11 C10 1_555 1_555
H6 C11 1_555 1_555
H7 C11 1_555 1_555
C12 C11 1_555 1_555
H8 C12 1_555 1_555
H9 C12 1_555 1_555
C13 C12 1_555 1_555
H10 C13 1_555 1_555
H11 C13 1_555 1_555
H12 C13 1_555 1_555
N3 C9 1_555 1_555
C4 C7 1_555 1_555
C5 C6 1_555 1_555

#END
