
#######################################################################
#
#                 Cambridge Crystallographic Data Centre
#                                CCDC 
#
#######################################################################
#
# If this CIF has been generated from an entry in the Cambridge 
# Structural Database, then it will include bibliographic, chemical, 
# crystal, experimental, refinement or atomic coordinate data resulting 
# from the CCDC's data processing and validation procedures.
#
#######################################################################

data_REBDUA
_chemical_formula_moiety         'C28 H24 N2 O4 S1'
_chemical_name_systematic        
'ethyl 2-amino-4-benzoyl-6,6a-diphenyl-5-thioxo-4,5,6,6a-tetrahydro-3aH-furo[2,3-b]pyrrole-3-carboxylate'
_symmetry_cell_setting           orthorhombic
_symmetry_space_group_name_H-M   'P 21 21 21'
_symmetry_Int_Tables_number      19
_space_group_name_Hall           'P 2ac 2ab'
loop_
_symmetry_equiv_pos_site_id
_symmetry_equiv_pos_as_xyz
1 x,y,z
2 1/2-x,-y,1/2+z
3 -x,1/2+y,1/2-z
4 1/2+x,1/2-y,-z
_cell_length_a                   10.859(3)
_cell_length_b                   12.130(3)
_cell_length_c                   18.229(5)
_cell_angle_alpha                90
_cell_angle_beta                 90
_cell_angle_gamma                90
_cell_volume                     2401.12
_exptl_crystal_colour            colorless
_exptl_crystal_description       Plate
_chemical_melting_point          '192-194 deg.C'
_cell_formula_units_Z            4
loop_
_atom_site_label
_atom_site_type_symbol
_atom_site_fract_x
_atom_site_fract_y
_atom_site_fract_z
S1 S 0.13550(7) 0.23572(6) 0.39510(5)
O1 O 0.45938(17) 0.14971(14) 0.22747(9)
O2 O 0.35802(17) 0.48918(15) 0.36554(10)
O3 O 0.29712(19) 0.30857(16) 0.04704(10)
O4 O 0.28710(19) 0.45557(14) 0.12339(10)
N1 N 0.35735(19) 0.19840(16) 0.33729(11)
N2 N 0.4078(3) 0.1175(2) 0.10865(15)
C1 C 0.2641(2) 0.35599(19) 0.28876(14)
H1 H 0.1941 0.3556 0.2549
C2 C 0.3847(2) 0.33612(18) 0.24581(13)
H2 H 0.4380 0.4013 0.2461
C3 C 0.4478(2) 0.2353(2) 0.28324(13)
C4 C 0.2538(2) 0.2595(2) 0.34137(15)
C5 C 0.4078(2) 0.1883(2) 0.16461(14)
C6 C 0.3643(2) 0.29325(19) 0.16938(13)
C7 C 0.2641(2) 0.46289(19) 0.33318(14)
C8 C 0.1522(2) 0.5335(2) 0.33645(14)
C9 C 0.0441(3) 0.5100(2) 0.29915(17)
H3 H 0.0386 0.4467 0.2706
C10 C -0.0560(3) 0.5810(3) 0.30440(19)
H4 H -0.1284 0.5650 0.2793
C11 C -0.0482(3) 0.6747(3) 0.34655(17)
H5 H -0.1153 0.7221 0.3498
C12 C 0.0591(3) 0.6988(2) 0.38422(16)
H6 H 0.0642 0.7625 0.4125
C13 C 0.1587(3) 0.6282(2) 0.37984(14)
H7 H 0.2303 0.6438 0.4059
C14 C 0.3148(2) 0.3497(2) 0.10747(14)
C15 C 0.2381(3) 0.5225(2) 0.06389(17)
H8 H 0.2745 0.4993 0.0178
H9 H 0.2596 0.5992 0.0719
C16 C 0.1018(3) 0.5113(4) 0.0597(2)
H10 H 0.0703 0.5604 0.0229
H11 H 0.0663 0.5296 0.1064
H12 H 0.0809 0.4368 0.0472
C17 C 0.5738(2) 0.2568(2) 0.31551(13)
C18 C 0.6794(2) 0.2243(2) 0.27920(15)
H13 H 0.6735 0.1829 0.2364
C19 C 0.7943(2) 0.2532(2) 0.30638(16)
H14 H 0.8649 0.2313 0.2814
C20 C 0.8049(2) 0.3138(2) 0.36991(16)
H15 H 0.8822 0.3335 0.3876
C21 C 0.6992(2) 0.3453(2) 0.40741(15)
H16 H 0.7057 0.3855 0.4507
C22 C 0.5845(2) 0.3171(2) 0.38050(14)
H17 H 0.5140 0.3383 0.4058
C23 C 0.3731(2) 0.0965(2) 0.37737(14)
C24 C 0.3357(3) -0.0015(2) 0.34530(17)
H18 H 0.3048 -0.0018 0.2977
C25 C 0.3446(3) -0.0985(2) 0.38449(18)
H19 H 0.3192 -0.1645 0.3633
C26 C 0.3909(3) -0.0983(2) 0.45498(17)
H20 H 0.3951 -0.1636 0.4816
C27 C 0.4309(3) -0.0008(2) 0.48596(16)
H21 H 0.4640 -0.0007 0.5330
C28 C 0.4219(3) 0.0972(2) 0.44691(15)
H22 H 0.4486 0.1629 0.4677
H23 H 0.379(3) 0.144(3) 0.0672(19)
H24 H 0.454(3) 0.060(3) 0.1099(19)
loop_
_geom_bond_atom_site_label_1
_geom_bond_atom_site_label_2
_geom_bond_site_symmetry_1
_geom_bond_site_symmetry_2
S1 C4 1_555 1_555
O1 C3 1_555 1_555
O2 C7 1_555 1_555
O3 C14 1_555 1_555
O4 C14 1_555 1_555
N1 C3 1_555 1_555
N2 C5 1_555 1_555
C1 H1 1_555 1_555
C2 C1 1_555 1_555
H2 C2 1_555 1_555
C3 C2 1_555 1_555
C4 N1 1_555 1_555
C5 O1 1_555 1_555
C6 C2 1_555 1_555
C7 C1 1_555 1_555
C8 C7 1_555 1_555
C9 C8 1_555 1_555
H3 C9 1_555 1_555
C10 C9 1_555 1_555
H4 C10 1_555 1_555
C11 C10 1_555 1_555
H5 C11 1_555 1_555
C12 C11 1_555 1_555
H6 C12 1_555 1_555
C13 C8 1_555 1_555
H7 C13 1_555 1_555
C14 C6 1_555 1_555
C15 O4 1_555 1_555
H8 C15 1_555 1_555
H9 C15 1_555 1_555
C16 C15 1_555 1_555
H10 C16 1_555 1_555
H11 C16 1_555 1_555
H12 C16 1_555 1_555
C17 C3 1_555 1_555
C18 C17 1_555 1_555
H13 C18 1_555 1_555
C19 C18 1_555 1_555
H14 C19 1_555 1_555
C20 C19 1_555 1_555
H15 C20 1_555 1_555
C21 C20 1_555 1_555
H16 C21 1_555 1_555
C22 C17 1_555 1_555
H17 C22 1_555 1_555
C23 N1 1_555 1_555
C24 C23 1_555 1_555
H18 C24 1_555 1_555
C25 C24 1_555 1_555
H19 C25 1_555 1_555
C26 C25 1_555 1_555
H20 C26 1_555 1_555
C27 C26 1_555 1_555
H21 C27 1_555 1_555
C28 C23 1_555 1_555
H22 C28 1_555 1_555
H23 N2 1_555 1_555
H24 N2 1_555 1_555
C1 C4 1_555 1_555
C5 C6 1_555 1_555
C12 C13 1_555 1_555
C21 C22 1_555 1_555
C27 C28 1_555 1_555

#END
