
#######################################################################
#
#                 Cambridge Crystallographic Data Centre
#                                CCDC 
#
#######################################################################
#
# If this CIF has been generated from an entry in the Cambridge 
# Structural Database, then it will include bibliographic, chemical, 
# crystal, experimental, refinement or atomic coordinate data resulting 
# from the CCDC's data processing and validation procedures.
#
#######################################################################

data_REBNET
_chemical_formula_moiety         'C17 H14 O5'
_chemical_name_systematic        
'Ethyl 6-methyl-4-oxo-3-phenyl-4H-furo[3,2-c]pyran-2-carboxylate'
_symmetry_cell_setting           triclinic
_symmetry_space_group_name_H-M   'P -1'
_symmetry_Int_Tables_number      2
_space_group_name_Hall           '-P 1'
loop_
_symmetry_equiv_pos_site_id
_symmetry_equiv_pos_as_xyz
1 x,y,z
2 -x,-y,-z
_cell_length_a                   8.623(16)
_cell_length_b                   11.22(2)
_cell_length_c                   16.14(3)
_cell_angle_alpha                96.13(2)
_cell_angle_beta                 92.70(2)
_cell_angle_gamma                109.62(2)
_cell_volume                     1456.72
_cell_formula_units_Z            4
loop_
_atom_site_label
_atom_site_type_symbol
_atom_site_fract_x
_atom_site_fract_y
_atom_site_fract_z
O1 O 0.2404(2) -0.19823(14) 0.32138(10)
O2 O 0.5269(2) 0.16665(14) 0.39078(9)
O3 O 0.3324(2) -0.19394(16) 0.19578(10)
O4 O 0.8334(2) 0.34237(14) 0.27049(10)
O5 O 0.7334(3) 0.40883(16) 0.38440(11)
C1 C 0.2289(3) -0.1443(2) 0.40021(14)
C2 C 0.3417(3) -0.1341(2) 0.26252(14)
C3 C 0.4425(3) -0.0043(2) 0.29418(13)
C4 C 0.5588(3) 0.0973(2) 0.25710(13)
C5 C 0.6078(3) 0.1977(2) 0.31938(13)
C6 C 0.4278(3) 0.0431(2) 0.37345(14)
C7 C 0.3202(3) -0.0241(2) 0.42906(15)
H1 H 0.3134 0.0131 0.4824
C8 C 0.1034(3) -0.2354(3) 0.44476(17)
H2 H 0.0903 -0.1923 0.4972
H3 H 0.1395 -0.3052 0.4547
H4 H -0.0003 -0.2673 0.4111
C9 C 0.6093(3) 0.09477(19) 0.17135(13)
C10 C 0.6579(3) -0.0043(2) 0.13642(14)
H5 H 0.6544 -0.0711 0.1667
C11 C 0.7110(3) -0.0047(2) 0.05749(16)
H6 H 0.7460 -0.0703 0.0353
C12 C 0.7126(3) 0.0919(2) 0.01099(15)
H7 H 0.7481 0.0910 -0.0425
C13 C 0.6619(3) 0.1893(2) 0.04368(14)
H8 H 0.6624 0.2541 0.0122
C14 C 0.6103(3) 0.1911(2) 0.12319(14)
H9 H 0.5758 0.2572 0.1450
C15 C 0.7287(3) 0.3270(2) 0.32925(14)
C16 C 0.9493(3) 0.4698(2) 0.26723(17)
H10 H 1.0240 0.4987 0.3178
H11 H 0.8904 0.5291 0.2623
C17 C 1.0435(4) 0.4636(3) 0.19310(18)
H12 H 1.0960 0.4011 0.1971
H13 H 1.1260 0.5455 0.1912
H14 H 0.9693 0.4401 0.1431
O6 O 0.3536(2) 0.42174(14) 0.32028(10)
O7 O 0.6457(2) 0.78601(14) 0.38977(9)
O8 O 0.4603(2) 0.42228(15) 0.19841(11)
O9 O 0.9436(2) 0.96502(14) 0.26456(10)
O10 O 0.8580(3) 1.02456(17) 0.38536(12)
C18 C 0.3403(3) 0.4766(2) 0.39819(14)
C19 C 0.4598(3) 0.4841(2) 0.26316(14)
C20 C 0.5547(3) 0.6153(2) 0.29334(13)
C21 C 0.6814(3) 0.71206(19) 0.25812(13)
C22 C 0.7331(3) 0.8134(2) 0.31954(13)
C23 C 0.5388(3) 0.6645(2) 0.37113(13)
C24 C 0.4305(3) 0.5974(2) 0.42706(15)
H15 H 0.4228 0.6350 0.4802
C25 C 0.2174(4) 0.3839(3) 0.44321(17)
H16 H 0.2154 0.4229 0.4989
H17 H 0.2479 0.3095 0.4459
H18 H 0.1098 0.3597 0.4138
C26 C 0.7307(3) 0.69876(19) 0.17218(13)
C27 C 0.6115(3) 0.6632(2) 0.10489(14)
H19 H 0.5015 0.6495 0.1140
C28 C 0.6554(4) 0.6482(2) 0.02516(16)
H20 H 0.5754 0.6263 -0.0199
C29 C 0.8173(5) 0.6654(3) 0.0111(2)
H21 H 0.8462 0.6545 -0.0432
C30 C 0.9354(4) 0.6984(3) 0.0771(2)
H22 H 1.0443 0.7086 0.0675
C31 C 0.8940(3) 0.7166(2) 0.15750(16)
H23 H 0.9753 0.7408 0.2021
C32 C 0.8502(3) 0.9449(2) 0.32805(14)
C33 C 1.0537(3) 1.0952(2) 0.26209(17)
H24 H 1.1377 1.1212 0.3089
H25 H 0.9917 1.1532 0.2655
C34 C 1.1321(3) 1.0979(3) 0.18149(19)
H26 H 1.1908 1.0387 0.1782
H27 H 1.2077 1.1823 0.1788
H28 H 1.0481 1.0743 0.1356
loop_
_geom_bond_atom_site_label_1
_geom_bond_atom_site_label_2
_geom_bond_site_symmetry_1
_geom_bond_site_symmetry_2
O1 C1 1_555 1_555
O2 C5 1_555 1_555
O3 C2 1_555 1_555
O4 C15 1_555 1_555
O5 C15 1_555 1_555
C1 C7 1_555 1_555
C2 O1 1_555 1_555
C3 C2 1_555 1_555
C4 C3 1_555 1_555
C5 C4 1_555 1_555
C6 O2 1_555 1_555
C7 C6 1_555 1_555
H1 C7 1_555 1_555
C8 C1 1_555 1_555
H2 C8 1_555 1_555
H3 C8 1_555 1_555
H4 C8 1_555 1_555
C9 C4 1_555 1_555
C10 C9 1_555 1_555
H5 C10 1_555 1_555
C11 C10 1_555 1_555
H6 C11 1_555 1_555
C12 C11 1_555 1_555
H7 C12 1_555 1_555
C13 C12 1_555 1_555
H8 C13 1_555 1_555
C14 C9 1_555 1_555
H9 C14 1_555 1_555
C15 C5 1_555 1_555
C16 O4 1_555 1_555
H10 C16 1_555 1_555
H11 C16 1_555 1_555
C17 C16 1_555 1_555
H12 C17 1_555 1_555
H13 C17 1_555 1_555
H14 C17 1_555 1_555
O6 C18 1_555 1_555
O7 C22 1_555 1_555
O8 C19 1_555 1_555
O9 C32 1_555 1_555
O10 C32 1_555 1_555
C18 C24 1_555 1_555
C19 O6 1_555 1_555
C20 C19 1_555 1_555
C21 C20 1_555 1_555
C22 C21 1_555 1_555
C23 O7 1_555 1_555
C24 C23 1_555 1_555
H15 C24 1_555 1_555
C25 C18 1_555 1_555
H16 C25 1_555 1_555
H17 C25 1_555 1_555
H18 C25 1_555 1_555
C26 C21 1_555 1_555
C27 C26 1_555 1_555
H19 C27 1_555 1_555
C28 C27 1_555 1_555
H20 C28 1_555 1_555
C29 C28 1_555 1_555
H21 C29 1_555 1_555
C30 C29 1_555 1_555
H22 C30 1_555 1_555
C31 C26 1_555 1_555
H23 C31 1_555 1_555
C32 C22 1_555 1_555
C33 O9 1_555 1_555
H24 C33 1_555 1_555
H25 C33 1_555 1_555
C34 C33 1_555 1_555
H26 C34 1_555 1_555
H27 C34 1_555 1_555
H28 C34 1_555 1_555
C3 C6 1_555 1_555
C13 C14 1_555 1_555
C20 C23 1_555 1_555
C30 C31 1_555 1_555

#END
