
#######################################################################
#
#                 Cambridge Crystallographic Data Centre
#                                CCDC 
#
#######################################################################
#
# If this CIF has been generated from an entry in the Cambridge 
# Structural Database, then it will include bibliographic, chemical, 
# crystal, experimental, refinement or atomic coordinate data resulting 
# from the CCDC's data processing and validation procedures.
#
#######################################################################

data_RECMAQ
_chemical_name_common            
'resveratrol tris(piperine) acetonitrile solvate monohydrate'
_chemical_formula_moiety         'C14 H12 O3,3(C17 H19 N1 O3),C2 H3 N1,H2 O1'
_chemical_name_systematic        
'5-(2-(4-hydroxyphenyl)vinyl)benzene-1,3-diol tris(5-(1,3-benzodioxol-5-yl)-1-(piperidin-1-yl)penta-2,4-dien-1-one) acetonitrile solvate monohydrate'
_symmetry_cell_setting           monoclinic
_symmetry_space_group_name_H-M   'P 21/c'
_symmetry_Int_Tables_number      14
_space_group_name_Hall           '-P 2ybc'
loop_
_symmetry_equiv_pos_site_id
_symmetry_equiv_pos_as_xyz
1 x,y,z
2 -x,1/2+y,1/2-z
3 -x,-y,-z
4 x,1/2-y,1/2+z
_cell_length_a                   40.6077(14)
_cell_length_b                   8.7048(3)
_cell_length_c                   17.2621(6)
_cell_angle_alpha                90
_cell_angle_beta                 97.184(2)
_cell_angle_gamma                90
_cell_volume                     6053.94
_exptl_crystal_colour            colorless
_exptl_crystal_description       plate
_cell_formula_units_Z            4
loop_
_atom_site_label
_atom_site_type_symbol
_atom_site_fract_x
_atom_site_fract_y
_atom_site_fract_z
O1 O 0.09207(4) 1.47963(18) 0.25164(10)
H1 H 0.0736 1.5246 0.2463
C1 C 0.14235(6) 0.9796(3) 0.24003(13)
H2 H 0.1628 1.0328 0.2515
O2 O 0.25923(4) 0.4582(2) 0.28276(11)
H3 H 0.2547 0.3657 0.2726
O3 O 0.02140(4) 1.05106(18) 0.18507(9)
H4 H 0.0222 0.9557 0.1780
C2 C 0.08736(6) 1.3261(3) 0.23789(13)
C3 C 0.11530(6) 1.2321(3) 0.24514(13)
H5 H 0.1367 1.2755 0.2594
C4 C 0.11213(5) 1.0741(3) 0.23149(13)
C5 C 0.14424(6) 0.8273(3) 0.23350(13)
H6 H 0.1239 0.7738 0.2206
C6 C 0.17458(5) 0.7344(3) 0.24426(13)
C7 C 0.20594(5) 0.7955(3) 0.27047(13)
H7 H 0.2082 0.9027 0.2802
C8 C 0.23369(6) 0.7024(3) 0.28239(14)
H8 H 0.2547 0.7461 0.3002
C9 C 0.23105(6) 0.5450(3) 0.26844(14)
C10 C 0.05596(6) 1.2638(3) 0.21825(13)
H9 H 0.0368 1.3276 0.2142
C11 C 0.05289(5) 1.1070(3) 0.20456(12)
C12 C 0.08062(5) 1.0117(3) 0.21083(12)
H10 H 0.0781 0.9046 0.2011
C13 C 0.17262(6) 0.5765(3) 0.22944(13)
H11 H 0.1517 0.5325 0.2107
C14 C 0.20033(6) 0.4822(3) 0.24129(14)
H12 H 0.1983 0.3753 0.2309
O4 O 0.03500(4) 0.6263(2) 0.24625(11)
H13 H 0.0178(7) 0.602(3) 0.2657(16)
H14 H 0.0297(8) 0.675(4) 0.200(2)
O5 O 0.66610(5) 0.2364(3) 0.83484(14)
O6 O 0.45058(4) 0.2323(2) 1.01335(10)
O7 O 0.69233(5) 0.4672(3) 0.86768(13)
C15 C 0.69352(7) 0.3314(4) 0.8218(2)
H15 H 0.7146 0.2761 0.8370
H16 H 0.6922 0.3585 0.7658
C16 C 0.64578(6) 0.3277(3) 0.87329(16)
C17 C 0.61495(6) 0.2941(3) 0.89231(15)
H17 H 0.6047 0.1980 0.8789
C18 C 0.59888(6) 0.4074(3) 0.93264(14)
C19 C 0.56544(6) 0.3864(3) 0.95332(14)
H18 H 0.5573 0.4652 0.9839
C20 C 0.54490(6) 0.2683(3) 0.93395(14)
H19 H 0.5524 0.1870 0.9040
C21 C 0.51185(6) 0.2585(3) 0.95633(14)
H20 H 0.5046 0.3392 0.9872
C22 C 0.49088(6) 0.1435(3) 0.93645(15)
H21 H 0.4973 0.0629 0.9044
C23 C 0.45778(6) 0.1394(3) 0.96357(14)
N1 N 0.43615(5) 0.0284(2) 0.93477(12)
C24 C 0.40252(6) 0.0262(3) 0.95724(16)
H22 H 0.4018 0.0879 1.0052
H23 H 0.3962 -0.0806 0.9684
C25 C 0.37838(7) 0.0915(4) 0.89172(17)
H24 H 0.3837 0.2010 0.8839
H25 H 0.3556 0.0856 0.9061
C26 C 0.38007(8) 0.0038(4) 0.81639(19)
H26 H 0.3660 0.0557 0.7731
H27 H 0.3713 -0.1013 0.8215
C27 C 0.43880(7) -0.0662(3) 0.86580(17)
H28 H 0.4328 -0.1737 0.8764
H29 H 0.4620 -0.0649 0.8535
C28 C 0.41590(8) -0.0051(4) 0.79726(18)
H30 H 0.4168 -0.0731 0.7516
H31 H 0.4234 0.0985 0.7834
C29 C 0.61535(6) 0.5453(3) 0.95233(15)
H32 H 0.6045 0.6209 0.9798
C30 C 0.64713(6) 0.5768(3) 0.93330(16)
H33 H 0.6582 0.6707 0.9475
C31 C 0.66138(6) 0.4654(3) 0.89325(15)
O8 O 0.79799(4) 0.8937(2) 0.86321(10)
O9 O 0.76788(4) 1.0326(2) 0.94491(11)
O10 O 1.02169(4) 0.78636(19) 1.11543(9)
C32 C 1.08109(6) 0.5168(3) 0.92802(15)
H34 H 1.0982 0.5820 0.9085
H35 H 1.0852 0.4090 0.9136
C33 C 1.04685(6) 0.5664(3) 0.89050(15)
H36 H 1.0460 0.5635 0.8329
H37 H 1.0299 0.4944 0.9057
C34 C 1.03936(6) 0.7269(3) 0.91625(14)
H38 H 1.0555 0.7998 0.8982
H39 H 1.0169 0.7573 0.8924
N2 N 1.04126(5) 0.7340(2) 1.00205(11)
C35 C 1.01670(6) 0.7764(3) 1.04177(13)
C36 C 0.98344(6) 0.8093(3) 1.00106(13)
H40 H 0.9795 0.7992 0.9459
C37 C 0.95861(6) 0.8532(3) 1.04062(13)
H41 H 0.9635 0.8655 1.0955
C38 C 0.92506(6) 0.8832(3) 1.00593(14)
H42 H 0.9196 0.8714 0.9511
C39 C 0.90134(6) 0.9274(3) 1.04870(14)
H43 H 0.9081 0.9402 1.1030
C40 C 0.86639(6) 0.9581(3) 1.02191(13)
C41 C 0.85126(6) 0.9052(3) 0.94859(13)
H44 H 0.8634 0.8488 0.9145
C42 C 0.81830(6) 0.9391(3) 0.92897(14)
C43 C 0.76607(6) 0.9595(3) 0.87007(15)
H45 H 0.7602 1.0357 0.8280
H46 H 0.7489 0.8784 0.8655
C44 C 0.80031(6) 1.0212(3) 0.97803(15)
C45 C 0.81424(6) 1.0723(3) 1.05005(15)
H47 H 0.8017 1.1276 1.0838
C46 C 0.84761(6) 1.0386(3) 1.07070(14)
H48 H 0.8581 1.0719 1.1202
C47 C 1.08354(6) 0.5309(3) 1.01707(15)
H49 H 1.0686 0.4548 1.0371
H50 H 1.1065 0.5073 1.0404
C48 C 1.07425(6) 0.6909(3) 1.04183(15)
H51 H 1.0740 0.6934 1.0991
H52 H 1.0910 0.7657 1.0285
O11 O 0.47298(4) -0.0713(2) 0.36317(10)
O12 O 0.23952(4) 0.16414(19) 0.30346(10)
O13 O 0.49250(4) 0.0157(2) 0.25103(11)
C49 C 0.49985(6) -0.0861(3) 0.31684(16)
H53 H 0.5016 -0.1935 0.2988
H54 H 0.5211 -0.0571 0.3478
C50 C 0.44689(6) -0.0161(3) 0.31179(15)
C51 C 0.41417(6) -0.0069(3) 0.32265(15)
H55 H 0.4066 -0.0415 0.3695
C52 C 0.39210(6) 0.0563(3) 0.26117(15)
C53 C 0.35668(6) 0.0732(3) 0.26587(15)
H56 H 0.3436 0.1049 0.2192
C54 C 0.34016(6) 0.0499(3) 0.32735(15)
H57 H 0.3518 0.0108 0.3744
C55 C 0.30537(6) 0.0824(3) 0.32399(15)
H58 H 0.2943 0.1134 0.2748
C56 C 0.28702(6) 0.0738(3) 0.38270(15)
H59 H 0.2967 0.0391 0.4326
C57 C 0.25159(6) 0.1184(3) 0.36982(14)
N3 N 0.23259(5) 0.1075(2) 0.42807(12)
C58 C 0.24399(7) 0.0688(3) 0.50991(15)
H60 H 0.2424 0.1606 0.5431
H61 H 0.2675 0.0363 0.5150
C59 C 0.22301(7) -0.0599(3) 0.53745(15)
H62 H 0.2300 -0.0798 0.5936
H63 H 0.2267 -0.1550 0.5083
C60 C 0.18622(6) -0.0195(3) 0.52541(15)
H64 H 0.1820 0.0668 0.5602
H65 H 0.1731 -0.1089 0.5391
C61 C 0.17553(6) 0.0257(3) 0.44074(15)
H66 H 0.1522 0.0613 0.4350
H67 H 0.1768 -0.0653 0.4068
C62 C 0.19752(6) 0.1527(3) 0.41479(15)
H68 H 0.1911 0.1743 0.3586
H69 H 0.1942 0.2478 0.4443
C63 C 0.40439(7) 0.1080(3) 0.19366(15)
H70 H 0.3893 0.1502 0.1527
C64 C 0.43799(7) 0.0998(3) 0.18429(15)
H71 H 0.4462 0.1364 0.1385
C65 C 0.45850(6) 0.0361(3) 0.24475(15)
C66 C 0.29838(10) 0.8703(5) 0.9616(2)
H72 H 0.3190 0.8126 0.9595
H73 H 0.2904 0.9101 0.9096
H74 H 0.2815 0.8024 0.9792
C67 C 0.30455(9) 0.9954(5) 1.0150(2)
N4 N 0.30980(10) 1.0917(5) 1.0604(2)
loop_
_geom_bond_atom_site_label_1
_geom_bond_atom_site_label_2
_geom_bond_site_symmetry_1
_geom_bond_site_symmetry_2
O1 H1 1_555 1_555
C1 H2 1_555 1_555
O2 H3 1_555 1_555
O3 H4 1_555 1_555
C2 O1 1_555 1_555
C3 C2 1_555 1_555
H5 C3 1_555 1_555
C4 C1 1_555 1_555
C5 C1 1_555 1_555
H6 C5 1_555 1_555
C6 C5 1_555 1_555
C7 C6 1_555 1_555
H7 C7 1_555 1_555
C8 C7 1_555 1_555
H8 C8 1_555 1_555
C9 O2 1_555 1_555
C10 C2 1_555 1_555
H9 C10 1_555 1_555
C11 O3 1_555 1_555
C12 C4 1_555 1_555
H10 C12 1_555 1_555
C13 C6 1_555 1_555
H11 C13 1_555 1_555
C14 C9 1_555 1_555
H12 C14 1_555 1_555
O4 H13 1_555 1_555
H14 O4 1_555 1_555
O5 C15 1_555 1_555
O6 C23 1_555 1_555
O7 C15 1_555 1_555
C15 H15 1_555 1_555
H16 C15 1_555 1_555
C16 O5 1_555 1_555
C17 C16 1_555 1_555
H17 C17 1_555 1_555
C18 C17 1_555 1_555
C19 C18 1_555 1_555
H18 C19 1_555 1_555
C20 C19 1_555 1_555
H19 C20 1_555 1_555
C21 C20 1_555 1_555
H20 C21 1_555 1_555
C22 C21 1_555 1_555
H21 C22 1_555 1_555
C23 C22 1_555 1_555
N1 C23 1_555 1_555
C24 N1 1_555 1_555
H22 C24 1_555 1_555
H23 C24 1_555 1_555
C25 C24 1_555 1_555
H24 C25 1_555 1_555
H25 C25 1_555 1_555
C26 C25 1_555 1_555
H26 C26 1_555 1_555
H27 C26 1_555 1_555
C27 N1 1_555 1_555
H28 C27 1_555 1_555
H29 C27 1_555 1_555
C28 C26 1_555 1_555
H30 C28 1_555 1_555
H31 C28 1_555 1_555
C29 C18 1_555 1_555
H32 C29 1_555 1_555
C30 C29 1_555 1_555
H33 C30 1_555 1_555
C31 O7 1_555 1_555
O8 C42 1_555 1_555
O9 C43 1_555 1_555
O10 C35 1_555 1_555
C32 H34 1_555 1_555
H35 C32 1_555 1_555
C33 C32 1_555 1_555
H36 C33 1_555 1_555
H37 C33 1_555 1_555
C34 C33 1_555 1_555
H38 C34 1_555 1_555
H39 C34 1_555 1_555
N2 C34 1_555 1_555
C35 N2 1_555 1_555
C36 C35 1_555 1_555
H40 C36 1_555 1_555
C37 C36 1_555 1_555
H41 C37 1_555 1_555
C38 C37 1_555 1_555
H42 C38 1_555 1_555
C39 C38 1_555 1_555
H43 C39 1_555 1_555
C40 C39 1_555 1_555
C41 C40 1_555 1_555
H44 C41 1_555 1_555
C42 C41 1_555 1_555
C43 O8 1_555 1_555
H45 C43 1_555 1_555
H46 C43 1_555 1_555
C44 O9 1_555 1_555
C45 C44 1_555 1_555
H47 C45 1_555 1_555
C46 C40 1_555 1_555
H48 C46 1_555 1_555
C47 C32 1_555 1_555
H49 C47 1_555 1_555
H50 C47 1_555 1_555
C48 N2 1_555 1_555
H51 C48 1_555 1_555
H52 C48 1_555 1_555
O11 C49 1_555 1_555
O12 C57 1_555 1_555
O13 C49 1_555 1_555
C49 H53 1_555 1_555
H54 C49 1_555 1_555
C50 O11 1_555 1_555
C51 C50 1_555 1_555
H55 C51 1_555 1_555
C52 C51 1_555 1_555
C53 C52 1_555 1_555
H56 C53 1_555 1_555
C54 C53 1_555 1_555
H57 C54 1_555 1_555
C55 C54 1_555 1_555
H58 C55 1_555 1_555
C56 C55 1_555 1_555
H59 C56 1_555 1_555
C57 C56 1_555 1_555
N3 C57 1_555 1_555
C58 N3 1_555 1_555
H60 C58 1_555 1_555
H61 C58 1_555 1_555
C59 C58 1_555 1_555
H62 C59 1_555 1_555
H63 C59 1_555 1_555
C60 C59 1_555 1_555
H64 C60 1_555 1_555
H65 C60 1_555 1_555
C61 C60 1_555 1_555
H66 C61 1_555 1_555
H67 C61 1_555 1_555
C62 N3 1_555 1_555
H68 C62 1_555 1_555
H69 C62 1_555 1_555
C63 C52 1_555 1_555
H70 C63 1_555 1_555
C64 C63 1_555 1_555
H71 C64 1_555 1_555
C65 O13 1_555 1_555
C66 H72 1_555 1_555
H73 C66 1_555 1_555
H74 C66 1_555 1_555
C67 C66 1_555 1_555
N4 C67 1_555 1_555
C3 C4 1_555 1_555
C8 C9 1_555 1_555
C10 C11 1_555 1_555
C11 C12 1_555 1_555
C13 C14 1_555 1_555
C16 C31 1_555 1_555
C27 C28 1_555 1_555
C30 C31 1_555 1_555
C42 C44 1_555 1_555
C45 C46 1_555 1_555
C47 C48 1_555 1_555
C50 C65 1_555 1_555
C61 C62 1_555 1_555
C64 C65 1_555 1_555

#END
