
#######################################################################
#
#                 Cambridge Crystallographic Data Centre
#                                CCDC 
#
#######################################################################
#
# If this CIF has been generated from an entry in the Cambridge 
# Structural Database, then it will include bibliographic, chemical, 
# crystal, experimental, refinement or atomic coordinate data resulting 
# from the CCDC's data processing and validation procedures.
#
#######################################################################

data_REDGEO
_chemical_formula_moiety         'C26 H18 Br2 N2 Se2'
_chemical_name_systematic        
N,N'-(Diselane-1,2-diylbis(2,1-phenylenemethylylidene))bis(4-bromoaniline)
_symmetry_cell_setting           monoclinic
_symmetry_space_group_name_H-M   'P 21/c'
_symmetry_Int_Tables_number      14
_space_group_name_Hall           '-P 2ybc'
loop_
_symmetry_equiv_pos_site_id
_symmetry_equiv_pos_as_xyz
1 x,y,z
2 -x,1/2+y,1/2-z
3 -x,-y,-z
4 x,1/2-y,1/2+z
_cell_length_a                   9.8668(5)
_cell_length_b                   24.9479(12)
_cell_length_c                   9.4414(5)
_cell_angle_alpha                90
_cell_angle_beta                 90.834(3)
_cell_angle_gamma                90
_cell_volume                     2323.81
_exptl_crystal_colour            colorless
_exptl_crystal_description       plate
_cell_formula_units_Z            4
loop_
_atom_site_label
_atom_site_type_symbol
_atom_site_fract_x
_atom_site_fract_y
_atom_site_fract_z
Br1 Br 0.68003(5) -0.04718(2) 1.77171(5)
Se1 Se 0.46216(4) 0.150017(18) 0.84011(5)
Br2 Br -0.11627(5) 0.17963(2) 0.22769(5)
N1 N 0.3165(4) 0.21743(15) 0.6764(4)
Se2 Se 0.59120(4) 0.095465(18) 0.99676(5)
C1 C 0.1087(4) 0.15298(19) 0.4024(5)
H1 H 0.1023 0.1196 0.3590
C2 C 0.6222(4) -0.04059(18) 1.4753(5)
H2 H 0.5543 -0.0655 1.4931
C3 C 0.2058(4) 0.16257(18) 0.5059(5)
H3 H 0.2642 0.1351 0.5335
C4 C 0.0209(4) 0.19393(19) 0.3641(5)
C5 C 0.8798(4) 0.07426(18) 0.9875(5)
C6 C 0.1300(5) 0.25358(19) 0.5273(5)
H4 H 0.1382 0.2874 0.5679
C7 C 0.8095(5) 0.01327(19) 1.5589(5)
H5 H 0.8660 0.0246 1.6327
C8 C 0.5240(4) 0.22064(18) 0.8898(5)
C9 C 0.4710(4) 0.26622(18) 0.8206(5)
C10 C 0.7700(4) 0.09832(18) 0.9162(5)
C11 C 1.0096(4) 0.07959(18) 0.9316(5)
H6 H 1.0827 0.0637 0.9785
C12 C 0.5188(4) 0.31694(19) 0.8581(5)
H7 H 0.4835 0.3469 0.8121
C13 C 1.0315(4) 0.10797(18) 0.8080(5)
H8 H 1.1185 0.1113 0.7723
C14 C 0.6250(4) 0.22795(19) 0.9931(5)
H9 H 0.6629 0.1983 1.0381
C15 C 0.6695(4) 0.2787(2) 1.0292(5)
H10 H 0.7355 0.2828 1.0997
C16 C 0.2174(4) 0.21250(18) 0.5693(5)
C17 C 0.6398(4) -0.02058(18) 1.3400(5)
H11 H 0.5821 -0.0316 1.2668
C18 C 0.7930(4) 0.12669(18) 0.7917(5)
H12 H 0.7206 0.1427 0.7440
C19 C 0.8275(5) 0.0329(2) 1.4226(5)
H13 H 0.8961 0.0575 1.4051
C20 C 0.3687(4) 0.26246(18) 0.7088(5)
H14 H 0.3413 0.2932 0.6607
C21 C 0.0306(5) 0.24393(19) 0.4246(5)
H15 H -0.0288 0.2711 0.3971
C22 C 0.6169(5) 0.32366(19) 0.9616(5)
H16 H 0.6474 0.3578 0.9859
C23 C 0.9222(5) 0.13126(19) 0.7384(5)
H17 H 0.9357 0.1502 0.6549
C24 C 0.7073(5) -0.02302(19) 1.5839(5)
N2 N 0.7515(4) 0.03663(16) 1.1741(4)
C25 C 0.7429(4) 0.01587(18) 1.3125(5)
C26 C 0.8666(5) 0.04660(19) 1.1220(5)
H18 H 0.9444 0.0359 1.1711
loop_
_geom_bond_atom_site_label_1
_geom_bond_atom_site_label_2
_geom_bond_site_symmetry_1
_geom_bond_site_symmetry_2
Br1 C24 1_555 1_555
Se1 Se2 1_555 1_555
Br2 C4 1_555 1_555
N1 C16 1_555 1_555
Se2 C10 1_555 1_555
C1 H1 1_555 1_555
C2 H2 1_555 1_555
C3 C1 1_555 1_555
H3 C3 1_555 1_555
C4 C1 1_555 1_555
C5 C10 1_555 1_555
C6 H4 1_555 1_555
C7 H5 1_555 1_555
C8 Se1 1_555 1_555
C9 C8 1_555 1_555
C10 C18 1_555 1_555
C11 C5 1_555 1_555
H6 C11 1_555 1_555
C12 C9 1_555 1_555
H7 C12 1_555 1_555
C13 C11 1_555 1_555
H8 C13 1_555 1_555
C14 C8 1_555 1_555
H9 C14 1_555 1_555
C15 C14 1_555 1_555
H10 C15 1_555 1_555
C16 C3 1_555 1_555
C17 C2 1_555 1_555
H11 C17 1_555 1_555
C18 H12 1_555 1_555
C19 C7 1_555 1_555
H13 C19 1_555 1_555
C20 N1 1_555 1_555
H14 C20 1_555 1_555
C21 C4 1_555 1_555
H15 C21 1_555 1_555
C22 C12 1_555 1_555
H16 C22 1_555 1_555
C23 C13 1_555 1_555
H17 C23 1_555 1_555
C24 C2 1_555 1_555
N2 C25 1_555 1_555
C25 C17 1_555 1_555
C26 C5 1_555 1_555
H18 C26 1_555 1_555
C6 C16 1_555 1_555
C6 C21 1_555 1_555
C7 C24 1_555 1_555
C9 C20 1_555 1_555
C15 C22 1_555 1_555
C18 C23 1_555 1_555
C19 C25 1_555 1_555
N2 C26 1_555 1_555

#END
