
#######################################################################
#
#                 Cambridge Crystallographic Data Centre
#                                CCDC 
#
#######################################################################
#
# If this CIF has been generated from an entry in the Cambridge 
# Structural Database, then it will include bibliographic, chemical, 
# crystal, experimental, refinement or atomic coordinate data resulting 
# from the CCDC's data processing and validation procedures.
#
#######################################################################

data_REDMET
_chemical_formula_moiety         
'C48 H48 N32 O16,H3 O1 1+,Cl1 O4 1-,0.63(H2 O1)'
_chemical_name_systematic        'Oxonium cucurbit(8)uril perchlorate hydrate'
_symmetry_cell_setting           tetragonal
_symmetry_space_group_name_H-M   'P 42/n c m'
_symmetry_Int_Tables_number      138
_space_group_name_Hall           '-P 4ac 2ac'
loop_
_symmetry_equiv_pos_site_id
_symmetry_equiv_pos_as_xyz
1 x,y,z
2 1/2-y,x,1/2+z
3 y,1/2-x,1/2+z
4 1/2+y,1/2+x,-z
5 1/2-x,1/2-y,z
6 -x,1/2+y,1/2-z
7 1/2+x,-y,1/2-z
8 -y,-x,-z
9 -x,-y,-z
10 1/2+y,-x,1/2-z
11 -y,1/2+x,1/2-z
12 1/2-y,1/2-x,z
13 1/2+x,1/2+y,-z
14 x,1/2-y,1/2+z
15 1/2-x,y,1/2+z
16 y,x,z
_cell_length_a                   26.2548(8)
_cell_length_b                   26.2548(8)
_cell_length_c                   12.7555(5)
_cell_angle_alpha                90
_cell_angle_beta                 90
_cell_angle_gamma                90
_cell_volume                     8792.55
_exptl_crystal_colour            yellowish
_cell_formula_units_Z            4
loop_
_atom_site_label
_atom_site_type_symbol
_atom_site_fract_x
_atom_site_fract_y
_atom_site_fract_z
Cl1 Cl 0.2500 0.7500 0.7500
O1 O 0.2143(2) 0.7759(3) 0.8153(6)
O1I O 0.2759(3) 0.7857(2) 0.6847(6)
O1J O 0.2241(3) 0.7143(2) 0.6847(6)
O1D O 0.2857(2) 0.7241(3) 0.8153(6)
O2 O 0.1452(3) 0.3548(3) 1.0980(6)
O3 O 0.2091(2) 0.4850(2) 1.1355(4)
O4 O 0.1651(2) 0.6102(2) 1.2228(4)
O5 O 0.0378(2) 0.6558(2) 1.3138(4)
O6 O -0.0962(3) 0.5962(3) 1.3561(7)
N1 N 0.1826(2) 0.3766(2) 0.9422(5)
N2 N 0.2235(2) 0.4587(2) 0.9656(4)
N3 N 0.2295(2) 0.5404(2) 1.0029(4)
N4 N 0.2024(2) 0.6240(2) 1.0617(4)
N5 N 0.1440(3) 0.6785(2) 1.1177(4)
N6 N 0.0622(2) 0.7080(2) 1.1774(4)
N7 N -0.0204(2) 0.7001(2) 1.2126(4)
N8 N -0.1033(2) 0.6622(2) 1.2379(5)
C1 C 0.1496(3) 0.3504(3) 1.0073(9)
C2 C 0.2255(3) 0.4049(3) 0.9858(7)
H1 H 0.2265 0.3993 1.0626
H2 H 0.2575 0.3910 0.9561
C3 C 0.2197(3) 0.4942(3) 1.0433(5)
C4 C 0.2391(3) 0.5843(3) 1.0691(6)
H3 H 0.2407 0.5727 1.1429
H4 H 0.2729 0.5985 1.0508
C5 C 0.1701(3) 0.6350(3) 1.1429(6)
C6 C 0.1158(3) 0.7066(3) 1.1958(5)
H5 H 0.1221 0.6911 1.2653
H6 H 0.1289 0.7420 1.1980
C7 C 0.0270(3) 0.6848(3) 1.2421(5)
C8 C -0.0639(4) 0.6937(3) 1.2816(6)
H7 H -0.0522 0.6785 1.3483
H8 H -0.0784 0.7277 1.2977
C9 C -0.1188(3) 0.6188(3) 1.2834(8)
C10 C 0.1812(3) 0.3602(3) 0.8357(6)
H9 H 0.2149 0.3462 0.8130
C11 C 0.2391(3) 0.4810(3) 0.8684(6)
H10 H 0.2721 0.4664 0.8431
C12 C 0.2439(3) 0.5377(3) 0.8943(6)
H11 H 0.2795 0.5503 0.8831
C13 C 0.2011(3) 0.6617(3) 0.9797(5)
H12 H 0.2352 0.6775 0.9681
O2C O -0.1452(3) 0.6452(3) 0.9020(6)
O3H O -0.2091(2) 0.5150(2) 0.8645(4)
O3C O -0.0150(2) 0.7091(2) 0.8645(4)
O3K O 0.0150(2) 0.2909(2) 1.1355(4)
O4C O 0.1102(2) 0.6651(2) 0.7772(4)
O4K O -0.1102(2) 0.3349(2) 1.2228(4)
O4H O -0.1651(2) 0.3898(2) 0.7772(4)
O5K O -0.1558(2) 0.4622(2) 1.3138(4)
O5C O 0.1558(2) 0.5378(2) 0.6862(4)
O5H O -0.0378(2) 0.3442(2) 0.6862(4)
O6C O 0.0962(3) 0.4038(3) 0.6439(7)
N1H N -0.1826(2) 0.6234(2) 1.0578(5)
N1C N -0.1234(2) 0.6826(2) 1.0578(5)
N1K N 0.1234(2) 0.3174(2) 0.9422(5)
N2H N -0.2235(2) 0.5413(2) 1.0344(4)
N2C N -0.0413(2) 0.7235(2) 1.0344(4)
N2K N 0.0413(2) 0.2765(2) 0.9656(4)
N3H N -0.2295(2) 0.4596(2) 0.9971(4)
N3C N 0.0404(2) 0.7295(2) 0.9971(4)
N3K N -0.0404(2) 0.2705(2) 1.0029(4)
N4C N 0.1240(2) 0.7024(2) 0.9383(4)
N4K N -0.1240(2) 0.2976(2) 1.0617(4)
N4H N -0.2024(2) 0.3760(2) 0.9383(4)
N5K N -0.1785(2) 0.3560(3) 1.1177(4)
N5C N 0.1785(2) 0.6440(3) 0.8823(4)
N5H N -0.1440(3) 0.3215(2) 0.8823(4)
N6K N -0.2080(2) 0.4378(2) 1.1774(4)
N6C N 0.2080(2) 0.5622(2) 0.8226(4)
N6H N -0.0622(2) 0.2920(2) 0.8226(4)
N7K N -0.2001(2) 0.5204(2) 1.2126(4)
N7C N 0.2001(2) 0.4796(2) 0.7874(4)
N7H N 0.0204(2) 0.2999(2) 0.7874(4)
N8K N -0.1622(2) 0.6033(2) 1.2379(5)
N8C N 0.1622(2) 0.3967(2) 0.7621(5)
N8H N 0.1033(2) 0.3378(2) 0.7621(5)
C1C C -0.1496(3) 0.6496(3) 0.9927(9)
C2H C -0.2255(3) 0.5951(3) 1.0142(7)
C2C C -0.0951(3) 0.7255(3) 1.0142(7)
C2K C 0.0951(3) 0.2745(3) 0.9858(7)
H1K H 0.1007 0.2735 1.0626
H1C H -0.1007 0.7265 0.9374
H1H H -0.2265 0.6007 0.9374
H2K H 0.1090 0.2425 0.9561
H2C H -0.1090 0.7575 1.0439
H2H H -0.2575 0.6090 1.0439
C3H C -0.2197(3) 0.5058(3) 0.9567(5)
C3C C -0.0058(3) 0.7197(3) 0.9567(5)
C3K C 0.0058(3) 0.2803(3) 1.0433(5)
C4C C 0.0843(3) 0.7391(3) 0.9309(6)
C4K C -0.0843(3) 0.2609(3) 1.0691(6)
C4H C -0.2391(3) 0.4157(3) 0.9309(6)
H3H H -0.2407 0.4273 0.8571
H3K H -0.0727 0.2593 1.1429
H3C H 0.0727 0.7407 0.8571
H4H H -0.2729 0.4015 0.9492
H4K H -0.0985 0.2271 1.0508
H4C H 0.0985 0.7729 0.9492
C5C C 0.1350(3) 0.6701(3) 0.8571(6)
C5K C -0.1350(3) 0.3299(3) 1.1429(6)
C5H C -0.1701(3) 0.3650(3) 0.8571(6)
C6K C -0.2066(3) 0.3842(3) 1.1958(5)
C6C C 0.2066(3) 0.6158(3) 0.8042(5)
C6H C -0.1158(3) 0.2934(3) 0.8042(5)
H5K H -0.1911 0.3779 1.2653
H5H H -0.1221 0.3089 0.7347
H5C H 0.1911 0.6221 0.7347
H6K H -0.2420 0.3711 1.1980
H6H H -0.1289 0.2580 0.8020
H6C H 0.2420 0.6289 0.8020
C7K C -0.1848(3) 0.4730(3) 1.2421(5)
C7C C 0.1848(3) 0.5270(3) 0.7579(5)
C7H C -0.0270(3) 0.3152(3) 0.7579(5)
C8K C -0.1937(3) 0.5639(4) 1.2816(6)
C8C C 0.1937(3) 0.4361(4) 0.7184(6)
C8H C 0.0639(4) 0.3063(3) 0.7184(6)
H7H H 0.0522 0.3215 0.6517
H7C H 0.1785 0.4478 0.6517
H7K H -0.1785 0.5522 1.3483
H8H H 0.0784 0.2723 0.7023
H8C H 0.2277 0.4216 0.7023
H8K H -0.2277 0.5784 1.2977
C9C C 0.1188(3) 0.3812(3) 0.7166(8)
C10K C 0.1398(3) 0.3188(3) 0.8357(6)
C10C C -0.1398(3) 0.6812(3) 1.1643(6)
C10H C -0.1812(3) 0.6398(3) 1.1643(6)
H9K H 0.1538 0.2851 0.8130
H9H H -0.2149 0.6538 1.1870
H9C H -0.1538 0.7149 1.1870
C11K C 0.0190(3) 0.2609(3) 0.8684(6)
C11C C -0.0190(3) 0.7391(3) 1.1316(6)
C11H C -0.2391(3) 0.5190(3) 1.1316(6)
H10K H 0.0336 0.2279 0.8431
H10C H -0.0336 0.7721 1.1569
H10H H -0.2721 0.5336 1.1569
C12H C -0.2439(3) 0.4623(3) 1.1057(6)
C12K C -0.0377(3) 0.2561(3) 0.8943(6)
C12C C 0.0377(3) 0.7439(3) 1.1057(6)
H11K H -0.0503 0.2205 0.8831
H11C H 0.0503 0.7795 1.1169
H11H H -0.2795 0.4497 1.1169
C13H C -0.2011(3) 0.3383(3) 1.0203(5)
C13K C -0.1617(3) 0.2989(3) 0.9797(5)
C13C C 0.1617(3) 0.7011(3) 1.0203(5)
H12H H -0.2352 0.3225 1.0319
H12K H -0.1775 0.2648 0.9681
H12C H 0.1775 0.7352 1.0319
O7 O 0.1485(5) 0.4846(8) 0.4701(10)
O8 O 0.2500 0.2500 0.4057(18)
O9 O 0.0953(12) 0.4047(12) 0.399(5)
O10 O 0.110(2) 0.456(2) 0.212(5)
O11 O 0.3597(7) 0.5848(8) 0.9286(17)
O12 O 0.1865(8) 0.3135(8) 0.597(3)
loop_
_geom_bond_atom_site_label_1
_geom_bond_atom_site_label_2
_geom_bond_site_symmetry_1
_geom_bond_site_symmetry_2
Cl1 O1 1_555 1_555
O2 C1 1_555 1_555
O3 C3 1_555 1_555
O4 C5 1_555 1_555
O5 C7 1_555 1_555
O6 C9 1_555 1_555
N1 C1 1_555 1_555
N2 C2 1_555 1_555
N3 C3 1_555 1_555
N4 C4 1_555 1_555
N5 C5 1_555 1_555
N6 C6 1_555 1_555
N7 C7 1_555 1_555
N8 C8 1_555 1_555
C1 N1K 1_555 1_555
C2 N1 1_555 1_555
H1 C2 1_555 1_555
H2 C2 1_555 1_555
C3 N2 1_555 1_555
C4 N3 1_555 1_555
H3 C4 1_555 1_555
H4 C4 1_555 1_555
C5 N4 1_555 1_555
C6 N5 1_555 1_555
H5 C6 1_555 1_555
H6 C6 1_555 1_555
C7 N6 1_555 1_555
C8 N7 1_555 1_555
H7 C8 1_555 1_555
H8 C8 1_555 1_555
C9 N8 1_555 1_555
C10 N1 1_555 1_555
H9 C10 1_555 1_555
C11 N2 1_555 1_555
H10 C11 1_555 1_555
C12 N3 1_555 1_555
H11 C12 1_555 1_555
C13 N4 1_555 1_555
H12 C13 1_555 1_555
O1I Cl1 1_555 1_555
O1J Cl1 1_555 1_555
O1D Cl1 1_555 1_555
O2C C1C 1_555 1_555
O3H C3H 1_555 1_555
O3C C3C 1_555 1_555
O3K C3K 1_555 1_555
O4C C5C 1_555 1_555
O4K C5K 1_555 1_555
O4H C5H 1_555 1_555
O5K C7K 1_555 1_555
O5C C7C 1_555 1_555
O5H C7H 1_555 1_555
O6C C9C 1_555 1_555
N1H C1C 1_555 1_555
N1C C1C 1_555 1_555
N1K C2K 1_555 1_555
N2H C2H 1_555 1_555
N2C C2C 1_555 1_555
N2K C2K 1_555 1_555
N3H C3H 1_555 1_555
N3C C3C 1_555 1_555
N3K C3K 1_555 1_555
N4C C4C 1_555 1_555
N4K C4K 1_555 1_555
N4H C4H 1_555 1_555
N5K C5K 1_555 1_555
N5C C13 1_555 1_555
N5H C5H 1_555 1_555
N6K C6K 1_555 1_555
N6C C12 1_555 1_555
N6H C6H 1_555 1_555
N7K C7K 1_555 1_555
N7C C11 1_555 1_555
N7H C7H 1_555 1_555
N8K C9 1_555 1_555
N8C C10 1_555 1_555
N8H C8H 1_555 1_555
C2H N1H 1_555 1_555
C2C N1C 1_555 1_555
C2K H1K 1_555 1_555
H1C C2C 1_555 1_555
H1H C2H 1_555 1_555
H2K C2K 1_555 1_555
H2C C2C 1_555 1_555
H2H C2H 1_555 1_555
C3H N2H 1_555 1_555
C3C N2C 1_555 1_555
C3K N2K 1_555 1_555
C4C N3C 1_555 1_555
C4K N3K 1_555 1_555
C4H N3H 1_555 1_555
H3H C4H 1_555 1_555
H3K C4K 1_555 1_555
H3C C4C 1_555 1_555
H4H C4H 1_555 1_555
H4K C4K 1_555 1_555
H4C C4C 1_555 1_555
C5C N4C 1_555 1_555
C5K N4K 1_555 1_555
C5H N4H 1_555 1_555
C6K N5K 1_555 1_555
C6C N5C 1_555 1_555
C6H N5H 1_555 1_555
H5K C6K 1_555 1_555
H5H C6H 1_555 1_555
H5C C6C 1_555 1_555
H6K C6K 1_555 1_555
H6H C6H 1_555 1_555
H6C C6C 1_555 1_555
C7K N6K 1_555 1_555
C7C N6C 1_555 1_555
C7H N6H 1_555 1_555
C8K N7K 1_555 1_555
C8C N7C 1_555 1_555
C8H N7H 1_555 1_555
H7H C8H 1_555 1_555
H7C C8C 1_555 1_555
H7K C8K 1_555 1_555
H8H C8H 1_555 1_555
H8C C8C 1_555 1_555
H8K C8K 1_555 1_555
C9C N8C 1_555 1_555
C10K C10 1_555 1_555
C10C N8 1_555 1_555
C10H N1H 1_555 1_555
H9K C10K 1_555 1_555
H9H C10H 1_555 1_555
H9C C10C 1_555 1_555
C11K N2K 1_555 1_555
C11C N7 1_555 1_555
C11H N2H 1_555 1_555
H10K C11K 1_555 1_555
H10C C11C 1_555 1_555
H10H C11H 1_555 1_555
C12H N3H 1_555 1_555
C12K N3K 1_555 1_555
C12C N6 1_555 1_555
H11K C12K 1_555 1_555
H11C C12C 1_555 1_555
H11H C12H 1_555 1_555
C13H N4H 1_555 1_555
C13K N4K 1_555 1_555
C13C N5 1_555 1_555
H12H C13H 1_555 1_555
H12K C13K 1_555 1_555
H12C C13C 1_555 1_555
C11 C12 1_555 1_555
C13 C13C 1_555 1_555
N1C C10C 1_555 1_555
N1K C10K 1_555 1_555
N2C C11C 1_555 1_555
N3C C12C 1_555 1_555
N4C C13C 1_555 1_555
N5K C13H 1_555 1_555
N5C C5C 1_555 1_555
N5H C13K 1_555 1_555
N6K C12H 1_555 1_555
N6C C6C 1_555 1_555
N6H C12K 1_555 1_555
N7K C11H 1_555 1_555
N7C C7C 1_555 1_555
N7H C11K 1_555 1_555
N8K C8K 1_555 1_555
N8K C10H 1_555 1_555
N8C C8C 1_555 1_555
N8H C9C 1_555 1_555
N8H C10K 1_555 1_555
C10C C10H 1_555 1_555
C11K C12K 1_555 1_555
C11C C12C 1_555 1_555
C11H C12H 1_555 1_555
C13H C13K 1_555 1_555

#END
