
#######################################################################
#
#                 Cambridge Crystallographic Data Centre
#                                CCDC 
#
#######################################################################
#
# If this CIF has been generated from an entry in the Cambridge 
# Structural Database, then it will include bibliographic, chemical, 
# crystal, experimental, refinement or atomic coordinate data resulting 
# from the CCDC's data processing and validation procedures.
#
#######################################################################

data_REFPUP
_chemical_formula_moiety         'C28 H28 N4 O4 S1'
_chemical_name_systematic        
2-[3,4-Dibutoxy-5-(5-phenyl-1,3,4-oxadiazol-2-yl)-2-thienyl]-5-phenyl-1,3,4-oxadiazole
_symmetry_cell_setting           monoclinic
_symmetry_space_group_name_H-M   'P 21/c'
_symmetry_Int_Tables_number      14
_space_group_name_Hall           '-P 2ybc'
loop_
_symmetry_equiv_pos_site_id
_symmetry_equiv_pos_as_xyz
1 x,y,z
2 -x,1/2+y,1/2-z
3 -x,-y,-z
4 x,1/2-y,1/2+z
_cell_length_a                   7.6770(15)
_cell_length_b                   16.871(3)
_cell_length_c                   20.398(4)
_cell_angle_alpha                90
_cell_angle_beta                 93.77(3)
_cell_angle_gamma                90
_cell_volume                     2636.2
_exptl_crystal_colour            yellow
_exptl_crystal_description       block
_chemical_melting_point          '421 K'
_cell_formula_units_Z            4
loop_
_atom_site_label
_atom_site_type_symbol
_atom_site_fract_x
_atom_site_fract_y
_atom_site_fract_z
S1 S 0.33758(19) -0.11570(10) 0.45424(7)
O1 O 0.1262(5) 0.0185(3) 0.57876(19)
O2 O 0.1425(5) -0.1444(3) 0.6260(2)
O3 O 0.2220(4) 0.1120(2) 0.46996(16)
O4 O 0.2964(4) -0.2925(2) 0.58119(17)
N1 N 0.3116(6) 0.1309(3) 0.3736(2)
N2 N 0.3341(6) 0.0491(3) 0.3892(2)
N3 N 0.3550(7) -0.2952(3) 0.4784(2)
N4 N 0.3787(7) -0.3714(3) 0.5034(3)
C1 C 0.3901(9) 0.1927(4) 0.6908(3)
H1 H 0.4530 0.2145 0.7289
H2 H 0.3584 0.2346 0.6605
H3 H 0.4625 0.1550 0.6702
C2 C 0.2296(10) 0.1526(4) 0.7109(4)
H4 H 0.2639 0.1135 0.7442
H5 H 0.1580 0.1917 0.7313
C3 C 0.1260(9) 0.1145(4) 0.6610(3)
H6 H 0.0897 0.1541 0.6284
H7 H 0.0213 0.0955 0.6801
C4 C 0.2018(10) 0.0482(4) 0.6267(4)
H8 H 0.3149 0.0655 0.6136
H9 H 0.2234 0.0062 0.6587
C5 C 0.1109(8) -0.0976(4) 0.8310(3)
H10 H 0.0177 -0.0623 0.8406
H11 H 0.2190 -0.0688 0.8326
H12 H 0.1189 -0.1394 0.8629
C6 C 0.0773(10) -0.1303(5) 0.7676(4)
H13 H 0.0710 -0.0847 0.7386
H14 H -0.0411 -0.1503 0.7677
C7 C 0.1689(10) -0.1895(4) 0.7319(3)
H15 H 0.2515 -0.2168 0.7620
H16 H 0.0858 -0.2282 0.7137
C8 C 0.2609(9) -0.1551(4) 0.6795(3)
H17 H 0.3113 -0.1046 0.6933
H18 H 0.3544 -0.1899 0.6679
C9 C 0.1390(10) 0.4056(5) 0.4462(4)
H19 H 0.1199 0.4596 0.4512
C10 C 0.2049(9) 0.3780(4) 0.3906(3)
H20 H 0.2278 0.4143 0.3579
C11 C 0.2395(8) 0.3001(4) 0.3801(3)
H21 H 0.2825 0.2833 0.3409
C12 C 0.2091(6) 0.2467(4) 0.4291(3)
C13 C 0.1422(8) 0.2760(4) 0.4859(3)
H22 H 0.1241 0.2410 0.5200
C14 C 0.1013(9) 0.3556(5) 0.4938(4)
H23 H 0.0494 0.3733 0.5310
C15 C 0.2477(6) 0.1639(4) 0.4222(3)
C16 C 0.2767(6) 0.0429(4) 0.4483(3)
C17 C 0.2698(6) -0.0266(3) 0.4849(3)
C18 C 0.1997(7) -0.0394(4) 0.5486(3)
C19 C 0.2193(7) -0.1189(4) 0.5687(3)
C20 C 0.2853(7) -0.1688(4) 0.5252(3)
C21 C 0.3116(7) -0.2500(4) 0.5263(3)
C22 C 0.3433(7) -0.3675(4) 0.5646(3)
C23 C 0.3445(6) -0.4282(4) 0.6127(3)
C24 C 0.3920(8) -0.5050(4) 0.5971(3)
H24 H 0.4189 -0.5153 0.5541
C25 C 0.4019(8) -0.5676(4) 0.6419(3)
H25 H 0.4390 -0.6178 0.6301
C26 C 0.3544(8) -0.5514(4) 0.7040(3)
H26 H 0.3560 -0.5921 0.7348
C27 C 0.3070(8) -0.4807(5) 0.7213(3)
H27 H 0.2774 -0.4725 0.7642
C28 C 0.2985(8) -0.4146(4) 0.6764(3)
H28 H 0.2635 -0.3646 0.6896
loop_
_geom_bond_atom_site_label_1
_geom_bond_atom_site_label_2
_geom_bond_site_symmetry_1
_geom_bond_site_symmetry_2
S1 C17 1_555 1_555
O1 C4 1_555 1_555
O2 C8 1_555 1_555
O3 C15 1_555 1_555
O4 C21 1_555 1_555
N1 N2 1_555 1_555
N2 C16 1_555 1_555
N3 N4 1_555 1_555
N4 C22 1_555 1_555
C1 H1 1_555 1_555
H2 C1 1_555 1_555
H3 C1 1_555 1_555
C2 C1 1_555 1_555
H4 C2 1_555 1_555
H5 C2 1_555 1_555
C3 C2 1_555 1_555
H6 C3 1_555 1_555
H7 C3 1_555 1_555
C4 C3 1_555 1_555
H8 C4 1_555 1_555
H9 C4 1_555 1_555
C5 H10 1_555 1_555
H11 C5 1_555 1_555
H12 C5 1_555 1_555
C6 C5 1_555 1_555
H13 C6 1_555 1_555
H14 C6 1_555 1_555
C7 C6 1_555 1_555
H15 C7 1_555 1_555
H16 C7 1_555 1_555
C8 C7 1_555 1_555
H17 C8 1_555 1_555
H18 C8 1_555 1_555
C9 H19 1_555 1_555
C10 C9 1_555 1_555
H20 C10 1_555 1_555
C11 C10 1_555 1_555
H21 C11 1_555 1_555
C12 C11 1_555 1_555
C13 C12 1_555 1_555
H22 C13 1_555 1_555
C14 C9 1_555 1_555
H23 C14 1_555 1_555
C15 N1 1_555 1_555
C16 O3 1_555 1_555
C17 C16 1_555 1_555
C18 O1 1_555 1_555
C19 O2 1_555 1_555
C20 S1 1_555 1_555
C21 N3 1_555 1_555
C22 O4 1_555 1_555
C23 C22 1_555 1_555
C24 C23 1_555 1_555
H24 C24 1_555 1_555
C25 C24 1_555 1_555
H25 C25 1_555 1_555
C26 C25 1_555 1_555
H26 C26 1_555 1_555
C27 C26 1_555 1_555
H27 C27 1_555 1_555
C28 C23 1_555 1_555
H28 C28 1_555 1_555
C12 C15 1_555 1_555
C13 C14 1_555 1_555
C17 C18 1_555 1_555
C18 C19 1_555 1_555
C19 C20 1_555 1_555
C20 C21 1_555 1_555
C27 C28 1_555 1_555

#END
