
#######################################################################
#
#                 Cambridge Crystallographic Data Centre
#                                CCDC 
#
#######################################################################
#
# If this CIF has been generated from an entry in the Cambridge 
# Structural Database, then it will include bibliographic, chemical, 
# crystal, experimental, refinement or atomic coordinate data resulting 
# from the CCDC's data processing and validation procedures.
#
#######################################################################

data_REFPOK
_chemical_formula_moiety         'C29 H32 F1 N3 O3'
_chemical_name_systematic        
'4-{3-amino-3-[(4-fluorophenyl)amino]-2-nitro-1-phenylprop-2-en-1-ylidene}-2,6-di-t-butylcyclohexa-2,5-dien-1-one unknown solvate'
_symmetry_cell_setting           monoclinic
_symmetry_space_group_name_H-M   'P 21/c'
_symmetry_Int_Tables_number      14
_space_group_name_Hall           '-P 2ybc'
loop_
_symmetry_equiv_pos_site_id
_symmetry_equiv_pos_as_xyz
1 x,y,z
2 -x,1/2+y,1/2-z
3 -x,-y,-z
4 x,1/2-y,1/2+z
_cell_length_a                   10.9787(15)
_cell_length_b                   29.876(4)
_cell_length_c                   12.0188(16)
_cell_angle_alpha                90
_cell_angle_beta                 117.8070(10)
_cell_angle_gamma                90
_cell_volume                     3486.94
_exptl_crystal_colour            colorless
_exptl_crystal_description       BLOCK
_cell_formula_units_Z            4
loop_
_atom_site_label
_atom_site_type_symbol
_atom_site_fract_x
_atom_site_fract_y
_atom_site_fract_z
F1 F 0.2901(2) 0.25871(7) 0.8117(2)
N1 N 0.5630(3) 0.13385(7) 0.3507(2)
N2 N 0.5028(2) 0.16915(8) 0.5408(2)
H1 H 0.4401 0.1611 0.4676
N3 N 0.7340(2) 0.16342(8) 0.6840(2)
H2 H 0.7171 0.1742 0.7417
H3 H 0.8169 0.1562 0.7013
O1 O 1.0353(2) -0.02539(8) 0.7671(3)
O2 O 0.5983(2) 0.11689(7) 0.27523(18)
O3 O 0.4377(2) 0.14466(7) 0.31396(18)
C1 C 0.8341(4) -0.01614(16) 0.8643(3)
H4 H 0.8451 0.0118 0.9075
H5 H 0.9230 -0.0290 0.8880
H6 H 0.7809 -0.0363 0.8866
C2 C 0.7371(4) -0.05239(12) 0.6538(4)
H7 H 0.6777 -0.0710 0.6725
H8 H 0.8239 -0.0672 0.6804
H9 H 0.6952 -0.0470 0.5648
C3 C 0.6207(4) 0.01239(15) 0.6919(4)
H10 H 0.6343 0.0397 0.7382
H11 H 0.5690 -0.0082 0.7148
H12 H 0.5709 0.0185 0.6034
C4 C 0.7601(3) -0.00809(11) 0.7227(3)
C5 C 0.8455(3) 0.02350(9) 0.6859(2)
C6 C 0.9878(3) 0.01117(10) 0.7174(3)
C7 C 1.0728(3) 0.04349(9) 0.6905(2)
C8 C 1.0128(3) 0.08044(9) 0.6242(2)
H13 H 1.0665 0.1005 0.6070
C9 C 0.8679(3) 0.09052(9) 0.5781(2)
C10 C 0.7921(3) 0.06095(9) 0.6179(2)
H14 H 0.7011 0.0681 0.5954
C11 C 1.2268(3) 0.03306(9) 0.7380(3)
C12 C 1.3018(3) 0.02713(13) 0.8816(3)
H15 H 1.2591 0.0034 0.9048
H16 H 1.2963 0.0545 0.9211
H17 H 1.3966 0.0199 0.9086
C13 C 1.2398(3) -0.00964(11) 0.6731(3)
H18 H 1.2050 -0.0347 0.6997
H19 H 1.3348 -0.0147 0.6956
H20 H 1.1876 -0.0063 0.5836
C14 C 1.2984(3) 0.07102(11) 0.7053(3)
H21 H 1.3928 0.0631 0.7322
H22 H 1.2946 0.0979 0.7472
H23 H 1.2527 0.0758 0.6160
C15 C 0.8052(3) 0.12625(9) 0.5024(2)
C16 C 0.8717(3) 0.15549(10) 0.4453(3)
C17 C 0.9444(3) 0.13820(11) 0.3864(3)
H24 H 0.9550 0.1074 0.3836
C18 C 1.0007(4) 0.16648(14) 0.3322(3)
H25 H 1.0490 0.1545 0.2929
C19 C 0.9867(4) 0.21203(15) 0.3351(4)
H26 H 1.0260 0.2308 0.2988
C20 C 0.9139(4) 0.22983(13) 0.3923(4)
H27 H 0.9041 0.2607 0.3948
C21 C 0.8560(3) 0.20199(10) 0.4453(3)
H28 H 0.8054 0.2142 0.4820
C22 C 0.6321(3) 0.15791(9) 0.5678(2)
C23 C 0.6630(3) 0.13973(9) 0.4743(2)
C24 C 0.4552(3) 0.19230(9) 0.6157(2)
C25 C 0.5265(3) 0.22666(9) 0.6967(3)
H29 H 0.6128 0.2348 0.7066
C26 C 0.4716(4) 0.24903(10) 0.7631(3)
H30 H 0.5201 0.2721 0.8178
C27 C 0.3450(4) 0.23682(11) 0.7473(3)
C28 C 0.2708(3) 0.20348(12) 0.6677(3)
H31 H 0.1841 0.1961 0.6579
C29 C 0.3262(3) 0.18059(11) 0.6011(3)
H32 H 0.2769 0.1575 0.5468
loop_
_geom_bond_atom_site_label_1
_geom_bond_atom_site_label_2
_geom_bond_site_symmetry_1
_geom_bond_site_symmetry_2
F1 C27 1_555 1_555
N1 O2 1_555 1_555
N2 H1 1_555 1_555
N3 H2 1_555 1_555
H3 N3 1_555 1_555
O1 C6 1_555 1_555
O3 N1 1_555 1_555
C1 H4 1_555 1_555
H5 C1 1_555 1_555
H6 C1 1_555 1_555
C2 H7 1_555 1_555
H8 C2 1_555 1_555
H9 C2 1_555 1_555
C3 H10 1_555 1_555
H11 C3 1_555 1_555
H12 C3 1_555 1_555
C4 C1 1_555 1_555
C5 C4 1_555 1_555
C6 C5 1_555 1_555
C7 C6 1_555 1_555
C8 C7 1_555 1_555
H13 C8 1_555 1_555
C9 C8 1_555 1_555
C10 C5 1_555 1_555
H14 C10 1_555 1_555
C11 C7 1_555 1_555
C12 C11 1_555 1_555
H15 C12 1_555 1_555
H16 C12 1_555 1_555
H17 C12 1_555 1_555
C13 C11 1_555 1_555
H18 C13 1_555 1_555
H19 C13 1_555 1_555
H20 C13 1_555 1_555
C14 C11 1_555 1_555
H21 C14 1_555 1_555
H22 C14 1_555 1_555
H23 C14 1_555 1_555
C15 C9 1_555 1_555
C16 C15 1_555 1_555
C17 C16 1_555 1_555
H24 C17 1_555 1_555
C18 C17 1_555 1_555
H25 C18 1_555 1_555
C19 C18 1_555 1_555
H26 C19 1_555 1_555
C20 C19 1_555 1_555
H27 C20 1_555 1_555
C21 C16 1_555 1_555
H28 C21 1_555 1_555
C22 N2 1_555 1_555
C23 N1 1_555 1_555
C24 N2 1_555 1_555
C25 C24 1_555 1_555
H29 C25 1_555 1_555
C26 C25 1_555 1_555
H30 C26 1_555 1_555
C27 C26 1_555 1_555
C28 C27 1_555 1_555
H31 C28 1_555 1_555
C29 C24 1_555 1_555
H32 C29 1_555 1_555
N3 C22 1_555 1_555
C2 C4 1_555 1_555
C3 C4 1_555 1_555
C9 C10 1_555 1_555
C15 C23 1_555 1_555
C20 C21 1_555 1_555
C22 C23 1_555 1_555
C28 C29 1_555 1_555

#END
