
#######################################################################
#
#                 Cambridge Crystallographic Data Centre
#                                CCDC 
#
#######################################################################
#
# If this CIF has been generated from an entry in the Cambridge 
# Structural Database, then it will include bibliographic, chemical, 
# crystal, experimental, refinement or atomic coordinate data resulting 
# from the CCDC's data processing and validation procedures.
#
#######################################################################

data_REGHOC
_chemical_formula_moiety         'C35 H34 B1 N3 O6'
_chemical_name_systematic        
'Methyl 4-(3-(2-hydroxyphenyl)-5-(2-((4-(4,4,5,5-tetramethyl-1,3,2-dioxaborolan-2-yl)benzyl)oxy)phenyl)-1H-1,2,4-triazol-1-yl)benzoate'
_symmetry_cell_setting           triclinic
_symmetry_space_group_name_H-M   'P -1'
_symmetry_Int_Tables_number      2
_space_group_name_Hall           '-P 1'
loop_
_symmetry_equiv_pos_site_id
_symmetry_equiv_pos_as_xyz
1 x,y,z
2 -x,-y,-z
_cell_length_a                   8.704(3)
_cell_length_b                   13.004(5)
_cell_length_c                   14.806(4)
_cell_angle_alpha                70.487(11)
_cell_angle_beta                 77.924(8)
_cell_angle_gamma                85.695(15)
_cell_volume                     1544.61
_exptl_crystal_colour            colorless
_exptl_crystal_description       prism
_cell_formula_units_Z            2
loop_
_atom_site_label
_atom_site_type_symbol
_atom_site_fract_x
_atom_site_fract_y
_atom_site_fract_z
C1 C 0.32905(13) 0.57237(9) 0.59215(8)
N1 N 0.26582(11) 0.58595(8) 0.51444(7)
C2 C 0.24628(13) 0.48197(9) 0.51566(8)
N2 N 0.29501(11) 0.40519(8) 0.58843(7)
N3 N 0.34871(11) 0.46387(7) 0.63709(7)
C3 C 0.37311(13) 0.66530(9) 0.61690(8)
C4 C 0.44562(14) 0.75325(10) 0.53922(9)
H1 H 0.4634 0.7505 0.4745
C5 C 0.49192(16) 0.84432(10) 0.55508(9)
H2 H 0.5422 0.9032 0.5018
C6 C 0.46442(17) 0.84869(10) 0.64892(10)
H3 H 0.4979 0.9105 0.6601
C7 C 0.38824(15) 0.76382(10) 0.72745(9)
H4 H 0.3676 0.7687 0.7915
C8 C 0.34250(13) 0.67185(9) 0.71186(8)
O1 O 0.26787(9) 0.58482(6) 0.78480(6)
C9 C 0.26944(14) 0.57987(9) 0.88315(8)
H5 H 0.1958 0.6350 0.9009
H6 H 0.3761 0.5965 0.8878
C10 C 0.17678(13) 0.45900(9) 0.44263(8)
C11 C 0.17437(14) 0.35215(10) 0.44125(8)
H7 H 0.2134 0.2943 0.4899
C12 C 0.11590(15) 0.32930(11) 0.36996(9)
H8 H 0.1169 0.2566 0.3688
C13 C 0.05557(14) 0.41399(11) 0.29994(9)
H9 H 0.0153 0.3988 0.2509
C14 C 0.05386(14) 0.51930(11) 0.30128(8)
H10 H 0.0101 0.5760 0.2541
C15 C 0.11590(13) 0.54355(10) 0.37144(8)
O2 O 0.11600(11) 0.64951(7) 0.36600(6)
H11 H 0.1595 0.6552 0.4097
C16 C 0.40974(13) 0.40417(9) 0.72195(8)
C17 C 0.53092(13) 0.44517(9) 0.74776(8)
H12 H 0.5765 0.5138 0.7085
C18 C 0.58374(13) 0.38405(10) 0.83160(8)
H13 H 0.6661 0.4113 0.8502
C19 C 0.51814(14) 0.28312(9) 0.88922(8)
C20 C 0.39738(15) 0.24302(9) 0.86192(9)
H14 H 0.3520 0.1742 0.9009
C21 C 0.34350(15) 0.30349(9) 0.77809(9)
H15 H 0.2616 0.2762 0.7591
C22 C 0.57611(15) 0.22315(10) 0.97990(9)
O3 O 0.66609(11) 0.26016(8) 1.01300(7)
O4 O 0.51777(12) 0.12179(7) 1.02191(7)
C23 C 0.5661(2) 0.06011(11) 1.11237(11)
H16 H 0.6806 0.0636 1.1035
H17 H 0.5341 -0.0161 1.1316
H18 H 0.5165 0.0910 1.1635
C24 C 0.22196(13) 0.46808(9) 0.95243(8)
C25 C 0.10842(14) 0.40678(9) 0.94010(8)
H19 H 0.0574 0.4357 0.8860
C26 C 0.06902(14) 0.30347(10) 1.00637(9)
H20 H -0.0079 0.2625 0.9963
C27 C 0.14015(14) 0.25858(9) 1.08742(8)
C28 C 0.25066(14) 0.32261(10) 1.10059(9)
H21 H 0.2986 0.2953 1.1561
C29 C 0.29098(14) 0.42483(10) 1.03417(8)
H22 H 0.3670 0.4663 1.0444
B1 B 0.10203(19) 0.14220(12) 1.15989(10)
O5 O -0.00503(13) 0.07492(7) 1.15309(7)
O6 O 0.1689(2) 0.09788(11) 1.24086(12)
C30 C 0.0176(2) -0.03337(11) 1.22227(11)
C31 C 0.1271(3) -0.09532(14) 1.16559(15)
H23 H 0.0850 -0.0948 1.1090
H24 H 0.1370 -0.1708 1.2077
H25 H 0.2306 -0.0607 1.1432
C32 C -0.1411(3) -0.08842(14) 1.26374(15)
H26 H -0.2165 -0.0392 1.2879
H27 H -0.1314 -0.1557 1.3177
H28 H -0.1780 -0.1060 1.2125
C33 C 0.0822(3) -0.00220(14) 1.30074(13)
C34 C -0.0435(4) 0.02885(17) 1.37510(15)
H29 H 0.0057 0.0622 1.4122
H30 H -0.1007 -0.0366 1.4199
H31 H -0.1169 0.0810 1.3413
C35 C 0.1940(4) -0.08523(18) 1.35129(17)
H32 H 0.2824 -0.0968 1.3024
H33 H 0.1388 -0.1543 1.3876
H34 H 0.2334 -0.0585 1.3967
B2? B 0.10203(19) 0.14220(12) 1.15989(10)
C36? C 0.0176(2) -0.03337(11) 1.22227(11)
C37? C 0.1271(3) -0.09532(14) 1.16559(15)
C38? C -0.1411(3) -0.08842(14) 1.26374(15)
C39? C 0.1410(12) -0.0206(7) 1.2811(7)
C40? C 0.053(2) 0.0021(14) 1.3723(7)
C41? C 0.2721(18) -0.1027(11) 1.3021(17)
H35? H 0.2259 -0.0553 1.1357
H36? H 0.0783 -0.1034 1.1144
H37? H 0.1483 -0.1676 1.2098
H38? H -0.2116 -0.0446 1.2975
H39? H -0.1283 -0.1612 1.3100
H40? H -0.1859 -0.0951 1.2105
H41? H 0.1279 0.0067 1.4118
H42? H -0.0213 -0.0571 1.4104
H43? H -0.0046 0.0712 1.3538
H44? H 0.3268 -0.1142 1.2413
H45? H 0.2282 -0.1719 1.3488
H46? H 0.3464 -0.0751 1.3299
O7? O -0.00503(13) 0.07492(7) 1.15309(7)
O8? O 0.2096(9) 0.0843(6) 1.2155(7)
loop_
_geom_bond_atom_site_label_1
_geom_bond_atom_site_label_2
_geom_bond_site_symmetry_1
_geom_bond_site_symmetry_2
C1 N1 1_555 1_555
N1 C2 1_555 1_555
C2 N2 1_555 1_555
N2 N3 1_555 1_555
N3 C1 1_555 1_555
C3 C1 1_555 1_555
C4 C3 1_555 1_555
H1 C4 1_555 1_555
C5 C4 1_555 1_555
H2 C5 1_555 1_555
C6 C5 1_555 1_555
H3 C6 1_555 1_555
C7 C6 1_555 1_555
H4 C7 1_555 1_555
C8 C3 1_555 1_555
O1 C8 1_555 1_555
C9 O1 1_555 1_555
H5 C9 1_555 1_555
H6 C9 1_555 1_555
C10 C2 1_555 1_555
C11 C10 1_555 1_555
H7 C11 1_555 1_555
C12 C11 1_555 1_555
H8 C12 1_555 1_555
C13 C12 1_555 1_555
H9 C13 1_555 1_555
C14 C13 1_555 1_555
H10 C14 1_555 1_555
C15 C10 1_555 1_555
O2 C15 1_555 1_555
H11 O2 1_555 1_555
C16 N3 1_555 1_555
C17 C16 1_555 1_555
H12 C17 1_555 1_555
C18 C17 1_555 1_555
H13 C18 1_555 1_555
C19 C18 1_555 1_555
C20 C19 1_555 1_555
H14 C20 1_555 1_555
C21 C16 1_555 1_555
H15 C21 1_555 1_555
C22 C19 1_555 1_555
O3 C22 1_555 1_555
O4 C22 1_555 1_555
C23 O4 1_555 1_555
H16 C23 1_555 1_555
H17 C23 1_555 1_555
H18 C23 1_555 1_555
C24 C9 1_555 1_555
C25 C24 1_555 1_555
H19 C25 1_555 1_555
C26 C25 1_555 1_555
H20 C26 1_555 1_555
C27 C26 1_555 1_555
C28 C27 1_555 1_555
H21 C28 1_555 1_555
C29 C24 1_555 1_555
H22 C29 1_555 1_555
B1 C27 1_555 1_555
O5 B1 1_555 1_555
O6 B1 1_555 1_555
C30 O5 1_555 1_555
C31 C30 1_555 1_555
H23 C31 1_555 1_555
H24 C31 1_555 1_555
H25 C31 1_555 1_555
C32 C30 1_555 1_555
H26 C32 1_555 1_555
H27 C32 1_555 1_555
H28 C32 1_555 1_555
C33 O6 1_555 1_555
C34 C33 1_555 1_555
H29 C34 1_555 1_555
H30 C34 1_555 1_555
H31 C34 1_555 1_555
C35 C33 1_555 1_555
H32 C35 1_555 1_555
H33 C35 1_555 1_555
H34 C35 1_555 1_555
C7 C8 1_555 1_555
C14 C15 1_555 1_555
C20 C21 1_555 1_555
C28 C29 1_555 1_555
C30 C33 1_555 1_555

#END
