
#######################################################################
#
#                 Cambridge Crystallographic Data Centre
#                                CCDC 
#
#######################################################################
#
# If this CIF has been generated from an entry in the Cambridge 
# Structural Database, then it will include bibliographic, chemical, 
# crystal, experimental, refinement or atomic coordinate data resulting 
# from the CCDC's data processing and validation procedures.
#
#######################################################################

data_REGQEA
_chemical_formula_moiety         'C19 H17 N1 O2'
_chemical_name_systematic        
4-((E)-2-(3,4-Dimethoxyphenyl)ethen-1-yl)quinoline
_symmetry_cell_setting           monoclinic
_symmetry_space_group_name_H-M   'P 21/c'
_symmetry_Int_Tables_number      14
_space_group_name_Hall           '-P 2ybc'
loop_
_symmetry_equiv_pos_site_id
_symmetry_equiv_pos_as_xyz
1 x,y,z
2 -x,1/2+y,1/2-z
3 -x,-y,-z
4 x,1/2-y,1/2+z
_cell_length_a                   10.5854(6)
_cell_length_b                   10.9357(7)
_cell_length_c                   12.6356(6)
_cell_angle_alpha                90
_cell_angle_beta                 99.005(2)
_cell_angle_gamma                90
_cell_volume                     1444.65
_chemical_melting_point          '130-132 deg.C'
_cell_formula_units_Z            4
_exptl_crystal_recrystallization_method acetonitrile
loop_
_atom_site_label
_atom_site_type_symbol
_atom_site_fract_x
_atom_site_fract_y
_atom_site_fract_z
O1 O 0.09303(10) 0.06318(10) 0.10082(8)
O2 O -0.00605(10) -0.05223(10) 0.24588(8)
N1 N 0.59318(12) 0.11086(12) 0.91180(10)
C1 C 0.48486(15) 0.05879(15) 0.86911(12)
C2 C 0.43148(15) 0.06586(15) 0.76098(12)
C3 C 0.49117(14) 0.13168(13) 0.68964(11)
C4 C 0.60800(13) 0.19172(13) 0.73247(11)
C5 C 0.68005(14) 0.26464(14) 0.67038(12)
C6 C 0.79379(15) 0.31638(14) 0.71506(12)
C7 C 0.84253(15) 0.29711(14) 0.82409(12)
C8 C 0.77524(15) 0.22927(14) 0.88684(12)
C9 C 0.65608(14) 0.17652(14) 0.84331(11)
C10 C 0.43679(15) 0.13980(14) 0.57619(12)
C11 C 0.34521(15) 0.06601(15) 0.52788(12)
C12 C 0.28608(14) 0.06731(14) 0.41449(11)
C13 C 0.17040(14) 0.00461(14) 0.38535(12)
C14 C 0.10803(13) 0.00484(13) 0.28089(11)
C15 C 0.16210(14) 0.06735(14) 0.20153(11)
C16 C 0.27793(15) 0.12693(14) 0.22950(12)
C17 C 0.33921(14) 0.12802(14) 0.33535(11)
C18 C 0.15021(18) 0.11463(17) 0.01565(13)
C19 C -0.06074(16) -0.12135(16) 0.32263(14)
H1 H 0.4373(15) 0.0152(15) 0.9154(12)
H2 H 0.3523(17) 0.0247(17) 0.7377(13)
H3 H 0.6495(15) 0.2769(15) 0.5937(13)
H4 H 0.8422(16) 0.3661(16) 0.6708(12)
H5 H 0.9233(17) 0.3311(16) 0.8545(13)
H6 H 0.8104(16) 0.2101(16) 0.9631(13)
H7 H 0.4768(16) 0.2029(16) 0.5312(13)
H8 H 0.3124(17) -0.0005(18) 0.5686(13)
H9 H 0.1344(15) -0.0388(15) 0.4399(12)
H10 H 0.3161(17) 0.1674(17) 0.1769(13)
H11 H 0.4182(17) 0.1674(16) 0.3522(12)
H12 H 0.0907(17) 0.0990(16) -0.0489(13)
H13 H 0.2337(19) 0.0733(18) 0.0109(13)
H14 H 0.1650(16) 0.2040(18) 0.0273(13)
H15 H -0.1386(18) -0.1563(17) 0.2827(13)
H16 H -0.0061(17) -0.1901(18) 0.3526(13)
H17 H -0.0804(16) -0.0698(16) 0.3846(14)
loop_
_geom_bond_atom_site_label_1
_geom_bond_atom_site_label_2
_geom_bond_site_symmetry_1
_geom_bond_site_symmetry_2
O1 C15 1_555 1_555
O2 C14 1_555 1_555
N1 C1 1_555 1_555
C1 C2 1_555 1_555
C2 C3 1_555 1_555
C3 C4 1_555 1_555
C4 C5 1_555 1_555
C5 C6 1_555 1_555
C6 C7 1_555 1_555
C7 C8 1_555 1_555
C8 C9 1_555 1_555
C9 N1 1_555 1_555
C10 C3 1_555 1_555
C11 C10 1_555 1_555
C12 C11 1_555 1_555
C13 C12 1_555 1_555
C14 C13 1_555 1_555
C15 C14 1_555 1_555
C16 C15 1_555 1_555
C17 C12 1_555 1_555
C18 O1 1_555 1_555
C19 O2 1_555 1_555
H1 C1 1_555 1_555
H2 C2 1_555 1_555
H3 C5 1_555 1_555
H4 C6 1_555 1_555
H5 C7 1_555 1_555
H6 C8 1_555 1_555
H7 C10 1_555 1_555
H8 C11 1_555 1_555
H9 C13 1_555 1_555
H10 C16 1_555 1_555
H11 C17 1_555 1_555
H12 C18 1_555 1_555
H13 C18 1_555 1_555
H14 C18 1_555 1_555
H15 C19 1_555 1_555
H16 C19 1_555 1_555
H17 C19 1_555 1_555
C4 C9 1_555 1_555
C16 C17 1_555 1_555

#END
