
#######################################################################
#
#                 Cambridge Crystallographic Data Centre
#                                CCDC 
#
#######################################################################
#
# If this CIF has been generated from an entry in the Cambridge 
# Structural Database, then it will include bibliographic, chemical, 
# crystal, experimental, refinement or atomic coordinate data resulting 
# from the CCDC's data processing and validation procedures.
#
#######################################################################

data_REGXEI
_chemical_formula_moiety         'C25 H21 N1 O1 S2'
_chemical_name_systematic        
1-(((2-((2-(Phenylsulfanyl)ethyl)sulfanyl)phenyl)imino)methyl)-2-naphthol
_symmetry_cell_setting           monoclinic
_symmetry_space_group_name_H-M   'P 21/c'
_symmetry_Int_Tables_number      14
_space_group_name_Hall           '-P 2ybc'
loop_
_symmetry_equiv_pos_site_id
_symmetry_equiv_pos_as_xyz
1 x,y,z
2 -x,1/2+y,1/2-z
3 -x,-y,-z
4 x,1/2-y,1/2+z
_cell_length_a                   20.4426(45)
_cell_length_b                   7.4570(17)
_cell_length_c                   13.7891(30)
_cell_angle_alpha                90
_cell_angle_beta                 108.579(3)
_cell_angle_gamma                90
_cell_volume                     1992.47
_exptl_crystal_colour            colorless
_exptl_crystal_description       prism
_cell_formula_units_Z            4
loop_
_atom_site_label
_atom_site_type_symbol
_atom_site_fract_x
_atom_site_fract_y
_atom_site_fract_z
C1 C 0.06274(12) 0.8958(3) 0.35210(18)
O1 O 0.12630(9) 0.8991(2) 0.34331(13)
H1 H 0.1523(14) 0.838(4) 0.395(2)
C2 C 0.01098(13) 0.9846(3) 0.27416(18)
H2 H 0.0225 1.0454 0.2212
C3 C -0.05526(13) 0.9833(3) 0.27495(19)
H3 H -0.0899 1.0422 0.2216
C4 C -0.07389(12) 0.8960(3) 0.35344(18)
C5 C -0.14299(13) 0.8987(3) 0.3537(2)
H4 H -0.1774 0.9554 0.2992
C6 C -0.16092(13) 0.8205(3) 0.4315(2)
H5 H -0.2074 0.8237 0.4315
C7 C -0.10997(13) 0.7362(3) 0.5109(2)
H6 H -0.1221 0.6829 0.5653
C8 C -0.04323(12) 0.7287(3) 0.51176(19)
H7 H -0.01 0.6683 0.5661
C9 C -0.02245(12) 0.8089(3) 0.43362(18)
C10 C 0.04773(12) 0.8083(3) 0.43161(18)
C11 C 0.10182(12) 0.7180(3) 0.50956(18)
H8 H 0.0914 0.6603 0.5643
N1 N 0.16425(10) 0.7141(3) 0.50639(15)
C12 C 0.21751(12) 0.6261(3) 0.58200(18)
C13 C 0.22346(13) 0.6232(3) 0.68552(18)
H9 H 0.1895 0.6798 0.7086
C14 C 0.27878(13) 0.5380(3) 0.75443(19)
H10 H 0.2826 0.5351 0.8249
C15 C 0.32891(13) 0.4563(3) 0.72119(19)
H11 H 0.3673 0.3998 0.7694
C16 C 0.32340(12) 0.4566(3) 0.61851(19)
H12 H 0.3576 0.3993 0.5961
C17 C 0.26752(12) 0.5411(3) 0.54825(17)
S1 S 0.24964(3) 0.54587(9) 0.41418(5)
C18 C 0.32054(12) 0.4272(3) 0.39248(19)
H13 H 0.3322 0.3217 0.4384
H14 H 0.306 0.3829 0.3211
C19 C 0.38443(12) 0.5430(3) 0.41096(19)
H15 H 0.4015 0.5781 0.484
H16 H 0.3719 0.6539 0.3697
S2 S 0.45254(3) 0.42918(9) 0.37819(5)
C20 C 0.42992(12) 0.4525(3) 0.24425(18)
C21 C 0.37182(13) 0.5398(3) 0.18183(19)
H17 H 0.3396 0.5915 0.2104
C22 C 0.36088(14) 0.5514(3) 0.0769(2)
H18 H 0.3208 0.61 0.034
C23 C 0.40754(13) 0.4790(3) 0.03487(19)
H19 H 0.4002 0.4897 -0.0365
C24 C 0.46505(13) 0.3907(4) 0.0968(2)
H20 H 0.4969 0.3388 0.0677
C25 C 0.47650(13) 0.3773(3) 0.20059(19)
H21 H 0.5163 0.3167 0.2426
loop_
_geom_bond_atom_site_label_1
_geom_bond_atom_site_label_2
_geom_bond_site_symmetry_1
_geom_bond_site_symmetry_2
C1 O1 1_555 1_555
O1 H1 1_555 1_555
C2 C1 1_555 1_555
H2 C2 1_555 1_555
C3 C2 1_555 1_555
H3 C3 1_555 1_555
C4 C3 1_555 1_555
C5 C4 1_555 1_555
H4 C5 1_555 1_555
C6 C5 1_555 1_555
H5 C6 1_555 1_555
C7 C6 1_555 1_555
H6 C7 1_555 1_555
C8 C7 1_555 1_555
H7 C8 1_555 1_555
C9 C4 1_555 1_555
C10 C1 1_555 1_555
C11 C10 1_555 1_555
H8 C11 1_555 1_555
N1 C11 1_555 1_555
C12 N1 1_555 1_555
C13 C12 1_555 1_555
H9 C13 1_555 1_555
C14 C13 1_555 1_555
H10 C14 1_555 1_555
C15 C14 1_555 1_555
H11 C15 1_555 1_555
C16 C15 1_555 1_555
H12 C16 1_555 1_555
C17 C12 1_555 1_555
S1 C17 1_555 1_555
C18 S1 1_555 1_555
H13 C18 1_555 1_555
H14 C18 1_555 1_555
C19 C18 1_555 1_555
H15 C19 1_555 1_555
H16 C19 1_555 1_555
S2 C19 1_555 1_555
C20 S2 1_555 1_555
C21 C20 1_555 1_555
H17 C21 1_555 1_555
C22 C21 1_555 1_555
H18 C22 1_555 1_555
C23 C22 1_555 1_555
H19 C23 1_555 1_555
C24 C23 1_555 1_555
H20 C24 1_555 1_555
C25 C20 1_555 1_555
H21 C25 1_555 1_555
C8 C9 1_555 1_555
C9 C10 1_555 1_555
C16 C17 1_555 1_555
C24 C25 1_555 1_555

#END
