
#######################################################################
#
#                 Cambridge Crystallographic Data Centre
#                                CCDC 
#
#######################################################################
#
# If this CIF has been generated from an entry in the Cambridge 
# Structural Database, then it will include bibliographic, chemical, 
# crystal, experimental, refinement or atomic coordinate data resulting 
# from the CCDC's data processing and validation procedures.
#
#######################################################################

data_REGZEK
_chemical_formula_moiety         'C38 H66 Li4 N6 Si4'
_chemical_name_systematic        
bis((\m~2~-\h^4^-1,1,1-Trimethyl-N-(trimethylsilyl)silanamine)-(\m~2~-bis(trimethylsilyyl)amine))-tetra-lithium
_symmetry_cell_setting           triclinic
_symmetry_space_group_name_H-M   'P -1'
_symmetry_Int_Tables_number      2
_space_group_name_Hall           '-P 1'
loop_
_symmetry_equiv_pos_site_id
_symmetry_equiv_pos_as_xyz
1 x,y,z
2 -x,-y,-z
_cell_length_a                   9.1116(8)
_cell_length_b                   11.2374(10)
_cell_length_c                   12.0801(11)
_cell_angle_alpha                97.2570(10)
_cell_angle_beta                 100.0590(10)
_cell_angle_gamma                101.9070(10)
_cell_volume                     1174.63
_exptl_crystal_colour            colorless
_exptl_crystal_description       block
_cell_formula_units_Z            1
loop_
_atom_site_label
_atom_site_type_symbol
_atom_site_fract_x
_atom_site_fract_y
_atom_site_fract_z
C1 C 0.4054(3) 0.82381(19) 1.06495(17)
Li1 Li 0.2550(5) 0.6666(3) 0.7933(3)
N1 N 0.5463(2) 0.88557(15) 1.04948(15)
Si1 Si 0.32124(6) 0.84548(5) 0.62872(5)
C2 C 0.3137(3) 0.8647(2) 1.1353(2)
H1 H 0.3421 0.9444 1.1768
N2 N 0.3616(2) 0.52715(15) 0.79285(15)
Si2 Si 0.05162(6) 0.82895(6) 0.74175(5)
C3 C 0.1816(3) 0.7858(3) 1.1421(2)
H2 H 0.1197 0.8120 1.1891
N3 N 0.23650(17) 0.82268(14) 0.74203(13)
C4 C 0.1376(3) 0.6665(3) 1.0798(3)
H3 H 0.0471 0.6143 1.0865
C5 C 0.2248(3) 0.6244(2) 1.0089(2)
H4 H 0.1938 0.5447 0.9674
C6 C 0.3615(3) 0.70310(19) 0.99990(17)
C7 C 0.4841(3) 0.69046(18) 0.94343(17)
C8 C 0.5910(3) 0.80306(19) 0.97864(18)
H5 H 0.6843 0.8200 0.9557
C9 C 0.4864(3) 0.58738(19) 0.85929(18)
H6 H 0.5781 0.5653 0.8538
C10 C 0.3521(3) 0.41523(19) 0.70986(19)
C11 C 0.2745(4) 0.4373(3) 0.5954(2)
H7 H 0.1748 0.4507 0.5999
H8 H 0.2642 0.3667 0.5384
H9 H 0.3352 0.5087 0.5752
C12 C 0.2483(4) 0.3105(2) 0.7480(3)
H10 H 0.2975 0.2971 0.8209
H11 H 0.2290 0.2365 0.6931
H12 H 0.1530 0.3319 0.7542
C13 C 0.5054(4) 0.3848(3) 0.7026(3)
H13 H 0.5708 0.4526 0.6811
H14 H 0.4895 0.3122 0.6466
H15 H 0.5527 0.3702 0.7756
C14 C 0.5109(3) 0.8023(2) 0.6518(2)
H16 H 0.5751 0.8504 0.7213
H17 H 0.5594 0.8182 0.5890
H18 H 0.4954 0.7162 0.6571
C15 C 0.3588(3) 1.0109(2) 0.6087(2)
H19 H 0.2633 1.0317 0.5817
H20 H 0.4229 1.0229 0.5539
H21 H 0.4093 1.0629 0.6801
C16 C 0.2096(3) 0.7509(3) 0.4888(2)
H22 H 0.1765 0.6666 0.4982
H23 H 0.2735 0.7551 0.4333
H24 H 0.1218 0.7826 0.4632
C17 C -0.0454(3) 0.8986(3) 0.6261(2)
H25 H 0.0103 0.9820 0.6302
H26 H -0.1481 0.8982 0.6351
H27 H -0.0483 0.8515 0.5533
C18 C -0.0705(3) 0.6710(3) 0.7345(3)
H28 H -0.0586 0.6168 0.6703
H29 H -0.1760 0.6751 0.7261
H30 H -0.0395 0.6402 0.8033
C19 C 0.0416(3) 0.9241(4) 0.8772(3)
H31 H 0.0775 0.8867 0.9406
H32 H -0.0626 0.9289 0.8762
H33 H 0.1046 1.0056 0.8845
Li2 Li 0.6429(5) 1.0613(3) 1.1137(3)
C1A C 0.5946(3) 1.17619(19) 0.93505(17)
Li1A Li 0.7450(5) 1.3334(3) 1.2067(3)
N1A N 0.4537(2) 1.11443(15) 0.95052(15)
Si1A Si 0.67876(6) 1.15452(5) 1.37128(5)
C2A C 0.6863(3) 1.1353(2) 0.8647(2)
H1A H 0.6579 1.0556 0.8232
N2A N 0.6384(2) 1.47285(15) 1.20715(15)
Si2A Si 0.94838(6) 1.17105(6) 1.25825(5)
C3A C 0.8184(3) 1.2142(3) 0.8579(2)
H2A H 0.8803 1.1880 0.8109
N3A N 0.76350(17) 1.17732(14) 1.25797(13)
C4A C 0.8624(3) 1.3335(3) 0.9202(3)
H3A H 0.9529 1.3857 0.9135
C5A C 0.7752(3) 1.3756(2) 0.9911(2)
H4A H 0.8062 1.4553 1.0326
C6A C 0.6385(3) 1.29690(19) 1.00010(17)
C7A C 0.5159(3) 1.30954(18) 1.05657(17)
C8A C 0.4090(3) 1.19694(19) 1.02136(18)
H5A H 0.3157 1.1800 1.0443
C9A C 0.5136(3) 1.41262(19) 1.14071(18)
H6A H 0.4219 1.4347 1.1462
C10A C 0.6479(3) 1.58477(19) 1.29014(19)
C11A C 0.7255(4) 1.5627(3) 1.4046(2)
H7A H 0.8252 1.5493 1.4001
H8A H 0.7358 1.6333 1.4616
H9A H 0.6648 1.4913 1.4248
C12A C 0.7517(4) 1.6895(2) 1.2520(3)
H10A H 0.7025 1.7029 1.1791
H11A H 0.7710 1.7635 1.3069
H12A H 0.8470 1.6681 1.2458
C13A C 0.4946(4) 1.6152(3) 1.2974(3)
H13A H 0.4292 1.5474 1.3189
H14A H 0.5105 1.6878 1.3534
H15A H 0.4473 1.6298 1.2244
C14A C 0.4891(3) 1.1977(2) 1.3482(2)
H16A H 0.4249 1.1496 1.2787
H17A H 0.4406 1.1818 1.4110
H18A H 0.5046 1.2838 1.3429
C15A C 0.6412(3) 0.9891(2) 1.3913(2)
H19A H 0.7367 0.9683 1.4183
H20A H 0.5771 0.9771 1.4461
H21A H 0.5907 0.9371 1.3199
C16A C 0.7904(3) 1.2491(3) 1.5112(2)
H22A H 0.8235 1.3334 1.5018
H23A H 0.7265 1.2449 1.5667
H24A H 0.8782 1.2174 1.5368
C17A C 1.0454(3) 1.1014(3) 1.3739(2)
H25A H 0.9897 1.0180 1.3698
H26A H 1.1481 1.1018 1.3649
H27A H 1.0483 1.1485 1.4467
C18A C 1.0705(3) 1.3290(3) 1.2655(3)
H28A H 1.0586 1.3832 1.3297
H29A H 1.1760 1.3249 1.2739
H30A H 1.0395 1.3598 1.1967
C19A C 0.9584(3) 1.0759(4) 1.1228(3)
H31A H 0.9225 1.1133 1.0594
H32A H 1.0626 1.0711 1.1238
H33A H 0.8954 0.9944 1.1155
Li2A Li 0.3571(5) 0.9387(3) 0.8863(3)
loop_
_geom_bond_atom_site_label_1
_geom_bond_atom_site_label_2
_geom_bond_site_symmetry_1
_geom_bond_site_symmetry_2
C1 N1 1_555 1_555
Li1 N2 1_555 1_555
N1 C8 1_555 1_555
Si1 N3 1_555 1_555
C2 C1 1_555 1_555
H1 C2 1_555 1_555
N2 C9 1_555 1_555
Si2 N3 1_555 1_555
C3 C2 1_555 1_555
H2 C3 1_555 1_555
N3 Li1 1_555 1_555
C4 C3 1_555 1_555
H3 C4 1_555 1_555
C5 C4 1_555 1_555
H4 C5 1_555 1_555
C6 C1 1_555 1_555
C7 Li1 1_555 1_555
C8 C7 1_555 1_555
H5 C8 1_555 1_555
C9 Li1 1_555 1_555
H6 C9 1_555 1_555
C10 N2 1_555 1_555
C11 C10 1_555 1_555
H7 C11 1_555 1_555
H8 C11 1_555 1_555
H9 C11 1_555 1_555
C12 C10 1_555 1_555
H10 C12 1_555 1_555
H11 C12 1_555 1_555
H12 C12 1_555 1_555
C13 C10 1_555 1_555
H13 C13 1_555 1_555
H14 C13 1_555 1_555
H15 C13 1_555 1_555
C14 Si1 1_555 1_555
H16 C14 1_555 1_555
H17 C14 1_555 1_555
H18 C14 1_555 1_555
C15 Si1 1_555 1_555
H19 C15 1_555 1_555
H20 C15 1_555 1_555
H21 C15 1_555 1_555
C16 Si1 1_555 1_555
H22 C16 1_555 1_555
H23 C16 1_555 1_555
H24 C16 1_555 1_555
C17 Si2 1_555 1_555
H25 C17 1_555 1_555
H26 C17 1_555 1_555
H27 C17 1_555 1_555
C18 Si2 1_555 1_555
H28 C18 1_555 1_555
H29 C18 1_555 1_555
H30 C18 1_555 1_555
C19 Si2 1_555 1_555
H31 C19 1_555 1_555
H32 C19 1_555 1_555
H33 C19 1_555 1_555
Li2 N1 1_555 1_555
C1A N1A 1_555 1_555
Li1A N2A 1_555 1_555
N1A C8A 1_555 1_555
Si1A N3A 1_555 1_555
C2A C1A 1_555 1_555
H1A C2A 1_555 1_555
N2A C9A 1_555 1_555
Si2A N3A 1_555 1_555
C3A C2A 1_555 1_555
H2A C3A 1_555 1_555
N3A Li2 1_555 1_555
C4A C3A 1_555 1_555
H3A C4A 1_555 1_555
C5A C4A 1_555 1_555
H4A C5A 1_555 1_555
C6A C1A 1_555 1_555
C7A Li1A 1_555 1_555
C8A C7A 1_555 1_555
H5A C8A 1_555 1_555
C9A Li1A 1_555 1_555
H6A C9A 1_555 1_555
C10A N2A 1_555 1_555
C11A C10A 1_555 1_555
H7A C11A 1_555 1_555
H8A C11A 1_555 1_555
H9A C11A 1_555 1_555
C12A C10A 1_555 1_555
H10A C12A 1_555 1_555
H11A C12A 1_555 1_555
H12A C12A 1_555 1_555
C13A C10A 1_555 1_555
H13A C13A 1_555 1_555
H14A C13A 1_555 1_555
H15A C13A 1_555 1_555
C14A Si1A 1_555 1_555
H16A C14A 1_555 1_555
H17A C14A 1_555 1_555
H18A C14A 1_555 1_555
C15A Si1A 1_555 1_555
H19A C15A 1_555 1_555
H20A C15A 1_555 1_555
H21A C15A 1_555 1_555
C16A Si1A 1_555 1_555
H22A C16A 1_555 1_555
H23A C16A 1_555 1_555
H24A C16A 1_555 1_555
C17A Si2A 1_555 1_555
H25A C17A 1_555 1_555
H26A C17A 1_555 1_555
H27A C17A 1_555 1_555
C18A Si2A 1_555 1_555
H28A C18A 1_555 1_555
H29A C18A 1_555 1_555
H30A C18A 1_555 1_555
C19A Si2A 1_555 1_555
H31A C19A 1_555 1_555
H32A C19A 1_555 1_555
H33A C19A 1_555 1_555
Li2A N3 1_555 1_555
Li1 C6 1_555 1_555
C5 C6 1_555 1_555
C6 C7 1_555 1_555
C7 C9 1_555 1_555
Li1A N3A 1_555 1_555
Li1A C6A 1_555 1_555
N1A Li2A 1_555 1_555
C5A C6A 1_555 1_555
C6A C7A 1_555 1_555
C7A C9A 1_555 1_555

#END
