
#######################################################################
#
#                 Cambridge Crystallographic Data Centre
#                                CCDC 
#
#######################################################################
#
# If this CIF has been generated from an entry in the Cambridge 
# Structural Database, then it will include bibliographic, chemical, 
# crystal, experimental, refinement or atomic coordinate data resulting 
# from the CCDC's data processing and validation procedures.
#
#######################################################################

data_REHBIQ
_chemical_formula_moiety         'C78 H68 N4 O8,2(C1 H4 O1),0.5(C1 H2 Cl2)'
_chemical_name_systematic        
'23-Methoxy-6,6,12,12,19-pentakis(4-methoxyphenyl)-27-(bis(4-methoxyphenyl)methylene)-26,29,31-triazaheptacyclo(15.10.1.1^2,5^.1^7,11^.1^13,16^.0^18,26^.0^20,25^)hentriaconta-2,4,7(30),8,10,13,15,18,20,22,24-undecaene dichloromethane methanol solvate'
_symmetry_cell_setting           triclinic
_symmetry_space_group_name_H-M   'P -1'
_symmetry_Int_Tables_number      2
_space_group_name_Hall           '-P 1'
loop_
_symmetry_equiv_pos_site_id
_symmetry_equiv_pos_as_xyz
1 x,y,z
2 -x,-y,-z
_cell_length_a                   12.5613(6)
_cell_length_b                   15.0128(7)
_cell_length_c                   19.5558(9)
_cell_angle_alpha                98.184(1)
_cell_angle_beta                 91.140(1)
_cell_angle_gamma                110.228(1)
_cell_volume                     3415.65
_exptl_crystal_colour            colorless
_exptl_crystal_description       prism
_chemical_melting_point          '190 deg.C'
_cell_formula_units_Z            2
loop_
_atom_site_label
_atom_site_type_symbol
_atom_site_fract_x
_atom_site_fract_y
_atom_site_fract_z
O9 O 0.3449(2) 0.00593(17) 0.03037(12)
H69 H 0.3844 -0.0219 0.0473
C79 C 0.2475(4) -0.0066(3) 0.06618(18)
H70 H 0.2672 0.0362 0.1109
H71 H 0.2152 -0.0735 0.0739
H72 H 0.1916 0.0086 0.0390
O10 O 0.4843(3) 0.05862(16) -0.07444(14)
H73 H 0.4617 0.0488 -0.0351
C80 C 0.5141(3) 0.1548(2) -0.07845(16)
H74 H 0.5409 0.1927 -0.0323
H75 H 0.4477 0.1671 -0.0959
H76 H 0.5748 0.1731 -0.1100
O1 O 0.73561(12) 0.73050(11) 0.04858(8)
O2 O 1.41617(10) 0.63505(10) 0.09948(7)
O3 O 1.45738(12) 0.75840(11) 0.46549(8)
O4 O 0.95226(11) 0.19065(10) 0.58045(7)
O5 O 0.45301(16) 0.36381(16) 0.14637(12)
O6 O 0.75055(12) 0.02489(10) 0.48139(7)
O7 O 0.56963(13) -0.35115(12) 0.30138(10)
O8 O 1.35291(11) -0.10575(10) 0.22682(8)
N1 N 0.90188(12) 0.31663(10) 0.15036(7)
H1 H 0.9424 0.3224 0.1891
N2 N 0.99190(11) 0.45095(10) 0.26598(7)
N3 N 1.03308(12) 0.26156(10) 0.27711(7)
H2 H 0.9632 0.2393 0.2899
N4 N 0.83632(12) 0.07530(10) 0.24166(8)
C1 C 0.94908(14) 0.49520(12) 0.15734(9)
C2 C 0.88775(14) 0.39141(13) 0.12350(9)
C3 C 0.82260(15) 0.35370(13) 0.06242(9)
H3 H 0.8000 0.3888 0.0318
C4 C 0.79480(16) 0.25267(14) 0.05292(10)
H4 H 0.7501 0.2077 0.0149
C5 C 0.84416(15) 0.23176(13) 0.10852(9)
C6 C 0.89530(14) 0.55960(12) 0.12542(8)
C7 C 0.95485(15) 0.62928(12) 0.08754(9)
H5 H 1.0319 0.6377 0.0798
C8 C 0.90499(15) 0.68787(13) 0.06023(9)
H6 H 0.9474 0.7350 0.0339
C9 C 0.79340(16) 0.67646(14) 0.07189(9)
C10 C 0.73129(16) 0.60555(14) 0.10847(10)
H7 H 0.6542 0.5973 0.1161
C11 C 0.78068(15) 0.54714(13) 0.13371(9)
H8 H 0.7363 0.4973 0.1573
C12 C 0.7928(2) 0.7990(2) 0.0070(2)
H9 H 0.7426 0.8322 -0.0063
H10 H 0.8142 0.7667 -0.0347
H11 H 0.8614 0.8459 0.0332
C13 C 1.07650(14) 0.52652(12) 0.14431(8)
C14 C 1.11555(15) 0.47898(13) 0.09053(9)
H12 H 1.0639 0.4218 0.0640
C15 C 1.22776(15) 0.51213(14) 0.07413(10)
H13 H 1.2522 0.4780 0.0367
C16 C 1.30383(15) 0.59489(14) 0.11235(10)
C17 C 1.26752(15) 0.64306(13) 0.16819(9)
H14 H 1.3198 0.6992 0.1955
C18 C 1.15534(15) 0.60863(13) 0.18351(9)
H15 H 1.1312 0.6416 0.2217
C19 C 1.44728(18) 0.59891(19) 0.03436(13)
H16 H 1.5286 0.6321 0.0302
H17 H 1.4030 0.6101 -0.0032
H18 H 1.4316 0.5298 0.0314
C20 C 0.94173(14) 0.50398(12) 0.23677(9)
C21 C 0.89660(15) 0.56417(13) 0.27676(9)
H19 H 0.8618 0.6016 0.2559
C22 C 0.90355(15) 0.56837(13) 0.34830(9)
H20 H 0.8705 0.6071 0.3767
C23 C 0.95812(14) 0.51664(13) 0.37793(9)
H21 H 0.9656 0.5206 0.4268
C24 C 1.00222(14) 0.45816(12) 0.33444(9)
C25 C 1.08372(14) 0.41256(12) 0.36295(8)
C26 C 1.11312(14) 0.34895(12) 0.30476(9)
C27 C 1.20850(16) 0.35709(15) 0.27129(11)
H22 H 1.2781 0.4102 0.2793
C28 C 1.18640(17) 0.27241(15) 0.22223(11)
H23 H 1.2387 0.2590 0.1916
C29 C 1.07752(15) 0.21371(13) 0.22662(9)
C30 C 1.19058(14) 0.50239(13) 0.39099(9)
C31 C 1.24202(15) 0.56595(13) 0.34620(10)
H24 H 1.2153 0.5502 0.2987
C32 C 1.33063(16) 0.65117(14) 0.36842(11)
H25 H 1.3643 0.6931 0.3365
C33 C 1.37015(15) 0.67522(14) 0.43747(11)
C34 C 1.32098(16) 0.61300(15) 0.48292(11)
H26 H 1.3483 0.6289 0.5303
C35 C 1.23206(15) 0.52742(14) 0.45997(9)
H27 H 1.1991 0.4854 0.4919
C36 C 1.5001(2) 0.82992(16) 0.42251(14)
H28 H 1.5616 0.8849 0.4484
H29 H 1.4387 0.8510 0.4080
H30 H 1.5293 0.8031 0.3815
C37 C 1.03808(14) 0.35080(12) 0.41931(8)
C38 C 0.93331(14) 0.33469(13) 0.44632(9)
H31 H 0.8824 0.3612 0.4280
C39 C 0.90051(15) 0.28080(13) 0.49953(9)
H32 H 0.8286 0.2719 0.5178
C40 C 0.97255(16) 0.24037(13) 0.52579(9)
C41 C 1.07494(16) 0.25022(14) 0.49637(9)
H33 H 1.1229 0.2192 0.5121
C42 C 1.10684(15) 0.30477(13) 0.44444(9)
H34 H 1.1774 0.3114 0.4251
C43 C 0.85553(18) 0.18991(16) 0.61759(11)
H35 H 0.8502 0.1525 0.6554
H36 H 0.7866 0.1608 0.5861
H37 H 0.8633 0.2560 0.6368
C44 C 1.01484(15) 0.11583(13) 0.18666(9)
H38 H 1.0734 0.0868 0.1729
C45 C 0.94844(16) 0.11529(14) 0.11890(10)
H39 H 0.9299 0.0515 0.0898
H40 H 0.9992 0.1636 0.0933
C46 C 0.83649(15) 0.13645(13) 0.12792(9)
H41 H 0.7769 0.0860 0.0949
C47 C 0.79592(15) 0.12699(12) 0.19931(9)
C48 C 0.93165(15) 0.04704(13) 0.22646(9)
C49 C 0.93870(15) -0.03632(13) 0.24049(9)
C50 C 0.84180(15) -0.11725(12) 0.25797(10)
C51 C 0.85543(16) -0.16868(13) 0.30940(10)
H42 H 0.9276 -0.1500 0.3341
C52 C 0.76698(17) -0.24608(14) 0.32543(11)
H43 H 0.7784 -0.2791 0.3613
C53 C 0.66210(17) -0.27530(14) 0.28931(12)
C54 C 0.64675(17) -0.22615(15) 0.23693(12)
H44 H 0.5751 -0.2465 0.2113
C55 C 0.73485(16) -0.14816(14) 0.22213(10)
H45 H 0.7227 -0.1146 0.1868
C56 C 0.5809(2) -0.3987(2) 0.35808(18)
H46 H 0.5091 -0.4510 0.3613
H47 H 0.5997 -0.3526 0.4012
H48 H 0.6417 -0.4252 0.3505
C57 C 1.04984(15) -0.05133(12) 0.23765(9)
C58 C 1.05686(15) -0.13560(13) 0.20143(9)
H49 H 0.9898 -0.1838 0.1787
C59 C 1.15863(16) -0.15088(13) 0.19771(10)
H50 H 1.1616 -0.2082 0.1715
C60 C 1.25713(15) -0.08245(14) 0.23224(10)
C61 C 1.25292(16) 0.00189(14) 0.26939(10)
H51 H 1.3199 0.0493 0.2929
C62 C 1.14934(16) 0.01634(13) 0.27184(10)
H52 H 1.1465 0.0740 0.2976
C63 C 1.45734(17) -0.03585(17) 0.25912(15)
H53 H 1.5190 -0.0613 0.2519
H54 H 1.4500 -0.0214 0.3089
H55 H 1.4745 0.0231 0.2387
C64 C 0.72206(15) 0.16193(13) 0.23482(10)
C65 C 0.65433(15) 0.21718(14) 0.21117(11)
C66 C 0.66242(17) 0.30501(15) 0.24840(12)
H56 H 0.7143 0.3312 0.2883
C67 C 0.59579(19) 0.35591(17) 0.22850(14)
H57 H 0.6020 0.4160 0.2549
C68 C 0.52169(19) 0.31900(19) 0.17094(14)
C69 C 0.5120(2) 0.2309(2) 0.13330(14)
H58 H 0.4597 0.2047 0.0936
C70 C 0.57785(17) 0.18083(17) 0.15313(12)
H59 H 0.5708 0.1206 0.1267
C71 C 0.4581(3) 0.4514(3) 0.1831(2)
H60 H 0.4447 0.4448 0.2316
H61 H 0.3998 0.4717 0.1630
H62 H 0.5335 0.4996 0.1805
C72 C 0.71709(14) 0.13283(13) 0.30176(10)
C73 C 0.65527(15) 0.14535(13) 0.35904(10)
H63 H 0.6053 0.1804 0.3578
C74 C 0.66762(16) 0.10657(14) 0.41683(10)
H64 H 0.6241 0.1131 0.4552
C75 C 0.74428(16) 0.05723(13) 0.41979(10)
C76 C 0.80710(15) 0.04400(13) 0.36484(9)
H65 H 0.8600 0.0119 0.3673
C77 C 0.78906(15) 0.08010(12) 0.30536(9)
C78 C 0.8283(2) -0.02394(17) 0.48863(12)
H66 H 0.8249 -0.0431 0.5346
H67 H 0.9056 0.0190 0.4832
H68 H 0.8078 -0.0812 0.4530
loop_
_geom_bond_atom_site_label_1
_geom_bond_atom_site_label_2
_geom_bond_site_symmetry_1
_geom_bond_site_symmetry_2
O1 C9 1_555 1_555
O2 C16 1_555 1_555
O3 C33 1_555 1_555
O4 C40 1_555 1_555
O5 C68 1_555 1_555
O6 C75 1_555 1_555
O7 C53 1_555 1_555
O8 C60 1_555 1_555
N1 H1 1_555 1_555
N2 C20 1_555 1_555
N3 H2 1_555 1_555
N4 C47 1_555 1_555
C1 C2 1_555 1_555
C2 N1 1_555 1_555
C3 C2 1_555 1_555
H3 C3 1_555 1_555
C4 C3 1_555 1_555
H4 C4 1_555 1_555
C5 N1 1_555 1_555
C6 C1 1_555 1_555
C7 C6 1_555 1_555
H5 C7 1_555 1_555
C8 C7 1_555 1_555
H6 C8 1_555 1_555
C9 C8 1_555 1_555
C10 C9 1_555 1_555
H7 C10 1_555 1_555
C11 C6 1_555 1_555
H8 C11 1_555 1_555
C12 O1 1_555 1_555
H9 C12 1_555 1_555
H10 C12 1_555 1_555
H11 C12 1_555 1_555
C13 C1 1_555 1_555
C14 C13 1_555 1_555
H12 C14 1_555 1_555
C15 C14 1_555 1_555
H13 C15 1_555 1_555
C16 C15 1_555 1_555
C17 C16 1_555 1_555
H14 C17 1_555 1_555
C18 C13 1_555 1_555
H15 C18 1_555 1_555
C19 O2 1_555 1_555
H16 C19 1_555 1_555
H17 C19 1_555 1_555
H18 C19 1_555 1_555
C20 C1 1_555 1_555
C21 C20 1_555 1_555
H19 C21 1_555 1_555
C22 C21 1_555 1_555
H20 C22 1_555 1_555
C23 C22 1_555 1_555
H21 C23 1_555 1_555
C24 N2 1_555 1_555
C25 C24 1_555 1_555
C26 N3 1_555 1_555
C27 C26 1_555 1_555
H22 C27 1_555 1_555
C28 C27 1_555 1_555
H23 C28 1_555 1_555
C29 N3 1_555 1_555
C30 C25 1_555 1_555
C31 C30 1_555 1_555
H24 C31 1_555 1_555
C32 C31 1_555 1_555
H25 C32 1_555 1_555
C33 C32 1_555 1_555
C34 C33 1_555 1_555
H26 C34 1_555 1_555
C35 C30 1_555 1_555
H27 C35 1_555 1_555
C36 O3 1_555 1_555
H28 C36 1_555 1_555
H29 C36 1_555 1_555
H30 C36 1_555 1_555
C37 C25 1_555 1_555
C38 C37 1_555 1_555
H31 C38 1_555 1_555
C39 C38 1_555 1_555
H32 C39 1_555 1_555
C40 C39 1_555 1_555
C41 C40 1_555 1_555
H33 C41 1_555 1_555
C42 C37 1_555 1_555
H34 C42 1_555 1_555
C43 O4 1_555 1_555
H35 C43 1_555 1_555
H36 C43 1_555 1_555
H37 C43 1_555 1_555
C44 C29 1_555 1_555
H38 C44 1_555 1_555
C45 C44 1_555 1_555
H39 C45 1_555 1_555
H40 C45 1_555 1_555
C46 C5 1_555 1_555
H41 C46 1_555 1_555
C47 C46 1_555 1_555
C48 N4 1_555 1_555
C49 C48 1_555 1_555
C50 C49 1_555 1_555
C51 C50 1_555 1_555
H42 C51 1_555 1_555
C52 C51 1_555 1_555
H43 C52 1_555 1_555
C53 C52 1_555 1_555
C54 C53 1_555 1_555
H44 C54 1_555 1_555
C55 C50 1_555 1_555
H45 C55 1_555 1_555
C56 O7 1_555 1_555
H46 C56 1_555 1_555
H47 C56 1_555 1_555
H48 C56 1_555 1_555
C57 C49 1_555 1_555
C58 C57 1_555 1_555
H49 C58 1_555 1_555
C59 C58 1_555 1_555
H50 C59 1_555 1_555
C60 C59 1_555 1_555
C61 C60 1_555 1_555
H51 C61 1_555 1_555
C62 C57 1_555 1_555
H52 C62 1_555 1_555
C63 O8 1_555 1_555
H53 C63 1_555 1_555
H54 C63 1_555 1_555
H55 C63 1_555 1_555
C64 C47 1_555 1_555
C65 C64 1_555 1_555
C66 C65 1_555 1_555
H56 C66 1_555 1_555
C67 C66 1_555 1_555
H57 C67 1_555 1_555
C68 C67 1_555 1_555
C69 C68 1_555 1_555
H58 C69 1_555 1_555
C70 C65 1_555 1_555
H59 C70 1_555 1_555
C71 O5 1_555 1_555
H60 C71 1_555 1_555
H61 C71 1_555 1_555
H62 C71 1_555 1_555
C72 C64 1_555 1_555
C73 C72 1_555 1_555
H63 C73 1_555 1_555
C74 C73 1_555 1_555
H64 C74 1_555 1_555
C75 C74 1_555 1_555
C76 C75 1_555 1_555
H65 C76 1_555 1_555
C77 N4 1_555 1_555
C78 O6 1_555 1_555
H66 C78 1_555 1_555
H67 C78 1_555 1_555
H68 C78 1_555 1_555
O9 H69 1_555 1_555
C79 O9 1_555 1_555
H70 C79 1_555 1_555
H71 C79 1_555 1_555
H72 C79 1_555 1_555
O10 H73 1_555 1_555
C80 O10 1_555 1_555
H74 C80 1_555 1_555
H75 C80 1_555 1_555
H76 C80 1_555 1_555
C4 C5 1_555 1_555
C10 C11 1_555 1_555
C17 C18 1_555 1_555
C23 C24 1_555 1_555
C25 C26 1_555 1_555
C28 C29 1_555 1_555
C34 C35 1_555 1_555
C41 C42 1_555 1_555
C44 C48 1_555 1_555
C45 C46 1_555 1_555
C54 C55 1_555 1_555
C61 C62 1_555 1_555
C69 C70 1_555 1_555
C72 C77 1_555 1_555
C76 C77 1_555 1_555

#END
