
#######################################################################
#
#                 Cambridge Crystallographic Data Centre
#                                CCDC 
#
#######################################################################
#
# If this CIF has been generated from an entry in the Cambridge 
# Structural Database, then it will include bibliographic, chemical, 
# crystal, experimental, refinement or atomic coordinate data resulting 
# from the CCDC's data processing and validation procedures.
#
#######################################################################

data_REHDUF
_chemical_formula_moiety         'C14 H12 N4'
_chemical_name_systematic        
2',6'-Dimethyl-1',4'-dihydro-3,4'-bipyridine-3',5'-dicarbonitrile
_symmetry_cell_setting           monoclinic
_symmetry_space_group_name_H-M   'P 21/n'
_symmetry_Int_Tables_number      14
_space_group_name_Hall           '-P 2yn'
loop_
_symmetry_equiv_pos_site_id
_symmetry_equiv_pos_as_xyz
1 x,y,z
2 1/2-x,1/2+y,1/2-z
3 -x,-y,-z
4 1/2+x,1/2-y,1/2+z
_cell_length_a                   5.8153(6)
_cell_length_b                   12.6387(12)
_cell_length_c                   16.3614(15)
_cell_angle_alpha                90
_cell_angle_beta                 92.692(2)
_cell_angle_gamma                90
_cell_volume                     1201.2
_exptl_crystal_colour            colorless
_exptl_crystal_description       block
_cell_formula_units_Z            4
loop_
_atom_site_label
_atom_site_type_symbol
_atom_site_fract_x
_atom_site_fract_y
_atom_site_fract_z
N1 N -0.1953(3) 0.76052(12) 1.16960(9)
N2 N 0.0125(2) 0.73678(11) 0.81333(8)
H1 H 0.1310 0.7469 0.7848
N3 N -0.2688(3) 0.44493(13) 0.96357(10)
N4 N -0.6117(3) 0.95615(15) 0.88773(12)
C1 C 0.0029(3) 0.81286(15) 1.17120(11)
H2 H 0.0706 0.8312 1.2219
C2 C 0.1139(3) 0.84145(16) 1.10196(12)
H3 H 0.2523 0.8784 1.1059
C3 C 0.0154(3) 0.81413(15) 1.02677(11)
H4 H 0.0861 0.8331 0.9791
C4 C -0.1896(3) 0.75829(12) 1.02256(9)
C5 C -0.2872(3) 0.73409(13) 1.09556(10)
H5 H -0.4256 0.6971 1.0933
C6 C -0.3045(3) 0.72311(12) 0.94111(9)
H6 H -0.4640 0.7028 0.9500
C7 C -0.1786(3) 0.62874(12) 0.90627(10)
C8 C -0.0159(3) 0.64028(13) 0.85047(10)
C9 C -0.1437(3) 0.81725(13) 0.82075(10)
C10 C -0.3039(3) 0.81124(13) 0.87750(10)
C11 C -0.2242(3) 0.52651(13) 0.93882(10)
C12 C 0.1423(3) 0.55485(15) 0.82462(11)
H7 H 0.0955 0.4885 0.8471
H8 H 0.2967 0.5708 0.8442
H9 H 0.1366 0.5503 0.7660
C13 C -0.1229(4) 0.90652(15) 0.76175(12)
H10 H -0.2348 0.9599 0.7727
H11 H -0.1493 0.8807 0.7069
H12 H 0.0288 0.9363 0.7676
C14 C -0.4728(3) 0.89213(14) 0.88283(11)
loop_
_geom_bond_atom_site_label_1
_geom_bond_atom_site_label_2
_geom_bond_site_symmetry_1
_geom_bond_site_symmetry_2
N1 C1 1_555 1_555
N2 H1 1_555 1_555
N3 C11 1_555 1_555
N4 C14 1_555 1_555
C1 H2 1_555 1_555
C2 C1 1_555 1_555
H3 C2 1_555 1_555
C3 C2 1_555 1_555
H4 C3 1_555 1_555
C4 C3 1_555 1_555
C5 N1 1_555 1_555
H5 C5 1_555 1_555
C6 C4 1_555 1_555
H6 C6 1_555 1_555
C7 C6 1_555 1_555
C8 N2 1_555 1_555
C9 N2 1_555 1_555
C10 C6 1_555 1_555
C11 C7 1_555 1_555
C12 C8 1_555 1_555
H7 C12 1_555 1_555
H8 C12 1_555 1_555
H9 C12 1_555 1_555
C13 C9 1_555 1_555
H10 C13 1_555 1_555
H11 C13 1_555 1_555
H12 C13 1_555 1_555
C14 C10 1_555 1_555
C4 C5 1_555 1_555
C7 C8 1_555 1_555
C9 C10 1_555 1_555

#END
