
#######################################################################
#
#                 Cambridge Crystallographic Data Centre
#                                CCDC 
#
#######################################################################
#
# If this CIF has been generated from an entry in the Cambridge 
# Structural Database, then it will include bibliographic, chemical, 
# crystal, experimental, refinement or atomic coordinate data resulting 
# from the CCDC's data processing and validation procedures.
#
#######################################################################

data_REHVAC
_chemical_formula_moiety         'C17 H14 O2 S1'
_chemical_name_systematic        
(Z)-2-(Methylthio)-1,4-diphenylbut-2-ene-1,4-dione
_symmetry_cell_setting           monoclinic
_symmetry_space_group_name_H-M   'P 21/c'
_symmetry_Int_Tables_number      14
_space_group_name_Hall           '-P 2ybc'
loop_
_symmetry_equiv_pos_site_id
_symmetry_equiv_pos_as_xyz
1 x,y,z
2 -x,1/2+y,1/2-z
3 -x,-y,-z
4 x,1/2-y,1/2+z
_cell_length_a                   8.856(5)
_cell_length_b                   19.688(12)
_cell_length_c                   9.065(5)
_cell_angle_alpha                90
_cell_angle_beta                 98.531(9)
_cell_angle_gamma                90
_cell_volume                     1563.06
_exptl_crystal_colour            colorless
_exptl_crystal_description       block
_chemical_melting_point          '65-66 deg.C'
_cell_formula_units_Z            4
loop_
_atom_site_label
_atom_site_type_symbol
_atom_site_fract_x
_atom_site_fract_y
_atom_site_fract_z
C1 C 0.1213(5) 0.76000(17) 0.6556(4)
H1 H 0.1707 0.7952 0.6138
C2 C -0.0343(5) 0.7649(2) 0.6632(5)
H2 H -0.0886 0.8030 0.6253
C3 C -0.1086(5) 0.7129(2) 0.7273(5)
H3 H -0.2122 0.7165 0.7330
C4 C -0.0280(5) 0.65539(19) 0.7830(5)
H4 H -0.0779 0.6207 0.8258
C5 C 0.1270(4) 0.64980(15) 0.7748(4)
H5 H 0.1802 0.6112 0.8120
C6 C 0.2042(4) 0.70220(13) 0.7106(3)
C7 C 0.3691(4) 0.69711(14) 0.6979(3)
C8 C 0.4549(3) 0.63082(13) 0.7438(3)
C9 C 0.3471(5) 0.6074(2) 0.4399(4)
H6 H 0.2439 0.6152 0.4564
H7 H 0.3472 0.5778 0.3557
H8 H 0.3937 0.6499 0.4207
C10 C 0.5280(4) 0.62537(14) 0.8870(3)
H9 H 0.5152 0.6602 0.9532
C11 C 0.6263(3) 0.56742(14) 0.9431(3)
C12 C 0.7148(3) 0.57079(13) 1.0995(3)
C13 C 0.8509(4) 0.53369(15) 1.1301(4)
H10 H 0.8819 0.5063 1.0567
C14 C 0.9409(5) 0.53770(19) 1.2713(5)
H11 H 1.0328 0.5142 1.2897
C15 C 0.8927(5) 0.5768(2) 1.3839(4)
H12 H 0.9517 0.5790 1.4776
C16 C 0.7558(5) 0.61273(19) 1.3553(4)
H13 H 0.7226 0.6384 1.4305
C17 C 0.6685(4) 0.61027(16) 1.2145(4)
H14 H 0.5783 0.6351 1.1960
O1 O 0.4409(3) 0.74425(12) 0.6505(3)
O2 O 0.6436(3) 0.51803(11) 0.8607(3)
S1 S 0.45499(11) 0.56796(4) 0.60558(10)
loop_
_geom_bond_atom_site_label_1
_geom_bond_atom_site_label_2
_geom_bond_site_symmetry_1
_geom_bond_site_symmetry_2
C1 H1 1_555 1_555
C2 C1 1_555 1_555
H2 C2 1_555 1_555
C3 C2 1_555 1_555
H3 C3 1_555 1_555
C4 C3 1_555 1_555
H4 C4 1_555 1_555
C5 C4 1_555 1_555
H5 C5 1_555 1_555
C6 C1 1_555 1_555
C7 C6 1_555 1_555
C8 C7 1_555 1_555
C9 H6 1_555 1_555
H7 C9 1_555 1_555
H8 C9 1_555 1_555
C10 C8 1_555 1_555
H9 C10 1_555 1_555
C11 C10 1_555 1_555
C12 C11 1_555 1_555
C13 C12 1_555 1_555
H10 C13 1_555 1_555
C14 C13 1_555 1_555
H11 C14 1_555 1_555
C15 C14 1_555 1_555
H12 C15 1_555 1_555
C16 C15 1_555 1_555
H13 C16 1_555 1_555
C17 C12 1_555 1_555
H14 C17 1_555 1_555
O1 C7 1_555 1_555
O2 C11 1_555 1_555
S1 C8 1_555 1_555
C5 C6 1_555 1_555
C9 S1 1_555 1_555
C16 C17 1_555 1_555

#END
