
#######################################################################
#
#                 Cambridge Crystallographic Data Centre
#                                CCDC 
#
#######################################################################
#
# If this CIF has been generated from an entry in the Cambridge 
# Structural Database, then it will include bibliographic, chemical, 
# crystal, experimental, refinement or atomic coordinate data resulting 
# from the CCDC's data processing and validation procedures.
#
#######################################################################

data_REHYIN
_chemical_formula_moiety         'C40 H49 Br1 N6 O8'
_chemical_name_systematic        
'2-(4,11-Diisopropyl-7,14,21-trimethyl-2,9,16-trioxo-6,13,20-trioxa-3,10,17,22,23,24-hexaazatetracyclo(17.2.1.1^5,8^.1^12,15^)tetracosa-5(24),12(23),19(22)-trien-18-yl)-3-phenylpropyl p-bromobenzoate'
_symmetry_cell_setting           orthorhombic
_symmetry_space_group_name_H-M   'P 21 21 21'
_symmetry_Int_Tables_number      19
_space_group_name_Hall           'P 2ac 2ab'
loop_
_symmetry_equiv_pos_site_id
_symmetry_equiv_pos_as_xyz
1 x,y,z
2 1/2-x,-y,1/2+z
3 -x,1/2+y,1/2-z
4 1/2+x,1/2-y,-z
_cell_length_a                   10.1308
_cell_length_b                   15.6872
_cell_length_c                   26.4430
_cell_angle_alpha                90
_cell_angle_beta                 90
_cell_angle_gamma                90
_cell_volume                     4202.42
_cell_formula_units_Z            4
loop_
_atom_site_label
_atom_site_type_symbol
_atom_site_fract_x
_atom_site_fract_y
_atom_site_fract_z
Br1 Br 0.7606 0.4606 0.0342
C1 C 0.6554 0.0300 -0.2372
C2 C 0.8727 0.0614 -0.2348
C3 C 0.8443 -0.0312 -0.2195
C4 C 0.9608 0.0713 -0.2802
C5 C 0.9006 -0.0563 -0.1686
C6 C 0.8521 -0.1499 -0.0953
C7 C 0.8011 -0.1077 -0.0467
C8 C 0.6536 -0.0973 -0.0462
C9 C 0.8732 -0.0249 -0.0358
C10 C 0.7960 -0.2379 -0.1018
C11 C 0.7596 -0.3729 -0.0780
C12 C 0.6870 -0.3499 -0.1269
C13 C 0.8643 -0.4394 -0.0841
C14 C 0.5384 -0.3575 -0.1246
C15 C 0.3311 -0.2875 -0.1515
C16 C 0.2691 -0.2530 -0.1026
C17 C 0.2871 -0.1575 -0.0978
C18 C 0.1767 -0.2899 -0.0823
C19 C 0.3005 -0.2349 -0.1969
C20 C 0.1655 -0.1658 -0.2493
C21 C 0.3102 -0.1518 -0.2628
C22 C 0.0799 -0.1987 -0.2914
C23 C 0.3451 -0.0584 -0.2682
C24 C 0.5111 0.0493 -0.2431
C25 C 0.4668 0.1174 -0.2050
C26 C 0.3272 0.1491 -0.2164
C27 C 0.2830 0.2196 -0.1807
C28 C 0.3282 0.3012 -0.1869
C29 C 0.2936 0.3659 -0.1531
C30 C 0.2124 0.3489 -0.1143
C31 C 0.1644 0.2682 -0.1075
C32 C 0.1971 0.2021 -0.1412
C33 C 0.4810 0.0850 -0.1513
C34 C 0.6444 0.1649 -0.1089
C35 C 0.6697 0.2375 -0.0749
C36 C 0.7892 0.2431 -0.0506
C37 C 0.8147 0.3096 -0.0179
C38 C 0.7249 0.3707 -0.0105
C39 C 0.6065 0.3678 -0.0351
C40 C 0.5805 0.3008 -0.0677
H1 H 0.6956 -0.3916 -0.0526
H2 H 0.7188 -0.3878 -0.1537
H3 H 0.9045 -0.4505 -0.0519
H4 H 0.9300 -0.4195 -0.1074
H5 H 0.8254 -0.4909 -0.0968
H6 H 0.2963 -0.3450 -0.1572
H7 H 0.2455 -0.1380 -0.0673
H8 H 0.2475 -0.1297 -0.1264
H9 H 0.3795 -0.1443 -0.0967
H10 H 0.1492 -0.2586 -0.0529
H11 H 0.2041 -0.3461 -0.0724
H12 H 0.1044 -0.2941 -0.1056
H13 H 0.1282 -0.1125 -0.2363
H14 H 0.3273 -0.1799 -0.2953
H15 H -0.0090 -0.2050 -0.2795
H16 H 0.1126 -0.2530 -0.3025
H17 H 0.0815 -0.1592 -0.3191
H18 H 0.4961 0.0710 -0.2773
H19 H 0.5265 0.1662 -0.2088
H20 H 0.3240 0.1701 -0.2509
H21 H 0.2662 0.1017 -0.2138
H22 H 0.3829 0.3138 -0.2141
H23 H 0.3268 0.4207 -0.1575
H24 H 0.9094 0.0929 -0.2060
H25 H 0.7540 -0.1140 -0.1523
H26 H 0.1886 0.3921 -0.0920
H27 H 0.1095 0.2568 -0.0801
H28 H 0.1619 0.1478 -0.1371
H29 H 0.3982 0.0596 -0.1407
H30 H 0.5481 0.0409 -0.1505
H31 H 0.8533 0.2018 -0.0562
H32 H 0.8949 0.3119 -0.0009
H33 H 0.5440 0.4103 -0.0299
H34 H 0.8834 -0.0685 -0.2452
H35 H 0.5005 0.2991 -0.0850
H36 H 0.9749 0.1308 -0.2867
H37 H 0.9198 0.0453 -0.3090
H38 H 1.0441 0.0442 -0.2737
H39 H 0.5150 -0.2690 -0.1601
H40 H 0.9485 -0.1542 -0.0933
H41 H 0.4780 -0.0660 -0.2208
H42 H 0.8228 -0.1466 -0.0189
H43 H 0.6126 -0.1511 -0.0536
H44 H 0.6282 -0.0562 -0.0712
H45 H 0.6258 -0.0781 -0.0134
H46 H 0.8383 0.0004 -0.0056
H47 H 0.8612 0.0136 -0.0637
H48 H 0.9656 -0.0362 -0.0314
N1 N 0.7006 -0.0404 -0.2223
N2 N 0.8178 -0.1012 -0.1402
N3 N 0.7300 -0.2628 -0.1390
N4 N 0.4720 -0.2938 -0.1464
N5 N 0.3849 -0.1965 -0.2238
N6 N 0.4417 -0.0310 -0.2376
O1 O 0.7400 0.0940 -0.2471
O2 O 0.8170 -0.2920 -0.0627
O3 O 0.1716 -0.2278 -0.2090
O4 O 1.0132 -0.0400 -0.1572
O5 O 0.4832 -0.4159 -0.1048
O6 O 0.2853 -0.0125 -0.2973
O7 O 0.5163 0.1515 -0.1166
O8 O 0.7295 0.1229 -0.1292
loop_
_geom_bond_atom_site_label_1
_geom_bond_atom_site_label_2
_geom_bond_site_symmetry_1
_geom_bond_site_symmetry_2
Br1 C38 1_555 1_555
C1 C24 1_555 1_555
C2 C3 1_555 1_555
C3 C5 1_555 1_555
C4 C2 1_555 1_555
C5 N2 1_555 1_555
C6 C7 1_555 1_555
C7 C8 1_555 1_555
C8 H43 1_555 1_555
C9 C7 1_555 1_555
C10 C6 1_555 1_555
C11 C12 1_555 1_555
C12 C14 1_555 1_555
C13 C11 1_555 1_555
C14 N4 1_555 1_555
C15 C16 1_555 1_555
C16 C17 1_555 1_555
C17 H7 1_555 1_555
C18 C16 1_555 1_555
C19 C15 1_555 1_555
C20 C21 1_555 1_555
C21 C23 1_555 1_555
C22 C20 1_555 1_555
C23 N6 1_555 1_555
C24 C25 1_555 1_555
C25 C26 1_555 1_555
C26 C27 1_555 1_555
C27 C28 1_555 1_555
C28 C29 1_555 1_555
C29 C30 1_555 1_555
C30 C31 1_555 1_555
C31 C32 1_555 1_555
C32 C27 1_555 1_555
C33 C25 1_555 1_555
C34 C35 1_555 1_555
C35 C36 1_555 1_555
C36 C37 1_555 1_555
C37 C38 1_555 1_555
C38 C39 1_555 1_555
C39 C40 1_555 1_555
C40 C35 1_555 1_555
H1 C11 1_555 1_555
H2 C12 1_555 1_555
H3 C13 1_555 1_555
H4 C13 1_555 1_555
H5 C13 1_555 1_555
H6 C15 1_555 1_555
H8 C17 1_555 1_555
H9 C17 1_555 1_555
H10 C18 1_555 1_555
H11 C18 1_555 1_555
H12 C18 1_555 1_555
H13 C20 1_555 1_555
H14 C21 1_555 1_555
H15 C22 1_555 1_555
H16 C22 1_555 1_555
H17 C22 1_555 1_555
H18 C24 1_555 1_555
H19 C25 1_555 1_555
H20 C26 1_555 1_555
H21 C26 1_555 1_555
H22 C28 1_555 1_555
H23 C29 1_555 1_555
H24 C2 1_555 1_555
H25 N2 1_555 1_555
H26 C30 1_555 1_555
H27 C31 1_555 1_555
H28 C32 1_555 1_555
H29 C33 1_555 1_555
H30 C33 1_555 1_555
H31 C36 1_555 1_555
H32 C37 1_555 1_555
H33 C39 1_555 1_555
H34 C3 1_555 1_555
H35 C40 1_555 1_555
H36 C4 1_555 1_555
H37 C4 1_555 1_555
H38 C4 1_555 1_555
H39 N4 1_555 1_555
H40 C6 1_555 1_555
H41 N6 1_555 1_555
H42 C7 1_555 1_555
H44 C8 1_555 1_555
H45 C8 1_555 1_555
H46 C9 1_555 1_555
H47 C9 1_555 1_555
H48 C9 1_555 1_555
N1 C1 1_555 1_555
N2 C6 1_555 1_555
N3 C10 1_555 1_555
N4 C15 1_555 1_555
N5 C19 1_555 1_555
N6 C24 1_555 1_555
O1 C1 1_555 1_555
O2 C10 1_555 1_555
O3 C19 1_555 1_555
O4 C5 1_555 1_555
O5 C14 1_555 1_555
O6 C23 1_555 1_555
O7 C33 1_555 1_555
O8 C34 1_555 1_555
C2 O1 1_555 1_555
C3 N1 1_555 1_555
C11 O2 1_555 1_555
C12 N3 1_555 1_555
C20 O3 1_555 1_555
C21 N5 1_555 1_555
C34 O7 1_555 1_555

#END
