
#######################################################################
#
#                 Cambridge Crystallographic Data Centre
#                                CCDC 
#
#######################################################################
#
# If this CIF has been generated from an entry in the Cambridge 
# Structural Database, then it will include bibliographic, chemical, 
# crystal, experimental, refinement or atomic coordinate data resulting 
# from the CCDC's data processing and validation procedures.
#
#######################################################################

data_REJJUO
_chemical_formula_moiety         '2(C10 H12 N3 1+),C10 H6 O6 S2 2-,2(H2 O1)'
_chemical_name_systematic        
'bis(2-amino-5,7-dimethyl-1,8-naphthyridin-8-ium) naphthalene-1,5-disulfonate dihydrate'
_symmetry_cell_setting           monoclinic
_symmetry_space_group_name_H-M   'P 21/c'
_symmetry_Int_Tables_number      14
_space_group_name_Hall           '-P 2ybc'
loop_
_symmetry_equiv_pos_site_id
_symmetry_equiv_pos_as_xyz
1 x,y,z
2 -x,1/2+y,1/2-z
3 -x,-y,-z
4 x,1/2-y,1/2+z
_cell_length_a                   7.8086(6)
_cell_length_b                   14.8403(12)
_cell_length_c                   13.5669(11)
_cell_angle_alpha                90
_cell_angle_beta                 100.676(2)
_cell_angle_gamma                90
_cell_volume                     1544.95
_exptl_crystal_colour            colorless
_exptl_crystal_description       block
_cell_formula_units_Z            2
loop_
_atom_site_label
_atom_site_type_symbol
_atom_site_fract_x
_atom_site_fract_y
_atom_site_fract_z
N1 N 0.2071(4) 0.4922(2) 0.3930(2)
N2 N 0.3459(4) 0.4355(2) 0.5420(2)
H1 H 0.3742 0.3913 0.5074
N3 N 0.0671(5) 0.5478(2) 0.2434(3)
H2 H 0.1049 0.5023 0.2146
H3 H 0.0033 0.5877 0.2082
C1 C 0.1075(6) 0.5565(3) 0.3425(3)
C2 C 0.0451(6) 0.6316(3) 0.3909(4)
H4 H -0.0276 0.6738 0.3535
C3 C 0.0915(6) 0.6411(3) 0.4899(4)
H5 H 0.0535 0.6910 0.5214
C4 C 0.1990(6) 0.5753(3) 0.5477(3)
C5 C 0.2484(5) 0.5033(3) 0.4928(3)
C6 C 0.4006(6) 0.4340(3) 0.6420(3)
C7 C 0.3579(6) 0.5063(3) 0.6970(3)
H6 H 0.3974 0.5072 0.7661
C8 C 0.2579(6) 0.5774(3) 0.6523(3)
C9 C 0.5000(6) 0.3543(3) 0.6864(3)
H7 H 0.4215 0.3114 0.7070
H8 H 0.5846 0.3726 0.7436
H9 H 0.5582 0.3272 0.6375
C10 C 0.2123(8) 0.6544(3) 0.7146(4)
H10 H 0.0929 0.6491 0.7222
H11 H 0.2285 0.7103 0.6821
H12 H 0.2865 0.6529 0.7795
O1 O 0.3999(4) 0.28883(17) 0.4207(2)
O2 O 0.2164(4) 0.21260(19) 0.5191(2)
O3 O 0.1991(4) 0.17473(18) 0.3440(2)
S1 S 0.30707(15) 0.20605(7) 0.43588(8)
C11 C 0.6418(6) 0.1500(3) 0.4800(3)
H13 H 0.6668 0.2100 0.4692
C12 C 0.4719(5) 0.1225(2) 0.4707(3)
C13 C 0.4302(5) 0.0314(2) 0.4872(3)
C14 C 0.2579(5) 0.0001(3) 0.4802(3)
H14 H 0.1664 0.0409 0.4656
C15 C 0.2220(6) -0.0879(3) 0.4941(3)
H15 H 0.1070 -0.1070 0.4866
O1B O 0.6001(4) -0.28883(17) 0.5793(2)
O2B O 0.7836(4) -0.21260(19) 0.4809(2)
O3B O 0.8009(4) -0.17473(18) 0.6560(2)
S1B S 0.69293(15) -0.20605(7) 0.56412(8)
C11B C 0.3582(6) -0.1500(3) 0.5200(3)
H13B H 0.3332 -0.2100 0.5308
C12B C 0.5281(5) -0.1225(2) 0.5293(3)
C13B C 0.5698(5) -0.0314(2) 0.5128(3)
C14B C 0.7421(5) -0.0001(3) 0.5198(3)
H14B H 0.8336 -0.0409 0.5344
C15B C 0.7780(6) 0.0879(3) 0.5059(3)
H15B H 0.8930 0.1070 0.5134
O4 O 0.2282(6) 0.1202(2) 0.7025(3)
H16 H 0.1496 0.1533 0.6689
H17 H 0.3024 0.1234 0.6640
loop_
_geom_bond_atom_site_label_1
_geom_bond_atom_site_label_2
_geom_bond_site_symmetry_1
_geom_bond_site_symmetry_2
N1 C1 1_555 1_555
N2 H1 1_555 1_555
N3 H2 1_555 1_555
H3 N3 1_555 1_555
C1 N3 1_555 1_555
C2 C1 1_555 1_555
H4 C2 1_555 1_555
C3 C2 1_555 1_555
H5 C3 1_555 1_555
C4 C3 1_555 1_555
C5 N1 1_555 1_555
C6 N2 1_555 1_555
C7 C6 1_555 1_555
H6 C7 1_555 1_555
C8 C4 1_555 1_555
C9 C6 1_555 1_555
H7 C9 1_555 1_555
H8 C9 1_555 1_555
H9 C9 1_555 1_555
C10 C8 1_555 1_555
H10 C10 1_555 1_555
H11 C10 1_555 1_555
H12 C10 1_555 1_555
O1 S1 1_555 1_555
O2 S1 1_555 1_555
O3 S1 1_555 1_555
S1 C12 1_555 1_555
C11 H13 1_555 1_555
C12 C11 1_555 1_555
C13 C12 1_555 1_555
C14 C13 1_555 1_555
H14 C14 1_555 1_555
C15 C14 1_555 1_555
H15 C15 1_555 1_555
O4 H16 1_555 1_555
H17 O4 1_555 1_555
O1B S1B 1_555 1_555
O2B S1B 1_555 1_555
O3B S1B 1_555 1_555
S1B C12B 1_555 1_555
C11B C15 1_555 1_555
H13B C11B 1_555 1_555
C12B C11B 1_555 1_555
C13B C13 1_555 1_555
C14B C13B 1_555 1_555
H14B C14B 1_555 1_555
C15B C11 1_555 1_555
H15B C15B 1_555 1_555
N2 C5 1_555 1_555
C4 C5 1_555 1_555
C7 C8 1_555 1_555
C12B C13B 1_555 1_555
C14B C15B 1_555 1_555

#END
