
#######################################################################
#
#                 Cambridge Crystallographic Data Centre
#                                CCDC 
#
#######################################################################
#
# If this CIF has been generated from an entry in the Cambridge 
# Structural Database, then it will include bibliographic, chemical, 
# crystal, experimental, refinement or atomic coordinate data resulting 
# from the CCDC's data processing and validation procedures.
#
#######################################################################

data_REJKOJ
_chemical_formula_moiety         'C10 H12 N3 1+,C2 Cl3 O2 1-'
_chemical_name_systematic        
'2-amino-5,7-dimethyl-1,8-naphthyridinium trichloroacetate'
_symmetry_cell_setting           monoclinic
_symmetry_space_group_name_H-M   'C 2/m'
_symmetry_Int_Tables_number      12
_space_group_name_Hall           '-C 2y'
loop_
_symmetry_equiv_pos_site_id
_symmetry_equiv_pos_as_xyz
1 x,y,z
2 -x,y,-z
3 1/2+x,1/2+y,z
4 1/2-x,1/2+y,-z
5 -x,-y,-z
6 x,-y,z
7 1/2-x,1/2-y,-z
8 1/2+x,1/2-y,z
_cell_length_a                   21.394(2)
_cell_length_b                   6.8212(5)
_cell_length_c                   12.5009(9)
_cell_angle_alpha                90
_cell_angle_beta                 124.861(2)
_cell_angle_gamma                90
_cell_volume                     1496.91
_exptl_crystal_colour            colorless
_exptl_crystal_description       block
_cell_formula_units_Z            4
loop_
_atom_site_label
_atom_site_type_symbol
_atom_site_fract_x
_atom_site_fract_y
_atom_site_fract_z
Cl1 Cl 0.40879(6) 0.5000 0.36550(9)
Cl2 Cl 0.34571(5) 0.28701(17) 0.12421(8)
O1 O 0.53703(14) 0.5000 0.3394(2)
O2 O 0.46944(17) 0.5000 0.1237(3)
C1 C 0.4772(2) 0.5000 0.2302(4)
C2 C 0.39889(19) 0.5000 0.2163(3)
Cl2E Cl 0.34571(5) 0.71299(17) 0.12421(8)
N1 N 0.18505(16) 1.0000 0.3745(3)
H1 H 0.1453 1.0000 0.3758
N2 N 0.25546(17) 1.0000 0.6005(3)
N3 N 0.10570(17) 1.0000 0.1482(3)
H2 H 0.0667 1.0000 0.1517
H3 H 0.0995 1.0000 0.0739
C3 C 0.1752(2) 1.0000 0.2571(3)
C4 C 0.2422(2) 1.0000 0.2565(4)
H4 H 0.2370 1.0000 0.1774
C5 C 0.3123(2) 1.0000 0.3686(4)
H5 H 0.3547 1.0000 0.3657
C6 C 0.3227(2) 1.0000 0.4935(3)
C7 C 0.2567(2) 1.0000 0.4932(3)
C8 C 0.3246(2) 1.0000 0.7166(3)
C9 C 0.3939(2) 1.0000 0.7269(4)
H6 H 0.4398 1.0000 0.8089
C10 C 0.3946(2) 1.0000 0.6168(4)
C11 C 0.3242(3) 1.0000 0.8379(4)
C12 C 0.4683(2) 1.0000 0.6260(4)
H7? H 0.3281 0.8677 0.8673
H8? H 0.2776 1.0573 0.8176
H9? H 0.3667 1.0750 0.9053
H10? H 0.5104 1.0148 0.7155
H11? H 0.4680 1.1068 0.5757
H12? H 0.4731 0.8784 0.5927
loop_
_geom_bond_atom_site_label_1
_geom_bond_atom_site_label_2
_geom_bond_site_symmetry_1
_geom_bond_site_symmetry_2
Cl1 C2 1_555 1_555
Cl2 C2 1_555 1_555
O1 C1 1_555 1_555
O2 C1 1_555 1_555
C1 C2 1_555 1_555
C2 Cl2E 1_555 1_555
N1 H1 1_555 1_555
N2 C7 1_555 1_555
N3 H2 1_555 1_555
H3 N3 1_555 1_555
C3 N1 1_555 1_555
C4 C3 1_555 1_555
H4 C4 1_555 1_555
C5 C4 1_555 1_555
H5 C5 1_555 1_555
C6 C5 1_555 1_555
C7 N1 1_555 1_555
C8 N2 1_555 1_555
C9 C8 1_555 1_555
H6 C9 1_555 1_555
C10 C6 1_555 1_555
C11 C8 1_555 1_555
C12 C10 1_555 1_555
N3 C3 1_555 1_555
C6 C7 1_555 1_555
C9 C10 1_555 1_555

#END
