
#######################################################################
#
#                 Cambridge Crystallographic Data Centre
#                                CCDC 
#
#######################################################################
#
# If this CIF has been generated from an entry in the Cambridge 
# Structural Database, then it will include bibliographic, chemical, 
# crystal, experimental, refinement or atomic coordinate data resulting 
# from the CCDC's data processing and validation procedures.
#
#######################################################################

data_REJVEI
_chemical_formula_moiety         'C6 H11 N3'
_chemical_name_systematic        2,3,5,6,7,8-Hexahydroimidazo(1,2-a)pyrimidine
_symmetry_cell_setting           monoclinic
_symmetry_space_group_name_H-M   'C 2/c'
_symmetry_Int_Tables_number      15
_space_group_name_Hall           '-C 2yn'
loop_
_symmetry_equiv_pos_site_id
_symmetry_equiv_pos_as_xyz
1 x,y,z
2 1/2+x,1/2+y,z
3 -x,y,1/2-z
4 1/2-x,1/2+y,1/2-z
5 -x,-y,-z
6 1/2-x,1/2-y,-z
7 x,-y,1/2+z
8 1/2+x,1/2-y,1/2+z
_cell_length_a                   18.670(7)
_cell_length_b                   7.600(3)
_cell_length_c                   10.008(3)
_cell_angle_alpha                90
_cell_angle_beta                 103.192(7)
_cell_angle_gamma                90
_cell_volume                     1382.58
_exptl_crystal_colour            colorless
_exptl_crystal_description       plate
_cell_formula_units_Z            8
_chemical_properties_physical    hygroscopic
_exptl_crystal_recrystallization_method sublimation
loop_
_atom_site_label
_atom_site_type_symbol
_atom_site_fract_x
_atom_site_fract_y
_atom_site_fract_z
N1 N 0.28180(11) 0.0321(3) 0.44194(19)
H1 H 0.2510 0.0517 0.4950
N2 N 0.40275(11) 0.0727(3) 0.4133(2)
N3 N 0.34671(10) 0.2948(3) 0.4994(2)
C1 C 0.34067(11) 0.1374(3) 0.4499(2)
C2 C 0.26920(14) -0.1149(4) 0.3450(3)
H2 H 0.2440 -0.0723 0.2528
H3 H 0.2374 -0.2039 0.3748
C3 C 0.34133(15) -0.1960(4) 0.3391(3)
H4 H 0.3333 -0.2862 0.2658
H5 H 0.3623 -0.2555 0.4274
C4 C 0.39506(17) -0.0623(4) 0.3117(3)
H6 H 0.4433 -0.1187 0.3154
H7 H 0.3772 -0.0111 0.2192
C5 C 0.42207(13) 0.3512(4) 0.4998(3)
H8 H 0.4542 0.3409 0.5929
H9 H 0.4225 0.4749 0.4690
C6 C 0.44760(15) 0.2298(4) 0.4016(3)
H10 H 0.4364 0.2775 0.3071
H11 H 0.5009 0.2048 0.4311
loop_
_geom_bond_atom_site_label_1
_geom_bond_atom_site_label_2
_geom_bond_site_symmetry_1
_geom_bond_site_symmetry_2
N1 H1 1_555 1_555
N2 C1 1_555 1_555
N3 C1 1_555 1_555
C1 N1 1_555 1_555
C2 N1 1_555 1_555
H2 C2 1_555 1_555
H3 C2 1_555 1_555
C3 C2 1_555 1_555
H4 C3 1_555 1_555
H5 C3 1_555 1_555
C4 N2 1_555 1_555
H6 C4 1_555 1_555
H7 C4 1_555 1_555
C5 N3 1_555 1_555
H8 C5 1_555 1_555
H9 C5 1_555 1_555
C6 N2 1_555 1_555
H10 C6 1_555 1_555
H11 C6 1_555 1_555
C3 C4 1_555 1_555
C5 C6 1_555 1_555

#END
