
#######################################################################
#
#                 Cambridge Crystallographic Data Centre
#                                CCDC 
#
#######################################################################
#
# If this CIF has been generated from an entry in the Cambridge 
# Structural Database, then it will include bibliographic, chemical, 
# crystal, experimental, refinement or atomic coordinate data resulting 
# from the CCDC's data processing and validation procedures.
#
#######################################################################

data_REKBOZ06
_chemical_formula_moiety         'C6 H10 N2 2+,O4 S1 2-,1.5(H2 O1)'
_chemical_name_systematic        
'Phenylene-1,2-diammonium sulfate sesquihydrate'
_symmetry_cell_setting           monoclinic
_symmetry_space_group_name_H-M   'P 21/c'
_symmetry_Int_Tables_number      14
_space_group_name_Hall           '-P 2ybc'
loop_
_symmetry_equiv_pos_site_id
_symmetry_equiv_pos_as_xyz
1 x,y,z
2 -x,1/2+y,1/2-z
3 -x,-y,-z
4 x,1/2-y,1/2+z
_cell_length_a                   27.1540(15)
_cell_length_b                   9.5947(6)
_cell_length_c                   7.5549(4)
_cell_angle_alpha                90
_cell_angle_beta                 92.828(5)
_cell_angle_gamma                90
_cell_volume                     1965.91
_exptl_crystal_colour            colorless
_exptl_crystal_description       block
_cell_formula_units_Z            8
loop_
_atom_site_label
_atom_site_type_symbol
_atom_site_fract_x
_atom_site_fract_y
_atom_site_fract_z
S1 S 0.44918(7) 0.5789(2) 0.1938(2)
O1 O 0.4093(2) 0.6519(6) 0.2828(8)
O2 O 0.4707(2) 0.4740(6) 0.3152(7)
O3 O 0.4876(2) 0.6806(6) 0.1561(7)
O4 O 0.4301(2) 0.5123(6) 0.0305(7)
N1 N 0.4260(2) 0.5720(7) -0.3430(8)
H1 H 0.4146 0.6552 -0.3125
H2 H 0.4358 0.5755 -0.4535
H3 H 0.4513 0.5485 -0.2698
N2 N 0.4429(2) 0.2840(7) -0.4282(8)
H4 H 0.4418 0.1928 -0.4496
H5 H 0.4657 0.3016 -0.3424
H6 H 0.4504 0.3291 -0.5262
C1 C 0.3948(3) 0.3309(8) -0.3730(10)
C2 C 0.3567(3) 0.2363(9) -0.3657(12)
H7 H 0.3618 0.1431 -0.3930
C3 C 0.3870(3) 0.4689(8) -0.3318(10)
C4 C 0.3410(3) 0.5119(9) -0.2820(11)
H8 H 0.3359 0.6044 -0.2510
C5 C 0.3029(3) 0.4179(10) -0.2783(14)
H9 H 0.2718 0.4476 -0.2490
C6 C 0.3107(3) 0.2819(10) -0.3172(14)
H10 H 0.2849 0.2184 -0.3115
S2 S 0.04972(6) 1.57698(19) -0.2935(2)
O5 O 0.0905(2) 1.6454(6) -0.1883(7)
O6 O 0.02742(19) 1.4735(6) -0.1776(7)
O7 O 0.01253(19) 1.6829(6) -0.3439(7)
O8 O 0.0683(2) 1.5099(6) -0.4475(7)
N3 N 0.0760(2) 0.9223(7) -0.3283(8)
H11 H 0.0882 0.8390 -0.2985
H12 H 0.0679 0.9238 -0.4438
H13 H 0.0493 0.9391 -0.2677
N4 N 0.0565(2) 1.2141(7) -0.4030(8)
H14 H 0.0330 1.2018 -0.3266
H15 H 0.0495 1.1642 -0.5003
H16 H 0.0583 1.3039 -0.4314
C7 C 0.1130(3) 1.0290(8) -0.2872(9)
C8 C 0.1387(3) 1.2668(9) -0.2763(11)
H17 H 0.1327 1.3605 -0.2999
C9 C 0.1932(3) 1.0856(11) -0.1689(13)
H18 H 0.2240 1.0574 -0.1223
C10 C 0.1036(3) 1.1689(8) -0.3224(10)
C11 C 0.1576(3) 0.9892(9) -0.2125(11)
H19 H 0.1638 0.8952 -0.1910
C12 C 0.1830(3) 1.2265(10) -0.1950(12)
H20 H 0.2060 1.2934 -0.1577
O9 O 0.2493(3) 0.7545(8) 0.0078(10)
H21 H 0.2334 0.8163 0.0623
H22 H 0.2674 0.7940 -0.0661
O10 O 0.3053(3) 0.6008(9) 0.2552(11)
H23 H 0.3382 0.6064 0.2701
H24 H 0.2932 0.6546 0.1739
O11 O 0.1931(3) 0.8979(8) 0.2567(11)
H25 H 0.1600 0.8915 0.2725
H26 H 0.2072 0.8762 0.3566
loop_
_geom_bond_atom_site_label_1
_geom_bond_atom_site_label_2
_geom_bond_site_symmetry_1
_geom_bond_site_symmetry_2
S1 O1 1_555 1_555
O2 S1 1_555 1_555
O3 S1 1_555 1_555
O4 S1 1_555 1_555
N1 H1 1_555 1_555
H2 N1 1_555 1_555
H3 N1 1_555 1_555
N2 H4 1_555 1_555
H5 N2 1_555 1_555
H6 N2 1_555 1_555
C1 N2 1_555 1_555
C2 C1 1_555 1_555
H7 C2 1_555 1_555
C3 N1 1_555 1_555
C4 C3 1_555 1_555
H8 C4 1_555 1_555
C5 C4 1_555 1_555
H9 C5 1_555 1_555
C6 C2 1_555 1_555
H10 C6 1_555 1_555
S2 O5 1_555 1_555
O6 S2 1_555 1_555
O7 S2 1_555 1_555
O8 S2 1_555 1_555
N3 H11 1_555 1_555
H12 N3 1_555 1_555
H13 N3 1_555 1_555
N4 H14 1_555 1_555
H15 N4 1_555 1_555
H16 N4 1_555 1_555
C7 N3 1_555 1_555
C8 H17 1_555 1_555
C9 H18 1_555 1_555
C10 N4 1_555 1_555
C11 C7 1_555 1_555
H19 C11 1_555 1_555
C12 C8 1_555 1_555
H20 C12 1_555 1_555
O9 H21 1_555 1_555
H22 O9 1_555 1_555
O10 H23 1_555 1_555
H24 O10 1_555 1_555
O11 H25 1_555 1_555
H26 O11 1_555 1_555
C1 C3 1_555 1_555
C5 C6 1_555 1_555
C7 C10 1_555 1_555
C8 C10 1_555 1_555
C9 C11 1_555 1_555
C9 C12 1_555 1_555

#END
