
#######################################################################
#
#                 Cambridge Crystallographic Data Centre
#                                CCDC 
#
#######################################################################
#
# If this CIF has been generated from an entry in the Cambridge 
# Structural Database, then it will include bibliographic, chemical, 
# crystal, experimental, refinement or atomic coordinate data resulting 
# from the CCDC's data processing and validation procedures.
#
#######################################################################

data_RELHIB
_chemical_formula_moiety         'C25 H25 N1 O1'
_chemical_name_systematic        
N-Phenyl-N-(tricyclo[8.2.2.2^4,7^]hexadeca-1(12),4,6,10,13,15-hexaen-5-yl)propanamide
_symmetry_cell_setting           orthorhombic
_symmetry_space_group_name_H-M   'P 21 21 21'
_symmetry_Int_Tables_number      19
_space_group_name_Hall           'P 2ac 2ab'
loop_
_symmetry_equiv_pos_site_id
_symmetry_equiv_pos_as_xyz
1 x,y,z
2 1/2-x,-y,1/2+z
3 -x,1/2+y,1/2-z
4 1/2+x,1/2-y,-z
_cell_length_a                   8.1652(8)
_cell_length_b                   8.6326(9)
_cell_length_c                   27.024(3)
_cell_angle_alpha                90
_cell_angle_beta                 90
_cell_angle_gamma                90
_cell_volume                     1904.84
_exptl_crystal_colour            colorless
_exptl_crystal_description       prismatic
_cell_formula_units_Z            4
loop_
_atom_site_label
_atom_site_type_symbol
_atom_site_fract_x
_atom_site_fract_y
_atom_site_fract_z
O1 O 0.5913(3) 0.90244(18) 0.19588(6)
N1 N 0.6028(2) 0.6722(2) 0.15614(6)
C1 C 0.1343(4) 0.6762(4) 0.15240(13)
H1 H 0.0265 0.6320 0.1470
H2 H 0.1533 0.6785 0.1878
C2 C 0.2646(4) 0.5682(3) 0.12800(11)
H3 H 0.3258 0.5161 0.1539
H4 H 0.2086 0.4895 0.1088
C3 C 0.3820(3) 0.6529(3) 0.09502(8)
C4 C 0.5226(3) 0.7289(2) 0.11158(7)
C5 C 0.5803(3) 0.8585(3) 0.08750(8)
H5 H 0.6718 0.9099 0.0998
C6 C 0.5035(3) 0.9139(3) 0.04482(8)
C7 C 0.3924(4) 0.8167(3) 0.02236(8)
H6 H 0.3572 0.8379 -0.0097
C8 C 0.3330(3) 0.6890(3) 0.04663(9)
H7 H 0.2584 0.6248 0.0306
C9 C 0.5152(4) 1.0816(3) 0.02958(10)
H8 H 0.5316 1.0869 -0.0059
H9 H 0.6101 1.1277 0.0454
C10 C 0.3595(6) 1.1785(4) 0.04346(14)
H10 H 0.3938 1.2758 0.0582
H11 H 0.2991 1.2023 0.0135
C11 C 0.2476(4) 1.0957(3) 0.07901(10)
C12 C 0.2968(4) 1.0721(3) 0.12789(10)
H12 H 0.3675 1.1420 0.1430
C13 C 0.2411(3) 0.9461(3) 0.15362(9)
H13 H 0.2764 0.9317 0.1860
C14 C 0.1347(3) 0.8398(3) 0.13330(10)
C15 C 0.0581(4) 0.8846(4) 0.08957(12)
H14 H -0.0319 0.8291 0.0782
C16 C 0.1136(4) 1.0096(5) 0.06303(11)
H15 H 0.0607 1.0373 0.0339
C17 C 0.6440(3) 0.7724(3) 0.19426(7)
C18 C 0.7584(4) 0.7133(3) 0.23432(8)
H16 H 0.6946 0.6656 0.2605
H17 H 0.8301 0.6348 0.2205
C19 C 0.8608(4) 0.8431(4) 0.25577(11)
H18 H 0.9406 0.8756 0.2318
H19 H 0.9156 0.8071 0.2850
H20 H 0.7911 0.9289 0.2641
C20 C 0.6609(3) 0.5151(3) 0.15428(8)
C21 C 0.6211(3) 0.4109(3) 0.19155(9)
H21 H 0.5511 0.4405 0.2170
C22 C 0.6858(4) 0.2633(3) 0.19069(11)
H22 H 0.6611 0.1941 0.2160
C23 C 0.7867(4) 0.2179(3) 0.15254(11)
H23 H 0.8316 0.1189 0.1524
C24 C 0.8210(4) 0.3189(3) 0.11477(11)
H24 H 0.8871 0.2874 0.0886
C25 C 0.7580(3) 0.4665(3) 0.11542(8)
H25 H 0.7808 0.5341 0.0895
loop_
_geom_bond_atom_site_label_1
_geom_bond_atom_site_label_2
_geom_bond_site_symmetry_1
_geom_bond_site_symmetry_2
O1 C17 1_555 1_555
N1 C4 1_555 1_555
C1 H1 1_555 1_555
H2 C1 1_555 1_555
C2 C1 1_555 1_555
H3 C2 1_555 1_555
H4 C2 1_555 1_555
C3 C2 1_555 1_555
C4 C3 1_555 1_555
C5 C4 1_555 1_555
H5 C5 1_555 1_555
C6 C5 1_555 1_555
C7 C6 1_555 1_555
H6 C7 1_555 1_555
C8 C3 1_555 1_555
H7 C8 1_555 1_555
C9 C6 1_555 1_555
H8 C9 1_555 1_555
H9 C9 1_555 1_555
C10 C9 1_555 1_555
H10 C10 1_555 1_555
H11 C10 1_555 1_555
C11 C10 1_555 1_555
C12 C11 1_555 1_555
H12 C12 1_555 1_555
C13 C12 1_555 1_555
H13 C13 1_555 1_555
C14 C1 1_555 1_555
C15 C14 1_555 1_555
H14 C15 1_555 1_555
C16 C11 1_555 1_555
H15 C16 1_555 1_555
C17 N1 1_555 1_555
C18 C17 1_555 1_555
H16 C18 1_555 1_555
H17 C18 1_555 1_555
C19 C18 1_555 1_555
H18 C19 1_555 1_555
H19 C19 1_555 1_555
H20 C19 1_555 1_555
C20 N1 1_555 1_555
C21 C20 1_555 1_555
H21 C21 1_555 1_555
C22 C21 1_555 1_555
H22 C22 1_555 1_555
C23 C22 1_555 1_555
H23 C23 1_555 1_555
C24 C23 1_555 1_555
H24 C24 1_555 1_555
C25 C20 1_555 1_555
H25 C25 1_555 1_555
C7 C8 1_555 1_555
C13 C14 1_555 1_555
C15 C16 1_555 1_555
C24 C25 1_555 1_555

#END
