
#######################################################################
#
#                 Cambridge Crystallographic Data Centre
#                                CCDC 
#
#######################################################################
#
# If this CIF has been generated from an entry in the Cambridge 
# Structural Database, then it will include bibliographic, chemical, 
# crystal, experimental, refinement or atomic coordinate data resulting 
# from the CCDC's data processing and validation procedures.
#
#######################################################################

data_RELHAT
_chemical_formula_moiety         'C24 H29 N1 S1'
_chemical_name_systematic        
N,2,4-Trimethyl-N-(tricyclo[8.2.2.2^4,7^]hexadeca-1(12),4,6,10,13,15-hexaen-5-yl)pent-4-enethioamide
_symmetry_cell_setting           orthorhombic
_symmetry_space_group_name_H-M   'P 21 21 21'
_symmetry_Int_Tables_number      19
_space_group_name_Hall           'P 2ac 2ab'
loop_
_symmetry_equiv_pos_site_id
_symmetry_equiv_pos_as_xyz
1 x,y,z
2 1/2-x,-y,1/2+z
3 -x,1/2+y,1/2-z
4 1/2+x,1/2-y,-z
_cell_length_a                   8.3438(12)
_cell_length_b                   12.5908(17)
_cell_length_c                   19.305(3)
_cell_angle_alpha                90
_cell_angle_beta                 90
_cell_angle_gamma                90
_cell_volume                     2028.09
_exptl_crystal_colour            colorless
_cell_formula_units_Z            4
loop_
_atom_site_label
_atom_site_type_symbol
_atom_site_fract_x
_atom_site_fract_y
_atom_site_fract_z
S1 S 0.77561(12) 0.41016(7) 0.57002(4)
N1 N 0.7123(3) 0.35474(14) 0.44178(10)
C1 C 1.0836(4) 0.3411(3) 0.31175(18)
H1 H 1.1580 0.3764 0.2807
H2 H 1.1461 0.3047 0.3469
C2 C 0.9754(4) 0.4278(3) 0.3481(2)
C3 C 0.8029(3) 0.42189(19) 0.32794(13)
C4 C 0.6862(3) 0.37124(17) 0.36793(12)
C5 C 0.5558(3) 0.3239(2) 0.33686(15)
C6 C 0.5308(3) 0.3312(2) 0.26619(14)
C7 C 0.6219(4) 0.4062(3) 0.23144(17)
C8 C 0.7556(4) 0.4493(2) 0.26132(14)
H3 H 0.8162 0.4982 0.2364
C9 C 0.4368(4) 0.2476(3) 0.22761(16)
H4 H 0.3677 0.2823 0.1941
H5 H 0.3688 0.2100 0.2602
C10 C 0.5459(4) 0.1644(3) 0.18858(16)
H6 H 0.5066 0.0933 0.1981
H7 H 0.5377 0.1763 0.1391
C11 C 0.7184(4) 0.1712(2) 0.20961(15)
C12 C 0.7689(4) 0.1381(2) 0.27435(15)
H8 H 0.7112 0.0861 0.2977
C13 C 0.9037(4) 0.1812(2) 0.30472(16)
H9 H 0.9369 0.1570 0.3479
C14 C 0.9904(3) 0.2604(3) 0.27145(17)
C15 C 0.9602(4) 0.2728(3) 0.20148(18)
H10 H 1.0312 0.3120 0.1745
C16 C 0.8278(4) 0.2284(2) 0.17114(15)
H11 H 0.8113 0.2370 0.1238
C17 C 0.7197(3) 0.43343(19) 0.48857(13)
C18 C 0.6767(4) 0.5457(2) 0.46665(15)
C19 C 0.5447(3) 0.5913(2) 0.51300(15)
H12 H 0.5817 0.5876 0.5606
H13 H 0.5325 0.6659 0.5016
C20 C 0.3832(4) 0.5412(2) 0.50985(16)
C21 C 0.3243(4) 0.4904(3) 0.45421(17)
H14 H 0.2198 0.4646 0.4548
H15 H 0.3879 0.4811 0.4151
C22 C 0.8252(4) 0.6188(2) 0.46900(18)
H16 H 0.8696 0.6184 0.5149
H17 H 0.7944 0.6898 0.4568
H18 H 0.9041 0.5935 0.4367
C23 C 0.2823(5) 0.5552(3) 0.57056(18)
H19 H 0.1819 0.5197 0.5634
H20 H 0.2635 0.6296 0.5780
H21 H 0.3349 0.5257 0.6104
C24 C 0.7347(4) 0.24421(19) 0.46383(13)
H22 H 0.8448 0.2331 0.4764
H23 H 0.7068 0.1974 0.4265
H24 H 0.6673 0.2298 0.5030
H25 H 1.023(3) 0.493(2) 0.3343(13)
H26 H 0.982(4) 0.412(2) 0.3980(16)
H27 H 0.489(3) 0.2789(17) 0.3645(11)
H28 H 0.606(3) 0.4139(19) 0.1850(14)
H29 H 0.634(3) 0.5414(16) 0.4199(11)
loop_
_geom_bond_atom_site_label_1
_geom_bond_atom_site_label_2
_geom_bond_site_symmetry_1
_geom_bond_site_symmetry_2
S1 C17 1_555 1_555
N1 C4 1_555 1_555
C1 H1 1_555 1_555
H2 C1 1_555 1_555
C2 C1 1_555 1_555
C3 C2 1_555 1_555
C4 C3 1_555 1_555
C5 C4 1_555 1_555
C6 C5 1_555 1_555
C7 C6 1_555 1_555
C8 C3 1_555 1_555
H3 C8 1_555 1_555
C9 C6 1_555 1_555
H4 C9 1_555 1_555
H5 C9 1_555 1_555
C10 C9 1_555 1_555
H6 C10 1_555 1_555
H7 C10 1_555 1_555
C11 C10 1_555 1_555
C12 C11 1_555 1_555
H8 C12 1_555 1_555
C13 C12 1_555 1_555
H9 C13 1_555 1_555
C14 C1 1_555 1_555
C15 C14 1_555 1_555
H10 C15 1_555 1_555
C16 C11 1_555 1_555
H11 C16 1_555 1_555
C17 N1 1_555 1_555
C18 C17 1_555 1_555
C19 C18 1_555 1_555
H12 C19 1_555 1_555
H13 C19 1_555 1_555
C20 C19 1_555 1_555
C21 C20 1_555 1_555
H14 C21 1_555 1_555
H15 C21 1_555 1_555
C22 C18 1_555 1_555
H16 C22 1_555 1_555
H17 C22 1_555 1_555
H18 C22 1_555 1_555
C23 C20 1_555 1_555
H19 C23 1_555 1_555
H20 C23 1_555 1_555
H21 C23 1_555 1_555
C24 N1 1_555 1_555
H22 C24 1_555 1_555
H23 C24 1_555 1_555
H24 C24 1_555 1_555
H25 C2 1_555 1_555
H26 C2 1_555 1_555
H27 C5 1_555 1_555
H28 C7 1_555 1_555
H29 C18 1_555 1_555
C7 C8 1_555 1_555
C13 C14 1_555 1_555
C15 C16 1_555 1_555

#END
