
#######################################################################
#
#                 Cambridge Crystallographic Data Centre
#                                CCDC 
#
#######################################################################
#
# If this CIF has been generated from an entry in the Cambridge 
# Structural Database, then it will include bibliographic, chemical, 
# crystal, experimental, refinement or atomic coordinate data resulting 
# from the CCDC's data processing and validation procedures.
#
#######################################################################

data_RELPAZ
_chemical_formula_moiety         'C26 H36 Cl2 N2 O6'
_chemical_name_systematic        
7,16-bis(5-Chloro-2-hydroxybenzyl)-1,4,10,13-tetra-oxa-7,16-diazacyclo-octadecane
_symmetry_cell_setting           monoclinic
_symmetry_space_group_name_H-M   'P 21/c'
_symmetry_Int_Tables_number      14
_space_group_name_Hall           '-P 2ybc'
loop_
_symmetry_equiv_pos_site_id
_symmetry_equiv_pos_as_xyz
1 x,y,z
2 -x,1/2+y,1/2-z
3 -x,-y,-z
4 x,1/2-y,1/2+z
_cell_length_a                   13.407(3)
_cell_length_b                   13.518(3)
_cell_length_c                   7.651(3)
_cell_angle_alpha                90
_cell_angle_beta                 95.93(2)
_cell_angle_gamma                90
_cell_volume                     1379.22
_exptl_crystal_colour            colorless
_chemical_melting_point          111-113deg.C
_cell_formula_units_Z            2
loop_
_atom_site_label
_atom_site_type_symbol
_atom_site_fract_x
_atom_site_fract_y
_atom_site_fract_z
Cl1 Cl 0.4079(1) 0.6564(1) 0.0121(1)
C1 C 0.5277(2) 0.6463(2) 0.1244(4)
C2 C 0.5985(2) 0.7171(2) 0.0982(4)
C3 C 0.6928(2) 0.7098(2) 0.1890(4)
C4 C 0.7159(2) 0.6333(2) 0.3078(3)
O1 O 0.8080(1) 0.6339(1) 0.4008(3)
C5 C 0.6448(2) 0.5609(2) 0.3312(3)
C6 C 0.5507(2) 0.5683(2) 0.2356(3)
C7 C 0.6647(2) 0.4807(2) 0.4672(4)
N1 N 0.7700(1) 0.4493(1) 0.4911(3)
C8 C 0.7959(2) 0.3885(2) 0.3428(3)
C9 C 0.9062(2) 0.3957(2) 0.3212(3)
O2 O 0.9248(1) 0.3335(1) 0.1801(3)
C10 C 1.0274(2) 0.3096(2) 0.1712(4)
C11 C 1.0880(2) 0.3885(2) 0.0964(3)
O3 O 1.1097(1) 0.4627(1) 0.2247(2)
C12 C 1.1881(2) 0.5269(2) 0.1871(3)
C13 C 0.7950(2) 0.4008(2) 0.6622(3)
H1 H 0.5819 0.7705 0.0178
H2 H 0.7433 0.7580 0.1708
H3 H 0.8163 0.5696 0.4779
H4 H 0.5012 0.5180 0.2469
H5 H 0.6233 0.4245 0.4337
H6 H 0.6464 0.5048 0.5775
H7 H 0.7577 0.4103 0.2368
H8 H 0.7787 0.3207 0.3625
H9 H 0.9239 0.4627 0.2966
H10 H 1.0308 0.2511 0.1011
H11 H 1.0572 0.2944 0.2875
H12 H 1.0514 0.4163 -0.0064
H13 H 1.1493 0.3609 0.0632
H14 H 1.1698 0.5616 0.0791
H15 H 1.2482 0.4898 0.1755
H16 H 0.8545 0.3617 0.6575
H17 H 0.7414 0.3568 0.6836
C13B C 1.2050(2) 0.5992(2) 0.3378(3)
N1B N 1.2300(1) 0.5507(1) 0.5089(3)
C7B C 1.3353(2) 0.5193(2) 0.5328(4)
C5B C 1.3552(2) 0.4391(2) 0.6688(3)
C4B C 1.2841(2) 0.3667(2) 0.6922(3)
C3B C 1.3072(2) 0.2902(2) 0.8110(4)
C2B C 1.4015(2) 0.2829(2) 0.9018(4)
C1B C 1.4723(2) 0.3537(2) 0.8756(4)
Cl1B Cl 1.5921(1) 0.3436(1) 0.9879(1)
C6B C 1.4493(2) 0.4317(2) 0.7644(3)
H4B H 1.4988 0.4820 0.7531
H1B H 1.4181 0.2295 0.9822
H2B H 1.2567 0.2420 0.8292
O1B O 1.1920(1) 0.3661(1) 0.5992(3)
H3B H 1.1837 0.4304 0.5221
H5B H 1.3767 0.5755 0.5663
H6B H 1.3536 0.4952 0.4225
C8B C 1.2041(2) 0.6115(2) 0.6572(3)
C9B C 1.0938(2) 0.6043(2) 0.6788(3)
O2B O 1.0752(1) 0.6665(1) 0.8199(3)
C10B C 0.9726(2) 0.6904(2) 0.8288(4)
C11B C 0.9120(2) 0.6115(2) 0.9036(3)
O3B O 0.8903(1) 0.5373(1) 0.7753(2)
C12B C 0.8119(2) 0.4731(2) 0.8129(3)
H14B H 0.8302 0.4384 0.9209
H15B H 0.7518 0.5102 0.8245
H12B H 0.9486 0.5837 1.0064
H13B H 0.8507 0.6391 0.9368
H10B H 0.9692 0.7489 0.8989
H11B H 0.9428 0.7056 0.7125
H9B H 1.0761 0.5373 0.7034
H7B H 1.2423 0.5897 0.7632
H8B H 1.2213 0.6793 0.6375
H16B H 1.1455 0.6383 0.3425
H17B H 1.2586 0.6432 0.3164
loop_
_geom_bond_atom_site_label_1
_geom_bond_atom_site_label_2
_geom_bond_site_symmetry_1
_geom_bond_site_symmetry_2
Cl1 C1 1_555 1_555
C1 C2 1_555 1_555
C2 C3 1_555 1_555
C3 C4 1_555 1_555
C4 O1 1_555 1_555
O1 H3 1_555 1_555
C5 C4 1_555 1_555
C6 C1 1_555 1_555
C7 C5 1_555 1_555
N1 C7 1_555 1_555
C8 N1 1_555 1_555
C9 C8 1_555 1_555
O2 C9 1_555 1_555
C10 O2 1_555 1_555
C11 C10 1_555 1_555
O3 C11 1_555 1_555
C12 O3 1_555 1_555
C13 N1 1_555 1_555
H1 C2 1_555 1_555
H2 C3 1_555 1_555
H4 C6 1_555 1_555
H5 C7 1_555 1_555
H6 C7 1_555 1_555
H7 C8 1_555 1_555
H8 C8 1_555 1_555
H9 C9 1_555 1_555
H10 C10 1_555 1_555
H11 C10 1_555 1_555
H12 C11 1_555 1_555
H13 C11 1_555 1_555
H14 C12 1_555 1_555
H15 C12 1_555 1_555
H16 C13 1_555 1_555
H17 C13 1_555 1_555
C13B C12 1_555 1_555
N1B C13B 1_555 1_555
C7B N1B 1_555 1_555
C5B C7B 1_555 1_555
C4B C5B 1_555 1_555
C3B C4B 1_555 1_555
C2B C3B 1_555 1_555
C1B C2B 1_555 1_555
Cl1B C1B 1_555 1_555
C6B C5B 1_555 1_555
H4B C6B 1_555 1_555
H1B C2B 1_555 1_555
H2B C3B 1_555 1_555
O1B C4B 1_555 1_555
H3B O1B 1_555 1_555
H5B C7B 1_555 1_555
H6B C7B 1_555 1_555
C8B N1B 1_555 1_555
C9B C8B 1_555 1_555
O2B C9B 1_555 1_555
C10B O2B 1_555 1_555
C11B C10B 1_555 1_555
O3B C11B 1_555 1_555
C12B C13 1_555 1_555
H14B C12B 1_555 1_555
H15B C12B 1_555 1_555
H12B C11B 1_555 1_555
H13B C11B 1_555 1_555
H10B C10B 1_555 1_555
H11B C10B 1_555 1_555
H9B C9B 1_555 1_555
H7B C8B 1_555 1_555
H8B C8B 1_555 1_555
H16B C13B 1_555 1_555
H17B C13B 1_555 1_555
C5 C6 1_555 1_555
C1B C6B 1_555 1_555
O3B C12B 1_555 1_555

#END
