
#######################################################################
#
#                 Cambridge Crystallographic Data Centre
#                                CCDC 
#
#######################################################################
#
# If this CIF has been generated from an entry in the Cambridge 
# Structural Database, then it will include bibliographic, chemical, 
# crystal, experimental, refinement or atomic coordinate data resulting 
# from the CCDC's data processing and validation procedures.
#
#######################################################################

data_RELZAM
_chemical_formula_moiety         'C24 H13 Br1 F2'
_chemical_name_systematic        5-bromo-2-fluoro-12-(4-fluorophenyl)tetracene
_symmetry_cell_setting           triclinic
_symmetry_space_group_name_H-M   'P -1'
_symmetry_Int_Tables_number      2
_space_group_name_Hall           '-P 1'
loop_
_symmetry_equiv_pos_site_id
_symmetry_equiv_pos_as_xyz
1 x,y,z
2 -x,-y,-z
_cell_length_a                   9.3519(19)
_cell_length_b                   9.4398(19)
_cell_length_c                   11.185(2)
_cell_angle_alpha                95.510(4)
_cell_angle_beta                 114.285(4)
_cell_angle_gamma                101.901(4)
_cell_volume                     862.401
_exptl_crystal_colour            red
_exptl_crystal_description       prismatic
_cell_formula_units_Z            2
loop_
_atom_site_label
_atom_site_type_symbol
_atom_site_fract_x
_atom_site_fract_y
_atom_site_fract_z
Br1 Br 0.21745(4) 0.85357(3) 1.08808(3)
F1 F -0.4204(2) 0.6811(2) 0.48891(19)
F2 F -0.2685(2) -0.0506(2) 0.31437(18)
C1 C 0.1132(3) 0.6808(2) 0.9504(3)
C2 C -0.0243(3) 0.6809(3) 0.8373(3)
C3 C -0.0980(3) 0.8004(3) 0.8219(3)
H1 H -0.0546 0.8818 0.8921
C4 C -0.2285(4) 0.7984(3) 0.7087(3)
H2 H -0.2755 0.8769 0.7007
C5 C -0.2922(3) 0.6760(3) 0.6033(3)
C6 C -0.2331(3) 0.5577(3) 0.6091(3)
H3 H -0.2809 0.4788 0.5363
C7 C -0.0957(3) 0.5538(3) 0.7284(2)
C8 C -0.0298(3) 0.4325(2) 0.7397(2)
C9 C 0.1072(3) 0.4338(2) 0.8594(2)
C10 C 0.1739(3) 0.3122(3) 0.8766(2)
H4 H 0.1233 0.2274 0.8094
C11 C 0.3126(3) 0.3145(3) 0.9904(2)
C12 C 0.3825(3) 0.1930(3) 1.0070(3)
H5 H 0.3332 0.1073 0.9409
C13 C 0.5202(4) 0.2009(3) 1.1183(3)
H6 H 0.5644 0.1206 1.1276
C14 C 0.5973(3) 0.3294(3) 1.2201(3)
H7 H 0.6923 0.3332 1.2954
C15 C 0.5352(3) 0.4465(3) 1.2097(3)
H8 H 0.5872 0.5302 1.2781
C16 C 0.3902(3) 0.4439(3) 1.0948(3)
C17 C 0.3237(3) 0.5628(3) 1.0811(3)
H9 H 0.3736 0.6461 1.1498
C18 C 0.1832(3) 0.5619(2) 0.9667(2)
C19 C -0.0976(3) 0.3049(3) 0.6247(2)
C20 C -0.2476(3) 0.2053(3) 0.5835(3)
H10 H -0.3109 0.2190 0.6273
C21 C -0.3056(4) 0.0862(3) 0.4792(3)
H11 H -0.4068 0.0198 0.4525
C22 C -0.2118(4) 0.0680(3) 0.4160(3)
C23 C -0.0654(4) 0.1635(3) 0.4503(3)
H12 H -0.0046 0.1494 0.4042
C24 C -0.0079(3) 0.2824(3) 0.5553(3)
H13 H 0.0928 0.3487 0.5800
loop_
_geom_bond_atom_site_label_1
_geom_bond_atom_site_label_2
_geom_bond_site_symmetry_1
_geom_bond_site_symmetry_2
Br1 C1 1_555 1_555
F1 C5 1_555 1_555
F2 C22 1_555 1_555
C1 C2 1_555 1_555
C2 C3 1_555 1_555
C3 H1 1_555 1_555
C4 C3 1_555 1_555
H2 C4 1_555 1_555
C5 C4 1_555 1_555
C6 C5 1_555 1_555
H3 C6 1_555 1_555
C7 C2 1_555 1_555
C8 C7 1_555 1_555
C9 C8 1_555 1_555
C10 C9 1_555 1_555
H4 C10 1_555 1_555
C11 C10 1_555 1_555
C12 C11 1_555 1_555
H5 C12 1_555 1_555
C13 C12 1_555 1_555
H6 C13 1_555 1_555
C14 C13 1_555 1_555
H7 C14 1_555 1_555
C15 C14 1_555 1_555
H8 C15 1_555 1_555
C16 C11 1_555 1_555
C17 C16 1_555 1_555
H9 C17 1_555 1_555
C18 C1 1_555 1_555
C19 C8 1_555 1_555
C20 C19 1_555 1_555
H10 C20 1_555 1_555
C21 C20 1_555 1_555
H11 C21 1_555 1_555
C22 C21 1_555 1_555
C23 C22 1_555 1_555
H12 C23 1_555 1_555
C24 C19 1_555 1_555
H13 C24 1_555 1_555
C6 C7 1_555 1_555
C9 C18 1_555 1_555
C15 C16 1_555 1_555
C17 C18 1_555 1_555
C23 C24 1_555 1_555

#END
