
#######################################################################
#
#                 Cambridge Crystallographic Data Centre
#                                CCDC 
#
#######################################################################
#
# If this CIF has been generated from an entry in the Cambridge 
# Structural Database, then it will include bibliographic, chemical, 
# crystal, experimental, refinement or atomic coordinate data resulting 
# from the CCDC's data processing and validation procedures.
#
#######################################################################

data_REMNUV
_chemical_formula_moiety         'C22 H18 I2 O4'
_chemical_name_systematic        
10,20-bis(iodo)-8,15,17,18-tetrahydro-5H,7H-5,19:9,15-diepoxydibenzo[c,k][1,9]dioxacyclohexadecine
_symmetry_cell_setting           monoclinic
_symmetry_space_group_name_H-M   'P 21/n'
_symmetry_Int_Tables_number      14
_space_group_name_Hall           '-P 2yn'
loop_
_symmetry_equiv_pos_site_id
_symmetry_equiv_pos_as_xyz
1 x,y,z
2 1/2-x,1/2+y,1/2-z
3 -x,-y,-z
4 1/2+x,1/2-y,1/2+z
_cell_length_a                   13.946(2)
_cell_length_b                   9.9498(9)
_cell_length_c                   14.897(2)
_cell_angle_alpha                90
_cell_angle_beta                 97.21(2)
_cell_angle_gamma                90
_cell_volume                     2050.76
_exptl_crystal_colour            'light yellow'
_exptl_crystal_description       block
_cell_formula_units_Z            4
loop_
_atom_site_label
_atom_site_type_symbol
_atom_site_fract_x
_atom_site_fract_y
_atom_site_fract_z
I1 I 0.44126(4) 1.22139(6) -0.05248(3)
I2 I 0.84776(4) 0.73604(4) 0.01402(3)
O1 O 0.6707(3) 1.2808(4) 0.1655(3)
O2 O 0.7599(3) 1.2509(3) -0.0431(3)
O3 O 0.8982(3) 1.1598(4) 0.0364(2)
O4 O 0.7365(3) 1.0669(4) 0.1792(2)
C1 C 0.5324(5) 1.2100(6) 0.0696(4)
C2 C 0.5072(4) 1.1188(6) 0.1396(4)
C3 C 0.4173(5) 1.0536(7) 0.1387(5)
H1 H 0.3686 1.0676 0.0910
C4 C 0.4023(5) 0.9715(7) 0.2066(6)
H2 H 0.3429 0.9285 0.2047
C5 C 0.4716(5) 0.9484(7) 0.2793(5)
H3 H 0.4592 0.8912 0.3258
C6 C 0.5593(5) 1.0114(6) 0.2816(4)
H4 H 0.6066 0.9972 0.3304
C7 C 0.5778(4) 1.0951(6) 0.2127(4)
C8 C 0.6746(4) 1.1568(6) 0.2148(4)
H5 H 0.7000 1.1751 0.2779
C9 C 0.6123(5) 1.2857(6) 0.0833(4)
C10 C 0.6495(6) 1.3894(6) 0.0238(5)
H6 H 0.6096 1.3884 -0.0345
H7 H 0.6430 1.4773 0.0505
C11 C 0.7517(5) 1.3693(6) 0.0093(4)
H8 H 0.7743 1.4464 -0.0219
H9 H 0.7916 1.3606 0.0673
C12 C 0.8570(4) 1.2142(5) -0.0487(4)
H10 H 0.8932 1.2950 -0.0612
C13 C 0.8589(4) 1.1195(5) -0.1245(4)
C14 C 0.8612(4) 1.1673(6) -0.2111(4)
H11 H 0.8667 1.2591 -0.2211
C15 C 0.8554(5) 1.0778(7) -0.2837(4)
H12 H 0.8568 1.1092 -0.3423
C16 C 0.8475(5) 0.9435(7) -0.2674(4)
H13 H 0.8423 0.8836 -0.3157
C17 C 0.8471(4) 0.8950(6) -0.1813(4)
H14 H 0.8424 0.8030 -0.1720
C18 C 0.8538(4) 0.9820(5) -0.1080(3)
C19 C 0.8588(4) 0.9408(5) -0.0139(4)
C20 C 0.8804(4) 1.0269(6) 0.0542(4)
C21 C 0.8955(4) 1.0021(7) 0.1532(3)
H15 H 0.9634 1.0137 0.1751
H16 H 0.8784 0.9097 0.1646
C22 C 0.8368(4) 1.0941(7) 0.2052(4)
H17 H 0.8533 1.0794 0.2696
H18 H 0.8508 1.1871 0.1921
loop_
_geom_bond_atom_site_label_1
_geom_bond_atom_site_label_2
_geom_bond_site_symmetry_1
_geom_bond_site_symmetry_2
I1 C1 1_555 1_555
I2 C19 1_555 1_555
O1 C8 1_555 1_555
O2 C11 1_555 1_555
O3 C12 1_555 1_555
O4 C8 1_555 1_555
C1 C2 1_555 1_555
C2 C3 1_555 1_555
C3 H1 1_555 1_555
C4 C3 1_555 1_555
H2 C4 1_555 1_555
C5 C4 1_555 1_555
H3 C5 1_555 1_555
C6 C5 1_555 1_555
H4 C6 1_555 1_555
C7 C2 1_555 1_555
C8 C7 1_555 1_555
H5 C8 1_555 1_555
C9 O1 1_555 1_555
C10 C9 1_555 1_555
H6 C10 1_555 1_555
H7 C10 1_555 1_555
C11 C10 1_555 1_555
H8 C11 1_555 1_555
H9 C11 1_555 1_555
C12 O2 1_555 1_555
H10 C12 1_555 1_555
C13 C12 1_555 1_555
C14 C13 1_555 1_555
H11 C14 1_555 1_555
C15 C14 1_555 1_555
H12 C15 1_555 1_555
C16 C15 1_555 1_555
H13 C16 1_555 1_555
C17 C16 1_555 1_555
H14 C17 1_555 1_555
C18 C13 1_555 1_555
C19 C18 1_555 1_555
C20 O3 1_555 1_555
C21 C20 1_555 1_555
H15 C21 1_555 1_555
H16 C21 1_555 1_555
C22 O4 1_555 1_555
H17 C22 1_555 1_555
H18 C22 1_555 1_555
C1 C9 1_555 1_555
C6 C7 1_555 1_555
C17 C18 1_555 1_555
C19 C20 1_555 1_555
C21 C22 1_555 1_555

#END
