
#######################################################################
#
#                 Cambridge Crystallographic Data Centre
#                                CCDC 
#
#######################################################################
#
# If this CIF has been generated from an entry in the Cambridge 
# Structural Database, then it will include bibliographic, chemical, 
# crystal, experimental, refinement or atomic coordinate data resulting 
# from the CCDC's data processing and validation procedures.
#
#######################################################################

data_REMREJ
_chemical_formula_moiety         'C15 H13 Cl1 O3 S1'
_chemical_name_systematic        
1-(4-chlorophenyl)-2-[(4-methylphenyl)sulfonyl]ethan-1-one
_symmetry_cell_setting           monoclinic
_symmetry_space_group_name_H-M   'P 21/n'
_symmetry_Int_Tables_number      14
_space_group_name_Hall           '-P 2yn'
loop_
_symmetry_equiv_pos_site_id
_symmetry_equiv_pos_as_xyz
1 x,y,z
2 1/2-x,1/2+y,1/2-z
3 -x,-y,-z
4 1/2+x,1/2-y,1/2+z
_cell_length_a                   5.676(2)
_cell_length_b                   9.256(4)
_cell_length_c                   27.339(12)
_cell_angle_alpha                90
_cell_angle_beta                 90.107(10)
_cell_angle_gamma                90
_cell_volume                     1436.31
_exptl_crystal_colour            colorless
_exptl_crystal_description       Acicular
_cell_formula_units_Z            4
loop_
_atom_site_label
_atom_site_type_symbol
_atom_site_fract_x
_atom_site_fract_y
_atom_site_fract_z
S1 S 0.83703(18) 0.74325(11) 0.01831(4)
Cl1 Cl 0.1563(3) 1.06628(17) 0.23020(6)
O1 O 0.8159(6) 0.8859(3) 0.03894(11)
O2 O 1.0661(5) 0.6786(3) 0.01554(11)
C1 C 0.3492(10) 0.7091(6) -0.17792(19)
H1 H 0.4612 0.7125 -0.2042
H2 H 0.2399 0.7877 -0.1813
H3 H 0.2653 0.6191 -0.1790
C2 C 0.4769(8) 0.7219(5) -0.12963(17)
C3 C 0.6779(8) 0.6417(5) -0.12021(17)
H4 H 0.7382 0.5819 -0.1445
C4 C 0.7905(7) 0.6485(5) -0.07556(16)
H5 H 0.9239 0.5927 -0.0697
C5 C 0.7034(7) 0.7388(4) -0.03958(15)
C6 C 0.6538(7) 0.6278(4) 0.05392(15)
H6 H 0.4894 0.6488 0.0473
H7 H 0.6834 0.5277 0.0454
C7 C 0.7078(7) 0.6526(4) 0.10806(16)
C8 C 0.5627(7) 0.7565(4) 0.13675(15)
C9 C 0.3593(8) 0.8187(5) 0.11916(18)
H8 H 0.3077 0.7967 0.0877
C10 C 0.2314(8) 0.9132(6) 0.1475(2)
H9 H 0.0929 0.9541 0.1357
C11 C 0.3116(8) 0.9459(5) 0.19355(18)
C12 C 0.3966(8) 0.8124(5) -0.09342(18)
H10 H 0.2645 0.8692 -0.0995
C13 C 0.5049(7) 0.8217(4) -0.04854(17)
H11 H 0.4457 0.8828 -0.0245
C14 C 0.5119(9) 0.8856(5) 0.21195(18)
H12 H 0.5635 0.9089 0.2433
C15 C 0.6364(8) 0.7901(5) 0.18366(17)
H13 H 0.7720 0.7474 0.1962
O3 O 0.8727(6) 0.5897(3) 0.12636(12)
loop_
_geom_bond_atom_site_label_1
_geom_bond_atom_site_label_2
_geom_bond_site_symmetry_1
_geom_bond_site_symmetry_2
S1 O1 1_555 1_555
Cl1 C11 1_555 1_555
O2 S1 1_555 1_555
C1 H1 1_555 1_555
H2 C1 1_555 1_555
H3 C1 1_555 1_555
C2 C1 1_555 1_555
C3 C2 1_555 1_555
H4 C3 1_555 1_555
C4 C3 1_555 1_555
H5 C4 1_555 1_555
C5 S1 1_555 1_555
C6 S1 1_555 1_555
H6 C6 1_555 1_555
H7 C6 1_555 1_555
C7 C6 1_555 1_555
C8 C7 1_555 1_555
C9 C8 1_555 1_555
H8 C9 1_555 1_555
C10 C9 1_555 1_555
H9 C10 1_555 1_555
C11 C10 1_555 1_555
C12 C2 1_555 1_555
H10 C12 1_555 1_555
C13 C5 1_555 1_555
H11 C13 1_555 1_555
C14 C11 1_555 1_555
H12 C14 1_555 1_555
C15 C8 1_555 1_555
H13 C15 1_555 1_555
O3 C7 1_555 1_555
C4 C5 1_555 1_555
C12 C13 1_555 1_555
C14 C15 1_555 1_555

#END
