
#######################################################################
#
#                 Cambridge Crystallographic Data Centre
#                                CCDC 
#
#######################################################################
#
# If this CIF has been generated from an entry in the Cambridge 
# Structural Database, then it will include bibliographic, chemical, 
# crystal, experimental, refinement or atomic coordinate data resulting 
# from the CCDC's data processing and validation procedures.
#
#######################################################################

data_RENCAQ
_chemical_formula_moiety         'C17 H15 N3 O1,0.5(H2 O1)'
_chemical_name_systematic        
'N-(5,7-Dimethyl-1,8-naphthyridin-2-yl)benzamide hemihydrate'
_symmetry_cell_setting           monoclinic
_symmetry_space_group_name_H-M   'C 2/c'
_symmetry_Int_Tables_number      15
_space_group_name_Hall           '-C 2yn'
loop_
_symmetry_equiv_pos_site_id
_symmetry_equiv_pos_as_xyz
1 x,y,z
2 -x,y,1/2-z
3 1/2+x,1/2+y,z
4 1/2-x,1/2+y,1/2-z
5 -x,-y,-z
6 x,-y,1/2+z
7 1/2-x,1/2-y,-z
8 1/2+x,1/2-y,1/2+z
_cell_length_a                   25.865(5)
_cell_length_b                   7.4047(15)
_cell_length_c                   15.416(3)
_cell_angle_alpha                90
_cell_angle_beta                 97.89(3)
_cell_angle_gamma                90
_cell_volume                     2924.56
_exptl_crystal_colour            colorless
_exptl_crystal_description       needle
_cell_formula_units_Z            8
loop_
_atom_site_label
_atom_site_type_symbol
_atom_site_fract_x
_atom_site_fract_y
_atom_site_fract_z
N1 N 0.42217(5) 0.11522(18) 0.88178(9)
H1 H 0.4349(7) 0.086(2) 0.8289(12)
N2 N 0.50488(5) 0.22196(17) 0.91530(8)
N3 N 0.58992(5) 0.32107(18) 0.93523(9)
C1 C 0.46068(6) 0.1877(2) 0.94552(10)
O1 O 0.34968(5) 0.1192(2) 0.95113(8)
C2 C 0.33960(6) 0.0078(2) 0.80573(11)
C3 C 0.54135(6) 0.3234(2) 1.06059(10)
C4 C 0.63037(6) 0.3893(2) 0.98754(12)
C5 C 0.37041(6) 0.0852(2) 0.88625(11)
C6 C 0.54567(6) 0.2894(2) 0.97200(10)
C7 C 0.62917(7) 0.4256(2) 1.07680(12)
H2 H 0.6588 0.4721 1.1103
C8 C 0.35286(6) 0.0271(2) 0.72224(11)
H3 H 0.3830 0.0890 0.7137
C9 C 0.45255(6) 0.2162(2) 1.03316(11)
H4 H 0.4207 0.1898 1.0518
C10 C 0.58565(7) 0.3946(2) 1.11546(11)
C11 C 0.29395(6) -0.0843(2) 0.81684(13)
H5 H 0.2845 -0.0966 0.8726
C12 C 0.49307(6) 0.2838(2) 1.08916(11)
H6 H 0.4889 0.3043 1.1473
C13 C 0.27615(8) -0.1391(3) 0.66355(14)
H7 H 0.2550 -0.1893 0.6159
C14 C 0.26291(7) -0.1568(3) 0.74634(15)
H8 H 0.2326 -0.2184 0.7546
C15 C 0.58399(8) 0.4323(3) 1.21096(12)
H9 H 0.6171 0.4789 1.2371
H10 H 0.5766 0.3225 1.2400
H11 H 0.5572 0.5195 1.2167
C16 C 0.32091(7) -0.0466(3) 0.65116(13)
H12 H 0.3297 -0.0336 0.5950
C17 C 0.67895(7) 0.4279(3) 0.94707(14)
H13 H 0.6733 0.3955 0.8862
H14 H 0.7075 0.3587 0.9766
H15 H 0.6871 0.5542 0.9526
O2 O 0.5000 0.0480(2) 0.7500
H16 H 0.5105 0.1315 0.7969
H16A H 0.4895 0.1315 0.7031
loop_
_geom_bond_atom_site_label_1
_geom_bond_atom_site_label_2
_geom_bond_site_symmetry_1
_geom_bond_site_symmetry_2
N1 H1 1_555 1_555
N2 C1 1_555 1_555
N3 C4 1_555 1_555
C1 N1 1_555 1_555
O1 C5 1_555 1_555
C2 C5 1_555 1_555
C3 C6 1_555 1_555
C4 C7 1_555 1_555
C5 N1 1_555 1_555
C6 N2 1_555 1_555
C7 H2 1_555 1_555
C8 C2 1_555 1_555
H3 C8 1_555 1_555
C9 C1 1_555 1_555
H4 C9 1_555 1_555
C10 C3 1_555 1_555
C11 C2 1_555 1_555
H5 C11 1_555 1_555
C12 C3 1_555 1_555
H6 C12 1_555 1_555
C13 H7 1_555 1_555
C14 C11 1_555 1_555
H8 C14 1_555 1_555
C15 C10 1_555 1_555
H9 C15 1_555 1_555
H10 C15 1_555 1_555
H11 C15 1_555 1_555
C16 C8 1_555 1_555
H12 C16 1_555 1_555
C17 C4 1_555 1_555
H13 C17 1_555 1_555
H14 C17 1_555 1_555
H15 C17 1_555 1_555
O2 H16 1_555 1_555
H16A O2 1_555 1_555
N3 C6 1_555 1_555
C7 C10 1_555 1_555
C9 C12 1_555 1_555
C13 C14 1_555 1_555
C13 C16 1_555 1_555

#END
