
#######################################################################
#
#                 Cambridge Crystallographic Data Centre
#                                CCDC 
#
#######################################################################
#
# If this CIF has been generated from an entry in the Cambridge 
# Structural Database, then it will include bibliographic, chemical, 
# crystal, experimental, refinement or atomic coordinate data resulting 
# from the CCDC's data processing and validation procedures.
#
#######################################################################

data_RENHIE
_chemical_formula_moiety         'C26 H30 N6 O2'
_chemical_name_systematic        
2,3-bis((4-(diethylamino)-2-hydroxybenzylidene)amino)but-2-enedinitrile
_symmetry_cell_setting           monoclinic
_symmetry_space_group_name_H-M   'P 21/c'
_symmetry_Int_Tables_number      14
_space_group_name_Hall           '-P 2ybc'
loop_
_symmetry_equiv_pos_site_id
_symmetry_equiv_pos_as_xyz
1 x,y,z
2 -x,1/2+y,1/2-z
3 -x,-y,-z
4 x,1/2-y,1/2+z
_cell_length_a                   15.8245(3)
_cell_length_b                   8.2945(2)
_cell_length_c                   19.2897(4)
_cell_angle_alpha                90
_cell_angle_beta                 106.414(2)
_cell_angle_gamma                90
_cell_volume                     2428.71
_exptl_crystal_colour            black
_exptl_crystal_description       needle
_cell_formula_units_Z            4
_exptl_crystal_recrystallization_method '50% Acetonitrile and 50% Hexane'
loop_
_atom_site_label
_atom_site_type_symbol
_atom_site_fract_x
_atom_site_fract_y
_atom_site_fract_z
O1 O 0.39757(12) 0.4282(2) 0.38199(10)
H1 H 0.3716 0.4436 0.4126
O2 O 0.27541(11) 0.1407(2) 0.41186(11)
H2 H 0.2735 0.2288 0.4307
N1 N 0.61217(18) 0.6716(3) 0.28683(13)
N2 N 0.34649(12) 0.5878(2) 0.47878(10)
N3 N 0.29744(18) 0.8744(3) 0.59342(14)
N4 N 0.08982(15) 0.6060(3) 0.56329(13)
N5 N 0.20742(12) 0.3734(2) 0.47188(10)
N6 N 0.11034(14) -0.3411(2) 0.34342(10)
C1 C 0.68068(17) 0.7934(3) 0.28896(14)
H3 H 0.6605 0.8967 0.3018
H4 H 0.6880 0.8039 0.2409
C2 C 0.7686(2) 0.7560(4) 0.34114(17)
H5 H 0.7630 0.7527 0.3894
H6 H 0.8102 0.8380 0.3380
H7 H 0.7889 0.6532 0.3294
C3 C 0.5873(2) 0.5646(4) 0.22265(18)
H8 H 0.6006 0.6173 0.1821
H9 H 0.5245 0.5434 0.2096
C4 C 0.6371(3) 0.4082(5) 0.2389(2)
H10 H 0.6992 0.4292 0.2502
H11 H 0.6197 0.3388 0.1975
H12 H 0.6243 0.3568 0.2794
C5 C 0.57154(18) 0.6623(3) 0.33947(14)
C6 C 0.50782(17) 0.5419(3) 0.33832(13)
H13 H 0.4991 0.4596 0.3043
C7 C 0.45865(15) 0.5449(3) 0.38679(12)
C8 C 0.46981(15) 0.6682(3) 0.43975(12)
C9 C 0.53823(16) 0.7805(3) 0.44282(13)
H14 H 0.5496 0.8592 0.4786
C10 C 0.58758(16) 0.7780(3) 0.39608(13)
H15 H 0.6326 0.8529 0.4010
C11 C 0.41278(15) 0.6856(3) 0.48385(12)
H16 H 0.4226 0.7690 0.5174
C12 C 0.28449(15) 0.6187(3) 0.51449(11)
C13 C 0.21388(15) 0.5190(3) 0.50813(11)
C14 C 0.29039(17) 0.7629(3) 0.55766(14)
C15 C 0.14566(15) 0.5693(3) 0.53998(12)
C16 C 0.13897(15) 0.2803(3) 0.46564(11)
H17 H 0.0928 0.3172 0.4823
C17 C 0.13320(15) 0.1245(3) 0.43406(11)
C18 C 0.20104(15) 0.0577(3) 0.40871(12)
C19 C 0.19354(15) -0.0952(3) 0.37903(12)
H18 H 0.2391 -0.1361 0.3626
C20 C 0.11801(16) -0.1901(3) 0.37333(12)
C21 C 0.05024(16) -0.1242(3) 0.39982(12)
H19 H 0.0001 -0.1847 0.3976
C22 C 0.05842(16) 0.0278(3) 0.42864(12)
H20 H 0.0130 0.0688 0.4452
C23 C 0.17549(18) -0.4030(3) 0.30965(14)
H21 H 0.1726 -0.5198 0.3088
H22 H 0.2338 -0.3724 0.3390
C24 C 0.1631(2) -0.3427(4) 0.23345(15)
H23 H 0.1091 -0.3849 0.2024
H24 H 0.2116 -0.3778 0.2165
H25 H 0.1607 -0.2270 0.2330
C25 C 0.02903(18) -0.4333(3) 0.33305(14)
H26 H 0.0101 -0.4254 0.3766
H27 H 0.0412 -0.5459 0.3263
C26 C -0.04566(18) -0.3778(4) 0.26914(15)
H28 H -0.0571 -0.2655 0.2746
H29 H -0.0977 -0.4392 0.2671
H30 H -0.0294 -0.3934 0.2253
C27? C 0.6409(9) 0.5180(13) 0.2612(6)
H31? H 0.6292 0.4250 0.2876
H32? H 0.7023 0.5195 0.2617
C28? C 0.5772(10) 0.529(2) 0.1839(8)
H33? H 0.5854 0.4376 0.1562
H34? H 0.5893 0.6262 0.1611
H35? H 0.5175 0.5318 0.1864
loop_
_geom_bond_atom_site_label_1
_geom_bond_atom_site_label_2
_geom_bond_site_symmetry_1
_geom_bond_site_symmetry_2
O1 H1 1_555 1_555
O2 H2 1_555 1_555
N1 C1 1_555 1_555
N2 C11 1_555 1_555
N3 C14 1_555 1_555
N4 C15 1_555 1_555
N5 C13 1_555 1_555
N6 C20 1_555 1_555
C1 H3 1_555 1_555
H4 C1 1_555 1_555
C2 C1 1_555 1_555
H5 C2 1_555 1_555
H6 C2 1_555 1_555
H7 C2 1_555 1_555
C3 N1 1_555 1_555
H8 C3 1_555 1_555
H9 C3 1_555 1_555
C4 C3 1_555 1_555
H10 C4 1_555 1_555
H11 C4 1_555 1_555
H12 C4 1_555 1_555
C5 N1 1_555 1_555
C6 C5 1_555 1_555
H13 C6 1_555 1_555
C7 O1 1_555 1_555
C8 C7 1_555 1_555
C9 C8 1_555 1_555
H14 C9 1_555 1_555
C10 C5 1_555 1_555
H15 C10 1_555 1_555
C11 C8 1_555 1_555
H16 C11 1_555 1_555
C12 N2 1_555 1_555
C13 C12 1_555 1_555
C14 C12 1_555 1_555
C15 C13 1_555 1_555
C16 N5 1_555 1_555
H17 C16 1_555 1_555
C17 C16 1_555 1_555
C18 O2 1_555 1_555
C19 C18 1_555 1_555
H18 C19 1_555 1_555
C20 C19 1_555 1_555
C21 C20 1_555 1_555
H19 C21 1_555 1_555
C22 C17 1_555 1_555
H20 C22 1_555 1_555
C23 N6 1_555 1_555
H21 C23 1_555 1_555
H22 C23 1_555 1_555
C24 C23 1_555 1_555
H23 C24 1_555 1_555
H24 C24 1_555 1_555
H25 C24 1_555 1_555
C25 N6 1_555 1_555
H26 C25 1_555 1_555
H27 C25 1_555 1_555
C26 C25 1_555 1_555
H28 C26 1_555 1_555
H29 C26 1_555 1_555
H30 C26 1_555 1_555
C6 C7 1_555 1_555
C9 C10 1_555 1_555
C17 C18 1_555 1_555
C21 C22 1_555 1_555

#END
