
#######################################################################
#
#                 Cambridge Crystallographic Data Centre
#                                CCDC 
#
#######################################################################
#
# If this CIF has been generated from an entry in the Cambridge 
# Structural Database, then it will include bibliographic, chemical, 
# crystal, experimental, refinement or atomic coordinate data resulting 
# from the CCDC's data processing and validation procedures.
#
#######################################################################

data_RENJUR
_chemical_compound_source        
'broth culture of Lysinibacillus fusiformis KMC003'
_chemical_name_common            'Spirobacillene A'
_chemical_formula_moiety         'C18 H13 N1 O3'
_chemical_name_systematic        
3-Hydroxy-4-(1H-indol-3-yl)spiro[4.5]deca-3,6,9-triene-2,8-dione
_chemical_properties_biological  'Antimicrobial activity'
_symmetry_cell_setting           monoclinic
_symmetry_space_group_name_H-M   'P 21/n'
_symmetry_Int_Tables_number      14
_space_group_name_Hall           '-P 2yn'
loop_
_symmetry_equiv_pos_site_id
_symmetry_equiv_pos_as_xyz
1 x,y,z
2 1/2-x,1/2+y,1/2-z
3 -x,-y,-z
4 1/2+x,1/2-y,1/2+z
_cell_length_a                   7.8127(6)
_cell_length_b                   11.0446(6)
_cell_length_c                   16.6137(10)
_cell_angle_alpha                90
_cell_angle_beta                 99.9584(18)
_cell_angle_gamma                90
_cell_volume                     1411.97
_exptl_crystal_colour            yellow
_exptl_crystal_description       chunk
_chemical_melting_point          '490-493 K'
_cell_formula_units_Z            4
_exptl_crystal_recrystallization_method hexane/tetrahydrofuran
loop_
_atom_site_label
_atom_site_type_symbol
_atom_site_fract_x
_atom_site_fract_y
_atom_site_fract_z
O1 O 0.37162(15) 0.09296(9) 0.66438(6)
O2 O 0.58878(15) 0.23052(11) 0.57529(6)
O3 O 0.77088(16) 0.49249(10) 1.00926(6)
N1 N 0.26395(18) 0.18762(13) 0.94656(8)
C1 C 0.59459(19) 0.35287(12) 0.77781(8)
C2 C 0.5179(2) 0.46224(13) 0.81125(9)
C3 C 0.5814(2) 0.51157(13) 0.88334(9)
C4 C 0.7293(2) 0.45830(12) 0.93799(8)
C5 C 0.76162(19) 0.31400(14) 0.83127(9)
C6 C 0.8226(2) 0.36159(14) 0.90409(9)
C7 C 0.46355(18) 0.19200(12) 0.69317(8)
C8 C 0.47028(17) 0.24180(12) 0.76821(7)
C9 C 0.56441(18) 0.26079(13) 0.64349(8)
C10 C 0.6245(3) 0.37465(15) 0.68885(9)
C11 C 0.3227(2) 0.26271(15) 0.89223(9)
C12 C 0.29587(19) 0.06935(14) 0.92810(8)
C13 C 0.39039(18) 0.19561(12) 0.83504(7)
C14 C 0.37255(17) 0.07007(12) 0.85710(8)
C15 C 0.42175(19) -0.04089(13) 0.82680(9)
C16 C 0.3961(3) -0.14575(15) 0.86813(10)
C17 C 0.2711(3) -0.03742(17) 0.96961(10)
C18 C 0.3228(3) -0.14392(16) 0.93894(10)
H1 H 0.3753 0.0846 0.6157
H2 H 0.416(3) 0.4954(15) 0.7770(11)
H3 H 0.527(3) 0.5806(16) 0.9045(11)
H4 H 0.825(3) 0.2454(15) 0.8101(10)
H5 H 0.926(3) 0.3334(15) 0.9368(10)
H6 H 0.5577 0.4437 0.6649
H7 H 0.7466 0.3892 0.6878
H8 H 0.309(3) 0.3499(16) 0.8971(10)
H9 H 0.4708 -0.0436 0.7797
H10 H 0.4284 -0.2195 0.8483
H11 H 0.2211 -0.0363 1.0165
H12 H 0.3087 -0.2162 0.9658
H13 H 0.217(3) 0.2132(18) 0.9895(12)
loop_
_geom_bond_atom_site_label_1
_geom_bond_atom_site_label_2
_geom_bond_site_symmetry_1
_geom_bond_site_symmetry_2
O1 C7 1_555 1_555
O2 C9 1_555 1_555
O3 C4 1_555 1_555
N1 C11 1_555 1_555
C1 C2 1_555 1_555
C2 C3 1_555 1_555
C3 C4 1_555 1_555
C4 C6 1_555 1_555
C5 C1 1_555 1_555
C6 C5 1_555 1_555
C7 C8 1_555 1_555
C8 C1 1_555 1_555
C9 C7 1_555 1_555
C10 C1 1_555 1_555
C11 C13 1_555 1_555
C12 N1 1_555 1_555
C13 C8 1_555 1_555
C14 C12 1_555 1_555
C15 C14 1_555 1_555
C16 C15 1_555 1_555
C17 C12 1_555 1_555
C18 C16 1_555 1_555
H1 O1 1_555 1_555
H2 C2 1_555 1_555
H3 C3 1_555 1_555
H4 C5 1_555 1_555
H5 C6 1_555 1_555
H6 C10 1_555 1_555
H7 C10 1_555 1_555
H8 C11 1_555 1_555
H9 C15 1_555 1_555
H10 C16 1_555 1_555
H11 C17 1_555 1_555
H12 C18 1_555 1_555
H13 N1 1_555 1_555
C9 C10 1_555 1_555
C13 C14 1_555 1_555
C17 C18 1_555 1_555

#END
