
#######################################################################
#
#                 Cambridge Crystallographic Data Centre
#                                CCDC 
#
#######################################################################
#
# If this CIF has been generated from an entry in the Cambridge 
# Structural Database, then it will include bibliographic, chemical, 
# crystal, experimental, refinement or atomic coordinate data resulting 
# from the CCDC's data processing and validation procedures.
#
#######################################################################

data_RENNOP
_chemical_formula_moiety         'C44 H70 B2 O4 S2 Si2,C6 H14'
_chemical_name_systematic        
"(5,10-bis(4,4,5,5-Tetramethyl-1,3,2-dioxaborolan-2-yl)thieno[3',2':5,6]naphtho[2,1-b]thiene-2,7-diyl)bis(tri-isopropylsilane) n-hexane solvate"
_symmetry_cell_setting           monoclinic
_symmetry_space_group_name_H-M   'P 21/c'
_symmetry_Int_Tables_number      14
_space_group_name_Hall           '-P 2ybc'
loop_
_symmetry_equiv_pos_site_id
_symmetry_equiv_pos_as_xyz
1 x,y,z
2 -x,1/2+y,1/2-z
3 -x,-y,-z
4 x,1/2-y,1/2+z
_cell_length_a                   15.815(2)
_cell_length_b                   14.931(3)
_cell_length_c                   22.388(4)
_cell_angle_alpha                90
_cell_angle_beta                 96.775(2)
_cell_angle_gamma                90
_cell_volume                     5249.65
_exptl_crystal_colour            colorless
_exptl_crystal_description       block
_chemical_melting_point          'above 300 deg.C'
_cell_formula_units_Z            4
_exptl_crystal_recrystallization_method hexane
loop_
_atom_site_label
_atom_site_type_symbol
_atom_site_fract_x
_atom_site_fract_y
_atom_site_fract_z
S1 S 0.068999(16) 0.260627(13) 0.105793(9)
C1 C 0.07071(6) 0.31803(5) 0.17338(4)
C2 C 0.12408(5) 0.27645(4) 0.21761(4)
H1 H 0.1338 0.2980 0.2568
C3 C 0.16364(5) 0.19694(4) 0.19830(3)
C4 C 0.21969(5) 0.13689(4) 0.23314(3)
C5 C 0.24384(5) 0.14829(4) 0.29569(3)
H2 H 0.2234 0.1981 0.3143
C6 C 0.29590(5) 0.08970(4) 0.33034(3)
C7 C 0.32629(5) 0.01491(4) 0.29990(3)
S2 S 0.393368(15) -0.068651(12) 0.331934(10)
C8 C 0.39509(6) -0.12317(5) 0.26393(4)
C9 C 0.34572(6) -0.07852(5) 0.21915(4)
H3 H 0.3389 -0.0978 0.1794
C10 C 0.30560(5) 0.00009(4) 0.23868(4)
C11 C 0.25020(5) 0.06107(4) 0.20354(3)
C12 C 0.22635(5) 0.04982(5) 0.14084(3)
H4 H 0.2485 0.0011 0.1220
C13 C 0.17241(5) 0.10678(5) 0.10622(3)
C14 C 0.13948(5) 0.18031(5) 0.13714(3)
Si1 Si 0.003914(16) 0.421346(15) 0.178680(11)
C15 C 0.05662(6) 0.49103(5) 0.24297(4)
H5 H 0.0615 0.4519 0.2784
C16 C 0.14685(8) 0.52258(9) 0.23658(6)
H6 H 0.1807 0.4724 0.2269
H7 H 0.1715 0.5488 0.2738
H8 H 0.1451 0.5663 0.2050
C17 C 0.00055(9) 0.56976(6) 0.25781(6)
H9 H -0.0557 0.5484 0.2620
H10 H -0.0023 0.6131 0.2259
H11 H 0.0246 0.5971 0.2948
C18 C -0.00633(8) 0.47798(7) 0.10293(5)
H12 H -0.0299 0.4334 0.0735
C19 C 0.07873(12) 0.50799(10) 0.08359(6)
H13 H 0.1179 0.4586 0.0870
H14 H 0.1015 0.5561 0.1090
H15 H 0.0702 0.5281 0.0426
C20 C -0.06745(12) 0.55577(9) 0.09823(7)
H16 H -0.1208 0.5370 0.1106
H17 H -0.0764 0.5763 0.0573
H18 H -0.0442 0.6036 0.1238
C21 C -0.10596(7) 0.38694(8) 0.19579(6)
H19 H -0.1394 0.4418 0.1983
C22 C -0.10224(9) 0.33976(11) 0.25680(7)
H20 H -0.0733 0.3774 0.2875
H21 H -0.0720 0.2842 0.2553
H22 H -0.1590 0.3282 0.2659
C23 C -0.15259(11) 0.32903(13) 0.14698(9)
H23 H -0.1547 0.3593 0.1090
H24 H -0.2095 0.3180 0.1561
H25 H -0.1231 0.2731 0.1449
Si2 Si 0.462256(17) -0.225930(14) 0.256117(12)
C24 C 0.47547(8) -0.28544(6) 0.33112(6)
H26 H 0.4982 -0.2408 0.3608
C25 C 0.39168(12) -0.31882(10) 0.35177(9)
H27 H 0.3514 -0.2705 0.3497
H28 H 0.4022 -0.3400 0.3925
H29 H 0.3692 -0.3667 0.3261
C26 C 0.54057(10) -0.36131(8) 0.33480(7)
H30 H 0.5931 -0.3395 0.3228
H31 H 0.5193 -0.4091 0.3086
H32 H 0.5503 -0.3830 0.3754
C27 C 0.57077(7) -0.18958(7) 0.23884(6)
H33 H 0.6030 -0.2443 0.2330
C28 C 0.62035(10) -0.13887(10) 0.29064(8)
H34 H 0.6228 -0.1741 0.3267
H35 H 0.5924 -0.0830 0.2966
H36 H 0.6771 -0.1275 0.2813
C29 C 0.56855(11) -0.13554(11) 0.18102(7)
H37 H 0.5376 -0.1682 0.1486
H38 H 0.6257 -0.1252 0.1721
H39 H 0.5410 -0.0792 0.1859
C30 C 0.40901(7) -0.29145(6) 0.19033(5)
H40 H 0.4015 -0.2491 0.1567
C31 C 0.32019(11) -0.32743(11) 0.19663(10)
H41 H 0.2990 -0.3595 0.1608
H42 H 0.2828 -0.2784 0.2025
H43 H 0.3230 -0.3670 0.2306
C32 C 0.46309(10) -0.36617(7) 0.17026(7)
H44 H 0.4708 -0.4112 0.2010
H45 H 0.5176 -0.3428 0.1631
H46 H 0.4354 -0.3921 0.1339
B1 B 0.31933(7) 0.10828(6) 0.39924(4)
O1 O 0.29085(8) 0.18066(6) 0.42517(4)
C33 C 0.32259(18) 0.17315(15) 0.48771(8)
C34 C 0.35562(12) 0.08151(10) 0.49785(7)
O2 O 0.36481(9) 0.05109(6) 0.43748(5)
C35 C 0.40607(18) 0.24397(15) 0.48569(10)
H47 H 0.3853 0.3039 0.4787
H48 H 0.4382 0.2266 0.4538
H49 H 0.4419 0.2415 0.5234
C36 C 0.26518(18) 0.20565(15) 0.52979(10)
H50 H 0.2486 0.2662 0.5198
H51 H 0.2939 0.2037 0.5700
H52 H 0.2154 0.1683 0.5272
C37 C 0.44730(17) 0.07593(15) 0.53863(10)
H53 H 0.4645 0.0144 0.5433
H54 H 0.4429 0.1017 0.5774
H55 H 0.4888 0.1084 0.5193
C38 C 0.30027(18) 0.02147(16) 0.51765(10)
H56 H 0.3274 -0.0359 0.5231
H57 H 0.2508 0.0165 0.4885
H58 H 0.2836 0.0416 0.5553
B2 B 0.15052(7) 0.09163(6) 0.03677(4)
O3 O 0.19658(10) 0.04864(9) 0.00194(5)
C40 C 0.07550(13) 0.10678(11) -0.06110(7)
O4 O 0.09891(10) 0.13608(9) 0.00111(5)
C41 C 0.21953(16) 0.08369(14) -0.10118(10)
H59 H 0.2660 0.0429 -0.1033
H60 H 0.2409 0.1393 -0.0840
H61 H 0.1912 0.0942 -0.1409
C42 C 0.11672(17) -0.05835(13) -0.07308(10)
H62 H 0.1650 -0.0978 -0.0700
H63 H 0.0894 -0.0583 -0.1137
H64 H 0.0772 -0.0785 -0.0466
C43 C 0.07801(17) 0.20087(13) -0.08933(10)
H65 H 0.0270 0.2329 -0.0834
H66 H 0.0819 0.1953 -0.1316
H67 H 0.1267 0.2330 -0.0706
C44 C -0.00563(16) 0.07987(14) -0.07493(11)
H68 H -0.0429 0.1306 -0.0747
H69 H -0.0196 0.0369 -0.0458
H70 H -0.0122 0.0530 -0.1142
C57 C 0.16720(12) 0.04139(14) -0.06180(8)
C45 C 0.4467(3) -0.0544(3) 0.01588(13)
H71 H 0.4935 -0.0946 0.0132
H72 H 0.4644 -0.0067 0.0433
H73 H 0.4284 -0.0300 -0.0232
C46 C 0.3723(2) -0.1060(2) 0.03888(14)
H74 H 0.3879 -0.1067 0.0821
H75 H 0.3254 -0.0639 0.0322
C47 C 0.3290(3) -0.1958(2) 0.0268(2)
H76 H 0.2761 -0.1754 0.0047
H77 H 0.3142 -0.2082 0.0667
C48 C 0.3302(3) -0.2991(3) 0.0009(3)
H78 H 0.3594 -0.3067 -0.0345
H79 H 0.3463 -0.3446 0.0310
C49 C 0.2383(2) -0.2821(4) -0.0114(2)
H80 H 0.2129 -0.3373 -0.0278
H81 H 0.2312 -0.2384 -0.0437
C50 C 0.1816(3) -0.2494(4) 0.0371(2)
H82 H 0.2141 -0.2508 0.0761
H83 H 0.1330 -0.2880 0.0369
H84 H 0.1627 -0.1893 0.0280
C39? C 0.14638(11) 0.03677(15) -0.05546(7)
C51? C 0.32894(16) 0.18048(13) 0.49083(10)
C52? C 0.39151(17) 0.10794(18) 0.49396(12)
C53? C 0.3191(3) 0.2552(3) 0.52363(17)
C54? C 0.2477(3) 0.1348(3) 0.51890(17)
C55? C 0.4727(3) 0.1689(3) 0.48935(17)
C56? C 0.4107(3) 0.0439(3) 0.54326(17)
C58? C 0.09395(16) 0.10942(13) -0.05661(8)
C59? C 0.2390(2) 0.04781(18) -0.08393(14)
C60? C 0.1435(2) -0.05079(17) -0.08061(14)
C61? C 0.1095(2) 0.18265(17) -0.10287(13)
C62? C 0.0042(2) 0.05570(19) -0.08129(14)
C63? C 0.2924(3) -0.1642(2) 0.04475(19)
C64? C 0.2312(4) -0.2125(2) 0.08986(17)
C65? C 0.2184(3) -0.2765(2) 0.03153(19)
C66? C 0.1262(3) -0.2723(3) 0.0042(2)
H85? H 0.3520 -0.0550 0.0599
H86? H 0.4082 -0.1375 0.0702
H87? H 0.3047 -0.2152 0.0203
H88? H 0.2500 -0.1306 0.0192
H89? H 0.2606 -0.2394 0.1259
H90? H 0.1814 -0.1785 0.0978
H91? H 0.2551 -0.2568 0.0023
H92? H 0.2335 -0.3376 0.0430
H93? H 0.0967 -0.2277 0.0246
H94? H 0.0998 -0.3296 0.0082
H95? H 0.1235 -0.2571 -0.0377
H96? H 0.2653 0.2826 0.5101
H97? H 0.3643 0.2966 0.5187
H98? H 0.3208 0.2395 0.5653
H99? H 0.2356 0.0773 0.5007
H100? H 0.1986 0.1727 0.5108
H101? H 0.2612 0.1277 0.5616
H102? H 0.5222 0.1316 0.4895
H103? H 0.4803 0.2090 0.5230
H104? H 0.4648 0.2028 0.4527
H105? H 0.4549 0.0040 0.5340
H106? H 0.3605 0.0101 0.5484
H107? H 0.4294 0.0757 0.5797
H108? H 0.2610 0.1075 -0.0778
H109? H 0.2304 0.0349 -0.1262
H110? H 0.2789 0.0058 -0.0641
H111? H 0.1126 -0.0498 -0.1202
H112? H 0.1085 -0.0764 -0.0528
H113? H 0.1941 -0.0862 -0.0811
H114? H 0.1651 0.2081 -0.0927
H115? H 0.0672 0.2287 -0.1024
H116? H 0.1058 0.1567 -0.1423
H117? H -0.0434 0.0951 -0.0796
H118? H -0.0019 0.0043 -0.0564
H119? H 0.0063 0.0367 -0.1221
O5? O 0.28192(13) 0.17523(14) 0.43007(9)
O6? O 0.38020(10) 0.06580(9) 0.43524(7)
O7? O 0.18638(13) 0.01865(12) 0.01090(7)
O8? O 0.07332(13) 0.13214(12) 0.00739(7)
loop_
_geom_bond_atom_site_label_1
_geom_bond_atom_site_label_2
_geom_bond_site_symmetry_1
_geom_bond_site_symmetry_2
S1 C1 1_555 1_555
C1 C2 1_555 1_555
C2 H1 1_555 1_555
C3 C2 1_555 1_555
C4 C3 1_555 1_555
C5 C4 1_555 1_555
H2 C5 1_555 1_555
C6 C5 1_555 1_555
C7 C6 1_555 1_555
S2 C7 1_555 1_555
C8 S2 1_555 1_555
C9 C8 1_555 1_555
H3 C9 1_555 1_555
C10 C7 1_555 1_555
C11 C4 1_555 1_555
C12 C11 1_555 1_555
H4 C12 1_555 1_555
C13 C12 1_555 1_555
C14 S1 1_555 1_555
Si1 C1 1_555 1_555
C15 Si1 1_555 1_555
H5 C15 1_555 1_555
C16 C15 1_555 1_555
H6 C16 1_555 1_555
H7 C16 1_555 1_555
H8 C16 1_555 1_555
C17 C15 1_555 1_555
H9 C17 1_555 1_555
H10 C17 1_555 1_555
H11 C17 1_555 1_555
C18 Si1 1_555 1_555
H12 C18 1_555 1_555
C19 C18 1_555 1_555
H13 C19 1_555 1_555
H14 C19 1_555 1_555
H15 C19 1_555 1_555
C20 C18 1_555 1_555
H16 C20 1_555 1_555
H17 C20 1_555 1_555
H18 C20 1_555 1_555
C21 Si1 1_555 1_555
H19 C21 1_555 1_555
C22 C21 1_555 1_555
H20 C22 1_555 1_555
H21 C22 1_555 1_555
H22 C22 1_555 1_555
C23 C21 1_555 1_555
H23 C23 1_555 1_555
H24 C23 1_555 1_555
H25 C23 1_555 1_555
Si2 C8 1_555 1_555
C24 Si2 1_555 1_555
H26 C24 1_555 1_555
C25 C24 1_555 1_555
H27 C25 1_555 1_555
H28 C25 1_555 1_555
H29 C25 1_555 1_555
C26 C24 1_555 1_555
H30 C26 1_555 1_555
H31 C26 1_555 1_555
H32 C26 1_555 1_555
C27 Si2 1_555 1_555
H33 C27 1_555 1_555
C28 C27 1_555 1_555
H34 C28 1_555 1_555
H35 C28 1_555 1_555
H36 C28 1_555 1_555
C29 C27 1_555 1_555
H37 C29 1_555 1_555
H38 C29 1_555 1_555
H39 C29 1_555 1_555
C30 Si2 1_555 1_555
H40 C30 1_555 1_555
C31 C30 1_555 1_555
H41 C31 1_555 1_555
H42 C31 1_555 1_555
H43 C31 1_555 1_555
C32 C30 1_555 1_555
H44 C32 1_555 1_555
H45 C32 1_555 1_555
H46 C32 1_555 1_555
B1 C6 1_555 1_555
O1 B1 1_555 1_555
C33 O1 1_555 1_555
C34 C33 1_555 1_555
O2 B1 1_555 1_555
C35 C33 1_555 1_555
H47 C35 1_555 1_555
H48 C35 1_555 1_555
H49 C35 1_555 1_555
C36 C33 1_555 1_555
H50 C36 1_555 1_555
H51 C36 1_555 1_555
H52 C36 1_555 1_555
C37 C34 1_555 1_555
H53 C37 1_555 1_555
H54 C37 1_555 1_555
H55 C37 1_555 1_555
C38 C34 1_555 1_555
H56 C38 1_555 1_555
H57 C38 1_555 1_555
H58 C38 1_555 1_555
B2 C13 1_555 1_555
O3 B2 1_555 1_555
C40 O4 1_555 1_555
O4 B2 1_555 1_555
C41 H59 1_555 1_555
H60 C41 1_555 1_555
H61 C41 1_555 1_555
C42 H62 1_555 1_555
H63 C42 1_555 1_555
H64 C42 1_555 1_555
C43 C40 1_555 1_555
H65 C43 1_555 1_555
H66 C43 1_555 1_555
H67 C43 1_555 1_555
C44 C40 1_555 1_555
H68 C44 1_555 1_555
H69 C44 1_555 1_555
H70 C44 1_555 1_555
C45 H71 1_555 1_555
H72 C45 1_555 1_555
H73 C45 1_555 1_555
C46 C45 1_555 1_555
H74 C46 1_555 1_555
H75 C46 1_555 1_555
C47 C46 1_555 1_555
H76 C47 1_555 1_555
H77 C47 1_555 1_555
C48 C47 1_555 1_555
H78 C48 1_555 1_555
H79 C48 1_555 1_555
C49 C48 1_555 1_555
H80 C49 1_555 1_555
H81 C49 1_555 1_555
C50 C49 1_555 1_555
H82 C50 1_555 1_555
H83 C50 1_555 1_555
H84 C50 1_555 1_555
C57 O3 1_555 1_555
C3 C14 1_555 1_555
C9 C10 1_555 1_555
C10 C11 1_555 1_555
C13 C14 1_555 1_555
C34 O2 1_555 1_555
C40 C57 1_555 1_555
C41 C57 1_555 1_555
C42 C57 1_555 1_555

#END
