
#######################################################################
#
#                 Cambridge Crystallographic Data Centre
#                                CCDC 
#
#######################################################################
#
# If this CIF has been generated from an entry in the Cambridge 
# Structural Database, then it will include bibliographic, chemical, 
# crystal, experimental, refinement or atomic coordinate data resulting 
# from the CCDC's data processing and validation procedures.
#
#######################################################################

data_RENNAB
_chemical_formula_moiety         'C16 H22 N2 O3 S1'
_chemical_name_systematic        
1-(1-Benzyl-2,2-dioxidooctahydro-1H-2,1,3-benzothiadiazin-4-yl)ethanone
_symmetry_cell_setting           monoclinic
_symmetry_space_group_name_H-M   'P 21/c'
_symmetry_Int_Tables_number      14
_space_group_name_Hall           '-P 2ybc'
loop_
_symmetry_equiv_pos_site_id
_symmetry_equiv_pos_as_xyz
1 x,y,z
2 -x,1/2+y,1/2-z
3 -x,-y,-z
4 x,1/2-y,1/2+z
_cell_length_a                   10.5533(2)
_cell_length_b                   14.5967(2)
_cell_length_c                   10.1764(2)
_cell_angle_alpha                90
_cell_angle_beta                 96.780(1)
_cell_angle_gamma                90
_cell_volume                     1556.64
_exptl_crystal_colour            colorless
_exptl_crystal_description       block
_cell_formula_units_Z            4
loop_
_atom_site_label
_atom_site_type_symbol
_atom_site_fract_x
_atom_site_fract_y
_atom_site_fract_z
S1 S 0.44407(4) -0.00380(3) 0.77945(4)
O1 O 0.32522(11) 0.20860(8) 0.56129(11)
O2 O 0.35882(11) -0.01347(8) 0.65951(11)
O3 O 0.45367(12) -0.07875(8) 0.87140(12)
N1 N 0.39938(13) 0.08573(9) 0.85597(14)
H1 H 0.440(2) 0.0855(15) 0.931(2)
N2 N 0.59041(13) 0.02127(9) 0.74785(13)
C1 C 0.16833(16) 0.16372(13) 0.69911(18)
H2 H 0.1076 0.1790 0.6218
H3 H 0.1505 0.2014 0.7745
H4 H 0.1598 0.0988 0.7209
C2 C 0.30168(16) 0.18210(11) 0.66852(16)
C3 C 0.40823(15) 0.17353(11) 0.78415(16)
H5 H 0.3922 0.2229 0.8482
C4 C 0.64847(16) -0.05828(12) 0.68398(17)
H6 H 0.6448 -0.0468 0.5877
H7 H 0.5979 -0.1141 0.6964
C5 C 0.78557(16) -0.07452(11) 0.74066(17)
C6 C 0.88181(18) -0.07559(12) 0.65866(18)
H8 H 0.8611 -0.0674 0.5660
C7 C 1.00837(18) -0.08859(13) 0.7110(2)
H9 H 1.0738 -0.0884 0.6544
C8 C 1.03886(18) -0.10179(13) 0.8453(2)
H10 H 1.1252 -0.1105 0.8813
C9 C 0.94353(18) -0.10230(13) 0.92719(19)
H11 H 0.9644 -0.1120 1.0195
C10 C 0.81740(17) -0.08864(12) 0.87537(18)
H12 H 0.7524 -0.0889 0.9325
C11 C 0.59384(15) 0.10970(11) 0.67156(16)
H13 H 0.5391 0.1028 0.5850
C12 C 0.72998(15) 0.13173(12) 0.64449(16)
H14 H 0.7649 0.0782 0.6010
H15 H 0.7274 0.1839 0.5821
C13 C 0.81942(16) 0.15548(12) 0.76825(17)
H16 H 0.8291 0.1017 0.8279
H17 H 0.9046 0.1714 0.7434
C14 C 0.76662(16) 0.23589(12) 0.83975(18)
H18 H 0.7648 0.2912 0.7832
H19 H 0.8230 0.2486 0.9225
C15 C 0.63243(16) 0.21508(12) 0.87218(17)
H20 H 0.5984 0.2693 0.9147
H21 H 0.6359 0.1636 0.9359
C16 C 0.54235(15) 0.18999(11) 0.74812(16)
H22 H 0.5377 0.2445 0.6883
loop_
_geom_bond_atom_site_label_1
_geom_bond_atom_site_label_2
_geom_bond_site_symmetry_1
_geom_bond_site_symmetry_2
S1 O2 1_555 1_555
O1 C2 1_555 1_555
O3 S1 1_555 1_555
N1 S1 1_555 1_555
H1 N1 1_555 1_555
N2 S1 1_555 1_555
C1 H2 1_555 1_555
H3 C1 1_555 1_555
H4 C1 1_555 1_555
C2 C1 1_555 1_555
C3 N1 1_555 1_555
H5 C3 1_555 1_555
C4 N2 1_555 1_555
H6 C4 1_555 1_555
H7 C4 1_555 1_555
C5 C4 1_555 1_555
C6 C5 1_555 1_555
H8 C6 1_555 1_555
C7 C6 1_555 1_555
H9 C7 1_555 1_555
C8 C7 1_555 1_555
H10 C8 1_555 1_555
C9 C8 1_555 1_555
H11 C9 1_555 1_555
C10 C5 1_555 1_555
H12 C10 1_555 1_555
C11 N2 1_555 1_555
H13 C11 1_555 1_555
C12 C11 1_555 1_555
H14 C12 1_555 1_555
H15 C12 1_555 1_555
C13 C12 1_555 1_555
H16 C13 1_555 1_555
H17 C13 1_555 1_555
C14 C13 1_555 1_555
H18 C14 1_555 1_555
H19 C14 1_555 1_555
C15 C14 1_555 1_555
H20 C15 1_555 1_555
H21 C15 1_555 1_555
C16 C3 1_555 1_555
H22 C16 1_555 1_555
C2 C3 1_555 1_555
C9 C10 1_555 1_555
C11 C16 1_555 1_555
C15 C16 1_555 1_555

#END
