
#######################################################################
#
#                 Cambridge Crystallographic Data Centre
#                                CCDC 
#
#######################################################################
#
# If this CIF has been generated from an entry in the Cambridge 
# Structural Database, then it will include bibliographic, chemical, 
# crystal, experimental, refinement or atomic coordinate data resulting 
# from the CCDC's data processing and validation procedures.
#
#######################################################################

data_RENTOW
_chemical_formula_moiety         'C20 H22 N1 O4 1+,C1 H4 O1,Cl1 1-'
_chemical_name_systematic        
'9,10-dimethoxy-5,8,13,13a-tetrahydro-2H,6H-[1,3]dioxolo[4,5-g]isoquinolino[3,2-a]isoquinolin-7-ium chloride methanol solvate'
_symmetry_cell_setting           orthorhombic
_symmetry_space_group_name_H-M   'P b c a'
_symmetry_Int_Tables_number      61
_space_group_name_Hall           '-P 2ac 2ab'
loop_
_symmetry_equiv_pos_site_id
_symmetry_equiv_pos_as_xyz
1 x,y,z
2 1/2-x,-y,1/2+z
3 -x,1/2+y,1/2-z
4 1/2+x,1/2-y,-z
5 -x,-y,-z
6 1/2+x,y,1/2-z
7 x,1/2-y,1/2+z
8 1/2-x,1/2+y,z
_cell_length_a                   7.2610(4)
_cell_length_b                   15.3853(8)
_cell_length_c                   36.6862(19)
_cell_angle_alpha                90
_cell_angle_beta                 90
_cell_angle_gamma                90
_cell_volume                     4098.31
_exptl_crystal_colour            yellow
_exptl_crystal_description       block
_cell_formula_units_Z            8
loop_
_atom_site_label
_atom_site_type_symbol
_atom_site_fract_x
_atom_site_fract_y
_atom_site_fract_z
H1 H 0.664(5) 0.496(2) 0.6040(8)
O1 O 0.8093(4) 0.47691(17) 0.77019(6)
O2 O 0.8158(3) 0.59045(14) 0.71237(6)
N1 N 0.7758(4) 0.50532(16) 0.60489(6)
O3 O 0.8281(4) 0.30091(16) 0.45322(6)
C1 C 0.8685(4) 0.41926(19) 0.59788(7)
H2 H 0.9993 0.4253 0.6040
O4 O 0.9255(4) 0.20468(15) 0.49758(6)
C2 C 0.8061(4) 0.4725(2) 0.67128(8)
C3 C 0.8545(4) 0.39345(19) 0.55816(7)
C4 C 0.7978(4) 0.4516(2) 0.53112(8)
C5 C 0.7930(4) 0.3841(2) 0.66336(8)
C6 C 0.7479(5) 0.5439(2) 0.54029(8)
H3 H 0.6149 0.5495 0.5409
H4 H 0.7943 0.5821 0.5214
C7 C 0.7864(4) 0.4251(2) 0.49451(8)
H5 H 0.7489 0.4635 0.4764
C8 C 0.8320(4) 0.3417(2) 0.48641(8)
C9 C 0.8194(5) 0.5402(2) 0.64194(8)
H6 H 0.7349 0.5872 0.6475
H7 H 0.9431 0.5640 0.6418
C10 C 0.7959(5) 0.3544(2) 0.72795(8)
H8 H 0.7931 0.3142 0.7469
C11 C 0.8901(4) 0.28435(19) 0.51297(8)
C12 C 0.9040(4) 0.30737(19) 0.54863(8)
H9 H 0.9444 0.2680 0.5661
C13 C 0.7835(4) 0.35395(19) 0.62416(7)
H10 H 0.6557 0.3445 0.6175
H11 H 0.8475 0.2989 0.6219
C14 C 0.8262(5) 0.5717(2) 0.57671(8)
H12 H 0.9591 0.5767 0.5750
H13 H 0.7767 0.6280 0.5835
C15 C 0.7897(4) 0.3258(2) 0.69218(8)
H14 H 0.7833 0.2665 0.6874
C16 C 0.8131(4) 0.5016(2) 0.70709(8)
C17 C 0.8062(4) 0.4421(2) 0.73573(8)
C18 C 0.8011(5) 0.4188(3) 0.80039(9)
H15 H 0.6898 0.3852 0.7991
H16 H 0.8024 0.4514 0.8227
H17 H 0.9055 0.3805 0.7998
C19 C 0.9664(6) 0.6254(3) 0.73253(11)
H18 H 0.9552 0.6089 0.7577
H19 H 0.9656 0.6876 0.7306
H20 H 1.0800 0.6032 0.7229
C20 C 0.8947(5) 0.2151(2) 0.45991(9)
H21 H 0.8051 0.1728 0.4516
H22 H 1.0086 0.2057 0.4467
O5 O 0.9455(5) 0.6755(2) 0.87581(11)
H23 H 0.9333 0.6233 0.8797
C21 C 0.7847(14) 0.7076(6) 0.8558(2)
H24 H 0.6755 0.6980 0.8699
H25 H 0.7746 0.6773 0.8330
H26 H 0.7987 0.7687 0.8512
Cl1 Cl 0.35279(11) 0.48554(6) 0.60015(2)
loop_
_geom_bond_atom_site_label_1
_geom_bond_atom_site_label_2
_geom_bond_site_symmetry_1
_geom_bond_site_symmetry_2
H1 N1 1_555 1_555
O1 C17 1_555 1_555
O2 C16 1_555 1_555
N1 C1 1_555 1_555
O3 C8 1_555 1_555
C1 H2 1_555 1_555
O4 C11 1_555 1_555
C2 C5 1_555 1_555
C3 C1 1_555 1_555
C4 C3 1_555 1_555
C5 C13 1_555 1_555
C6 C4 1_555 1_555
H3 C6 1_555 1_555
H4 C6 1_555 1_555
C7 C4 1_555 1_555
H5 C7 1_555 1_555
C8 C7 1_555 1_555
C9 N1 1_555 1_555
H6 C9 1_555 1_555
H7 C9 1_555 1_555
C10 H8 1_555 1_555
C11 C8 1_555 1_555
C12 C3 1_555 1_555
H9 C12 1_555 1_555
C13 C1 1_555 1_555
H10 C13 1_555 1_555
H11 C13 1_555 1_555
C14 N1 1_555 1_555
H12 C14 1_555 1_555
H13 C14 1_555 1_555
C15 C5 1_555 1_555
H14 C15 1_555 1_555
C16 C2 1_555 1_555
C17 C10 1_555 1_555
C18 O1 1_555 1_555
H15 C18 1_555 1_555
H16 C18 1_555 1_555
H17 C18 1_555 1_555
C19 O2 1_555 1_555
H18 C19 1_555 1_555
H19 C19 1_555 1_555
H20 C19 1_555 1_555
C20 O3 1_555 1_555
H21 C20 1_555 1_555
H22 C20 1_555 1_555
O5 H23 1_555 1_555
C21 O5 1_555 1_555
H24 C21 1_555 1_555
H25 C21 1_555 1_555
H26 C21 1_555 1_555
O4 C20 1_555 1_555
C2 C9 1_555 1_555
C6 C14 1_555 1_555
C10 C15 1_555 1_555
C11 C12 1_555 1_555
C16 C17 1_555 1_555

#END
