
#######################################################################
#
#                 Cambridge Crystallographic Data Centre
#                                CCDC 
#
#######################################################################
#
# If this CIF has been generated from an entry in the Cambridge 
# Structural Database, then it will include bibliographic, chemical, 
# crystal, experimental, refinement or atomic coordinate data resulting 
# from the CCDC's data processing and validation procedures.
#
#######################################################################

data_RENVAJ
_chemical_formula_moiety         'C25 H34 Br1 N3'
_chemical_name_systematic        
13-(4-Bromobenzyl)-8,11-di-t-butyl-7,12,13-triazatetracyclo[7.3.1.0^1,6^.0^6,10^]trideca-7,11-diene
_symmetry_cell_setting           triclinic
_symmetry_space_group_name_H-M   'P -1'
_symmetry_Int_Tables_number      2
_space_group_name_Hall           '-P 1'
loop_
_symmetry_equiv_pos_site_id
_symmetry_equiv_pos_as_xyz
1 x,y,z
2 -x,-y,-z
_cell_length_a                   10.519(2)
_cell_length_b                   14.298(3)
_cell_length_c                   16.736(3)
_cell_angle_alpha                67.76(3)
_cell_angle_beta                 83.63(3)
_cell_angle_gamma                89.69(3)
_cell_volume                     2313.63
_exptl_crystal_colour            colorless
_exptl_crystal_description       rod
_cell_formula_units_Z            4
loop_
_atom_site_label
_atom_site_type_symbol
_atom_site_fract_x
_atom_site_fract_y
_atom_site_fract_z
Br1 Br 0.41628(6) 0.72554(5) 0.38844(4)
N1 N 0.3554(4) 0.2651(3) 0.2838(3)
N2 N 0.5726(4) 0.3276(3) 0.2666(3)
N3 N 0.6217(5) 0.3280(4) 0.1039(3)
C1 C 0.8853(6) 0.3681(5) 0.0434(4)
H1 H 0.8647 0.3222 0.0152
H2 H 0.9777 0.3836 0.0331
H3 H 0.8398 0.4308 0.0194
C2 C 0.8445(5) 0.3181(4) 0.1405(4)
C3 C 0.9184(6) 0.2207(5) 0.1773(5)
H4 H 0.8932 0.1880 0.2400
H5 H 1.0105 0.2375 0.1662
H6 H 0.8985 0.1747 0.1490
C4 C 0.8780(6) 0.3907(6) 0.1837(5)
H7 H 0.8329 0.4536 0.1593
H8 H 0.9705 0.4057 0.1729
H9 H 0.8520 0.3591 0.2465
C5 C 0.7020(5) 0.2937(4) 0.1601(4)
C6 C 0.6313(5) 0.2384(4) 0.2510(4)
H10 H 0.6821 0.1928 0.2965
C7 C 0.5166(5) 0.1885(4) 0.2265(4)
H11 H 0.5366 0.1304 0.2085
C8 C 0.4939(5) 0.2909(4) 0.1534(4)
C9 C 0.3903(5) 0.2985(5) 0.0949(4)
H12 H 0.3178 0.2509 0.1285
H13 H 0.4249 0.2787 0.0463
C10 C 0.3417(6) 0.4066(5) 0.0579(4)
H14 H 0.4106 0.4520 0.0165
H15 H 0.2684 0.4072 0.0255
C11 C 0.3000(6) 0.4471(5) 0.1292(4)
H16 H 0.2260 0.4053 0.1676
H17 H 0.2720 0.5172 0.1020
C12 C 0.4087(5) 0.4459(4) 0.1841(4)
H18 H 0.4797 0.4930 0.1474
H19 H 0.3768 0.4683 0.2317
C13 C 0.4559(5) 0.3402(4) 0.2216(4)
C14 C 0.3958(5) 0.1779(4) 0.2873(4)
C15 C 0.3264(6) 0.0778(4) 0.3452(4)
C16 C 0.3044(7) 0.0151(5) 0.2909(5)
H20 H 0.2571 -0.0481 0.3280
H21 H 0.3871 -0.0003 0.2665
H22 H 0.2548 0.0536 0.2436
C17 C 0.1966(6) 0.0975(5) 0.3866(5)
H23 H 0.1431 0.1331 0.3409
H24 H 0.2101 0.1390 0.4203
H25 H 0.1539 0.0329 0.4252
C18 C 0.4081(6) 0.0198(5) 0.4173(5)
H26 H 0.3625 -0.0433 0.4562
H27 H 0.4245 0.0613 0.4504
H28 H 0.4897 0.0044 0.3914
C19 C 0.5601(5) 0.3160(4) 0.3578(4)
H29 H 0.6421 0.2942 0.3817
H30 H 0.4933 0.2630 0.3916
C20 C 0.5241(5) 0.4157(4) 0.3669(4)
C21 C 0.4100(5) 0.4238(4) 0.4143(4)
H31 H 0.3534 0.3663 0.4425
C22 C 0.3779(6) 0.5161(4) 0.4206(4)
H32 H 0.2991 0.5219 0.4517
C23 C 0.4617(5) 0.5978(5) 0.3815(4)
C24 C 0.5757(6) 0.5938(5) 0.3352(4)
H33 H 0.6324 0.6515 0.3087
C25 C 0.6058(6) 0.5015(5) 0.3281(4)
H34 H 0.6843 0.4971 0.2959
Br2 Br 0.89740(6) 0.20346(5) 0.44878(5)
N4 N 1.0976(4) 0.8449(3) 0.0648(3)
N5 N 1.0779(4) 0.7120(3) 0.2327(3)
N6 N 0.8595(4) 0.7494(4) 0.2630(3)
C26 C 1.3999(6) 0.9124(6) 0.1111(5)
H35 H 1.3672 0.9801 0.0838
H36 H 1.4916 0.9136 0.0917
H37 H 1.3869 0.8914 0.1744
C27 C 1.3284(6) 0.8376(4) 0.0849(4)
C28 C 1.3744(6) 0.7307(5) 0.1305(5)
H38 H 1.3550 0.7101 0.1936
H39 H 1.4670 0.7299 0.1154
H40 H 1.3307 0.6836 0.1116
C29 C 1.3505(6) 0.8678(5) -0.0141(4)
H41 H 1.4427 0.8725 -0.0330
H42 H 1.3135 0.9336 -0.0427
H43 H 1.3095 0.8168 -0.0297
C30 C 1.1860(5) 0.8379(4) 0.1137(4)
C31 C 1.1283(5) 0.8182(4) 0.2063(4)
H44 H 1.1856 0.8314 0.2451
C32 C 1.0050(5) 0.8826(4) 0.1880(4)
H45 H 1.0188 0.9578 0.1653
C33 C 0.9753(5) 0.8373(4) 0.1224(4)
C34 C 0.8612(6) 0.8700(5) 0.0712(4)
H46 H 0.8832 0.9347 0.0215
H47 H 0.7880 0.8809 0.1089
C35 C 0.8230(6) 0.7898(5) 0.0380(4)
H48 H 0.8945 0.7811 -0.0020
H49 H 0.7480 0.8116 0.0054
C36 C 0.7894(6) 0.6879(5) 0.1156(4)
H50 H 0.7160 0.6967 0.1542
H51 H 0.7634 0.6367 0.0935
C37 C 0.9022(5) 0.6498(4) 0.1680(4)
H52 H 0.8747 0.5881 0.2198
H53 H 0.9718 0.6319 0.1321
C38 C 0.9511(5) 0.7295(4) 0.1964(4)
C39 C 0.8976(5) 0.8376(4) 0.2598(4)
C40 C 0.8349(5) 0.8859(5) 0.3197(4)
C41 C 0.7339(6) 0.9591(5) 0.2689(5)
H54 H 0.6650 0.9196 0.2600
H55 H 0.7755 1.0054 0.2124
H56 H 0.6982 0.9982 0.3026
C42 C 0.7691(6) 0.8060(5) 0.4032(4)
H57 H 0.8338 0.7645 0.4369
H58 H 0.7110 0.7630 0.3888
H59 H 0.7203 0.8393 0.4376
C43 C 0.9356(6) 0.9480(5) 0.3418(4)
H60 H 0.9753 1.0010 0.2881
H61 H 1.0015 0.9033 0.3709
H62 H 0.8938 0.9791 0.3804
C44 C 1.0777(5) 0.6534(4) 0.3258(4)
H63 H 1.0220 0.6861 0.3585
H64 H 1.1656 0.6552 0.3411
C45 C 1.0320(5) 0.5440(4) 0.3544(4)
C46 C 0.9171(6) 0.5091(4) 0.4065(4)
H65 H 0.8647 0.5544 0.4233
C47 C 0.8780(6) 0.4075(5) 0.4346(4)
H66 H 0.7991 0.3839 0.4705
C48 C 0.9534(5) 0.3415(4) 0.4105(4)
C49 C 1.0689(6) 0.3737(5) 0.3587(4)
H67 H 1.1211 0.3275 0.3429
C50 C 1.1079(5) 0.4772(4) 0.3296(4)
H68 H 1.1862 0.5011 0.2930
loop_
_geom_bond_atom_site_label_1
_geom_bond_atom_site_label_2
_geom_bond_site_symmetry_1
_geom_bond_site_symmetry_2
Br1 C23 1_555 1_555
N1 C13 1_555 1_555
N2 C6 1_555 1_555
N3 C5 1_555 1_555
C1 H1 1_555 1_555
H2 C1 1_555 1_555
H3 C1 1_555 1_555
C2 C1 1_555 1_555
C3 C2 1_555 1_555
H4 C3 1_555 1_555
H5 C3 1_555 1_555
H6 C3 1_555 1_555
C4 C2 1_555 1_555
H7 C4 1_555 1_555
H8 C4 1_555 1_555
H9 C4 1_555 1_555
C5 C2 1_555 1_555
C6 C5 1_555 1_555
H10 C6 1_555 1_555
C7 C6 1_555 1_555
H11 C7 1_555 1_555
C8 N3 1_555 1_555
C9 C8 1_555 1_555
H12 C9 1_555 1_555
H13 C9 1_555 1_555
C10 C9 1_555 1_555
H14 C10 1_555 1_555
H15 C10 1_555 1_555
C11 C10 1_555 1_555
H16 C11 1_555 1_555
H17 C11 1_555 1_555
C12 C11 1_555 1_555
H18 C12 1_555 1_555
H19 C12 1_555 1_555
C13 N2 1_555 1_555
C14 N1 1_555 1_555
C15 C14 1_555 1_555
C16 C15 1_555 1_555
H20 C16 1_555 1_555
H21 C16 1_555 1_555
H22 C16 1_555 1_555
C17 C15 1_555 1_555
H23 C17 1_555 1_555
H24 C17 1_555 1_555
H25 C17 1_555 1_555
C18 C15 1_555 1_555
H26 C18 1_555 1_555
H27 C18 1_555 1_555
H28 C18 1_555 1_555
C19 N2 1_555 1_555
H29 C19 1_555 1_555
H30 C19 1_555 1_555
C20 C19 1_555 1_555
C21 C20 1_555 1_555
H31 C21 1_555 1_555
C22 C21 1_555 1_555
H32 C22 1_555 1_555
C23 C22 1_555 1_555
C24 C23 1_555 1_555
H33 C24 1_555 1_555
C25 C20 1_555 1_555
H34 C25 1_555 1_555
Br2 C48 1_555 1_555
N4 C30 1_555 1_555
N5 C31 1_555 1_555
N6 C38 1_555 1_555
C26 H35 1_555 1_555
H36 C26 1_555 1_555
H37 C26 1_555 1_555
C27 C26 1_555 1_555
C28 C27 1_555 1_555
H38 C28 1_555 1_555
H39 C28 1_555 1_555
H40 C28 1_555 1_555
C29 C27 1_555 1_555
H41 C29 1_555 1_555
H42 C29 1_555 1_555
H43 C29 1_555 1_555
C30 C27 1_555 1_555
C31 C30 1_555 1_555
H44 C31 1_555 1_555
C32 C31 1_555 1_555
H45 C32 1_555 1_555
C33 N4 1_555 1_555
C34 C33 1_555 1_555
H46 C34 1_555 1_555
H47 C34 1_555 1_555
C35 C34 1_555 1_555
H48 C35 1_555 1_555
H49 C35 1_555 1_555
C36 C35 1_555 1_555
H50 C36 1_555 1_555
H51 C36 1_555 1_555
C37 C36 1_555 1_555
H52 C37 1_555 1_555
H53 C37 1_555 1_555
C38 N5 1_555 1_555
C39 N6 1_555 1_555
C40 C39 1_555 1_555
C41 C40 1_555 1_555
H54 C41 1_555 1_555
H55 C41 1_555 1_555
H56 C41 1_555 1_555
C42 C40 1_555 1_555
H57 C42 1_555 1_555
H58 C42 1_555 1_555
H59 C42 1_555 1_555
C43 C40 1_555 1_555
H60 C43 1_555 1_555
H61 C43 1_555 1_555
H62 C43 1_555 1_555
C44 N5 1_555 1_555
H63 C44 1_555 1_555
H64 C44 1_555 1_555
C45 C44 1_555 1_555
C46 C45 1_555 1_555
H65 C46 1_555 1_555
C47 C46 1_555 1_555
H66 C47 1_555 1_555
C48 C47 1_555 1_555
C49 C48 1_555 1_555
H67 C49 1_555 1_555
C50 C45 1_555 1_555
H68 C50 1_555 1_555
C7 C8 1_555 1_555
C7 C14 1_555 1_555
C8 C13 1_555 1_555
C12 C13 1_555 1_555
C24 C25 1_555 1_555
C32 C33 1_555 1_555
C32 C39 1_555 1_555
C33 C38 1_555 1_555
C37 C38 1_555 1_555
C49 C50 1_555 1_555

#END
