
#######################################################################
#
#                 Cambridge Crystallographic Data Centre
#                                CCDC 
#
#######################################################################
#
# If this CIF has been generated from an entry in the Cambridge 
# Structural Database, then it will include bibliographic, chemical, 
# crystal, experimental, refinement or atomic coordinate data resulting 
# from the CCDC's data processing and validation procedures.
#
#######################################################################

data_RENVEN
_chemical_formula_moiety         'C23 H35 N3 O2'
_chemical_name_systematic        
'Ethyl N-(3,7-di-t-butyl-2,8-diazatetracyclo[7.4.0.0^1,6^.0^4,9^]trideca-2,7-dien-5-ylidene)glycinate'
_symmetry_cell_setting           triclinic
_symmetry_space_group_name_H-M   'P -1'
_symmetry_Int_Tables_number      2
_space_group_name_Hall           '-P 1'
loop_
_symmetry_equiv_pos_site_id
_symmetry_equiv_pos_as_xyz
1 x,y,z
2 -x,-y,-z
_cell_length_a                   6.3877(13)
_cell_length_b                   10.108(2)
_cell_length_c                   17.603(4)
_cell_angle_alpha                85.44(3)
_cell_angle_beta                 79.69(3)
_cell_angle_gamma                77.20(3)
_cell_volume                     1089.49
_exptl_crystal_colour            colorless
_exptl_crystal_description       rod
_cell_formula_units_Z            2
loop_
_atom_site_label
_atom_site_type_symbol
_atom_site_fract_x
_atom_site_fract_y
_atom_site_fract_z
O1 O 0.5721(2) 0.89374(15) 0.08260(9)
O2 O 0.5909(2) 1.10190(14) 0.11237(8)
N1 N 0.1267(3) 0.62363(16) 0.30062(10)
N2 N -0.3471(3) 0.90478(17) 0.31874(10)
N3 N 0.1597(3) 0.92480(17) 0.16974(10)
C1 C 0.2172(3) 0.5385(2) 0.16846(12)
C2 C 0.0564(4) 0.5017(3) 0.12343(16)
H1 H -0.0168 0.5837 0.0973
H2 H -0.0522 0.4624 0.1591
H3 H 0.1348 0.4355 0.0849
C3 C 0.3401(4) 0.4109(2) 0.20650(15)
H4 H 0.4210 0.3480 0.1666
H5 H 0.2362 0.3671 0.2417
H6 H 0.4420 0.4357 0.2356
C4 C 0.3784(4) 0.6075(2) 0.11346(14)
H7 H 0.2996 0.6915 0.0910
H8 H 0.4548 0.5464 0.0721
H9 H 0.4843 0.6287 0.1420
C5 C 0.0937(3) 0.63548(19) 0.23019(12)
C6 C -0.0765(3) 0.7647(2) 0.21717(12)
H10 H -0.1456 0.7726 0.1699
C7 C 0.0538(3) 0.87092(19) 0.22678(11)
C8 C 0.0247(3) 0.87968(19) 0.31516(11)
H11 H 0.1427 0.9064 0.3370
C9 C -0.0299(3) 0.7376(2) 0.34114(12)
C10 C -0.0849(3) 0.7038(2) 0.42670(12)
H12 H -0.1687 0.7863 0.4536
H13 H 0.0509 0.6715 0.4485
C11 C -0.2192(4) 0.5937(2) 0.43920(13)
H14 H -0.1291 0.5085 0.4169
H15 H -0.2622 0.5758 0.4953
C12 C -0.4229(4) 0.6360(2) 0.40169(14)
H16 H -0.5154 0.7193 0.4255
H17 H -0.5073 0.5634 0.4118
C13 C -0.3683(3) 0.6628(2) 0.31438(13)
H18 H -0.2918 0.5771 0.2894
H19 H -0.5044 0.6970 0.2930
C14 C -0.2260(3) 0.7660(2) 0.29718(12)
C15 C -0.2056(3) 0.9682(2) 0.33221(11)
C16 C -0.2631(3) 1.1122(2) 0.35942(12)
C17 C -0.1831(4) 1.1123(3) 0.43640(14)
H20 H -0.0257 1.0759 0.4295
H21 H -0.2575 1.0557 0.4751
H22 H -0.2149 1.2055 0.4538
C18 C -0.5089(4) 1.1648(2) 0.37093(15)
H23 H -0.5445 1.2575 0.3893
H24 H -0.5799 1.1059 0.4092
H25 H -0.5605 1.1650 0.3217
C19 C -0.1517(4) 1.2042(2) 0.30053(15)
H26 H 0.0066 1.1728 0.2953
H27 H -0.1930 1.2975 0.3180
H28 H -0.1969 1.2016 0.2504
C20 C 0.3008(3) 1.0138(2) 0.18116(12)
H29 H 0.3449 0.9935 0.2327
H30 H 0.2213 1.1096 0.1790
C21 C 0.5001(3) 0.9934(2) 0.11939(12)
C22 C 0.7877(3) 1.0921(2) 0.05523(12)
H31 H 0.7541 1.0882 0.0028
H32 H 0.8955 1.0088 0.0657
C23 C 0.8773(4) 1.2158(2) 0.06056(13)
H33 H 1.0113 1.2118 0.0229
H34 H 0.9092 1.2188 0.1127
H35 H 0.7699 1.2974 0.0495
loop_
_geom_bond_atom_site_label_1
_geom_bond_atom_site_label_2
_geom_bond_site_symmetry_1
_geom_bond_site_symmetry_2
O1 C21 1_555 1_555
O2 C21 1_555 1_555
N1 C5 1_555 1_555
N2 C14 1_555 1_555
N3 C7 1_555 1_555
C1 C2 1_555 1_555
C2 H1 1_555 1_555
H2 C2 1_555 1_555
H3 C2 1_555 1_555
C3 C1 1_555 1_555
H4 C3 1_555 1_555
H5 C3 1_555 1_555
H6 C3 1_555 1_555
C4 C1 1_555 1_555
H7 C4 1_555 1_555
H8 C4 1_555 1_555
H9 C4 1_555 1_555
C5 C1 1_555 1_555
C6 C5 1_555 1_555
H10 C6 1_555 1_555
C7 C6 1_555 1_555
C8 C7 1_555 1_555
H11 C8 1_555 1_555
C9 N1 1_555 1_555
C10 C9 1_555 1_555
H12 C10 1_555 1_555
H13 C10 1_555 1_555
C11 C10 1_555 1_555
H14 C11 1_555 1_555
H15 C11 1_555 1_555
C12 C11 1_555 1_555
H16 C12 1_555 1_555
H17 C12 1_555 1_555
C13 C12 1_555 1_555
H18 C13 1_555 1_555
H19 C13 1_555 1_555
C14 C6 1_555 1_555
C15 N2 1_555 1_555
C16 C15 1_555 1_555
C17 C16 1_555 1_555
H20 C17 1_555 1_555
H21 C17 1_555 1_555
H22 C17 1_555 1_555
C18 C16 1_555 1_555
H23 C18 1_555 1_555
H24 C18 1_555 1_555
H25 C18 1_555 1_555
C19 C16 1_555 1_555
H26 C19 1_555 1_555
H27 C19 1_555 1_555
H28 C19 1_555 1_555
C20 N3 1_555 1_555
H29 C20 1_555 1_555
H30 C20 1_555 1_555
C21 C20 1_555 1_555
C22 O2 1_555 1_555
H31 C22 1_555 1_555
H32 C22 1_555 1_555
C23 C22 1_555 1_555
H33 C23 1_555 1_555
H34 C23 1_555 1_555
H35 C23 1_555 1_555
C8 C9 1_555 1_555
C8 C15 1_555 1_555
C9 C14 1_555 1_555
C13 C14 1_555 1_555

#END
