
#######################################################################
#
#                 Cambridge Crystallographic Data Centre
#                                CCDC 
#
#######################################################################
#
# If this CIF has been generated from an entry in the Cambridge 
# Structural Database, then it will include bibliographic, chemical, 
# crystal, experimental, refinement or atomic coordinate data resulting 
# from the CCDC's data processing and validation procedures.
#
#######################################################################

data_REQVUG
_chemical_formula_moiety         'C40 H19 F12 N1 O2'
_chemical_name_systematic        
5,6-bis(3,5-bis(trifluoromethyl)phenyl)-4,7-diphenylazepino[3,2,1-hi]indole-1,2-dione
_symmetry_cell_setting           triclinic
_symmetry_space_group_name_H-M   'P -1'
_symmetry_Int_Tables_number      2
_space_group_name_Hall           '-P 1'
loop_
_symmetry_equiv_pos_site_id
_symmetry_equiv_pos_as_xyz
1 x,y,z
2 -x,-y,-z
_cell_length_a                   8.6455(19)
_cell_length_b                   18.488(4)
_cell_length_c                   22.049(5)
_cell_angle_alpha                99.181(3)
_cell_angle_beta                 99.391(3)
_cell_angle_gamma                101.856(3)
_cell_volume                     3334.13
_exptl_crystal_colour            red
_exptl_crystal_description       Block
_cell_formula_units_Z            4
loop_
_atom_site_label
_atom_site_type_symbol
_atom_site_fract_x
_atom_site_fract_y
_atom_site_fract_z
C1 C 0.3107(6) 0.9263(4) 0.3903(2)
F1 F 0.1572(6) 0.9318(3) 0.3820(3)
F2 F 0.3568(7) 0.9373(3) 0.3367(2)
F3 F 0.3944(7) 0.9871(3) 0.4331(2)
F4 F 0.6886(5) 0.7159(2) 0.37820(16)
F5 F 0.7955(4) 0.8207(2) 0.44318(17)
F6 F 0.7089(4) 0.7201(2) 0.47708(16)
F7 F -0.0098(8) 0.9394(3) 0.5542(2)
F8 F 0.2053(6) 1.0075(2) 0.6148(2)
F9 F 0.0278(6) 0.9410(2) 0.6517(2)
F10 F 0.6742(5) 0.8148(4) 0.6023(2)
F11 F 0.6571(6) 0.9002(2) 0.6751(2)
F12 F 0.5983(6) 0.7868(3) 0.6826(3)
O1 O -0.1742(5) 0.4879(2) 0.57007(17)
O2 O -0.4710(5) 0.4112(2) 0.48262(18)
N1 N -0.1302(6) 0.5568(2) 0.49124(19)
C2 C -0.2136(7) 0.5021(3) 0.5190(2)
C3 C -0.3708(7) 0.4620(3) 0.4724(2)
C4 C -0.3649(8) 0.4961(3) 0.4181(2)
C5 C -0.4733(7) 0.4750(3) 0.3606(3)
H1 H -0.5727 0.4388 0.3547
C6 C -0.4294(8) 0.5094(3) 0.3121(3)
H2 H -0.5021 0.4991 0.2729
C7 C -0.2800(7) 0.5582(3) 0.3212(3)
H3 H -0.2512 0.5789 0.2867
C8 C -0.1671(7) 0.5794(3) 0.3790(2)
C9 C -0.2187(7) 0.5481(3) 0.4285(2)
C10 C -0.0187(7) 0.6235(3) 0.5269(2)
C11 C 0.0719(7) 0.6764(3) 0.5024(2)
C12 C 0.0866(7) 0.6749(3) 0.4364(2)
C13 C -0.0081(7) 0.6322(3) 0.3838(2)
C14 C 0.0414(7) 0.6374(3) 0.3215(2)
C15 C 0.1404(8) 0.5924(3) 0.3013(2)
H4 H 0.1723 0.5583 0.3260
C16 C 0.1941(8) 0.5965(4) 0.2454(3)
H5 H 0.2633 0.5661 0.2321
C17 C 0.1444(8) 0.6459(3) 0.2095(3)
H6 H 0.1793 0.6493 0.1712
C18 C 0.0433(9) 0.6906(3) 0.2296(3)
H7 H 0.0092 0.7242 0.2048
C19 C -0.0069(8) 0.6859(3) 0.2850(3)
H8 H -0.0757 0.7164 0.2985
C20 C -0.0133(7) 0.6370(3) 0.5958(2)
C21 C -0.1416(7) 0.6600(3) 0.6190(3)
H9 H -0.2302 0.6674 0.5909
C22 C -0.1379(8) 0.6719(3) 0.6827(3)
H10 H -0.2234 0.6880 0.6987
C23 C -0.0076(8) 0.6600(3) 0.7236(2)
H11 H -0.0048 0.6680 0.7675
C24 C 0.1134(8) 0.6374(3) 0.7008(3)
H12 H 0.2004 0.6287 0.7287
C25 C 0.1132(7) 0.6266(3) 0.6376(2)
H13 H 0.2013 0.6118 0.6226
C26 C 0.2322(7) 0.7323(3) 0.4288(2)
C27 C 0.2090(7) 0.8013(3) 0.4166(3)
H14 H 0.1044 0.8109 0.4129
C28 C 0.3370(8) 0.8559(3) 0.4097(3)
C29 C 0.4902(7) 0.8435(3) 0.4153(3)
H15 H 0.5782 0.8809 0.4104
C30 C 0.5122(7) 0.7751(3) 0.4280(2)
C31 C 0.3844(7) 0.7191(3) 0.4333(2)
H16 H 0.4016 0.6716 0.4400
C32 C 0.6761(7) 0.7578(3) 0.4314(3)
C33 C 0.1642(7) 0.7479(3) 0.5472(2)
C34 C 0.0957(7) 0.8087(3) 0.5579(2)
H17 H -0.0144 0.8034 0.5395
C35 C 0.1827(7) 0.8765(3) 0.5943(2)
C36 C 0.3432(8) 0.8860(3) 0.6229(2)
H18 H 0.4034 0.9329 0.6483
C37 C 0.4128(7) 0.8252(3) 0.6131(3)
C38 C 0.3268(7) 0.7571(3) 0.5757(2)
H19 H 0.3776 0.7164 0.5691
C39 C 0.1034(9) 0.9415(3) 0.6039(3)
C40 C 0.5851(8) 0.8322(4) 0.6427(3)
F16 F 0.3323(5) 0.5464(3) 0.0751(3)
F17 F 0.5207(7) 0.5645(2) 0.1547(2)
F18 F 0.5418(5) 0.50332(19) 0.06806(19)
F19 F 1.0813(5) 0.7676(3) 0.10821(18)
F20 F 1.0314(5) 0.6664(2) 0.0402(2)
F21 F 1.0144(4) 0.7711(2) 0.01208(16)
F22 F 0.1158(6) 0.5319(2) -0.0745(2)
F23 F 0.1453(5) 0.5035(2) -0.1675(2)
F24 F -0.0091(5) 0.5761(2) -0.1456(2)
F25 F 0.8115(5) 0.7041(3) -0.1158(2)
F26 F 0.6730(6) 0.6163(3) -0.1880(3)
F27 F 0.6915(8) 0.7324(4) -0.1940(3)
O3 O 0.2862(5) 1.0178(2) -0.06870(16)
O4 O 0.1235(5) 1.0908(2) 0.02039(18)
N2 N 0.3209(5) 0.9427(2) 0.00610(19)
C42 C 0.2688(7) 1.0003(3) -0.0196(2)
C43 C 0.1835(7) 1.0380(3) 0.0280(2)
C44 C 0.1984(7) 1.0001(3) 0.0806(2)
C45 C 0.1523(8) 1.0172(3) 0.1380(3)
H20 H 0.0900 1.0533 0.1452
C46 C 0.2014(8) 0.9793(3) 0.1839(3)
H21 H 0.1683 0.9868 0.2230
C47 C 0.3005(8) 0.9297(3) 0.1724(3)
H22 H 0.3376 0.9066 0.2057
C48 C 0.3487(7) 0.9115(3) 0.1156(2)
C49 C 0.2886(7) 0.9468(3) 0.0683(2)
C50 C 0.3417(6) 0.8767(3) -0.0317(2)
C51 C 0.4031(7) 0.8223(3) -0.0098(2)
C52 C 0.4727(7) 0.8191(3) 0.0556(2)
C53 C 0.4536(7) 0.8590(3) 0.1093(2)
C54 C 0.5505(7) 0.8505(3) 0.1698(2)
C55 C 0.4899(8) 0.7982(3) 0.2033(2)
H23 H 0.3836 0.7673 0.1889
C56 C 0.5840(8) 0.7906(3) 0.2582(3)
H24 H 0.5426 0.7536 0.2806
C57 C 0.7358(8) 0.8358(3) 0.2805(3)
H25 H 0.7992 0.8308 0.3184
C58 C 0.7964(8) 0.8888(3) 0.2474(3)
H26 H 0.9017 0.9205 0.2627
C59 C 0.7041(8) 0.8963(3) 0.1918(3)
H27 H 0.7465 0.9326 0.1692
C60 C 0.2831(7) 0.8695(3) -0.1007(2)
C61 C 0.3905(8) 0.8814(3) -0.1406(3)
H28 H 0.5033 0.8953 -0.1239
C62 C 0.3360(9) 0.8735(3) -0.2037(3)
H29 H 0.4109 0.8827 -0.2303
C63 C 0.1715(9) 0.8521(3) -0.2290(3)
H30 H 0.1332 0.8465 -0.2728
C64 C 0.0650(8) 0.8391(3) -0.1897(3)
H31 H -0.0477 0.8241 -0.2066
C65 C 0.1197(7) 0.8477(3) -0.1267(2)
H32 H 0.0444 0.8385 -0.1002
C66 C 0.5681(7) 0.7597(3) 0.0611(2)
C67 C 0.4906(7) 0.6904(3) 0.0717(2)
H33 H 0.3805 0.6814 0.0752
C68 C 0.5739(8) 0.6348(3) 0.0772(3)
C69 C 0.7339(8) 0.6458(3) 0.0712(3)
H34 H 0.7897 0.6069 0.0745
C70 C 0.8114(7) 0.7154(3) 0.0603(2)
C71 C 0.7272(7) 0.7717(3) 0.0562(2)
H35 H 0.7809 0.8193 0.0498
C72 C 0.4915(8) 0.5622(3) 0.0925(3)
C73 C 0.9805(8) 0.7288(4) 0.0542(3)
C74 C 0.3993(7) 0.7538(3) -0.0580(2)
C75 C 0.2682(7) 0.6923(3) -0.0714(2)
H36 H 0.1786 0.6943 -0.0518
C76 C 0.2679(7) 0.6274(3) -0.1136(2)
C77 C 0.3988(8) 0.6228(3) -0.1415(2)
H37 H 0.3992 0.5781 -0.1695
C78 C 0.5300(8) 0.6849(3) -0.1277(2)
C79 C 0.5317(7) 0.7488(3) -0.0856(2)
H38 H 0.6239 0.7899 -0.0754
C80 C 0.1288(9) 0.5605(3) -0.1259(3)
C81 C 0.6723(10) 0.6822(4) -0.1576(3)
C41? C 0.310(2) 0.9314(5) 0.4045(7)
F13? F 0.216(2) 0.9566(10) 0.4409(8)
F14? F 0.4451(18) 0.9864(11) 0.4164(10)
F15? F 0.238(3) 0.9300(9) 0.3457(7)
loop_
_geom_bond_atom_site_label_1
_geom_bond_atom_site_label_2
_geom_bond_site_symmetry_1
_geom_bond_site_symmetry_2
C1 F1 1_555 1_555
F2 C1 1_555 1_555
F3 C1 1_555 1_555
F4 C32 1_555 1_555
F5 C32 1_555 1_555
F6 C32 1_555 1_555
F7 C39 1_555 1_555
F8 C39 1_555 1_555
F9 C39 1_555 1_555
F10 C40 1_555 1_555
F11 C40 1_555 1_555
F12 C40 1_555 1_555
O1 C2 1_555 1_555
O2 C3 1_555 1_555
N1 C2 1_555 1_555
C2 C3 1_555 1_555
C3 C4 1_555 1_555
C4 C5 1_555 1_555
C5 H1 1_555 1_555
C6 C5 1_555 1_555
H2 C6 1_555 1_555
C7 C6 1_555 1_555
H3 C7 1_555 1_555
C8 C7 1_555 1_555
C9 N1 1_555 1_555
C10 N1 1_555 1_555
C11 C10 1_555 1_555
C12 C11 1_555 1_555
C13 C8 1_555 1_555
C14 C13 1_555 1_555
C15 C14 1_555 1_555
H4 C15 1_555 1_555
C16 C15 1_555 1_555
H5 C16 1_555 1_555
C17 C16 1_555 1_555
H6 C17 1_555 1_555
C18 C17 1_555 1_555
H7 C18 1_555 1_555
C19 C14 1_555 1_555
H8 C19 1_555 1_555
C20 C10 1_555 1_555
C21 C20 1_555 1_555
H9 C21 1_555 1_555
C22 C21 1_555 1_555
H10 C22 1_555 1_555
C23 C22 1_555 1_555
H11 C23 1_555 1_555
C24 C23 1_555 1_555
H12 C24 1_555 1_555
C25 C20 1_555 1_555
H13 C25 1_555 1_555
C26 C12 1_555 1_555
C27 C26 1_555 1_555
H14 C27 1_555 1_555
C28 C1 1_555 1_555
C29 C28 1_555 1_555
H15 C29 1_555 1_555
C30 C29 1_555 1_555
C31 C26 1_555 1_555
H16 C31 1_555 1_555
C32 C30 1_555 1_555
C33 C11 1_555 1_555
C34 C33 1_555 1_555
H17 C34 1_555 1_555
C35 C34 1_555 1_555
C36 C35 1_555 1_555
H18 C36 1_555 1_555
C37 C36 1_555 1_555
C38 C33 1_555 1_555
H19 C38 1_555 1_555
C39 C35 1_555 1_555
C40 C37 1_555 1_555
F16 C72 1_555 1_555
F17 C72 1_555 1_555
F18 C72 1_555 1_555
F19 C73 1_555 1_555
F20 C73 1_555 1_555
F21 C73 1_555 1_555
F22 C80 1_555 1_555
F23 C80 1_555 1_555
F24 C80 1_555 1_555
F25 C81 1_555 1_555
F26 C81 1_555 1_555
F27 C81 1_555 1_555
O3 C42 1_555 1_555
O4 C43 1_555 1_555
N2 C42 1_555 1_555
C42 C43 1_555 1_555
C43 C44 1_555 1_555
C44 C45 1_555 1_555
C45 H20 1_555 1_555
C46 C45 1_555 1_555
H21 C46 1_555 1_555
C47 C46 1_555 1_555
H22 C47 1_555 1_555
C48 C47 1_555 1_555
C49 N2 1_555 1_555
C50 N2 1_555 1_555
C51 C50 1_555 1_555
C52 C51 1_555 1_555
C53 C48 1_555 1_555
C54 C53 1_555 1_555
C55 C54 1_555 1_555
H23 C55 1_555 1_555
C56 C55 1_555 1_555
H24 C56 1_555 1_555
C57 C56 1_555 1_555
H25 C57 1_555 1_555
C58 C57 1_555 1_555
H26 C58 1_555 1_555
C59 C54 1_555 1_555
H27 C59 1_555 1_555
C60 C50 1_555 1_555
C61 C60 1_555 1_555
H28 C61 1_555 1_555
C62 C61 1_555 1_555
H29 C62 1_555 1_555
C63 C62 1_555 1_555
H30 C63 1_555 1_555
C64 C63 1_555 1_555
H31 C64 1_555 1_555
C65 C60 1_555 1_555
H32 C65 1_555 1_555
C66 C52 1_555 1_555
C67 C66 1_555 1_555
H33 C67 1_555 1_555
C68 C67 1_555 1_555
C69 C68 1_555 1_555
H34 C69 1_555 1_555
C70 C69 1_555 1_555
C71 C66 1_555 1_555
H35 C71 1_555 1_555
C72 C68 1_555 1_555
C73 C70 1_555 1_555
C74 C51 1_555 1_555
C75 C74 1_555 1_555
H36 C75 1_555 1_555
C76 C75 1_555 1_555
C77 C76 1_555 1_555
H37 C77 1_555 1_555
C78 C77 1_555 1_555
C79 C74 1_555 1_555
H38 C79 1_555 1_555
C80 C76 1_555 1_555
C81 C78 1_555 1_555
C4 C9 1_555 1_555
C8 C9 1_555 1_555
C12 C13 1_555 1_555
C18 C19 1_555 1_555
C24 C25 1_555 1_555
C27 C28 1_555 1_555
C30 C31 1_555 1_555
C37 C38 1_555 1_555
C44 C49 1_555 1_555
C48 C49 1_555 1_555
C52 C53 1_555 1_555
C58 C59 1_555 1_555
C64 C65 1_555 1_555
C70 C71 1_555 1_555
C78 C79 1_555 1_555

#END
