
#######################################################################
#
#                 Cambridge Crystallographic Data Centre
#                                CCDC 
#
#######################################################################
#
# If this CIF has been generated from an entry in the Cambridge 
# Structural Database, then it will include bibliographic, chemical, 
# crystal, experimental, refinement or atomic coordinate data resulting 
# from the CCDC's data processing and validation procedures.
#
#######################################################################

data_RERKII
_chemical_formula_moiety         'C15 H22 O4'
_chemical_name_systematic        
'(2S,3S)-(+)-Methyl 3,6-hexano-2,3-dihydro-2-methoxy-oxepine-5-carboxylic acid'
_symmetry_cell_setting           monoclinic
_symmetry_space_group_name_H-M   'P 21'
_symmetry_Int_Tables_number      4
_space_group_name_Hall           'P 2yb'
loop_
_symmetry_equiv_pos_site_id
_symmetry_equiv_pos_as_xyz
1 x,y,z
2 -x,1/2+y,-z
_cell_length_a                   12.727(1)
_cell_length_b                   7.889(1)
_cell_length_c                   15.422(2)
_cell_angle_alpha                90
_cell_angle_beta                 114.00(1)
_cell_angle_gamma                90
_cell_volume                     1414.55
_exptl_crystal_colour            colorless
_chemical_melting_point          86deg.C
_cell_formula_units_Z            4
loop_
_atom_site_label
_atom_site_type_symbol
_atom_site_fract_x
_atom_site_fract_y
_atom_site_fract_z
O1 O 0.94316(19) 0.44960 0.84636(14)
C1 C 0.95116(24) 0.63268(46) 0.84310(21)
H1 H 1.01109(24) 0.66189(46) 0.82309(21)
O2 O 0.96942(18) 0.69345(42) 0.93207(15)
C2 C 0.83767(25) 0.71412(47) 0.77178(22)
H2 H 0.80579(25) 0.76156(47) 0.81312(22)
C3 C 0.74831(23) 0.59325(45) 0.70979(21)
H3 H 0.67047(23) 0.62137(45) 0.69865(21)
C4 C 0.76188(22) 0.45390(46) 0.66786(20)
C5 C 0.87559(24) 0.37994(46) 0.68335(21)
C6 C 0.95786(27) 0.37943(50) 0.77052(23)
H4 H 1.03072(27) 0.32907(50) 0.78107(23)
C7 C 0.89734(29) 0.32103(55) 0.59887(25)
H5 H 0.84973(29) 0.22367(55) 0.57258(25)
H6 H 0.97678(29) 0.28943(55) 0.62040(25)
C8 C 0.87103(27) 0.45221(59) 0.52105(23)
H7 H 0.86890(27) 0.39513(59) 0.46539(23)
H8 H 0.79641(27) 0.49806(59) 0.50869(23)
C9 C 0.95420(35) 0.60091(65) 0.53933(27)
H9 H 0.92500(35) 0.67476(65) 0.48522(27)
H10 H 1.02742(35) 0.55648(65) 0.54625(27)
C10 C 0.97528(32) 0.71198(58) 0.62720(27)
H11 H 0.99773(32) 0.63787(58) 0.68111(27)
H12 H 1.03577(32) 0.79193(58) 0.63643(27)
C11 C 0.86575(30) 0.80725(56) 0.61809(27)
H13 H 0.80021(30) 0.73714(56) 0.58396(27)
H14 H 0.86159(30) 0.90873(56) 0.58248(27)
C12 C 0.86003(29) 0.85937(50) 0.71300(27)
H15 H 0.79863(29) 0.93981(50) 0.69863(27)
H16 H 0.93172(29) 0.91253(50) 0.75170(27)
C13 C 1.08031(29) 0.64527(64) 1.00466(25)
H17 H 1.08719(29) 0.68941(64) 1.06475(25)
H18 H 1.14051(29) 0.69106(64) 0.98928(25)
H19 H 1.08657(29) 0.52397(64) 1.00824(25)
C14 C 0.65935(26) 0.35227(49) 0.60481(23)
O3 O 0.66320(23) 0.20766(43) 0.58247(24)
O4 O 0.56086(16) 0.43788(40) 0.57780(16)
C15 C 0.45595(28) 0.34630(55) 0.52155(29)
H20 H 0.39081(28) 0.42026(55) 0.50536(29)
H21 H 0.44795(28) 0.25274(55) 0.55821(29)
H22 H 0.46003(28) 0.30449(55) 0.46454(29)
O5 O 0.58503(19) -0.12416(45) 0.85341(17)
C16 C 0.53213(25) -0.05186(52) 0.76040(23)
H23 H 0.58120(25) -0.08557(52) 0.72988(23)
O6 O 0.52439(19) 0.12135(41) 0.76381(19)
C17 C 0.41430(25) -0.11901(47) 0.69916(21)
H24 H 0.38917(25) -0.08233(47) 0.63447(21)
C18 C 0.32886(22) -0.04776(45) 0.73501(20)
H25 H 0.27074(22) 0.02852(45) 0.69470(20)
C19 C 0.33172(22) -0.08305(44) 0.82058(20)
C20 C 0.41763(25) -0.19741(48) 0.88852(20)
C21 C 0.52477(26) -0.20489(51) 0.89759(22)
H26 H 0.57053(26) -0.28488(51) 0.94474(22)
C22 C 0.37764(29) -0.33035(54) 0.93994(24)
H27 H 0.44324(29) -0.38821(54) 0.98547(24)
H28 H 0.33636(29) -0.27531(54) 0.97206(24)
C23 C 0.29984(32) -0.46479(56) 0.86990(28)
H29 H 0.23877(32) -0.40420(56) 0.82121(28)
H30 H 0.26807(32) -0.53958(56) 0.90211(28)
C24 C 0.36272(33) -0.57266(54) 0.82315(28)
H31 H 0.36858(33) -0.68642(54) 0.84678(28)
H32 H 0.43836(33) -0.52567(54) 0.84185(28)
C25 C 0.30635(32) -0.57714(54) 0.71400(28)
H33 H 0.23014(32) -0.62232(54) 0.69465(28)
H34 H 0.35123(32) -0.65127(54) 0.69312(28)
C26 C 0.29815(27) -0.40522(51) 0.66643(25)
H35 H 0.26162(27) -0.42121(51) 0.59895(25)
H36 H 0.25157(27) -0.33234(51) 0.68618(25)
C27 C 0.41415(28) -0.31540(51) 0.68914(25)
H37 H 0.46798(28) -0.35952(51) 0.74867(25)
H38 H 0.43941(28) -0.34318(51) 0.64009(25)
C28 C 0.63326(33) 0.20639(64) 0.80918(28)
H39 H 0.62085(33) 0.32635(64) 0.80969(28)
H40 H 0.67915(33) 0.18306(64) 0.77423(28)
H41 H 0.67249(33) 0.16648(64) 0.87317(28)
C29 C 0.24042(26) 0.00115(49) 0.84407(24)
O7 O 0.15411(21) 0.05912(48) 0.78769(19)
O8 O 0.27070(20) 0.01089(43) 0.93768(17)
C30 C 0.18670(32) 0.08512(59) 0.96727(30)
H42 H 0.21710(32) 0.08617(59) 1.03535(30)
H43 H 0.11683(32) 0.02033(59) 0.94267(30)
H44 H 0.17105(32) 0.19919(59) 0.94383(30)
loop_
_geom_bond_atom_site_label_1
_geom_bond_atom_site_label_2
_geom_bond_site_symmetry_1
_geom_bond_site_symmetry_2
O1 C1 1_555 1_555
C1 H1 1_555 1_555
O2 C1 1_555 1_555
C2 C1 1_555 1_555
H2 C2 1_555 1_555
C3 C2 1_555 1_555
H3 C3 1_555 1_555
C4 C3 1_555 1_555
C5 C4 1_555 1_555
C6 O1 1_555 1_555
H4 C6 1_555 1_555
C7 C5 1_555 1_555
H5 C7 1_555 1_555
H6 C7 1_555 1_555
C8 C7 1_555 1_555
H7 C8 1_555 1_555
H8 C8 1_555 1_555
C9 C8 1_555 1_555
H9 C9 1_555 1_555
H10 C9 1_555 1_555
C10 C9 1_555 1_555
H11 C10 1_555 1_555
H12 C10 1_555 1_555
C11 C10 1_555 1_555
H13 C11 1_555 1_555
H14 C11 1_555 1_555
C12 C2 1_555 1_555
H15 C12 1_555 1_555
H16 C12 1_555 1_555
C13 O2 1_555 1_555
H17 C13 1_555 1_555
H18 C13 1_555 1_555
H19 C13 1_555 1_555
C14 C4 1_555 1_555
O3 C14 1_555 1_555
O4 C14 1_555 1_555
C15 O4 1_555 1_555
H20 C15 1_555 1_555
H21 C15 1_555 1_555
H22 C15 1_555 1_555
O5 C16 1_555 1_555
C16 H23 1_555 1_555
O6 C16 1_555 1_555
C17 C16 1_555 1_555
H24 C17 1_555 1_555
C18 C17 1_555 1_555
H25 C18 1_555 1_555
C19 C18 1_555 1_555
C20 C19 1_555 1_555
C21 O5 1_555 1_555
H26 C21 1_555 1_555
C22 C20 1_555 1_555
H27 C22 1_555 1_555
H28 C22 1_555 1_555
C23 C22 1_555 1_555
H29 C23 1_555 1_555
H30 C23 1_555 1_555
C24 C23 1_555 1_555
H31 C24 1_555 1_555
H32 C24 1_555 1_555
C25 C24 1_555 1_555
H33 C25 1_555 1_555
H34 C25 1_555 1_555
C26 C25 1_555 1_555
H35 C26 1_555 1_555
H36 C26 1_555 1_555
C27 C17 1_555 1_555
H37 C27 1_555 1_555
H38 C27 1_555 1_555
C28 O6 1_555 1_555
H39 C28 1_555 1_555
H40 C28 1_555 1_555
H41 C28 1_555 1_555
C29 C19 1_555 1_555
O7 C29 1_555 1_555
O8 C29 1_555 1_555
C30 O8 1_555 1_555
H42 C30 1_555 1_555
H43 C30 1_555 1_555
H44 C30 1_555 1_555
C5 C6 1_555 1_555
C11 C12 1_555 1_555
C20 C21 1_555 1_555
C26 C27 1_555 1_555

#END
