
#######################################################################
#
#                 Cambridge Crystallographic Data Centre
#                                CCDC 
#
#######################################################################
#
# If this CIF has been generated from an entry in the Cambridge 
# Structural Database, then it will include bibliographic, chemical, 
# crystal, experimental, refinement or atomic coordinate data resulting 
# from the CCDC's data processing and validation procedures.
#
#######################################################################

data_RERMIL
_chemical_formula_moiety         'C24 H29 F1'
_chemical_name_systematic        1-Decyl-3-fluorophenanthrene
_symmetry_cell_setting           triclinic
_symmetry_space_group_name_H-M   'P -1'
_symmetry_Int_Tables_number      2
_space_group_name_Hall           '-P 1'
loop_
_symmetry_equiv_pos_site_id
_symmetry_equiv_pos_as_xyz
1 x,y,z
2 -x,-y,-z
_cell_length_a                   8.9899(9)
_cell_length_b                   10.4965(10)
_cell_length_c                   11.5357(11)
_cell_angle_alpha                67.726(5)
_cell_angle_beta                 72.898(5)
_cell_angle_gamma                88.678(5)
_cell_volume                     957.952
_exptl_crystal_colour            colorless
_exptl_crystal_description       prism
_cell_formula_units_Z            2
loop_
_atom_site_label
_atom_site_type_symbol
_atom_site_fract_x
_atom_site_fract_y
_atom_site_fract_z
C1 C 0.93813(19) -0.06389(18) 0.86636(16)
H1 H 0.9774 -0.0921 0.9394
C2 C 0.9104(2) 0.06849(17) 0.80958(16)
F1 F 0.94066(13) 0.16445(11) 0.85538(10)
C3 C 0.85021(18) 0.11221(16) 0.70537(15)
H2 H 0.8292 0.2060 0.6703
C4 C 0.81973(16) 0.02308(15) 0.65071(14)
C5 C 0.85095(16) -0.11918(15) 0.70491(14)
C6 C 0.83175(17) -0.22655(15) 0.65565(15)
C7 C 0.7860(2) -0.20596(16) 0.54333(16)
H3 H 0.7616 -0.1165 0.4957
C8 C 0.7752(2) -0.30919(17) 0.49978(18)
H4 H 0.7439 -0.2897 0.4235
C9 C 0.8093(2) -0.44137(18) 0.5657(2)
H5 H 0.8023 -0.5125 0.5350
C10 C 0.8532(2) -0.46766(18) 0.6755(2)
H6 H 0.8759 -0.5584 0.7215
C11 C 0.86585(18) -0.36415(16) 0.72248(17)
C12 C 0.9160(2) -0.39642(18) 0.83568(19)
H7 H 0.9345 -0.4889 0.8811
C13 C 0.9375(2) -0.29931(18) 0.87926(18)
H8 H 0.9731 -0.3237 0.9540
C14 C 0.90812(17) -0.15947(16) 0.81582(15)
C15 C 0.75502(17) 0.08441(14) 0.53529(14)
H9 H 0.6544 0.0304 0.5580
H10 H 0.8281 0.0712 0.4586
C16 C 0.72753(18) 0.23681(14) 0.49281(14)
H11 H 0.6507 0.2515 0.5670
H12 H 0.8268 0.2927 0.4702
C17 C 0.66712(18) 0.28508(15) 0.37454(14)
H13 H 0.5648 0.2325 0.3996
H14 H 0.7406 0.2634 0.3032
C18 C 0.64757(19) 0.43938(15) 0.32173(15)
H15 H 0.5719 0.4610 0.3921
H16 H 0.7492 0.4923 0.2981
C19 C 0.5905(2) 0.48565(15) 0.20148(15)
H17 H 0.6685 0.4668 0.1305
H18 H 0.4916 0.4290 0.2245
C20 C 0.56268(19) 0.63703(15) 0.14878(15)
H19 H 0.6623 0.6944 0.1217
H20 H 0.4873 0.6573 0.2202
C21 C 0.49989(19) 0.67735(15) 0.03216(15)
H21 H 0.5762 0.6575 -0.0390
H22 H 0.4015 0.6182 0.0594
C22 C 0.46801(18) 0.82771(15) -0.02288(15)
H23 H 0.3942 0.8490 0.0486
H24 H 0.5670 0.8873 -0.0537
C23 C 0.4001(2) 0.86261(16) -0.13596(16)
H25 H 0.4737 0.8404 -0.2069
H26 H 0.3010 0.8031 -0.1047
C24 C 0.3683(2) 1.01256(17) -0.19297(17)
H27 H 0.3269 1.0276 -0.2663
H28 H 0.4658 1.0726 -0.2248
H29 H 0.2916 1.0345 -0.1247
loop_
_geom_bond_atom_site_label_1
_geom_bond_atom_site_label_2
_geom_bond_site_symmetry_1
_geom_bond_site_symmetry_2
C1 H1 1_555 1_555
C2 C1 1_555 1_555
F1 C2 1_555 1_555
C3 C2 1_555 1_555
H2 C3 1_555 1_555
C4 C3 1_555 1_555
C5 C4 1_555 1_555
C6 C5 1_555 1_555
C7 C6 1_555 1_555
H3 C7 1_555 1_555
C8 C7 1_555 1_555
H4 C8 1_555 1_555
C9 C8 1_555 1_555
H5 C9 1_555 1_555
C10 C9 1_555 1_555
H6 C10 1_555 1_555
C11 C6 1_555 1_555
C12 C11 1_555 1_555
H7 C12 1_555 1_555
C13 C12 1_555 1_555
H8 C13 1_555 1_555
C14 C1 1_555 1_555
C15 C4 1_555 1_555
H9 C15 1_555 1_555
H10 C15 1_555 1_555
C16 C15 1_555 1_555
H11 C16 1_555 1_555
H12 C16 1_555 1_555
C17 C16 1_555 1_555
H13 C17 1_555 1_555
H14 C17 1_555 1_555
C18 C17 1_555 1_555
H15 C18 1_555 1_555
H16 C18 1_555 1_555
C19 C18 1_555 1_555
H17 C19 1_555 1_555
H18 C19 1_555 1_555
C20 C19 1_555 1_555
H19 C20 1_555 1_555
H20 C20 1_555 1_555
C21 C20 1_555 1_555
H21 C21 1_555 1_555
H22 C21 1_555 1_555
C22 C21 1_555 1_555
H23 C22 1_555 1_555
H24 C22 1_555 1_555
C23 C22 1_555 1_555
H25 C23 1_555 1_555
H26 C23 1_555 1_555
C24 C23 1_555 1_555
H27 C24 1_555 1_555
H28 C24 1_555 1_555
H29 C24 1_555 1_555
C5 C14 1_555 1_555
C10 C11 1_555 1_555
C13 C14 1_555 1_555

#END
