
#######################################################################
#
#                 Cambridge Crystallographic Data Centre
#                                CCDC 
#
#######################################################################
#
# If this CIF has been generated from an entry in the Cambridge 
# Structural Database, then it will include bibliographic, chemical, 
# crystal, experimental, refinement or atomic coordinate data resulting 
# from the CCDC's data processing and validation procedures.
#
#######################################################################

data_RERNEI
_chemical_name_common            
2,7,12-tris(Dimesitylboryl)-5,5,10,10,15,15-hexaethyltruxene
_chemical_formula_moiety         'C93 H105 B3'
_chemical_name_systematic        
2,7,12-tris(Dimesitylboryl)-5,5,10,10,15,15-hexaethyl-10,15-dihydro-5H-diindeno[1,2-a:1',2'-c]fluorene
_symmetry_cell_setting           cubic
_symmetry_space_group_name_H-M   'I -4 3 d'
_symmetry_Int_Tables_number      220
_space_group_name_Hall           'I -4bd 2c 3'
loop_
_symmetry_equiv_pos_site_id
_symmetry_equiv_pos_as_xyz
1 x,y,z
2 1/2-x,-y,1/2+z
3 -x,1/2+y,1/2-z
4 1/2+x,1/2-y,-z
5 z,x,y
6 1/2+z,1/2-x,-y
7 1/2-z,-x,1/2+y
8 -z,1/2+x,1/2-y
9 y,z,x
10 -y,1/2+z,1/2-x
11 1/2+y,1/2-z,-x
12 1/2-y,-z,1/2+x
13 1/4+y,1/4+x,1/4+z
14 1/4-y,3/4-x,3/4+z
15 3/4+y,1/4-x,3/4-z
16 3/4-y,3/4+x,1/4-z
17 1/4+x,1/4+z,1/4+y
18 3/4-x,3/4+z,1/4-y
19 1/4-x,3/4-z,3/4+y
20 3/4+x,1/4-z,3/4-y
21 1/4+z,1/4+y,1/4+x
22 3/4+z,1/4-y,3/4-x
23 3/4-z,3/4+y,1/4-x
24 1/4-z,3/4-y,3/4+x
25 1/2+x,1/2+y,1/2+z
26 -x,1/2-y,z
27 1/2-x,y,-z
28 x,-y,1/2-z
29 1/2+z,1/2+x,1/2+y
30 z,-x,1/2-y
31 -z,1/2-x,y
32 1/2-z,x,-y
33 1/2+y,1/2+z,1/2+x
34 1/2-y,z,-x
35 y,-z,1/2-x
36 -y,1/2-z,x
37 3/4+y,3/4+x,3/4+z
38 3/4-y,1/4-x,1/4+z
39 1/4+y,3/4-x,1/4-z
40 1/4-y,1/4+x,3/4-z
41 3/4+x,3/4+z,3/4+y
42 1/4-x,1/4+z,3/4-y
43 3/4-x,1/4-z,1/4+y
44 1/4+x,3/4-z,1/4-y
45 3/4+z,3/4+y,3/4+x
46 1/4+z,3/4-y,1/4-x
47 1/4-z,1/4+y,3/4-x
48 3/4-z,1/4-y,1/4+x
_cell_length_a                   36.383(4)
_cell_length_b                   36.383(4)
_cell_length_c                   36.383(4)
_cell_angle_alpha                90
_cell_angle_beta                 90
_cell_angle_gamma                90
_cell_volume                     48161
_exptl_crystal_colour            colorless
_exptl_crystal_description       Block
_chemical_melting_point          'above 400deg.C'
_cell_formula_units_Z            16
_exptl_crystal_recrystallization_method tetrahydrofuran
_exptl_crystal_preparation       fluorescent
loop_
_atom_site_label
_atom_site_type_symbol
_atom_site_fract_x
_atom_site_fract_y
_atom_site_fract_z
C1 C 0.06601(12) 0.97925(12) 0.93412(12)
C2 C 0.09578(13) 0.97233(13) 0.91217(13)
H1 H 0.1004 0.9876 0.8922
C3 C 0.11965(12) 0.94244(13) 0.91929(13)
C4 C 0.11031(13) 0.92151(14) 0.94988(14)
H2 H 0.1251 0.9014 0.9555
C5 C 0.08107(13) 0.92835(13) 0.97209(12)
H3 H 0.0765 0.9132 0.9922
C6 C 0.05811(11) 0.95782(12) 0.96484(12)
C7 C 0.02541(12) 0.97347(12) 0.98289(12)
C8 C 0.00518(13) 0.96272(12) 1.01460(12)
C9 C 0.03953(12) 1.01090(12) 0.92982(12)
C10 C 0.01920(15) 1.00729(15) 0.89300(13)
H4 H 0.0033 1.0285 0.8898
H5 H 0.0371 1.0074 0.8732
C11 C -0.00405(18) 0.9722(2) 0.89014(17)
H6 H -0.0161 0.9715 0.8667
H7 H -0.0222 0.9721 0.9093
H8 H 0.0115 0.9511 0.8927
C12 C 0.06120(14) 1.04714(13) 0.93247(16)
H9 H 0.0795 1.0474 0.9131
H10 H 0.0444 1.0674 0.9279
C13 C 0.08030(18) 1.05377(17) 0.96884(19)
H11 H 0.0930 1.0769 0.9680
H12 H 0.0976 1.0344 0.9734
H13 H 0.0624 1.0543 0.9882
C14 C 0.16896(13) 0.96744(16) 0.87100(15)
C15 C 0.17646(14) 1.00277(19) 0.88464(18)
C16 C 0.18436(15) 1.03076(18) 0.8599(2)
H14 H 0.1891 1.0539 0.8696
C17 C 0.18574(19) 1.0273(2) 0.8234(2)
C18 C 0.17872(19) 0.9927(2) 0.81002(18)
H15 H 0.1787 0.9890 0.7847
C19 C 0.17161(15) 0.96309(17) 0.83320(18)
C20 C 0.17740(16) 1.01099(16) 0.92555(17)
H16 H 0.1832 1.0365 0.9293
H17 H 0.1958 0.9960 0.9371
H18 H 0.1538 1.0057 0.9361
C21 C 0.1911(3) 1.0589(2) 0.7977(2)
H19 H 0.1951 1.0810 0.8116
H20 H 0.1696 1.0618 0.7827
H21 H 0.2120 1.0543 0.7823
C22 C 0.1645(2) 0.92544(17) 0.81444(16)
H22 H 0.1675 0.9279 0.7883
H23 H 0.1399 0.9175 0.8197
H24 H 0.1816 0.9076 0.8237
C23 C 0.17439(16) 0.89662(17) 0.90075(13)
C24 C 0.21068(18) 0.8939(2) 0.91404(16)
C25 C 0.2254(2) 0.8609(3) 0.9220(2)
H25 H 0.2482 0.8600 0.9335
C26 C 0.2076(3) 0.8281(3) 0.91360(19)
C27 C 0.1732(2) 0.83068(17) 0.89983(15)
H26 H 0.1607 0.8090 0.8945
C28 C 0.15546(17) 0.86385(17) 0.89316(14)
C29 C 0.23413(19) 0.9277(2) 0.9238(2)
H27 H 0.2579 0.9198 0.9322
H28 H 0.2222 0.9415 0.9429
H29 H 0.2370 0.9430 0.9025
C30 C 0.2246(3) 0.7905(2) 0.9212(2)
H30 H 0.2079 0.7716 0.9133
H31 H 0.2291 0.7880 0.9471
H32 H 0.2473 0.7883 0.9081
C31 C 0.11750(19) 0.86311(16) 0.87707(18)
H33 H 0.1097 0.8381 0.8741
H34 H 0.1177 0.8752 0.8536
H35 H 0.1008 0.8756 0.8933
B1 B 0.15522(16) 0.93559(17) 0.89645(16)
C1D C -0.06588(12) 1.06601(12) 0.97925(12)
C1H C -0.02075(12) 0.93412(12) 1.06601(12)
C2D C -0.08783(13) 1.09578(13) 0.97233(13)
C2H C -0.02767(13) 0.91217(13) 1.09578(13)
H1D H -0.1078 1.1004 0.9876
H1H H -0.0124 0.8922 1.1004
C3D C -0.08071(13) 1.11965(12) 0.94244(13)
C3H C -0.05756(13) 0.91929(13) 1.11965(12)
C4D C -0.05012(14) 1.11031(13) 0.92151(14)
C4H C -0.07849(14) 0.94988(14) 1.11031(13)
H2D H -0.0445 1.1251 0.9014
H2H H -0.0986 0.9555 1.1251
C5D C -0.02791(12) 1.08107(13) 0.92835(13)
C5H C -0.07165(13) 0.97209(12) 1.08107(13)
H3D H -0.0078 1.0765 0.9132
H3H H -0.0868 0.9922 1.0765
C6D C -0.03516(12) 1.05811(11) 0.95782(12)
C6H C -0.04218(12) 0.96484(12) 1.05811(11)
C7D C -0.01711(12) 1.02541(12) 0.97347(12)
C7H C -0.02653(12) 0.98289(12) 1.02541(12)
C8D C 0.01460(12) 1.00518(13) 0.96272(12)
C8H C -0.03728(12) 1.01460(12) 1.00518(13)
C9D C -0.07018(12) 1.03953(12) 1.01090(12)
C9H C 0.01090(12) 0.92982(12) 1.03953(12)
C10H C 0.00729(15) 0.89300(13) 1.01920(15)
C10D C -0.10700(13) 1.01920(15) 1.00729(15)
H4H H 0.0285 0.8898 1.0033
H4D H -0.1102 1.0033 1.0285
H5H H 0.0074 0.8732 1.0371
H5D H -0.1268 1.0371 1.0074
C11H C -0.0278(2) 0.89014(17) 0.99595(18)
C11D C -0.10986(17) 0.99595(18) 0.9722(2)
H6H H -0.0285 0.8667 0.9839
H6D H -0.1333 0.9839 0.9715
H7H H -0.0279 0.9093 0.9778
H7D H -0.0907 0.9778 0.9721
H8H H -0.0489 0.8927 1.0115
H8D H -0.1073 1.0115 0.9511
C12H C 0.04714(13) 0.93247(16) 1.06120(14)
C12D C -0.06753(16) 1.06120(14) 1.04714(13)
H9H H 0.0474 0.9131 1.0795
H9D H -0.0869 1.0795 1.0474
H10H H 0.0674 0.9279 1.0444
H10D H -0.0721 1.0444 1.0674
C13H C 0.05377(17) 0.96884(19) 1.08030(18)
C13D C -0.03116(19) 1.08030(18) 1.05377(17)
H11H H 0.0769 0.9680 1.0930
H11D H -0.0320 1.0930 1.0769
H12H H 0.0344 0.9734 1.0976
H12D H -0.0266 1.0976 1.0344
H13H H 0.0543 0.9882 1.0624
H13D H -0.0118 1.0624 1.0543
C14D C -0.12900(15) 1.16896(13) 0.96744(16)
C14H C -0.03256(16) 0.87100(15) 1.16896(13)
C15D C -0.11536(18) 1.17646(14) 1.00277(19)
C15H C 0.00277(19) 0.88464(18) 1.17646(14)
C16D C -0.1401(2) 1.18436(15) 1.03076(18)
C16H C 0.03076(18) 0.8599(2) 1.18436(15)
H14D H -0.1304 1.1891 1.0539
H14H H 0.0539 0.8696 1.1891
C17D C -0.1766(2) 1.18574(19) 1.0273(2)
C17H C 0.0273(2) 0.8234(2) 1.18574(19)
C18D C -0.18998(18) 1.17872(19) 0.9927(2)
C18H C -0.0073(2) 0.81002(18) 1.17872(19)
H15D H -0.2153 1.1787 0.9890
H15H H -0.0110 0.7847 1.1787
C19D C -0.16680(18) 1.17161(15) 0.96309(17)
C19H C -0.03691(17) 0.83320(18) 1.17161(15)
C20D C -0.07445(17) 1.17740(16) 1.01099(16)
C20H C 0.01099(16) 0.92555(17) 1.17740(16)
H16D H -0.0707 1.1832 1.0365
H16H H 0.0365 0.9293 1.1832
H17D H -0.0629 1.1958 0.9960
H17H H -0.0040 0.9371 1.1958
H18D H -0.0639 1.1538 1.0057
H18H H 0.0057 0.9361 1.1538
C21D C -0.2023(2) 1.1911(3) 1.0589(2)
C21H C 0.0589(2) 0.7977(2) 1.1911(3)
H19D H -0.1884 1.1951 1.0810
H19H H 0.0810 0.8116 1.1951
H20D H -0.2173 1.1696 1.0618
H20H H 0.0618 0.7827 1.1696
H21D H -0.2177 1.2120 1.0543
H21H H 0.0543 0.7823 1.2120
C22D C -0.18556(16) 1.1645(2) 0.92544(17)
C22H C -0.07456(17) 0.81444(16) 1.1645(2)
H22D H -0.2117 1.1675 0.9279
H22H H -0.0721 0.7883 1.1675
H23D H -0.1803 1.1399 0.9175
H23H H -0.0825 0.8197 1.1399
H24D H -0.1763 1.1816 0.9076
H24H H -0.0924 0.8237 1.1816
C23D C -0.09925(13) 1.17439(16) 0.89662(17)
C23H C -0.10338(17) 0.90075(13) 1.17439(16)
C24D C -0.08596(16) 1.21068(18) 0.8939(2)
C24H C -0.1061(2) 0.91404(16) 1.21068(18)
C25D C -0.0780(2) 1.2254(2) 0.8609(3)
C25H C -0.1391(3) 0.9220(2) 1.2254(2)
H25D H -0.0665 1.2482 0.8600
H25H H -0.1400 0.9335 1.2482
C26D C -0.08640(19) 1.2076(3) 0.8281(3)
C26H C -0.1719(3) 0.91360(19) 1.2076(3)
C27D C -0.10017(15) 1.1732(2) 0.83068(17)
C27H C -0.16932(17) 0.89983(15) 1.1732(2)
H26D H -0.1055 1.1607 0.8090
H26H H -0.1910 0.8945 1.1607
C28D C -0.10684(14) 1.15546(17) 0.86385(17)
C28H C -0.13615(17) 0.89316(14) 1.15546(17)
C29D C -0.0762(2) 1.23413(19) 0.9277(2)
C29H C -0.0723(2) 0.9238(2) 1.23413(19)
H27D H -0.0678 1.2579 0.9198
H27H H -0.0802 0.9322 1.2579
H28D H -0.0571 1.2222 0.9415
H28H H -0.0585 0.9429 1.2222
H29D H -0.0975 1.2370 0.9430
H29H H -0.0570 0.9025 1.2370
C30D C -0.0788(2) 1.2246(3) 0.7905(2)
C30H C -0.2095(2) 0.9212(2) 1.2246(3)
H30D H -0.0867 1.2079 0.7716
H30H H -0.2284 0.9133 1.2079
H31D H -0.0529 1.2291 0.7880
H31H H -0.2120 0.9471 1.2291
H32D H -0.0919 1.2473 0.7883
H32H H -0.2117 0.9081 1.2473
C31D C -0.12293(18) 1.11750(19) 0.86311(16)
C31H C -0.13689(16) 0.87707(18) 1.11750(19)
H33D H -0.1259 1.1097 0.8381
H33H H -0.1619 0.8741 1.1097
H34D H -0.1464 1.1177 0.8752
H34H H -0.1248 0.8536 1.1177
H35D H -0.1067 1.1008 0.8756
H35H H -0.1244 0.8933 1.1008
B1D B -0.10355(16) 1.15522(16) 0.93559(17)
B1H B -0.06441(17) 0.89645(16) 1.15522(16)
loop_
_geom_bond_atom_site_label_1
_geom_bond_atom_site_label_2
_geom_bond_site_symmetry_1
_geom_bond_site_symmetry_2
C1 C2 1_555 1_555
C2 H1 1_555 1_555
C3 C2 1_555 1_555
C4 C3 1_555 1_555
H2 C4 1_555 1_555
C5 C4 1_555 1_555
H3 C5 1_555 1_555
C6 C1 1_555 1_555
C7 C6 1_555 1_555
C8 C7 1_555 1_555
C9 C1 1_555 1_555
C10 C9 1_555 1_555
H4 C10 1_555 1_555
H5 C10 1_555 1_555
C11 C10 1_555 1_555
H6 C11 1_555 1_555
H7 C11 1_555 1_555
H8 C11 1_555 1_555
C12 C9 1_555 1_555
H9 C12 1_555 1_555
H10 C12 1_555 1_555
C13 C12 1_555 1_555
H11 C13 1_555 1_555
H12 C13 1_555 1_555
H13 C13 1_555 1_555
C14 C15 1_555 1_555
C15 C16 1_555 1_555
C16 H14 1_555 1_555
C17 C16 1_555 1_555
C18 C17 1_555 1_555
H15 C18 1_555 1_555
C19 C14 1_555 1_555
C20 C15 1_555 1_555
H16 C20 1_555 1_555
H17 C20 1_555 1_555
H18 C20 1_555 1_555
C21 C17 1_555 1_555
H19 C21 1_555 1_555
H20 C21 1_555 1_555
H21 C21 1_555 1_555
C22 C19 1_555 1_555
H22 C22 1_555 1_555
H23 C22 1_555 1_555
H24 C22 1_555 1_555
C23 C24 1_555 1_555
C24 C25 1_555 1_555
C25 H25 1_555 1_555
C26 C25 1_555 1_555
C27 C26 1_555 1_555
H26 C27 1_555 1_555
C28 C23 1_555 1_555
C29 C24 1_555 1_555
H27 C29 1_555 1_555
H28 C29 1_555 1_555
H29 C29 1_555 1_555
C30 C26 1_555 1_555
H30 C30 1_555 1_555
H31 C30 1_555 1_555
H32 C30 1_555 1_555
C31 C28 1_555 1_555
H33 C31 1_555 1_555
H34 C31 1_555 1_555
H35 C31 1_555 1_555
B1 C3 1_555 1_555
C1D C2D 1_555 1_555
C1H C2H 1_555 1_555
C2D H1D 1_555 1_555
C2H H1H 1_555 1_555
C3D C2D 1_555 1_555
C3H C2H 1_555 1_555
C4D C3D 1_555 1_555
C4H C3H 1_555 1_555
H2D C4D 1_555 1_555
H2H C4H 1_555 1_555
C5D C4D 1_555 1_555
C5H C4H 1_555 1_555
H3D C5D 1_555 1_555
H3H C5H 1_555 1_555
C6D C1D 1_555 1_555
C6H C1H 1_555 1_555
C7D C6D 1_555 1_555
C7H C8 1_555 1_555
C8D C7 1_555 1_555
C8H C7D 1_555 1_555
C9D C1D 1_555 1_555
C9H C8 1_555 1_555
C10H C9H 1_555 1_555
C10D C9D 1_555 1_555
H4H C10H 1_555 1_555
H4D C10D 1_555 1_555
H5H C10H 1_555 1_555
H5D C10D 1_555 1_555
C11H C10H 1_555 1_555
C11D C10D 1_555 1_555
H6H C11H 1_555 1_555
H6D C11D 1_555 1_555
H7H C11H 1_555 1_555
H7D C11D 1_555 1_555
H8H C11H 1_555 1_555
H8D C11D 1_555 1_555
C12H C9H 1_555 1_555
C12D C9D 1_555 1_555
H9H C12H 1_555 1_555
H9D C12D 1_555 1_555
H10H C12H 1_555 1_555
H10D C12D 1_555 1_555
C13H C12H 1_555 1_555
C13D C12D 1_555 1_555
H11H C13H 1_555 1_555
H11D C13D 1_555 1_555
H12H C13H 1_555 1_555
H12D C13D 1_555 1_555
H13H C13H 1_555 1_555
H13D C13D 1_555 1_555
C14D C15D 1_555 1_555
C14H C15H 1_555 1_555
C15D C16D 1_555 1_555
C15H C16H 1_555 1_555
C16D H14D 1_555 1_555
C16H H14H 1_555 1_555
C17D C16D 1_555 1_555
C17H C16H 1_555 1_555
C18D C17D 1_555 1_555
C18H C17H 1_555 1_555
H15D C18D 1_555 1_555
H15H C18H 1_555 1_555
C19D C14D 1_555 1_555
C19H C14H 1_555 1_555
C20D C15D 1_555 1_555
C20H C15H 1_555 1_555
H16D C20D 1_555 1_555
H16H C20H 1_555 1_555
H17D C20D 1_555 1_555
H17H C20H 1_555 1_555
H18D C20D 1_555 1_555
H18H C20H 1_555 1_555
C21D C17D 1_555 1_555
C21H C17H 1_555 1_555
H19D C21D 1_555 1_555
H19H C21H 1_555 1_555
H20D C21D 1_555 1_555
H20H C21H 1_555 1_555
H21D C21D 1_555 1_555
H21H C21H 1_555 1_555
C22D C19D 1_555 1_555
C22H C19H 1_555 1_555
H22D C22D 1_555 1_555
H22H C22H 1_555 1_555
H23D C22D 1_555 1_555
H23H C22H 1_555 1_555
H24D C22D 1_555 1_555
H24H C22H 1_555 1_555
C23D C24D 1_555 1_555
C23H C24H 1_555 1_555
C24D C25D 1_555 1_555
C24H C25H 1_555 1_555
C25D H25D 1_555 1_555
C25H H25H 1_555 1_555
C26D C25D 1_555 1_555
C26H C25H 1_555 1_555
C27D C26D 1_555 1_555
C27H C26H 1_555 1_555
H26D C27D 1_555 1_555
H26H C27H 1_555 1_555
C28D C23D 1_555 1_555
C28H C23H 1_555 1_555
C29D C24D 1_555 1_555
C29H C24H 1_555 1_555
H27D C29D 1_555 1_555
H27H C29H 1_555 1_555
H28D C29D 1_555 1_555
H28H C29H 1_555 1_555
H29D C29D 1_555 1_555
H29H C29H 1_555 1_555
C30D C26D 1_555 1_555
C30H C26H 1_555 1_555
H30D C30D 1_555 1_555
H30H C30H 1_555 1_555
H31D C30D 1_555 1_555
H31H C30H 1_555 1_555
H32D C30D 1_555 1_555
H32H C30H 1_555 1_555
C31D C28D 1_555 1_555
C31H C28H 1_555 1_555
H33D C31D 1_555 1_555
H33H C31H 1_555 1_555
H34D C31D 1_555 1_555
H34H C31H 1_555 1_555
H35D C31D 1_555 1_555
H35H C31H 1_555 1_555
B1D C3D 1_555 1_555
B1H C3H 1_555 1_555
C5 C6 1_555 1_555
C9 C8D 1_555 1_555
C14 B1 1_555 1_555
C18 C19 1_555 1_555
C23 B1 1_555 1_555
C27 C28 1_555 1_555
C1H C9H 1_555 1_555
C5D C6D 1_555 1_555
C5H C6H 1_555 1_555
C6H C7H 1_555 1_555
C7D C8D 1_555 1_555
C7H C8H 1_555 1_555
C8H C9D 1_555 1_555
C14D B1D 1_555 1_555
C14H B1H 1_555 1_555
C18D C19D 1_555 1_555
C18H C19H 1_555 1_555
C23D B1D 1_555 1_555
C23H B1H 1_555 1_555
C27D C28D 1_555 1_555
C27H C28H 1_555 1_555

#END
