
#######################################################################
#
#                 Cambridge Crystallographic Data Centre
#                                CCDC 
#
#######################################################################
#
# If this CIF has been generated from an entry in the Cambridge 
# Structural Database, then it will include bibliographic, chemical, 
# crystal, experimental, refinement or atomic coordinate data resulting 
# from the CCDC's data processing and validation procedures.
#
#######################################################################

data_RERXOD
_chemical_formula_moiety         'C16 H48 Cl2 Si9'
_chemical_name_systematic        
1,1-Dichloro-3,3,4,4-tetramethyl-2,2,5,5-tetrakis(trimethylsilyl)pentasilolane
_symmetry_cell_setting           monoclinic
_symmetry_space_group_name_H-M   'C 2/c'
_symmetry_Int_Tables_number      15
_space_group_name_Hall           '-C 2yn'
loop_
_symmetry_equiv_pos_site_id
_symmetry_equiv_pos_as_xyz
1 x,y,z
2 -x,y,1/2-z
3 1/2+x,1/2+y,z
4 1/2-x,1/2+y,1/2-z
5 -x,-y,-z
6 x,-y,1/2+z
7 1/2-x,1/2-y,-z
8 1/2+x,1/2-y,1/2+z
_cell_length_a                   16.581(4)
_cell_length_b                   9.272(2)
_cell_length_c                   22.553(5)
_cell_angle_alpha                90
_cell_angle_beta                 95.961(4)
_cell_angle_gamma                90
_cell_volume                     3448.53
_exptl_crystal_colour            colorless
_exptl_crystal_description       prism
_cell_formula_units_Z            4
loop_
_atom_site_label
_atom_site_type_symbol
_atom_site_fract_x
_atom_site_fract_y
_atom_site_fract_z
Cl1 Cl 0.09854(5) 0.52940(7) 0.25417(3)
Si1 Si 0.0000 0.38796(7) 0.2500
Si2 Si 0.00279(3) 0.24863(5) 0.33709(2)
Si3 Si -0.01801(4) 0.01232(6) 0.29908(3)
Si4 Si -0.09957(5) 0.32451(7) 0.39526(3)
Si5 Si 0.13226(4) 0.27235(7) 0.38968(3)
C1 C -0.20386(18) 0.3065(4) 0.35452(17)
H1 H -0.2436 0.3329 0.3806
H2 H -0.2126 0.2084 0.3418
H3 H -0.2086 0.3688 0.3204
C2 C -0.0821(2) 0.5178(3) 0.41741(13)
H4 H -0.1255 0.5504 0.4391
H5 H -0.0802 0.5759 0.3823
H6 H -0.0316 0.5262 0.4421
C3 C -0.0954(3) 0.2081(4) 0.46357(14)
H7 H -0.0435 0.2187 0.4863
H8 H -0.1032 0.1090 0.4519
H9 H -0.1373 0.2368 0.4874
C4 C 0.1533(2) 0.4631(3) 0.41372(13)
H10 H 0.1131 0.4943 0.4386
H11 H 0.1517 0.5241 0.3792
H12 H 0.2060 0.4688 0.4357
C5 C 0.21143(18) 0.2130(4) 0.34112(18)
H13 H 0.2631 0.2071 0.3646
H14 H 0.2145 0.2814 0.3095
H15 H 0.1972 0.1200 0.3245
C6 C 0.1393(2) 0.1562(4) 0.45838(15)
H16 H 0.1952 0.1442 0.4735
H17 H 0.1157 0.0635 0.4485
H18 H 0.1106 0.2015 0.4882
C7 C 0.0440(2) -0.1241(3) 0.34602(13)
H19 H 0.0275 -0.1245 0.3856
H20 H 0.1004 -0.0991 0.3478
H21 H 0.0357 -0.2181 0.3286
C8 C -0.12651(18) -0.0433(3) 0.29870(16)
H22 H -0.1346 -0.1348 0.2790
H23 H -0.1608 0.0277 0.2779
H24 H -0.1398 -0.0515 0.3390
Cl1A Cl -0.09854(5) 0.52940(7) 0.24583(3)
Si2A Si -0.00279(3) 0.24863(5) 0.16291(2)
Si3A Si 0.01801(4) 0.01232(6) 0.20092(3)
Si4A Si 0.09957(5) 0.32451(7) 0.10474(3)
Si5A Si -0.13226(4) 0.27235(7) 0.11032(3)
C1A C 0.20386(18) 0.3065(4) 0.14548(17)
H1A H 0.2436 0.3329 0.1194
H2A H 0.2126 0.2084 0.1582
H3A H 0.2086 0.3688 0.1796
C2A C 0.0821(2) 0.5178(3) 0.08259(13)
H4A H 0.1255 0.5504 0.0609
H5A H 0.0802 0.5759 0.1177
H6A H 0.0316 0.5262 0.0579
C3A C 0.0954(3) 0.2081(4) 0.03643(14)
H7A H 0.0435 0.2187 0.0137
H8A H 0.1032 0.1090 0.0481
H9A H 0.1373 0.2368 0.0126
C4A C -0.1533(2) 0.4631(3) 0.08628(13)
H10A H -0.1131 0.4943 0.0614
H11A H -0.1517 0.5241 0.1208
H12A H -0.2060 0.4688 0.0643
C5A C -0.21143(18) 0.2130(4) 0.15888(18)
H13A H -0.2631 0.2071 0.1354
H14A H -0.2145 0.2814 0.1905
H15A H -0.1972 0.1200 0.1755
C6A C -0.1393(2) 0.1562(4) 0.04162(15)
H16A H -0.1952 0.1442 0.0265
H17A H -0.1157 0.0635 0.0515
H18A H -0.1106 0.2015 0.0118
C7A C -0.0440(2) -0.1241(3) 0.15398(13)
H19A H -0.0275 -0.1245 0.1144
H20A H -0.1004 -0.0991 0.1522
H21A H -0.0357 -0.2181 0.1714
C8A C 0.12651(18) -0.0433(3) 0.20130(16)
H22A H 0.1346 -0.1348 0.2210
H23A H 0.1608 0.0277 0.2221
H24A H 0.1398 -0.0515 0.1610
loop_
_geom_bond_atom_site_label_1
_geom_bond_atom_site_label_2
_geom_bond_site_symmetry_1
_geom_bond_site_symmetry_2
Cl1 Si1 1_555 1_555
Si1 Si2 1_555 1_555
Si2 Si3 1_555 1_555
Si3 C7 1_555 1_555
Si4 Si2 1_555 1_555
Si5 Si2 1_555 1_555
C1 Si4 1_555 1_555
H1 C1 1_555 1_555
H2 C1 1_555 1_555
H3 C1 1_555 1_555
C2 Si4 1_555 1_555
H4 C2 1_555 1_555
H5 C2 1_555 1_555
H6 C2 1_555 1_555
C3 Si4 1_555 1_555
H7 C3 1_555 1_555
H8 C3 1_555 1_555
H9 C3 1_555 1_555
C4 Si5 1_555 1_555
H10 C4 1_555 1_555
H11 C4 1_555 1_555
H12 C4 1_555 1_555
C5 Si5 1_555 1_555
H13 C5 1_555 1_555
H14 C5 1_555 1_555
H15 C5 1_555 1_555
C6 Si5 1_555 1_555
H16 C6 1_555 1_555
H17 C6 1_555 1_555
H18 C6 1_555 1_555
C7 H19 1_555 1_555
H20 C7 1_555 1_555
H21 C7 1_555 1_555
C8 Si3 1_555 1_555
H22 C8 1_555 1_555
H23 C8 1_555 1_555
H24 C8 1_555 1_555
Cl1A Si1 1_555 1_555
Si2A Si1 1_555 1_555
Si3A Si3 1_555 1_555
Si4A Si2A 1_555 1_555
Si5A Si2A 1_555 1_555
C1A Si4A 1_555 1_555
H1A C1A 1_555 1_555
H2A C1A 1_555 1_555
H3A C1A 1_555 1_555
C2A Si4A 1_555 1_555
H4A C2A 1_555 1_555
H5A C2A 1_555 1_555
H6A C2A 1_555 1_555
C3A Si4A 1_555 1_555
H7A C3A 1_555 1_555
H8A C3A 1_555 1_555
H9A C3A 1_555 1_555
C4A Si5A 1_555 1_555
H10A C4A 1_555 1_555
H11A C4A 1_555 1_555
H12A C4A 1_555 1_555
C5A Si5A 1_555 1_555
H13A C5A 1_555 1_555
H14A C5A 1_555 1_555
H15A C5A 1_555 1_555
C6A Si5A 1_555 1_555
H16A C6A 1_555 1_555
H17A C6A 1_555 1_555
H18A C6A 1_555 1_555
C7A Si3A 1_555 1_555
H19A C7A 1_555 1_555
H20A C7A 1_555 1_555
H21A C7A 1_555 1_555
C8A Si3A 1_555 1_555
H22A C8A 1_555 1_555
H23A C8A 1_555 1_555
H24A C8A 1_555 1_555
Si2A Si3A 1_555 1_555

#END
