
#######################################################################
#
#                 Cambridge Crystallographic Data Centre
#                                CCDC 
#
#######################################################################
#
# If this CIF has been generated from an entry in the Cambridge 
# Structural Database, then it will include bibliographic, chemical, 
# crystal, experimental, refinement or atomic coordinate data resulting 
# from the CCDC's data processing and validation procedures.
#
#######################################################################

data_RERYAQ
_chemical_formula_moiety         'C22 H24 O6'
_chemical_name_systematic        
'5-(4-Hydroxy-3,5-dimethoxyphenyl)-1,3-dimethoxy-6,7-dimethyl-2-naphthol unknown solvate'
_symmetry_cell_setting           monoclinic
_symmetry_space_group_name_H-M   'P 2/c'
_symmetry_Int_Tables_number      13
_space_group_name_Hall           '-P 2yc'
loop_
_symmetry_equiv_pos_site_id
_symmetry_equiv_pos_as_xyz
1 x,y,z
2 -x,y,1/2-z
3 -x,-y,-z
4 x,-y,1/2+z
_cell_length_a                   12.3947(7)
_cell_length_b                   8.5143(4)
_cell_length_c                   21.6771(10)
_cell_angle_alpha                90
_cell_angle_beta                 104.571(6)
_cell_angle_gamma                90
_cell_volume                     2214.05
_exptl_crystal_colour            'light orange'
_exptl_crystal_description       block
_cell_formula_units_Z            4
loop_
_atom_site_label
_atom_site_type_symbol
_atom_site_fract_x
_atom_site_fract_y
_atom_site_fract_z
O1 O 0.1187(4) 0.4492(5) 0.70579(19)
O2 O 0.1928(4) 0.7389(5) 0.75848(16)
H1 H 0.1469 0.6827 0.7692
O3 O 0.2681(3) 0.9514(4) 0.69294(15)
O4 O 0.1284(3) 0.9929(4) 0.33710(14)
O5 O 0.3420(3) 1.0311(5) 0.34725(18)
H2 H 0.4101 1.0301 0.3538
O6 O 0.4983(3) 0.8793(5) 0.43309(19)
C1 C 0.2059(3) 0.5960(5) 0.50807(17)
C2 C 0.1667(3) 0.4491(5) 0.48217(18)
C3 C 0.1291(3) 0.3391(5) 0.52012(18)
C4 C 0.1298(4) 0.3726(5) 0.58123(19)
H3 H 0.1059 0.2967 0.6057
C5 C 0.1658(3) 0.5199(5) 0.60892(19)
C6 C 0.1643(4) 0.5585(5) 0.67244(19)
C7 C 0.1954(4) 0.7031(5) 0.69708(19)
C8 C 0.2364(4) 0.8150(5) 0.6608(2)
C9 C 0.2405(4) 0.7819(5) 0.59968(19)
H4 H 0.2668 0.8570 0.5759
C10 C 0.2048(3) 0.6339(4) 0.57255(17)
C11 C 0.1674(4) 0.4074(6) 0.4150(2)
H5 H 0.0954 0.4287 0.3872
H6 H 0.1844 0.2978 0.4128
H7 H 0.2228 0.4689 0.4021
C12 C 0.0862(4) 0.1773(6) 0.4932(2)
H8 H 0.0219 0.1907 0.4581
H9 H 0.0663 0.1163 0.5259
H10 H 0.1436 0.1240 0.4788
C13 C 0.1824(8) 0.3750(11) 0.7535(3)
H11 H 0.2363 0.3142 0.7389
H12 H 0.1379 0.3064 0.7722
H13 H 0.2202 0.4494 0.7848
C14 C 0.3340(6) 1.0560(6) 0.6671(3)
H14 H 0.2879 1.1080 0.6306
H15 H 0.3915 0.9982 0.6546
H16 H 0.3673 1.1326 0.6986
C15 C 0.2452(3) 0.7126(5) 0.46764(17)
C16 C 0.1656(3) 0.7972(4) 0.42243(17)
H17 H 0.0901 0.7822 0.4191
C17 C 0.1996(4) 0.9023(5) 0.38293(18)
C18 C 0.3099(4) 0.9264(6) 0.3870(2)
C19 C 0.3900(4) 0.8456(6) 0.4328(2)
C20 C 0.3558(4) 0.7381(5) 0.4727(2)
H18 H 0.4090 0.6833 0.5030
C21 C 0.0137(4) 0.9762(6) 0.3311(2)
H19 H -0.0267 1.0421 0.2971
H20 H -0.0033 1.0064 0.3703
H21 H -0.0075 0.8686 0.3217
C22 C 0.5836(5) 0.8036(8) 0.4798(3)
H22 H 0.5806 0.6925 0.4720
H23 H 0.5729 0.8239 0.5214
H24 H 0.6550 0.8433 0.4774
loop_
_geom_bond_atom_site_label_1
_geom_bond_atom_site_label_2
_geom_bond_site_symmetry_1
_geom_bond_site_symmetry_2
O1 C6 1_555 1_555
O2 H1 1_555 1_555
O3 C8 1_555 1_555
O4 C17 1_555 1_555
O5 H2 1_555 1_555
O6 C19 1_555 1_555
C1 C2 1_555 1_555
C2 C3 1_555 1_555
C3 C4 1_555 1_555
C4 H3 1_555 1_555
C5 C4 1_555 1_555
C6 C5 1_555 1_555
C7 O2 1_555 1_555
C8 C7 1_555 1_555
C9 C8 1_555 1_555
H4 C9 1_555 1_555
C10 C1 1_555 1_555
C11 C2 1_555 1_555
H5 C11 1_555 1_555
H6 C11 1_555 1_555
H7 C11 1_555 1_555
C12 C3 1_555 1_555
H8 C12 1_555 1_555
H9 C12 1_555 1_555
H10 C12 1_555 1_555
C13 O1 1_555 1_555
H11 C13 1_555 1_555
H12 C13 1_555 1_555
H13 C13 1_555 1_555
C14 O3 1_555 1_555
H14 C14 1_555 1_555
H15 C14 1_555 1_555
H16 C14 1_555 1_555
C15 C1 1_555 1_555
C16 C15 1_555 1_555
H17 C16 1_555 1_555
C17 C16 1_555 1_555
C18 O5 1_555 1_555
C19 C18 1_555 1_555
C20 C15 1_555 1_555
H18 C20 1_555 1_555
C21 O4 1_555 1_555
H19 C21 1_555 1_555
H20 C21 1_555 1_555
H21 C21 1_555 1_555
C22 O6 1_555 1_555
H22 C22 1_555 1_555
H23 C22 1_555 1_555
H24 C22 1_555 1_555
C5 C10 1_555 1_555
C6 C7 1_555 1_555
C9 C10 1_555 1_555
C17 C18 1_555 1_555
C19 C20 1_555 1_555

#END
