
#######################################################################
#
#                 Cambridge Crystallographic Data Centre
#                                CCDC 
#
#######################################################################
#
# If this CIF has been generated from an entry in the Cambridge 
# Structural Database, then it will include bibliographic, chemical, 
# crystal, experimental, refinement or atomic coordinate data resulting 
# from the CCDC's data processing and validation procedures.
#
#######################################################################

data_RESBAT
_chemical_formula_moiety         'C24 H26 N4 Se2'
_chemical_name_systematic        bis(1-mesitylimidazol-2-yl)diselenide
_symmetry_cell_setting           monoclinic
_symmetry_space_group_name_H-M   'P 21/n'
_symmetry_Int_Tables_number      14
_space_group_name_Hall           '-P 2yn'
loop_
_symmetry_equiv_pos_site_id
_symmetry_equiv_pos_as_xyz
1 x,y,z
2 1/2-x,1/2+y,1/2-z
3 -x,-y,-z
4 1/2+x,1/2-y,1/2+z
_cell_length_a                   9.6415(7)
_cell_length_b                   15.6136(12)
_cell_length_c                   16.0959(12)
_cell_angle_alpha                90
_cell_angle_beta                 102.7760(10)
_cell_angle_gamma                90
_cell_volume                     2363.06
_exptl_crystal_colour            orange
_exptl_crystal_description       block
_cell_formula_units_Z            4
loop_
_atom_site_label
_atom_site_type_symbol
_atom_site_fract_x
_atom_site_fract_y
_atom_site_fract_z
Se1 Se 0.22123(3) 0.115664(17) 0.024948(16)
Se2 Se 0.45075(3) 0.150938(19) 0.097803(17)
C1 C 0.1017(3) 0.19156(16) 0.06881(15)
C2 C -0.0574(3) 0.2840(2) 0.07365(19)
H1 H -0.1252 0.3267 0.0575
C3 C -0.0253(3) 0.24688(18) 0.15186(19)
H2 H -0.0647 0.2597 0.1981
N1 N 0.0234(2) 0.25019(15) 0.02188(15)
N2 N 0.0768(2) 0.18677(14) 0.14887(12)
C4 C 0.4855(3) 0.25409(16) 0.04345(16)
C5 C 0.5469(3) 0.38158(19) 0.0255(2)
H3 H 0.5747 0.4382 0.0367
C6 C 0.5282(3) 0.34422(17) -0.0514(2)
H4 H 0.5393 0.3696 -0.1018
N3 N 0.5195(3) 0.32535(15) 0.08560(16)
N4 N 0.4894(2) 0.26081(12) -0.04057(13)
C7 C 0.1400(3) 0.13046(16) 0.21717(15)
C8 C 0.0837(3) 0.04863(18) 0.21947(17)
C9 C 0.1430(3) -0.00377(19) 0.28773(18)
H5 H 0.1070 -0.0587 0.2904
C10 C 0.2546(3) 0.0237(2) 0.35197(18)
C11 C 0.3082(3) 0.1052(2) 0.34734(17)
H6 H 0.3843 0.1233 0.3899
C12 C 0.2517(3) 0.16092(17) 0.28082(16)
C13 C -0.0375(3) 0.0175(2) 0.15061(19)
H7 H -0.0649 0.0618 0.1088
H8 H -0.1169 0.0033 0.1750
H9 H -0.0083 -0.0323 0.1241
C14 C 0.3156(4) -0.0351(3) 0.4262(2)
H10 H 0.3919 -0.0065 0.4646
H11 H 0.3510 -0.0864 0.4052
H12 H 0.2426 -0.0496 0.4557
C15 C 0.3076(3) 0.25087(18) 0.27842(19)
H13 H 0.3839 0.2601 0.3271
H14 H 0.2326 0.2910 0.2793
H15 H 0.3420 0.2587 0.2273
C16 C 0.4548(3) 0.19651(15) -0.10594(15)
C17 C 0.3228(3) 0.19967(16) -0.16221(15)
C18 C 0.2916(3) 0.13620(18) -0.22363(17)
H16 H 0.2034 0.1369 -0.2615
C19 C 0.3867(3) 0.07196(17) -0.23061(17)
C20 C 0.5183(3) 0.07229(17) -0.17477(16)
H17 H 0.5840 0.0302 -0.1801
C21 C 0.5555(3) 0.13345(16) -0.11109(16)
C22 C 0.2175(3) 0.2691(2) -0.1572(2)
H18 H 0.2568 0.3072 -0.1112
H19 H 0.1316 0.2441 -0.1474
H20 H 0.1968 0.3005 -0.2098
C23 C 0.3492(4) 0.0036(2) -0.2988(2)
H21 H 0.4275 -0.0354 -0.2941
H22 H 0.3299 0.0301 -0.3540
H23 H 0.2666 -0.0271 -0.2914
C24 C 0.6986(3) 0.13110(19) -0.05088(19)
H24 H 0.7521 0.0834 -0.0648
H25 H 0.6865 0.1250 0.0065
H26 H 0.7487 0.1833 -0.0558
loop_
_geom_bond_atom_site_label_1
_geom_bond_atom_site_label_2
_geom_bond_site_symmetry_1
_geom_bond_site_symmetry_2
Se1 Se2 1_555 1_555
Se2 C4 1_555 1_555
C1 Se1 1_555 1_555
C2 H1 1_555 1_555
C3 C2 1_555 1_555
H2 C3 1_555 1_555
N1 C1 1_555 1_555
N2 C1 1_555 1_555
C4 N3 1_555 1_555
C5 H3 1_555 1_555
C6 C5 1_555 1_555
H4 C6 1_555 1_555
N3 C5 1_555 1_555
N4 C4 1_555 1_555
C7 N2 1_555 1_555
C8 C7 1_555 1_555
C9 C8 1_555 1_555
H5 C9 1_555 1_555
C10 C9 1_555 1_555
C11 C10 1_555 1_555
H6 C11 1_555 1_555
C12 C7 1_555 1_555
C13 C8 1_555 1_555
H7 C13 1_555 1_555
H8 C13 1_555 1_555
H9 C13 1_555 1_555
C14 C10 1_555 1_555
H10 C14 1_555 1_555
H11 C14 1_555 1_555
H12 C14 1_555 1_555
C15 C12 1_555 1_555
H13 C15 1_555 1_555
H14 C15 1_555 1_555
H15 C15 1_555 1_555
C16 N4 1_555 1_555
C17 C16 1_555 1_555
C18 C17 1_555 1_555
H16 C18 1_555 1_555
C19 C18 1_555 1_555
C20 C19 1_555 1_555
H17 C20 1_555 1_555
C21 C16 1_555 1_555
C22 C17 1_555 1_555
H18 C22 1_555 1_555
H19 C22 1_555 1_555
H20 C22 1_555 1_555
C23 C19 1_555 1_555
H21 C23 1_555 1_555
H22 C23 1_555 1_555
H23 C23 1_555 1_555
C24 C21 1_555 1_555
H24 C24 1_555 1_555
H25 C24 1_555 1_555
H26 C24 1_555 1_555
C2 N1 1_555 1_555
C3 N2 1_555 1_555
C6 N4 1_555 1_555
C11 C12 1_555 1_555
C20 C21 1_555 1_555

#END
