
#######################################################################
#
#                 Cambridge Crystallographic Data Centre
#                                CCDC 
#
#######################################################################
#
# If this CIF has been generated from an entry in the Cambridge 
# Structural Database, then it will include bibliographic, chemical, 
# crystal, experimental, refinement or atomic coordinate data resulting 
# from the CCDC's data processing and validation procedures.
#
#######################################################################

data_RESDOK
_chemical_formula_moiety         'C25 H36 O2 S2'
_chemical_name_systematic        
4-(2-Ethylhexyl)-4-octyl-2H-thieno[3',2':4,5]cyclopenta[1,2-b]thiophene-2,6(4H)-dione
_symmetry_cell_setting           monoclinic
_symmetry_space_group_name_H-M   'C 2/c'
_symmetry_Int_Tables_number      15
_space_group_name_Hall           '-C 2yn'
loop_
_symmetry_equiv_pos_site_id
_symmetry_equiv_pos_as_xyz
1 x,y,z
2 -x,y,1/2-z
3 1/2+x,1/2+y,z
4 1/2-x,1/2+y,1/2-z
5 -x,-y,-z
6 x,-y,1/2+z
7 1/2-x,1/2-y,-z
8 1/2+x,1/2-y,1/2+z
_cell_length_a                   30.524(3)
_cell_length_b                   18.7100(8)
_cell_length_c                   8.9847(7)
_cell_angle_alpha                90
_cell_angle_beta                 101.567(9)
_cell_angle_gamma                90
_cell_volume                     5026.99
_exptl_crystal_colour            yellow
_exptl_crystal_description       plate
_cell_formula_units_Z            8
loop_
_atom_site_label
_atom_site_type_symbol
_atom_site_fract_x
_atom_site_fract_y
_atom_site_fract_z
S1 S 0.319868(9) 0.222141(11) 1.23777(2)
C1 C 0.32664(3) 0.12535(5) 1.27187(9)
C2 C 0.32713(3) 0.08956(5) 1.12828(10)
H1 H 0.3312 0.0395 1.1204
C3 C 0.32135(3) 0.13356(4) 1.00841(10)
C4 C 0.31975(3) 0.12466(4) 0.84018(9)
C5 C 0.30995(3) 0.20179(4) 0.78830(9)
C6 C 0.30159(3) 0.23422(4) 0.65309(10)
H2 H 0.3003 0.2099 0.5595
C7 C 0.29468(3) 0.31187(5) 0.66475(10)
S2 S 0.301093(9) 0.336219(11) 0.86565(2)
C8 C 0.30971(3) 0.24766(4) 0.91753(9)
C9 C 0.31607(3) 0.20863(4) 1.04560(9)
O1 O 0.33016(3) 0.10105(3) 1.39717(7)
O2 O 0.28635(3) 0.35560(3) 0.56536(7)
C10 C 0.28228(3) 0.07315(4) 0.76624(10)
H3 H 0.2818 0.0715 0.6558
H4 H 0.2900 0.0246 0.8072
C11 C 0.23557(3) 0.09098(4) 0.78829(10)
H5 H 0.2261 0.1371 0.7377
H6 H 0.2361 0.0969 0.8982
C12 C 0.20150(3) 0.03382(5) 0.72490(11)
H7 H 0.2098 -0.0112 0.7815
H8 H 0.2030 0.0250 0.6174
C13 C 0.15338(3) 0.05303(7) 0.73371(16)
H9 H 0.1536 0.0668 0.8402
H10 H 0.1454 0.0965 0.6712
C14 C 0.120522(6) -0.061428(9) 0.79713(3)
C15 C 0.076896(6) -0.097604(9) 0.80678(3)
C16 C 0.066896(10) -0.162048(9) 0.70461(4)
C17 C 0.36490(3) 0.09736(5) 0.80846(10)
H11 H 0.3683 0.0466 0.8401
H12 H 0.3632 0.0987 0.6973
C18 C 0.40725(4) 0.13701(8) 0.88439(17)
H13 H 0.4020 0.1545 0.9846
C19 C 0.41807(6) 0.20130(9) 0.79919(15)
H14 H 0.4449 0.2241 0.8609
H15 H 0.3931 0.2356 0.7931
C20 C 0.42647(6) 0.19133(9) 0.64099(15)
H16 H 0.4520 0.1582 0.6467
H17 H 0.3999 0.1677 0.5791
C21 C 0.44528(5) 0.08435(9) 0.9181(2)
H18 H 0.4464 0.0584 0.8229
H19 H 0.4734 0.1118 0.9462
C22 C 0.44458(9) 0.02977(13) 1.0402(3)
H20 H 0.4628 -0.0115 1.0236
H21 H 0.4137 0.0143 1.0370
H22 H 0.4568 0.0509 1.1397
C23 C 0.115490(11) 0.000233(9) 0.68716(3)
C24 C 0.44467(10) 0.2397(2) 0.40061(19)
H23 H 0.4547 0.2828 0.3554
H24 H 0.4170 0.2223 0.3361
H25 H 0.4678 0.2027 0.4091
C25 C 0.43617(8) 0.25727(10) 0.55848(17)
C26? C 0.40713(9) 0.1351(3) 0.8581(2)
H26? H 0.3946 0.1845 0.8422
C27? C 0.44315(10) 0.14460(13) 0.7675(3)
H27? H 0.4491 0.0989 0.7197
H28? H 0.4712 0.1614 0.8336
C28? C 0.42556(18) 0.19970(9) 0.6481(3)
H29? H 0.4463 0.2021 0.5765
H30? H 0.3964 0.1827 0.5899
C29? C 0.41929(7) 0.27419(10) 0.7025(5)
H31? H 0.4016 0.2723 0.7835
H32? H 0.4023 0.3027 0.6174
C30? C 0.46380(8) 0.31063(19) 0.7637(8)
H33? H 0.4878 0.2749 0.7798
H34? H 0.4627 0.3341 0.8603
H35? H 0.4697 0.3464 0.6904
C31? C 0.43060(16) 0.14545(16) 1.0195(3)
H36? H 0.4607 0.1647 1.0179
H37? H 0.4142 0.1830 1.0638
C32? C 0.4365(2) 0.08356(16) 1.1259(3)
H38? H 0.4158 0.0453 1.0836
H39? H 0.4303 0.0987 1.2241
H40? H 0.4673 0.0660 1.1400
H41? H 0.0716 0.0728 0.6393
H42? H 0.0258 -0.0048 0.5159
H43? H 0.0615 0.0401 0.6003
H44? H 0.0460 -0.0700 0.4461
H45? H 0.0174 -0.1307 0.5082
H46? H 0.0965 0.0596 0.5687
H47? H 0.1324 0.0051 0.5267
H48? H 0.0414 -0.1431 0.3649
H49? H 0.0342 -0.0598 0.3927
H50? H 0.0186 -0.1180 0.5018
H51? H 0.0570 -0.2016 0.7613
H52? H 0.0683 -0.2089 0.8172
H53? H 0.0641 -0.1423 0.9253
H54? H 0.4105 0.2905 0.5486
H55? H 0.0865 0.0245 0.6852
H56? H 0.1156 -0.0178 0.5837
H57? H 0.1347 -0.0438 0.8994
H58? H 0.1409 -0.0972 0.7663
H59? H 0.0779 -0.1126 0.9131
H60? H 0.0433 -0.1502 0.6171
H61? H 0.0940 -0.1762 0.6691
H62? H 0.1612 -0.0558 0.7301
H63? H 0.0736 -0.0027 0.7296
H64? H 0.1061 -0.0365 0.8741
H65? H 0.1123 -0.1679 0.9021
H66? H 0.1227 -0.0244 0.8396
H67? H 0.0095 -0.0185 0.6719
H68? H 0.0399 -0.1244 0.7002
H69? H 0.0840 -0.0986 0.6453
H70? H 0.1239 -0.0179 0.5670
H71? H 0.1324 -0.0520 0.7336
H72? H 0.0741 0.0316 0.7809
H73? H 0.0561 -0.0893 0.7630
H74? H 0.0143 -0.0440 0.6758
H75? H 0.0616 -0.0234 0.6634
H76? H 0.1068 -0.0575 0.7571
H77? H 0.1098 -0.0990 0.4832
H78? H 0.1284 -0.0258 0.5814
H79? H 0.0456 -0.1068 0.6697
H80? H 0.0932 -0.1339 0.6438
H81? H 0.1195 -0.0400 0.6626
H82? H 0.0632 0.0452 0.7996
H83? H 0.0401 -0.1187 0.5227
H84? H 0.0708 -0.1341 0.5473
H85? H 0.0919 -0.1478 0.6047
H86? H 0.0522 -0.0627 0.7791
C33? C 0.097046(6) -0.039162(8) 0.76207(3)
C34? C 0.077462(8) -0.112261(8) 0.71893(2)
C35? C 0.08085(2) -0.162220(9) 0.85262(2)
C36? C 0.071215(6) 0.029758(8) 0.70313(5)
C37? C 0.035625(5) -0.020802(9) 0.62239(5)
C38? C 0.051281(17) -0.097314(7) 0.62269(9)
C39? C 0.074456(5) 0.007029(8) 0.68355(4)
C40? C 0.045291(6) -0.058806(10) 0.67314(2)
C41? C 0.04484(2) -0.102182(10) 0.53124(2)
C42? C 0.117864(9) 0.021261(8) 0.61003(5)
C43? C 0.091692(8) -0.040504(9) 0.65533(2)
C44? C 0.086647(7) -0.102730(8) 0.54590(3)
C45? C 0.041211(7) -0.10622(2) 0.44223(3)
C46? C 0.117486(5) -0.00207(2) 0.73770(10)
C47? C 0.122266(4) -0.00841(2) 0.67411(7)
C48? C 0.136836(5) -0.021304(14) 0.69328(3)
H87? H 0.4628 0.2815 0.6184
loop_
_geom_bond_atom_site_label_1
_geom_bond_atom_site_label_2
_geom_bond_site_symmetry_1
_geom_bond_site_symmetry_2
S1 C1 1_555 1_555
C1 C2 1_555 1_555
C2 H1 1_555 1_555
C3 C2 1_555 1_555
C4 C3 1_555 1_555
C5 C4 1_555 1_555
C6 C5 1_555 1_555
H2 C6 1_555 1_555
C7 C6 1_555 1_555
S2 C7 1_555 1_555
C8 C5 1_555 1_555
C9 S1 1_555 1_555
O1 C1 1_555 1_555
O2 C7 1_555 1_555
C10 C4 1_555 1_555
H3 C10 1_555 1_555
H4 C10 1_555 1_555
C11 C10 1_555 1_555
H5 C11 1_555 1_555
H6 C11 1_555 1_555
C12 C11 1_555 1_555
H7 C12 1_555 1_555
H8 C12 1_555 1_555
C13 C12 1_555 1_555
H9 C13 1_555 1_555
H10 C13 1_555 1_555
C14 C15 1_555 1_555
C15 C16 1_555 1_555
C17 C4 1_555 1_555
H11 C17 1_555 1_555
H12 C17 1_555 1_555
C18 C17 1_555 1_555
H13 C18 1_555 1_555
C19 C18 1_555 1_555
H14 C19 1_555 1_555
H15 C19 1_555 1_555
C20 C19 1_555 1_555
H16 C20 1_555 1_555
H17 C20 1_555 1_555
C21 C18 1_555 1_555
H18 C21 1_555 1_555
H19 C21 1_555 1_555
C22 C21 1_555 1_555
H20 C22 1_555 1_555
H21 C22 1_555 1_555
H22 C22 1_555 1_555
C23 C13 1_555 1_555
C24 H23 1_555 1_555
H24 C24 1_555 1_555
H25 C24 1_555 1_555
C25 C20 1_555 1_555
C3 C9 1_555 1_555
S2 C8 1_555 1_555
C8 C9 1_555 1_555
C14 C23 1_555 1_555
C24 C25 1_555 1_555

#END
