
#######################################################################
#
#                 Cambridge Crystallographic Data Centre
#                                CCDC 
#
#######################################################################
#
# If this CIF has been generated from an entry in the Cambridge 
# Structural Database, then it will include bibliographic, chemical, 
# crystal, experimental, refinement or atomic coordinate data resulting 
# from the CCDC's data processing and validation procedures.
#
#######################################################################

data_RESDIF
_chemical_formula_moiety         'C18 H17 N2 P1 S1'
_chemical_name_systematic        
'P,P-diphenyl-N-[(pyridin-2-yl)methyl]phosphinothioic amide'
_symmetry_cell_setting           monoclinic
_symmetry_space_group_name_H-M   'P 21/c'
_symmetry_Int_Tables_number      14
_space_group_name_Hall           '-P 2ybc'
loop_
_symmetry_equiv_pos_site_id
_symmetry_equiv_pos_as_xyz
1 x,y,z
2 -x,1/2+y,1/2-z
3 -x,-y,-z
4 x,1/2-y,1/2+z
_cell_length_a                   12.1693(3)
_cell_length_b                   9.1689(2)
_cell_length_c                   18.1198(5)
_cell_angle_alpha                90
_cell_angle_beta                 124.371(2)
_cell_angle_gamma                90
_cell_volume                     1668.78
_exptl_crystal_colour            colorless
_exptl_crystal_description       block
_cell_formula_units_Z            4
loop_
_atom_site_label
_atom_site_type_symbol
_atom_site_fract_x
_atom_site_fract_y
_atom_site_fract_z
S1 S -0.09826(5) 0.15266(6) -0.63871(4)
P1 P -0.18784(5) -0.02535(5) -0.64003(3)
N1 N -0.20313(17) -0.05455(19) -0.55606(11)
H1 H -0.1734 -0.1340 -0.5257
N2 N -0.3275(3) 0.0979(3) -0.42840(17)
C1 C -0.10701(18) -0.1910(2) -0.64000(12)
C2 C -0.35762(19) -0.0321(2) -0.73911(13)
C3 C -0.0254(2) -0.1879(3) -0.67088(16)
H2 H -0.0089 -0.1004 -0.6889
C4 C -0.1281(3) -0.3225(2) -0.61188(17)
H3 H -0.1824 -0.3253 -0.5910
C5 C -0.3910(3) 0.0455(3) -0.81531(16)
H4 H -0.3276 0.1032 -0.8147
C6 C -0.4536(2) -0.1177(3) -0.74093(16)
H5 H -0.4316 -0.1701 -0.6904
C7 C -0.2673(2) 0.0550(2) -0.53354(14)
H6 H -0.3505 0.0851 -0.5876
H7 H -0.2103 0.1401 -0.5084
C8 C 0.0318(3) -0.3176(4) -0.6747(2)
H8 H 0.0850 -0.3165 -0.6965
C9 C -0.0692(3) -0.4496(3) -0.6146(2)
H9 H -0.0832 -0.5371 -0.5951
C10 C -0.5192(3) 0.0360(3) -0.89211(19)
H10 H -0.5415 0.0866 -0.9433
C11 C -0.5816(2) -0.1253(3) -0.81743(19)
H11 H -0.6456 -0.1820 -0.8181
C12 C -0.2947(2) -0.0028(2) -0.46747(13)
C13 C 0.0101(3) -0.4459(3) -0.6464(2)
H12 H 0.0492 -0.5313 -0.6487
C14 C -0.6140(3) -0.0485(3) -0.8927(2)
H13 H -0.7000 -0.0536 -0.9442
C15 C -0.2862(2) -0.1461(3) -0.44944(16)
H14 H -0.2617 -0.2128 -0.4763
C16 C -0.3154(3) -0.1909(4) -0.3895(2)
H15 H -0.3116 -0.2896 -0.3765
C17 C -0.3542(3) 0.0484(4) -0.3694(2)
H16 H -0.3769 0.1159 -0.3418
C18 C -0.3494(3) -0.0936(4) -0.34894(17)
H17 H -0.3687 -0.1241 -0.3085
loop_
_geom_bond_atom_site_label_1
_geom_bond_atom_site_label_2
_geom_bond_site_symmetry_1
_geom_bond_site_symmetry_2
S1 P1 1_555 1_555
P1 N1 1_555 1_555
N1 H1 1_555 1_555
N2 C12 1_555 1_555
C1 P1 1_555 1_555
C2 P1 1_555 1_555
C3 C1 1_555 1_555
H2 C3 1_555 1_555
C4 C1 1_555 1_555
H3 C4 1_555 1_555
C5 C2 1_555 1_555
H4 C5 1_555 1_555
C6 C2 1_555 1_555
H5 C6 1_555 1_555
C7 N1 1_555 1_555
H6 C7 1_555 1_555
H7 C7 1_555 1_555
C8 C3 1_555 1_555
H8 C8 1_555 1_555
C9 C4 1_555 1_555
H9 C9 1_555 1_555
C10 C5 1_555 1_555
H10 C10 1_555 1_555
C11 C6 1_555 1_555
H11 C11 1_555 1_555
C12 C7 1_555 1_555
C13 C8 1_555 1_555
H12 C13 1_555 1_555
C14 C10 1_555 1_555
H13 C14 1_555 1_555
C15 C12 1_555 1_555
H14 C15 1_555 1_555
C16 C15 1_555 1_555
H15 C16 1_555 1_555
C17 N2 1_555 1_555
H16 C17 1_555 1_555
C18 C16 1_555 1_555
H17 C18 1_555 1_555
C9 C13 1_555 1_555
C11 C14 1_555 1_555
C17 C18 1_555 1_555

#END
