
#######################################################################
#
#                 Cambridge Crystallographic Data Centre
#                                CCDC 
#
#######################################################################
#
# If this CIF has been generated from an entry in the Cambridge 
# Structural Database, then it will include bibliographic, chemical, 
# crystal, experimental, refinement or atomic coordinate data resulting 
# from the CCDC's data processing and validation procedures.
#
#######################################################################

data_RESGAA
_chemical_formula_moiety         'C44 H48 Ba1 N4 O2 P2 Se2,C7 H8'
_chemical_name_systematic        
'bis{(diphenylphosphoroselenoyl)[(pyridin-2-yl)methyl]amido}-bis(tetrahydrofuran)-barium(ii) toluene solvate'
_symmetry_cell_setting           monoclinic
_symmetry_space_group_name_H-M   'P 21/c'
_symmetry_Int_Tables_number      14
_space_group_name_Hall           '-P 2ybc'
loop_
_symmetry_equiv_pos_site_id
_symmetry_equiv_pos_as_xyz
1 x,y,z
2 -x,1/2+y,1/2-z
3 -x,-y,-z
4 x,1/2-y,1/2+z
_cell_length_a                   17.3559(5)
_cell_length_b                   10.1427(2)
_cell_length_c                   31.2423(14)
_cell_angle_alpha                90
_cell_angle_beta                 116.509(3)
_cell_angle_gamma                90
_cell_volume                     4921.54
_exptl_crystal_colour            colorless
_exptl_crystal_description       needle
_cell_formula_units_Z            4
loop_
_atom_site_label
_atom_site_type_symbol
_atom_site_fract_x
_atom_site_fract_y
_atom_site_fract_z
Ba1 Ba 0.19959(3) 0.50565(5) 0.96451(2)
Se1 Se 0.13352(6) 0.23346(10) 0.89258(3)
Se2 Se 0.17158(6) 0.70252(12) 1.04518(4)
P1 P 0.16352(12) 0.3653(2) 0.84857(7)
P2 P 0.30803(13) 0.6742(3) 1.07969(8)
O1 O 0.0271(4) 0.5907(8) 0.9142(3)
O2 O 0.1622(5) 0.3141(8) 1.0165(3)
N1 N 0.2319(4) 0.7372(8) 0.9229(3)
N2 N 0.2020(5) 0.4990(7) 0.8774(3)
N3 N 0.3668(4) 0.3854(8) 1.0002(2)
N4 N 0.3386(4) 0.5976(8) 1.0452(2)
C1 C 0.2526(6) 0.8519(10) 0.9487(3)
H1 H 0.241981 0.855747 0.975323
C2 C 0.2872(6) 0.9600(10) 0.9388(3)
H2 H 0.297905 1.036268 0.957076
C3 C 0.3062(6) 0.9522(9) 0.8997(3)
H3 H 0.332272 1.022801 0.892299
C4 C 0.2862(5) 0.8404(11) 0.8728(3)
H4 H 0.297635 0.834499 0.846445
C5 C 0.2479(5) 0.7335(8) 0.8852(3)
C6 C 0.2200(6) 0.6107(10) 0.8533(3)
H5 H 0.168747 0.630973 0.824115
H6 H 0.265186 0.586185 0.844616
C7 C 0.2383(5) 0.2830(10) 0.8308(3)
C8 C 0.3270(5) 0.3107(10) 0.8562(3)
H7 H 0.345795 0.376378 0.879442
C9 C 0.3863(5) 0.2411(10) 0.8469(3)
H8 H 0.444719 0.259836 0.863899
C10 C 0.3592(6) 0.1441(11) 0.8124(3)
H9 H 0.399233 0.096678 0.806404
C11 C 0.2710(6) 0.1169(11) 0.7864(3)
H10 H 0.252517 0.052299 0.762756
C12 C 0.2123(6) 0.1855(11) 0.7957(3)
H11 H 0.153988 0.166790 0.778236
C13 C 0.0695(5) 0.3885(9) 0.7908(3)
C14 C 0.0803(6) 0.4586(10) 0.7552(3)
H12 H 0.134768 0.488007 0.760772
C15 C 0.0094(6) 0.4844(10) 0.7112(3)
H13 H 0.016550 0.530903 0.687596
C16 C -0.0707(6) 0.4409(11) 0.7032(3)
H14 H -0.118043 0.458465 0.674116
C17 C -0.0814(6) 0.3709(11) 0.7383(3)
H15 H -0.135586 0.339521 0.732426
C18 C -0.0111(5) 0.3475(10) 0.7821(3)
H16 H -0.019096 0.303361 0.805915
C19 C -0.0441(7) 0.5030(11) 0.8885(4)
H17 H -0.076672 0.487667 0.906396
H18 H -0.023540 0.418974 0.882812
C20 C -0.0989(8) 0.5705(17) 0.8420(5)
H19 H -0.113116 0.510508 0.815322
H20 H -0.151966 0.602341 0.841564
C21 C -0.0483(15) 0.677(2) 0.8392(7)
H21 H -0.084709 0.753040 0.824402
H22 H -0.019374 0.652659 0.820092
C22 C 0.0137(7) 0.7095(14) 0.8869(6)
H23 H 0.067143 0.738625 0.887164
H24 H -0.007842 0.779087 0.899938
C23 C 0.3790(5) 0.2849(10) 0.9751(3)
H25 H 0.330801 0.249844 0.949701
C24 C 0.4563(6) 0.2328(10) 0.9846(3)
H26 H 0.460782 0.163564 0.966361
C25 C 0.5296(6) 0.2846(10) 1.0225(3)
H27 H 0.584087 0.251723 1.029914
C26 C 0.5185(6) 0.3863(10) 1.0486(3)
H28 H 0.565773 0.423181 1.074153
C27 C 0.4369(5) 0.4327(10) 1.0366(3)
C28 C 0.4262(5) 0.5438(11) 1.0654(3)
H29 H 0.441612 0.512312 1.097563
H30 H 0.465768 0.614071 1.067803
C29 C 0.3427(6) 0.5788(12) 1.1355(3)
C30 C 0.2980(8) 0.4663(12) 1.1336(4)
H31 H 0.246618 0.449006 1.106686
C31 C 0.3279(9) 0.3785(14) 1.1711(5)
H32 H 0.296940 0.302255 1.169451
C32 C 0.4044(11) 0.4045(17) 1.2112(5)
H33 H 0.424456 0.345361 1.236622
C33 C 0.4510(10) 0.5162(16) 1.2140(4)
H34 H 0.502799 0.532030 1.240859
C34 C 0.4195(7) 0.6064(13) 1.1759(4)
H35 H 0.449504 0.683721 1.177555
C35 C 0.3594(5) 0.8331(10) 1.0982(3)
C36 C 0.3994(5) 0.8908(10) 1.0726(3)
H36 H 0.402925 0.843521 1.048041
C37 C 0.4344(7) 1.0178(12) 1.0831(4)
H37 H 0.459767 1.055535 1.065409
C38 C 0.4304(7) 1.0865(13) 1.1206(4)
H38 H 0.454577 1.170157 1.128505
C39 C 0.3917(8) 1.0327(12) 1.1457(4)
H39 H 0.388860 1.080770 1.170294
C40 C 0.3562(6) 0.9070(11) 1.1354(3)
H40 H 0.330158 0.871631 1.153139
C41 C 0.0756(9) 0.2923(14) 1.0077(6)
H41 H 0.036806 0.320718 0.975536
H42 H 0.062814 0.342552 1.030127
C42 C 0.0641(10) 0.1525(17) 1.0130(8)
H43 H 0.044529 0.137191 1.037228
H44 H 0.023155 0.114050 0.983048
C43 C 0.1447(13) 0.102(2) 1.0268(11)
H45 H 0.162111 0.057953 1.057201
H46 H 0.141256 0.036212 1.003621
C44 C 0.2077(14) 0.1897(19) 1.0316(12)
H47 H 0.234520 0.165512 1.011309
H48 H 0.251626 0.194256 1.064510
C45 C 0.1858(12) 0.597(3) 0.6764(7)
C46 C 0.2335(16) 0.494(2) 0.7067(9)
H49 H 0.216077 0.407268 0.697950
C47 C 0.3070(15) 0.519(3) 0.7497(9)
H50 H 0.336977 0.448483 0.769043
C48 C 0.336(2) 0.647(4) 0.7642(11)
H51 H 0.384435 0.662631 0.793029
C49 C 0.292(2) 0.747(3) 0.7351(13)
H52 H 0.309286 0.833902 0.743426
C50 C 0.2181(17) 0.718(3) 0.6914(11)
H53 H 0.189937 0.788255 0.671528
C51 C 0.1102(16) 0.585(3) 0.6306(9)
H54 H 0.117974 0.636218 0.607055
H55 H 0.060468 0.615403 0.633477
H56 H 0.102303 0.493697 0.620955
loop_
_geom_bond_atom_site_label_1
_geom_bond_atom_site_label_2
_geom_bond_site_symmetry_1
_geom_bond_site_symmetry_2
Ba1 Se1 1_555 1_555
Se1 P1 1_555 1_555
Se2 Ba1 1_555 1_555
P1 N2 1_555 1_555
P2 Se2 1_555 1_555
O1 Ba1 1_555 1_555
O2 Ba1 1_555 1_555
N1 Ba1 1_555 1_555
N2 Ba1 1_555 1_555
N3 Ba1 1_555 1_555
N4 Ba1 1_555 1_555
C1 N1 1_555 1_555
H1 C1 1_555 1_555
C2 C1 1_555 1_555
H2 C2 1_555 1_555
C3 C2 1_555 1_555
H3 C3 1_555 1_555
C4 C3 1_555 1_555
H4 C4 1_555 1_555
C5 N1 1_555 1_555
C6 N2 1_555 1_555
H5 C6 1_555 1_555
H6 C6 1_555 1_555
C7 P1 1_555 1_555
C8 C7 1_555 1_555
H7 C8 1_555 1_555
C9 C8 1_555 1_555
H8 C9 1_555 1_555
C10 C9 1_555 1_555
H9 C10 1_555 1_555
C11 C10 1_555 1_555
H10 C11 1_555 1_555
C12 C7 1_555 1_555
H11 C12 1_555 1_555
C13 P1 1_555 1_555
C14 C13 1_555 1_555
H12 C14 1_555 1_555
C15 C14 1_555 1_555
H13 C15 1_555 1_555
C16 C15 1_555 1_555
H14 C16 1_555 1_555
C17 C16 1_555 1_555
H15 C17 1_555 1_555
C18 C13 1_555 1_555
H16 C18 1_555 1_555
C19 O1 1_555 1_555
H17 C19 1_555 1_555
H18 C19 1_555 1_555
C20 C19 1_555 1_555
H19 C20 1_555 1_555
H20 C20 1_555 1_555
C21 C20 1_555 1_555
H21 C21 1_555 1_555
H22 C21 1_555 1_555
C22 O1 1_555 1_555
H23 C22 1_555 1_555
H24 C22 1_555 1_555
C23 N3 1_555 1_555
H25 C23 1_555 1_555
C24 C23 1_555 1_555
H26 C24 1_555 1_555
C25 C24 1_555 1_555
H27 C25 1_555 1_555
C26 C25 1_555 1_555
H28 C26 1_555 1_555
C27 N3 1_555 1_555
C28 N4 1_555 1_555
H29 C28 1_555 1_555
H30 C28 1_555 1_555
C29 P2 1_555 1_555
C30 C29 1_555 1_555
H31 C30 1_555 1_555
C31 C30 1_555 1_555
H32 C31 1_555 1_555
C32 C31 1_555 1_555
H33 C32 1_555 1_555
C33 C32 1_555 1_555
H34 C33 1_555 1_555
C34 C29 1_555 1_555
H35 C34 1_555 1_555
C35 P2 1_555 1_555
C36 C35 1_555 1_555
H36 C36 1_555 1_555
C37 C36 1_555 1_555
H37 C37 1_555 1_555
C38 C37 1_555 1_555
H38 C38 1_555 1_555
C39 C38 1_555 1_555
H39 C39 1_555 1_555
C40 C35 1_555 1_555
H40 C40 1_555 1_555
C41 O2 1_555 1_555
H41 C41 1_555 1_555
H42 C41 1_555 1_555
C42 C41 1_555 1_555
H43 C42 1_555 1_555
H44 C42 1_555 1_555
C43 C42 1_555 1_555
H45 C43 1_555 1_555
H46 C43 1_555 1_555
C44 O2 1_555 1_555
H47 C44 1_555 1_555
H48 C44 1_555 1_555
C45 C46 1_555 1_555
C46 H49 1_555 1_555
C47 C46 1_555 1_555
H50 C47 1_555 1_555
C48 C47 1_555 1_555
H51 C48 1_555 1_555
C49 C48 1_555 1_555
H52 C49 1_555 1_555
C50 C45 1_555 1_555
H53 C50 1_555 1_555
C51 C45 1_555 1_555
H54 C51 1_555 1_555
H55 C51 1_555 1_555
H56 C51 1_555 1_555
P2 N4 1_555 1_555
C4 C5 1_555 1_555
C5 C6 1_555 1_555
C11 C12 1_555 1_555
C17 C18 1_555 1_555
C21 C22 1_555 1_555
C26 C27 1_555 1_555
C27 C28 1_555 1_555
C33 C34 1_555 1_555
C39 C40 1_555 1_555
C43 C44 1_555 1_555
C49 C50 1_555 1_555

#END
