
#######################################################################
#
#                 Cambridge Crystallographic Data Centre
#                                CCDC 
#
#######################################################################
#
# If this CIF has been generated from an entry in the Cambridge 
# Structural Database, then it will include bibliographic, chemical, 
# crystal, experimental, refinement or atomic coordinate data resulting 
# from the CCDC's data processing and validation procedures.
#
#######################################################################

data_RESJEF
_chemical_formula_moiety         'C24 H24 Br1 F3 N2 O3'
_chemical_name_systematic        
(+-)-2-(4-Methoxybenzyl)-4-(4-bromophenyl)-1-hydroxy-1-(trifluoromethyl)octahydropyrrolo(3,4-a)pyrrolizin-3(2H)-one
_symmetry_cell_setting           monoclinic
_symmetry_space_group_name_H-M   'P 21/n'
_symmetry_Int_Tables_number      14
_space_group_name_Hall           '-P 2yn'
loop_
_symmetry_equiv_pos_site_id
_symmetry_equiv_pos_as_xyz
1 x,y,z
2 1/2-x,1/2+y,1/2-z
3 -x,-y,-z
4 1/2+x,1/2-y,1/2+z
_cell_length_a                   15.3623(3)
_cell_length_b                   9.2961(2)
_cell_length_c                   15.9890(4)
_cell_angle_alpha                90
_cell_angle_beta                 95.092(1)
_cell_angle_gamma                90
_cell_volume                     2274.37
_exptl_crystal_colour            colorless
_cell_formula_units_Z            4
loop_
_atom_site_label
_atom_site_type_symbol
_atom_site_fract_x
_atom_site_fract_y
_atom_site_fract_z
C1 C 0.03830(14) 0.1994(2) 0.38650(12)
N1 N 0.06299(12) 0.07968(18) 0.33531(10)
C2 C 0.13337(14) 0.1094(2) 0.29152(13)
C3 C 0.15921(15) 0.2652(2) 0.30526(13)
H1 H 0.1664 0.3144 0.2507
C4 C 0.08378(14) 0.3321(2) 0.34920(13)
H2 H 0.0429 0.3887 0.3097
C5 C 0.24133(15) 0.2881(2) 0.36873(13)
H3 H 0.2748 0.3714 0.3483
N2 N 0.20439(12) 0.33373(19) 0.44796(11)
C6 C 0.12799(15) 0.4246(2) 0.41857(14)
H4 H 0.0887 0.4376 0.4646
C7 C 0.16705(17) 0.5697(2) 0.39527(17)
H5 H 0.1262 0.6495 0.4040
H6 H 0.1810 0.5701 0.3360
C8 C 0.25046(18) 0.5827(3) 0.45526(17)
H7 H 0.2435 0.6580 0.4980
H8 H 0.3011 0.6076 0.4239
C9 C 0.26366(17) 0.4335(3) 0.49735(16)
H9 H 0.3251 0.4018 0.4966
H10 H 0.2490 0.4373 0.5564
C10 C 0.30425(14) 0.1637(2) 0.38295(13)
C11 C 0.29048(16) 0.0497(2) 0.43630(15)
H11 H 0.2393 0.0485 0.4656
C12 C 0.34969(16) -0.0621(3) 0.44763(15)
H12 H 0.3402 -0.1383 0.4854
C13 C 0.42276(15) -0.0614(3) 0.40337(15)
C14 C 0.43874(16) 0.0507(3) 0.35062(16)
H13 H 0.4897 0.0509 0.3211
C15 C 0.37968(16) 0.1630(3) 0.34109(14)
H14 H 0.3909 0.2411 0.3053
Br1 Br 0.50268(2) -0.21748(3) 0.41595(2)
O1 O 0.16924(11) 0.02102(19) 0.25023(10)
O2 O 0.06161(12) 0.17489(17) 0.47205(9)
H15 H 0.1096(18) 0.208(3) 0.4798(17)
C16 C -0.06059(16) 0.2190(2) 0.38056(14)
F1 F -0.10098(9) 0.11376(16) 0.41802(9)
F2 F -0.09557(9) 0.22657(16) 0.30109(9)
F3 F -0.08135(10) 0.34321(16) 0.41768(10)
C17 C 0.04385(15) -0.0696(2) 0.35689(14)
H16 H 0.0270 -0.0713 0.4152
H17 H 0.0983 -0.1262 0.3559
C18 C -0.02706(14) -0.1442(2) 0.30130(13)
C19 C -0.06418(15) -0.2680(2) 0.33108(14)
H18 H -0.0477 -0.2982 0.3870
C20 C -0.12481(15) -0.3492(2) 0.28144(14)
H19 H -0.1493 -0.4336 0.3033
C21 C -0.14898(14) -0.3057(2) 0.19993(14)
C22 C -0.11330(16) -0.1810(3) 0.16930(14)
H20 H -0.1303 -0.1502 0.1136
C23 C -0.05298(15) -0.1012(2) 0.21959(14)
H21 H -0.0291 -0.0162 0.1979
O3 O -0.20597(11) -0.38008(19) 0.14473(10)
C24 C -0.23211(18) -0.5196(3) 0.17009(17)
H22 H -0.2725 -0.5616 0.1258
H23 H -0.2613 -0.5116 0.2220
H24 H -0.1805 -0.5813 0.1798
loop_
_geom_bond_atom_site_label_1
_geom_bond_atom_site_label_2
_geom_bond_site_symmetry_1
_geom_bond_site_symmetry_2
C1 N1 1_555 1_555
N1 C2 1_555 1_555
C2 C3 1_555 1_555
C3 H1 1_555 1_555
C4 C1 1_555 1_555
H2 C4 1_555 1_555
C5 C3 1_555 1_555
H3 C5 1_555 1_555
N2 C5 1_555 1_555
C6 C4 1_555 1_555
H4 C6 1_555 1_555
C7 C6 1_555 1_555
H5 C7 1_555 1_555
H6 C7 1_555 1_555
C8 C7 1_555 1_555
H7 C8 1_555 1_555
H8 C8 1_555 1_555
C9 N2 1_555 1_555
H9 C9 1_555 1_555
H10 C9 1_555 1_555
C10 C5 1_555 1_555
C11 C10 1_555 1_555
H11 C11 1_555 1_555
C12 C11 1_555 1_555
H12 C12 1_555 1_555
C13 C12 1_555 1_555
C14 C13 1_555 1_555
H13 C14 1_555 1_555
C15 C10 1_555 1_555
H14 C15 1_555 1_555
Br1 C13 1_555 1_555
O1 C2 1_555 1_555
O2 C1 1_555 1_555
H15 O2 1_555 1_555
C16 C1 1_555 1_555
F1 C16 1_555 1_555
F2 C16 1_555 1_555
F3 C16 1_555 1_555
C17 N1 1_555 1_555
H16 C17 1_555 1_555
H17 C17 1_555 1_555
C18 C17 1_555 1_555
C19 C18 1_555 1_555
H18 C19 1_555 1_555
C20 C19 1_555 1_555
H19 C20 1_555 1_555
C21 C20 1_555 1_555
C22 C21 1_555 1_555
H20 C22 1_555 1_555
C23 C18 1_555 1_555
H21 C23 1_555 1_555
O3 C21 1_555 1_555
C24 O3 1_555 1_555
H22 C24 1_555 1_555
H23 C24 1_555 1_555
H24 C24 1_555 1_555
C3 C4 1_555 1_555
N2 C6 1_555 1_555
C8 C9 1_555 1_555
C14 C15 1_555 1_555
C22 C23 1_555 1_555

#END
