
#######################################################################
#
#                 Cambridge Crystallographic Data Centre
#                                CCDC 
#
#######################################################################
#
# If this CIF has been generated from an entry in the Cambridge 
# Structural Database, then it will include bibliographic, chemical, 
# crystal, experimental, refinement or atomic coordinate data resulting 
# from the CCDC's data processing and validation procedures.
#
#######################################################################

data_RESLIM
_chemical_formula_moiety         'C12 H20 O4,0.5(C1 H2 Cl2)'
_chemical_name_systematic        
'7,8-Dihydroxy-10,10-dimethyl-1-oxaspiro[5.5]undecan-2-one dichloromethane solvate'
_symmetry_cell_setting           monoclinic
_symmetry_space_group_name_H-M   'P 21/c'
_symmetry_Int_Tables_number      14
_space_group_name_Hall           '-P 2ybc'
loop_
_symmetry_equiv_pos_site_id
_symmetry_equiv_pos_as_xyz
1 x,y,z
2 -x,1/2+y,1/2-z
3 -x,-y,-z
4 x,1/2-y,1/2+z
_cell_length_a                   9.0166(5)
_cell_length_b                   29.3472(17)
_cell_length_c                   10.9981(6)
_cell_angle_alpha                90
_cell_angle_beta                 108.743(2)
_cell_angle_gamma                90
_cell_volume                     2755.9
_exptl_crystal_colour            colorless
_exptl_crystal_description       prism
_cell_formula_units_Z            8
loop_
_atom_site_label
_atom_site_type_symbol
_atom_site_fract_x
_atom_site_fract_y
_atom_site_fract_z
C1 C 0.8713(3) 0.53564(10) 0.5521(3)
C2 C 1.0016(4) 0.56047(11) 0.6495(3)
H1 H 0.9826 0.5936 0.6369
H2 H 1.1009 0.5536 0.6329
C3 C 1.0220(4) 0.54907(10) 0.7884(3)
H3 H 0.9407 0.5647 0.8158
H4 H 1.1260 0.5594 0.8443
C4 C 1.0075(3) 0.49776(10) 0.8000(3)
H5 H 1.0905 0.4826 0.7738
H6 H 1.0238 0.4898 0.8909
C5 C 0.8488(3) 0.48011(9) 0.7177(3)
C6 C 0.7142(3) 0.49523(9) 0.7667(3)
H7 H 0.7028 0.5291 0.7593
C7 C 0.5600(3) 0.47302(9) 0.6896(3)
H8 H 0.5317 0.4830 0.5980
C8 C 0.5722(3) 0.42150(9) 0.6958(3)
H9 H 0.4695 0.4083 0.6465
H10 H 0.5969 0.4117 0.7862
C9 C 0.6979(3) 0.40275(9) 0.6423(3)
C10 C 0.7248(4) 0.35207(10) 0.6793(3)
H11 H 0.7582 0.3491 0.7730
H12 H 0.8063 0.3398 0.6472
H13 H 0.6272 0.3351 0.6413
C11 C 0.6456(4) 0.40609(10) 0.4955(3)
H14 H 0.5471 0.3894 0.4588
H15 H 0.7262 0.3928 0.4641
H16 H 0.6300 0.4382 0.4697
C12 C 0.8528(3) 0.42811(9) 0.7065(3)
H17 H 0.8989 0.4156 0.7943
H18 H 0.9254 0.4205 0.6585
O1 O 0.8068(2) 0.49847(6) 0.58449(18)
O2 O 0.8229(2) 0.54727(7) 0.4395(2)
O3 O 0.7562(2) 0.48254(7) 0.89819(18)
H19 H 0.8416 0.4949 0.9393
O4 O 0.4417(2) 0.48933(6) 0.74299(18)
H20 H 0.3544 0.4780 0.7018
C13 C 0.5651(4) 0.28779(10) -0.1013(3)
C14 C 0.7015(4) 0.26432(11) -0.0069(3)
H21 H 0.7974 0.2724 -0.0274
H22 H 0.6863 0.2310 -0.0187
C15 C 0.7282(4) 0.27549(11) 0.1340(3)
H23 H 0.6523 0.2585 0.1647
H24 H 0.8351 0.2661 0.1863
C16 C 0.7083(4) 0.32648(10) 0.1496(3)
H25 H 0.7922 0.3431 0.1282
H26 H 0.7191 0.3331 0.2403
C17 C 0.5493(3) 0.34340(9) 0.0635(3)
C18 C 0.5460(3) 0.39553(9) 0.0538(3)
H27 H 0.6270 0.4056 0.0151
C19 C 0.3864(3) 0.41288(9) -0.0293(3)
H28 H 0.3644 0.4017 -0.1192
C20 C 0.2579(3) 0.39678(9) 0.0217(3)
H29 H 0.1561 0.4086 -0.0345
H30 H 0.2766 0.4096 0.1086
C21 C 0.2482(3) 0.34455(10) 0.0289(3)
C22 C 0.1353(4) 0.33221(12) 0.1027(4)
H31 H 0.0305 0.3438 0.0561
H32 H 0.1723 0.3459 0.1885
H33 H 0.1311 0.2990 0.1107
C23 C 0.1814(4) 0.32389(11) -0.1068(3)
H34 H 0.2514 0.3310 -0.1564
H35 H 0.0775 0.3368 -0.1501
H36 H 0.1729 0.2908 -0.1001
C24 C 0.4123(3) 0.32564(10) 0.1044(3)
H37 H 0.4341 0.3329 0.1964
H38 H 0.4091 0.2920 0.0960
O5 O 0.5235(2) 0.32943(6) -0.07101(19)
O6 O 0.4969(3) 0.27329(7) -0.2073(2)
O7 O 0.5871(2) 0.41237(7) 0.18190(18)
H39 H 0.5145 0.4289 0.1893
O8 O 0.3903(2) 0.46207(6) -0.02839(18)
H40 H 0.3079 0.4722 -0.0183
C25 C 0.2277(5) 0.32300(15) 0.5609(4)
H41 H 0.2793 0.3075 0.6437
H42 H 0.2389 0.3563 0.5755
Cl1 Cl 0.32100(14) 0.30693(5) 0.44914(11)
Cl2 Cl 0.02934(14) 0.30879(5) 0.50662(16)
loop_
_geom_bond_atom_site_label_1
_geom_bond_atom_site_label_2
_geom_bond_site_symmetry_1
_geom_bond_site_symmetry_2
C1 C2 1_555 1_555
C2 H1 1_555 1_555
H2 C2 1_555 1_555
C3 C2 1_555 1_555
H3 C3 1_555 1_555
H4 C3 1_555 1_555
C4 C3 1_555 1_555
H5 C4 1_555 1_555
H6 C4 1_555 1_555
C5 C4 1_555 1_555
C6 C5 1_555 1_555
H7 C6 1_555 1_555
C7 C6 1_555 1_555
H8 C7 1_555 1_555
C8 C7 1_555 1_555
H9 C8 1_555 1_555
H10 C8 1_555 1_555
C9 C8 1_555 1_555
C10 C9 1_555 1_555
H11 C10 1_555 1_555
H12 C10 1_555 1_555
H13 C10 1_555 1_555
C11 C9 1_555 1_555
H14 C11 1_555 1_555
H15 C11 1_555 1_555
H16 C11 1_555 1_555
C12 C5 1_555 1_555
H17 C12 1_555 1_555
H18 C12 1_555 1_555
O1 C1 1_555 1_555
O2 C1 1_555 1_555
O3 C6 1_555 1_555
H19 O3 1_555 1_555
O4 C7 1_555 1_555
H20 O4 1_555 1_555
C13 C14 1_555 1_555
C14 H21 1_555 1_555
H22 C14 1_555 1_555
C15 C14 1_555 1_555
H23 C15 1_555 1_555
H24 C15 1_555 1_555
C16 C15 1_555 1_555
H25 C16 1_555 1_555
H26 C16 1_555 1_555
C17 C16 1_555 1_555
C18 C17 1_555 1_555
H27 C18 1_555 1_555
C19 C18 1_555 1_555
H28 C19 1_555 1_555
C20 C19 1_555 1_555
H29 C20 1_555 1_555
H30 C20 1_555 1_555
C21 C20 1_555 1_555
C22 C21 1_555 1_555
H31 C22 1_555 1_555
H32 C22 1_555 1_555
H33 C22 1_555 1_555
C23 C21 1_555 1_555
H34 C23 1_555 1_555
H35 C23 1_555 1_555
H36 C23 1_555 1_555
C24 C17 1_555 1_555
H37 C24 1_555 1_555
H38 C24 1_555 1_555
O5 C13 1_555 1_555
O6 C13 1_555 1_555
O7 C18 1_555 1_555
H39 O7 1_555 1_555
O8 C19 1_555 1_555
H40 O8 1_555 1_555
C25 H41 1_555 1_555
H42 C25 1_555 1_555
Cl1 C25 1_555 1_555
Cl2 C25 1_555 1_555
C5 O1 1_555 1_555
C9 C12 1_555 1_555
C17 O5 1_555 1_555
C21 C24 1_555 1_555

#END
