
#######################################################################
#
#                 Cambridge Crystallographic Data Centre
#                                CCDC 
#
#######################################################################
#
# If this CIF has been generated from an entry in the Cambridge 
# Structural Database, then it will include bibliographic, chemical, 
# crystal, experimental, refinement or atomic coordinate data resulting 
# from the CCDC's data processing and validation procedures.
#
#######################################################################

data_RESLUY
_chemical_formula_moiety         'C10 H16 O4'
_chemical_name_systematic        
6,7-Dihydroxy-6-methyl-1-oxaspiro[4.5]decan-2-one
_symmetry_cell_setting           monoclinic
_symmetry_space_group_name_H-M   'P 21/n'
_symmetry_Int_Tables_number      14
_space_group_name_Hall           '-P 2yn'
loop_
_symmetry_equiv_pos_site_id
_symmetry_equiv_pos_as_xyz
1 x,y,z
2 1/2-x,1/2+y,1/2-z
3 -x,-y,-z
4 1/2+x,1/2-y,1/2+z
_cell_length_a                   7.3977(3)
_cell_length_b                   9.1656(3)
_cell_length_c                   14.8408(5)
_cell_angle_alpha                90
_cell_angle_beta                 99.475(2)
_cell_angle_gamma                90
_cell_volume                     992.543
_exptl_crystal_colour            colorless
_exptl_crystal_description       prism
_cell_formula_units_Z            4
loop_
_atom_site_label
_atom_site_type_symbol
_atom_site_fract_x
_atom_site_fract_y
_atom_site_fract_z
C1 C -0.0655(2) 0.50468(17) 0.21818(11)
C2 C -0.0398(3) 0.3977(2) 0.29472(13)
H1 H -0.1574 0.3681 0.3094
H2 H 0.0325 0.4403 0.3488
C3 C 0.0575(3) 0.2700(2) 0.26294(11)
H3 H -0.0231 0.1859 0.2533
H4 H 0.1641 0.2446 0.3074
C4 C 0.1148(2) 0.31904(16) 0.17244(10)
C5 C 0.0472(2) 0.21751(15) 0.08991(10)
C6 C -0.1600(2) 0.2010(2) 0.07158(13)
H5 H -0.2008 0.1633 0.1251
H6 H -0.1945 0.1349 0.0215
H7 H -0.2155 0.2944 0.0565
C7 C 0.1165(2) 0.27750(16) 0.00542(10)
H8 H 0.0587 0.3727 -0.0091
C8 C 0.3214(3) 0.2986(2) 0.01904(12)
H9 H 0.3567 0.3358 -0.0367
H10 H 0.3822 0.2056 0.0331
C9 C 0.3803(3) 0.4053(2) 0.09677(13)
H11 H 0.3268 0.5004 0.0808
H12 H 0.5126 0.4156 0.1071
C10 C 0.3179(3) 0.34997(19) 0.18335(12)
H13 H 0.3844 0.2612 0.2028
H14 H 0.3495 0.4220 0.2312
O1 O -0.14520(17) 0.62006(13) 0.21239(9)
O2 O 0.02029(17) 0.45972(11) 0.15113(7)
O3 O 0.13397(17) 0.08061(11) 0.11597(8)
H15 H 0.0623 0.0005 0.0951
O4 O 0.05668(18) 0.18126(13) -0.07011(8)
H16 H 0.0776 0.2347 -0.1221
loop_
_geom_bond_atom_site_label_1
_geom_bond_atom_site_label_2
_geom_bond_site_symmetry_1
_geom_bond_site_symmetry_2
C1 C2 1_555 1_555
C2 H1 1_555 1_555
H2 C2 1_555 1_555
C3 C2 1_555 1_555
H3 C3 1_555 1_555
H4 C3 1_555 1_555
C4 C3 1_555 1_555
C5 C4 1_555 1_555
C6 C5 1_555 1_555
H5 C6 1_555 1_555
H6 C6 1_555 1_555
H7 C6 1_555 1_555
C7 C5 1_555 1_555
H8 C7 1_555 1_555
C8 C7 1_555 1_555
H9 C8 1_555 1_555
H10 C8 1_555 1_555
C9 C8 1_555 1_555
H11 C9 1_555 1_555
H12 C9 1_555 1_555
C10 C4 1_555 1_555
H13 C10 1_555 1_555
H14 C10 1_555 1_555
O1 C1 1_555 1_555
O2 C1 1_555 1_555
O3 C5 1_555 1_555
H15 O3 1_555 1_555
O4 C7 1_555 1_555
H16 O4 1_555 1_555
C4 O2 1_555 1_555
C9 C10 1_555 1_555

#END
