
#######################################################################
#
#                 Cambridge Crystallographic Data Centre
#                                CCDC 
#
#######################################################################
#
# If this CIF has been generated from an entry in the Cambridge 
# Structural Database, then it will include bibliographic, chemical, 
# crystal, experimental, refinement or atomic coordinate data resulting 
# from the CCDC's data processing and validation procedures.
#
#######################################################################

data_RESNIP
_chemical_formula_moiety         'C22 H31 N1'
_chemical_name_systematic        
4-((E)-(2,4-di-t-butylcyclopenta-2,4-dien-1-ylidene)methyl)-N,N-dimethylaniline
_symmetry_cell_setting           monoclinic
_symmetry_space_group_name_H-M   'C c'
_symmetry_Int_Tables_number      9
_space_group_name_Hall           'C -2yc'
loop_
_symmetry_equiv_pos_site_id
_symmetry_equiv_pos_as_xyz
1 x,y,z
2 x,-y,1/2+z
3 1/2+x,1/2+y,z
4 1/2+x,1/2-y,1/2+z
_cell_length_a                   12.87900(10)
_cell_length_b                   15.85470(10)
_cell_length_c                   10.03260(10)
_cell_angle_alpha                90
_cell_angle_beta                 111.8270(10)
_cell_angle_gamma                90
_cell_volume                     1901.72
_exptl_crystal_colour            'dark yellow'
_exptl_crystal_description       plate
_cell_formula_units_Z            4
loop_
_atom_site_label
_atom_site_type_symbol
_atom_site_fract_x
_atom_site_fract_y
_atom_site_fract_z
N1 N 0.81388(11) 0.39667(9) 0.98638(14)
C1 C 0.44736(12) 0.30271(9) 0.13531(16)
C2 C 0.55845(13) 0.46722(9) 0.69031(16)
H1 H 0.5061 0.5104 0.6717
C3 C 0.64694(13) 0.46582(10) 0.82109(16)
H2 H 0.6535 0.5083 0.8877
C4 C 0.33367(12) 0.33771(9) 0.08672(16)
H3 H 0.2796 0.3304 -0.0047
C5 C 0.21309(12) 0.42953(9) 0.18314(16)
C6 C 0.44672(12) 0.41156(9) 0.45171(16)
H4 H 0.3900 0.4460 0.4572
C7 C 0.72711(12) 0.40107(10) 0.85463(16)
C8 C 0.50042(12) 0.32454(9) 0.27507(16)
H5 H 0.5733 0.3098 0.3324
C9 C 0.31853(12) 0.38216(9) 0.19349(15)
C10 C 0.71425(13) 0.33912(9) 0.74843(17)
H6 H 0.7665 0.2958 0.7667
C11 C 0.62593(13) 0.34159(9) 0.61841(17)
H7 H 0.6198 0.2996 0.5511
C12 C 0.16435(13) 0.39416(10) 0.29029(16)
H8 H 0.1462 0.3356 0.2699
H9 H 0.0979 0.4249 0.2816
H10 H 0.2185 0.3999 0.3862
C13 C 0.49327(13) 0.25370(10) 0.04011(17)
C14 C 0.42457(12) 0.37510(9) 0.32147(16)
C15 C 0.54485(12) 0.40559(9) 0.58427(16)
C16 C 0.81326(15) 0.45273(11) 1.10084(18)
H11 H 0.8103 0.5102 1.0696
H12 H 0.8800 0.4441 1.1841
H13 H 0.7490 0.4409 1.1244
C17 C 0.12370(13) 0.42056(10) 0.03112(17)
H14 H 0.1519 0.4433 -0.0375
H15 H 0.0576 0.4507 0.0254
H16 H 0.1059 0.3620 0.0106
C18 C 0.23760(13) 0.52450(10) 0.21058(17)
H17 H 0.2893 0.5328 0.3073
H18 H 0.1692 0.5539 0.1968
H19 H 0.2695 0.5459 0.1448
C19 C 0.43601(16) 0.16716(11) 0.0075(2)
H20 H 0.4518 0.1367 0.0955
H21 H 0.4638 0.1360 -0.0543
H22 H 0.3567 0.1747 -0.0392
C20 C 0.46912(16) 0.30217(12) -0.10079(19)
H23 H 0.3898 0.3052 -0.1525
H24 H 0.5033 0.2734 -0.1581
H25 H 0.4991 0.3582 -0.0798
C21 C 0.61953(15) 0.24181(11) 0.1145(2)
H26 H 0.6554 0.2960 0.1342
H27 H 0.6473 0.2103 0.0530
H28 H 0.6353 0.2117 0.2029
C22 C 0.87509(13) 0.31757(11) 1.02875(18)
H29 H 0.8244 0.2735 1.0302
H30 H 0.9321 0.3236 1.1227
H31 H 0.9091 0.3035 0.9612
loop_
_geom_bond_atom_site_label_1
_geom_bond_atom_site_label_2
_geom_bond_site_symmetry_1
_geom_bond_site_symmetry_2
N1 C7 1_555 1_555
C1 C4 1_555 1_555
C2 H1 1_555 1_555
C3 C2 1_555 1_555
H2 C3 1_555 1_555
C4 H3 1_555 1_555
C5 C9 1_555 1_555
C6 H4 1_555 1_555
C7 C3 1_555 1_555
C8 C1 1_555 1_555
H5 C8 1_555 1_555
C9 C4 1_555 1_555
C10 C7 1_555 1_555
H6 C10 1_555 1_555
C11 C10 1_555 1_555
H7 C11 1_555 1_555
C12 C5 1_555 1_555
H8 C12 1_555 1_555
H9 C12 1_555 1_555
H10 C12 1_555 1_555
C13 C1 1_555 1_555
C14 C6 1_555 1_555
C15 C2 1_555 1_555
C16 N1 1_555 1_555
H11 C16 1_555 1_555
H12 C16 1_555 1_555
H13 C16 1_555 1_555
C17 C5 1_555 1_555
H14 C17 1_555 1_555
H15 C17 1_555 1_555
H16 C17 1_555 1_555
C18 C5 1_555 1_555
H17 C18 1_555 1_555
H18 C18 1_555 1_555
H19 C18 1_555 1_555
C19 C13 1_555 1_555
H20 C19 1_555 1_555
H21 C19 1_555 1_555
H22 C19 1_555 1_555
C20 C13 1_555 1_555
H23 C20 1_555 1_555
H24 C20 1_555 1_555
H25 C20 1_555 1_555
C21 C13 1_555 1_555
H26 C21 1_555 1_555
H27 C21 1_555 1_555
H28 C21 1_555 1_555
C22 N1 1_555 1_555
H29 C22 1_555 1_555
H30 C22 1_555 1_555
H31 C22 1_555 1_555
C6 C15 1_555 1_555
C8 C14 1_555 1_555
C9 C14 1_555 1_555
C11 C15 1_555 1_555

#END
