
#######################################################################
#
#                 Cambridge Crystallographic Data Centre
#                                CCDC 
#
#######################################################################
#
# If this CIF has been generated from an entry in the Cambridge 
# Structural Database, then it will include bibliographic, chemical, 
# crystal, experimental, refinement or atomic coordinate data resulting 
# from the CCDC's data processing and validation procedures.
#
#######################################################################

data_RESZUN
_chemical_formula_moiety         
'C40 H44 N24 O12,C12 H17 N2 1+,16(H2 O1),Cl1 1-'
_chemical_name_systematic        
'2-pentyl-1H-benzimidazol-3-ium chloride cucurbit(6)uril hexadecahydrate'
_symmetry_cell_setting           monoclinic
_symmetry_space_group_name_H-M   'C 2/c'
_symmetry_Int_Tables_number      15
_space_group_name_Hall           '-C 2yn'
loop_
_symmetry_equiv_pos_site_id
_symmetry_equiv_pos_as_xyz
1 x,y,z
2 -x,y,1/2-z
3 1/2+x,1/2+y,z
4 1/2-x,1/2+y,1/2-z
5 -x,-y,-z
6 x,-y,1/2+z
7 1/2-x,1/2-y,-z
8 1/2+x,1/2-y,1/2+z
_cell_length_a                   38.788(2)
_cell_length_b                   15.9671(10)
_cell_length_c                   24.7419(14)
_cell_angle_alpha                90
_cell_angle_beta                 118.423(4)
_cell_angle_gamma                90
_cell_volume                     13476.3
_cell_formula_units_Z            8
loop_
_atom_site_label
_atom_site_type_symbol
_atom_site_fract_x
_atom_site_fract_y
_atom_site_fract_z
O2 O 0.18313(17) -0.0425(4) 0.8023(3)
O3 O 0.23475(18) -0.2030(4) 0.8905(3)
O4 O 0.21489(19) 0.0268(4) 0.7015(3)
O5 O 0.35770(18) -0.1913(4) 0.7795(3)
O6 O 0.43019(18) -0.0252(4) 1.0796(3)
N1 N 0.2365(2) -0.1072(5) 0.9611(3)
O7 O 0.32257(18) -0.2745(4) 0.8759(3)
O8 O 0.45545(18) 0.0553(4) 0.9706(3)
N2 N 0.4069(2) -0.0977(4) 0.7991(3)
N3 N 0.2886(2) -0.1886(4) 0.9858(3)
N4 N 0.4529(2) -0.0855(4) 0.9514(3)
N5 N 0.4464(2) 0.0041(5) 0.8783(3)
N6 N 0.2571(2) 0.1381(4) 0.7196(3)
N7 N 0.4134(2) -0.1877(5) 0.8726(3)
O9 O 0.30350(18) -0.0504(4) 0.6837(3)
N8 N 0.3870(2) -0.2344(5) 0.9397(3)
O10 O 0.3201(2) 0.2977(4) 0.8872(3)
O11 O 0.2900(2) 0.2057(5) 0.9914(3)
O12 O 0.4034(2) 0.2183(4) 0.8787(3)
N9 N 0.2143(2) 0.1446(4) 0.7548(3)
N10 N 0.1887(2) 0.0982(5) 0.8218(3)
N11 N 0.3650(2) 0.0126(4) 0.7318(3)
N12 N 0.4287(2) -0.1362(5) 1.0193(3)
N13 N 0.2808(2) -0.0030(5) 1.0338(4)
O13 O 0.3439(2) 0.0510(5) 1.0856(3)
N14 N 0.2953(2) 0.2551(5) 0.7865(4)
N15 N 0.2398(2) 0.1127(5) 0.9734(4)
C1 C 0.4504(2) -0.1413(5) 0.9021(4)
N16 N 0.3516(2) 0.1988(5) 0.7806(4)
N17 N 0.3452(2) -0.2330(4) 0.9762(3)
N18 N 0.2568(2) 0.2478(5) 0.8291(3)
N19 N 0.2332(2) 0.1974(5) 0.8982(4)
N20 N 0.1988(2) 0.0100(5) 0.8979(3)
N21 N 0.3878(2) -0.1383(5) 1.0580(4)
C2 C 0.2585(3) 0.2251(6) 0.7371(4)
H1 H 0.2492 0.2618 0.7011
N22 N 0.3121(2) 0.0901(5) 0.7060(3)
C3 C 0.2520(3) -0.1692(6) 0.9406(4)
N23 N 0.3307(2) -0.0891(5) 1.0663(4)
C4 C 0.4456(3) -0.0775(6) 0.8504(4)
N24 N 0.4031(2) 0.1141(5) 0.8132(3)
C5 C 0.4522(3) -0.0034(6) 0.9369(4)
C6 C 0.3496(3) -0.2504(5) 0.9259(4)
C7 C 0.4121(2) -0.2198(5) 1.0038(4)
H2 H 0.4324 -0.2631 1.0221
C8 C 0.2303(3) 0.2273(6) 0.7651(4)
H3 H 0.2098 0.2698 0.7454
C9 C 0.4427(3) 0.0866(6) 0.8505(4)
H4 H 0.4562 0.1273 0.8830
H5 H 0.4557 0.0855 0.8254
C10 C 0.1977(3) -0.0703(6) 0.9240(4)
H6 H 0.1820 -0.1086 0.8908
H7 H 0.1850 -0.0638 0.9493
C11 C 0.3897(3) -0.1622(5) 0.8142(4)
C12 C 0.2004(3) 0.0932(6) 0.9254(4)
C13 C 0.3880(3) -0.0614(6) 0.7389(4)
H8 H 0.3711 -0.1034 0.7103
H9 H 0.4080 -0.0476 0.7273
C14 C 0.1795(3) 0.1249(6) 0.7605(4)
H10 H 0.1628 0.1741 0.7497
H11 H 0.1649 0.0809 0.7315
C15 C 0.2624(3) -0.0834(6) 1.0240(4)
H12 H 0.2497 -0.0907 1.0498
C16 C 0.2920(3) 0.2693(6) 0.8373(5)
C17 C 0.2268(3) 0.0977(6) 0.7224(4)
C18 C 0.2977(3) -0.1457(6) 1.0434(4)
H13 H 0.2996 -0.1850 1.0751
C19 C 0.3434(3) 0.1517(6) 0.7256(4)
H14 H 0.3400 0.1886 0.6917
C20 C 0.4033(3) -0.2603(6) 0.8983(4)
H15 H 0.4266 -0.2941 0.9213
H16 H 0.3842 -0.2943 0.8650
C21 C 0.1897(3) 0.0169(6) 0.8372(4)
C22 C 0.4624(2) -0.1126(6) 1.0128(4)
H17 H 0.4801 -0.1601 1.0239
H18 H 0.4761 -0.0677 1.0414
C23 C 0.3804(3) 0.0970(6) 0.7479(4)
H19 H 0.3953 0.1123 0.7265
C24 C 0.2710(3) 0.1119(6) 0.6770(4)
H20 H 0.2557 0.0638 0.6540
H21 H 0.2662 0.1568 0.6479
C25 C 0.2426(3) 0.2682(6) 0.8717(4)
H22 H 0.2623 0.3016 0.9047
H23 H 0.2193 0.3026 0.8506
C26 C 0.3108(3) -0.2575(6) 0.9808(4)
H24 H 0.2939 -0.2903 0.9449
H25 H 0.3189 -0.2932 1.0165
C27 C 0.4774(3) -0.0820(6) 0.8322(4)
H26 H 0.5021 -0.0683 0.8669
H27 H 0.4718 -0.0429 0.7996
H28 H 0.4785 -0.1376 0.8185
C28 C 0.3719(3) -0.1177(7) 1.0985(5)
H29 H 0.3879 -0.0741 1.1265
H30 H 0.3737 -0.1667 1.1228
C29 C 0.1698(3) 0.1004(6) 0.9461(4)
H31 H 0.1446 0.0866 0.9126
H32 H 0.1694 0.1567 0.9594
H33 H 0.1760 0.0625 0.9796
C30 C 0.3290(3) 0.2720(7) 0.7794(5)
H34 H 0.3460 0.3097 0.8119
H35 H 0.3206 0.3009 0.7407
C31 C 0.4860(3) -0.1983(6) 0.9248(4)
H36 H 0.4836 -0.2337 0.8918
H37 H 0.4876 -0.2324 0.9579
H38 H 0.5093 -0.1649 0.9391
C32 C 0.4174(3) -0.0928(6) 1.0550(4)
C33 C 0.3200(3) -0.0097(6) 1.0631(4)
C34 C 0.3831(3) -0.2217(6) 1.0307(4)
H39 H 0.3891 -0.2666 1.0608
C35 C 0.1956(3) 0.1563(6) 0.8738(5)
C36 C 0.3867(3) 0.1806(6) 0.8280(4)
C37 C 0.2614(3) 0.0746(6) 1.0345(5)
H40 H 0.2809 0.1140 1.0620
H41 H 0.2433 0.0635 1.0504
C38 C 0.3239(3) 0.0112(6) 0.7053(4)
C39 C 0.1630(3) 0.2196(6) 0.8548(5)
H42 H 0.1383 0.1910 0.8385
H43 H 0.1631 0.2560 0.8240
H44 H 0.1669 0.2521 0.8899
C40 C 0.2581(3) 0.1742(6) 0.9574(5)
O14 O 0.4601(2) 0.0463(5) 0.7080(4)
C41 C 0.3766(4) 0.1587(8) 0.9875(5)
C42 C 0.4116(4) 0.2012(8) 1.0860(6)
H45 H 0.3885 0.1800 1.0869
H46 H 0.4297 0.1547 1.0958
C43 C 0.2853(4) -0.0344(9) 0.8529(6)
H47 H 0.2627 -0.0669 0.8346
C44 C 0.3486(5) -0.0212(9) 0.8774(7)
H48 H 0.3696 -0.0385 0.8717
C45 C 0.3560(5) 0.0329(11) 0.9229(8)
C46 C 0.4304(6) 0.2647(12) 1.1370(8)
H49 H 0.4533 0.2818 1.1335
H50 H 0.4125 0.3118 1.1211
C47 C 0.3242(7) 0.0621(14) 0.9260(10)
N25 N 0.3838(7) 0.0988(14) 0.9535(10)
H51 H 0.4051 0.1012 0.9507
N26 N 0.3379(5) 0.1320(12) 0.9651(8)
H52 H 0.3225 0.1583 0.9751
C48 C 0.3135(6) -0.0519(13) 0.8400(10)
H53 H 0.3091 -0.0844 0.8061
C49 C 0.2869(6) 0.0269(11) 0.8906(8)
H54 H 0.2649 0.0450 0.8932
C50 C 0.4490(16) 0.349(3) 1.245(2)
H55 H 0.4568 0.3313 1.2865
H56 H 0.4243 0.3780 1.2291
H57 H 0.4684 0.3863 1.2451
C51 C 0.4445(11) 0.271(2) 1.2040(11)
H58 H 0.4704 0.2453 1.2227
H59 H 0.4280 0.2323 1.2117
C52 C 0.3990(6) 0.2292(13) 1.0178(7)
H60 H 0.3834 0.2800 1.0065
H61 H 0.4214 0.2363 1.0107
O15 O 0.4054(4) 0.4500(8) 0.6296(6)
O16 O 0.3789(3) 0.4219(7) 0.5067(5)
O17 O 0.1087(3) -0.0689(7) 0.7027(5)
O18 O 0.4582(3) 0.2160(7) 0.6697(5)
O19 O 0.1863(4) -0.0269(8) 0.5854(6)
O20 O 0.4840(3) 0.3033(7) 0.9332(5)
O21 O 0.5191(4) 0.3127(8) 0.6791(6)
O22 O 0.4886(4) 0.4676(8) 0.6895(6)
O23 O 0.4427(7) 0.4445(15) 0.4908(10)
O24 O 0.5094(11) 0.412(2) 1.0216(16)
O25 O 0.4901(17) 0.619(4) 0.620(3)
O26 O 0.5621(9) 0.5630(19) 0.6374(13)
O27 O 0.3903(16) 0.387(3) 0.927(2)
O1 O 0.39789(19) 0.2987(4) 0.7038(3)
O28? O 0.3883(6) 0.3054(13) 0.6838(9)
loop_
_geom_bond_atom_site_label_1
_geom_bond_atom_site_label_2
_geom_bond_site_symmetry_1
_geom_bond_site_symmetry_2
O2 C21 1_555 1_555
O3 C3 1_555 1_555
O4 C17 1_555 1_555
O5 C11 1_555 1_555
O6 C32 1_555 1_555
N1 C3 1_555 1_555
O7 C6 1_555 1_555
O8 C5 1_555 1_555
N2 C4 1_555 1_555
N3 C3 1_555 1_555
N4 C1 1_555 1_555
N5 C4 1_555 1_555
N6 C2 1_555 1_555
N7 C1 1_555 1_555
O9 C38 1_555 1_555
N8 C6 1_555 1_555
O10 C16 1_555 1_555
O11 C40 1_555 1_555
O12 C36 1_555 1_555
N9 C8 1_555 1_555
N10 C14 1_555 1_555
N11 C13 1_555 1_555
N12 C7 1_555 1_555
N13 C15 1_555 1_555
O13 C33 1_555 1_555
N14 C2 1_555 1_555
N15 C12 1_555 1_555
C1 C4 1_555 1_555
N16 C19 1_555 1_555
N17 C6 1_555 1_555
N18 C8 1_555 1_555
N19 C25 1_555 1_555
N20 C10 1_555 1_555
N21 C28 1_555 1_555
C2 H1 1_555 1_555
N22 C19 1_555 1_555
N23 C18 1_555 1_555
C4 C27 1_555 1_555
N24 C9 1_555 1_555
C5 N4 1_555 1_555
C7 N8 1_555 1_555
H2 C7 1_555 1_555
C8 C2 1_555 1_555
H3 C8 1_555 1_555
C9 N5 1_555 1_555
H4 C9 1_555 1_555
H5 C9 1_555 1_555
C10 N1 1_555 1_555
H6 C10 1_555 1_555
H7 C10 1_555 1_555
C11 N2 1_555 1_555
C12 N20 1_555 1_555
C13 N2 1_555 1_555
H8 C13 1_555 1_555
H9 C13 1_555 1_555
C14 N9 1_555 1_555
H10 C14 1_555 1_555
H11 C14 1_555 1_555
C15 N1 1_555 1_555
H12 C15 1_555 1_555
C16 N14 1_555 1_555
C17 N6 1_555 1_555
C18 N3 1_555 1_555
H13 C18 1_555 1_555
C19 H14 1_555 1_555
C20 N7 1_555 1_555
H15 C20 1_555 1_555
H16 C20 1_555 1_555
C21 N10 1_555 1_555
C22 N4 1_555 1_555
H17 C22 1_555 1_555
H18 C22 1_555 1_555
C23 N11 1_555 1_555
H19 C23 1_555 1_555
C24 N6 1_555 1_555
H20 C24 1_555 1_555
H21 C24 1_555 1_555
C25 N18 1_555 1_555
H22 C25 1_555 1_555
H23 C25 1_555 1_555
C26 N3 1_555 1_555
H24 C26 1_555 1_555
H25 C26 1_555 1_555
C27 H26 1_555 1_555
H27 C27 1_555 1_555
H28 C27 1_555 1_555
C28 N23 1_555 1_555
H29 C28 1_555 1_555
H30 C28 1_555 1_555
C29 C12 1_555 1_555
H31 C29 1_555 1_555
H32 C29 1_555 1_555
H33 C29 1_555 1_555
C30 N14 1_555 1_555
H34 C30 1_555 1_555
H35 C30 1_555 1_555
C31 C1 1_555 1_555
H36 C31 1_555 1_555
H37 C31 1_555 1_555
H38 C31 1_555 1_555
C32 N12 1_555 1_555
C33 N13 1_555 1_555
C34 N17 1_555 1_555
H39 C34 1_555 1_555
C35 N10 1_555 1_555
C36 N16 1_555 1_555
C37 N13 1_555 1_555
H40 C37 1_555 1_555
H41 C37 1_555 1_555
C38 N11 1_555 1_555
C39 C35 1_555 1_555
H42 C39 1_555 1_555
H43 C39 1_555 1_555
H44 C39 1_555 1_555
C40 N15 1_555 1_555
C41 N25 1_555 1_555
C42 H45 1_555 1_555
H46 C42 1_555 1_555
C43 H47 1_555 1_555
C44 H48 1_555 1_555
C45 C44 1_555 1_555
C46 C42 1_555 1_555
H49 C46 1_555 1_555
H50 C46 1_555 1_555
C47 C45 1_555 1_555
N25 C45 1_555 1_555
H51 N25 1_555 1_555
N26 C41 1_555 1_555
H52 N26 1_555 1_555
C48 C43 1_555 1_555
H53 C48 1_555 1_555
C49 C43 1_555 1_555
H54 C49 1_555 1_555
C50 H55 1_555 1_555
H56 C50 1_555 1_555
H57 C50 1_555 1_555
C51 C46 1_555 1_555
H58 C51 1_555 1_555
H59 C51 1_555 1_555
C52 C41 1_555 1_555
H60 C52 1_555 1_555
H61 C52 1_555 1_555
N5 C5 1_555 1_555
N7 C11 1_555 1_555
N8 C20 1_555 1_555
N9 C17 1_555 1_555
N12 C22 1_555 1_555
N15 C37 1_555 1_555
N16 C30 1_555 1_555
N17 C26 1_555 1_555
N18 C16 1_555 1_555
N19 C35 1_555 1_555
N19 C40 1_555 1_555
N20 C21 1_555 1_555
N21 C32 1_555 1_555
N21 C34 1_555 1_555
N22 C24 1_555 1_555
N22 C38 1_555 1_555
N23 C33 1_555 1_555
N24 C23 1_555 1_555
N24 C36 1_555 1_555
C7 C34 1_555 1_555
C12 C35 1_555 1_555
C15 C18 1_555 1_555
C19 C23 1_555 1_555
C42 C52 1_555 1_555
C44 C48 1_555 1_555
C47 N26 1_555 1_555
C47 C49 1_555 1_555
C50 C51 1_555 1_555

#END
