
#######################################################################
#
#                 Cambridge Crystallographic Data Centre
#                                CCDC 
#
#######################################################################
#
# If this CIF has been generated from an entry in the Cambridge 
# Structural Database, then it will include bibliographic, chemical, 
# crystal, experimental, refinement or atomic coordinate data resulting 
# from the CCDC's data processing and validation procedures.
#
#######################################################################

data_RETDAX
_chemical_formula_moiety         'C30 H27 N3 O4 S1,C2 H6 O1'
_chemical_name_systematic        
"(2'S,3'R,4'R)-t-Butyl 1-methyl-2,2''-dioxo-3'-phenyl-5'-thioxo-1,2-dihydrodispiro[indole-3,2'-pyrrolidine-4',3''-indole]-1''(2''H)-carboxylate ethanol solvate"
_symmetry_cell_setting           monoclinic
_symmetry_space_group_name_H-M   'P 21/c'
_symmetry_Int_Tables_number      14
_space_group_name_Hall           '-P 2ybc'
loop_
_symmetry_equiv_pos_site_id
_symmetry_equiv_pos_as_xyz
1 x,y,z
2 -x,1/2+y,1/2-z
3 -x,-y,-z
4 x,1/2-y,1/2+z
_cell_length_a                   11.1113(7)
_cell_length_b                   9.5060(7)
_cell_length_c                   29.569(2)
_cell_angle_alpha                90
_cell_angle_beta                 92.704(6)
_cell_angle_gamma                90
_cell_volume                     3119.72
_chemical_melting_point          '233.3-234.1 deg.C'
_cell_formula_units_Z            4
loop_
_atom_site_label
_atom_site_type_symbol
_atom_site_fract_x
_atom_site_fract_y
_atom_site_fract_z
S1 S 0.14501(6) -0.19063(7) 0.08971(2)
N1 N 0.21183(15) 0.03702(19) 0.04518(6)
H1 H 0.1960 -0.0033 0.0196
O1 O 0.08204(15) 0.1064(2) 0.24740(5)
O2 O 0.05233(15) 0.2851(2) 0.03299(6)
O3 O 0.06151(15) 0.1159(2) 0.15865(6)
C1 C 0.35972(18) -0.0006(2) 0.14551(7)
N2 N 0.23146(16) 0.0507(2) 0.20223(6)
C2 C 0.36430(19) 0.2160(2) 0.02136(7)
C3 C 0.25342(18) 0.2116(2) 0.09954(7)
H2 H 0.1735 0.2515 0.1039
C4 C 0.34850(19) -0.0007(2) 0.19167(7)
C5 C 0.4803(2) 0.1654(3) 0.02397(8)
H3 H 0.5020 0.0941 0.0443
N3 N 0.21176(19) 0.3555(2) -0.00788(7)
C6 C 0.24880(18) 0.0624(2) 0.12238(7)
C7 C 0.1575(2) 0.2789(3) 0.02377(8)
C8 C 0.25384(18) 0.1819(2) 0.04753(7)
O4 O 0.26664(18) 0.0713(3) 0.27815(6)
C9 C 0.5515(2) -0.1099(3) 0.15594(10)
H4 H 0.6207 -0.1471 0.1441
C10 C 0.5345(2) 0.4011(3) 0.14691(9)
H5 H 0.6162 0.3835 0.1526
C11 C 0.19871(18) -0.0311(2) 0.08399(7)
C12 C 0.33955(18) 0.3206(2) 0.11923(7)
C13 C 0.3346(2) 0.3200(3) -0.00994(8)
C14 C 0.4617(2) 0.2984(2) 0.12759(8)
H6 H 0.4951 0.2124 0.1200
C15 C 0.1635(2) 0.0788(2) 0.16199(7)
C16 C 0.4873(3) 0.5289(3) 0.15778(9)
H7 H 0.5366 0.5977 0.1713
C17 C 0.5409(2) -0.1040(3) 0.20166(10)
H8 H 0.6042 -0.1364 0.2206
C18 C 0.4390(2) -0.0514(3) 0.22079(9)
H9 H 0.4318 -0.0502 0.2520
C19 C 0.4599(2) -0.0607(2) 0.12743(8)
H10 H 0.4653 -0.0678 0.0962
C20 C 0.1961(2) 0.0764(3) 0.24671(8)
C21 C 0.5652(2) 0.2219(3) -0.00408(9)
H11 H 0.6442 0.1894 -0.0019
C22 C 0.0275(3) 0.1504(4) 0.29053(9)
C23 C 0.2949(2) 0.4512(3) 0.12989(9)
H12 H 0.2134 0.4698 0.1242
C24 C 0.3684(3) 0.5552(3) 0.14884(10)
H13 H 0.3364 0.6428 0.1554
C25 C 0.5337(3) 0.3242(3) -0.03471(10)
H14 H 0.5915 0.3598 -0.0534
C26 C 0.4173(3) 0.3760(3) -0.03854(9)
H15 H 0.3956 0.4456 -0.0595
C27 C 0.1490(3) 0.4589(4) -0.03731(13)
H16 H 0.0636 0.4479 -0.0352
H17 H 0.1703 0.4443 -0.0681
H18 H 0.1721 0.5521 -0.0279
C28 C 0.0878(3) 0.2820(4) 0.30784(14)
H19 H 0.1667 0.2597 0.3204
H20 H 0.0407 0.3232 0.3308
H21 H 0.0945 0.3475 0.2834
C29 C -0.1007(3) 0.1810(5) 0.27420(13)
H22 H -0.1005 0.2432 0.2486
H23 H -0.1429 0.2245 0.2981
H24 H -0.1402 0.0947 0.2655
C30 C 0.0331(3) 0.0303(4) 0.32340(12)
H25 H -0.0033 -0.0513 0.3094
H26 H -0.0094 0.0551 0.3498
H27 H 0.1157 0.0104 0.3321
O5 O -0.14096(19) 0.0870(3) 0.03658(7)
H28 H -0.0737 0.1226 0.0378
C31 C -0.1708(3) 0.0412(5) 0.08122(11)
H29 H -0.1013 -0.0043 0.0959
H30 H -0.2356 -0.0271 0.0786
C32 C -0.2077(3) 0.1590(5) 0.10873(15)
H31 H -0.2757 0.2050 0.0940
H32 H -0.1423 0.2245 0.1125
H33 H -0.2295 0.1252 0.1378
loop_
_geom_bond_atom_site_label_1
_geom_bond_atom_site_label_2
_geom_bond_site_symmetry_1
_geom_bond_site_symmetry_2
S1 C11 1_555 1_555
N1 H1 1_555 1_555
O1 C20 1_555 1_555
O2 C7 1_555 1_555
O3 C15 1_555 1_555
C1 C4 1_555 1_555
N2 C4 1_555 1_555
C2 C5 1_555 1_555
C3 H2 1_555 1_555
C4 C18 1_555 1_555
C5 H3 1_555 1_555
N3 C7 1_555 1_555
C6 C1 1_555 1_555
C7 C8 1_555 1_555
C8 N1 1_555 1_555
O4 C20 1_555 1_555
C9 H4 1_555 1_555
C10 H5 1_555 1_555
C11 N1 1_555 1_555
C12 C3 1_555 1_555
C13 C2 1_555 1_555
C14 C10 1_555 1_555
H6 C14 1_555 1_555
C15 N2 1_555 1_555
C16 C10 1_555 1_555
H7 C16 1_555 1_555
C17 C9 1_555 1_555
H8 C17 1_555 1_555
C18 C17 1_555 1_555
H9 C18 1_555 1_555
C19 C1 1_555 1_555
H10 C19 1_555 1_555
C20 N2 1_555 1_555
C21 C5 1_555 1_555
H11 C21 1_555 1_555
C22 O1 1_555 1_555
C23 C12 1_555 1_555
H12 C23 1_555 1_555
C24 C16 1_555 1_555
H13 C24 1_555 1_555
C25 C21 1_555 1_555
H14 C25 1_555 1_555
C26 C13 1_555 1_555
H15 C26 1_555 1_555
C27 N3 1_555 1_555
H16 C27 1_555 1_555
H17 C27 1_555 1_555
H18 C27 1_555 1_555
C28 C22 1_555 1_555
H19 C28 1_555 1_555
H20 C28 1_555 1_555
H21 C28 1_555 1_555
C29 C22 1_555 1_555
H22 C29 1_555 1_555
H23 C29 1_555 1_555
H24 C29 1_555 1_555
C30 C22 1_555 1_555
H25 C30 1_555 1_555
H26 C30 1_555 1_555
H27 C30 1_555 1_555
O5 H28 1_555 1_555
C31 O5 1_555 1_555
H29 C31 1_555 1_555
H30 C31 1_555 1_555
C32 C31 1_555 1_555
H31 C32 1_555 1_555
H32 C32 1_555 1_555
H33 C32 1_555 1_555
C2 C8 1_555 1_555
C3 C6 1_555 1_555
C3 C8 1_555 1_555
N3 C13 1_555 1_555
C6 C11 1_555 1_555
C6 C15 1_555 1_555
C9 C19 1_555 1_555
C12 C14 1_555 1_555
C23 C24 1_555 1_555
C25 C26 1_555 1_555

#END
