
#######################################################################
#
#                 Cambridge Crystallographic Data Centre
#                                CCDC 
#
#######################################################################
#
# If this CIF has been generated from an entry in the Cambridge 
# Structural Database, then it will include bibliographic, chemical, 
# crystal, experimental, refinement or atomic coordinate data resulting 
# from the CCDC's data processing and validation procedures.
#
#######################################################################

data_RETVUK
_chemical_formula_moiety         'C38 H26 O2'
_chemical_name_systematic        
2-methoxy-9-(4-methoxyphenyl)-10-phenylindeno[1,2,3-fg]tetracene
_symmetry_cell_setting           monoclinic
_symmetry_space_group_name_H-M   'P 21/c'
_symmetry_Int_Tables_number      14
_space_group_name_Hall           '-P 2ybc'
loop_
_symmetry_equiv_pos_site_id
_symmetry_equiv_pos_as_xyz
1 x,y,z
2 -x,1/2+y,1/2-z
3 -x,-y,-z
4 x,1/2-y,1/2+z
_cell_length_a                   11.152(2)
_cell_length_b                   19.822(3)
_cell_length_c                   11.343(2)
_cell_angle_alpha                90
_cell_angle_beta                 93.755(14)
_cell_angle_gamma                90
_cell_volume                     2502.04
_exptl_crystal_colour            purple
_exptl_crystal_description       rectangle
_chemical_melting_point          '486 K'
_cell_formula_units_Z            4
loop_
_atom_site_label
_atom_site_type_symbol
_atom_site_fract_x
_atom_site_fract_y
_atom_site_fract_z
O1 O 0.2113(3) 0.16385(15) 0.0130(3)
O2 O 0.1921(3) -0.53272(15) -0.0440(3)
C1 C 0.4252(4) -0.1722(2) 0.1107(4)
C2 C 0.0662(4) -0.2217(2) -0.1480(4)
C3 C 0.1359(4) -0.0339(2) -0.0840(4)
C4 C 0.2458(4) -0.2054(2) -0.0134(4)
C5 C 0.3992(4) -0.1019(2) 0.0953(4)
C6 C 0.2364(4) -0.0196(2) -0.0046(4)
C7 C 0.3920(4) -0.2936(2) 0.0840(4)
C8 C 0.1710(4) -0.3242(2) -0.0673(4)
C9 C 0.5353(4) -0.1887(2) 0.1790(4)
H1 H 0.5556 -0.2349 0.1914
C10 C 0.3505(4) -0.2236(2) 0.0597(4)
C11 C 0.1433(4) -0.3562(2) 0.0363(4)
H2 H 0.1194 -0.3297 0.1006
C12 C 0.6100(4) -0.1409(2) 0.2257(4)
H3 H 0.6804 -0.1538 0.2721
C13 C 0.2631(4) 0.0458(2) 0.0327(4)
H4 H 0.3281 0.0547 0.0889
C14 C 0.1838(4) -0.4639(2) -0.0459(4)
C15 C -0.0190(4) -0.2649(2) -0.2109(4)
H5 H -0.0112 -0.3124 -0.2019
C16 C 0.4831(4) -0.0539(2) 0.1444(4)
H6 H 0.4667 -0.0072 0.1332
C17 C 0.1918(4) 0.0976(2) -0.0146(4)
C18 C 0.2943(4) -0.0844(2) 0.0284(4)
C19 C 0.0655(4) 0.0197(2) -0.1279(4)
H7 H -0.0016 0.0114 -0.1818
C20 C 0.0935(4) 0.0848(2) -0.0930(4)
H8 H 0.0451 0.1212 -0.1229
C21 C 0.4553(4) -0.3290(2) 0.0017(4)
H9 H 0.4640 -0.3100 -0.0742
C22 C 0.2040(4) -0.3640(2) -0.1612(4)
H10 H 0.2225 -0.3432 -0.2332
C23 C 0.5847(4) -0.0724(2) 0.2063(4)
H11 H 0.6394 -0.0390 0.2368
C24 C -0.1103(4) -0.2400(2) -0.2829(4)
H12 H -0.1644 -0.2701 -0.3242
C25 C 0.2100(4) -0.4332(2) -0.1505(4)
H13 H 0.2321 -0.4598 -0.2152
C26 C 0.4936(4) -0.4196(2) 0.1390(4)
H14 H 0.5293 -0.4621 0.1581
C27 C 0.5054(4) -0.3913(2) 0.0290(4)
H15 H 0.5481 -0.4147 -0.0281
C28 C 0.1575(5) -0.5660(2) 0.0608(4)
H16 H 0.1671 -0.6149 0.0521
H17 H 0.0732 -0.5557 0.0730
H18 H 0.2084 -0.5502 0.1290
C29 C 0.3803(4) -0.3234(2) 0.1945(4)
H19 H 0.3378 -0.3003 0.2521
C30 C 0.4297(4) -0.3858(2) 0.2209(4)
H20 H 0.4197 -0.4056 0.2959
C31 C 0.1497(4) -0.4252(2) 0.0484(4)
H21 H 0.1310 -0.4462 0.1203
C32 C 0.3189(4) 0.1803(3) 0.0834(5)
H22 H 0.3279 0.2295 0.0878
H23 H 0.3884 0.1608 0.0473
H24 H 0.3139 0.1620 0.1632
C33 C -0.1258(4) -0.1695(2) -0.2973(4)
H25 H -0.1888 -0.1525 -0.3493
C34 C 0.2230(4) -0.1354(2) -0.0263(4)
C35 C 0.1276(4) -0.1075(2) -0.0981(4)
C36 C 0.1619(4) -0.2495(2) -0.0764(4)
C37 C -0.0507(4) -0.1268(2) -0.2370(4)
H26 H -0.0636 -0.0796 -0.2457
C38 C 0.0480(4) -0.1498(2) -0.1599(4)
loop_
_geom_bond_atom_site_label_1
_geom_bond_atom_site_label_2
_geom_bond_site_symmetry_1
_geom_bond_site_symmetry_2
O1 C17 1_555 1_555
O2 C14 1_555 1_555
C1 C5 1_555 1_555
C2 C15 1_555 1_555
C3 C6 1_555 1_555
C4 C10 1_555 1_555
C5 C16 1_555 1_555
C6 C13 1_555 1_555
C7 C10 1_555 1_555
C8 C11 1_555 1_555
C9 C1 1_555 1_555
H1 C9 1_555 1_555
C10 C1 1_555 1_555
C11 H2 1_555 1_555
C12 C9 1_555 1_555
H3 C12 1_555 1_555
C13 H4 1_555 1_555
C14 C25 1_555 1_555
C15 H5 1_555 1_555
C16 H6 1_555 1_555
C17 C13 1_555 1_555
C18 C5 1_555 1_555
C19 C3 1_555 1_555
H7 C19 1_555 1_555
C20 C17 1_555 1_555
H8 C20 1_555 1_555
C21 C7 1_555 1_555
H9 C21 1_555 1_555
C22 C8 1_555 1_555
H10 C22 1_555 1_555
C23 C12 1_555 1_555
H11 C23 1_555 1_555
C24 C15 1_555 1_555
H12 C24 1_555 1_555
C25 C22 1_555 1_555
H13 C25 1_555 1_555
C26 H14 1_555 1_555
C27 C21 1_555 1_555
H15 C27 1_555 1_555
C28 O2 1_555 1_555
H16 C28 1_555 1_555
H17 C28 1_555 1_555
H18 C28 1_555 1_555
C29 C7 1_555 1_555
H19 C29 1_555 1_555
C30 C26 1_555 1_555
H20 C30 1_555 1_555
C31 C11 1_555 1_555
H21 C31 1_555 1_555
C32 O1 1_555 1_555
H22 C32 1_555 1_555
H23 C32 1_555 1_555
H24 C32 1_555 1_555
C33 C24 1_555 1_555
H25 C33 1_555 1_555
C34 C4 1_555 1_555
C35 C3 1_555 1_555
C36 C2 1_555 1_555
C37 C33 1_555 1_555
H26 C37 1_555 1_555
C38 C2 1_555 1_555
C4 C36 1_555 1_555
C6 C18 1_555 1_555
C8 C36 1_555 1_555
C14 C31 1_555 1_555
C16 C23 1_555 1_555
C18 C34 1_555 1_555
C19 C20 1_555 1_555
C26 C27 1_555 1_555
C29 C30 1_555 1_555
C34 C35 1_555 1_555
C35 C38 1_555 1_555
C37 C38 1_555 1_555

#END
