
#######################################################################
#
#                 Cambridge Crystallographic Data Centre
#                                CCDC 
#
#######################################################################
#
# If this CIF has been generated from an entry in the Cambridge 
# Structural Database, then it will include bibliographic, chemical, 
# crystal, experimental, refinement or atomic coordinate data resulting 
# from the CCDC's data processing and validation procedures.
#
#######################################################################

data_RETZAT
_chemical_formula_moiety         'C15 H9 Cl1 O2'
_chemical_name_systematic        7-Chloro-4-phenyl-2H-chromen-2-one
_symmetry_cell_setting           triclinic
_symmetry_space_group_name_H-M   'P -1'
_symmetry_Int_Tables_number      2
_space_group_name_Hall           '-P 1'
loop_
_symmetry_equiv_pos_site_id
_symmetry_equiv_pos_as_xyz
1 x,y,z
2 -x,-y,-z
_cell_length_a                   9.6658(12)
_cell_length_b                   10.3292(14)
_cell_length_c                   18.5201(18)
_cell_angle_alpha                85.614(12)
_cell_angle_beta                 86.144(14)
_cell_angle_gamma                81.723(10)
_cell_volume                     1821.46
_cell_formula_units_Z            6
loop_
_atom_site_label
_atom_site_type_symbol
_atom_site_fract_x
_atom_site_fract_y
_atom_site_fract_z
Cl1 Cl 0.33649(6) -0.17283(6) 0.20692(3)
O1 O -0.04154(14) -0.11075(13) 0.40488(7)
O2 O -0.22359(16) -0.10513(14) 0.48211(9)
C1 C 0.0465(2) -0.04848(19) 0.35695(10)
C2 C 0.1363(2) -0.1294(2) 0.31358(11)
H1 H 0.1387 -0.2200 0.3191
C3 C 0.2218(2) -0.0732(2) 0.26217(11)
C4 C 0.2178(2) 0.0619(2) 0.25355(11)
H2 H 0.2747 0.0992 0.2177
C5 C 0.1292(2) 0.1402(2) 0.29835(11)
H3 H 0.1274 0.2306 0.2926
C6 C 0.0414(2) 0.08708(19) 0.35251(10)
C7 C -0.0589(2) 0.16272(18) 0.40054(10)
C8 C -0.1472(2) 0.09879(19) 0.44463(11)
H4 H -0.2124 0.1472 0.4749
C9 C -0.1450(2) -0.0417(2) 0.44692(12)
C10 C -0.0690(2) 0.30700(19) 0.40021(10)
C11 C 0.0476(2) 0.3696(2) 0.40664(11)
H5 H 0.1359 0.3209 0.4099
C12 C 0.0313(3) 0.5045(2) 0.40816(13)
H6 H 0.1091 0.5462 0.4125
C13 C -0.0988(3) 0.5780(2) 0.40327(12)
H7 H -0.1085 0.6688 0.4040
C14 C -0.2145(2) 0.5167(2) 0.39728(12)
H8 H -0.3026 0.5660 0.3943
C15 C -0.1997(2) 0.3826(2) 0.39570(11)
H9 H -0.2783 0.3419 0.3916
Cl2 Cl 0.61654(7) 1.21914(6) 1.06744(3)
O3 O 0.58124(16) 0.73759(15) 1.09184(8)
O4 O 0.53530(19) 0.53357(17) 1.10480(9)
C16 C 0.6448(2) 0.8344(2) 1.05339(11)
C17 C 0.6071(2) 0.9594(2) 1.07708(12)
H10 H 0.5443 0.9739 1.1169
C18 C 0.6644(2) 1.0609(2) 1.04042(12)
C19 C 0.7576(2) 1.0396(2) 0.98060(12)
H11 H 0.7956 1.1092 0.9559
C20 C 0.7929(2) 0.9151(2) 0.95844(12)
H12 H 0.8548 0.9015 0.9182
C21 C 0.7384(2) 0.8073(2) 0.99458(11)
C22 C 0.7678(2) 0.6737(2) 0.97336(11)
C23 C 0.6986(2) 0.5823(2) 1.01029(12)
H13 H 0.7158 0.4968 0.9960
C24 C 0.6000(3) 0.6104(2) 1.07044(13)
C25 C 0.8676(2) 0.6356(2) 0.91182(12)
C26 C 1.0054(3) 0.6597(2) 0.90891(13)
H14 H 1.0362 0.7037 0.9454
C27 C 1.0976(3) 0.6186(3) 0.85191(15)
H15 H 1.1902 0.6341 0.8504
C28 C 1.0513(3) 0.5548(2) 0.79754(15)
H16 H 1.1129 0.5273 0.7592
C29 C 0.9152(3) 0.5315(2) 0.79962(14)
H17 H 0.8845 0.4892 0.7624
C30 C 0.8232(3) 0.5707(2) 0.85674(13)
H18 H 0.7312 0.5534 0.8582
Cl3 Cl 0.02915(7) 1.19227(7) 0.85379(4)
O5 O 0.42034(16) 1.19336(14) 0.66252(8)
O6 O 0.58186(17) 1.21606(16) 0.57453(9)
C31 C 0.3395(2) 1.1159(2) 0.70644(12)
C32 C 0.2405(2) 1.1826(2) 0.75178(12)
H19 H 0.2330 1.2731 0.7534
C33 C 0.1531(2) 1.1118(2) 0.79458(12)
C34 C 0.1615(2) 0.9776(2) 0.79119(12)
H20 H 0.0984 0.9315 0.8189
C35 C 0.2632(2) 0.9128(2) 0.74675(11)
H21 H 0.2687 0.8225 0.7449
C36 C 0.3596(2) 0.9799(2) 0.70384(11)
C37 C 0.4731(2) 0.9193(2) 0.65643(11)
C38 C 0.5456(2) 0.9991(2) 0.61268(11)
H22 H 0.6155 0.9612 0.5807
C39 C 0.5209(3) 1.1398(2) 0.61265(13)
C40 C 0.5104(2) 0.7757(2) 0.65615(12)
C41 C 0.5170(2) 0.6949(2) 0.71982(12)
H23 H 0.4972 0.7315 0.7643
C42 C 0.5528(2) 0.5606(2) 0.71760(14)
H24 H 0.5565 0.5079 0.7606
C43 C 0.5828(2) 0.5045(2) 0.65271(16)
H25 H 0.6048 0.4140 0.6516
C44 C 0.5803(2) 0.5823(3) 0.58967(14)
H26 H 0.6026 0.5446 0.5456
C45 C 0.5447(2) 0.7169(2) 0.59078(12)
H27 H 0.5437 0.7686 0.5474
loop_
_geom_bond_atom_site_label_1
_geom_bond_atom_site_label_2
_geom_bond_site_symmetry_1
_geom_bond_site_symmetry_2
Cl1 C3 1_555 1_555
O1 C1 1_555 1_555
O2 C9 1_555 1_555
C1 C2 1_555 1_555
C2 H1 1_555 1_555
C3 C2 1_555 1_555
C4 C3 1_555 1_555
H2 C4 1_555 1_555
C5 C4 1_555 1_555
H3 C5 1_555 1_555
C6 C1 1_555 1_555
C7 C6 1_555 1_555
C8 C7 1_555 1_555
H4 C8 1_555 1_555
C9 O1 1_555 1_555
C10 C7 1_555 1_555
C11 C10 1_555 1_555
H5 C11 1_555 1_555
C12 C11 1_555 1_555
H6 C12 1_555 1_555
C13 C12 1_555 1_555
H7 C13 1_555 1_555
C14 C13 1_555 1_555
H8 C14 1_555 1_555
C15 C10 1_555 1_555
H9 C15 1_555 1_555
Cl2 C18 1_555 1_555
O3 C16 1_555 1_555
O4 C24 1_555 1_555
C16 C17 1_555 1_555
C17 H10 1_555 1_555
C18 C17 1_555 1_555
C19 C18 1_555 1_555
H11 C19 1_555 1_555
C20 C19 1_555 1_555
H12 C20 1_555 1_555
C21 C16 1_555 1_555
C22 C21 1_555 1_555
C23 C22 1_555 1_555
H13 C23 1_555 1_555
C24 O3 1_555 1_555
C25 C22 1_555 1_555
C26 C25 1_555 1_555
H14 C26 1_555 1_555
C27 C26 1_555 1_555
H15 C27 1_555 1_555
C28 C27 1_555 1_555
H16 C28 1_555 1_555
C29 C28 1_555 1_555
H17 C29 1_555 1_555
C30 C25 1_555 1_555
H18 C30 1_555 1_555
Cl3 C33 1_555 1_555
O5 C31 1_555 1_555
O6 C39 1_555 1_555
C31 C32 1_555 1_555
C32 H19 1_555 1_555
C33 C32 1_555 1_555
C34 C33 1_555 1_555
H20 C34 1_555 1_555
C35 C34 1_555 1_555
H21 C35 1_555 1_555
C36 C31 1_555 1_555
C37 C36 1_555 1_555
C38 C37 1_555 1_555
H22 C38 1_555 1_555
C39 O5 1_555 1_555
C40 C37 1_555 1_555
C41 C40 1_555 1_555
H23 C41 1_555 1_555
C42 C41 1_555 1_555
H24 C42 1_555 1_555
C43 C42 1_555 1_555
H25 C43 1_555 1_555
C44 C43 1_555 1_555
H26 C44 1_555 1_555
C45 C40 1_555 1_555
H27 C45 1_555 1_555
C5 C6 1_555 1_555
C8 C9 1_555 1_555
C14 C15 1_555 1_555
C20 C21 1_555 1_555
C23 C24 1_555 1_555
C29 C30 1_555 1_555
C35 C36 1_555 1_555
C38 C39 1_555 1_555
C44 C45 1_555 1_555

#END
