
#######################################################################
#
#                 Cambridge Crystallographic Data Centre
#                                CCDC 
#
#######################################################################
#
# If this CIF has been generated from an entry in the Cambridge 
# Structural Database, then it will include bibliographic, chemical, 
# crystal, experimental, refinement or atomic coordinate data resulting 
# from the CCDC's data processing and validation procedures.
#
#######################################################################

data_REVBUR
_chemical_formula_moiety         'C40 H19 F12 N1 O2'
_chemical_name_systematic        
5,7-bis(3,5-bis(trifluoromethyl)phenyl)-4,6-diphenylazepino[3,2,1-hi]indole-1,2-dione
_symmetry_cell_setting           triclinic
_symmetry_space_group_name_H-M   'P -1'
_symmetry_Int_Tables_number      2
_space_group_name_Hall           '-P 1'
loop_
_symmetry_equiv_pos_site_id
_symmetry_equiv_pos_as_xyz
1 x,y,z
2 -x,-y,-z
_cell_length_a                   8.4075(5)
_cell_length_b                   11.0590(6)
_cell_length_c                   17.9296(10)
_cell_angle_alpha                91.8990(10)
_cell_angle_beta                 90.9700(10)
_cell_angle_gamma                92.3290(10)
_cell_volume                     1664.5
_exptl_crystal_colour            red
_exptl_crystal_description       'Thin Plate'
_cell_formula_units_Z            2
loop_
_atom_site_label
_atom_site_type_symbol
_atom_site_fract_x
_atom_site_fract_y
_atom_site_fract_z
F1 F 0.5841(4) 0.4742(4) 0.4225(2)
F2 F 0.6916(4) 0.5907(3) 0.34358(19)
F3 F 0.8130(4) 0.5639(3) 0.4479(2)
F4 F 1.2897(8) 0.3421(4) 0.3971(3)
F5 F 1.2108(5) 0.1534(4) 0.3971(3)
F6 F 1.2875(6) 0.2359(5) 0.2957(2)
C1 C 0.3624(9) -0.1975(5) 0.4618(3)
F7 F 0.3104(8) -0.0909(3) 0.48350(19)
F8 F 0.4999(6) -0.2086(7) 0.4966(4)
F9 F 0.2607(7) -0.2799(5) 0.4871(5)
F10 F 0.3987(3) -0.52697(17) 0.24422(12)
F11 F 0.1547(2) -0.47777(18) 0.24238(12)
F12 F 0.3061(2) -0.43356(16) 0.15114(10)
O1 O 0.6974(2) 0.19764(18) -0.02660(11)
O2 O 0.3669(3) 0.17384(18) -0.08262(11)
N1 N 0.5820(3) 0.1374(2) 0.08432(12)
C2 C 0.5835(4) 0.1663(2) 0.00888(15)
C3 C 0.4088(4) 0.1555(2) -0.01933(15)
C4 C 0.3156(3) 0.1194(2) 0.04480(15)
C5 C 0.1545(4) 0.0905(3) 0.05129(16)
H1 H 0.0811 0.1046 0.0120
C6 C 0.1045(3) 0.0404(3) 0.11706(16)
H2 H -0.0056 0.0230 0.1242
C7 C 0.2143(3) 0.0154(3) 0.17266(15)
H3 H 0.1766 -0.0221 0.2163
C8 C 0.3780(3) 0.0427(2) 0.16755(15)
C9 C 0.4231(3) 0.1010(2) 0.10331(15)
C10 C 0.6822(3) 0.2038(2) 0.13876(15)
C11 C 0.7073(3) 0.1607(2) 0.20670(15)
C12 C 0.6443(3) 0.0425(2) 0.23400(14)
C13 C 0.4950(3) -0.0029(2) 0.22147(15)
C14 C 0.7344(3) 0.3276(3) 0.11617(15)
C15 C 0.6183(4) 0.4088(3) 0.09915(16)
H4 H 0.5090 0.3840 0.1011
C16 C 0.6605(4) 0.5254(3) 0.07942(18)
H5 H 0.5803 0.5807 0.0686
C17 C 0.8197(4) 0.5615(3) 0.07540(18)
H6 H 0.8491 0.6417 0.0620
C18 C 0.9357(4) 0.4803(3) 0.09092(18)
H7 H 1.0450 0.5045 0.0872
C19 C 0.8939(4) 0.3642(3) 0.11182(16)
H8 H 0.9743 0.3094 0.1232
C20 C 0.7978(3) 0.2395(2) 0.26442(15)
C21 C 0.9557(3) 0.2181(3) 0.28283(16)
H9 H 1.0086 0.1556 0.2568
C22 C 1.0364(3) 0.2866(3) 0.33840(16)
C23 C 0.9617(3) 0.3795(3) 0.37613(16)
H10 H 1.0169 0.4269 0.4142
C24 C 0.8058(3) 0.4019(3) 0.35738(16)
C25 C 0.7236(3) 0.3319(3) 0.30221(16)
H11 H 0.6160 0.3477 0.2905
C26 C 1.2016(4) 0.2571(3) 0.36068(16)
C27 C 0.7237(3) 0.5038(3) 0.39538(17)
C28 C 0.7574(3) -0.0273(3) 0.28015(15)
C29 C 0.7892(4) 0.0005(3) 0.35540(16)
H12 H 0.7431 0.0686 0.3788
C30 C 0.8877(4) -0.0708(3) 0.39631(18)
H13 H 0.9075 -0.0522 0.4478
C31 C 0.9572(4) -0.1685(3) 0.36264(19)
H14 H 1.0243 -0.2173 0.3910
C32 C 0.9297(4) -0.1957(3) 0.28784(19)
H15 H 0.9793 -0.2623 0.2645
C33 C 0.8292(3) -0.1256(3) 0.24661(17)
H16 H 0.8095 -0.1449 0.1952
C34 C 0.4380(3) -0.1120(3) 0.26262(15)
C35 C 0.4264(3) -0.1045(3) 0.33995(16)
H17 H 0.4507 -0.0298 0.3661
C36 C 0.3792(3) -0.2057(3) 0.37889(16)
C37 C 0.3414(3) -0.3143(3) 0.34189(17)
H18 H 0.3108 -0.3836 0.3689
C38 C 0.3484(3) -0.3213(3) 0.26454(16)
C39 C 0.3951(3) -0.2208(3) 0.22468(16)
H19 H 0.3978 -0.2261 0.1717
C40 C 0.3023(4) -0.4385(3) 0.22554(18)
F13? F 0.5681(8) 0.4687(9) 0.4065(5)
F14? F 0.7841(8) 0.5201(8) 0.4667(3)
F15? F 0.7264(10) 0.6072(5) 0.3633(5)
F16? F 1.2798(8) 0.3596(4) 0.3863(3)
F17? F 1.1943(5) 0.1863(5) 0.4219(3)
F18? F 1.2861(6) 0.2025(5) 0.3105(3)
C41? C 0.3886(14) -0.1937(8) 0.4629(4)
F19? F 0.4202(13) -0.0832(6) 0.4922(4)
F20? F 0.4981(15) -0.2624(10) 0.4916(9)
F21? F 0.2516(12) -0.2280(13) 0.4932(10)
loop_
_geom_bond_atom_site_label_1
_geom_bond_atom_site_label_2
_geom_bond_site_symmetry_1
_geom_bond_site_symmetry_2
F1 C27 1_555 1_555
F2 C27 1_555 1_555
F3 C27 1_555 1_555
F4 C26 1_555 1_555
F5 C26 1_555 1_555
F6 C26 1_555 1_555
C1 F7 1_555 1_555
F8 C1 1_555 1_555
F9 C1 1_555 1_555
F10 C40 1_555 1_555
F11 C40 1_555 1_555
F12 C40 1_555 1_555
O1 C2 1_555 1_555
O2 C3 1_555 1_555
N1 C2 1_555 1_555
C2 C3 1_555 1_555
C3 C4 1_555 1_555
C4 C5 1_555 1_555
C5 H1 1_555 1_555
C6 C5 1_555 1_555
H2 C6 1_555 1_555
C7 C6 1_555 1_555
H3 C7 1_555 1_555
C8 C7 1_555 1_555
C9 N1 1_555 1_555
C10 N1 1_555 1_555
C11 C10 1_555 1_555
C12 C11 1_555 1_555
C13 C8 1_555 1_555
C14 C10 1_555 1_555
C15 C14 1_555 1_555
H4 C15 1_555 1_555
C16 C15 1_555 1_555
H5 C16 1_555 1_555
C17 C16 1_555 1_555
H6 C17 1_555 1_555
C18 C17 1_555 1_555
H7 C18 1_555 1_555
C19 C14 1_555 1_555
H8 C19 1_555 1_555
C20 C11 1_555 1_555
C21 C20 1_555 1_555
H9 C21 1_555 1_555
C22 C21 1_555 1_555
C23 C22 1_555 1_555
H10 C23 1_555 1_555
C24 C23 1_555 1_555
C25 C20 1_555 1_555
H11 C25 1_555 1_555
C26 C22 1_555 1_555
C27 C24 1_555 1_555
C28 C12 1_555 1_555
C29 C28 1_555 1_555
H12 C29 1_555 1_555
C30 C29 1_555 1_555
H13 C30 1_555 1_555
C31 C30 1_555 1_555
H14 C31 1_555 1_555
C32 C31 1_555 1_555
H15 C32 1_555 1_555
C33 C28 1_555 1_555
H16 C33 1_555 1_555
C34 C13 1_555 1_555
C35 C34 1_555 1_555
H17 C35 1_555 1_555
C36 C1 1_555 1_555
C37 C36 1_555 1_555
H18 C37 1_555 1_555
C38 C37 1_555 1_555
C39 C34 1_555 1_555
H19 C39 1_555 1_555
C40 C38 1_555 1_555
C4 C9 1_555 1_555
C8 C9 1_555 1_555
C12 C13 1_555 1_555
C18 C19 1_555 1_555
C24 C25 1_555 1_555
C32 C33 1_555 1_555
C35 C36 1_555 1_555
C38 C39 1_555 1_555

#END
