
#######################################################################
#
#                 Cambridge Crystallographic Data Centre
#                                CCDC 
#
#######################################################################
#
# If this CIF has been generated from an entry in the Cambridge 
# Structural Database, then it will include bibliographic, chemical, 
# crystal, experimental, refinement or atomic coordinate data resulting 
# from the CCDC's data processing and validation procedures.
#
#######################################################################

data_REVDAA
_chemical_formula_moiety         'C23 H16 Br1 N3'
_chemical_name_systematic        
2-(4-bromophenyl)-5-methyl-3-phenyl-5H-pyrazino[2,3-b]indole
_symmetry_cell_setting           monoclinic
_symmetry_space_group_name_H-M   'P 21/n'
_symmetry_Int_Tables_number      14
_space_group_name_Hall           '-P 2yn'
loop_
_symmetry_equiv_pos_site_id
_symmetry_equiv_pos_as_xyz
1 x,y,z
2 1/2-x,1/2+y,1/2-z
3 -x,-y,-z
4 1/2+x,1/2-y,1/2+z
_cell_length_a                   10.1674(2)
_cell_length_b                   15.1172(4)
_cell_length_c                   12.4673(3)
_cell_angle_alpha                90
_cell_angle_beta                 107.4410(13)
_cell_angle_gamma                90
_cell_volume                     1828.16
_exptl_crystal_colour            colorless
_exptl_crystal_description       plate
_cell_formula_units_Z            4
loop_
_atom_site_label
_atom_site_type_symbol
_atom_site_fract_x
_atom_site_fract_y
_atom_site_fract_z
Br1 Br 0.54553(3) 0.11933(2) 0.56169(3)
C1 C 0.6829(2) 0.20914(15) 0.6032(2)
C2 C 0.7412(3) 0.22875(16) 0.7156(2)
H1 H 0.7123 0.1999 0.7704
C3 C 0.8436(3) 0.29233(16) 0.7448(2)
H2 H 0.8858 0.3048 0.8204
C4 C 0.8848(2) 0.33775(14) 0.66413(19)
C5 C 0.8215(2) 0.31781(16) 0.5515(2)
H3 H 0.8464 0.3489 0.4962
C6 C 0.7220(2) 0.25230(17) 0.5207(2)
H4 H 0.6823 0.2378 0.4454
C7 C 0.9999(2) 0.40359(14) 0.69778(19)
C8 C 0.9822(2) 0.49466(14) 0.67104(19)
C9 C 0.8458(2) 0.53486(14) 0.61390(19)
C10 C 0.8337(3) 0.59471(17) 0.5269(2)
H5 H 0.9103 0.6077 0.5037
C11 C 0.7083(3) 0.63538(18) 0.4742(2)
H6 H 0.7008 0.6744 0.415
C12 C 0.5950(3) 0.61788(18) 0.5099(3)
H7 H 0.5111 0.6452 0.4751
C13 C 0.6067(3) 0.55949(18) 0.5975(3)
H8 H 0.5305 0.5482 0.6221
C14 C 0.7304(2) 0.51784(16) 0.6488(2)
H9 H 0.7367 0.4781 0.7071
C15 C 1.2099(2) 0.51582(14) 0.74942(19)
C16 C 1.2300(2) 0.42475(14) 0.77799(19)
C17 C 1.3755(2) 0.41231(15) 0.83105(19)
C18 C 1.4601(3) 0.33959(17) 0.8723(2)
H10 H 1.4231 0.283 0.8687
C19 C 1.6000(3) 0.35338(19) 0.9185(2)
H11 H 1.6577 0.3055 0.9463
C20 C 1.6557(3) 0.4379(2) 0.9242(2)
H12 H 1.7501 0.4454 0.9571
C21 C 1.5756(2) 0.51084(18) 0.8826(2)
H13 H 1.6141 0.567 0.8863
C22 C 1.4351(2) 0.49718(15) 0.8350(2)
C23 C 1.3544(3) 0.65338(16) 0.7773(2)
H14 H 1.2667 0.682 0.7474
H15 H 1.4102 0.6641 0.7286
H16 H 1.4 0.6765 0.8507
N1 N 1.12439(19) 0.36837(12) 0.75210(17)
N2 N 1.08961(19) 0.55184(12) 0.69637(17)
N3 N 1.3338(2) 0.55889(13) 0.78507(18)
loop_
_geom_bond_atom_site_label_1
_geom_bond_atom_site_label_2
_geom_bond_site_symmetry_1
_geom_bond_site_symmetry_2
Br1 C1 1_555 1_555
C1 C2 1_555 1_555
C2 H1 1_555 1_555
C3 C2 1_555 1_555
H2 C3 1_555 1_555
C4 C3 1_555 1_555
C5 C4 1_555 1_555
H3 C5 1_555 1_555
C6 C1 1_555 1_555
H4 C6 1_555 1_555
C7 C4 1_555 1_555
C8 C7 1_555 1_555
C9 C8 1_555 1_555
C10 C9 1_555 1_555
H5 C10 1_555 1_555
C11 C10 1_555 1_555
H6 C11 1_555 1_555
C12 C11 1_555 1_555
H7 C12 1_555 1_555
C13 C12 1_555 1_555
H8 C13 1_555 1_555
C14 C9 1_555 1_555
H9 C14 1_555 1_555
C15 C16 1_555 1_555
C16 C17 1_555 1_555
C17 C18 1_555 1_555
C18 H10 1_555 1_555
C19 C18 1_555 1_555
H11 C19 1_555 1_555
C20 C19 1_555 1_555
H12 C20 1_555 1_555
C21 C20 1_555 1_555
H13 C21 1_555 1_555
C22 C17 1_555 1_555
C23 H14 1_555 1_555
H15 C23 1_555 1_555
H16 C23 1_555 1_555
N1 C7 1_555 1_555
N2 C8 1_555 1_555
N3 C15 1_555 1_555
C5 C6 1_555 1_555
C13 C14 1_555 1_555
C15 N2 1_555 1_555
C16 N1 1_555 1_555
C21 C22 1_555 1_555
C22 N3 1_555 1_555
C23 N3 1_555 1_555

#END
