
#######################################################################
#
#                 Cambridge Crystallographic Data Centre
#                                CCDC 
#
#######################################################################
#
# If this CIF has been generated from an entry in the Cambridge 
# Structural Database, then it will include bibliographic, chemical, 
# crystal, experimental, refinement or atomic coordinate data resulting 
# from the CCDC's data processing and validation procedures.
#
#######################################################################

data_REVKEJ
_chemical_formula_moiety         'C22 H17 N3 O1'
_chemical_name_systematic        N-(1,4-Diphenyl-1H-pyrazol-5-yl)benzamide
_symmetry_cell_setting           monoclinic
_symmetry_space_group_name_H-M   'P 21/c'
_symmetry_Int_Tables_number      14
_space_group_name_Hall           '-P 2ybc'
loop_
_symmetry_equiv_pos_site_id
_symmetry_equiv_pos_as_xyz
1 x,y,z
2 -x,1/2+y,1/2-z
3 -x,-y,-z
4 x,1/2-y,1/2+z
_cell_length_a                   10.596(2)
_cell_length_b                   18.789(4)
_cell_length_c                   9.327(2)
_cell_angle_alpha                90
_cell_angle_beta                 104.9
_cell_angle_gamma                90
_cell_volume                     1794.46
_chemical_melting_point          '143-145 deg.C'
_cell_formula_units_Z            4
loop_
_atom_site_label
_atom_site_type_symbol
_atom_site_fract_x
_atom_site_fract_y
_atom_site_fract_z
O1 O 0.0978(1) 0.2057(1) 0.2259(2)
N1 N 0.2933(2) 0.1317(1) 0.0557(2)
N2 N 0.4228(2) 0.1233(1) 0.1318(2)
N3 N 0.1353(2) 0.2309(1) 0.0045(2)
C1 C 0.4681(2) 0.1898(1) 0.1704(3)
C2 C 0.3713(2) 0.2393(1) 0.1216(2)
C3 C 0.2625(2) 0.2026(1) 0.0507(2)
C4 C 0.2147(2) 0.0720(1) -0.0119(3)
C5 C 0.1298(2) 0.0781(1) -0.1513(3)
C6 C 0.0562(2) 0.0198(1) -0.2150(3)
C7 C 0.0691(3) -0.0441(1) -0.1414(3)
C8 C 0.1549(3) -0.0505(1) -0.0041(3)
C9 C 0.2275(2) 0.0074(1) 0.0616(3)
C10 C 0.3863(2) 0.3155(1) 0.1415(2)
C11 C 0.4515(2) 0.3442(1) 0.2780(3)
C12 C 0.4671(2) 0.4166(1) 0.2940(3)
C13 C 0.4194(2) 0.4617(1) 0.1765(3)
C14 C 0.3542(2) 0.4341(1) 0.0411(3)
C15 C 0.3379(2) 0.3612(1) 0.0222(3)
C16 C 0.0629(2) 0.2361(1) 0.1044(2)
C17 C -0.0579(2) 0.2795(1) 0.0647(2)
C18 C -0.0702(2) 0.3399(1) -0.0220(2)
C19 C -0.1819(2) 0.3811(1) -0.0479(3)
C20 C -0.2823(2) 0.3619(1) 0.0128(3)
C21 C -0.2710(2) 0.3017(2) 0.0989(3)
C22 C -0.1595(2) 0.2606(1) 0.1254(3)
H1 H 0.1080(20) 0.2504(14) -0.0880(30)
H2 H 0.5550 0.2007 0.2238
H3 H 0.1218 0.1221 -0.2031
H4 H -0.0034 0.0241 -0.3100
H5 H 0.0185 -0.0839 -0.1855
H6 H 0.1644 -0.0950 0.0461
H7 H 0.2862 0.0028 0.1571
H8 H 0.4853 0.3137 0.3602
H9 H 0.5114 0.4358 0.3876
H10 H 0.4315 0.5117 0.1887
H11 H 0.3200 0.4652 -0.0399
H12 H 0.2939 0.3424 -0.0719
H13 H -0.0011 0.3533 -0.0643
H14 H -0.1893 0.4226 -0.1076
H15 H -0.3592 0.3901 -0.0047
H16 H -0.3405 0.2884 0.1406
H17 H -0.1524 0.2192 0.1853
loop_
_geom_bond_atom_site_label_1
_geom_bond_atom_site_label_2
_geom_bond_site_symmetry_1
_geom_bond_site_symmetry_2
O1 C16 1_555 1_555
N1 N2 1_555 1_555
N2 C1 1_555 1_555
N3 C3 1_555 1_555
C1 C2 1_555 1_555
C2 C3 1_555 1_555
C3 N1 1_555 1_555
C4 N1 1_555 1_555
C5 C4 1_555 1_555
C6 C5 1_555 1_555
C7 C6 1_555 1_555
C8 C7 1_555 1_555
C9 C4 1_555 1_555
C10 C2 1_555 1_555
C11 C10 1_555 1_555
C12 C11 1_555 1_555
C13 C12 1_555 1_555
C14 C13 1_555 1_555
C15 C10 1_555 1_555
C16 N3 1_555 1_555
C17 C16 1_555 1_555
C18 C17 1_555 1_555
C19 C18 1_555 1_555
C20 C19 1_555 1_555
C21 C20 1_555 1_555
C22 C17 1_555 1_555
H1 N3 1_555 1_555
H2 C1 1_555 1_555
H3 C5 1_555 1_555
H4 C6 1_555 1_555
H5 C7 1_555 1_555
H6 C8 1_555 1_555
H7 C9 1_555 1_555
H8 C11 1_555 1_555
H9 C12 1_555 1_555
H10 C13 1_555 1_555
H11 C14 1_555 1_555
H12 C15 1_555 1_555
H13 C18 1_555 1_555
H14 C19 1_555 1_555
H15 C20 1_555 1_555
H16 C21 1_555 1_555
H17 C22 1_555 1_555
C8 C9 1_555 1_555
C14 C15 1_555 1_555
C21 C22 1_555 1_555

#END
