
#######################################################################
#
#                 Cambridge Crystallographic Data Centre
#                                CCDC 
#
#######################################################################
#
# If this CIF has been generated from an entry in the Cambridge 
# Structural Database, then it will include bibliographic, chemical, 
# crystal, experimental, refinement or atomic coordinate data resulting 
# from the CCDC's data processing and validation procedures.
#
#######################################################################

data_REVPEN
_chemical_formula_moiety         'C11 H10 N2 O1 S4'
_chemical_name_systematic        
1-(4,5-Dimethylthio-1,3-dithio-2-ylidene)-1-(2-pyridyl)-nitroso-methane
_symmetry_cell_setting           triclinic
_symmetry_space_group_name_H-M   'P -1'
_symmetry_Int_Tables_number      2
_space_group_name_Hall           '-P 1'
loop_
_symmetry_equiv_pos_site_id
_symmetry_equiv_pos_as_xyz
1 x,y,z
2 -x,-y,-z
_cell_length_a                   7.690(1)
_cell_length_b                   8.637(1)
_cell_length_c                   10.536(1)
_cell_angle_alpha                103.64(1)
_cell_angle_beta                 92.43(1)
_cell_angle_gamma                98.72(1)
_cell_volume                     669.96
_exptl_crystal_colour            'dark brown'
_chemical_melting_point          165-166deg.C
_cell_formula_units_Z            2
loop_
_atom_site_label
_atom_site_type_symbol
_atom_site_fract_x
_atom_site_fract_y
_atom_site_fract_z
S1 S 0.32640(6) 0.68411(5) 0.51029(4)
S2 S 0.16591(6) 0.39864(5) 0.58953(4)
S3 S 0.30145(8) 0.90396(6) 0.77867(5)
S4 S 0.11300(7) 0.57465(6) 0.86149(4)
O1 O 0.3910(2) 0.6107(2) 0.2894(1)
N1 N 0.3392(2) 0.4586(2) 0.2500(2)
N2 N 0.1545(2) 0.1333(2) 0.3856(1)
C1 C 0.2541(2) 0.4776(2) 0.4683(2)
C2 C 0.2635(2) 0.7132(2) 0.6716(2)
C3 C 0.1884(2) 0.5803(2) 0.7074(2)
C4 C 0.3994(3) 1.0330(2) 0.6818(2)
C5 C 0.3199(19) 0.5581(21) 0.9487(13)
C7 C 0.2681(2) 0.3856(2) 0.3397(2)
C8 C 0.2091(2) 0.2104(2) 0.2952(2)
C9 C 0.1027(3) -0.0272(2) 0.3469(2)
C10 C 0.1039(3) -0.1155(2) 0.2204(2)
C11 C 0.1581(3) -0.0340(3) 0.1276(2)
C12 C 0.2111(3) 0.1290(2) 0.1639(2)
H1 H 0.4331(19) 1.1408(5) 0.7358(4)
H2 H 0.3157(7) 1.0334(15) 0.6117(9)
H3 H 0.5019(12) 0.9942(11) 0.6461(12)
H4 H 0.2999(19) 0.5557(21) 1.0376(13)
H5 H 0.4062(19) 0.6507(21) 0.9481(13)
H6 H 0.3622(19) 0.4616(21) 0.9060(13)
H10 H 0.0638(3) -0.0816(2) 0.4095(2)
H11 H 0.0686(3) -0.2271(2) 0.1981(2)
H12 H 0.1594(3) -0.0901(3) 0.0407(2)
H13 H 0.2474(3) 0.1853(2) 0.1019(2)
C6? C 0.2862(30) 0.5309(38) 0.9357(20)
H7? H 0.2601(30) 0.5231(38) 1.0224(20)
H8? H 0.3857(30) 0.6148(38) 0.9409(20)
H9? H 0.3134(30) 0.4298(38) 0.8871(20)
loop_
_geom_bond_atom_site_label_1
_geom_bond_atom_site_label_2
_geom_bond_site_symmetry_1
_geom_bond_site_symmetry_2
S1 C1 1_555 1_555
S2 C1 1_555 1_555
S3 C2 1_555 1_555
S4 C3 1_555 1_555
O1 N1 1_555 1_555
N1 C7 1_555 1_555
N2 C8 1_555 1_555
C1 C7 1_555 1_555
C2 S1 1_555 1_555
C3 S2 1_555 1_555
C4 S3 1_555 1_555
C5 S4 1_555 1_555
C7 C8 1_555 1_555
C8 C12 1_555 1_555
C9 N2 1_555 1_555
C10 C9 1_555 1_555
C11 C10 1_555 1_555
C12 C11 1_555 1_555
H1 C4 1_555 1_555
H2 C4 1_555 1_555
H3 C4 1_555 1_555
H4 C5 1_555 1_555
H5 C5 1_555 1_555
H6 C5 1_555 1_555
H10 C9 1_555 1_555
H11 C10 1_555 1_555
H12 C11 1_555 1_555
H13 C12 1_555 1_555
C2 C3 1_555 1_555

#END
