
#######################################################################
#
#                 Cambridge Crystallographic Data Centre
#                                CCDC 
#
#######################################################################
#
# If this CIF has been generated from an entry in the Cambridge 
# Structural Database, then it will include bibliographic, chemical, 
# crystal, experimental, refinement or atomic coordinate data resulting 
# from the CCDC's data processing and validation procedures.
#
#######################################################################

data_REVXUO
_chemical_formula_moiety         'C20 H7 B1 F10 O2'
_chemical_name_systematic        
2,2-bis(perfluorophenyl)-5-phenyl-2,3-dihydro-1,4,2-dioxaborate
_symmetry_cell_setting           monoclinic
_symmetry_space_group_name_H-M   'P 21/c'
_symmetry_Int_Tables_number      14
_space_group_name_Hall           '-P 2ybc'
loop_
_symmetry_equiv_pos_site_id
_symmetry_equiv_pos_as_xyz
1 x,y,z
2 -x,1/2+y,1/2-z
3 -x,-y,-z
4 x,1/2-y,1/2+z
_cell_length_a                   10.6985(2)
_cell_length_b                   11.8901(2)
_cell_length_c                   14.7979(3)
_cell_angle_alpha                90
_cell_angle_beta                 104.8730(10)
_cell_angle_gamma                90
_cell_volume                     1819.32
_exptl_crystal_colour            colorless
_exptl_crystal_description       plate
_cell_formula_units_Z            4
loop_
_atom_site_label
_atom_site_type_symbol
_atom_site_fract_x
_atom_site_fract_y
_atom_site_fract_z
C1 C 0.3686(2) 0.6412(2) 0.15168(16)
H1 H 0.3555 0.6025 0.0907
H2 H 0.4351 0.7004 0.1565
C2 C 0.3168(2) 0.55592(18) 0.27503(15)
O1 O 0.40655(14) 0.55973(13) 0.23078(11)
O2 O 0.21873(13) 0.61875(12) 0.24721(10)
C3 C 0.3302(2) 0.48078(18) 0.35419(15)
C4 C 0.2281(2) 0.4702(2) 0.39563(16)
H3 H 0.1511 0.5125 0.3728
C5 C 0.2394(2) 0.3979(2) 0.47018(17)
H4 H 0.1694 0.3892 0.4982
C6 C 0.3522(2) 0.3380(2) 0.50419(17)
H5 H 0.3598 0.2890 0.5560
C7 C 0.4542(2) 0.3489(2) 0.46353(16)
H6 H 0.5316 0.3076 0.4875
C8 C 0.4439(2) 0.41980(19) 0.38794(15)
H7 H 0.5135 0.4269 0.3593
B1 B 0.2329(2) 0.6946(2) 0.16386(17)
C9 C 0.24527(19) 0.82374(18) 0.20180(15)
F1 F 0.08138(12) 0.90384(11) 0.07857(9)
C10 C 0.1734(2) 0.91537(18) 0.16040(15)
F2 F 0.11439(14) 1.10747(11) 0.15250(10)
C11 C 0.1883(2) 1.02265(19) 0.19685(16)
F3 F 0.29690(14) 1.14747(12) 0.31420(10)
C12 C 0.2791(2) 1.04305(19) 0.27951(17)
F4 F 0.43949(13) 0.97232(13) 0.40659(9)
C13 C 0.3516(2) 0.9553(2) 0.32470(15)
F5 F 0.41330(12) 0.76804(11) 0.33208(9)
C14 C 0.3347(2) 0.85039(19) 0.28513(15)
C15 C 0.11051(19) 0.67094(17) 0.07546(15)
F6 F -0.03171(12) 0.61237(13) 0.16534(9)
C16 C -0.0095(2) 0.63356(18) 0.08163(15)
F7 F -0.22591(12) 0.57731(12) 0.01403(10)
C17 C -0.1119(2) 0.61567(18) 0.00407(16)
F8 F -0.19614(13) 0.62047(12) -0.15880(10)
C18 C -0.0962(2) 0.63619(18) -0.08352(15)
F9 F 0.03647(14) 0.69198(14) -0.17942(9)
C19 C 0.0208(2) 0.67265(19) -0.09433(15)
F10 F 0.23271(12) 0.72932(13) -0.02826(10)
C20 C 0.1200(2) 0.68932(19) -0.01514(16)
loop_
_geom_bond_atom_site_label_1
_geom_bond_atom_site_label_2
_geom_bond_site_symmetry_1
_geom_bond_site_symmetry_2
C1 H1 1_555 1_555
H2 C1 1_555 1_555
C2 O1 1_555 1_555
O1 C1 1_555 1_555
O2 C2 1_555 1_555
C3 C2 1_555 1_555
C4 C3 1_555 1_555
H3 C4 1_555 1_555
C5 C4 1_555 1_555
H4 C5 1_555 1_555
C6 C5 1_555 1_555
H5 C6 1_555 1_555
C7 C6 1_555 1_555
H6 C7 1_555 1_555
C8 C3 1_555 1_555
H7 C8 1_555 1_555
B1 C1 1_555 1_555
C9 B1 1_555 1_555
F1 C10 1_555 1_555
C10 C9 1_555 1_555
F2 C11 1_555 1_555
C11 C10 1_555 1_555
F3 C12 1_555 1_555
C12 C11 1_555 1_555
F4 C13 1_555 1_555
C13 C12 1_555 1_555
F5 C14 1_555 1_555
C14 C9 1_555 1_555
C15 B1 1_555 1_555
F6 C16 1_555 1_555
C16 C15 1_555 1_555
F7 C17 1_555 1_555
C17 C16 1_555 1_555
F8 C18 1_555 1_555
C18 C17 1_555 1_555
F9 C19 1_555 1_555
C19 C18 1_555 1_555
F10 C20 1_555 1_555
C20 C15 1_555 1_555
O2 B1 1_555 1_555
C7 C8 1_555 1_555
C13 C14 1_555 1_555
C19 C20 1_555 1_555

#END
