
#######################################################################
#
#                 Cambridge Crystallographic Data Centre
#                                CCDC 
#
#######################################################################
#
# If this CIF has been generated from an entry in the Cambridge 
# Structural Database, then it will include bibliographic, chemical, 
# crystal, experimental, refinement or atomic coordinate data resulting 
# from the CCDC's data processing and validation procedures.
#
#######################################################################

data_REWBOK
_chemical_formula_moiety         'C18 H22 N2 O2 S2'
_chemical_name_systematic        
3,8,9,10,11,16b-Hexahydro-4-methyl-2-(methylthio)-5H,7H-(7,1)benzoxathiacyclo-dodecino(10,9-d)pyrimidin-5-one
_chemical_properties_biological  'calcium agonist and antagonist activity'
_symmetry_cell_setting           monoclinic
_symmetry_space_group_name_H-M   'P 21/c'
_symmetry_Int_Tables_number      14
_space_group_name_Hall           '-P 2ybc'
loop_
_symmetry_equiv_pos_site_id
_symmetry_equiv_pos_as_xyz
1 x,y,z
2 -x,1/2+y,1/2-z
3 -x,-y,-z
4 x,1/2-y,1/2+z
_cell_length_a                   10.922(2)
_cell_length_b                   12.792(2)
_cell_length_c                   13.875(3)
_cell_angle_alpha                90
_cell_angle_beta                 109.14(1)
_cell_angle_gamma                90
_cell_volume                     1831.37
_cell_formula_units_Z            4
loop_
_atom_site_label
_atom_site_type_symbol
_atom_site_fract_x
_atom_site_fract_y
_atom_site_fract_z
N1 N 0.637(1) 0.446(1) 0.383(1)
C1 C 0.660(2) 0.439(1) 0.296(1)
N2 N 0.700(1) 0.353(1) 0.2601(9)
C2 C 0.759(2) 0.267(1) 0.329(1)
C3 C 0.696(2) 0.268(1) 0.413(1)
C4 C 0.642(2) 0.355(2) 0.437(1)
C5 C 0.909(2) 0.276(1) 0.373(1)
C6 C 0.984(2) 0.224(1) 0.326(1)
C7 C 1.114(2) 0.238(2) 0.364(1)
C8 C 1.170(2) 0.306(2) 0.446(1)
C9 C 1.093(2) 0.356(2) 0.492(1)
C10 C 0.963(2) 0.339(2) 0.454(1)
S1 S 0.6395(5) 0.5475(4) 0.2157(4)
C11 C 0.566(2) 0.640(2) 0.277(2)
C12 C 0.700(2) 0.167(2) 0.466(1)
O1 O 0.697(1) 0.153(1) 0.5527(9)
O2 O 0.714(1) 0.086(1) 0.4095(9)
C13 C 0.726(2) -0.019(2) 0.451(1)
C14 C 0.717(2) -0.092(2) 0.362(1)
C15 C 0.781(2) -0.056(2) 0.288(1)
C16 C 0.924(2) -0.031(2) 0.337(1)
C17 C 0.985(2) 0.013(2) 0.265(2)
S2 S 0.9206(5) 0.1440(5) 0.2156(4)
C18 C 0.580(2) 0.362(2) 0.518(1)
H1 H 0.7430 0.2022 0.2931
H2 H 1.1693 0.2012 0.3350
H3 H 1.2608 0.3173 0.4702
H4 H 1.1296 0.4005 0.5493
H5 H 0.9083 0.3737 0.4846
H6 H 0.5496 0.7034 0.2388
H7 H 0.4866 0.6126 0.2799
H8 H 0.6227 0.6535 0.3438
H9 H 0.6576 -0.0335 0.4777
H10 H 0.8069 -0.0278 0.5039
H11 H 0.7555 -0.1569 0.3901
H12 H 0.6279 -0.1026 0.3255
H13 H 0.7384 0.0047 0.2548
H14 H 0.7732 -0.1101 0.2389
H15 H 0.9683 -0.0942 0.3643
H16 H 0.9329 0.0171 0.3905
H17 H 0.9706 -0.0327 0.2095
H18 H 1.0753 0.0200 0.3002
H19 H 0.5493 0.4306 0.5200
H20 H 0.5094 0.3140 0.5023
H21 H 0.6418 0.3442 0.5816
loop_
_geom_bond_atom_site_label_1
_geom_bond_atom_site_label_2
_geom_bond_site_symmetry_1
_geom_bond_site_symmetry_2
N1 C1 1_555 1_555
C1 N2 1_555 1_555
N2 C2 1_555 1_555
C2 C3 1_555 1_555
C3 C4 1_555 1_555
C4 N1 1_555 1_555
C5 C2 1_555 1_555
C6 C5 1_555 1_555
C7 C6 1_555 1_555
C8 C7 1_555 1_555
C9 C8 1_555 1_555
C10 C5 1_555 1_555
S1 C1 1_555 1_555
C11 S1 1_555 1_555
C12 C3 1_555 1_555
O1 C12 1_555 1_555
O2 C12 1_555 1_555
C13 O2 1_555 1_555
C14 C13 1_555 1_555
C15 C14 1_555 1_555
C16 C15 1_555 1_555
C17 C16 1_555 1_555
S2 C6 1_555 1_555
C18 C4 1_555 1_555
H1 C2 1_555 1_555
H2 C7 1_555 1_555
H3 C8 1_555 1_555
H4 C9 1_555 1_555
H5 C10 1_555 1_555
H6 C11 1_555 1_555
H7 C11 1_555 1_555
H8 C11 1_555 1_555
H9 C13 1_555 1_555
H10 C13 1_555 1_555
H11 C14 1_555 1_555
H12 C14 1_555 1_555
H13 C15 1_555 1_555
H14 C15 1_555 1_555
H15 C16 1_555 1_555
H16 C16 1_555 1_555
H17 C17 1_555 1_555
H18 C17 1_555 1_555
H19 C18 1_555 1_555
H20 C18 1_555 1_555
H21 C18 1_555 1_555
C9 C10 1_555 1_555
C17 S2 1_555 1_555

#END
