
#######################################################################
#
#                 Cambridge Crystallographic Data Centre
#                                CCDC 
#
#######################################################################
#
# If this CIF has been generated from an entry in the Cambridge 
# Structural Database, then it will include bibliographic, chemical, 
# crystal, experimental, refinement or atomic coordinate data resulting 
# from the CCDC's data processing and validation procedures.
#
#######################################################################

data_REWWAR
_chemical_compound_source        'Fungus Fusarium sp'
_chemical_formula_moiety         'C17 H25 N1 O3'
_chemical_name_systematic        Fusaricide
_chemical_properties_biological  
'antifungal and antitumour activity and potential antiviral activity'
_symmetry_cell_setting           rhombohedral
_symmetry_space_group_name_H-M   'R 3'
_symmetry_Int_Tables_number      146
_space_group_name_Hall           'R 3'
loop_
_symmetry_equiv_pos_site_id
_symmetry_equiv_pos_as_xyz
1 x,y,z
2 -y,x-y,z
3 -x+y,-x,z
4 1/3+x,2/3+y,2/3+z
5 1/3-y,2/3+x-y,2/3+z
6 1/3-x+y,2/3-x,2/3+z
7 2/3+x,1/3+y,1/3+z
8 2/3-y,1/3+x-y,1/3+z
9 2/3-x+y,1/3-x,1/3+z
_cell_length_a                   21.597(1)
_cell_length_b                   21.597(1)
_cell_length_c                   8.9085(8)
_cell_angle_alpha                90
_cell_angle_beta                 90
_cell_angle_gamma                120.00
_cell_volume                     3598.5
_exptl_crystal_colour            colorless
_chemical_melting_point          208deg.C
_cell_formula_units_Z            9
loop_
_atom_site_label
_atom_site_type_symbol
_atom_site_fract_x
_atom_site_fract_y
_atom_site_fract_z
O1 O 0.25138(5) 0.03559(6) 0.4933(1)
O2 O 0.09450(5) 0.03239(5) 0.9677(1)
O3 O 0.03886(5) -0.07685(5) 0.7845(1)
N1 N 0.13560(5) 0.02746(5) 0.8539(1)
C1 C 0.21119(6) 0.02723(6) 0.6153(2)
C2 C 0.24110(7) 0.08512(8) 0.7170(2)
C3 C 0.20213(7) 0.08360(7) 0.8345(2)
C4 C 0.10194(6) -0.03148(6) 0.7596(2)
C5 C 0.14551(5) -0.03282(6) 0.6386(1)
C6 C 0.12198(5) -0.09042(5) 0.5189(2)
C7 C 0.04758(6) -0.15753(6) 0.5348(2)
C8 C 0.04659(9) -0.20197(7) 0.6683(2)
C9 C 0.02798(8) -0.20357(7) 0.3937(2)
C10 C 0.03576(7) -0.16487(7) 0.2478(2)
C11 C 0.0152(1) -0.21459(9) 0.1129(2)
C12 C 0.11273(6) -0.10400(6) 0.2342(2)
C13 C 0.09931(6) -0.00665(6) 0.3567(2)
C14 C 0.13731(5) -0.05079(5) 0.3658(2)
C15 C 0.21876(6) -0.00409(6) 0.3555(2)
C16 C 0.2476(1) 0.0504(1) 0.2297(2)
C17 C 0.3276(1) 0.0843(1) 0.2086(3)
H1 H 0.289 0.125 0.701
H2 H 0.222 0.123 0.908
H3 H 0.074 0.056 0.924
H4 H 0.149 -0.114 0.533
H5 H 0.014 -0.142 0.550
H6 H 0.004 -0.145 0.247
H7 H 0.231 -0.040 0.334
H8 H 0.059 -0.174 0.759
H9 H 0.000 -0.243 0.682
H10 H 0.080 -0.218 0.654
H11 H 0.057 -0.225 0.393
H12 H -0.021 -0.241 0.406
H13 H 0.118 -0.079 0.144
H14 H 0.143 -0.124 0.231
H15 H 0.114 0.027 0.441
H16 H 0.111 0.020 0.267
H17 H 0.049 -0.037 0.364
H18 H 0.345 0.122 0.135
H19 H 0.235 0.088 0.255
H20 H 0.352 0.110 0.304
H21 H 0.225 0.030 0.139
H22 H 0.341 0.052 0.188
H23 H 0.013 -0.195 -0.001
H24 H -0.032 -0.254 0.136
H25 H 0.048 -0.232 0.111
loop_
_geom_bond_atom_site_label_1
_geom_bond_atom_site_label_2
_geom_bond_site_symmetry_1
_geom_bond_site_symmetry_2
O1 C1 1_555 1_555
O2 N1 1_555 1_555
O3 C4 1_555 1_555
N1 C3 1_555 1_555
C1 C2 1_555 1_555
C2 C3 1_555 1_555
C3 H2 1_555 1_555
C4 N1 1_555 1_555
C5 C1 1_555 1_555
C6 C5 1_555 1_555
C7 C6 1_555 1_555
C8 C7 1_555 1_555
C9 C7 1_555 1_555
C10 C9 1_555 1_555
C11 C10 1_555 1_555
C12 C10 1_555 1_555
C13 C14 1_555 1_555
C14 C6 1_555 1_555
C15 O1 1_555 1_555
C16 C15 1_555 1_555
C17 C16 1_555 1_555
H1 C2 1_555 1_555
H3 O2 1_555 1_555
H4 C6 1_555 1_555
H5 C7 1_555 1_555
H6 C10 1_555 1_555
H7 C15 1_555 1_555
H8 C8 1_555 1_555
H9 C8 1_555 1_555
H10 C8 1_555 1_555
H11 C9 1_555 1_555
H12 C9 1_555 1_555
H13 C12 1_555 1_555
H14 C12 1_555 1_555
H15 C13 1_555 1_555
H16 C13 1_555 1_555
H17 C13 1_555 1_555
H18 C17 1_555 1_555
H19 C16 1_555 1_555
H20 C17 1_555 1_555
H21 C16 1_555 1_555
H22 C17 1_555 1_555
H23 C11 1_555 1_555
H24 C11 1_555 1_555
H25 C11 1_555 1_555
C4 C5 1_555 1_555
C12 C14 1_555 1_555
C14 C15 1_555 1_555

#END
