
#######################################################################
#
#                 Cambridge Crystallographic Data Centre
#                                CCDC 
#
#######################################################################
#
# If this CIF has been generated from an entry in the Cambridge 
# Structural Database, then it will include bibliographic, chemical, 
# crystal, experimental, refinement or atomic coordinate data resulting 
# from the CCDC's data processing and validation procedures.
#
#######################################################################

data_REXDEE
_chemical_formula_moiety         'C23 H21 N7 2+,Cl1 1-,F6 P1 1-'
_chemical_name_systematic        
'1(2,3)-Quinoxalina-5(2,6)-pyridina-3,7(1,3)-diimidazolacyclooctaphane-3^1^,7^1^-diium chloride hexafluorophosphate'
_symmetry_cell_setting           monoclinic
_symmetry_space_group_name_H-M   'P 21/n'
_symmetry_Int_Tables_number      14
_space_group_name_Hall           '-P 2yn'
loop_
_symmetry_equiv_pos_site_id
_symmetry_equiv_pos_as_xyz
1 x,y,z
2 1/2-x,1/2+y,1/2-z
3 -x,-y,-z
4 1/2+x,1/2-y,1/2+z
_cell_length_a                   16.738(3)
_cell_length_b                   8.6349(14)
_cell_length_c                   17.809(3)
_cell_angle_alpha                90
_cell_angle_beta                 99.182(4)
_cell_angle_gamma                90
_cell_volume                     2540.97
_exptl_crystal_colour            colorless
_exptl_crystal_description       needle
_cell_formula_units_Z            4
loop_
_atom_site_label
_atom_site_type_symbol
_atom_site_fract_x
_atom_site_fract_y
_atom_site_fract_z
Cl1 Cl 0.54877(8) 0.82461(15) 0.10428(8)
C1 C 0.1666(3) 0.0242(6) 0.1752(3)
C2 C 0.0973(3) 0.0052(6) 0.2095(4)
H1 H 0.0992 -0.0576 0.2522
C3 C 0.0271(4) 0.0792(8) 0.1801(5)
H2 H -0.0184 0.0678 0.2036
C4 C 0.0230(4) 0.1699(8) 0.1165(5)
H3 H -0.0258 0.2168 0.0964
C5 C 0.0899(3) 0.1926(7) 0.0820(4)
H4 H 0.0869 0.2586 0.0404
C6 C 0.1629(3) 0.1160(6) 0.1098(3)
C7 C 0.2937(3) 0.0588(5) 0.1006(3)
C8 C 0.2991(3) -0.0320(5) 0.1683(3)
C9 C 0.3627(3) 0.0718(5) 0.0551(3)
H5 H 0.3965 -0.0199 0.0636
H6 H 0.3409 0.0768 0.0013
C10 C 0.4924(3) 0.2138(5) 0.0846(3)
H7 H 0.5263 0.1286 0.0843
C11 C 0.3843(3) 0.3583(5) 0.0786(3)
H8 H 0.3304 0.3888 0.0733
C12 C 0.4489(3) 0.4521(5) 0.0895(3)
H9 H 0.4484 0.5594 0.0938
C13 C 0.5997(3) 0.4118(6) 0.1092(3)
H10 H 0.6031 0.5166 0.0904
H11 H 0.6330 0.3460 0.0827
C14 C 0.6321(3) 0.4084(5) 0.1937(3)
C15 C 0.6794(3) 0.5269(6) 0.2279(3)
H12 H 0.6912 0.6127 0.2001
C16 C 0.7087(3) 0.5150(8) 0.3040(4)
H13 H 0.7416 0.5926 0.3285
C17 C 0.6895(3) 0.3892(7) 0.3440(3)
H14 H 0.7090 0.3797 0.3957
C18 C 0.6401(3) 0.2754(6) 0.3056(3)
C19 C 0.6194(3) 0.1316(7) 0.3452(3)
H15 H 0.6545 0.0482 0.3342
H16 H 0.6293 0.1492 0.3997
C20 C 0.5072(3) -0.0023(6) 0.2629(3)
H17 H 0.5386 -0.0476 0.2302
C21 C 0.4707(3) 0.1306(7) 0.3559(3)
H18 H 0.4731 0.1930 0.3987
C22 C 0.4043(3) 0.0694(7) 0.3158(3)
H19 H 0.3517 0.0814 0.3255
C23 C 0.3759(3) -0.1143(5) 0.2032(3)
H20 H 0.3620 -0.2070 0.2291
H21 H 0.4057 -0.1455 0.1632
N1 N 0.2373(2) -0.0489(5) 0.2046(2)
N2 N 0.2275(2) 0.1324(5) 0.0724(2)
N3 N 0.4122(2) 0.2093(4) 0.0766(2)
N4 N 0.5159(2) 0.3590(4) 0.0931(2)
N5 N 0.6125(2) 0.2846(4) 0.2312(2)
N6 N 0.5346(2) 0.0843(5) 0.3221(2)
N7 N 0.4274(2) -0.0144(4) 0.2576(2)
P1 P 0.79593(8) 0.33396(17) 0.99872(9)
F1 F 0.75036(16) 0.4713(4) 1.03329(19)
F2 F 0.8414(2) 0.2023(5) 0.9633(3)
F3 F 0.8735(2) 0.4367(5) 1.0003(2)
F4 F 0.8314(3) 0.2893(5) 1.0838(3)
F5 F 0.7210(2) 0.2277(5) 1.0019(3)
F6 F 0.7602(3) 0.3855(7) 0.9166(2)
loop_
_geom_bond_atom_site_label_1
_geom_bond_atom_site_label_2
_geom_bond_site_symmetry_1
_geom_bond_site_symmetry_2
C1 C2 1_555 1_555
C2 H1 1_555 1_555
C3 C2 1_555 1_555
H2 C3 1_555 1_555
C4 C3 1_555 1_555
H3 C4 1_555 1_555
C5 C4 1_555 1_555
H4 C5 1_555 1_555
C6 C1 1_555 1_555
C7 C8 1_555 1_555
C8 C23 1_555 1_555
C9 C7 1_555 1_555
H5 C9 1_555 1_555
H6 C9 1_555 1_555
C10 H7 1_555 1_555
C11 H8 1_555 1_555
C12 C11 1_555 1_555
H9 C12 1_555 1_555
C13 H10 1_555 1_555
H11 C13 1_555 1_555
C14 C13 1_555 1_555
C15 C14 1_555 1_555
H12 C15 1_555 1_555
C16 C15 1_555 1_555
H13 C16 1_555 1_555
C17 C16 1_555 1_555
H14 C17 1_555 1_555
C18 C17 1_555 1_555
C19 C18 1_555 1_555
H15 C19 1_555 1_555
H16 C19 1_555 1_555
C20 H17 1_555 1_555
C21 H18 1_555 1_555
C22 C21 1_555 1_555
H19 C22 1_555 1_555
C23 H20 1_555 1_555
H21 C23 1_555 1_555
N1 C1 1_555 1_555
N2 C6 1_555 1_555
N3 C9 1_555 1_555
N4 C10 1_555 1_555
N5 C14 1_555 1_555
N6 C19 1_555 1_555
N7 C20 1_555 1_555
P1 F1 1_555 1_555
F2 P1 1_555 1_555
F3 P1 1_555 1_555
F4 P1 1_555 1_555
F5 P1 1_555 1_555
F6 P1 1_555 1_555
C5 C6 1_555 1_555
C7 N2 1_555 1_555
C8 N1 1_555 1_555
C10 N3 1_555 1_555
C11 N3 1_555 1_555
C12 N4 1_555 1_555
C13 N4 1_555 1_555
C18 N5 1_555 1_555
C20 N6 1_555 1_555
C21 N6 1_555 1_555
C22 N7 1_555 1_555
C23 N7 1_555 1_555

#END
