
#######################################################################
#
#                 Cambridge Crystallographic Data Centre
#                                CCDC 
#
#######################################################################
#
# If this CIF has been generated from an entry in the Cambridge 
# Structural Database, then it will include bibliographic, chemical, 
# crystal, experimental, refinement or atomic coordinate data resulting 
# from the CCDC's data processing and validation procedures.
#
#######################################################################

data_REXMEO
_chemical_formula_moiety         'C29 H44 O4'
_chemical_name_systematic        
2-Acetyl-2,4b,6a,9,9,10b,12a-heptamethylhexadecahydro-2H-spiro[chrysene-1,2'-oxetane]-3',4'-dione
_symmetry_cell_setting           monoclinic
_symmetry_space_group_name_H-M   'P 21'
_symmetry_Int_Tables_number      4
_space_group_name_Hall           'P 2yb'
loop_
_symmetry_equiv_pos_site_id
_symmetry_equiv_pos_as_xyz
1 x,y,z
2 -x,1/2+y,-z
_cell_length_a                   6.42080(10)
_cell_length_b                   12.4697(2)
_cell_length_c                   15.6648(2)
_cell_angle_alpha                90
_cell_angle_beta                 93.3890(10)
_cell_angle_gamma                90
_cell_volume                     1252.02
_exptl_crystal_colour            colorless
_exptl_crystal_description       prism
_cell_formula_units_Z            2
loop_
_atom_site_label
_atom_site_type_symbol
_atom_site_fract_x
_atom_site_fract_y
_atom_site_fract_z
O1 O 0.4021(2) 0.70627(10) 0.14720(8)
O2 O 0.37318(17) 0.52347(9) 0.12788(7)
C1 C 0.3797(2) 0.15003(12) 0.27025(10)
H1 H 0.3203 0.0849 0.2420
H2 H 0.4958 0.1749 0.2364
C2 C 0.2900(3) 0.32191(14) 0.67095(11)
H3 H 0.2082 0.3883 0.6686
H4 H 0.4377 0.3388 0.6656
H5 H 0.2729 0.2858 0.7257
O3 O 0.25452(19) 0.59572(9) -0.03776(7)
O4 O -0.0866(2) 0.63596(10) 0.09490(8)
C3 C 0.2084(2) 0.23845(12) 0.26699(9)
C4 C -0.0152(3) 0.22135(14) 0.60922(11)
H6 H -0.0284 0.1886 0.6655
H7 H -0.0654 0.1711 0.5645
H8 H -0.0985 0.2872 0.6050
C5 C 0.2138(3) 0.24819(12) 0.59762(10)
C6 C 0.2343(2) 0.30897(12) 0.51269(9)
H9 H 0.1326 0.3687 0.5103
H10 H 0.3755 0.3410 0.5134
C7 C 0.1999(2) 0.24214(11) 0.43017(9)
H11 H 0.0490 0.2218 0.4257
C8 C 0.2394(2) 0.31084(12) 0.34913(9)
C9 C 0.2320(2) 0.30886(12) 0.18571(9)
H12 H 0.3760 0.3394 0.1926
C10 C 0.2261(2) 0.24646(12) 0.10056(10)
H13 H 0.3145 0.1816 0.1073
H14 H 0.0814 0.2232 0.0849
C11 C 0.3053(2) 0.31742(13) 0.02932(9)
H15 H 0.2995 0.2762 -0.0248
H16 H 0.4530 0.3364 0.0437
C12 C 0.1776(2) 0.42097(13) 0.01595(9)
C13 C 0.2757(3) 0.49917(14) -0.04612(10)
C14 C 0.3845(3) 0.45362(15) -0.11947(11)
H17 H 0.3867 0.5070 -0.1653
H18 H 0.3103 0.3894 -0.1408
H19 H 0.5278 0.4345 -0.1005
C15 C 0.3040(3) 0.62827(14) 0.12921(10)
C16 C 0.1630(2) 0.47745(12) 0.10309(10)
C17 C 0.4703(2) 0.11853(13) 0.36034(10)
H20 H 0.5990 0.1609 0.3727
H21 H 0.5117 0.0421 0.3587
C18 C 0.3283(2) 0.13366(12) 0.43569(10)
C19 C 0.4608(2) 0.36067(13) 0.35695(10)
H22 H 0.5143 0.3678 0.2999
H23 H 0.5539 0.3142 0.3923
H24 H 0.4543 0.4316 0.3836
C20 C 0.0814(2) 0.40400(12) 0.34152(9)
H25 H -0.0618 0.3743 0.3400
H26 H 0.1003 0.4501 0.3928
C21 C 0.1052(3) 0.47278(12) 0.26133(10)
H27 H 0.2434 0.5082 0.2658
H28 H -0.0026 0.5296 0.2592
C22 C 0.0849(2) 0.40794(12) 0.17741(9)
C23 C -0.1499(2) 0.38408(14) 0.15829(10)
H29 H -0.2173 0.3737 0.2122
H30 H -0.1655 0.3189 0.1235
H31 H -0.2154 0.4445 0.1270
C24 C 0.3498(3) 0.14491(13) 0.59904(10)
H32 H 0.4497 0.1468 0.6496
H33 H 0.2588 0.0815 0.6045
C25 C 0.4702(2) 0.13371(13) 0.51822(10)
H34 H 0.5509 0.0660 0.5214
H35 H 0.5708 0.1937 0.5159
C26 C 0.1837(3) 0.03463(13) 0.43885(10)
H36 H 0.2636 -0.0267 0.4622
H37 H 0.1272 0.0176 0.3810
H38 H 0.0688 0.0503 0.4754
C27 C -0.0060(2) 0.18157(13) 0.26196(10)
H39 H -0.0317 0.1499 0.2051
H40 H -0.1157 0.2338 0.2722
H41 H -0.0063 0.1250 0.3054
C28 C -0.0380(3) 0.39872(15) -0.03021(10)
H42 H -0.0200 0.3833 -0.0907
H43 H -0.1276 0.4618 -0.0255
H44 H -0.1029 0.3369 -0.0037
C29 C 0.0794(3) 0.59297(13) 0.10258(9)
loop_
_geom_bond_atom_site_label_1
_geom_bond_atom_site_label_2
_geom_bond_site_symmetry_1
_geom_bond_site_symmetry_2
O1 C15 1_555 1_555
O2 C15 1_555 1_555
C1 H1 1_555 1_555
H2 C1 1_555 1_555
C2 H3 1_555 1_555
H4 C2 1_555 1_555
H5 C2 1_555 1_555
O3 C13 1_555 1_555
O4 C29 1_555 1_555
C3 C1 1_555 1_555
C4 H6 1_555 1_555
H7 C4 1_555 1_555
H8 C4 1_555 1_555
C5 C2 1_555 1_555
C6 C5 1_555 1_555
H9 C6 1_555 1_555
H10 C6 1_555 1_555
C7 C6 1_555 1_555
H11 C7 1_555 1_555
C8 C3 1_555 1_555
C9 C3 1_555 1_555
H12 C9 1_555 1_555
C10 C9 1_555 1_555
H13 C10 1_555 1_555
H14 C10 1_555 1_555
C11 C10 1_555 1_555
H15 C11 1_555 1_555
H16 C11 1_555 1_555
C12 C11 1_555 1_555
C13 C12 1_555 1_555
C14 C13 1_555 1_555
H17 C14 1_555 1_555
H18 C14 1_555 1_555
H19 C14 1_555 1_555
C15 C29 1_555 1_555
C16 O2 1_555 1_555
C17 C1 1_555 1_555
H20 C17 1_555 1_555
H21 C17 1_555 1_555
C18 C7 1_555 1_555
C19 C8 1_555 1_555
H22 C19 1_555 1_555
H23 C19 1_555 1_555
H24 C19 1_555 1_555
C20 C8 1_555 1_555
H25 C20 1_555 1_555
H26 C20 1_555 1_555
C21 C20 1_555 1_555
H27 C21 1_555 1_555
H28 C21 1_555 1_555
C22 C9 1_555 1_555
C23 C22 1_555 1_555
H29 C23 1_555 1_555
H30 C23 1_555 1_555
H31 C23 1_555 1_555
C24 C5 1_555 1_555
H32 C24 1_555 1_555
H33 C24 1_555 1_555
C25 C18 1_555 1_555
H34 C25 1_555 1_555
H35 C25 1_555 1_555
C26 C18 1_555 1_555
H36 C26 1_555 1_555
H37 C26 1_555 1_555
H38 C26 1_555 1_555
C27 C3 1_555 1_555
H39 C27 1_555 1_555
H40 C27 1_555 1_555
H41 C27 1_555 1_555
C28 C12 1_555 1_555
H42 C28 1_555 1_555
H43 C28 1_555 1_555
H44 C28 1_555 1_555
C29 C16 1_555 1_555
C4 C5 1_555 1_555
C7 C8 1_555 1_555
C12 C16 1_555 1_555
C16 C22 1_555 1_555
C17 C18 1_555 1_555
C21 C22 1_555 1_555
C24 C25 1_555 1_555

#END
