
#######################################################################
#
#                 Cambridge Crystallographic Data Centre
#                                CCDC 
#
#######################################################################
#
# If this CIF has been generated from an entry in the Cambridge 
# Structural Database, then it will include bibliographic, chemical, 
# crystal, experimental, refinement or atomic coordinate data resulting 
# from the CCDC's data processing and validation procedures.
#
#######################################################################

data_REXQIV
_chemical_formula_moiety         'C11 H8 Cl1 N5 S1'
_chemical_name_systematic        
2-amino-4-(4-chlorophenyl)-5-(1H-1,2,4-triazol-1-yl)-1,3-thiazole
_chemical_properties_biological  'slight antifungal activity'
_symmetry_cell_setting           orthorhombic
_symmetry_space_group_name_H-M   'P 21 21 21'
_symmetry_Int_Tables_number      19
_space_group_name_Hall           'P 2ac 2ab'
loop_
_symmetry_equiv_pos_site_id
_symmetry_equiv_pos_as_xyz
1 x,y,z
2 1/2-x,-y,1/2+z
3 -x,1/2+y,1/2-z
4 1/2+x,1/2-y,-z
_cell_length_a                   7.540(15)
_cell_length_b                   11.27(2)
_cell_length_c                   14.65(3)
_cell_angle_alpha                90
_cell_angle_beta                 90
_cell_angle_gamma                90
_cell_volume                     1244.9
_exptl_crystal_colour            colorless
_cell_formula_units_Z            4
_exptl_crystal_recrystallization_method methanol
loop_
_atom_site_label
_atom_site_type_symbol
_atom_site_fract_x
_atom_site_fract_y
_atom_site_fract_z
S1 S 0.82650(8) 0.90874(6) 0.69969(4)
Cl1 Cl 0.83685(15) 0.59876(10) 0.16483(6)
N1 N 0.7706(3) 1.00351(19) 0.53029(13)
N2 N 0.8602(3) 1.1070(2) 0.54674(16)
N3 N 0.6527(3) 1.1320(2) 0.43536(14)
N4 N 0.8929(3) 0.7072(2) 0.61905(13)
N5 N 0.9203(3) 0.7013(2) 0.77981(14)
H1 H 0.9840 0.6288 0.7799
H2 H 0.9583 0.7444 0.8233
C1 C 0.8164(3) 0.9005(2) 0.58001(15)
C2 C 0.8536(3) 0.7889(2) 0.54953(15)
C3 C 0.8861(3) 0.7574(2) 0.69969(18)
C4 C 0.6489(4) 1.0210(2) 0.46349(16)
H3 H 0.5733 0.9629 0.4407
C5 C 0.7830(5) 1.1792(3) 0.4886(2)
H4 H 0.8156 1.2586 0.4841
C6 C 0.8543(3) 0.7442(2) 0.45355(16)
C7 C 0.7980(4) 0.6279(2) 0.43658(18)
H5 H 0.7628 0.5802 0.4851
C8 C 0.7939(4) 0.5825(3) 0.34843(19)
H6 H 0.7570 0.5050 0.3377
C9 C 0.8459(4) 0.6548(3) 0.27666(19)
C10 C 0.9047(4) 0.7698(3) 0.2908(2)
H7 H 0.9410 0.8165 0.2419
C11 C 0.9086(3) 0.8144(3) 0.37992(17)
H8 H 0.9477 0.8914 0.3903
loop_
_geom_bond_atom_site_label_1
_geom_bond_atom_site_label_2
_geom_bond_site_symmetry_1
_geom_bond_site_symmetry_2
S1 C1 1_555 1_555
Cl1 C9 1_555 1_555
N1 N2 1_555 1_555
N2 C5 1_555 1_555
N3 C4 1_555 1_555
N4 C2 1_555 1_555
N5 H1 1_555 1_555
H2 N5 1_555 1_555
C1 N1 1_555 1_555
C2 C1 1_555 1_555
C3 S1 1_555 1_555
C4 N1 1_555 1_555
H3 C4 1_555 1_555
C5 N3 1_555 1_555
H4 C5 1_555 1_555
C6 C2 1_555 1_555
C7 C6 1_555 1_555
H5 C7 1_555 1_555
C8 C7 1_555 1_555
H6 C8 1_555 1_555
C9 C8 1_555 1_555
C10 C9 1_555 1_555
H7 C10 1_555 1_555
C11 C6 1_555 1_555
H8 C11 1_555 1_555
N4 C3 1_555 1_555
N5 C3 1_555 1_555
C10 C11 1_555 1_555

#END
