
#######################################################################
#
#                 Cambridge Crystallographic Data Centre
#                                CCDC 
#
#######################################################################
#
# If this CIF has been generated from an entry in the Cambridge 
# Structural Database, then it will include bibliographic, chemical, 
# crystal, experimental, refinement or atomic coordinate data resulting 
# from the CCDC's data processing and validation procedures.
#
#######################################################################

data_REXRAQ
_chemical_formula_moiety         'C65 H64 N2'
_chemical_name_systematic        
N,N'-{(9,9-dihexyl-9H-fluorene-2,7-diyl)bis[(ethene-2,1-diyl)-4,1-phenylene]}bis(N-phenylaniline)
_symmetry_cell_setting           triclinic
_symmetry_space_group_name_H-M   'P -1'
_symmetry_Int_Tables_number      2
_space_group_name_Hall           '-P 1'
loop_
_symmetry_equiv_pos_site_id
_symmetry_equiv_pos_as_xyz
1 x,y,z
2 -x,-y,-z
_cell_length_a                   11.0704(9)
_cell_length_b                   14.3596(11)
_cell_length_c                   17.1745(10)
_cell_angle_alpha                79.770(6)
_cell_angle_beta                 87.148(6)
_cell_angle_gamma                69.427(8)
_cell_volume                     2515.18
_exptl_crystal_colour            'pale yellow'
_exptl_crystal_description       irregular
_cell_formula_units_Z            2
_exptl_crystal_recrystallization_method 'From the Melt'
loop_
_atom_site_label
_atom_site_type_symbol
_atom_site_fract_x
_atom_site_fract_y
_atom_site_fract_z
C1 C 0.3713(5) 0.7652(4) 0.3174(3)
H1 H 0.3025 0.8167 0.2900
C2 C 0.4731(6) 0.4522(4) 1.1667(3)
H2 H 0.5022 0.3849 1.1981
H3 H 0.4094 0.4964 1.1972
C3 C 0.4120(5) 0.9110(5) 1.7823(3)
H4 H 0.3392 0.9107 1.8116
C4 C 0.7525(7) 1.2232(5) 1.0345(4)
H5 H 0.7287 1.2846 0.9965
H6 H 0.7865 1.2333 1.0814
H7 H 0.6778 1.2046 1.0477
C5 C 0.8517(6) 1.1419(5) 1.0005(5)
H8 H 0.8789 1.0813 1.0403
H9 H 0.9263 1.1617 0.9869
C6 C 0.8047(7) 1.1174(4) 0.9263(4)
H10 H 0.8791 1.0781 0.8992
H11 H 0.7622 1.1801 0.8907
C7 C 0.4106(6) 0.4496(5) 1.0928(3)
H12 H 0.3820 0.5158 1.0611
H13 H 0.3379 0.4284 1.1059
H14 H 0.4715 0.4031 1.0636
C8 C 0.9895(5) 1.0272(4) 1.6535(3)
H15 H 1.0216 1.0707 1.6195
C9 C 0.4476(4) 0.8586(4) 1.7193(3)
H16 H 0.3982 0.8229 1.7061
C10 C 0.4555(6) 0.7870(3) 0.3614(3)
H17 H 0.4433 0.8539 0.3635
C11 C 0.5869(5) 0.4883(4) 1.1522(3)
H18 H 0.6330 0.4745 1.2018
H19 H 0.6452 0.4493 1.1162
C12 C 1.0397(5) 0.9896(4) 1.7289(3)
H20 H 1.1045 1.0086 1.7462
C13 C 0.4861(5) 0.9628(4) 1.8000(3)
H21 H 0.4628 0.9981 1.8420
C14 C 0.8923(4) 1.0009(3) 1.6283(3)
H22 H 0.8589 1.0267 1.5772
C15 C 0.6663(4) 0.6311(3) 1.0958(2)
H23 H 0.7171 0.5918 1.0575
H24 H 0.7203 0.6168 1.1423
C16 C 0.7776(4) 0.9468(3) 0.9780(3)
H25 H 0.8345 0.9139 0.9385
H26 H 0.8300 0.9408 1.0235
C17 C 0.5578(5) 0.7110(3) 0.4024(2)
H27 H 0.6146 0.7272 0.4309
C18 C 0.8244(4) 0.3357(4) 0.3204(3)
H28 H 0.8585 0.3308 0.2701
C19 C 0.7797(4) 0.4281(3) 0.3452(2)
H29 H 0.7841 0.4853 0.3118
C20 C 0.9941(5) 0.9243(4) 1.7782(3)
H30 H 1.0291 0.8980 1.8289
C21 C 0.3911(4) 0.6652(4) 0.3148(2)
H31 H 0.3360 0.6496 0.2844
C22 C 0.7714(4) 0.2574(3) 0.4447(3)
H32 H 0.7703 0.1994 0.4785
C23 C 0.8190(4) 0.2513(4) 0.3696(3)
H33 H 0.8476 0.1895 0.3521
C24 C 0.7108(5) 1.0585(3) 0.9440(3)
H34 H 0.6471 1.0894 0.9813
H35 H 0.6656 1.0640 0.8955
C25 C 0.5563(4) 0.8595(3) 1.6759(3)
H36 H 0.5784 0.8248 1.6335
C26 C 0.5949(4) 0.9647(3) 1.7576(2)
H37 H 0.6428 1.0015 1.7708
C27 C 0.8437(4) 0.9366(3) 1.6782(2)
C28 C 0.6329(4) 0.9110(3) 1.6948(2)
C29 C 0.5522(4) 0.5982(3) 1.1185(2)
H38 H 0.5020 0.6373 1.1571
H39 H 0.4978 0.6136 1.0720
C30 C 0.5763(4) 0.6099(3) 0.4013(2)
C31 C 0.6714(4) 0.9447(3) 1.5134(2)
H40 H 0.6031 1.0012 1.5236
C32 C 0.6285(4) 0.7422(3) 1.0611(2)
H41 H 0.5803 0.7809 1.1005
H42 H 0.5709 0.7565 1.0163
C33 C 0.8961(4) 0.8966(3) 1.7536(2)
H43 H 0.8658 0.8516 1.7873
C34 C 0.4912(4) 0.5884(3) 0.3567(2)
H44 H 0.5019 0.5216 0.3550
C35 C 0.7403(3) 0.7797(3) 1.0336(2)
C36 C 0.7250(4) 0.3497(3) 0.4702(2)
H45 H 0.6919 0.3539 0.5208
C37 C 0.7280(4) 0.4352(3) 0.4203(2)
C38 C 0.8585(4) 0.8022(3) 1.5574(2)
H46 H 0.9161 0.7614 1.5976
C39 C 0.7570(4) 0.8856(3) 1.5732(2)
C40 C 0.6863(4) 0.9205(3) 1.4383(2)
H47 H 0.6264 0.9599 1.3987
C41 C 1.0632(4) 0.6502(3) 1.1303(2)
H48 H 1.1430 0.6074 1.1164
C42 C 0.6829(4) 0.8944(3) 1.0024(2)
H49 H 0.6274 0.9051 0.9573
H50 H 0.6290 0.9265 1.0432
C43 C 0.7810(4) 0.7139(3) 0.8986(2)
H51 H 0.6971 0.7509 0.8805
C44 C 0.8538(4) 0.4935(3) 0.5373(2)
H52 H 0.9088 0.4535 0.5040
C45 C 0.8747(4) 0.7792(3) 1.4820(2)
H53 H 0.9439 0.7233 1.4719
C46 C 1.0353(4) 0.6063(3) 0.9518(2)
H54 H 1.1201 0.5716 0.9690
C47 C 0.8774(4) 0.5754(3) 0.7297(2)
H55 H 0.9620 0.5340 0.7428
C48 C 0.9019(4) 0.5040(3) 0.6068(2)
H56 H 0.9890 0.4707 0.6195
C49 C 0.8204(3) 0.7219(3) 0.9715(2)
C50 C 0.9940(4) 0.5975(3) 0.8793(2)
H57 H 1.0518 0.5555 0.8483
C51 C 1.0447(4) 0.6784(3) 1.2046(2)
H58 H 1.1140 0.6549 1.2401
C52 C 0.8400(3) 0.7520(3) 1.0990(2)
C53 C 0.8179(4) 0.6396(3) 0.7777(2)
H59 H 0.7349 0.6831 0.7624
C54 C 0.9114(4) 0.7621(3) 1.3083(2)
H60 H 0.9844 0.7340 1.3409
C55 C 0.8038(4) 0.8179(3) 1.3395(2)
H61 H 0.7310 0.8466 1.3068
C56 C 0.8227(4) 0.5632(3) 0.6579(2)
C57 C 0.7894(3) 0.8382(3) 1.4209(2)
C58 C 0.8671(4) 0.6504(3) 0.8519(2)
C59 C 0.9598(3) 0.6872(3) 1.0775(2)
C60 C 0.8226(4) 0.7783(3) 1.1730(2)
H62 H 0.7427 0.8208 1.1869
C61 C 0.9478(3) 0.6678(3) 0.9980(2)
C62 C 0.9260(3) 0.7407(3) 1.2273(2)
C63 C 0.7248(4) 0.5420(3) 0.5169(2)
C64 C 0.6914(4) 0.6087(3) 0.6382(2)
H63 H 0.6356 0.6464 0.6725
C65 C 0.6428(4) 0.5988(3) 0.5690(2)
H64 H 0.5552 0.6300 0.5569
N1 N 0.7426(3) 0.9106(3) 1.65089(18)
N2 N 0.6779(3) 0.5315(2) 0.44532(18)
loop_
_geom_bond_atom_site_label_1
_geom_bond_atom_site_label_2
_geom_bond_site_symmetry_1
_geom_bond_site_symmetry_2
C1 H1 1_555 1_555
C2 H2 1_555 1_555
H3 C2 1_555 1_555
C3 H4 1_555 1_555
C4 H5 1_555 1_555
H6 C4 1_555 1_555
H7 C4 1_555 1_555
C5 C4 1_555 1_555
H8 C5 1_555 1_555
H9 C5 1_555 1_555
C6 C5 1_555 1_555
H10 C6 1_555 1_555
H11 C6 1_555 1_555
C7 C2 1_555 1_555
H12 C7 1_555 1_555
H13 C7 1_555 1_555
H14 C7 1_555 1_555
C8 H15 1_555 1_555
C9 C3 1_555 1_555
H16 C9 1_555 1_555
C10 C1 1_555 1_555
H17 C10 1_555 1_555
C11 C2 1_555 1_555
H18 C11 1_555 1_555
H19 C11 1_555 1_555
C12 C8 1_555 1_555
H20 C12 1_555 1_555
C13 C3 1_555 1_555
H21 C13 1_555 1_555
C14 C8 1_555 1_555
H22 C14 1_555 1_555
C15 H23 1_555 1_555
H24 C15 1_555 1_555
C16 H25 1_555 1_555
H26 C16 1_555 1_555
C17 C10 1_555 1_555
H27 C17 1_555 1_555
C18 H28 1_555 1_555
C19 C18 1_555 1_555
H29 C19 1_555 1_555
C20 C12 1_555 1_555
H30 C20 1_555 1_555
C21 C1 1_555 1_555
H31 C21 1_555 1_555
C22 H32 1_555 1_555
C23 C18 1_555 1_555
H33 C23 1_555 1_555
C24 C6 1_555 1_555
H34 C24 1_555 1_555
H35 C24 1_555 1_555
C25 C9 1_555 1_555
H36 C25 1_555 1_555
C26 C13 1_555 1_555
H37 C26 1_555 1_555
C27 C14 1_555 1_555
C28 C25 1_555 1_555
C29 C11 1_555 1_555
H38 C29 1_555 1_555
H39 C29 1_555 1_555
C30 C17 1_555 1_555
C31 H40 1_555 1_555
C32 C15 1_555 1_555
H41 C32 1_555 1_555
H42 C32 1_555 1_555
C33 C20 1_555 1_555
H43 C33 1_555 1_555
C34 C21 1_555 1_555
H44 C34 1_555 1_555
C35 C32 1_555 1_555
C36 C22 1_555 1_555
H45 C36 1_555 1_555
C37 C19 1_555 1_555
C38 H46 1_555 1_555
C39 C31 1_555 1_555
C40 C31 1_555 1_555
H47 C40 1_555 1_555
C41 H48 1_555 1_555
C42 C16 1_555 1_555
H49 C42 1_555 1_555
H50 C42 1_555 1_555
C43 H51 1_555 1_555
C44 H52 1_555 1_555
C45 C38 1_555 1_555
H53 C45 1_555 1_555
C46 H54 1_555 1_555
C47 H55 1_555 1_555
C48 C44 1_555 1_555
H56 C48 1_555 1_555
C49 C35 1_555 1_555
C50 C46 1_555 1_555
H57 C50 1_555 1_555
C51 C41 1_555 1_555
H58 C51 1_555 1_555
C52 C35 1_555 1_555
C53 C47 1_555 1_555
H59 C53 1_555 1_555
C54 H60 1_555 1_555
C55 C54 1_555 1_555
H61 C55 1_555 1_555
C56 C47 1_555 1_555
C57 C40 1_555 1_555
C58 C43 1_555 1_555
C59 C41 1_555 1_555
C60 C52 1_555 1_555
H62 C60 1_555 1_555
C61 C46 1_555 1_555
C62 C51 1_555 1_555
C63 C44 1_555 1_555
C64 C56 1_555 1_555
H63 C64 1_555 1_555
C65 C63 1_555 1_555
H64 C65 1_555 1_555
N1 C27 1_555 1_555
N2 C30 1_555 1_555
C15 C29 1_555 1_555
C16 C24 1_555 1_555
C22 C23 1_555 1_555
C26 C28 1_555 1_555
C27 C33 1_555 1_555
C28 N1 1_555 1_555
C30 C34 1_555 1_555
C35 C42 1_555 1_555
C36 C37 1_555 1_555
C37 N2 1_555 1_555
C38 C39 1_555 1_555
C39 N1 1_555 1_555
C43 C49 1_555 1_555
C45 C57 1_555 1_555
C48 C56 1_555 1_555
C49 C61 1_555 1_555
C50 C58 1_555 1_555
C52 C59 1_555 1_555
C53 C58 1_555 1_555
C54 C62 1_555 1_555
C55 C57 1_555 1_555
C59 C61 1_555 1_555
C60 C62 1_555 1_555
C63 N2 1_555 1_555
C64 C65 1_555 1_555

#END
