
#######################################################################
#
#                 Cambridge Crystallographic Data Centre
#                                CCDC 
#
#######################################################################
#
# If this CIF has been generated from an entry in the Cambridge 
# Structural Database, then it will include bibliographic, chemical, 
# crystal, experimental, refinement or atomic coordinate data resulting 
# from the CCDC's data processing and validation procedures.
#
#######################################################################

data_REXSUK
_chemical_formula_moiety         'C18 H13 F6 N3'
_chemical_name_systematic        
4-(3,3,4,4,5,5-Hexafluoro-2-(2-methylpyridin-3-yl)cyclopent-1-en-1-yl)-1,5-dimethyl-1H-pyrrole-2-carbonitrile
_symmetry_cell_setting           monoclinic
_symmetry_space_group_name_H-M   'P 21/c'
_symmetry_Int_Tables_number      14
_space_group_name_Hall           '-P 2ybc'
loop_
_symmetry_equiv_pos_site_id
_symmetry_equiv_pos_as_xyz
1 x,y,z
2 -x,1/2+y,1/2-z
3 -x,-y,-z
4 x,1/2-y,1/2+z
_cell_length_a                   13.2217(16)
_cell_length_b                   9.9309(12)
_cell_length_c                   14.4080(18)
_cell_angle_alpha                90
_cell_angle_beta                 115.374(2)
_cell_angle_gamma                90
_cell_volume                     1709.32
_exptl_crystal_colour            colorless
_exptl_crystal_description       block
_cell_formula_units_Z            4
loop_
_atom_site_label
_atom_site_type_symbol
_atom_site_fract_x
_atom_site_fract_y
_atom_site_fract_z
C1 C 0.8105(5) -0.0496(6) 1.0742(4)
C2 C 0.7592(6) -0.0819(8) 1.1389(5)
C3 C 0.8371(7) -0.1432(8) 1.0165(6)
H1 H 0.8685 -0.1152 0.9730
C4 C 0.7705(8) -0.3139(8) 1.0917(7)
H2 H 0.7585 -0.4051 1.0980
C5 C 0.8171(8) -0.2748(8) 1.0241(7)
H3 H 0.8337 -0.3388 0.9855
N1 N 0.7426(6) -0.2252(7) 1.1477(6)
C6 C 0.7308(5) 0.0069(6) 1.1801(4)
H4 H 0.7508 0.0926 1.1620
H5 H 0.7679 -0.0045 1.2533
H6 H 0.6513 0.0031 1.1578
C7 C 0.8351(6) 0.0897(7) 1.0654(5)
C8 C 0.7931(6) 0.1652(7) 0.9808(5)
C9 C 0.9340(6) 0.1519(8) 1.1516(6)
C10 C 0.9283(7) 0.2988(8) 1.1206(6)
C11 C 0.8578(6) 0.2949(7) 1.0026(6)
C12 C 0.6094(5) 0.0643(7) 0.8486(5)
C13 C 0.7063(6) 0.1413(7) 0.8782(5)
C14 C 0.7080(6) 0.1956(8) 0.7873(6)
H7 H 0.7622 0.2515 0.7828
C15 C 0.5630(6) -0.0080(9) 0.9122(6)
H8 H 0.4828 -0.0092 0.8769
H9 H 0.5856 0.0372 0.9769
H10 H 0.5907 -0.0987 0.9238
C16 C 0.5769(7) 0.1705(9) 0.5997(6)
C17 C 0.4471(7) 0.0025(10) 0.6820(6)
H11 H 0.4577 -0.0933 0.6884
H12 H 0.4226 0.0281 0.6115
H13 H 0.3916 0.0282 0.7050
N2 N 0.5499(8) 0.1870(10) 0.5150(6)
F1 F 1.0311(4) 0.0944(5) 1.1557(4)
F2 F 0.7919(4) 0.4040(5) 0.9690(4)
F3 F 0.9408(4) 0.1374(5) 1.2457(3)
F4 F 0.9277(4) 0.2973(6) 0.9552(4)
F5 F 0.8741(6) 0.3690(6) 1.1637(4)
F6 F 1.0281(5) 0.3558(6) 1.1469(5)
C18 C 0.6127(7) 0.1482(8) 0.7076(5)
N3 N 0.5532(5) 0.0702(6) 0.7451(4)
loop_
_geom_bond_atom_site_label_1
_geom_bond_atom_site_label_2
_geom_bond_site_symmetry_1
_geom_bond_site_symmetry_2
C1 C2 1_555 1_555
C2 N1 1_555 1_555
C3 C1 1_555 1_555
H1 C3 1_555 1_555
C4 H2 1_555 1_555
C5 C3 1_555 1_555
H3 C5 1_555 1_555
N1 C4 1_555 1_555
C6 C2 1_555 1_555
H4 C6 1_555 1_555
H5 C6 1_555 1_555
H6 C6 1_555 1_555
C7 C1 1_555 1_555
C8 C7 1_555 1_555
C9 C7 1_555 1_555
C10 C9 1_555 1_555
C11 C8 1_555 1_555
C12 C13 1_555 1_555
C13 C8 1_555 1_555
C14 C13 1_555 1_555
H7 C14 1_555 1_555
C15 C12 1_555 1_555
H8 C15 1_555 1_555
H9 C15 1_555 1_555
H10 C15 1_555 1_555
C16 N2 1_555 1_555
C17 H11 1_555 1_555
H12 C17 1_555 1_555
H13 C17 1_555 1_555
F1 C9 1_555 1_555
F2 C11 1_555 1_555
F3 C9 1_555 1_555
F4 C11 1_555 1_555
F5 C10 1_555 1_555
F6 C10 1_555 1_555
C18 C14 1_555 1_555
N3 C12 1_555 1_555
C4 C5 1_555 1_555
C10 C11 1_555 1_555
C16 C18 1_555 1_555
C17 N3 1_555 1_555
C18 N3 1_555 1_555

#END
