
#######################################################################
#
#                 Cambridge Crystallographic Data Centre
#                                CCDC 
#
#######################################################################
#
# If this CIF has been generated from an entry in the Cambridge 
# Structural Database, then it will include bibliographic, chemical, 
# crystal, experimental, refinement or atomic coordinate data resulting 
# from the CCDC's data processing and validation procedures.
#
#######################################################################

data_REZSOF
_chemical_formula_moiety         'C27 H32 N4 O6 S1'
_chemical_name_systematic        
'Benzofuran-2-carboxylic acid (R)-3-methyl-1-(5-methyl-3-oxo-1-(pyridine-2-sulfonyl)azepan-4-yl)butylamide'
_symmetry_cell_setting           orthorhombic
_symmetry_space_group_name_H-M   'P 21 21 21'
_symmetry_Int_Tables_number      19
_space_group_name_Hall           'P 2ac 2ab'
loop_
_symmetry_equiv_pos_site_id
_symmetry_equiv_pos_as_xyz
1 x,y,z
2 1/2-x,-y,1/2+z
3 1/2+x,1/2-y,-z
4 -x,1/2+y,1/2-z
_cell_length_a                   8.06820(10)
_cell_length_b                   16.4847(2)
_cell_length_c                   20.4389(3)
_cell_angle_alpha                90
_cell_angle_beta                 90
_cell_angle_gamma                90
_cell_volume                     2718.41
_exptl_crystal_colour            colorless
_exptl_crystal_description       blade
_cell_formula_units_Z            4
_exptl_crystal_recrystallization_method ethanol/hexane
loop_
_atom_site_label
_atom_site_type_symbol
_atom_site_fract_x
_atom_site_fract_y
_atom_site_fract_z
S1 S -0.36017(5) -0.52383(3) -0.14093(2)
O1 O -0.36202(17) -0.43810(8) -0.12921(7)
O2 O -0.48575(16) -0.55968(9) -0.18096(8)
O3 O -0.37219(16) -0.50663(8) 0.09857(7)
O4 O -0.92398(15) -0.58821(8) 0.04691(7)
O5 O -0.80014(15) -0.37627(8) 0.13358(7)
O6 O -1.22842(16) -0.33072(7) 0.11008(7)
N1 N -0.3647(2) -0.56806(9) -0.06986(8)
N2 N -0.67944(18) -0.55758(9) 0.09477(8)
N3 N -1.02741(19) -0.45714(8) 0.13800(8)
N4 N -0.03898(19) -0.54044(10) -0.13546(9)
C1 C -0.4439(3) -0.70723(13) 0.07911(12)
C2 C -0.2993(2) -0.52720(11) -0.01213(10)
C3 C -0.4143(2) -0.53423(10) 0.04587(10)
C4 C -0.5801(2) -0.57632(10) 0.03756(9)
C5 C -0.5605(2) -0.66970(11) 0.02840(10)
C6 C -0.5175(2) -0.69349(11) -0.04198(11)
C7 C -0.3585(3) -0.65789(10) -0.06901(11)
C8 C -0.1664(2) -0.55175(11) -0.17577(9)
C9 C -0.1558(3) -0.58160(12) -0.23852(10)
C10 C 0.0008(3) -0.60065(13) -0.26148(11)
C11 C 0.1358(3) -0.58921(11) -0.22159(10)
C12 C 0.1109(2) -0.55918(14) -0.15936(11)
C13 C -0.8460(2) -0.56109(10) 0.09348(9)
C14 C -0.9316(2) -0.52896(10) 0.15509(9)
C15 C -1.0427(2) -0.59437(10) 0.18455(10)
C16 C -0.9518(3) -0.67191(11) 0.20344(10)
C17 C -0.8167(3) -0.65768(14) 0.25396(12)
C18 C -1.0763(3) -0.73455(13) 0.22806(13)
C19 C -0.9505(2) -0.38558(11) 0.12726(9)
C20 C -1.0581(2) -0.31787(11) 0.10759(10)
C21 C -1.0208(2) -0.24332(12) 0.08595(11)
C22 C -1.2230(3) -0.12703(12) 0.04953(12)
C23 C -1.3892(3) -0.10880(12) 0.04626(11)
C24 C -1.5087(3) -0.16590(13) 0.06439(12)
C25 C -1.4661(3) -0.24279(13) 0.08576(12)
C26 C -1.2981(2) -0.25874(11) 0.08864(10)
C27 C -1.1756(2) -0.20341(11) 0.07244(10)
H1 H -0.636(3) -0.5325(12) 0.1244(11)
H2 H -1.127(3) -0.4623(12) 0.1263(11)
H3 H -0.4474 -0.7665 0.0755
H4 H -0.4790 -0.6910 0.1231
H5 H -0.3305 -0.6882 0.0712
H6 H -0.2815 -0.4691 -0.0223
H7 H -0.1905 -0.5511 -0.0007
H8 H -0.6364 -0.5535 -0.0020
H9 H -0.6723 -0.6935 0.0373
H10 H -0.5097 -0.7533 -0.0443
H11 H -0.6102 -0.6767 -0.0707
H12 H -0.2639 -0.6759 -0.0418
H13 H -0.3406 -0.6782 -0.1141
H14 H -0.2517 -0.5888 -0.2649
H15 H 0.0148 -0.6215 -0.3045
H16 H 0.2443 -0.6017 -0.2366
H17 H 0.2048 -0.5514 -0.1320
H18 H -0.8452 -0.5136 0.1879
H19 H -1.0975 -0.5720 0.2240
H20 H -1.1305 -0.6081 0.1526
H21 H -0.8984 -0.6942 0.1631
H22 H -0.7693 -0.7099 0.2673
H23 H -0.8641 -0.6304 0.2922
H24 H -0.7297 -0.6236 0.2350
H25 H -1.0186 -0.7854 0.2378
H26 H -1.1604 -0.7441 0.1944
H27 H -1.1299 -0.7143 0.2679
H28 H -0.9130 -0.2211 0.0806
H29 H -1.1421 -0.0884 0.0365
H30 H -1.4231 -0.0567 0.0315
H31 H -1.6225 -0.1515 0.0620
H32 H -1.5470 -0.2820 0.0977
loop_
_geom_bond_atom_site_label_1
_geom_bond_atom_site_label_2
_geom_bond_site_symmetry_1
_geom_bond_site_symmetry_2
S1 O1 1_555 1_555
O2 S1 1_555 1_555
O3 C3 1_555 1_555
O4 C13 1_555 1_555
O5 C19 1_555 1_555
O6 C20 1_555 1_555
N1 S1 1_555 1_555
N2 C4 1_555 1_555
N3 C14 1_555 1_555
N4 C8 1_555 1_555
C1 C5 1_555 1_555
C2 N1 1_555 1_555
C3 C2 1_555 1_555
C4 C3 1_555 1_555
C5 C4 1_555 1_555
C6 C5 1_555 1_555
C7 N1 1_555 1_555
C8 S1 1_555 1_555
C9 C8 1_555 1_555
C10 C9 1_555 1_555
C11 C10 1_555 1_555
C12 N4 1_555 1_555
C13 N2 1_555 1_555
C14 C13 1_555 1_555
C15 C14 1_555 1_555
C16 C15 1_555 1_555
C17 C16 1_555 1_555
C18 C16 1_555 1_555
C19 N3 1_555 1_555
C20 C19 1_555 1_555
C21 C20 1_555 1_555
C22 C23 1_555 1_555
C23 C24 1_555 1_555
C24 C25 1_555 1_555
C25 C26 1_555 1_555
C26 O6 1_555 1_555
C27 C21 1_555 1_555
H1 N2 1_555 1_555
H2 N3 1_555 1_555
H3 C1 1_555 1_555
H4 C1 1_555 1_555
H5 C1 1_555 1_555
H6 C2 1_555 1_555
H7 C2 1_555 1_555
H8 C4 1_555 1_555
H9 C5 1_555 1_555
H10 C6 1_555 1_555
H11 C6 1_555 1_555
H12 C7 1_555 1_555
H13 C7 1_555 1_555
H14 C9 1_555 1_555
H15 C10 1_555 1_555
H16 C11 1_555 1_555
H17 C12 1_555 1_555
H18 C14 1_555 1_555
H19 C15 1_555 1_555
H20 C15 1_555 1_555
H21 C16 1_555 1_555
H22 C17 1_555 1_555
H23 C17 1_555 1_555
H24 C17 1_555 1_555
H25 C18 1_555 1_555
H26 C18 1_555 1_555
H27 C18 1_555 1_555
H28 C21 1_555 1_555
H29 C22 1_555 1_555
H30 C23 1_555 1_555
H31 C24 1_555 1_555
H32 C25 1_555 1_555
C6 C7 1_555 1_555
C11 C12 1_555 1_555
C22 C27 1_555 1_555
C26 C27 1_555 1_555

#END
