
#######################################################################
#
#                 Cambridge Crystallographic Data Centre
#                                CCDC 
#
#######################################################################
#
# If this CIF has been generated from an entry in the Cambridge 
# Structural Database, then it will include bibliographic, chemical, 
# crystal, experimental, refinement or atomic coordinate data resulting 
# from the CCDC's data processing and validation procedures.
#
#######################################################################

data_RIBBOU
_chemical_formula_moiety         'C42 H36 N8 O4,2(C2 H6 O1)'
_chemical_name_systematic        
'2,7-bis(2-(bis(2-Pyridylmethyl)amino)ethyl)benzo(lmn)(3,8)phenanthroline-1,3,6,8(2H,7H)-tetrone ethanol solvate'
_symmetry_cell_setting           monoclinic
_symmetry_space_group_name_H-M   'P 21/n'
_symmetry_Int_Tables_number      14
_space_group_name_Hall           '-P 2yn'
loop_
_symmetry_equiv_pos_site_id
_symmetry_equiv_pos_as_xyz
1 x,y,z
2 1/2-x,1/2+y,1/2-z
3 -x,-y,-z
4 1/2+x,1/2-y,1/2+z
_cell_length_a                   12.444(11)
_cell_length_b                   7.067(6)
_cell_length_c                   23.49(2)
_cell_angle_alpha                90
_cell_angle_beta                 97.447(15)
_cell_angle_gamma                90
_cell_volume                     2048.33
_exptl_crystal_colour            yellow
_exptl_crystal_description       plate
_cell_formula_units_Z            2
loop_
_atom_site_label
_atom_site_type_symbol
_atom_site_fract_x
_atom_site_fract_y
_atom_site_fract_z
N1 N 0.11872(16) 0.0824(3) 0.95386(8)
N2 N 0.33228(17) 0.1512(3) 0.92165(8)
C1 C 0.3266(2) 0.4776(4) 1.00893(12)
H1 H 0.2963 0.5282 0.9740
N3 N 0.4312(2) 0.3124(3) 0.79279(9)
O1 O 0.06922(16) 0.1698(3) 0.86079(8)
O2 O 0.15352(15) -0.0199(2) 1.04639(7)
C2 C 0.0649(2) 0.3129(4) 1.08976(11)
H2 H 0.0935 0.2236 1.1166
C3 C 0.06595(19) 0.2794(3) 1.03192(10)
C4 C 0.02248(19) 0.4152(3) 0.99098(10)
C5 C 0.0219(2) 0.3839(4) 0.93114(10)
C6 C -0.0205(2) 0.5178(4) 0.89183(11)
H3 H -0.0198 0.4961 0.8528
C7 C 0.0700(2) 0.2063(4) 0.91156(11)
C8 C 0.1161(2) 0.1027(4) 1.01298(11)
C9 C 0.1844(2) -0.0745(4) 0.93525(11)
H4 H 0.1657 -0.0954 0.8943
H5 H 0.1690 -0.1898 0.9551
C10 C 0.3043(2) -0.0277(4) 0.94831(11)
H6 H 0.3239 -0.0189 0.9896
H7 H 0.3463 -0.1296 0.9345
C11 C 0.4270(2) 0.2422(4) 0.95540(11)
H8 H 0.4544 0.3415 0.9327
H9 H 0.4841 0.1494 0.9644
C12 C 0.3975(2) 0.3254(4) 1.01026(11)
N4 N 0.44190(19) 0.2440(3) 1.05946(9)
C13 C 0.4152(3) 0.3191(5) 1.10863(12)
H10 H 0.4448 0.2649 1.1432
C14 C 0.3464(2) 0.4721(4) 1.11044(12)
H11 H 0.3308 0.5192 1.1454
C15 C 0.3013(2) 0.5536(4) 1.05974(12)
H12 H 0.2550 0.6570 1.0596
C16 C 0.3512(2) 0.1215(4) 0.86186(11)
H13 H 0.2934 0.0437 0.8426
H14 H 0.4188 0.0533 0.8615
C17 C 0.3565(2) 0.3049(4) 0.82906(10)
C18 C 0.2868(2) 0.4544(4) 0.83485(12)
H15 H 0.2357 0.4452 0.8603
C19 C 0.2931(3) 0.6175(4) 0.80292(12)
H16 H 0.2464 0.7184 0.8064
C20 C 0.3702(3) 0.6271(5) 0.76579(12)
H17 H 0.3775 0.7352 0.7440
C21 C 0.4360(3) 0.4722(5) 0.76180(12)
H18 H 0.4870 0.4781 0.7362
N1B N -0.11872(16) 0.9176(3) 1.04614(8)
N2B N -0.33228(17) 0.8488(3) 1.07835(8)
C1B C -0.3266(2) 0.5224(4) 0.99107(12)
H1B H -0.2963 0.4718 1.0260
N3B N -0.4312(2) 0.6876(3) 1.20721(9)
O1B O -0.06922(16) 0.8302(3) 1.13921(8)
O2B O -0.15352(15) 1.0199(2) 0.95361(7)
C2B C -0.0649(2) 0.6871(4) 0.91024(11)
H2B H -0.0935 0.7764 0.8834
C3B C -0.06595(19) 0.7206(3) 0.96808(10)
C4B C -0.02248(19) 0.5848(3) 1.00902(10)
C5B C -0.0219(2) 0.6161(4) 1.06886(10)
C6B C 0.0205(2) 0.4822(4) 1.10817(11)
H3B H 0.0198 0.5039 1.1472
C7B C -0.0700(2) 0.7937(4) 1.08844(11)
C8B C -0.1161(2) 0.8973(4) 0.98702(11)
C9B C -0.1844(2) 1.0745(4) 1.06475(11)
H4B H -0.1657 1.0954 1.1057
H5B H -0.1690 1.1898 1.0449
C10B C -0.3043(2) 1.0277(4) 1.05169(11)
H6B H -0.3239 1.0189 1.0104
H7B H -0.3463 1.1296 1.0655
C11B C -0.4270(2) 0.7578(4) 1.04460(11)
H8B H -0.4544 0.6585 1.0673
H9B H -0.4841 0.8506 1.0356
C12B C -0.3975(2) 0.6746(4) 0.98974(11)
N4B N -0.44190(19) 0.7560(3) 0.94054(9)
C13B C -0.4152(3) 0.6809(5) 0.89137(12)
H10B H -0.4448 0.7351 0.8568
C14B C -0.3464(2) 0.5279(4) 0.88956(12)
H11B H -0.3308 0.4808 0.8546
C15B C -0.3013(2) 0.4464(4) 0.94026(12)
H12B H -0.2550 0.3430 0.9404
C16B C -0.3512(2) 0.8785(4) 1.13814(11)
H13B H -0.2934 0.9563 1.1574
H14B H -0.4188 0.9467 1.1385
C17B C -0.3565(2) 0.6951(4) 1.17094(10)
C18B C -0.2868(2) 0.5456(4) 1.16515(12)
H15B H -0.2357 0.5548 1.1397
C19B C -0.2931(3) 0.3825(4) 1.19708(12)
H16B H -0.2464 0.2816 1.1936
C20B C -0.3702(3) 0.3729(5) 1.23421(12)
H17B H -0.3775 0.2648 1.2560
C21B C -0.4360(3) 0.5278(5) 1.23820(12)
H18B H -0.4870 0.5219 1.2638
O3 O 0.5688(3) 0.0223(5) 0.75772(14)
H19 H 0.520(4) 0.115(7) 0.7675(18)
C22 C 0.6665(5) 0.1194(9) 0.7577(2)
H20 H 0.6553 0.2551 0.7550
H21 H 0.7052 0.0778 0.7267
C23 C 0.7261(6) 0.0620(11) 0.8166(2)
H22 H 0.6883 0.1125 0.8464
H23 H 0.7986 0.1111 0.8208
H24 H 0.7284 -0.0735 0.8195
C24? C 0.6580(7) 0.0257(19) 0.8001(4)
H25? H 0.6782 -0.1050 0.8084
H26? H 0.6329 0.0761 0.8345
C25? C 0.7626(8) 0.1317(16) 0.7924(5)
H27? H 0.7883 0.0905 0.7577
H28? H 0.8166 0.1059 0.8245
H29? H 0.7484 0.2652 0.7903
loop_
_geom_bond_atom_site_label_1
_geom_bond_atom_site_label_2
_geom_bond_site_symmetry_1
_geom_bond_site_symmetry_2
N1 C7 1_555 1_555
N2 C10 1_555 1_555
C1 H1 1_555 1_555
N3 C17 1_555 1_555
O1 C7 1_555 1_555
O2 C8 1_555 1_555
C2 H2 1_555 1_555
C3 C2 1_555 1_555
C4 C3 1_555 1_555
C5 C4 1_555 1_555
C6 C5 1_555 1_555
H3 C6 1_555 1_555
C7 C5 1_555 1_555
C8 N1 1_555 1_555
C9 N1 1_555 1_555
H4 C9 1_555 1_555
H5 C9 1_555 1_555
C10 C9 1_555 1_555
H6 C10 1_555 1_555
H7 C10 1_555 1_555
C11 N2 1_555 1_555
H8 C11 1_555 1_555
H9 C11 1_555 1_555
C12 C1 1_555 1_555
N4 C12 1_555 1_555
C13 N4 1_555 1_555
H10 C13 1_555 1_555
C14 C13 1_555 1_555
H11 C14 1_555 1_555
C15 C1 1_555 1_555
H12 C15 1_555 1_555
C16 N2 1_555 1_555
H13 C16 1_555 1_555
H14 C16 1_555 1_555
C17 C16 1_555 1_555
C18 C17 1_555 1_555
H15 C18 1_555 1_555
C19 C18 1_555 1_555
H16 C19 1_555 1_555
C20 C19 1_555 1_555
H17 C20 1_555 1_555
C21 N3 1_555 1_555
H18 C21 1_555 1_555
O3 H19 1_555 1_555
C22 O3 1_555 1_555
H20 C22 1_555 1_555
H21 C22 1_555 1_555
C23 C22 1_555 1_555
H22 C23 1_555 1_555
H23 C23 1_555 1_555
H24 C23 1_555 1_555
N1B C7B 1_555 1_555
N2B C10B 1_555 1_555
C1B H1B 1_555 1_555
N3B C17B 1_555 1_555
O1B C7B 1_555 1_555
O2B C8B 1_555 1_555
C2B C6 1_555 1_555
H2B C2B 1_555 1_555
C3B C2B 1_555 1_555
C4B C4 1_555 1_555
C5B C4B 1_555 1_555
C6B C2 1_555 1_555
H3B C6B 1_555 1_555
C7B C5B 1_555 1_555
C8B N1B 1_555 1_555
C9B N1B 1_555 1_555
H4B C9B 1_555 1_555
H5B C9B 1_555 1_555
C10B C9B 1_555 1_555
H6B C10B 1_555 1_555
H7B C10B 1_555 1_555
C11B N2B 1_555 1_555
H8B C11B 1_555 1_555
H9B C11B 1_555 1_555
C12B C1B 1_555 1_555
N4B C12B 1_555 1_555
C13B N4B 1_555 1_555
H10B C13B 1_555 1_555
C14B C13B 1_555 1_555
H11B C14B 1_555 1_555
C15B C1B 1_555 1_555
H12B C15B 1_555 1_555
C16B N2B 1_555 1_555
H13B C16B 1_555 1_555
H14B C16B 1_555 1_555
C17B C16B 1_555 1_555
C18B C17B 1_555 1_555
H15B C18B 1_555 1_555
C19B C18B 1_555 1_555
H16B C19B 1_555 1_555
C20B C19B 1_555 1_555
H17B C20B 1_555 1_555
C21B N3B 1_555 1_555
H18B C21B 1_555 1_555
C3 C8 1_555 1_555
C11 C12 1_555 1_555
C14 C15 1_555 1_555
C20 C21 1_555 1_555
C3B C4B 1_555 1_555
C3B C8B 1_555 1_555
C5B C6B 1_555 1_555
C11B C12B 1_555 1_555
C14B C15B 1_555 1_555
C20B C21B 1_555 1_555

#END
