
#######################################################################
#
#                 Cambridge Crystallographic Data Centre
#                                CCDC 
#
#######################################################################
#
# If this CIF has been generated from an entry in the Cambridge 
# Structural Database, then it will include bibliographic, chemical, 
# crystal, experimental, refinement or atomic coordinate data resulting 
# from the CCDC's data processing and validation procedures.
#
#######################################################################

data_RIBQEZ
_chemical_formula_moiety         'C14 H14 N4 O5 S1'
_chemical_name_systematic        
syn,syn-4-(1-Methyl-3-phenylureido)-3-nitrobenzenesulfonamide
_symmetry_cell_setting           monoclinic
_symmetry_space_group_name_H-M   'P 21/n'
_symmetry_Int_Tables_number      14
_space_group_name_Hall           '-P 2yn'
loop_
_symmetry_equiv_pos_site_id
_symmetry_equiv_pos_as_xyz
1 x,y,z
2 1/2-x,1/2+y,1/2-z
3 -x,-y,-z
4 1/2+x,1/2-y,1/2+z
_cell_length_a                   8.455(9)
_cell_length_b                   17.191(18)
_cell_length_c                   10.498(11)
_cell_angle_alpha                90
_cell_angle_beta                 101.633(18)
_cell_angle_gamma                90
_cell_volume                     1494.54
_exptl_crystal_colour            colorless
_exptl_crystal_description       parallelepiped
_cell_formula_units_Z            4
loop_
_atom_site_label
_atom_site_type_symbol
_atom_site_fract_x
_atom_site_fract_y
_atom_site_fract_z
S1 S 0.52449(7) 0.13099(3) 0.48131(5)
O1 O 0.4524(2) 0.33228(10) 0.98151(16)
O2 O 0.5382(2) 0.20005(10) 0.40862(16)
C1 C 0.5395(3) 0.16057(14) 0.6446(2)
O3 O 0.3817(2) 0.08474(10) 0.44855(17)
N1 N 0.5663(3) 0.31369(12) 1.1948(2)
N2 N 0.6010(3) 0.22454(12) 1.03712(19)
N3 N 0.6751(3) 0.07745(14) 0.4725(2)
O4 O 0.3437(3) 0.12477(13) 1.0205(2)
C2 C 0.6209(3) 0.22835(14) 0.6892(2)
H1 H 0.6643 0.2597 0.6327
O5 O 0.3660(3) 0.02404(12) 0.9036(2)
C3 C 0.5707(3) 0.20379(14) 0.9037(2)
C4 C 0.6372(3) 0.24885(14) 0.8182(2)
H2 H 0.6938 0.2938 0.8484
C5 C 0.5124(3) 0.38624(13) 1.2348(2)
C6 C 0.4703(3) 0.11486(13) 0.7268(2)
H3 H 0.4158 0.0694 0.6969
C7 C 0.5398(3) 0.45410(14) 1.1715(2)
H4 H 0.5966 0.4526 1.1044
C8 C 0.4823(3) 0.52408(15) 1.2083(2)
H5 H 0.4991 0.5696 1.1649
C9 C 0.3779(3) 0.46008(15) 1.3745(3)
H6 H 0.3240 0.4624 1.4434
C10 C 0.4839(3) 0.13814(14) 0.8545(2)
C11 C 0.6934(4) 0.17245(16) 1.1338(3)
H7 H 0.7701 0.2021 1.1948
H8 H 0.7495 0.1351 1.0914
H9 H 0.6214 0.1459 1.1791
N4 N 0.3928(3) 0.09177(14) 0.9334(2)
C12 C 0.4007(3) 0.52678(15) 1.3084(3)
H10 H 0.3606 0.5739 1.3318
C13 C 0.5339(3) 0.29272(13) 1.0669(2)
C14 C 0.4345(3) 0.38943(14) 1.3392(2)
H11 H 0.4206 0.3445 1.3849
H12 H 0.672(3) 0.0398(16) 0.505(3)
H13 H 0.583(3) 0.2792(17) 1.248(3)
H14 H 0.769(4) 0.1048(18) 0.486(3)
loop_
_geom_bond_atom_site_label_1
_geom_bond_atom_site_label_2
_geom_bond_site_symmetry_1
_geom_bond_site_symmetry_2
S1 O2 1_555 1_555
O1 C13 1_555 1_555
C1 S1 1_555 1_555
O3 S1 1_555 1_555
N1 C5 1_555 1_555
N2 C3 1_555 1_555
N3 S1 1_555 1_555
O4 N4 1_555 1_555
C2 C1 1_555 1_555
H1 C2 1_555 1_555
O5 N4 1_555 1_555
C3 C4 1_555 1_555
C4 C2 1_555 1_555
H2 C4 1_555 1_555
C5 C7 1_555 1_555
C6 C1 1_555 1_555
H3 C6 1_555 1_555
C7 H4 1_555 1_555
C8 C7 1_555 1_555
H5 C8 1_555 1_555
C9 H6 1_555 1_555
C10 C3 1_555 1_555
C11 N2 1_555 1_555
H7 C11 1_555 1_555
H8 C11 1_555 1_555
H9 C11 1_555 1_555
N4 C10 1_555 1_555
C12 C8 1_555 1_555
H10 C12 1_555 1_555
C13 N1 1_555 1_555
C14 C5 1_555 1_555
H11 C14 1_555 1_555
H12 N3 1_555 1_555
H13 N1 1_555 1_555
H14 N3 1_555 1_555
N2 C13 1_555 1_555
C6 C10 1_555 1_555
C9 C12 1_555 1_555
C9 C14 1_555 1_555

#END
