
#######################################################################
#
#                 Cambridge Crystallographic Data Centre
#                                CCDC 
#
#######################################################################
#
# If this CIF has been generated from an entry in the Cambridge 
# Structural Database, then it will include bibliographic, chemical, 
# crystal, experimental, refinement or atomic coordinate data resulting 
# from the CCDC's data processing and validation procedures.
#
#######################################################################

data_RICCIR
_chemical_formula_moiety         'C51 H66 N6 O6,5(H2 O1)'
_chemical_name_systematic        
"2,2',2''-((7,15,23-Tri-t-butyl-3,11,19-trioxatetracyclo[19.3.1.1^5,9^.1^13,17^]heptacosa-1(25),5(27),6,8,13(26),14,16,21,23-nonaene-25,26,27-triyl)tris(oxymethylene))tris(1-methyl-1H-imidazole) pentahydrate"
_symmetry_cell_setting           monoclinic
_symmetry_space_group_name_H-M   'P 21/a'
_symmetry_Int_Tables_number      14
_space_group_name_Hall           '-P 2yab'
loop_
_symmetry_equiv_pos_site_id
_symmetry_equiv_pos_as_xyz
1 x,y,z
2 1/2-x,1/2+y,-z
3 -x,-y,-z
4 1/2+x,1/2-y,z
_cell_length_a                   20.601(3)
_cell_length_b                   10.4910(13)
_cell_length_c                   24.723(6)
_cell_angle_alpha                90
_cell_angle_beta                 100.277(16)
_cell_angle_gamma                90
_cell_volume                     5257.54
_exptl_crystal_colour            colorless
_exptl_crystal_description       'tapered prism'
_cell_formula_units_Z            4
loop_
_atom_site_label
_atom_site_type_symbol
_atom_site_fract_x
_atom_site_fract_y
_atom_site_fract_z
O1 O 0.39182(13) 0.6941(2) 0.35844(11)
C1 C 0.4068(2) 0.7137(4) 0.30563(17)
C2 C 0.4564(2) 0.6411(3) 0.28963(17)
C3 C 0.4698(2) 0.6579(4) 0.23708(17)
H1 H 0.5032 0.6100 0.2261
C4 C 0.4342(2) 0.7456(4) 0.19988(17)
C5 C 0.38371(19) 0.8135(3) 0.21727(17)
H2 H 0.3593 0.8711 0.1932
C6 C 0.36855(19) 0.7977(4) 0.26963(17)
C7 C 0.3116(2) 0.8667(4) 0.28833(17)
H3 H 0.2894 0.8078 0.3092
H4 H 0.3292 0.9356 0.3128
O2 O 0.26340(13) 0.9188(2) 0.24356(11)
C8 C 0.2075(2) 0.8351(4) 0.22486(17)
H5 H 0.1700 0.8866 0.2084
H6 H 0.1957 0.7920 0.2565
C9 C 0.4244(2) 0.7858(4) 0.39845(17)
H7 H 0.4007 0.8662 0.3943
H8 H 0.4691 0.8009 0.3926
C10 C 0.4256(2) 0.7345(4) 0.45434(18)
C11 C 0.3185(2) 0.8305(4) 0.4705(2)
H9 H 0.3312 0.9185 0.4746
H10 H 0.2880 0.8112 0.4945
H11 H 0.2979 0.8148 0.4331
N1 N 0.37751(19) 0.7491(3) 0.48472(15)
C12 C 0.3951(3) 0.6811(4) 0.53191(19)
H12 H 0.3714 0.6733 0.5605
C13 C 0.4546(3) 0.6265(4) 0.52882(19)
H13 H 0.4786 0.5743 0.5556
N2 N 0.47390(19) 0.6598(3) 0.48042(15)
C14 C 0.4522(2) 0.7587(4) 0.14230(18)
C15 C 0.5267(2) 0.7958(4) 0.14770(19)
H14 H 0.5377 0.8042 0.1117
H15 H 0.5536 0.7306 0.1677
H16 H 0.5345 0.8753 0.1670
C16 C 0.4404(2) 0.6324(4) 0.11111(18)
H17 H 0.4519 0.6417 0.0754
H18 H 0.3947 0.6092 0.1073
H19 H 0.4672 0.5671 0.1311
C17 C 0.4116(2) 0.8630(4) 0.10803(18)
H20 H 0.4246 0.8685 0.0727
H21 H 0.4195 0.9434 0.1266
H22 H 0.3656 0.8423 0.1034
O3 O 0.26733(13) 0.5933(2) 0.25736(11)
C18 C 0.2515(2) 0.6208(4) 0.20076(17)
C19 C 0.2203(2) 0.7366(4) 0.18390(17)
C20 C 0.2050(2) 0.7605(4) 0.12687(18)
H23 H 0.1842 0.8367 0.1149
C21 C 0.2196(2) 0.6752(4) 0.08790(17)
C22 C 0.25369(19) 0.5642(4) 0.10779(18)
H24 H 0.2660 0.5075 0.0826
C23 C 0.26989(19) 0.5352(4) 0.16339(17)
C24 C 0.3094(2) 0.4193(4) 0.18553(17)
H25 H 0.3519 0.4460 0.2060
H26 H 0.2864 0.3735 0.2105
O4 O 0.31904(13) 0.3373(2) 0.14161(11)
C25 C 0.35436(19) 0.2239(4) 0.16208(17)
H27 H 0.3483 0.1593 0.1335
H28 H 0.3363 0.1911 0.1930
C26 C 0.2150(2) 0.5309(4) 0.27884(17)
H29 H 0.2125 0.4421 0.2677
H30 H 0.1732 0.5711 0.2641
C27 C 0.2276(2) 0.5395(4) 0.33977(18)
N3 N 0.27736(17) 0.4749(3) 0.37282(15)
C28 C 0.3275(2) 0.3964(4) 0.35418(19)
H31 H 0.3646 0.3868 0.3835
H32 H 0.3416 0.4367 0.3234
H33 H 0.3094 0.3141 0.3434
C29 C 0.2732(2) 0.5022(4) 0.42579(19)
H34 H 0.3005 0.4719 0.4572
C30 C 0.2212(2) 0.5824(4) 0.42354(19)
H35 H 0.2067 0.6161 0.4541
N4 N 0.19264(17) 0.6073(3) 0.36937(15)
C31 C 0.1991(2) 0.6981(4) 0.02576(17)
C32 C 0.2602(2) 0.6973(4) -0.00209(18)
H36 H 0.2835 0.6184 0.0058
H37 H 0.2885 0.7671 0.0116
H38 H 0.2465 0.7061 -0.0411
C33 C 0.1526(2) 0.5891(4) 0.00188(17)
H39 H 0.1747 0.5089 0.0096
H40 H 0.1402 0.5998 -0.0372
H41 H 0.1137 0.5906 0.0183
C34 C 0.1626(2) 0.8242(4) 0.01204(17)
H42 H 0.1243 0.8265 0.0291
H43 H 0.1494 0.8316 -0.0271
H44 H 0.1913 0.8937 0.0255
O5 O 0.41812(13) 0.2729(2) 0.27620(11)
C35 C 0.4565(2) 0.2779(4) 0.23498(17)
C36 C 0.4290(2) 0.2497(4) 0.18053(17)
C37 C 0.4687(2) 0.2508(4) 0.14086(17)
H45 H 0.4500 0.2309 0.1048
C38 C 0.5365(2) 0.2811(4) 0.15313(18)
C39 C 0.5612(2) 0.3149(4) 0.20763(18)
H46 H 0.6053 0.3384 0.2167
C40 C 0.5236(2) 0.3153(3) 0.24907(17)
C41 C 0.5540(2) 0.3591(4) 0.30670(16)
H47 H 0.5309 0.3191 0.3331
H48 H 0.5998 0.3320 0.3149
O6 O 0.55092(13) 0.4955(2) 0.31225(11)
C42 C 0.4930(2) 0.5438(4) 0.32979(17)
H49 H 0.5056 0.5834 0.3656
H50 H 0.4636 0.4734 0.3336
C43 C 0.40454(19) 0.1461(3) 0.29350(16)
H51 H 0.4047 0.0877 0.2631
H52 H 0.3608 0.1444 0.3029
C44 C 0.4538(2) 0.1012(3) 0.34213(19)
N5 N 0.51140(18) 0.0374(3) 0.33854(16)
C45 C 0.5337(2) -0.0096(4) 0.28989(19)
H53 H 0.4977 -0.0501 0.2661
H54 H 0.5686 -0.0702 0.3004
H55 H 0.5497 0.0603 0.2709
C46 C 0.5432(2) 0.0208(4) 0.3919(2)
H56 H 0.5836 -0.0197 0.4031
C47 C 0.5055(3) 0.0735(4) 0.4251(2)
H57 H 0.5159 0.0755 0.4633
N6 N 0.44833(18) 0.1249(3) 0.39366(15)
C48 C 0.5813(2) 0.2765(4) 0.11036(18)
C49 C 0.6158(3) 0.4020(5) 0.1071(3)
H58 H 0.6432 0.3969 0.0796
H59 H 0.6425 0.4210 0.1421
H60 H 0.5835 0.4681 0.0975
C50 C 0.6337(3) 0.1725(5) 0.1276(3)
H61 H 0.6622 0.1674 0.1009
H62 H 0.6123 0.0918 0.1298
H63 H 0.6593 0.1934 0.1629
C51 C 0.5443(3) 0.2384(7) 0.0525(2)
H64 H 0.5747 0.2370 0.0272
H65 H 0.5100 0.2993 0.0402
H66 H 0.5252 0.1553 0.0541
O7 O 0.6123(2) 0.6753(4) 0.47384(19)
H76 H 0.623(2) 0.651(4) 0.440(2)
H77 H 0.574(4) 0.666(6) 0.480(3)
O8 O 0.3412(2) 0.1458(4) 0.44982(18)
H78 H 0.352(3) 0.214(5) 0.475(2)
H79 H 0.372(3) 0.137(6) 0.433(3)
O9 O 0.65839(18) 0.6292(4) 0.37253(15)
H80 H 0.657(3) 0.719(5) 0.365(2)
H81 H 0.633(2) 0.592(4) 0.3535(17)
O10 O 0.2224(2) 1.1165(5) 0.3795(2)
H82 H 0.213(3) 1.028(5) 0.382(2)
H83 H 0.240(4) 1.127(8) 0.402(3)
O11 O 0.22864(16) 1.1740(3) 0.26974(18)
H84 H 0.223(2) 1.159(4) 0.308(2)
H85 H 0.234(3) 1.095(6) 0.257(2)
C52? C 0.584(3) 0.151(5) 0.083(2)
H67? H 0.6130 0.1568 0.0565
H68? H 0.5404 0.1285 0.0641
H69? H 0.5998 0.0874 0.1097
C53? C 0.554(2) 0.386(4) 0.0643(16)
H70? H 0.5524 0.4666 0.0821
H71? H 0.5103 0.3630 0.0459
H72? H 0.5827 0.3910 0.0379
C54? C 0.658(2) 0.317(4) 0.1340(16)
H73? H 0.6589 0.3975 0.1525
H74? H 0.6817 0.3235 0.1041
H75? H 0.6783 0.2531 0.1594
loop_
_geom_bond_atom_site_label_1
_geom_bond_atom_site_label_2
_geom_bond_site_symmetry_1
_geom_bond_site_symmetry_2
O1 C1 1_555 1_555
C1 C2 1_555 1_555
C2 C3 1_555 1_555
C3 H1 1_555 1_555
C4 C3 1_555 1_555
C5 C4 1_555 1_555
H2 C5 1_555 1_555
C6 C1 1_555 1_555
C7 C6 1_555 1_555
H3 C7 1_555 1_555
H4 C7 1_555 1_555
O2 C7 1_555 1_555
C8 O2 1_555 1_555
H5 C8 1_555 1_555
H6 C8 1_555 1_555
C9 O1 1_555 1_555
H7 C9 1_555 1_555
H8 C9 1_555 1_555
C10 C9 1_555 1_555
C11 H9 1_555 1_555
H10 C11 1_555 1_555
H11 C11 1_555 1_555
N1 C10 1_555 1_555
C12 N1 1_555 1_555
H12 C12 1_555 1_555
C13 C12 1_555 1_555
H13 C13 1_555 1_555
N2 C10 1_555 1_555
C14 C4 1_555 1_555
C15 C14 1_555 1_555
H14 C15 1_555 1_555
H15 C15 1_555 1_555
H16 C15 1_555 1_555
C16 C14 1_555 1_555
H17 C16 1_555 1_555
H18 C16 1_555 1_555
H19 C16 1_555 1_555
C17 C14 1_555 1_555
H20 C17 1_555 1_555
H21 C17 1_555 1_555
H22 C17 1_555 1_555
O3 C18 1_555 1_555
C18 C19 1_555 1_555
C19 C8 1_555 1_555
C20 C19 1_555 1_555
H23 C20 1_555 1_555
C21 C20 1_555 1_555
C22 C21 1_555 1_555
H24 C22 1_555 1_555
C23 C18 1_555 1_555
C24 C23 1_555 1_555
H25 C24 1_555 1_555
H26 C24 1_555 1_555
O4 C24 1_555 1_555
C25 O4 1_555 1_555
H27 C25 1_555 1_555
H28 C25 1_555 1_555
C26 O3 1_555 1_555
H29 C26 1_555 1_555
H30 C26 1_555 1_555
C27 C26 1_555 1_555
N3 C27 1_555 1_555
C28 N3 1_555 1_555
H31 C28 1_555 1_555
H32 C28 1_555 1_555
H33 C28 1_555 1_555
C29 N3 1_555 1_555
H34 C29 1_555 1_555
C30 C29 1_555 1_555
H35 C30 1_555 1_555
N4 C27 1_555 1_555
C31 C21 1_555 1_555
C32 C31 1_555 1_555
H36 C32 1_555 1_555
H37 C32 1_555 1_555
H38 C32 1_555 1_555
C33 C31 1_555 1_555
H39 C33 1_555 1_555
H40 C33 1_555 1_555
H41 C33 1_555 1_555
C34 C31 1_555 1_555
H42 C34 1_555 1_555
H43 C34 1_555 1_555
H44 C34 1_555 1_555
O5 C35 1_555 1_555
C35 C36 1_555 1_555
C36 C25 1_555 1_555
C37 C36 1_555 1_555
H45 C37 1_555 1_555
C38 C37 1_555 1_555
C39 C38 1_555 1_555
H46 C39 1_555 1_555
C40 C35 1_555 1_555
C41 C40 1_555 1_555
H47 C41 1_555 1_555
H48 C41 1_555 1_555
O6 C41 1_555 1_555
C42 C2 1_555 1_555
H49 C42 1_555 1_555
H50 C42 1_555 1_555
C43 O5 1_555 1_555
H51 C43 1_555 1_555
H52 C43 1_555 1_555
C44 C43 1_555 1_555
N5 C44 1_555 1_555
C45 N5 1_555 1_555
H53 C45 1_555 1_555
H54 C45 1_555 1_555
H55 C45 1_555 1_555
C46 N5 1_555 1_555
H56 C46 1_555 1_555
C47 C46 1_555 1_555
H57 C47 1_555 1_555
N6 C44 1_555 1_555
C48 C38 1_555 1_555
C49 C48 1_555 1_555
H58 C49 1_555 1_555
H59 C49 1_555 1_555
H60 C49 1_555 1_555
C50 C48 1_555 1_555
H61 C50 1_555 1_555
H62 C50 1_555 1_555
H63 C50 1_555 1_555
C51 C48 1_555 1_555
H64 C51 1_555 1_555
H65 C51 1_555 1_555
H66 C51 1_555 1_555
O7 H76 1_555 1_555
H77 O7 1_555 1_555
O8 H78 1_555 1_555
H79 O8 1_555 1_555
O9 H80 1_555 1_555
H81 O9 1_555 1_555
O10 H82 1_555 1_555
H83 O10 1_555 1_555
O11 H84 1_555 1_555
H85 O11 1_555 1_555
C5 C6 1_555 1_555
C11 N1 1_555 1_555
C13 N2 1_555 1_555
C22 C23 1_555 1_555
C30 N4 1_555 1_555
C39 C40 1_555 1_555
O6 C42 1_555 1_555
C47 N6 1_555 1_555

#END
