
#######################################################################
#
#                 Cambridge Crystallographic Data Centre
#                                CCDC 
#
#######################################################################
#
# If this CIF has been generated from an entry in the Cambridge 
# Structural Database, then it will include bibliographic, chemical, 
# crystal, experimental, refinement or atomic coordinate data resulting 
# from the CCDC's data processing and validation procedures.
#
#######################################################################

data_RICDAK
_chemical_formula_moiety         'C10 H14 F3 N1 O3 S1'
_chemical_name_systematic        
2-Methyl-N-(2,2,2-trifluoro-1-(5-oxo-2,5-dihydrofuran-2-yl)ethyl)propane-2-sulfinamide
_symmetry_cell_setting           monoclinic
_symmetry_space_group_name_H-M   'P 21'
_symmetry_Int_Tables_number      4
_space_group_name_Hall           'P 2yb'
loop_
_symmetry_equiv_pos_site_id
_symmetry_equiv_pos_as_xyz
1 x,y,z
2 -x,1/2+y,-z
_cell_length_a                   8.331(3)
_cell_length_b                   9.435(4)
_cell_length_c                   9.034(4)
_cell_angle_alpha                90
_cell_angle_beta                 110.722(7)
_cell_angle_gamma                90
_cell_volume                     664.162
_exptl_crystal_colour            colorless
_exptl_crystal_description       prismatic
_cell_formula_units_Z            2
loop_
_atom_site_label
_atom_site_type_symbol
_atom_site_fract_x
_atom_site_fract_y
_atom_site_fract_z
S1 S 0.01038(5) 0.92912(5) 0.44050(5)
F1 F 0.10195(19) 0.9288(2) 0.81039(16)
F2 F 0.3410(3) 1.0379(2) 0.8752(2)
F3 F 0.3323(3) 0.8262(3) 0.95388(18)
N1 N 0.21974(17) 0.9439(2) 0.54645(16)
O1 O 0.6238(2) 0.7425(2) 0.4155(2)
O2 O 0.49546(18) 0.73615(17) 0.59384(18)
O3 O -0.07481(19) 1.06515(19) 0.44761(19)
C1 C 0.5950(3) 0.7996(2) 0.5207(3)
C2 C 0.6511(2) 0.9370(3) 0.5959(2)
H1 H 0.7194 1.0020 0.5681
C3 C 0.5883(2) 0.9533(3) 0.7100(2)
H2 H 0.6068 1.0317 0.7764
C4 C 0.4835(2) 0.8272(2) 0.7163(2)
H3 H 0.5350 0.7801 0.8190
C5 C 0.2918(2) 0.8552(2) 0.6843(2)
H4 H 0.2324 0.7638 0.6608
C6 C 0.2671(3) 0.9144(3) 0.8311(2)
C7 C 0.0215(2) 0.9227(3) 0.2405(2)
C8 C 0.1130(4) 1.0523(3) 0.2109(3)
H5 H 0.2333 1.0456 0.2719
H6 H 0.0667 1.1358 0.2416
H7 H 0.0969 1.0578 0.1004
C9 C 0.1113(4) 0.7851(3) 0.2291(3)
H8 H 0.1025 0.7698 0.1214
H9 H 0.0581 0.7077 0.2632
H10 H 0.2301 0.7907 0.2954
C10 C -0.1671(3) 0.9188(5) 0.1316(3)
H11 H -0.2218 1.0061 0.1414
H12 H -0.2238 0.8412 0.1613
H13 H -0.1740 0.9068 0.0240
H14 H 0.258(3) 1.030(3) 0.550(2)
loop_
_geom_bond_atom_site_label_1
_geom_bond_atom_site_label_2
_geom_bond_site_symmetry_1
_geom_bond_site_symmetry_2
S1 N1 1_555 1_555
F1 C6 1_555 1_555
F2 C6 1_555 1_555
F3 C6 1_555 1_555
N1 C5 1_555 1_555
O1 C1 1_555 1_555
O2 C1 1_555 1_555
O3 S1 1_555 1_555
C1 C2 1_555 1_555
C2 H1 1_555 1_555
C3 C2 1_555 1_555
H2 C3 1_555 1_555
C4 O2 1_555 1_555
H3 C4 1_555 1_555
C5 C4 1_555 1_555
H4 C5 1_555 1_555
C6 C5 1_555 1_555
C7 S1 1_555 1_555
C8 C7 1_555 1_555
H5 C8 1_555 1_555
H6 C8 1_555 1_555
H7 C8 1_555 1_555
C9 C7 1_555 1_555
H8 C9 1_555 1_555
H9 C9 1_555 1_555
H10 C9 1_555 1_555
C10 C7 1_555 1_555
H11 C10 1_555 1_555
H12 C10 1_555 1_555
H13 C10 1_555 1_555
H14 N1 1_555 1_555
C3 C4 1_555 1_555

#END
