
#######################################################################
#
#                 Cambridge Crystallographic Data Centre
#                                CCDC 
#
#######################################################################
#
# If this CIF has been generated from an entry in the Cambridge 
# Structural Database, then it will include bibliographic, chemical, 
# crystal, experimental, refinement or atomic coordinate data resulting 
# from the CCDC's data processing and validation procedures.
#
#######################################################################

data_RIDCIS
_chemical_formula_moiety         'C36 H37 Br1 O5'
_chemical_name_systematic        
'Diphenyl ((3-bromophenyl)(3,5-di-t-butyl-4-hydroxyphenyl)methyl)malonate'
_symmetry_cell_setting           triclinic
_symmetry_space_group_name_H-M   'P 1'
_symmetry_Int_Tables_number      1
_space_group_name_Hall           'P 1'
loop_
_symmetry_equiv_pos_site_id
_symmetry_equiv_pos_as_xyz
1 x,y,z
_cell_length_a                   9.358(4)
_cell_length_b                   9.937(5)
_cell_length_c                   10.761(5)
_cell_angle_alpha                99.004(4)
_cell_angle_beta                 115.370(4)
_cell_angle_gamma                108.307(4)
_cell_volume                     807.472
_cell_formula_units_Z            1
loop_
_atom_site_label
_atom_site_type_symbol
_atom_site_fract_x
_atom_site_fract_y
_atom_site_fract_z
Br1 Br 0.51702(7) 0.00273(7) 0.57399(7)
C1 C 0.7519(11) 0.7674(9) 0.0110(7)
H1 H 0.6414 0.6873 -0.0452
C2 C 0.7869(19) 0.9041(15) -0.0162(12)
H2 H 0.6997 0.9147 -0.0932
C3 C 0.948(2) 1.0210(15) 0.0692(18)
H3 H 0.9694 1.1126 0.0530
C4 C 1.0707(17) 1.0046(10) 0.1735(15)
H4 H 1.1809 1.0851 0.2290
C5 C 1.0450(11) 0.8708(9) 0.2065(9)
H5 H 1.1341 0.8614 0.2830
C6 C 0.8824(10) 0.7559(7) 0.1202(8)
C7 C 0.7906(7) 0.5837(6) 0.2271(6)
C8 C 1.2413(10) 0.3553(8) 0.5358(9)
H6 H 1.1422 0.2790 0.5224
C9 C 1.4070(14) 0.3767(11) 0.6385(12)
H7 H 1.4196 0.3154 0.6958
C10 C 1.5471(13) 0.4842(13) 0.6552(11)
H8 H 1.6580 0.4959 0.7219
C11 C 1.5307(12) 0.5753(14) 0.5775(12)
H9 H 1.6300 0.6528 0.5925
C12 C 1.3690(10) 0.5560(10) 0.4758(9)
H10 H 1.3583 0.6190 0.4202
C13 C 1.2262(8) 0.4471(7) 0.4557(7)
C14 C 0.9632(8) 0.4732(7) 0.3794(7)
C15 C 0.7899(6) 0.4340(5) 0.2466(6)
H11 H 0.7808 0.3719 0.1609
C16 C 0.6366(6) 0.3472(5) 0.2651(5)
H12 H 0.6378 0.4169 0.3412
C17 C 0.6544(6) 0.2152(6) 0.3147(5)
C18 C 0.5962(7) 0.1780(6) 0.4081(6)
H13 H 0.5552 0.2379 0.4456
C19 C 0.5987(7) 0.0522(7) 0.4460(6)
C20 C 0.6619(7) -0.0368(6) 0.3967(6)
H14 H 0.6628 -0.1213 0.4233
C21 C 0.7243(7) 0.0020(7) 0.3065(6)
H15 H 0.7702 -0.0557 0.2731
C22 C 0.7193(7) 0.1264(6) 0.2651(6)
H16 H 0.7604 0.1504 0.2029
C23 C 0.4635(6) 0.2963(6) 0.1241(5)
C24 C 0.3954(7) 0.1632(6) 0.0127(6)
H17 H 0.4582 0.1051 0.0262
C25 C 0.2400(7) 0.1117(6) -0.1168(6)
C26 C 0.1493(7) 0.2049(6) -0.1326(6)
C27 C 0.2155(8) 0.3440(6) -0.0267(6)
C28 C 0.3708(7) 0.3837(6) 0.1014(6)
H18 H 0.4150 0.4732 0.1757
C29 C 0.1211(9) 0.4473(7) -0.0512(6)
C30 C -0.0519(10) 0.3746(9) -0.0550(8)
H19 H -0.1117 0.4385 -0.0730
H20 H -0.0289 0.3615 0.0371
H21 H -0.1236 0.2783 -0.1316
C31 C 0.0963(12) 0.4830(8) -0.1888(8)
H22 H 0.0114 0.3942 -0.2728
H23 H 0.2056 0.5167 -0.1866
H24 H 0.0561 0.5609 -0.1942
C32 C 0.2321(10) 0.5994(8) 0.0756(8)
H25 H 0.3416 0.6488 0.0807
H26 H 0.2532 0.5822 0.1659
H27 H 0.1705 0.6619 0.0589
C33 C 0.1661(7) -0.0408(6) -0.2333(6)
C34 C 0.2971(8) -0.1116(7) -0.1921(7)
H28 H 0.4037 -0.0451 -0.1828
H29 H 0.2482 -0.2064 -0.2669
H30 H 0.3212 -0.1273 -0.1007
C35 C 0.0003(8) -0.1512(6) -0.2468(7)
H31 H 0.0256 -0.1626 -0.1538
H32 H -0.0421 -0.2471 -0.3175
H33 H -0.0872 -0.1133 -0.2778
C36 C 0.1300(8) -0.0245(7) -0.3813(6)
H34 H 0.0414 0.0119 -0.4156
H35 H 0.0905 -0.1207 -0.4502
H36 H 0.2353 0.0457 -0.3711
O1 O 0.7483(6) 0.6618(4) 0.2846(5)
O2 O 0.8580(6) 0.6159(5) 0.1426(5)
O3 O 1.0086(5) 0.5401(5) 0.5014(5)
O4 O 1.0628(5) 0.4234(4) 0.3442(4)
O5 O -0.0086(5) 0.1528(4) -0.2580(4)
H37 H -0.0611 0.2022 -0.2483
loop_
_geom_bond_atom_site_label_1
_geom_bond_atom_site_label_2
_geom_bond_site_symmetry_1
_geom_bond_site_symmetry_2
Br1 C19 1_555 1_555
C1 H1 1_555 1_555
C2 C1 1_555 1_555
H2 C2 1_555 1_555
C3 C2 1_555 1_555
H3 C3 1_555 1_555
C4 C3 1_555 1_555
H4 C4 1_555 1_555
C5 C4 1_555 1_555
H5 C5 1_555 1_555
C6 C1 1_555 1_555
C7 C15 1_555 1_555
C8 H6 1_555 1_555
C9 C8 1_555 1_555
H7 C9 1_555 1_555
C10 C9 1_555 1_555
H8 C10 1_555 1_555
C11 C10 1_555 1_555
H9 C11 1_555 1_555
C12 C11 1_555 1_555
H10 C12 1_555 1_555
C13 C8 1_555 1_555
C14 C15 1_555 1_555
C15 H11 1_555 1_555
C16 C15 1_555 1_555
H12 C16 1_555 1_555
C17 C16 1_555 1_555
C18 C17 1_555 1_555
H13 C18 1_555 1_555
C19 C18 1_555 1_555
C20 C19 1_555 1_555
H14 C20 1_555 1_555
C21 C20 1_555 1_555
H15 C21 1_555 1_555
C22 C17 1_555 1_555
H16 C22 1_555 1_555
C23 C16 1_555 1_555
C24 C23 1_555 1_555
H17 C24 1_555 1_555
C25 C24 1_555 1_555
C26 C25 1_555 1_555
C27 C26 1_555 1_555
C28 C23 1_555 1_555
H18 C28 1_555 1_555
C29 C27 1_555 1_555
C30 C29 1_555 1_555
H19 C30 1_555 1_555
H20 C30 1_555 1_555
H21 C30 1_555 1_555
C31 C29 1_555 1_555
H22 C31 1_555 1_555
H23 C31 1_555 1_555
H24 C31 1_555 1_555
C32 C29 1_555 1_555
H25 C32 1_555 1_555
H26 C32 1_555 1_555
H27 C32 1_555 1_555
C33 C25 1_555 1_555
C34 C33 1_555 1_555
H28 C34 1_555 1_555
H29 C34 1_555 1_555
H30 C34 1_555 1_555
C35 C33 1_555 1_555
H31 C35 1_555 1_555
H32 C35 1_555 1_555
H33 C35 1_555 1_555
C36 C33 1_555 1_555
H34 C36 1_555 1_555
H35 C36 1_555 1_555
H36 C36 1_555 1_555
O1 C7 1_555 1_555
O2 C6 1_555 1_555
O3 C14 1_555 1_555
O4 C13 1_555 1_555
O5 C26 1_555 1_555
H37 O5 1_555 1_555
C5 C6 1_555 1_555
C7 O2 1_555 1_555
C12 C13 1_555 1_555
C14 O4 1_555 1_555
C21 C22 1_555 1_555
C27 C28 1_555 1_555

#END
