
#######################################################################
#
#                 Cambridge Crystallographic Data Centre
#                                CCDC 
#
#######################################################################
#
# If this CIF has been generated from an entry in the Cambridge 
# Structural Database, then it will include bibliographic, chemical, 
# crystal, experimental, refinement or atomic coordinate data resulting 
# from the CCDC's data processing and validation procedures.
#
#######################################################################

data_RIDMUM
_chemical_formula_moiety         'C22 H42 O3'
_chemical_name_systematic        
(1R,4R,5S)-4-Heptadecyl-3,6,8-trioxabicyclo(3.2.1)octane
_symmetry_cell_setting           orthorhombic
_symmetry_space_group_name_H-M   'P 21 21 21'
_symmetry_Int_Tables_number      19
_space_group_name_Hall           'P 2ac 2ab'
loop_
_symmetry_equiv_pos_site_id
_symmetry_equiv_pos_as_xyz
1 x,y,z
2 1/2-x,-y,1/2+z
3 1/2+x,1/2-y,-z
4 -x,1/2+y,1/2-z
_cell_length_a                   9.586(2)
_cell_length_b                   43.14(1)
_cell_length_c                   5.289(1)
_cell_angle_alpha                90
_cell_angle_beta                 90
_cell_angle_gamma                90
_cell_volume                     2187.21
_exptl_crystal_colour            colorless
_chemical_melting_point          74-75deg.C
_cell_formula_units_Z            4
loop_
_atom_site_label
_atom_site_type_symbol
_atom_site_fract_x
_atom_site_fract_y
_atom_site_fract_z
O1 O -0.2123(5) 0.6906(1) 0.798(1)
O2 O -0.4336(5) 0.7181(1) 0.539(1)
O3 O -0.2237(5) 0.7310(1) 0.380(1)
C1 C -0.2246(8) 0.7424(2) 0.638(2)
C2 C -0.1427(7) 0.7198(2) 0.792(1)
C3 C -0.2497(7) 0.6799(2) 0.551(2)
C4 C -0.3188(7) 0.7058(2) 0.404(2)
C5 C -0.3794(8) 0.7423(2) 0.700(2)
C6 C -0.1294(7) 0.6652(1) 0.415(2)
C7 C -0.0757(7) 0.6357(1) 0.540(2)
C8 C 0.0514(8) 0.6217(2) 0.412(2)
C9 C 0.0987(7) 0.5916(2) 0.537(2)
C10 C 0.2281(7) 0.5776(1) 0.417(2)
C11 C 0.2750(8) 0.5474(2) 0.538(2)
C12 C 0.4045(8) 0.5332(1) 0.421(2)
C13 C 0.4498(8) 0.5030(1) 0.542(2)
C14 C 0.5796(8) 0.4889(2) 0.424(2)
C15 C 0.6269(8) 0.4586(2) 0.542(2)
C16 C 0.7559(7) 0.4449(2) 0.429(2)
C17 C 0.8022(8) 0.4143(1) 0.541(2)
C18 C 0.9319(8) 0.4008(1) 0.424(2)
C19 C 0.9759(7) 0.3698(1) 0.534(2)
C20 C 1.1056(7) 0.3563(1) 0.412(2)
C21 C 1.1452(8) 0.3246(2) 0.505(2)
C22 C 1.2732(8) 0.3119(2) 0.383(2)
loop_
_geom_bond_atom_site_label_1
_geom_bond_atom_site_label_2
_geom_bond_site_symmetry_1
_geom_bond_site_symmetry_2
O1 C2 1_555 1_555
O2 C4 1_555 1_555
O3 C1 1_555 1_555
C1 C2 1_555 1_555
C3 O1 1_555 1_555
C4 O3 1_555 1_555
C5 O2 1_555 1_555
C6 C3 1_555 1_555
C7 C6 1_555 1_555
C8 C7 1_555 1_555
C9 C8 1_555 1_555
C10 C9 1_555 1_555
C11 C10 1_555 1_555
C12 C11 1_555 1_555
C13 C12 1_555 1_555
C14 C13 1_555 1_555
C15 C14 1_555 1_555
C16 C15 1_555 1_555
C17 C16 1_555 1_555
C18 C17 1_555 1_555
C19 C18 1_555 1_555
C20 C19 1_555 1_555
C21 C20 1_555 1_555
C22 C21 1_555 1_555
C1 C5 1_555 1_555
C3 C4 1_555 1_555

#END
