
#######################################################################
#
#                 Cambridge Crystallographic Data Centre
#                                CCDC 
#
#######################################################################
#
# If this CIF has been generated from an entry in the Cambridge 
# Structural Database, then it will include bibliographic, chemical, 
# crystal, experimental, refinement or atomic coordinate data resulting 
# from the CCDC's data processing and validation procedures.
#
#######################################################################

data_RIDNUQ
_chemical_formula_moiety         'C12 H28 N1 1+,C2 H1 O4 1-'
_chemical_name_systematic        'tributylammonium hydrogen ethanedioate'
_symmetry_cell_setting           monoclinic
_symmetry_space_group_name_H-M   'P 21/n'
_symmetry_Int_Tables_number      14
_space_group_name_Hall           '-P 2yn'
loop_
_symmetry_equiv_pos_site_id
_symmetry_equiv_pos_as_xyz
1 x,y,z
2 1/2-x,1/2+y,1/2-z
3 -x,-y,-z
4 1/2+x,1/2-y,1/2+z
_cell_length_a                   5.6140(3)
_cell_length_b                   15.4270(7)
_cell_length_c                   19.0072(16)
_cell_angle_alpha                90
_cell_angle_beta                 94.770(6)
_cell_angle_gamma                90
_cell_volume                     1640.46
_exptl_crystal_colour            colorless
_exptl_crystal_description       plate
_cell_formula_units_Z            4
loop_
_atom_site_label
_atom_site_type_symbol
_atom_site_fract_x
_atom_site_fract_y
_atom_site_fract_z
O1 O -0.0099(4) 0.05042(15) 0.20868(17)
O2 O 0.1440(4) -0.07897(14) 0.18695(15)
O3 O 0.4447(4) 0.11584(16) 0.22475(18)
O4 O 0.5810(4) -0.01418(15) 0.19622(16)
H1 H 0.751(8) 0.011(3) 0.203(2)
C1 C 0.1594(5) -0.0013(2) 0.20026(19)
C2 C 0.4137(5) 0.0411(2) 0.20879(19)
N1 N -0.5153(4) -0.20377(18) 0.17013(17)
H2 H -0.5900 -0.1466 0.1798
C3 C -0.3540(6) -0.1882(3) 0.1114(3)
H3 H -0.2267 -0.1470 0.1283
H4 H -0.2761 -0.2435 0.1002
C4 C -0.4835(10) -0.1527(4) 0.0447(3)
H5 H -0.5794 -0.1019 0.0569
H6 H -0.5953 -0.1974 0.0242
C5 C -0.314(2) -0.1254(9) -0.0116(7)
H7 H -0.2883 -0.1816 -0.0349
H8 H -0.4260 -0.0938 -0.0455
C6 C -0.165(3) -0.0960(16) -0.0186(10)
H9 H -0.1495 -0.0446 0.0117
H10 H -0.1644 -0.0784 -0.0682
H11 H -0.0308 -0.1353 -0.0065
C7 C -0.3661(7) -0.2277(3) 0.2355(2)
H12 H -0.3105 -0.2882 0.2314
H13 H -0.2234 -0.1898 0.2404
C8 C -0.4951(8) -0.2197(3) 0.2984(3)
H14 H -0.6222 -0.2642 0.2973
H15 H -0.5723 -0.1620 0.2988
C9 C -0.3242(11) -0.2309(4) 0.3672(3)
H16 H -0.4229 -0.2320 0.4080
H17 H -0.2451 -0.2881 0.3651
C10 C -0.1410(12) -0.1656(5) 0.3804(4)
H18 H -0.0203 -0.1722 0.3463
H19 H -0.0653 -0.1725 0.4284
H20 H -0.2132 -0.1079 0.3753
C11 C -0.7171(5) -0.2644(2) 0.1488(2)
H21 H -0.8177 -0.2377 0.1094
H22 H -0.8171 -0.2707 0.1890
C12 C -0.6431(7) -0.3545(2) 0.1260(2)
H23 H -0.5585 -0.3850 0.1665
H24 H -0.5325 -0.3495 0.0883
C13 C -0.8644(8) -0.4062(3) 0.0989(3)
H25 H -0.9824 -0.4052 0.1348
H26 H -0.9389 -0.3786 0.0555
C14 C -0.8026(13) -0.4989(3) 0.0831(4)
H27 H -0.9448 -0.5285 0.0614
H28 H -0.7467 -0.5284 0.1270
H29 H -0.6763 -0.5000 0.0505
loop_
_geom_bond_atom_site_label_1
_geom_bond_atom_site_label_2
_geom_bond_site_symmetry_1
_geom_bond_site_symmetry_2
O1 C1 1_555 1_555
O2 C1 1_555 1_555
O3 C2 1_555 1_555
O4 H1 1_555 1_555
C1 C2 1_555 1_555
C2 O4 1_555 1_555
N1 H2 1_555 1_555
C3 N1 1_555 1_555
H3 C3 1_555 1_555
H4 C3 1_555 1_555
C4 C3 1_555 1_555
H5 C4 1_555 1_555
H6 C4 1_555 1_555
C5 C4 1_555 1_555
H7 C5 1_555 1_555
H8 C5 1_555 1_555
C6 C5 1_555 1_555
H9 C6 1_555 1_555
H10 C6 1_555 1_555
H11 C6 1_555 1_555
C7 N1 1_555 1_555
H12 C7 1_555 1_555
H13 C7 1_555 1_555
C8 C7 1_555 1_555
H14 C8 1_555 1_555
H15 C8 1_555 1_555
C9 C8 1_555 1_555
H16 C9 1_555 1_555
H17 C9 1_555 1_555
C10 C9 1_555 1_555
H18 C10 1_555 1_555
H19 C10 1_555 1_555
H20 C10 1_555 1_555
C11 N1 1_555 1_555
H21 C11 1_555 1_555
H22 C11 1_555 1_555
C12 C11 1_555 1_555
H23 C12 1_555 1_555
H24 C12 1_555 1_555
C13 C12 1_555 1_555
H25 C13 1_555 1_555
H26 C13 1_555 1_555
C14 C13 1_555 1_555
H27 C14 1_555 1_555
H28 C14 1_555 1_555
H29 C14 1_555 1_555

#END
