
#######################################################################
#
#                 Cambridge Crystallographic Data Centre
#                                CCDC 
#
#######################################################################
#
# If this CIF has been generated from an entry in the Cambridge 
# Structural Database, then it will include bibliographic, chemical, 
# crystal, experimental, refinement or atomic coordinate data resulting 
# from the CCDC's data processing and validation procedures.
#
#######################################################################

data_RIDNIC
_chemical_formula_moiety         'C28 H18 N4'
_chemical_name_systematic        
1,1'-anthracene-9,10-diylbis(1H-benzimidazole)
_symmetry_cell_setting           monoclinic
_symmetry_space_group_name_H-M   'P 21/c'
_symmetry_Int_Tables_number      14
_space_group_name_Hall           '-P 2ybc'
loop_
_symmetry_equiv_pos_site_id
_symmetry_equiv_pos_as_xyz
1 x,y,z
2 -x,1/2+y,1/2-z
3 -x,-y,-z
4 x,1/2-y,1/2+z
_cell_length_a                   16.017(4)
_cell_length_b                   10.324(3)
_cell_length_c                   12.342(3)
_cell_angle_alpha                90
_cell_angle_beta                 104.048(5)
_cell_angle_gamma                90
_cell_volume                     1979.83
_exptl_crystal_colour            yellow
_exptl_crystal_description       block
_cell_formula_units_Z            4
loop_
_atom_site_label
_atom_site_type_symbol
_atom_site_fract_x
_atom_site_fract_y
_atom_site_fract_z
N1 N 0.31516(14) 0.35365(19) 0.31549(18)
C1 C 0.22287(16) -0.0198(2) 0.2095(2)
C2 C 0.22534(17) 0.2129(2) 0.1742(2)
C3 C 0.28219(17) 0.2265(2) 0.2792(2)
C4 C 0.19291(17) 0.0864(2) 0.1398(2)
N2 N 0.18999(14) -0.14722(19) 0.17528(18)
C5 C 0.31090(17) 0.1213(2) 0.3503(2)
C6 C 0.28133(16) -0.0063(2) 0.3131(2)
C7 C 0.36773(18) 0.1348(3) 0.4584(2)
H1 H 0.3854 0.2169 0.4853
N3 N 0.16522(16) -0.3337(2) 0.07836(19)
C8 C 0.31375(17) -0.1139(3) 0.3833(2)
H2 H 0.2964 -0.1973 0.3596
C9 C 0.11736(18) -0.3318(2) 0.1587(2)
N4 N 0.31609(16) 0.5619(2) 0.3677(2)
C10 C 0.13095(17) 0.0743(3) 0.0352(2)
H3 H 0.1073 -0.0064 0.0125
C11 C 0.13249(17) -0.2174(2) 0.2207(2)
C12 C 0.39626(18) 0.0295(3) 0.5222(2)
H4 H 0.4339 0.0401 0.5920
C13 C 0.19915(18) 0.3194(3) 0.0995(2)
H5 H 0.2219 0.4013 0.1193
C14 C 0.47182(19) 0.3353(3) 0.3112(2)
H6 H 0.4714 0.2484 0.2913
C15 C 0.36937(18) -0.0960(3) 0.4837(2)
H7 H 0.3902 -0.1674 0.5280
C16 C 0.10609(18) 0.1789(3) -0.0316(2)
H8 H 0.0652 0.1692 -0.0989
C17 C 0.39885(18) 0.3967(2) 0.3254(2)
C18 C 0.14182(19) 0.3022(3) 0.0005(3)
H9 H 0.1256 0.3724 -0.0471
C19 C 0.09540(18) -0.1908(3) 0.3086(2)
H10 H 0.1077 -0.1154 0.3506
C20 C 0.39826(19) 0.5274(2) 0.3576(2)
C21 C 0.20598(19) -0.2229(3) 0.0914(2)
H11 H 0.2427 -0.1976 0.0474
C22 C 0.27015(19) 0.4571(3) 0.3418(2)
H12 H 0.2121 0.4528 0.3413
C23 C 0.4733(2) 0.6000(3) 0.3741(2)
H13 H 0.4743 0.6868 0.3947
C24 C 0.06083(18) -0.4234(3) 0.1825(3)
H14 H 0.0495 -0.5001 0.1422
C25 C 0.5461(2) 0.5392(3) 0.3590(2)
H15 H 0.5971 0.5861 0.3698
C26 C 0.02214(19) -0.3962(3) 0.2683(3)
H16 H -0.0165 -0.4555 0.2854
C27 C 0.5456(2) 0.4097(3) 0.3280(2)
H17 H 0.5961 0.3722 0.3184
C28 C 0.03928(19) -0.2828(3) 0.3298(3)
H18 H 0.0120 -0.2685 0.3873
loop_
_geom_bond_atom_site_label_1
_geom_bond_atom_site_label_2
_geom_bond_site_symmetry_1
_geom_bond_site_symmetry_2
N1 C3 1_555 1_555
C1 C4 1_555 1_555
C2 C3 1_555 1_555
C3 C5 1_555 1_555
C4 C2 1_555 1_555
N2 C1 1_555 1_555
C5 C6 1_555 1_555
C6 C1 1_555 1_555
C7 C5 1_555 1_555
H1 C7 1_555 1_555
N3 C9 1_555 1_555
C8 C6 1_555 1_555
H2 C8 1_555 1_555
C9 C11 1_555 1_555
N4 C20 1_555 1_555
C10 C4 1_555 1_555
H3 C10 1_555 1_555
C11 N2 1_555 1_555
C12 C7 1_555 1_555
H4 C12 1_555 1_555
C13 C2 1_555 1_555
H5 C13 1_555 1_555
C14 H6 1_555 1_555
C15 C8 1_555 1_555
H7 C15 1_555 1_555
C16 C10 1_555 1_555
H8 C16 1_555 1_555
C17 N1 1_555 1_555
C18 C13 1_555 1_555
H9 C18 1_555 1_555
C19 C11 1_555 1_555
H10 C19 1_555 1_555
C20 C17 1_555 1_555
C21 N2 1_555 1_555
H11 C21 1_555 1_555
C22 N1 1_555 1_555
H12 C22 1_555 1_555
C23 C20 1_555 1_555
H13 C23 1_555 1_555
C24 C9 1_555 1_555
H14 C24 1_555 1_555
C25 C23 1_555 1_555
H15 C25 1_555 1_555
C26 C24 1_555 1_555
H16 C26 1_555 1_555
C27 C14 1_555 1_555
H17 C27 1_555 1_555
C28 C19 1_555 1_555
H18 C28 1_555 1_555
N3 C21 1_555 1_555
N4 C22 1_555 1_555
C12 C15 1_555 1_555
C14 C17 1_555 1_555
C16 C18 1_555 1_555
C25 C27 1_555 1_555
C26 C28 1_555 1_555

#END
