
#######################################################################
#
#                 Cambridge Crystallographic Data Centre
#                                CCDC 
#
#######################################################################
#
# If this CIF has been generated from an entry in the Cambridge 
# Structural Database, then it will include bibliographic, chemical, 
# crystal, experimental, refinement or atomic coordinate data resulting 
# from the CCDC's data processing and validation procedures.
#
#######################################################################

data_RIDWEJ
_chemical_formula_moiety         'C25 H18 O2'
_chemical_name_systematic        
14-phenyl-8H,14H-8,14-methanobenzo[b]naphtho[2,1-f][1,5]dioxocine
_symmetry_cell_setting           triclinic
_symmetry_space_group_name_H-M   'P -1'
_symmetry_Int_Tables_number      2
_space_group_name_Hall           '-P 1'
loop_
_symmetry_equiv_pos_site_id
_symmetry_equiv_pos_as_xyz
1 x,y,z
2 -x,-y,-z
_cell_length_a                   8.9534(7)
_cell_length_b                   10.3632(8)
_cell_length_c                   11.2844(9)
_cell_angle_alpha                99.596(2)
_cell_angle_beta                 94.2980(10)
_cell_angle_gamma                112.923(4)
_cell_volume                     939.508
_exptl_crystal_colour            colorless
_exptl_crystal_description       block
_chemical_melting_point          '221.2 deg.C'
_cell_formula_units_Z            2
_exptl_crystal_recrystallization_method 'ethyl acetate/petroleum ether'
loop_
_atom_site_label
_atom_site_type_symbol
_atom_site_fract_x
_atom_site_fract_y
_atom_site_fract_z
O1 O 0.10341(15) 0.53681(14) 0.20687(13)
O2 O 0.48750(17) 0.73464(16) 0.43428(14)
C1 C 0.1833(2) 0.4898(2) 0.3015(2)
C2 C 0.1963(3) 0.5850(2) 0.4265(2)
H1 H 0.0906 0.5865 0.4375
H2 H 0.2310 0.5476 0.4916
C3 C 0.3234(2) 0.7373(2) 0.4285(2)
H3 H 0.3216 0.8027 0.5013
C4 C 0.2788(2) 0.7866(2) 0.3156(2)
C5 C 0.1722(2) 0.6861(2) 0.2129(2)
C6 C 0.1253(2) 0.7305(2) 0.1099(2)
H4 H 0.0534 0.6629 0.0438
C7 C 0.1878(3) 0.8771(3) 0.1077(3)
H5 H 0.1585 0.9067 0.0396
C8 C 0.2948(3) 0.9792(3) 0.2088(3)
H6 H 0.3366 1.0762 0.2072
C9 C 0.3383(3) 0.9349(2) 0.3118(3)
H7 H 0.4072 1.0033 0.3787
C10 C 0.3578(2) 0.5116(2) 0.2739(2)
C11 C 0.4957(3) 0.6274(2) 0.3442(2)
C12 C 0.6608(3) 0.6472(2) 0.3270(2)
H8 H 0.7497 0.7215 0.3780
C13 C 0.6867(3) 0.5566(3) 0.2355(2)
H9 H 0.7936 0.5692 0.2263
C14 C 0.5511(3) 0.4419(2) 0.1532(2)
C15 C 0.3853(2) 0.4188(2) 0.1724(2)
C16 C 0.2543(3) 0.3072(2) 0.0846(2)
H10 H 0.1461 0.2904 0.0931
C17 C 0.2852(3) 0.2243(2) -0.0120(2)
H11 H 0.1980 0.1531 -0.0669
C18 C 0.4494(3) 0.2472(3) -0.0280(2)
H12 H 0.4693 0.1905 -0.0925
C19 C 0.5786(3) 0.3540(3) 0.0530(2)
H13 H 0.6856 0.3690 0.0421
C20 C 0.0653(2) 0.3331(2) 0.3012(2)
C21 C 0.1230(3) 0.2443(2) 0.3536(2)
H14 H 0.2340 0.2771 0.3833
C22 C 0.0134(3) 0.1048(3) 0.3617(3)
H15 H 0.0527 0.0465 0.3964
C23 C -0.1538(4) 0.0548(3) 0.3175(3)
H16 H -0.2260 -0.0362 0.3234
C24 C -0.2117(3) 0.1419(3) 0.2647(2)
H17 H -0.3225 0.1078 0.2338
C25 C -0.1038(3) 0.2817(2) 0.2574(2)
H18 H -0.1444 0.3398 0.2238
loop_
_geom_bond_atom_site_label_1
_geom_bond_atom_site_label_2
_geom_bond_site_symmetry_1
_geom_bond_site_symmetry_2
O1 C1 1_555 1_555
O2 C3 1_555 1_555
C1 C2 1_555 1_555
C2 H1 1_555 1_555
H2 C2 1_555 1_555
C3 C2 1_555 1_555
H3 C3 1_555 1_555
C4 C3 1_555 1_555
C5 O1 1_555 1_555
C6 C5 1_555 1_555
H4 C6 1_555 1_555
C7 C6 1_555 1_555
H5 C7 1_555 1_555
C8 C7 1_555 1_555
H6 C8 1_555 1_555
C9 C4 1_555 1_555
H7 C9 1_555 1_555
C10 C1 1_555 1_555
C11 O2 1_555 1_555
C12 C11 1_555 1_555
H8 C12 1_555 1_555
C13 C12 1_555 1_555
H9 C13 1_555 1_555
C14 C13 1_555 1_555
C15 C10 1_555 1_555
C16 C15 1_555 1_555
H10 C16 1_555 1_555
C17 C16 1_555 1_555
H11 C17 1_555 1_555
C18 C17 1_555 1_555
H12 C18 1_555 1_555
C19 C14 1_555 1_555
H13 C19 1_555 1_555
C20 C1 1_555 1_555
C21 C20 1_555 1_555
H14 C21 1_555 1_555
C22 C21 1_555 1_555
H15 C22 1_555 1_555
C23 C22 1_555 1_555
H16 C23 1_555 1_555
C24 C23 1_555 1_555
H17 C24 1_555 1_555
C25 C20 1_555 1_555
H18 C25 1_555 1_555
C4 C5 1_555 1_555
C8 C9 1_555 1_555
C10 C11 1_555 1_555
C14 C15 1_555 1_555
C18 C19 1_555 1_555
C24 C25 1_555 1_555

#END
