
#######################################################################
#
#                 Cambridge Crystallographic Data Centre
#                                CCDC 
#
#######################################################################
#
# If this CIF has been generated from an entry in the Cambridge 
# Structural Database, then it will include bibliographic, chemical, 
# crystal, experimental, refinement or atomic coordinate data resulting 
# from the CCDC's data processing and validation procedures.
#
#######################################################################

data_RIFLAV
_chemical_formula_moiety         'C49 H34 N2 O1 S1'
_chemical_name_systematic        
2,7-bis(4-(Diphenylamino)phenyl)-9H-thioxanthen-9-one
_symmetry_cell_setting           monoclinic
_symmetry_space_group_name_H-M   'P 21/c'
_symmetry_Int_Tables_number      14
_space_group_name_Hall           '-P 2ybc'
loop_
_symmetry_equiv_pos_site_id
_symmetry_equiv_pos_as_xyz
1 x,y,z
2 -x,1/2+y,1/2-z
3 -x,-y,-z
4 x,1/2-y,1/2+z
_cell_length_a                   7.8822(6)
_cell_length_b                   46.059(3)
_cell_length_c                   9.9726(8)
_cell_angle_alpha                90
_cell_angle_beta                 94.567(2)
_cell_angle_gamma                90
_cell_volume                     3609.02
_exptl_crystal_colour            green
_exptl_crystal_description       prismatic
_cell_formula_units_Z            4
loop_
_atom_site_label
_atom_site_type_symbol
_atom_site_fract_x
_atom_site_fract_y
_atom_site_fract_z
S1 S 0.40536(10) 0.055978(15) 0.56334(9)
N1 N 1.5279(3) 0.07569(5) 1.1538(2)
N2 N -0.0687(3) 0.25988(5) 0.3544(3)
O1 O 0.7069(3) 0.13615(5) 0.6235(3)
C1 C 0.5963(3) 0.06055(6) 0.6604(3)
C2 C 0.6672(4) 0.03555(6) 0.7233(3)
H1 H 0.6121 0.0178 0.7112
C3 C 0.8177(4) 0.03724(6) 0.8028(3)
H2 H 0.8611 0.0206 0.8458
C4 C 0.9071(3) 0.06346(6) 0.8207(3)
C5 C 0.8372(3) 0.08768(6) 0.7567(3)
H3 H 0.8949 0.1052 0.7669
C6 C 0.6835(3) 0.08694(6) 0.6772(3)
C7 C 0.6174(4) 0.11467(6) 0.6183(3)
C8 C 0.4418(3) 0.11611(6) 0.5550(3)
C9 C 0.3420(3) 0.09148(6) 0.5256(3)
C10 C 0.1776(4) 0.09492(6) 0.4622(3)
H4 H 0.1119 0.0786 0.4394
C11 C 0.1135(4) 0.12189(6) 0.4339(3)
H5 H 0.0035 0.1236 0.3934
C12 C 0.2083(3) 0.14720(6) 0.4641(3)
C13 C 0.3721(3) 0.14337(6) 0.5240(3)
H6 H 0.4383 0.1597 0.5444
C14 C 1.0702(3) 0.06550(6) 0.9062(3)
C15 C 1.2000(4) 0.08336(6) 0.8699(3)
H7 H 1.1851 0.0938 0.7900
C16 C 1.3509(4) 0.08609(6) 0.9486(3)
H8 H 1.4368 0.0978 0.9196
C17 C 1.3762(3) 0.07177(6) 1.0694(3)
C18 C 1.2469(4) 0.05356(6) 1.1092(3)
H9 H 1.2618 0.0435 1.1901
C19 C 1.0976(4) 0.05057(6) 1.0283(3)
H10 H 1.0130 0.0383 1.0556
C20 C 1.6117(4) 0.10315(6) 1.1513(3)
C21 C 1.5355(4) 0.12783(7) 1.1956(3)
H11 H 1.4281 0.1267 1.2277
C22 C 1.6172(5) 0.15414(7) 1.1927(4)
H12 H 1.5658 0.1707 1.2240
C23 C 1.7724(6) 0.15594(8) 1.1442(4)
H13 H 1.8264 0.1738 1.1405
C24 C 1.8503(5) 0.13157(9) 1.1007(4)
H14 H 1.9576 0.1328 1.0683
C25 C 1.7703(4) 0.10567(7) 1.1050(3)
H15 H 1.8242 0.0891 1.0758
C26 C 1.6243(3) 0.05166(6) 1.2060(3)
C27 C 1.7302(4) 0.05530(7) 1.3226(3)
H16 H 1.7357 0.0732 1.3662
C28 C 1.8273(5) 0.03233(9) 1.3738(4)
H17 H 1.8978 0.0348 1.4523
C29 C 1.8207(4) 0.00606(8) 1.3101(4)
H18 H 1.8864 -0.0093 1.3452
C30 C 1.7173(4) 0.00250(7) 1.1946(4)
H19 H 1.7128 -0.0154 1.1511
C31 C 1.6205(4) 0.02510(6) 1.1426(3)
H20 H 1.5513 0.0225 1.0636
C32 C 0.1358(3) 0.17614(6) 0.4350(3)
C33 C -0.0363(3) 0.18196(6) 0.4444(3)
H21 H -0.1078 0.1670 0.4676
C34 C -0.1031(3) 0.20925(6) 0.4202(3)
H22 H -0.2180 0.2126 0.4294
C35 C -0.0011(3) 0.23187(6) 0.3823(3)
C36 C 0.1705(3) 0.22644(6) 0.3721(3)
H23 H 0.2413 0.2413 0.3468
C37 C 0.2364(4) 0.19927(6) 0.3994(3)
H24 H 0.3523 0.1962 0.3938
C38 C -0.2363(3) 0.26353(6) 0.2937(3)
C39 C -0.3004(4) 0.24524(7) 0.1919(3)
H25 H -0.2337 0.2303 0.1621
C40 C -0.4632(4) 0.24934(8) 0.1351(3)
H26 H -0.5073 0.2369 0.0677
C41 C -0.5615(4) 0.27172(8) 0.1769(4)
H27 H -0.6719 0.2743 0.1386
C42 C -0.4969(4) 0.29001(8) 0.2740(4)
H28 H -0.5627 0.3054 0.3006
C43 C -0.3361(4) 0.28618(7) 0.3335(3)
H29 H -0.2938 0.2988 0.4009
C44 C 0.0293(3) 0.28517(6) 0.3877(3)
C45 C 0.0324(4) 0.30785(6) 0.2973(3)
H30 H -0.0269 0.3061 0.2132
C46 C 0.1217(4) 0.33300(7) 0.3293(3)
H31 H 0.1211 0.3482 0.2680
C47 C 0.2110(4) 0.33529(7) 0.4517(4)
H32 H 0.2735 0.3520 0.4734
C48 C 0.2089(4) 0.31289(7) 0.5433(3)
H33 H 0.2696 0.3146 0.6268
C49 C 0.1176(4) 0.28804(6) 0.5119(3)
H34 H 0.1154 0.2731 0.5746
loop_
_geom_bond_atom_site_label_1
_geom_bond_atom_site_label_2
_geom_bond_site_symmetry_1
_geom_bond_site_symmetry_2
S1 C1 1_555 1_555
N1 C17 1_555 1_555
N2 C35 1_555 1_555
O1 C7 1_555 1_555
C1 C2 1_555 1_555
C2 H1 1_555 1_555
C3 C2 1_555 1_555
H2 C3 1_555 1_555
C4 C3 1_555 1_555
C5 C4 1_555 1_555
H3 C5 1_555 1_555
C6 C1 1_555 1_555
C7 C6 1_555 1_555
C8 C7 1_555 1_555
C9 S1 1_555 1_555
C10 C9 1_555 1_555
H4 C10 1_555 1_555
C11 C10 1_555 1_555
H5 C11 1_555 1_555
C12 C11 1_555 1_555
C13 C8 1_555 1_555
H6 C13 1_555 1_555
C14 C4 1_555 1_555
C15 C14 1_555 1_555
H7 C15 1_555 1_555
C16 C15 1_555 1_555
H8 C16 1_555 1_555
C17 C16 1_555 1_555
C18 C17 1_555 1_555
H9 C18 1_555 1_555
C19 C14 1_555 1_555
H10 C19 1_555 1_555
C20 N1 1_555 1_555
C21 C20 1_555 1_555
H11 C21 1_555 1_555
C22 C21 1_555 1_555
H12 C22 1_555 1_555
C23 C22 1_555 1_555
H13 C23 1_555 1_555
C24 C23 1_555 1_555
H14 C24 1_555 1_555
C25 C20 1_555 1_555
H15 C25 1_555 1_555
C26 N1 1_555 1_555
C27 C26 1_555 1_555
H16 C27 1_555 1_555
C28 C27 1_555 1_555
H17 C28 1_555 1_555
C29 C28 1_555 1_555
H18 C29 1_555 1_555
C30 C29 1_555 1_555
H19 C30 1_555 1_555
C31 C26 1_555 1_555
H20 C31 1_555 1_555
C32 C12 1_555 1_555
C33 C32 1_555 1_555
H21 C33 1_555 1_555
C34 C33 1_555 1_555
H22 C34 1_555 1_555
C35 C34 1_555 1_555
C36 C35 1_555 1_555
H23 C36 1_555 1_555
C37 C32 1_555 1_555
H24 C37 1_555 1_555
C38 N2 1_555 1_555
C39 C38 1_555 1_555
H25 C39 1_555 1_555
C40 C39 1_555 1_555
H26 C40 1_555 1_555
C41 C40 1_555 1_555
H27 C41 1_555 1_555
C42 C41 1_555 1_555
H28 C42 1_555 1_555
C43 C38 1_555 1_555
H29 C43 1_555 1_555
C44 N2 1_555 1_555
C45 C44 1_555 1_555
H30 C45 1_555 1_555
C46 C45 1_555 1_555
H31 C46 1_555 1_555
C47 C46 1_555 1_555
H32 C47 1_555 1_555
C48 C47 1_555 1_555
H33 C48 1_555 1_555
C49 C44 1_555 1_555
H34 C49 1_555 1_555
C5 C6 1_555 1_555
C8 C9 1_555 1_555
C12 C13 1_555 1_555
C18 C19 1_555 1_555
C24 C25 1_555 1_555
C30 C31 1_555 1_555
C36 C37 1_555 1_555
C42 C43 1_555 1_555
C48 C49 1_555 1_555

#END
