
#######################################################################
#
#                 Cambridge Crystallographic Data Centre
#                                CCDC 
#
#######################################################################
#
# If this CIF has been generated from an entry in the Cambridge 
# Structural Database, then it will include bibliographic, chemical, 
# crystal, experimental, refinement or atomic coordinate data resulting 
# from the CCDC's data processing and validation procedures.
#
#######################################################################

data_RIFMUR
_chemical_formula_moiety         'C20 H23 N1 O5'
_chemical_name_systematic        
'1-t-butyl 3-methyl 2-(hydroxymethyl)-3a,9b-dihydro-1H-benzo[g]indole-1,3-dicarboxylate'
_symmetry_cell_setting           orthorhombic
_symmetry_space_group_name_H-M   'P 21 21 21'
_symmetry_Int_Tables_number      19
_space_group_name_Hall           'P 2ac 2ab'
loop_
_symmetry_equiv_pos_site_id
_symmetry_equiv_pos_as_xyz
1 x,y,z
2 1/2-x,-y,1/2+z
3 -x,1/2+y,1/2-z
4 1/2+x,1/2-y,-z
_cell_length_a                   6.86413(4)
_cell_length_b                   15.68148(8)
_cell_length_c                   16.82478(8)
_cell_angle_alpha                90
_cell_angle_beta                 90
_cell_angle_gamma                90
_cell_volume                     1811.01
_exptl_crystal_colour            colorless
_exptl_crystal_description       prism
_cell_formula_units_Z            4
loop_
_atom_site_label
_atom_site_type_symbol
_atom_site_fract_x
_atom_site_fract_y
_atom_site_fract_z
O1 O 0.75882(16) 0.61835(6) 0.64495(6)
O2 O 1.05795(15) 0.56244(6) 0.66091(6)
O3 O 0.46985(16) 0.46529(7) 0.50870(6)
H1 H 0.432(3) 0.4121(16) 0.5044(13)
O4 O 0.37928(16) 0.30808(7) 0.56635(6)
O5 O 0.53625(15) 0.21164(6) 0.64414(6)
N1 N 0.62094(17) 0.34808(7) 0.65227(6)
C1 C 0.77624(19) 0.32737(8) 0.71066(7)
H2 H 0.826(2) 0.2696(11) 0.7000(9)
C2 C 0.7003(2) 0.33234(8) 0.79589(7)
C3 C 0.5188(2) 0.30023(8) 0.81655(8)
H3 H 0.434(3) 0.2763(12) 0.7754(12)
C4 C 0.4592(2) 0.29769(9) 0.89593(8)
H4 H 0.335(3) 0.2741(12) 0.9094(11)
C5 C 0.5825(2) 0.32786(10) 0.95496(8)
H5 H 0.546(3) 0.3247(14) 1.0089(13)
C6 C 0.7627(2) 0.36154(9) 0.93513(8)
H6 H 0.847(3) 0.3855(12) 0.9751(11)
C7 C 0.8235(2) 0.36429(8) 0.85578(8)
C8 C 1.0135(2) 0.40043(9) 0.83519(8)
H7 H 1.104(3) 0.4143(12) 0.8771(11)
C9 C 1.0646(2) 0.41520(8) 0.76015(8)
H8 H 1.192(3) 0.4399(12) 0.7475(11)
C10 C 0.93133(19) 0.39546(8) 0.69137(7)
H9 H 1.016(2) 0.3758(10) 0.6473(10)
C11 C 0.80165(19) 0.46762(8) 0.66069(7)
C12 C 0.6310(2) 0.43610(8) 0.63479(7)
C13 C 0.8632(2) 0.55711(8) 0.65409(7)
C14 C 1.1419(2) 0.64663(9) 0.66326(10)
H10 H 1.036(4) 0.6870(17) 0.6762(15)
H11 H 1.192(3) 0.6605(14) 0.6115(14)
H12 H 1.244(4) 0.6419(15) 0.7012(14)
C15 C 0.4692(2) 0.48184(9) 0.59212(8)
H13 H 0.492(3) 0.5435(12) 0.5995(11)
H14 H 0.343(3) 0.4661(11) 0.6156(10)
C16 C 0.5003(2) 0.28983(9) 0.61638(8)
C17 C 0.4179(2) 0.13732(9) 0.61729(8)
C18 C 0.2060(2) 0.15037(10) 0.64082(9)
H15 H 0.137(3) 0.0959(13) 0.6316(12)
H16 H 0.197(4) 0.1666(14) 0.6976(14)
H17 H 0.146(3) 0.1954(14) 0.6083(13)
C19 C 0.5095(3) 0.06474(10) 0.66394(10)
H18 H 0.644(3) 0.0611(13) 0.6509(13)
H19 H 0.492(3) 0.0742(13) 0.7220(13)
H20 H 0.446(3) 0.0121(14) 0.6495(13)
C20 C 0.4433(2) 0.12387(11) 0.52839(9)
H21 H 0.384(3) 0.1689(13) 0.4965(11)
H22 H 0.577(4) 0.1224(15) 0.5130(14)
H23 H 0.383(3) 0.0691(15) 0.5147(12)
loop_
_geom_bond_atom_site_label_1
_geom_bond_atom_site_label_2
_geom_bond_site_symmetry_1
_geom_bond_site_symmetry_2
O1 C13 1_555 1_555
O2 C13 1_555 1_555
O3 H1 1_555 1_555
O4 C16 1_555 1_555
O5 C16 1_555 1_555
N1 C1 1_555 1_555
C1 H2 1_555 1_555
C2 C1 1_555 1_555
C3 C2 1_555 1_555
H3 C3 1_555 1_555
C4 C3 1_555 1_555
H4 C4 1_555 1_555
C5 C4 1_555 1_555
H5 C5 1_555 1_555
C6 C5 1_555 1_555
H6 C6 1_555 1_555
C7 C2 1_555 1_555
C8 C7 1_555 1_555
H7 C8 1_555 1_555
C9 C8 1_555 1_555
H8 C9 1_555 1_555
C10 C1 1_555 1_555
H9 C10 1_555 1_555
C11 C10 1_555 1_555
C12 N1 1_555 1_555
C13 C11 1_555 1_555
C14 O2 1_555 1_555
H10 C14 1_555 1_555
H11 C14 1_555 1_555
H12 C14 1_555 1_555
C15 O3 1_555 1_555
H13 C15 1_555 1_555
H14 C15 1_555 1_555
C16 N1 1_555 1_555
C17 O5 1_555 1_555
C18 C17 1_555 1_555
H15 C18 1_555 1_555
H16 C18 1_555 1_555
H17 C18 1_555 1_555
C19 C17 1_555 1_555
H18 C19 1_555 1_555
H19 C19 1_555 1_555
H20 C19 1_555 1_555
C20 C17 1_555 1_555
H21 C20 1_555 1_555
H22 C20 1_555 1_555
H23 C20 1_555 1_555
C6 C7 1_555 1_555
C9 C10 1_555 1_555
C11 C12 1_555 1_555
C12 C15 1_555 1_555

#END
