
#######################################################################
#
#                 Cambridge Crystallographic Data Centre
#                                CCDC 
#
#######################################################################
#
# If this CIF has been generated from an entry in the Cambridge 
# Structural Database, then it will include bibliographic, chemical, 
# crystal, experimental, refinement or atomic coordinate data resulting 
# from the CCDC's data processing and validation procedures.
#
#######################################################################

data_RIFQIH
_chemical_formula_moiety         'C14 H16 Br1 N1 O2'
_chemical_name_systematic        
(R)-2-(6-bromo-9-methyl-1,3,4,9-tetrahydropyrano[3,4-b]indol-4-yl)ethanol
_symmetry_cell_setting           triclinic
_symmetry_space_group_name_H-M   'P 1'
_symmetry_Int_Tables_number      1
_space_group_name_Hall           'P 1'
loop_
_symmetry_equiv_pos_site_id
_symmetry_equiv_pos_as_xyz
1 x,y,z
_cell_length_a                   6.1334(4)
_cell_length_b                   6.7707(4)
_cell_length_c                   8.9298(6)
_cell_angle_alpha                106.449(7)
_cell_angle_beta                 95.274(8)
_cell_angle_gamma                113.018(7)
_cell_volume                     318.596
_exptl_crystal_colour            colorless
_exptl_crystal_description       block
_cell_formula_units_Z            1
loop_
_atom_site_label
_atom_site_type_symbol
_atom_site_fract_x
_atom_site_fract_y
_atom_site_fract_z
Br1 Br 1.0045 -0.2564 0.6226
O1 O 0.1486(11) 0.1733(10) 0.1736(7)
O2 O -0.1416(13) -0.2975(14) 0.0930(8)
H1 H -0.1280 -0.2808 0.0064
N1 N 0.4413(16) 0.2876(14) 0.5849(8)
C1 C 0.8304(13) -0.0801(12) 0.6169(9)
C2 C 0.7331(13) -0.0816(12) 0.4700(8)
H2 H 0.7521 -0.1663 0.3744
C3 C 0.6048(14) 0.0505(13) 0.4726(9)
C4 C 0.5770(15) 0.1818(14) 0.6176(9)
C5 C 0.6828(15) 0.1787(14) 0.7644(8)
H3 H 0.6677 0.2647 0.8610
C6 C 0.8054(14) 0.0510(14) 0.7639(8)
H4 H 0.8740 0.0488 0.8604
C7 C 0.4771(13) 0.0890(13) 0.3478(8)
C8 C 0.3812(14) 0.2341(13) 0.4260(9)
C9 C 0.3825(18) 0.4412(15) 0.7057(13)
H5 H 0.4441 0.4461 0.8102
H6 H 0.2091 0.3872 0.6870
H7 H 0.4555 0.5920 0.7000
C10 C 0.4354(14) -0.0016(14) 0.1688(8)
H8 H 0.5952 0.0274 0.1443
C11 C 0.3452(17) 0.1481(16) 0.1060(10)
H9 H 0.4794 0.2981 0.1318
H10 H 0.2904 0.0801 -0.0099
C12 C 0.2250(16) 0.3070(14) 0.3390(10)
H11 H 0.0836 0.2907 0.3841
H12 H 0.3154 0.4671 0.3524
C13 C 0.2748(16) -0.2611(15) 0.0903(8)
H13 H 0.2308 -0.2978 -0.0247
H14 H 0.3709 -0.3401 0.1091
C14 C 0.0435(18) -0.3540(16) 0.1481(10)
H15 H -0.0205 -0.5194 0.1132
H16 H 0.0837 -0.2959 0.2644
loop_
_geom_bond_atom_site_label_1
_geom_bond_atom_site_label_2
_geom_bond_site_symmetry_1
_geom_bond_site_symmetry_2
Br1 C1 1_555 1_555
O1 C11 1_555 1_555
O2 H1 1_555 1_555
N1 C4 1_555 1_555
C1 C2 1_555 1_555
C2 H2 1_555 1_555
C3 C2 1_555 1_555
C4 C3 1_555 1_555
C5 C4 1_555 1_555
H3 C5 1_555 1_555
C6 C1 1_555 1_555
H4 C6 1_555 1_555
C7 C3 1_555 1_555
C8 N1 1_555 1_555
C9 N1 1_555 1_555
H5 C9 1_555 1_555
H6 C9 1_555 1_555
H7 C9 1_555 1_555
C10 C7 1_555 1_555
H8 C10 1_555 1_555
C11 C10 1_555 1_555
H9 C11 1_555 1_555
H10 C11 1_555 1_555
C12 O1 1_555 1_555
H11 C12 1_555 1_555
H12 C12 1_555 1_555
C13 C10 1_555 1_555
H13 C13 1_555 1_555
H14 C13 1_555 1_555
C14 O2 1_555 1_555
H15 C14 1_555 1_555
H16 C14 1_555 1_555
C5 C6 1_555 1_555
C7 C8 1_555 1_555
C8 C12 1_555 1_555
C13 C14 1_555 1_555

#END
