
#######################################################################
#
#                 Cambridge Crystallographic Data Centre
#                                CCDC 
#
#######################################################################
#
# If this CIF has been generated from an entry in the Cambridge 
# Structural Database, then it will include bibliographic, chemical, 
# crystal, experimental, refinement or atomic coordinate data resulting 
# from the CCDC's data processing and validation procedures.
#
#######################################################################

data_RIFRUW
_chemical_formula_moiety         'C30 H25 Cl1 N2 O5'
_chemical_name_systematic        
10-butoxy-8-(4-chlorophenyl)-13-phenyl-10,11-dihydropyrano[4',3':2,3]pyrrolo[1,2-a]quinoxaline-6,7,12(13H)-trione
_symmetry_cell_setting           monoclinic
_symmetry_space_group_name_H-M   'P 21/n'
_symmetry_Int_Tables_number      14
_space_group_name_Hall           '-P 2yn'
loop_
_symmetry_equiv_pos_site_id
_symmetry_equiv_pos_as_xyz
1 x,y,z
2 1/2-x,1/2+y,1/2-z
3 -x,-y,-z
4 1/2+x,1/2-y,1/2+z
_cell_length_a                   6.5133(15)
_cell_length_b                   27.912(6)
_cell_length_c                   14.509(3)
_cell_angle_alpha                90
_cell_angle_beta                 92.631(19)
_cell_angle_gamma                90
_cell_volume                     2634.94
_exptl_crystal_colour            yellow
_exptl_crystal_description       needle
_cell_formula_units_Z            4
loop_
_atom_site_label
_atom_site_type_symbol
_atom_site_fract_x
_atom_site_fract_y
_atom_site_fract_z
Cl1 Cl 0.1482(2) 0.64179(5) 0.93866(8)
O1 O 0.2002(4) 0.50813(11) 0.5952(2)
O2 O 0.2856(4) 0.45177(11) 0.4353(2)
O3 O -0.0212(4) 0.62648(11) 0.3671(2)
O4 O 0.3728(5) 0.68147(10) 0.3536(2)
O5 O 0.3932(5) 0.65289(10) 0.50342(19)
N1 N 0.2902(5) 0.52528(11) 0.3629(2)
N2 N 0.0690(5) 0.58239(11) 0.2439(2)
C1 C 0.2718(6) 0.49506(17) 0.4357(3)
C2 C 0.2297(6) 0.52552(16) 0.5209(3)
C3 C 0.2480(6) 0.57503(15) 0.4899(3)
C4 C 0.2763(6) 0.57586(14) 0.3885(3)
C5 C 0.4805(6) 0.60176(15) 0.3710(3)
H1 H 0.5944 0.5835 0.3984
H2 H 0.4986 0.6038 0.3052
C6 C 0.4810(7) 0.65080(16) 0.4114(3)
H3 H 0.6236 0.6620 0.4173
C7 C 0.3010(6) 0.61453(15) 0.5394(3)
C8 C 0.0911(6) 0.59794(15) 0.3342(3)
C9 C 0.1807(6) 0.54346(15) 0.2088(3)
C10 C 0.2942(6) 0.51388(14) 0.2685(3)
C11 C 0.4033(7) 0.47525(15) 0.2355(3)
H4 H 0.4794 0.4558 0.2765
C12 C 0.3993(7) 0.46565(16) 0.1429(3)
H5 H 0.4725 0.4398 0.1208
C13 C 0.2871(7) 0.49430(17) 0.0833(3)
H6 H 0.2813 0.4873 0.0205
C14 C 0.1814(7) 0.53377(15) 0.1149(3)
H7 H 0.1109 0.5538 0.0731
C15 C -0.0737(6) 0.60910(15) 0.1831(3)
C16 C -0.2495(7) 0.58769(17) 0.1487(3)
H8 H -0.2810 0.5564 0.1647
C17 C -0.3797(7) 0.6136(2) 0.0894(3)
H9 H -0.4994 0.5995 0.0647
C18 C -0.3337(9) 0.6593(2) 0.0671(3)
H10 H -0.4225 0.6765 0.0275
C19 C -0.1580(9) 0.68038(18) 0.1025(3)
H11 H -0.1272 0.7119 0.0873
C20 C -0.0276(7) 0.65488(16) 0.1606(3)
H12 H 0.0928 0.6689 0.1846
C21 C 0.2664(7) 0.62032(15) 0.6391(3)
C22 C 0.4024(7) 0.64669(17) 0.6943(3)
H13 H 0.5170 0.6605 0.6691
C23 C 0.3692(8) 0.65269(17) 0.7869(3)
H14 H 0.4628 0.6697 0.8247
C24 C 0.1954(8) 0.63319(17) 0.8227(3)
C25 C 0.0603(7) 0.60704(17) 0.7691(3)
H15 H -0.0540 0.5933 0.7947
C26 C 0.0934(7) 0.60106(17) 0.6772(3)
H16 H -0.0010 0.5840 0.6401
C27 C 0.3932(9) 0.73144(17) 0.3748(4)
H17 H 0.5352 0.7391 0.3918
H18 H 0.3093 0.7397 0.4260
C28 C 0.3240(9) 0.75867(17) 0.2908(4)
H19 H 0.3249 0.7926 0.3055
H20 H 0.1832 0.7497 0.2742
C29 C 0.4521(9) 0.75082(19) 0.2087(4)
H21 H 0.4606 0.7166 0.1975
H22 H 0.5903 0.7621 0.2240
C30 C 0.3769(11) 0.7748(2) 0.1204(5)
H23 H 0.4732 0.7692 0.0734
H24 H 0.3642 0.8086 0.1305
H25 H 0.2454 0.7618 0.1010
loop_
_geom_bond_atom_site_label_1
_geom_bond_atom_site_label_2
_geom_bond_site_symmetry_1
_geom_bond_site_symmetry_2
Cl1 C24 1_555 1_555
O1 C2 1_555 1_555
O2 C1 1_555 1_555
O3 C8 1_555 1_555
O4 C6 1_555 1_555
O5 C6 1_555 1_555
N1 C1 1_555 1_555
N2 C8 1_555 1_555
C1 C2 1_555 1_555
C2 C3 1_555 1_555
C3 C4 1_555 1_555
C4 N1 1_555 1_555
C5 C4 1_555 1_555
H1 C5 1_555 1_555
H2 C5 1_555 1_555
C6 C5 1_555 1_555
H3 C6 1_555 1_555
C7 O5 1_555 1_555
C8 C4 1_555 1_555
C9 N2 1_555 1_555
C10 N1 1_555 1_555
C11 C10 1_555 1_555
H4 C11 1_555 1_555
C12 C11 1_555 1_555
H5 C12 1_555 1_555
C13 C12 1_555 1_555
H6 C13 1_555 1_555
C14 C9 1_555 1_555
H7 C14 1_555 1_555
C15 N2 1_555 1_555
C16 C15 1_555 1_555
H8 C16 1_555 1_555
C17 C16 1_555 1_555
H9 C17 1_555 1_555
C18 C17 1_555 1_555
H10 C18 1_555 1_555
C19 C18 1_555 1_555
H11 C19 1_555 1_555
C20 C15 1_555 1_555
H12 C20 1_555 1_555
C21 C7 1_555 1_555
C22 C21 1_555 1_555
H13 C22 1_555 1_555
C23 C22 1_555 1_555
H14 C23 1_555 1_555
C24 C23 1_555 1_555
C25 C24 1_555 1_555
H15 C25 1_555 1_555
C26 C21 1_555 1_555
H16 C26 1_555 1_555
C27 O4 1_555 1_555
H17 C27 1_555 1_555
H18 C27 1_555 1_555
C28 C27 1_555 1_555
H19 C28 1_555 1_555
H20 C28 1_555 1_555
C29 C28 1_555 1_555
H21 C29 1_555 1_555
H22 C29 1_555 1_555
C30 C29 1_555 1_555
H23 C30 1_555 1_555
H24 C30 1_555 1_555
H25 C30 1_555 1_555
C3 C7 1_555 1_555
C9 C10 1_555 1_555
C13 C14 1_555 1_555
C19 C20 1_555 1_555
C25 C26 1_555 1_555

#END
