
#######################################################################
#
#                 Cambridge Crystallographic Data Centre
#                                CCDC 
#
#######################################################################
#
# If this CIF has been generated from an entry in the Cambridge 
# Structural Database, then it will include bibliographic, chemical, 
# crystal, experimental, refinement or atomic coordinate data resulting 
# from the CCDC's data processing and validation procedures.
#
#######################################################################

data_RIFZOW
_chemical_formula_moiety         'C17 H16 O5'
_chemical_name_systematic        
(3E,4Z)-3-((1,3-Benzodioxol-5-yl)methylene)-4-(2-pentylidene)tetrahydrofuran-2,5-dione
_symmetry_cell_setting           monoclinic
_symmetry_space_group_name_H-M   'P 21/c'
_symmetry_Int_Tables_number      14
_space_group_name_Hall           '-P 2ybc'
loop_
_symmetry_equiv_pos_site_id
_symmetry_equiv_pos_as_xyz
1 x,y,z
2 -x,1/2+y,1/2-z
3 -x,-y,-z
4 x,1/2-y,1/2+z
_cell_length_a                   7.8597(11)
_cell_length_b                   15.383(3)
_cell_length_c                   12.781(2)
_cell_angle_alpha                90
_cell_angle_beta                 105.117(10)
_cell_angle_gamma                90
_cell_volume                     1491.82
_exptl_crystal_colour            yellow
_exptl_crystal_description       plate
_cell_formula_units_Z            4
_exptl_crystal_recrystallization_method 'ethyl acetate'
loop_
_atom_site_label
_atom_site_type_symbol
_atom_site_fract_x
_atom_site_fract_y
_atom_site_fract_z
O1 O -0.1718(3) 0.82579(16) 1.02559(15)
O2 O -0.3854(2) 0.80813(15) 0.86514(16)
O3 O 0.5532(3) 1.07745(17) 0.87030(18)
O4 O 0.4746(2) 1.07754(12) 0.68911(16)
O5 O 0.3415(3) 1.05288(15) 0.51414(17)
C1 C 0.0484(3) 0.89375(17) 0.94481(19)
H1 H 0.1334 0.9009 1.0101
C2 C 0.2597(3) 0.87611(18) 0.6060(2)
C3 C 0.2982(3) 0.95405(16) 0.65540(19)
C4 C -0.0529(3) 0.90996(17) 0.75049(19)
H2 H -0.0318 0.9280 0.6856
C5 C 0.0795(3) 0.91969(16) 0.84621(19)
C6 C -0.1117(3) 0.85766(16) 0.94102(19)
C7 C -0.2401(3) 0.84713(16) 0.8457(2)
C8 C 0.3643(3) 1.02957(18) 0.6057(2)
C9 C -0.2156(3) 0.87400(19) 0.7491(2)
H3 H -0.3041 0.8685 0.6850
C10 C 0.0476(3) 0.87491(19) 0.4242(2)
H4 H -0.0283 0.8385 0.4547
H5 H 0.0143 0.9350 0.4309
C11 C 0.3288(3) 0.97795(17) 0.7705(2)
C12 C 0.2383(3) 0.8619(2) 0.4888(2)
H6 H 0.2752 0.8033 0.4773
H7 H 0.3133 0.9021 0.4630
C13 C 0.2473(3) 0.96253(17) 0.8495(2)
H8 H 0.3080 0.9825 0.9176
C14 C 0.4634(3) 1.04727(19) 0.7889(2)
C15 C 0.2331(4) 0.79731(18) 0.6670(2)
H9 H 0.2687 0.8093 0.7434
H10 H 0.3026 0.7504 0.6507
H11 H 0.1108 0.7813 0.6464
C16 C -0.3455(4) 0.7941(2) 0.9778(3)
H12 H -0.3519 0.7326 0.9928
H13 H -0.4298 0.8245 1.0081
C17 C 0.0189(6) 0.8531(2) 0.3058(2)
H14 H 0.0941 0.8887 0.2753
H15 H -0.1020 0.8637 0.2682
H16 H 0.0462 0.7929 0.2985
loop_
_geom_bond_atom_site_label_1
_geom_bond_atom_site_label_2
_geom_bond_site_symmetry_1
_geom_bond_site_symmetry_2
O1 C6 1_555 1_555
O2 C7 1_555 1_555
O3 C14 1_555 1_555
O4 C8 1_555 1_555
O5 C8 1_555 1_555
C1 H1 1_555 1_555
C2 C3 1_555 1_555
C3 C8 1_555 1_555
C4 H2 1_555 1_555
C5 C1 1_555 1_555
C6 C1 1_555 1_555
C7 C6 1_555 1_555
C9 C4 1_555 1_555
H3 C9 1_555 1_555
C10 H4 1_555 1_555
H5 C10 1_555 1_555
C11 C3 1_555 1_555
C12 C2 1_555 1_555
H6 C12 1_555 1_555
H7 C12 1_555 1_555
C13 C5 1_555 1_555
H8 C13 1_555 1_555
C14 O4 1_555 1_555
C15 C2 1_555 1_555
H9 C15 1_555 1_555
H10 C15 1_555 1_555
H11 C15 1_555 1_555
C16 O1 1_555 1_555
H12 C16 1_555 1_555
H13 C16 1_555 1_555
C17 C10 1_555 1_555
H14 C17 1_555 1_555
H15 C17 1_555 1_555
H16 C17 1_555 1_555
O2 C16 1_555 1_555
C4 C5 1_555 1_555
C7 C9 1_555 1_555
C10 C12 1_555 1_555
C11 C13 1_555 1_555
C11 C14 1_555 1_555

#END
