
#######################################################################
#
#                 Cambridge Crystallographic Data Centre
#                                CCDC 
#
#######################################################################
#
# If this CIF has been generated from an entry in the Cambridge 
# Structural Database, then it will include bibliographic, chemical, 
# crystal, experimental, refinement or atomic coordinate data resulting 
# from the CCDC's data processing and validation procedures.
#
#######################################################################

data_RIGLOL
_chemical_formula_moiety         'C37 H48 N6 P6 S3,C4 H8 O1'
_chemical_name_systematic        
'13-(1,2,3,4,7,8,9,10-octahydro-6H-[1,2,3]benzodiazaphospholo[2,1-a][1,2,3]benzodiazaphosphol-11-ium-6-yl)-15-[2-(4,5,6,7-tetrahydro-2H-1,2,3-benzodiazaphosphol-2-yl)cyclohex-1-en-1-yl]-2,3,4,7,8,9,10,12-octahydro-1H-6,12-(epithiophosphanothiometheno)-[1,2,3]benzodiazaphospholo[2,1-a][1,2,3]benzodiazaphosphole-12-thiolate tetrahydrofuran solvate'
_symmetry_cell_setting           triclinic
_symmetry_space_group_name_H-M   'P -1'
_symmetry_Int_Tables_number      2
_space_group_name_Hall           '-P 1'
loop_
_symmetry_equiv_pos_site_id
_symmetry_equiv_pos_as_xyz
1 x,y,z
2 -x,-y,-z
_cell_length_a                   10.8433(2)
_cell_length_b                   12.5497(2)
_cell_length_c                   17.1622(2)
_cell_angle_alpha                105.1000(10)
_cell_angle_beta                 99.3550(10)
_cell_angle_gamma                95.4110(10)
_cell_volume                     2201.8
_exptl_crystal_colour            orange
_exptl_crystal_description       prism
_cell_formula_units_Z            2
loop_
_atom_site_label
_atom_site_type_symbol
_atom_site_fract_x
_atom_site_fract_y
_atom_site_fract_z
P1 P 0.84840(5) 0.50633(5) 0.95071(4)
P2 P 0.44749(5) 0.49108(4) 0.89414(3)
N1 N 0.70205(15) 0.53690(14) 0.92340(10)
N2 N 0.60861(15) 0.44901(14) 0.90231(10)
C1 C 0.78542(19) 0.36807(18) 0.92946(13)
C2 C 0.65385(19) 0.35398(17) 0.90579(12)
C3 C 0.5674(2) 0.24669(18) 0.88643(14)
H1 H 0.5079 0.2359 0.8338
H2 H 0.5174 0.2498 0.9302
C4 C 0.6426(2) 0.14778(19) 0.87977(17)
H3 H 0.5900 0.0845 0.8883
H4 H 0.6603 0.1241 0.8235
C5 C 0.7668(2) 0.1740(2) 0.94128(18)
H5 H 0.7491 0.1930 0.9977
H6 H 0.8095 0.1068 0.9335
C6 C 0.8539(2) 0.26910(19) 0.93258(15)
H7 H 0.8877 0.2444 0.8816
H8 H 0.9260 0.2916 0.9797
C7 C 0.52918(19) 0.62823(16) 0.90385(12)
C8 C 0.65493(18) 0.63816(16) 0.92140(12)
C9 C 0.74609(19) 0.74165(17) 0.93484(13)
H9 H 0.8153 0.7236 0.9046
H10 H 0.7835 0.7722 0.9941
C10 C 0.6772(2) 0.82792(19) 0.90443(14)
H11 H 0.6622 0.8070 0.8436
H12 H 0.7309 0.9016 0.9255
C11 C 0.5510(2) 0.83649(17) 0.93273(14)
H13 H 0.5111 0.8963 0.9150
H14 H 0.5657 0.8564 0.9936
C12 C 0.4620(2) 0.72568(17) 0.89657(13)
H15 H 0.3905 0.7267 0.9259
H16 H 0.4273 0.7170 0.8379
P3 P 0.24071(5) 0.33938(4) 0.76565(3)
P4 P 0.04442(5) 0.41727(4) 0.56853(3)
N3 N 0.11699(15) 0.38502(14) 0.71278(10)
N4 N 0.08508(16) 0.32897(14) 0.62714(10)
C13 C 0.24201(19) 0.23258(16) 0.67353(12)
C14 C 0.15855(19) 0.24293(16) 0.60975(12)
C15 C 0.1340(2) 0.16770(16) 0.52359(12)
H17 H 0.1707 0.2065 0.4875
H18 H 0.0419 0.1481 0.5023
C16 C 0.1934(2) 0.06170(18) 0.52303(14)
H19 H 0.1414 0.0130 0.5460
H20 H 0.1953 0.0204 0.4657
C17 C 0.3273(2) 0.0904(2) 0.57373(14)
H21 H 0.3780 0.1415 0.5518
H22 H 0.3666 0.0214 0.5684
C18 C 0.3293(2) 0.14578(17) 0.66506(13)
H23 H 0.3026 0.0886 0.6916
H24 H 0.4163 0.1810 0.6931
C19 C 0.01060(18) 0.50891(17) 0.65958(12)
C20 C 0.06669(17) 0.48345(16) 0.72781(12)
C21 C 0.07533(19) 0.55155(17) 0.81458(12)
H25 H 0.1632 0.5617 0.8453
H26 H 0.0199 0.5123 0.8419
C22 C 0.0351(2) 0.66503(18) 0.81550(13)
H27 H 0.0203 0.7023 0.8709
H28 H 0.1035 0.7125 0.8033
C23 C -0.0852(2) 0.65146(18) 0.75175(13)
H29 H -0.1157 0.7245 0.7576
H30 H -0.1516 0.5995 0.7616
C24 C -0.06163(19) 0.60629(17) 0.66418(13)
H31 H -0.1433 0.5824 0.6249
H32 H -0.0129 0.6658 0.6488
P5 P 0.31841(5) 0.58726(4) 0.67864(3)
P6 P 0.18591(5) 0.81882(5) 0.63096(3)
N5 N 0.33158(16) 0.89303(14) 0.77647(11)
N6 N 0.32341(15) 0.83165(14) 0.69739(11)
C25 C 0.44041(18) 0.67963(16) 0.65454(12)
C26 C 0.43439(18) 0.78893(17) 0.67356(12)
C27 C 0.53408(19) 0.87671(18) 0.66780(15)
H33 H 0.5534 0.9376 0.7199
H34 H 0.5011 0.9087 0.6229
C28 C 0.65521(19) 0.82995(19) 0.65134(15)
H35 H 0.7083 0.8824 0.6320
H36 H 0.7036 0.8213 0.7029
C29 C 0.6237(2) 0.71782(19) 0.58681(15)
H37 H 0.7026 0.6905 0.5737
H38 H 0.5731 0.7261 0.5358
C30 C 0.5492(2) 0.63318(18) 0.61801(14)
H39 H 0.5156 0.5654 0.5718
H40 H 0.6067 0.6113 0.6603
C31 C 0.12719(18) 0.89860(16) 0.71027(13)
C32 C 0.21968(19) 0.92821(16) 0.78259(13)
C33 C 0.1977(2) 0.99548(19) 0.86377(14)
H41 H 0.2373 1.0737 0.8751
H42 H 0.2375 0.9654 0.9081
C34 C 0.0551(2) 0.9919(2) 0.86327(16)
H43 H 0.0191 0.9169 0.8643
H44 H 0.0419 1.0469 0.9132
C35 C -0.0124(2) 1.0179(2) 0.78741(16)
H45 H 0.0249 1.0924 0.7862
H46 H -0.1024 1.0206 0.7906
C36 C -0.00335(19) 0.93138(18) 0.70783(15)
H47 H -0.0653 0.8642 0.6993
H48 H -0.0251 0.9624 0.6607
S1 S 0.19431(5) 0.29596(4) 0.85974(3)
S2 S 0.43579(4) 0.47053(4) 0.70984(3)
S3 S 0.22415(5) 0.50460(4) 0.55573(3)
C37 C 0.37520(17) 0.43844(16) 0.79202(12)
O1 O 0.6898(3) 0.24203(19) 0.71994(14)
C38 C 0.7311(3) 0.3456(2) 0.70854(17)
H49 H 0.8235 0.3661 0.7280
H50 H 0.6885 0.4049 0.7389
C39 C 0.6963(3) 0.3298(2) 0.61747(17)
H51 H 0.7537 0.3809 0.5997
H52 H 0.6083 0.3428 0.6016
C40 C 0.7113(4) 0.2102(3) 0.58100(19)
H53 H 0.7894 0.2054 0.5582
H54 H 0.6382 0.1719 0.5366
C41 C 0.7182(5) 0.1585(3) 0.6517(2)
H55 H 0.6560 0.0900 0.6368
H56 H 0.8037 0.1391 0.6664
loop_
_geom_bond_atom_site_label_1
_geom_bond_atom_site_label_2
_geom_bond_site_symmetry_1
_geom_bond_site_symmetry_2
P1 N1 1_555 1_555
P2 N2 1_555 1_555
N1 N2 1_555 1_555
N2 C2 1_555 1_555
C1 P1 1_555 1_555
C2 C1 1_555 1_555
C3 C2 1_555 1_555
H1 C3 1_555 1_555
H2 C3 1_555 1_555
C4 C3 1_555 1_555
H3 C4 1_555 1_555
H4 C4 1_555 1_555
C5 C4 1_555 1_555
H5 C5 1_555 1_555
H6 C5 1_555 1_555
C6 C1 1_555 1_555
H7 C6 1_555 1_555
H8 C6 1_555 1_555
C7 P2 1_555 1_555
C8 N1 1_555 1_555
C9 C8 1_555 1_555
H9 C9 1_555 1_555
H10 C9 1_555 1_555
C10 C9 1_555 1_555
H11 C10 1_555 1_555
H12 C10 1_555 1_555
C11 C10 1_555 1_555
H13 C11 1_555 1_555
H14 C11 1_555 1_555
C12 C7 1_555 1_555
H15 C12 1_555 1_555
H16 C12 1_555 1_555
P3 N3 1_555 1_555
P4 N4 1_555 1_555
N3 N4 1_555 1_555
N4 C14 1_555 1_555
C13 P3 1_555 1_555
C14 C13 1_555 1_555
C15 C14 1_555 1_555
H17 C15 1_555 1_555
H18 C15 1_555 1_555
C16 C15 1_555 1_555
H19 C16 1_555 1_555
H20 C16 1_555 1_555
C17 C16 1_555 1_555
H21 C17 1_555 1_555
H22 C17 1_555 1_555
C18 C13 1_555 1_555
H23 C18 1_555 1_555
H24 C18 1_555 1_555
C19 P4 1_555 1_555
C20 N3 1_555 1_555
C21 C20 1_555 1_555
H25 C21 1_555 1_555
H26 C21 1_555 1_555
C22 C21 1_555 1_555
H27 C22 1_555 1_555
H28 C22 1_555 1_555
C23 C22 1_555 1_555
H29 C23 1_555 1_555
H30 C23 1_555 1_555
C24 C19 1_555 1_555
H31 C24 1_555 1_555
H32 C24 1_555 1_555
P5 C25 1_555 1_555
P6 N6 1_555 1_555
N5 N6 1_555 1_555
N6 C26 1_555 1_555
C25 C26 1_555 1_555
C26 C27 1_555 1_555
C27 H33 1_555 1_555
H34 C27 1_555 1_555
C28 C27 1_555 1_555
H35 C28 1_555 1_555
H36 C28 1_555 1_555
C29 C28 1_555 1_555
H37 C29 1_555 1_555
H38 C29 1_555 1_555
C30 C25 1_555 1_555
H39 C30 1_555 1_555
H40 C30 1_555 1_555
C31 P6 1_555 1_555
C32 N5 1_555 1_555
C33 C32 1_555 1_555
H41 C33 1_555 1_555
H42 C33 1_555 1_555
C34 C33 1_555 1_555
H43 C34 1_555 1_555
H44 C34 1_555 1_555
C35 C34 1_555 1_555
H45 C35 1_555 1_555
H46 C35 1_555 1_555
C36 C31 1_555 1_555
H47 C36 1_555 1_555
H48 C36 1_555 1_555
S1 P3 1_555 1_555
S2 P5 1_555 1_555
S3 P4 1_555 1_555
C37 P2 1_555 1_555
O1 C38 1_555 1_555
C38 H49 1_555 1_555
H50 C38 1_555 1_555
C39 C38 1_555 1_555
H51 C39 1_555 1_555
H52 C39 1_555 1_555
C40 C39 1_555 1_555
H53 C40 1_555 1_555
H54 C40 1_555 1_555
C41 O1 1_555 1_555
H55 C41 1_555 1_555
H56 C41 1_555 1_555
C5 C6 1_555 1_555
C7 C8 1_555 1_555
C11 C12 1_555 1_555
P3 C37 1_555 1_555
C17 C18 1_555 1_555
C19 C20 1_555 1_555
C23 C24 1_555 1_555
P5 S3 1_555 1_555
C29 C30 1_555 1_555
C31 C32 1_555 1_555
C35 C36 1_555 1_555
S2 C37 1_555 1_555
C40 C41 1_555 1_555

#END
