
#######################################################################
#
#                 Cambridge Crystallographic Data Centre
#                                CCDC 
#
#######################################################################
#
# If this CIF has been generated from an entry in the Cambridge 
# Structural Database, then it will include bibliographic, chemical, 
# crystal, experimental, refinement or atomic coordinate data resulting 
# from the CCDC's data processing and validation procedures.
#
#######################################################################

data_RIGLEB
_chemical_formula_moiety         'C12 H16 N2 P2 S2'
_chemical_name_systematic        
1,2,3,4,7,8,9,10-octahydro-6H-5-benzo[d]benzo[4,5][1,2,3]diazaphospholo[2,1-a][1,2,3]diazaphosphole-6,6-disulfide
_symmetry_cell_setting           orthorhombic
_symmetry_space_group_name_H-M   'P b c a'
_symmetry_Int_Tables_number      61
_space_group_name_Hall           '-P 2ac 2ab'
loop_
_symmetry_equiv_pos_site_id
_symmetry_equiv_pos_as_xyz
1 x,y,z
2 1/2-x,-y,1/2+z
3 -x,1/2+y,1/2-z
4 1/2+x,1/2-y,-z
5 -x,-y,-z
6 1/2+x,y,1/2-z
7 x,1/2-y,1/2+z
8 1/2-x,1/2+y,z
_cell_length_a                   13.7209(5)
_cell_length_b                   14.0789(5)
_cell_length_c                   14.5551(6)
_cell_angle_alpha                90
_cell_angle_beta                 90
_cell_angle_gamma                90
_cell_volume                     2811.68
_exptl_crystal_colour            orange
_exptl_crystal_description       prism
_cell_formula_units_Z            8
loop_
_atom_site_label
_atom_site_type_symbol
_atom_site_fract_x
_atom_site_fract_y
_atom_site_fract_z
N1 N 0.11033(14) 0.41335(13) 0.41297(13)
N2 N 0.08106(14) 0.48808(13) 0.36025(13)
P1 P 0.07103(4) 0.29902(4) 0.36706(4)
P2 P 0.11989(5) 0.59516(4) 0.39631(4)
S1 S 0.18548(4) 0.23323(4) 0.31925(4)
S2 S -0.01409(4) 0.23963(4) 0.45766(4)
C1 C 0.00801(16) 0.36518(17) 0.27907(15)
C2 C 0.02273(16) 0.45803(17) 0.28409(15)
C3 C -0.01339(17) 0.53132(17) 0.21822(15)
H1 H 0.0391 0.5775 0.2047
H2 H -0.0690 0.5662 0.2455
C4 C -0.04575(19) 0.48210(18) 0.12928(16)
H3 H -0.0840 0.5273 0.0916
H4 H 0.0125 0.4633 0.0935
C5 C -0.10755(18) 0.39408(17) 0.14902(16)
H5 H -0.1287 0.3654 0.0902
H6 H -0.1666 0.4130 0.1835
C6 C -0.05079(18) 0.32026(17) 0.20473(16)
H7 H -0.0971 0.2745 0.2323
H8 H -0.0069 0.2846 0.1632
C7 C 0.17950(17) 0.54005(16) 0.48657(16)
C8 C 0.16489(17) 0.44193(17) 0.48400(15)
C9 C 0.20423(18) 0.37261(17) 0.55322(16)
H9 H 0.2316 0.3167 0.5211
H10 H 0.1508 0.3505 0.5937
C10 C 0.28347(18) 0.42001(17) 0.61096(16)
H11 H 0.2969 0.3805 0.6658
H12 H 0.3443 0.4241 0.5745
C11 C 0.25333(18) 0.51947(17) 0.64151(16)
H13 H 0.1916 0.5154 0.6765
H14 H 0.3038 0.5456 0.6830
C12 C 0.23964(19) 0.58650(17) 0.56023(16)
H15 H 0.2069 0.6453 0.5812
H16 H 0.3041 0.6042 0.5349
loop_
_geom_bond_atom_site_label_1
_geom_bond_atom_site_label_2
_geom_bond_site_symmetry_1
_geom_bond_site_symmetry_2
N1 N2 1_555 1_555
N2 P2 1_555 1_555
P1 N1 1_555 1_555
P2 C7 1_555 1_555
S1 P1 1_555 1_555
S2 P1 1_555 1_555
C1 P1 1_555 1_555
C2 N2 1_555 1_555
C3 C2 1_555 1_555
H1 C3 1_555 1_555
H2 C3 1_555 1_555
C4 C3 1_555 1_555
H3 C4 1_555 1_555
H4 C4 1_555 1_555
C5 C4 1_555 1_555
H5 C5 1_555 1_555
H6 C5 1_555 1_555
C6 C1 1_555 1_555
H7 C6 1_555 1_555
H8 C6 1_555 1_555
C7 C8 1_555 1_555
C8 N1 1_555 1_555
C9 C8 1_555 1_555
H9 C9 1_555 1_555
H10 C9 1_555 1_555
C10 C9 1_555 1_555
H11 C10 1_555 1_555
H12 C10 1_555 1_555
C11 C10 1_555 1_555
H13 C11 1_555 1_555
H14 C11 1_555 1_555
C12 C7 1_555 1_555
H15 C12 1_555 1_555
H16 C12 1_555 1_555
C1 C2 1_555 1_555
C5 C6 1_555 1_555
C11 C12 1_555 1_555

#END
