
#######################################################################
#
#                 Cambridge Crystallographic Data Centre
#                                CCDC 
#
#######################################################################
#
# If this CIF has been generated from an entry in the Cambridge 
# Structural Database, then it will include bibliographic, chemical, 
# crystal, experimental, refinement or atomic coordinate data resulting 
# from the CCDC's data processing and validation procedures.
#
#######################################################################

data_RIGSIJ
_chemical_name_common            
'Cinchonidinyl 3-p-cyanophenylisoxazoline 5-carboxylate acetone solvate'
_chemical_formula_moiety         'C12 H9 N2 O3 1-,C19 H23 N2 O1 1+,C3 H6 O1'
_chemical_name_systematic        
'Cinchononan-9-ol 3-p-cyanophenylisoxazoline 5-carboxylate acetone solvate'
_symmetry_cell_setting           orthorhombic
_symmetry_space_group_name_H-M   'P 21 21 21'
_symmetry_Int_Tables_number      19
_space_group_name_Hall           'P 2ac 2ab'
loop_
_symmetry_equiv_pos_site_id
_symmetry_equiv_pos_as_xyz
1 x,y,z
2 1/2-x,-y,1/2+z
3 1/2+x,1/2-y,-z
4 -x,1/2+y,1/2-z
_cell_length_a                   16.349(1)
_cell_length_b                   30.235(3)
_cell_length_c                   6.333(1)
_cell_angle_alpha                90
_cell_angle_beta                 90
_cell_angle_gamma                90
_cell_volume                     3130.48
_exptl_crystal_colour            colorless
_cell_formula_units_Z            4
loop_
_atom_site_label
_atom_site_type_symbol
_atom_site_fract_x
_atom_site_fract_y
_atom_site_fract_z
O1 O 0.7841(2) 0.6016(1) 0.2163(6)
O4 O 0.6359(2) 0.4914(1) 0.0891(6)
O5 O 0.6044(2) 0.5200(1) -0.2240(6)
N2 N 0.7642(2) 0.6314(1) 0.3802(7)
N4 N 0.5246(4) 0.7406(2) 1.2621(10)
C1 C 0.7213(3) 0.5667(1) 0.2084(8)
C3 C 0.6503(3) 0.5865(2) 0.3292(8)
C6 C 0.6914(3) 0.6238(1) 0.4427(8)
C16 C 0.7058(3) 0.5559(1) -0.0210(8)
C18 C 0.6437(3) 0.5197(2) -0.0551(9)
C28 C 0.6565(3) 0.6509(1) 0.6138(8)
C29 C 0.5746(3) 0.6465(2) 0.6644(9)
C30 C 0.5421(3) 0.6700(2) 0.8318(11)
C31 C 0.5888(4) 0.6984(2) 0.9477(9)
C32 C 0.6698(4) 0.7035(2) 0.8988(10)
C33 C 0.7029(3) 0.6799(2) 0.7327(9)
C34 C 0.5530(4) 0.7217(2) 1.1225(11)
H1 H 0.7385 0.5402 0.2768
H4 H 0.6120 0.5989 0.2322
H6 H 0.6269 0.5658 0.4256
H18 H 0.6849 0.5822 -0.0837
H19 H 0.7551 0.5503 -0.0954
H35 H 0.5416 0.6272 0.5808
H36 H 0.4857 0.6670 0.8620
H37 H 0.7042 0.7213 0.9848
H38 H 0.7591 0.6842 0.6987
O2 O 0.2831(4) 0.7116(2) 0.8519(11)
C2 C 0.3251(4) 0.7242(2) 0.7131(15)
C5 C 0.3335(5) 0.6971(3) 0.5145(14)
C8 C 0.3731(4) 0.7650(2) 0.7186(19)
H7 H 0.2902 0.6770 0.5093
H8 H 0.3846 0.6816 0.5219
H9 H 0.3334 0.7163 0.3983
H11 H 0.3403 0.7879 0.6687
H12 H 0.4201 0.7611 0.6355
H13 H 0.3879 0.7699 0.8623
O3 O 0.5011(2) 0.4611(1) 0.6217(4)
N1 N 0.2610(2) 0.5610(1) 0.4745(7)
N3 N 0.5418(2) 0.4227(1) 0.1760(6)
C4 C 0.2806(3) 0.5304(2) 0.6128(8)
C7 C 0.3506(3) 0.5029(1) 0.6036(8)
C9 C 0.4039(2) 0.5079(1) 0.4390(7)
C10 C 0.3857(2) 0.5405(1) 0.2839(7)
C11 C 0.4345(3) 0.5480(1) 0.1022(8)
C12 C 0.4136(3) 0.5793(2) -0.0437(8)
C13 C 0.3419(3) 0.6047(2) -0.0176(9)
C14 C 0.2937(3) 0.5985(2) 0.1544(9)
C15 C 0.3131(2) 0.5664(1) 0.3067(8)
C17 C 0.4792(2) 0.4791(1) 0.4238(7)
C19 C 0.4632(2) 0.4412(1) 0.2639(7)
C20 C 0.5227(3) 0.3926(1) -0.0083(7)
C21 C 0.4711(3) 0.3528(1) 0.0649(7)
C22 C 0.4549(3) 0.3585(1) 0.3024(7)
C23 C 0.4117(2) 0.4022(1) 0.3482(7)
C24 C 0.5890(3) 0.3967(2) 0.3352(8)
C25 C 0.5367(3) 0.3583(1) 0.4159(7)
C26 C 0.3954(3) 0.3480(2) -0.0677(8)
C27 C 0.3802(3) 0.3133(2) -0.1845(9)
H2 H 0.5685 0.4551 0.1092
H3 H 0.5476 0.4854 0.6643
H5 H 0.2431 0.5251 0.7254
H10 H 0.3598 0.4823 0.7130
H14 H 0.4855 0.5326 0.0872
H15 H 0.4464 0.5830 -0.1672
H16 H 0.3272 0.6265 -0.1211
H17 H 0.2473 0.6166 0.1767
H20 H 0.5237 0.4955 0.3650
H21 H 0.4333 0.4532 0.1481
H22 H 0.5711 0.3843 -0.0808
H23 H 0.4912 0.4091 -0.1069
H24 H 0.5036 0.3270 0.0441
H25 H 0.4218 0.3350 0.3568
H26 H 0.3600 0.4031 0.2800
H27 H 0.4024 0.4071 0.4938
H28 H 0.6378 0.3855 0.2741
H29 H 0.6041 0.4149 0.4524
H30 H 0.5312 0.3604 0.5647
H31 H 0.5649 0.3314 0.3856
H32 H 0.3566 0.3707 -0.0491
H33 H 0.3320 0.3110 -0.2695
H34 H 0.4206 0.2908 -0.2018
loop_
_geom_bond_atom_site_label_1
_geom_bond_atom_site_label_2
_geom_bond_site_symmetry_1
_geom_bond_site_symmetry_2
O1 N2 1_555 1_555
O2 C2 1_555 1_555
O3 C17 1_555 1_555
O4 C18 1_555 1_555
O5 C18 1_555 1_555
N1 C4 1_555 1_555
N2 C6 1_555 1_555
N3 C19 1_555 1_555
N4 C34 1_555 1_555
C1 O1 1_555 1_555
C2 C5 1_555 1_555
C3 C1 1_555 1_555
C4 C7 1_555 1_555
C5 H7 1_555 1_555
C6 C3 1_555 1_555
C7 C9 1_555 1_555
C8 C2 1_555 1_555
C9 C10 1_555 1_555
C10 C11 1_555 1_555
C11 C12 1_555 1_555
C12 C13 1_555 1_555
C13 C14 1_555 1_555
C14 C15 1_555 1_555
C15 N1 1_555 1_555
C16 C1 1_555 1_555
C17 C9 1_555 1_555
C18 C16 1_555 1_555
C19 C17 1_555 1_555
C20 N3 1_555 1_555
C21 C20 1_555 1_555
C22 C21 1_555 1_555
C23 C19 1_555 1_555
C24 N3 1_555 1_555
C25 C22 1_555 1_555
C26 C21 1_555 1_555
C27 C26 1_555 1_555
C28 C6 1_555 1_555
C29 C28 1_555 1_555
C30 C29 1_555 1_555
C31 C30 1_555 1_555
C32 C31 1_555 1_555
C33 C28 1_555 1_555
C34 C31 1_555 1_555
H1 C1 1_555 1_555
H2 N3 1_555 1_555
H3 O3 1_555 1_555
H4 C3 1_555 1_555
H5 C4 1_555 1_555
H6 C3 1_555 1_555
H8 C5 1_555 1_555
H9 C5 1_555 1_555
H10 C7 1_555 1_555
H11 C8 1_555 1_555
H12 C8 1_555 1_555
H13 C8 1_555 1_555
H14 C11 1_555 1_555
H15 C12 1_555 1_555
H16 C13 1_555 1_555
H17 C14 1_555 1_555
H18 C16 1_555 1_555
H19 C16 1_555 1_555
H20 C17 1_555 1_555
H21 C19 1_555 1_555
H22 C20 1_555 1_555
H23 C20 1_555 1_555
H24 C21 1_555 1_555
H25 C22 1_555 1_555
H26 C23 1_555 1_555
H27 C23 1_555 1_555
H28 C24 1_555 1_555
H29 C24 1_555 1_555
H30 C25 1_555 1_555
H31 C25 1_555 1_555
H32 C26 1_555 1_555
H33 C27 1_555 1_555
H34 C27 1_555 1_555
H35 C29 1_555 1_555
H36 C30 1_555 1_555
H37 C32 1_555 1_555
H38 C33 1_555 1_555
C10 C15 1_555 1_555
C22 C23 1_555 1_555
C24 C25 1_555 1_555
C32 C33 1_555 1_555

#END
