
#######################################################################
#
#                 Cambridge Crystallographic Data Centre
#                                CCDC 
#
#######################################################################
#
# If this CIF has been generated from an entry in the Cambridge 
# Structural Database, then it will include bibliographic, chemical, 
# crystal, experimental, refinement or atomic coordinate data resulting 
# from the CCDC's data processing and validation procedures.
#
#######################################################################

data_RIGXEM
_chemical_formula_moiety         'C27 H21 Cl2 N3 O4'
_chemical_name_systematic        
4'-(3,4-Dichlorophenyl)-1',1'',3''-trimethyl-2H,2''H-dispiro[acenaphthylene-1,2'-pyrrolidine-3',5''-pyrimidine]-2,2'',4'',6''(1''H,3''H)-tetrone
_symmetry_cell_setting           triclinic
_symmetry_space_group_name_H-M   'P -1'
_symmetry_Int_Tables_number      2
_space_group_name_Hall           '-P 1'
loop_
_symmetry_equiv_pos_site_id
_symmetry_equiv_pos_as_xyz
1 x,y,z
2 -x,-y,-z
_cell_length_a                   8.0847(7)
_cell_length_b                   10.0554(10)
_cell_length_c                   15.5500(13)
_cell_angle_alpha                76.8210(10)
_cell_angle_beta                 86.626(2)
_cell_angle_gamma                76.2960(10)
_cell_volume                     1195.79
_cell_formula_units_Z            2
loop_
_atom_site_label
_atom_site_type_symbol
_atom_site_fract_x
_atom_site_fract_y
_atom_site_fract_z
Cl1 Cl 0.75656(10) 0.02474(8) 0.48861(5)
Cl2 Cl 0.54743(13) 0.12983(10) 0.30981(5)
N1 N 0.0928(3) 0.5511(2) 0.67738(13)
N2 N 0.0797(3) 0.1364(2) 0.71780(13)
N3 N 0.3131(3) 0.1003(2) 0.81166(13)
O1 O 0.0284(2) 0.31852(19) 0.60026(11)
O2 O 0.5222(2) 0.2135(2) 0.76388(13)
O3 O 0.1202(3) -0.0351(2) 0.84250(14)
O4 O 0.4048(3) 0.5230(2) 0.78207(13)
C1 C 0.2112(4) 0.5512(3) 0.60166(17)
H1 H 0.2744 0.6234 0.5973
H2 H 0.1494 0.5688 0.5471
C2 C 0.3322(3) 0.4058(3) 0.61856(15)
H3 H 0.4374 0.4165 0.6416
C3 C 0.2490(3) 0.3169(2) 0.69677(14)
C4 C 0.1596(3) 0.4348(2) 0.74925(15)
C5 C 0.0350(4) 0.6876(3) 0.70056(19)
H4 H -0.0469 0.6812 0.7477
H5 H -0.0166 0.7560 0.6500
H6 H 0.1305 0.7152 0.7192
C6 C 0.3842(3) 0.3383(3) 0.53956(15)
C7 C 0.5252(3) 0.2270(3) 0.54679(16)
H7 H 0.5858 0.1953 0.5994
C8 C 0.5777(3) 0.1617(3) 0.47694(17)
C9 C 0.4890(4) 0.2098(3) 0.39766(17)
C10 C 0.3521(4) 0.3229(3) 0.38945(18)
H8 H 0.2947 0.3572 0.3360
C11 C 0.2987(3) 0.3863(3) 0.45889(17)
H9 H 0.2048 0.4619 0.4521
C12 C 0.1114(3) 0.2587(2) 0.66599(15)
C13 C 0.3774(3) 0.2056(3) 0.75784(15)
C14 C 0.1655(3) 0.0621(3) 0.79465(17)
C15 C -0.0646(4) 0.0856(3) 0.6941(2)
H10 H -0.1633 0.1180 0.7278
H11 H -0.0364 -0.0151 0.7070
H12 H -0.0882 0.1210 0.6323
C16 C 0.4146(5) 0.0139(4) 0.8889(2)
H13 H 0.5182 0.0443 0.8902
H14 H 0.4412 -0.0828 0.8848
H15 H 0.3505 0.0237 0.9419
C17 C 0.2959(3) 0.4599(3) 0.80929(17)
C18 C 0.2542(3) 0.4011(3) 0.90203(16)
C19 C 0.3345(4) 0.3828(3) 0.98106(18)
H16 H 0.4376 0.4079 0.9828
C20 C 0.2555(4) 0.3247(3) 1.05921(18)
H17 H 0.3097 0.3103 1.1128
C21 C 0.1040(4) 0.2890(3) 1.05953(17)
H18 H 0.0571 0.2507 1.1128
C22 C 0.0165(3) 0.3094(3) 0.97997(16)
C23 C 0.0984(3) 0.3639(2) 0.90205(15)
C24 C 0.0283(3) 0.3903(2) 0.81727(15)
C25 C -0.1299(3) 0.3682(3) 0.80969(17)
H19 H -0.1809 0.3887 0.7547
C26 C -0.2148(3) 0.3137(3) 0.88703(18)
H20 H -0.3224 0.2984 0.8817
C27 C -0.1454(4) 0.2824(3) 0.96917(18)
H21 H -0.2039 0.2435 1.0181
loop_
_geom_bond_atom_site_label_1
_geom_bond_atom_site_label_2
_geom_bond_site_symmetry_1
_geom_bond_site_symmetry_2
Cl1 C8 1_555 1_555
Cl2 C9 1_555 1_555
N1 C1 1_555 1_555
N2 C12 1_555 1_555
N3 C13 1_555 1_555
O1 C12 1_555 1_555
O2 C13 1_555 1_555
O3 C14 1_555 1_555
O4 C17 1_555 1_555
C1 H1 1_555 1_555
H2 C1 1_555 1_555
C2 C1 1_555 1_555
H3 C2 1_555 1_555
C3 C2 1_555 1_555
C4 N1 1_555 1_555
C5 N1 1_555 1_555
H4 C5 1_555 1_555
H5 C5 1_555 1_555
H6 C5 1_555 1_555
C6 C2 1_555 1_555
C7 C6 1_555 1_555
H7 C7 1_555 1_555
C8 C7 1_555 1_555
C9 C8 1_555 1_555
C10 C9 1_555 1_555
H8 C10 1_555 1_555
C11 C6 1_555 1_555
H9 C11 1_555 1_555
C12 C3 1_555 1_555
C13 C3 1_555 1_555
C14 N2 1_555 1_555
C15 N2 1_555 1_555
H10 C15 1_555 1_555
H11 C15 1_555 1_555
H12 C15 1_555 1_555
C16 N3 1_555 1_555
H13 C16 1_555 1_555
H14 C16 1_555 1_555
H15 C16 1_555 1_555
C17 C4 1_555 1_555
C18 C17 1_555 1_555
C19 C18 1_555 1_555
H16 C19 1_555 1_555
C20 C19 1_555 1_555
H17 C20 1_555 1_555
C21 C20 1_555 1_555
H18 C21 1_555 1_555
C22 C21 1_555 1_555
C23 C18 1_555 1_555
C24 C4 1_555 1_555
C25 C24 1_555 1_555
H19 C25 1_555 1_555
C26 C25 1_555 1_555
H20 C26 1_555 1_555
C27 C22 1_555 1_555
H21 C27 1_555 1_555
N3 C14 1_555 1_555
C3 C4 1_555 1_555
C10 C11 1_555 1_555
C22 C23 1_555 1_555
C23 C24 1_555 1_555
C26 C27 1_555 1_555

#END
