
#######################################################################
#
#                 Cambridge Crystallographic Data Centre
#                                CCDC 
#
#######################################################################
#
# If this CIF has been generated from an entry in the Cambridge 
# Structural Database, then it will include bibliographic, chemical, 
# crystal, experimental, refinement or atomic coordinate data resulting 
# from the CCDC's data processing and validation procedures.
#
#######################################################################

data_RIHLOL
_chemical_formula_moiety         'C25 H29 F4 I1 O4'
_chemical_name_systematic        
'4-((12-(2,3,5,6-Tetrafluoro-4-iodophenoxy)dodecyl)oxy)benzoic acid'
_symmetry_cell_setting           monoclinic
_symmetry_space_group_name_H-M   'P 21/c'
_symmetry_Int_Tables_number      14
_space_group_name_Hall           '-P 2ybc'
loop_
_symmetry_equiv_pos_site_id
_symmetry_equiv_pos_as_xyz
1 x,y,z
2 -x,1/2+y,1/2-z
3 -x,-y,-z
4 x,1/2-y,1/2+z
_cell_length_a                   23.3553(8)
_cell_length_b                   5.2516(2)
_cell_length_c                   22.6636(8)
_cell_angle_alpha                90
_cell_angle_beta                 118.4040(10)
_cell_angle_gamma                90
_cell_volume                     2445.11
_exptl_crystal_colour            colorless
_exptl_crystal_description       plate
_cell_formula_units_Z            4
loop_
_atom_site_label
_atom_site_type_symbol
_atom_site_fract_x
_atom_site_fract_y
_atom_site_fract_z
C1 C 0.05772(15) 0.7194(6) 0.38395(14)
C2 C 0.10227(15) 0.5287(6) 0.39546(14)
C3 C 0.13796(15) 0.5221(6) 0.36145(14)
C4 C 0.13014(15) 0.7049(6) 0.31401(14)
C5 C 0.08470(15) 0.8924(6) 0.30251(14)
C6 C 0.04909(14) 0.9011(6) 0.33653(14)
C7 C 0.16567(16) 0.5022(6) 0.24192(15)
H1 H 0.1202 0.4550 0.2101
H2 H 0.1873 0.3534 0.2708
C8 C 0.20149(15) 0.5814(6) 0.20417(15)
H3 H 0.2056 0.4322 0.1797
H4 H 0.2459 0.6373 0.2368
C9 C 0.16754(16) 0.7955(6) 0.15443(15)
H5 H 0.1596 0.9383 0.1781
H6 H 0.1247 0.7338 0.1194
C10 C 0.20659(17) 0.8943(6) 0.12068(15)
H7 H 0.1845 1.0472 0.0940
H8 H 0.2502 0.9473 0.1560
C11 C 0.21507(15) 0.7024(6) 0.07500(15)
H9 H 0.1716 0.6544 0.0384
H10 H 0.2358 0.5467 0.1011
C12 C 0.25642(15) 0.8050(6) 0.04450(14)
H11 H 0.2374 0.9675 0.0213
H12 H 0.3008 0.8411 0.0810
C13 C 0.26099(15) 0.6204(6) -0.00519(14)
H13 H 0.2785 0.4559 0.0177
H14 H 0.2167 0.5889 -0.0424
C14 C 0.30391(15) 0.7165(5) -0.03419(14)
H15 H 0.3485 0.7452 0.0029
H16 H 0.2869 0.8819 -0.0567
C15 C 0.30689(15) 0.5303(6) -0.08440(14)
H17 H 0.3244 0.3660 -0.0615
H18 H 0.2621 0.4992 -0.1208
C16 C 0.34836(15) 0.6211(6) -0.11540(14)
H19 H 0.3943 0.6352 -0.0800
H20 H 0.3336 0.7922 -0.1352
C17 C 0.34396(15) 0.4379(6) -0.16974(14)
H21 H 0.3598 0.2683 -0.1494
H22 H 0.2978 0.4196 -0.2041
C18 C 0.38275(15) 0.5241(6) -0.20343(14)
H23 H 0.3671 0.6920 -0.2250
H24 H 0.4294 0.5387 -0.1703
C19 C 0.39992(14) 0.3754(6) -0.29431(13)
C20 C 0.38510(15) 0.1934(6) -0.34445(14)
H25 H 0.3583 0.0521 -0.3479
C21 C 0.40918(15) 0.2187(5) -0.38870(14)
H26 H 0.3991 0.0936 -0.4225
C22 C 0.44819(14) 0.4246(5) -0.38479(13)
C23 C 0.46320(14) 0.6044(6) -0.33441(14)
H27 H 0.4901 0.7451 -0.3311
C24 C 0.43956(14) 0.5819(5) -0.28905(13)
H28 H 0.4502 0.7055 -0.2548
C25 C 0.47201(14) 0.4553(6) -0.43391(14)
F1 F 0.11302(9) 0.3463(4) 0.44151(9)
F2 F 0.18241(9) 0.3353(4) 0.37629(9)
F3 F 0.07382(9) 1.0734(3) 0.25583(8)
F4 F 0.00577(9) 1.0904(4) 0.32266(9)
I1 I 0.005465(11) 0.73375(4) 0.436628(10)
O1 O 0.16671(11) 0.7199(4) 0.28297(10)
O2 O 0.37337(10) 0.3331(4) -0.25314(10)
O3 O 0.45708(12) 0.2891(4) -0.47938(11)
O4 O 0.50634(11) 0.6515(5) -0.42881(10)
H29 H 0.5112 0.6638 -0.4631
loop_
_geom_bond_atom_site_label_1
_geom_bond_atom_site_label_2
_geom_bond_site_symmetry_1
_geom_bond_site_symmetry_2
C1 C2 1_555 1_555
C2 C3 1_555 1_555
C3 C4 1_555 1_555
C4 C5 1_555 1_555
C5 C6 1_555 1_555
C6 C1 1_555 1_555
C7 H1 1_555 1_555
H2 C7 1_555 1_555
C8 C7 1_555 1_555
H3 C8 1_555 1_555
H4 C8 1_555 1_555
C9 C8 1_555 1_555
H5 C9 1_555 1_555
H6 C9 1_555 1_555
C10 C9 1_555 1_555
H7 C10 1_555 1_555
H8 C10 1_555 1_555
C11 C10 1_555 1_555
H9 C11 1_555 1_555
H10 C11 1_555 1_555
C12 C11 1_555 1_555
H11 C12 1_555 1_555
H12 C12 1_555 1_555
C13 C12 1_555 1_555
H13 C13 1_555 1_555
H14 C13 1_555 1_555
C14 C13 1_555 1_555
H15 C14 1_555 1_555
H16 C14 1_555 1_555
C15 C14 1_555 1_555
H17 C15 1_555 1_555
H18 C15 1_555 1_555
C16 C15 1_555 1_555
H19 C16 1_555 1_555
H20 C16 1_555 1_555
C17 C16 1_555 1_555
H21 C17 1_555 1_555
H22 C17 1_555 1_555
C18 C17 1_555 1_555
H23 C18 1_555 1_555
H24 C18 1_555 1_555
C19 C20 1_555 1_555
C20 H25 1_555 1_555
C21 C20 1_555 1_555
H26 C21 1_555 1_555
C22 C21 1_555 1_555
C23 C22 1_555 1_555
H27 C23 1_555 1_555
C24 C19 1_555 1_555
H28 C24 1_555 1_555
C25 C22 1_555 1_555
F1 C2 1_555 1_555
F2 C3 1_555 1_555
F3 C5 1_555 1_555
F4 C6 1_555 1_555
I1 C1 1_555 1_555
O1 C4 1_555 1_555
O2 C18 1_555 1_555
O3 C25 1_555 1_555
O4 C25 1_555 1_555
H29 O4 1_555 1_555
C7 O1 1_555 1_555
C19 O2 1_555 1_555
C23 C24 1_555 1_555

#END
