
#######################################################################
#
#                 Cambridge Crystallographic Data Centre
#                                CCDC 
#
#######################################################################
#
# If this CIF has been generated from an entry in the Cambridge 
# Structural Database, then it will include bibliographic, chemical, 
# crystal, experimental, refinement or atomic coordinate data resulting 
# from the CCDC's data processing and validation procedures.
#
#######################################################################

data_RIHWUA
_chemical_formula_moiety         'C41 H46 Cl2 N4'
_chemical_name_systematic        
15-(2-Chloroethyl)-5-(4-chloromethylphenyl)-2,8,12,18-tetramethyl-3,7,13,17-tetraethylporphyrin
_symmetry_cell_setting           monoclinic
_symmetry_space_group_name_H-M   'P 21/c'
_symmetry_Int_Tables_number      14
_space_group_name_Hall           '-P 2ybc'
loop_
_symmetry_equiv_pos_site_id
_symmetry_equiv_pos_as_xyz
1 x,y,z
2 -x,1/2+y,1/2-z
3 -x,-y,-z
4 x,1/2-y,1/2+z
_cell_length_a                   8.596(2)
_cell_length_b                   12.269(3)
_cell_length_c                   33.030(9)
_cell_angle_alpha                90
_cell_angle_beta                 92.42(2)
_cell_angle_gamma                90
_cell_volume                     3480.38
_exptl_crystal_colour            red
_cell_formula_units_Z            4
loop_
_atom_site_label
_atom_site_type_symbol
_atom_site_fract_x
_atom_site_fract_y
_atom_site_fract_z
N1 N 1.0678(3) 0.2869(2) 0.3249(1)
N2 N 1.0902(3) 0.4886(2) 0.3550(1)
N3 N 1.4121(3) 0.4291(2) 0.4046(1)
N4 N 1.3957(3) 0.2310(2) 0.3721(1)
C1 C 1.0928(4) 0.1785(3) 0.3178(1)
C2 C 0.9579(4) 0.1389(3) 0.2958(1)
C3 C 0.9365(5) 0.0232(3) 0.2818(1)
C4 C 0.8549(4) 0.2232(3) 0.2894(1)
C5 C 0.7040(4) 0.2086(3) 0.2655(1)
C6 C 0.7245(5) 0.2261(3) 0.2199(1)
C7 C 0.9258(4) 0.3195(3) 0.3082(1)
C8 C 0.8716(4) 0.4276(3) 0.3113(1)
C9 C 0.7173(4) 0.4538(3) 0.2901(1)
C10 C 0.5856(4) 0.4326(3) 0.3179(1)
Cl1 Cl 0.4012(1) 0.4498(1) 0.2914(1)
C11 C 0.9524(4) 0.5090(3) 0.3342(1)
C12 C 0.9050(4) 0.6245(3) 0.3401(1)
C13 C 0.7660(4) 0.6884(3) 0.3245(1)
C14 C 0.7859(5) 0.7393(3) 0.2827(1)
C15 C 1.0209(4) 0.6694(3) 0.3639(1)
C16 C 1.0367(5) 0.7846(3) 0.3790(1)
C17 C 1.1334(4) 0.5840(3) 0.3737(1)
C18 C 1.2623(4) 0.6013(3) 0.3997(1)
C19 C 1.3823(4) 0.5358(3) 0.4144(1)
C20 C 1.5044(4) 0.5690(3) 0.4423(1)
C21 C 1.5138(5) 0.6793(3) 0.4624(1)
C22 C 1.6067(4) 0.4846(3) 0.4484(1)
C23 C 1.7515(4) 0.4932(3) 0.4756(1)
C24 C 1.8788(4) 0.5608(3) 0.4564(1)
C25 C 1.5489(4) 0.3945(3) 0.4236(1)
C26 C 1.6129(4) 0.2906(3) 0.4169(1)
C27 C 1.7714(4) 0.2642(3) 0.4347(1)
C28 C 1.7930(4) 0.1967(3) 0.4685(1)
C29 C 1.9418(4) 0.1630(3) 0.4809(1)
C30 C 2.0702(4) 0.1953(3) 0.4601(1)
C31 C 2.0490(4) 0.2669(3) 0.4279(1)
C32 C 1.9010(4) 0.3014(3) 0.4154(1)
C33 C 2.2290(4) 0.1516(3) 0.4703(1)
Cl2 Cl 2.2581(1) 0.0190(1) 0.4479(1)
C34 C 1.5401(4) 0.2132(3) 0.3907(1)
C35 C 1.6024(4) 0.1059(3) 0.3781(1)
C36 C 1.7504(4) 0.0465(3) 0.3896(1)
C37 C 1.7252(5) -0.0397(3) 0.4224(1)
C38 C 1.4900(4) 0.0626(3) 0.3530(1)
C39 C 1.4921(5) -0.0457(3) 0.3315(1)
C40 C 1.3617(4) 0.1399(3) 0.3496(1)
C41 C 1.2259(4) 0.1173(3) 0.3273(1)
H1 H 1.1356 0.3308 0.3385
H2 H 1.3507 0.3878 0.3881
H3 H 0.8368 0.0166 0.2678
H4 H 1.0169 0.0039 0.2638
H5 H 0.9409 -0.0248 0.3048
H6 H 0.6304 0.2611 0.2745
H7 H 0.6630 0.1371 0.2700
H8 H 0.6274 0.2176 0.2047
H9 H 0.7648 0.2980 0.2155
H10 H 0.7976 0.1730 0.2110
H11 H 0.7018 0.4090 0.2664
H12 H 0.7144 0.5288 0.2819
H13 H 0.5948 0.4824 0.3402
H14 H 0.5951 0.3596 0.3282
H15 H 0.7430 0.7447 0.3436
H16 H 0.6785 0.6398 0.3226
H17 H 0.6933 0.7780 0.2739
H18 H 0.8721 0.7890 0.2846
H19 H 0.8069 0.6831 0.2635
H20 H 0.9495 0.8266 0.3688
H21 H 1.0393 0.7855 0.4081
H22 H 1.1313 0.8156 0.3697
H23 H 1.2695 0.6750 0.4095
H24 H 1.6059 0.6839 0.4798
H25 H 1.5164 0.7350 0.4420
H26 H 1.4235 0.6892 0.4781
H27 H 1.7899 0.4211 0.4814
H28 H 1.7263 0.5267 0.5008
H29 H 1.9697 0.5644 0.4743
H30 H 1.9049 0.5266 0.4314
H31 H 1.8408 0.6331 0.4510
H32 H 1.7035 0.1736 0.4827
H33 H 1.9567 0.1185 0.5047
H34 H 2.1382 0.2923 0.4141
H35 H 1.8867 0.3509 0.3931
H36 H 2.2442 0.1462 0.4992
H37 H 2.3050 0.2012 0.4605
H38 H 1.8270 0.0979 0.3996
H39 H 1.7895 0.0115 0.3661
H40 H 1.8205 -0.0771 0.4296
H41 H 1.6870 -0.0042 0.4459
H42 H 1.6493 -0.0913 0.4122
H43 H 1.5883 -0.0820 0.3386
H44 H 1.4064 -0.0899 0.3393
H45 H 1.4847 -0.0339 0.3027
H46 H 1.2238 0.0451 0.3161
loop_
_geom_bond_atom_site_label_1
_geom_bond_atom_site_label_2
_geom_bond_site_symmetry_1
_geom_bond_site_symmetry_2
N1 C1 1_555 1_555
N2 C11 1_555 1_555
N3 C19 1_555 1_555
N4 C34 1_555 1_555
C1 C2 1_555 1_555
C2 C3 1_555 1_555
C3 H3 1_555 1_555
C4 C2 1_555 1_555
C5 C4 1_555 1_555
C6 C5 1_555 1_555
C7 N1 1_555 1_555
C8 C7 1_555 1_555
C9 C8 1_555 1_555
C10 C9 1_555 1_555
Cl1 C10 1_555 1_555
C11 C8 1_555 1_555
C12 C11 1_555 1_555
C13 C12 1_555 1_555
C14 C13 1_555 1_555
C15 C12 1_555 1_555
C16 C15 1_555 1_555
C17 N2 1_555 1_555
C18 C17 1_555 1_555
C19 C18 1_555 1_555
C20 C19 1_555 1_555
C21 C20 1_555 1_555
C22 C20 1_555 1_555
C23 C22 1_555 1_555
C24 C23 1_555 1_555
C25 N3 1_555 1_555
C26 C25 1_555 1_555
C27 C26 1_555 1_555
C28 C27 1_555 1_555
C29 C28 1_555 1_555
C30 C29 1_555 1_555
C31 C30 1_555 1_555
C32 C27 1_555 1_555
C33 C30 1_555 1_555
Cl2 C33 1_555 1_555
C34 C26 1_555 1_555
C35 C34 1_555 1_555
C36 C35 1_555 1_555
C37 C36 1_555 1_555
C38 C35 1_555 1_555
C39 C38 1_555 1_555
C40 N4 1_555 1_555
C41 C1 1_555 1_555
H1 N1 1_555 1_555
H2 N3 1_555 1_555
H4 C3 1_555 1_555
H5 C3 1_555 1_555
H6 C5 1_555 1_555
H7 C5 1_555 1_555
H8 C6 1_555 1_555
H9 C6 1_555 1_555
H10 C6 1_555 1_555
H11 C9 1_555 1_555
H12 C9 1_555 1_555
H13 C10 1_555 1_555
H14 C10 1_555 1_555
H15 C13 1_555 1_555
H16 C13 1_555 1_555
H17 C14 1_555 1_555
H18 C14 1_555 1_555
H19 C14 1_555 1_555
H20 C16 1_555 1_555
H21 C16 1_555 1_555
H22 C16 1_555 1_555
H23 C18 1_555 1_555
H24 C21 1_555 1_555
H25 C21 1_555 1_555
H26 C21 1_555 1_555
H27 C23 1_555 1_555
H28 C23 1_555 1_555
H29 C24 1_555 1_555
H30 C24 1_555 1_555
H31 C24 1_555 1_555
H32 C28 1_555 1_555
H33 C29 1_555 1_555
H34 C31 1_555 1_555
H35 C32 1_555 1_555
H36 C33 1_555 1_555
H37 C33 1_555 1_555
H38 C36 1_555 1_555
H39 C36 1_555 1_555
H40 C37 1_555 1_555
H41 C37 1_555 1_555
H42 C37 1_555 1_555
H43 C39 1_555 1_555
H44 C39 1_555 1_555
H45 C39 1_555 1_555
H46 C41 1_555 1_555
C4 C7 1_555 1_555
C15 C17 1_555 1_555
C22 C25 1_555 1_555
C31 C32 1_555 1_555
C38 C40 1_555 1_555
C40 C41 1_555 1_555

#END
