
#######################################################################
#
#                 Cambridge Crystallographic Data Centre
#                                CCDC 
#
#######################################################################
#
# If this CIF has been generated from an entry in the Cambridge 
# Structural Database, then it will include bibliographic, chemical, 
# crystal, experimental, refinement or atomic coordinate data resulting 
# from the CCDC's data processing and validation procedures.
#
#######################################################################

data_RIHZOA
_chemical_formula_moiety         'C48 H50 N4 Si2'
_chemical_name_systematic        
2,2'-(2,8-bis{[triisopropylsilyl]ethynyl}indeno[1,2-b]fluorene-6,12-diylidene)dipropanedinitrile
_symmetry_cell_setting           monoclinic
_symmetry_space_group_name_H-M   'C 2/c'
_symmetry_Int_Tables_number      15
_space_group_name_Hall           '-C 2yn'
loop_
_symmetry_equiv_pos_site_id
_symmetry_equiv_pos_as_xyz
1 x,y,z
2 -x,y,1/2-z
3 1/2+x,1/2+y,z
4 1/2-x,1/2+y,1/2-z
5 -x,-y,-z
6 x,-y,1/2+z
7 1/2-x,1/2-y,-z
8 1/2+x,1/2-y,1/2+z
_cell_length_a                   39.755(5)
_cell_length_b                   10.0294(12)
_cell_length_c                   11.4351(14)
_cell_angle_alpha                90
_cell_angle_beta                 102.874(8)
_cell_angle_gamma                90
_cell_volume                     4444.78
_exptl_crystal_colour            purple
_exptl_crystal_description       plate
_cell_formula_units_Z            4
loop_
_atom_site_label
_atom_site_type_symbol
_atom_site_fract_x
_atom_site_fract_y
_atom_site_fract_z
C1 C 0.2590(3) 0.227(2) 0.2308(18)
H1 H 0.2567 0.1314 0.2276
H2 H 0.259 0.2603 0.1522
H3 H 0.2401 0.2649 0.2587
C2 C 0.2907(4) 0.229(2) 0.4398(12)
H4 H 0.2726 0.2785 0.4639
H5 H 0.3125 0.2535 0.49
H6 H 0.2868 0.1355 0.4475
C3 C 0.2907(3) 0.2614(16) 0.3111(11)
H7 H 0.2894 0.359 0.3108
C4 C 0.3380(3) 0.5009(14) 0.1847(12)
H8 H 0.3411 0.5585 0.1208
H9 H 0.3568 0.5134 0.2529
H10 H 0.3166 0.522 0.2064
C5 C 0.3373(3) 0.3553(13) 0.1432(9)
H11 H 0.3608 0.3384 0.1333
C6 C 0.3162(5) 0.3347(18) 0.0269(11)
H12 H 0.2928 0.359 0.0269
H13 H 0.317 0.2425 0.0053
H14 H 0.3244 0.3889 -0.0301
C7 C 0.3316(4) -0.0448(15) 0.3051(14)
H15 H 0.3502 -0.1076 0.3133
H16 H 0.31 -0.0911 0.2833
H17 H 0.3331 0.0006 0.38
C8 C 0.3342(3) 0.0572(11) 0.2073(10)
H18 H 0.3152 0.0419 0.1376
C9 C 0.3652(3) 0.0239(13) 0.1771(13)
H19 H 0.3833 0.021 0.2484
H20 H 0.3706 0.0897 0.1232
H21 H 0.363 -0.0618 0.1388
C10 C 0.36740(19) 0.2651(7) 0.3870(7)
C11 C 0.39035(19) 0.2908(7) 0.4719(7)
C12 C 0.41605(16) 0.3205(6) 0.5773(6)
C13 C 0.43281(17) 0.2166(6) 0.6500(7)
H22 H 0.4289 0.1289 0.6242
C14 C 0.45490(17) 0.2419(5) 0.7582(6)
H23 H 0.4654 0.172 0.8062
C15 C 0.46134(13) 0.3704(5) 0.7944(5)
C16 C 0.48231(13) 0.4246(5) 0.9045(5)
C17 C 0.48029(13) 0.5653(5) 0.9008(5)
C18 C 0.45851(13) 0.6027(5) 0.7844(5)
C19 C 0.44622(14) 0.4767(5) 0.7209(6)
C20 C 0.4630(2) 0.8431(7) 0.8092(8)
C21 C 0.45148(15) 0.7298(5) 0.7424(6)
C22 C 0.43310(18) 0.7551(6) 0.6208(8)
C23 C 0.50218(14) 0.3589(5) 1.0040(6)
H24 H 0.5036 0.2663 1.0061
C24 C 0.42347(14) 0.4517(6) 0.6129(6)
H25 H 0.4133 0.5218 0.5646
N1 N 0.4192(2) 0.7822(7) 0.5250(7)
N2 N 0.4729(3) 0.9357(7) 0.8629(9)
Si1 Si 0.33115(5) 0.2316(2) 0.26221(18)
C1D C 0.7410(3) 0.773(2) 1.7692(18)
H1D H 0.7433 0.8686 1.7724
H2D H 0.741 0.7397 1.8478
H3D H 0.7599 0.7351 1.7413
C2D C 0.7093(4) 0.771(2) 1.5602(12)
H4D H 0.7274 0.7215 1.5361
H5D H 0.6875 0.7465 1.51
H6D H 0.7132 0.8645 1.5525
C3D C 0.7093(3) 0.7386(16) 1.6889(11)
H7D H 0.7106 0.641 1.6892
C4D C 0.6620(3) 0.4991(14) 1.8153(12)
H8D H 0.6589 0.4415 1.8792
H9D H 0.6432 0.4866 1.7471
H10D H 0.6834 0.478 1.7936
C5D C 0.6627(3) 0.6447(13) 1.8568(9)
H11D H 0.6392 0.6616 1.8667
C6D C 0.6838(5) 0.6653(18) 1.9731(11)
H12D H 0.7072 0.641 1.9731
H13D H 0.683 0.7575 1.9947
H14D H 0.6756 0.6111 2.0301
C7D C 0.6684(4) 1.0448(15) 1.6949(14)
H15D H 0.6498 1.1076 1.6867
H16D H 0.69 1.0911 1.7167
H17D H 0.6669 0.9994 1.62
C8D C 0.6658(3) 0.9428(11) 1.7927(10)
H18D H 0.6848 0.9581 1.8624
C9D C 0.6348(3) 0.9761(13) 1.8229(13)
H19D H 0.6167 0.979 1.7516
H20D H 0.6294 0.9103 1.8768
H21D H 0.637 1.0618 1.8612
C10D C 0.63260(19) 0.7349(7) 1.6130(7)
C11D C 0.60965(19) 0.7092(7) 1.5281(7)
C12D C 0.58395(16) 0.6795(6) 1.4227(6)
C13D C 0.56719(17) 0.7834(6) 1.3500(7)
H22D H 0.5711 0.8711 1.3758
C14D C 0.54510(17) 0.7581(5) 1.2418(6)
H23D H 0.5346 0.828 1.1938
C15D C 0.53866(13) 0.6296(5) 1.2056(5)
C16D C 0.51769(13) 0.5754(5) 1.0955(5)
C17D C 0.51971(13) 0.4347(5) 1.0992(5)
C18D C 0.54149(13) 0.3973(5) 1.2156(5)
C19D C 0.55378(14) 0.5233(5) 1.2791(6)
C20D C 0.5370(2) 0.1569(7) 1.1908(8)
C21D C 0.54852(15) 0.2702(5) 1.2576(6)
C22D C 0.56690(18) 0.2449(6) 1.3792(8)
C23D C 0.49782(14) 0.6411(5) 0.9960(6)
H24D H 0.4964 0.7337 0.9939
C24D C 0.57653(14) 0.5483(6) 1.3871(6)
H25D H 0.5867 0.4782 1.4354
N1D N 0.5808(2) 0.2178(7) 1.4750(7)
N2D N 0.5271(3) 0.0643(7) 1.1371(9)
Si1D Si 0.66885(5) 0.7684(2) 1.73779(18)
loop_
_geom_bond_atom_site_label_1
_geom_bond_atom_site_label_2
_geom_bond_site_symmetry_1
_geom_bond_site_symmetry_2
C1 H1 1_555 1_555
H2 C1 1_555 1_555
H3 C1 1_555 1_555
C2 H4 1_555 1_555
H5 C2 1_555 1_555
H6 C2 1_555 1_555
C3 C1 1_555 1_555
H7 C3 1_555 1_555
C4 H8 1_555 1_555
H9 C4 1_555 1_555
H10 C4 1_555 1_555
C5 C4 1_555 1_555
H11 C5 1_555 1_555
C6 C5 1_555 1_555
H12 C6 1_555 1_555
H13 C6 1_555 1_555
H14 C6 1_555 1_555
C7 H15 1_555 1_555
H16 C7 1_555 1_555
H17 C7 1_555 1_555
C8 C7 1_555 1_555
H18 C8 1_555 1_555
C9 C8 1_555 1_555
H19 C9 1_555 1_555
H20 C9 1_555 1_555
H21 C9 1_555 1_555
C10 C11 1_555 1_555
C11 C12 1_555 1_555
C12 C13 1_555 1_555
C13 H22 1_555 1_555
C14 C13 1_555 1_555
H23 C14 1_555 1_555
C15 C14 1_555 1_555
C16 C15 1_555 1_555
C17 C16 1_555 1_555
C18 C17 1_555 1_555
C19 C15 1_555 1_555
C20 C21 1_555 1_555
C21 C18 1_555 1_555
C22 C21 1_555 1_555
C23 C16 1_555 1_555
H24 C23 1_555 1_555
C24 C12 1_555 1_555
H25 C24 1_555 1_555
N1 C22 1_555 1_555
N2 C20 1_555 1_555
Si1 C3 1_555 1_555
C1D H1D 1_555 1_555
H2D C1D 1_555 1_555
H3D C1D 1_555 1_555
C2D H4D 1_555 1_555
H5D C2D 1_555 1_555
H6D C2D 1_555 1_555
C3D C1D 1_555 1_555
H7D C3D 1_555 1_555
C4D H8D 1_555 1_555
H9D C4D 1_555 1_555
H10D C4D 1_555 1_555
C5D C4D 1_555 1_555
H11D C5D 1_555 1_555
C6D C5D 1_555 1_555
H12D C6D 1_555 1_555
H13D C6D 1_555 1_555
H14D C6D 1_555 1_555
C7D H15D 1_555 1_555
H16D C7D 1_555 1_555
H17D C7D 1_555 1_555
C8D C7D 1_555 1_555
H18D C8D 1_555 1_555
C9D C8D 1_555 1_555
H19D C9D 1_555 1_555
H20D C9D 1_555 1_555
H21D C9D 1_555 1_555
C10D C11D 1_555 1_555
C11D C12D 1_555 1_555
C12D C13D 1_555 1_555
C13D H22D 1_555 1_555
C14D C13D 1_555 1_555
H23D C14D 1_555 1_555
C15D C14D 1_555 1_555
C16D C15D 1_555 1_555
C17D C23 1_555 1_555
C18D C17D 1_555 1_555
C19D C15D 1_555 1_555
C20D C21D 1_555 1_555
C21D C18D 1_555 1_555
C22D C21D 1_555 1_555
C23D C17 1_555 1_555
H24D C23D 1_555 1_555
C24D C12D 1_555 1_555
H25D C24D 1_555 1_555
N1D C22D 1_555 1_555
N2D C20D 1_555 1_555
Si1D C3D 1_555 1_555
C2 C3 1_555 1_555
C5 Si1 1_555 1_555
C8 Si1 1_555 1_555
C10 Si1 1_555 1_555
C18 C19 1_555 1_555
C19 C24 1_555 1_555
C2D C3D 1_555 1_555
C5D Si1D 1_555 1_555
C8D Si1D 1_555 1_555
C10D Si1D 1_555 1_555
C16D C17D 1_555 1_555
C16D C23D 1_555 1_555
C18D C19D 1_555 1_555
C19D C24D 1_555 1_555

#END
