
#######################################################################
#
#                 Cambridge Crystallographic Data Centre
#                                CCDC 
#
#######################################################################
#
# If this CIF has been generated from an entry in the Cambridge 
# Structural Database, then it will include bibliographic, chemical, 
# crystal, experimental, refinement or atomic coordinate data resulting 
# from the CCDC's data processing and validation procedures.
#
#######################################################################

data_RIJBAQ
_chemical_formula_moiety         'C19 H26 O6,H2 O1'
_chemical_name_systematic        
'6,7-dihydroxy-13-oxo-7,17-epoxypodocarp-8(14)-en-1-yl acetate monohydrate'
_symmetry_cell_setting           monoclinic
_symmetry_space_group_name_H-M   'P 21'
_symmetry_Int_Tables_number      4
_space_group_name_Hall           'P 2yb'
loop_
_symmetry_equiv_pos_site_id
_symmetry_equiv_pos_as_xyz
1 x,y,z
2 -x,1/2+y,-z
_cell_length_a                   6.4711(6)
_cell_length_b                   15.6577(15)
_cell_length_c                   9.2786(9)
_cell_angle_alpha                90
_cell_angle_beta                 90.334(7)
_cell_angle_gamma                90
_cell_volume                     940.115
_exptl_crystal_colour            colorless
_exptl_crystal_description       plate
_cell_formula_units_Z            2
loop_
_atom_site_label
_atom_site_type_symbol
_atom_site_fract_x
_atom_site_fract_y
_atom_site_fract_z
O1 O 0.4903(8) 0.9378(4) 0.4899(8)
O2 O 0.4065(10) 0.0158(7) -0.1901(9)
O3 O 0.7180(8) 0.0543(4) -0.1152(7)
O4 O 1.2478(7) 0.0735(4) 0.4256(7)
H1 H 1.3490 0.0971 0.3856
O5 O 0.9121(10) -0.0492(5) 0.4784(7)
H2 H 0.7845 -0.0479 0.4616
O6 O 1.2053(7) 0.0471(3) 0.1875(7)
C1 C 1.0605(11) 0.0470(6) 0.0702(10)
H3 H 1.1177 0.0138 -0.0111
H4 H 1.0377 0.1063 0.0367
C2 C 0.5514(12) 0.0613(8) -0.1965(11)
C3 C 0.7168(13) -0.0139(6) -0.0124(10)
H5 H 0.5726 -0.0246 0.0213
C4 C 0.8561(11) 0.0084(5) 0.1159(11)
C5 C 0.7567(10) 0.0799(5) 0.2170(10)
H6 H 0.6535 0.0511 0.2803
C6 C 0.6476(11) 0.1560(5) 0.1441(9)
H7 H 0.7401 0.1816 0.0714
H8 H 0.5212 0.1358 0.0941
C7 C 0.5902(13) 0.2228(7) 0.2552(12)
H9 H 0.4852 0.1989 0.3211
H10 H 0.5285 0.2728 0.2058
C8 C 0.7790(17) 0.2519(8) 0.3433(14)
O7 O 0.7968(15) 0.3301(7) 0.3806(13)
C9 C 0.5828(15) 0.1323(8) -0.3095(13)
H11 H 0.4704 0.1302 -0.3806
H12 H 0.7153 0.1238 -0.3580
H13 H 0.5827 0.1881 -0.2615
C10 C 0.9270(11) 0.1112(5) 0.3108(9)
C11 C 1.1050(10) 0.0485(5) 0.3214(8)
C12 C 1.0226(10) -0.0435(5) 0.3452(8)
H14 H 1.1433 -0.0833 0.3501
C13 C 0.8887(11) -0.0682(5) 0.2145(9)
H15 H 0.7492 -0.0812 0.2548
C14 C 0.9599(18) -0.1522(7) 0.1413(13)
C15 C 1.1924(18) -0.1511(8) 0.0867(15)
H16 H 1.2374 -0.2096 0.0664
H17 H 1.2816 -0.1261 0.1613
H18 H 1.2015 -0.1168 -0.0014
C16 C 0.942(2) -0.2262(7) 0.2520(18)
H19 H 0.7987 -0.2314 0.2838
H20 H 1.0315 -0.2142 0.3354
H21 H 0.9858 -0.2798 0.2068
C17 C 0.814(3) -0.1704(7) 0.0140(18)
H22 H 0.6743 -0.1834 0.0510
H23 H 0.8639 -0.2212 -0.0389
C18 C 0.801(2) -0.0940(8) -0.0899(14)
H24 H 0.7094 -0.1086 -0.1721
H25 H 0.9403 -0.0816 -0.1285
C19 C 0.9407(15) 0.1907(7) 0.3676(11)
H26 H 1.0580 0.2061 0.4239
loop_
_geom_bond_atom_site_label_1
_geom_bond_atom_site_label_2
_geom_bond_site_symmetry_1
_geom_bond_site_symmetry_2
O2 C2 1_555 1_555
O3 C2 1_555 1_555
O4 H1 1_555 1_555
O5 H2 1_555 1_555
O6 C1 1_555 1_555
C1 H3 1_555 1_555
H4 C1 1_555 1_555
C2 C9 1_555 1_555
C3 O3 1_555 1_555
H5 C3 1_555 1_555
C4 C1 1_555 1_555
C5 C4 1_555 1_555
H6 C5 1_555 1_555
C6 C5 1_555 1_555
H7 C6 1_555 1_555
H8 C6 1_555 1_555
C7 C6 1_555 1_555
H9 C7 1_555 1_555
H10 C7 1_555 1_555
C8 C7 1_555 1_555
O7 C8 1_555 1_555
C9 H11 1_555 1_555
H12 C9 1_555 1_555
H13 C9 1_555 1_555
C10 C5 1_555 1_555
C11 O4 1_555 1_555
C12 O5 1_555 1_555
H14 C12 1_555 1_555
C13 C4 1_555 1_555
H15 C13 1_555 1_555
C14 C13 1_555 1_555
C15 C14 1_555 1_555
H16 C15 1_555 1_555
H17 C15 1_555 1_555
H18 C15 1_555 1_555
C16 C14 1_555 1_555
H19 C16 1_555 1_555
H20 C16 1_555 1_555
H21 C16 1_555 1_555
C17 C14 1_555 1_555
H22 C17 1_555 1_555
H23 C17 1_555 1_555
C18 C3 1_555 1_555
H24 C18 1_555 1_555
H25 C18 1_555 1_555
C19 C8 1_555 1_555
H26 C19 1_555 1_555
O6 C11 1_555 1_555
C3 C4 1_555 1_555
C10 C11 1_555 1_555
C10 C19 1_555 1_555
C11 C12 1_555 1_555
C12 C13 1_555 1_555
C17 C18 1_555 1_555

#END
