
#######################################################################
#
#                 Cambridge Crystallographic Data Centre
#                                CCDC 
#
#######################################################################
#
# If this CIF has been generated from an entry in the Cambridge 
# Structural Database, then it will include bibliographic, chemical, 
# crystal, experimental, refinement or atomic coordinate data resulting 
# from the CCDC's data processing and validation procedures.
#
#######################################################################

data_RIKGUN
_chemical_formula_moiety         'C17 H20 N1 1+,Cl1 1-'
_chemical_name_systematic        
'(S)-2-(Diphenylmethyl)pyrrolidine hydrochloride'
_symmetry_cell_setting           orthorhombic
_symmetry_space_group_name_H-M   'P 21 21 21'
_symmetry_Int_Tables_number      19
_space_group_name_Hall           'P 2ac 2ab'
loop_
_symmetry_equiv_pos_site_id
_symmetry_equiv_pos_as_xyz
1 x,y,z
2 1/2-x,-y,1/2+z
3 1/2+x,1/2-y,-z
4 -x,1/2+y,1/2-z
_cell_length_a                   8.200(1)
_cell_length_b                   11.793(1)
_cell_length_c                   16.141(1)
_cell_angle_alpha                90
_cell_angle_beta                 90
_cell_angle_gamma                90
_cell_volume                     1560.88
_exptl_crystal_colour            colorless
_cell_formula_units_Z            4
loop_
_atom_site_label
_atom_site_type_symbol
_atom_site_fract_x
_atom_site_fract_y
_atom_site_fract_z
Cl1 Cl 0.12644(11) 0.86854(6) 0.57766(6)
N1 N 0.2694(3) 0.6638(2) 0.4822(2)
H1 H 0.3797(40) 0.6490(24) 0.4780(18)
H2 H 0.2461(38) 0.7219(26) 0.5159(21)
C1 C 0.1784(4) 0.5601(2) 0.5129(2)
H3 H 0.0973(35) 0.5880(22) 0.5469(16)
C2 C 0.1027(4) 0.5107(3) 0.4342(2)
H4 H 0.0022(4) 0.4726(3) 0.4466(2)
H5 H 0.1762(4) 0.4575(3) 0.4091(2)
C3 C 0.1631(13) 0.5816(8) 0.3645(6)
H8 H 0.2580(13) 0.5468(8) 0.3392(6)
H9 H 0.0790(13) 0.5890(8) 0.3226(6)
C5 C 0.2052(5) 0.6931(3) 0.3978(2)
H12 H 0.1105(5) 0.7423(3) 0.4010(2)
H13 H 0.2884(5) 0.7294(3) 0.3644(2)
C6 C 0.2930(3) 0.4805(2) 0.5605(2)
H16 H 0.3664(30) 0.4541(19) 0.5243(15)
C7 C 0.1973(3) 0.3772(2) 0.5909(2)
C8 C 0.0913(4) 0.3854(3) 0.6583(2)
H17 H 0.0762(39) 0.4620(27) 0.6836(18)
C9 C 0.0047(5) 0.2920(3) 0.6857(3)
H18 H -0.0653(47) 0.3000(28) 0.7342(23)
C10 C 0.0235(5) 0.1889(3) 0.6472(3)
H19 H -0.0348(49) 0.1166(32) 0.6677(22)
C11 C 0.1278(5) 0.1785(3) 0.5807(3)
H20 H 0.1500(40) 0.1046(29) 0.5513(19)
C12 C 0.2145(4) 0.2723(2) 0.5526(2)
H21 H 0.2892(38) 0.2639(26) 0.5076(21)
C13 C 0.3893(3) 0.5358(2) 0.6298(2)
C14 C 0.3286(4) 0.6249(3) 0.6772(2)
H22 H 0.2216(38) 0.6560(23) 0.6633(17)
C15 C 0.4194(4) 0.6713(3) 0.7411(2)
H23 H 0.3744(40) 0.7348(26) 0.7723(20)
C16 C 0.5700(5) 0.6305(3) 0.7595(2)
H24 H 0.6326(49) 0.6654(32) 0.8073(24)
C17 C 0.6330(5) 0.5417(4) 0.7141(2)
H25 H 0.7324(53) 0.5137(31) 0.7276(24)
C18 C 0.5445(4) 0.4946(3) 0.6493(2)
H26 H 0.5890(45) 0.4305(30) 0.6151(22)
H6? H -0.0142(4) 0.5129(3) 0.4371(2)
H7? H 0.1366(4) 0.4334(3) 0.4269(2)
C4? C 0.0741(12) 0.6071(8) 0.3783(7)
H10? H -0.0332(12) 0.6390(8) 0.3881(7)
H11? H 0.0810(12) 0.5833(8) 0.3209(7)
H14? H 0.1972(5) 0.7751(3) 0.4004(2)
H15? H 0.2972(5) 0.6693(3) 0.3643(2)
loop_
_geom_bond_atom_site_label_1
_geom_bond_atom_site_label_2
_geom_bond_site_symmetry_1
_geom_bond_site_symmetry_2
N1 H1 1_555 1_555
H2 N1 1_555 1_555
C1 N1 1_555 1_555
H3 C1 1_555 1_555
C2 C1 1_555 1_555
H4 C2 1_555 1_555
H5 C2 1_555 1_555
C3 C2 1_555 1_555
H8 C3 1_555 1_555
H9 C3 1_555 1_555
C5 N1 1_555 1_555
H12 C5 1_555 1_555
H13 C5 1_555 1_555
C6 C1 1_555 1_555
H16 C6 1_555 1_555
C7 C6 1_555 1_555
C8 C7 1_555 1_555
H17 C8 1_555 1_555
C9 C8 1_555 1_555
H18 C9 1_555 1_555
C10 C9 1_555 1_555
H19 C10 1_555 1_555
C11 C10 1_555 1_555
H20 C11 1_555 1_555
C12 C7 1_555 1_555
H21 C12 1_555 1_555
C13 C6 1_555 1_555
C14 C13 1_555 1_555
H22 C14 1_555 1_555
C15 C14 1_555 1_555
H23 C15 1_555 1_555
C16 C15 1_555 1_555
H24 C16 1_555 1_555
C17 C16 1_555 1_555
H25 C17 1_555 1_555
C18 C13 1_555 1_555
H26 C18 1_555 1_555
C3 C5 1_555 1_555
C11 C12 1_555 1_555
C17 C18 1_555 1_555

#END
