
#######################################################################
#
#                 Cambridge Crystallographic Data Centre
#                                CCDC 
#
#######################################################################
#
# If this CIF has been generated from an entry in the Cambridge 
# Structural Database, then it will include bibliographic, chemical, 
# crystal, experimental, refinement or atomic coordinate data resulting 
# from the CCDC's data processing and validation procedures.
#
#######################################################################

data_RILNIM
_chemical_formula_moiety         'C22 H22 O6'
_chemical_name_systematic        
'dimethyl 10-hydroxy-8-phenyl-7,8,9,10-tetrahydro-5,10-epoxybenzo[8]annulene-6,6(5H)-dicarboxylate'
_symmetry_cell_setting           triclinic
_symmetry_space_group_name_H-M   'P 1'
_symmetry_Int_Tables_number      1
_space_group_name_Hall           'P 1'
loop_
_symmetry_equiv_pos_site_id
_symmetry_equiv_pos_as_xyz
1 x,y,z
_cell_length_a                   7.9496(5)
_cell_length_b                   14.4053(5)
_cell_length_c                   17.2909(6)
_cell_angle_alpha                86.320(3)
_cell_angle_beta                 76.742(5)
_cell_angle_gamma                74.006(5)
_cell_volume                     1852.71
_exptl_crystal_colour            black
_exptl_crystal_description       block
_chemical_melting_point          '229-232 deg.C'
_cell_formula_units_Z            4
loop_
_atom_site_label
_atom_site_type_symbol
_atom_site_fract_x
_atom_site_fract_y
_atom_site_fract_z
O1 O -0.0112(6) 0.3460(3) 0.8129(3)
O2 O -0.1230(7) 0.3429(4) 0.7011(3)
H1 H -0.057986 0.288007 0.691588
O3 O 0.3958(7) 0.3604(4) 0.9179(3)
O4 O 0.0306(9) 0.3247(4) 0.9810(3)
O5 O 0.3459(8) 0.5184(4) 0.8902(4)
O6 O -0.0964(8) 0.4812(4) 1.0090(3)
C1 C 0.2075(10) 0.4084(5) 0.6135(4)
H2 H 0.128270 0.421965 0.579660
C2 C 0.2629(10) 0.3706(5) 0.7447(4)
C3 C 0.1593(9) 0.3528(5) 0.8255(4)
H3 H 0.222121 0.292449 0.847757
C4 C 0.1481(9) 0.3937(5) 0.6932(4)
C5 C 0.4446(10) 0.3657(5) 0.7167(4)
H4 H 0.522676 0.351494 0.751143
C6 C 0.3876(12) 0.4027(5) 0.5845(4)
H5 H 0.430046 0.412093 0.530614
C7 C -0.1644(10) 0.4967(5) 0.7547(4)
H6 H -0.285720 0.493596 0.756634
H7 H -0.132754 0.538100 0.710452
C8 C -0.0385(10) 0.3954(5) 0.7381(4)
C9 C 0.5067(10) 0.3826(5) 0.6362(5)
H8 H 0.626771 0.380697 0.616715
C10 C 0.2980(10) 0.4455(5) 0.8982(4)
C11 C 0.0026(10) 0.4186(5) 0.9653(4)
C12 C 0.0241(10) 0.5345(5) 0.8503(4)
H9 H 0.102802 0.546798 0.801238
H10 H 0.011680 0.584892 0.887452
C13 C -0.4164(10) 0.6887(6) 0.8892(5)
H11 H -0.466632 0.647525 0.925028
C14 C 0.1172(9) 0.4379(5) 0.8839(4)
C15 C -0.1635(9) 0.5446(5) 0.8329(4)
H12 H -0.231277 0.514469 0.877136
C16 C -0.2600(10) 0.6512(5) 0.8331(4)
C17 C -0.2695(11) 0.8137(6) 0.7834(5)
H13 H -0.220808 0.855201 0.747349
C18 C -0.1878(11) 0.7145(5) 0.7796(5)
H14 H -0.084223 0.690206 0.740957
C19 C -0.4223(11) 0.8498(6) 0.8407(5)
H15 H -0.473868 0.916087 0.844658
C20 C -0.4995(11) 0.7883(7) 0.8924(5)
H16 H -0.606237 0.812777 0.929105
C21 C 0.5737(10) 0.3578(6) 0.9254(5)
H17 H 0.638892 0.377448 0.876150
H18 H 0.634798 0.293278 0.938099
H19 H 0.566026 0.400881 0.966950
C22 C -0.0680(13) 0.2999(7) 1.0573(5)
H20 H -0.188234 0.303110 1.053713
H21 H -0.071264 0.344569 1.096809
H22 H -0.009861 0.235612 1.071754
O7 O 0.8359(6) 0.6519(3) 0.3123(3)
O8 O 0.7194(7) 0.6552(4) 0.2012(3)
H23 H 0.735113 0.708623 0.188853
O9 O 1.2546(7) 0.6379(4) 0.4178(3)
O10 O 1.3647(8) 0.4793(4) 0.3911(3)
O11 O 0.8564(8) 0.6722(4) 0.4810(3)
O12 O 0.8865(9) 0.5161(4) 0.5098(3)
C23 C 1.2446(10) 0.5510(5) 0.3979(4)
C24 C 1.1140(10) 0.5894(5) 0.1132(4)
H24 H 1.048898 0.575612 0.079158
C25 C 0.8314(9) 0.5007(5) 0.2550(4)
H25 H 0.904419 0.459512 0.210751
H26 H 0.707182 0.503079 0.257349
C26 C 0.9220(10) 0.5801(5) 0.4650(4)
C27 C 1.1350(10) 0.6273(5) 0.2447(4)
C28 C 1.0408(9) 0.6041(5) 0.1932(4)
C29 C 1.2902(11) 0.5961(5) 0.0849(4)
H27 H 1.342982 0.587268 0.031097
C30 C 0.8927(10) 0.3461(5) 0.3333(4)
C31 C 1.3111(10) 0.6314(5) 0.2163(4)
H28 H 1.376521 0.644649 0.250428
C32 C 0.8540(9) 0.6023(5) 0.2379(4)
C33 C 1.0586(10) 0.4624(5) 0.3502(4)
H29 H 1.095648 0.411850 0.387458
H30 H 1.149906 0.450101 0.301302
C34 C 1.3869(10) 0.6157(5) 0.1367(5)
H31 H 1.504767 0.618216 0.117068
C35 C 1.0473(11) 0.1842(6) 0.2827(5)
H32 H 1.139446 0.143685 0.246788
C36 C 1.0254(10) 0.2835(5) 0.2798(5)
H33 H 1.102339 0.308605 0.240584
C37 C 1.0106(9) 0.6445(5) 0.3264(4)
H34 H 1.012574 0.704701 0.349115
C38 C 0.7725(10) 0.3087(6) 0.3888(4)
H35 H 0.679436 0.349765 0.423928
C39 C 1.0554(9) 0.5591(5) 0.3841(4)
C40 C 0.8815(9) 0.4533(5) 0.3325(4)
H36 H 0.783960 0.483173 0.376849
C41 C 0.7914(12) 0.2084(6) 0.3918(5)
H37 H 0.710515 0.183399 0.429007
C42 C 0.9307(13) 0.1466(6) 0.3394(5)
H38 H 0.945138 0.080227 0.342653
C43 C 1.4331(11) 0.6397(6) 0.4242(5)
H39 H 1.513412 0.627711 0.373012
H40 H 1.475263 0.590725 0.460873
H41 H 1.428196 0.701865 0.443051
C44 C 0.7312(13) 0.6987(7) 0.5565(5)
H42 H 0.658733 0.763741 0.553607
H43 H 0.796550 0.694354 0.597551
H44 H 0.655516 0.655682 0.568518
O13 O 0.7985(7) 0.8463(3) 0.1889(3)
O14 O 0.5763(7) 0.8426(4) 0.2998(3)
H45 H 0.630658 0.785782 0.303718
O15 O 1.3095(7) 0.8605(4) 0.0841(3)
O16 O 1.0065(9) 0.8265(4) 0.0207(3)
O17 O 1.2329(8) 1.0190(4) 0.1106(4)
O18 O 0.9109(9) 0.9826(4) -0.0082(3)
C45 C 0.8389(9) 0.8934(5) 0.3068(4)
C46 C 1.1596(9) 0.8651(5) 0.2844(4)
H46 H 1.272219 0.850595 0.250207
C47 C 0.6964(9) 0.8944(5) 0.2626(4)
C48 C 1.0071(9) 0.8700(5) 0.2571(4)
C49 C 0.9693(11) 0.9026(5) 0.4162(4)
H47 H 0.958848 0.911686 0.470038
C50 C 1.1391(10) 0.8827(5) 0.3646(4)
H48 H 1.239273 0.881144 0.384297
C51 C 1.1927(11) 0.9463(5) 0.1032(4)
C52 C 0.3938(10) 1.2877(6) 0.1090(5)
H49 H 0.327362 1.311902 0.070831
C53 C 0.9691(10) 0.9170(5) 0.0360(4)
C54 C 0.5879(9) 0.9964(5) 0.2463(4)
H50 H 0.576721 1.037327 0.290639
H51 H 0.468045 0.993966 0.244641
C55 C 0.8713(11) 1.0348(5) 0.1506(4)
H52 H 0.895375 1.085019 0.113002
H53 H 0.900781 1.047988 0.199481
C56 C 0.5884(11) 1.2145(6) 0.2218(5)
H54 H 0.652154 1.190261 0.260884
C57 C 0.8195(10) 0.9088(5) 0.3883(4)
H55 H 0.706804 0.922827 0.422434
C58 C 0.9989(10) 0.9391(5) 0.1180(4)
C59 C 0.9828(10) 0.8523(5) 0.1748(4)
H56 H 1.067281 0.792159 0.151910
C60 C 0.5731(9) 1.1506(5) 0.1684(4)
C61 C 0.4152(10) 1.3512(6) 0.1617(5)
H57 H 0.365274 1.417345 0.158258
C62 C 0.4699(11) 1.1903(6) 0.1130(4)
H58 H 0.452194 1.149476 0.077866
C63 C 0.6666(10) 1.0445(5) 0.1682(4)
H59 H 0.642309 1.015033 0.123881
C64 C 0.5114(11) 1.3139(6) 0.2186(5)
H60 H 0.525007 1.354725 0.254860
C65 C 0.9924(15) 0.7998(7) -0.0568(5)
H61 H 1.056415 0.833751 -0.097444
H62 H 0.868402 0.816588 -0.059593
H63 H 1.042974 0.731526 -0.064365
C66 C 1.4959(10) 0.8580(6) 0.0749(5)
H64 H 1.522055 0.909674 0.040658
H65 H 1.570278 0.797313 0.052083
H66 H 1.519145 0.865229 0.125968
O19 O 0.1475(6) 0.1526(3) 0.6893(3)
O20 O 0.6719(7) 0.1383(4) 0.5842(3)
O21 O -0.0794(7) 0.1550(4) 0.8001(3)
H67 H -0.073580 0.195240 0.830147
O22 O 0.3366(9) 0.1729(4) 0.5210(3)
O23 O 0.7555(7) -0.0207(4) 0.6095(4)
O24 O 0.3950(9) 0.0170(4) 0.4918(3)
C67 C 0.3762(10) 0.1276(5) 0.7576(4)
C68 C 0.6417(11) 0.0519(5) 0.6039(4)
C69 C 0.2370(9) 0.1037(5) 0.8075(4)
C70 C 0.3873(9) 0.0793(5) 0.5369(4)
C71 C 0.0917(9) 0.1041(5) 0.7633(4)
C72 C 0.1600(11) -0.1906(6) 0.6124(4)
H68 H 0.102146 -0.149656 0.577148
C73 C 0.5293(10) 0.1314(5) 0.7835(4)
H69 H 0.629190 0.143519 0.748880
C74 C 0.2277(9) 0.0885(5) 0.8886(4)
H70 H 0.128081 0.075209 0.922577
C75 C 0.3773(10) 0.0944(5) 0.9160(4)
H71 H 0.378188 0.083732 0.969579
C76 C 0.3384(9) 0.1438(5) 0.6747(4)
H72 H 0.364075 0.203801 0.652043
C77 C 0.5219(10) 0.1155(5) 0.8657(4)
H73 H 0.618181 0.119519 0.886119
C78 C 0.2243(9) -0.1524(5) 0.6682(4)
C79 C 0.3282(12) -0.3136(6) 0.7180(5)
H74 H 0.383165 -0.354833 0.754020
C80 C 0.0873(10) 0.0008(5) 0.7464(4)
H75 H -0.034268 0.002455 0.744024
H76 H 0.116790 -0.040321 0.790721
C81 C 0.2166(9) -0.0462(5) 0.6683(4)
H77 H 0.163618 -0.015997 0.623905
C82 C 0.4092(10) -0.0373(5) 0.6510(4)
H78 H 0.483310 -0.086900 0.612979
H79 H 0.452455 -0.050804 0.699730
C83 C 0.3079(11) -0.2178(6) 0.7217(5)
H80 H 0.349781 -0.194077 0.760244
C84 C 0.1817(11) -0.2894(6) 0.6092(5)
H81 H 0.137641 -0.313796 0.571816
C85 C 0.4381(10) 0.0606(5) 0.6185(4)
C86 C 0.8584(11) 0.1402(6) 0.5753(5)
H82 H 0.935552 0.089769 0.539686
H83 H 0.889742 0.130441 0.626178
H84 H 0.872263 0.201584 0.554154
C87 C 0.2882(13) 0.1992(7) 0.4434(5)
H85 H 0.392620 0.204676 0.404507
H86 H 0.197962 0.259829 0.448048
H87 H 0.242565 0.150109 0.427345
C88 C 0.2675(11) -0.3516(6) 0.6605(5)
H88 H 0.284745 -0.417896 0.657025
loop_
_geom_bond_atom_site_label_1
_geom_bond_atom_site_label_2
_geom_bond_site_symmetry_1
_geom_bond_site_symmetry_2
O1 C3 1_555 1_555
O2 H1 1_555 1_555
O3 C10 1_555 1_555
O4 C11 1_555 1_555
O5 C10 1_555 1_555
O6 C11 1_555 1_555
C1 H2 1_555 1_555
C2 C3 1_555 1_555
C3 H3 1_555 1_555
C4 C1 1_555 1_555
C5 C2 1_555 1_555
H4 C5 1_555 1_555
C6 C1 1_555 1_555
H5 C6 1_555 1_555
C7 H6 1_555 1_555
H7 C7 1_555 1_555
C8 O1 1_555 1_555
C9 C5 1_555 1_555
H8 C9 1_555 1_555
C10 C14 1_555 1_555
C11 C14 1_555 1_555
C12 H9 1_555 1_555
H10 C12 1_555 1_555
C13 H11 1_555 1_555
C14 C3 1_555 1_555
C15 C7 1_555 1_555
H12 C15 1_555 1_555
C16 C13 1_555 1_555
C17 H13 1_555 1_555
C18 C16 1_555 1_555
H14 C18 1_555 1_555
C19 C17 1_555 1_555
H15 C19 1_555 1_555
C20 C13 1_555 1_555
H16 C20 1_555 1_555
C21 O3 1_555 1_555
H17 C21 1_555 1_555
H18 C21 1_555 1_555
H19 C21 1_555 1_555
C22 O4 1_555 1_555
H20 C22 1_555 1_555
H21 C22 1_555 1_555
H22 C22 1_555 1_555
O7 C32 1_555 1_555
O8 H23 1_555 1_555
O9 C23 1_555 1_555
O10 C23 1_555 1_555
O11 C26 1_555 1_555
O12 C26 1_555 1_555
C23 C39 1_555 1_555
C24 H24 1_555 1_555
C25 H25 1_555 1_555
H26 C25 1_555 1_555
C26 C39 1_555 1_555
C27 C28 1_555 1_555
C28 C24 1_555 1_555
C29 C24 1_555 1_555
H27 C29 1_555 1_555
C30 C36 1_555 1_555
C31 C27 1_555 1_555
H28 C31 1_555 1_555
C32 O8 1_555 1_555
C33 H29 1_555 1_555
H30 C33 1_555 1_555
C34 C29 1_555 1_555
H31 C34 1_555 1_555
C35 H32 1_555 1_555
C36 C35 1_555 1_555
H33 C36 1_555 1_555
C37 O7 1_555 1_555
H34 C37 1_555 1_555
C38 C30 1_555 1_555
H35 C38 1_555 1_555
C39 C33 1_555 1_555
C40 C25 1_555 1_555
H36 C40 1_555 1_555
C41 C38 1_555 1_555
H37 C41 1_555 1_555
C42 C35 1_555 1_555
H38 C42 1_555 1_555
C43 O9 1_555 1_555
H39 C43 1_555 1_555
H40 C43 1_555 1_555
H41 C43 1_555 1_555
C44 O11 1_555 1_555
H42 C44 1_555 1_555
H43 C44 1_555 1_555
H44 C44 1_555 1_555
O13 C47 1_555 1_555
O14 H45 1_555 1_555
O15 C51 1_555 1_555
O16 C53 1_555 1_555
O17 C51 1_555 1_555
O18 C53 1_555 1_555
C45 C47 1_555 1_555
C46 H46 1_555 1_555
C47 O14 1_555 1_555
C48 C45 1_555 1_555
C49 H47 1_555 1_555
C50 C46 1_555 1_555
H48 C50 1_555 1_555
C51 C58 1_555 1_555
C52 H49 1_555 1_555
C53 C58 1_555 1_555
C54 C47 1_555 1_555
H50 C54 1_555 1_555
H51 C54 1_555 1_555
C55 H52 1_555 1_555
H53 C55 1_555 1_555
C56 H54 1_555 1_555
C57 C45 1_555 1_555
H55 C57 1_555 1_555
C58 C55 1_555 1_555
C59 O13 1_555 1_555
H56 C59 1_555 1_555
C60 C56 1_555 1_555
C61 C52 1_555 1_555
H57 C61 1_555 1_555
C62 C52 1_555 1_555
H58 C62 1_555 1_555
C63 C54 1_555 1_555
H59 C63 1_555 1_555
C64 C56 1_555 1_555
H60 C64 1_555 1_555
C65 O16 1_555 1_555
H61 C65 1_555 1_555
H62 C65 1_555 1_555
H63 C65 1_555 1_555
C66 O15 1_555 1_555
H64 C66 1_555 1_555
H65 C66 1_555 1_555
H66 C66 1_555 1_555
O19 C71 1_555 1_555
O20 C68 1_555 1_555
O21 H67 1_555 1_555
O22 C70 1_555 1_555
O23 C68 1_555 1_555
O24 C70 1_555 1_555
C67 C69 1_555 1_555
C68 C85 1_555 1_555
C69 C71 1_555 1_555
C70 C85 1_555 1_555
C71 O21 1_555 1_555
C72 H68 1_555 1_555
C73 C67 1_555 1_555
H69 C73 1_555 1_555
C74 C69 1_555 1_555
H70 C74 1_555 1_555
C75 C74 1_555 1_555
H71 C75 1_555 1_555
C76 O19 1_555 1_555
H72 C76 1_555 1_555
C77 C73 1_555 1_555
H73 C77 1_555 1_555
C78 C72 1_555 1_555
C79 H74 1_555 1_555
C80 C71 1_555 1_555
H75 C80 1_555 1_555
H76 C80 1_555 1_555
C81 C78 1_555 1_555
H77 C81 1_555 1_555
C82 C81 1_555 1_555
H78 C82 1_555 1_555
H79 C82 1_555 1_555
C83 C78 1_555 1_555
H80 C83 1_555 1_555
C84 C72 1_555 1_555
H81 C84 1_555 1_555
C85 C76 1_555 1_555
C86 O20 1_555 1_555
H82 C86 1_555 1_555
H83 C86 1_555 1_555
H84 C86 1_555 1_555
C87 O22 1_555 1_555
H85 C87 1_555 1_555
H86 C87 1_555 1_555
H87 C87 1_555 1_555
C88 C79 1_555 1_555
H88 C88 1_555 1_555
O2 C8 1_555 1_555
C2 C4 1_555 1_555
C4 C8 1_555 1_555
C6 C9 1_555 1_555
C7 C8 1_555 1_555
C12 C14 1_555 1_555
C12 C15 1_555 1_555
C15 C16 1_555 1_555
C17 C18 1_555 1_555
C19 C20 1_555 1_555
C25 C32 1_555 1_555
C27 C37 1_555 1_555
C28 C32 1_555 1_555
C30 C40 1_555 1_555
C31 C34 1_555 1_555
C33 C40 1_555 1_555
C37 C39 1_555 1_555
C41 C42 1_555 1_555
C46 C48 1_555 1_555
C48 C59 1_555 1_555
C49 C50 1_555 1_555
C49 C57 1_555 1_555
C55 C63 1_555 1_555
C58 C59 1_555 1_555
C60 C62 1_555 1_555
C60 C63 1_555 1_555
C61 C64 1_555 1_555
C67 C76 1_555 1_555
C75 C77 1_555 1_555
C79 C83 1_555 1_555
C80 C81 1_555 1_555
C82 C85 1_555 1_555
C84 C88 1_555 1_555

#END
