
#######################################################################
#
#                 Cambridge Crystallographic Data Centre
#                                CCDC 
#
#######################################################################
#
# If this CIF has been generated from an entry in the Cambridge 
# Structural Database, then it will include bibliographic, chemical, 
# crystal, experimental, refinement or atomic coordinate data resulting 
# from the CCDC's data processing and validation procedures.
#
#######################################################################

data_RILXIW
_chemical_formula_moiety         'C14 H22 N4 O10'
_chemical_name_systematic        
2,2'-(ethane-1,2-diylbis((2-((carboxymethyl)amino)-2-oxoethyl)azaniumyl))diacetate
_symmetry_cell_setting           orthorhombic
_symmetry_space_group_name_H-M   'P 21 21 2'
_symmetry_Int_Tables_number      18
_space_group_name_Hall           'P 2 2ab'
loop_
_symmetry_equiv_pos_site_id
_symmetry_equiv_pos_as_xyz
1 x,y,z
2 -x,-y,z
3 1/2+x,1/2-y,-z
4 1/2-x,1/2+y,-z
_cell_length_a                   17.3349(11)
_cell_length_b                   9.3065(5)
_cell_length_c                   5.3951(4)
_cell_angle_alpha                90
_cell_angle_beta                 90
_cell_angle_gamma                90
_cell_volume                     870.377
_exptl_crystal_colour            'light green'
_exptl_crystal_description       prism
_cell_formula_units_Z            2
loop_
_atom_site_label
_atom_site_type_symbol
_atom_site_fract_x
_atom_site_fract_y
_atom_site_fract_z
O1 O 0.41075(7) 0.44972(14) 0.1444(3)
O2 O 0.17087(8) 0.59917(15) 0.1567(3)
O3 O 0.26339(7) 0.59065(16) 0.4390(3)
O4 O 0.62440(8) 0.02412(15) 0.2220(3)
O5 O 0.55160(8) 0.18705(17) 0.0253(3)
N1 N 0.51731(9) 0.33141(19) 0.4408(4)
N2 N 0.31123(10) 0.31986(19) 0.3000(4)
C1 C 0.52809(12) 0.4385(2) 0.6477(4)
C2 C 0.43867(12) 0.2661(2) 0.4407(5)
C3 C 0.38514(11) 0.3550(2) 0.2824(4)
C4 C 0.25356(12) 0.3929(2) 0.1531(5)
C5 C 0.22937(11) 0.5366(2) 0.2631(4)
C6 C 0.57839(12) 0.2175(2) 0.4542(4)
C7 C 0.58362(11) 0.1371(2) 0.2082(4)
H1 H 0.5236(11) 0.370(2) 0.274(5)
H2 H 0.5235(11) 0.388(2) 0.805(4)
H3 H 0.5842(10) 0.4750(19) 0.640(4)
H4 H 0.1425(15) 0.541(3) 0.010(6)
H5 H 0.2971(12) 0.248(3) 0.396(5)
H6 H 0.4226(11) 0.262(2) 0.611(5)
H7 H 0.4415(11) 0.171(2) 0.368(4)
H8 H 0.2723(11) 0.411(2) -0.020(5)
H9 H 0.2083(12) 0.330(2) 0.133(5)
H10 H 0.5682(11) 0.155(2) 0.586(4)
H11 H 0.6274(11) 0.267(2) 0.475(5)
O1A O 0.58925(7) 0.55028(14) 0.1444(3)
O2A O 0.82913(8) 0.40083(15) 0.1567(3)
O3A O 0.73661(7) 0.40935(16) 0.4390(3)
O4A O 0.37560(8) 0.97588(15) 0.2220(3)
O5A O 0.44840(8) 0.81295(17) 0.0253(3)
N1A N 0.48269(9) 0.66859(19) 0.4408(4)
N2A N 0.68877(10) 0.68014(19) 0.3000(4)
C1A C 0.47191(12) 0.5615(2) 0.6477(4)
C2A C 0.56133(12) 0.7339(2) 0.4407(5)
C3A C 0.61486(11) 0.6450(2) 0.2824(4)
C4A C 0.74644(12) 0.6071(2) 0.1531(5)
C5A C 0.77063(11) 0.4634(2) 0.2631(4)
C6A C 0.42161(12) 0.7825(2) 0.4542(4)
C7A C 0.41638(11) 0.8629(2) 0.2082(4)
H1A H 0.4764(11) 0.630(2) 0.274(5)
H2A H 0.4765(11) 0.612(2) 0.805(4)
H3A H 0.4158(10) 0.5250(19) 0.640(4)
H4A H 0.8575(15) 0.459(3) 0.010(6)
H5A H 0.7029(12) 0.752(3) 0.396(5)
H6A H 0.5774(11) 0.738(2) 0.611(5)
H7A H 0.5585(11) 0.829(2) 0.368(4)
H8A H 0.7277(11) 0.589(2) -0.020(5)
H9A H 0.7917(12) 0.670(2) 0.133(5)
H10A H 0.4318(11) 0.845(2) 0.586(4)
H11A H 0.3726(11) 0.733(2) 0.475(5)
loop_
_geom_bond_atom_site_label_1
_geom_bond_atom_site_label_2
_geom_bond_site_symmetry_1
_geom_bond_site_symmetry_2
O1 C3 1_555 1_555
O2 C5 1_555 1_555
O3 C5 1_555 1_555
O4 C7 1_555 1_555
O5 C7 1_555 1_555
N1 C1 1_555 1_555
N2 C3 1_555 1_555
C1 H2 1_555 1_555
C2 N1 1_555 1_555
C3 C2 1_555 1_555
C4 N2 1_555 1_555
C5 C4 1_555 1_555
C6 N1 1_555 1_555
C7 C6 1_555 1_555
H1 N1 1_555 1_555
H3 C1 1_555 1_555
H4 O2 1_555 1_555
H5 N2 1_555 1_555
H6 C2 1_555 1_555
H7 C2 1_555 1_555
H8 C4 1_555 1_555
H9 C4 1_555 1_555
H10 C6 1_555 1_555
H11 C6 1_555 1_555
O1A C3A 1_555 1_555
O2A C5A 1_555 1_555
O3A C5A 1_555 1_555
O4A C7A 1_555 1_555
O5A C7A 1_555 1_555
N1A C1A 1_555 1_555
N2A C3A 1_555 1_555
C1A C1 1_555 1_555
C2A N1A 1_555 1_555
C3A C2A 1_555 1_555
C4A N2A 1_555 1_555
C5A C4A 1_555 1_555
C6A N1A 1_555 1_555
C7A C6A 1_555 1_555
H1A N1A 1_555 1_555
H2A C1A 1_555 1_555
H3A C1A 1_555 1_555
H4A O2A 1_555 1_555
H5A N2A 1_555 1_555
H6A C2A 1_555 1_555
H7A C2A 1_555 1_555
H8A C4A 1_555 1_555
H9A C4A 1_555 1_555
H10A C6A 1_555 1_555
H11A C6A 1_555 1_555

#END
