
#######################################################################
#
#                 Cambridge Crystallographic Data Centre
#                                CCDC 
#
#######################################################################
#
# If this CIF has been generated from an entry in the Cambridge 
# Structural Database, then it will include bibliographic, chemical, 
# crystal, experimental, refinement or atomic coordinate data resulting 
# from the CCDC's data processing and validation procedures.
#
#######################################################################

data_RIMLIK
_chemical_compound_source        'whole plants of Salvia cavaleriei'
_chemical_name_common            '11-Oxoleukamenin E monohydrate'
_chemical_formula_moiety         'C22 H30 O6,H2 O1'
_chemical_name_systematic        
'7,14-Dihydroxy-11,15-dioxokaur-16-en-3-yl acetate monohydrate'
_chemical_properties_biological  'cytotoxic activity'
_symmetry_cell_setting           orthorhombic
_symmetry_space_group_name_H-M   'P 21 21 21'
_symmetry_Int_Tables_number      19
_space_group_name_Hall           'P 2ac 2ab'
loop_
_symmetry_equiv_pos_site_id
_symmetry_equiv_pos_as_xyz
1 x,y,z
2 1/2+x,1/2-y,-z
3 -x,1/2+y,1/2-z
4 1/2-x,-y,1/2+z
_cell_length_a                   7.57840(10)
_cell_length_b                   10.6565(2)
_cell_length_c                   26.4145(5)
_cell_angle_alpha                90
_cell_angle_beta                 90
_cell_angle_gamma                90
_cell_volume                     2133.21
_chemical_melting_point          '170-172 deg.C'
_cell_formula_units_Z            4
loop_
_atom_site_label
_atom_site_type_symbol
_atom_site_fract_x
_atom_site_fract_y
_atom_site_fract_z
C1 C 0.4158(3) 0.17306(18) 0.05798(7)
H1 H 0.3151 0.1391 0.0399
H2 H 0.3836 0.2556 0.0704
C2 C 0.5712(3) 0.18538(19) 0.02156(8)
H3 H 0.5369 0.2386 -0.0066
H4 H 0.6685 0.2259 0.0389
C3 C 0.6324(2) 0.0612(2) 0.00140(7)
H5 H 0.7401 0.0747 -0.0184
C4 C 0.6699(2) -0.0399(2) 0.04154(7)
C5 C 0.5200(2) -0.04129(16) 0.08207(6)
H6 H 0.4168 -0.0745 0.0642
C6 C 0.5512(2) -0.13362(18) 0.12548(7)
H7 H 0.5968 -0.2118 0.1120
H8 H 0.6388 -0.0994 0.1484
C7 C 0.3817(2) -0.15925(16) 0.15445(7)
H9 H 0.2988 -0.1998 0.1312
C8 C 0.2925(2) -0.04295(15) 0.17555(6)
C9 C 0.2811(2) 0.05942(15) 0.13249(6)
H10 H 0.2025 0.0230 0.1069
C10 C 0.4585(2) 0.08757(16) 0.10324(6)
C11 C 0.1861(3) 0.17743(16) 0.15054(7)
C12 C 0.2088(3) 0.21705(18) 0.20520(8)
H11 H 0.1123 0.2719 0.2148
H12 H 0.3181 0.2636 0.2088
C13 C 0.2123(3) 0.10284(18) 0.24046(7)
H13 H 0.2205 0.1280 0.2761
C14 C 0.3607(2) 0.01419(18) 0.22585(6)
H14 H 0.4723 0.0590 0.2211
C15 C 0.1007(2) -0.07081(16) 0.19164(6)
C16 C 0.0505(3) 0.02350(19) 0.23083(7)
C17 C -0.1099(3) 0.0340(2) 0.25014(9)
H15 H -0.1994 -0.0194 0.2393
H16 H -0.1332 0.0948 0.2745
C18 C 0.8551(3) -0.0129(3) 0.06300(9)
H17 H 0.8814 -0.0720 0.0894
H18 H 0.8583 0.0707 0.0765
H19 H 0.9410 -0.0205 0.0365
C19 C 0.6788(3) -0.1690(2) 0.01589(9)
H20 H 0.7514 -0.1637 -0.0138
H21 H 0.5621 -0.1951 0.0065
H22 H 0.7285 -0.2289 0.0390
C20 C 0.5958(3) 0.1543(2) 0.13659(8)
H23 H 0.6886 0.1870 0.1156
H24 H 0.6444 0.0956 0.1604
H25 H 0.5403 0.2219 0.1546
C21 C 0.5367(4) -0.0105(2) -0.08048(8)
C22 C 0.3796(5) -0.0375(3) -0.11170(9)
H26 H 0.3732 0.0215 -0.1391
H27 H 0.2754 -0.0307 -0.0912
H28 H 0.3880 -0.1210 -0.1251
O1 O 0.6863(3) -0.0137(2) -0.09495(7)
O2 O 0.49251(17) 0.01831(14) -0.03297(4)
O3 O 0.4142(2) -0.24434(13) 0.19548(5)
H29 H 0.4361 -0.3143 0.1842
O4 O 0.0917(2) 0.23512(14) 0.12212(6)
O5 O 0.3743(2) -0.07891(15) 0.26429(5)
H30 H 0.4024 -0.1461 0.2515
O6 O 0.00796(18) -0.15301(13) 0.17496(5)
H31 H 0.504(5) -0.020(3) 0.3242(12)
H32 H 0.621(3) 0.013(4) 0.3603(14)
O7 O 0.5265(3) 0.03382(18) 0.34611(8)
loop_
_geom_bond_atom_site_label_1
_geom_bond_atom_site_label_2
_geom_bond_site_symmetry_1
_geom_bond_site_symmetry_2
C1 H1 1_555 1_555
H2 C1 1_555 1_555
C2 C1 1_555 1_555
H3 C2 1_555 1_555
H4 C2 1_555 1_555
C3 C2 1_555 1_555
H5 C3 1_555 1_555
C4 C3 1_555 1_555
C5 C4 1_555 1_555
H6 C5 1_555 1_555
C6 C5 1_555 1_555
H7 C6 1_555 1_555
H8 C6 1_555 1_555
C7 C6 1_555 1_555
H9 C7 1_555 1_555
C8 C7 1_555 1_555
C9 C8 1_555 1_555
H10 C9 1_555 1_555
C10 C1 1_555 1_555
C11 C9 1_555 1_555
C12 C11 1_555 1_555
H11 C12 1_555 1_555
H12 C12 1_555 1_555
C13 C12 1_555 1_555
H13 C13 1_555 1_555
C14 C8 1_555 1_555
H14 C14 1_555 1_555
C15 C8 1_555 1_555
C16 C13 1_555 1_555
C17 C16 1_555 1_555
H15 C17 1_555 1_555
H16 C17 1_555 1_555
C18 C4 1_555 1_555
H17 C18 1_555 1_555
H18 C18 1_555 1_555
H19 C18 1_555 1_555
C19 C4 1_555 1_555
H20 C19 1_555 1_555
H21 C19 1_555 1_555
H22 C19 1_555 1_555
C20 C10 1_555 1_555
H23 C20 1_555 1_555
H24 C20 1_555 1_555
H25 C20 1_555 1_555
C21 C22 1_555 1_555
C22 H26 1_555 1_555
H27 C22 1_555 1_555
H28 C22 1_555 1_555
O1 C21 1_555 1_555
O2 C3 1_555 1_555
O3 C7 1_555 1_555
H29 O3 1_555 1_555
O4 C11 1_555 1_555
O5 C14 1_555 1_555
H30 O5 1_555 1_555
O6 C15 1_555 1_555
H31 O7 1_555 1_555
H32 O7 1_555 1_555
C5 C10 1_555 1_555
C9 C10 1_555 1_555
C13 C14 1_555 1_555
C15 C16 1_555 1_555
C21 O2 1_555 1_555

#END
