
#######################################################################
#
#                 Cambridge Crystallographic Data Centre
#                                CCDC 
#
#######################################################################
#
# If this CIF has been generated from an entry in the Cambridge 
# Structural Database, then it will include bibliographic, chemical, 
# crystal, experimental, refinement or atomic coordinate data resulting 
# from the CCDC's data processing and validation procedures.
#
#######################################################################

data_RIMNIM
_chemical_compound_source        'aerial parts of Isodon rosthornii'
_chemical_name_common            'isorosthin B'
_chemical_formula_moiety         'C22 H26 O7'
_chemical_name_systematic        
'17-Formyl-8-hydroxy-10,10-dimethyl-3-methylene-15-oxo-7,14-dioxapentacyclo[7.6.2.1^1,4^.0^6,16^.0^13,17^]octadec-6(16)-en-2-yl acetate'
_symmetry_cell_setting           orthorhombic
_symmetry_space_group_name_H-M   'P 21 21 21'
_symmetry_Int_Tables_number      19
_space_group_name_Hall           'P 2ac 2ab'
loop_
_symmetry_equiv_pos_site_id
_symmetry_equiv_pos_as_xyz
1 x,y,z
2 1/2+x,1/2-y,-z
3 -x,1/2+y,1/2-z
4 1/2-x,-y,1/2+z
_cell_length_a                   10.800(2)
_cell_length_b                   12.432(3)
_cell_length_c                   14.828(3)
_cell_angle_alpha                90
_cell_angle_beta                 90
_cell_angle_gamma                90
_cell_volume                     1990.89
_exptl_crystal_colour            colorless
_exptl_crystal_description       prism
_cell_formula_units_Z            4
loop_
_atom_site_label
_atom_site_type_symbol
_atom_site_fract_x
_atom_site_fract_y
_atom_site_fract_z
O1 O 0.49580(13) 1.10525(10) 0.08966(10)
O2 O 0.23651(13) 0.83381(11) 0.05491(9)
O3 O 0.11195(14) 0.98268(12) 0.03118(9)
H1 H 0.0948 0.9659 -0.0223
O4 O 0.37505(12) 1.02299(13) 0.33859(9)
O5 O 0.57353(13) 1.04795(15) 0.32683(10)
O6 O 0.27034(15) 1.17768(12) 0.21771(13)
C1 C 0.5451(2) 1.20381(19) 0.07998(16)
C2 C 0.56759(16) 1.02327(16) 0.13512(13)
H2 H 0.6372 1.0571 0.1693
C3 C 0.48313(15) 0.95925(15) 0.20025(12)
C4 C 0.35678(15) 0.93572(14) 0.15975(11)
C5 C 0.24549(15) 0.98500(13) 0.20499(11)
C6 C 0.13113(16) 0.91652(15) 0.18138(11)
H3 H 0.1491 0.8455 0.2103
C7 C 0.01024(17) 0.95365(17) 0.22807(13)
C8 C 0.03714(19) 0.9534(3) 0.32994(14)
H4 H -0.0353 0.9843 0.3617
H5 H 0.0459 0.8779 0.3501
O7 O 0.6475(2) 1.22583(16) 0.10329(18)
C9 C 0.61743(17) 0.93887(18) 0.07082(14)
C10 C 0.69065(19) 0.9597(2) 0.00125(16)
H6 H 0.7222 0.9024 -0.0343
H7 H 0.7116 1.0320 -0.0130
C11 C 0.5748(2) 0.83052(17) 0.10320(14)
H8 H 0.6398 0.7745 0.0933
C12 C 0.55404(18) 0.85110(16) 0.20429(13)
H9 H 0.6333 0.8582 0.2372
H10 H 0.5035 0.7937 0.2323
C13 C 0.34597(18) 0.86326(15) 0.09467(13)
C14 C 0.12658(18) 0.89038(16) 0.08192(12)
H11 H 0.0537 0.8426 0.0708
C15 C -0.0918(2) 0.8706(2) 0.21010(19)
H12 H -0.1623 0.8847 0.2500
H13 H -0.0597 0.7982 0.2217
H14 H -0.1187 0.8759 0.1471
C16 C 0.1530(2) 1.0157(3) 0.35872(14)
H15 H 0.1422 1.0933 0.3459
H16 H 0.1672 1.0068 0.4243
C17 C 0.26255(17) 0.97203(18) 0.30627(12)
H17 H 0.2690 0.8933 0.3194
C18 C 0.48142(17) 1.01390(16) 0.29209(12)
C19 C 0.24197(16) 1.10124(14) 0.17287(14)
H18 H 0.2153 1.1142 0.1128
C20 C -0.03745(19) 1.06337(19) 0.19822(16)
H19 H -0.0533 1.0623 0.1331
H20 H 0.0247 1.1184 0.2120
H21 H -0.1144 1.0799 0.2303
C21 C 0.45162(19) 0.79805(17) 0.05890(14)
H22 H 0.4577 0.8084 -0.0072
H23 H 0.4357 0.7209 0.0705
C22 C 0.4557(3) 1.2782(2) 0.0362(2)
H24 H 0.3942 1.3018 0.0806
H25 H 0.4139 1.2410 -0.0134
H26 H 0.5001 1.3409 0.0126
loop_
_geom_bond_atom_site_label_1
_geom_bond_atom_site_label_2
_geom_bond_site_symmetry_1
_geom_bond_site_symmetry_2
O1 C1 1_555 1_555
O2 C13 1_555 1_555
O3 H1 1_555 1_555
O4 C17 1_555 1_555
O5 C18 1_555 1_555
O6 C19 1_555 1_555
C1 O7 1_555 1_555
C2 O1 1_555 1_555
H2 C2 1_555 1_555
C3 C2 1_555 1_555
C4 C3 1_555 1_555
C5 C4 1_555 1_555
C6 C5 1_555 1_555
H3 C6 1_555 1_555
C7 C6 1_555 1_555
C8 C7 1_555 1_555
H4 C8 1_555 1_555
H5 C8 1_555 1_555
C9 C2 1_555 1_555
C10 C9 1_555 1_555
H6 C10 1_555 1_555
H7 C10 1_555 1_555
C11 C9 1_555 1_555
H8 C11 1_555 1_555
C12 C3 1_555 1_555
H9 C12 1_555 1_555
H10 C12 1_555 1_555
C13 C4 1_555 1_555
C14 O2 1_555 1_555
H11 C14 1_555 1_555
C15 C7 1_555 1_555
H12 C15 1_555 1_555
H13 C15 1_555 1_555
H14 C15 1_555 1_555
C16 C8 1_555 1_555
H15 C16 1_555 1_555
H16 C16 1_555 1_555
C17 C5 1_555 1_555
H17 C17 1_555 1_555
C18 O4 1_555 1_555
C19 C5 1_555 1_555
H18 C19 1_555 1_555
C20 C7 1_555 1_555
H19 C20 1_555 1_555
H20 C20 1_555 1_555
H21 C20 1_555 1_555
C21 C11 1_555 1_555
H22 C21 1_555 1_555
H23 C21 1_555 1_555
C22 C1 1_555 1_555
H24 C22 1_555 1_555
H25 C22 1_555 1_555
H26 C22 1_555 1_555
O3 C14 1_555 1_555
C3 C18 1_555 1_555
C6 C14 1_555 1_555
C11 C12 1_555 1_555
C13 C21 1_555 1_555
C16 C17 1_555 1_555

#END
