
#######################################################################
#
#                 Cambridge Crystallographic Data Centre
#                                CCDC 
#
#######################################################################
#
# If this CIF has been generated from an entry in the Cambridge 
# Structural Database, then it will include bibliographic, chemical, 
# crystal, experimental, refinement or atomic coordinate data resulting 
# from the CCDC's data processing and validation procedures.
#
#######################################################################

data_RIMPEK
_chemical_compound_source        'aerial parts of Hypericum cohaerens'
_chemical_name_common            'Hypercohin B'
_chemical_formula_moiety         'C40 H62 O7'
_chemical_name_systematic        
6-((4-(Hydroxymethyl)-3,3,5,5-tetramethyltetrahydrofuran-2-yl)methyl)-3-(2-hydroxypropan-2-yl)-8-isobutyryl-9-methyl-10-(3-methylbut-2-en-1-yl)-9-(4-methylpent-3-en-1-yl)-4-oxatricyclo[6.3.1.0^1,5^]dodec-5-ene-7,12-dione
_chemical_properties_biological  'antitumour activity'
_symmetry_cell_setting           orthorhombic
_symmetry_space_group_name_H-M   'P 21 21 21'
_symmetry_Int_Tables_number      19
_space_group_name_Hall           'P 2ac 2ab'
loop_
_symmetry_equiv_pos_site_id
_symmetry_equiv_pos_as_xyz
1 x,y,z
2 1/2+x,1/2-y,-z
3 -x,1/2+y,1/2-z
4 1/2-x,-y,1/2+z
_cell_length_a                   12.2253(2)
_cell_length_b                   16.6218(2)
_cell_length_c                   18.6036(3)
_cell_angle_alpha                90
_cell_angle_beta                 90
_cell_angle_gamma                90
_cell_volume                     3780.37
_exptl_crystal_colour            colorless
_exptl_crystal_description       needle
_chemical_melting_point          '156-157 deg.C'
_cell_formula_units_Z            4
loop_
_atom_site_label
_atom_site_type_symbol
_atom_site_fract_x
_atom_site_fract_y
_atom_site_fract_z
O1 O 0.14381(11) 0.62802(8) 0.05316(8)
O2 O 0.25676(11) 0.41713(9) -0.05996(7)
O3 O 0.50445(13) 0.34904(9) -0.08475(8)
O4 O 0.31328(12) 0.63969(10) 0.15860(8)
H1 H 0.2592 0.6329 0.1314
O5 O 0.20904(11) 0.49431(8) 0.18068(7)
O6 O 0.54228(12) 0.44906(9) 0.09190(8)
C1 C 0.3543(2) 0.12608(13) -0.17777(13)
C2 C 0.32045(19) 0.13515(13) -0.11060(12)
H2 H 0.2473 0.1192 -0.1008
C3 C 0.38412(19) 0.16765(13) -0.04825(12)
H3 H 0.4608 0.1774 -0.0631
H4 H 0.3846 0.1276 -0.0088
C4 C 0.33350(17) 0.24633(12) -0.02139(12)
H5 H 0.2575 0.2348 -0.0061
H6 H 0.3293 0.2839 -0.0626
C5 C 0.39234(16) 0.29070(12) 0.04170(11)
C6 C 0.40179(16) 0.38447(12) 0.02177(11)
C7 C 0.28655(16) 0.41842(12) 0.00306(11)
C8 C 0.21837(16) 0.45308(12) 0.05914(11)
C9 C 0.10765(15) 0.48597(12) 0.03905(10)
H7 H 0.0627 0.4917 0.0830
H8 H 0.0704 0.4472 0.0069
C10 C 0.11524(16) 0.56690(12) 0.00170(11)
H9 H 0.1746 0.5639 -0.0352
C11 C 0.00961(17) 0.59744(12) -0.03540(11)
C12 C 0.01405(17) 0.69005(12) -0.02051(11)
H10 H -0.0445 0.7015 0.0156
C13 C 0.12395(18) 0.70509(12) 0.01797(12)
C14 C 0.47399(16) 0.40200(12) -0.04514(11)
C15 C 0.50565(17) 0.48891(12) -0.06034(11)
H11 H 0.4785 0.5239 -0.0204
C16 C 0.4560(2) 0.51733(15) -0.13137(12)
H12 H 0.4812 0.4824 -0.1705
H13 H 0.4789 0.5728 -0.1409
H14 H 0.3760 0.5150 -0.1283
C17 C 0.63083(18) 0.49430(15) -0.06397(14)
H15 H 0.6619 0.4805 -0.0170
H16 H 0.6524 0.5492 -0.0770
H17 H 0.6582 0.4566 -0.1003
C18 C 0.50896(17) 0.25860(13) 0.05624(12)
H18 H 0.5056 0.2008 0.0663
H19 H 0.5403 0.2867 0.0977
H20 H 0.5549 0.2680 0.0139
C19 C 0.4689(2) 0.14485(17) -0.20283(14)
H21 H 0.5072 0.1757 -0.1656
H22 H 0.4656 0.1766 -0.2472
H23 H 0.5083 0.0945 -0.2119
C20 C 0.32206(17) 0.28293(12) 0.11155(11)
H24 H 0.2462 0.2999 0.0984
C21 C 0.31339(19) 0.19543(14) 0.13910(12)
H25 H 0.3008 0.1590 0.0978
H26 H 0.3834 0.1799 0.1619
C22 C 0.22252(18) 0.18536(13) 0.19230(12)
H27 H 0.1530 0.2049 0.1777
C23 C 0.22671(18) 0.15246(13) 0.25749(12)
C24 C 0.35837(17) 0.33815(13) 0.17297(11)
H28 H 0.4296 0.3191 0.1917
H29 H 0.3044 0.3346 0.2125
C25 C 0.36977(16) 0.42747(13) 0.14944(11)
C26 C 0.39929(17) 0.48621(14) 0.20969(11)
H30 H 0.4495 0.5285 0.1919
H31 H 0.4348 0.4577 0.2501
C27 C 0.28943(16) 0.52295(13) 0.23343(11)
H32 H 0.2697 0.5034 0.2826
C28 C 0.28520(17) 0.61466(13) 0.23094(11)
C29 C 0.17201(18) 0.64558(14) 0.24992(13)
H33 H 0.1701 0.7042 0.2443
H34 H 0.1550 0.6315 0.2998
H35 H 0.1179 0.6210 0.2179
C30 C 0.36995(19) 0.65124(15) 0.28123(13)
H36 H 0.4432 0.6337 0.2667
H37 H 0.3555 0.6336 0.3306
H38 H 0.3657 0.7101 0.2788
C31 C 0.26115(16) 0.45884(12) 0.12561(11)
C32 C 0.44857(16) 0.42582(12) 0.08728(11)
C33 C 0.0158(2) 0.57457(16) -0.11513(13)
H39 H 0.0197 0.5159 -0.1197
H40 H 0.0812 0.5988 -0.1366
H41 H -0.0495 0.5944 -0.1400
C34 C -0.09500(18) 0.56458(14) -0.00287(15)
H42 H -0.1578 0.5939 -0.0225
H43 H -0.0929 0.5713 0.0494
H44 H -0.1018 0.5073 -0.0145
C35 C 0.2185(2) 0.72449(15) -0.03238(15)
H45 H 0.2878 0.7195 -0.0063
H46 H 0.2106 0.7796 -0.0503
H47 H 0.2179 0.6869 -0.0729
C36 C 0.1264(2) 0.14804(18) 0.30356(15)
H48 H 0.0658 0.1756 0.2794
H49 H 0.1409 0.1740 0.3499
H50 H 0.1069 0.0916 0.3115
C37 C 0.3268(2) 0.11716(18) 0.29066(14)
H51 H 0.3784 0.1017 0.2528
H52 H 0.3068 0.0696 0.3188
H53 H 0.3612 0.1570 0.3222
C38 C 0.1156(2) 0.76781(14) 0.07707(14)
H54 H 0.0603 0.7511 0.1121
H55 H 0.0946 0.8196 0.0561
H56 H 0.1866 0.7732 0.1011
C39 C 0.2794(3) 0.09601(17) -0.23580(15)
H57 H 0.2073 0.0845 -0.2153
H58 H 0.3099 0.0468 -0.2568
H59 H 0.2723 0.1371 -0.2733
C40 C -0.01044(19) 0.74288(13) -0.08521(12)
H60 H 0.0475 0.7361 -0.1219
H61 H -0.0811 0.7268 -0.1069
O7 O -0.01545(14) 0.82451(9) -0.06332(9)
H62 H -0.0614 0.8491 -0.0887
loop_
_geom_bond_atom_site_label_1
_geom_bond_atom_site_label_2
_geom_bond_site_symmetry_1
_geom_bond_site_symmetry_2
O1 C10 1_555 1_555
O2 C7 1_555 1_555
O3 C14 1_555 1_555
O4 H1 1_555 1_555
O5 C27 1_555 1_555
O6 C32 1_555 1_555
C1 C2 1_555 1_555
C2 H2 1_555 1_555
C3 C2 1_555 1_555
H3 C3 1_555 1_555
H4 C3 1_555 1_555
C4 C3 1_555 1_555
H5 C4 1_555 1_555
H6 C4 1_555 1_555
C5 C4 1_555 1_555
C6 C5 1_555 1_555
C7 C6 1_555 1_555
C8 C7 1_555 1_555
C9 C8 1_555 1_555
H7 C9 1_555 1_555
H8 C9 1_555 1_555
C10 C9 1_555 1_555
H9 C10 1_555 1_555
C11 C10 1_555 1_555
C12 C11 1_555 1_555
H10 C12 1_555 1_555
C13 O1 1_555 1_555
C14 C6 1_555 1_555
C15 C14 1_555 1_555
H11 C15 1_555 1_555
C16 C15 1_555 1_555
H12 C16 1_555 1_555
H13 C16 1_555 1_555
H14 C16 1_555 1_555
C17 C15 1_555 1_555
H15 C17 1_555 1_555
H16 C17 1_555 1_555
H17 C17 1_555 1_555
C18 C5 1_555 1_555
H18 C18 1_555 1_555
H19 C18 1_555 1_555
H20 C18 1_555 1_555
C19 C1 1_555 1_555
H21 C19 1_555 1_555
H22 C19 1_555 1_555
H23 C19 1_555 1_555
C20 C5 1_555 1_555
H24 C20 1_555 1_555
C21 C20 1_555 1_555
H25 C21 1_555 1_555
H26 C21 1_555 1_555
C22 C21 1_555 1_555
H27 C22 1_555 1_555
C23 C22 1_555 1_555
C24 C20 1_555 1_555
H28 C24 1_555 1_555
H29 C24 1_555 1_555
C25 C24 1_555 1_555
C26 C25 1_555 1_555
H30 C26 1_555 1_555
H31 C26 1_555 1_555
C27 C26 1_555 1_555
H32 C27 1_555 1_555
C28 O4 1_555 1_555
C29 C28 1_555 1_555
H33 C29 1_555 1_555
H34 C29 1_555 1_555
H35 C29 1_555 1_555
C30 C28 1_555 1_555
H36 C30 1_555 1_555
H37 C30 1_555 1_555
H38 C30 1_555 1_555
C31 O5 1_555 1_555
C32 C6 1_555 1_555
C33 C11 1_555 1_555
H39 C33 1_555 1_555
H40 C33 1_555 1_555
H41 C33 1_555 1_555
C34 C11 1_555 1_555
H42 C34 1_555 1_555
H43 C34 1_555 1_555
H44 C34 1_555 1_555
C35 C13 1_555 1_555
H45 C35 1_555 1_555
H46 C35 1_555 1_555
H47 C35 1_555 1_555
C36 C23 1_555 1_555
H48 C36 1_555 1_555
H49 C36 1_555 1_555
H50 C36 1_555 1_555
C37 C23 1_555 1_555
H51 C37 1_555 1_555
H52 C37 1_555 1_555
H53 C37 1_555 1_555
C38 C13 1_555 1_555
H54 C38 1_555 1_555
H55 C38 1_555 1_555
H56 C38 1_555 1_555
C39 C1 1_555 1_555
H57 C39 1_555 1_555
H58 C39 1_555 1_555
H59 C39 1_555 1_555
C40 C12 1_555 1_555
H60 C40 1_555 1_555
H61 C40 1_555 1_555
O7 C40 1_555 1_555
H62 O7 1_555 1_555
C8 C31 1_555 1_555
C12 C13 1_555 1_555
C25 C31 1_555 1_555
C25 C32 1_555 1_555
C27 C28 1_555 1_555

#END
