
#######################################################################
#
#                 Cambridge Crystallographic Data Centre
#                                CCDC 
#
#######################################################################
#
# If this CIF has been generated from an entry in the Cambridge 
# Structural Database, then it will include bibliographic, chemical, 
# crystal, experimental, refinement or atomic coordinate data resulting 
# from the CCDC's data processing and validation procedures.
#
#######################################################################

data_RIMQOV
_chemical_compound_source        'Cinnamomum wilsonii'
_chemical_name_common            'Wilsonol D'
_chemical_formula_moiety         'C13 H24 O3'
_chemical_name_systematic        
4-(3-Hydroxybut-1-en-1-yl)-5-(hydroxymethyl)-3,3-dimethylcyclohexanol
_symmetry_cell_setting           orthorhombic
_symmetry_space_group_name_H-M   'P 21 21 21'
_symmetry_Int_Tables_number      19
_space_group_name_Hall           'P 2ac 2ab'
loop_
_symmetry_equiv_pos_site_id
_symmetry_equiv_pos_as_xyz
1 x,y,z
2 1/2+x,1/2-y,-z
3 -x,1/2+y,1/2-z
4 1/2-x,-y,1/2+z
_cell_length_a                   8.6241(2)
_cell_length_b                   9.7034(2)
_cell_length_c                   15.9697(3)
_cell_angle_alpha                90
_cell_angle_beta                 90
_cell_angle_gamma                90
_cell_volume                     1336.39
_cell_formula_units_Z            4
loop_
_atom_site_label
_atom_site_type_symbol
_atom_site_fract_x
_atom_site_fract_y
_atom_site_fract_z
C1 C 0.73734(13) 0.88382(11) 0.24716(6)
C2 C 0.67206(15) 0.93344(13) 0.16270(7)
H1 H 0.5607 0.9195 0.1623
H2 H 0.6913 1.0315 0.1571
C3 C 0.74237(14) 0.85942(13) 0.08833(7)
H3 H 0.7186 0.7608 0.0920
C4 C 0.91600(14) 0.87920(13) 0.08719(7)
H4 H 0.9389 0.9761 0.0787
H5 H 0.9593 0.8284 0.0404
C5 C 0.99345(13) 0.83072(10) 0.16814(7)
H6 H 0.9806 0.7306 0.1724
C6 C 0.91738(13) 0.89802(10) 0.24579(6)
H7 H 0.9398 0.9969 0.2423
C7 C 0.99014(14) 0.84751(11) 0.32602(7)
H8 H 0.9727 0.7560 0.3406
C8 C 1.07556(14) 0.92094(11) 0.37696(7)
H9 H 1.0935 1.0121 0.3619
C9 C 1.14738(14) 0.87250(13) 0.45730(7)
H10 H 1.1049 0.7818 0.4716
C10 C 1.32118(18) 0.8626(2) 0.45266(10)
H11 H 1.3636 0.9514 0.4394
H12 H 1.3498 0.7978 0.4100
H13 H 1.3611 0.8322 0.5057
C11 C 0.68407(16) 0.73531(14) 0.26417(8)
H14 H 0.7078 0.7110 0.3210
H15 H 0.7368 0.6736 0.2268
H16 H 0.5742 0.7285 0.2553
C12 C 0.67073(17) 0.97663(16) 0.31589(8)
H17 H 0.5595 0.9739 0.3138
H18 H 0.7055 1.0696 0.3074
H19 H 0.7054 0.9446 0.3696
C13 C 1.16647(14) 0.86274(13) 0.16572(7)
H20 H 1.1810 0.9619 0.1660
H21 H 1.2153 0.8258 0.2156
O1 O 0.67395(12) 0.91533(12) 0.01388(5)
H22 H 0.6896 0.8629 -0.0255
O2 O 1.23974(11) 0.80624(10) 0.09385(5)
H23 H 1.2710 0.8689 0.0638
O3 O 1.11341(11) 0.96676(12) 0.52329(6)
H24 H 1.0241 0.9947 0.5183
loop_
_geom_bond_atom_site_label_1
_geom_bond_atom_site_label_2
_geom_bond_site_symmetry_1
_geom_bond_site_symmetry_2
C1 C2 1_555 1_555
C2 H1 1_555 1_555
H2 C2 1_555 1_555
C3 C2 1_555 1_555
H3 C3 1_555 1_555
C4 C3 1_555 1_555
H4 C4 1_555 1_555
H5 C4 1_555 1_555
C5 C4 1_555 1_555
H6 C5 1_555 1_555
C6 C1 1_555 1_555
H7 C6 1_555 1_555
C7 C6 1_555 1_555
H8 C7 1_555 1_555
C8 C7 1_555 1_555
H9 C8 1_555 1_555
C9 C8 1_555 1_555
H10 C9 1_555 1_555
C10 C9 1_555 1_555
H11 C10 1_555 1_555
H12 C10 1_555 1_555
H13 C10 1_555 1_555
C11 C1 1_555 1_555
H14 C11 1_555 1_555
H15 C11 1_555 1_555
H16 C11 1_555 1_555
C12 C1 1_555 1_555
H17 C12 1_555 1_555
H18 C12 1_555 1_555
H19 C12 1_555 1_555
C13 C5 1_555 1_555
H20 C13 1_555 1_555
H21 C13 1_555 1_555
O1 C3 1_555 1_555
H22 O1 1_555 1_555
O2 C13 1_555 1_555
H23 O2 1_555 1_555
O3 C9 1_555 1_555
H24 O3 1_555 1_555
C5 C6 1_555 1_555

#END
