
#######################################################################
#
#                 Cambridge Crystallographic Data Centre
#                                CCDC 
#
#######################################################################
#
# If this CIF has been generated from an entry in the Cambridge 
# Structural Database, then it will include bibliographic, chemical, 
# crystal, experimental, refinement or atomic coordinate data resulting 
# from the CCDC's data processing and validation procedures.
#
#######################################################################

data_RIMSUD01
_chemical_compound_source        'fermentation broth of Penicillium camemberti'
_chemical_name_common            'Emindole SB'
_chemical_formula_moiety         'C28 H39 N1 O1,C2 H6 O1 S1'
_chemical_name_systematic        
'4,12b,12c-Trimethyl-4-(4-methylpent-3-en-1-yl)-1,2,3,4,4a,5,6,6a,7,12,12b,12c-dodecahydrobenzo[6,7]indeno[1,2-b]indol-3-ol dimethyl sulfoxide solvate'
_symmetry_cell_setting           orthorhombic
_symmetry_space_group_name_H-M   'P 21 21 21'
_symmetry_Int_Tables_number      19
_space_group_name_Hall           'P 2ac 2ab'
loop_
_symmetry_equiv_pos_site_id
_symmetry_equiv_pos_as_xyz
1 x,y,z
2 1/2-x,-y,1/2+z
3 -x,1/2+y,1/2-z
4 1/2+x,1/2-y,-z
_cell_length_a                   8.1683(2)
_cell_length_b                   12.8017(4)
_cell_length_c                   26.8302(8)
_cell_angle_alpha                90
_cell_angle_beta                 90
_cell_angle_gamma                90
_cell_volume                     2805.58
_cell_formula_units_Z            4
loop_
_atom_site_label
_atom_site_type_symbol
_atom_site_fract_x
_atom_site_fract_y
_atom_site_fract_z
S1 S 0.06879(7) 0.24837(6) 0.83323(2)
O1 O -0.0982(2) 0.28737(16) 0.81978(6)
C1 C 0.1833(4) 0.3584(3) 0.85227(17)
H1 H 0.1926 0.4065 0.8250
H2 H 0.2905 0.3365 0.8625
H3 H 0.1289 0.3920 0.8796
C2 C 0.0496(6) 0.1846(4) 0.89192(15)
H4 H 0.0075 0.2330 0.9161
H5 H 0.1551 0.1600 0.9025
H6 H -0.0240 0.1265 0.8888
O2 O 1.1148(2) 0.79358(15) 0.78791(7)
H7 H 1.1220 0.7852 0.7577
N1 N 0.6522(2) 0.35871(14) 0.89170(6)
H8 H 0.7196 0.3495 0.8675
C3 C 0.6705(3) 1.0290(2) 0.79150(10)
H9 H 0.7578 1.0724 0.7832
C4 C 0.7113(4) 0.9180(2) 0.80417(14)
H10 H 0.7352 0.8802 0.7737
H11 H 0.6167 0.8855 0.8196
C5 C 0.8578(3) 0.90909(18) 0.83947(10)
H12 H 0.8318 0.9468 0.8698
H13 H 0.9502 0.9441 0.8241
C6 C 0.6910(3) 0.7844(2) 0.92331(10)
H14 H 0.7700 0.7801 0.9502
H15 H 0.6702 0.8578 0.9168
C7 C 0.5308(3) 0.73244(19) 0.94017(10)
H16 H 0.4955 0.7619 0.9717
H17 H 0.4456 0.7447 0.9157
C8 C 0.4276(3) 0.54228(19) 0.96666(8)
H18 H 0.4217 0.5453 1.0027
H19 H 0.3207 0.5571 0.9526
C9 C 0.3728(3) 0.2649(2) 0.98494(8)
H20 H 0.3028 0.2944 1.0084
C10 C 0.3819(4) 0.1589(2) 0.98000(10)
H21 H 0.3182 0.1165 1.0004
C11 C 0.4855(4) 0.1130(2) 0.94467(9)
H22 H 0.4906 0.0405 0.9424
C12 C 0.5803(3) 0.17290(19) 0.91312(9)
H23 H 0.6477 0.1421 0.8894
C13 C 0.8496(3) 0.57018(16) 0.83137(8)
H24 H 0.8725 0.4962 0.8348
H25 H 0.7627 0.5780 0.8070
C14 C 1.0025(3) 0.62516(19) 0.81225(9)
H26 H 1.0917 0.6146 0.8356
H27 H 1.0344 0.5953 0.7805
C15 C 1.0577(3) 0.8096(2) 0.89068(10)
H28 H 1.1079 0.7430 0.8965
H29 H 1.0184 0.8377 0.9216
H30 H 1.1367 0.8565 0.8765
C16 C 0.4879(3) 0.58074(19) 0.85423(8)
H31 H 0.5131 0.5357 0.8267
H32 H 0.4875 0.6520 0.8432
H33 H 0.3820 0.5631 0.8673
C17 C 0.9148(3) 0.58159(19) 0.92204(8)
H34 H 0.8979 0.5099 0.9312
H35 H 0.9009 0.6252 0.9508
H36 H 1.0237 0.5901 0.9092
C18 C 0.5252(3) 1.07097(19) 0.79085(8)
C19 C 0.5028(4) 1.1841(2) 0.77846(10)
H37 H 0.4510 1.2190 0.8059
H38 H 0.4355 1.1905 0.7493
H39 H 0.6077 1.2154 0.7722
C20 C 0.3705(4) 1.0145(3) 0.80477(17)
H40 H 0.3607 0.9521 0.7851
H41 H 0.2780 1.0590 0.7986
H42 H 0.3738 0.9964 0.8395
C21 C 0.9131(3) 0.79641(17) 0.85426(8)
C22 C 0.5603(3) 0.61651(18) 0.94587(8)
H43 H 0.6534 0.6102 0.9687
C23 C 0.4938(3) 0.43872(18) 0.94870(7)
C24 C 0.5716(3) 0.28101(17) 0.91809(7)
C25 C 0.6047(2) 0.45272(16) 0.91124(7)
C26 C 0.9712(2) 0.74141(19) 0.80601(8)
H44 H 0.8850 0.7498 0.7809
C27 C 0.7659(2) 0.73451(16) 0.87618(7)
H45 H 0.6800 0.7414 0.8509
C28 C 0.4699(3) 0.32939(18) 0.95440(7)
C29 C 0.6187(2) 0.56675(16) 0.89553(7)
C30 C 0.7900(2) 0.61293(16) 0.88194(7)
loop_
_geom_bond_atom_site_label_1
_geom_bond_atom_site_label_2
_geom_bond_site_symmetry_1
_geom_bond_site_symmetry_2
S1 O1 1_555 1_555
C1 S1 1_555 1_555
H1 C1 1_555 1_555
H2 C1 1_555 1_555
H3 C1 1_555 1_555
C2 S1 1_555 1_555
H4 C2 1_555 1_555
H5 C2 1_555 1_555
H6 C2 1_555 1_555
O2 H7 1_555 1_555
N1 H8 1_555 1_555
C3 H9 1_555 1_555
C4 C3 1_555 1_555
H10 C4 1_555 1_555
H11 C4 1_555 1_555
C5 C4 1_555 1_555
H12 C5 1_555 1_555
H13 C5 1_555 1_555
C6 H14 1_555 1_555
H15 C6 1_555 1_555
C7 C6 1_555 1_555
H16 C7 1_555 1_555
H17 C7 1_555 1_555
C8 H18 1_555 1_555
H19 C8 1_555 1_555
C9 H20 1_555 1_555
C10 C9 1_555 1_555
H21 C10 1_555 1_555
C11 C10 1_555 1_555
H22 C11 1_555 1_555
C12 C11 1_555 1_555
H23 C12 1_555 1_555
C13 H24 1_555 1_555
H25 C13 1_555 1_555
C14 C13 1_555 1_555
H26 C14 1_555 1_555
H27 C14 1_555 1_555
C15 H28 1_555 1_555
H29 C15 1_555 1_555
H30 C15 1_555 1_555
C16 H31 1_555 1_555
H32 C16 1_555 1_555
H33 C16 1_555 1_555
C17 H34 1_555 1_555
H35 C17 1_555 1_555
H36 C17 1_555 1_555
C18 C3 1_555 1_555
C19 C18 1_555 1_555
H37 C19 1_555 1_555
H38 C19 1_555 1_555
H39 C19 1_555 1_555
C20 C18 1_555 1_555
H40 C20 1_555 1_555
H41 C20 1_555 1_555
H42 C20 1_555 1_555
C21 C5 1_555 1_555
C22 C7 1_555 1_555
H43 C22 1_555 1_555
C23 C8 1_555 1_555
C24 N1 1_555 1_555
C25 N1 1_555 1_555
C26 O2 1_555 1_555
H44 C26 1_555 1_555
C27 C6 1_555 1_555
H45 C27 1_555 1_555
C28 C9 1_555 1_555
C29 C16 1_555 1_555
C30 C13 1_555 1_555
C8 C22 1_555 1_555
C12 C24 1_555 1_555
C14 C26 1_555 1_555
C15 C21 1_555 1_555
C17 C30 1_555 1_555
C21 C26 1_555 1_555
C21 C27 1_555 1_555
C22 C29 1_555 1_555
C23 C25 1_555 1_555
C23 C28 1_555 1_555
C24 C28 1_555 1_555
C25 C29 1_555 1_555
C27 C30 1_555 1_555
C29 C30 1_555 1_555

#END
