
#######################################################################
#
#                 Cambridge Crystallographic Data Centre
#                                CCDC 
#
#######################################################################
#
# If this CIF has been generated from an entry in the Cambridge 
# Structural Database, then it will include bibliographic, chemical, 
# crystal, experimental, refinement or atomic coordinate data resulting 
# from the CCDC's data processing and validation procedures.
#
#######################################################################

data_RINBEV
_chemical_formula_moiety         'C10 H11 N1 O1'
_chemical_name_systematic        
endo-3-exo-Cyano-tricyclo(4.2.1.0^2,5^)nonan-7-one
_symmetry_cell_setting           monoclinic
_symmetry_space_group_name_H-M   'P 21/c'
_symmetry_Int_Tables_number      14
_space_group_name_Hall           '-P 2ybc'
loop_
_symmetry_equiv_pos_site_id
_symmetry_equiv_pos_as_xyz
1 x,y,z
2 -x,1/2+y,1/2-z
3 -x,-y,-z
4 x,1/2-y,1/2+z
_cell_length_a                   11.472(2)
_cell_length_b                   6.076(2)
_cell_length_c                   12.933(3)
_cell_angle_alpha                90
_cell_angle_beta                 111.18(3)
_cell_angle_gamma                90
_cell_volume                     840.585
_cell_formula_units_Z            4
loop_
_atom_site_label
_atom_site_type_symbol
_atom_site_fract_x
_atom_site_fract_y
_atom_site_fract_z
O1 O -0.0149(2) 0.1352(5) 0.8535(2)
N1 N 0.4698(2) 0.0427(4) 1.3245(2)
C1 C 0.2620(2) -0.1845(4) 0.9402(2)
C2 C 0.3370(2) -0.0264(3) 1.0321(2)
C3 C 0.2936(2) 0.0293(3) 1.1300(2)
C4 C 0.2496(2) 0.2584(4) 1.0779(2)
C5 C 0.2942(2) 0.2027(3) 0.9821(2)
C6 C 0.2006(2) 0.1503(4) 0.8637(2)
C7 C 0.0866(2) 0.0500(5) 0.8760(2)
C8 C 0.1234(2) -0.1775(4) 0.9219(2)
C9 C 0.2621(2) -0.0549(4) 0.8381(2)
C10 C 0.3929(2) 0.0354(4) 1.2393(2)
H1 H 0.2938 -0.3320 0.9541
H2 H 0.4193 -0.0891 1.0553
H3 H 0.2372 -0.0673 1.1475
H4 H 0.2930 0.3793 1.1234
H5 H 0.1611 0.2818 1.0549
H6 H 0.3432 0.3187 0.9677
H7 H 0.1824 0.2734 0.8138
H8 H 0.1099 -0.1971 0.9904
H9 H 0.0777 -0.2876 0.8698
H10 H 0.2128 -0.1232 0.7692
H11 H 0.3449 -0.0276 0.8388
loop_
_geom_bond_atom_site_label_1
_geom_bond_atom_site_label_2
_geom_bond_site_symmetry_1
_geom_bond_site_symmetry_2
O1 C7 1_555 1_555
N1 C10 1_555 1_555
C1 C2 1_555 1_555
C2 C3 1_555 1_555
C3 C4 1_555 1_555
C4 C5 1_555 1_555
C5 C2 1_555 1_555
C6 C5 1_555 1_555
C7 C6 1_555 1_555
C8 C1 1_555 1_555
C9 C1 1_555 1_555
C10 C3 1_555 1_555
H1 C1 1_555 1_555
H2 C2 1_555 1_555
H3 C3 1_555 1_555
H4 C4 1_555 1_555
H5 C4 1_555 1_555
H6 C5 1_555 1_555
H7 C6 1_555 1_555
H8 C8 1_555 1_555
H9 C8 1_555 1_555
H10 C9 1_555 1_555
H11 C9 1_555 1_555
C6 C9 1_555 1_555
C7 C8 1_555 1_555

#END
