
#######################################################################
#
#                 Cambridge Crystallographic Data Centre
#                                CCDC 
#
#######################################################################
#
# If this CIF has been generated from an entry in the Cambridge 
# Structural Database, then it will include bibliographic, chemical, 
# crystal, experimental, refinement or atomic coordinate data resulting 
# from the CCDC's data processing and validation procedures.
#
#######################################################################

data_RINHUR
_chemical_name_common            
(1alpha,2beta,6alpha,11R*)-2,14-Carboxy-1-(t-butyldimethylsilyl)oxy-6,14-benzoyloxy-3,4-carbonate-9-oxo-(7betaH)-5,11-epoxy-8-eudesmene
_chemical_formula_moiety         'C29 H36 O10 Si1'
_chemical_name_systematic        
2,11-Epoxy-3,4-carbonato-6-(dimethyl-t-butyl-silyl)-3,11-dimethyl-14-phenyl-13,15-dioxatricyclo(8.5.0.0^2,7^)pentadec-3-en-8-one-7,5-carbolactone
_symmetry_cell_setting           monoclinic
_symmetry_space_group_name_H-M   'P 21/c'
_symmetry_Int_Tables_number      14
_space_group_name_Hall           '-P 2ybc'
loop_
_symmetry_equiv_pos_site_id
_symmetry_equiv_pos_as_xyz
1 x,y,z
2 -x,1/2+y,1/2-z
3 -x,-y,-z
4 x,1/2-y,1/2+z
_cell_length_a                   12.947(3)
_cell_length_b                   10.980(2)
_cell_length_c                   20.621(4)
_cell_angle_alpha                90
_cell_angle_beta                 96.09(3)
_cell_angle_gamma                90
_cell_volume                     2914.9
_exptl_crystal_colour            colorless
_chemical_melting_point          210deg.C(dec)
_cell_formula_units_Z            4
loop_
_atom_site_label
_atom_site_type_symbol
_atom_site_fract_x
_atom_site_fract_y
_atom_site_fract_z
Si1 Si 0.1152(1) 0.0734(2) 0.1649(1)
O1 O 0.4193(2) -0.1212(3) 0.0806(1)
O2 O 0.5491(2) -0.3555(3) 0.1061(1)
O3 O 0.5320(2) -0.2568(3) 0.2332(1)
O4 O 0.5249(3) -0.0976(3) 0.2988(1)
O5 O 0.5903(2) -0.2228(3) 0.0237(2)
O6 O 0.3308(3) -0.1864(3) 0.2736(2)
O7 O 0.1828(2) -0.0477(3) 0.1887(2)
O8 O 0.5816(3) -0.2781(4) 0.3398(2)
C1 C 0.4219(3) -0.2003(4) 0.1354(2)
C2 C 0.3091(3) -0.1992(4) 0.1587(2)
C3 C 0.5058(3) -0.1532(4) 0.1892(2)
C4 C 0.3744(3) -0.3199(5) 0.0436(2)
C5 C 0.2880(3) -0.0670(4) 0.1799(2)
O9 O 0.2952(3) -0.3724(3) 0.2327(2)
C6 C 0.4670(3) -0.0609(4) 0.2377(2)
C7 C 0.3521(4) -0.0679(5) 0.2460(2)
C8 C 0.3994(4) -0.1915(5) 0.0201(2)
C9 C 0.3091(4) -0.2667(5) 0.2239(2)
C10 C 0.5489(4) -0.2167(5) 0.2949(3)
C11 C -0.0218(4) 0.0423(5) 0.1794(3)
C12 C 0.5922(4) -0.3438(4) 0.0455(2)
C13 C 0.7038(4) -0.3876(5) 0.0590(2)
C14 C 0.6047(3) -0.1049(5) 0.1649(2)
C15 C 0.4413(3) -0.3295(4) 0.1088(2)
C16 C 0.4981(4) -0.1874(5) -0.0155(2)
C17 C 0.7241(4) -0.4935(5) 0.0935(2)
C18 C 0.2618(4) -0.3387(5) 0.0572(3)
C19 C -0.0876(5) 0.1561(7) 0.1619(3)
C20 C 0.2270(4) -0.2582(5) 0.1084(3)
C21 C 0.8245(5) -0.5369(6) 0.1053(3)
O10 O 0.1374(3) -0.2472(5) 0.1135(3)
C22 C 0.7841(5) -0.3258(6) 0.0354(3)
C23 C 0.3134(4) -0.1281(6) -0.0236(3)
C24 C 0.9041(5) -0.4749(7) 0.0814(3)
C25 C 0.1290(7) 0.0999(11) 0.0787(5)
C26 C -0.0659(5) -0.0656(8) 0.1405(4)
C27 C 0.8854(5) -0.3708(8) 0.0475(4)
C28 C -0.0287(5) 0.0133(8) 0.2506(3)
C29 C 0.1669(6) 0.2035(7) 0.2138(6)
H1 H 0.3951 -0.3797 0.0136
H2 H 0.3130 -0.0084 0.1508
H3 H 0.4859 0.0203 0.2265
H4 H 0.3318 -0.0032 0.2733
H5 H 0.5545 -0.3942 0.0131
H6 H 0.6515 -0.0774 0.2012
H7 H 0.6372 -0.1686 0.1424
H8 H 0.5879 -0.0382 0.1356
H9 H 0.4117 -0.3893 0.1353
H10 H 0.4885 -0.2396 -0.0529
H11 H 0.5073 -0.1058 -0.0306
H12 H 0.6678 -0.5373 0.1095
H13 H 0.2529 -0.4217 0.0702
H14 H 0.2171 -0.3248 0.0177
H15 H -0.1587 0.1420 0.1690
H16 H -0.0605 0.2227 0.1887
H17 H -0.0837 0.1757 0.1169
H18 H 0.8377 -0.6104 0.1300
H19 H 0.7707 -0.2524 0.0107
H20 H 0.2503 -0.1290 -0.0029
H21 H 0.3328 -0.0454 -0.0312
H22 H 0.3026 -0.1707 -0.0644
H23 H 0.9735 -0.5059 0.0900
H24 H 0.1004 0.0298 0.0555
H25 H 0.0915 0.1713 0.0631
H26 H 0.2008 0.1085 0.0718
H27 H -0.1365 -0.0806 0.1485
H28 H -0.0634 -0.0488 0.0950
H29 H -0.0245 -0.1362 0.1526
H30 H 0.9425 -0.3281 0.0318
H31 H -0.0992 -0.0030 0.2583
H32 H 0.0135 -0.0568 0.2624
H33 H -0.0030 0.0818 0.2764
H34 H 0.1568 0.1828 0.2579
H35 H 0.2397 0.2147 0.2104
H36 H 0.1304 0.2775 0.2017
loop_
_geom_bond_atom_site_label_1
_geom_bond_atom_site_label_2
_geom_bond_site_symmetry_1
_geom_bond_site_symmetry_2
Si1 O7 1_555 1_555
O1 C1 1_555 1_555
O2 C12 1_555 1_555
O3 C3 1_555 1_555
O4 C6 1_555 1_555
O5 C12 1_555 1_555
O6 C7 1_555 1_555
O7 C5 1_555 1_555
O8 C10 1_555 1_555
C1 C2 1_555 1_555
C2 C5 1_555 1_555
C3 C1 1_555 1_555
C4 C8 1_555 1_555
C5 C7 1_555 1_555
O9 C9 1_555 1_555
C6 C3 1_555 1_555
C7 C6 1_555 1_555
C8 O1 1_555 1_555
C9 O6 1_555 1_555
C10 O3 1_555 1_555
C11 Si1 1_555 1_555
C12 C13 1_555 1_555
C13 C17 1_555 1_555
C14 C3 1_555 1_555
C15 O2 1_555 1_555
C16 O5 1_555 1_555
C17 C21 1_555 1_555
C18 C4 1_555 1_555
C19 C11 1_555 1_555
C20 C2 1_555 1_555
C21 C24 1_555 1_555
O10 C20 1_555 1_555
C22 C13 1_555 1_555
C23 C8 1_555 1_555
C24 C27 1_555 1_555
C25 Si1 1_555 1_555
C26 C11 1_555 1_555
C27 C22 1_555 1_555
C28 C11 1_555 1_555
C29 Si1 1_555 1_555
H1 C4 1_555 1_555
H2 C5 1_555 1_555
H3 C6 1_555 1_555
H4 C7 1_555 1_555
H5 C12 1_555 1_555
H6 C14 1_555 1_555
H7 C14 1_555 1_555
H8 C14 1_555 1_555
H9 C15 1_555 1_555
H10 C16 1_555 1_555
H11 C16 1_555 1_555
H12 C17 1_555 1_555
H13 C18 1_555 1_555
H14 C18 1_555 1_555
H15 C19 1_555 1_555
H16 C19 1_555 1_555
H17 C19 1_555 1_555
H18 C21 1_555 1_555
H19 C22 1_555 1_555
H20 C23 1_555 1_555
H21 C23 1_555 1_555
H22 C23 1_555 1_555
H23 C24 1_555 1_555
H24 C25 1_555 1_555
H25 C25 1_555 1_555
H26 C25 1_555 1_555
H27 C26 1_555 1_555
H28 C26 1_555 1_555
H29 C26 1_555 1_555
H30 C27 1_555 1_555
H31 C28 1_555 1_555
H32 C28 1_555 1_555
H33 C28 1_555 1_555
H34 C29 1_555 1_555
H35 C29 1_555 1_555
H36 C29 1_555 1_555
O4 C10 1_555 1_555
C1 C15 1_555 1_555
C2 C9 1_555 1_555
C4 C15 1_555 1_555
C8 C16 1_555 1_555
C18 C20 1_555 1_555

#END
