
#######################################################################
#
#                 Cambridge Crystallographic Data Centre
#                                CCDC 
#
#######################################################################
#
# If this CIF has been generated from an entry in the Cambridge 
# Structural Database, then it will include bibliographic, chemical, 
# crystal, experimental, refinement or atomic coordinate data resulting 
# from the CCDC's data processing and validation procedures.
#
#######################################################################

data_RINXOD
_chemical_formula_moiety         'C10 H22 N2 O2'
_chemical_name_systematic        
2-((2-((2-Hydroxyethyl)amino)ethyl)amino)cyclohexanol
_symmetry_cell_setting           triclinic
_symmetry_space_group_name_H-M   'P -1'
_symmetry_Int_Tables_number      2
_space_group_name_Hall           '-P 1'
loop_
_symmetry_equiv_pos_site_id
_symmetry_equiv_pos_as_xyz
1 x,y,z
2 -x,-y,-z
_cell_length_a                   5.4073(3)
_cell_length_b                   9.3162(6)
_cell_length_c                   11.6601(7)
_cell_angle_alpha                71.102(4)
_cell_angle_beta                 84.216(4)
_cell_angle_gamma                88.086(4)
_cell_volume                     552.892
_exptl_crystal_colour            colorless
_exptl_crystal_description       plate
_cell_formula_units_Z            2
loop_
_atom_site_label
_atom_site_type_symbol
_atom_site_fract_x
_atom_site_fract_y
_atom_site_fract_z
C1 C 0.1007(6) 0.0958(4) 0.2558(3)
H1 H -0.0283 0.1775 0.2438
C2 C 0.1346(6) 0.0532(3) 0.1397(2)
H2 H 0.2571 -0.0303 0.1497
H3 H -0.0254 0.0161 0.1257
C3 C 0.2230(6) 0.1866(4) 0.0300(3)
H4 H 0.0924 0.2658 0.0143
H5 H 0.2522 0.1530 -0.0426
C4 C 0.4617(6) 0.2533(4) 0.0502(3)
H6 H 0.5089 0.3445 -0.0200
H7 H 0.5979 0.1781 0.0565
C5 C 0.4252(6) 0.2957(3) 0.1666(2)
H8 H 0.3015 0.3786 0.1564
H9 H 0.5843 0.3337 0.1809
C6 C 0.3368(6) 0.1612(4) 0.2773(3)
H10 H 0.4685 0.0810 0.2912
C7 C 0.5234(5) 0.2234(3) 0.4388(3)
H11 H 0.6333 0.2988 0.3770
H12 H 0.6113 0.1247 0.4613
C8 C 0.4693(5) 0.2728(3) 0.5502(3)
H13 H 0.3740 0.3689 0.5289
H14 H 0.3670 0.1948 0.6140
C9 C 0.6582(5) 0.3485(3) 0.7023(3)
H15 H 0.5797 0.2669 0.7728
H16 H 0.5428 0.4360 0.6832
C10 C 0.8996(6) 0.3955(3) 0.7348(3)
H17 H 0.8693 0.4142 0.8139
H18 H 1.0201 0.3109 0.7448
N1 N 0.2923(5) 0.2089(3) 0.3869(2)
N2 N 0.7020(5) 0.2943(3) 0.5970(2)
O1 O 0.0092(4) -0.0285(2) 0.3577(2)
O2 O 1.0048(4) 0.5266(2) 0.6469(2)
H19 H 0.097(6) -0.094(3) 0.370(3)
H20 H 0.783(6) 0.363(3) 0.538(3)
H21 H 0.202(6) 0.141(3) 0.440(3)
H22 H 0.905(5) 0.606(3) 0.643(2)
loop_
_geom_bond_atom_site_label_1
_geom_bond_atom_site_label_2
_geom_bond_site_symmetry_1
_geom_bond_site_symmetry_2
C1 H1 1_555 1_555
C2 C1 1_555 1_555
H2 C2 1_555 1_555
H3 C2 1_555 1_555
C3 C2 1_555 1_555
H4 C3 1_555 1_555
H5 C3 1_555 1_555
C4 C3 1_555 1_555
H6 C4 1_555 1_555
H7 C4 1_555 1_555
C5 C4 1_555 1_555
H8 C5 1_555 1_555
H9 C5 1_555 1_555
C6 C1 1_555 1_555
H10 C6 1_555 1_555
C7 H11 1_555 1_555
H12 C7 1_555 1_555
C8 C7 1_555 1_555
H13 C8 1_555 1_555
H14 C8 1_555 1_555
C9 H15 1_555 1_555
H16 C9 1_555 1_555
C10 C9 1_555 1_555
H17 C10 1_555 1_555
H18 C10 1_555 1_555
N1 C6 1_555 1_555
N2 C8 1_555 1_555
O1 C1 1_555 1_555
O2 C10 1_555 1_555
H19 O1 1_555 1_555
H20 N2 1_555 1_555
H21 N1 1_555 1_555
H22 O2 1_555 1_555
C5 C6 1_555 1_555
C7 N1 1_555 1_555
C9 N2 1_555 1_555

#END
