
#######################################################################
#
#                 Cambridge Crystallographic Data Centre
#                                CCDC 
#
#######################################################################
#
# If this CIF has been generated from an entry in the Cambridge 
# Structural Database, then it will include bibliographic, chemical, 
# crystal, experimental, refinement or atomic coordinate data resulting 
# from the CCDC's data processing and validation procedures.
#
#######################################################################

data_RIPJUX
_chemical_formula_moiety         
'2(H4 N1 1+),C30 H30 N20 O10,2(F6 P1 1-),10(H2 O1)'
_chemical_name_systematic        
'bis(Ammonium) cucurbit[5]uril monohydrate clathrate bis(hexafluorophosphate) nonahydrate'
_symmetry_cell_setting           orthorhombic
_symmetry_space_group_name_H-M   'P 21 21 21'
_symmetry_Int_Tables_number      19
_space_group_name_Hall           'P 2ac 2ab'
loop_
_symmetry_equiv_pos_site_id
_symmetry_equiv_pos_as_xyz
1 x,y,z
2 1/2-x,-y,1/2+z
3 -x,1/2+y,1/2-z
4 1/2+x,1/2-y,-z
_cell_length_a                   12.3815(7)
_cell_length_b                   15.4717(9)
_cell_length_c                   26.3276(14)
_cell_angle_alpha                90
_cell_angle_beta                 90
_cell_angle_gamma                90
_cell_volume                     5043.39
_exptl_crystal_colour            colorless
_exptl_crystal_description       block
_cell_formula_units_Z            4
loop_
_atom_site_label
_atom_site_type_symbol
_atom_site_fract_x
_atom_site_fract_y
_atom_site_fract_z
C1 C 0.1496(4) 0.1578(3) 0.82460(19)
C2 C 0.2111(4) 0.1120(3) 0.90992(18)
H1 H 0.1331 0.1016 0.9156
H2 H 0.2503 0.0588 0.9197
C3 C 0.1766(4) 0.2424(3) 0.96094(17)
C4 C 0.1857(4) 0.3735(3) 1.01379(17)
H3 H 0.2169 0.3818 1.0481
H4 H 0.1071 0.3642 1.0178
C5 C 0.1242(4) 0.4825(3) 0.95268(17)
C6 C 0.0879(4) 0.6143(3) 0.90369(19)
H5 H 0.0121 0.5974 0.9105
H6 H 0.0970 0.6750 0.9148
C7 C 0.0553(4) 0.5511(3) 0.81853(18)
C8 C 0.0557(4) 0.5073(3) 0.72914(18)
H7 H -0.0219 0.4956 0.7353
H8 H 0.0611 0.5432 0.6981
C9 C 0.0759(3) 0.3482(3) 0.73942(17)
C10 C 0.1278(4) 0.1959(3) 0.73448(18)
H9 H 0.0499 0.1878 0.7416
H10 H 0.1452 0.1629 0.7033
C11 C 0.4519(3) 0.2051(3) 0.80114(17)
C12 C 0.4793(4) 0.1504(3) 0.88825(18)
H11 H 0.4763 0.0911 0.9023
H12 H 0.5562 0.1644 0.8818
C13 C 0.4783(3) 0.2925(3) 0.93250(16)
C14 C 0.4551(4) 0.4153(3) 0.99070(17)
H13 H 0.4494 0.4128 1.0282
H14 H 0.5319 0.4246 0.9819
C15 C 0.4276(4) 0.5397(3) 0.93391(18)
C16 C 0.3552(4) 0.6612(3) 0.8836(2)
H15 H 0.3227 0.7164 0.8948
H16 H 0.4321 0.6723 0.8756
C17 C 0.3585(4) 0.5978(3) 0.79751(19)
C18 C 0.3246(4) 0.5466(3) 0.71088(18)
H17 H 0.2877 0.5750 0.6820
H18 H 0.4032 0.5555 0.7066
C19 C 0.3815(4) 0.3940(3) 0.71756(16)
C20 C 0.3963(4) 0.2350(3) 0.71379(17)
H19 H 0.4744 0.2466 0.7094
H20 H 0.3741 0.1939 0.6869
C21 C 0.3001(4) 0.1301(3) 0.77312(19)
H21 H 0.3072 0.0801 0.7492
C22 C 0.3254(4) 0.1030(3) 0.82834(18)
H22 H 0.3386 0.0394 0.8310
C23 C 0.3547(4) 0.1910(3) 0.96299(17)
H23 H 0.3749 0.1401 0.9844
C24 C 0.3468(4) 0.2738(3) 0.99489(17)
H24 H 0.3689 0.2633 1.0309
C25 C 0.2886(4) 0.5124(3) 0.99285(18)
H25 H 0.2938 0.5298 1.0294
C26 C 0.2569(4) 0.5899(3) 0.95828(19)
H26 H 0.2436 0.6434 0.9786
C27 C 0.1930(4) 0.6555(3) 0.8229(2)
H27 H 0.1816 0.7195 0.8242
C28 C 0.1827(4) 0.6204(3) 0.76821(19)
H28 H 0.1623 0.6673 0.7439
C29 C 0.2050(4) 0.4185(3) 0.68840(17)
H29 H 0.1912 0.4398 0.6531
C30 C 0.2277(4) 0.3192(3) 0.68941(17)
H30 H 0.2195 0.2925 0.6550
N1 N 0.2289(3) 0.1286(2) 0.85647(16)
N2 N 0.4216(3) 0.1518(2) 0.84020(14)
N3 N 0.1889(3) 0.1602(2) 0.77610(15)
N4 N 0.3794(3) 0.1950(3) 0.76295(14)
N5 N 0.1475(3) 0.2868(2) 0.72493(14)
N6 N 0.3375(3) 0.3150(3) 0.70708(15)
N7 N 0.1101(3) 0.4265(3) 0.72036(14)
N8 N 0.3017(3) 0.4552(3) 0.70952(14)
N9 N 0.0989(3) 0.5560(3) 0.77198(15)
N10 N 0.2901(3) 0.5878(2) 0.75783(16)
N11 N 0.1073(3) 0.6093(2) 0.84981(15)
N12 N 0.3010(3) 0.6324(2) 0.83820(16)
N13 N 0.2028(3) 0.4511(3) 0.98446(15)
N14 N 0.3928(3) 0.4866(3) 0.97244(14)
N15 N 0.2329(3) 0.2976(3) 0.99123(15)
N16 N 0.4198(3) 0.3335(2) 0.96955(13)
N17 N 0.2459(3) 0.1815(2) 0.94202(15)
N18 N 0.4375(3) 0.2102(2) 0.92593(14)
N19 N 0.1588(3) 0.5599(2) 0.93348(15)
N20 N 0.3493(3) 0.5998(3) 0.92483(16)
O1 O 0.0574(2) 0.1767(2) 0.83701(12)
O2 O 0.0798(2) 0.2455(2) 0.95238(12)
O3 O 0.0388(3) 0.4479(2) 0.94358(12)
O4 O -0.0201(2) 0.5048(2) 0.83176(12)
O5 O -0.0049(2) 0.3371(2) 0.76508(12)
O6 O 0.5321(2) 0.2508(2) 0.80001(12)
O7 O 0.5548(2) 0.3223(2) 0.90923(12)
O8 O 0.5138(3) 0.5345(2) 0.91210(13)
O9 O 0.4544(3) 0.5804(2) 0.79812(14)
O10 O 0.4741(2) 0.4091(2) 0.73090(12)
F1 F 0.5467(3) 0.8051(2) 0.89006(13)
F2 F 0.4095(3) 0.8573(3) 0.9336(2)
F3 F 0.5675(4) 0.8360(3) 0.97299(15)
F4 F 0.6487(5) 0.9155(4) 0.9153(2)
F5 F 0.5104(4) 0.9703(2) 0.95933(14)
F6 F 0.4998(6) 0.9400(3) 0.87604(16)
P1 P 0.52905(14) 0.88679(10) 0.92473(5)
F7 F 0.0962(3) 0.9476(2) 0.95147(13)
F8 F 0.0214(4) 0.8218(3) 0.86359(16)
F9 F -0.0064(9) 0.8325(7) 0.9484(3)
F10 F 0.1553(7) 0.8191(4) 0.9164(4)
F11 F 0.1310(11) 0.9362(5) 0.8682(4)
F12 F -0.0356(8) 0.9496(6) 0.8994(4)
P2 P 0.06103(11) 0.88605(8) 0.90682(6)
N21 N 0.9569(3) 0.3352(2) 0.87354(14)
H31 H 1.0031 0.2992 0.8857
H32 H 0.9771 0.3869 0.8808
H33 H 0.8935 0.3261 0.8857
H34 H 0.9550 0.3303 0.8410
N22 N 0.5832(3) 0.4392(2) 0.82559(14)
H35 H 0.5515 0.4856 0.8356
H36 H 0.5749 0.3997 0.8482
H37 H 0.6508 0.4495 0.8212
H38 H 0.5548 0.4225 0.7974
O11 O 0.7690(3) 0.3684(3) 0.92821(16)
H39 H 0.7676 0.4147 0.9433
H40 H 0.7085 0.3576 0.9172
O12 O 0.7597(3) 0.5605(3) 0.84634(18)
H41 H 0.7438 0.5816 0.8739
H42 H 0.8180 0.5357 0.8480
O13 O 0.7018(8) 0.6361(7) 0.9391(4)
H43 H 0.7204 0.6773 0.9566
H44 H 0.6358 0.6336 0.9370
O14 O 0.8533(3) 0.1322(3) 0.88406(14)
H45 H 0.9192 0.1309 0.8809
H46 H 0.8291 0.1745 0.8692
O15 O 0.7862(3) 0.4055(3) 0.76716(18)
H47 H 0.7512 0.3875 0.7429
H48 H 0.8510 0.4091 0.7610
O16 O 0.6714(3) 0.3480(3) 0.68669(16)
H49 H 0.6516 0.3506 0.6570
H50 H 0.6139 0.3661 0.6979
O17 O 0.7488(3) 0.2547(3) 0.82442(16)
H51 H 0.6828 0.2535 0.8219
H52 H 0.7596 0.2988 0.8079
O18 O 0.2686(9) 0.3802(5) 0.8470(2)
H53 H 0.3185 0.4038 0.8621
H54 H 0.2203 0.4153 0.8415
O19 O 0.8055(6) 0.5072(5) 0.9820(3)
H55 H 0.7577 0.5376 0.9700
H56 H 0.8622 0.5346 0.9823
O20 O 0.8417(9) 0.7428(8) 0.9813(4)
H57 H 0.8605 0.7143 1.0060
H58 H 0.8967 0.7668 0.9713
F13? F 0.1826(6) 0.8684(11) 0.8989(4)
F14? F 0.0613(10) 0.9641(5) 0.8680(3)
F15? F -0.0635(6) 0.9022(8) 0.9143(4)
F16? F 0.0542(12) 0.8106(6) 0.9462(4)
loop_
_geom_bond_atom_site_label_1
_geom_bond_atom_site_label_2
_geom_bond_site_symmetry_1
_geom_bond_site_symmetry_2
C1 N1 1_555 1_555
C2 H1 1_555 1_555
H2 C2 1_555 1_555
C3 N15 1_555 1_555
C4 H3 1_555 1_555
H4 C4 1_555 1_555
C5 N13 1_555 1_555
C6 H5 1_555 1_555
H6 C6 1_555 1_555
C7 N9 1_555 1_555
C8 H7 1_555 1_555
H8 C8 1_555 1_555
C9 N5 1_555 1_555
C10 H9 1_555 1_555
H10 C10 1_555 1_555
C11 N2 1_555 1_555
C12 H11 1_555 1_555
H12 C12 1_555 1_555
C13 N16 1_555 1_555
C14 H13 1_555 1_555
H14 C14 1_555 1_555
C15 N14 1_555 1_555
C16 H15 1_555 1_555
H16 C16 1_555 1_555
C17 N10 1_555 1_555
C18 H17 1_555 1_555
H18 C18 1_555 1_555
C19 N6 1_555 1_555
C20 H19 1_555 1_555
H20 C20 1_555 1_555
C21 H21 1_555 1_555
C22 C21 1_555 1_555
H22 C22 1_555 1_555
C23 H23 1_555 1_555
C24 C23 1_555 1_555
H24 C24 1_555 1_555
C25 H25 1_555 1_555
C26 C25 1_555 1_555
H26 C26 1_555 1_555
C27 H27 1_555 1_555
C28 C27 1_555 1_555
H28 C28 1_555 1_555
C29 H29 1_555 1_555
C30 C29 1_555 1_555
H30 C30 1_555 1_555
N1 C2 1_555 1_555
N2 C12 1_555 1_555
N3 C1 1_555 1_555
N4 C11 1_555 1_555
N5 C10 1_555 1_555
N6 C20 1_555 1_555
N7 C8 1_555 1_555
N8 C18 1_555 1_555
N9 C8 1_555 1_555
N10 C18 1_555 1_555
N11 C6 1_555 1_555
N12 C16 1_555 1_555
N13 C4 1_555 1_555
N14 C14 1_555 1_555
N15 C4 1_555 1_555
N16 C14 1_555 1_555
N17 C2 1_555 1_555
N18 C12 1_555 1_555
N19 C5 1_555 1_555
N20 C15 1_555 1_555
O1 C1 1_555 1_555
O2 C3 1_555 1_555
O3 C5 1_555 1_555
O4 C7 1_555 1_555
O5 C9 1_555 1_555
O6 C11 1_555 1_555
O7 C13 1_555 1_555
O8 C15 1_555 1_555
O9 C17 1_555 1_555
O10 C19 1_555 1_555
F1 P1 1_555 1_555
F2 P1 1_555 1_555
F3 P1 1_555 1_555
F4 P1 1_555 1_555
F5 P1 1_555 1_555
F6 P1 1_555 1_555
F7 P2 1_555 1_555
F8 P2 1_555 1_555
F9 P2 1_555 1_555
F10 P2 1_555 1_555
F11 P2 1_555 1_555
F12 P2 1_555 1_555
N21 H31 1_555 1_555
H32 N21 1_555 1_555
H33 N21 1_555 1_555
H34 N21 1_555 1_555
N22 H35 1_555 1_555
H36 N22 1_555 1_555
H37 N22 1_555 1_555
H38 N22 1_555 1_555
O11 H39 1_555 1_555
H40 O11 1_555 1_555
O12 H41 1_555 1_555
H42 O12 1_555 1_555
O13 H43 1_555 1_555
H44 O13 1_555 1_555
O14 H45 1_555 1_555
H46 O14 1_555 1_555
O15 H47 1_555 1_555
H48 O15 1_555 1_555
O16 H49 1_555 1_555
H50 O16 1_555 1_555
O17 H51 1_555 1_555
H52 O17 1_555 1_555
O18 H53 1_555 1_555
H54 O18 1_555 1_555
O19 H55 1_555 1_555
H56 O19 1_555 1_555
O20 H57 1_555 1_555
H58 O20 1_555 1_555
C3 N17 1_555 1_555
C6 N19 1_555 1_555
C7 N11 1_555 1_555
C9 N7 1_555 1_555
C10 N3 1_555 1_555
C13 N18 1_555 1_555
C16 N20 1_555 1_555
C17 N12 1_555 1_555
C19 N8 1_555 1_555
C20 N4 1_555 1_555
C21 N3 1_555 1_555
C21 N4 1_555 1_555
C22 N1 1_555 1_555
C22 N2 1_555 1_555
C23 N17 1_555 1_555
C23 N18 1_555 1_555
C24 N15 1_555 1_555
C24 N16 1_555 1_555
C25 N13 1_555 1_555
C25 N14 1_555 1_555
C26 N19 1_555 1_555
C26 N20 1_555 1_555
C27 N11 1_555 1_555
C27 N12 1_555 1_555
C28 N9 1_555 1_555
C28 N10 1_555 1_555
C29 N7 1_555 1_555
C29 N8 1_555 1_555
C30 N5 1_555 1_555
C30 N6 1_555 1_555

#END
