
#######################################################################
#
#                 Cambridge Crystallographic Data Centre
#                                CCDC 
#
#######################################################################
#
# If this CIF has been generated from an entry in the Cambridge 
# Structural Database, then it will include bibliographic, chemical, 
# crystal, experimental, refinement or atomic coordinate data resulting 
# from the CCDC's data processing and validation procedures.
#
#######################################################################

data_RIPLUX
_chemical_formula_moiety         'C20 H25 N3 O5'
_chemical_name_systematic        
5-Acetylamino-1-benzyl-3-(N-(ethoxycarbonylmethyl)carbamoyl)-2-methyl-1-azacyclohex-2-en-6-one
_symmetry_cell_setting           monoclinic
_symmetry_space_group_name_H-M   'P 21/n'
_symmetry_Int_Tables_number      14
_space_group_name_Hall           '-P 2yn'
loop_
_symmetry_equiv_pos_site_id
_symmetry_equiv_pos_as_xyz
1 x,y,z
2 1/2-x,1/2+y,1/2-z
3 -x,-y,-z
4 1/2+x,1/2-y,1/2+z
_cell_length_a                   10.362(4)
_cell_length_b                   9.335(6)
_cell_length_c                   20.871(9)
_cell_angle_alpha                90
_cell_angle_beta                 96.48(3)
_cell_angle_gamma                90
_cell_volume                     2005.94
_chemical_melting_point          71-74deg.C
_cell_formula_units_Z            4
loop_
_atom_site_label
_atom_site_type_symbol
_atom_site_fract_x
_atom_site_fract_y
_atom_site_fract_z
N1 N 0.6977(4) 0.2246(5) 0.3988(2)
C1 C 0.5957(5) 0.2150(6) 0.3508(3)
C2 C 0.6173(6) 0.1190(6) 0.2941(3)
C3 C 0.7538(6) 0.1336(8) 0.2750(3)
C4 C 0.8511(5) 0.1201(6) 0.3337(3)
C5 C 0.8233(5) 0.1634(6) 0.3920(3)
O1 O 0.4924(4) 0.2749(5) 0.3552(2)
N2 N 0.5181(5) 0.1443(5) 0.2409(2)
C6 C 0.4749(6) 0.0424(6) 0.2000(3)
O2 O 0.5129(4) -0.0839(4) 0.2058(2)
C7 C 0.3749(8) 0.0843(10) 0.1451(4)
C8 C 0.9799(6) 0.0529(6) 0.3241(3)
N3 N 1.0803(5) 0.1417(6) 0.3264(2)
C9 C 1.2062(6) 0.0888(8) 0.3124(3)
C10 C 1.2687(6) -0.0092(7) 0.3650(3)
O3 O 1.3604(4) -0.0876(5) 0.3404(2)
C11 C 1.4365(8) -0.1836(10) 0.3840(4)
C12 C 1.4928(8) -0.2976(9) 0.3446(4)
O4 O 0.9887(4) -0.0763(5) 0.3129(2)
O5 O 1.2425(4) -0.0178(5) 0.4188(2)
C13 C 0.9149(7) 0.1555(8) 0.4525(3)
C14 C 0.6759(6) 0.3020(7) 0.4570(3)
C15 C 0.7142(6) 0.4593(6) 0.4585(3)
C16 C 0.7887(6) 0.5201(7) 0.4135(3)
C17 C 0.8180(7) 0.6681(8) 0.4178(4)
C18 C 0.7756(7) 0.7518(7) 0.4655(4)
C19 C 0.7026(6) 0.6894(7) 0.5109(3)
C20 C 0.6711(6) 0.5453(7) 0.5066(3)
loop_
_geom_bond_atom_site_label_1
_geom_bond_atom_site_label_2
_geom_bond_site_symmetry_1
_geom_bond_site_symmetry_2
N1 C1 1_555 1_555
C1 C2 1_555 1_555
C2 C3 1_555 1_555
C3 C4 1_555 1_555
C4 C5 1_555 1_555
C5 N1 1_555 1_555
O1 C1 1_555 1_555
N2 C2 1_555 1_555
C6 N2 1_555 1_555
O2 C6 1_555 1_555
C7 C6 1_555 1_555
C8 C4 1_555 1_555
N3 C8 1_555 1_555
C9 N3 1_555 1_555
C10 C9 1_555 1_555
O3 C10 1_555 1_555
C11 O3 1_555 1_555
C12 C11 1_555 1_555
O4 C8 1_555 1_555
O5 C10 1_555 1_555
C13 C5 1_555 1_555
C14 N1 1_555 1_555
C15 C14 1_555 1_555
C16 C15 1_555 1_555
C17 C16 1_555 1_555
C18 C17 1_555 1_555
C19 C18 1_555 1_555
C20 C15 1_555 1_555
C19 C20 1_555 1_555

#END
