
#######################################################################
#
#                 Cambridge Crystallographic Data Centre
#                                CCDC 
#
#######################################################################
#
# If this CIF has been generated from an entry in the Cambridge 
# Structural Database, then it will include bibliographic, chemical, 
# crystal, experimental, refinement or atomic coordinate data resulting 
# from the CCDC's data processing and validation procedures.
#
#######################################################################

data_RIQCEZ
_chemical_formula_moiety         'C17 H22 N2 O3'
_chemical_name_systematic        
(2S,5S)-5-Acetyl-1-benzoyl-2-t-butyl-3-methyl-4-imidazolidinone
_symmetry_cell_setting           orthorhombic
_symmetry_space_group_name_H-M   'P 21 21 2'
_symmetry_Int_Tables_number      18
_space_group_name_Hall           'P 2 2ab'
loop_
_symmetry_equiv_pos_site_id
_symmetry_equiv_pos_as_xyz
1 x,y,z
2 -x,-y,z
3 1/2-x,1/2+y,-z
4 1/2+x,1/2-y,-z
_cell_length_a                   12.636(1)
_cell_length_b                   21.459(2)
_cell_length_c                   6.059(1)
_cell_angle_alpha                90
_cell_angle_beta                 90
_cell_angle_gamma                90
_cell_volume                     1642.93
_exptl_crystal_colour            colorless
_chemical_melting_point          188-189deg.C(dec)
_cell_formula_units_Z            4
loop_
_atom_site_label
_atom_site_type_symbol
_atom_site_fract_x
_atom_site_fract_y
_atom_site_fract_z
O1 O 0.6845(2) 0.25354(9) 0.9691(3)
O2 O 0.8737(2) 0.14208(9) 0.6681(4)
O3 O 0.6925(2) 0.06726(9) 0.3129(3)
N1 N 0.6577(2) 0.12048(10) 0.6287(4)
N2 N 0.6237(2) 0.22506(9) 0.6259(4)
C1 C 0.8239(2) 0.14716(12) 0.8376(5)
C2 C 0.5979(2) 0.16858(12) 0.5040(5)
H1 H 0.6265(2) 0.17166(12) 0.3506(5)
C3 C 0.8724(3) 0.1568(2) 1.0594(5)
H2 H 0.8348(11) 0.1902(7) 1.1368(15)
H3 H 0.9470(5) 0.1683(10) 1.0420(6)
H4 H 0.8673(15) 0.1182(3) 1.1452(13)
C4 C 0.6675(2) 0.21486(12) 0.8246(5)
C5 C 0.7014(2) 0.14603(11) 0.8338(5)
H5 H 0.6716(2) 0.12450(11) 0.9663(5)
C6 C 0.7023(2) 0.07160(13) 0.5144(5)
C7 C 0.7559(2) 0.02116(12) 0.6433(5)
C8 C 0.7187(2) 0.00136(12) 0.8478(5)
H6 H 0.6602(2) 0.02187(12) 0.9143(5)
C9 C 0.7670(3) -0.04848(13) 0.9539(5)
H7 H 0.7408(3) -0.06219(13) 1.0926(5)
C10 C 0.8530(3) -0.07802(14) 0.8583(6)
H8 H 0.8858(3) -0.11214(14) 0.9311(6)
C11 C 0.8906(2) -0.05816(13) 0.6555(6)
H9 H 0.9505(2) -0.07793(13) 0.5916(6)
C12 C 0.8418(2) -0.00899(13) 0.5459(5)
H10 H 0.8667(2) 0.00400(13) 0.4054(5)
C13 C 0.4768(2) 0.15396(13) 0.4950(5)
C14 C 0.4221(3) 0.20011(14) 0.3387(6)
H11 H 0.4164(15) 0.2409(3) 0.4103(15)
H12 H 0.4642(9) 0.2040(8) 0.2036(16)
H13 H 0.3512(7) 0.1848(5) 0.3017(28)
C15 C 0.4296(3) 0.1587(2) 0.7274(6)
H14 H 0.4646(12) 0.1286(7) 0.8248(10)
H15 H 0.4401(15) 0.2009(3) 0.7849(15)
H16 H 0.3537(4) 0.1494(10) 0.7210(8)
C16 C 0.4586(3) 0.08788(14) 0.4066(6)
H17 H 0.4873(14) 0.0846(3) 0.2568(14)
H18 H 0.4942(14) 0.0577(2) 0.5026(20)
H19 H 0.3825(3) 0.0791(4) 0.4038(32)
C17 C 0.6041(3) 0.28814(12) 0.5426(5)
H20 H 0.6182(13) 0.2895(2) 0.3836(7)
H21 H 0.5301(5) 0.2993(3) 0.5701(26)
H22 H 0.6506(10) 0.3177(2) 0.6186(21)
loop_
_geom_bond_atom_site_label_1
_geom_bond_atom_site_label_2
_geom_bond_site_symmetry_1
_geom_bond_site_symmetry_2
O1 C4 1_555 1_555
O2 C1 1_555 1_555
O3 C6 1_555 1_555
N1 C2 1_555 1_555
N2 C2 1_555 1_555
C1 C3 1_555 1_555
C2 H1 1_555 1_555
C3 H2 1_555 1_555
H3 C3 1_555 1_555
H4 C3 1_555 1_555
C4 N2 1_555 1_555
C5 N1 1_555 1_555
H5 C5 1_555 1_555
C6 N1 1_555 1_555
C7 C6 1_555 1_555
C8 C7 1_555 1_555
H6 C8 1_555 1_555
C9 C8 1_555 1_555
H7 C9 1_555 1_555
C10 C9 1_555 1_555
H8 C10 1_555 1_555
C11 C10 1_555 1_555
H9 C11 1_555 1_555
C12 C7 1_555 1_555
H10 C12 1_555 1_555
C13 C2 1_555 1_555
C14 C13 1_555 1_555
H11 C14 1_555 1_555
H12 C14 1_555 1_555
H13 C14 1_555 1_555
C15 C13 1_555 1_555
H14 C15 1_555 1_555
H15 C15 1_555 1_555
H16 C15 1_555 1_555
C16 C13 1_555 1_555
H17 C16 1_555 1_555
H18 C16 1_555 1_555
H19 C16 1_555 1_555
C17 N2 1_555 1_555
H20 C17 1_555 1_555
H21 C17 1_555 1_555
H22 C17 1_555 1_555
C1 C5 1_555 1_555
C4 C5 1_555 1_555
C11 C12 1_555 1_555

#END
