
#######################################################################
#
#                 Cambridge Crystallographic Data Centre
#                                CCDC 
#
#######################################################################
#
# If this CIF has been generated from an entry in the Cambridge 
# Structural Database, then it will include bibliographic, chemical, 
# crystal, experimental, refinement or atomic coordinate data resulting 
# from the CCDC's data processing and validation procedures.
#
#######################################################################

data_RIQTOC
_chemical_formula_moiety         'C20 H17 N1 O3'
_chemical_name_systematic        
1-Benzyl-4-methylspiro[indole-3,2'-pyran]-2,4'(1H,3'H)-dione
_symmetry_cell_setting           monoclinic
_symmetry_space_group_name_H-M   'P 21/c'
_symmetry_Int_Tables_number      14
_space_group_name_Hall           '-P 2ybc'
loop_
_symmetry_equiv_pos_site_id
_symmetry_equiv_pos_as_xyz
1 x,y,z
2 -x,1/2+y,1/2-z
3 -x,-y,-z
4 x,1/2-y,1/2+z
_cell_length_a                   16.9310(3)
_cell_length_b                   5.52270(10)
_cell_length_c                   18.4085(4)
_cell_angle_alpha                90
_cell_angle_beta                 114.0090(10)
_cell_angle_gamma                90
_cell_volume                     1572.36
_exptl_crystal_colour            colorless
_exptl_crystal_description       plate
_cell_formula_units_Z            4
loop_
_atom_site_label
_atom_site_type_symbol
_atom_site_fract_x
_atom_site_fract_y
_atom_site_fract_z
N1 N 0.20585(7) 0.1522(2) 0.01100(7)
O1 O 0.21525(6) 0.22304(19) 0.13738(6)
O2 O 0.30010(6) 0.66449(17) 0.11053(6)
O3 O 0.45147(7) 0.1968(2) 0.28438(6)
C1 C 0.23876(8) 0.2576(2) 0.08408(8)
C2 C 0.31483(8) 0.4230(2) 0.08827(8)
C3 C 0.39963(8) 0.3123(2) 0.14768(8)
H1 H 0.4006 0.1376 0.1360
H2 H 0.4488 0.3902 0.1408
C4 C 0.41095(8) 0.3425(2) 0.23302(8)
C5 C 0.37393(9) 0.5628(2) 0.24880(8)
H3 H 0.3854 0.6058 0.3021
C6 C 0.32403(9) 0.7060(2) 0.18945(9)
H4 H 0.3033 0.8504 0.2037
C7 C 0.30751(8) 0.4174(2) 0.00401(8)
C8 C 0.24554(8) 0.2438(2) -0.03769(8)
C9 C 0.22849(9) 0.1784(3) -0.11501(8)
H5 H 0.1863 0.0597 -0.1425
C10 C 0.27648(10) 0.2958(3) -0.15091(9)
H6 H 0.2674 0.2548 -0.2038
C11 C 0.33698(9) 0.4708(3) -0.11059(9)
H7 H 0.3679 0.5484 -0.1370
C12 C 0.35428(8) 0.5376(2) -0.03204(8)
C13 C 0.41893(10) 0.7349(3) 0.00847(9)
H8 H 0.3893 0.8917 -0.0014
H9 H 0.4635 0.7371 -0.0127
H10 H 0.4460 0.7038 0.0658
C14 C 0.13806(9) -0.0310(3) -0.01372(9)
H11 H 0.1259 -0.0779 0.0326
H12 H 0.1589 -0.1767 -0.0319
C15 C 0.05496(9) 0.0554(3) -0.08002(8)
C16 C 0.01552(10) 0.2687(3) -0.07232(10)
H13 H 0.0416 0.3649 -0.0258
C17 C -0.06225(11) 0.3415(3) -0.13277(12)
H14 H -0.0891 0.4876 -0.1276
C18 C -0.10028(10) 0.2009(4) -0.20034(11)
H15 H -0.1538 0.2493 -0.2412
C19 C -0.06082(11) -0.0088(4) -0.20855(11)
H16 H -0.0865 -0.1038 -0.2554
C20 C 0.01683(10) -0.0818(3) -0.14813(10)
H17 H 0.0438 -0.2272 -0.1538
loop_
_geom_bond_atom_site_label_1
_geom_bond_atom_site_label_2
_geom_bond_site_symmetry_1
_geom_bond_site_symmetry_2
N1 C1 1_555 1_555
O1 C1 1_555 1_555
O2 C2 1_555 1_555
O3 C4 1_555 1_555
C1 C2 1_555 1_555
C2 C3 1_555 1_555
C3 H1 1_555 1_555
H2 C3 1_555 1_555
C4 C3 1_555 1_555
C5 C4 1_555 1_555
H3 C5 1_555 1_555
C6 O2 1_555 1_555
H4 C6 1_555 1_555
C7 C2 1_555 1_555
C8 N1 1_555 1_555
C9 C8 1_555 1_555
H5 C9 1_555 1_555
C10 C9 1_555 1_555
H6 C10 1_555 1_555
C11 C10 1_555 1_555
H7 C11 1_555 1_555
C12 C7 1_555 1_555
C13 C12 1_555 1_555
H8 C13 1_555 1_555
H9 C13 1_555 1_555
H10 C13 1_555 1_555
C14 N1 1_555 1_555
H11 C14 1_555 1_555
H12 C14 1_555 1_555
C15 C14 1_555 1_555
C16 C15 1_555 1_555
H13 C16 1_555 1_555
C17 C16 1_555 1_555
H14 C17 1_555 1_555
C18 C17 1_555 1_555
H15 C18 1_555 1_555
C19 C18 1_555 1_555
H16 C19 1_555 1_555
C20 C15 1_555 1_555
H17 C20 1_555 1_555
C5 C6 1_555 1_555
C7 C8 1_555 1_555
C11 C12 1_555 1_555
C19 C20 1_555 1_555

#END
