
#######################################################################
#
#                 Cambridge Crystallographic Data Centre
#                                CCDC 
#
#######################################################################
#
# If this CIF has been generated from an entry in the Cambridge 
# Structural Database, then it will include bibliographic, chemical, 
# crystal, experimental, refinement or atomic coordinate data resulting 
# from the CCDC's data processing and validation procedures.
#
#######################################################################

data_RIQVUK
_chemical_formula_moiety         'C36 H41 Br1 N2 O4 S1'
_chemical_name_systematic        
3'-Acetyl-6'-(4-bromophenyl)-1-methyl-1'-((2,4,6-tri-isopropylphenyl)sulfonyl)-2',3'-dihydro-1'H-spiro[indole-3,4'-pyridin]-2(1H)-one
_symmetry_cell_setting           orthorhombic
_symmetry_space_group_name_H-M   'P 21 21 21'
_symmetry_Int_Tables_number      19
_space_group_name_Hall           'P 2ac 2ab'
loop_
_symmetry_equiv_pos_site_id
_symmetry_equiv_pos_as_xyz
1 x,y,z
2 1/2-x,-y,1/2+z
3 -x,1/2+y,1/2-z
4 1/2+x,1/2-y,-z
_cell_length_a                   9.7717(7)
_cell_length_b                   13.9523(10)
_cell_length_c                   25.5851(19)
_cell_angle_alpha                90
_cell_angle_beta                 90
_cell_angle_gamma                90
_cell_volume                     3488.21
_exptl_crystal_colour            colorless
_exptl_crystal_description       prismatic
_cell_formula_units_Z            4
loop_
_atom_site_label
_atom_site_type_symbol
_atom_site_fract_x
_atom_site_fract_y
_atom_site_fract_z
Br1 Br 0.91196(8) 0.51064(3) 1.00885(2)
S1 S 1.00873(8) 0.13191(5) 0.81606(3)
N1 N 0.7254(3) -0.18343(18) 0.95624(10)
N2 N 1.0277(2) 0.08624(16) 0.87670(9)
O1 O 0.9315(2) -0.12739(18) 0.98526(8)
O2 O 1.0815(3) -0.21323(18) 0.87948(11)
O3 O 0.8675(3) 0.12990(19) 0.80315(9)
O4 O 1.0994(3) 0.07932(16) 0.78293(8)
C1 C 0.6312(3) -0.1597(2) 0.91699(11)
C2 C 0.5061(4) -0.2005(2) 0.90710(14)
H1 H 0.4732 -0.2514 0.9270
C3 C 0.4310(4) -0.1622(3) 0.86606(17)
H2 H 0.3458 -0.1883 0.8582
C4 C 0.4789(4) -0.0874(3) 0.83696(15)
H3 H 0.4250 -0.0619 0.8104
C5 C 0.6071(4) -0.0492(3) 0.84670(14)
H4 H 0.6412 0.0003 0.8261
C6 C 0.6828(3) -0.0855(2) 0.88704(11)
C7 C 0.8242(3) -0.0592(2) 0.90648(11)
C8 C 0.8380(3) -0.1264(2) 0.95461(12)
C9 C 0.8286(3) 0.0426(2) 0.92600(11)
H5 H 0.7631 0.0603 0.9505
C10 C 0.9170(3) 0.10917(19) 0.91147(10)
C11 C 1.0629(3) -0.0168(2) 0.87832(12)
H6 H 1.0967 -0.0332 0.9128
H7 H 1.1350 -0.0299 0.8532
C12 C 0.9379(3) -0.0782(2) 0.86561(11)
H8 H 0.9031 -0.0578 0.8314
C13 C 0.9756(4) -0.1841(2) 0.86169(14)
C14 C 0.8801(5) -0.2475(3) 0.8319(2)
H9 H 0.9120 -0.3125 0.8337
H10 H 0.8767 -0.2273 0.7961
H11 H 0.7902 -0.2436 0.8469
C15 C 0.9145(3) 0.2078(2) 0.93305(11)
C16 C 1.0356(3) 0.2555(2) 0.94442(11)
H12 H 1.1188 0.2260 0.9372
C17 C 1.0347(4) 0.3458(3) 0.96616(13)
H13 H 1.1163 0.3772 0.9736
C18 C 0.9118(5) 0.3882(2) 0.97658(13)
C19 C 0.7896(4) 0.3445(3) 0.96595(15)
H14 H 0.7072 0.3749 0.9734
C20 C 0.7913(4) 0.2533(2) 0.94369(13)
H15 H 0.7092 0.2227 0.9359
C21 C 0.7020(5) -0.2547(3) 0.99630(17)
H16 H 0.7871 -0.2700 1.0131
H17 H 0.6645 -0.3115 0.9807
H18 H 0.6389 -0.2299 1.0217
C22 C 1.0694(3) 0.2522(2) 0.82160(10)
C23 C 1.2115(3) 0.2648(2) 0.83069(11)
C24 C 1.2591(3) 0.3580(2) 0.83404(13)
H19 H 1.3520 0.3675 0.8400
C25 C 1.1766(4) 0.4375(2) 0.82900(15)
C26 C 1.0397(3) 0.4216(2) 0.82026(14)
H20 H 0.9831 0.4747 0.8162
C27 C 0.9809(3) 0.3320(2) 0.81709(12)
C28 C 1.3181(4) 0.1855(3) 0.83591(15)
H21 H 1.2694 0.1250 0.8417
C29 C 1.3979(5) 0.1766(3) 0.78520(18)
H22 H 1.4395 0.2370 0.7769
H23 H 1.3370 0.1583 0.7575
H24 H 1.4678 0.1287 0.7891
C30 C 1.4139(4) 0.2016(3) 0.88227(18)
H25 H 1.4730 0.2549 0.8751
H26 H 1.4681 0.1451 0.8879
H27 H 1.3609 0.2148 0.9130
C31 C 1.2307(5) 0.5386(3) 0.83694(19)
H28 H 1.1607 0.5824 0.8235
C32 C 1.3582(6) 0.5567(3) 0.8060(2)
H29 H 1.3910 0.6203 0.8130
H30 H 1.3383 0.5507 0.7694
H31 H 1.4269 0.5109 0.8156
C33 C 1.2463(9) 0.5602(4) 0.8938(2)
H32 H 1.3167 0.5202 0.9084
H33 H 1.1614 0.5478 0.9115
H34 H 1.2709 0.6263 0.8983
C34 C 0.8254(3) 0.3280(3) 0.80743(13)
H35 H 0.7891 0.2717 0.8256
C35 C 0.7983(4) 0.3153(3) 0.74847(14)
H36 H 0.7020 0.3067 0.7427
H37 H 0.8470 0.2601 0.7360
H38 H 0.8291 0.3712 0.7300
C36 C 0.7492(4) 0.4160(4) 0.82734(19)
H39 H 0.7771 0.4296 0.8626
H40 H 0.6525 0.4040 0.8265
H41 H 0.7701 0.4700 0.8055
loop_
_geom_bond_atom_site_label_1
_geom_bond_atom_site_label_2
_geom_bond_site_symmetry_1
_geom_bond_site_symmetry_2
Br1 C18 1_555 1_555
S1 N2 1_555 1_555
N1 C1 1_555 1_555
N2 C10 1_555 1_555
O1 C8 1_555 1_555
O2 C13 1_555 1_555
O3 S1 1_555 1_555
O4 S1 1_555 1_555
C1 C2 1_555 1_555
C2 H1 1_555 1_555
C3 C2 1_555 1_555
H2 C3 1_555 1_555
C4 C3 1_555 1_555
H3 C4 1_555 1_555
C5 C4 1_555 1_555
H4 C5 1_555 1_555
C6 C1 1_555 1_555
C7 C6 1_555 1_555
C8 N1 1_555 1_555
C9 C7 1_555 1_555
H5 C9 1_555 1_555
C10 C9 1_555 1_555
C11 N2 1_555 1_555
H6 C11 1_555 1_555
H7 C11 1_555 1_555
C12 C7 1_555 1_555
H8 C12 1_555 1_555
C13 C12 1_555 1_555
C14 C13 1_555 1_555
H9 C14 1_555 1_555
H10 C14 1_555 1_555
H11 C14 1_555 1_555
C15 C10 1_555 1_555
C16 C15 1_555 1_555
H12 C16 1_555 1_555
C17 C16 1_555 1_555
H13 C17 1_555 1_555
C18 C17 1_555 1_555
C19 C18 1_555 1_555
H14 C19 1_555 1_555
C20 C15 1_555 1_555
H15 C20 1_555 1_555
C21 N1 1_555 1_555
H16 C21 1_555 1_555
H17 C21 1_555 1_555
H18 C21 1_555 1_555
C22 S1 1_555 1_555
C23 C22 1_555 1_555
C24 C23 1_555 1_555
H19 C24 1_555 1_555
C25 C24 1_555 1_555
C26 C25 1_555 1_555
H20 C26 1_555 1_555
C27 C22 1_555 1_555
C28 C23 1_555 1_555
H21 C28 1_555 1_555
C29 C28 1_555 1_555
H22 C29 1_555 1_555
H23 C29 1_555 1_555
H24 C29 1_555 1_555
C30 C28 1_555 1_555
H25 C30 1_555 1_555
H26 C30 1_555 1_555
H27 C30 1_555 1_555
C31 C25 1_555 1_555
H28 C31 1_555 1_555
C32 C31 1_555 1_555
H29 C32 1_555 1_555
H30 C32 1_555 1_555
H31 C32 1_555 1_555
C33 C31 1_555 1_555
H32 C33 1_555 1_555
H33 C33 1_555 1_555
H34 C33 1_555 1_555
C34 C27 1_555 1_555
H35 C34 1_555 1_555
C35 C34 1_555 1_555
H36 C35 1_555 1_555
H37 C35 1_555 1_555
H38 C35 1_555 1_555
C36 C34 1_555 1_555
H39 C36 1_555 1_555
H40 C36 1_555 1_555
H41 C36 1_555 1_555
C5 C6 1_555 1_555
C7 C8 1_555 1_555
C11 C12 1_555 1_555
C19 C20 1_555 1_555
C26 C27 1_555 1_555

#END
