
#######################################################################
#
#                 Cambridge Crystallographic Data Centre
#                                CCDC 
#
#######################################################################
#
# If this CIF has been generated from an entry in the Cambridge 
# Structural Database, then it will include bibliographic, chemical, 
# crystal, experimental, refinement or atomic coordinate data resulting 
# from the CCDC's data processing and validation procedures.
#
#######################################################################

data_RIRQAK
_chemical_formula_moiety         'C64 H72 N8 Na1 O4 1+,C2 F3 O2 1-,C2 H3 N1'
_chemical_name_systematic        
"(1,4,7,10-tetrakis(N-2'-Naphthylethylcarbamoylmethyl)-1,4,7,10-tetra-azacyclododecane)-sodium trifluoroacetate acetonitrile solvate"
_symmetry_cell_setting           orthorhombic
_symmetry_space_group_name_H-M   'P 21 21 21'
_symmetry_Int_Tables_number      19
_space_group_name_Hall           'P 2ac 2ab'
loop_
_symmetry_equiv_pos_site_id
_symmetry_equiv_pos_as_xyz
1 x,y,z
2 1/2-x,-y,1/2+z
3 -x,1/2+y,1/2-z
4 1/2+x,1/2-y,-z
_cell_length_a                   15.0215(12)
_cell_length_b                   17.1363(14)
_cell_length_c                   23.8997(14)
_cell_angle_alpha                90
_cell_angle_beta                 90
_cell_angle_gamma                90
_cell_volume                     6152.09
_exptl_crystal_colour            colorless
_chemical_melting_point          'above 250deg.C'
_cell_formula_units_Z            4
loop_
_atom_site_label
_atom_site_type_symbol
_atom_site_fract_x
_atom_site_fract_y
_atom_site_fract_z
Na1 Na 0.25848(14) 0.49160(12) 0.46197(9)
O1 O 0.3955(3) 0.5436(2) 0.4163(2)
O2 O 0.1985(3) 0.6096(2) 0.4177(2)
O3 O 0.1179(3) 0.4463(2) 0.4210(2)
O4 O 0.3115(3) 0.3692(3) 0.4215(2)
N1 N 0.4015(3) 0.5037(3) 0.5298(2)
N2 N 0.2519(3) 0.6197(3) 0.5299(2)
N3 N 0.1205(3) 0.4863(3) 0.5351(2)
N4 N 0.2714(3) 0.3706(3) 0.5356(2)
N5 N 0.5448(3) 0.5627(3) 0.4191(2)
H1 H 0.5941(3) 0.5589(3) 0.4388(2)
N6 N 0.1744(3) 0.7393(3) 0.4169(2)
H2 H 0.1802(3) 0.7841(3) 0.4346(2)
N7 N -0.0280(3) 0.4153(3) 0.4303(2)
H3 H -0.0751(3) 0.4144(3) 0.4521(2)
N8 N 0.3385(3) 0.2390(3) 0.4257(2)
H4 H 0.3388(3) 0.1961(3) 0.4460(2)
C1 C 0.4096(4) 0.5833(3) 0.5516(3)
H5 H 0.4331(4) 0.6175(3) 0.5217(3)
H6 H 0.4534(4) 0.5834(3) 0.5826(3)
C2 C 0.3223(4) 0.6170(4) 0.5728(3)
H7 H 0.3012(4) 0.5851(4) 0.6047(3)
H8 H 0.3331(4) 0.6705(4) 0.5868(3)
C3 C 0.1629(4) 0.6238(4) 0.5547(3)
H9 H 0.1207(4) 0.6428(4) 0.5259(3)
H10 H 0.1638(4) 0.6626(4) 0.5854(3)
C4 C 0.1288(4) 0.5473(3) 0.5775(3)
H11 H 0.1698(4) 0.5290(3) 0.6072(3)
H12 H 0.0699(4) 0.5560(3) 0.5949(3)
C5 C 0.1165(4) 0.4085(3) 0.5608(3)
H13 H 0.0909(4) 0.3715(3) 0.5334(3)
H14 H 0.0757(4) 0.4106(3) 0.5933(3)
C6 C 0.2054(4) 0.3774(4) 0.5802(2)
H15 H 0.2292(4) 0.4124(4) 0.6096(2)
H16 H 0.1964(4) 0.3254(4) 0.5972(2)
C7 C 0.3628(4) 0.3683(3) 0.5583(2)
H17 H 0.4032(4) 0.3468(3) 0.5294(2)
H18 H 0.3642(4) 0.3325(3) 0.5908(2)
C8 C 0.3969(4) 0.4479(3) 0.5764(3)
H19 H 0.3571(4) 0.4691(3) 0.6058(3)
H20 H 0.4569(4) 0.4419(3) 0.5930(3)
C9 C 0.4750(4) 0.4865(4) 0.4931(3)
H21 H 0.4751(4) 0.4301(4) 0.4841(3)
H22 H 0.5317(4) 0.4991(4) 0.5122(3)
C10 C 0.4679(4) 0.5338(3) 0.4391(3)
C11 C 0.5456(4) 0.6008(4) 0.3641(3)
H23 H 0.5212(4) 0.5630(4) 0.3361(3)
C12 C 0.6407(4) 0.6208(5) 0.3467(3)
H24 H 0.6764(9) 0.5729(6) 0.3455(18)
H25 H 0.6666(11) 0.6571(21) 0.3739(11)
H26 H 0.6402(5) 0.6451(24) 0.3096(9)
C13 C 0.4870(4) 0.6736(4) 0.3630(2)
C14 C 0.2660(4) 0.6851(4) 0.4919(2)
H27 H 0.3298(4) 0.6885(4) 0.4819(2)
H28 H 0.2489(4) 0.7344(4) 0.5107(2)
C15 C 0.2100(4) 0.6742(4) 0.4387(2)
C16 C 0.1259(4) 0.7359(4) 0.3636(3)
H29 H 0.1650(4) 0.7096(4) 0.3355(3)
C17 C 0.1076(4) 0.8185(4) 0.3430(3)
H30 H 0.1640(5) 0.8465(9) 0.3385(16)
H31 H 0.0704(23) 0.8459(9) 0.3704(9)
H32 H 0.0765(25) 0.8163(4) 0.3070(9)
C18 C 0.0400(4) 0.6880(4) 0.3690(3)
C19 C 0.0413(4) 0.4988(4) 0.5004(2)
H33 H 0.0361(4) 0.5548(4) 0.4909(2)
H34 H -0.0126(4) 0.4833(4) 0.5215(2)
C20 C 0.0476(4) 0.4513(3) 0.4475(3)
C21 C -0.0307(4) 0.3779(4) 0.3748(2)
H35 H -0.0106(4) 0.4169(4) 0.3464(2)
C22 C -0.1271(4) 0.3564(4) 0.3620(3)
H36 H -0.1632(7) 0.4039(4) 0.3600(17)
H37 H -0.1501(9) 0.3225(20) 0.3917(9)
H38 H -0.1299(5) 0.3289(21) 0.3261(9)
C23 C 0.0298(4) 0.3084(4) 0.3716(3)
C24 C 0.2552(4) 0.3005(3) 0.5013(2)
H39 H 0.1906(4) 0.2953(3) 0.4940(2)
H40 H 0.2751(4) 0.2536(3) 0.5220(2)
C25 C 0.3049(4) 0.3057(4) 0.4461(3)
C26 C 0.3752(4) 0.2393(4) 0.3678(2)
H41 H 0.3293(4) 0.2618(4) 0.3421(2)
C27 C 0.3929(4) 0.1540(4) 0.3503(3)
H42 H 0.3367(6) 0.1250(7) 0.3498(16)
H43 H 0.4339(21) 0.1297(8) 0.3770(10)
H44 H 0.4195(25) 0.1531(4) 0.3128(7)
C28 C 0.4596(4) 0.2898(4) 0.3642(3)
C29 C 0.4905(4) 0.7244(4) 0.4070(3)
H45 H 0.5287(4) 0.7135(4) 0.4376(3)
C30 C 0.4380(5) 0.7932(4) 0.4076(3)
H46 H 0.4412(5) 0.8279(4) 0.4385(3)
C31 C 0.3826(5) 0.8095(4) 0.3636(3)
H47 H 0.3481(5) 0.8560(4) 0.3640(3)
C32 C 0.3761(4) 0.7581(4) 0.3173(3)
C33 C 0.3200(4) 0.7737(4) 0.2713(3)
H48 H 0.2854(4) 0.8201(4) 0.2712(3)
C34 C 0.3139(4) 0.7234(4) 0.2264(3)
H49 H 0.2740(4) 0.7340(4) 0.1965(3)
C35 C 0.3668(4) 0.6574(4) 0.2256(3)
H50 H 0.3647(4) 0.6234(4) 0.1942(3)
C36 C 0.4218(4) 0.6402(4) 0.2691(3)
H51 H 0.4562(4) 0.5937(4) 0.2678(3)
C37 C 0.4292(4) 0.6895(4) 0.3161(2)
C38 C -0.0119(4) 0.6942(4) 0.4164(3)
H52 H 0.0058(4) 0.7294(4) 0.4451(3)
C39 C -0.0889(4) 0.6510(4) 0.4237(3)
H53 H -0.1229(4) 0.6573(4) 0.4569(3)
C40 C -0.1164(4) 0.5995(4) 0.3837(3)
H54 H -0.1679(4) 0.5685(4) 0.3900(3)
C41 C -0.0691(5) 0.5921(4) 0.3334(3)
C42 C -0.0969(6) 0.5421(4) 0.2889(4)
H55 H -0.1500(6) 0.5127(4) 0.2935(4)
C43 C -0.0509(6) 0.5347(5) 0.2404(4)
H56 H -0.0709(6) 0.5002(5) 0.2120(4)
C44 C 0.0274(6) 0.5794(5) 0.2331(3)
H57 H 0.0604(6) 0.5746(5) 0.1994(3)
C45 C 0.0565(4) 0.6294(4) 0.2737(3)
H58 H 0.1089(4) 0.6591(4) 0.2673(3)
C46 C 0.0110(4) 0.6381(4) 0.3249(3)
C47 C 0.0396(4) 0.2580(4) 0.4167(3)
H59 H 0.0094(4) 0.2690(4) 0.4507(3)
C48 C 0.0941(4) 0.1900(4) 0.4129(3)
H60 H 0.0987(4) 0.1556(4) 0.4439(3)
C49 C 0.1395(4) 0.1744(4) 0.3650(3)
H61 H 0.1756(4) 0.1289(4) 0.3632(3)
C50 C 0.1343(4) 0.2233(4) 0.3182(3)
C51 C 0.1826(4) 0.2084(4) 0.2675(3)
H62 H 0.2198(4) 0.1637(4) 0.2653(3)
C52 C 0.1762(5) 0.2563(4) 0.2229(3)
H63 H 0.2094(5) 0.2454(4) 0.1899(3)
C53 C 0.1208(5) 0.3221(4) 0.2248(3)
H64 H 0.1164(5) 0.3553(4) 0.1931(3)
C54 C 0.0727(4) 0.3391(4) 0.2722(3)
H65 H 0.0354(4) 0.3838(4) 0.2727(3)
C55 C 0.0779(4) 0.2910(4) 0.3203(3)
C56 C 0.5200(4) 0.2903(4) 0.4080(3)
H66 H 0.5098(4) 0.2583(4) 0.4398(3)
C57 C 0.5964(4) 0.3379(4) 0.4056(3)
H67 H 0.6382(4) 0.3363(4) 0.4354(3)
C58 C 0.6110(4) 0.3861(4) 0.3613(3)
H68 H 0.6610(4) 0.4202(4) 0.3613(3)
C59 C 0.5518(4) 0.3856(4) 0.3151(3)
C60 C 0.5658(5) 0.4356(4) 0.2668(3)
H69 H 0.6159(5) 0.4694(4) 0.2657(3)
C61 C 0.5082(6) 0.4347(4) 0.2233(3)
H70 H 0.5178(6) 0.4682(4) 0.1923(3)
C62 C 0.4347(5) 0.3847(5) 0.2236(3)
H71 H 0.3959(5) 0.3839(5) 0.1922(3)
C63 C 0.4173(5) 0.3365(4) 0.2688(3)
H72 H 0.3665(5) 0.3034(4) 0.2684(3)
C64 C 0.4757(4) 0.3366(4) 0.3159(3)
F1 F 0.6835(4) 0.5027(3) 0.5789(2)
F2 F 0.8201(4) 0.5185(4) 0.5821(3)
F3 F 0.7411(4) 0.5957(4) 0.5341(3)
O5 O 0.7196(3) 0.4882(3) 0.4550(2)
O6 O 0.8096(3) 0.4111(3) 0.5043(2)
C65 C 0.7518(4) 0.5191(4) 0.5455(3)
C66 C 0.7614(4) 0.4693(4) 0.4974(3)
N9 N 0.2644(4) 0.5046(3) 0.7034(2)
C67 C 0.2510(5) 0.5128(4) 0.8112(3)
H73 H 0.2138(22) 0.4700(14) 0.8251(3)
H74 H 0.2241(25) 0.5628(11) 0.8216(3)
H75 H 0.3105(5) 0.5088(23) 0.8278(3)
C68 C 0.2578(4) 0.5079(4) 0.7509(3)
loop_
_geom_bond_atom_site_label_1
_geom_bond_atom_site_label_2
_geom_bond_site_symmetry_1
_geom_bond_site_symmetry_2
Na1 O1 1_555 1_555
O1 C10 1_555 1_555
O2 Na1 1_555 1_555
O3 Na1 1_555 1_555
O4 Na1 1_555 1_555
N1 Na1 1_555 1_555
N2 Na1 1_555 1_555
N3 Na1 1_555 1_555
N4 Na1 1_555 1_555
N5 H1 1_555 1_555
N6 H2 1_555 1_555
N7 H3 1_555 1_555
N8 H4 1_555 1_555
C1 N1 1_555 1_555
H5 C1 1_555 1_555
H6 C1 1_555 1_555
C2 N2 1_555 1_555
H7 C2 1_555 1_555
H8 C2 1_555 1_555
C3 N2 1_555 1_555
H9 C3 1_555 1_555
H10 C3 1_555 1_555
C4 N3 1_555 1_555
H11 C4 1_555 1_555
H12 C4 1_555 1_555
C5 N3 1_555 1_555
H13 C5 1_555 1_555
H14 C5 1_555 1_555
C6 N4 1_555 1_555
H15 C6 1_555 1_555
H16 C6 1_555 1_555
C7 N4 1_555 1_555
H17 C7 1_555 1_555
H18 C7 1_555 1_555
C8 N1 1_555 1_555
H19 C8 1_555 1_555
H20 C8 1_555 1_555
C9 N1 1_555 1_555
H21 C9 1_555 1_555
H22 C9 1_555 1_555
C10 N5 1_555 1_555
C11 N5 1_555 1_555
H23 C11 1_555 1_555
C12 C11 1_555 1_555
H24 C12 1_555 1_555
H25 C12 1_555 1_555
H26 C12 1_555 1_555
C13 C11 1_555 1_555
C14 N2 1_555 1_555
H27 C14 1_555 1_555
H28 C14 1_555 1_555
C15 O2 1_555 1_555
C16 N6 1_555 1_555
H29 C16 1_555 1_555
C17 C16 1_555 1_555
H30 C17 1_555 1_555
H31 C17 1_555 1_555
H32 C17 1_555 1_555
C18 C16 1_555 1_555
C19 N3 1_555 1_555
H33 C19 1_555 1_555
H34 C19 1_555 1_555
C20 O3 1_555 1_555
C21 N7 1_555 1_555
H35 C21 1_555 1_555
C22 C21 1_555 1_555
H36 C22 1_555 1_555
H37 C22 1_555 1_555
H38 C22 1_555 1_555
C23 C21 1_555 1_555
C24 N4 1_555 1_555
H39 C24 1_555 1_555
H40 C24 1_555 1_555
C25 O4 1_555 1_555
C26 N8 1_555 1_555
H41 C26 1_555 1_555
C27 C26 1_555 1_555
H42 C27 1_555 1_555
H43 C27 1_555 1_555
H44 C27 1_555 1_555
C28 C26 1_555 1_555
C29 C13 1_555 1_555
H45 C29 1_555 1_555
C30 C29 1_555 1_555
H46 C30 1_555 1_555
C31 C30 1_555 1_555
H47 C31 1_555 1_555
C32 C31 1_555 1_555
C33 C32 1_555 1_555
H48 C33 1_555 1_555
C34 C33 1_555 1_555
H49 C34 1_555 1_555
C35 C34 1_555 1_555
H50 C35 1_555 1_555
C36 C35 1_555 1_555
H51 C36 1_555 1_555
C37 C13 1_555 1_555
C38 C18 1_555 1_555
H52 C38 1_555 1_555
C39 C38 1_555 1_555
H53 C39 1_555 1_555
C40 C39 1_555 1_555
H54 C40 1_555 1_555
C41 C40 1_555 1_555
C42 C41 1_555 1_555
H55 C42 1_555 1_555
C43 C42 1_555 1_555
H56 C43 1_555 1_555
C44 C43 1_555 1_555
H57 C44 1_555 1_555
C45 C44 1_555 1_555
H58 C45 1_555 1_555
C46 C18 1_555 1_555
C47 C23 1_555 1_555
H59 C47 1_555 1_555
C48 C47 1_555 1_555
H60 C48 1_555 1_555
C49 C48 1_555 1_555
H61 C49 1_555 1_555
C50 C49 1_555 1_555
C51 C50 1_555 1_555
H62 C51 1_555 1_555
C52 C51 1_555 1_555
H63 C52 1_555 1_555
C53 C52 1_555 1_555
H64 C53 1_555 1_555
C54 C53 1_555 1_555
H65 C54 1_555 1_555
C55 C23 1_555 1_555
C56 C28 1_555 1_555
H66 C56 1_555 1_555
C57 C56 1_555 1_555
H67 C57 1_555 1_555
C58 C57 1_555 1_555
H68 C58 1_555 1_555
C59 C58 1_555 1_555
C60 C59 1_555 1_555
H69 C60 1_555 1_555
C61 C60 1_555 1_555
H70 C61 1_555 1_555
C62 C61 1_555 1_555
H71 C62 1_555 1_555
C63 C62 1_555 1_555
H72 C63 1_555 1_555
C64 C28 1_555 1_555
F1 C65 1_555 1_555
F2 C65 1_555 1_555
F3 C65 1_555 1_555
O5 C66 1_555 1_555
O6 C66 1_555 1_555
N9 C68 1_555 1_555
C65 C66 1_555 1_555
C67 H73 1_555 1_555
H74 C67 1_555 1_555
H75 C67 1_555 1_555
C68 C67 1_555 1_555
N6 C15 1_555 1_555
N7 C20 1_555 1_555
N8 C25 1_555 1_555
C1 C2 1_555 1_555
C3 C4 1_555 1_555
C5 C6 1_555 1_555
C7 C8 1_555 1_555
C9 C10 1_555 1_555
C14 C15 1_555 1_555
C19 C20 1_555 1_555
C24 C25 1_555 1_555
C32 C37 1_555 1_555
C36 C37 1_555 1_555
C41 C46 1_555 1_555
C45 C46 1_555 1_555
C50 C55 1_555 1_555
C54 C55 1_555 1_555
C59 C64 1_555 1_555
C63 C64 1_555 1_555

#END
