
#######################################################################
#
#                 Cambridge Crystallographic Data Centre
#                                CCDC 
#
#######################################################################
#
# If this CIF has been generated from an entry in the Cambridge 
# Structural Database, then it will include bibliographic, chemical, 
# crystal, experimental, refinement or atomic coordinate data resulting 
# from the CCDC's data processing and validation procedures.
#
#######################################################################

data_RIRROC
_chemical_formula_moiety         'C27 H42 O3,C4 H9 N1 O1'
_chemical_name_systematic        
'spirost-5-en-3-ol N,N-dimethylacetamide solvate'
_symmetry_cell_setting           orthorhombic
_symmetry_space_group_name_H-M   'P 21 21 21'
_symmetry_Int_Tables_number      19
_space_group_name_Hall           'P 2ac 2ab'
loop_
_symmetry_equiv_pos_site_id
_symmetry_equiv_pos_as_xyz
1 x,y,z
2 1/2-x,-y,1/2+z
3 1/2+x,1/2-y,-z
4 -x,1/2+y,1/2-z
_cell_length_a                   7.386(3)
_cell_length_b                   9.8999(19)
_cell_length_c                   40.438(7)
_cell_angle_alpha                90
_cell_angle_beta                 90
_cell_angle_gamma                90
_cell_volume                     2956.85
_exptl_crystal_colour            colorless
_exptl_crystal_description       plate
_cell_formula_units_Z            4
loop_
_atom_site_label
_atom_site_type_symbol
_atom_site_fract_x
_atom_site_fract_y
_atom_site_fract_z
O1 O 0.9754(4) 0.2253(3) 0.91695(5)
H1 H 1.0813 0.2137 0.9224
O2 O 0.9578(2) 0.31536(18) 0.63313(4)
O3 O 0.8371(3) 0.14290(18) 0.60053(4)
C1 C 0.7276(4) 0.1692(3) 0.83724(6)
H2 H 0.5986 0.1706 0.8327
H3 H 0.7718 0.0794 0.8320
C2 C 0.7573(4) 0.1959(4) 0.87432(6)
H4 H 0.7033 0.2819 0.8803
H5 H 0.6982 0.1258 0.8871
C3 C 0.9553(4) 0.1982(3) 0.88233(6)
H6 H 1.0076 0.1096 0.8774
C4 C 1.0515(4) 0.3050(3) 0.86188(6)
H7 H 1.1805 0.3003 0.8662
H8 H 1.0095 0.3937 0.8686
C5 C 1.0188(3) 0.2871(3) 0.82504(6)
C6 C 1.1555(4) 0.2853(3) 0.80397(6)
H9 H 1.2716 0.2923 0.8127
C7 C 1.1395(3) 0.2729(3) 0.76716(6)
H10 H 1.1804 0.1839 0.7604
H11 H 1.2177 0.3391 0.7568
C8 C 0.9458(3) 0.2940(2) 0.75517(5)
H12 H 0.9179 0.3908 0.7558
C9 C 0.8135(3) 0.2190(2) 0.77803(5)
H13 H 0.8553 0.1251 0.7788
C10 C 0.8221(3) 0.2719(2) 0.81427(5)
C11 C 0.6187(3) 0.2145(3) 0.76417(6)
H14 H 0.5471 0.1535 0.7776
H15 H 0.5655 0.3038 0.7660
C12 C 0.6075(4) 0.1686(3) 0.72786(6)
H16 H 0.6438 0.0747 0.7263
H17 H 0.4833 0.1756 0.7203
C13 C 0.7296(3) 0.2547(2) 0.70574(5)
C14 C 0.9234(3) 0.2430(2) 0.71979(5)
H18 H 0.9498 0.1461 0.7206
C15 C 1.0430(3) 0.2998(3) 0.69213(6)
H19 H 1.0331 0.3973 0.6906
H20 H 1.1690 0.2751 0.6952
C16 C 0.9620(3) 0.2309(3) 0.66200(5)
H21 H 1.0280 0.1473 0.6572
C17 C 0.7606(3) 0.1982(2) 0.67024(6)
H22 H 0.7449 0.0999 0.6707
C18 C 0.7292(4) 0.4101(3) 0.81754(7)
H23 H 0.6049 0.4025 0.8108
H24 H 0.7348 0.4396 0.8401
H25 H 0.7898 0.4745 0.8037
C19 C 0.6622(4) 0.4006(3) 0.70506(7)
H26 H 0.7398 0.4537 0.6911
H27 H 0.5409 0.4030 0.6965
H28 H 0.6636 0.4369 0.7271
C20 C 0.6548(4) 0.2558(3) 0.64062(6)
H29 H 0.6122 0.3462 0.6467
C21 C 0.4913(4) 0.1738(5) 0.62991(8)
H30 H 0.4060 0.1691 0.6478
H31 H 0.4354 0.2162 0.6112
H32 H 0.5291 0.0842 0.6240
C22 C 0.8048(4) 0.2728(3) 0.61453(6)
C23 C 0.7682(5) 0.3750(3) 0.58754(7)
H33 H 0.7566 0.4641 0.5973
H34 H 0.6546 0.3533 0.5767
C24 C 0.9191(5) 0.3767(3) 0.56198(7)
H35 H 0.8853 0.4354 0.5438
H36 H 1.0285 0.4126 0.5719
C25 C 0.9555(5) 0.2358(4) 0.54895(7)
H37 H 0.8481 0.2051 0.5369
C26 C 0.9863(5) 0.1414(3) 0.57796(7)
H38 H 1.0039 0.0502 0.5698
H39 H 1.0956 0.1682 0.5895
C27 C 1.1171(8) 0.2325(5) 0.52547(10)
H40 H 1.0955 0.2927 0.5073
H41 H 1.2241 0.2604 0.5371
H42 H 1.1335 0.1423 0.5173
N1 N 0.4162(8) 0.7316(7) 0.53609(13)
C28 C 0.5593(12) 0.7766(10) 0.55297(16)
O4 O 0.6613(5) 0.6874(4) 0.56423(9)
C29 C 0.3892(8) 0.5888(5) 0.53375(13)
H43 H 0.2821 0.5708 0.5210
H44 H 0.4919 0.5481 0.5231
H45 H 0.3754 0.5515 0.5555
C30 C 0.2855(8) 0.8314(7) 0.52225(13)
H46 H 0.1904 0.7844 0.5108
H47 H 0.2346 0.8839 0.5399
H48 H 0.3472 0.8901 0.5071
C31 C 0.5779(11) 0.9279(5) 0.55725(16)
H49 H 0.4805 0.9726 0.5460
H50 H 0.5736 0.9500 0.5804
H51 H 0.6914 0.9571 0.5481
N2? N 0.4635(19) 0.8248(14) 0.5421(3)
C32? C 0.520(2) 0.7047(18) 0.5491(3)
loop_
_geom_bond_atom_site_label_1
_geom_bond_atom_site_label_2
_geom_bond_site_symmetry_1
_geom_bond_site_symmetry_2
O1 H1 1_555 1_555
O2 C16 1_555 1_555
O3 C22 1_555 1_555
C1 H2 1_555 1_555
H3 C1 1_555 1_555
C2 C1 1_555 1_555
H4 C2 1_555 1_555
H5 C2 1_555 1_555
C3 O1 1_555 1_555
H6 C3 1_555 1_555
C4 C3 1_555 1_555
H7 C4 1_555 1_555
H8 C4 1_555 1_555
C5 C4 1_555 1_555
C6 C5 1_555 1_555
H9 C6 1_555 1_555
C7 C6 1_555 1_555
H10 C7 1_555 1_555
H11 C7 1_555 1_555
C8 C7 1_555 1_555
H12 C8 1_555 1_555
C9 C8 1_555 1_555
H13 C9 1_555 1_555
C10 C1 1_555 1_555
C11 C9 1_555 1_555
H14 C11 1_555 1_555
H15 C11 1_555 1_555
C12 C11 1_555 1_555
H16 C12 1_555 1_555
H17 C12 1_555 1_555
C13 C12 1_555 1_555
C14 C8 1_555 1_555
H18 C14 1_555 1_555
C15 C14 1_555 1_555
H19 C15 1_555 1_555
H20 C15 1_555 1_555
C16 C15 1_555 1_555
H21 C16 1_555 1_555
C17 C13 1_555 1_555
H22 C17 1_555 1_555
C18 C10 1_555 1_555
H23 C18 1_555 1_555
H24 C18 1_555 1_555
H25 C18 1_555 1_555
C19 C13 1_555 1_555
H26 C19 1_555 1_555
H27 C19 1_555 1_555
H28 C19 1_555 1_555
C20 C17 1_555 1_555
H29 C20 1_555 1_555
C21 C20 1_555 1_555
H30 C21 1_555 1_555
H31 C21 1_555 1_555
H32 C21 1_555 1_555
C22 O2 1_555 1_555
C23 C22 1_555 1_555
H33 C23 1_555 1_555
H34 C23 1_555 1_555
C24 C23 1_555 1_555
H35 C24 1_555 1_555
H36 C24 1_555 1_555
C25 C24 1_555 1_555
H37 C25 1_555 1_555
C26 O3 1_555 1_555
H38 C26 1_555 1_555
H39 C26 1_555 1_555
C27 C25 1_555 1_555
H40 C27 1_555 1_555
H41 C27 1_555 1_555
H42 C27 1_555 1_555
N1 C28 1_555 1_555
C28 O4 1_555 1_555
C29 N1 1_555 1_555
H43 C29 1_555 1_555
H44 C29 1_555 1_555
H45 C29 1_555 1_555
C30 N1 1_555 1_555
H46 C30 1_555 1_555
H47 C30 1_555 1_555
H48 C30 1_555 1_555
C31 C28 1_555 1_555
H49 C31 1_555 1_555
H50 C31 1_555 1_555
H51 C31 1_555 1_555
C2 C3 1_555 1_555
C5 C10 1_555 1_555
C9 C10 1_555 1_555
C13 C14 1_555 1_555
C16 C17 1_555 1_555
C20 C22 1_555 1_555
C25 C26 1_555 1_555

#END
