
#######################################################################
#
#                 Cambridge Crystallographic Data Centre
#                                CCDC 
#
#######################################################################
#
# If this CIF has been generated from an entry in the Cambridge 
# Structural Database, then it will include bibliographic, chemical, 
# crystal, experimental, refinement or atomic coordinate data resulting 
# from the CCDC's data processing and validation procedures.
#
#######################################################################

data_RIRSEQ
_chemical_formula_moiety         'C23 H28 N2 O2'
_chemical_name_systematic        
'(-)-2-((\aR)-\a-((2S,5R)-4-Allyl-2,5-dimethyl-1-piperazinyl)benzyl)benzoic acid'
_symmetry_cell_setting           orthorhombic
_symmetry_space_group_name_H-M   'P n a 21'
_symmetry_Int_Tables_number      33
_space_group_name_Hall           'P 2c -2n'
loop_
_symmetry_equiv_pos_site_id
_symmetry_equiv_pos_as_xyz
1 x,y,z
2 -x,-y,1/2+z
3 1/2+x,1/2-y,z
4 1/2-x,1/2+y,1/2+z
_cell_length_a                   14.6670(10)
_cell_length_b                   9.122(2)
_cell_length_c                   15.2320(10)
_cell_angle_alpha                90
_cell_angle_beta                 90
_cell_angle_gamma                90
_cell_volume                     2037.93
_chemical_melting_point          128-130deg.C
_cell_formula_units_Z            4
loop_
_atom_site_label
_atom_site_type_symbol
_atom_site_fract_x
_atom_site_fract_y
_atom_site_fract_z
N1 N 0.6515(3) 0.8722(5) 0.8562(3)
C1 C 0.5862(4) 0.7495(6) 0.8653(3)
H1 H 0.6056(4) 0.6932(6) 0.9168(3)
C2 C 0.5965(4) 0.6484(6) 0.7868(4)
H2 H 0.6558(4) 0.6014(6) 0.7896(4)
H3 H 0.5505(4) 0.5723(6) 0.7902(4)
N2 N 0.5878(3) 0.7252(5) 0.7016(3)
H4 H 0.5304(34) 0.7787(56) 0.6945(40)
C3 C 0.6549(3) 0.8500(6) 0.6954(4)
H5 H 0.6405(3) 0.9056(6) 0.6421(4)
C4 C 0.6368(4) 0.9492(6) 0.7732(3)
H6 H 0.6770(4) 1.0336(6) 0.7703(3)
H7 H 0.5744(4) 0.9843(6) 0.7707(3)
C5 C 0.6493(4) 0.9743(6) 0.9304(3)
H8 H 0.5874(4) 1.0138(6) 0.9356(3)
C6 C 0.6741(4) 0.8987(6) 1.0171(4)
C7 C 0.6379(4) 0.9426(6) 1.0978(4)
C8 C 0.6740(4) 0.8841(7) 1.1741(4)
H9 H 0.6509(4) 0.9154(7) 1.2278(4)
C9 C 0.7431(5) 0.7811(7) 1.1737(4)
H10 H 0.7672(5) 0.7458(7) 1.2260(4)
C10 C 0.7755(4) 0.7318(7) 1.0938(4)
H11 H 0.8188(4) 0.6573(7) 1.0920(4)
C11 C 0.7440(4) 0.7926(6) 1.0170(4)
H12 H 0.7692(4) 0.7630(6) 0.9639(4)
C12 C 0.7152(4) 1.1017(6) 0.9199(3)
C13 C 0.6878(7) 1.2428(7) 0.9403(5)
H13 H 0.6274(7) 1.2607(7) 0.9557(5)
C14 C 0.7500(11) 1.3583(9) 0.9378(6)
H14 H 0.7312(11) 1.4523(9) 0.9531(6)
C15 C 0.8379(11) 1.3348(15) 0.9131(7)
H15 H 0.8790(11) 1.4123(15) 0.9117(7)
C16 C 0.8653(6) 1.1976(13) 0.8906(6)
H16 H 0.9249(6) 1.1823(13) 0.8719(6)
C17 C 0.8052(5) 1.0796(8) 0.8953(4)
H17 H 0.8254(5) 0.9856(8) 0.8818(4)
C18 C 0.5921(4) 0.6224(7) 0.6247(4)
H18 H 0.6413(4) 0.5528(7) 0.6334(4)
H19 H 0.6049(4) 0.6776(7) 0.5717(4)
C19 C 0.5033(5) 0.5410(8) 0.6142(5)
H20 H 0.4508(5) 0.5980(8) 0.6107(5)
C20 C 0.4925(7) 0.4076(9) 0.6097(8)
H21 H 0.5427(7) 0.3454(9) 0.6129(8)
H22 H 0.4343(7) 0.3689(9) 0.6032(8)
C21 C 0.4869(4) 0.7920(7) 0.8812(5)
H23 H 0.4833(4) 0.8558(7) 0.9312(5)
H24 H 0.4516(4) 0.7052(7) 0.8920(5)
H25 H 0.4634(4) 0.8416(7) 0.8305(5)
C22 C 0.7529(4) 0.8018(7) 0.6886(5)
H26 H 0.7602(4) 0.7396(7) 0.6383(5)
H27 H 0.7696(4) 0.7489(7) 0.7407(5)
H28 H 0.7914(4) 0.8864(7) 0.6826(5)
C23 C 0.5591(4) 1.0492(7) 1.1081(4)
O1 O 0.4953(3) 1.0491(7) 1.0543(3)
O2 O 0.5619(2) 1.1287(4) 1.1760(3)
loop_
_geom_bond_atom_site_label_1
_geom_bond_atom_site_label_2
_geom_bond_site_symmetry_1
_geom_bond_site_symmetry_2
N1 C1 1_555 1_555
C1 H1 1_555 1_555
C2 C1 1_555 1_555
H2 C2 1_555 1_555
H3 C2 1_555 1_555
N2 C2 1_555 1_555
H4 N2 1_555 1_555
C3 N2 1_555 1_555
H5 C3 1_555 1_555
C4 N1 1_555 1_555
H6 C4 1_555 1_555
H7 C4 1_555 1_555
C5 N1 1_555 1_555
H8 C5 1_555 1_555
C6 C5 1_555 1_555
C7 C6 1_555 1_555
C8 C7 1_555 1_555
H9 C8 1_555 1_555
C9 C8 1_555 1_555
H10 C9 1_555 1_555
C10 C9 1_555 1_555
H11 C10 1_555 1_555
C11 C6 1_555 1_555
H12 C11 1_555 1_555
C12 C5 1_555 1_555
C13 C12 1_555 1_555
H13 C13 1_555 1_555
C14 C13 1_555 1_555
H14 C14 1_555 1_555
C15 C14 1_555 1_555
H15 C15 1_555 1_555
C16 C15 1_555 1_555
H16 C16 1_555 1_555
C17 C12 1_555 1_555
H17 C17 1_555 1_555
C18 N2 1_555 1_555
H18 C18 1_555 1_555
H19 C18 1_555 1_555
C19 C18 1_555 1_555
H20 C19 1_555 1_555
C20 C19 1_555 1_555
H21 C20 1_555 1_555
H22 C20 1_555 1_555
C21 C1 1_555 1_555
H23 C21 1_555 1_555
H24 C21 1_555 1_555
H25 C21 1_555 1_555
C22 C3 1_555 1_555
H26 C22 1_555 1_555
H27 C22 1_555 1_555
H28 C22 1_555 1_555
C23 C7 1_555 1_555
O1 C23 1_555 1_555
O2 C23 1_555 1_555
C3 C4 1_555 1_555
C10 C11 1_555 1_555
C16 C17 1_555 1_555

#END
