
#######################################################################
#
#                 Cambridge Crystallographic Data Centre
#                                CCDC 
#
#######################################################################
#
# If this CIF has been generated from an entry in the Cambridge 
# Structural Database, then it will include bibliographic, chemical, 
# crystal, experimental, refinement or atomic coordinate data resulting 
# from the CCDC's data processing and validation procedures.
#
#######################################################################

data_RISCUR
_chemical_formula_moiety         'C8 H13 N1 O3'
_chemical_name_systematic        'N-Acetylproline methyl ester'
_symmetry_cell_setting           orthorhombic
_symmetry_space_group_name_H-M   'P 21 21 21'
_symmetry_Int_Tables_number      19
_space_group_name_Hall           'P 2ac 2ab'
loop_
_symmetry_equiv_pos_site_id
_symmetry_equiv_pos_as_xyz
1 x,y,z
2 1/2-x,-y,1/2+z
3 -x,1/2+y,1/2-z
4 1/2+x,1/2-y,-z
_cell_length_a                   7.328(3)
_cell_length_b                   10.052(3)
_cell_length_c                   11.643(3)
_cell_angle_alpha                90
_cell_angle_beta                 90
_cell_angle_gamma                90
_cell_volume                     857.636
_exptl_crystal_colour            colorless
_cell_formula_units_Z            4
loop_
_atom_site_label
_atom_site_type_symbol
_atom_site_fract_x
_atom_site_fract_y
_atom_site_fract_z
C1 C 0.0605(2) 0.87507(17) 0.33780(16)
H1 H 0.0720 0.9686 0.3231
H2 H -0.0080 0.8614 0.4071
H3 H 0.1808 0.8387 0.3466
C2 C -0.0348(2) 0.80827(16) 0.23945(15)
O1 O 0.03793(17) 0.71793(12) 0.18445(10)
N1 N -0.20241(18) 0.85182(13) 0.21035(12)
C3 C -0.3027(2) 0.79450(18) 0.11331(15)
H4 H -0.3142 0.7000 0.1220
H5 H -0.2414 0.8130 0.0422
C4 C -0.4889(2) 0.86148(18) 0.11791(16)
H6 H -0.5752 0.8090 0.1603
H7 H -0.5352 0.8763 0.0418
C5 C -0.4500(2) 0.99412(19) 0.17841(15)
H8 H -0.5583 1.0291 0.2136
H9 H -0.4020 1.0589 0.1259
C6 C -0.3063(2) 0.95542(17) 0.26956(14)
H10 H -0.2114 1.0323 0.3002
C7 C -0.3946(2) 0.90069(17) 0.37783(15)
O2 O -0.39030(16) 0.78674(12) 0.40978(11)
O3 O -0.48147(15) 0.99782(11) 0.43494(10)
C8 C -0.5707(2) 0.95785(18) 0.54060(15)
H11 H -0.6511 0.8845 0.5258
H12 H -0.4806 0.9323 0.5962
H13 H -0.6421 1.0302 0.5700
loop_
_geom_bond_atom_site_label_1
_geom_bond_atom_site_label_2
_geom_bond_site_symmetry_1
_geom_bond_site_symmetry_2
C1 H1 1_555 1_555
H2 C1 1_555 1_555
H3 C1 1_555 1_555
C2 C1 1_555 1_555
O1 C2 1_555 1_555
N1 C2 1_555 1_555
C3 N1 1_555 1_555
H4 C3 1_555 1_555
H5 C3 1_555 1_555
C4 C3 1_555 1_555
H6 C4 1_555 1_555
H7 C4 1_555 1_555
C5 C4 1_555 1_555
H8 C5 1_555 1_555
H9 C5 1_555 1_555
C6 N1 1_555 1_555
H10 C6 1_555 1_555
C7 C6 1_555 1_555
O2 C7 1_555 1_555
O3 C7 1_555 1_555
C8 O3 1_555 1_555
H11 C8 1_555 1_555
H12 C8 1_555 1_555
H13 C8 1_555 1_555
C5 C6 1_555 1_555

#END
