
#######################################################################
#
#                 Cambridge Crystallographic Data Centre
#                                CCDC 
#
#######################################################################
#
# If this CIF has been generated from an entry in the Cambridge 
# Structural Database, then it will include bibliographic, chemical, 
# crystal, experimental, refinement or atomic coordinate data resulting 
# from the CCDC's data processing and validation procedures.
#
#######################################################################

data_RISGIK
_chemical_formula_moiety         'C18 H17 N3 O3'
_chemical_name_systematic        
N-(1,5-Dimethyl-3-oxo-2-phenyl-2,3-dihydro-1H-pyrazol-4-yl)-2-hydroxybenzamide
_symmetry_cell_setting           triclinic
_symmetry_space_group_name_H-M   'P -1'
_symmetry_Int_Tables_number      2
_space_group_name_Hall           '-P 1'
loop_
_symmetry_equiv_pos_site_id
_symmetry_equiv_pos_as_xyz
1 x,y,z
2 -x,-y,-z
_cell_length_a                   8.081(3)
_cell_length_b                   8.833(3)
_cell_length_c                   12.279(4)
_cell_angle_alpha                80.37(3)
_cell_angle_beta                 73.68(2)
_cell_angle_gamma                77.41(3)
_cell_volume                     815.65
_exptl_crystal_colour            'pale yellow'
_exptl_crystal_description       plate
_cell_formula_units_Z            2
_exptl_crystal_recrystallization_method dichloromethane/ethanol
loop_
_atom_site_label
_atom_site_type_symbol
_atom_site_fract_x
_atom_site_fract_y
_atom_site_fract_z
O1 O 0.4576(3) 0.8879(3) 0.6450(2)
H1 H 0.505 0.958 0.677
O2 O 0.2766(4) 0.5236(3) 0.5621(2)
O3 O 0.4224(3) 0.9187(3) 0.27299(19)
N1 N 0.3037(4) 0.7766(3) 0.5176(2)
H2 H 0.3440 0.845 0.5304
N2 N -0.0060(4) 0.8561(3) 0.3461(2)
N3 N 0.1437(4) 0.8972(3) 0.2665(2)
C1 C 0.4237(4) 0.6208(4) 0.6708(3)
C2 C 0.4799(4) 0.7415(4) 0.7031(3)
C3 C 0.5601(5) 0.7145(4) 0.7929(3)
H3 H 0.5964 0.7959 0.8138
C4 C 0.5857(6) 0.5671(5) 0.8509(3)
H4 H 0.6400 0.5491 0.9105
C5 C 0.5308(6) 0.4454(5) 0.8207(3)
H5 H 0.5471 0.3460 0.8601
C6 C 0.4521(5) 0.4735(4) 0.7320(3)
H6 H 0.4163 0.3913 0.7118
C7 C 0.3312(4) 0.6347(4) 0.5786(3)
C8 C -0.0865(5) 0.7305(5) 0.5453(3)
H7 H -0.0464 0.7222 0.6129
H8 H -0.0970 0.6290 0.5328
H9 H -0.1987 0.7983 0.5544
C9 C 0.0415(4) 0.7958(4) 0.4454(3)
C10 C 0.2097(4) 0.8112(4) 0.4337(3)
C11 C 0.2777(4) 0.8774(4) 0.3207(3)
C12 C -0.1205(5) 0.7886(5) 0.3012(4)
H10 H -0.2250 0.7753 0.3601
H11 H -0.0603 0.6891 0.2765
H12 H -0.1512 0.8573 0.2378
C13 C 0.1241(5) 1.0148(4) 0.1731(3)
C14 C -0.0168(5) 1.1366(4) 0.1865(3)
H13 H -0.1029 1.1401 0.2551
C15 C -0.0294(6) 1.2534(5) 0.0975(4)
H14 H -0.1244 1.3356 0.1062
C16 C 0.0973(6) 1.2488(5) -0.0035(3)
H15 H 0.0889 1.3284 -0.0628
C17 C 0.2373(5) 1.1263(5) -0.0174(3)
H16 H 0.3235 1.1235 -0.0860
C18 C 0.2498(5) 1.0077(5) 0.0704(3)
H17 H 0.3423 0.9234 0.0603
loop_
_geom_bond_atom_site_label_1
_geom_bond_atom_site_label_2
_geom_bond_site_symmetry_1
_geom_bond_site_symmetry_2
O1 H1 1_555 1_555
O2 C7 1_555 1_555
O3 C11 1_555 1_555
N1 H2 1_555 1_555
N2 N3 1_555 1_555
N3 C11 1_555 1_555
C1 C2 1_555 1_555
C2 O1 1_555 1_555
C3 C2 1_555 1_555
H3 C3 1_555 1_555
C4 C3 1_555 1_555
H4 C4 1_555 1_555
C5 C4 1_555 1_555
H5 C5 1_555 1_555
C6 C1 1_555 1_555
H6 C6 1_555 1_555
C7 N1 1_555 1_555
C8 H7 1_555 1_555
H8 C8 1_555 1_555
H9 C8 1_555 1_555
C9 N2 1_555 1_555
C10 N1 1_555 1_555
C11 C10 1_555 1_555
C12 N2 1_555 1_555
H10 C12 1_555 1_555
H11 C12 1_555 1_555
H12 C12 1_555 1_555
C13 N3 1_555 1_555
C14 C13 1_555 1_555
H13 C14 1_555 1_555
C15 C14 1_555 1_555
H14 C15 1_555 1_555
C16 C15 1_555 1_555
H15 C16 1_555 1_555
C17 C16 1_555 1_555
H16 C17 1_555 1_555
C18 C13 1_555 1_555
H17 C18 1_555 1_555
C1 C7 1_555 1_555
C5 C6 1_555 1_555
C8 C9 1_555 1_555
C9 C10 1_555 1_555
C17 C18 1_555 1_555

#END
