
#######################################################################
#
#                 Cambridge Crystallographic Data Centre
#                                CCDC 
#
#######################################################################
#
# If this CIF has been generated from an entry in the Cambridge 
# Structural Database, then it will include bibliographic, chemical, 
# crystal, experimental, refinement or atomic coordinate data resulting 
# from the CCDC's data processing and validation procedures.
#
#######################################################################

data_RITQER
_chemical_formula_moiety         'C38 H40 N4'
_chemical_name_systematic        
N,N',N'',N'''-tetrakis(2,6-Dimethylphenyl)-2,5-diamino-1,4-benzoquinonedi-imine
_symmetry_cell_setting           triclinic
_symmetry_space_group_name_H-M   'P -1'
_symmetry_Int_Tables_number      2
_space_group_name_Hall           '-P 1'
loop_
_symmetry_equiv_pos_site_id
_symmetry_equiv_pos_as_xyz
1 x,y,z
2 -x,-y,-z
_cell_length_a                   8.483(5)
_cell_length_b                   9.652(5)
_cell_length_c                   10.570(7)
_cell_angle_alpha                81.832(12)
_cell_angle_beta                 66.426(7)
_cell_angle_gamma                74.004(9)
_cell_volume                     762.011
_exptl_crystal_colour            red
_exptl_crystal_description       prism
_cell_formula_units_Z            1
_exptl_crystal_recrystallization_method dichloromethane
loop_
_atom_site_label
_atom_site_type_symbol
_atom_site_fract_x
_atom_site_fract_y
_atom_site_fract_z
N1 N 0.2018(4) 0.7194(4) 0.5300(3)
H1 H 0.132(6) 0.747(5) 0.616(5)
N2 N 0.2562(4) 0.6008(4) 0.7485(3)
C1 C 0.3490(5) 0.6125(4) 0.5059(3)
C2 C 0.3766(5) 0.5460(4) 0.6349(3)
C3 C 0.4682(5) 0.5645(4) 0.3806(3)
H2 H 0.4472 0.6056 0.3020
C4 C 0.1630(5) 0.8144(4) 0.4238(4)
C5 C 0.2656(5) 0.9120(4) 0.3578(4)
C6 C 0.2247(6) 1.0032(5) 0.2549(5)
H3 H 0.2944 1.0671 0.2058
C7 C 0.0830(6) 0.9995(5) 0.2251(5)
H4 H 0.0569 1.0614 0.1565
C8 C -0.0202(6) 0.9060(5) 0.2953(4)
H5 H -0.1170 0.9059 0.2747
C9 C 0.0166(5) 0.8109(4) 0.3970(4)
C10 C 0.4125(6) 0.9259(5) 0.3960(5)
H6 H 0.3697 0.9355 0.4940
H7 H 0.4536 1.0095 0.3491
H8 H 0.5084 0.8414 0.3692
C11 C -0.0968(6) 0.7074(5) 0.4724(5)
H9 H -0.0257 0.6104 0.4571
H10 H -0.1900 0.7210 0.4388
H11 H -0.1474 0.7247 0.5694
C12 C 0.2661(4) 0.5569(4) 0.8801(3)
C13 C 0.3002(5) 0.6554(4) 0.9449(4)
C14 C 0.2953(5) 0.6231(5) 1.0782(4)
H12 H 0.3197 0.6869 1.1221
C15 C 0.2549(6) 0.4983(5) 1.1456(4)
H13 H 0.2505 0.4781 1.2355
C16 C 0.2211(5) 0.4030(5) 1.0817(4)
H14 H 0.1940 0.3185 1.1292
C17 C 0.2262(5) 0.4288(4) 0.9472(4)
C18 C 0.3458(7) 0.7930(5) 0.8707(5)
H15 H 0.4500 0.7702 0.7882
H16 H 0.3676 0.8459 0.9299
H17 H 0.2489 0.8504 0.8469
C19 C 0.1866(6) 0.3230(5) 0.8811(5)
H18 H 0.1085 0.3734 0.8354
H19 H 0.1310 0.2571 0.9505
H20 H 0.2949 0.2704 0.8149
N1A N 0.7982(4) 0.2806(4) 0.4700(3)
H1A H 0.868(6) 0.253(5) 0.384(5)
N2A N 0.7438(4) 0.3992(4) 0.2515(3)
C1A C 0.6510(5) 0.3875(4) 0.4941(3)
C2A C 0.6234(5) 0.4540(4) 0.3651(3)
C3A C 0.5318(5) 0.4355(4) 0.6194(3)
H2A H 0.5528 0.3944 0.6980
C4A C 0.8370(5) 0.1856(4) 0.5762(4)
C5A C 0.7344(5) 0.0880(4) 0.6422(4)
C6A C 0.7753(6) -0.0032(5) 0.7451(5)
H3A H 0.7056 -0.0671 0.7942
C7A C 0.9170(6) 0.0005(5) 0.7749(5)
H4A H 0.9431 -0.0614 0.8435
C8A C 1.0202(6) 0.0940(5) 0.7047(4)
H5A H 1.1170 0.0941 0.7253
C9A C 0.9834(5) 0.1891(4) 0.6030(4)
C10A C 0.5875(6) 0.0741(5) 0.6040(5)
H6A H 0.6303 0.0645 0.5060
H7A H 0.5464 -0.0095 0.6509
H8A H 0.4916 0.1586 0.6308
C11A C 1.0968(6) 0.2926(5) 0.5276(5)
H9A H 1.0257 0.3896 0.5429
H10A H 1.1900 0.2790 0.5612
H11A H 1.1474 0.2753 0.4306
C12A C 0.7339(4) 0.4431(4) 0.1199(3)
C13A C 0.6998(5) 0.3446(4) 0.0551(4)
C14A C 0.7047(5) 0.3769(5) -0.0782(4)
H12A H 0.6803 0.3131 -0.1221
C15A C 0.7451(6) 0.5017(5) -0.1456(4)
H13A H 0.7495 0.5219 -0.2355
C16A C 0.7789(5) 0.5970(5) -0.0817(4)
H14A H 0.8060 0.6815 -0.1292
C17A C 0.7738(5) 0.5712(4) 0.0528(4)
C18A C 0.6542(7) 0.2070(5) 0.1293(5)
H15A H 0.5500 0.2298 0.2118
H16A H 0.6324 0.1541 0.0701
H17A H 0.7511 0.1496 0.1531
C19A C 0.8134(6) 0.6770(5) 0.1189(5)
H18A H 0.8915 0.6266 0.1646
H19A H 0.8690 0.7429 0.0495
H20A H 0.7051 0.7296 0.1851
loop_
_geom_bond_atom_site_label_1
_geom_bond_atom_site_label_2
_geom_bond_site_symmetry_1
_geom_bond_site_symmetry_2
N1 H1 1_555 1_555
N2 C2 1_555 1_555
C1 N1 1_555 1_555
C2 C1 1_555 1_555
C3 C1 1_555 1_555
H2 C3 1_555 1_555
C4 N1 1_555 1_555
C5 C4 1_555 1_555
C6 C5 1_555 1_555
H3 C6 1_555 1_555
C7 C6 1_555 1_555
H4 C7 1_555 1_555
C8 C7 1_555 1_555
H5 C8 1_555 1_555
C9 C4 1_555 1_555
C10 C5 1_555 1_555
H6 C10 1_555 1_555
H7 C10 1_555 1_555
H8 C10 1_555 1_555
C11 C9 1_555 1_555
H9 C11 1_555 1_555
H10 C11 1_555 1_555
H11 C11 1_555 1_555
C12 N2 1_555 1_555
C13 C12 1_555 1_555
C14 C13 1_555 1_555
H12 C14 1_555 1_555
C15 C14 1_555 1_555
H13 C15 1_555 1_555
C16 C15 1_555 1_555
H14 C16 1_555 1_555
C17 C12 1_555 1_555
C18 C13 1_555 1_555
H15 C18 1_555 1_555
H16 C18 1_555 1_555
H17 C18 1_555 1_555
C19 C17 1_555 1_555
H18 C19 1_555 1_555
H19 C19 1_555 1_555
H20 C19 1_555 1_555
N1A H1A 1_555 1_555
N2A C2A 1_555 1_555
C1A N1A 1_555 1_555
C2A C3 1_555 1_555
C3A C2 1_555 1_555
H2A C3A 1_555 1_555
C4A N1A 1_555 1_555
C5A C4A 1_555 1_555
C6A C5A 1_555 1_555
H3A C6A 1_555 1_555
C7A C6A 1_555 1_555
H4A C7A 1_555 1_555
C8A C7A 1_555 1_555
H5A C8A 1_555 1_555
C9A C4A 1_555 1_555
C10A C5A 1_555 1_555
H6A C10A 1_555 1_555
H7A C10A 1_555 1_555
H8A C10A 1_555 1_555
C11A C9A 1_555 1_555
H9A C11A 1_555 1_555
H10A C11A 1_555 1_555
H11A C11A 1_555 1_555
C12A N2A 1_555 1_555
C13A C12A 1_555 1_555
C14A C13A 1_555 1_555
H12A C14A 1_555 1_555
C15A C14A 1_555 1_555
H13A C15A 1_555 1_555
C16A C15A 1_555 1_555
H14A C16A 1_555 1_555
C17A C12A 1_555 1_555
C18A C13A 1_555 1_555
H15A C18A 1_555 1_555
H16A C18A 1_555 1_555
H17A C18A 1_555 1_555
C19A C17A 1_555 1_555
H18A C19A 1_555 1_555
H19A C19A 1_555 1_555
H20A C19A 1_555 1_555
C8 C9 1_555 1_555
C16 C17 1_555 1_555
C1A C2A 1_555 1_555
C1A C3A 1_555 1_555
C8A C9A 1_555 1_555
C16A C17A 1_555 1_555

#END
