
#######################################################################
#
#                 Cambridge Crystallographic Data Centre
#                                CCDC 
#
#######################################################################
#
# If this CIF has been generated from an entry in the Cambridge 
# Structural Database, then it will include bibliographic, chemical, 
# crystal, experimental, refinement or atomic coordinate data resulting 
# from the CCDC's data processing and validation procedures.
#
#######################################################################

data_RITZUQ
_chemical_formula_moiety         'C10 H11 Cl1 O3'
_chemical_name_systematic        4-(4-chlorophenyl)-3,4-dihydroxybutan-2-one
_symmetry_cell_setting           monoclinic
_symmetry_space_group_name_H-M   'P 21'
_symmetry_Int_Tables_number      4
_space_group_name_Hall           'P 2yb'
loop_
_symmetry_equiv_pos_site_id
_symmetry_equiv_pos_as_xyz
1 x,y,z
2 -x,1/2+y,-z
_cell_length_a                   8.5744(17)
_cell_length_b                   5.6867(11)
_cell_length_c                   10.986(2)
_cell_angle_alpha                90
_cell_angle_beta                 104.50(3)
_cell_angle_gamma                90
_cell_volume                     518.615
_exptl_crystal_colour            colorless
_exptl_crystal_description       plate
_cell_formula_units_Z            2
loop_
_atom_site_label
_atom_site_type_symbol
_atom_site_fract_x
_atom_site_fract_y
_atom_site_fract_z
Cl1 Cl 0.63731(14) 0.2179(3) 0.92207(12)
O1 O 1.4627(4) 0.2885(8) 1.5716(4)
O2 O 1.0530(3) 0.4348(5) 1.5129(3)
H1 H 1.0407 0.5762 1.4991
O3 O 1.2066(3) 0.7279(5) 1.3745(3)
H2 H 1.3007 0.7718 1.3921
C1 C 1.3497(6) 0.5860(11) 1.6731(5)
H3 H 1.4552 0.5924 1.7293
H4 H 1.2721 0.5482 1.7197
H5 H 1.3239 0.7359 1.6329
C2 C 1.3463(5) 0.4027(9) 1.5763(4)
C3 C 1.1902(4) 0.3560(7) 1.4749(4)
H6 H 1.1801 0.1865 1.4587
C4 C 1.2004(4) 0.4818(7) 1.3534(4)
H7 H 1.2997 0.4329 1.3318
C5 C 1.0576(4) 0.4188(7) 1.2450(3)
C6 C 0.9272(5) 0.5670(7) 1.2089(4)
H8 H 0.9260 0.7092 1.2505
C7 C 0.7957(5) 0.5039(9) 1.1094(4)
H9 H 0.7073 0.6035 1.0855
C8 C 0.7984(5) 0.2961(8) 1.0481(4)
C9 C 0.9256(5) 0.1434(8) 1.0834(4)
H10 H 0.9253 0.0009 1.0418
C10 C 1.0546(5) 0.2054(8) 1.1824(3)
H11 H 1.1409 0.1022 1.2074
loop_
_geom_bond_atom_site_label_1
_geom_bond_atom_site_label_2
_geom_bond_site_symmetry_1
_geom_bond_site_symmetry_2
Cl1 C8 1_555 1_555
O1 C2 1_555 1_555
O2 H1 1_555 1_555
O3 H2 1_555 1_555
C1 H3 1_555 1_555
H4 C1 1_555 1_555
H5 C1 1_555 1_555
C2 C1 1_555 1_555
C3 O2 1_555 1_555
H6 C3 1_555 1_555
C4 O3 1_555 1_555
H7 C4 1_555 1_555
C5 C4 1_555 1_555
C6 C5 1_555 1_555
H8 C6 1_555 1_555
C7 C6 1_555 1_555
H9 C7 1_555 1_555
C8 C7 1_555 1_555
C9 C8 1_555 1_555
H10 C9 1_555 1_555
C10 C5 1_555 1_555
H11 C10 1_555 1_555
C2 C3 1_555 1_555
C3 C4 1_555 1_555
C9 C10 1_555 1_555

#END
