
#######################################################################
#
#                 Cambridge Crystallographic Data Centre
#                                CCDC 
#
#######################################################################
#
# If this CIF has been generated from an entry in the Cambridge 
# Structural Database, then it will include bibliographic, chemical, 
# crystal, experimental, refinement or atomic coordinate data resulting 
# from the CCDC's data processing and validation procedures.
#
#######################################################################

data_RIVDOP
_chemical_formula_moiety         'C19 H32 O6 Si1'
_chemical_name_systematic        
'(4S,4aR,6R,7R,7aS)-6-((t-Butyldimethylsilyl)oxy)-7-methoxy-2-oxo-7a-vinyl-octahydrobenzofuran-4-carboxylic acid methyl ester'
_symmetry_cell_setting           orthorhombic
_symmetry_space_group_name_H-M   'P 21 21 21'
_symmetry_Int_Tables_number      19
_space_group_name_Hall           'P 2ac 2ab'
loop_
_symmetry_equiv_pos_site_id
_symmetry_equiv_pos_as_xyz
1 x,y,z
2 1/2-x,-y,1/2+z
3 1/2+x,1/2-y,-z
4 -x,1/2+y,1/2-z
_cell_length_a                   8.138(4)
_cell_length_b                   10.846(5)
_cell_length_c                   25.086(10)
_cell_angle_alpha                90
_cell_angle_beta                 90
_cell_angle_gamma                90
_cell_volume                     2214.21
_exptl_crystal_colour            white
_chemical_melting_point          98deg.C
_cell_formula_units_Z            4
loop_
_atom_site_label
_atom_site_type_symbol
_atom_site_fract_x
_atom_site_fract_y
_atom_site_fract_z
Si1 Si 0.30603(13) 0.55340(9) 0.93376(3)
O1 O 0.4308(3) 0.2837(2) 0.7177(1)
O2 O 0.2726(3) 0.1792(2) 0.6611(1)
O3 O 0.1791(3) 0.6800(2) 0.6570(1)
O4 O -0.0016(3) 0.7083(3) 0.7228(1)
O5 O 0.2449(3) 0.4742(2) 0.8808(1)
O6 O 0.4819(3) 0.3167(2) 0.8317(1)
C1 C 0.2949(4) 0.2706(3) 0.6867(1)
C2 C 0.1914(4) 0.3850(3) 0.6903(1)
C3 C 0.3127(4) 0.4806(2) 0.7106(1)
C4 C 0.2453(4) 0.5937(3) 0.7400(1)
C5 C 0.1768(4) 0.5623(3) 0.7952(1)
C6 C 0.3079(4) 0.4997(3) 0.8285(1)
C7 C 0.3582(4) 0.3792(3) 0.8022(1)
C8 C 0.4277(4) 0.4022(3) 0.7456(1)
C9 C 0.1251(4) 0.6657(3) 0.7065(1)
C10 C 0.0882(6) 0.7647(5) 0.6243(2)
C11 C 0.5246(5) 0.5189(6) 0.9491(2)
C12 C 0.2840(8) 0.7204(4) 0.9209(2)
C13 C 0.1674(5) 0.5012(4) 0.9889(1)
C14 C 0.1796(6) 0.3613(4) 0.9951(1)
C15 C 0.2166(7) 0.5641(5) 1.0420(1)
C16 C -0.0115(6) 0.5359(6) 0.9758(2)
C17 C 0.4211(5) 0.2202(3) 0.8644(1)
C18 C 0.6004(4) 0.4535(3) 0.7478(1)
C19 C 0.7192(4) 0.4245(3) 0.7156(2)
H1 H 0.107(4) 0.372(3) 0.716(1)
H2 H 0.138(4) 0.404(2) 0.654(1)
H3 H 0.377(4) 0.506(2) 0.682(1)
H4 H 0.336(4) 0.650(3) 0.745(1)
H5 H 0.138(4) 0.632(3) 0.812(1)
H6 H 0.091(4) 0.508(2) 0.793(1)
H7 H 0.400(4) 0.557(3) 0.831(1)
H8 H 0.264(3) 0.325(2) 0.800(1)
H9 H 0.131(6) 0.761(4) 0.588(2)
H10 H 0.070(6) 0.842(4) 0.636(2)
H11 H -0.021(6) 0.729(5) 0.619(2)
H12 H 0.548(6) 0.561(4) 0.982(2)
H13 H 0.585(6) 0.545(5) 0.916(2)
H14 H 0.531(6) 0.435(4) 0.956(2)
H15 H 0.301(6) 0.761(4) 0.951(2)
H16 H 0.163(6) 0.745(4) 0.911(2)
H17 H 0.342(6) 0.745(4) 0.893(2)
H18 H 0.101(5) 0.338(4) 1.025(1)
H19 H 0.291(6) 0.334(4) 1.007(2)
H20 H 0.157(5) 0.315(4) 0.963(1)
H21 H 0.143(5) 0.540(3) 1.070(1)
H22 H 0.217(5) 0.665(3) 1.039(1)
H23 H 0.329(6) 0.540(4) 1.050(2)
H24 H -0.084(5) 0.517(4) 1.003(1)
H25 H -0.039(5) 0.490(4) 0.942(2)
H26 H -0.026(6) 0.635(4) 0.967(2)
H27 H 0.510(4) 0.175(3) 0.881(1)
H28 H 0.356(5) 0.157(3) 0.842(1)
H29 H 0.343(4) 0.251(3) 0.891(1)
H30 H 0.614(4) 0.517(3) 0.774(1)
H31 H 0.821(5) 0.472(3) 0.721(1)
H32 H 0.712(5) 0.352(3) 0.688(1)
loop_
_geom_bond_atom_site_label_1
_geom_bond_atom_site_label_2
_geom_bond_site_symmetry_1
_geom_bond_site_symmetry_2
Si1 O5 1_555 1_555
O1 C1 1_555 1_555
O2 C1 1_555 1_555
O3 C9 1_555 1_555
O4 C9 1_555 1_555
O5 C6 1_555 1_555
O6 C7 1_555 1_555
C1 C2 1_555 1_555
C2 C3 1_555 1_555
C3 C4 1_555 1_555
C4 C5 1_555 1_555
C5 C6 1_555 1_555
C6 C7 1_555 1_555
C7 C8 1_555 1_555
C8 O1 1_555 1_555
C9 C4 1_555 1_555
C10 O3 1_555 1_555
C11 Si1 1_555 1_555
C12 Si1 1_555 1_555
C13 Si1 1_555 1_555
C14 C13 1_555 1_555
C15 C13 1_555 1_555
C16 C13 1_555 1_555
C17 O6 1_555 1_555
C18 C8 1_555 1_555
C19 C18 1_555 1_555
H1 C2 1_555 1_555
H2 C2 1_555 1_555
H3 C3 1_555 1_555
H4 C4 1_555 1_555
H5 C5 1_555 1_555
H6 C5 1_555 1_555
H7 C6 1_555 1_555
H8 C7 1_555 1_555
H9 C10 1_555 1_555
H10 C10 1_555 1_555
H11 C10 1_555 1_555
H12 C11 1_555 1_555
H13 C11 1_555 1_555
H14 C11 1_555 1_555
H15 C12 1_555 1_555
H16 C12 1_555 1_555
H17 C12 1_555 1_555
H18 C14 1_555 1_555
H19 C14 1_555 1_555
H20 C14 1_555 1_555
H21 C15 1_555 1_555
H22 C15 1_555 1_555
H23 C15 1_555 1_555
H24 C16 1_555 1_555
H25 C16 1_555 1_555
H26 C16 1_555 1_555
H27 C17 1_555 1_555
H28 C17 1_555 1_555
H29 C17 1_555 1_555
H30 C18 1_555 1_555
H31 C19 1_555 1_555
H32 C19 1_555 1_555
C3 C8 1_555 1_555

#END
