
#######################################################################
#
#                 Cambridge Crystallographic Data Centre
#                                CCDC 
#
#######################################################################
#
# If this CIF has been generated from an entry in the Cambridge 
# Structural Database, then it will include bibliographic, chemical, 
# crystal, experimental, refinement or atomic coordinate data resulting 
# from the CCDC's data processing and validation procedures.
#
#######################################################################

data_RIVDOS
_chemical_formula_moiety         'C21 H14 B1 F2 N5'
_chemical_name_systematic        
5,5-difluoro-10-[2-(1H-pyrazol-1-yl)quinolin-3-yl]-5H-6\l^5^,5\l^5^-dipyrrolo[1,2-c:2',1'-f][1,3,2]diazaborinine
_symmetry_cell_setting           monoclinic
_symmetry_space_group_name_H-M   'P 21/c'
_symmetry_Int_Tables_number      14
_space_group_name_Hall           '-P 2ybc'
loop_
_symmetry_equiv_pos_site_id
_symmetry_equiv_pos_as_xyz
1 x,y,z
2 -x,1/2+y,1/2-z
3 -x,-y,-z
4 x,1/2-y,1/2+z
_cell_length_a                   12.7212(4)
_cell_length_b                   7.8655(3)
_cell_length_c                   37.5174(14)
_cell_angle_alpha                90
_cell_angle_beta                 91.927(3)
_cell_angle_gamma                90
_cell_volume                     3751.82
_exptl_crystal_colour            orange
_exptl_crystal_description       needle
_cell_formula_units_Z            8
loop_
_atom_site_label
_atom_site_type_symbol
_atom_site_fract_x
_atom_site_fract_y
_atom_site_fract_z
N1 N 0.51308(13) 0.7750(2) 0.03600(4)
F1 F 0.39559(12) 0.3073(2) 0.20756(4)
N2 N 0.37239(12) 0.7002(2) 0.06933(5)
N3 N 0.45653(12) 0.2674(2) 0.14834(4)
N4 N 0.52875(12) 0.4960(2) 0.18692(4)
F2 F 0.55861(13) 0.2010(2) 0.20108(4)
C1 C 0.55201(14) 0.6217(2) 0.09066(5)
C2 C 0.48298(14) 0.7005(2) 0.06497(5)
C3 C 0.61753(16) 0.7711(2) 0.02853(5)
C4 C 0.65622(15) 0.6181(2) 0.08303(5)
H1 H 0.7041 0.5684 0.0991
N5 N 0.33013(14) 0.7070(2) 0.10196(5)
C5 C 0.69224(15) 0.6884(2) 0.05115(5)
C6 C 0.51898(13) 0.5299(2) 0.12306(5)
C7 C 0.40283(17) 0.1250(3) 0.09915(6)
H2 H 0.3753 0.0392 0.0846
C8 C 0.54805(14) 0.5912(3) 0.15649(5)
C9 C 0.65181(19) 0.8539(3) -0.00231(5)
H3 H 0.6042 0.9144 -0.0168
C10 C 0.43675(15) 0.2822(2) 0.08838(6)
H4 H 0.4372 0.3222 0.0651
C11 C 0.41739(16) 0.1188(3) 0.13571(7)
H5 H 0.4023 0.0251 0.1498
C12 C 0.47059(13) 0.3711(2) 0.11911(5)
C13 C 0.79817(18) 0.6794(3) 0.04110(6)
H6 H 0.8475 0.6220 0.0554
C14 C 0.59091(18) 0.7485(3) 0.16761(6)
H7 H 0.6117 0.8366 0.1529
B1 B 0.48460(18) 0.3127(3) 0.18736(7)
C15 C 0.8279(2) 0.7550(4) 0.01036(7)
H8 H 0.8973 0.7465 0.0035
C16 C 0.22791(19) 0.7115(4) 0.09483(9)
H9 H 0.1775 0.7176 0.1122
C17 C 0.5579(2) 0.5909(4) 0.21507(6)
H10 H 0.5534 0.5571 0.2387
C18 C 0.5962(2) 0.7472(4) 0.20400(7)
H11 H 0.6208 0.8348 0.2187
C19 C 0.7550(2) 0.8451(3) -0.01085(6)
H12 H 0.7772 0.9001 -0.0312
C20 C 0.2981(2) 0.6993(4) 0.04294(8)
H13 H 0.3090 0.6948 0.0186
C21 C 0.2045(2) 0.7063(5) 0.05891(11)
H14 H 0.1380 0.7073 0.0478
N6 N -0.13845(13) 0.1926(2) 0.08619(5)
N7 N 0.04024(12) 0.2788(2) 0.10576(5)
C22 C -0.10474(14) 0.3063(2) 0.14526(5)
C23 C -0.17356(14) 0.2367(2) 0.11957(5)
N8 N -0.09766(14) 0.6535(2) 0.17386(5)
F3 F 0.01344(11) 0.0741(2) 0.05917(4)
C24 C 0.00186(14) 0.3230(2) 0.13866(5)
N9 N -0.12355(16) 0.6616(2) 0.13870(5)
C25 C -0.28074(15) 0.1922(3) 0.12062(6)
H15 H -0.3245 0.2077 0.1397
C26 C -0.14262(14) 0.3520(3) 0.18098(5)
N10 N -0.15455(15) 0.5617(3) 0.22786(5)
F4 F -0.02746(13) 0.3471(2) 0.04717(4)
C27 C -0.13360(15) 0.5189(3) 0.19518(5)
C28 C -0.30824(17) 0.1223(3) 0.08838(7)
H16 H -0.3742 0.0804 0.0815
C29 C -0.18109(16) 0.2295(3) 0.20298(6)
H17 H -0.1906 0.1192 0.1945
C30 C -0.22014(18) 0.1250(3) 0.06780(7)
H18 H -0.2179 0.0854 0.0445
C31 C 0.14474(17) 0.2950(3) 0.10813(8)
H19 H 0.1898 0.2743 0.0896
C32 C 0.08764(16) 0.3670(3) 0.16123(7)
H20 H 0.0848 0.4029 0.1848
C33 C -0.19036(17) 0.4379(4) 0.24983(6)
C34 C -0.0739(2) 0.7987(3) 0.12765(8)
H21 H -0.0777 0.8379 0.1043
C35 C -0.0318(2) 0.7826(3) 0.18393(8)
H22 H -0.0031 0.8018 0.2067
C36 C -0.2126(2) 0.4828(5) 0.28529(7)
H23 H -0.2021 0.5938 0.2932
C37 C -0.0161(2) 0.8769(3) 0.15471(9)
H24 H 0.0250 0.9742 0.1531
C38 C 0.17658(18) 0.3471(4) 0.14194(9)
H25 H 0.2455 0.3652 0.1501
C39 C -0.2676(2) 0.1967(7) 0.29634(9)
H26 H -0.2946 0.1179 0.3121
C40 C -0.20639(16) 0.2695(4) 0.23839(6)
B2 B -0.0260(2) 0.2223(4) 0.07290(7)
C41 C -0.2462(2) 0.1475(5) 0.26224(7)
H27 H -0.2577 0.0359 0.2549
C42 C -0.2492(3) 0.3637(7) 0.30772(9)
H28 H -0.2625 0.3934 0.3311
loop_
_geom_bond_atom_site_label_1
_geom_bond_atom_site_label_2
_geom_bond_site_symmetry_1
_geom_bond_site_symmetry_2
N1 C2 1_555 1_555
F1 B1 1_555 1_555
N2 C2 1_555 1_555
N3 C11 1_555 1_555
N4 C8 1_555 1_555
F2 B1 1_555 1_555
C1 C2 1_555 1_555
C3 N1 1_555 1_555
C4 C1 1_555 1_555
H1 C4 1_555 1_555
N5 N2 1_555 1_555
C5 C3 1_555 1_555
C6 C1 1_555 1_555
C7 H2 1_555 1_555
C8 C6 1_555 1_555
C9 C3 1_555 1_555
H3 C9 1_555 1_555
C10 C7 1_555 1_555
H4 C10 1_555 1_555
C11 C7 1_555 1_555
H5 C11 1_555 1_555
C12 N3 1_555 1_555
C13 C5 1_555 1_555
H6 C13 1_555 1_555
C14 C8 1_555 1_555
H7 C14 1_555 1_555
B1 N3 1_555 1_555
C15 C13 1_555 1_555
H8 C15 1_555 1_555
C16 N5 1_555 1_555
H9 C16 1_555 1_555
C17 N4 1_555 1_555
H10 C17 1_555 1_555
C18 C14 1_555 1_555
H11 C18 1_555 1_555
C19 C9 1_555 1_555
H12 C19 1_555 1_555
C20 N2 1_555 1_555
H13 C20 1_555 1_555
C21 C16 1_555 1_555
H14 C21 1_555 1_555
N6 C23 1_555 1_555
N7 C24 1_555 1_555
C22 C23 1_555 1_555
C23 C25 1_555 1_555
N8 N9 1_555 1_555
F3 B2 1_555 1_555
C24 C22 1_555 1_555
N9 C34 1_555 1_555
C25 H15 1_555 1_555
C26 C22 1_555 1_555
N10 C27 1_555 1_555
F4 B2 1_555 1_555
C27 N8 1_555 1_555
C28 C25 1_555 1_555
H16 C28 1_555 1_555
C29 C26 1_555 1_555
H17 C29 1_555 1_555
C30 N6 1_555 1_555
H18 C30 1_555 1_555
C31 N7 1_555 1_555
H19 C31 1_555 1_555
C32 C24 1_555 1_555
H20 C32 1_555 1_555
C33 N10 1_555 1_555
C34 H21 1_555 1_555
C35 N8 1_555 1_555
H22 C35 1_555 1_555
C36 C33 1_555 1_555
H23 C36 1_555 1_555
C37 C34 1_555 1_555
H24 C37 1_555 1_555
C38 C31 1_555 1_555
H25 C38 1_555 1_555
C39 H26 1_555 1_555
C40 C29 1_555 1_555
B2 N6 1_555 1_555
C41 C39 1_555 1_555
H27 C41 1_555 1_555
C42 C36 1_555 1_555
H28 C42 1_555 1_555
N4 B1 1_555 1_555
C4 C5 1_555 1_555
C6 C12 1_555 1_555
C10 C12 1_555 1_555
C15 C19 1_555 1_555
C17 C18 1_555 1_555
C20 C21 1_555 1_555
N7 B2 1_555 1_555
C26 C27 1_555 1_555
C28 C30 1_555 1_555
C32 C38 1_555 1_555
C33 C40 1_555 1_555
C35 C37 1_555 1_555
C39 C42 1_555 1_555
C40 C41 1_555 1_555

#END
