
#######################################################################
#
#                 Cambridge Crystallographic Data Centre
#                                CCDC 
#
#######################################################################
#
# If this CIF has been generated from an entry in the Cambridge 
# Structural Database, then it will include bibliographic, chemical, 
# crystal, experimental, refinement or atomic coordinate data resulting 
# from the CCDC's data processing and validation procedures.
#
#######################################################################

data_RIVGOT
_chemical_formula_moiety         'C19 H18 O6'
_chemical_name_systematic        5,6,7,4'-Tetramethoxyisoflavone
_symmetry_cell_setting           triclinic
_symmetry_space_group_name_H-M   'P -1'
_symmetry_Int_Tables_number      2
_space_group_name_Hall           '-P 1'
loop_
_symmetry_equiv_pos_site_id
_symmetry_equiv_pos_as_xyz
1 x,y,z
2 -x,-y,-z
_cell_length_a                   7.828(1)
_cell_length_b                   10.285(2)
_cell_length_c                   11.608(2)
_cell_angle_alpha                104.90(2)
_cell_angle_beta                 109.12(1)
_cell_angle_gamma                99.54(1)
_cell_volume                     820.727
_exptl_crystal_colour            colorless
_exptl_crystal_description       prism
_chemical_melting_point          454-456K
_cell_formula_units_Z            2
_exptl_crystal_recrystallization_method ethanol
loop_
_atom_site_label
_atom_site_type_symbol
_atom_site_fract_x
_atom_site_fract_y
_atom_site_fract_z
O1 O 0.1824(2) 0.48363(14) 0.34267(13)
O2 O 0.3371(2) 0.25163(13) 0.57509(13)
O3 O 0.24422(19) 0.87531(13) 0.68894(13)
O4 O 0.3287(2) 0.73775(14) 0.85382(14)
O5 O 0.3839(2) 0.48049(13) 0.78187(12)
O6 O 0.1171(2) -0.30123(15) 0.09137(14)
C1 C 0.2272(3) 0.54168(19) 0.47266(19)
C2 C 0.2136(3) 0.6773(2) 0.5104(2)
H1 H 0.1791 0.7226 0.4502
C3 C 0.2517(3) 0.74347(19) 0.6380(2)
C4 C 0.3030(3) 0.67296(19) 0.72750(19)
C5 C 0.3207(3) 0.53989(18) 0.68837(18)
C6 C 0.2810(2) 0.46752(18) 0.55683(18)
C7 C 0.2875(3) 0.32292(19) 0.50600(18)
C8 C 0.2255(3) 0.26537(19) 0.36480(18)
C9 C 0.1807(3) 0.3496(2) 0.2958(2)
H2 H 0.1448 0.3116 0.2068
C10 C 0.2028(3) 0.11609(19) 0.29764(18)
C11 C 0.3318(3) 0.0456(2) 0.34183(19)
H3 H 0.4369 0.0928 0.4180
C12 C 0.3104(3) -0.0932(2) 0.27662(19)
H4 H 0.3999 -0.1378 0.3089
C13 C 0.1559(3) -0.1644(2) 0.1640(2)
C14 C 0.0251(3) -0.0962(2) 0.1187(2)
H5 H -0.0799 -0.1441 0.0426
C15 C 0.0467(3) 0.0416(2) 0.1839(2)
H6 H -0.0439 0.0854 0.1515
C16 C 0.1759(3) 0.9487(2) 0.6017(2)
H7 H 0.2536 0.9554 0.5532
H8 H 0.1797 1.0409 0.6500
H9 H 0.0489 0.8989 0.5434
C17 C 0.5159(4) 0.8136(3) 0.9355(2)
H10 H 0.5947 0.7513 0.9377
H11 H 0.5226 0.8569 1.0212
H12 H 0.5579 0.8844 0.9031
C18 C 0.2397(4) 0.4003(2) 0.8053(2)
H13 H 0.1560 0.4551 0.8201
H14 H 0.2954 0.3747 0.8801
H15 H 0.1707 0.3174 0.7316
C19 C 0.2560(4) -0.3721(2) 0.1254(2)
H16 H 0.3677 -0.3266 0.1183
H17 H 0.2102 -0.4673 0.0681
H18 H 0.2844 -0.3705 0.2128
loop_
_geom_bond_atom_site_label_1
_geom_bond_atom_site_label_2
_geom_bond_site_symmetry_1
_geom_bond_site_symmetry_2
O1 C1 1_555 1_555
O2 C7 1_555 1_555
O3 C3 1_555 1_555
O4 C4 1_555 1_555
O5 C5 1_555 1_555
O6 C13 1_555 1_555
C1 C2 1_555 1_555
C2 H1 1_555 1_555
C3 C2 1_555 1_555
C4 C3 1_555 1_555
C5 C4 1_555 1_555
C6 C1 1_555 1_555
C7 C6 1_555 1_555
C8 C7 1_555 1_555
C9 O1 1_555 1_555
H2 C9 1_555 1_555
C10 C8 1_555 1_555
C11 C10 1_555 1_555
H3 C11 1_555 1_555
C12 C11 1_555 1_555
H4 C12 1_555 1_555
C13 C12 1_555 1_555
C14 C13 1_555 1_555
H5 C14 1_555 1_555
C15 C10 1_555 1_555
H6 C15 1_555 1_555
C16 O3 1_555 1_555
H7 C16 1_555 1_555
H8 C16 1_555 1_555
H9 C16 1_555 1_555
C17 O4 1_555 1_555
H10 C17 1_555 1_555
H11 C17 1_555 1_555
H12 C17 1_555 1_555
C18 O5 1_555 1_555
H13 C18 1_555 1_555
H14 C18 1_555 1_555
H15 C18 1_555 1_555
C19 O6 1_555 1_555
H16 C19 1_555 1_555
H17 C19 1_555 1_555
H18 C19 1_555 1_555
C5 C6 1_555 1_555
C8 C9 1_555 1_555
C14 C15 1_555 1_555

#END
