
#######################################################################
#
#                 Cambridge Crystallographic Data Centre
#                                CCDC 
#
#######################################################################
#
# If this CIF has been generated from an entry in the Cambridge 
# Structural Database, then it will include bibliographic, chemical, 
# crystal, experimental, refinement or atomic coordinate data resulting 
# from the CCDC's data processing and validation procedures.
#
#######################################################################

data_RIVGOV
_chemical_formula_moiety         'C21 H24 N2 O4 S1'
_chemical_name_systematic        
N-(4-(4-(4,7a-dimethyl-3-oxo-1,3,5,6,7,7a-hexahydro-2-benzofuran-1-yl)-2-furyl)-1,3-thiazol-2-yl)butanamide
_symmetry_cell_setting           orthorhombic
_symmetry_space_group_name_H-M   'P 21 21 21'
_symmetry_Int_Tables_number      19
_space_group_name_Hall           'P 2ac 2ab'
loop_
_symmetry_equiv_pos_site_id
_symmetry_equiv_pos_as_xyz
1 x,y,z
2 1/2-x,-y,1/2+z
3 1/2+x,1/2-y,-z
4 -x,1/2+y,1/2-z
_cell_length_a                   9.2260(11)
_cell_length_b                   11.3528(18)
_cell_length_c                   20.220(3)
_cell_angle_alpha                90
_cell_angle_beta                 90
_cell_angle_gamma                90
_cell_volume                     2117.86
_exptl_crystal_colour            'light colorless'
_exptl_crystal_description       block
_cell_formula_units_Z            4
loop_
_atom_site_label
_atom_site_type_symbol
_atom_site_fract_x
_atom_site_fract_y
_atom_site_fract_z
S1 S -0.22668(16) -0.57662(19) -0.11392(10)
O1 O -0.9965(6) 0.0734(5) -0.2480(3)
O2 O -0.8680(5) -0.0880(5) -0.2297(2)
O3 O -0.4960(5) -0.2813(5) -0.1995(3)
O4 O -0.1743(4) -0.7491(5) -0.0250(2)
N1 N -0.4919(5) -0.5291(5) -0.0861(2)
N2 N -0.4025(5) -0.6844(5) -0.0245(3)
H1 H -0.4882 -0.6948 -0.0089
C1 C -0.9773(9) -0.0126(8) -0.2142(4)
C2 C -1.0479(9) -0.0558(6) -0.1551(3)
C3 C -1.1828(10) -0.0348(7) -0.1375(4)
C4 C -1.2499(10) -0.1016(8) -0.0815(4)
H2 H -1.3286 -0.1493 -0.0987
H3 H -1.2914 -0.0457 -0.0506
C5 C -1.1459(10) -0.1811(9) -0.0443(4)
H4 H -1.0974 -0.1351 -0.0105
H5 H -1.2010 -0.2423 -0.0223
C6 C -1.0327(9) -0.2382(7) -0.0876(4)
H6 H -0.9674 -0.2846 -0.0605
H7 H -1.0794 -0.2906 -0.1189
C7 C -0.9481(8) -0.1459(6) -0.1244(3)
C8 C -0.8788(8) -0.1917(6) -0.1874(4)
H8 H -0.9431 -0.2497 -0.2081
C9 C -1.2846(9) 0.0506(8) -0.1705(4)
H9 H -1.2704 0.1278 -0.1523
H10 H -1.3829 0.0261 -0.1631
H11 H -1.2655 0.0523 -0.2172
C10 C -0.8379(8) -0.0831(8) -0.0800(4)
H12 H -0.7791 -0.0315 -0.1064
H13 H -0.7773 -0.1404 -0.0587
H14 H -0.8883 -0.0380 -0.0471
C11 C -0.7314(8) -0.2414(6) -0.1821(3)
C12 C -0.6090(9) -0.2084(7) -0.2130(4)
H15 H -0.6024 -0.1430 -0.2406
C13 C -0.5477(8) -0.3647(6) -0.1566(3)
C14 C -0.6894(7) -0.3439(6) -0.1463(3)
H16 H -0.7504 -0.3893 -0.1199
C15 C -0.4461(7) -0.4513(6) -0.1342(3)
C16 C -0.3091(7) -0.4636(6) -0.1542(3)
H17 H -0.2647 -0.4167 -0.1860
C17 C -0.3852(6) -0.5985(6) -0.0710(3)
C18 C -0.2948(7) -0.7550(6) -0.0008(4)
C19 C -0.3331(7) -0.8328(7) 0.0553(3)
H18 H -0.2548 -0.8892 0.0603
H19 H -0.4184 -0.8771 0.0423
C20 C -0.3626(15) -0.7816(17) 0.1220(7)
H20 H -0.4015 -0.8415 0.1513
H21 H -0.4325 -0.7181 0.1186
C21 C -0.2200(16) -0.7354(19) 0.1488(10)
H22 H -0.1769 -0.6832 0.1171
H23 H -0.1556 -0.8003 0.1571
H24 H -0.2371 -0.6936 0.1894
H25? H -0.2771 -0.9051 0.0537
H26? H -0.4354 -0.8525 0.0542
C22? C -0.295(3) -0.759(2) 0.1200(9)
H27? H -0.1963 -0.7298 0.1168
H28? H -0.3593 -0.6917 0.1232
C23? C -0.310(2) -0.8335(15) 0.1813(8)
H29? H -0.4035 -0.8700 0.1818
H30? H -0.2989 -0.7847 0.2197
H31? H -0.2360 -0.8932 0.1813
loop_
_geom_bond_atom_site_label_1
_geom_bond_atom_site_label_2
_geom_bond_site_symmetry_1
_geom_bond_site_symmetry_2
S1 C16 1_555 1_555
O1 C1 1_555 1_555
O2 C1 1_555 1_555
O3 C12 1_555 1_555
O4 C18 1_555 1_555
N1 C15 1_555 1_555
N2 H1 1_555 1_555
C1 C2 1_555 1_555
C2 C3 1_555 1_555
C3 C4 1_555 1_555
C4 H2 1_555 1_555
H3 C4 1_555 1_555
C5 C4 1_555 1_555
H4 C5 1_555 1_555
H5 C5 1_555 1_555
C6 C5 1_555 1_555
H6 C6 1_555 1_555
H7 C6 1_555 1_555
C7 C2 1_555 1_555
C8 O2 1_555 1_555
H8 C8 1_555 1_555
C9 C3 1_555 1_555
H9 C9 1_555 1_555
H10 C9 1_555 1_555
H11 C9 1_555 1_555
C10 C7 1_555 1_555
H12 C10 1_555 1_555
H13 C10 1_555 1_555
H14 C10 1_555 1_555
C11 C8 1_555 1_555
C12 C11 1_555 1_555
H15 C12 1_555 1_555
C13 O3 1_555 1_555
C14 C11 1_555 1_555
H16 C14 1_555 1_555
C15 C13 1_555 1_555
C16 C15 1_555 1_555
H17 C16 1_555 1_555
C17 S1 1_555 1_555
C18 N2 1_555 1_555
C19 C18 1_555 1_555
H18 C19 1_555 1_555
H19 C19 1_555 1_555
C20 C19 1_555 1_555
H20 C20 1_555 1_555
H21 C20 1_555 1_555
C21 C20 1_555 1_555
H22 C21 1_555 1_555
H23 C21 1_555 1_555
H24 C21 1_555 1_555
N1 C17 1_555 1_555
N2 C17 1_555 1_555
C6 C7 1_555 1_555
C7 C8 1_555 1_555
C13 C14 1_555 1_555

#END
