
#######################################################################
#
#                 Cambridge Crystallographic Data Centre
#                                CCDC 
#
#######################################################################
#
# If this CIF has been generated from an entry in the Cambridge 
# Structural Database, then it will include bibliographic, chemical, 
# crystal, experimental, refinement or atomic coordinate data resulting 
# from the CCDC's data processing and validation procedures.
#
#######################################################################

data_RIVHAI
_chemical_formula_moiety         'C24 H21 N3 O6 S1'
_chemical_name_systematic        
'N-(4-(3-(4,7a-dimethyl-3-oxo-1,3,5,6,7,7a-hexahydro-2-benzofuran-1-yl)-2-furyl)-1,3-thiazol-2-yl)-4-nitrobenzamide unknown solvate'
_chemical_properties_biological  
'potent larvicidal and growth inhibitory activities against Mythimna separata Walker'
_symmetry_cell_setting           hexagonal
_symmetry_space_group_name_H-M   'P 62'
_symmetry_Int_Tables_number      171
_space_group_name_Hall           'P 62'
loop_
_symmetry_equiv_pos_site_id
_symmetry_equiv_pos_as_xyz
1 x,y,z
2 x-y,x,1/3+z
3 -y,x-y,2/3+z
4 -x,-y,z
5 -x+y,-x,1/3+z
6 y,-x+y,2/3+z
_cell_length_a                   24.075(2)
_cell_length_b                   24.075(2)
_cell_length_c                   7.4926(6)
_cell_angle_alpha                90
_cell_angle_beta                 90
_cell_angle_gamma                120
_cell_volume                     3760.93
_exptl_crystal_colour            'dark yellow'
_cell_formula_units_Z            6
loop_
_atom_site_label
_atom_site_type_symbol
_atom_site_fract_x
_atom_site_fract_y
_atom_site_fract_z
S1 S 0.22136(17) 0.02447(17) 0.3121(4)
O1 O 0.3671(4) -0.1887(4) -0.3115(10)
O2 O 0.3107(3) -0.1419(4) -0.2508(8)
O3 O 0.1585(3) -0.0836(3) -0.2135(9)
O4 O 0.2934(4) 0.0661(4) 0.6113(10)
O5 O 0.5091(4) 0.0802(5) 1.2316(10)
O6 O 0.5671(4) 0.0740(4) 1.0237(10)
N1 N 0.2624(4) -0.0464(4) 0.1742(11)
N2 N 0.3174(4) 0.0034(4) 0.4398(9)
N3 N 0.5195(5) 0.0754(4) 1.0757(11)
C1 C 0.3324(6) -0.1833(5) -0.2105(13)
C2 C 0.3038(4) -0.2122(5) -0.0353(11)
C3 C 0.3285(5) -0.2368(5) 0.0786(12)
C4 C 0.2999(5) -0.2598(5) 0.2598(12)
H1 H 0.3317 -0.2344 0.3492
H2 H 0.2897 -0.3039 0.2739
C5 C 0.2380(5) -0.2559(5) 0.2954(12)
H3 H 0.2010 -0.2951 0.2539
H4 H 0.2333 -0.2526 0.4229
C6 C 0.2398(5) -0.1987(5) 0.2022(11)
H5 H 0.2747 -0.1591 0.2502
H6 H 0.2000 -0.1989 0.2238
C7 C 0.2493(5) -0.2018(5) 0.0018(11)
C8 C 0.2728(4) -0.1380(5) -0.0976(11)
H7 H 0.3018 -0.1027 -0.0192
C9 C 0.2247(5) -0.1227(5) -0.1754(12)
C10 C 0.1940(5) -0.1430(5) -0.3463(13)
H8 H 0.2005 -0.1677 -0.4302
C11 C 0.1542(6) -0.1192(6) -0.3611(16)
H9 H 0.1274 -0.1260 -0.4581
C12 C 0.2033(5) -0.0856(5) -0.1021(13)
C13 C 0.2137(5) -0.0498(5) 0.0624(12)
C14 C 0.1891(6) -0.0158(6) 0.1122(15)
H10 H 0.1575 -0.0130 0.0485
C15 C 0.2699(5) -0.0083(5) 0.3087(14)
C16 C 0.3257(5) 0.0422(5) 0.5834(14)
C17 C 0.3792(5) 0.0516(5) 0.7082(13)
C18 C 0.4365(6) 0.0559(5) 0.6472(14)
H11 H 0.4424 0.0521 0.5261
C19 C 0.4830(5) 0.0655(5) 0.7657(15)
H12 H 0.5223 0.0711 0.7276
C20 C 0.4701(5) 0.0669(4) 0.9471(12)
C21 C 0.4147(5) 0.0607(4) 1.0113(13)
H13 H 0.4082 0.0613 1.1335
C22 C 0.3679(5) 0.0533(4) 0.8897(12)
H14 H 0.3295 0.0496 0.9291
C23 C 0.3864(5) -0.2448(6) 0.0374(15)
H15 H 0.4152 -0.2300 0.1371
H16 H 0.4080 -0.2201 -0.0665
H17 H 0.3721 -0.2892 0.0157
C24 C 0.1871(4) -0.2546(4) -0.0795(13)
H18 H 0.1931 -0.2577 -0.2050
H19 H 0.1536 -0.2445 -0.0620
H20 H 0.1754 -0.2947 -0.0229
loop_
_geom_bond_atom_site_label_1
_geom_bond_atom_site_label_2
_geom_bond_site_symmetry_1
_geom_bond_site_symmetry_2
S1 C14 1_555 1_555
O1 C1 1_555 1_555
O2 C1 1_555 1_555
O3 C11 1_555 1_555
O4 C16 1_555 1_555
O5 N3 1_555 1_555
O6 N3 1_555 1_555
N1 C13 1_555 1_555
N2 C15 1_555 1_555
N3 C20 1_555 1_555
C1 C2 1_555 1_555
C2 C3 1_555 1_555
C3 C4 1_555 1_555
C4 H1 1_555 1_555
H2 C4 1_555 1_555
C5 C4 1_555 1_555
H3 C5 1_555 1_555
H4 C5 1_555 1_555
C6 C5 1_555 1_555
H5 C6 1_555 1_555
H6 C6 1_555 1_555
C7 C2 1_555 1_555
C8 O2 1_555 1_555
H7 C8 1_555 1_555
C9 C8 1_555 1_555
C10 C9 1_555 1_555
H8 C10 1_555 1_555
C11 C10 1_555 1_555
H9 C11 1_555 1_555
C12 O3 1_555 1_555
C13 C12 1_555 1_555
C14 C13 1_555 1_555
H10 C14 1_555 1_555
C15 S1 1_555 1_555
C16 N2 1_555 1_555
C17 C16 1_555 1_555
C18 C17 1_555 1_555
H11 C18 1_555 1_555
C19 C18 1_555 1_555
H12 C19 1_555 1_555
C20 C19 1_555 1_555
C21 C20 1_555 1_555
H13 C21 1_555 1_555
C22 C17 1_555 1_555
H14 C22 1_555 1_555
C23 C3 1_555 1_555
H15 C23 1_555 1_555
H16 C23 1_555 1_555
H17 C23 1_555 1_555
C24 C7 1_555 1_555
H18 C24 1_555 1_555
H19 C24 1_555 1_555
H20 C24 1_555 1_555
N1 C15 1_555 1_555
C6 C7 1_555 1_555
C7 C8 1_555 1_555
C9 C12 1_555 1_555
C21 C22 1_555 1_555

#END
