
#######################################################################
#
#                 Cambridge Crystallographic Data Centre
#                                CCDC 
#
#######################################################################
#
# If this CIF has been generated from an entry in the Cambridge 
# Structural Database, then it will include bibliographic, chemical, 
# crystal, experimental, refinement or atomic coordinate data resulting 
# from the CCDC's data processing and validation procedures.
#
#######################################################################

data_RIVTOH
_chemical_name_common            'Sculponin R'
_chemical_formula_moiety         'C20 H26 O7'
_chemical_name_systematic        
14,17-Dihydroxy-7,7,17-trimethyl-3,10,20-trioxahexacyclo[14.2.1.1^6,9^.0^1,13^.0^4,12^.0^8,12^]icosane-2,18-dione
_symmetry_cell_setting           monoclinic
_symmetry_space_group_name_H-M   'P 21'
_symmetry_Int_Tables_number      4
_space_group_name_Hall           'P 2yb'
loop_
_symmetry_equiv_pos_site_id
_symmetry_equiv_pos_as_xyz
1 x,y,z
2 -x,1/2+y,-z
_cell_length_a                   8.72300(10)
_cell_length_b                   11.3985(2)
_cell_length_c                   9.1543(2)
_cell_angle_alpha                90
_cell_angle_beta                 102.50
_cell_angle_gamma                90
_cell_volume                     888.628
_exptl_crystal_colour            colorless
_exptl_crystal_description       block
_cell_formula_units_Z            2
loop_
_atom_site_label
_atom_site_type_symbol
_atom_site_fract_x
_atom_site_fract_y
_atom_site_fract_z
O1 O 0.5614(2) 0.5696(2) 0.8914(2)
O2 O 0.4876(2) 0.4213(2) 0.7128(2)
O3 O 0.0859(2) 0.59237(18) 0.72172(19)
O4 O -0.1098(2) 0.4817(2) 0.6068(2)
O5 O 0.3968(2) 0.6918(2) 0.3249(2)
H1 H 0.4229 0.7578 0.2975
O6 O -0.0050(2) 0.37444(18) 0.3463(2)
C1 C 0.5722(3) 0.5248(3) 0.7462(3)
H2 H 0.6842 0.5137 0.7396
C2 C 0.4935(3) 0.6187(3) 0.6377(3)
H3 H 0.5324 0.6187 0.5426
C3 C 0.3163(3) 0.5823(2) 0.6121(3)
C4 C 0.2215(3) 0.5886(2) 0.4479(3)
H4 H 0.2539 0.5200 0.3936
C5 C 0.0407(3) 0.5720(2) 0.4485(3)
C6 C -0.0173(3) 0.4787(3) 0.3294(3)
C7 C -0.0858(3) 0.5412(3) 0.1803(3)
O7 O -0.2500(2) 0.5224(3) 0.1655(2)
H5 H -0.2991 0.5525 0.0851
C8 C 0.4977(3) 0.6872(3) 0.8753(3)
H6 H 0.5500 0.7367 0.9621
C9 C 0.3249(3) 0.4524(2) 0.6690(3)
H7 H 0.2739 0.4453 0.7552
H8 H 0.2704 0.3997 0.5884
C10 C 0.5404(3) 0.7321(3) 0.7308(3)
C11 C 0.7189(3) 0.7493(3) 0.7553(3)
H9 H 0.7462 0.7698 0.6602
H10 H 0.7724 0.6764 0.7938
H11 H 0.7520 0.8126 0.8278
C12 C 0.4657(4) 0.8479(3) 0.6716(3)
H12 H 0.5038 0.9103 0.7440
H13 H 0.3512 0.8417 0.6566
H14 H 0.4937 0.8663 0.5762
C13 C 0.2281(3) 0.6567(2) 0.7071(3)
H15 H 0.1961 0.7324 0.6540
C14 C 0.0000(3) 0.5421(3) 0.5979(3)
C15 C -0.0605(3) 0.6793(3) 0.3815(3)
H16 H -0.1707 0.6712 0.3917
H17 H -0.0165 0.7538 0.4283
C16 C -0.0466(3) 0.6712(3) 0.2165(3)
H18 H -0.1259 0.7231 0.1521
C17 C 0.1210(3) 0.7095(3) 0.2098(3)
H19 H 0.1174 0.7920 0.1757
H20 H 0.1567 0.6612 0.1336
C18 C 0.2440(3) 0.6995(2) 0.3586(3)
H21 H 0.2385 0.7707 0.4211
C19 C -0.0281(4) 0.4862(3) 0.0512(3)
H22 H -0.0589 0.4033 0.0421
H23 H 0.0866 0.4922 0.0698
H24 H -0.0747 0.5273 -0.0418
C20 C 0.3194(3) 0.6836(3) 0.8656(3)
H25 H 0.2959 0.6228 0.9348
H26 H 0.2847 0.7602 0.8979
loop_
_geom_bond_atom_site_label_1
_geom_bond_atom_site_label_2
_geom_bond_site_symmetry_1
_geom_bond_site_symmetry_2
O1 C1 1_555 1_555
O2 C1 1_555 1_555
O3 C13 1_555 1_555
O4 C14 1_555 1_555
O5 H1 1_555 1_555
O6 C6 1_555 1_555
C1 H2 1_555 1_555
C2 C1 1_555 1_555
H3 C2 1_555 1_555
C3 C2 1_555 1_555
C4 C3 1_555 1_555
H4 C4 1_555 1_555
C5 C4 1_555 1_555
C6 C5 1_555 1_555
C7 C6 1_555 1_555
O7 C7 1_555 1_555
H5 O7 1_555 1_555
C8 O1 1_555 1_555
H6 C8 1_555 1_555
C9 O2 1_555 1_555
H7 C9 1_555 1_555
H8 C9 1_555 1_555
C10 C2 1_555 1_555
C11 C10 1_555 1_555
H9 C11 1_555 1_555
H10 C11 1_555 1_555
H11 C11 1_555 1_555
C12 C10 1_555 1_555
H12 C12 1_555 1_555
H13 C12 1_555 1_555
H14 C12 1_555 1_555
C13 C3 1_555 1_555
H15 C13 1_555 1_555
C14 O3 1_555 1_555
C15 C5 1_555 1_555
H16 C15 1_555 1_555
H17 C15 1_555 1_555
C16 C7 1_555 1_555
H18 C16 1_555 1_555
C17 C16 1_555 1_555
H19 C17 1_555 1_555
H20 C17 1_555 1_555
C18 O5 1_555 1_555
H21 C18 1_555 1_555
C19 C7 1_555 1_555
H22 C19 1_555 1_555
H23 C19 1_555 1_555
H24 C19 1_555 1_555
C20 C8 1_555 1_555
H25 C20 1_555 1_555
H26 C20 1_555 1_555
C3 C9 1_555 1_555
C4 C18 1_555 1_555
C5 C14 1_555 1_555
C8 C10 1_555 1_555
C13 C20 1_555 1_555
C15 C16 1_555 1_555
C17 C18 1_555 1_555

#END
