
#######################################################################
#
#                 Cambridge Crystallographic Data Centre
#                                CCDC 
#
#######################################################################
#
# If this CIF has been generated from an entry in the Cambridge 
# Structural Database, then it will include bibliographic, chemical, 
# crystal, experimental, refinement or atomic coordinate data resulting 
# from the CCDC's data processing and validation procedures.
#
#######################################################################

data_RIWHUC
_chemical_compound_source        'seeds of Caesalpinia minax'
_chemical_name_common            'Caesalminaxin C'
_chemical_formula_moiety         'C28 H40 O11'
_chemical_name_systematic        
"3-Ethoxy-5a-hydroxy-3,6,6,9a-tetramethyl-3'-oxododecahydrospiro[cyclopenta[a]naphthalene-2,2'-[4,6]dioxabicyclo[3.1.0]hexane]-4,5,9-triyl triacetate"
_chemical_properties_biological  'cytotoxic activity'
_symmetry_cell_setting           orthorhombic
_symmetry_space_group_name_H-M   'P 21 21 21'
_symmetry_Int_Tables_number      19
_space_group_name_Hall           'P 2ac 2ab'
loop_
_symmetry_equiv_pos_site_id
_symmetry_equiv_pos_as_xyz
1 x,y,z
2 1/2+x,1/2-y,-z
3 -x,1/2+y,1/2-z
4 1/2-x,-y,1/2+z
_cell_length_a                   11.6397(2)
_cell_length_b                   11.7388(2)
_cell_length_c                   19.9846(3)
_cell_angle_alpha                90
_cell_angle_beta                 90
_cell_angle_gamma                90
_cell_volume                     2730.62
_exptl_crystal_colour            colorless
_exptl_crystal_description       block
_cell_formula_units_Z            4
loop_
_atom_site_label
_atom_site_type_symbol
_atom_site_fract_x
_atom_site_fract_y
_atom_site_fract_z
O1 O 0.30696(9) 1.05781(9) 0.07256(5)
O2 O 0.40334(13) 1.18339(15) 0.00931(8)
O3 O 0.18814(9) 0.91513(9) 0.15701(5)
H1 H 0.1927 0.9716 0.1313
O4 O 0.18790(9) 0.75870(9) 0.25635(5)
O5 O 0.28929(12) 0.67248(13) 0.33806(6)
O6 O 0.28060(10) 0.57834(9) 0.18400(5)
O7 O 0.08900(11) 0.55668(12) 0.17177(8)
O8 O 0.24839(9) 0.60224(9) 0.03383(5)
O9 O 0.22292(9) 0.79990(10) -0.05276(6)
O10 O 0.34676(10) 0.73678(11) -0.12915(5)
O11 O 0.45918(10) 0.57680(10) -0.10238(6)
C1 C 0.40710(14) 1.03807(13) 0.11514(7)
H2 H 0.4784 1.0461 0.0876
C2 C 0.40864(15) 1.12681(13) 0.17075(8)
H3 H 0.4059 1.2039 0.1507
H4 H 0.4813 1.1200 0.1962
C3 C 0.30726(15) 1.11216(13) 0.21842(8)
H5 H 0.2355 1.1287 0.1936
H6 H 0.3141 1.1694 0.2546
C4 C 0.29654(14) 0.99259(13) 0.25063(7)
C5 C 0.29437(13) 0.90173(12) 0.19233(7)
C6 C 0.28938(12) 0.77566(12) 0.21562(7)
H7 H 0.3599 0.7563 0.2419
C7 C 0.27561(13) 0.69278(12) 0.15683(7)
H8 H 0.1996 0.7053 0.1347
C8 C 0.37106(13) 0.70819(12) 0.10626(7)
H9 H 0.4458 0.6921 0.1291
C9 C 0.37240(12) 0.83177(13) 0.08283(7)
H10 H 0.2936 0.8502 0.0661
C10 C 0.39874(13) 0.91431(13) 0.14129(7)
C11 C 0.45196(13) 0.82680(13) 0.02216(7)
H11 H 0.5332 0.8183 0.0359
H12 H 0.4441 0.8958 -0.0059
C12 C 0.31330(13) 0.75550(13) -0.06426(7)
C13 C 0.40842(13) 0.71872(12) -0.01541(7)
C14 C 0.36496(13) 0.63406(13) 0.04192(7)
C15 C 0.49898(13) 0.67327(13) -0.06220(7)
H13 H 0.5824 0.6828 -0.0517
C16 C 0.45731(14) 0.68733(14) -0.12982(8)
H14 H 0.5124 0.7077 -0.1663
C17 C 0.44464(14) 0.53158(13) 0.04918(8)
H15 H 0.4203 0.4855 0.0875
H16 H 0.5236 0.5581 0.0563
H17 H 0.4413 0.4853 0.0084
C18 C 0.18272(16) 0.99447(15) 0.29029(8)
H18 H 0.1815 0.9307 0.3219
H19 H 0.1180 0.9875 0.2592
H20 H 0.1765 1.0664 0.3149
C19 C 0.39349(16) 0.97603(15) 0.30176(8)
H21 H 0.3817 1.0277 0.3396
H22 H 0.4675 0.9927 0.2806
H23 H 0.3931 0.8971 0.3177
C20 C 0.51816(13) 0.88598(14) 0.17179(8)
H24 H 0.5681 0.8543 0.1370
H25 H 0.5089 0.8301 0.2078
H26 H 0.5528 0.9556 0.1898
C21 C 0.31905(16) 1.12751(15) 0.01923(9)
C22 C 0.21421(19) 1.12232(17) -0.02381(10)
H27 H 0.2200 1.1796 -0.0594
H28 H 0.1460 1.1376 0.0035
H29 H 0.2079 1.0464 -0.0438
C23 C 0.19945(15) 0.70388(13) 0.31537(8)
C24 C 0.08426(17) 0.68979(17) 0.34796(9)
H30 H 0.0943 0.6583 0.3930
H31 H 0.0370 0.6378 0.3212
H32 H 0.0461 0.7640 0.3510
C25 C 0.18048(17) 0.52009(14) 0.18766(9)
C26 C 0.2025(2) 0.40355(18) 0.21604(12)
H33 H 0.2233 0.4103 0.2634
H34 H 0.2655 0.3673 0.1915
H35 H 0.1329 0.3571 0.2118
C27 C 0.22117(14) 0.51707(14) -0.01537(8)
H36 H 0.2914 0.4963 -0.0405
H37 H 0.1645 0.5480 -0.0475
C28 C 0.1730(2) 0.41394(18) 0.01780(12)
H38 H 0.2323 0.3785 0.0457
H39 H 0.1475 0.3596 -0.0163
H40 H 0.1076 0.4359 0.0458
loop_
_geom_bond_atom_site_label_1
_geom_bond_atom_site_label_2
_geom_bond_site_symmetry_1
_geom_bond_site_symmetry_2
O1 C1 1_555 1_555
O2 C21 1_555 1_555
O3 H1 1_555 1_555
O4 C6 1_555 1_555
O5 C23 1_555 1_555
O6 C7 1_555 1_555
O7 C25 1_555 1_555
O8 C14 1_555 1_555
O9 C12 1_555 1_555
O10 C12 1_555 1_555
O11 C15 1_555 1_555
C1 H2 1_555 1_555
C2 C1 1_555 1_555
H3 C2 1_555 1_555
H4 C2 1_555 1_555
C3 C2 1_555 1_555
H5 C3 1_555 1_555
H6 C3 1_555 1_555
C4 C3 1_555 1_555
C5 O3 1_555 1_555
C6 C5 1_555 1_555
H7 C6 1_555 1_555
C7 C6 1_555 1_555
H8 C7 1_555 1_555
C8 C7 1_555 1_555
H9 C8 1_555 1_555
C9 C8 1_555 1_555
H10 C9 1_555 1_555
C10 C1 1_555 1_555
C11 C9 1_555 1_555
H11 C11 1_555 1_555
H12 C11 1_555 1_555
C12 C13 1_555 1_555
C13 C11 1_555 1_555
C14 C8 1_555 1_555
C15 C13 1_555 1_555
H13 C15 1_555 1_555
C16 O10 1_555 1_555
H14 C16 1_555 1_555
C17 C14 1_555 1_555
H15 C17 1_555 1_555
H16 C17 1_555 1_555
H17 C17 1_555 1_555
C18 C4 1_555 1_555
H18 C18 1_555 1_555
H19 C18 1_555 1_555
H20 C18 1_555 1_555
C19 C4 1_555 1_555
H21 C19 1_555 1_555
H22 C19 1_555 1_555
H23 C19 1_555 1_555
C20 C10 1_555 1_555
H24 C20 1_555 1_555
H25 C20 1_555 1_555
H26 C20 1_555 1_555
C21 O1 1_555 1_555
C22 C21 1_555 1_555
H27 C22 1_555 1_555
H28 C22 1_555 1_555
H29 C22 1_555 1_555
C23 O4 1_555 1_555
C24 C23 1_555 1_555
H30 C24 1_555 1_555
H31 C24 1_555 1_555
H32 C24 1_555 1_555
C25 O6 1_555 1_555
C26 C25 1_555 1_555
H33 C26 1_555 1_555
H34 C26 1_555 1_555
H35 C26 1_555 1_555
C27 O8 1_555 1_555
H36 C27 1_555 1_555
H37 C27 1_555 1_555
C28 C27 1_555 1_555
H38 C28 1_555 1_555
H39 C28 1_555 1_555
H40 C28 1_555 1_555
O11 C16 1_555 1_555
C4 C5 1_555 1_555
C5 C10 1_555 1_555
C9 C10 1_555 1_555
C13 C14 1_555 1_555
C15 C16 1_555 1_555

#END
