
#######################################################################
#
#                 Cambridge Crystallographic Data Centre
#                                CCDC 
#
#######################################################################
#
# If this CIF has been generated from an entry in the Cambridge 
# Structural Database, then it will include bibliographic, chemical, 
# crystal, experimental, refinement or atomic coordinate data resulting 
# from the CCDC's data processing and validation procedures.
#
#######################################################################

data_RIWQUL
_chemical_name_common            'Caesalminaxin E2'
_chemical_formula_moiety         'C26 H38 O12'
_chemical_name_systematic        
'1,2,5a,11a-Tetrahydroxy-3a,6,6,9a-tetramethyl-11-oxohexadecahydrophenanthro[1,2-b]furan-4,5,9-triyl triacetate'
_symmetry_cell_setting           orthorhombic
_symmetry_space_group_name_H-M   'P 21 21 21'
_symmetry_Int_Tables_number      19
_space_group_name_Hall           'P 2ac 2ab'
loop_
_symmetry_equiv_pos_site_id
_symmetry_equiv_pos_as_xyz
1 x,y,z
2 1/2+x,1/2-y,-z
3 -x,1/2+y,1/2-z
4 1/2-x,-y,1/2+z
_cell_length_a                   11.3438(8)
_cell_length_b                   14.0817(9)
_cell_length_c                   16.2703(10)
_cell_angle_alpha                90
_cell_angle_beta                 90
_cell_angle_gamma                90
_cell_volume                     2599.02
_exptl_crystal_colour            colorless
_exptl_crystal_description       column
_cell_formula_units_Z            4
loop_
_atom_site_label
_atom_site_type_symbol
_atom_site_fract_x
_atom_site_fract_y
_atom_site_fract_z
O1 O 0.68132(14) 0.37665(13) 0.12032(10)
O2 O 0.17193(14) 0.52450(13) 0.11505(10)
O3 O 0.43448(17) 0.13348(15) 0.10351(11)
H1 H 0.367(3) 0.100(2) 0.0997(19)
O4 O 0.40357(16) 0.18253(14) 0.32328(11)
H2 H 0.338(3) 0.180(2) 0.3398(19)
O5 O 0.19794(15) 0.22870(15) 0.26796(12)
O6 O 0.41052(15) 0.57262(13) 0.11682(10)
H3 H 0.468(3) 0.609(2) 0.1197(17)
O7 O 0.63790(14) 0.54020(13) 0.03377(10)
O8 O 0.72623(16) 0.44890(15) -0.06163(11)
O9 O 0.74689(15) 0.45431(15) 0.23361(12)
O10 O 0.60079(13) 0.25179(12) 0.23889(10)
O11 O 0.67632(15) 0.10130(14) 0.22544(11)
H4 H 0.650(3) 0.096(2) 0.288(2)
O12 O -0.02034(16) 0.49671(16) 0.08908(12)
C1 C 0.8628(2) 0.3277(2) 0.17583(18)
H5 H 0.9228 0.3468 0.2140
H6 H 0.8941 0.3292 0.1210
H7 H 0.8371 0.2645 0.1887
C2 C 0.7605(2) 0.3944(2) 0.18175(16)
C3 C 0.5674(2) 0.42196(19) 0.12617(15)
H8 H 0.5682 0.4694 0.1702
C4 C 0.5450(2) 0.47021(18) 0.04369(15)
H9 H 0.5499 0.4232 -0.0006
C5 C 0.4231(2) 0.51969(18) 0.04110(14)
C6 C 0.3304(2) 0.43544(19) 0.04753(14)
C7 C 0.2023(2) 0.4734(2) 0.03989(14)
H10 H 0.1488 0.4191 0.0341
C8 C 0.0551(2) 0.5334(2) 0.13083(16)
C9 C 0.0325(2) 0.5946(2) 0.20381(17)
H11 H 0.0162 0.6583 0.1860
H12 H 0.1007 0.5947 0.2387
H13 H -0.0339 0.5704 0.2337
C10 C 0.4635(2) 0.1376(2) 0.18806(15)
H14 H 0.4513 0.0752 0.2135
C11 C 0.4023(2) 0.21555(19) 0.24003(15)
C12 C 0.2767(2) 0.2458(2) 0.21916(17)
C13 C 0.2582(2) 0.2998(2) 0.14133(17)
H15 H 0.1785 0.3247 0.1404
H16 H 0.2668 0.2569 0.0950
C14 C 0.3470(2) 0.38345(19) 0.13164(15)
H17 H 0.3307 0.4294 0.1754
C15 C 0.7231(2) 0.5215(2) -0.02237(16)
C16 C 0.8059(2) 0.6025(2) -0.03056(19)
H18 H 0.8850 0.5789 -0.0350
H19 H 0.7996 0.6426 0.0169
H20 H 0.7866 0.6383 -0.0789
C17 C 0.4742(2) 0.34550(19) 0.14455(14)
H21 H 0.4860 0.2946 0.1043
C18 C 0.48884(19) 0.29990(18) 0.23133(15)
C19 C 0.5964(2) 0.16525(19) 0.19270(16)
H22 H 0.6223 0.1799 0.1367
C20 C 0.4823(2) 0.37116(19) 0.30124(14)
H23 H 0.4846 0.3381 0.3528
H24 H 0.4102 0.4065 0.2973
H25 H 0.5481 0.4139 0.2978
C21 C 0.4033(2) 0.5913(2) -0.03125(15)
C22 C 0.2719(2) 0.6215(2) -0.03129(16)
H26 H 0.2565 0.6590 0.0176
H27 H 0.2575 0.6617 -0.0787
C23 C 0.1861(2) 0.5384(2) -0.03345(15)
H28 H 0.1060 0.5624 -0.0339
H29 H 0.1982 0.5024 -0.0836
C24 C 0.4726(2) 0.68491(19) -0.02029(17)
H30 H 0.4493 0.7292 -0.0621
H31 H 0.5555 0.6724 -0.0249
H32 H 0.4559 0.7112 0.0329
C25 C 0.4360(2) 0.5536(2) -0.11766(15)
H33 H 0.4440 0.6060 -0.1550
H34 H 0.3750 0.5118 -0.1369
H35 H 0.5092 0.5195 -0.1147
C26 C 0.3447(2) 0.3622(2) -0.02303(16)
H36 H 0.2757 0.3228 -0.0258
H37 H 0.4126 0.3234 -0.0127
H38 H 0.3545 0.3952 -0.0742
loop_
_geom_bond_atom_site_label_1
_geom_bond_atom_site_label_2
_geom_bond_site_symmetry_1
_geom_bond_site_symmetry_2
O1 C2 1_555 1_555
O2 C7 1_555 1_555
O3 H1 1_555 1_555
O4 H2 1_555 1_555
O5 C12 1_555 1_555
O6 H3 1_555 1_555
O7 C4 1_555 1_555
O8 C15 1_555 1_555
O9 C2 1_555 1_555
O10 C18 1_555 1_555
O11 H4 1_555 1_555
O12 C8 1_555 1_555
C1 H5 1_555 1_555
H6 C1 1_555 1_555
H7 C1 1_555 1_555
C2 C1 1_555 1_555
C3 O1 1_555 1_555
H8 C3 1_555 1_555
C4 C3 1_555 1_555
H9 C4 1_555 1_555
C5 O6 1_555 1_555
C6 C5 1_555 1_555
C7 C6 1_555 1_555
H10 C7 1_555 1_555
C8 O2 1_555 1_555
C9 C8 1_555 1_555
H11 C9 1_555 1_555
H12 C9 1_555 1_555
H13 C9 1_555 1_555
C10 O3 1_555 1_555
H14 C10 1_555 1_555
C11 O4 1_555 1_555
C12 C11 1_555 1_555
C13 C12 1_555 1_555
H15 C13 1_555 1_555
H16 C13 1_555 1_555
C14 C6 1_555 1_555
H17 C14 1_555 1_555
C15 O7 1_555 1_555
C16 C15 1_555 1_555
H18 C16 1_555 1_555
H19 C16 1_555 1_555
H20 C16 1_555 1_555
C17 C3 1_555 1_555
H21 C17 1_555 1_555
C18 C11 1_555 1_555
C19 O10 1_555 1_555
H22 C19 1_555 1_555
C20 C18 1_555 1_555
H23 C20 1_555 1_555
H24 C20 1_555 1_555
H25 C20 1_555 1_555
C21 C5 1_555 1_555
C22 C21 1_555 1_555
H26 C22 1_555 1_555
H27 C22 1_555 1_555
C23 C7 1_555 1_555
H28 C23 1_555 1_555
H29 C23 1_555 1_555
C24 C21 1_555 1_555
H30 C24 1_555 1_555
H31 C24 1_555 1_555
H32 C24 1_555 1_555
C25 C21 1_555 1_555
H33 C25 1_555 1_555
H34 C25 1_555 1_555
H35 C25 1_555 1_555
C26 C6 1_555 1_555
H36 C26 1_555 1_555
H37 C26 1_555 1_555
H38 C26 1_555 1_555
O11 C19 1_555 1_555
C4 C5 1_555 1_555
C10 C11 1_555 1_555
C10 C19 1_555 1_555
C13 C14 1_555 1_555
C14 C17 1_555 1_555
C17 C18 1_555 1_555
C22 C23 1_555 1_555

#END
