
#######################################################################
#
#                 Cambridge Crystallographic Data Centre
#                                CCDC 
#
#######################################################################
#
# If this CIF has been generated from an entry in the Cambridge 
# Structural Database, then it will include bibliographic, chemical, 
# crystal, experimental, refinement or atomic coordinate data resulting 
# from the CCDC's data processing and validation procedures.
#
#######################################################################

data_RIXROG
_chemical_formula_moiety         'C33 H37 N1 P1 1+,Br1 1-,C1 H2 Cl2,H2 O1'
_chemical_name_systematic        
'Triphenyl(2-(2,6-di-isopropylanilino)propenyl)phosphonium bromide dichloromethane solvate monohydrate'
_symmetry_cell_setting           triclinic
_symmetry_space_group_name_H-M   'P -1'
_symmetry_Int_Tables_number      2
_space_group_name_Hall           '-P 1'
loop_
_symmetry_equiv_pos_site_id
_symmetry_equiv_pos_as_xyz
1 x,y,z
2 -x,-y,-z
_cell_length_a                   9.8565(3)
_cell_length_b                   11.3286(3)
_cell_length_c                   15.5802(5)
_cell_angle_alpha                79.6019(11)
_cell_angle_beta                 83.6492(11)
_cell_angle_gamma                88.124(2)
_cell_volume                     1700.47
_exptl_crystal_colour            colorless
_exptl_crystal_description       Cube
_cell_formula_units_Z            2
loop_
_atom_site_label
_atom_site_type_symbol
_atom_site_fract_x
_atom_site_fract_y
_atom_site_fract_z
Br1 Br 0.61746(12) 0.15195(9) 0.07720(8)
Cl1 Cl 0.5746(7) 0.9350(5) 0.3460(3)
Cl2 Cl 0.4927(5) 0.7216(4) 0.3140(3)
C1 C 0.490(2) 0.8729(12) 0.2858(9)
H1 H 0.4251 0.9361 0.2710
H2 H 0.3841 0.8574 0.2801
P1 P 1.00533(14) 0.55866(12) 0.21645(9)
N1 N 0.7703(5) 0.2756(4) 0.2154(3)
C2 C 1.0158(7) 0.6102(5) 0.3180(4)
C3 C 1.1301(9) 0.5856(10) 0.3640(5)
C4 C 1.1316(13) 0.6230(13) 0.4432(7)
C5 C 1.0279(17) 0.6811(10) 0.4771(6)
C6 C 0.9068(12) 0.7069(9) 0.4343(6)
C7 C 0.9038(9) 0.6705(7) 0.3547(5)
C8 C 0.9402(6) 0.6783(5) 0.1393(4)
C9 C 1.0262(7) 0.7487(5) 0.0735(4)
C10 C 0.9729(9) 0.8380(6) 0.0155(5)
C11 C 0.8359(10) 0.8605(6) 0.0207(5)
C12 C 0.7489(8) 0.7939(6) 0.0836(5)
C13 C 0.8016(7) 0.7017(6) 0.1435(5)
C14 C 1.1757(6) 0.5195(6) 0.1731(4)
C15 C 1.2846(7) 0.5983(7) 0.1637(5)
C16 C 1.4123(8) 0.5622(11) 0.1283(6)
C17 C 1.4303(8) 0.4494(11) 0.1059(6)
C18 C 1.3266(8) 0.3769(8) 0.1155(5)
C19 C 1.1988(7) 0.4092(6) 0.1488(4)
C20 C 0.8968(5) 0.4358(5) 0.2425(4)
C21 C 0.8375(5) 0.3796(4) 0.1862(3)
C22 C 0.8390(6) 0.4240(5) 0.0890(4)
C23 C 0.7686(6) 0.2098(5) 0.3037(4)
C24 C 0.8735(7) 0.1249(5) 0.3231(4)
C25 C 0.9843(7) 0.0993(6) 0.2551(5)
C26 C 1.1252(10) 0.0976(14) 0.2855(7)
C27 C 0.9601(13) -0.0150(7) 0.2194(7)
C28 C 0.8656(9) 0.0595(7) 0.4077(5)
C29 C 0.7585(10) 0.0796(7) 0.4699(5)
C30 C 0.6632(9) 0.1635(8) 0.4508(5)
C31 C 0.6617(7) 0.2316(6) 0.3654(4)
C32 C 0.5485(7) 0.3231(7) 0.3439(5)
C33 C 0.4186(10) 0.2655(11) 0.3427(9)
C34 C 0.5351(14) 0.4166(11) 0.4026(9)
H3 H 0.7200 0.2423 0.1763
H4 H 1.2068 0.5406 0.3427
H5 H 1.2096 0.6076 0.4757
H6 H 1.0283 0.7091 0.5317
H7 H 0.8323 0.7461 0.4635
H8 H 0.8251 0.6868 0.3231
H9 H 1.1232 0.7354 0.0711
H10 H 1.0310 0.8821 -0.0323
H11 H 0.7960 0.9239 -0.0186
H12 H 0.6521 0.8090 0.0879
H13 H 0.7403 0.6537 0.1873
H14 H 1.2688 0.6756 0.1803
H15 H 1.4872 0.6165 0.1202
H16 H 1.5204 0.4234 0.0865
H17 H 1.3405 0.3000 0.0979
H18 H 1.1243 0.3550 0.1539
H19 H 0.8709 0.4013 0.3028
H20 H 0.8892 0.4974 0.0757
H21 H 0.7475 0.4396 0.0738
H22 H 0.8827 0.3671 0.0558
H23 H 0.9823 0.1681 0.2091
H24 H 1.1928 0.0824 0.2393
H25 H 1.1309 0.0361 0.3363
H26 H 1.1409 0.1744 0.3001
H27 H 1.0327 -0.0266 0.1752
H28 H 0.8749 -0.0064 0.1943
H29 H 0.9563 -0.0831 0.2662
H30 H 0.9321 -0.0024 0.4229
H31 H 0.7613 0.0396 0.5295
H32 H 0.5893 0.1745 0.4944
H33 H 0.5724 0.3664 0.2855
H34 H 0.3504 0.3260 0.3279
H35 H 0.3942 0.2222 0.4010
H36 H 0.4245 0.2110 0.3018
H37 H 0.4625 0.4726 0.3879
H38 H 0.6187 0.4592 0.3992
H39 H 0.5140 0.3730 0.4612
O1 O 0.3826(8) 0.9302(8) 0.1073(5)
H40 H 0.4367 0.9806 0.0607
H41 H 0.3596 0.9558 0.1627
loop_
_geom_bond_atom_site_label_1
_geom_bond_atom_site_label_2
_geom_bond_site_symmetry_1
_geom_bond_site_symmetry_2
Cl1 C1 1_555 1_555
Cl2 C1 1_555 1_555
C1 H1 1_555 1_555
H2 C1 1_555 1_555
P1 C2 1_555 1_555
N1 C21 1_555 1_555
C2 C3 1_555 1_555
C3 C4 1_555 1_555
C4 C5 1_555 1_555
C5 C6 1_555 1_555
C6 C7 1_555 1_555
C7 C2 1_555 1_555
C8 P1 1_555 1_555
C9 C8 1_555 1_555
C10 C9 1_555 1_555
C11 C10 1_555 1_555
C12 C11 1_555 1_555
C13 C8 1_555 1_555
C14 P1 1_555 1_555
C15 C14 1_555 1_555
C16 C15 1_555 1_555
C17 C16 1_555 1_555
C18 C17 1_555 1_555
C19 C14 1_555 1_555
C20 P1 1_555 1_555
C21 C20 1_555 1_555
C22 C21 1_555 1_555
C23 N1 1_555 1_555
C24 C23 1_555 1_555
C25 C24 1_555 1_555
C26 C25 1_555 1_555
C27 C25 1_555 1_555
C28 C24 1_555 1_555
C29 C28 1_555 1_555
C30 C29 1_555 1_555
C31 C23 1_555 1_555
C32 C31 1_555 1_555
C33 C32 1_555 1_555
C34 C32 1_555 1_555
H3 N1 1_555 1_555
H4 C3 1_555 1_555
H5 C4 1_555 1_555
H6 C5 1_555 1_555
H7 C6 1_555 1_555
H8 C7 1_555 1_555
H9 C9 1_555 1_555
H10 C10 1_555 1_555
H11 C11 1_555 1_555
H12 C12 1_555 1_555
H13 C13 1_555 1_555
H14 C15 1_555 1_555
H15 C16 1_555 1_555
H16 C17 1_555 1_555
H17 C18 1_555 1_555
H18 C19 1_555 1_555
H19 C20 1_555 1_555
H20 C22 1_555 1_555
H21 C22 1_555 1_555
H22 C22 1_555 1_555
H23 C25 1_555 1_555
H24 C26 1_555 1_555
H25 C26 1_555 1_555
H26 C26 1_555 1_555
H27 C27 1_555 1_555
H28 C27 1_555 1_555
H29 C27 1_555 1_555
H30 C28 1_555 1_555
H31 C29 1_555 1_555
H32 C30 1_555 1_555
H33 C32 1_555 1_555
H34 C33 1_555 1_555
H35 C33 1_555 1_555
H36 C33 1_555 1_555
H37 C34 1_555 1_555
H38 C34 1_555 1_555
H39 C34 1_555 1_555
O1 H40 1_555 1_555
H41 O1 1_555 1_555
C12 C13 1_555 1_555
C18 C19 1_555 1_555
C30 C31 1_555 1_555

#END
