
#######################################################################
#
#                 Cambridge Crystallographic Data Centre
#                                CCDC 
#
#######################################################################
#
# If this CIF has been generated from an entry in the Cambridge 
# Structural Database, then it will include bibliographic, chemical, 
# crystal, experimental, refinement or atomic coordinate data resulting 
# from the CCDC's data processing and validation procedures.
#
#######################################################################

data_RIXSIC
_chemical_formula_moiety         'C132 H144 O6,2(C1 H1 Cl3)'
_chemical_name_systematic        
'1,2,9,10,17,18-hexakis(n-Hexoxy)-4,7,12,15,20,23-hexa-t-butylhexa-peri-hexabenzocircumcoronene chloroform solvate'
_symmetry_cell_setting           triclinic
_symmetry_space_group_name_H-M   'P -1'
_symmetry_Int_Tables_number      2
_space_group_name_Hall           '-P 1'
loop_
_symmetry_equiv_pos_site_id
_symmetry_equiv_pos_as_xyz
1 x,y,z
2 -x,-y,-z
_cell_length_a                   14.3699(2)
_cell_length_b                   18.8611(4)
_cell_length_c                   20.7510(4)
_cell_angle_alpha                91.3836(17)
_cell_angle_beta                 93.8054(15)
_cell_angle_gamma                100.7521(16)
_cell_volume                     5509.44
_exptl_crystal_colour            'dark brown'
_exptl_crystal_description       block
_cell_formula_units_Z            2
loop_
_atom_site_label
_atom_site_type_symbol
_atom_site_fract_x
_atom_site_fract_y
_atom_site_fract_z
Cl1 Cl 0.15375(11) 0.87106(8) 0.31062(8)
Cl2 Cl 0.06194(12) 0.72836(11) 0.26515(12)
Cl3 Cl 0.03254(12) 0.77920(12) 0.39295(9)
C1 C 0.0531(4) 0.8031(3) 0.3146(3)
H1 H -0.0018 0.8224 0.2972
Cl4 Cl 0.47342(11) 0.10217(8) 0.26876(8)
Cl5 Cl 0.32965(12) -0.02059(8) 0.22606(7)
Cl6 Cl 0.37009(11) 0.01523(8) 0.36227(6)
C2 C 0.3656(4) 0.0481(3) 0.2849(2)
H2 H 0.3176 0.0789 0.2831
O1 O 1.04690(15) 0.35958(11) 0.30827(10)
O2 O 0.91097(16) 0.27654(12) 0.36380(10)
O3 O 0.42303(13) -0.15778(11) 0.05339(9)
O4 O 0.46486(13) -0.19404(10) -0.06364(9)
O5 O 1.11837(14) 0.12838(11) -0.26514(9)
O6 O 1.24215(14) 0.22179(11) -0.19035(10)
C3 C 0.8003(2) 0.14122(16) 0.30145(14)
C4 C 1.3942(10) 0.4502(7) -0.3195(6)
H3 H 1.4428 0.4924 -0.3249
H4 H 1.4253 0.4123 -0.3026
C5 C 1.3261(6) 0.4688(4) -0.2709(5)
H5 H 1.3621 0.4876 -0.2309
H6 H 1.2945 0.5063 -0.2880
C6 C 1.3458(14) 0.4264(10) -0.3814(8)
H7 H 1.3390 0.3749 -0.3865
H8 H 1.3819 0.4491 -0.4151
H9 H 1.2841 0.4393 -0.3838
C7 C 0.7762(2) 0.15265(17) 0.36486(15)
H10 H 0.8097 0.1925 0.3891
C8 C 0.7039(2) 0.10643(18) 0.39281(15)
C9 C 0.6550(2) 0.04698(17) 0.35676(14)
H11 H 0.6069 0.0157 0.3751
C10 C 0.6757(2) 0.03255(16) 0.29353(14)
C11 C 0.7493(2) 0.08002(16) 0.26485(13)
C12 C 0.77107(19) 0.06508(15) 0.19976(13)
C13 C 0.71351(19) 0.00802(15) 0.16200(13)
C14 C 0.63488(19) -0.03714(15) 0.18969(13)
C15 C 0.6204(2) -0.02895(15) 0.25589(13)
C16 C 0.5535(2) -0.08112(16) 0.28386(13)
H12 H 0.5444 -0.0759 0.3276
C17 C 0.50064(19) -0.14013(15) 0.24856(13)
C18 C 0.50849(19) -0.14306(15) 0.18208(13)
H13 H 0.4695 -0.1800 0.1571
C19 C 0.57344(19) -0.09202(15) 0.15153(13)
C20 C 0.58516(19) -0.09649(15) 0.08235(13)
C21 C 0.67067(19) -0.06097(15) 0.05821(13)
C22 C 0.73471(19) -0.00710(15) 0.09823(13)
C23 C 0.51466(19) -0.13404(14) 0.03709(13)
C24 C 0.53596(19) -0.15129(14) -0.02491(13)
C25 C 0.62876(19) -0.12856(15) -0.04578(13)
C26 C 0.69227(19) -0.07700(15) -0.00595(13)
C27 C 0.6601(2) -0.15475(15) -0.10607(13)
C28 C 0.6115(2) -0.21785(16) -0.13937(13)
H14 H 0.5574 -0.2438 -0.1227
C29 C 0.6417(2) -0.24298(16) -0.19665(14)
C30 C 0.7217(2) -0.20213(16) -0.22161(13)
H15 H 0.7417 -0.2174 -0.2604
C31 C 0.7726(2) -0.13888(15) -0.18997(13)
C32 C 0.7449(2) -0.11640(15) -0.12971(13)
C33 C 0.80310(19) -0.05708(15) -0.09265(13)
C34 C 0.77966(19) -0.03982(15) -0.02987(13)
C35 C 0.83935(19) 0.01574(15) 0.00849(13)
C36 C 0.81611(19) 0.03339(15) 0.07240(13)
C37 C 0.87252(19) 0.09181(15) 0.10947(13)
C38 C 0.84925(19) 0.10877(15) 0.17289(13)
C39 C 0.90157(19) 0.17206(15) 0.20861(13)
C40 C 0.8756(2) 0.19021(16) 0.27136(14)
C41 C 0.9268(2) 0.25467(17) 0.30182(14)
C42 C 0.9991(2) 0.29916(16) 0.27288(14)
C43 C 1.0233(2) 0.28396(16) 0.21004(14)
C44 C 0.97615(19) 0.21794(15) 0.17903(13)
C45 C 1.00493(19) 0.19633(15) 0.11723(13)
C46 C 0.95345(19) 0.13405(15) 0.08265(13)
C47 C 0.97973(19) 0.11432(15) 0.02082(13)
C48 C 0.92203(19) 0.05566(15) -0.01706(13)
C49 C 0.94469(19) 0.03934(14) -0.08077(13)
C50 C 0.88584(19) -0.01742(15) -0.11818(13)
C51 C 0.9082(2) -0.03411(15) -0.18289(13)
C52 C 0.8523(2) -0.09386(15) -0.21906(13)
C53 C 0.8700(2) -0.10604(16) -0.28332(14)
H16 H 0.8317 -0.1442 -0.3072
C54 C 0.9436(2) -0.06240(16) -0.31279(13)
C55 C 1.0011(2) -0.00735(16) -0.27588(14)
H17 H 1.0529 0.0197 -0.2943
C56 C 0.9848(2) 0.00969(16) -0.21141(13)
C57 C 1.04359(19) 0.06985(15) -0.17344(13)
C58 C 1.02682(19) 0.08185(15) -0.10769(13)
C59 C 1.08669(19) 0.13718(15) -0.06847(13)
C60 C 1.06181(19) 0.15477(15) -0.00461(13)
C61 C 1.11414(19) 0.21582(15) 0.03073(13)
C62 C 1.08448(19) 0.23825(15) 0.09066(13)
C63 C 1.12956(19) 0.30615(15) 0.12123(13)
C64 C 1.09388(19) 0.33314(15) 0.17670(13)
C65 C 1.1242(2) 0.40650(16) 0.19571(14)
H18 H 1.0971 0.4253 0.2302
C66 C 1.1934(2) 0.45154(16) 0.16449(14)
C67 C 1.2365(2) 0.42150(16) 0.11511(14)
H19 H 1.2868 0.4500 0.0963
C68 C 1.20671(19) 0.35018(16) 0.09307(13)
C69 C 1.2488(2) 0.31980(15) 0.03927(14)
C70 C 1.19863(19) 0.25654(15) 0.00602(13)
C71 C 1.23203(19) 0.23324(15) -0.05185(13)
C72 C 1.16862(19) 0.17883(15) -0.09287(13)
C73 C 1.17666(19) 0.17259(16) -0.15996(14)
C74 C 1.1157(2) 0.12112(16) -0.19927(13)
C75 C 1.32433(19) 0.26544(15) -0.06799(13)
H20 H 1.3501 0.2466 -0.1031
C76 C 1.3770(2) 0.32436(15) -0.03259(14)
C77 C 1.3367(2) 0.35279(15) 0.01878(14)
H21 H 1.3692 0.3950 0.0402
C78 C 0.6775(3) 0.1250(2) 0.46111(16)
C79 C 0.7664(3) 0.1396(3) 0.50778(17)
H22 H 0.7927 0.0965 0.5112
H23 H 0.7499 0.1539 0.5496
H24 H 0.8124 0.1776 0.4919
C80 C 0.6321(3) 0.1921(3) 0.4577(2)
H25 H 0.6759 0.2312 0.4414
H26 H 0.6166 0.2052 0.5001
H27 H 0.5753 0.1819 0.4293
C81 C 0.6041(4) 0.0645(3) 0.4867(2)
H28 H 0.5479 0.0557 0.4577
H29 H 0.5883 0.0787 0.5287
H30 H 0.6301 0.0213 0.4896
C82 C 0.4393(2) -0.20248(15) 0.28228(14)
C83 C 0.4134(2) -0.17895(17) 0.34908(15)
H31 H 0.4699 -0.1666 0.3775
H32 H 0.3705 -0.2179 0.3665
H33 H 0.3834 -0.1377 0.3450
C84 C 0.3457(2) -0.23258(17) 0.24188(14)
H34 H 0.3106 -0.1946 0.2348
H35 H 0.3087 -0.2703 0.2646
H36 H 0.3597 -0.2516 0.2010
C85 C 0.4972(2) -0.26288(17) 0.29063(16)
H37 H 0.5127 -0.2787 0.2490
H38 H 0.4604 -0.3027 0.3111
H39 H 0.5546 -0.2449 0.3170
C86 C 0.5853(2) -0.31116(16) -0.23346(14)
C87 C 0.5353(2) -0.36548(17) -0.18726(15)
H40 H 0.5806 -0.3750 -0.1540
H41 H 0.5077 -0.4096 -0.2108
H42 H 0.4863 -0.3458 -0.1680
C88 C 0.5103(2) -0.2888(2) -0.28124(16)
H43 H 0.4663 -0.2678 -0.2577
H44 H 0.4768 -0.3306 -0.3059
H45 H 0.5411 -0.2542 -0.3099
C89 C 0.6514(2) -0.34903(18) -0.27159(17)
H46 H 0.6778 -0.3180 -0.3044
H47 H 0.6159 -0.3932 -0.2914
H48 H 0.7018 -0.3594 -0.2427
C90 C 0.9528(2) -0.07208(17) -0.38586(13)
C91 C 1.0466(2) -0.0291(2) -0.40718(15)
H49 H 1.0486 0.0216 -0.3995
H50 H 1.0510 -0.0387 -0.4524
H51 H 1.0989 -0.0433 -0.3829
C92 C 0.8696(2) -0.04465(19) -0.42147(15)
H52 H 0.8106 -0.0709 -0.4081
H53 H 0.8720 -0.0519 -0.4672
H54 H 0.8745 0.0059 -0.4112
C93 C 0.9479(2) -0.15176(18) -0.40569(15)
H55 H 0.9984 -0.1695 -0.3827
H56 H 0.9542 -0.1560 -0.4513
H57 H 0.8879 -0.1795 -0.3955
C94 C 1.4763(2) 0.36214(15) -0.05000(14)
C95 C 1.5160(2) 0.31950(17) -0.10154(15)
H58 H 1.5173 0.2717 -0.0871
H59 H 1.5792 0.3433 -0.1089
H60 H 1.4764 0.3166 -0.1410
C96 C 1.4680(2) 0.43706(16) -0.07528(14)
H61 H 1.4298 0.4313 -0.1155
H62 H 1.5302 0.4638 -0.0819
H63 H 1.4389 0.4628 -0.0442
C97 C 1.5465(2) 0.37097(16) 0.01029(14)
H64 H 1.5252 0.4001 0.0427
H65 H 1.6083 0.3940 -0.0011
H66 H 1.5498 0.3243 0.0268
C98 C 1.2239(2) 0.53229(16) 0.18324(15)
C99 C 1.3271(2) 0.54598(17) 0.21413(16)
H67 H 1.3294 0.5196 0.2530
H68 H 1.3479 0.5966 0.2242
H69 H 1.3680 0.5301 0.1843
C100 C 1.2184(2) 0.57666(17) 0.12247(17)
H70 H 1.2593 0.5627 0.0917
H71 H 1.2381 0.6271 0.1340
H72 H 1.1542 0.5679 0.1037
C101 C 1.1607(2) 0.55795(17) 0.23212(18)
H73 H 1.0959 0.5483 0.2145
H74 H 1.1809 0.6089 0.2410
H75 H 1.1656 0.5327 0.2714
C102 C 1.1207(2) 0.34435(17) 0.35384(15)
H76 H 1.1565 0.3120 0.3339
H77 H 1.0930 0.3216 0.3913
C103 C 1.1854(2) 0.41578(18) 0.37387(17)
H78 H 1.1471 0.4496 0.3882
H79 H 1.2172 0.4354 0.3366
C104 C 1.2598(3) 0.4084(2) 0.42790(18)
H80 H 1.2844 0.3648 0.4195
H81 H 1.2296 0.4031 0.4684
C105 C 1.3431(3) 0.4730(3) 0.4351(2)
H82 H 1.3886 0.4635 0.4689
H83 H 1.3746 0.4772 0.3950
C106 C 1.3995(5) 0.6068(3) 0.4604(4)
H84 H 1.4393 0.6060 0.4251
H85 H 1.4353 0.6019 0.5003
H86 H 1.3772 0.6517 0.4616
C107 C 1.3144(4) 0.5440(3) 0.4510(3)
H87 H 1.2810 0.5396 0.4903
H88 H 1.2710 0.5547 0.4164
C108 C 0.8583(3) 0.3338(2) 0.36613(18)
H89 H 0.7944 0.3176 0.3467
H90 H 0.8889 0.3746 0.3427
C109 C 0.8555(3) 0.3558(2) 0.43724(19)
H91 H 0.8219 0.3957 0.4398
H92 H 0.8195 0.3156 0.4587
C110 C 0.9529(3) 0.3781(2) 0.47388(18)
H93 H 0.9914 0.4154 0.4506
H94 H 0.9844 0.3369 0.4755
C111 C 0.9461(3) 0.4063(2) 0.54271(19)
H95 H 0.9153 0.4479 0.5409
H96 H 0.9066 0.3692 0.5656
C112 C 1.0424(3) 0.4279(2) 0.5806(2)
H97 H 1.0823 0.4647 0.5576
H98 H 1.0729 0.3862 0.5831
C113 C 1.0341(4) 0.4569(3) 0.6492(2)
H99 H 1.0076 0.5000 0.6470
H100 H 1.0960 0.4678 0.6717
H101 H 0.9936 0.4211 0.6719
C114 C 0.3695(2) -0.10046(16) 0.06149(14)
H102 H 0.3555 -0.0806 0.0201
H103 H 0.4057 -0.0620 0.0898
C115 C 0.2783(2) -0.13350(17) 0.09088(14)
H104 H 0.2404 -0.0965 0.0961
H105 H 0.2938 -0.1499 0.1335
C116 C 0.2191(2) -0.19663(18) 0.05069(16)
H106 H 0.2589 -0.2314 0.0415
H107 H 0.1976 -0.1792 0.0098
C117 C 0.1331(2) -0.23453(19) 0.08382(18)
H108 H 0.1546 -0.2526 0.1245
H109 H 0.0937 -0.1997 0.0935
C118 C 0.0735(2) -0.2971(2) 0.0430(2)
H110 H 0.1132 -0.3316 0.0329
H111 H 0.0514 -0.2789 0.0026
C119 C -0.0122(3) -0.3358(2) 0.0767(3)
H112 H -0.0456 -0.3758 0.0497
H113 H -0.0539 -0.3028 0.0845
H114 H 0.0091 -0.3532 0.1172
C120 C 0.4123(2) -0.15595(17) -0.10822(15)
H115 H 0.4553 -0.1241 -0.1336
H116 H 0.3752 -0.1272 -0.0849
C121 C 0.3476(2) -0.21278(18) -0.15161(15)
H117 H 0.3860 -0.2422 -0.1728
H118 H 0.3157 -0.1889 -0.1849
C122 C 0.2726(2) -0.2622(2) -0.11600(17)
H119 H 0.2249 -0.2353 -0.1036
H120 H 0.3024 -0.2777 -0.0769
C123 C 0.2245(3) -0.3287(2) -0.1580(2)
H121 H 0.1937 -0.3128 -0.1965
H122 H 0.2728 -0.3545 -0.1715
C124 C 0.1509(3) -0.3807(2) -0.1235(3)
H123 H 0.1803 -0.3942 -0.0834
H124 H 0.0998 -0.3562 -0.1128
C125 C 0.1096(4) -0.4486(3) -0.1648(4)
H125 H 0.0782 -0.4355 -0.2038
H126 H 0.0648 -0.4801 -0.1412
H127 H 0.1599 -0.4729 -0.1755
C126 C 1.2030(2) 0.11743(17) -0.29608(14)
H128 H 1.2001 0.0665 -0.3060
H129 H 1.2596 0.1352 -0.2679
C127 C 1.2052(2) 0.15904(18) -0.35739(14)
H130 H 1.2200 0.2104 -0.3463
H131 H 1.1428 0.1486 -0.3802
C128 C 1.2781(2) 0.14049(19) -0.40206(14)
H132 H 1.3391 0.1452 -0.3777
H133 H 1.2589 0.0906 -0.4174
C129 C 1.2894(2) 0.1886(2) -0.45990(15)
H134 H 1.3114 0.2383 -0.4447
H135 H 1.2280 0.1855 -0.4833
C130 C 1.3596(3) 0.1674(3) -0.50594(17)
H136 H 1.4218 0.1730 -0.4831
H137 H 1.3395 0.1169 -0.5192
C131 C 1.3674(3) 0.2124(3) -0.5657(2)
H138 H 1.4096 0.1953 -0.5938
H139 H 1.3918 0.2621 -0.5532
H140 H 1.3058 0.2082 -0.5880
C132 C 1.2080(2) 0.28667(18) -0.20489(16)
H141 H 1.1918 0.3091 -0.1656
H142 H 1.1516 0.2758 -0.2344
C133 C 1.2859(3) 0.3370(2) -0.23547(18)
H143 H 1.3053 0.3123 -0.2724
H144 H 1.3405 0.3497 -0.2045
C134 C 1.2541(4) 0.4053(3) -0.2573(3)
H145 H 1.2124 0.3928 -0.2962
H146 H 1.2161 0.4201 -0.2244
C135? C 1.3889(11) 0.5412(10) -0.3788(6)
H147? H 1.3599 0.5423 -0.4217
H148? H 1.4357 0.5109 -0.3791
H149? H 1.4188 0.5892 -0.3643
C136? C 1.3142(12) 0.5115(10) -0.3340(9)
H150? H 1.3131 0.5465 -0.2991
H151? H 1.2521 0.5016 -0.3573
C137? C 1.3372(9) 0.4433(7) -0.3070(8)
H152? H 1.3988 0.4539 -0.2832
H153? H 1.3404 0.4093 -0.3423
H154? H 1.2517 0.4376 -0.2206
H155? H 1.1918 0.3941 -0.2802
loop_
_geom_bond_atom_site_label_1
_geom_bond_atom_site_label_2
_geom_bond_site_symmetry_1
_geom_bond_site_symmetry_2
Cl1 C1 1_555 1_555
Cl2 C1 1_555 1_555
Cl3 C1 1_555 1_555
C1 H1 1_555 1_555
Cl4 C2 1_555 1_555
Cl5 C2 1_555 1_555
Cl6 C2 1_555 1_555
C2 H2 1_555 1_555
O1 C42 1_555 1_555
O2 C41 1_555 1_555
O3 C23 1_555 1_555
O4 C24 1_555 1_555
O5 C74 1_555 1_555
O6 C73 1_555 1_555
C3 C7 1_555 1_555
C4 H3 1_555 1_555
H4 C4 1_555 1_555
C5 C4 1_555 1_555
H5 C5 1_555 1_555
H6 C5 1_555 1_555
C6 C4 1_555 1_555
H7 C6 1_555 1_555
H8 C6 1_555 1_555
H9 C6 1_555 1_555
C7 H10 1_555 1_555
C8 C7 1_555 1_555
C9 C8 1_555 1_555
H11 C9 1_555 1_555
C10 C9 1_555 1_555
C11 C3 1_555 1_555
C12 C11 1_555 1_555
C13 C12 1_555 1_555
C14 C13 1_555 1_555
C15 C10 1_555 1_555
C16 C15 1_555 1_555
H12 C16 1_555 1_555
C17 C16 1_555 1_555
C18 C17 1_555 1_555
H13 C18 1_555 1_555
C19 C14 1_555 1_555
C20 C19 1_555 1_555
C21 C20 1_555 1_555
C22 C13 1_555 1_555
C23 C20 1_555 1_555
C24 C23 1_555 1_555
C25 C24 1_555 1_555
C26 C21 1_555 1_555
C27 C25 1_555 1_555
C28 C27 1_555 1_555
H14 C28 1_555 1_555
C29 C28 1_555 1_555
C30 C29 1_555 1_555
H15 C30 1_555 1_555
C31 C30 1_555 1_555
C32 C27 1_555 1_555
C33 C32 1_555 1_555
C34 C26 1_555 1_555
C35 C34 1_555 1_555
C36 C22 1_555 1_555
C37 C36 1_555 1_555
C38 C12 1_555 1_555
C39 C38 1_555 1_555
C40 C3 1_555 1_555
C41 C40 1_555 1_555
C42 C41 1_555 1_555
C43 C42 1_555 1_555
C44 C39 1_555 1_555
C45 C44 1_555 1_555
C46 C37 1_555 1_555
C47 C46 1_555 1_555
C48 C35 1_555 1_555
C49 C48 1_555 1_555
C50 C33 1_555 1_555
C51 C50 1_555 1_555
C52 C31 1_555 1_555
C53 C52 1_555 1_555
H16 C53 1_555 1_555
C54 C53 1_555 1_555
C55 C54 1_555 1_555
H17 C55 1_555 1_555
C56 C51 1_555 1_555
C57 C56 1_555 1_555
C58 C49 1_555 1_555
C59 C58 1_555 1_555
C60 C47 1_555 1_555
C61 C60 1_555 1_555
C62 C45 1_555 1_555
C63 C62 1_555 1_555
C64 C43 1_555 1_555
C65 C64 1_555 1_555
H18 C65 1_555 1_555
C66 C65 1_555 1_555
C67 C66 1_555 1_555
H19 C67 1_555 1_555
C68 C63 1_555 1_555
C69 C68 1_555 1_555
C70 C61 1_555 1_555
C71 C70 1_555 1_555
C72 C59 1_555 1_555
C73 C72 1_555 1_555
C74 C57 1_555 1_555
C75 C71 1_555 1_555
H20 C75 1_555 1_555
C76 C75 1_555 1_555
C77 C69 1_555 1_555
H21 C77 1_555 1_555
C78 C8 1_555 1_555
C79 C78 1_555 1_555
H22 C79 1_555 1_555
H23 C79 1_555 1_555
H24 C79 1_555 1_555
C80 C78 1_555 1_555
H25 C80 1_555 1_555
H26 C80 1_555 1_555
H27 C80 1_555 1_555
C81 C78 1_555 1_555
H28 C81 1_555 1_555
H29 C81 1_555 1_555
H30 C81 1_555 1_555
C82 C17 1_555 1_555
C83 C82 1_555 1_555
H31 C83 1_555 1_555
H32 C83 1_555 1_555
H33 C83 1_555 1_555
C84 C82 1_555 1_555
H34 C84 1_555 1_555
H35 C84 1_555 1_555
H36 C84 1_555 1_555
C85 C82 1_555 1_555
H37 C85 1_555 1_555
H38 C85 1_555 1_555
H39 C85 1_555 1_555
C86 C29 1_555 1_555
C87 C86 1_555 1_555
H40 C87 1_555 1_555
H41 C87 1_555 1_555
H42 C87 1_555 1_555
C88 C86 1_555 1_555
H43 C88 1_555 1_555
H44 C88 1_555 1_555
H45 C88 1_555 1_555
C89 C86 1_555 1_555
H46 C89 1_555 1_555
H47 C89 1_555 1_555
H48 C89 1_555 1_555
C90 C54 1_555 1_555
C91 C90 1_555 1_555
H49 C91 1_555 1_555
H50 C91 1_555 1_555
H51 C91 1_555 1_555
C92 C90 1_555 1_555
H52 C92 1_555 1_555
H53 C92 1_555 1_555
H54 C92 1_555 1_555
C93 C90 1_555 1_555
H55 C93 1_555 1_555
H56 C93 1_555 1_555
H57 C93 1_555 1_555
C94 C76 1_555 1_555
C95 C94 1_555 1_555
H58 C95 1_555 1_555
H59 C95 1_555 1_555
H60 C95 1_555 1_555
C96 C94 1_555 1_555
H61 C96 1_555 1_555
H62 C96 1_555 1_555
H63 C96 1_555 1_555
C97 C94 1_555 1_555
H64 C97 1_555 1_555
H65 C97 1_555 1_555
H66 C97 1_555 1_555
C98 C66 1_555 1_555
C99 C98 1_555 1_555
H67 C99 1_555 1_555
H68 C99 1_555 1_555
H69 C99 1_555 1_555
C100 C98 1_555 1_555
H70 C100 1_555 1_555
H71 C100 1_555 1_555
H72 C100 1_555 1_555
C101 C98 1_555 1_555
H73 C101 1_555 1_555
H74 C101 1_555 1_555
H75 C101 1_555 1_555
C102 O1 1_555 1_555
H76 C102 1_555 1_555
H77 C102 1_555 1_555
C103 C102 1_555 1_555
H78 C103 1_555 1_555
H79 C103 1_555 1_555
C104 C103 1_555 1_555
H80 C104 1_555 1_555
H81 C104 1_555 1_555
C105 C104 1_555 1_555
H82 C105 1_555 1_555
H83 C105 1_555 1_555
C106 H84 1_555 1_555
H85 C106 1_555 1_555
H86 C106 1_555 1_555
C107 C105 1_555 1_555
H87 C107 1_555 1_555
H88 C107 1_555 1_555
C108 O2 1_555 1_555
H89 C108 1_555 1_555
H90 C108 1_555 1_555
C109 C108 1_555 1_555
H91 C109 1_555 1_555
H92 C109 1_555 1_555
C110 C109 1_555 1_555
H93 C110 1_555 1_555
H94 C110 1_555 1_555
C111 C110 1_555 1_555
H95 C111 1_555 1_555
H96 C111 1_555 1_555
C112 C111 1_555 1_555
H97 C112 1_555 1_555
H98 C112 1_555 1_555
C113 C112 1_555 1_555
H99 C113 1_555 1_555
H100 C113 1_555 1_555
H101 C113 1_555 1_555
C114 O3 1_555 1_555
H102 C114 1_555 1_555
H103 C114 1_555 1_555
C115 C114 1_555 1_555
H104 C115 1_555 1_555
H105 C115 1_555 1_555
C116 C115 1_555 1_555
H106 C116 1_555 1_555
H107 C116 1_555 1_555
C117 C116 1_555 1_555
H108 C117 1_555 1_555
H109 C117 1_555 1_555
C118 C117 1_555 1_555
H110 C118 1_555 1_555
H111 C118 1_555 1_555
C119 C118 1_555 1_555
H112 C119 1_555 1_555
H113 C119 1_555 1_555
H114 C119 1_555 1_555
C120 O4 1_555 1_555
H115 C120 1_555 1_555
H116 C120 1_555 1_555
C121 C120 1_555 1_555
H117 C121 1_555 1_555
H118 C121 1_555 1_555
C122 C121 1_555 1_555
H119 C122 1_555 1_555
H120 C122 1_555 1_555
C123 C122 1_555 1_555
H121 C123 1_555 1_555
H122 C123 1_555 1_555
C124 C123 1_555 1_555
H123 C124 1_555 1_555
H124 C124 1_555 1_555
C125 C124 1_555 1_555
H125 C125 1_555 1_555
H126 C125 1_555 1_555
H127 C125 1_555 1_555
C126 O5 1_555 1_555
H128 C126 1_555 1_555
H129 C126 1_555 1_555
C127 C126 1_555 1_555
H130 C127 1_555 1_555
H131 C127 1_555 1_555
C128 C127 1_555 1_555
H132 C128 1_555 1_555
H133 C128 1_555 1_555
C129 C128 1_555 1_555
H134 C129 1_555 1_555
H135 C129 1_555 1_555
C130 C129 1_555 1_555
H136 C130 1_555 1_555
H137 C130 1_555 1_555
C131 C130 1_555 1_555
H138 C131 1_555 1_555
H139 C131 1_555 1_555
H140 C131 1_555 1_555
C132 O6 1_555 1_555
H141 C132 1_555 1_555
H142 C132 1_555 1_555
C133 C132 1_555 1_555
H143 C133 1_555 1_555
H144 C133 1_555 1_555
C134 C5 1_555 1_555
H145 C134 1_555 1_555
H146 C134 1_555 1_555
C10 C11 1_555 1_555
C14 C15 1_555 1_555
C18 C19 1_555 1_555
C21 C22 1_555 1_555
C25 C26 1_555 1_555
C31 C32 1_555 1_555
C33 C34 1_555 1_555
C35 C36 1_555 1_555
C37 C38 1_555 1_555
C39 C40 1_555 1_555
C43 C44 1_555 1_555
C45 C46 1_555 1_555
C47 C48 1_555 1_555
C49 C50 1_555 1_555
C51 C52 1_555 1_555
C55 C56 1_555 1_555
C57 C58 1_555 1_555
C59 C60 1_555 1_555
C61 C62 1_555 1_555
C63 C64 1_555 1_555
C67 C68 1_555 1_555
C69 C70 1_555 1_555
C71 C72 1_555 1_555
C73 C74 1_555 1_555
C76 C77 1_555 1_555
C106 C107 1_555 1_555
C133 C134 1_555 1_555

#END
