
#######################################################################
#
#                 Cambridge Crystallographic Data Centre
#                                CCDC 
#
#######################################################################
#
# If this CIF has been generated from an entry in the Cambridge 
# Structural Database, then it will include bibliographic, chemical, 
# crystal, experimental, refinement or atomic coordinate data resulting 
# from the CCDC's data processing and validation procedures.
#
#######################################################################

data_RIXTAV
_chemical_formula_moiety         'C60 H48 O12,3(C6 H3 Cl3)'
_chemical_name_systematic        
"2,3,6,7,10,11,14,15,18,19,22,23-dodecamethoxytrinaphtho[1,2,3,4-fgh:1',2',3',4'-pqr:1'',2'',3'',4''-za-1-b-1-]trinaphthylene tris(1,2,4-trichlorobenzene)"
_symmetry_cell_setting           monoclinic
_symmetry_space_group_name_H-M   'P 21/n'
_symmetry_Int_Tables_number      14
_space_group_name_Hall           '-P 2yn'
loop_
_symmetry_equiv_pos_site_id
_symmetry_equiv_pos_as_xyz
1 x,y,z
2 1/2-x,1/2+y,1/2-z
3 -x,-y,-z
4 1/2+x,1/2-y,1/2+z
_cell_length_a                   10.6060(3)
_cell_length_b                   17.7693(4)
_cell_length_c                   18.5377(5)
_cell_angle_alpha                90
_cell_angle_beta                 91.524(2)
_cell_angle_gamma                90
_cell_volume                     3492.4
_cell_formula_units_Z            2
loop_
_atom_site_label
_atom_site_type_symbol
_atom_site_fract_x
_atom_site_fract_y
_atom_site_fract_z
Cl1 Cl 0.1112(4) 0.43991(19) 0.72026(16)
Cl2 Cl -0.1146(3) 0.2316(2) 0.5493(2)
Cl3 Cl 0.1404(3) 0.21653(17) 0.46445(13)
C1 C 0.1275(6) 0.2770(4) 0.5358(4)
C2 C 0.2293(6) 0.3212(5) 0.5560(4)
H1 H 0.3041(6) 0.3169(5) 0.5313(4)
C3 C 0.0140(7) 0.3351(5) 0.6304(4)
H2 H -0.0594(7) 0.3407(5) 0.6563(4)
C4 C 0.1179(7) 0.3766(4) 0.6479(4)
C5 C 0.0178(6) 0.2833(5) 0.5729(5)
C6 C 0.2223(7) 0.3714(5) 0.6123(4)
H3 H 0.2913(7) 0.4014(5) 0.6249(4)
C7 C 0.5670(3) 0.29356(17) 0.49403(18)
C8 C 0.6864(5) 0.5242(3) 0.9128(3)
H4 H 0.7261(5) 0.5274(3) 0.9599(3)
H5 H 0.7086(5) 0.5676(3) 0.8850(3)
H6 H 0.5966(5) 0.5223(3) 0.9174(3)
C9 C 0.8189(6) 0.2563(3) 0.8050(3)
H7 H 0.8740(6) 0.2330(3) 0.8403(3)
H8 H 0.7407(6) 0.2291(3) 0.8019(3)
H9 H 0.8579(6) 0.2557(3) 0.7588(3)
C10 C 0.2750(5) 0.5943(3) 0.8856(2)
H10 H 0.2333(5) 0.6043(3) 0.9299(2)
H11 H 0.2443(5) 0.5478(3) 0.8655(2)
H12 H 0.3643(5) 0.5906(3) 0.8949(2)
C11 C 0.5513(5) 0.1147(2) 0.7055(2)
H13 H 0.5411(5) 0.0664(2) 0.7277(2)
H14 H 0.6347(5) 0.1333(2) 0.7162(2)
H15 H 0.4902(5) 0.1491(2) 0.7238(2)
C12 C 0.1393(6) 0.8142(3) 0.6973(3)
H16 H 0.0813(6) 0.8465(3) 0.7213(3)
H17 H 0.2092(6) 0.8433(3) 0.6810(3)
H18 H 0.0972(6) 0.7907(3) 0.6567(3)
C13 C 0.5337(5) 0.0698(2) 0.4179(2)
H19 H 0.5238(5) 0.0167(2) 0.4102(2)
H20 H 0.4659(5) 0.0963(2) 0.3937(2)
H21 H 0.6127(5) 0.0860(2) 0.3991(2)
C14 C 0.7184(4) 0.3736(2) 0.7813(2)
C15 C 0.2676(4) 0.7066(2) 0.7214(2)
C16 C 0.6088(4) 0.4913(2) 0.76872(19)
H22 H 0.5872(4) 0.5379(2) 0.78751(19)
C17 C 0.3021(4) 0.6484(2) 0.7703(2)
C18 C 0.5445(3) 0.17088(18) 0.58929(19)
C19 C 0.4272(3) 0.58878(18) 0.67737(18)
C20 C 0.6817(4) 0.4440(2) 0.8100(2)
C21 C 0.6790(3) 0.35423(19) 0.71302(19)
H23 H 0.7053(3) 0.30855(19) 0.69410(19)
C22 C 0.3119(3) 0.70532(19) 0.6524(2)
H24 H 0.2874(3) 0.74307(19) 0.6202(2)
C23 C 0.3785(4) 0.5913(2) 0.74780(19)
H25 H 0.3992(4) 0.5527(2) 0.77992(19)
C24 C 0.5643(3) 0.47201(18) 0.69791(18)
C25 C 0.3944(3) 0.64750(17) 0.62900(18)
C26 C 0.5514(3) 0.24270(18) 0.61540(19)
H26 H 0.5466(3) 0.25063(18) 0.66484(19)
C27 C 0.4663(3) 0.57244(17) 0.52776(18)
C28 C 0.5329(3) 0.44010(17) 0.54908(17)
C29 C 0.4983(3) 0.51250(17) 0.57681(18)
C30 C 0.5538(3) 0.21828(18) 0.46813(19)
H27 H 0.5511(3) 0.20973(18) 0.41862(19)
C31 C 0.4968(3) 0.52448(17) 0.65151(17)
C32 C 0.5657(3) 0.30540(17) 0.56917(18)
C33 C 0.5996(3) 0.40120(18) 0.67004(18)
C34 C 0.5450(3) 0.15870(18) 0.5137(2)
C35 C 0.4313(3) 0.64290(17) 0.55450(18)
C36 C 0.5661(3) 0.38169(17) 0.59647(17)
O1 O 0.2501(3) 0.65336(17) 0.83635(15)
O2 O 0.1840(3) 0.75776(16) 0.74623(16)
O3 O 0.7278(3) 0.45858(18) 0.87786(16)
O4 O 0.7956(3) 0.33107(17) 0.82536(16)
O5 O 0.5336(3) 0.10770(13) 0.62991(14)
O6 O 0.5319(3) 0.08543(13) 0.49318(14)
C7B C 0.4330(3) 0.70644(17) 0.50597(18)
C8B C 0.3136(5) 0.4758(3) 0.0872(3)
H4B H 0.2739(5) 0.4726(3) 0.0401(3)
H5B H 0.2914(5) 0.4324(3) 0.1150(3)
H6B H 0.4034(5) 0.4777(3) 0.0826(3)
C9B C 0.1811(6) 0.7437(3) 0.1950(3)
H7B H 0.1260(6) 0.7670(3) 0.1597(3)
H8B H 0.2593(6) 0.7709(3) 0.1981(3)
H9B H 0.1421(6) 0.7443(3) 0.2412(3)
C10B C 0.7250(5) 0.4057(3) 0.1144(2)
H10B H 0.7667(5) 0.3957(3) 0.0701(2)
H11B H 0.7557(5) 0.4522(3) 0.1345(2)
H12B H 0.6357(5) 0.4094(3) 0.1051(2)
C11B C 0.4487(5) 0.8853(2) 0.2945(2)
H13B H 0.4589(5) 0.9336(2) 0.2723(2)
H14B H 0.3653(5) 0.8667(2) 0.2838(2)
H15B H 0.5098(5) 0.8509(2) 0.2762(2)
C12B C 0.8607(6) 0.1858(3) 0.3027(3)
H16B H 0.9187(6) 0.1535(3) 0.2787(3)
H17B H 0.7908(6) 0.1567(3) 0.3190(3)
H18B H 0.9028(6) 0.2093(3) 0.3433(3)
C13B C 0.4663(5) 0.9302(2) 0.5821(2)
H19B H 0.4762(5) 0.9833(2) 0.5898(2)
H20B H 0.5341(5) 0.9037(2) 0.6063(2)
H21B H 0.3873(5) 0.9140(2) 0.6009(2)
C14B C 0.2816(4) 0.6264(2) 0.2187(2)
C15B C 0.7324(4) 0.2934(2) 0.2786(2)
C16B C 0.3912(4) 0.5087(2) 0.23128(19)
H22B H 0.4128(4) 0.4621(2) 0.21249(19)
C17B C 0.6979(4) 0.3516(2) 0.2297(2)
C18B C 0.4555(3) 0.82912(18) 0.41071(19)
C19B C 0.5728(3) 0.41122(18) 0.32263(18)
C20B C 0.3183(4) 0.5560(2) 0.1900(2)
C21B C 0.3210(3) 0.64577(19) 0.28698(19)
H23B H 0.2947(3) 0.69145(19) 0.30590(19)
C22B C 0.6881(3) 0.29468(19) 0.3476(2)
H24B H 0.7126(3) 0.25693(19) 0.3798(2)
C23B C 0.6215(4) 0.4087(2) 0.25220(19)
H25B H 0.6008(4) 0.4473(2) 0.22008(19)
C24B C 0.4357(3) 0.52799(18) 0.30209(18)
C25B C 0.6056(3) 0.35250(17) 0.37100(18)
C26B C 0.4486(3) 0.75730(18) 0.38460(19)
H26B H 0.4534(3) 0.74937(18) 0.33516(19)
C27B C 0.5337(3) 0.42756(17) 0.47224(18)
C28B C 0.4671(3) 0.55990(17) 0.45092(17)
C29B C 0.5017(3) 0.48750(17) 0.42319(18)
C30B C 0.4462(3) 0.78172(18) 0.53187(19)
H27B H 0.4489(3) 0.79027(18) 0.58138(19)
C31B C 0.5032(3) 0.47552(17) 0.34849(17)
C32B C 0.4343(3) 0.69460(17) 0.43083(18)
C33B C 0.4004(3) 0.59880(18) 0.32996(18)
C34B C 0.4550(3) 0.84130(18) 0.4863(2)
C35B C 0.5687(3) 0.35710(17) 0.44550(18)
C36B C 0.4339(3) 0.61831(17) 0.40353(17)
O1B O 0.7499(3) 0.34664(17) 0.16365(15)
O2B O 0.8160(3) 0.24224(16) 0.25377(16)
O3B O 0.2722(3) 0.54142(18) 0.12214(16)
O4B O 0.2044(3) 0.66893(17) 0.17464(16)
O5B O 0.4664(3) 0.89230(13) 0.37009(14)
O6B O 0.4681(3) 0.91457(13) 0.50682(14)
H28? H 0.8692(7) 0.5410(7) 0.5874(5)
H29? H 1.0634(7) 0.5851(6) 0.5747(4)
Cl4? Cl 0.8173(2) 0.5552(2) 0.61490(16)
Cl5? Cl 1.0824(4) 0.6105(3) 0.5990(2)
C37? C 0.9195(7) 0.5231(7) 0.5508(5)
C38? C 1.1201(8) 0.5265(7) 0.4941(6)
H30? H 1.2012(8) 0.5463(7) 0.4931(6)
C39? C 1.0363(7) 0.5479(6) 0.5425(4)
loop_
_geom_bond_atom_site_label_1
_geom_bond_atom_site_label_2
_geom_bond_site_symmetry_1
_geom_bond_site_symmetry_2
Cl1 C4 1_555 1_555
Cl2 C5 1_555 1_555
Cl3 C1 1_555 1_555
C1 C2 1_555 1_555
C2 H1 1_555 1_555
C3 H2 1_555 1_555
C4 C3 1_555 1_555
C5 C1 1_555 1_555
C6 C2 1_555 1_555
H3 C6 1_555 1_555
C7 C30 1_555 1_555
C8 H4 1_555 1_555
H5 C8 1_555 1_555
H6 C8 1_555 1_555
C9 H7 1_555 1_555
H8 C9 1_555 1_555
H9 C9 1_555 1_555
C10 H10 1_555 1_555
H11 C10 1_555 1_555
H12 C10 1_555 1_555
C11 H13 1_555 1_555
H14 C11 1_555 1_555
H15 C11 1_555 1_555
C12 H16 1_555 1_555
H17 C12 1_555 1_555
H18 C12 1_555 1_555
C13 H19 1_555 1_555
H20 C13 1_555 1_555
H21 C13 1_555 1_555
C14 C20 1_555 1_555
C15 C17 1_555 1_555
C16 H22 1_555 1_555
C17 C23 1_555 1_555
C18 C26 1_555 1_555
C19 C23 1_555 1_555
C20 C16 1_555 1_555
C21 C14 1_555 1_555
H23 C21 1_555 1_555
C22 C15 1_555 1_555
H24 C22 1_555 1_555
C23 H25 1_555 1_555
C24 C16 1_555 1_555
C25 C19 1_555 1_555
C26 H26 1_555 1_555
C27 C29 1_555 1_555
C28 C29 1_555 1_555
C29 C31 1_555 1_555
C30 H27 1_555 1_555
C31 C19 1_555 1_555
C32 C7 1_555 1_555
C33 C21 1_555 1_555
C34 C18 1_555 1_555
C35 C25 1_555 1_555
C36 C28 1_555 1_555
O1 C10 1_555 1_555
O2 C12 1_555 1_555
O3 C8 1_555 1_555
O4 C9 1_555 1_555
O5 C11 1_555 1_555
O6 C13 1_555 1_555
C7B C35 1_555 1_555
C8B H4B 1_555 1_555
H5B C8B 1_555 1_555
H6B C8B 1_555 1_555
C9B H7B 1_555 1_555
H8B C9B 1_555 1_555
H9B C9B 1_555 1_555
C10B H10B 1_555 1_555
H11B C10B 1_555 1_555
H12B C10B 1_555 1_555
C11B H13B 1_555 1_555
H14B C11B 1_555 1_555
H15B C11B 1_555 1_555
C12B H16B 1_555 1_555
H17B C12B 1_555 1_555
H18B C12B 1_555 1_555
C13B H19B 1_555 1_555
H20B C13B 1_555 1_555
H21B C13B 1_555 1_555
C14B C20B 1_555 1_555
C15B C17B 1_555 1_555
C16B H22B 1_555 1_555
C17B C23B 1_555 1_555
C18B C26B 1_555 1_555
C19B C23B 1_555 1_555
C20B C16B 1_555 1_555
C21B C14B 1_555 1_555
H23B C21B 1_555 1_555
C22B C15B 1_555 1_555
H24B C22B 1_555 1_555
C23B H25B 1_555 1_555
C24B C16B 1_555 1_555
C25B C19B 1_555 1_555
C26B H26B 1_555 1_555
C27B C28 1_555 1_555
C28B C27 1_555 1_555
C29B C27B 1_555 1_555
C30B C7B 1_555 1_555
H27B C30B 1_555 1_555
C31B C19B 1_555 1_555
C32B C7B 1_555 1_555
C33B C21B 1_555 1_555
C34B C18B 1_555 1_555
C35B C7 1_555 1_555
C36B C28B 1_555 1_555
O1B C10B 1_555 1_555
O2B C12B 1_555 1_555
O3B C8B 1_555 1_555
O4B C9B 1_555 1_555
O5B C11B 1_555 1_555
O6B C13B 1_555 1_555
C3 C5 1_555 1_555
C4 C6 1_555 1_555
C14 O4 1_555 1_555
C15 O2 1_555 1_555
C17 O1 1_555 1_555
C18 O5 1_555 1_555
C20 O3 1_555 1_555
C22 C25 1_555 1_555
C24 C31 1_555 1_555
C24 C33 1_555 1_555
C26 C32 1_555 1_555
C27 C35 1_555 1_555
C30 C34 1_555 1_555
C32 C36 1_555 1_555
C33 C36 1_555 1_555
C34 O6 1_555 1_555
C14B O4B 1_555 1_555
C15B O2B 1_555 1_555
C17B O1B 1_555 1_555
C18B O5B 1_555 1_555
C20B O3B 1_555 1_555
C22B C25B 1_555 1_555
C24B C31B 1_555 1_555
C24B C33B 1_555 1_555
C25B C35B 1_555 1_555
C26B C32B 1_555 1_555
C27B C35B 1_555 1_555
C28B C29B 1_555 1_555
C29B C31B 1_555 1_555
C30B C34B 1_555 1_555
C32B C36B 1_555 1_555
C33B C36B 1_555 1_555
C34B O6B 1_555 1_555

#END
