
#######################################################################
#
#                 Cambridge Crystallographic Data Centre
#                                CCDC 
#
#######################################################################
#
# If this CIF has been generated from an entry in the Cambridge 
# Structural Database, then it will include bibliographic, chemical, 
# crystal, experimental, refinement or atomic coordinate data resulting 
# from the CCDC's data processing and validation procedures.
#
#######################################################################

data_RIZFAI
_chemical_formula_moiety         'C4 H8 N4'
_chemical_name_systematic        4-Amino-3,5-dimethyl-4H-1,2,4-triazole
_symmetry_cell_setting           monoclinic
_symmetry_space_group_name_H-M   'P 21/c'
_symmetry_Int_Tables_number      14
_space_group_name_Hall           '-P 2ybc'
loop_
_symmetry_equiv_pos_site_id
_symmetry_equiv_pos_as_xyz
1 x,y,z
2 -x,1/2+y,1/2-z
3 -x,-y,-z
4 x,1/2-y,1/2+z
_cell_length_a                   5.8423(12)
_cell_length_b                   7.7540(16)
_cell_length_c                   12.846(3)
_cell_angle_alpha                90
_cell_angle_beta                 96.91(3)
_cell_angle_gamma                90
_cell_volume                     577.712
_exptl_crystal_colour            colorless
_exptl_crystal_description       block
_cell_formula_units_Z            4
loop_
_atom_site_label
_atom_site_type_symbol
_atom_site_fract_x
_atom_site_fract_y
_atom_site_fract_z
N1 N 1.0528(2) 0.17414(16) 0.13102(10)
N2 N 1.2366(2) 0.2703(2) 0.09833(12)
N3 N 0.8357(3) 0.02909(19) 0.22608(11)
N4 N 0.7072(2) 0.06903(19) 0.13019(12)
C1 C 0.8418(3) 0.1557(2) 0.07503(12)
C2 C 1.0418(3) 0.0933(2) 0.22443(13)
C3 C 1.2408(3) 0.0804(3) 0.30796(15)
H1 H 1.1950 0.0182 0.3667
H2 H 1.2906 0.1941 0.3299
H3 H 1.3651 0.0206 0.2812
C4 C 0.7788(3) 0.2255(3) -0.03203(14)
H4 H 0.6213 0.1969 -0.0559
H5 H 0.8775 0.1762 -0.0787
H6 H 0.7968 0.3486 -0.0308
H7 H 1.362(4) 0.200(3) 0.1041(18)
H8 H 1.263(4) 0.361(3) 0.1488(19)
loop_
_geom_bond_atom_site_label_1
_geom_bond_atom_site_label_2
_geom_bond_site_symmetry_1
_geom_bond_site_symmetry_2
N1 N2 1_555 1_555
N2 H7 1_555 1_555
N3 N4 1_555 1_555
N4 C1 1_555 1_555
C1 N1 1_555 1_555
C2 N1 1_555 1_555
C3 C2 1_555 1_555
H1 C3 1_555 1_555
H2 C3 1_555 1_555
H3 C3 1_555 1_555
C4 C1 1_555 1_555
H4 C4 1_555 1_555
H5 C4 1_555 1_555
H6 C4 1_555 1_555
H8 N2 1_555 1_555
N3 C2 1_555 1_555

#END
