
#######################################################################
#
#                 Cambridge Crystallographic Data Centre
#                                CCDC 
#
#######################################################################
#
# If this CIF has been generated from an entry in the Cambridge 
# Structural Database, then it will include bibliographic, chemical, 
# crystal, experimental, refinement or atomic coordinate data resulting 
# from the CCDC's data processing and validation procedures.
#
#######################################################################

data_RIZHEN
_chemical_formula_moiety         'C50 H66 Li2 N10 O2 P2'
_chemical_name_systematic        
bis((\m~2~-N,N'-Diphenylbenzamidine)-hexamethylphosphoramide-lithium)
_symmetry_cell_setting           triclinic
_symmetry_space_group_name_H-M   'P -1'
_symmetry_Int_Tables_number      2
_space_group_name_Hall           '-P 1'
loop_
_symmetry_equiv_pos_site_id
_symmetry_equiv_pos_as_xyz
1 x,y,z
2 -x,-y,-z
_cell_length_a                   9.924(2)
_cell_length_b                   11.649(2)
_cell_length_c                   12.196(2)
_cell_angle_alpha                97.72(3)
_cell_angle_beta                 100.45(3)
_cell_angle_gamma                107.87(3)
_cell_volume                     1292.16
_exptl_crystal_colour            orange
_chemical_melting_point          212-215deg.C
_cell_formula_units_Z            1
_chemical_properties_physical    Air-sensitive
loop_
_atom_site_label
_atom_site_type_symbol
_atom_site_fract_x
_atom_site_fract_y
_atom_site_fract_z
Li1 Li 0.3686(7) 0.9258(5) 0.9575(5)
O1 O 0.2419(3) 0.8189(2) 0.8298(2)
P1 P 0.1769(1) 0.6999(1) 0.7481(1)
N1 N 0.3624(3) 0.8957(3) 1.1183(2)
N2 N 0.5569(3) 0.8904(3) 1.0476(2)
N3 N 0.1718(4) 0.5831(3) 0.8104(3)
N4 N 0.0112(4) 0.6902(3) 0.6840(3)
N5 N 0.2640(4) 0.6787(3) 0.6472(3)
C1 C 0.4780(4) 0.8621(3) 1.1255(3)
C2 C 0.2941(4) 0.9083(3) 1.2077(3)
C3 C 0.1424(4) 0.8660(4) 1.1841(3)
C4 C 0.0693(5) 0.8844(4) 1.2673(4)
C5 C 0.1469(5) 0.9453(4) 1.3764(4)
C6 C 0.2968(5) 0.9877(4) 1.4017(4)
C7 C 0.3701(4) 0.9695(3) 1.3183(3)
C8 C 0.5245(4) 0.7980(3) 1.2172(3)
C9 C 0.4253(4) 0.6996(3) 1.2448(3)
C10 C 0.4711(5) 0.6428(4) 1.3311(4)
C11 C 0.6145(5) 0.6847(4) 1.3910(4)
C12 C 0.7139(5) 0.7833(4) 1.3639(3)
C13 C 0.6693(4) 0.8391(3) 1.2767(3)
C14 C 0.6323(4) 0.8151(3) 1.0089(3)
C15 C 0.7646(4) 0.8707(4) 0.9796(3)
C16 C 0.8342(5) 0.7991(4) 0.9284(4)
C17 C 0.7755(5) 0.6723(4) 0.9060(4)
C18 C 0.6461(5) 0.6163(4) 0.9347(4)
C19 C 0.5761(4) 0.6873(3) 0.9856(3)
C20 C -0.0269(5) 0.7989(4) 0.6685(4)
C21 C -0.0915(5) 0.5767(5) 0.6105(4)
C22 C 0.4151(5) 0.6844(5) 0.6844(4)
C23 C 0.2447(5) 0.7426(4) 0.5533(3)
C24 C 0.1679(6) 0.4610(4) 0.7574(4)
C25 C 0.1322(5) 0.5859(4) 0.9210(4)
N2A N 0.4431(3) 1.1096(3) 0.9524(2)
Li1A Li 0.6314(7) 1.0742(5) 1.0425(5)
O1A O 0.7581(3) 1.1811(2) 1.1702(2)
P1A P 0.8231(1) 1.3001(1) 1.2519(1)
N3A N 0.8282(4) 1.4169(3) 1.1896(3)
C24A C 0.8321(6) 1.5390(4) 1.2426(4)
C25A C 0.8678(5) 1.4141(4) 1.0790(4)
N4A N 0.9888(4) 1.3098(3) 1.3160(3)
C20A C 1.0269(5) 1.2011(4) 1.3315(4)
C21A C 1.0915(5) 1.4233(5) 1.3895(4)
N5A N 0.7360(4) 1.3213(3) 1.3528(3)
C22A C 0.5849(5) 1.3156(5) 1.3156(4)
C23A C 0.7553(5) 1.2574(4) 1.4467(3)
N1A N 0.6376(3) 1.1043(3) 0.8817(2)
C1A C 0.5220(4) 1.1379(3) 0.8745(3)
C14A C 0.3677(4) 1.1849(3) 0.9911(3)
C15A C 0.2354(4) 1.1293(4) 1.0204(3)
C16A C 0.1658(5) 1.2009(4) 1.0716(4)
C17A C 0.2245(5) 1.3277(4) 1.0940(4)
C18A C 0.3539(5) 1.3837(4) 1.0653(4)
C19A C 0.4239(4) 1.3127(3) 1.0144(3)
C8A C 0.4755(4) 1.2020(3) 0.7828(3)
C9A C 0.5747(4) 1.3004(3) 0.7552(3)
C10A C 0.5289(5) 1.3572(4) 0.6689(4)
C11A C 0.3855(5) 1.3153(4) 0.6090(4)
C12A C 0.2861(5) 1.2167(4) 0.6361(3)
C13A C 0.3307(4) 1.1609(3) 0.7233(3)
C2A C 0.7059(4) 1.0917(3) 0.7923(3)
C3A C 0.8576(4) 1.1340(4) 0.8159(3)
C4A C 0.9307(5) 1.1156(4) 0.7327(4)
C5A C 0.8531(5) 1.0547(4) 0.6236(4)
C6A C 0.7032(5) 1.0123(4) 0.5983(4)
C7A C 0.6299(4) 1.0305(3) 0.6817(3)
loop_
_geom_bond_atom_site_label_1
_geom_bond_atom_site_label_2
_geom_bond_site_symmetry_1
_geom_bond_site_symmetry_2
Li1 O1 1_555 1_555
O1 P1 1_555 1_555
P1 N3 1_555 1_555
N1 Li1 1_555 1_555
N2 Li1 1_555 1_555
N3 C24 1_555 1_555
N4 P1 1_555 1_555
N5 P1 1_555 1_555
C1 N1 1_555 1_555
C2 N1 1_555 1_555
C3 C2 1_555 1_555
C4 C3 1_555 1_555
C5 C4 1_555 1_555
C6 C5 1_555 1_555
C7 C2 1_555 1_555
C8 C1 1_555 1_555
C9 C8 1_555 1_555
C10 C9 1_555 1_555
C11 C10 1_555 1_555
C12 C11 1_555 1_555
C13 C8 1_555 1_555
C14 N2 1_555 1_555
C15 C14 1_555 1_555
C16 C15 1_555 1_555
C17 C16 1_555 1_555
C18 C17 1_555 1_555
C19 C14 1_555 1_555
C20 N4 1_555 1_555
C21 N4 1_555 1_555
C22 N5 1_555 1_555
C23 N5 1_555 1_555
C25 N3 1_555 1_555
N2A Li1 1_555 1_555
Li1A N2 1_555 1_555
O1A Li1A 1_555 1_555
P1A O1A 1_555 1_555
N3A P1A 1_555 1_555
C24A N3A 1_555 1_555
C25A N3A 1_555 1_555
N4A P1A 1_555 1_555
C20A N4A 1_555 1_555
C21A N4A 1_555 1_555
N5A P1A 1_555 1_555
C22A N5A 1_555 1_555
C23A N5A 1_555 1_555
N1A Li1A 1_555 1_555
C1A N2A 1_555 1_555
C14A N2A 1_555 1_555
C15A C14A 1_555 1_555
C16A C15A 1_555 1_555
C17A C16A 1_555 1_555
C18A C17A 1_555 1_555
C19A C14A 1_555 1_555
C8A C1A 1_555 1_555
C9A C8A 1_555 1_555
C10A C9A 1_555 1_555
C11A C10A 1_555 1_555
C12A C11A 1_555 1_555
C13A C8A 1_555 1_555
C2A N1A 1_555 1_555
C3A C2A 1_555 1_555
C4A C3A 1_555 1_555
C5A C4A 1_555 1_555
C6A C5A 1_555 1_555
C7A C2A 1_555 1_555
N2 C1 1_555 1_555
C6 C7 1_555 1_555
C12 C13 1_555 1_555
C18 C19 1_555 1_555
N2A Li1A 1_555 1_555
N1A C1A 1_555 1_555
C18A C19A 1_555 1_555
C12A C13A 1_555 1_555
C6A C7A 1_555 1_555

#END
