
#######################################################################
#
#                 Cambridge Crystallographic Data Centre
#                                CCDC 
#
#######################################################################
#
# If this CIF has been generated from an entry in the Cambridge 
# Structural Database, then it will include bibliographic, chemical, 
# crystal, experimental, refinement or atomic coordinate data resulting 
# from the CCDC's data processing and validation procedures.
#
#######################################################################

data_RIZJAL
_chemical_formula_moiety         'C30 H44 Mg1 N2 O2 S2'
_chemical_name_systematic        
bis(Tetrahydrofuran)-(N-t-butylthiobenzamido)-magnesium
_symmetry_cell_setting           triclinic
_symmetry_space_group_name_H-M   'P -1'
_symmetry_Int_Tables_number      2
_space_group_name_Hall           '-P 1'
loop_
_symmetry_equiv_pos_site_id
_symmetry_equiv_pos_as_xyz
1 x,y,z
2 -x,-y,-z
_cell_length_a                   8.887(3)
_cell_length_b                   9.373(3)
_cell_length_c                   10.573(4)
_cell_angle_alpha                72.21(3)
_cell_angle_beta                 86.89(3)
_cell_angle_gamma                68.28(2)
_cell_volume                     777.334
_exptl_crystal_colour            colorless
_chemical_melting_point          230deg.C(dec.)
_cell_formula_units_Z            1
loop_
_atom_site_label
_atom_site_type_symbol
_atom_site_fract_x
_atom_site_fract_y
_atom_site_fract_z
S1 S -0.0872(2) -0.2360(2) 0.1301(2)
Mg1 Mg 0.0000 0.0000 0.0000
O1 O 0.0790(5) -0.1162(5) -0.1601(4)
N1 N 0.1908(5) -0.2023(6) 0.1349(5)
C1 C 0.1170(7) -0.3021(7) 0.1813(5)
C2 C 0.1866(7) -0.4699(7) 0.2723(6)
C3 C 0.2684(8) -0.5982(9) 0.2237(7)
C4 C 0.3348(9) -0.7552(9) 0.312(1)
C5 C 0.3174(10) -0.784(1) 0.445(1)
C6 C 0.2320(10) -0.660(1) 0.4910(8)
C7 C 0.1675(8) -0.5038(9) 0.4082(7)
C8 C 0.3640(7) -0.2342(8) 0.1677(7)
C9 C 0.465(1) -0.297(2) 0.069(1)
C10 C 0.438(1) -0.348(2) 0.305(1)
C11 C 0.3701(10) -0.078(1) 0.162(2)
C12 C 0.129(1) -0.037(1) -0.2883(9)
C13 C 0.192(1) -0.170(1) -0.3561(10)
C14 C 0.121(1) -0.289(1) -0.2931(9)
C15 C 0.093(1) -0.2804(9) -0.1522(7)
H1 H 0.2794 -0.5795 0.1307
H2 H 0.3927 -0.8424 0.2786
H3 H 0.3645 -0.8907 0.5046
H4 H 0.2165 -0.6809 0.5835
H5 H 0.1096 -0.4189 0.4441
H6 H 0.4593 -0.3976 0.0732
H7 H 0.4265 -0.2226 -0.0173
H8 H 0.5739 -0.3112 0.0866
H9 H 0.3759 -0.3084 0.3719
H10 H 0.4373 -0.4525 0.3147
H11 H 0.5464 -0.3565 0.3162
H12 H 0.4784 -0.0918 0.1825
H13 H 0.3354 -0.0047 0.0745
H14 H 0.3010 -0.0358 0.2239
S1A S 0.0872(2) 0.2360(2) -0.1301(2)
C1A C -0.1170(7) 0.3021(7) -0.1813(5)
N1A N -0.1908(5) 0.2023(6) -0.1349(5)
O1A O -0.0790(5) 0.1162(5) 0.1601(4)
C12A C -0.129(1) 0.037(1) 0.2883(9)
C13A C -0.192(1) 0.170(1) 0.3561(10)
C14A C -0.121(1) 0.289(1) 0.2931(9)
C15A C -0.093(1) 0.2804(9) 0.1522(7)
C8A C -0.3640(7) 0.2342(8) -0.1677(7)
C9A C -0.465(1) 0.297(2) -0.069(1)
H6A H -0.4593 0.3976 -0.0732
H7A H -0.4265 0.2226 0.0173
H8A H -0.5739 0.3112 -0.0866
C10A C -0.438(1) 0.348(2) -0.305(1)
H9A H -0.3759 0.3084 -0.3719
H10A H -0.4373 0.4525 -0.3147
H11A H -0.5464 0.3565 -0.3162
C11A C -0.3701(10) 0.078(1) -0.162(2)
H12A H -0.4784 0.0918 -0.1825
H13A H -0.3354 0.0047 -0.0745
H14A H -0.3010 0.0358 -0.2239
C2A C -0.1866(7) 0.4699(7) -0.2723(6)
C3A C -0.2684(8) 0.5982(9) -0.2237(7)
C4A C -0.3348(9) 0.7552(9) -0.312(1)
C5A C -0.3174(10) 0.784(1) -0.445(1)
C6A C -0.2320(10) 0.660(1) -0.4910(8)
C7A C -0.1675(8) 0.5038(9) -0.4082(7)
H5A H -0.1096 0.4189 -0.4441
H4A H -0.2165 0.6809 -0.5835
H3A H -0.3645 0.8907 -0.5046
H2A H -0.3927 0.8424 -0.2786
H1A H -0.2794 0.5795 -0.1307
loop_
_geom_bond_atom_site_label_1
_geom_bond_atom_site_label_2
_geom_bond_site_symmetry_1
_geom_bond_site_symmetry_2
S1 Mg1 1_555 1_555
Mg1 O1 1_555 1_555
O1 C12 1_555 1_555
N1 Mg1 1_555 1_555
C1 S1 1_555 1_555
C2 C1 1_555 1_555
C3 C2 1_555 1_555
C4 C3 1_555 1_555
C5 C4 1_555 1_555
C6 C5 1_555 1_555
C7 C2 1_555 1_555
C8 N1 1_555 1_555
C9 C8 1_555 1_555
C10 C8 1_555 1_555
C11 C8 1_555 1_555
C12 C13 1_555 1_555
C13 C14 1_555 1_555
C14 C15 1_555 1_555
C15 O1 1_555 1_555
H1 C3 1_555 1_555
H2 C4 1_555 1_555
H3 C5 1_555 1_555
H4 C6 1_555 1_555
H5 C7 1_555 1_555
H6 C9 1_555 1_555
H7 C9 1_555 1_555
H8 C9 1_555 1_555
H9 C10 1_555 1_555
H10 C10 1_555 1_555
H11 C10 1_555 1_555
H12 C11 1_555 1_555
H13 C11 1_555 1_555
H14 C11 1_555 1_555
S1A Mg1 1_555 1_555
C1A S1A 1_555 1_555
N1A Mg1 1_555 1_555
O1A Mg1 1_555 1_555
C12A O1A 1_555 1_555
C13A C12A 1_555 1_555
C14A C13A 1_555 1_555
C15A O1A 1_555 1_555
C8A N1A 1_555 1_555
C9A C8A 1_555 1_555
H6A C9A 1_555 1_555
H7A C9A 1_555 1_555
H8A C9A 1_555 1_555
C10A C8A 1_555 1_555
H9A C10A 1_555 1_555
H10A C10A 1_555 1_555
H11A C10A 1_555 1_555
C11A C8A 1_555 1_555
H12A C11A 1_555 1_555
H13A C11A 1_555 1_555
H14A C11A 1_555 1_555
C2A C1A 1_555 1_555
C3A C2A 1_555 1_555
C4A C3A 1_555 1_555
C5A C4A 1_555 1_555
C6A C5A 1_555 1_555
C7A C2A 1_555 1_555
H5A C7A 1_555 1_555
H4A C6A 1_555 1_555
H3A C5A 1_555 1_555
H2A C4A 1_555 1_555
H1A C3A 1_555 1_555
N1 C1 1_555 1_555
C6 C7 1_555 1_555
C1A N1A 1_555 1_555
C14A C15A 1_555 1_555
C6A C7A 1_555 1_555

#END
