
#######################################################################
#
#                 Cambridge Crystallographic Data Centre
#                                CCDC 
#
#######################################################################
#
# If this CIF has been generated from an entry in the Cambridge 
# Structural Database, then it will include bibliographic, chemical, 
# crystal, experimental, refinement or atomic coordinate data resulting 
# from the CCDC's data processing and validation procedures.
#
#######################################################################

data_RIZQEY
_chemical_formula_moiety         'C108 H92 N8 O12,2(C2 H3 N1),C1 H2 Cl2'
_chemical_name_systematic        
"2,8,14,20-Tetra-n-hexyl-4,24;12,16-O,O'-bis(5,8-bis(2-pyridyl)quinoxaline-2,3-diyl)-6,10;18,22-O,O'-bis(1,4-dioxonaphthalene-2,3-diyl)calix(4)resorcinarene cavitand acetonitrile dichloromethane solvate"
_symmetry_cell_setting           monoclinic
_symmetry_space_group_name_H-M   'P 21/n'
_symmetry_Int_Tables_number      14
_space_group_name_Hall           '-P 2yn'
loop_
_symmetry_equiv_pos_site_id
_symmetry_equiv_pos_as_xyz
1 x,y,z
2 1/2-x,1/2+y,1/2-z
3 -x,-y,-z
4 1/2+x,1/2-y,1/2+z
_cell_length_a                   18.289(4)
_cell_length_b                   31.753(8)
_cell_length_c                   19.041(4)
_cell_angle_alpha                90
_cell_angle_beta                 101.350(8)
_cell_angle_gamma                90
_cell_volume                     10841.4
_exptl_crystal_colour            yellow
_exptl_crystal_description       needle
_cell_formula_units_Z            4
loop_
_atom_site_label
_atom_site_type_symbol
_atom_site_fract_x
_atom_site_fract_y
_atom_site_fract_z
Cl1 Cl 0.7792(12) 0.3266(7) 0.5114(12)
Cl2 Cl 0.8900(17) 0.3905(10) 0.500(2)
C1 C 0.8643(18) 0.3379(10) 0.486(2)
H1 H 0.9078 0.3179 0.5160
H2 H 0.8594 0.3306 0.4291
O1 O 0.3334(5) 0.3226(3) 0.4235(5)
O2 O 0.4500(5) 0.2696(3) 0.4597(6)
O3 O 0.4080(5) 0.3366(3) 0.2005(6)
O4 O 0.3220(5) 0.3634(3) 0.2811(5)
O5 O 0.0621(5) 0.3838(3) 0.2683(5)
O6 O 0.0903(5) 0.3432(3) 0.4059(5)
O7 O 0.1172(5) 0.3355(3) 0.6590(5)
O8 O -0.0138(5) 0.2952(3) 0.6098(6)
O9 O 0.0357(5) 0.3525(3) 0.8789(6)
O10 O 0.1356(5) 0.3702(3) 0.8037(5)
O11 O 0.3941(5) 0.3531(3) 0.8227(5)
O12 O 0.3704(5) 0.3198(3) 0.6794(5)
N1 N -0.0377(6) 0.3444(3) 0.2349(6)
N2 N -0.1696(6) 0.2882(4) 0.0657(6)
N3 N -0.1995(6) 0.2316(4) 0.4127(6)
N4 N -0.0217(6) 0.3088(4) 0.3726(6)
N5 N 0.4988(6) 0.3173(4) 0.8475(6)
N6 N 0.6251(5) 0.2635(3) 1.0103(6)
N7 N 0.6624(6) 0.2127(4) 0.6611(7)
N8 N 0.4834(6) 0.2858(3) 0.7063(6)
C3 C 0.3847(8) 0.3175(4) 0.3786(8)
C4 C 0.4451(8) 0.2892(5) 0.4027(9)
C5 C 0.5032(8) 0.2820(5) 0.3598(9)
C6 C 0.5671(8) 0.2597(5) 0.3860(9)
H5 H 0.5767 0.2468 0.4395
C7 C 0.6202(9) 0.2537(5) 0.3419(8)
H6 H 0.6707 0.2365 0.3629
C8 C 0.6092(9) 0.2692(5) 0.2728(9)
H7 H 0.6502 0.2641 0.2400
C9 C 0.5437(8) 0.2917(5) 0.2463(8)
H8 H 0.5335 0.3027 0.1915
C10 C 0.4898(8) 0.3006(5) 0.2895(8)
C11 C 0.4238(8) 0.3236(5) 0.2649(9)
C12 C 0.3734(8) 0.3358(5) 0.3114(8)
C13 C 0.2646(8) 0.3796(5) 0.3135(8)
C14 C 0.1944(7) 0.3736(4) 0.2786(7)
H9 H 0.1832 0.3555 0.2296
C15 C 0.1360(8) 0.3909(5) 0.3062(8)
C16 C 0.0186(8) 0.3544(5) 0.2855(8)
C17 C -0.0875(7) 0.3149(4) 0.2501(7)
C18 C -0.1453(7) 0.3012(4) 0.1932(7)
C19 C -0.1527(7) 0.3184(5) 0.1165(8)
C20 C -0.1849(7) 0.3035(5) -0.0037(8)
H10 H -0.1997 0.2818 -0.0478
C21 C -0.1819(7) 0.3426(5) -0.0165(8)
H11 H -0.1965 0.3519 -0.0720
C22 C -0.1632(7) 0.3728(5) 0.0297(8)
H12 H -0.1589 0.4053 0.0142
C23 C -0.1483(8) 0.3588(5) 0.1053(8)
H13 H -0.1344 0.3810 0.1490
C24 C -0.1904(8) 0.2696(4) 0.2052(8)
H14 H -0.2295 0.2561 0.1610
C25 C -0.1865(8) 0.2533(5) 0.2772(8)
H15 H -0.2266 0.2300 0.2863
C26 C -0.1326(7) 0.2670(4) 0.3345(7)
C27 C -0.1324(8) 0.2458(5) 0.4051(8)
C28 C -0.2026(9) 0.2093(5) 0.4729(9)
H16 H -0.2550 0.1950 0.4778
C29 C -0.1420(9) 0.2040(5) 0.5281(9)
H17 H -0.1482 0.1880 0.5767
C30 C -0.0738(8) 0.2193(5) 0.5208(8)
H18 H -0.0251 0.2140 0.5621
C31 C -0.0683(9) 0.2419(5) 0.4588(8)
H19 H -0.0162 0.2560 0.4527
C32 C -0.0812(7) 0.2956(4) 0.3182(7)
C33 C 0.0233(8) 0.3352(5) 0.3577(8)
C34 C 0.0870(7) 0.3652(5) 0.4701(8)
C35 C 0.0950(7) 0.3389(5) 0.5316(8)
H20 H 0.0974 0.3050 0.5290
C36 C 0.0995(7) 0.3615(5) 0.5971(7)
C37 C 0.0629(7) 0.3326(4) 0.7006(7)
C38 C -0.0028(9) 0.3107(5) 0.6731(9)
C39 C -0.0605(8) 0.3030(5) 0.7152(8)
C40 C -0.1275(8) 0.2804(5) 0.6899(9)
H21 H -0.1381 0.2683 0.6358
C41 C -0.1807(8) 0.2733(5) 0.7329(8)
H22 H -0.2326 0.2573 0.7122
C42 C -0.1635(8) 0.2878(5) 0.8038(8)
H23 H -0.2038 0.2819 0.8372
C43 C -0.0988(8) 0.3092(5) 0.8345(8)
H24 H -0.0879 0.3200 0.8894
C44 C -0.0486(7) 0.3157(4) 0.7883(7)
C45 C 0.0199(8) 0.3398(5) 0.8159(8)
C46 C 0.0763(8) 0.3480(4) 0.7685(8)
C47 C 0.1976(7) 0.3793(4) 0.7708(7)
C48 C 0.2628(8) 0.3609(5) 0.8067(8)
H25 H 0.2650 0.3408 0.8529
C49 C 0.3264(8) 0.3705(5) 0.7777(8)
C50 C 0.4444(8) 0.3278(4) 0.7967(8)
C51 C 0.5529(8) 0.2896(4) 0.8317(8)
C52 C 0.6096(8) 0.2757(5) 0.8863(8)
C53 C 0.6185(7) 0.2940(4) 0.9629(7)
C54 C 0.6356(7) 0.2767(5) 1.0814(8)
H26 H 0.6375 0.2534 1.1231
C55 C 0.6435(8) 0.3187(5) 1.0999(9)
H27 H 0.6521 0.3277 1.1556
C56 C 0.6405(8) 0.3504(5) 1.0463(8)
H28 H 0.6500 0.3834 1.0588
C57 C 0.6233(7) 0.3345(5) 0.9730(8)
H29 H 0.6148 0.3559 0.9281
C58 C 0.6601(7) 0.2468(4) 0.8709(7)
H30 H 0.7051 0.2363 0.9127
C59 C 0.6535(7) 0.2307(4) 0.8003(7)
H31 H 0.6931 0.2074 0.7898
C60 C 0.5964(8) 0.2442(4) 0.7433(8)
C61 C 0.5932(8) 0.2251(4) 0.6721(8)
C62 C 0.6651(9) 0.1935(5) 0.5998(9)
H32 H 0.7190 0.1846 0.5894
C63 C 0.6012(8) 0.1840(5) 0.5475(9)
H33 H 0.6063 0.1669 0.4997
C64 C 0.5329(8) 0.1967(5) 0.5578(8)
H34 H 0.4835 0.1903 0.5178
C65 C 0.5274(8) 0.2185(4) 0.6215(7)
H35 H 0.4743 0.2296 0.6307
C66 C 0.5436(7) 0.2738(4) 0.7590(8)
C67 C 0.4347(8) 0.3100(5) 0.7283(8)
C68 C 0.3757(8) 0.3430(5) 0.6134(8)
C69 C 0.3580(7) 0.3198(4) 0.5518(7)
H36 H 0.3455 0.2865 0.5504
C70 C 0.3581(7) 0.3448(5) 0.4904(7)
C71 C 0.3681(7) 0.3854(5) 0.4888(7)
C72 C 0.3867(7) 0.4065(5) 0.5567(8)
H37 H 0.3995 0.4397 0.5583
C73 C 0.3883(8) 0.3851(5) 0.6190(8)
C74 C 0.3991(8) 0.4067(4) 0.6943(8)
H38 H 0.4465 0.3917 0.7290
C75 C 0.4149(8) 0.4528(4) 0.6927(7)
H39 H 0.3684 0.4686 0.6581
H40 H 0.4647 0.4579 0.6704
C76 C 0.4266(9) 0.4719(5) 0.7679(8)
H41 H 0.3745 0.4699 0.7872
H42 H 0.4681 0.4532 0.8037
C77 C 0.3285(8) 0.3973(4) 0.7255(8)
C78 C 0.2593(7) 0.4141(4) 0.6926(8)
H43 H 0.2573 0.4341 0.6464
C79 C 0.1940(7) 0.4066(4) 0.7159(7)
C80 C 0.1198(7) 0.4242(4) 0.6755(7)
H44 H 0.0767 0.4151 0.7048
C81 C 0.1214(8) 0.4723(5) 0.6726(8)
H45 H 0.0685 0.4837 0.6418
H46 H 0.1655 0.4823 0.6453
C82 C 0.1351(9) 0.4923(5) 0.7494(8)
H47 H 0.0914 0.4820 0.7769
H48 H 0.1883 0.4811 0.7800
C83 C 0.1361(10) 0.5414(6) 0.7466(11)
H49 H 0.0850 0.5523 0.7117
H50 H 0.1366 0.5537 0.8001
C84 C 0.2037(11) 0.5593(7) 0.7191(12)
H51 H 0.2541 0.5451 0.7502
H52 H 0.1994 0.5494 0.6637
C85 C 0.2132(15) 0.6071(8) 0.7224(15)
H53 H 0.2201 0.6157 0.7787
H54 H 0.1599 0.6203 0.6957
C86 C 0.2737(14) 0.6317(8) 0.6931(14)
H55 H 0.2613 0.6307 0.6348
H56 H 0.3280 0.6173 0.7129
H57 H 0.2745 0.6643 0.7110
C87 C 0.1022(7) 0.4025(4) 0.6021(7)
C88 C 0.0956(7) 0.4278(4) 0.5387(7)
H58 H 0.0984 0.4617 0.5419
C89 C 0.0852(7) 0.4069(5) 0.4721(8)
C90 C 0.0856(8) 0.4326(4) 0.4010(8)
H59 H 0.0338 0.4253 0.3638
C91 C 0.0884(8) 0.4794(4) 0.4106(7)
H60 H 0.1399 0.4881 0.4470
H61 H 0.0417 0.4896 0.4343
C92 C 0.0846(8) 0.5015(4) 0.3378(7)
H62 H 0.1279 0.4885 0.3122
H63 H 0.0309 0.4945 0.3035
C93 C 0.0943(10) 0.5492(5) 0.3434(10)
H64 H 0.0540 0.5624 0.3725
H65 H 0.1501 0.5567 0.3729
C94 C 0.0829(18) 0.5687(13) 0.2688(15)
H66 H 0.0747 0.6026 0.2715
H67 H 0.0344 0.5549 0.2338
C95 C 0.1540(17) 0.5588(11) 0.2413(19)
H68 H 0.2029 0.5682 0.2808
H69 H 0.1577 0.5251 0.2314
C96 C 0.1478(8) 0.4157(4) 0.3695(8)
C97 C 0.2224(7) 0.4209(4) 0.4017(8)
H70 H 0.2341 0.4396 0.4500
C98 C 0.2842(7) 0.4041(4) 0.3769(8)
C99 C 0.3632(8) 0.4119(5) 0.4193(8)
H71 H 0.4021 0.3983 0.3889
C100 C 0.3797(8) 0.4582(4) 0.4273(8)
H72 H 0.3417 0.4725 0.4578
H73 H 0.4363 0.4625 0.4576
C101 C 0.3723(8) 0.4804(4) 0.3572(8)
H74 H 0.3182 0.4727 0.3241
H75 H 0.4152 0.4689 0.3297
C102 C 0.3791(9) 0.5283(5) 0.3644(8)
H76 H 0.4343 0.5361 0.3949
H77 H 0.3380 0.5397 0.3942
C103 C 0.3672(9) 0.5507(5) 0.2916(9)
H78 H 0.4098 0.5404 0.2625
H79 H 0.3129 0.5421 0.2601
C104 C 0.3712(11) 0.5980(6) 0.3002(10)
H80 H 0.4254 0.6065 0.3322
H81 H 0.3286 0.6081 0.3293
C105 C 0.3600(14) 0.6214(8) 0.2287(14)
H82 H 0.3883 0.6044 0.1920
H83 H 0.3832 0.6530 0.2373
H84 H 0.3006 0.6234 0.2058
C106 C 0.151(3) 0.5832(15) 0.172(3)
H85 H 0.1255 0.5637 0.1268
H86 H 0.2071 0.5919 0.1668
H87 H 0.1175 0.6116 0.1731
C107 C 0.4521(15) 0.5174(6) 0.7711(14)
H88 H 0.4088 0.5349 0.7353
H89 H 0.5015 0.5183 0.7470
C108 C 0.4758(17) 0.5908(8) 0.8392(14)
H90 H 0.4203 0.6047 0.8301
H91 H 0.5041 0.6012 0.7969
C109 C 0.471(3) 0.5430(9) 0.8406(17)
H92 H 0.4298 0.5349 0.8726
H93 H 0.5247 0.5316 0.8699
C110 C 0.5228(16) 0.6040(9) 0.9166(14)
H94 H 0.5341 0.6377 0.9173
H95 H 0.5753 0.5867 0.9274
H96 H 0.4907 0.5965 0.9575
N9 N 0.7463(8) 0.5017(5) 0.4455(8)
C117 C 0.6708(14) 0.4363(8) 0.4510(14)
H115 H 0.6506 0.4237 0.3975
H116 H 0.6235 0.4443 0.4754
H117 H 0.7052 0.4128 0.4838
C118 C 0.7156(11) 0.4745(7) 0.4461(10)
N10 N 0.5468(8) 0.3712(5) 0.4742(9)
C119 C 0.5882(11) 0.3175(6) 0.5672(11)
H118 H 0.5578 0.2880 0.5555
H119 H 0.5794 0.3299 0.6184
H120 H 0.6475 0.3120 0.5701
C120 C 0.5594(8) 0.3500(5) 0.5068(9)
Cl3? Cl 0.8172(8) 0.3531(5) 0.5381(8)
Cl4? Cl 0.8856(6) 0.4035(3) 0.4449(7)
C2? C 0.8998(12) 0.3622(10) 0.5067(15)
H3? H 0.9447 0.3703 0.5514
H4? H 0.9158 0.3338 0.4814
C111? C 0.116(3) 0.5755(16) 0.2831(19)
H97? H 0.1765 0.5764 0.2899
H98? H 0.0963 0.6078 0.2866
H99? H 0.1362 0.5554 0.3914
H100? H 0.0419 0.5621 0.3531
C112? C 0.095(2) 0.5702(13) 0.134(2)
H101? H 0.0454 0.5625 0.0940
H102? H 0.1428 0.5533 0.1222
H103? H 0.1051 0.6040 0.1333
C113? C 0.082(4) 0.5574(19) 0.209(2)
H104? H 0.0957 0.5239 0.2127
H105? H 0.0221 0.5594 0.2047
H106? H 0.4478 0.5287 0.8242
H107? H 0.5115 0.5165 0.7701
C114? C 0.471(2) 0.5902(9) 0.7418(19)
H108? H 0.4417 0.6143 0.7666
H109? H 0.5211 0.5810 0.7795
C115? C 0.420(3) 0.5519(12) 0.720(3)
H110? H 0.3628 0.5589 0.7246
H111? H 0.4204 0.5428 0.6648
C116? C 0.490(10) 0.606(5) 0.672(4)
H112? H 0.5284 0.6329 0.6835
H113? H 0.4392 0.6167 0.6359
H114? H 0.5161 0.5813 0.6465
loop_
_geom_bond_atom_site_label_1
_geom_bond_atom_site_label_2
_geom_bond_site_symmetry_1
_geom_bond_site_symmetry_2
Cl1 C1 1_555 1_555
Cl2 C1 1_555 1_555
C1 H1 1_555 1_555
H2 C1 1_555 1_555
O1 C3 1_555 1_555
O2 C4 1_555 1_555
O3 C11 1_555 1_555
O4 C12 1_555 1_555
O5 C15 1_555 1_555
O6 C33 1_555 1_555
O7 C36 1_555 1_555
O8 C38 1_555 1_555
O9 C45 1_555 1_555
O10 C46 1_555 1_555
O11 C49 1_555 1_555
O12 C67 1_555 1_555
N1 C16 1_555 1_555
N2 C19 1_555 1_555
N3 C27 1_555 1_555
N4 C32 1_555 1_555
N5 C50 1_555 1_555
N6 C53 1_555 1_555
N7 C61 1_555 1_555
N8 C66 1_555 1_555
C3 C4 1_555 1_555
C4 C5 1_555 1_555
C5 C6 1_555 1_555
C6 H5 1_555 1_555
C7 C6 1_555 1_555
H6 C7 1_555 1_555
C8 C7 1_555 1_555
H7 C8 1_555 1_555
C9 C8 1_555 1_555
H8 C9 1_555 1_555
C10 C5 1_555 1_555
C11 C10 1_555 1_555
C12 C3 1_555 1_555
C13 O4 1_555 1_555
C14 C13 1_555 1_555
H9 C14 1_555 1_555
C15 C14 1_555 1_555
C16 O5 1_555 1_555
C17 N1 1_555 1_555
C18 C17 1_555 1_555
C19 C18 1_555 1_555
C20 N2 1_555 1_555
H10 C20 1_555 1_555
C21 C20 1_555 1_555
H11 C21 1_555 1_555
C22 C21 1_555 1_555
H12 C22 1_555 1_555
C23 C19 1_555 1_555
H13 C23 1_555 1_555
C24 C18 1_555 1_555
H14 C24 1_555 1_555
C25 C24 1_555 1_555
H15 C25 1_555 1_555
C26 C25 1_555 1_555
C27 C26 1_555 1_555
C28 N3 1_555 1_555
H16 C28 1_555 1_555
C29 C28 1_555 1_555
H17 C29 1_555 1_555
C30 C29 1_555 1_555
H18 C30 1_555 1_555
C31 C27 1_555 1_555
H19 C31 1_555 1_555
C32 C17 1_555 1_555
C33 N4 1_555 1_555
C34 O6 1_555 1_555
C35 C34 1_555 1_555
H20 C35 1_555 1_555
C36 C35 1_555 1_555
C37 O7 1_555 1_555
C38 C37 1_555 1_555
C39 C38 1_555 1_555
C40 C39 1_555 1_555
H21 C40 1_555 1_555
C41 C40 1_555 1_555
H22 C41 1_555 1_555
C42 C41 1_555 1_555
H23 C42 1_555 1_555
C43 C42 1_555 1_555
H24 C43 1_555 1_555
C44 C39 1_555 1_555
C45 C44 1_555 1_555
C46 C37 1_555 1_555
C47 O10 1_555 1_555
C48 C47 1_555 1_555
H25 C48 1_555 1_555
C49 C48 1_555 1_555
C50 O11 1_555 1_555
C51 N5 1_555 1_555
C52 C51 1_555 1_555
C53 C52 1_555 1_555
C54 N6 1_555 1_555
H26 C54 1_555 1_555
C55 C54 1_555 1_555
H27 C55 1_555 1_555
C56 C55 1_555 1_555
H28 C56 1_555 1_555
C57 C53 1_555 1_555
H29 C57 1_555 1_555
C58 C52 1_555 1_555
H30 C58 1_555 1_555
C59 C58 1_555 1_555
H31 C59 1_555 1_555
C60 C59 1_555 1_555
C61 C60 1_555 1_555
C62 N7 1_555 1_555
H32 C62 1_555 1_555
C63 C62 1_555 1_555
H33 C63 1_555 1_555
C64 C63 1_555 1_555
H34 C64 1_555 1_555
C65 C61 1_555 1_555
H35 C65 1_555 1_555
C66 C51 1_555 1_555
C67 N8 1_555 1_555
C68 O12 1_555 1_555
C69 C68 1_555 1_555
H36 C69 1_555 1_555
C70 O1 1_555 1_555
C71 C70 1_555 1_555
C72 C71 1_555 1_555
H37 C72 1_555 1_555
C73 C68 1_555 1_555
C74 C73 1_555 1_555
H38 C74 1_555 1_555
C75 C74 1_555 1_555
H39 C75 1_555 1_555
H40 C75 1_555 1_555
C76 C75 1_555 1_555
H41 C76 1_555 1_555
H42 C76 1_555 1_555
C77 C49 1_555 1_555
C78 C77 1_555 1_555
H43 C78 1_555 1_555
C79 C47 1_555 1_555
C80 C79 1_555 1_555
H44 C80 1_555 1_555
C81 C80 1_555 1_555
H45 C81 1_555 1_555
H46 C81 1_555 1_555
C82 C81 1_555 1_555
H47 C82 1_555 1_555
H48 C82 1_555 1_555
C83 C82 1_555 1_555
H49 C83 1_555 1_555
H50 C83 1_555 1_555
C84 C83 1_555 1_555
H51 C84 1_555 1_555
H52 C84 1_555 1_555
C85 C84 1_555 1_555
H53 C85 1_555 1_555
H54 C85 1_555 1_555
C86 C85 1_555 1_555
H55 C86 1_555 1_555
H56 C86 1_555 1_555
H57 C86 1_555 1_555
C87 C36 1_555 1_555
C88 C87 1_555 1_555
H58 C88 1_555 1_555
C89 C34 1_555 1_555
C90 C89 1_555 1_555
H59 C90 1_555 1_555
C91 C90 1_555 1_555
H60 C91 1_555 1_555
H61 C91 1_555 1_555
C92 C91 1_555 1_555
H62 C92 1_555 1_555
H63 C92 1_555 1_555
C93 C92 1_555 1_555
H64 C93 1_555 1_555
H65 C93 1_555 1_555
C94 C93 1_555 1_555
H66 C94 1_555 1_555
H67 C94 1_555 1_555
C95 C94 1_555 1_555
H68 C95 1_555 1_555
H69 C95 1_555 1_555
C96 C15 1_555 1_555
C97 C96 1_555 1_555
H70 C97 1_555 1_555
C98 C13 1_555 1_555
C99 C71 1_555 1_555
H71 C99 1_555 1_555
C100 C99 1_555 1_555
H72 C100 1_555 1_555
H73 C100 1_555 1_555
C101 C100 1_555 1_555
H74 C101 1_555 1_555
H75 C101 1_555 1_555
C102 C101 1_555 1_555
H76 C102 1_555 1_555
H77 C102 1_555 1_555
C103 C102 1_555 1_555
H78 C103 1_555 1_555
H79 C103 1_555 1_555
C104 C103 1_555 1_555
H80 C104 1_555 1_555
H81 C104 1_555 1_555
C105 C104 1_555 1_555
H82 C105 1_555 1_555
H83 C105 1_555 1_555
H84 C105 1_555 1_555
C106 C95 1_555 1_555
H85 C106 1_555 1_555
H86 C106 1_555 1_555
H87 C106 1_555 1_555
C107 C76 1_555 1_555
H88 C107 1_555 1_555
H89 C107 1_555 1_555
C108 H90 1_555 1_555
H91 C108 1_555 1_555
C109 C107 1_555 1_555
H92 C109 1_555 1_555
H93 C109 1_555 1_555
C110 C108 1_555 1_555
H94 C110 1_555 1_555
H95 C110 1_555 1_555
H96 C110 1_555 1_555
N9 C118 1_555 1_555
C117 H115 1_555 1_555
H116 C117 1_555 1_555
H117 C117 1_555 1_555
C118 C117 1_555 1_555
N10 C120 1_555 1_555
C119 H118 1_555 1_555
H119 C119 1_555 1_555
H120 C119 1_555 1_555
C120 C119 1_555 1_555
C9 C10 1_555 1_555
C11 C12 1_555 1_555
C16 C33 1_555 1_555
C22 C23 1_555 1_555
C26 C32 1_555 1_555
C30 C31 1_555 1_555
C43 C44 1_555 1_555
C45 C46 1_555 1_555
C50 C67 1_555 1_555
C56 C57 1_555 1_555
C60 C66 1_555 1_555
C64 C65 1_555 1_555
C69 C70 1_555 1_555
C72 C73 1_555 1_555
C74 C77 1_555 1_555
C78 C79 1_555 1_555
C80 C87 1_555 1_555
C88 C89 1_555 1_555
C90 C96 1_555 1_555
C97 C98 1_555 1_555
C98 C99 1_555 1_555
C108 C109 1_555 1_555

#END
