
#######################################################################
#
#                 Cambridge Crystallographic Data Centre
#                                CCDC 
#
#######################################################################
#
# If this CIF has been generated from an entry in the Cambridge 
# Structural Database, then it will include bibliographic, chemical, 
# crystal, experimental, refinement or atomic coordinate data resulting 
# from the CCDC's data processing and validation procedures.
#
#######################################################################

data_RIZSEZ
_chemical_formula_moiety         'C19 H18 N2 O1'
_chemical_name_systematic        
(S)-2-(Pyrrol-2-ylmethyleneamino)-2'-hydroxy-6,6'-dimethyl-1,1'-biphenyl
_symmetry_cell_setting           orthorhombic
_symmetry_space_group_name_H-M   'P 21 21 21'
_symmetry_Int_Tables_number      19
_space_group_name_Hall           'P 2ac 2ab'
loop_
_symmetry_equiv_pos_site_id
_symmetry_equiv_pos_as_xyz
1 x,y,z
2 1/2-x,-y,1/2+z
3 -x,1/2+y,1/2-z
4 1/2+x,1/2-y,-z
_cell_length_a                   7.8585(15)
_cell_length_b                   12.133(2)
_cell_length_c                   16.954(3)
_cell_angle_alpha                90
_cell_angle_beta                 90
_cell_angle_gamma                90
_cell_volume                     1616.52
_exptl_crystal_colour            yellow
_exptl_crystal_description       block
_cell_formula_units_Z            4
_chemical_properties_physical    moisture-sensitive
loop_
_atom_site_label
_atom_site_type_symbol
_atom_site_fract_x
_atom_site_fract_y
_atom_site_fract_z
O1 O 0.8743(2) -0.07625(12) 0.29460(10)
H1 H 0.8590 -0.1336 0.2700
N1 N 1.1291(2) 0.20789(14) 0.24925(11)
N2 N 1.1678(4) 0.2550(2) 0.07952(13)
C1 C 0.8044(3) 0.11240(16) 0.29136(13)
C2 C 0.7764(3) 0.00543(19) 0.26292(13)
C3 C 0.6576(3) -0.0141(2) 0.20456(15)
H2 H 0.6416 -0.0852 0.1854
C4 C 0.5639(4) 0.0708(2) 0.17511(17)
H3 H 0.4838 0.0575 0.1359
C5 C 0.5871(3) 0.1775(2) 0.20323(16)
H4 H 0.5211 0.2347 0.1833
C6 C 0.7081(3) 0.19903(18) 0.26081(13)
C7 C 0.7362(4) 0.31513(19) 0.28893(17)
H5 H 0.8530 0.3353 0.2808
H6 H 0.7095 0.3199 0.3441
H7 H 0.6640 0.3644 0.2599
C8 C 0.9399(3) 0.13146(15) 0.35112(12)
C9 C 1.0969(3) 0.17532(16) 0.32902(12)
C10 C 1.2236(3) 0.19296(19) 0.38414(14)
H8 H 1.3279 0.2220 0.3686
C11 C 1.1946(4) 0.1672(2) 0.46234(16)
H9 H 1.2797 0.1784 0.4996
C12 C 1.0409(4) 0.1254(2) 0.48483(15)
H10 H 1.0225 0.1093 0.5378
C13 C 0.9115(3) 0.10629(17) 0.43101(13)
C14 C 0.7423(4) 0.0619(2) 0.45784(16)
H11 H 0.7164 -0.0042 0.4291
H12 H 0.6554 0.1159 0.4483
H13 H 0.7473 0.0456 0.5132
C15 C 1.1172(3) 0.13543(18) 0.19522(13)
H14 H 1.0937 0.0636 0.2110
C16 C 1.1365(3) 0.1545(2) 0.11285(14)
C17 C 1.1385(4) 0.0791(2) 0.05287(16)
H15 H 1.1211 0.0037 0.0582
C18 C 1.1706(6) 0.1341(3) -0.01694(17)
H16 H 1.1783 0.1028 -0.0669
C19 C 1.1887(6) 0.2421(3) 0.00109(18)
H17 H 1.2117 0.2982 -0.0347
H18 H 1.151(5) 0.3191(16) 0.1054(18)
loop_
_geom_bond_atom_site_label_1
_geom_bond_atom_site_label_2
_geom_bond_site_symmetry_1
_geom_bond_site_symmetry_2
O1 H1 1_555 1_555
N1 C9 1_555 1_555
N2 C16 1_555 1_555
C1 C2 1_555 1_555
C2 O1 1_555 1_555
C3 C2 1_555 1_555
H2 C3 1_555 1_555
C4 C3 1_555 1_555
H3 C4 1_555 1_555
C5 C4 1_555 1_555
H4 C5 1_555 1_555
C6 C1 1_555 1_555
C7 C6 1_555 1_555
H5 C7 1_555 1_555
H6 C7 1_555 1_555
H7 C7 1_555 1_555
C8 C1 1_555 1_555
C9 C8 1_555 1_555
C10 C9 1_555 1_555
H8 C10 1_555 1_555
C11 C10 1_555 1_555
H9 C11 1_555 1_555
C12 C11 1_555 1_555
H10 C12 1_555 1_555
C13 C8 1_555 1_555
C14 C13 1_555 1_555
H11 C14 1_555 1_555
H12 C14 1_555 1_555
H13 C14 1_555 1_555
C15 N1 1_555 1_555
H14 C15 1_555 1_555
C16 C15 1_555 1_555
C17 C16 1_555 1_555
H15 C17 1_555 1_555
C18 C17 1_555 1_555
H16 C18 1_555 1_555
C19 N2 1_555 1_555
H17 C19 1_555 1_555
H18 N2 1_555 1_555
C5 C6 1_555 1_555
C12 C13 1_555 1_555
C18 C19 1_555 1_555

#END
