
#######################################################################
#
#                 Cambridge Crystallographic Data Centre
#                                CCDC 
#
#######################################################################
#
# If this CIF has been generated from an entry in the Cambridge 
# Structural Database, then it will include bibliographic, chemical, 
# crystal, experimental, refinement or atomic coordinate data resulting 
# from the CCDC's data processing and validation procedures.
#
#######################################################################

data_RODDOE
_chemical_formula_moiety         'C17 H20 N1 O2 1+,I1 1-'
_chemical_name_systematic        
'4-((E)-2-(3,4-Dimethoxyphenyl)-1-ethenyl)-1-ethylpyridinium iodide'
_symmetry_cell_setting           triclinic
_symmetry_space_group_name_H-M   'P -1'
_symmetry_Int_Tables_number      2
_space_group_name_Hall           '-P 1'
loop_
_symmetry_equiv_pos_site_id
_symmetry_equiv_pos_as_xyz
1 x,y,z
2 -x,-y,-z
_cell_length_a                   8.1982(7)
_cell_length_b                   9.5753(9)
_cell_length_c                   12.1059(10)
_cell_angle_alpha                69.928(3)
_cell_angle_beta                 73.081(3)
_cell_angle_gamma                71.771(3)
_cell_volume                     829.639
_exptl_crystal_colour            yellow
_exptl_crystal_description       plate
_chemical_melting_point          233-5deg.C(dec.)
_cell_formula_units_Z            2
_chemical_properties_physical    light-sensitive
_exptl_crystal_recrystallization_method benzene/acetonitrile
loop_
_atom_site_label
_atom_site_type_symbol
_atom_site_fract_x
_atom_site_fract_y
_atom_site_fract_z
I1 I 0.123710(16) 0.340495(15) 0.319719(12)
O1 O 0.87721(19) -0.18942(18) 0.05684(13)
O2 O 0.56179(18) -0.04565(18) 0.12133(13)
N1 N 0.4634(2) 0.43112(19) 0.71512(14)
C1 C 0.3330(3) 0.4031(2) 0.68462(18)
C2 C 0.3689(3) 0.3266(2) 0.60017(18)
C3 C 0.5432(3) 0.2737(2) 0.54404(16)
C4 C 0.6758(3) 0.3069(2) 0.57656(17)
C5 C 0.6333(3) 0.3846(2) 0.66110(17)
C6 C 0.5767(3) 0.1913(2) 0.45559(17)
C7 C 0.7370(3) 0.1249(2) 0.40290(18)
C8 C 0.7734(3) 0.0455(2) 0.31159(17)
C9 C 0.9452(3) -0.0326(2) 0.27461(19)
C10 C 0.9862(3) -0.1127(2) 0.18968(19)
C11 C 0.8553(3) -0.1144(2) 0.13945(17)
C12 C 0.6806(2) -0.0339(2) 0.17464(17)
C13 C 0.6408(2) 0.0452(2) 0.25868(17)
C14 C 1.0501(3) -0.2740(3) 0.0177(2)
C15 C 0.3827(3) 0.0304(3) 0.15799(18)
C16 C 0.4213(3) 0.5078(3) 0.81103(19)
C17 C 0.4198(3) 0.3901(3) 0.9325(2)
H1 H 0.228(4) 0.436(3) 0.722(2)
H2 H 0.273(3) 0.314(3) 0.578(2)
H3 H 0.794(3) 0.279(3) 0.541(2)
H4 H 0.720(3) 0.413(3) 0.684(2)
H5 H 0.477(4) 0.183(3) 0.439(2)
H6 H 0.839(3) 0.127(3) 0.424(2)
H7 H 1.031(4) -0.030(3) 0.309(2)
H8 H 1.096(4) -0.166(3) 0.165(2)
H9 H 0.527(3) 0.102(3) 0.284(2)
H10 H 1.039(4) -0.319(4) -0.043(3)
H11 H 1.094(3) -0.354(3) 0.085(2)
H12 H 1.129(3) -0.208(3) -0.021(2)
H13 H 0.314(3) 0.016(3) 0.111(2)
H14 H 0.376(3) 0.142(3) 0.137(2)
H15 H 0.339(3) -0.012(3) 0.247(2)
H16 H 0.312(4) 0.582(3) 0.805(2)
H17 H 0.511(3) 0.567(3) 0.794(2)
H18 H 0.382(4) 0.440(3) 0.996(3)
H19 H 0.536(4) 0.322(3) 0.937(2)
H20 H 0.347(4) 0.332(3) 0.945(2)
loop_
_geom_bond_atom_site_label_1
_geom_bond_atom_site_label_2
_geom_bond_site_symmetry_1
_geom_bond_site_symmetry_2
O1 C11 1_555 1_555
O2 C12 1_555 1_555
N1 C1 1_555 1_555
C1 C2 1_555 1_555
C2 C3 1_555 1_555
C3 C4 1_555 1_555
C4 C5 1_555 1_555
C5 N1 1_555 1_555
C6 C3 1_555 1_555
C7 C6 1_555 1_555
C8 C7 1_555 1_555
C9 C8 1_555 1_555
C10 C9 1_555 1_555
C11 C10 1_555 1_555
C12 C11 1_555 1_555
C13 C8 1_555 1_555
C14 O1 1_555 1_555
C15 O2 1_555 1_555
C16 N1 1_555 1_555
C17 C16 1_555 1_555
H1 C1 1_555 1_555
H2 C2 1_555 1_555
H3 C4 1_555 1_555
H4 C5 1_555 1_555
H5 C6 1_555 1_555
H6 C7 1_555 1_555
H7 C9 1_555 1_555
H8 C10 1_555 1_555
H9 C13 1_555 1_555
H10 C14 1_555 1_555
H11 C14 1_555 1_555
H12 C14 1_555 1_555
H13 C15 1_555 1_555
H14 C15 1_555 1_555
H15 C15 1_555 1_555
H16 C16 1_555 1_555
H17 C16 1_555 1_555
H18 C17 1_555 1_555
H19 C17 1_555 1_555
H20 C17 1_555 1_555
C12 C13 1_555 1_555

#END
