
#######################################################################
#
#                 Cambridge Crystallographic Data Centre
#                                CCDC 
#
#######################################################################
#
# If this CIF has been generated from an entry in the Cambridge 
# Structural Database, then it will include bibliographic, chemical, 
# crystal, experimental, refinement or atomic coordinate data resulting 
# from the CCDC's data processing and validation procedures.
#
#######################################################################

data_RODFEW
_chemical_formula_moiety         'C17 H21 N2 1+,Cl1 O4 1-'
_chemical_name_systematic        
'4-((E)-2-(4-(Dimethylamino)phenyl)ethenyl)-1-ethylpyridinium perchlorate'
_symmetry_cell_setting           orthorhombic
_symmetry_space_group_name_H-M   'P 21 21 21'
_symmetry_Int_Tables_number      19
_space_group_name_Hall           'P 2ac 2ab'
loop_
_symmetry_equiv_pos_site_id
_symmetry_equiv_pos_as_xyz
1 x,y,z
2 1/2-x,-y,1/2+z
3 -x,1/2+y,1/2-z
4 1/2+x,1/2-y,-z
_cell_length_a                   6.8668(2)
_cell_length_b                   8.0649(3)
_cell_length_c                   30.7437(9)
_cell_angle_alpha                90
_cell_angle_beta                 90
_cell_angle_gamma                90
_cell_volume                     1702.59
_exptl_crystal_colour            brown
_exptl_crystal_description       plate
_chemical_melting_point          214-7deg.C
_cell_formula_units_Z            4
_chemical_properties_physical    light-sensitive
_exptl_crystal_recrystallization_method 'ethyl acetate/acetonitrile'
loop_
_atom_site_label
_atom_site_type_symbol
_atom_site_fract_x
_atom_site_fract_y
_atom_site_fract_z
Cl1 Cl 0.38568(11) 0.10582(9) 0.92414(2)
O1 O 0.2325(10) 0.0600(8) 0.9523(2)
O2 O 0.3299(9) 0.2330(7) 0.89506(19)
O3 O 0.5466(9) 0.1644(7) 0.95038(17)
O4 O 0.4522(9) -0.0390(6) 0.90074(19)
N1 N 1.1511(6) 0.5450(6) 0.94434(15)
N2 N 0.0535(6) 0.5354(6) 0.69517(14)
C1 C 1.1552(11) 0.6581(8) 0.9129(2)
H1 H 1.2656 0.7291 0.9128
C2 C 0.8442(8) 0.4566(9) 0.9192(2)
H2 H 0.7319 0.3884 0.9213
C3 C 0.9954(8) 0.4436(6) 0.94750(16)
H3 H 0.9914 0.3621 0.9698
C4 C 1.040(2) 0.6825(16) 0.8849(4)
H4 H 1.0654 0.7653 0.8636
C5 C 0.867(2) 0.5924(18) 0.8825(4)
C6 C 0.7291(13) 0.6173(11) 0.8482(3)
H5 H 0.7606 0.7002 0.8274
C7 C 0.5575(15) 0.5355(11) 0.8419(3)
H6 H 0.5141 0.4581 0.8631
C12 C 0.4349(8) 0.5660(9) 0.8017(2)
C13 C 0.2684(9) 0.4722(8) 0.80335(18)
H10 H 0.2413 0.4103 0.8289
C14 C 0.1394(8) 0.4649(6) 0.76909(16)
H11 H 0.0227 0.4026 0.7721
C15 C 0.1766(7) 0.5477(6) 0.72964(16)
C16 C 0.3441(7) 0.6447(7) 0.7274(2)
H12 H 0.3743 0.7035 0.7015
C17 C 0.4679(8) 0.6555(8) 0.7635(2)
H13 H 0.5782 0.7263 0.7620
C18 C -0.1405(7) 0.4665(8) 0.70136(18)
H14 H -0.1484 0.4137 0.7300
H15 H -0.1665 0.3839 0.6787
H16 H -0.2373 0.5555 0.6995
C19 C 0.0982(8) 0.6187(7) 0.65367(16)
H17 H 0.2331 0.6582 0.6541
H18 H 0.0100 0.7130 0.6497
H19 H 0.0811 0.5402 0.6296
C20 C 1.3119(10) 0.5288(11) 0.9750(2)
H20 H 1.4367 0.5416 0.9593
H21 H 1.3093 0.4165 0.9880
C21 C 1.3005(9) 0.6580(9) 1.0112(2)
H22 H 1.4089 0.6416 1.0315
H23 H 1.1769 0.6460 1.0268
H24 H 1.3086 0.7693 0.9986
C8? C 0.960(3) 0.664(2) 0.8824(5)
H7? H 0.9475 0.7453 0.8604
C9? C 0.817(3) 0.550(2) 0.8889(5)
C10? C 0.6437(18) 0.5318(15) 0.8640(4)
H8? H 0.5473 0.4578 0.8747
C11? C 0.6078(18) 0.6075(19) 0.8282(5)
H9? H 0.6940 0.6919 0.8185
loop_
_geom_bond_atom_site_label_1
_geom_bond_atom_site_label_2
_geom_bond_site_symmetry_1
_geom_bond_site_symmetry_2
Cl1 O1 1_555 1_555
O2 Cl1 1_555 1_555
O3 Cl1 1_555 1_555
O4 Cl1 1_555 1_555
N1 C1 1_555 1_555
N2 C15 1_555 1_555
C1 H1 1_555 1_555
C2 H2 1_555 1_555
C3 N1 1_555 1_555
H3 C3 1_555 1_555
C4 C1 1_555 1_555
H4 C4 1_555 1_555
C5 C2 1_555 1_555
C6 C5 1_555 1_555
H5 C6 1_555 1_555
C7 C6 1_555 1_555
H6 C7 1_555 1_555
C12 C7 1_555 1_555
C13 C12 1_555 1_555
H10 C13 1_555 1_555
C14 C13 1_555 1_555
H11 C14 1_555 1_555
C15 C14 1_555 1_555
C16 C15 1_555 1_555
H12 C16 1_555 1_555
C17 C12 1_555 1_555
H13 C17 1_555 1_555
C18 N2 1_555 1_555
H14 C18 1_555 1_555
H15 C18 1_555 1_555
H16 C18 1_555 1_555
C19 N2 1_555 1_555
H17 C19 1_555 1_555
H18 C19 1_555 1_555
H19 C19 1_555 1_555
C20 N1 1_555 1_555
H20 C20 1_555 1_555
H21 C20 1_555 1_555
C21 C20 1_555 1_555
H22 C21 1_555 1_555
H23 C21 1_555 1_555
H24 C21 1_555 1_555
C2 C3 1_555 1_555
C4 C5 1_555 1_555
C16 C17 1_555 1_555

#END
