
#######################################################################
#
#                 Cambridge Crystallographic Data Centre
#                                CCDC 
#
#######################################################################
#
# If this CIF has been generated from an entry in the Cambridge 
# Structural Database, then it will include bibliographic, chemical, 
# crystal, experimental, refinement or atomic coordinate data resulting 
# from the CCDC's data processing and validation procedures.
#
#######################################################################

data_RODFUM02
_chemical_formula_moiety         'C16 H18 N1 O1 1+,Cl1 O4 1-'
_chemical_name_systematic        
'1-ethyl-4-(2-(4-methoxyphenyl)vinyl)pyridinium perchlorate'
_symmetry_cell_setting           monoclinic
_symmetry_space_group_name_H-M   'P 21/c'
_symmetry_Int_Tables_number      14
_space_group_name_Hall           '-P 2ybc'
loop_
_symmetry_equiv_pos_site_id
_symmetry_equiv_pos_as_xyz
1 x,y,z
2 -x,1/2+y,1/2-z
3 -x,-y,-z
4 x,1/2-y,1/2+z
_cell_length_a                   15.3118(10)
_cell_length_b                   19.3470(13)
_cell_length_c                   33.334(2)
_cell_angle_alpha                90
_cell_angle_beta                 101.222(2)
_cell_angle_gamma                90
_cell_volume                     9685.98
_exptl_crystal_colour            yellow
_exptl_crystal_description       plate
_cell_formula_units_Z            24
loop_
_atom_site_label
_atom_site_type_symbol
_atom_site_fract_x
_atom_site_fract_y
_atom_site_fract_z
O1 O -0.05067(18) 0.41525(13) 0.43386(9)
Cl1 Cl 0.03044(6) 0.37576(5) 0.44126(3)
O2 O 0.10249(18) 0.41803(16) 0.43393(9)
O3 O 0.0474(2) 0.35363(16) 0.48301(8)
O4 O 0.0191(2) 0.31714(16) 0.41519(9)
Cl2 Cl 0.45121(6) 0.37099(4) 0.07892(3)
O5 O 0.45450(19) 0.36058(14) 0.12192(8)
O6 O 0.46489(17) 0.44281(12) 0.07155(8)
O7 O 0.52025(19) 0.33065(14) 0.06661(9)
O8 O 0.36446(18) 0.35035(14) 0.05658(8)
Cl3 Cl 0.46562(6) 0.61492(4) 0.74638(3)
O9 O 0.5422(2) 0.65867(18) 0.75542(13)
O10 O 0.4837(2) 0.54976(17) 0.76707(14)
O11 O 0.3913(2) 0.64676(16) 0.75741(14)
O12 O 0.4481(3) 0.6012(2) 0.70301(10)
Cl4 Cl -0.04666(6) 0.36432(5) 0.25451(4)
O17 O 0.01816(19) 0.40616(14) 0.24198(10)
O18 O -0.0281(3) 0.3649(2) 0.29873(11)
O19 O -0.1329(2) 0.39132(16) 0.24056(13)
O20 O -0.0405(2) 0.29524(14) 0.24193(11)
Cl5 Cl -0.13079(7) 0.36205(5) 0.07095(3)
O21 O -0.2088(2) 0.35416(15) 0.03870(10)
O22 O -0.09226(18) 0.29469(12) 0.08023(8)
O23 O -0.0681(2) 0.40541(14) 0.05680(9)
O24 O -0.1572(2) 0.39095(16) 0.10552(10)
Cl6 Cl 0.40568(8) 0.59755(5) 0.55519(4)
O25 O 0.4493(6) 0.6185(4) 0.5933(2)
O26 O 0.3177(6) 0.6242(5) 0.5478(3)
O27 O 0.4556(5) 0.6240(4) 0.5228(3)
O28 O 0.4080(6) 0.5237(4) 0.5505(3)
O33 O 0.19702(18) 0.40845(13) 0.57270(8)
N1 N 0.32425(19) 0.49848(15) 0.89604(9)
C1 C 0.2960(3) 0.4341(2) 0.88341(13)
C2 C 0.2783(3) 0.4169(2) 0.84306(12)
C3 C 0.2884(2) 0.46410(18) 0.81332(11)
C4 C 0.3190(3) 0.5304(2) 0.82728(12)
C5 C 0.3351(3) 0.5457(2) 0.86789(12)
C6 C 0.2699(3) 0.4431(2) 0.77030(13)
C7 C 0.2715(2) 0.4844(2) 0.73898(12)
C8 C 0.2531(2) 0.46432(19) 0.69578(11)
C9 C 0.2577(2) 0.51287(19) 0.66593(12)
C10 C 0.2402(2) 0.4976(2) 0.62470(12)
C11 C 0.2166(2) 0.43031(19) 0.61252(11)
C12 C 0.2130(3) 0.3797(2) 0.64170(12)
C13 C 0.2303(3) 0.3958(2) 0.68259(12)
C14 C 0.1958(3) 0.4601(2) 0.54118(13)
C15 C 0.3388(3) 0.5167(2) 0.94017(12)
C16 C 0.3926(3) 0.4629(3) 0.96720(15)
H1 H 0.290(2) 0.4027(18) 0.9035(10)
H2 H 0.261(2) 0.366(2) 0.8356(11)
H3 H 0.327(2) 0.5635(18) 0.8111(11)
H4 H 0.354(2) 0.5856(18) 0.8779(10)
H5 H 0.253(3) 0.395(2) 0.7653(12)
H6 H 0.290(3) 0.539(2) 0.7467(12)
H7 H 0.276(2) 0.5565(18) 0.6739(9)
H8 H 0.250(2) 0.5325(18) 0.6070(10)
H9 H 0.199(2) 0.3356(18) 0.6321(10)
H10 H 0.224(2) 0.3575(16) 0.7002(9)
H11 H 0.182(4) 0.434(3) 0.5128(17)
H12 H 0.253(2) 0.4787(16) 0.5426(9)
H13 H 0.145(3) 0.502(2) 0.5422(11)
H14 H 0.281(4) 0.528(3) 0.9477(15)
H15 H 0.377(2) 0.5616(17) 0.9426(9)
H16 H 0.399(3) 0.479(2) 0.9967(12)
H17 H 0.446(3) 0.4558(18) 0.9584(10)
H18 H 0.365(3) 0.423(2) 0.9681(12)
O34 O 0.0439(2) 0.37362(14) 0.93285(9)
N2 N -0.0230(2) 0.40721(16) 0.60759(9)
C17 C -0.0498(3) 0.34923(19) 0.62362(13)
C18 C -0.0461(3) 0.3428(2) 0.66438(13)
C19 C -0.0131(3) 0.3951(2) 0.69120(13)
C20 C 0.0136(3) 0.4550(2) 0.67368(14)
C21 C 0.0086(3) 0.46080(19) 0.63242(14)
C22 C -0.0113(3) 0.3796(3) 0.73468(16)
H19 H -0.0360 0.3373 0.7416
C23 C 0.0242(3) 0.4235(2) 0.76514(18)
H20 H 0.0481 0.4662 0.7583
C24 C 0.02712(6) 0.40735(5) 0.80863(3)
C25 C 0.06538(6) 0.45799(5) 0.83609(3)
C26 C 0.07246(6) 0.44814(5) 0.87755(3)
C27 C 0.04106(6) 0.38787(5) 0.89184(3)
C28 C 0.00274(6) 0.33721(5) 0.86549(3)
C29 C -0.00398(6) 0.34675(5) 0.82427(3)
C30 C 0.07447(6) 0.42578(5) 0.96161(3)
C31 C -0.02574(6) 0.41299(5) 0.56328(3)
C32 C -0.11837(6) 0.40928(5) 0.53778(3)
H21 H -0.0722 0.3118 0.6061
H22 H -0.0664 0.3010 0.6747
H23 H 0.0355 0.4928 0.6908
H24 H 0.0275 0.5020 0.6212
H25 H 0.0867 0.4995 0.8262
H26 H 0.0989 0.4827 0.8963
H27 H -0.0189 0.2960 0.8756
H28 H -0.0302 0.3116 0.8059
H29 H 0.0731 0.4089 0.9892
H30 H 0.0359 0.4664 0.9557
H31 H 0.1356 0.4384 0.9599
H32 H 0.0106 0.3754 0.5548
H33 H 0.0016 0.4575 0.5578
H34 H -0.1154 0.4132 0.5088
H35 H -0.1544 0.4472 0.5454
H36 H -0.1456 0.3650 0.5426
O35 O 0.17636(6) 0.51287(5) 0.05688(3)
N3 N 0.30091(6) 0.42575(5) 0.38004(3)
C35 C 0.21383(6) 0.43435(5) 0.36107(3)
C36 C 0.19130(6) 0.44737(5) 0.32063(3)
C37 C 0.25368(6) 0.45261(5) 0.29640(3)
C38 C 0.34354(6) 0.44323(5) 0.31634(3)
C39 C 0.36561(6) 0.43012(5) 0.35790(3)
C40 C 0.22437(6) 0.46562(5) 0.25286(3)
H39 H 0.1627 0.4739 0.2433
C41 C 0.2772(3) 0.4672(2) 0.22512(16)
H40 H 0.3393 0.4612 0.2348
C42 C 0.24740(4) 0.47712(3) 0.18192(2)
C43 C 0.31257(4) 0.47922(3) 0.15800(2)
C44 C 0.29194(4) 0.49041(3) 0.11675(2)
C45 C 0.20335(4) 0.49911(3) 0.09739(2)
C46 C 0.13617(4) 0.49403(3) 0.11999(2)
C47 C 0.15684(4) 0.48397(3) 0.16150(2)
C48 C 0.24336(4) 0.51826(3) 0.03256(2)
C49 C 0.32315(4) 0.41518(3) 0.42492(2)
C50 C 0.34977(4) 0.48163(3) 0.44710(2)
H41 H 0.1684 0.4312 0.3768
H42 H 0.1302 0.4532 0.3086
H43 H 0.3894 0.4461 0.3009
H44 H 0.4262 0.4243 0.3708
H45 H 0.3731 0.4727 0.1707
H46 H 0.3379 0.4923 0.1013
H47 H 0.0756 0.4975 0.1066
H48 H 0.1106 0.4816 0.1768
H49 H 0.2153 0.5286 0.0042
H50 H 0.2758 0.4744 0.0336
H51 H 0.2849 0.5554 0.0432
H52 H 0.3726 0.3816 0.4315
H53 H 0.2709 0.3956 0.4343
H54 H 0.3639 0.4729 0.4766
H55 H 0.3006 0.5147 0.4410
H56 H 0.4022 0.5007 0.4382
O36 O 0.30388(4) 0.65488(3) 0.41830(2)
N4 N 0.19158(4) 0.74564(3) 0.09496(2)
C53 C 0.21504(4) 0.68025(3) 0.10719(2)
C54 C 0.23074(4) 0.66251(3) 0.14758(2)
C55 C 0.22458(4) 0.71064(3) 0.17769(2)
C56 C 0.20095(4) 0.77788(3) 0.16440(2)
C57 C 0.18455(4) 0.79351(3) 0.12393(2)
C58 C 0.24051(4) 0.68801(3) 0.22089(2)
C59 C 0.23990(4) 0.72992(3) 0.25219(2)
C60 C 0.25470(4) 0.70908(3) 0.29512(2)
C61 C 0.25293(4) 0.75960(3) 0.32477(2)
C62 C 0.26791(4) 0.74438(3) 0.36583(2)
C63 C 0.28706(4) 0.67595(3) 0.37821(2)
C64 C 0.28819(4) 0.62498(3) 0.34987(2)
C65 C 0.27340(4) 0.64077(3) 0.30863(2)
C66 C 0.30624(4) 0.70751(3) 0.44939(2)
C67 C 0.17448(4) 0.76381(3) 0.05093(2)
C68 C 0.09952(4) 0.72083(3) 0.02682(2)
H59 H 0.2207 0.6462 0.0873
H60 H 0.2462 0.6161 0.1552
H61 H 0.1964 0.8129 0.1839
H62 H 0.1676 0.8393 0.1156
H63 H 0.2519 0.6404 0.2265
H64 H 0.2289 0.7775 0.2463
H65 H 0.2410 0.8061 0.3163
H66 H 0.2653 0.7796 0.3854
H67 H 0.2992 0.5785 0.3586
H68 H 0.2759 0.6052 0.2893
H69 H 0.3186 0.6859 0.4765
H70 H 0.2486 0.7312 0.4453
H71 H 0.3531 0.7411 0.4474
H72 H 0.2293 0.7562 0.0400
H73 H 0.1588 0.8134 0.0477
H74 H 0.0899 0.7340 -0.0021
H75 H 0.0449 0.7290 0.0373
H76 H 0.1153 0.6717 0.0297
O37 O 0.30965(4) 0.26725(3) 0.94267(2)
N5 N 0.17128(4) 0.18056(3) 0.61896(2)
C69 C 0.25867(4) 0.18738(3) 0.63702(2)
C70 C 0.28367(4) 0.19979(3) 0.67692(2)
C71 C 0.22324(4) 0.20680(3) 0.70154(2)
C72 C 0.13042(4) 0.19982(3) 0.68277(2)
C73 C 0.10753(4) 0.18677(3) 0.64177(2)
C74 C 0.25670(4) 0.21995(3) 0.74505(2)
H77 H 0.3187 0.2277 0.7539
C75 C 0.2054(3) 0.2218(2) 0.77275(17)
H78 H 0.1430 0.2166 0.7633
C76 C 0.23766(5) 0.23132(4) 0.81727(3)
C77 C 0.17374(5) 0.23328(4) 0.84099(3)
C78 C 0.19382(5) 0.24478(4) 0.88270(3)
C79 C 0.28192(5) 0.25408(4) 0.90172(3)
C80 C 0.34920(5) 0.24931(4) 0.87901(3)
C81 C 0.32748(5) 0.23803(4) 0.83745(3)
C82 C 0.24395(5) 0.27194(4) 0.96702(3)
C83 C 0.14607(5) 0.16820(4) 0.57455(3)
C84 C 0.12289(5) 0.23505(4) 0.55133(3)
H79 H 0.3029 0.1831 0.6208
H80 H 0.3453 0.2037 0.6884
H81 H 0.0857 0.2042 0.6988
H82 H 0.0466 0.1819 0.6292
H83 H 0.1133 0.2264 0.8282
H84 H 0.1478 0.2463 0.8981
H85 H 0.4098 0.2538 0.8922
H86 H 0.3735 0.2347 0.8221
H87 H 0.2725 0.2813 0.9955
H88 H 0.2111 0.2282 0.9657
H89 H 0.2026 0.3095 0.9569
H90 H 0.0942 0.1366 0.5690
H91 H 0.1961 0.1455 0.5649
H92 H 0.1062 0.2252 0.5220
H93 H 0.1746 0.2660 0.5563
H94 H 0.0728 0.2573 0.5606
O38 O 0.44018(5) 0.63512(4) 0.06233(3)
N6 N 0.52042(5) 0.64205(4) 0.38801(3)
C87 C 0.53930(5) 0.58242(4) 0.37101(3)
C88 C 0.53554(5) 0.57800(4) 0.33013(3)
C89 C 0.51120(5) 0.63438(4) 0.30435(3)
C90 C 0.49353(5) 0.69649(4) 0.32347(3)
C91 C 0.49731(5) 0.69834(4) 0.36471(3)
C92 C 0.50543(5) 0.62599(4) 0.26042(3)
C93 C 0.47793(5) 0.67363(4) 0.23208(3)
C94 C 0.46980(5) 0.66366(4) 0.18765(3)
C95 C 0.44170(5) 0.71939(4) 0.16175(3)
C96 C 0.43046(5) 0.71280(4) 0.11969(3)
C97 C 0.44804(5) 0.64918(4) 0.10332(3)
C98 C 0.47721(5) 0.59390(4) 0.12843(3)
C99 C 0.48715(5) 0.60079(4) 0.17010(3)
C100 C 0.42354(5) 0.69132(4) 0.03420(3)
C101 C 0.52380(5) 0.64573(4) 0.43301(3)
C102 C 0.61478(5) 0.66764(4) 0.45608(3)
H97 H 0.5555 0.5429 0.3878
H98 H 0.5499 0.5354 0.3188
H99 H 0.4789 0.7371 0.3076
H100 H 0.4834 0.7400 0.3771
H101 H 0.5229 0.5826 0.2513
H102 H 0.4623 0.7176 0.2412
H103 H 0.4301 0.7626 0.1732
H104 H 0.4111 0.7510 0.1023
H105 H 0.4904 0.5511 0.1170
H106 H 0.5061 0.5622 0.1872
H107 H 0.4190 0.6739 0.0063
H108 H 0.4726 0.7246 0.0403
H109 H 0.3676 0.7140 0.0367
H110 H 0.5089 0.5998 0.4430
H111 H 0.4786 0.6791 0.4386
H112 H 0.6145 0.6693 0.4854
H113 H 0.6291 0.7135 0.4467
H114 H 0.6595 0.6343 0.4510
O13? O 0.4787(15) 0.5483(10) 0.7411(7)
O14? O 0.3841(14) 0.6399(11) 0.7237(8)
O15? O 0.4671(17) 0.6317(12) 0.7886(6)
O16? O 0.5352(16) 0.6570(13) 0.7347(8)
O29? O 0.4300(11) 0.5279(8) 0.5590(6)
O30? O 0.3166(8) 0.6028(8) 0.5332(5)
O31? O 0.4608(7) 0.6429(5) 0.5484(5)
O32? O 0.3939(17) 0.6110(9) 0.6001(4)
C33? C 0.0113(12) 0.4247(10) 0.7335(7)
H37? H 0.0344 0.4699 0.7392
C34? C -0.00242(6) 0.38221(5) 0.76099(3)
H38? H -0.0285 0.3382 0.7541
C51? C 0.291(2) 0.4602(14) 0.2554(9)
H57? H 0.3520 0.4606 0.2527
C52? C 0.22779(4) 0.46521(3) 0.22891(2)
H58? H 0.1691 0.4626 0.2341
C85? C 0.1867(17) 0.2203(11) 0.7451(8)
H95? H 0.1267 0.2271 0.7478
C86? C 0.25989(5) 0.21955(4) 0.77578(3)
H96? H 0.3187 0.2124 0.7715
loop_
_geom_bond_atom_site_label_1
_geom_bond_atom_site_label_2
_geom_bond_site_symmetry_1
_geom_bond_site_symmetry_2
O1 Cl1 1_555 1_555
Cl1 O2 1_555 1_555
O3 Cl1 1_555 1_555
O4 Cl1 1_555 1_555
Cl2 O5 1_555 1_555
O6 Cl2 1_555 1_555
O7 Cl2 1_555 1_555
O8 Cl2 1_555 1_555
Cl3 O9 1_555 1_555
O10 Cl3 1_555 1_555
O11 Cl3 1_555 1_555
O12 Cl3 1_555 1_555
Cl4 O17 1_555 1_555
O18 Cl4 1_555 1_555
O19 Cl4 1_555 1_555
O20 Cl4 1_555 1_555
Cl5 O21 1_555 1_555
O22 Cl5 1_555 1_555
O23 Cl5 1_555 1_555
O24 Cl5 1_555 1_555
Cl6 O25 1_555 1_555
O26 Cl6 1_555 1_555
O27 Cl6 1_555 1_555
O28 Cl6 1_555 1_555
O33 C11 1_555 1_555
N1 C1 1_555 1_555
C1 C2 1_555 1_555
C2 C3 1_555 1_555
C3 C4 1_555 1_555
C4 C5 1_555 1_555
C5 N1 1_555 1_555
C6 C3 1_555 1_555
C7 C6 1_555 1_555
C8 C7 1_555 1_555
C9 C8 1_555 1_555
C10 C9 1_555 1_555
C11 C10 1_555 1_555
C12 C11 1_555 1_555
C13 C8 1_555 1_555
C14 O33 1_555 1_555
C15 N1 1_555 1_555
C16 C15 1_555 1_555
H1 C1 1_555 1_555
H2 C2 1_555 1_555
H3 C4 1_555 1_555
H4 C5 1_555 1_555
H5 C6 1_555 1_555
H6 C7 1_555 1_555
H7 C9 1_555 1_555
H8 C10 1_555 1_555
H9 C12 1_555 1_555
H10 C13 1_555 1_555
H11 C14 1_555 1_555
H12 C14 1_555 1_555
H13 C14 1_555 1_555
H14 C15 1_555 1_555
H15 C15 1_555 1_555
H16 C16 1_555 1_555
H17 C16 1_555 1_555
H18 C16 1_555 1_555
O34 C27 1_555 1_555
N2 C17 1_555 1_555
C17 C18 1_555 1_555
C18 C19 1_555 1_555
C19 C20 1_555 1_555
C20 C21 1_555 1_555
C21 N2 1_555 1_555
C22 C19 1_555 1_555
H19 C22 1_555 1_555
C23 C22 1_555 1_555
H20 C23 1_555 1_555
C24 C23 1_555 1_555
C25 C24 1_555 1_555
C26 C25 1_555 1_555
C27 C26 1_555 1_555
C28 C27 1_555 1_555
C29 C24 1_555 1_555
C30 O34 1_555 1_555
C31 N2 1_555 1_555
C32 C31 1_555 1_555
H21 C17 1_555 1_555
H22 C18 1_555 1_555
H23 C20 1_555 1_555
H24 C21 1_555 1_555
H25 C25 1_555 1_555
H26 C26 1_555 1_555
H27 C28 1_555 1_555
H28 C29 1_555 1_555
H29 C30 1_555 1_555
H30 C30 1_555 1_555
H31 C30 1_555 1_555
H32 C31 1_555 1_555
H33 C31 1_555 1_555
H34 C32 1_555 1_555
H35 C32 1_555 1_555
H36 C32 1_555 1_555
O35 C45 1_555 1_555
N3 C35 1_555 1_555
C35 C36 1_555 1_555
C36 C37 1_555 1_555
C37 C38 1_555 1_555
C38 C39 1_555 1_555
C39 N3 1_555 1_555
C40 C37 1_555 1_555
H39 C40 1_555 1_555
C41 C40 1_555 1_555
H40 C41 1_555 1_555
C42 C41 1_555 1_555
C43 C42 1_555 1_555
C44 C43 1_555 1_555
C45 C44 1_555 1_555
C46 C45 1_555 1_555
C47 C42 1_555 1_555
C48 O35 1_555 1_555
C49 N3 1_555 1_555
C50 C49 1_555 1_555
H41 C35 1_555 1_555
H42 C36 1_555 1_555
H43 C38 1_555 1_555
H44 C39 1_555 1_555
H45 C43 1_555 1_555
H46 C44 1_555 1_555
H47 C46 1_555 1_555
H48 C47 1_555 1_555
H49 C48 1_555 1_555
H50 C48 1_555 1_555
H51 C48 1_555 1_555
H52 C49 1_555 1_555
H53 C49 1_555 1_555
H54 C50 1_555 1_555
H55 C50 1_555 1_555
H56 C50 1_555 1_555
O36 C63 1_555 1_555
N4 C53 1_555 1_555
C53 C54 1_555 1_555
C54 C55 1_555 1_555
C55 C56 1_555 1_555
C56 C57 1_555 1_555
C57 N4 1_555 1_555
C58 C55 1_555 1_555
C59 C58 1_555 1_555
C60 C59 1_555 1_555
C61 C60 1_555 1_555
C62 C61 1_555 1_555
C63 C62 1_555 1_555
C64 C63 1_555 1_555
C65 C60 1_555 1_555
C66 O36 1_555 1_555
C67 N4 1_555 1_555
C68 C67 1_555 1_555
H59 C53 1_555 1_555
H60 C54 1_555 1_555
H61 C56 1_555 1_555
H62 C57 1_555 1_555
H63 C58 1_555 1_555
H64 C59 1_555 1_555
H65 C61 1_555 1_555
H66 C62 1_555 1_555
H67 C64 1_555 1_555
H68 C65 1_555 1_555
H69 C66 1_555 1_555
H70 C66 1_555 1_555
H71 C66 1_555 1_555
H72 C67 1_555 1_555
H73 C67 1_555 1_555
H74 C68 1_555 1_555
H75 C68 1_555 1_555
H76 C68 1_555 1_555
O37 C79 1_555 1_555
N5 C69 1_555 1_555
C69 C70 1_555 1_555
C70 C71 1_555 1_555
C71 C72 1_555 1_555
C72 C73 1_555 1_555
C73 N5 1_555 1_555
C74 C71 1_555 1_555
H77 C74 1_555 1_555
C75 C74 1_555 1_555
H78 C75 1_555 1_555
C76 C75 1_555 1_555
C77 C76 1_555 1_555
C78 C77 1_555 1_555
C79 C78 1_555 1_555
C80 C79 1_555 1_555
C81 C76 1_555 1_555
C82 O37 1_555 1_555
C83 N5 1_555 1_555
C84 C83 1_555 1_555
H79 C69 1_555 1_555
H80 C70 1_555 1_555
H81 C72 1_555 1_555
H82 C73 1_555 1_555
H83 C77 1_555 1_555
H84 C78 1_555 1_555
H85 C80 1_555 1_555
H86 C81 1_555 1_555
H87 C82 1_555 1_555
H88 C82 1_555 1_555
H89 C82 1_555 1_555
H90 C83 1_555 1_555
H91 C83 1_555 1_555
H92 C84 1_555 1_555
H93 C84 1_555 1_555
H94 C84 1_555 1_555
O38 C97 1_555 1_555
N6 C87 1_555 1_555
C87 C88 1_555 1_555
C88 C89 1_555 1_555
C89 C90 1_555 1_555
C90 C91 1_555 1_555
C91 N6 1_555 1_555
C92 C89 1_555 1_555
C93 C92 1_555 1_555
C94 C93 1_555 1_555
C95 C94 1_555 1_555
C96 C95 1_555 1_555
C97 C96 1_555 1_555
C98 C97 1_555 1_555
C99 C94 1_555 1_555
C100 O38 1_555 1_555
C101 N6 1_555 1_555
C102 C101 1_555 1_555
H97 C87 1_555 1_555
H98 C88 1_555 1_555
H99 C90 1_555 1_555
H100 C91 1_555 1_555
H101 C92 1_555 1_555
H102 C93 1_555 1_555
H103 C95 1_555 1_555
H104 C96 1_555 1_555
H105 C98 1_555 1_555
H106 C99 1_555 1_555
H107 C100 1_555 1_555
H108 C100 1_555 1_555
H109 C100 1_555 1_555
H110 C101 1_555 1_555
H111 C101 1_555 1_555
H112 C102 1_555 1_555
H113 C102 1_555 1_555
H114 C102 1_555 1_555
C12 C13 1_555 1_555
C28 C29 1_555 1_555
C46 C47 1_555 1_555
C64 C65 1_555 1_555
C80 C81 1_555 1_555
C98 C99 1_555 1_555

#END
