
#######################################################################
#
#                 Cambridge Crystallographic Data Centre
#                                CCDC 
#
#######################################################################
#
# If this CIF has been generated from an entry in the Cambridge 
# Structural Database, then it will include bibliographic, chemical, 
# crystal, experimental, refinement or atomic coordinate data resulting 
# from the CCDC's data processing and validation procedures.
#
#######################################################################

data_RODRAF
_chemical_formula_moiety         'C16 H20 Br1 N1 O3'
_chemical_name_systematic        
't-butyl 3a-bromo-7-methyl-2,3,3a,8a-tetrahydro-8H-furo[2,3-b]indole-8-carboxylate'
_symmetry_cell_setting           monoclinic
_symmetry_space_group_name_H-M   'P 21'
_symmetry_Int_Tables_number      4
_space_group_name_Hall           'P 2yb'
loop_
_symmetry_equiv_pos_site_id
_symmetry_equiv_pos_as_xyz
1 x,y,z
2 -x,1/2+y,-z
_cell_length_a                   8.5778(10)
_cell_length_b                   11.0625(13)
_cell_length_c                   8.9963(10)
_cell_angle_alpha                90
_cell_angle_beta                 106.113(2)
_cell_angle_gamma                90
_cell_volume                     820.14
_exptl_crystal_colour            colorless
_exptl_crystal_description       prismatic
_cell_formula_units_Z            2
loop_
_atom_site_label
_atom_site_type_symbol
_atom_site_fract_x
_atom_site_fract_y
_atom_site_fract_z
Br1 Br 0.60889(5) 0.76341(5) 0.33456(5)
N1 N 0.6895(3) 0.6261(3) 0.7196(3)
O1 O 0.8322(4) 0.4925(3) 0.5961(3)
O2 O 0.6617(3) 0.7772(3) 0.8855(3)
O3 O 0.9080(3) 0.7215(2) 0.8630(3)
C1 C 0.5198(4) 0.6041(3) 0.6648(4)
C2 C 0.4134(4) 0.5791(4) 0.7532(4)
C3 C 0.2525(5) 0.5614(4) 0.6697(5)
H1 H 0.1758 0.5481 0.7235
C4 C 0.2021(5) 0.5629(4) 0.5108(5)
H2 H 0.0927 0.5533 0.4597
C5 C 0.3126(5) 0.5786(4) 0.4263(4)
H3 H 0.2796 0.5762 0.3188
C6 C 0.4727(4) 0.5979(3) 0.5052(4)
C7 C 0.6181(4) 0.6098(3) 0.4442(3)
C8 C 0.7618(4) 0.6064(4) 0.5921(4)
H4 H 0.8405 0.6701 0.5898
C9 C 0.7344(6) 0.4177(4) 0.4772(5)
H5 H 0.6563 0.3727 0.5151
H6 H 0.8012 0.3610 0.4399
C10 C 0.6500(5) 0.5034(4) 0.3511(4)
H7 H 0.5497 0.4693 0.2867
H8 H 0.7191 0.5259 0.2866
C11 C 0.4695(5) 0.5628(5) 0.9248(4)
H9 H 0.4708 0.6397 0.9746
H10 H 0.5769 0.5291 0.9534
H11 H 0.3969 0.5091 0.9567
C12 C 0.7469(4) 0.7161(3) 0.8283(4)
C13 C 0.9987(4) 0.8054(3) 0.9846(4)
C14 C 1.1742(5) 0.7750(7) 0.9918(5)
H12 H 1.1943 0.6911 1.0172
H13 H 1.2461 0.8238 1.0696
H14 H 1.1926 0.7909 0.8931
C15 C 0.9671(6) 0.7738(6) 1.1372(4)
H15 H 0.8540 0.7850 1.1292
H16 H 1.0307 0.8255 1.2170
H17 H 0.9964 0.6911 1.1624
C16 C 0.9593(7) 0.9343(4) 0.9380(6)
H18 H 0.9752 0.9480 0.8378
H19 H 1.0292 0.9869 1.0122
H20 H 0.8483 0.9506 0.9340
loop_
_geom_bond_atom_site_label_1
_geom_bond_atom_site_label_2
_geom_bond_site_symmetry_1
_geom_bond_site_symmetry_2
Br1 C7 1_555 1_555
N1 C1 1_555 1_555
O1 C8 1_555 1_555
O2 C12 1_555 1_555
O3 C12 1_555 1_555
C1 C2 1_555 1_555
C2 C3 1_555 1_555
C3 H1 1_555 1_555
C4 C3 1_555 1_555
H2 C4 1_555 1_555
C5 C4 1_555 1_555
H3 C5 1_555 1_555
C6 C1 1_555 1_555
C7 C6 1_555 1_555
C8 N1 1_555 1_555
H4 C8 1_555 1_555
C9 O1 1_555 1_555
H5 C9 1_555 1_555
H6 C9 1_555 1_555
C10 C7 1_555 1_555
H7 C10 1_555 1_555
H8 C10 1_555 1_555
C11 C2 1_555 1_555
H9 C11 1_555 1_555
H10 C11 1_555 1_555
H11 C11 1_555 1_555
C12 N1 1_555 1_555
C13 O3 1_555 1_555
C14 C13 1_555 1_555
H12 C14 1_555 1_555
H13 C14 1_555 1_555
H14 C14 1_555 1_555
C15 C13 1_555 1_555
H15 C15 1_555 1_555
H16 C15 1_555 1_555
H17 C15 1_555 1_555
C16 C13 1_555 1_555
H18 C16 1_555 1_555
H19 C16 1_555 1_555
H20 C16 1_555 1_555
C5 C6 1_555 1_555
C7 C8 1_555 1_555
C9 C10 1_555 1_555

#END
