
#######################################################################
#
#                 Cambridge Crystallographic Data Centre
#                                CCDC 
#
#######################################################################
#
# If this CIF has been generated from an entry in the Cambridge 
# Structural Database, then it will include bibliographic, chemical, 
# crystal, experimental, refinement or atomic coordinate data resulting 
# from the CCDC's data processing and validation procedures.
#
#######################################################################

data_RODZIU
_chemical_formula_moiety         'C8 H10 N2 O3'
_chemical_name_systematic        'Methyl N-(1H-pyrrol-2-ylcarbonyl)glycinate'
_symmetry_cell_setting           monoclinic
_symmetry_space_group_name_H-M   'P 21/n'
_symmetry_Int_Tables_number      14
_space_group_name_Hall           '-P 2yn'
loop_
_symmetry_equiv_pos_site_id
_symmetry_equiv_pos_as_xyz
1 x,y,z
2 1/2-x,1/2+y,1/2-z
3 -x,-y,-z
4 1/2+x,1/2-y,1/2+z
_cell_length_a                   11.3398(19)
_cell_length_b                   5.0732(9)
_cell_length_c                   16.500(3)
_cell_angle_alpha                90
_cell_angle_beta                 108.060(3)
_cell_angle_gamma                90
_cell_volume                     902.463
_exptl_crystal_colour            'light yellow'
_exptl_crystal_description       block
_chemical_melting_point          '420 K'
_cell_formula_units_Z            4
_exptl_crystal_recrystallization_method ethanol
loop_
_atom_site_label
_atom_site_type_symbol
_atom_site_fract_x
_atom_site_fract_y
_atom_site_fract_z
O1 O 0.89632(13) 0.2572(2) 0.45357(8)
O2 O 0.63332(13) 0.2895(3) 0.31013(8)
N1 N 0.85781(14) 0.5697(3) 0.35256(9)
H1 H 0.8777 0.6472 0.3109
O3 O 0.58657(13) 0.4945(3) 0.41547(9)
C1 C 1.06971(17) 0.3350(4) 0.29921(12)
H2 H 1.0414 0.4778 0.2608
N2 N 1.08932(14) 0.0465(3) 0.40331(10)
H3 H 1.0773 -0.0386 0.4466
C2 C 0.92253(15) 0.3607(3) 0.39334(10)
C3 C 0.75496(17) 0.6645(3) 0.37859(12)
H4 H 0.7211 0.8266 0.3464
H5 H 0.7847 0.7099 0.4400
C4 C 0.65395(17) 0.4608(3) 0.36324(11)
C5 C 1.02305(17) 0.2601(3) 0.36367(11)
C6 C 1.17634(18) -0.0142(4) 0.36582(13)
H6 H 1.2344 -0.1546 0.3817
C7 C 1.16634(18) 0.1618(4) 0.30085(13)
H7 H 1.2159 0.1652 0.2638
C8 C 0.4845(3) 0.3088(6) 0.40341(18)
H8 H 0.4282 0.3231 0.3450
H9 H 0.4391 0.3494 0.4437
H10 H 0.5174 0.1290 0.4135
loop_
_geom_bond_atom_site_label_1
_geom_bond_atom_site_label_2
_geom_bond_site_symmetry_1
_geom_bond_site_symmetry_2
O1 C2 1_555 1_555
O2 C4 1_555 1_555
N1 H1 1_555 1_555
O3 C4 1_555 1_555
C1 H2 1_555 1_555
N2 H3 1_555 1_555
C2 N1 1_555 1_555
C3 N1 1_555 1_555
H4 C3 1_555 1_555
H5 C3 1_555 1_555
C4 C3 1_555 1_555
C5 C1 1_555 1_555
C6 N2 1_555 1_555
H6 C6 1_555 1_555
C7 C1 1_555 1_555
H7 C7 1_555 1_555
C8 O3 1_555 1_555
H8 C8 1_555 1_555
H9 C8 1_555 1_555
H10 C8 1_555 1_555
N2 C5 1_555 1_555
C2 C5 1_555 1_555
C6 C7 1_555 1_555

#END
