
#######################################################################
#
#                 Cambridge Crystallographic Data Centre
#                                CCDC 
#
#######################################################################
#
# If this CIF has been generated from an entry in the Cambridge 
# Structural Database, then it will include bibliographic, chemical, 
# crystal, experimental, refinement or atomic coordinate data resulting 
# from the CCDC's data processing and validation procedures.
#
#######################################################################

data_ROFBIX01
_chemical_formula_moiety         'C8 H22 B4 Si2'
_chemical_name_systematic        
closo-1,6-bis(Trimethylsilyl)-1,6-dicarbahexaborane
_symmetry_cell_setting           triclinic
_symmetry_space_group_name_H-M   'P -1'
_symmetry_Int_Tables_number      2
_space_group_name_Hall           '-P 1'
loop_
_symmetry_equiv_pos_site_id
_symmetry_equiv_pos_as_xyz
1 x,y,z
2 -x,-y,-z
_cell_length_a                   6.3489(13)
_cell_length_b                   6.3508(13)
_cell_length_c                   10.899(2)
_cell_angle_alpha                74.542(15)
_cell_angle_beta                 86.997(15)
_cell_angle_gamma                61.219(14)
_cell_volume                     369.731
_exptl_crystal_colour            colorless
_chemical_melting_point          20.5deg.C
_cell_formula_units_Z            1
loop_
_atom_site_label
_atom_site_type_symbol
_atom_site_fract_x
_atom_site_fract_y
_atom_site_fract_z
Si1 Si 0.20618(4) 0.86980(4) 0.76634(2)
C1 C 0.07838(13) 0.94979(14) 0.59921(7)
C2 C -0.0092(2) 0.8191(2) 0.87763(8)
H1 H 0.0514(9) 0.7820(18) 0.96594(10)
H2 H -0.0247(14) 0.6785(12) 0.8672(7)
H3 H -0.1673(5) 0.9703(7) 0.8582(6)
C3 C 0.2417(2) 1.1362(2) 0.78233(9)
H4 H 0.3534(14) 1.1604(12) 0.7220(7)
H5 H 0.3060(17) 1.0999(8) 0.8697(3)
H6 H 0.0844(3) 1.2885(4) 0.7636(10)
C4 C 0.5053(2) 0.5800(2) 0.79504(9)
H7 H 0.6118(6) 0.6063(6) 0.7317(6)
H8 H 0.4838(3) 0.4411(5) 0.7874(9)
H9 H 0.5773(8) 0.5404(10) 0.8811(4)
B1 B -0.1200(3) 1.2105(2) 0.50233(12)
H10 H -0.2395(46) 1.3983(47) 0.4998(28)
B2 B 0.1560(3) 1.0422(4) 0.45954(10)
H11 H 0.2904(47) 1.0776(47) 0.4247(27)
C1A C -0.07838(13) 1.05021(14) 0.40079(7)
Si1A Si -0.20618(4) 1.13020(4) 0.23366(2)
C2A C 0.0092(2) 1.1809(2) 0.12237(8)
H1A H -0.0514(9) 1.2180(18) 0.03406(10)
H2A H 0.0247(14) 1.3215(12) 0.1328(7)
H3A H 0.1673(5) 1.0297(7) 0.1418(6)
C3A C -0.2417(2) 0.8638(2) 0.21767(9)
H4A H -0.3534(14) 0.8396(12) 0.2780(7)
H5A H -0.3060(17) 0.9001(8) 0.1303(3)
H6A H -0.0844(3) 0.7115(4) 0.2364(10)
C4A C -0.5053(2) 1.4200(2) 0.20496(9)
H7A H -0.6118(6) 1.3937(6) 0.2683(6)
H8A H -0.4838(3) 1.5589(5) 0.2126(9)
H9A H -0.5773(8) 1.4596(10) 0.1189(4)
B1A B 0.1200(3) 0.7895(2) 0.49767(12)
B2A B -0.1560(3) 0.9578(4) 0.54046(10)
H10A H 0.2395(46) 0.6017(47) 0.5002(28)
H11A H -0.2904(47) 0.9224(47) 0.5753(27)
loop_
_geom_bond_atom_site_label_1
_geom_bond_atom_site_label_2
_geom_bond_site_symmetry_1
_geom_bond_site_symmetry_2
Si1 C1 1_555 1_555
C1 B1 1_555 1_555
C2 Si1 1_555 1_555
H1 C2 1_555 1_555
H2 C2 1_555 1_555
H3 C2 1_555 1_555
C3 Si1 1_555 1_555
H4 C3 1_555 1_555
H5 C3 1_555 1_555
H6 C3 1_555 1_555
C4 Si1 1_555 1_555
H7 C4 1_555 1_555
H8 C4 1_555 1_555
H9 C4 1_555 1_555
B1 H10 1_555 1_555
B2 C1 1_555 1_555
H11 B2 1_555 1_555
C1A B1 1_555 1_555
Si1A C1A 1_555 1_555
C2A Si1A 1_555 1_555
H1A C2A 1_555 1_555
H2A C2A 1_555 1_555
H3A C2A 1_555 1_555
C3A Si1A 1_555 1_555
H4A C3A 1_555 1_555
H5A C3A 1_555 1_555
H6A C3A 1_555 1_555
C4A Si1A 1_555 1_555
H7A C4A 1_555 1_555
H8A C4A 1_555 1_555
H9A C4A 1_555 1_555
B1A C1 1_555 1_555
B2A C1 1_555 1_555
H10A B1A 1_555 1_555
H11A B2A 1_555 1_555
B1 B2 1_555 1_555
B1 B2A 1_555 1_555
B2 C1A 1_555 1_555
B2 B1A 1_555 1_555
C1A B1A 1_555 1_555
C1A B2A 1_555 1_555
B1A B2A 1_555 1_555

#END
