
#######################################################################
#
#                 Cambridge Crystallographic Data Centre
#                                CCDC 
#
#######################################################################
#
# If this CIF has been generated from an entry in the Cambridge 
# Structural Database, then it will include bibliographic, chemical, 
# crystal, experimental, refinement or atomic coordinate data resulting 
# from the CCDC's data processing and validation procedures.
#
#######################################################################

data_ROFDOG
_chemical_formula_moiety         'C21 H21 N3 O4 S1'
_chemical_name_systematic        
3-(Cyclohexylsulfanyl)-2-(4-methylphenyl)-5,7-dinitro-1H-indole
_symmetry_cell_setting           triclinic
_symmetry_space_group_name_H-M   'P -1'
_symmetry_Int_Tables_number      2
_space_group_name_Hall           '-P 1'
loop_
_symmetry_equiv_pos_site_id
_symmetry_equiv_pos_as_xyz
1 x,y,z
2 -x,-y,-z
_cell_length_a                   6.1009(3)
_cell_length_b                   8.5237(4)
_cell_length_c                   19.1522(10)
_cell_angle_alpha                83.551(3)
_cell_angle_beta                 84.184(3)
_cell_angle_gamma                81.157(2)
_cell_volume                     974.3
_exptl_crystal_colour            colorless
_exptl_crystal_description       Block
_cell_formula_units_Z            2
_exptl_crystal_recrystallization_method dichloromethane
loop_
_atom_site_label
_atom_site_type_symbol
_atom_site_fract_x
_atom_site_fract_y
_atom_site_fract_z
S1 S 0.37693(9) 0.57116(6) 0.32294(3)
O1 O -0.1393(3) 0.6217(2) 0.03507(9)
O2 O -0.4543(3) 0.7672(3) 0.05530(10)
O3 O -0.6221(3) 1.0174(3) 0.26759(12)
O4 O -0.3829(4) 0.9921(3) 0.34373(11)
N1 N 0.1558(3) 0.5458(2) 0.13764(10)
H1 H 0.157(4) 0.513(3) 0.0989(13)
C1 C -0.0106(3) 0.6496(2) 0.16537(10)
C2 C -0.2102(3) 0.7282(2) 0.14075(10)
C3 C -0.3508(3) 0.8295(2) 0.18166(12)
H2 H -0.4843 0.8820 0.1657
C4 C -0.2909(4) 0.8521(2) 0.24679(11)
C5 C -0.0973(4) 0.7772(2) 0.27392(11)
H3 H -0.0619 0.7956 0.3181
C6 C 0.0435(3) 0.6731(2) 0.23291(11)
C7 C 0.2509(3) 0.5755(2) 0.24487(11)
C8 C 0.3180(3) 0.4986(2) 0.18474(10)
N2 N -0.2723(3) 0.7050(2) 0.07243(10)
N3 N -0.4432(4) 0.9614(2) 0.28929(11)
C9 C 0.3142(3) 0.3850(2) 0.37195(10)
H4 H 0.4020 0.2959 0.3489
C10 C 0.0732(4) 0.3632(3) 0.37755(15)
H5 H 0.0268 0.3586 0.3309
H6 H -0.0175 0.4531 0.3981
C11 C 0.0406(5) 0.2098(3) 0.42342(17)
H7 H -0.1161 0.1982 0.4283
H8 H 0.1219 0.1197 0.4007
C12 C 0.1201(6) 0.2090(4) 0.49543(16)
H9 H 0.0299 0.2933 0.5199
H10 H 0.1024 0.1080 0.5227
C13 C 0.3607(6) 0.2331(4) 0.49010(16)
H11 H 0.4528 0.1429 0.4703
H12 H 0.4052 0.2390 0.5368
C14 C 0.3957(5) 0.3857(3) 0.44377(13)
H13 H 0.3161 0.4768 0.4662
H14 H 0.5528 0.3959 0.4385
C15 C 0.5160(3) 0.3879(2) 0.16483(11)
C16 C 0.6844(4) 0.3372(3) 0.20963(12)
H15 H 0.6706 0.3738 0.2540
C17 C 0.8705(4) 0.2343(3) 0.18971(13)
H16 H 0.9801 0.2029 0.2209
C18 C 0.8985(3) 0.1762(3) 0.12438(13)
C19 C 0.7331(4) 0.2260(3) 0.07958(14)
H17 H 0.7480 0.1890 0.0352
C20 C 0.5454(4) 0.3299(3) 0.09918(12)
H18 H 0.4367 0.3615 0.0677
C21 C 1.1020(4) 0.0629(3) 0.10306(16)
H19 H 1.0768 0.0150 0.0621
H20 H 1.1321 -0.0188 0.1410
H21 H 1.2269 0.1202 0.0924
loop_
_geom_bond_atom_site_label_1
_geom_bond_atom_site_label_2
_geom_bond_site_symmetry_1
_geom_bond_site_symmetry_2
S1 C7 1_555 1_555
O1 N2 1_555 1_555
O2 N2 1_555 1_555
O3 N3 1_555 1_555
O4 N3 1_555 1_555
N1 H1 1_555 1_555
C1 N1 1_555 1_555
C2 C1 1_555 1_555
C3 C2 1_555 1_555
H2 C3 1_555 1_555
C4 C3 1_555 1_555
C5 C4 1_555 1_555
H3 C5 1_555 1_555
C6 C1 1_555 1_555
C7 C6 1_555 1_555
C8 N1 1_555 1_555
N2 C2 1_555 1_555
N3 C4 1_555 1_555
C9 S1 1_555 1_555
H4 C9 1_555 1_555
C10 C9 1_555 1_555
H5 C10 1_555 1_555
H6 C10 1_555 1_555
C11 C10 1_555 1_555
H7 C11 1_555 1_555
H8 C11 1_555 1_555
C12 C11 1_555 1_555
H9 C12 1_555 1_555
H10 C12 1_555 1_555
C13 C12 1_555 1_555
H11 C13 1_555 1_555
H12 C13 1_555 1_555
C14 C9 1_555 1_555
H13 C14 1_555 1_555
H14 C14 1_555 1_555
C15 C8 1_555 1_555
C16 C15 1_555 1_555
H15 C16 1_555 1_555
C17 C16 1_555 1_555
H16 C17 1_555 1_555
C18 C17 1_555 1_555
C19 C18 1_555 1_555
H17 C19 1_555 1_555
C20 C15 1_555 1_555
H18 C20 1_555 1_555
C21 C18 1_555 1_555
H19 C21 1_555 1_555
H20 C21 1_555 1_555
H21 C21 1_555 1_555
C5 C6 1_555 1_555
C7 C8 1_555 1_555
C13 C14 1_555 1_555
C19 C20 1_555 1_555

#END
