
#######################################################################
#
#                 Cambridge Crystallographic Data Centre
#                                CCDC 
#
#######################################################################
#
# If this CIF has been generated from an entry in the Cambridge 
# Structural Database, then it will include bibliographic, chemical, 
# crystal, experimental, refinement or atomic coordinate data resulting 
# from the CCDC's data processing and validation procedures.
#
#######################################################################

data_ROFDAS
_chemical_formula_moiety         'C15 H13 F1 N2 O1'
_chemical_name_systematic        5-(3-fluorophenyl)-1-phenyl-3-pyrazolidinone
_symmetry_cell_setting           monoclinic
_symmetry_space_group_name_H-M   'P 21/c'
_symmetry_Int_Tables_number      14
_space_group_name_Hall           '-P 2ybc'
loop_
_symmetry_equiv_pos_site_id
_symmetry_equiv_pos_as_xyz
1 x,y,z
2 -x,1/2+y,1/2-z
3 -x,-y,-z
4 x,1/2-y,1/2+z
_cell_length_a                   10.265(2)
_cell_length_b                   7.3130(15)
_cell_length_c                   17.822(4)
_cell_angle_alpha                90
_cell_angle_beta                 92.39(3)
_cell_angle_gamma                90
_cell_volume                     1336.7
_exptl_crystal_colour            colorless
_exptl_crystal_description       needle
_cell_formula_units_Z            4
_exptl_crystal_recrystallization_method 'ethyl acetate'
loop_
_atom_site_label
_atom_site_type_symbol
_atom_site_fract_x
_atom_site_fract_y
_atom_site_fract_z
O1 O 0.0023(3) 0.2565(4) 0.22989(17)
F1 F 0.2688(3) 0.7468(5) 0.56248(19)
N1 N 0.2364(3) 0.0858(4) 0.35618(19)
C1 C 0.2186(8) 0.5785(10) 0.5378(4)
N2 N 0.1332(3) 0.0777(4) 0.3021(2)
H1 H 0.0965 -0.0235 0.2886
C2 C 0.1419(7) 0.4819(12) 0.5800(4)
H2 H 0.1174 0.5252 0.6264
C3 C 0.0997(6) 0.3176(11) 0.5537(3)
H3 H 0.0426 0.2492 0.5816
C4 C 0.1399(5) 0.2505(7) 0.4868(3)
H4 H 0.1112 0.1361 0.4704
C5 C 0.2215(4) 0.3492(6) 0.4436(2)
C6 C 0.2666(6) 0.5199(7) 0.4691(3)
H5 H 0.3245 0.5898 0.4424
C7 C 0.2639(4) 0.2853(5) 0.3683(2)
H6 H 0.3576 0.3073 0.3647
C8 C 0.1895(4) 0.3791(5) 0.3012(2)
H7 H 0.1435 0.4870 0.3174
H8 H 0.2487 0.4137 0.2626
C9 C 0.0967(4) 0.2358(5) 0.2735(2)
C10 C 0.3413(3) -0.0333(5) 0.3443(2)
C11 C 0.4505(4) -0.0252(6) 0.3943(2)
H9 H 0.4529 0.0611 0.4327
C12 C 0.5555(4) -0.1441(7) 0.3875(3)
H10 H 0.6282 -0.1359 0.4203
C13 C 0.5499(5) -0.2750(6) 0.3310(3)
H11 H 0.6185 -0.3569 0.3265
C14 C 0.4453(4) -0.2840(6) 0.2825(3)
H12 H 0.4430 -0.3718 0.2447
C15 C 0.3405(4) -0.1633(5) 0.2880(2)
H13 H 0.2699 -0.1706 0.2537
loop_
_geom_bond_atom_site_label_1
_geom_bond_atom_site_label_2
_geom_bond_site_symmetry_1
_geom_bond_site_symmetry_2
O1 C9 1_555 1_555
F1 C1 1_555 1_555
N1 N2 1_555 1_555
C1 C2 1_555 1_555
N2 H1 1_555 1_555
C2 H2 1_555 1_555
C3 C2 1_555 1_555
H3 C3 1_555 1_555
C4 C3 1_555 1_555
H4 C4 1_555 1_555
C5 C4 1_555 1_555
C6 C1 1_555 1_555
H5 C6 1_555 1_555
C7 N1 1_555 1_555
H6 C7 1_555 1_555
C8 C7 1_555 1_555
H7 C8 1_555 1_555
H8 C8 1_555 1_555
C9 N2 1_555 1_555
C10 N1 1_555 1_555
C11 C10 1_555 1_555
H9 C11 1_555 1_555
C12 C11 1_555 1_555
H10 C12 1_555 1_555
C13 C12 1_555 1_555
H11 C13 1_555 1_555
C14 C13 1_555 1_555
H12 C14 1_555 1_555
C15 C10 1_555 1_555
H13 C15 1_555 1_555
C5 C6 1_555 1_555
C5 C7 1_555 1_555
C8 C9 1_555 1_555
C14 C15 1_555 1_555

#END
