
#######################################################################
#
#                 Cambridge Crystallographic Data Centre
#                                CCDC 
#
#######################################################################
#
# If this CIF has been generated from an entry in the Cambridge 
# Structural Database, then it will include bibliographic, chemical, 
# crystal, experimental, refinement or atomic coordinate data resulting 
# from the CCDC's data processing and validation procedures.
#
#######################################################################

data_ROFGUO
_chemical_formula_moiety         'C8 H6 Cl1 F3 N2'
_chemical_name_systematic        
5-Chloro-2-(trifluoromethyl)-2,3-dihydrobenzimidazole
_chemical_properties_biological  'potential herbicidal activity'
_symmetry_cell_setting           monoclinic
_symmetry_space_group_name_H-M   'P 21/n'
_symmetry_Int_Tables_number      14
_space_group_name_Hall           '-P 2yn'
loop_
_symmetry_equiv_pos_site_id
_symmetry_equiv_pos_as_xyz
1 x,y,z
2 1/2-x,1/2+y,1/2-z
3 -x,-y,-z
4 1/2+x,1/2-y,1/2+z
_cell_length_a                   13.102(2)
_cell_length_b                   8.934(2)
_cell_length_c                   15.071(1)
_cell_angle_alpha                90
_cell_angle_beta                 90.388(9)
_cell_angle_gamma                90
_cell_volume                     1764.07
_exptl_crystal_colour            colorless
_chemical_melting_point          71-72deg.C
_cell_formula_units_Z            8
loop_
_atom_site_label
_atom_site_type_symbol
_atom_site_fract_x
_atom_site_fract_y
_atom_site_fract_z
Cl1 Cl 0.0336(1) 0.2915(2) 0.7687(1)
F1 F 0.3212(2) 0.3035(4) 1.1468(2)
F2 F 0.2722(2) 0.3731(5) 1.2744(2)
F3 F 0.3504(2) 0.5262(4) 1.1886(2)
N1 N 0.1087(3) 0.3442(5) 1.1506(3)
N2 N 0.1949(3) 0.5087(5) 1.0588(3)
C1 C 0.1810(4) 0.4681(6) 1.1518(4)
C2 C 0.1146(3) 0.4111(6) 0.9174(3)
C3 C 0.0481(3) 0.3022(5) 0.8843(3)
C4 C -0.0034(4) 0.2048(6) 0.9371(3)
C5 C 0.0106(4) 0.2110(6) 1.0288(3)
C6 C 0.0767(3) 0.3146(6) 1.0624(3)
C7 C 0.1295(3) 0.4167(5) 1.0086(3)
C8 C 0.2828(4) 0.4196(7) 1.1910(4)
Cl2 Cl 0.2424(1) 0.0039(2) 0.9957(1)
F4 F 0.6744(2) -0.2803(3) 1.3119(2)
F5 F 0.5541(2) -0.4123(3) 1.2562(2)
F6 F 0.7090(2) -0.4711(3) 1.2313(2)
N3 N 0.6130(3) -0.3371(5) 1.0810(3)
N4 N 0.5709(3) -0.1391(4) 1.1729(3)
C9 C 0.6466(3) -0.2567(5) 1.1590(3)
C10 C 0.4130(3) -0.0644(5) 1.0880(3)
C11 C 0.3519(3) -0.1033(5) 1.0158(3)
C12 C 0.3765(4) -0.2210(6) 0.9607(3)
C13 C 0.4635(4) -0.3053(5) 0.9768(3)
C14 C 0.5232(3) -0.2690(5) 1.0485(3)
C15 C 0.4984(3) -0.1501(5) 1.1032(3)
C16 C 0.6451(4) -0.3569(5) 1.2396(3)
loop_
_geom_bond_atom_site_label_1
_geom_bond_atom_site_label_2
_geom_bond_site_symmetry_1
_geom_bond_site_symmetry_2
Cl1 C3 1_555 1_555
F1 C8 1_555 1_555
F2 C8 1_555 1_555
F3 C8 1_555 1_555
N1 C1 1_555 1_555
N2 C1 1_555 1_555
C1 C8 1_555 1_555
C2 C3 1_555 1_555
C3 C4 1_555 1_555
C4 C5 1_555 1_555
C5 C6 1_555 1_555
C6 N1 1_555 1_555
C7 N2 1_555 1_555
Cl2 C11 1_555 1_555
F4 C16 1_555 1_555
F5 C16 1_555 1_555
F6 C16 1_555 1_555
N3 C9 1_555 1_555
N4 C9 1_555 1_555
C9 C16 1_555 1_555
C10 C11 1_555 1_555
C11 C12 1_555 1_555
C12 C13 1_555 1_555
C13 C14 1_555 1_555
C14 N3 1_555 1_555
C15 N4 1_555 1_555
C2 C7 1_555 1_555
C6 C7 1_555 1_555
C10 C15 1_555 1_555
C14 C15 1_555 1_555

#END
