
#######################################################################
#
#                 Cambridge Crystallographic Data Centre
#                                CCDC 
#
#######################################################################
#
# If this CIF has been generated from an entry in the Cambridge 
# Structural Database, then it will include bibliographic, chemical, 
# crystal, experimental, refinement or atomic coordinate data resulting 
# from the CCDC's data processing and validation procedures.
#
#######################################################################

data_ROFLAA
_chemical_formula_moiety         'C16 H18 N2 O8 S1'
_chemical_name_systematic        
'Methyl 5-(bis(2-methoxy-2-oxoethyl)amino)-4-cyano-3-(2-methoxy-2-oxoethyl)-2-thiophenecarboxylate'
_symmetry_cell_setting           triclinic
_symmetry_space_group_name_H-M   'P -1'
_symmetry_Int_Tables_number      2
_space_group_name_Hall           '-P 1'
loop_
_symmetry_equiv_pos_site_id
_symmetry_equiv_pos_as_xyz
1 x,y,z
2 -x,-y,-z
_cell_length_a                   9.7164(19)
_cell_length_b                   9.790(2)
_cell_length_c                   10.170(2)
_cell_angle_alpha                98.05(3)
_cell_angle_beta                 96.71(3)
_cell_angle_gamma                95.81(3)
_cell_volume                     944.487
_exptl_crystal_colour            colorless
_exptl_crystal_description       prism
_cell_formula_units_Z            2
loop_
_atom_site_label
_atom_site_type_symbol
_atom_site_fract_x
_atom_site_fract_y
_atom_site_fract_z
C1 C 0.0925(5) 0.8277(4) 0.4871(3)
H1 H 0.165(3) 0.894(3) 0.4933(6)
H2 H 0.116(3) 0.7635(17) 0.5387(14)
H3 H 0.018(2) 0.866(3) 0.5154(12)
C2 C 0.0887(2) 0.8372(2) 0.2560(2)
C3 C 0.03705(19) 0.7542(2) 0.11943(19)
H4 H 0.0661 0.6620 0.1164
H5 H -0.0642 0.7441 0.1059
C4 C -0.01502(19) 0.8243(2) -0.1025(2)
H6 H 0.0231 0.8874 -0.1582
H7 H -0.0962 0.8606 -0.0702
C5 C -0.0589(2) 0.6829(2) -0.1857(2)
C6 C -0.2176(5) 0.5578(4) -0.3673(4)
H8 H -0.2891 0.5740 -0.4348
H9 H -0.2567 0.4957 -0.3126
H10 H -0.1448 0.5171 -0.4094
C7 C 0.22416(18) 0.80692(18) -0.00849(18)
C8 C 0.30195(18) 0.86329(19) -0.09923(18)
C9 C 0.2567(2) 0.9617(2) -0.18082(19)
C10 C 0.43987(18) 0.82416(19) -0.09451(18)
C11 C 0.5374(2) 0.8694(2) -0.18941(19)
H11 H 0.5404 0.9690 -0.1876
H12 H 0.6307 0.8498 -0.1592
C12 C 0.4935(2) 0.7974(2) -0.3310(2)
C13 C 0.5241(4) 0.8027(4) -0.5571(3)
H13 H 0.5736 0.8606 -0.6092
H14 H 0.4257 0.7956 -0.5864
H15 H 0.5541 0.7119 -0.5686
C14 C 0.46807(18) 0.7442(2) 0.00257(18)
C15 C 0.59750(19) 0.6869(2) 0.04245(19)
C16 C 0.7100(2) 0.5700(2) 0.2060(2)
H16 H 0.6891 0.5245 0.2802
H17 H 0.7815 0.6466 0.2366
H18 H 0.7418 0.5053 0.1396
O1 O 0.0564(2) 0.76176(18) 0.34904(16)
O2 O 0.1471(2) 0.95261(18) 0.27677(18)
O3 O -0.0096(2) 0.57999(18) -0.1647(2)
O4 O -0.15997(19) 0.68911(18) -0.28405(17)
O5 O 0.4141(3) 0.6943(2) -0.3638(2)
O6 O 0.5525(2) 0.8633(2) -0.41698(17)
O7 O 0.70142(14) 0.69773(18) -0.01103(16)
O8 O 0.58547(14) 0.62078(16) 0.14789(15)
N1 N 0.08891(15) 0.81812(17) 0.01103(16)
N2 N 0.2253(2) 1.0438(2) -0.2444(2)
S1 S 0.32536(5) 0.71175(5) 0.08736(5)
loop_
_geom_bond_atom_site_label_1
_geom_bond_atom_site_label_2
_geom_bond_site_symmetry_1
_geom_bond_site_symmetry_2
C1 H1 1_555 1_555
H2 C1 1_555 1_555
H3 C1 1_555 1_555
C2 C3 1_555 1_555
C3 H4 1_555 1_555
H5 C3 1_555 1_555
C4 H6 1_555 1_555
H7 C4 1_555 1_555
C5 C4 1_555 1_555
C6 H8 1_555 1_555
H9 C6 1_555 1_555
H10 C6 1_555 1_555
C7 C8 1_555 1_555
C8 C9 1_555 1_555
C9 N2 1_555 1_555
C10 C8 1_555 1_555
C11 C10 1_555 1_555
H11 C11 1_555 1_555
H12 C11 1_555 1_555
C12 C11 1_555 1_555
C13 H13 1_555 1_555
H14 C13 1_555 1_555
H15 C13 1_555 1_555
C14 C10 1_555 1_555
C15 C14 1_555 1_555
C16 H16 1_555 1_555
H17 C16 1_555 1_555
H18 C16 1_555 1_555
O1 C1 1_555 1_555
O2 C2 1_555 1_555
O3 C5 1_555 1_555
O4 C5 1_555 1_555
O5 C12 1_555 1_555
O6 C12 1_555 1_555
O7 C15 1_555 1_555
O8 C15 1_555 1_555
N1 C3 1_555 1_555
S1 C7 1_555 1_555
C2 O1 1_555 1_555
C4 N1 1_555 1_555
C6 O4 1_555 1_555
C7 N1 1_555 1_555
C13 O6 1_555 1_555
C14 S1 1_555 1_555
C16 O8 1_555 1_555

#END
