
#######################################################################
#
#                 Cambridge Crystallographic Data Centre
#                                CCDC 
#
#######################################################################
#
# If this CIF has been generated from an entry in the Cambridge 
# Structural Database, then it will include bibliographic, chemical, 
# crystal, experimental, refinement or atomic coordinate data resulting 
# from the CCDC's data processing and validation procedures.
#
#######################################################################

data_ROFLEE
_chemical_formula_moiety         'C11 H12 Cl1 N5 O1'
_chemical_name_systematic        
2-(2-Chloro-4-pyrimidinyl)-2,5,6,7,8,9-hexahydro-3H-(1,2,4)-triazolo(4,3-a)azepin-3-one
_symmetry_cell_setting           monoclinic
_symmetry_space_group_name_H-M   'P 21/n'
_symmetry_Int_Tables_number      14
_space_group_name_Hall           '-P 2yn'
loop_
_symmetry_equiv_pos_site_id
_symmetry_equiv_pos_as_xyz
1 x,y,z
2 1/2-x,1/2+y,1/2-z
3 -x,-y,-z
4 1/2+x,1/2-y,1/2+z
_cell_length_a                   8.6810(16)
_cell_length_b                   14.718(3)
_cell_length_c                   9.4251(17)
_cell_angle_alpha                90
_cell_angle_beta                 92.359(3)
_cell_angle_gamma                90
_cell_volume                     1203.2
_exptl_crystal_colour            colorless
_exptl_crystal_description       prism
_cell_formula_units_Z            4
_exptl_crystal_recrystallization_method 'ethyl acetate'
loop_
_atom_site_label
_atom_site_type_symbol
_atom_site_fract_x
_atom_site_fract_y
_atom_site_fract_z
Cl1 Cl 1.10477(10) 0.59079(6) 0.12418(10)
O1 O 0.6140(2) 0.37929(13) 0.5659(2)
N1 N 0.7797(2) 0.25640(15) 0.5395(2)
N2 N 0.8353(3) 0.38014(15) 0.4293(2)
N3 N 0.9482(3) 0.31650(15) 0.3968(2)
N4 N 0.9548(3) 0.48516(15) 0.2886(2)
N5 N 0.8656(3) 0.63806(16) 0.2619(3)
C1 C 0.9097(3) 0.24464(18) 0.4640(3)
C2 C 0.9975(4) 0.1581(2) 0.4627(3)
H1 H 1.0848 0.1655 0.4028
H2 H 0.9318 0.1111 0.4206
C3 C 1.0563(3) 0.1263(2) 0.6091(3)
H3 H 1.1356 0.0808 0.5974
H4 H 1.1035 0.1775 0.6591
C4 C 0.9327(4) 0.0867(2) 0.6996(3)
H5 H 0.9824 0.0608 0.7844
H6 H 0.8829 0.0373 0.6472
C5 C 0.8092(4) 0.1522(2) 0.7447(3)
H7 H 0.7464 0.1216 0.8127
H8 H 0.8593 0.2029 0.7933
C6 C 0.7045(3) 0.18922(19) 0.6280(3)
H9 H 0.6676 0.1394 0.5684
H10 H 0.6157 0.2171 0.6696
C7 C 0.7269(3) 0.34300(19) 0.5188(3)
C8 C 0.8418(3) 0.46838(18) 0.3766(3)
C9 C 0.7356(3) 0.53480(18) 0.4117(3)
H11 H 0.6562 0.5230 0.4723
C10 C 0.7550(4) 0.6178(2) 0.3520(3)
H12 H 0.6869 0.6637 0.3752
C11 C 0.9571(3) 0.5687(2) 0.2385(3)
loop_
_geom_bond_atom_site_label_1
_geom_bond_atom_site_label_2
_geom_bond_site_symmetry_1
_geom_bond_site_symmetry_2
Cl1 C11 1_555 1_555
O1 C7 1_555 1_555
N1 C1 1_555 1_555
N2 N3 1_555 1_555
N3 C1 1_555 1_555
N4 C8 1_555 1_555
N5 C10 1_555 1_555
C1 C2 1_555 1_555
C2 H1 1_555 1_555
H2 C2 1_555 1_555
C3 C2 1_555 1_555
H3 C3 1_555 1_555
H4 C3 1_555 1_555
C4 C3 1_555 1_555
H5 C4 1_555 1_555
H6 C4 1_555 1_555
C5 C4 1_555 1_555
H7 C5 1_555 1_555
H8 C5 1_555 1_555
C6 N1 1_555 1_555
H9 C6 1_555 1_555
H10 C6 1_555 1_555
C7 N1 1_555 1_555
C8 N2 1_555 1_555
C9 C8 1_555 1_555
H11 C9 1_555 1_555
C10 C9 1_555 1_555
H12 C10 1_555 1_555
C11 N4 1_555 1_555
N2 C7 1_555 1_555
N5 C11 1_555 1_555
C5 C6 1_555 1_555

#END
