
#######################################################################
#
#                 Cambridge Crystallographic Data Centre
#                                CCDC 
#
#######################################################################
#
# If this CIF has been generated from an entry in the Cambridge 
# Structural Database, then it will include bibliographic, chemical, 
# crystal, experimental, refinement or atomic coordinate data resulting 
# from the CCDC's data processing and validation procedures.
#
#######################################################################

data_ROGKII
_chemical_formula_moiety         'C51 H45 N9 O3'
_chemical_name_systematic        
1,3,5-Tris((3-(1H-benzotriazol-1-ylmethyl)phenoxy)methyl)-2,4,6-trimethylbenzene
_symmetry_cell_setting           triclinic
_symmetry_space_group_name_H-M   'P -1'
_symmetry_Int_Tables_number      2
_space_group_name_Hall           '-P 1'
loop_
_symmetry_equiv_pos_site_id
_symmetry_equiv_pos_as_xyz
1 x,y,z
2 -x,-y,-z
_cell_length_a                   11.945(3)
_cell_length_b                   13.524(3)
_cell_length_c                   13.550(3)
_cell_angle_alpha                83.913(4)
_cell_angle_beta                 80.629(4)
_cell_angle_gamma                84.766(4)
_cell_volume                     2141.42
_exptl_crystal_colour            colorless
_exptl_crystal_description       block
_chemical_melting_point          '573 K'
_cell_formula_units_Z            2
_exptl_crystal_recrystallization_method 'dichloromethane/petroleum ether'
loop_
_atom_site_label
_atom_site_type_symbol
_atom_site_fract_x
_atom_site_fract_y
_atom_site_fract_z
N1 N 0.8300(6) 1.4682(5) 0.5035(4)
N2 N 0.9689(5) 1.3866(4) 0.5597(4)
N3 N 0.8893(7) 1.4545(5) 0.5804(4)
C1 C 0.9686(4) 1.3515(3) 0.4672(3)
C2 C 1.0378(4) 1.2814(4) 0.4112(4)
H1 H 1.1005 1.2456 0.4338
C3 C 1.0059(5) 1.2696(4) 0.3202(4)
H2 H 1.0463 1.2209 0.2823
C4 C 0.9172(5) 1.3259(5) 0.2818(4)
H3 H 0.9030 1.3169 0.2180
C5 C 0.8493(5) 1.3958(5) 0.3379(4)
H4 H 0.7888 1.4332 0.3133
C6 C 0.8757(4) 1.4072(4) 0.4326(3)
C7 C 0.7351(8) 1.5351(7) 0.5177(6)
H5 H 0.7104 1.5556 0.4534
H6 H 0.7558 1.5940 0.5436
C8 C 0.8340(3) 0.2950(3) 0.9635(4)
O1 O 0.52998(17) 0.80350(16) 0.79301(16)
O2 O 0.50213(17) 1.26023(15) 0.64934(17)
O3 O 0.22369(16) 0.99186(17) 0.46236(15)
N7 N 0.8768(4) 0.3362(4) 1.0342(3)
N8 N 0.8791(3) 0.4321(4) 1.0098(3)
N9 N 0.8385(2) 0.4531(2) 0.9210(3)
N10 N -0.1788(3) 0.9250(3) 0.0660(2)
N11 N -0.1573(2) 0.9894(2) 0.1239(2)
N12 N -0.1164(2) 0.9398(2) 0.20454(19)
C16 C 0.8185(5) 0.1936(4) 0.9601(5)
H13 H 0.8392 0.1431 1.0073
C17 C 0.7706(5) 0.1785(5) 0.8811(7)
H14 H 0.7557 0.1133 0.8751
C18 C 0.7413(4) 0.2490(5) 0.8086(5)
H15 H 0.7080 0.2303 0.7566
C19 C 0.7601(3) 0.3466(3) 0.8110(3)
H16 H 0.7419 0.3956 0.7614
C20 C 0.8075(3) 0.3680(3) 0.8913(3)
C21 C 0.8255(3) 0.5545(2) 0.8760(3)
H17 H 0.8435 0.5545 0.8035
H18 H 0.8799 0.5934 0.8976
C22 C 0.7072(3) 0.6044(2) 0.9025(3)
C23 C 0.6679(3) 0.6814(2) 0.8388(2)
H19 H 0.7135 0.7014 0.7789
C24 C 0.5610(3) 0.7291(2) 0.8634(2)
C25 C 0.4925(3) 0.7001(2) 0.9517(2)
H20 H 0.4200 0.7313 0.9677
C26 C 0.5323(3) 0.6247(3) 1.0157(3)
H21 H 0.4870 0.6057 1.0761
C27 C 0.6384(3) 0.5767(3) 0.9918(3)
H22 H 0.6640 0.5254 1.0359
C28 C 0.4173(3) 0.8535(2) 0.8129(2)
H23 H 0.4053 0.8782 0.8787
H24 H 0.3602 0.8072 0.8117
C29 C 0.4073(2) 0.9381(2) 0.7340(2)
C30 C 0.3786(2) 0.9206(2) 0.6416(3)
C31 C 0.3626(2) 1.0009(2) 0.5703(2)
C32 C 0.3663(2) 1.0990(2) 0.5952(2)
C33 C 0.3975(2) 1.1159(2) 0.6862(2)
C34 C 0.4227(2) 1.0347(2) 0.7532(2)
C35 C 0.4674(3) 1.0522(3) 0.8487(3)
H25 H 0.4045 1.0677 0.8999
H26 H 0.5154 1.1067 0.8349
H27 H 0.5103 0.9930 0.8714
C36 C 0.3609(3) 0.8167(2) 0.6193(3)
H28 H 0.3750 0.7702 0.6753
H29 H 0.4125 0.7998 0.5604
H30 H 0.2840 0.8141 0.6079
C37 C 0.3347(3) 1.1869(3) 0.5227(3)
H34 H 0.3152 1.1628 0.4640
H35 H 0.3981 1.2274 0.5035
H36 H 0.2706 1.2262 0.5548
C38 C 0.6374(3) 1.4917(3) 0.5896(3)
C39 C 0.5693(4) 1.5536(3) 0.6508(3)
H40 H 0.5862 1.6194 0.6505
C40 C 0.4763(3) 1.5194(3) 0.7124(3)
H41 H 0.4304 1.5621 0.7541
C41 C 0.4491(3) 1.4217(3) 0.7139(3)
H42 H 0.3852 1.3991 0.7560
C42 C 0.5171(3) 1.3589(2) 0.6528(2)
C43 C 0.6102(3) 1.3938(3) 0.5901(3)
H43 H 0.6555 1.3516 0.5475
C44 C 0.4026(3) 1.2207(2) 0.7102(3)
H44 H 0.3347 1.2608 0.6958
H45 H 0.4074 1.2217 0.7809
C45 C -0.1114(2) 0.8400(3) 0.1982(2)
C46 C -0.0778(3) 0.7585(3) 0.2608(3)
H46 H -0.0506 0.7654 0.3200
C47 C -0.0876(3) 0.6666(3) 0.2290(4)
H47 H -0.0656 0.6092 0.2675
C48 C -0.1294(4) 0.6577(4) 0.1413(4)
H48 H -0.1352 0.5942 0.1232
C49 C -0.1626(4) 0.7386(4) 0.0797(3)
H49 H -0.1908 0.7312 0.0211
C50 C -0.1521(3) 0.8316(3) 0.1091(3)
C51 C -0.0932(2) 0.9947(3) 0.2840(2)
H50 H -0.1220 0.9599 0.3482
H51 H -0.1345 1.0598 0.2797
C52 C 0.0306(2) 1.0086(2) 0.2814(2)
C53 C 0.0954(3) 1.0492(2) 0.1951(2)
H52 H 0.0644 1.0635 0.1361
C54 C 0.2056(3) 1.0681(2) 0.1973(2)
H53 H 0.2492 1.0947 0.1390
C55 C 0.2531(3) 1.0488(2) 0.2836(2)
H54 H 0.3280 1.0626 0.2839
C56 C 0.1888(2) 1.0089(2) 0.3698(2)
C57 C 0.0784(2) 0.9872(2) 0.3678(2)
H55 H 0.0360 0.9578 0.4253
C58 C 0.3440(2) 0.9854(3) 0.4660(2)
H56 H 0.3801 1.0357 0.4181
H57 H 0.3779 0.9204 0.4484
N4? N 0.8453(10) 1.4436(8) 0.5142(7)
N5? N 0.9868(9) 1.3395(7) 0.5248(6)
N6? N 0.9219(11) 1.4049(8) 0.5727(6)
C9? C 0.9586(6) 1.3312(5) 0.4307(6)
C10? C 1.0041(7) 1.2740(6) 0.3510(6)
H7? H 1.0673 1.2288 0.3533
C11? C 0.9478(8) 1.2901(6) 0.2689(6)
H8? H 0.9718 1.2510 0.2159
C12? C 0.8575(9) 1.3611(7) 0.2605(6)
H9? H 0.8262 1.3709 0.2014
C13? C 0.8132(8) 1.4179(7) 0.3401(7)
H10? H 0.7520 1.4649 0.3357
C14? C 0.8647(7) 1.4011(6) 0.4266(6)
C15? C 0.7393(14) 1.5328(12) 0.5253(10)
H11? H 0.7623 1.5882 0.5553
H12? H 0.7209 1.5571 0.4594
H31? H 0.3394 0.8192 0.5538
H32? H 0.3019 0.7896 0.6687
H33? H 0.4303 0.7752 0.6211
H37? H 0.3407 1.2481 0.5509
H38? H 0.2579 1.1835 0.5113
H39? H 0.3853 1.1847 0.4601
loop_
_geom_bond_atom_site_label_1
_geom_bond_atom_site_label_2
_geom_bond_site_symmetry_1
_geom_bond_site_symmetry_2
N1 N3 1_555 1_555
N2 N3 1_555 1_555
C1 N2 1_555 1_555
C2 C1 1_555 1_555
H1 C2 1_555 1_555
C3 C2 1_555 1_555
H2 C3 1_555 1_555
C4 C3 1_555 1_555
H3 C4 1_555 1_555
C5 C4 1_555 1_555
H4 C5 1_555 1_555
C6 N1 1_555 1_555
C7 N1 1_555 1_555
H5 C7 1_555 1_555
H6 C7 1_555 1_555
C8 N7 1_555 1_555
O1 C24 1_555 1_555
O2 C42 1_555 1_555
O3 C56 1_555 1_555
N7 N8 1_555 1_555
N8 N9 1_555 1_555
N9 C20 1_555 1_555
N10 N11 1_555 1_555
N11 N12 1_555 1_555
N12 C45 1_555 1_555
C16 C8 1_555 1_555
H13 C16 1_555 1_555
C17 C16 1_555 1_555
H14 C17 1_555 1_555
C18 C17 1_555 1_555
H15 C18 1_555 1_555
C19 C18 1_555 1_555
H16 C19 1_555 1_555
C20 C8 1_555 1_555
C21 N9 1_555 1_555
H17 C21 1_555 1_555
H18 C21 1_555 1_555
C22 C21 1_555 1_555
C23 C22 1_555 1_555
H19 C23 1_555 1_555
C24 C23 1_555 1_555
C25 C24 1_555 1_555
H20 C25 1_555 1_555
C26 C25 1_555 1_555
H21 C26 1_555 1_555
C27 C22 1_555 1_555
H22 C27 1_555 1_555
C28 O1 1_555 1_555
H23 C28 1_555 1_555
H24 C28 1_555 1_555
C29 C28 1_555 1_555
C30 C29 1_555 1_555
C31 C30 1_555 1_555
C32 C31 1_555 1_555
C33 C32 1_555 1_555
C34 C29 1_555 1_555
C35 C34 1_555 1_555
H25 C35 1_555 1_555
H26 C35 1_555 1_555
H27 C35 1_555 1_555
C36 C30 1_555 1_555
H28 C36 1_555 1_555
H29 C36 1_555 1_555
H30 C36 1_555 1_555
C37 C32 1_555 1_555
H34 C37 1_555 1_555
H35 C37 1_555 1_555
H36 C37 1_555 1_555
C38 C7 1_555 1_555
C39 C38 1_555 1_555
H40 C39 1_555 1_555
C40 C39 1_555 1_555
H41 C40 1_555 1_555
C41 C40 1_555 1_555
H42 C41 1_555 1_555
C42 C41 1_555 1_555
C43 C38 1_555 1_555
H43 C43 1_555 1_555
C44 O2 1_555 1_555
H44 C44 1_555 1_555
H45 C44 1_555 1_555
C45 C46 1_555 1_555
C46 H46 1_555 1_555
C47 C46 1_555 1_555
H47 C47 1_555 1_555
C48 C47 1_555 1_555
H48 C48 1_555 1_555
C49 C48 1_555 1_555
H49 C49 1_555 1_555
C50 N10 1_555 1_555
C51 N12 1_555 1_555
H50 C51 1_555 1_555
H51 C51 1_555 1_555
C52 C51 1_555 1_555
C53 C52 1_555 1_555
H52 C53 1_555 1_555
C54 C53 1_555 1_555
H53 C54 1_555 1_555
C55 C54 1_555 1_555
H54 C55 1_555 1_555
C56 C55 1_555 1_555
C57 C52 1_555 1_555
H55 C57 1_555 1_555
C58 O3 1_555 1_555
H56 C58 1_555 1_555
H57 C58 1_555 1_555
C1 C6 1_555 1_555
C5 C6 1_555 1_555
C19 C20 1_555 1_555
C26 C27 1_555 1_555
C31 C58 1_555 1_555
C33 C34 1_555 1_555
C33 C44 1_555 1_555
C42 C43 1_555 1_555
C45 C50 1_555 1_555
C49 C50 1_555 1_555
C56 C57 1_555 1_555

#END
