
#######################################################################
#
#                 Cambridge Crystallographic Data Centre
#                                CCDC 
#
#######################################################################
#
# If this CIF has been generated from an entry in the Cambridge 
# Structural Database, then it will include bibliographic, chemical, 
# crystal, experimental, refinement or atomic coordinate data resulting 
# from the CCDC's data processing and validation procedures.
#
#######################################################################

data_ROHJON
_chemical_compound_source        
'Sophora alopecuroides L. and Leptorhabdos parviflor Benth'
_chemical_name_common            'Aloperine dihydrochloride monohydrate'
_chemical_formula_moiety         'C15 H26 N2 2+,2(Cl1 1-),H2 O1'
_chemical_name_systematic        
'(6R,7R,9R,11S)-16,17-Didehydro-9-de-2-piperidinylormosanine dihydrochloride monohydrate'
_symmetry_cell_setting           orthorhombic
_symmetry_space_group_name_H-M   'P 21 21 21'
_symmetry_Int_Tables_number      19
_space_group_name_Hall           'P 2ac 2ab'
loop_
_symmetry_equiv_pos_site_id
_symmetry_equiv_pos_as_xyz
1 x,y,z
2 1/2-x,-y,1/2+z
3 -x,1/2+y,1/2-z
4 1/2+x,1/2-y,-z
_cell_length_a                   9.6442(12)
_cell_length_b                   11.2487(12)
_cell_length_c                   15.097(2)
_cell_angle_alpha                90
_cell_angle_beta                 90
_cell_angle_gamma                90
_cell_volume                     1637.79
_exptl_crystal_colour            colorless
_exptl_crystal_description       prism
_chemical_melting_point          280deg.C
_cell_formula_units_Z            4
loop_
_atom_site_label
_atom_site_type_symbol
_atom_site_fract_x
_atom_site_fract_y
_atom_site_fract_z
N1 N 0.24098(14) 0.75650(10) 0.59099(7)
C1 C 0.2949(2) 0.86062(14) 0.53814(11)
C2 C 0.2991(2) 0.97542(14) 0.59065(12)
C3 C 0.1552(2) 1.00453(13) 0.62574(11)
C4 C 0.1055(2) 0.90262(13) 0.68363(10)
C5 C 0.10327(15) 0.78401(12) 0.63554(10)
C6 C 0.06183(15) 0.68047(12) 0.69635(9)
C7 C 0.1768(2) 0.65041(13) 0.76259(9)
C8 C 0.3015(2) 0.60582(13) 0.70959(10)
C9 C 0.3514(2) 0.70733(12) 0.65070(10)
C10 C 0.2599(2) 0.48747(11) 0.66476(9)
N2 N 0.35262(14) 0.45433(11) 0.58850(9)
C11 C 0.3229(2) 0.33153(14) 0.55428(12)
C12 C 0.1756(2) 0.32472(14) 0.51987(11)
C13 C 0.0728(2) 0.36362(13) 0.59112(11)
C14 C 0.11248(15) 0.48108(12) 0.63236(9)
C15 C 0.02414(14) 0.56999(12) 0.64534(10)
H1 H 0.2277(23) 0.6965(18) 0.5499(14)
H2 H 0.2350(21) 0.8667(16) 0.4868(13)
H3 H 0.3852(24) 0.8374(20) 0.5161(15)
H4 H 0.3634(23) 0.9679(19) 0.6405(15)
H5 H 0.3305(23) 1.0340(19) 0.5502(15)
H6 H 0.0914(20) 1.0157(17) 0.5752(14)
H7 H 0.1562(23) 1.0796(18) 0.6572(13)
H8 H 0.1609(19) 0.8979(16) 0.7380(12)
H9 H 0.0137(21) 0.9159(17) 0.7020(13)
H10 H 0.0390(20) 0.7900(16) 0.5872(13)
H11 H -0.0196(20) 0.7083(16) 0.7284(12)
H12 H 0.1441(22) 0.5877(17) 0.8053(13)
H13 H 0.2059(20) 0.7202(18) 0.7970(13)
H14 H 0.3819(23) 0.5891(20) 0.7499(15)
H15 H 0.3854(20) 0.7743(18) 0.6905(13)
H16 H 0.4246(24) 0.6852(20) 0.6118(15)
H17 H 0.2725(19) 0.4287(15) 0.7087(11)
H18 H 0.3374(22) 0.5072(17) 0.5408(14)
H19 H 0.4388(23) 0.4585(19) 0.6075(14)
H20 H 0.3393(22) 0.2789(18) 0.6039(13)
H21 H 0.3879(23) 0.3150(19) 0.5069(14)
H22 H 0.1599(22) 0.2468(20) 0.5019(13)
H23 H 0.1631(18) 0.3732(15) 0.4685(11)
H24 H -0.0228(19) 0.3699(16) 0.5664(12)
H25 H 0.0768(19) 0.3053(17) 0.6401(13)
H26 H -0.0678(18) 0.5603(15) 0.6256(11)
Cl1 Cl 0.25656(5) 0.60777(3) 0.42179(2)
Cl2 Cl 0.65443(4) 0.45227(3) 0.63705(3)
O1 O 0.6824(2) 0.70647(14) 0.73388(9)
H27 H 0.6919(25) 0.7464(22) 0.6959(16)
H28 H 0.6704(26) 0.6427(24) 0.7108(16)
loop_
_geom_bond_atom_site_label_1
_geom_bond_atom_site_label_2
_geom_bond_site_symmetry_1
_geom_bond_site_symmetry_2
N1 C1 1_555 1_555
C1 C2 1_555 1_555
C2 C3 1_555 1_555
C3 C4 1_555 1_555
C4 C5 1_555 1_555
C5 N1 1_555 1_555
C6 C5 1_555 1_555
C7 C6 1_555 1_555
C8 C7 1_555 1_555
C9 N1 1_555 1_555
C10 C8 1_555 1_555
N2 C10 1_555 1_555
C11 N2 1_555 1_555
C12 C11 1_555 1_555
C13 C12 1_555 1_555
C14 C10 1_555 1_555
C15 C6 1_555 1_555
H1 N1 1_555 1_555
H2 C1 1_555 1_555
H3 C1 1_555 1_555
H4 C2 1_555 1_555
H5 C2 1_555 1_555
H6 C3 1_555 1_555
H7 C3 1_555 1_555
H8 C4 1_555 1_555
H9 C4 1_555 1_555
H10 C5 1_555 1_555
H11 C6 1_555 1_555
H12 C7 1_555 1_555
H13 C7 1_555 1_555
H14 C8 1_555 1_555
H15 C9 1_555 1_555
H16 C9 1_555 1_555
H17 C10 1_555 1_555
H18 N2 1_555 1_555
H19 N2 1_555 1_555
H20 C11 1_555 1_555
H21 C11 1_555 1_555
H22 C12 1_555 1_555
H23 C12 1_555 1_555
H24 C13 1_555 1_555
H25 C13 1_555 1_555
H26 C15 1_555 1_555
O1 H27 1_555 1_555
H28 O1 1_555 1_555
C8 C9 1_555 1_555
C13 C14 1_555 1_555
C14 C15 1_555 1_555

#END
