
#######################################################################
#
#                 Cambridge Crystallographic Data Centre
#                                CCDC 
#
#######################################################################
#
# If this CIF has been generated from an entry in the Cambridge 
# Structural Database, then it will include bibliographic, chemical, 
# crystal, experimental, refinement or atomic coordinate data resulting 
# from the CCDC's data processing and validation procedures.
#
#######################################################################

data_ROHXUJ
_chemical_formula_moiety         'C42 H62 N2,2(C7 H8)'
_chemical_name_systematic        
"2,2'-ethene-1,2-diylidenebis(1-(2,6-diisopropylphenyl)-3,3,5,5-tetramethylpyrrolidine) toluene solvate"
_symmetry_cell_setting           triclinic
_symmetry_space_group_name_H-M   'P -1'
_symmetry_Int_Tables_number      2
_space_group_name_Hall           '-P 1'
loop_
_symmetry_equiv_pos_site_id
_symmetry_equiv_pos_as_xyz
1 x,y,z
2 -x,-y,-z
_cell_length_a                   10.564(8)
_cell_length_b                   10.601(7)
_cell_length_c                   11.898(7)
_cell_angle_alpha                70.275(4)
_cell_angle_beta                 74.673(4)
_cell_angle_gamma                76.263(4)
_cell_volume                     1193.41
_exptl_crystal_colour            yellow
_exptl_crystal_description       block
_cell_formula_units_Z            1
loop_
_atom_site_label
_atom_site_type_symbol
_atom_site_fract_x
_atom_site_fract_y
_atom_site_fract_z
N1 N 0.13967(9) 0.37275(9) 0.30384(8)
C1 C 0.02478(10) 0.45074(10) 0.34990(9)
C2 C -0.0793(4) 0.4942(4) 0.2649(4)
C3 C 0.00984(16) 0.46242(18) 0.15117(14)
H1 H 0.0411 0.5460 0.0926
H2 H -0.0410 0.4285 0.1115
C4 C 0.1296(5) 0.3545(4) 0.1864(5)
C5 C 0.1053(3) 0.21057(19) 0.20694(17)
H3 H 0.0995 0.2008 0.1295
H4 H 0.0218 0.1950 0.2658
H5 H 0.1789 0.1441 0.2387
C6 C 0.2568(4) 0.3788(5) 0.0897(6)
H6 H 0.2486 0.3634 0.0153
H7 H 0.3329 0.3160 0.1205
H8 H 0.2704 0.4725 0.0713
C7 C -0.1911(3) 0.4108(3) 0.3249(3)
H9 H -0.2517 0.4317 0.2689
H10 H -0.2400 0.4329 0.4000
H11 H -0.1535 0.3139 0.3444
C8 C -0.1400(2) 0.64527(18) 0.24010(18)
H12 H -0.0686 0.7003 0.2067
H13 H -0.1921 0.6625 0.3164
H14 H -0.1979 0.6695 0.1813
C9 C 0.25029(11) 0.33207(12) 0.36315(9)
C10 C 0.33917(11) 0.42308(13) 0.33686(10)
C11 C 0.44349(13) 0.38302(17) 0.39964(11)
H15 H 0.5044 0.4432 0.3829
C12 C 0.45973(14) 0.25788(18) 0.48542(12)
H16 H 0.5332 0.2312 0.5250
C13 C 0.36939(14) 0.17154(16) 0.51372(12)
H17 H 0.3807 0.0860 0.5737
C14 C 0.26149(13) 0.20733(13) 0.45590(10)
C15 C 0.15536(15) 0.11695(12) 0.50082(11)
H18 H 0.0890 0.1565 0.4467
C16 C 0.08210(16) 0.11555(13) 0.63096(12)
H19 H 0.0440 0.2087 0.6330
H20 H 0.1448 0.0759 0.6863
H21 H 0.0107 0.0611 0.6567
C17 C 0.2110(2) -0.02875(15) 0.49595(15)
H22 H 0.2613 -0.0271 0.4136
H23 H 0.1375 -0.0794 0.5167
H24 H 0.2699 -0.0729 0.5544
C18 C 0.32241(12) 0.56510(13) 0.24823(10)
H25 H 0.2469 0.5740 0.2086
C19 C 0.28648(14) 0.67343(15) 0.31468(12)
H26 H 0.2720 0.7636 0.2560
H27 H 0.3593 0.6676 0.3538
H28 H 0.2051 0.6585 0.3768
C20 C 0.44712(14) 0.58929(17) 0.14698(11)
H29 H 0.4722 0.5157 0.1089
H30 H 0.5204 0.5913 0.1821
H31 H 0.4282 0.6762 0.0854
C21 C 0.00715(10) 0.48409(10) 0.45203(9)
N1A N -0.13967(9) 0.62725(9) 0.69616(8)
C1A C -0.02478(10) 0.54926(10) 0.65010(9)
C2A C 0.0793(4) 0.5058(4) 0.7351(4)
C3A C -0.00984(16) 0.53758(18) 0.84883(14)
H1A H -0.0411 0.4540 0.9074
H2A H 0.0410 0.5715 0.8885
C4A C -0.1296(5) 0.6455(4) 0.8136(5)
C5A C -0.1053(3) 0.78943(19) 0.79306(17)
H3A H -0.0995 0.7992 0.8705
H4A H -0.0218 0.8050 0.7342
H5A H -0.1789 0.8559 0.7613
C6A C -0.2568(4) 0.6212(5) 0.9103(6)
H6A H -0.2486 0.6366 0.9847
H7A H -0.3329 0.6840 0.8795
H8A H -0.2704 0.5275 0.9287
C7A C 0.1911(3) 0.5892(3) 0.6751(3)
H9A H 0.2517 0.5683 0.7311
H10A H 0.2400 0.5671 0.6000
H11A H 0.1535 0.6861 0.6556
C8A C 0.1400(2) 0.35473(18) 0.75990(18)
H12A H 0.0686 0.2997 0.7933
H13A H 0.1921 0.3375 0.6836
H14A H 0.1979 0.3305 0.8187
C9A C -0.25029(11) 0.66793(12) 0.63685(9)
C10A C -0.33917(11) 0.57692(13) 0.66314(10)
C11A C -0.44349(13) 0.61698(17) 0.60036(11)
H15A H -0.5044 0.5568 0.6171
C12A C -0.45973(14) 0.74212(18) 0.51458(12)
H16A H -0.5332 0.7688 0.4750
C13A C -0.36939(14) 0.82846(16) 0.48628(12)
H17A H -0.3807 0.9140 0.4263
C14A C -0.26149(13) 0.79267(13) 0.54410(10)
C15A C -0.15536(15) 0.88305(12) 0.49918(11)
H18A H -0.0890 0.8435 0.5533
C16A C -0.08210(16) 0.88445(13) 0.36904(12)
H19A H -0.0440 0.7913 0.3670
H20A H -0.1448 0.9241 0.3137
H21A H -0.0107 0.9389 0.3433
C17A C -0.2110(2) 1.02875(15) 0.50405(15)
H22A H -0.2613 1.0271 0.5864
H23A H -0.1375 1.0794 0.4833
H24A H -0.2699 1.0729 0.4456
C18A C -0.32241(12) 0.43490(13) 0.75177(10)
H25A H -0.2469 0.4260 0.7914
C19A C -0.28648(14) 0.32657(15) 0.68532(12)
H26A H -0.2720 0.2364 0.7440
H27A H -0.3593 0.3324 0.6462
H28A H -0.2051 0.3415 0.6232
C20A C -0.44712(14) 0.41071(17) 0.85302(11)
H29A H -0.4722 0.4843 0.8911
H30A H -0.5204 0.4087 0.8179
H31A H -0.4282 0.3238 0.9146
C21A C -0.00715(10) 0.51591(10) 0.54797(9)
C36 C 0.5529(7) 0.8980(6) 0.1532(5)
H54 H 0.5811 0.8195 0.2190
H55 H 0.5671 0.8705 0.0793
H56 H 0.4582 0.9322 0.1775
C37 C 0.6333(7) 1.0086(7) 0.1279(7)
C38 C 0.5884(6) 1.1027(6) 0.1934(5)
H57 H 0.5064 1.0988 0.2507
C39 C 0.6620(7) 1.2019(5) 0.1757(5)
H58 H 0.6309 1.2651 0.2216
C40 C 0.7806(7) 1.2099(5) 0.0918(5)
H59 H 0.8314 1.2777 0.0805
C41 C 0.8248(6) 1.1190(7) 0.0245(5)
H60 H 0.9059 1.1242 -0.0339
C42 C 0.7510(8) 1.0208(9) 0.0424(8)
H61 H 0.7816 0.9594 -0.0054
C22? C -0.0621(7) 0.4803(7) 0.2708(10)
C23? C -0.0061(3) 0.3731(3) 0.1952(3)
H32? H -0.0521 0.2932 0.2329
H33? H -0.0190 0.4148 0.1102
C24? C 0.1419(10) 0.3316(7) 0.1983(11)
C25? C 0.1892(5) 0.1805(4) 0.2067(3)
H34? H 0.1767 0.1638 0.1345
H35? H 0.1374 0.1251 0.2801
H36? H 0.2837 0.1563 0.2109
C26? C 0.2307(7) 0.4120(8) 0.0848(12)
H37? H 0.2292 0.3855 0.0138
H38? H 0.3221 0.3922 0.0976
H39? H 0.1974 0.5095 0.0705
C27? C -0.2072(5) 0.4652(6) 0.3347(5)
H40? H -0.2107 0.3717 0.3870
H41? H -0.2614 0.4866 0.2733
H42? H -0.2418 0.5278 0.3846
C28? C -0.0613(4) 0.6241(3) 0.1839(3)
H43? H 0.0305 0.6365 0.1434
H44? H -0.1003 0.6900 0.2300
H45? H -0.1135 0.6381 0.1225
C29? C 0.4991(7) 0.9637(9) 0.1824(6)
H46? H 0.4283 1.0026 0.2391
H47? H 0.5319 0.8692 0.2243
H48? H 0.4641 0.9666 0.1130
C30? C 0.6097(9) 1.0431(9) 0.1384(9)
C31? C 0.6141(7) 1.1466(7) 0.1826(6)
H49? H 0.5430 1.1707 0.2437
C32? C 0.7211(8) 1.2150(5) 0.1386(7)
H50? H 0.7227 1.2870 0.1686
C33? C 0.8260(7) 1.1797(7) 0.0513(7)
H51? H 0.9003 1.2260 0.0222
C34? C 0.8220(8) 1.0773(9) 0.0068(8)
H52? H 0.8928 1.0545 -0.0551
C35? C 0.7160(9) 1.0072(11) 0.0514(9)
H53? H 0.7158 0.9340 0.0224
loop_
_geom_bond_atom_site_label_1
_geom_bond_atom_site_label_2
_geom_bond_site_symmetry_1
_geom_bond_site_symmetry_2
N1 C1 1_555 1_555
C1 C2 1_555 1_555
C2 C3 1_555 1_555
C3 H1 1_555 1_555
H2 C3 1_555 1_555
C4 N1 1_555 1_555
C5 C4 1_555 1_555
H3 C5 1_555 1_555
H4 C5 1_555 1_555
H5 C5 1_555 1_555
C6 C4 1_555 1_555
H6 C6 1_555 1_555
H7 C6 1_555 1_555
H8 C6 1_555 1_555
C7 C2 1_555 1_555
H9 C7 1_555 1_555
H10 C7 1_555 1_555
H11 C7 1_555 1_555
C8 C2 1_555 1_555
H12 C8 1_555 1_555
H13 C8 1_555 1_555
H14 C8 1_555 1_555
C9 N1 1_555 1_555
C10 C9 1_555 1_555
C11 C10 1_555 1_555
H15 C11 1_555 1_555
C12 C11 1_555 1_555
H16 C12 1_555 1_555
C13 C12 1_555 1_555
H17 C13 1_555 1_555
C14 C9 1_555 1_555
C15 C14 1_555 1_555
H18 C15 1_555 1_555
C16 C15 1_555 1_555
H19 C16 1_555 1_555
H20 C16 1_555 1_555
H21 C16 1_555 1_555
C17 C15 1_555 1_555
H22 C17 1_555 1_555
H23 C17 1_555 1_555
H24 C17 1_555 1_555
C18 C10 1_555 1_555
H25 C18 1_555 1_555
C19 C18 1_555 1_555
H26 C19 1_555 1_555
H27 C19 1_555 1_555
H28 C19 1_555 1_555
C20 C18 1_555 1_555
H29 C20 1_555 1_555
H30 C20 1_555 1_555
H31 C20 1_555 1_555
C21 C1 1_555 1_555
C36 H54 1_555 1_555
H55 C36 1_555 1_555
H56 C36 1_555 1_555
C37 C36 1_555 1_555
C38 C37 1_555 1_555
H57 C38 1_555 1_555
C39 C38 1_555 1_555
H58 C39 1_555 1_555
C40 C39 1_555 1_555
H59 C40 1_555 1_555
C41 C40 1_555 1_555
H60 C41 1_555 1_555
C42 C37 1_555 1_555
H61 C42 1_555 1_555
N1A C1A 1_555 1_555
C1A C2A 1_555 1_555
C2A C3A 1_555 1_555
C3A H1A 1_555 1_555
H2A C3A 1_555 1_555
C4A N1A 1_555 1_555
C5A C4A 1_555 1_555
H3A C5A 1_555 1_555
H4A C5A 1_555 1_555
H5A C5A 1_555 1_555
C6A C4A 1_555 1_555
H6A C6A 1_555 1_555
H7A C6A 1_555 1_555
H8A C6A 1_555 1_555
C7A C2A 1_555 1_555
H9A C7A 1_555 1_555
H10A C7A 1_555 1_555
H11A C7A 1_555 1_555
C8A C2A 1_555 1_555
H12A C8A 1_555 1_555
H13A C8A 1_555 1_555
H14A C8A 1_555 1_555
C9A N1A 1_555 1_555
C10A C9A 1_555 1_555
C11A C10A 1_555 1_555
H15A C11A 1_555 1_555
C12A C11A 1_555 1_555
H16A C12A 1_555 1_555
C13A C12A 1_555 1_555
H17A C13A 1_555 1_555
C14A C9A 1_555 1_555
C15A C14A 1_555 1_555
H18A C15A 1_555 1_555
C16A C15A 1_555 1_555
H19A C16A 1_555 1_555
H20A C16A 1_555 1_555
H21A C16A 1_555 1_555
C17A C15A 1_555 1_555
H22A C17A 1_555 1_555
H23A C17A 1_555 1_555
H24A C17A 1_555 1_555
C18A C10A 1_555 1_555
H25A C18A 1_555 1_555
C19A C18A 1_555 1_555
H26A C19A 1_555 1_555
H27A C19A 1_555 1_555
H28A C19A 1_555 1_555
C20A C18A 1_555 1_555
H29A C20A 1_555 1_555
H30A C20A 1_555 1_555
H31A C20A 1_555 1_555
C21A C21 1_555 1_555
C3 C4 1_555 1_555
C13 C14 1_555 1_555
C41 C42 1_555 1_555
C1A C21A 1_555 1_555
C3A C4A 1_555 1_555
C13A C14A 1_555 1_555

#END
