
#######################################################################
#
#                 Cambridge Crystallographic Data Centre
#                                CCDC 
#
#######################################################################
#
# If this CIF has been generated from an entry in the Cambridge 
# Structural Database, then it will include bibliographic, chemical, 
# crystal, experimental, refinement or atomic coordinate data resulting 
# from the CCDC's data processing and validation procedures.
#
#######################################################################

data_ROJGOO
_chemical_formula_moiety         'C23 H20 O1 S2'
_chemical_name_systematic        
1-phenyl-2-(2-thienyl)-5-(2-thienylmethylene)spiro[2.5]octan-4-one
_symmetry_cell_setting           triclinic
_symmetry_space_group_name_H-M   'P -1'
_symmetry_Int_Tables_number      2
_space_group_name_Hall           '-P 1'
loop_
_symmetry_equiv_pos_site_id
_symmetry_equiv_pos_as_xyz
1 x,y,z
2 -x,-y,-z
_cell_length_a                   8.1173(8)
_cell_length_b                   9.2580(8)
_cell_length_c                   12.8018(11)
_cell_angle_alpha                76.321(5)
_cell_angle_beta                 80.168(5)
_cell_angle_gamma                81.417(5)
_cell_volume                     915.064
_exptl_crystal_colour            colorless
_cell_formula_units_Z            2
loop_
_atom_site_label
_atom_site_type_symbol
_atom_site_fract_x
_atom_site_fract_y
_atom_site_fract_z
S1 S 0.19660(15) -0.20886(12) 0.43366(8)
C1 C 0.264(3) -0.0776(7) 0.4877(18)
C2 C 0.3454(12) -0.1497(12) 0.5737(8)
H1 H 0.3868 -0.0966 0.6170
C3 C 0.3644(12) -0.3046(6) 0.5942(6)
H2 H 0.4221 -0.3679 0.6497
C4 C 0.2885(8) -0.3545(5) 0.5233(5)
H3 H 0.2870 -0.4570 0.5239
S2 S -0.33392(15) 0.73057(11) 0.31542(7)
C5 C -0.1672(9) 0.6582(14) 0.2352(7)
C6 C -0.1929(15) 0.677(2) 0.1300(11)
H4 H -0.1122 0.6498 0.0730
C7 C -0.3692(5) 0.7490(4) 0.1189(3)
H5 H -0.4170 0.7656 0.0537
C8 C -0.4563(4) 0.7890(4) 0.2135(3)
H6 H -0.5665 0.8407 0.2203
C9 C 0.2290(3) 0.0841(3) 0.4535(2)
H7 H 0.2553 0.1409 0.5010
C10 C 0.1668(3) 0.1683(3) 0.3649(2)
C11 C 0.1171(3) 0.1075(3) 0.2770(2)
H8 H -0.0001 0.0826 0.2983
H9 H 0.1908 0.0140 0.2696
C12 C 0.1303(3) 0.2183(3) 0.16784(19)
H10 H 0.2493 0.2361 0.1426
H11 H 0.0912 0.1760 0.1135
C13 C 0.0242(3) 0.3655(3) 0.17795(19)
H12 H 0.0310 0.4351 0.1060
H13 H -0.0949 0.3475 0.2023
C14 C 0.0838(3) 0.4365(3) 0.2584(2)
C15 C 0.1495(3) 0.3338(3) 0.3555(2)
C16 C 0.1655(3) 0.5830(3) 0.2215(2)
H14 H 0.2521 0.5881 0.2672
C17 C -0.0100(3) 0.5854(3) 0.28327(19)
H15 H -0.0126 0.5925 0.3566
C18 C 0.2063(3) 0.6624(3) 0.1061(2)
C19 C 0.2948(3) 0.5927(3) 0.0255(2)
H16 H 0.3229 0.4872 0.0409
C20 C 0.3425(4) 0.6763(4) -0.0773(2)
H17 H 0.4028 0.6282 -0.1324
C21 C 0.3030(4) 0.8271(4) -0.0993(3)
H18 H 0.3380 0.8838 -0.1697
C22 C 0.2156(4) 0.8973(4) -0.0234(3)
H19 H 0.1886 1.0027 -0.0426
C23 C 0.1677(3) 0.8301(3) 0.0717(2)
H20 H 0.1067 0.8852 0.1227
O1 O 0.1880(3) 0.3867(2) 0.42622(16)
S3? S 0.3812(13) -0.1455(12) 0.5866(9)
C24? C 0.246(14) -0.069(3) 0.493(8)
C25? C 0.197(3) -0.185(2) 0.4592(17)
H21? H 0.1244 -0.1674 0.4056
C26? C 0.260(4) -0.329(2) 0.508(2)
H22? H 0.2341 -0.4181 0.4933
C27? C 0.366(5) -0.325(2) 0.581(3)
H23? H 0.4222 -0.4113 0.6222
S4? S -0.2208(15) 0.6723(19) 0.1246(9)
C28? C -0.143(4) 0.656(6) 0.242(3)
C29? C -0.243(2) 0.7336(17) 0.3109(12)
H24? H -0.2128 0.7485 0.3756
C30? C -0.4153(16) 0.7956(16) 0.2699(13)
H25? H -0.5084 0.8439 0.3094
C31? C -0.4123(17) 0.7689(17) 0.1625(15)
H26? H -0.5014 0.7995 0.1198
loop_
_geom_bond_atom_site_label_1
_geom_bond_atom_site_label_2
_geom_bond_site_symmetry_1
_geom_bond_site_symmetry_2
S1 C1 1_555 1_555
C1 C2 1_555 1_555
C2 H1 1_555 1_555
C3 C2 1_555 1_555
H2 C3 1_555 1_555
C4 S1 1_555 1_555
H3 C4 1_555 1_555
S2 C5 1_555 1_555
C5 C6 1_555 1_555
C6 H4 1_555 1_555
C7 C6 1_555 1_555
H5 C7 1_555 1_555
C8 S2 1_555 1_555
H6 C8 1_555 1_555
C9 C1 1_555 1_555
H7 C9 1_555 1_555
C10 C9 1_555 1_555
C11 C10 1_555 1_555
H8 C11 1_555 1_555
H9 C11 1_555 1_555
C12 C11 1_555 1_555
H10 C12 1_555 1_555
H11 C12 1_555 1_555
C13 C12 1_555 1_555
H12 C13 1_555 1_555
H13 C13 1_555 1_555
C14 C13 1_555 1_555
C15 C10 1_555 1_555
C16 C14 1_555 1_555
H14 C16 1_555 1_555
C17 C5 1_555 1_555
H15 C17 1_555 1_555
C18 C16 1_555 1_555
C19 C18 1_555 1_555
H16 C19 1_555 1_555
C20 C19 1_555 1_555
H17 C20 1_555 1_555
C21 C20 1_555 1_555
H18 C21 1_555 1_555
C22 C21 1_555 1_555
H19 C22 1_555 1_555
C23 C18 1_555 1_555
H20 C23 1_555 1_555
O1 C15 1_555 1_555
C3 C4 1_555 1_555
C7 C8 1_555 1_555
C14 C15 1_555 1_555
C14 C17 1_555 1_555
C16 C17 1_555 1_555
C22 C23 1_555 1_555

#END
