
#######################################################################
#
#                 Cambridge Crystallographic Data Centre
#                                CCDC 
#
#######################################################################
#
# If this CIF has been generated from an entry in the Cambridge 
# Structural Database, then it will include bibliographic, chemical, 
# crystal, experimental, refinement or atomic coordinate data resulting 
# from the CCDC's data processing and validation procedures.
#
#######################################################################

data_ROJHEF
_chemical_formula_moiety         'C26 H30'
_chemical_name_systematic        
9,10-diphenyltricyclo[8.3.1.0^2,8^]tetradec-2(8)-ene
_symmetry_cell_setting           triclinic
_symmetry_space_group_name_H-M   'P -1'
_symmetry_Int_Tables_number      2
_space_group_name_Hall           '-P 1'
loop_
_symmetry_equiv_pos_site_id
_symmetry_equiv_pos_as_xyz
1 x,y,z
2 -x,-y,-z
_cell_length_a                   5.9966(2)
_cell_length_b                   10.4785(4)
_cell_length_c                   15.4776(5)
_cell_angle_alpha                83.953(2)
_cell_angle_beta                 86.1400(10)
_cell_angle_gamma                81.477(2)
_cell_volume                     955.126
_exptl_crystal_colour            colorless
_exptl_crystal_description       prism
_cell_formula_units_Z            2
loop_
_atom_site_label
_atom_site_type_symbol
_atom_site_fract_x
_atom_site_fract_y
_atom_site_fract_z
C1 C 0.7266(3) 0.45662(19) 0.75869(12)
H1 H 0.5769 0.4351 0.7568
C2 C 0.8507(3) 0.3505(2) 0.81967(13)
C3 C 0.7862(4) 0.2277(2) 0.83310(14)
H2 H 0.6559 0.2097 0.8063
C4 C 0.9073(4) 0.1290(2) 0.88408(15)
H3 H 0.8601 0.0447 0.8916
C5 C 1.0962(4) 0.1510(2) 0.92387(14)
H4 H 1.1822 0.0833 0.9596
C6 C 1.1614(4) 0.2729(2) 0.91280(14)
H5 H 1.2922 0.2900 0.9397
C7 C 1.0377(4) 0.3722(2) 0.86221(14)
H6 H 1.0817 0.4572 0.8555
C8 C 0.8392(3) 0.4653(2) 0.66376(13)
C9 C 0.9366(3) 0.3278(2) 0.64149(13)
C10 C 0.8030(4) 0.2474(2) 0.60931(14)
H7 H 0.6502 0.2812 0.5961
C11 C 0.8839(4) 0.1200(2) 0.59530(15)
H8 H 0.7883 0.0659 0.5738
C12 C 1.1016(4) 0.0685(2) 0.61298(15)
H9 H 1.1576 -0.0197 0.6032
C13 C 1.2396(4) 0.1458(2) 0.64387(15)
H10 H 1.3921 0.1106 0.6568
C14 C 1.1593(4) 0.2733(2) 0.65693(14)
H11 H 1.2613 0.3248 0.6771
C15 C 0.6657(4) 0.5276(2) 0.59606(13)
H12 H 0.7367 0.5240 0.5388
H13 H 0.5384 0.4810 0.6010
C16 C 0.5731(4) 0.6696(2) 0.60302(15)
H14 H 0.4863 0.7032 0.5537
H15 H 0.4783 0.6762 0.6553
C17 C 0.7598(4) 0.7517(2) 0.60756(15)
H16 H 0.6950 0.8374 0.6205
H17 H 0.8463 0.7565 0.5532
C18 C 0.9157(3) 0.6900(2) 0.68033(14)
H18 H 1.0324 0.7429 0.6830
C19 C 1.0223(3) 0.5540(2) 0.66104(14)
H19 H 1.1306 0.5200 0.7036
H20 H 1.0968 0.5579 0.6041
C20 C 0.6930(3) 0.5840(2) 0.80097(12)
C21 C 0.7836(3) 0.6880(2) 0.76708(13)
C22 C 0.7438(4) 0.8149(2) 0.80856(15)
H21 H 0.7942 0.7993 0.8669
H22 H 0.8274 0.8765 0.7756
C23 C 0.4966(4) 0.8771(2) 0.81641(15)
H23 H 0.4902 0.9669 0.8253
H24 H 0.4266 0.8702 0.7634
C24 C 0.3573(4) 0.8152(2) 0.89091(16)
H25 H 0.4262 0.8179 0.9448
H26 H 0.2070 0.8618 0.8934
C25 C 0.3316(4) 0.6742(2) 0.88569(15)
H27 H 0.2598 0.6719 0.8324
H28 H 0.2331 0.6496 0.9341
C26 C 0.5525(4) 0.5812(2) 0.88595(13)
H29 H 0.5128 0.4959 0.9008
H30 H 0.6387 0.6031 0.9309
loop_
_geom_bond_atom_site_label_1
_geom_bond_atom_site_label_2
_geom_bond_site_symmetry_1
_geom_bond_site_symmetry_2
C1 H1 1_555 1_555
C2 C1 1_555 1_555
C3 C2 1_555 1_555
H2 C3 1_555 1_555
C4 C3 1_555 1_555
H3 C4 1_555 1_555
C5 C4 1_555 1_555
H4 C5 1_555 1_555
C6 C5 1_555 1_555
H5 C6 1_555 1_555
C7 C2 1_555 1_555
H6 C7 1_555 1_555
C8 C1 1_555 1_555
C9 C8 1_555 1_555
C10 C9 1_555 1_555
H7 C10 1_555 1_555
C11 C10 1_555 1_555
H8 C11 1_555 1_555
C12 C11 1_555 1_555
H9 C12 1_555 1_555
C13 C12 1_555 1_555
H10 C13 1_555 1_555
C14 C9 1_555 1_555
H11 C14 1_555 1_555
C15 C8 1_555 1_555
H12 C15 1_555 1_555
H13 C15 1_555 1_555
C16 C15 1_555 1_555
H14 C16 1_555 1_555
H15 C16 1_555 1_555
C17 C16 1_555 1_555
H16 C17 1_555 1_555
H17 C17 1_555 1_555
C18 C17 1_555 1_555
H18 C18 1_555 1_555
C19 C8 1_555 1_555
H19 C19 1_555 1_555
H20 C19 1_555 1_555
C20 C1 1_555 1_555
C21 C18 1_555 1_555
C22 C21 1_555 1_555
H21 C22 1_555 1_555
H22 C22 1_555 1_555
C23 C22 1_555 1_555
H23 C23 1_555 1_555
H24 C23 1_555 1_555
C24 C23 1_555 1_555
H25 C24 1_555 1_555
H26 C24 1_555 1_555
C25 C24 1_555 1_555
H27 C25 1_555 1_555
H28 C25 1_555 1_555
C26 C20 1_555 1_555
H29 C26 1_555 1_555
H30 C26 1_555 1_555
C6 C7 1_555 1_555
C13 C14 1_555 1_555
C18 C19 1_555 1_555
C20 C21 1_555 1_555
C25 C26 1_555 1_555

#END
