
#######################################################################
#
#                 Cambridge Crystallographic Data Centre
#                                CCDC 
#
#######################################################################
#
# If this CIF has been generated from an entry in the Cambridge 
# Structural Database, then it will include bibliographic, chemical, 
# crystal, experimental, refinement or atomic coordinate data resulting 
# from the CCDC's data processing and validation procedures.
#
#######################################################################

data_ROJWIY
_chemical_formula_moiety         'C32 H27 Br1 N2 O3 S1'
_chemical_name_systematic        
'N-(1-(4-Bromophenyl)-2-(1-(3,5-dimethylbenzyl)-2-oxo-1,2-dihydro-3H-indol-3-ylidene)ethylidene)-4-methylbenzenesulfonamide unknown solvate'
_symmetry_cell_setting           monoclinic
_symmetry_space_group_name_H-M   'P n'
_symmetry_Int_Tables_number      7
_space_group_name_Hall           'P -2yac'
loop_
_symmetry_equiv_pos_site_id
_symmetry_equiv_pos_as_xyz
1 x,y,z
2 1/2+x,-y,1/2+z
_cell_length_a                   15.2036(17)
_cell_length_b                   14.9772(17)
_cell_length_c                   27.624(3)
_cell_angle_alpha                90
_cell_angle_beta                 104.671(3)
_cell_angle_gamma                90
_cell_volume                     6085.1
_exptl_crystal_colour            yellow
_exptl_crystal_description       prismatic
_cell_formula_units_Z            8
loop_
_atom_site_label
_atom_site_type_symbol
_atom_site_fract_x
_atom_site_fract_y
_atom_site_fract_z
Br1 Br 0.21896(12) 0.52742(9) 0.16124(6)
S1 S 0.4302(3) 1.0488(2) 0.2103(2)
N1 N 0.1005(6) 1.0719(6) 0.2584(4)
N2 N 0.3951(7) 0.9447(6) 0.1996(4)
O1 O 0.2135(6) 1.0421(5) 0.3330(3)
O2 O 0.3677(6) 1.1005(6) 0.1724(5)
O3 O 0.4516(8) 1.0771(6) 0.2611(4)
C1 C 0.1823(8) 1.0382(7) 0.2863(6)
C2 C 0.2242(8) 0.9951(6) 0.2486(5)
C3 C 0.1597(8) 1.0112(6) 0.2002(4)
C4 C 0.0853(9) 1.0568(7) 0.2080(4)
C5 C 0.0162(9) 1.0870(8) 0.1727(5)
H1 H -0.0286 1.1230 0.1801
C6 C 0.0137(9) 1.0626(8) 0.1247(6)
H2 H -0.0366 1.0767 0.0988
C7 C 0.0868(10) 1.0167(9) 0.1147(4)
H3 H 0.0880 1.0061 0.0817
C8 C 0.1563(8) 0.9872(7) 0.1525(4)
H4 H 0.2012 0.9508 0.1457
C9 C 0.3038(8) 0.9522(7) 0.2594(5)
H5 H 0.3361 0.9510 0.2929
C10 C 0.3452(9) 0.9065(8) 0.2235(5)
C11 C 0.3162(8) 0.8158(8) 0.2092(5)
C12 C 0.2706(7) 0.7645(8) 0.2370(5)
H6 H 0.2550 0.7894 0.2645
C13 C 0.2485(7) 0.6779(7) 0.2243(4)
H7 H 0.2233 0.6420 0.2447
C14 C 0.2638(8) 0.6449(8) 0.1818(5)
C15 C 0.3027(10) 0.6944(8) 0.1529(5)
H8 H 0.3079 0.6716 0.1224
C16 C 0.3336(10) 0.7742(8) 0.1664(6)
H9 H 0.3675 0.8042 0.1478
C17 C 0.0377(8) 1.1174(7) 0.2845(4)
H10 H 0.0740 1.1456 0.3146
H11 H 0.0055 1.1643 0.2630
C18 C -0.0305(7) 1.0581(7) 0.2988(4)
C19 C -0.0803(7) 1.0898(7) 0.3314(4)
H12 H -0.0705 1.1479 0.3434
C20 C -0.1410(9) 1.0395(9) 0.3458(5)
C21 C -0.1585(8) 0.9544(8) 0.3261(5)
H13 H -0.2033 0.9204 0.3349
C22 C -0.1126(9) 0.9191(8) 0.2944(4)
C23 C -0.0496(7) 0.9746(7) 0.2805(4)
H14 H -0.0194 0.9533 0.2575
C24 C -0.1924(10) 1.0792(9) 0.3835(6)
H15 H -0.1858 1.0396 0.4116
H16 H -0.2558 1.0859 0.3671
H17 H -0.1671 1.1365 0.3951
C25 C -0.1340(10) 0.8269(8) 0.2742(6)
H18 H -0.1740 0.8302 0.2412
H19 H -0.1629 0.7940 0.2957
H20 H -0.0787 0.7973 0.2726
C26 C 0.5302(9) 1.0399(8) 0.1917(6)
C27 C 0.6096(12) 1.0563(9) 0.2274(6)
H21 H 0.6108 1.0738 0.2599
C28 C 0.6898(11) 1.0441(9) 0.2104(6)
H22 H 0.7454 1.0548 0.2331
C29 C 0.6913(10) 1.0165(8) 0.1607(6)
C30 C 0.6111(12) 1.0068(10) 0.1297(6)
H23 H 0.6090 0.9910 0.0968
C31 C 0.5284(10) 1.0184(11) 0.1421(6)
H24 H 0.4736 1.0120 0.1181
C32 C 0.7840(11) 1.0011(10) 0.1506(8)
H25 H 0.7790 0.9560 0.1254
H26 H 0.8262 0.9820 0.1809
H27 H 0.8051 1.0557 0.1393
Br2 Br -0.02375(14) 0.82249(10) 0.15724(7)
S2 S -0.1728(2) 0.2973(2) 0.21761(15)
N3 N 0.2067(6) 0.2802(6) 0.2546(4)
N4 N -0.1544(7) 0.4011(6) 0.2050(3)
O4 O 0.1609(5) 0.3120(5) 0.3293(3)
O5 O -0.1308(5) 0.2426(5) 0.1868(3)
O6 O -0.1530(6) 0.2824(5) 0.2695(3)
C33 C 0.1502(9) 0.3153(8) 0.2833(6)
C34 C 0.0719(8) 0.3570(7) 0.2465(5)
C35 C 0.0900(7) 0.3415(7) 0.1968(4)
C36 C 0.1715(8) 0.2974(8) 0.2048(5)
C37 C 0.2052(9) 0.2723(7) 0.1669(5)
H28 H 0.2572 0.2371 0.1722
C38 C 0.1599(9) 0.3007(8) 0.1185(5)
H29 H 0.1845 0.2896 0.0915
C39 C 0.0798(8) 0.3445(8) 0.1117(5)
H30 H 0.0488 0.3600 0.0793
C40 C 0.0433(8) 0.3662(7) 0.1484(4)
H31 H -0.0115 0.3969 0.1424
C41 C 0.0029(8) 0.3976(7) 0.2601(4)
H32 H 0.0047 0.3982 0.2940
C42 C -0.0759(9) 0.4415(7) 0.2253(4)
C43 C -0.0657(9) 0.5336(7) 0.2081(5)
C44 C 0.0112(9) 0.5827(9) 0.2317(5)
H33 H 0.0553 0.5572 0.2576
C45 C 0.0224(9) 0.6706(9) 0.2164(6)
H34 H 0.0739 0.7038 0.2312
C46 C -0.0439(12) 0.7047(9) 0.1796(7)
C47 C -0.1203(12) 0.6614(10) 0.1567(5)
H35 H -0.1643 0.6881 0.1312
C48 C -0.1314(10) 0.5729(9) 0.1731(5)
H36 H -0.1849 0.5420 0.1593
C49 C 0.2909(6) 0.2356(6) 0.2780(4)
H37 H 0.3022 0.1900 0.2554
H38 H 0.2841 0.2059 0.3080
C50 C 0.3737(7) 0.2974(7) 0.2920(4)
C51 C 0.4502(8) 0.2645(7) 0.3218(4)
H39 H 0.4495 0.2063 0.3334
C52 C 0.5342(8) 0.3146(7) 0.3370(4)
C53 C 0.5262(8) 0.3973(7) 0.3180(4)
H40 H 0.5772 0.4337 0.3274
C54 C 0.4527(7) 0.4330(7) 0.2870(4)
C55 C 0.3783(7) 0.3824(7) 0.2744(4)
H41 H 0.3267 0.4061 0.2525
C56 C 0.6167(7) 0.2791(9) 0.3746(5)
H42 H 0.6645 0.3227 0.3801
H43 H 0.6367 0.2250 0.3621
H44 H 0.6013 0.2670 0.4056
C57 C 0.4534(9) 0.5270(7) 0.2656(5)
H45 H 0.4520 0.5232 0.2307
H46 H 0.5077 0.5575 0.2831
H47 H 0.4011 0.5593 0.2695
C58 C -0.2881(9) 0.2964(8) 0.1954(6)
C59 C -0.3252(9) 0.2866(7) 0.1431(5)
H48 H -0.2855 0.2792 0.1227
C60 C -0.4183(9) 0.2874(8) 0.1209(5)
H49 H -0.4406 0.2824 0.0864
C61 C -0.4757(10) 0.2959(8) 0.1515(7)
C62 C -0.4383(10) 0.3081(8) 0.2043(6)
H50 H -0.4770 0.3166 0.2251
C63 C -0.3473(11) 0.3073(9) 0.2241(5)
H51 H -0.3247 0.3145 0.2584
C64 C -0.5817(7) 0.3041(8) 0.1293(6)
H52 H -0.5943 0.3201 0.0946
H53 H -0.6053 0.3493 0.1472
H54 H -0.6100 0.2479 0.1327
Br3 Br 0.86964(11) 0.96823(9) 0.99850(6)
S3 S 1.0482(2) 0.45117(19) 0.94691(14)
N5 N 0.6672(6) 0.4267(6) 0.8955(4)
N6 N 1.0204(5) 0.5553(5) 0.9570(3)
O7 O 0.7129(5) 0.4612(5) 0.8271(3)
O8 O 1.0168(6) 0.3946(5) 0.9788(3)
O9 O 1.0252(6) 0.4292(5) 0.8942(3)
C65 C 0.7256(8) 0.4612(7) 0.8729(5)
C66 C 0.8031(7) 0.5001(7) 0.9126(4)
C67 C 0.7864(7) 0.4794(7) 0.9595(4)
C68 C 0.7013(8) 0.4348(7) 0.9466(5)
C69 C 0.6653(9) 0.4057(9) 0.9852(6)
H55 H 0.6107 0.3743 0.9780
C70 C 0.7101(9) 0.4232(8) 1.0341(5)
H56 H 0.6830 0.4072 1.0595
C71 C 0.7947(10) 0.4643(8) 1.0466(5)
H57 H 0.8272 0.4715 1.0797
C72 C 0.8288(8) 0.4946(7) 1.0066(5)
H58 H 0.8830 0.5265 1.0137
C73 C 0.8693(8) 0.5443(7) 0.8994(4)
H59 H 0.8685 0.5483 0.8657
C74 C 0.9449(7) 0.5878(7) 0.9375(4)
C75 C 0.9244(7) 0.6790(6) 0.9519(4)
C76 C 0.9793(8) 0.7167(7) 0.9966(4)
H60 H 1.0258 0.6836 1.0171
C77 C 0.9632(8) 0.8004(8) 1.0088(5)
H61 H 0.9989 0.8253 1.0380
C78 C 0.8941(8) 0.8507(7) 0.9785(5)
C79 C 0.8436(8) 0.8177(8) 0.9332(5)
H62 H 0.8007 0.8526 0.9114
C80 C 0.8598(7) 0.7317(7) 0.9221(4)
H63 H 0.8249 0.7076 0.8924
C81 C 0.5822(7) 0.3803(8) 0.8721(5)
H64 H 0.5747 0.3307 0.8933
H65 H 0.5865 0.3559 0.8403
C82 C 0.4980(8) 0.4400(7) 0.8633(4)
C83 C 0.5011(7) 0.5256(7) 0.8855(4)
H66 H 0.5548 0.5483 0.9058
C84 C 0.4193(9) 0.5754(7) 0.8756(4)
C85 C 0.3424(8) 0.5456(7) 0.8438(4)
H67 H 0.2895 0.5797 0.8372
C86 C 0.3437(8) 0.4604(8) 0.8205(5)
C87 C 0.4179(8) 0.4109(7) 0.8325(4)
H68 H 0.4155 0.3535 0.8194
C88 C 0.4189(9) 0.6653(8) 0.8988(5)
H69 H 0.4653 0.6678 0.9296
H70 H 0.3606 0.6759 0.9053
H71 H 0.4304 0.7102 0.8763
C89 C 0.2552(9) 0.4286(9) 0.7848(5)
H72 H 0.2049 0.4603 0.7918
H73 H 0.2478 0.3658 0.7894
H74 H 0.2572 0.4398 0.7509
C90 C 1.1673(8) 0.4559(6) 0.9705(5)
C91 C 1.2070(9) 0.4766(8) 1.0183(4)
H75 H 1.1730 0.4866 1.0415
C92 C 1.2968(9) 0.4819(8) 1.0309(5)
H76 H 1.3227 0.4972 1.0641
C93 C 1.3558(9) 0.4687(8) 1.0032(5)
C94 C 1.3172(10) 0.4462(8) 0.9559(6)
H77 H 1.3538 0.4332 0.9344
C95 C 1.2218(10) 0.4417(7) 0.9377(5)
H78 H 1.1957 0.4294 0.9042
C96 C 1.4562(10) 0.4760(9) 1.0215(6)
H79 H 1.4844 0.4448 0.9991
H80 H 1.4754 0.4501 1.0543
H81 H 1.4736 0.5377 1.0230
Br4 Br 0.65782(13) -0.33195(10) 1.00341(7)
S4 S 0.4509(2) 0.1929(2) 0.95519(14)
N7 N 0.7777(7) 0.2199(6) 0.9035(4)
N8 N 0.4856(5) 0.0883(5) 0.9642(3)
O10 O 0.6675(5) 0.1808(5) 0.8321(3)
O11 O 0.5112(5) 0.2441(5) 0.9934(3)
O12 O 0.4359(5) 0.2175(5) 0.9024(3)
C97 C 0.6983(8) 0.1808(7) 0.8766(5)
C98 C 0.6564(7) 0.1434(7) 0.9152(4)
C99 C 0.7181(7) 0.1621(7) 0.9645(4)
C100 C 0.7914(8) 0.2105(7) 0.9556(5)
C101 C 0.8608(9) 0.2412(8) 0.9925(5)
H82 H 0.9088 0.2723 0.9851
C102 C 0.8589(9) 0.2251(7) 1.0416(5)
H83 H 0.9052 0.2490 1.0670
C103 C 0.7892(8) 0.1733(7) 1.0555(5)
H84 H 0.7899 0.1588 1.0883
C104 C 0.7199(8) 0.1473(7) 1.0136(5)
H85 H 0.6705 0.1171 1.0200
C105 C 0.5790(8) 0.0966(7) 0.9040(4)
H86 H 0.5477 0.0917 0.8705
C106 C 0.5395(7) 0.0515(7) 0.9421(4)
C107 C 0.5654(7) -0.0418(6) 0.9551(5)
C108 C 0.5439(9) -0.0766(8) 0.9968(5)
H87 H 0.5138 -0.0421 1.0155
C109 C 0.5693(11) -0.1687(9) 1.0110(5)
H88 H 0.5527 -0.1944 1.0380
C110 C 0.6168(11) -0.2164(9) 0.9850(6)
C111 C 0.6355(8) -0.1813(8) 0.9418(7)
H89 H 0.6642 -0.2165 0.9227
C112 C 0.6112(7) -0.0928(8) 0.9272(5)
H90 H 0.6256 -0.0687 0.8992
C113 C 0.8386(7) 0.2657(8) 0.8783(4)
H91 H 0.8683 0.3143 0.8994
H92 H 0.8024 0.2917 0.8475
C114 C 0.9132(8) 0.2052(8) 0.8654(5)
C115 C 0.9301(7) 0.1156(8) 0.8842(4)
H93 H 0.8955 0.0913 0.9043
C116 C 0.9976(9) 0.0664(7) 0.8723(5)
C117 C 1.0398(8) 0.0997(7) 0.8384(5)
H94 H 1.0812 0.0637 0.8279
C118 C 1.0242(8) 0.1831(8) 0.8193(5)
C119 C 0.9580(8) 0.2355(7) 0.8322(4)
H95 H 0.9444 0.2916 0.8178
C120 C 1.0170(10) -0.0262(7) 0.8975(5)
H96 H 1.0711 -0.0508 0.8908
H97 H 0.9666 -0.0652 0.8843
H98 H 1.0254 -0.0199 0.9329
C121 C 1.0694(9) 0.2176(9) 0.7803(5)
H99 H 1.1281 0.1903 0.7850
H100 H 1.0763 0.2812 0.7835
H101 H 1.0325 0.2032 0.7476
C122 C 0.3470(7) 0.1843(7) 0.9700(4)
C123 C 0.2674(9) 0.2087(7) 0.9367(5)
H102 H 0.2683 0.2297 0.9052
C124 C 0.1832(9) 0.2020(7) 0.9503(5)
H103 H 0.1295 0.2209 0.9283
C125 C 0.1824(8) 0.1702(8) 0.9923(5)
C126 C 0.2600(8) 0.1477(8) 1.0253(4)
H104 H 0.2567 0.1271 1.0566
C127 C 0.3415(9) 0.1531(8) 1.0159(5)
H105 H 0.3936 0.1362 1.0400
C128 C 0.0914(8) 0.1639(7) 1.0050(5)
H106 H 0.0580 0.1139 0.9879
H107 H 0.0575 0.2178 0.9948
H108 H 0.1009 0.1562 1.0405
loop_
_geom_bond_atom_site_label_1
_geom_bond_atom_site_label_2
_geom_bond_site_symmetry_1
_geom_bond_site_symmetry_2
Br1 C14 1_555 1_555
S1 N2 1_555 1_555
N1 C1 1_555 1_555
N2 C10 1_555 1_555
O1 C1 1_555 1_555
O2 S1 1_555 1_555
O3 S1 1_555 1_555
C1 C2 1_555 1_555
C2 C3 1_555 1_555
C3 C4 1_555 1_555
C4 N1 1_555 1_555
C5 C4 1_555 1_555
H1 C5 1_555 1_555
C6 C5 1_555 1_555
H2 C6 1_555 1_555
C7 C6 1_555 1_555
H3 C7 1_555 1_555
C8 C3 1_555 1_555
H4 C8 1_555 1_555
C9 C2 1_555 1_555
H5 C9 1_555 1_555
C10 C9 1_555 1_555
C11 C10 1_555 1_555
C12 C11 1_555 1_555
H6 C12 1_555 1_555
C13 C12 1_555 1_555
H7 C13 1_555 1_555
C14 C13 1_555 1_555
C15 C14 1_555 1_555
H8 C15 1_555 1_555
C16 C11 1_555 1_555
H9 C16 1_555 1_555
C17 N1 1_555 1_555
H10 C17 1_555 1_555
H11 C17 1_555 1_555
C18 C17 1_555 1_555
C19 C18 1_555 1_555
H12 C19 1_555 1_555
C20 C19 1_555 1_555
C21 C20 1_555 1_555
H13 C21 1_555 1_555
C22 C21 1_555 1_555
C23 C18 1_555 1_555
H14 C23 1_555 1_555
C24 C20 1_555 1_555
H15 C24 1_555 1_555
H16 C24 1_555 1_555
H17 C24 1_555 1_555
C25 C22 1_555 1_555
H18 C25 1_555 1_555
H19 C25 1_555 1_555
H20 C25 1_555 1_555
C26 S1 1_555 1_555
C27 C26 1_555 1_555
H21 C27 1_555 1_555
C28 C27 1_555 1_555
H22 C28 1_555 1_555
C29 C28 1_555 1_555
C30 C29 1_555 1_555
H23 C30 1_555 1_555
C31 C26 1_555 1_555
H24 C31 1_555 1_555
C32 C29 1_555 1_555
H25 C32 1_555 1_555
H26 C32 1_555 1_555
H27 C32 1_555 1_555
Br2 C46 1_555 1_555
S2 N4 1_555 1_555
N3 C33 1_555 1_555
N4 C42 1_555 1_555
O4 C33 1_555 1_555
O5 S2 1_555 1_555
O6 S2 1_555 1_555
C33 C34 1_555 1_555
C34 C35 1_555 1_555
C35 C36 1_555 1_555
C36 N3 1_555 1_555
C37 C36 1_555 1_555
H28 C37 1_555 1_555
C38 C37 1_555 1_555
H29 C38 1_555 1_555
C39 C38 1_555 1_555
H30 C39 1_555 1_555
C40 C35 1_555 1_555
H31 C40 1_555 1_555
C41 C34 1_555 1_555
H32 C41 1_555 1_555
C42 C41 1_555 1_555
C43 C42 1_555 1_555
C44 C43 1_555 1_555
H33 C44 1_555 1_555
C45 C44 1_555 1_555
H34 C45 1_555 1_555
C46 C45 1_555 1_555
C47 C46 1_555 1_555
H35 C47 1_555 1_555
C48 C43 1_555 1_555
H36 C48 1_555 1_555
C49 N3 1_555 1_555
H37 C49 1_555 1_555
H38 C49 1_555 1_555
C50 C49 1_555 1_555
C51 C50 1_555 1_555
H39 C51 1_555 1_555
C52 C51 1_555 1_555
C53 C52 1_555 1_555
H40 C53 1_555 1_555
C54 C53 1_555 1_555
C55 C50 1_555 1_555
H41 C55 1_555 1_555
C56 C52 1_555 1_555
H42 C56 1_555 1_555
H43 C56 1_555 1_555
H44 C56 1_555 1_555
C57 C54 1_555 1_555
H45 C57 1_555 1_555
H46 C57 1_555 1_555
H47 C57 1_555 1_555
C58 S2 1_555 1_555
C59 C58 1_555 1_555
H48 C59 1_555 1_555
C60 C59 1_555 1_555
H49 C60 1_555 1_555
C61 C60 1_555 1_555
C62 C61 1_555 1_555
H50 C62 1_555 1_555
C63 C58 1_555 1_555
H51 C63 1_555 1_555
C64 C61 1_555 1_555
H52 C64 1_555 1_555
H53 C64 1_555 1_555
H54 C64 1_555 1_555
Br3 C78 1_555 1_555
S3 N6 1_555 1_555
N5 C65 1_555 1_555
N6 C74 1_555 1_555
O7 C65 1_555 1_555
O8 S3 1_555 1_555
O9 S3 1_555 1_555
C65 C66 1_555 1_555
C66 C67 1_555 1_555
C67 C68 1_555 1_555
C68 N5 1_555 1_555
C69 C68 1_555 1_555
H55 C69 1_555 1_555
C70 C69 1_555 1_555
H56 C70 1_555 1_555
C71 C70 1_555 1_555
H57 C71 1_555 1_555
C72 C67 1_555 1_555
H58 C72 1_555 1_555
C73 C66 1_555 1_555
H59 C73 1_555 1_555
C74 C73 1_555 1_555
C75 C74 1_555 1_555
C76 C75 1_555 1_555
H60 C76 1_555 1_555
C77 C76 1_555 1_555
H61 C77 1_555 1_555
C78 C77 1_555 1_555
C79 C78 1_555 1_555
H62 C79 1_555 1_555
C80 C75 1_555 1_555
H63 C80 1_555 1_555
C81 N5 1_555 1_555
H64 C81 1_555 1_555
H65 C81 1_555 1_555
C82 C81 1_555 1_555
C83 C82 1_555 1_555
H66 C83 1_555 1_555
C84 C83 1_555 1_555
C85 C84 1_555 1_555
H67 C85 1_555 1_555
C86 C85 1_555 1_555
C87 C82 1_555 1_555
H68 C87 1_555 1_555
C88 C84 1_555 1_555
H69 C88 1_555 1_555
H70 C88 1_555 1_555
H71 C88 1_555 1_555
C89 C86 1_555 1_555
H72 C89 1_555 1_555
H73 C89 1_555 1_555
H74 C89 1_555 1_555
C90 S3 1_555 1_555
C91 C90 1_555 1_555
H75 C91 1_555 1_555
C92 C91 1_555 1_555
H76 C92 1_555 1_555
C93 C92 1_555 1_555
C94 C93 1_555 1_555
H77 C94 1_555 1_555
C95 C90 1_555 1_555
H78 C95 1_555 1_555
C96 C93 1_555 1_555
H79 C96 1_555 1_555
H80 C96 1_555 1_555
H81 C96 1_555 1_555
Br4 C110 1_555 1_555
S4 N8 1_555 1_555
N7 C97 1_555 1_555
N8 C106 1_555 1_555
O10 C97 1_555 1_555
O11 S4 1_555 1_555
O12 S4 1_555 1_555
C97 C98 1_555 1_555
C98 C99 1_555 1_555
C99 C100 1_555 1_555
C100 N7 1_555 1_555
C101 C100 1_555 1_555
H82 C101 1_555 1_555
C102 C101 1_555 1_555
H83 C102 1_555 1_555
C103 C102 1_555 1_555
H84 C103 1_555 1_555
C104 C99 1_555 1_555
H85 C104 1_555 1_555
C105 C98 1_555 1_555
H86 C105 1_555 1_555
C106 C105 1_555 1_555
C107 C106 1_555 1_555
C108 C107 1_555 1_555
H87 C108 1_555 1_555
C109 C108 1_555 1_555
H88 C109 1_555 1_555
C110 C109 1_555 1_555
C111 C110 1_555 1_555
H89 C111 1_555 1_555
C112 C107 1_555 1_555
H90 C112 1_555 1_555
C113 N7 1_555 1_555
H91 C113 1_555 1_555
H92 C113 1_555 1_555
C114 C113 1_555 1_555
C115 C114 1_555 1_555
H93 C115 1_555 1_555
C116 C115 1_555 1_555
C117 C116 1_555 1_555
H94 C117 1_555 1_555
C118 C117 1_555 1_555
C119 C114 1_555 1_555
H95 C119 1_555 1_555
C120 C116 1_555 1_555
H96 C120 1_555 1_555
H97 C120 1_555 1_555
H98 C120 1_555 1_555
C121 C118 1_555 1_555
H99 C121 1_555 1_555
H100 C121 1_555 1_555
H101 C121 1_555 1_555
C122 S4 1_555 1_555
C123 C122 1_555 1_555
H102 C123 1_555 1_555
C124 C123 1_555 1_555
H103 C124 1_555 1_555
C125 C124 1_555 1_555
C126 C125 1_555 1_555
H104 C126 1_555 1_555
C127 C122 1_555 1_555
H105 C127 1_555 1_555
C128 C125 1_555 1_555
H106 C128 1_555 1_555
H107 C128 1_555 1_555
H108 C128 1_555 1_555
C7 C8 1_555 1_555
C15 C16 1_555 1_555
C22 C23 1_555 1_555
C30 C31 1_555 1_555
C39 C40 1_555 1_555
C47 C48 1_555 1_555
C54 C55 1_555 1_555
C62 C63 1_555 1_555
C71 C72 1_555 1_555
C79 C80 1_555 1_555
C86 C87 1_555 1_555
C94 C95 1_555 1_555
C103 C104 1_555 1_555
C111 C112 1_555 1_555
C118 C119 1_555 1_555
C126 C127 1_555 1_555

#END
