
#######################################################################
#
#                 Cambridge Crystallographic Data Centre
#                                CCDC 
#
#######################################################################
#
# If this CIF has been generated from an entry in the Cambridge 
# Structural Database, then it will include bibliographic, chemical, 
# crystal, experimental, refinement or atomic coordinate data resulting 
# from the CCDC's data processing and validation procedures.
#
#######################################################################

data_ROKBOK
_chemical_name_common            
'tetraethylammonium O6-chaplet[3]arene[3]tetrazine chloride unknown solvate'
_chemical_formula_moiety         'C24 H12 N12 O6,2.5(Cl1 1-),2.5(C8 H20 N1 1+)'
_chemical_name_systematic        
'tetraethylammonium 2,7,12,17,22,27-hexaoxa-4,5,14,15,24,25,33,34,37,38,41,42-dodecaazaheptacyclo[26.2.2.2^3,6^.2^8,11^.2^13,16^.2^18,21^.2^23,26^]dotetraconta-1(30),3,5,8,10,13,15,18,20,23,25,28,31,33,35,37,39,41-octadecaene chloride unknown solvate'
_symmetry_cell_setting           monoclinic
_symmetry_space_group_name_H-M   'C 2/c'
_symmetry_Int_Tables_number      15
_space_group_name_Hall           '-C 2yn'
loop_
_symmetry_equiv_pos_site_id
_symmetry_equiv_pos_as_xyz
1 x,y,z
2 -x,y,1/2-z
3 1/2+x,1/2+y,z
4 1/2-x,1/2+y,1/2-z
5 -x,-y,-z
6 x,-y,1/2+z
7 1/2-x,1/2-y,-z
8 1/2+x,1/2-y,1/2+z
_cell_length_a                   21.727(6)
_cell_length_b                   27.690(6)
_cell_length_c                   20.742(5)
_cell_angle_alpha                90
_cell_angle_beta                 119.029(3)
_cell_angle_gamma                90
_cell_volume                     10911.2
_exptl_crystal_colour            orange
_exptl_crystal_description       block
_cell_formula_units_Z            8
loop_
_atom_site_label
_atom_site_type_symbol
_atom_site_fract_x
_atom_site_fract_y
_atom_site_fract_z
Cl1 Cl 0.5000 0.54171(8) 0.7500
Cl2 Cl 0.83493(8) 0.44510(5) 0.57377(8)
Cl3 Cl 0.71131(14) 0.73267(8) 0.83411(11)
O1 O 0.5091(2) 0.55738(17) 0.5635(3)
O2 O 0.6586(3) 0.72861(17) 0.6336(3)
O3 O 0.9056(4) 0.73457(18) 0.8650(3)
O4 O 1.0000(2) 0.58138(16) 1.0616(3)
O5 O 0.8442(2) 0.42780(15) 1.0054(2)
O6 O 0.5822(2) 0.41851(15) 0.7540(2)
N1 N 0.7559(5) 0.7724(2) 0.7088(4)
N2 N 0.8204(5) 0.7734(2) 0.7677(4)
N3 N 0.8235(4) 0.68778(19) 0.7692(3)
N4 N 0.7598(3) 0.68669(18) 0.7094(3)
N5 N 0.9840(3) 0.50712(19) 1.0985(3)
N6 N 0.9444(3) 0.4681(2) 1.0844(3)
N7 N 0.8805(3) 0.49061(17) 0.9585(3)
N8 N 0.9198(2) 0.52896(17) 0.9724(2)
N9 N 0.5028(3) 0.4490(2) 0.6432(3)
N10 N 0.4843(3) 0.4843(2) 0.5960(3)
N11 N 0.6003(3) 0.51509(18) 0.6556(3)
N12 N 0.6195(2) 0.47923(16) 0.7052(3)
C1 C 0.5519(3) 0.5989(2) 0.5848(4)
C2 C 0.5654(4) 0.6200(3) 0.5328(4)
H1 H 0.5498 0.6052 0.4861
C3 C 0.6020(4) 0.6630(3) 0.5501(4)
H2 H 0.6127 0.6781 0.5156
C4 C 0.6230(4) 0.6840(2) 0.6184(4)
C5 C 0.6090(4) 0.6627(3) 0.6705(4)
H3 H 0.6246 0.6774 0.7172
C6 C 0.5722(4) 0.6199(3) 0.6529(4)
H4 H 0.5608 0.6049 0.6870
C7 C 0.7260(5) 0.7286(3) 0.6878(4)
C8 C 0.8448(5) 0.7310(2) 0.8000(4)
C9 C 0.9244(5) 0.6935(3) 0.9112(4)
C10 C 0.9950(6) 0.6792(3) 0.9413(6)
H5 H 1.0256 0.6953 0.9277
C11 C 1.0199(5) 0.6409(3) 0.9914(5)
H6 H 1.0675 0.6305 1.0125
C12 C 0.9737(4) 0.6185(2) 1.0094(4)
C13 C 0.9040(3) 0.6333(2) 0.9793(3)
H7 H 0.8730 0.6173 0.9926
C14 C 0.8801(4) 0.6715(2) 0.9299(4)
H8 H 0.8327 0.6821 0.9094
C15 C 0.9643(3) 0.5387(2) 1.0438(3)
C16 C 0.8885(3) 0.4644(2) 1.0158(3)
C17 C 0.7780(3) 0.4270(2) 0.9394(3)
C18 C 0.7618(3) 0.3880(2) 0.8937(4)
H9 H 0.7956 0.3632 0.9046
C19 C 0.6967(3) 0.3846(2) 0.8319(3)
H10 H 0.6843 0.3574 0.8001
C20 C 0.6496(3) 0.42250(19) 0.8176(3)
C21 C 0.6650(3) 0.4620(2) 0.8639(3)
H11 H 0.6311 0.4867 0.8534
C22 C 0.7313(3) 0.4646(2) 0.9262(3)
H12 H 0.7442 0.4915 0.9588
C23 C 0.5679(3) 0.4519(2) 0.7013(3)
C24 C 0.5321(3) 0.5180(2) 0.6081(3)
N13 N 0.8082(2) 0.54020(16) 0.7221(2)
C25 C 0.8745(3) 0.5420(2) 0.7149(4)
H13 H 0.8660 0.5236 0.6704
H14 H 0.9128 0.5255 0.7581
C26 C 0.8993(4) 0.5932(3) 0.7094(5)
H15 H 0.8596 0.6117 0.6720
H16 H 0.9364 0.5910 0.6956
H17 H 0.9178 0.6094 0.7573
C27 C 0.8250(3) 0.5608(2) 0.7962(3)
H18 H 0.8418 0.5944 0.7991
H19 H 0.8641 0.5420 0.8351
C28 C 0.7643(4) 0.5611(3) 0.8127(3)
H20 H 0.7287 0.5843 0.7803
H21 H 0.7816 0.5704 0.8642
H22 H 0.7434 0.5288 0.8042
C29 C 0.7843(3) 0.4879(2) 0.7139(3)
H23 H 0.7796 0.4751 0.6672
H24 H 0.7370 0.4870 0.7100
C30 C 0.8332(4) 0.4544(2) 0.7770(4)
H25 H 0.8131 0.4218 0.7680
H26 H 0.8383 0.4666 0.8237
H27 H 0.8795 0.4534 0.7797
C31 C 0.7492(3) 0.5683(2) 0.6625(3)
H28 H 0.7610 0.6030 0.6714
H29 H 0.7065 0.5630 0.6673
C32 C 0.7312(4) 0.5569(3) 0.5843(3)
H30 H 0.6979 0.5811 0.5511
H31 H 0.7098 0.5248 0.5709
H32 H 0.7742 0.5576 0.5800
N14 N 0.3356(3) 0.6522(2) 0.4929(3)
C33 C 0.4071(7) 0.6695(5) 0.5312(8)
H33 H 0.4209 0.6715 0.5842
H34 H 0.4370 0.6444 0.5265
C34 C 0.4243(10) 0.7113(7) 0.5128(10)
H35 H 0.3879 0.7206 0.4632
H36 H 0.4695 0.7080 0.5136
H37 H 0.4281 0.7363 0.5481
C35 C 0.3389(15) 0.6145(9) 0.5451(13)
H38 H 0.3743 0.5915 0.5464
H39 H 0.2931 0.5976 0.5179
C36 C 0.3521(8) 0.6151(6) 0.6223(8)
H40 H 0.3132 0.6316 0.6244
H41 H 0.3962 0.6322 0.6535
H42 H 0.3556 0.5818 0.6399
C37 C 0.2951(11) 0.6374(8) 0.4118(12)
H43 H 0.2793 0.6664 0.3798
H44 H 0.2532 0.6180 0.4022
C38 C 0.3473(8) 0.6067(6) 0.3963(9)
H45 H 0.3208 0.5890 0.3499
H46 H 0.3724 0.5837 0.4367
H47 H 0.3814 0.6282 0.3927
C39 C 0.2919(11) 0.6835(7) 0.5091(11)
H48 H 0.3109 0.6813 0.5631
H49 H 0.3023 0.7167 0.4994
C40 C 0.2166(7) 0.6815(5) 0.4777(7)
H50 H 0.1982 0.6539 0.4440
H51 H 0.1958 0.7114 0.4506
H52 H 0.2045 0.6777 0.5172
N15? N 0.0000 0.6738(3) 0.2500
C41? C -0.0239(9) 0.7194(6) 0.2112(9)
H53? H -0.0744 0.7189 0.1863
H54? H -0.0100 0.7189 0.1738
C42? C 0.0000 0.7647(5) 0.2500
H55? H -0.0204 0.7906 0.2153
H56? H -0.0151 0.7669 0.2864
H57? H 0.0504 0.7669 0.2737
C43? C 0.0773(5) 0.6715(6) 0.2685(7)
H58? H 0.0972 0.6418 0.2940
H59? H 0.1026 0.6979 0.3003
C44? C 0.0850(7) 0.6740(5) 0.1976(6)
H60? H 0.1333 0.6723 0.2087
H61? H 0.0593 0.6474 0.1664
H62? H 0.0648 0.7038 0.1727
C45? C -0.0314(6) 0.6295(4) 0.2089(7)
H63? H -0.0250 0.6299 0.1662
H64? H -0.0812 0.6299 0.1919
C46? C 0.0000 0.5817(4) 0.2500
H65? H -0.0231 0.5548 0.2182
H66? H 0.0495 0.5804 0.2661
H67? H -0.0073 0.5804 0.2921
C47? C 0.0095(6) 0.6749(4) 0.3254(6)
H68? H -0.0336 0.6681 0.3258
H69? H 0.0285 0.7050 0.3501
C48? C 0.0313 0.6505 0.3632
H70? H 0.0428 0.6463 0.4138
H71? H 0.0111 0.6212 0.3365
H72? H 0.0732 0.6581 0.3608
loop_
_geom_bond_atom_site_label_1
_geom_bond_atom_site_label_2
_geom_bond_site_symmetry_1
_geom_bond_site_symmetry_2
O1 C1 1_555 1_555
O2 C4 1_555 1_555
O3 C8 1_555 1_555
O4 C12 1_555 1_555
O5 C16 1_555 1_555
O6 C20 1_555 1_555
N1 N2 1_555 1_555
N2 C8 1_555 1_555
N3 N4 1_555 1_555
N4 C7 1_555 1_555
N5 N6 1_555 1_555
N6 C16 1_555 1_555
N7 N8 1_555 1_555
N8 C15 1_555 1_555
N9 N10 1_555 1_555
N10 C24 1_555 1_555
N11 N12 1_555 1_555
N12 C23 1_555 1_555
C1 C2 1_555 1_555
C2 H1 1_555 1_555
C3 C2 1_555 1_555
H2 C3 1_555 1_555
C4 C3 1_555 1_555
C5 C4 1_555 1_555
H3 C5 1_555 1_555
C6 C1 1_555 1_555
H4 C6 1_555 1_555
C7 O2 1_555 1_555
C8 N3 1_555 1_555
C9 O3 1_555 1_555
C10 C9 1_555 1_555
H5 C10 1_555 1_555
C11 C10 1_555 1_555
H6 C11 1_555 1_555
C12 C11 1_555 1_555
C13 C12 1_555 1_555
H7 C13 1_555 1_555
C14 C9 1_555 1_555
H8 C14 1_555 1_555
C15 O4 1_555 1_555
C16 N7 1_555 1_555
C17 O5 1_555 1_555
C18 C17 1_555 1_555
H9 C18 1_555 1_555
C19 C18 1_555 1_555
H10 C19 1_555 1_555
C20 C19 1_555 1_555
C21 C20 1_555 1_555
H11 C21 1_555 1_555
C22 C17 1_555 1_555
H12 C22 1_555 1_555
C23 O6 1_555 1_555
C24 O1 1_555 1_555
N13 C25 1_555 1_555
C25 H13 1_555 1_555
H14 C25 1_555 1_555
C26 C25 1_555 1_555
H15 C26 1_555 1_555
H16 C26 1_555 1_555
H17 C26 1_555 1_555
C27 N13 1_555 1_555
H18 C27 1_555 1_555
H19 C27 1_555 1_555
C28 C27 1_555 1_555
H20 C28 1_555 1_555
H21 C28 1_555 1_555
H22 C28 1_555 1_555
C29 N13 1_555 1_555
H23 C29 1_555 1_555
H24 C29 1_555 1_555
C30 C29 1_555 1_555
H25 C30 1_555 1_555
H26 C30 1_555 1_555
H27 C30 1_555 1_555
C31 N13 1_555 1_555
H28 C31 1_555 1_555
H29 C31 1_555 1_555
C32 C31 1_555 1_555
H30 C32 1_555 1_555
H31 C32 1_555 1_555
H32 C32 1_555 1_555
N14 C33 1_555 1_555
C33 H33 1_555 1_555
H34 C33 1_555 1_555
C34 C33 1_555 1_555
H35 C34 1_555 1_555
H36 C34 1_555 1_555
H37 C34 1_555 1_555
C35 N14 1_555 1_555
H38 C35 1_555 1_555
H39 C35 1_555 1_555
C36 C35 1_555 1_555
H40 C36 1_555 1_555
H41 C36 1_555 1_555
H42 C36 1_555 1_555
C37 N14 1_555 1_555
H43 C37 1_555 1_555
H44 C37 1_555 1_555
C38 C37 1_555 1_555
H45 C38 1_555 1_555
H46 C38 1_555 1_555
H47 C38 1_555 1_555
C39 N14 1_555 1_555
H48 C39 1_555 1_555
H49 C39 1_555 1_555
C40 C39 1_555 1_555
H50 C40 1_555 1_555
H51 C40 1_555 1_555
H52 C40 1_555 1_555
N1 C7 1_555 1_555
N5 C15 1_555 1_555
N9 C23 1_555 1_555
N11 C24 1_555 1_555
C5 C6 1_555 1_555
C13 C14 1_555 1_555
C21 C22 1_555 1_555

#END
