
#######################################################################
#
#                 Cambridge Crystallographic Data Centre
#                                CCDC 
#
#######################################################################
#
# If this CIF has been generated from an entry in the Cambridge 
# Structural Database, then it will include bibliographic, chemical, 
# crystal, experimental, refinement or atomic coordinate data resulting 
# from the CCDC's data processing and validation procedures.
#
#######################################################################

data_ROKGAA
_chemical_formula_moiety         'C52 H60 N24 O12,C4 H8 O2,14(H2 O1)'
_chemical_name_systematic        
'sym-Tetracyclohexana-cucurbit(6)uril 1,4-dioxane clathrate tetradecahydrate'
_symmetry_cell_setting           monoclinic
_symmetry_space_group_name_H-M   'C 2/m'
_symmetry_Int_Tables_number      12
_space_group_name_Hall           '-C 2y'
loop_
_symmetry_equiv_pos_site_id
_symmetry_equiv_pos_as_xyz
1 x,y,z
2 1/2+x,1/2+y,z
3 -x,y,-z
4 1/2-x,1/2+y,-z
5 -x,-y,-z
6 1/2-x,1/2-y,-z
7 x,-y,z
8 1/2+x,1/2-y,z
_cell_length_a                   14.9924(4)
_cell_length_b                   18.5287(4)
_cell_length_c                   12.4688(3)
_cell_angle_alpha                90.00
_cell_angle_beta                 91.869(2)
_cell_angle_gamma                90.00
_cell_volume                     3461.86
_cell_formula_units_Z            2
loop_
_atom_site_label
_atom_site_type_symbol
_atom_site_fract_x
_atom_site_fract_y
_atom_site_fract_z
C17 C 0.0505(7) 0.0000 0.4123(10)
H19 H 0.0718 0.0421 0.3747
H20 H 0.0718 -0.0421 0.3747
C18 C -0.0331(8) 0.0000 0.4040(10)
H21 H -0.0477 0.0417 0.3599
H22 H -0.0477 -0.0417 0.3599
O5 O 0.0935(8) 0.0000 0.5217(13)
C17D C -0.0505(7) 0.0000 0.5877(10)
H19D H -0.0718 -0.0421 0.6253
H19B H -0.0718 0.0421 0.6253
C18D C 0.0331(8) 0.0000 0.5960(10)
H21D H 0.0477 -0.0417 0.6401
H21B H 0.0477 0.0417 0.6401
O5D O -0.0935(8) 0.0000 0.4783(13)
O6 O 0.8305(4) 0.2514(3) 0.0603(5)
O7 O 1.2300(8) 0.4221(12) 0.2636(9)
O8 O 0.9678(8) 0.4337(7) 0.3540(12)
O9 O 0.6327(9) 0.0000 0.4191(12)
O10 O 1.0000 0.2996(13) 0.0000
C1 C 0.8974(4) 0.2548(3) 0.4244(4)
H1 H 0.8417 0.2448 0.3852
H2 H 0.9028 0.3067 0.4316
C2 C 0.9559(3) 0.1849(3) 0.2766(4)
C3 C 1.0605(3) 0.2521(3) 0.3771(4)
C4 C 1.1067(3) 0.2137(3) 0.2806(4)
C5 C 0.8231(3) 0.1787(3) 0.5562(4)
C6 C 1.0422(4) 0.1309(3) 0.1322(4)
H3 H 0.9831 0.1274 0.0986
H4 H 1.0793 0.1582 0.0844
C7 C 1.2444(3) 0.1320(3) 0.2822(4)
H5 H 1.2966 0.1283 0.3299
H6 H 1.2612 0.1598 0.2201
C8 C 1.0252(5) 0.0000 0.1356(6)
C9 C 1.1739(3) 0.0421(3) 0.1450(4)
C10 C 1.2479(4) 0.0000 0.3019(6)
C11 C 1.2231(4) 0.0734(4) 0.0511(5)
H7 H 1.2298 0.1251 0.0604
H8 H 1.1888 0.0649 -0.0150
C12 C 1.3164(4) 0.0377(5) 0.0442(6)
H9 H 1.3437 0.0543 -0.0208
H10 H 1.3534 0.0543 0.1045
C13 C 1.0590(9) 0.3363(6) 0.3685(10)
H11 H 1.0216 0.3547 0.4242
H12 H 1.1191 0.3538 0.3837
C14 C 1.0262(10) 0.3688(9) 0.2613(11)
H13 H 0.9617 0.3654 0.2548
H14 H 1.0425 0.4195 0.2585
C15 C 1.1384(9) 0.2746(8) 0.2077(13)
H15 H 1.1860 0.3006 0.2455
H16 H 1.1636 0.2530 0.1446
C16 C 1.0672(10) 0.3291(8) 0.1707(13)
H17 H 1.0940 0.3638 0.1231
H18 H 1.0206 0.3039 0.1301
N1 N 0.9694(3) 0.2288(2) 0.3633(4)
N2 N 1.0358(3) 0.1709(2) 0.2332(3)
N3 N 0.8933(3) 0.2232(2) 0.5304(4)
N4 N 1.1767(3) 0.1705(2) 0.3361(3)
N5 N 1.0784(3) 0.0597(2) 0.1439(4)
N6 N 1.2195(3) 0.0605(2) 0.2471(4)
O1 O 0.8828(2) 0.1617(2) 0.2423(3)
O2 O 0.9438(3) 0.0000 0.1250(4)
O3 O 0.7679(2) 0.1539(2) 0.4919(3)
O4 O 1.2958(3) 0.0000 0.3818(4)
C1B C 1.1026(4) 0.2548(3) 0.5756(4)
C1D C 1.1026(4) -0.2548(3) 0.5756(4)
C1F C 0.8974(4) -0.2548(3) 0.4244(4)
H1B H 1.1583 0.2448 0.6148
H1D H 1.1583 -0.2448 0.6148
H1F H 0.8417 -0.2448 0.3852
H2B H 1.0972 0.3067 0.5684
H2D H 1.0972 -0.3067 0.5684
H2F H 0.9028 -0.3067 0.4316
C2B C 1.0441(3) 0.1849(3) 0.7234(4)
C2D C 1.0441(3) -0.1849(3) 0.7234(4)
C2F C 0.9559(3) -0.1849(3) 0.2766(4)
C3B C 0.9395(3) 0.2521(3) 0.6229(4)
C3F C 1.0605(3) -0.2521(3) 0.3771(4)
C3D C 0.9395(3) -0.2521(3) 0.6229(4)
C4B C 0.8933(3) 0.2137(3) 0.7194(4)
C4F C 1.1067(3) -0.2137(3) 0.2806(4)
C4D C 0.8933(3) -0.2137(3) 0.7194(4)
C5B C 1.1769(3) 0.1787(3) 0.4438(4)
C5F C 0.8231(3) -0.1787(3) 0.5562(4)
C5D C 1.1769(3) -0.1787(3) 0.4438(4)
C6B C 0.9578(4) 0.1309(3) 0.8678(4)
C6D C 0.9578(4) -0.1309(3) 0.8678(4)
C6F C 1.0422(4) -0.1309(3) 0.1322(4)
H3B H 1.0169 0.1274 0.9014
H3D H 1.0169 -0.1274 0.9014
H3F H 0.9831 -0.1274 0.0986
H4B H 0.9207 0.1582 0.9156
H4D H 0.9207 -0.1582 0.9156
H4F H 1.0793 -0.1582 0.0844
C7B C 0.7556(3) 0.1320(3) 0.7178(4)
C7D C 0.7556(3) -0.1320(3) 0.7178(4)
C7F C 1.2444(3) -0.1320(3) 0.2822(4)
H5B H 0.7034 0.1283 0.6701
H5D H 0.7034 -0.1283 0.6701
H5F H 1.2966 -0.1283 0.3299
H6B H 0.7388 0.1598 0.7799
H6D H 0.7388 -0.1598 0.7799
H6F H 1.2612 -0.1598 0.2201
C8D C 0.9748(5) 0.0000 0.8644(6)
C9B C 0.8261(3) 0.0421(3) 0.8550(4)
C9D C 0.8261(3) -0.0421(3) 0.8550(4)
C9F C 1.1739(3) -0.0421(3) 0.1450(4)
C10D C 0.7521(4) 0.0000 0.6981(6)
C11D C 0.7769(4) -0.0734(4) 0.9489(5)
C11B C 0.7769(4) 0.0734(4) 0.9489(5)
C11F C 1.2231(4) -0.0734(4) 0.0511(5)
H7D H 0.7702 -0.1251 0.9396
H7F H 1.2298 -0.1251 0.0604
H7B H 0.7702 0.1251 0.9396
H8D H 0.8112 -0.0649 1.0150
H8F H 1.1888 -0.0649 -0.0150
H8B H 0.8112 0.0649 1.0150
C12D C 0.6836(4) -0.0377(5) 0.9558(6)
C12B C 0.6836(4) 0.0377(5) 0.9558(6)
C12F C 1.3164(4) -0.0377(5) 0.0442(6)
H9F H 1.3437 -0.0543 -0.0208
H9B H 0.6563 0.0543 1.0208
H9D H 0.6563 -0.0543 1.0208
H10F H 1.3534 -0.0543 0.1045
H10B H 0.6466 0.0543 0.8955
H10D H 0.6466 -0.0543 0.8955
C13B C 0.9410(9) 0.3363(6) 0.6315(10)
C13F C 1.0590(9) -0.3363(6) 0.3685(10)
C13D C 0.9410(9) -0.3363(6) 0.6315(10)
H11B H 0.9784 0.3547 0.5758
H11D H 0.9784 -0.3547 0.5758
H11F H 1.0216 -0.3547 0.4242
H12B H 0.8809 0.3538 0.6163
H12D H 0.8809 -0.3538 0.6163
H12F H 1.1191 -0.3538 0.3837
C14B C 0.9738(10) 0.3688(9) 0.7387(11)
C14F C 1.0262(10) -0.3688(9) 0.2613(11)
C14D C 0.9738(10) -0.3688(9) 0.7387(11)
H13B H 1.0383 0.3654 0.7452
H13D H 1.0383 -0.3654 0.7452
H13F H 0.9617 -0.3654 0.2548
H14B H 0.9575 0.4195 0.7415
H14D H 0.9575 -0.4195 0.7415
H14F H 1.0425 -0.4195 0.2585
C15B C 0.8616(9) 0.2746(8) 0.7923(13)
C15F C 1.1384(9) -0.2746(8) 0.2077(13)
C15D C 0.8616(9) -0.2746(8) 0.7923(13)
H15F H 1.1860 -0.3006 0.2455
H15D H 0.8140 -0.3006 0.7545
H15B H 0.8140 0.3006 0.7545
H16F H 1.1636 -0.2530 0.1446
H16D H 0.8364 -0.2530 0.8554
H16B H 0.8364 0.2530 0.8554
C16B C 0.9328(10) 0.3291(8) 0.8293(13)
C16F C 1.0672(10) -0.3291(8) 0.1707(13)
C16D C 0.9328(10) -0.3291(8) 0.8293(13)
H17D H 0.9060 -0.3638 0.8769
H17F H 1.0940 -0.3638 0.1231
H17B H 0.9060 0.3638 0.8769
H18D H 0.9794 -0.3039 0.8699
H18F H 1.0206 -0.3039 0.1301
H18B H 0.9794 0.3039 0.8699
N1B N 1.0306(3) 0.2288(2) 0.6367(4)
N1D N 1.0306(3) -0.2288(2) 0.6367(4)
N1F N 0.9694(3) -0.2288(2) 0.3633(4)
N2B N 0.9642(3) 0.1709(2) 0.7668(3)
N2D N 0.9642(3) -0.1709(2) 0.7668(3)
N2F N 1.0358(3) -0.1709(2) 0.2332(3)
N3B N 1.1067(3) 0.2232(2) 0.4696(4)
N3D N 1.1067(3) -0.2232(2) 0.4696(4)
N3F N 0.8933(3) -0.2232(2) 0.5304(4)
N4B N 0.8233(3) 0.1705(2) 0.6639(3)
N4D N 0.8233(3) -0.1705(2) 0.6639(3)
N4F N 1.1767(3) -0.1705(2) 0.3361(3)
N5B N 0.9216(3) 0.0597(2) 0.8561(4)
N5D N 0.9216(3) -0.0597(2) 0.8561(4)
N5F N 1.0784(3) -0.0597(2) 0.1439(4)
N6B N 0.7805(3) 0.0605(2) 0.7529(4)
N6D N 0.7805(3) -0.0605(2) 0.7529(4)
N6F N 1.2195(3) -0.0605(2) 0.2471(4)
O1F O 0.8828(2) -0.1617(2) 0.2423(3)
O1D O 1.1172(2) -0.1617(2) 0.7577(3)
O1B O 1.1172(2) 0.1617(2) 0.7577(3)
O2D O 1.0562(3) 0.0000 0.8750(4)
O3F O 0.7679(2) -0.1539(2) 0.4919(3)
O3D O 1.2321(2) -0.1539(2) 0.5081(3)
O3B O 1.2321(2) 0.1539(2) 0.5081(3)
O4D O 0.7042(3) 0.0000 0.6182(4)
loop_
_geom_bond_atom_site_label_1
_geom_bond_atom_site_label_2
_geom_bond_site_symmetry_1
_geom_bond_site_symmetry_2
C1 H1 1_555 1_555
H2 C1 1_555 1_555
C2 N1 1_555 1_555
C3 C4 1_555 1_555
C4 C15 1_555 1_555
C5 N3 1_555 1_555
C6 H3 1_555 1_555
H4 C6 1_555 1_555
C7 H5 1_555 1_555
H6 C7 1_555 1_555
C8 N5 1_555 1_555
C9 C11 1_555 1_555
C10 N6 1_555 1_555
C11 H7 1_555 1_555
H8 C11 1_555 1_555
C12 C11 1_555 1_555
H9 C12 1_555 1_555
H10 C12 1_555 1_555
C13 C3 1_555 1_555
H11 C13 1_555 1_555
H12 C13 1_555 1_555
C14 C13 1_555 1_555
H13 C14 1_555 1_555
H14 C14 1_555 1_555
C15 H15 1_555 1_555
H16 C15 1_555 1_555
C16 C14 1_555 1_555
H17 C16 1_555 1_555
H18 C16 1_555 1_555
N1 C1 1_555 1_555
N2 C2 1_555 1_555
N3 C1 1_555 1_555
N4 C4 1_555 1_555
N5 C6 1_555 1_555
N6 C7 1_555 1_555
O1 C2 1_555 1_555
O2 C8 1_555 1_555
O3 C5 1_555 1_555
O4 C10 1_555 1_555
C17 H19 1_555 1_555
H20 C17 1_555 1_555
C18 C17 1_555 1_555
H21 C18 1_555 1_555
H22 C18 1_555 1_555
O5 C17 1_555 1_555
C1B H1B 1_555 1_555
C1D H1D 1_555 1_555
C1F H1F 1_555 1_555
H2B C1B 1_555 1_555
H2D C1D 1_555 1_555
H2F C1F 1_555 1_555
C2B N1B 1_555 1_555
C2D N1D 1_555 1_555
C2F N1F 1_555 1_555
C3B N3 1_555 1_555
C3F C4F 1_555 1_555
C3D C4D 1_555 1_555
C4B C3B 1_555 1_555
C4F C15F 1_555 1_555
C4D C15D 1_555 1_555
C5B N4 1_555 1_555
C5F N3F 1_555 1_555
C5D N3D 1_555 1_555
C6B H3B 1_555 1_555
C6D H3D 1_555 1_555
C6F H3F 1_555 1_555
H4B C6B 1_555 1_555
H4D C6D 1_555 1_555
H4F C6F 1_555 1_555
C7B H5B 1_555 1_555
C7D H5D 1_555 1_555
C7F H5F 1_555 1_555
H6B C7B 1_555 1_555
H6D C7D 1_555 1_555
H6F C7F 1_555 1_555
C8D N5B 1_555 1_555
C9B C9D 1_555 1_555
C9D C11D 1_555 1_555
C9F C9 1_555 1_555
C10D N6B 1_555 1_555
C11D H7D 1_555 1_555
C11B C9B 1_555 1_555
C11F C9F 1_555 1_555
H7F C11F 1_555 1_555
H7B C11B 1_555 1_555
H8D C11D 1_555 1_555
H8F C11F 1_555 1_555
H8B C11B 1_555 1_555
C12D C11D 1_555 1_555
C12B C11B 1_555 1_555
C12F C12 1_555 1_555
H9F C12F 1_555 1_555
H9B C12B 1_555 1_555
H9D C12D 1_555 1_555
H10F C12F 1_555 1_555
H10B C12B 1_555 1_555
H10D C12D 1_555 1_555
C13B C3B 1_555 1_555
C13F C3F 1_555 1_555
C13D C3D 1_555 1_555
H11B C13B 1_555 1_555
H11D C13D 1_555 1_555
H11F C13F 1_555 1_555
H12B C13B 1_555 1_555
H12D C13D 1_555 1_555
H12F C13F 1_555 1_555
C14B C13B 1_555 1_555
C14F C13F 1_555 1_555
C14D C13D 1_555 1_555
H13B C14B 1_555 1_555
H13D C14D 1_555 1_555
H13F C14F 1_555 1_555
H14B C14B 1_555 1_555
H14D C14D 1_555 1_555
H14F C14F 1_555 1_555
C15B C4B 1_555 1_555
C15F H15F 1_555 1_555
C15D H15D 1_555 1_555
H15B C15B 1_555 1_555
H16F C15F 1_555 1_555
H16D C15D 1_555 1_555
H16B C15B 1_555 1_555
C16B C14B 1_555 1_555
C16F C14F 1_555 1_555
C16D C14D 1_555 1_555
H17D C16D 1_555 1_555
H17F C16F 1_555 1_555
H17B C16B 1_555 1_555
H18D C16D 1_555 1_555
H18F C16F 1_555 1_555
H18B C16B 1_555 1_555
N1B C1B 1_555 1_555
N1D C1D 1_555 1_555
N1F C1F 1_555 1_555
N2B C2B 1_555 1_555
N2D C2D 1_555 1_555
N2F C2F 1_555 1_555
N3B C3 1_555 1_555
N3D C1D 1_555 1_555
N3F C1F 1_555 1_555
N4B C5 1_555 1_555
N4D C4D 1_555 1_555
N4F C4F 1_555 1_555
N5B C6B 1_555 1_555
N5D C6D 1_555 1_555
N5F C8 1_555 1_555
N6B C7B 1_555 1_555
N6D C7D 1_555 1_555
N6F C10 1_555 1_555
O1F C2F 1_555 1_555
O1D C2D 1_555 1_555
O1B C2B 1_555 1_555
O2D C8D 1_555 1_555
O3F C5F 1_555 1_555
O3D C5D 1_555 1_555
O3B C5B 1_555 1_555
O4D C10D 1_555 1_555
C17D H19D 1_555 1_555
H19B C17D 1_555 1_555
C18D O5 1_555 1_555
H21D C18D 1_555 1_555
H21B C18D 1_555 1_555
O5D C18 1_555 1_555
C3 N1 1_555 1_555
C4 N2 1_555 1_555
C6 N2 1_555 1_555
C7 N4 1_555 1_555
C9 N5 1_555 1_555
C9 N6 1_555 1_555
C15 C16 1_555 1_555
C1B N3B 1_555 1_555
C3B N1B 1_555 1_555
C3F N1F 1_555 1_555
C3F N3D 1_555 1_555
C3D N1D 1_555 1_555
C3D N3F 1_555 1_555
C4B N2B 1_555 1_555
C4B N4B 1_555 1_555
C4F N2F 1_555 1_555
C4D N2D 1_555 1_555
C5B N3B 1_555 1_555
C5F N4D 1_555 1_555
C5D N4F 1_555 1_555
C6B N2B 1_555 1_555
C6D N2D 1_555 1_555
C6F N2F 1_555 1_555
C6F N5F 1_555 1_555
C7B N4B 1_555 1_555
C7D N4D 1_555 1_555
C7F N4F 1_555 1_555
C7F N6F 1_555 1_555
C8D N5D 1_555 1_555
C9B N5B 1_555 1_555
C9B N6B 1_555 1_555
C9D N5D 1_555 1_555
C9D N6D 1_555 1_555
C9F N5F 1_555 1_555
C9F N6F 1_555 1_555
C10D N6D 1_555 1_555
C11F C12F 1_555 1_555
C12D C12B 1_555 1_555
C15B C16B 1_555 1_555
C15F C16F 1_555 1_555
C15D C16D 1_555 1_555
C17D C18D 1_555 1_555
C17D O5D 1_555 1_555

#END
