
#######################################################################
#
#                 Cambridge Crystallographic Data Centre
#                                CCDC 
#
#######################################################################
#
# If this CIF has been generated from an entry in the Cambridge 
# Structural Database, then it will include bibliographic, chemical, 
# crystal, experimental, refinement or atomic coordinate data resulting 
# from the CCDC's data processing and validation procedures.
#
#######################################################################

data_ROKRAK
_chemical_formula_moiety         'C62 H72 N4 O8'
_chemical_name_systematic        
5,11,17,23-Tetra-t-butyl-26,28-dihydroxy-25,27-bis(2-(p-nitrobenzylideneamino)ethoxy)calix(4)arene
_symmetry_cell_setting           triclinic
_symmetry_space_group_name_H-M   'P -1'
_symmetry_Int_Tables_number      2
_space_group_name_Hall           '-P 1'
loop_
_symmetry_equiv_pos_site_id
_symmetry_equiv_pos_as_xyz
1 x,y,z
2 -x,-y,-z
_cell_length_a                   12.702(3)
_cell_length_b                   14.653(3)
_cell_length_c                   17.715(2)
_cell_angle_alpha                88.722(12)
_cell_angle_beta                 77.38(2)
_cell_angle_gamma                66.64(2)
_cell_volume                     2946.14
_exptl_crystal_colour            yellow
_exptl_crystal_description       prism
_chemical_melting_point          530-531K
_cell_formula_units_Z            2
loop_
_atom_site_label
_atom_site_type_symbol
_atom_site_fract_x
_atom_site_fract_y
_atom_site_fract_z
O1 O 0.7565(2) 0.79175(15) 0.41337(12)
O2 O 0.0978(3) 0.7126(3) 0.4811(2)
O3 O 0.0472(4) 0.8681(4) 0.4990(3)
O4 O 0.6065(2) 0.7308(2) 0.34692(13)
H1 H 0.6367(2) 0.7568(2) 0.37112(13)
O5 O 0.7357(2) 0.52891(15) 0.25631(12)
O6 O 1.4014(4) 0.4836(3) 0.3577(3)
O7 O 1.4549(4) 0.3987(4) 0.2486(3)
O8 O 0.8787(2) 0.6317(2) 0.28280(12)
H2 H 0.8508(2) 0.5942(2) 0.27017(12)
N1 N 0.6062(3) 0.7786(2) 0.5545(2)
N2 N 0.1201(4) 0.7842(4) 0.4945(3)
N3 N 0.9095(3) 0.3712(2) 0.3093(2)
N4 N 1.3839(5) 0.4402(4) 0.3067(4)
C1 C 0.7597(3) 0.8594(2) 0.3567(2)
C2 C 0.6522(3) 0.9326(2) 0.3485(2)
C3 C 0.6555(3) 0.9976(2) 0.2909(2)
H3 H 0.5850(3) 1.0480(2) 0.2856(2)
C4 C 0.7590(4) 0.9906(3) 0.2409(2)
C5 C 0.8623(3) 0.9143(3) 0.2499(2)
H4 H 0.9328(3) 0.9076(3) 0.2164(2)
C6 C 0.8648(3) 0.8473(2) 0.3071(2)
C7 C 0.7590(4) 1.0653(3) 0.1798(3)
C8 C 0.8599(7) 1.0219(5) 0.1122(4)
H5 H 0.9320(7) 0.9967(5) 0.1296(4)
H6 H 0.8604(7) 1.0724(5) 0.0769(4)
H7 H 0.8525(7) 0.9685(5) 0.0865(4)
C9 C 0.6494(6) 1.1033(6) 0.1511(4)
H8 H 0.6393(6) 1.0485(6) 0.1296(4)
H9 H 0.6543(6) 1.1485(6) 0.1118(4)
H10 H 0.5834(6) 1.1375(6) 0.1933(4)
C10 C 0.7740(8) 1.1502(5) 0.2129(4)
H11 H 0.8451(8) 1.1259(5) 0.2315(4)
H12 H 0.7079(8) 1.1844(5) 0.2550(4)
H13 H 0.7787(8) 1.1954(5) 0.1734(4)
C11 C 0.5347(3) 0.9402(2) 0.3982(2)
H14 H 0.5485(3) 0.9015(2) 0.4429(2)
H15 H 0.4869(3) 1.0091(2) 0.4170(2)
C12 C 0.7669(3) 0.8214(3) 0.4874(2)
H16 H 0.7159(3) 0.8910(3) 0.5016(2)
H17 H 0.8474(3) 0.8122(3) 0.4853(2)
C13 C 0.7307(3) 0.7564(3) 0.5455(2)
H18 H 0.7771(3) 0.6868(3) 0.5281(2)
H19 H 0.7455(3) 0.7682(3) 0.5951(2)
C14 C 0.5778(4) 0.7138(3) 0.5289(2)
H20 H 0.6369(4) 0.6510(3) 0.5120(2)
C15 C 0.4573(4) 0.7315(3) 0.5244(2)
C16 C 0.3636(4) 0.8216(3) 0.5486(2)
H21 H 0.3758(4) 0.8713(3) 0.5725(2)
C17 C 0.2539(4) 0.8401(4) 0.5388(3)
H22 H 0.1921(4) 0.9019(4) 0.5546(3)
C18 C 0.2370(4) 0.7656(4) 0.5051(2)
C19 C 0.3262(5) 0.6764(4) 0.4812(3)
H23 H 0.3129(5) 0.6267(4) 0.4584(3)
C20 C 0.4360(4) 0.6592(3) 0.4905(2)
H24 H 0.4973(4) 0.5975(3) 0.4736(2)
C21 C 0.5061(3) 0.8027(2) 0.3311(2)
C22 C 0.4448(3) 0.7707(2) 0.2889(2)
C23 C 0.3432(3) 0.8389(3) 0.2733(2)
H25 H 0.3010(3) 0.8168(3) 0.2469(2)
C24 C 0.2999(3) 0.9404(2) 0.2953(2)
C25 C 0.3641(3) 0.9695(2) 0.3357(2)
H26 H 0.3372(3) 1.0366(2) 0.3512(2)
C26 C 0.4671(3) 0.9031(2) 0.3544(2)
C27 C 0.1871(3) 1.0147(3) 0.2743(3)
C28 C 0.1566(5) 1.1178(3) 0.3010(4)
H27 H 0.1492(5) 1.1221(3) 0.3560(4)
H28 H 0.0832(5) 1.1603(3) 0.2890(4)
H29 H 0.2173(5) 1.1386(3) 0.2754(4)
C29 C 0.0854(4) 0.9864(4) 0.3104(4)
H30 H 0.1041(4) 0.9189(4) 0.2935(4)
H31 H 0.0156(4) 1.0302(4) 0.2949(4)
H32 H 0.0722(4) 0.9923(4) 0.3659(4)
C30 C 0.1988(6) 1.0065(5) 0.1892(4)
H33 H 0.2188(6) 0.9386(5) 0.1724(4)
H34 H 0.2597(6) 1.0270(5) 0.1632(4)
H35 H 0.1255(6) 1.0486(5) 0.1769(4)
C31 C 0.4979(3) 0.6629(2) 0.2562(2)
H36 H 0.4391(3) 0.6477(2) 0.2387(2)
H37 H 0.5236(3) 0.6188(2) 0.2962(2)
C32 C 0.7161(3) 0.5819(2) 0.1902(2)
C33 C 0.8126(3) 0.5758(2) 0.1327(2)
C34 C 0.7926(3) 0.6354(2) 0.0711(2)
H38 H 0.8568(3) 0.6317(2) 0.0321(2)
C35 C 0.6815(3) 0.6997(2) 0.0654(2)
C36 C 0.5873(3) 0.7042(2) 0.1251(2)
H39 H 0.5116(3) 0.7474(2) 0.1224(2)
C37 C 0.6023(3) 0.6465(2) 0.1886(2)
C38 C 0.6612(4) 0.7681(3) -0.0008(2)
C39 C 0.5387(13) 0.8536(11) 0.0141(8)
H40 H 0.5325(13) 0.8934(11) -0.0298(8)
H41 H 0.5272(13) 0.8943(11) 0.0594(8)
H42 H 0.4797(13) 0.8268(11) 0.0221(8)
C41 C 0.7405(18) 0.8218(16) -0.0092(13)
H46 H 0.7278(18) 0.8650(16) -0.0508(13)
H47 H 0.8210(18) 0.7744(16) -0.0204(13)
H48 H 0.7240(18) 0.8606(16) 0.0382(13)
C43 C 0.6766(23) 0.7163(11) -0.0705(9)
H52 H 0.6631(23) 0.7620(11) -0.1106(9)
H53 H 0.6218(23) 0.6852(11) -0.0641(9)
H54 H 0.7556(23) 0.6663(11) -0.0847(9)
C45 C 0.9380(3) 0.5120(2) 0.1376(2)
H58 H 0.9370(3) 0.4672(2) 0.1787(2)
H59 H 0.9799(3) 0.4718(2) 0.0892(2)
C46 C 0.7394(3) 0.4304(2) 0.2532(2)
H60 H 0.7896(3) 0.3940(2) 0.2047(2)
H61 H 0.6611(3) 0.4325(2) 0.2575(2)
C47 C 0.7884(4) 0.3815(3) 0.3206(2)
H62 H 0.7413(4) 0.4215(3) 0.3683(2)
H63 H 0.7855(4) 0.3164(3) 0.3245(2)
C48 C 0.9329(4) 0.4254(3) 0.3517(2)
H64 H 0.8731(4) 0.4657(3) 0.3922(2)
C49 C 1.0494(4) 0.4282(3) 0.3404(2)
C50 C 1.1417(4) 0.3715(3) 0.2813(2)
H65 H 1.1301(4) 0.3295(3) 0.2484(2)
C51 C 1.2497(5) 0.3752(4) 0.2696(3)
H66 H 1.3113(5) 0.3359(4) 0.2296(3)
C52 C 1.2654(5) 0.4381(4) 0.3180(3)
C53 C 1.1769(5) 0.4972(3) 0.3754(3)
H67 H 1.1887(5) 0.5406(3) 0.4068(3)
C54 C 1.0689(4) 0.4921(3) 0.3869(2)
H68 H 1.0075(4) 0.5325(3) 0.4266(2)
C55 C 0.9688(3) 0.6312(2) 0.2233(2)
C56 C 1.0248(3) 0.6917(2) 0.2366(2)
C57 C 1.1165(3) 0.6934(2) 0.1787(2)
H69 H 1.1546(3) 0.7335(2) 0.1875(2)
C58 C 1.1549(3) 0.6378(3) 0.1077(2)
C59 C 1.0951(3) 0.5798(2) 0.0977(2)
H70 H 1.1180(3) 0.5423(2) 0.0508(2)
C60 C 1.0029(3) 0.5742(2) 0.1535(2)
C61 C 1.2556(4) 0.6436(3) 0.0458(2)
C62 C 1.2446(7) 0.7463(5) 0.0374(4)
H71 H 1.2283(7) 0.7787(5) 0.0877(4)
H72 H 1.1814(7) 0.7815(5) 0.0125(4)
H73 H 1.3169(7) 0.7463(5) 0.0066(4)
C63 C 1.3684(5) 0.6009(7) 0.0771(4)
H74 H 1.3551(5) 0.6358(7) 0.1258(4)
H75 H 1.4316(5) 0.6090(7) 0.0406(4)
H76 H 1.3887(5) 0.5314(7) 0.0843(4)
C64 C 1.2796(6) 0.5904(6) -0.0252(3)
H77 H 1.2857(6) 0.5238(6) -0.0159(3)
H78 H 1.3524(6) 0.5878(6) -0.0571(3)
H79 H 1.2170(6) 0.6230(6) -0.0512(3)
C65 C 0.9792(3) 0.7596(2) 0.3097(2)
H80 H 1.0377(3) 0.7841(2) 0.3158(2)
H81 H 0.9660(3) 0.7223(2) 0.3541(2)
C40? C 0.6165(19) 0.8730(11) 0.0297(10)
H43? H 0.6038(19) 0.9159(11) -0.0122(10)
H44? H 0.6731(19) 0.8817(11) 0.0536(10)
H45? H 0.5435(19) 0.8895(11) 0.0673(10)
C42? C 0.7777(10) 0.7456(11) -0.0651(7)
H49? H 0.7608(10) 0.7904(11) -0.1054(7)
H50? H 0.8077(10) 0.6782(11) -0.0866(7)
H51? H 0.8353(10) 0.7545(11) -0.0425(7)
C44? C 0.5786(14) 0.7509(16) -0.0424(10)
H55? H 0.5663(14) 0.7944(16) -0.0838(10)
H56? H 0.5046(14) 0.7645(16) -0.0066(10)
H57? H 0.6121(14) 0.6829(16) -0.0631(10)
loop_
_geom_bond_atom_site_label_1
_geom_bond_atom_site_label_2
_geom_bond_site_symmetry_1
_geom_bond_site_symmetry_2
O1 C1 1_555 1_555
O2 N2 1_555 1_555
O3 N2 1_555 1_555
O4 H1 1_555 1_555
O5 C32 1_555 1_555
O6 N4 1_555 1_555
O7 N4 1_555 1_555
O8 H2 1_555 1_555
N1 C13 1_555 1_555
N2 C18 1_555 1_555
N3 C47 1_555 1_555
N4 C52 1_555 1_555
C1 C2 1_555 1_555
C2 C3 1_555 1_555
C3 H3 1_555 1_555
C4 C3 1_555 1_555
C5 C4 1_555 1_555
H4 C5 1_555 1_555
C6 C1 1_555 1_555
C7 C4 1_555 1_555
C8 C7 1_555 1_555
H5 C8 1_555 1_555
H6 C8 1_555 1_555
H7 C8 1_555 1_555
C9 C7 1_555 1_555
H8 C9 1_555 1_555
H9 C9 1_555 1_555
H10 C9 1_555 1_555
C10 C7 1_555 1_555
H11 C10 1_555 1_555
H12 C10 1_555 1_555
H13 C10 1_555 1_555
C11 C2 1_555 1_555
H14 C11 1_555 1_555
H15 C11 1_555 1_555
C12 O1 1_555 1_555
H16 C12 1_555 1_555
H17 C12 1_555 1_555
C13 C12 1_555 1_555
H18 C13 1_555 1_555
H19 C13 1_555 1_555
C14 N1 1_555 1_555
H20 C14 1_555 1_555
C15 C14 1_555 1_555
C16 C15 1_555 1_555
H21 C16 1_555 1_555
C17 C16 1_555 1_555
H22 C17 1_555 1_555
C18 C17 1_555 1_555
C19 C18 1_555 1_555
H23 C19 1_555 1_555
C20 C15 1_555 1_555
H24 C20 1_555 1_555
C21 O4 1_555 1_555
C22 C21 1_555 1_555
C23 C22 1_555 1_555
H25 C23 1_555 1_555
C24 C23 1_555 1_555
C25 C24 1_555 1_555
H26 C25 1_555 1_555
C26 C11 1_555 1_555
C27 C24 1_555 1_555
C28 C27 1_555 1_555
H27 C28 1_555 1_555
H28 C28 1_555 1_555
H29 C28 1_555 1_555
C29 C27 1_555 1_555
H30 C29 1_555 1_555
H31 C29 1_555 1_555
H32 C29 1_555 1_555
C30 C27 1_555 1_555
H33 C30 1_555 1_555
H34 C30 1_555 1_555
H35 C30 1_555 1_555
C31 C22 1_555 1_555
H36 C31 1_555 1_555
H37 C31 1_555 1_555
C32 C33 1_555 1_555
C33 C34 1_555 1_555
C34 H38 1_555 1_555
C35 C34 1_555 1_555
C36 C35 1_555 1_555
H39 C36 1_555 1_555
C37 C31 1_555 1_555
C38 C35 1_555 1_555
C39 C38 1_555 1_555
H40 C39 1_555 1_555
H41 C39 1_555 1_555
H42 C39 1_555 1_555
C41 C38 1_555 1_555
H46 C41 1_555 1_555
H47 C41 1_555 1_555
H48 C41 1_555 1_555
C43 C38 1_555 1_555
H52 C43 1_555 1_555
H53 C43 1_555 1_555
H54 C43 1_555 1_555
C45 C33 1_555 1_555
H58 C45 1_555 1_555
H59 C45 1_555 1_555
C46 O5 1_555 1_555
H60 C46 1_555 1_555
H61 C46 1_555 1_555
C47 C46 1_555 1_555
H62 C47 1_555 1_555
H63 C47 1_555 1_555
C48 N3 1_555 1_555
H64 C48 1_555 1_555
C49 C48 1_555 1_555
C50 C49 1_555 1_555
H65 C50 1_555 1_555
C51 C50 1_555 1_555
H66 C51 1_555 1_555
C52 C51 1_555 1_555
C53 C52 1_555 1_555
H67 C53 1_555 1_555
C54 C49 1_555 1_555
H68 C54 1_555 1_555
C55 O8 1_555 1_555
C56 C55 1_555 1_555
C57 C56 1_555 1_555
H69 C57 1_555 1_555
C58 C57 1_555 1_555
C59 C58 1_555 1_555
H70 C59 1_555 1_555
C60 C45 1_555 1_555
C61 C58 1_555 1_555
C62 C61 1_555 1_555
H71 C62 1_555 1_555
H72 C62 1_555 1_555
H73 C62 1_555 1_555
C63 C61 1_555 1_555
H74 C63 1_555 1_555
H75 C63 1_555 1_555
H76 C63 1_555 1_555
C64 C61 1_555 1_555
H77 C64 1_555 1_555
H78 C64 1_555 1_555
H79 C64 1_555 1_555
C65 C6 1_555 1_555
H80 C65 1_555 1_555
H81 C65 1_555 1_555
C5 C6 1_555 1_555
C19 C20 1_555 1_555
C21 C26 1_555 1_555
C25 C26 1_555 1_555
C32 C37 1_555 1_555
C36 C37 1_555 1_555
C53 C54 1_555 1_555
C55 C60 1_555 1_555
C56 C65 1_555 1_555
C59 C60 1_555 1_555

#END
