
#######################################################################
#
#                 Cambridge Crystallographic Data Centre
#                                CCDC 
#
#######################################################################
#
# If this CIF has been generated from an entry in the Cambridge 
# Structural Database, then it will include bibliographic, chemical, 
# crystal, experimental, refinement or atomic coordinate data resulting 
# from the CCDC's data processing and validation procedures.
#
#######################################################################

data_ROKWOF
_chemical_formula_moiety         'C19 H15 O3 P1'
_chemical_name_systematic        
(6-oxido-6H-dibenzo[c,e][1,2]oxaphosphinin-6-yl)(phenyl)methanol
_symmetry_cell_setting           orthorhombic
_symmetry_space_group_name_H-M   'P 21 21 21'
_symmetry_Int_Tables_number      19
_space_group_name_Hall           'P 2ac 2ab'
loop_
_symmetry_equiv_pos_site_id
_symmetry_equiv_pos_as_xyz
1 x,y,z
2 1/2-x,-y,1/2+z
3 -x,1/2+y,1/2-z
4 1/2+x,1/2-y,-z
_cell_length_a                   4.9310(10)
_cell_length_b                   16.100(3)
_cell_length_c                   19.376(4)
_cell_angle_alpha                90
_cell_angle_beta                 90
_cell_angle_gamma                90
_cell_volume                     1538.24
_exptl_crystal_colour            colorless
_exptl_crystal_description       block
_cell_formula_units_Z            4
loop_
_atom_site_label
_atom_site_type_symbol
_atom_site_fract_x
_atom_site_fract_y
_atom_site_fract_z
P1 P -0.02440(10) 0.11459(3) 0.89385(2)
O1 O 0.3117(3) 0.05873(9) 0.98619(6)
H1 H 0.4552 0.0834 0.9799
O2 O -0.2289(3) 0.13555(9) 0.94638(7)
O3 O -0.1673(3) 0.08060(9) 0.82564(6)
C1 C 0.1791(4) 0.19753(12) 0.86349(9)
C2 C 0.2049(4) 0.03211(12) 0.92128(9)
H2 H 0.3533 0.0271 0.8879
C3 C -0.0257(5) 0.07453(12) 0.76342(9)
C4 C 0.3028(5) 0.11666(15) 0.68232(10)
H3 H 0.4457 0.1508 0.6689
C5 C 0.5314(5) 0.31882(14) 0.81937(12)
H4 H 0.6525 0.3593 0.8045
C6 C 0.1838(4) 0.12893(12) 0.74687(9)
C7 C -0.2608(5) -0.13838(15) 0.98363(13)
H5 H -0.3853 -0.1472 1.0189
C8 C -0.1126(5) 0.01261(14) 0.71935(11)
H6 H -0.2525 -0.0228 0.7324
C9 C 0.2703(4) 0.19562(12) 0.79459(10)
C10 C -0.1285(5) -0.06372(14) 0.97886(11)
H7 H -0.1666 -0.0219 1.0105
C11 C 0.2617(5) 0.25967(13) 0.90829(11)
H8 H 0.1958 0.2607 0.9532
C12 C 0.0617(4) -0.04995(12) 0.92742(10)
C13 C 0.2148(6) 0.05548(17) 0.63775(11)
H9 H 0.2968 0.0495 0.5948
C14 C -0.2106(5) -0.20014(15) 0.93653(15)
H10 H -0.3019 -0.2505 0.9397
C15 C 0.4455(5) 0.25882(14) 0.77403(11)
H11 H 0.5056 0.2604 0.7286
C16 C -0.0252(6) -0.18737(14) 0.88477(14)
H12 H 0.0095 -0.2291 0.8528
C17 C 0.0087(6) 0.00372(15) 0.65622(12)
H13 H -0.0494 -0.0375 0.6261
C18 C 0.1102(5) -0.11225(15) 0.88020(11)
H14 H 0.2350 -0.1037 0.8449
C19 C 0.4405(5) 0.31978(14) 0.88663(12)
H15 H 0.4996 0.3606 0.9170
loop_
_geom_bond_atom_site_label_1
_geom_bond_atom_site_label_2
_geom_bond_site_symmetry_1
_geom_bond_site_symmetry_2
P1 O2 1_555 1_555
O1 H1 1_555 1_555
O3 P1 1_555 1_555
C1 P1 1_555 1_555
C2 P1 1_555 1_555
H2 C2 1_555 1_555
C3 O3 1_555 1_555
C4 H3 1_555 1_555
C5 H4 1_555 1_555
C6 C3 1_555 1_555
C7 H5 1_555 1_555
C8 C3 1_555 1_555
H6 C8 1_555 1_555
C9 C1 1_555 1_555
C10 C7 1_555 1_555
H7 C10 1_555 1_555
C11 C1 1_555 1_555
H8 C11 1_555 1_555
C12 C2 1_555 1_555
C13 C4 1_555 1_555
H9 C13 1_555 1_555
C14 C7 1_555 1_555
H10 C14 1_555 1_555
C15 C5 1_555 1_555
H11 C15 1_555 1_555
C16 C14 1_555 1_555
H12 C16 1_555 1_555
C17 C8 1_555 1_555
H13 C17 1_555 1_555
C18 C12 1_555 1_555
H14 C18 1_555 1_555
C19 C5 1_555 1_555
H15 C19 1_555 1_555
O1 C2 1_555 1_555
C4 C6 1_555 1_555
C6 C9 1_555 1_555
C9 C15 1_555 1_555
C10 C12 1_555 1_555
C11 C19 1_555 1_555
C13 C17 1_555 1_555
C16 C18 1_555 1_555

#END
