
#######################################################################
#
#                 Cambridge Crystallographic Data Centre
#                                CCDC 
#
#######################################################################
#
# If this CIF has been generated from an entry in the Cambridge 
# Structural Database, then it will include bibliographic, chemical, 
# crystal, experimental, refinement or atomic coordinate data resulting 
# from the CCDC's data processing and validation procedures.
#
#######################################################################

data_ROKXOG
_chemical_formula_moiety         'C19 H17 Cl2 N3 O3'
_chemical_name_systematic        
1-((2-(2-chloro-4-(4-chlorophenoxy)phenyl)-4-methyl-1,3-dioxolan-2-yl)methyl)-1H-1,2,4-triazole
_symmetry_cell_setting           monoclinic
_symmetry_space_group_name_H-M   'C 2/c'
_symmetry_Int_Tables_number      15
_space_group_name_Hall           '-C 2yn'
loop_
_symmetry_equiv_pos_site_id
_symmetry_equiv_pos_as_xyz
1 x,y,z
2 -x,y,1/2-z
3 1/2+x,1/2+y,z
4 1/2-x,1/2+y,1/2-z
5 -x,-y,-z
6 x,-y,1/2+z
7 1/2-x,1/2-y,-z
8 1/2+x,1/2-y,1/2+z
_cell_length_a                   25.792(7)
_cell_length_b                   10.020(3)
_cell_length_c                   15.054(4)
_cell_angle_alpha                90
_cell_angle_beta                 93.337(5)
_cell_angle_gamma                90
_cell_volume                     3883.9
_exptl_crystal_colour            colorless
_exptl_crystal_description       block
_cell_formula_units_Z            8
loop_
_atom_site_label
_atom_site_type_symbol
_atom_site_fract_x
_atom_site_fract_y
_atom_site_fract_z
Cl1 Cl 0.32128(4) 0.20653(13) 0.19919(11)
Cl2 Cl -0.07327(3) 0.48895(7) 0.12173(6)
O1 O 0.12068(8) 0.47739(19) 0.13971(16)
O2 O -0.05533(7) 0.04735(17) 0.05726(13)
O3 O -0.10325(7) 0.19563(18) 0.13113(12)
N1 N -0.22209(10) 0.1047(3) -0.05584(18)
N2 N -0.14225(11) 0.0552(3) -0.10118(18)
N3 N -0.14030(8) 0.1645(2) -0.04830(15)
C1 C 0.16805(10) 0.4111(3) 0.1531(2)
C2 C 0.20374(14) 0.4192(3) 0.0893(2)
H1 H 0.1960 0.4652 0.0366
C3 C 0.25133(14) 0.3580(4) 0.1049(3)
H2 H 0.2762 0.3636 0.0627
C4 C 0.26182(12) 0.2897(3) 0.1816(3)
C5 C 0.22650(14) 0.2815(3) 0.2451(2)
H3 H 0.2342 0.2343 0.2975
C6 C 0.17937(13) 0.3441(3) 0.2308(2)
H4 H 0.1551 0.3409 0.2741
C7 C 0.07657(10) 0.4002(3) 0.12365(18)
C8 C 0.02986(10) 0.4654(3) 0.13118(18)
H5 H 0.0293 0.5544 0.1486
C9 C -0.01622(10) 0.3973(2) 0.11257(17)
C10 C -0.01713(10) 0.2633(2) 0.08805(17)
C11 C 0.03084(10) 0.2008(3) 0.08224(18)
H6 H 0.0316 0.1112 0.0663
C12 C 0.07750(10) 0.2679(3) 0.09953(19)
H7 H 0.1090 0.2239 0.0948
C13 C -0.06686(10) 0.1843(2) 0.06440(17)
C14 C -0.09212(10) 0.2326(3) -0.02400(18)
H8 H -0.0988 0.3277 -0.0200
H9 H -0.0681 0.2190 -0.0704
C15 C -0.18760(11) 0.1914(3) -0.0229(2)
H10 H -0.1955 0.2626 0.0135
C16 C -0.19187(14) 0.0248(3) -0.1025(2)
H11 H -0.2054 -0.0483 -0.1341
C17 C -0.09891(15) 0.0768(3) 0.1833(2)
H12 H -0.1319 0.0543 0.2073
H13 H -0.0730 0.0871 0.2321
C18 C -0.08324(15) -0.0259(3) 0.1211(2)
H14 H -0.1148 -0.0614 0.0904
C19 C -0.05244(18) -0.1402(4) 0.1569(3)
H15 H -0.0461 -0.2011 0.1095
H16 H -0.0713 -0.1851 0.2012
H17 H -0.0199 -0.1087 0.1832
loop_
_geom_bond_atom_site_label_1
_geom_bond_atom_site_label_2
_geom_bond_site_symmetry_1
_geom_bond_site_symmetry_2
Cl1 C4 1_555 1_555
Cl2 C9 1_555 1_555
O1 C1 1_555 1_555
O2 C13 1_555 1_555
O3 C13 1_555 1_555
N1 C15 1_555 1_555
N2 N3 1_555 1_555
N3 C14 1_555 1_555
C1 C2 1_555 1_555
C2 H1 1_555 1_555
C3 C2 1_555 1_555
H2 C3 1_555 1_555
C4 C3 1_555 1_555
C5 C4 1_555 1_555
H3 C5 1_555 1_555
C6 C1 1_555 1_555
H4 C6 1_555 1_555
C7 O1 1_555 1_555
C8 C7 1_555 1_555
H5 C8 1_555 1_555
C9 C8 1_555 1_555
C10 C9 1_555 1_555
C11 C10 1_555 1_555
H6 C11 1_555 1_555
C12 C7 1_555 1_555
H7 C12 1_555 1_555
C13 C10 1_555 1_555
C14 C13 1_555 1_555
H8 C14 1_555 1_555
H9 C14 1_555 1_555
C15 N3 1_555 1_555
H10 C15 1_555 1_555
C16 N1 1_555 1_555
H11 C16 1_555 1_555
C17 O3 1_555 1_555
H12 C17 1_555 1_555
H13 C17 1_555 1_555
C18 O2 1_555 1_555
H14 C18 1_555 1_555
C19 C18 1_555 1_555
H15 C19 1_555 1_555
H16 C19 1_555 1_555
H17 C19 1_555 1_555
N2 C16 1_555 1_555
C5 C6 1_555 1_555
C11 C12 1_555 1_555
C17 C18 1_555 1_555

#END
