
#######################################################################
#
#                 Cambridge Crystallographic Data Centre
#                                CCDC 
#
#######################################################################
#
# If this CIF has been generated from an entry in the Cambridge 
# Structural Database, then it will include bibliographic, chemical, 
# crystal, experimental, refinement or atomic coordinate data resulting 
# from the CCDC's data processing and validation procedures.
#
#######################################################################

data_ROLGAA
_chemical_formula_moiety         'C38 H46 Cl2 Mg2 N4 O3'
_chemical_name_systematic        
bis(\m~2~-Chloro)-(\m~2~-tetrahydrofuran)-bis((N,N-diphenylformamidinato)-(tetrahydrofuran)-magnesium)
_symmetry_cell_setting           monoclinic
_symmetry_space_group_name_H-M   'P 21/a'
_symmetry_Int_Tables_number      14
_space_group_name_Hall           '-P 2yab'
loop_
_symmetry_equiv_pos_site_id
_symmetry_equiv_pos_as_xyz
1 x,y,z
2 1/2-x,1/2+y,-z
3 -x,-y,-z
4 1/2+x,1/2-y,z
_cell_length_a                   11.355(2)
_cell_length_b                   28.229(6)
_cell_length_c                   11.728(2)
_cell_angle_alpha                90
_cell_angle_beta                 96.29(3)
_cell_angle_gamma                90
_cell_volume                     3736.67
_exptl_crystal_colour            colorless
_cell_formula_units_Z            4
_exptl_crystal_recrystallization_method hexanes
loop_
_atom_site_label
_atom_site_type_symbol
_atom_site_fract_x
_atom_site_fract_y
_atom_site_fract_z
Cl1 Cl 0.6263(2) 0.5562(1) 0.3683(2)
Mg1 Mg 0.7130(2) 0.6060(1) 0.5208(2)
O1 O 0.8540(6) 0.5199(2) 0.2342(5)
N1 N 0.5638(6) 0.6438(2) 0.5685(6)
C1 C 0.6321(10) 0.6711(3) 0.6328(8)
Cl2 Cl 0.9086(2) 0.5843(1) 0.4664(2)
Mg2 Mg 0.7985(3) 0.5859(1) 0.2797(2)
O2 O 0.7109(6) 0.5552(2) 0.6420(5)
N2 N 0.7456(6) 0.6641(2) 0.6358(6)
C2 C 0.8246(10) 0.6240(3) 0.0927(9)
N3 N 0.9099(7) 0.6216(2) 0.1729(6)
O3 O 0.7314(5) 0.6546(2) 0.3601(5)
N4 N 0.7223(7) 0.6055(2) 0.1177(6)
C3 C 0.4430(8) 0.6496(3) 0.5583(7)
C4 C 0.3741(9) 0.6107(3) 0.5323(8)
C5 C 0.2526(10) 0.6136(4) 0.5234(8)
C6 C 0.1990(9) 0.6557(5) 0.5385(8)
C7 C 0.2658(10) 0.6948(4) 0.5651(8)
C8 C 0.3851(9) 0.6920(4) 0.5742(8)
C9 C 0.8245(8) 0.6878(3) 0.7122(8)
C10 C 0.7962(8) 0.7179(3) 0.7959(8)
C11 C 0.8810(9) 0.7396(3) 0.8654(8)
C12 C 0.9969(9) 0.7307(3) 0.8542(9)
C13 C 1.0277(8) 0.7000(4) 0.7731(8)
C14 C 0.9442(8) 0.6786(3) 0.7009(8)
C15 C 1.0248(9) 0.6347(3) 0.1525(9)
C16 C 1.1069(9) 0.6340(3) 0.2443(8)
C17 C 1.2225(10) 0.6448(3) 0.2310(10)
C18 C 1.2612(9) 0.6556(3) 0.1310(11)
C19 C 1.1807(10) 0.6563(4) 0.0421(10)
C20 C 1.0631(9) 0.6461(4) 0.0498(9)
C21 C 0.6230(8) 0.6068(3) 0.0414(7)
C22 C 0.5393(9) 0.5715(3) 0.0467(8)
C23 C 0.4420(9) 0.5709(4) -0.0266(11)
C24 C 0.4227(9) 0.6055(4) -0.1076(9)
C25 C 0.5029(10) 0.6412(4) -0.1112(8)
C26 C 0.5995(9) 0.6422(3) -0.0388(8)
C27 C 0.9046(14) 0.5095(5) 0.1348(12)
C28 C 0.9175(14) 0.4567(4) 0.1295(13)
C29 C 0.9096(13) 0.4405(5) 0.2401(12)
C30 C 0.8493(14) 0.4777(4) 0.2977(11)
C31 C 0.6214(9) 0.6749(4) 0.3086(9)
C32 C 0.6500(15) 0.7231(5) 0.2813(17)
C33 C 0.8190(9) 0.6924(3) 0.3749(9)
C34 C 0.7770(14) 0.7300(4) 0.2954(11)
C35 C 0.7089(18) 0.5052(5) 0.6272(12)
C36 C 0.6964(15) 0.4825(5) 0.7309(13)
C37 C 0.6914(19) 0.5164(5) 0.8086(13)
C38 C 0.6942(17) 0.5630(5) 0.7527(13)
H1 H 0.6003(45) 0.6977(20) 0.6754(45)
H2 H 0.8330(49) 0.6398(20) 0.0099(54)
H3 H 0.4098(9) 0.5818(3) 0.5205(8)
H4 H 0.2071(10) 0.5866(4) 0.5069(8)
H5 H 0.1168(9) 0.6578(5) 0.5306(8)
H6 H 0.2293(10) 0.7236(4) 0.5770(8)
H7 H 0.4297(9) 0.7192(4) 0.5917(8)
H8 H 0.7171(8) 0.7236(3) 0.8048(8)
H9 H 0.8608(9) 0.7606(3) 0.9212(8)
H10 H 1.0557(9) 0.7458(3) 0.9026(9)
H11 H 1.1073(8) 0.6938(4) 0.7675(8)
H12 H 0.9653(8) 0.6581(3) 0.6445(8)
H13 H 1.0855(9) 0.6262(3) 0.3162(8)
H14 H 1.2773(10) 0.6445(3) 0.2960(10)
H15 H 1.3405(9) 0.6622(3) 0.1248(11)
H16 H 1.2038(10) 0.6641(4) -0.0293(10)
H17 H 1.0092(9) 0.6469(4) -0.0159(9)
H18 H 0.5516(9) 0.5480(3) 0.1024(8)
H19 H 0.3867(9) 0.5468(4) -0.0228(11)
H20 H 0.3551(9) 0.6047(4) -0.1602(9)
H21 H 0.4890(10) 0.6652(4) -0.1655(8)
H22 H 0.6529(9) 0.6671(3) -0.0417(8)
H23 H 0.9814(14) 0.5246(5) 0.1363(12)
H24 H 0.8543(14) 0.5209(5) 0.0682(12)
H25 H 0.8549(14) 0.4431(4) 0.0764(13)
H26 H 0.9934(14) 0.4482(4) 0.1045(13)
H27 H 0.9879(13) 0.4348(5) 0.2795(12)
H28 H 0.8648(13) 0.4112(5) 0.2385(12)
H29 H 0.7675(14) 0.4688(4) 0.3025(11)
H30 H 0.8877(14) 0.4822(4) 0.3749(11)
H31 H 0.5619(9) 0.6742(4) 0.3620(9)
H32 H 0.5917(9) 0.6577(4) 0.2399(9)
H33 H 0.6189(15) 0.7300(5) 0.2027(17)
H34 H 0.6132(15) 0.7446(5) 0.3312(17)
H35 H 0.8956(9) 0.6809(3) 0.3578(9)
H36 H 0.8265(9) 0.7040(3) 0.4532(9)
H37 H 0.7975(14) 0.7610(4) 0.3274(11)
H38 H 0.8098(14) 0.7267(4) 0.2228(11)
H39 H 0.6434(18) 0.4965(5) 0.5709(12)
H40 H 0.7818(18) 0.4949(5) 0.5989(12)
H41 H 0.6245(15) 0.4637(5) 0.7246(13)
H42 H 0.7634(15) 0.4618(5) 0.7522(13)
H43 H 0.7582(19) 0.5135(5) 0.8673(13)
H44 H 0.6192(19) 0.5132(5) 0.8450(13)
H45 H 0.6201(17) 0.5796(5) 0.7574(13)
H46 H 0.7583(17) 0.5821(5) 0.7901(13)
loop_
_geom_bond_atom_site_label_1
_geom_bond_atom_site_label_2
_geom_bond_site_symmetry_1
_geom_bond_site_symmetry_2
Cl1 Mg1 1_555 1_555
Mg1 N1 1_555 1_555
O1 Mg2 1_555 1_555
N1 C1 1_555 1_555
C1 N2 1_555 1_555
Cl2 Mg1 1_555 1_555
Mg2 Cl1 1_555 1_555
O2 Mg1 1_555 1_555
N2 Mg1 1_555 1_555
C2 N3 1_555 1_555
N3 Mg2 1_555 1_555
O3 Mg1 1_555 1_555
N4 Mg2 1_555 1_555
C3 N1 1_555 1_555
C4 C3 1_555 1_555
C5 C4 1_555 1_555
C6 C5 1_555 1_555
C7 C6 1_555 1_555
C8 C3 1_555 1_555
C9 N2 1_555 1_555
C10 C9 1_555 1_555
C11 C10 1_555 1_555
C12 C11 1_555 1_555
C13 C12 1_555 1_555
C14 C9 1_555 1_555
C15 N3 1_555 1_555
C16 C15 1_555 1_555
C17 C16 1_555 1_555
C18 C17 1_555 1_555
C19 C18 1_555 1_555
C20 C15 1_555 1_555
C21 N4 1_555 1_555
C22 C21 1_555 1_555
C23 C22 1_555 1_555
C24 C23 1_555 1_555
C25 C24 1_555 1_555
C26 C21 1_555 1_555
C27 O1 1_555 1_555
C28 C27 1_555 1_555
C29 C28 1_555 1_555
C30 O1 1_555 1_555
C31 O3 1_555 1_555
C32 C31 1_555 1_555
C33 O3 1_555 1_555
C34 C32 1_555 1_555
C35 O2 1_555 1_555
C36 C35 1_555 1_555
C37 C36 1_555 1_555
C38 O2 1_555 1_555
H1 C1 1_555 1_555
H2 C2 1_555 1_555
H3 C4 1_555 1_555
H4 C5 1_555 1_555
H5 C6 1_555 1_555
H6 C7 1_555 1_555
H7 C8 1_555 1_555
H8 C10 1_555 1_555
H9 C11 1_555 1_555
H10 C12 1_555 1_555
H11 C13 1_555 1_555
H12 C14 1_555 1_555
H13 C16 1_555 1_555
H14 C17 1_555 1_555
H15 C18 1_555 1_555
H16 C19 1_555 1_555
H17 C20 1_555 1_555
H18 C22 1_555 1_555
H19 C23 1_555 1_555
H20 C24 1_555 1_555
H21 C25 1_555 1_555
H22 C26 1_555 1_555
H23 C27 1_555 1_555
H24 C27 1_555 1_555
H25 C28 1_555 1_555
H26 C28 1_555 1_555
H27 C29 1_555 1_555
H28 C29 1_555 1_555
H29 C30 1_555 1_555
H30 C30 1_555 1_555
H31 C31 1_555 1_555
H32 C31 1_555 1_555
H33 C32 1_555 1_555
H34 C32 1_555 1_555
H35 C33 1_555 1_555
H36 C33 1_555 1_555
H37 C34 1_555 1_555
H38 C34 1_555 1_555
H39 C35 1_555 1_555
H40 C35 1_555 1_555
H41 C36 1_555 1_555
H42 C36 1_555 1_555
H43 C37 1_555 1_555
H44 C37 1_555 1_555
H45 C38 1_555 1_555
H46 C38 1_555 1_555
Cl2 Mg2 1_555 1_555
Mg2 O3 1_555 1_555
C2 N4 1_555 1_555
C7 C8 1_555 1_555
C13 C14 1_555 1_555
C19 C20 1_555 1_555
C25 C26 1_555 1_555
C29 C30 1_555 1_555
C33 C34 1_555 1_555
C37 C38 1_555 1_555

#END
