
#######################################################################
#
#                 Cambridge Crystallographic Data Centre
#                                CCDC 
#
#######################################################################
#
# If this CIF has been generated from an entry in the Cambridge 
# Structural Database, then it will include bibliographic, chemical, 
# crystal, experimental, refinement or atomic coordinate data resulting 
# from the CCDC's data processing and validation procedures.
#
#######################################################################

data_ROLSIU
_chemical_formula_moiety         '2(C11 H24 N1 1+),F4 I1 1-,H2 F3 1-'
_chemical_name_systematic        
'bis(1,1,3,3,5,5-Hexamethylpiperidinium) tetrafluoroiodate dihydrogentrifluoride'
_symmetry_cell_setting           monoclinic
_symmetry_space_group_name_H-M   'P 21/n'
_symmetry_Int_Tables_number      14
_space_group_name_Hall           '-P 2yn'
loop_
_symmetry_equiv_pos_site_id
_symmetry_equiv_pos_as_xyz
1 x,y,z
2 1/2-x,1/2+y,1/2-z
3 -x,-y,-z
4 1/2+x,1/2-y,1/2+z
_cell_length_a                   12.787(3)
_cell_length_b                   8.4440(10)
_cell_length_c                   26.603(3)
_cell_angle_alpha                90
_cell_angle_beta                 104.480(2)
_cell_angle_gamma                90
_cell_volume                     2781.17
_cell_formula_units_Z            4
loop_
_atom_site_label
_atom_site_type_symbol
_atom_site_fract_x
_atom_site_fract_y
_atom_site_fract_z
I1 I 0.0000 0.5000 0.0000
F1 F 0.1203(3) 0.3852(4) 0.0494(2)
F2 F 0.0888(3) 0.7004(4) 0.0105(1)
F1B F -0.1203(3) 0.6148(4) -0.0494(2)
F2B F -0.0888(3) 0.2996(4) -0.0105(1)
I2 I 0.5000 0.0000 0.0000
F3 F 0.5139(4) 0.0382(5) 0.0757(1)
F4 F 0.6090(3) -0.1740(5) 0.0187(2)
F3B F 0.4861(4) -0.0382(5) -0.0757(1)
F4B F 0.3910(3) 0.1740(5) -0.0187(2)
N1 N 0.1290(4) -0.2161(7) 0.1675(2)
C1 C 0.0132(4) -0.1997(7) 0.1338(2)
C2 C -0.0201(4) -0.0408(7) 0.1074(2)
C3 C 0.0677(4) 0.0171(7) 0.0812(2)
C4 C 0.1838(3) 0.0164(5) 0.1139(2)
C5 C 0.2076(4) -0.1498(7) 0.1384(2)
C6 C 0.1448(5) -0.1467(8) 0.2225(2)
C7 C 0.1590(6) -0.3923(8) 0.1740(3)
C8 C -0.1202(4) -0.0645(9) 0.0617(2)
C9 C -0.0510(5) 0.0810(9) 0.1431(3)
C10 C 0.2555(5) 0.0360(9) 0.0781(3)
C11 C 0.2087(5) 0.1439(7) 0.1538(2)
H1 H -0.0427(44) -0.2452(68) 0.1593(22)
H2 H 0.0064(45) -0.2815(72) 0.1072(23)
H3 H 0.0653(50) -0.0497(83) 0.0528(26)
H4 H 0.0559(47) 0.1208(76) 0.0690(23)
H5 H 0.1976(46) -0.2205(71) 0.1080(23)
H6 H 0.2799(51) -0.1294(77) 0.1637(24)
H7 H 0.2135(49) -0.1426(70) 0.2372(22)
H8 H 0.0890(45) -0.2103(46) 0.2375(22)
H9 H 0.1225(56) -0.0261(73) 0.2261(26)
H10 H 0.2375(49) -0.3975(67) 0.1965(22)
H11 H 0.1520(48) -0.4580(71) 0.1410(25)
H12 H 0.1309(51) -0.4482(75) 0.1920(24)
H13 H -0.1328(49) 0.0539(85) 0.0398(25)
H14 H -0.1791(48) -0.0873(73) 0.0783(22)
H15 H -0.1042(48) -0.1333(72) 0.0358(23)
H16 H -0.0745(47) 0.1703(47) 0.1199(24)
H17 H 0.0075(48) 0.1144(68) 0.1765(23)
H18 H -0.1092(53) 0.0454(78) 0.1486(24)
H19 H 0.2332(48) -0.0455(79) 0.0482(25)
H20 H 0.3103(61) 0.0306(78) 0.0890(29)
H21 H 0.2362(45) 0.1282(75) 0.0603(24)
H22 H 0.1462(46) 0.1545(67) 0.1757(22)
H23 H 0.1936(49) 0.2215(78) 0.1381(25)
H24 H 0.2849(52) 0.1378(77) 0.1708(24)
N2 N 0.6306(3) 0.6869(5) 0.1690(1)
C12 C 0.7099(4) 0.6256(7) 0.1395(2)
C13 C 0.6891(5) 0.4570(8) 0.1130(2)
C14 C 0.5716(4) 0.4623(8) 0.0796(2)
C15 C 0.4831(4) 0.5207(6) 0.1059(2)
C16 C 0.5166(4) 0.6756(7) 0.1340(2)
C17 C 0.6399(5) 0.5995(9) 0.2199(2)
C18 C 0.6570(5) 0.8553(8) 0.1813(3)
C19 C 0.7656(5) 0.4552(10) 0.0771(3)
C20 C 0.7153(5) 0.3214(8) 0.1502(3)
C21 C 0.4487(5) 0.3928(8) 0.1401(2)
C22 C 0.3822(5) 0.5568(9) 0.0623(2)
H25 H 0.7722(51) 0.6226(79) 0.1646(25)
H26 H 0.6991(47) 0.7062(72) 0.1106(24)
H27 H 0.5485(47) 0.3645(74) 0.0676(23)
H28 H 0.5618(51) 0.5412(81) 0.0509(27)
H29 H 0.5116(45) 0.7694(70) 0.1080(23)
H30 H 0.4780(45) 0.7150(67) 0.1629(23)
H31 H 0.6286(57) 0.4947(68) 0.2159(26)
H32 H 0.5912(48) 0.6605(69) 0.2348(22)
H33 H 0.7175(47) 0.6189(67) 0.2406(22)
H34 H 0.6533(47) 0.9088(73) 0.1489(25)
H35 H 0.7371(48) 0.8581(66) 0.2016(22)
H36 H 0.6086(47) 0.8918(72) 0.1985(23)
H37 H 0.7502(52) 0.5360(80) 0.0523(27)
H38 H 0.7547(45) 0.3475(74) 0.0573(22)
H39 H 0.8323(55) 0.4580(75) 0.0940(25)
H40 H 0.7960(50) 0.3406(74) 0.1747(23)
H41 H 0.7045(45) 0.2300(71) 0.1292(23)
H42 H 0.6589(46) 0.2927(68) 0.1746(23)
H43 H 0.4194(44) 0.3005(69) 0.1128(23)
H44 H 0.3955(50) 0.4223(80) 0.1531(23)
H45 H 0.5154(46) 0.3404(67) 0.1713(22)
H46 H 0.3602(51) 0.4573(84) 0.0386(26)
H47 H 0.3898(48) 0.6375(74) 0.0393(23)
H48 H 0.3238(48) 0.5874(72) 0.0811(23)
F5 F 0.59883 0.19170 0.25147
F6 F 0.42585 -0.22303 0.24603
F7 F 0.45381 0.02642 0.21617
loop_
_geom_bond_atom_site_label_1
_geom_bond_atom_site_label_2
_geom_bond_site_symmetry_1
_geom_bond_site_symmetry_2
I1 F1 1_555 1_555
F2 I1 1_555 1_555
I2 F3 1_555 1_555
F4 I2 1_555 1_555
N1 C1 1_555 1_555
C1 C2 1_555 1_555
C2 C3 1_555 1_555
C3 C4 1_555 1_555
C4 C5 1_555 1_555
C5 N1 1_555 1_555
C6 N1 1_555 1_555
C7 N1 1_555 1_555
C8 C2 1_555 1_555
C9 C2 1_555 1_555
C10 C4 1_555 1_555
C11 C4 1_555 1_555
H1 C1 1_555 1_555
H2 C1 1_555 1_555
H3 C3 1_555 1_555
H4 C3 1_555 1_555
H5 C5 1_555 1_555
H6 C5 1_555 1_555
H7 C6 1_555 1_555
H8 C6 1_555 1_555
H9 C6 1_555 1_555
H10 C7 1_555 1_555
H11 C7 1_555 1_555
H12 C7 1_555 1_555
H13 C8 1_555 1_555
H14 C8 1_555 1_555
H15 C8 1_555 1_555
H16 C9 1_555 1_555
H17 C9 1_555 1_555
H18 C9 1_555 1_555
H19 C10 1_555 1_555
H20 C10 1_555 1_555
H21 C10 1_555 1_555
H22 C11 1_555 1_555
H23 C11 1_555 1_555
H24 C11 1_555 1_555
N2 C12 1_555 1_555
C12 C13 1_555 1_555
C13 C14 1_555 1_555
C14 C15 1_555 1_555
C15 C16 1_555 1_555
C16 N2 1_555 1_555
C17 N2 1_555 1_555
C18 N2 1_555 1_555
C19 C13 1_555 1_555
C20 C13 1_555 1_555
C21 C15 1_555 1_555
C22 C15 1_555 1_555
H25 C12 1_555 1_555
H26 C12 1_555 1_555
H27 C14 1_555 1_555
H28 C14 1_555 1_555
H29 C16 1_555 1_555
H30 C16 1_555 1_555
H31 C17 1_555 1_555
H32 C17 1_555 1_555
H33 C17 1_555 1_555
H34 C18 1_555 1_555
H35 C18 1_555 1_555
H36 C18 1_555 1_555
H37 C19 1_555 1_555
H38 C19 1_555 1_555
H39 C19 1_555 1_555
H40 C20 1_555 1_555
H41 C20 1_555 1_555
H42 C20 1_555 1_555
H43 C21 1_555 1_555
H44 C21 1_555 1_555
H45 C21 1_555 1_555
H46 C22 1_555 1_555
H47 C22 1_555 1_555
H48 C22 1_555 1_555
F5 F7 1_555 1_555
F6 F7 1_555 1_555
F1B I1 1_555 1_555
F2B I1 1_555 1_555
F3B I2 1_555 1_555
F4B I2 1_555 1_555

#END
