
#######################################################################
#
#                 Cambridge Crystallographic Data Centre
#                                CCDC 
#
#######################################################################
#
# If this CIF has been generated from an entry in the Cambridge 
# Structural Database, then it will include bibliographic, chemical, 
# crystal, experimental, refinement or atomic coordinate data resulting 
# from the CCDC's data processing and validation procedures.
#
#######################################################################

data_ROLXOH
_chemical_formula_moiety         'C24 H9 B1 F18'
_chemical_name_systematic        
phenyl(bis(2,4,6-tris(trifluoromethyl)phenyl))borane
_symmetry_cell_setting           orthorhombic
_symmetry_space_group_name_H-M   'P b c a'
_symmetry_Int_Tables_number      61
_space_group_name_Hall           '-P 2ac 2ab'
loop_
_symmetry_equiv_pos_site_id
_symmetry_equiv_pos_as_xyz
1 x,y,z
2 1/2+x,1/2-y,-z
3 -x,1/2+y,1/2-z
4 1/2-x,-y,1/2+z
5 -x,-y,-z
6 1/2-x,1/2+y,z
7 x,1/2-y,1/2+z
8 1/2+x,y,1/2-z
_cell_length_a                   15.5600(11)
_cell_length_b                   8.7136(6)
_cell_length_c                   35.624(3)
_cell_angle_alpha                90
_cell_angle_beta                 90
_cell_angle_gamma                90
_cell_volume                     4830.03
_exptl_crystal_colour            colorless
_exptl_crystal_description       block
_cell_formula_units_Z            8
loop_
_atom_site_label
_atom_site_type_symbol
_atom_site_fract_x
_atom_site_fract_y
_atom_site_fract_z
F1 F 0.54678(14) 0.69106(19) 0.07296(5)
F2 F 0.67726(13) 0.6538(2) 0.05580(6)
F3 F 0.57511(14) 0.64151(19) 0.01577(5)
F4 F 0.68172(14) -0.0358(2) 0.00618(6)
F5 F 0.59352(13) 0.0742(3) -0.03104(6)
F6 F 0.71688(13) 0.1712(2) -0.02173(6)
F7 F 0.49048(14) -0.04296(17) 0.10620(5)
F8 F 0.40474(11) 0.14645(19) 0.11387(5)
F9 F 0.51700(12) 0.12357(19) 0.14859(5)
F10 F 0.2687(9) 0.5773(15) 0.0820(3)
F11 F 0.3716(7) 0.434(2) 0.0656(2)
F12 F 0.3723(5) 0.7026(6) 0.09550(14)
F13 F 0.12459(14) 0.4416(4) 0.19051(7)
F14 F 0.19377(16) 0.4744(4) 0.23921(7)
F15 F 0.17634(17) 0.2533(3) 0.21974(10)
F16 F 0.51695(12) 0.4511(2) 0.23469(5)
F17 F 0.49326(11) 0.2114(2) 0.22626(5)
F18 F 0.58000(10) 0.33050(18) 0.19004(5)
B1 B 0.5214(2) 0.4596(3) 0.12529(9)
C1 C 0.54797(17) 0.3629(3) 0.08855(8)
C2 C 0.58820(17) 0.4331(3) 0.05724(8)
C3 C 0.62164(18) 0.3491(3) 0.02743(8)
H1 H 0.6481 0.4009 0.0070
C4 C 0.61658(18) 0.1915(3) 0.02730(8)
C5 C 0.57318(18) 0.1175(3) 0.05594(8)
H2 H 0.5671 0.0090 0.0554
C6 C 0.53849(17) 0.2010(3) 0.08540(8)
C7 C 0.5963(2) 0.6045(3) 0.05117(9)
C8 C 0.65216(19) 0.1008(3) -0.00472(9)
C9 C 0.4879(2) 0.1074(3) 0.11344(8)
C10 C 0.43168(17) 0.4386(3) 0.14683(7)
C11 C 0.35092(18) 0.4754(3) 0.13085(8)
C12 C 0.27397(18) 0.4600(3) 0.15017(8)
H3 H 0.2214 0.4877 0.1384
C13 C 0.27382(17) 0.4045(3) 0.18641(8)
C14 C 0.35097(18) 0.3672(3) 0.20336(8)
H4 H 0.3512 0.3288 0.2283
C15 C 0.42840(17) 0.3852(3) 0.18425(7)
C16 C 0.3447(2) 0.5471(4) 0.09258(10)
C17 C 0.19212(19) 0.3904(4) 0.20810(9)
C18 C 0.50544(18) 0.3448(3) 0.20812(8)
C19 C 0.58614(18) 0.5749(3) 0.14265(8)
C20 C 0.55764(19) 0.6934(3) 0.16615(8)
H5 H 0.4977 0.7059 0.1702
C21 C 0.6144(2) 0.7929(3) 0.18362(9)
H6 H 0.5934 0.8750 0.1986
C22 C 0.7021(2) 0.7717(4) 0.17910(9)
H7 H 0.7414 0.8377 0.1916
C23 C 0.7323(2) 0.6548(4) 0.15645(9)
H8 H 0.7925 0.6399 0.1536
C24 C 0.67527(19) 0.5591(3) 0.13785(8)
H9 H 0.6968 0.4817 0.1216
F19? F 0.2614(13) 0.563(2) 0.0801(5)
F20? F 0.3903(6) 0.4949(8) 0.0673(3)
F21? F 0.4084(7) 0.627(2) 0.0831(3)
loop_
_geom_bond_atom_site_label_1
_geom_bond_atom_site_label_2
_geom_bond_site_symmetry_1
_geom_bond_site_symmetry_2
F1 C7 1_555 1_555
F2 C7 1_555 1_555
F3 C7 1_555 1_555
F4 C8 1_555 1_555
F5 C8 1_555 1_555
F6 C8 1_555 1_555
F7 C9 1_555 1_555
F8 C9 1_555 1_555
F9 C9 1_555 1_555
F10 C16 1_555 1_555
F11 C16 1_555 1_555
F12 C16 1_555 1_555
F13 C17 1_555 1_555
F14 C17 1_555 1_555
F15 C17 1_555 1_555
F16 C18 1_555 1_555
F17 C18 1_555 1_555
F18 C18 1_555 1_555
B1 C1 1_555 1_555
C1 C2 1_555 1_555
C2 C3 1_555 1_555
C3 H1 1_555 1_555
C4 C3 1_555 1_555
C5 C4 1_555 1_555
H2 C5 1_555 1_555
C6 C1 1_555 1_555
C7 C2 1_555 1_555
C8 C4 1_555 1_555
C9 C6 1_555 1_555
C10 B1 1_555 1_555
C11 C10 1_555 1_555
C12 C11 1_555 1_555
H3 C12 1_555 1_555
C13 C12 1_555 1_555
C14 C13 1_555 1_555
H4 C14 1_555 1_555
C15 C10 1_555 1_555
C16 C11 1_555 1_555
C17 C13 1_555 1_555
C18 C15 1_555 1_555
C19 B1 1_555 1_555
C20 C19 1_555 1_555
H5 C20 1_555 1_555
C21 C20 1_555 1_555
H6 C21 1_555 1_555
C22 C21 1_555 1_555
H7 C22 1_555 1_555
C23 C22 1_555 1_555
H8 C23 1_555 1_555
C24 C19 1_555 1_555
H9 C24 1_555 1_555
C5 C6 1_555 1_555
C14 C15 1_555 1_555
C23 C24 1_555 1_555

#END
