
#######################################################################
#
#                 Cambridge Crystallographic Data Centre
#                                CCDC 
#
#######################################################################
#
# If this CIF has been generated from an entry in the Cambridge 
# Structural Database, then it will include bibliographic, chemical, 
# crystal, experimental, refinement or atomic coordinate data resulting 
# from the CCDC's data processing and validation procedures.
#
#######################################################################

data_ROLYAS01
_chemical_formula_moiety         'C15 H14 Cl4 O5,C3 H6 O1'
_chemical_name_systematic        
'4,5,10,12-Tetrachloro-7,7,-dihydroxy-11,11-dimethoxyhexacyclo(6.5.0.0^3,6^.0^4,12^.0^5,10^.0^9,13^)tridecan-2-one acetone solvate'
_symmetry_cell_setting           triclinic
_symmetry_space_group_name_H-M   'P -1'
_symmetry_Int_Tables_number      2
_space_group_name_Hall           '-P 1'
loop_
_symmetry_equiv_pos_site_id
_symmetry_equiv_pos_as_xyz
1 x,y,z
2 -x,-y,-z
_cell_length_a                   8.314(2)
_cell_length_b                   8.480(2)
_cell_length_c                   14.583(3)
_cell_angle_alpha                85.84(3)
_cell_angle_beta                 77.42(3)
_cell_angle_gamma                89.71(3)
_cell_volume                     1000.75
_exptl_crystal_colour            colorless
_exptl_crystal_description       prisms
_chemical_melting_point          '135-137 deg.C(dec.)'
_cell_formula_units_Z            2
loop_
_atom_site_label
_atom_site_type_symbol
_atom_site_fract_x
_atom_site_fract_y
_atom_site_fract_z
Cl1 Cl 0.4979(1) 0.4222(1) 0.2481(1)
Cl2 Cl 0.1968(1) 0.6122(1) 0.2018(1)
Cl3 Cl -0.0338(1) 0.3993(1) 0.1114(1)
Cl4 Cl 0.0786(1) 0.0431(1) 0.1008(1)
O1 O -0.0506(3) 0.2885(3) 0.5022(2)
O2 O 0.3512(3) 0.3597(3) 0.0729(2)
O3 O 0.4393(3) 0.1152(3) 0.1238(2)
O4 O 0.2005(3) 0.4243(3) 0.4503(2)
C1 C 0.3295(4) 0.2384(4) 0.1434(2)
O5 O -0.2473(3) 0.0733(3) 0.3711(2)
C2 C 0.3203(4) 0.3139(4) 0.2400(2)
C3 C 0.0859(4) 0.3213(4) 0.4270(2)
C4 C 0.0443(4) 0.0562(4) 0.3595(2)
C5 C 0.0315(4) 0.4017(4) 0.3432(2)
C6 C 0.1793(4) 0.0626(4) 0.2651(2)
C7 C 0.1590(4) 0.1630(4) 0.4012(2)
C8 C 0.2913(4) 0.1665(4) 0.3078(2)
C9 C -0.1117(4) 0.1353(4) 0.3474(2)
C10 C -0.0842(4) 0.2978(4) 0.3006(2)
C11 C 0.3549(6) 0.3180(6) -0.0220(3)
C12 C 0.0457(4) 0.3091(4) 0.2045(2)
C13 C 0.1614(4) 0.4141(4) 0.2490(2)
C14 C 0.1520(4) 0.1630(4) 0.1781(2)
C15 C 0.6125(5) 0.1560(6) 0.0933(4)
O6 O 0.2719(4) 0.3369(4) 0.6198(2)
C16 C 0.3775(5) 0.2585(5) 0.6445(3)
C17 C 0.3578(7) 0.1974(6) 0.7444(4)
C18 C 0.5297(6) 0.2190(7) 0.5765(5)
loop_
_geom_bond_atom_site_label_1
_geom_bond_atom_site_label_2
_geom_bond_site_symmetry_1
_geom_bond_site_symmetry_2
Cl1 C2 1_555 1_555
Cl2 C13 1_555 1_555
Cl3 C12 1_555 1_555
Cl4 C14 1_555 1_555
O1 C3 1_555 1_555
O2 C1 1_555 1_555
O3 C1 1_555 1_555
O4 C3 1_555 1_555
C1 C2 1_555 1_555
O5 C9 1_555 1_555
C2 C8 1_555 1_555
C3 C5 1_555 1_555
C4 C6 1_555 1_555
C5 C10 1_555 1_555
C6 C8 1_555 1_555
C7 C3 1_555 1_555
C8 C7 1_555 1_555
C9 C4 1_555 1_555
C10 C9 1_555 1_555
C11 O2 1_555 1_555
C12 C10 1_555 1_555
C13 C2 1_555 1_555
C14 C1 1_555 1_555
C15 O3 1_555 1_555
O6 C16 1_555 1_555
C16 C17 1_555 1_555
C18 C16 1_555 1_555
C4 C7 1_555 1_555
C5 C13 1_555 1_555
C6 C14 1_555 1_555
C12 C13 1_555 1_555
C12 C14 1_555 1_555

#END
