
#######################################################################
#
#                 Cambridge Crystallographic Data Centre
#                                CCDC 
#
#######################################################################
#
# If this CIF has been generated from an entry in the Cambridge 
# Structural Database, then it will include bibliographic, chemical, 
# crystal, experimental, refinement or atomic coordinate data resulting 
# from the CCDC's data processing and validation procedures.
#
#######################################################################

data_ROMBEB
_chemical_formula_moiety         'C16 H19 N2 1+,C6 H4 Br1 O3 S1 1-'
_chemical_name_systematic        
'(E)-4-(4-(Dimethylamino)styryl)-1-methylpyridinium 4-bromobenzenesulfonate'
_symmetry_cell_setting           monoclinic
_symmetry_space_group_name_H-M   'C c'
_symmetry_Int_Tables_number      9
_space_group_name_Hall           'C -2yc'
loop_
_symmetry_equiv_pos_site_id
_symmetry_equiv_pos_as_xyz
1 x,y,z
2 x,-y,1/2+z
3 1/2+x,1/2+y,z
4 1/2+x,1/2-y,1/2+z
_cell_length_a                   10.3712(4)
_cell_length_b                   10.9937(5)
_cell_length_c                   17.9027(8)
_cell_angle_alpha                90
_cell_angle_beta                 92.442(3)
_cell_angle_gamma                90
_cell_volume                     2039.37
_exptl_crystal_colour            red
_exptl_crystal_description       plate
_chemical_melting_point          '536-537 K'
_cell_formula_units_Z            4
_exptl_crystal_recrystallization_method methanol
loop_
_atom_site_label
_atom_site_type_symbol
_atom_site_fract_x
_atom_site_fract_y
_atom_site_fract_z
Br1 Br 0.36598(3) 0.77042(3) 0.68824(2)
S1 S 0.98401(6) 0.80532(7) 0.66253(5)
O1 O 1.0332(2) 0.6820(2) 0.65917(15)
O2 O 1.0299(2) 0.8717(2) 0.72875(14)
O3 O 0.9990(2) 0.8740(2) 0.59428(14)
C17 C 0.8138(3) 0.7927(3) 0.6710(2)
C18 C 0.7402(3) 0.8978(3) 0.6780(2)
H20 H 0.7809 0.9732 0.6797
C19 C 0.6080(3) 0.8917(3) 0.6823(2)
H21 H 0.5594 0.9624 0.6858
C20 C 0.5489(3) 0.7790(3) 0.6814(2)
C21 C 0.6187(3) 0.6722(3) 0.6750(2)
H22 H 0.5774 0.5970 0.6743
C22 C 0.7524(3) 0.6800(3) 0.6696(2)
H23 H 0.8008 0.6094 0.6649
N1 N 0.1505(2) 0.3126(2) 0.93738(17)
N2 N 1.1241(3) 0.6429(3) 0.91479(17)
C1 C 0.3252(3) 0.3957(3) 1.0096(2)
H1 H 0.3595 0.4215 1.0557
C2 C 0.2023(3) 0.3507(3) 1.0041(2)
H2 H 0.1538 0.3462 1.0466
C3 C 0.2213(3) 0.3179(3) 0.8760(2)
H3 H 0.1854 0.2908 0.8305
C4 C 0.3442(3) 0.3621(3) 0.8789(2)
H4 H 0.3909 0.3646 0.8357
C5 C 0.4003(3) 0.4034(3) 0.9463(2)
C6 C 0.5317(3) 0.4507(3) 0.9554(2)
H5 H 0.5609 0.4749 1.0029
C7 C 0.6126(3) 0.4612(3) 0.8992(2)
H6 H 0.5821 0.4373 0.8519
C8 C 0.7443(3) 0.5069(3) 0.9063(2)
C9 C 0.8152(3) 0.5165(3) 0.84225(19)
H7 H 0.7775 0.4917 0.7967
C10 C 0.9406(3) 0.5618(3) 0.8439(2)
H8 H 0.9842 0.5690 0.7998
C11 C 1.0015(3) 0.5969(3) 0.9124(2)
C12 C 0.9307(3) 0.5851(3) 0.9777(2)
H9 H 0.9690 0.6066 1.0237
C13 C 0.8055(3) 0.5421(3) 0.9742(2)
H10 H 0.7608 0.5363 1.0179
C14 C 0.0170(3) 0.2686(3) 0.9326(2)
H11 H 0.0039 0.2197 0.8885
H12 H -0.0409 0.3367 0.9302
H13 H 0.0007 0.2206 0.9760
C15 C 1.1928(3) 0.6611(3) 0.8465(2)
H14 H 1.1404 0.7084 0.8119
H15 H 1.2110 0.5835 0.8246
H16 H 1.2722 0.7032 0.8579
C16 C 1.1872(3) 0.6788(3) 0.9852(2)
H17 H 1.1782 0.6151 1.0213
H18 H 1.1480 0.7518 1.0030
H19 H 1.2771 0.6932 0.9781
loop_
_geom_bond_atom_site_label_1
_geom_bond_atom_site_label_2
_geom_bond_site_symmetry_1
_geom_bond_site_symmetry_2
Br1 C20 1_555 1_555
S1 O1 1_555 1_555
O2 S1 1_555 1_555
O3 S1 1_555 1_555
N1 C2 1_555 1_555
N2 C11 1_555 1_555
C1 H1 1_555 1_555
C2 C1 1_555 1_555
H2 C2 1_555 1_555
C3 N1 1_555 1_555
H3 C3 1_555 1_555
C4 C3 1_555 1_555
H4 C4 1_555 1_555
C5 C1 1_555 1_555
C6 C5 1_555 1_555
H5 C6 1_555 1_555
C7 C6 1_555 1_555
H6 C7 1_555 1_555
C8 C7 1_555 1_555
C9 C8 1_555 1_555
H7 C9 1_555 1_555
C10 C9 1_555 1_555
H8 C10 1_555 1_555
C11 C10 1_555 1_555
C12 C11 1_555 1_555
H9 C12 1_555 1_555
C13 C8 1_555 1_555
H10 C13 1_555 1_555
C14 N1 1_555 1_555
H11 C14 1_555 1_555
H12 C14 1_555 1_555
H13 C14 1_555 1_555
C15 N2 1_555 1_555
H14 C15 1_555 1_555
H15 C15 1_555 1_555
H16 C15 1_555 1_555
C16 N2 1_555 1_555
H17 C16 1_555 1_555
H18 C16 1_555 1_555
H19 C16 1_555 1_555
C17 S1 1_555 1_555
C18 C17 1_555 1_555
H20 C18 1_555 1_555
C19 C18 1_555 1_555
H21 C19 1_555 1_555
C20 C19 1_555 1_555
C21 C20 1_555 1_555
H22 C21 1_555 1_555
C22 C17 1_555 1_555
H23 C22 1_555 1_555
C4 C5 1_555 1_555
C12 C13 1_555 1_555
C21 C22 1_555 1_555

#END
