
#######################################################################
#
#                 Cambridge Crystallographic Data Centre
#                                CCDC 
#
#######################################################################
#
# If this CIF has been generated from an entry in the Cambridge 
# Structural Database, then it will include bibliographic, chemical, 
# crystal, experimental, refinement or atomic coordinate data resulting 
# from the CCDC's data processing and validation procedures.
#
#######################################################################

data_ROMCUS
_chemical_formula_moiety         'C20 H20 N2 S2'
_chemical_name_systematic        2,2'-Hexamethylenedi-1,3-benzothiazole
_symmetry_cell_setting           monoclinic
_symmetry_space_group_name_H-M   'P 21/n'
_symmetry_Int_Tables_number      14
_space_group_name_Hall           '-P 2yn'
loop_
_symmetry_equiv_pos_site_id
_symmetry_equiv_pos_as_xyz
1 x,y,z
2 1/2-x,1/2+y,1/2-z
3 -x,-y,-z
4 1/2+x,1/2-y,1/2+z
_cell_length_a                   5.7590(12)
_cell_length_b                   8.3030(17)
_cell_length_c                   18.974(4)
_cell_angle_alpha                90
_cell_angle_beta                 96.03(3)
_cell_angle_gamma                90
_cell_volume                     902.259
_exptl_crystal_colour            yellow
_exptl_crystal_description       block
_cell_formula_units_Z            2
_exptl_crystal_recrystallization_method methanol
loop_
_atom_site_label
_atom_site_type_symbol
_atom_site_fract_x
_atom_site_fract_y
_atom_site_fract_z
S1 S 0.21252(19) 0.52096(15) 0.08482(6)
N1 N 0.6060(6) 0.5674(4) 0.16015(18)
C1 C 0.0926(8) 0.8256(6) 0.1352(3)
H1 H -0.0542 0.8244 0.1096
C2 C 0.1629(9) 0.9538(6) 0.1788(3)
H2 H 0.0601 1.0387 0.1831
C3 C 0.3826(9) 0.9590(6) 0.2162(2)
H3 H 0.4266 1.0481 0.2442
C4 C 0.5351(8) 0.8342(5) 0.2123(2)
H4 H 0.6813 0.8370 0.2382
C5 C 0.4707(7) 0.7038(5) 0.1695(2)
C6 C 0.2468(7) 0.6990(5) 0.1308(2)
C7 C 0.4953(7) 0.4647(5) 0.1187(2)
C8 C 0.5905(8) 0.3044(5) 0.1000(2)
H5 H 0.7463 0.3214 0.0864
H6 H 0.6065 0.2391 0.1426
C9 C 0.4567(8) 0.2091(5) 0.0429(2)
H7 H 0.4414 0.2725 -0.0002
H8 H 0.3009 0.1901 0.0562
C10 C 0.5656(8) 0.0488(5) 0.0278(2)
H9 H 0.7206 0.0683 0.0139
H10 H 0.5836 -0.0134 0.0712
S1B S 0.78748(19) -0.52096(15) -0.08482(6)
N1B N 0.3940(6) -0.5674(4) -0.16015(18)
C1B C 0.9074(8) -0.8256(6) -0.1352(3)
H1B H 1.0542 -0.8244 -0.1096
C2B C 0.8371(9) -0.9538(6) -0.1788(3)
H2B H 0.9399 -1.0387 -0.1831
C3B C 0.6174(9) -0.9590(6) -0.2162(2)
H3B H 0.5734 -1.0481 -0.2442
C4B C 0.4649(8) -0.8342(5) -0.2123(2)
H4B H 0.3187 -0.8370 -0.2382
C5B C 0.5293(7) -0.7038(5) -0.1695(2)
C6B C 0.7532(7) -0.6990(5) -0.1308(2)
C7B C 0.5047(7) -0.4647(5) -0.1187(2)
C8B C 0.4095(8) -0.3044(5) -0.1000(2)
H5B H 0.2537 -0.3214 -0.0864
H6B H 0.3935 -0.2391 -0.1426
C9B C 0.5433(8) -0.2091(5) -0.0429(2)
H7B H 0.5586 -0.2725 0.0002
H8B H 0.6991 -0.1901 -0.0562
C10B C 0.4344(8) -0.0488(5) -0.0278(2)
H9B H 0.2794 -0.0683 -0.0139
H10B H 0.4164 0.0134 -0.0712
loop_
_geom_bond_atom_site_label_1
_geom_bond_atom_site_label_2
_geom_bond_site_symmetry_1
_geom_bond_site_symmetry_2
S1 C6 1_555 1_555
N1 C5 1_555 1_555
C1 H1 1_555 1_555
C2 C1 1_555 1_555
H2 C2 1_555 1_555
C3 C2 1_555 1_555
H3 C3 1_555 1_555
C4 C3 1_555 1_555
H4 C4 1_555 1_555
C5 C4 1_555 1_555
C6 C1 1_555 1_555
C7 S1 1_555 1_555
C8 C7 1_555 1_555
H5 C8 1_555 1_555
H6 C8 1_555 1_555
C9 C8 1_555 1_555
H7 C9 1_555 1_555
H8 C9 1_555 1_555
C10 C9 1_555 1_555
H9 C10 1_555 1_555
H10 C10 1_555 1_555
S1B C6B 1_555 1_555
N1B C5B 1_555 1_555
C1B H1B 1_555 1_555
C2B C1B 1_555 1_555
H2B C2B 1_555 1_555
C3B C2B 1_555 1_555
H3B C3B 1_555 1_555
C4B C3B 1_555 1_555
H4B C4B 1_555 1_555
C5B C4B 1_555 1_555
C6B C1B 1_555 1_555
C7B S1B 1_555 1_555
C8B C7B 1_555 1_555
H5B C8B 1_555 1_555
H6B C8B 1_555 1_555
C9B C8B 1_555 1_555
H7B C9B 1_555 1_555
H8B C9B 1_555 1_555
C10B C10 1_555 1_555
H9B C10B 1_555 1_555
H10B C10B 1_555 1_555
N1 C7 1_555 1_555
C5 C6 1_555 1_555
N1B C7B 1_555 1_555
C5B C6B 1_555 1_555
C9B C10B 1_555 1_555

#END
