
#######################################################################
#
#                 Cambridge Crystallographic Data Centre
#                                CCDC 
#
#######################################################################
#
# If this CIF has been generated from an entry in the Cambridge 
# Structural Database, then it will include bibliographic, chemical, 
# crystal, experimental, refinement or atomic coordinate data resulting 
# from the CCDC's data processing and validation procedures.
#
#######################################################################

data_ROMHOR
_chemical_formula_moiety         'C14 H14 Br1 N1 O3'
_chemical_name_systematic        
(1S,4S,5S,6R)-6-(4-Bromophenyl)-5-nitrobicyclo(2.2.2)octan-2-one
_symmetry_cell_setting           orthorhombic
_symmetry_space_group_name_H-M   'P 21 21 21'
_symmetry_Int_Tables_number      19
_space_group_name_Hall           'P 2ac 2ab'
loop_
_symmetry_equiv_pos_site_id
_symmetry_equiv_pos_as_xyz
1 x,y,z
2 1/2-x,-y,1/2+z
3 -x,1/2+y,1/2-z
4 1/2+x,1/2-y,-z
_cell_length_a                   6.4675(8)
_cell_length_b                   10.0007(13)
_cell_length_c                   20.108(3)
_cell_angle_alpha                90
_cell_angle_beta                 90
_cell_angle_gamma                90
_cell_volume                     1300.58
_exptl_crystal_colour            colorless
_exptl_crystal_description       prismatic
_cell_formula_units_Z            4
_exptl_crystal_recrystallization_method 'ethyl acetate'
loop_
_atom_site_label
_atom_site_type_symbol
_atom_site_fract_x
_atom_site_fract_y
_atom_site_fract_z
Br1 Br 0.60615(7) 0.37916(4) 0.992203(17)
N1 N 0.1712(5) 0.1860(3) 0.66087(18)
O1 O 0.8682(4) 0.4856(3) 0.64840(13)
O2 O 0.1115(4) 0.1257(3) 0.61231(14)
O3 O 0.0748(5) 0.1934(4) 0.71214(16)
C1 C 0.7048(6) 0.4361(4) 0.63535(17)
C2 C 0.6837(6) 0.3111(4) 0.5941(2)
H1 H 0.7602 0.2389 0.6148
H2 H 0.7415 0.3264 0.5502
C3 C 0.4587(5) 0.2721(4) 0.58773(18)
H3 H 0.4457 0.1883 0.5628
C4 C 0.3809(5) 0.2536(3) 0.65847(16)
H4 H 0.4797 0.1964 0.6821
C5 C 0.3716(5) 0.3892(3) 0.69495(14)
H5 H 0.2273 0.4190 0.6935
C6 C 0.4991(6) 0.4916(4) 0.65427(17)
H6 H 0.5158 0.5749 0.6793
C7 C 0.3820(6) 0.5176(3) 0.58930(16)
H7 H 0.4634 0.5755 0.5608
H8 H 0.2523 0.5623 0.5989
C8 C 0.3387(5) 0.3837(4) 0.55301(16)
H9 H 0.1918 0.3642 0.5541
H10 H 0.3815 0.3902 0.5069
C9 C 0.4318(4) 0.3813(4) 0.76760(14)
C10 C 0.2904(6) 0.4189(3) 0.81598(18)
H11 H 0.1590 0.4467 0.8033
C11 C 0.3406(6) 0.4160(4) 0.88210(17)
H12 H 0.2429 0.4391 0.9140
C12 C 0.5348(5) 0.3790(4) 0.90080(15)
C13 C 0.6804(6) 0.3425(3) 0.85488(17)
H13 H 0.8123 0.3169 0.8681
C14 C 0.6269(5) 0.3446(3) 0.78835(16)
H14 H 0.7252 0.3207 0.7567
loop_
_geom_bond_atom_site_label_1
_geom_bond_atom_site_label_2
_geom_bond_site_symmetry_1
_geom_bond_site_symmetry_2
Br1 C12 1_555 1_555
N1 O2 1_555 1_555
O1 C1 1_555 1_555
O3 N1 1_555 1_555
C1 C2 1_555 1_555
C2 H1 1_555 1_555
H2 C2 1_555 1_555
C3 C2 1_555 1_555
H3 C3 1_555 1_555
C4 N1 1_555 1_555
H4 C4 1_555 1_555
C5 C4 1_555 1_555
H5 C5 1_555 1_555
C6 C1 1_555 1_555
H6 C6 1_555 1_555
C7 C6 1_555 1_555
H7 C7 1_555 1_555
H8 C7 1_555 1_555
C8 C3 1_555 1_555
H9 C8 1_555 1_555
H10 C8 1_555 1_555
C9 C5 1_555 1_555
C10 C9 1_555 1_555
H11 C10 1_555 1_555
C11 C10 1_555 1_555
H12 C11 1_555 1_555
C12 C11 1_555 1_555
C13 C12 1_555 1_555
H13 C13 1_555 1_555
C14 C9 1_555 1_555
H14 C14 1_555 1_555
C3 C4 1_555 1_555
C5 C6 1_555 1_555
C7 C8 1_555 1_555
C13 C14 1_555 1_555

#END
