
#######################################################################
#
#                 Cambridge Crystallographic Data Centre
#                                CCDC 
#
#######################################################################
#
# If this CIF has been generated from an entry in the Cambridge 
# Structural Database, then it will include bibliographic, chemical, 
# crystal, experimental, refinement or atomic coordinate data resulting 
# from the CCDC's data processing and validation procedures.
#
#######################################################################

data_ROMZOK
_chemical_formula_moiety         'C15 H12 B1 N1 O2'
_chemical_name_systematic        3-(1H-Indol-3-yl)-2,1-benzoxaborol-1(3H)-ol
_symmetry_cell_setting           monoclinic
_symmetry_space_group_name_H-M   'P 21/c'
_symmetry_Int_Tables_number      14
_space_group_name_Hall           '-P 2ybc'
loop_
_symmetry_equiv_pos_site_id
_symmetry_equiv_pos_as_xyz
1 x,y,z
2 -x,1/2+y,1/2-z
3 -x,-y,-z
4 x,1/2-y,1/2+z
_cell_length_a                   9.6426(11)
_cell_length_b                   16.8274(19)
_cell_length_c                   8.1690(9)
_cell_angle_alpha                90
_cell_angle_beta                 99.3090(10)
_cell_angle_gamma                90
_cell_volume                     1308.04
_exptl_crystal_colour            'yellow red'
_cell_formula_units_Z            4
loop_
_atom_site_label
_atom_site_type_symbol
_atom_site_fract_x
_atom_site_fract_y
_atom_site_fract_z
O1 O 0.43833(8) 0.02101(5) 0.17268(10)
O2 O 0.66476(9) 0.05583(7) 0.11169(12)
H1 H 0.6331 0.0325 0.0256
C1 C 0.56402(12) 0.11109(7) 0.36687(14)
C2 C 0.16272(11) 0.11472(7) 0.09217(14)
C3 C 0.35089(11) 0.03580(7) 0.30012(14)
H2 H 0.3456 -0.0134 0.3630
C4 C 0.01458(12) 0.11414(7) 0.06348(15)
C5 C 0.43400(11) 0.09629(7) 0.41380(13)
C6 C 0.20565(11) 0.05814(7) 0.22180(14)
N1 N -0.02897(10) 0.06076(7) 0.17057(14)
H3 H -0.1150 0.0504 0.1784
C7 C 0.65771(13) 0.16324(8) 0.46107(15)
H4 H 0.7450 0.1737 0.4313
C8 C 0.08602(12) 0.02657(8) 0.26303(16)
H5 H 0.0831 -0.0126 0.3427
C9 C -0.06426(14) 0.16098(9) -0.05780(18)
H6 H -0.1620 0.1599 -0.0751
B1 B 0.56467(13) 0.06144(9) 0.20819(17)
C10 C 0.61902(15) 0.19890(9) 0.59876(17)
H7 H 0.6805 0.2339 0.6618
C11 C 0.39517(14) 0.13170(9) 0.55236(16)
H8 H 0.3082 0.1213 0.5830
C12 C 0.23275(14) 0.16437(8) -0.00472(17)
H9 H 0.3304 0.1661 0.0113
C13 C 0.48956(16) 0.18308(10) 0.64415(17)
H10 H 0.4656 0.2074 0.7379
C14 C 0.00763(18) 0.20864(11) -0.1503(2)
H11 H -0.0423 0.2405 -0.2325
C15 C 0.15443(18) 0.21071(10) -0.1244(2)
H12 H 0.2001 0.2441 -0.1892
loop_
_geom_bond_atom_site_label_1
_geom_bond_atom_site_label_2
_geom_bond_site_symmetry_1
_geom_bond_site_symmetry_2
O1 C3 1_555 1_555
O2 H1 1_555 1_555
C1 C5 1_555 1_555
C2 C4 1_555 1_555
C3 H2 1_555 1_555
C4 N1 1_555 1_555
C5 C3 1_555 1_555
C6 C2 1_555 1_555
N1 H3 1_555 1_555
C7 C1 1_555 1_555
H4 C7 1_555 1_555
C8 C6 1_555 1_555
H5 C8 1_555 1_555
C9 C4 1_555 1_555
H6 C9 1_555 1_555
B1 O1 1_555 1_555
C10 C7 1_555 1_555
H7 C10 1_555 1_555
C11 C5 1_555 1_555
H8 C11 1_555 1_555
C12 C2 1_555 1_555
H9 C12 1_555 1_555
C13 C10 1_555 1_555
H10 C13 1_555 1_555
C14 C9 1_555 1_555
H11 C14 1_555 1_555
C15 C12 1_555 1_555
H12 C15 1_555 1_555
O2 B1 1_555 1_555
C1 B1 1_555 1_555
C3 C6 1_555 1_555
N1 C8 1_555 1_555
C11 C13 1_555 1_555
C14 C15 1_555 1_555

#END
