
#######################################################################
#
#                 Cambridge Crystallographic Data Centre
#                                CCDC 
#
#######################################################################
#
# If this CIF has been generated from an entry in the Cambridge 
# Structural Database, then it will include bibliographic, chemical, 
# crystal, experimental, refinement or atomic coordinate data resulting 
# from the CCDC's data processing and validation procedures.
#
#######################################################################

data_ROMZAV
_chemical_formula_moiety         'C44 H30 N2 O8'
_chemical_name_systematic        
'Cyclohexane-1,2-diyl bis(2-(1,8-naphthalimido)benzoate)'
_symmetry_cell_setting           trigonal
_symmetry_space_group_name_H-M   'P 32 2 1'
_symmetry_Int_Tables_number      154
_space_group_name_Hall           'P 32 2"'
loop_
_symmetry_equiv_pos_site_id
_symmetry_equiv_pos_as_xyz
1 x,y,z
2 -y,x-y,2/3+z
3 -x+y,-x,1/3+z
4 y,x,-z
5 x-y,-y,1/3-z
6 -x,-x+y,2/3-z
_cell_length_a                   11.873(2)
_cell_length_b                   11.873(2)
_cell_length_c                   43.046(9)
_cell_angle_alpha                90
_cell_angle_beta                 90
_cell_angle_gamma                120
_cell_volume                     5255.14
_exptl_crystal_colour            colorless
_exptl_crystal_description       plate
_cell_formula_units_Z            6
loop_
_atom_site_label
_atom_site_type_symbol
_atom_site_fract_x
_atom_site_fract_y
_atom_site_fract_z
C1 C 0.6641(6) 0.8586(5) 0.04305(10)
H1 H 0.6353 0.8666 0.0633
C2 C 0.7269(6) 0.9888(6) 0.02725(10)
H2 H 0.7645 0.9834 0.0079
C3 C 0.6326(6) 1.0358(6) 0.02186(11)
H3 H 0.6758 1.1154 0.0102
H4 H 0.6078 1.0545 0.0416
C4 C 0.5125(6) 0.9383(6) 0.00435(11)
H5 H 0.5356 0.9295 -0.0165
H6 H 0.4524 0.9700 0.0033
C5 C 0.4489(6) 0.8042(6) 0.02100(11)
H7 H 0.3776 0.7417 0.0087
H8 H 0.4163 0.8095 0.0410
C6 C 0.5470(6) 0.7598(6) 0.02459(10)
H9 H 0.5100 0.6767 0.0347
H10 H 0.5769 0.7521 0.0044
O1 O 0.8294(4) 1.0757(4) 0.04858(6)
O2 O 0.9546(5) 1.2025(4) 0.00976(7)
C7 C 0.9337(6) 1.1784(6) 0.03725(11)
C8 C 1.0274(6) 1.2639(5) 0.06186(10)
C9 C 1.0051(5) 1.2496(5) 0.09397(10)
C10 C 1.0988(6) 1.3305(6) 0.11438(11)
H11 H 1.0824 1.3190 0.1363
C11 C 1.2147(7) 1.4303(6) 0.10371(12)
H12 H 1.2807 1.4856 0.1182
C12 C 1.2389(7) 1.4466(6) 0.07228(12)
H13 H 1.3193 1.5171 0.0647
C13 C 1.1466(7) 1.3658(7) 0.05183(12)
H14 H 1.1638 1.3764 0.0299
N1 N 0.8809(4) 1.1489(4) 0.10678(8)
O3 O 0.9723(4) 1.0280(4) 0.12013(7)
O4 O 0.7881(4) 1.2687(4) 0.09261(8)
C14 C 0.8739(6) 1.0379(5) 0.11902(10)
C15 C 0.7450(6) 0.9345(5) 0.13048(9)
C16 C 0.7335(6) 0.8247(6) 0.14349(10)
H15 H 0.8094 0.8159 0.1452
C17 C 0.6118(5) 0.7248(5) 0.15376(9)
H16 H 0.6047 0.6478 0.1629
C18 C 0.5039(6) 0.7383(6) 0.15106(9)
H17 H 0.4218 0.6705 0.1588
C19 C 0.5117(6) 0.8475(6) 0.13721(10)
C20 C 0.4040(7) 0.8635(8) 0.13282(12)
H18 H 0.3198 0.7965 0.1395
C21 C 0.4155(7) 0.9737(7) 0.11926(14)
H19 H 0.3409 0.9839 0.1163
C22 C 0.5381(7) 1.0726(7) 0.10996(12)
H20 H 0.5468 1.1486 0.0999
C23 C 0.6469(6) 1.0611(6) 0.11384(10)
C24 C 0.6372(5) 0.9507(5) 0.12730(9)
C25 C 0.7732(6) 1.1682(6) 0.10367(10)
O5 O 0.7648(4) 0.8229(3) 0.04588(6)
O6 O 0.6422(4) 0.6745(4) 0.08199(6)
C26 C 0.7423(6) 0.7301(5) 0.06731(10)
C27 C 0.8569(6) 0.7115(5) 0.07104(10)
C28 C 0.8422(5) 0.5985(6) 0.08437(9)
C29 C 0.9471(6) 0.5794(5) 0.08790(10)
H21 H 0.9341 0.5002 0.0972
C30 C 1.0698(6) 0.6753(6) 0.07823(10)
H22 H 1.1438 0.6642 0.0812
C31 C 1.0837(6) 0.7867(6) 0.06458(11)
H23 H 1.1676 0.8510 0.0570
C32 C 0.9809(6) 0.8061(6) 0.06113(10)
H24 H 0.9928 0.8847 0.0518
N2 N 0.7157(4) 0.4943(4) 0.09268(7)
O7 O 0.6819(4) 0.4419(4) 0.04152(6)
O8 O 0.7490(4) 0.5495(4) 0.14375(6)
C33 C 0.6346(6) 0.4202(6) 0.06777(10)
C34 C 0.5001(6) 0.3241(5) 0.07459(9)
C35 C 0.4203(6) 0.2448(6) 0.05116(10)
H25 H 0.4546 0.2543 0.0305
C36 C 0.2921(6) 0.1517(7) 0.05718(11)
H26 H 0.2380 0.0981 0.0405
C37 C 0.2423(6) 0.1363(6) 0.08672(10)
H27 H 0.1539 0.0711 0.0909
C38 C 0.3231(6) 0.2155(5) 0.11152(10)
C39 C 0.2740(6) 0.2020(6) 0.14247(9)
H28 H 0.1848 0.1398 0.1469
C40 C 0.3556(6) 0.2795(6) 0.16542(10)
H29 H 0.3247 0.2697 0.1864
C41 C 0.4855(6) 0.3717(5) 0.15929(9)
H30 H 0.5399 0.4268 0.1757
C42 C 0.5362(5) 0.3880(5) 0.12975(9)
C43 C 0.4524(5) 0.3102(5) 0.10523(9)
C44 C 0.6727(6) 0.4826(5) 0.12368(9)
loop_
_geom_bond_atom_site_label_1
_geom_bond_atom_site_label_2
_geom_bond_site_symmetry_1
_geom_bond_site_symmetry_2
C1 H1 1_555 1_555
C2 C1 1_555 1_555
H2 C2 1_555 1_555
C3 C2 1_555 1_555
H3 C3 1_555 1_555
H4 C3 1_555 1_555
C4 C3 1_555 1_555
H5 C4 1_555 1_555
H6 C4 1_555 1_555
C5 C4 1_555 1_555
H7 C5 1_555 1_555
H8 C5 1_555 1_555
C6 C1 1_555 1_555
H9 C6 1_555 1_555
H10 C6 1_555 1_555
O1 C2 1_555 1_555
O2 C7 1_555 1_555
C7 O1 1_555 1_555
C8 C7 1_555 1_555
C9 C8 1_555 1_555
C10 C9 1_555 1_555
H11 C10 1_555 1_555
C11 C10 1_555 1_555
H12 C11 1_555 1_555
C12 C11 1_555 1_555
H13 C12 1_555 1_555
C13 C8 1_555 1_555
H14 C13 1_555 1_555
N1 C9 1_555 1_555
O3 C14 1_555 1_555
O4 C25 1_555 1_555
C14 N1 1_555 1_555
C15 C14 1_555 1_555
C16 C15 1_555 1_555
H15 C16 1_555 1_555
C17 C16 1_555 1_555
H16 C17 1_555 1_555
C18 C17 1_555 1_555
H17 C18 1_555 1_555
C19 C18 1_555 1_555
C20 C19 1_555 1_555
H18 C20 1_555 1_555
C21 C20 1_555 1_555
H19 C21 1_555 1_555
C22 C21 1_555 1_555
H20 C22 1_555 1_555
C23 C22 1_555 1_555
C24 C15 1_555 1_555
C25 N1 1_555 1_555
O5 C1 1_555 1_555
O6 C26 1_555 1_555
C26 O5 1_555 1_555
C27 C26 1_555 1_555
C28 C27 1_555 1_555
C29 C28 1_555 1_555
H21 C29 1_555 1_555
C30 C29 1_555 1_555
H22 C30 1_555 1_555
C31 C30 1_555 1_555
H23 C31 1_555 1_555
C32 C27 1_555 1_555
H24 C32 1_555 1_555
N2 C28 1_555 1_555
O7 C33 1_555 1_555
O8 C44 1_555 1_555
C33 N2 1_555 1_555
C34 C33 1_555 1_555
C35 C34 1_555 1_555
H25 C35 1_555 1_555
C36 C35 1_555 1_555
H26 C36 1_555 1_555
C37 C36 1_555 1_555
H27 C37 1_555 1_555
C38 C37 1_555 1_555
C39 C38 1_555 1_555
H28 C39 1_555 1_555
C40 C39 1_555 1_555
H29 C40 1_555 1_555
C41 C40 1_555 1_555
H30 C41 1_555 1_555
C42 C41 1_555 1_555
C43 C34 1_555 1_555
C44 N2 1_555 1_555
C5 C6 1_555 1_555
C12 C13 1_555 1_555
C19 C24 1_555 1_555
C23 C24 1_555 1_555
C23 C25 1_555 1_555
C31 C32 1_555 1_555
C38 C43 1_555 1_555
C42 C43 1_555 1_555
C42 C44 1_555 1_555

#END
