
#######################################################################
#
#                 Cambridge Crystallographic Data Centre
#                                CCDC 
#
#######################################################################
#
# If this CIF has been generated from an entry in the Cambridge 
# Structural Database, then it will include bibliographic, chemical, 
# crystal, experimental, refinement or atomic coordinate data resulting 
# from the CCDC's data processing and validation procedures.
#
#######################################################################

data_RONHUZ
_chemical_formula_moiety         'C54 H116 Li4 N4 O6'
_chemical_name_systematic        
"bis(\m-1,1'-(heptane-1,7-diylbis(oxy))bis(N-isopropyl-3-methylbutan-2-amido))-bis(diethyl ether)-tetra-lithium"
_symmetry_cell_setting           triclinic
_symmetry_space_group_name_H-M   'P 1'
_symmetry_Int_Tables_number      1
_space_group_name_Hall           'P 1'
loop_
_symmetry_equiv_pos_site_id
_symmetry_equiv_pos_as_xyz
1 x,y,z
_cell_length_a                   8.9565(18)
_cell_length_b                   10.492(2)
_cell_length_c                   18.558(5)
_cell_angle_alpha                89.85(4)
_cell_angle_beta                 82.26(4)
_cell_angle_gamma                65.30(3)
_cell_volume                     1567.14
_exptl_crystal_colour            colorless
_exptl_crystal_description       plate
_cell_formula_units_Z            1
loop_
_atom_site_label
_atom_site_type_symbol
_atom_site_fract_x
_atom_site_fract_y
_atom_site_fract_z
C1 C 0.8191(12) 0.5856(10) 0.0944(5)
H1 H 0.8522 0.598 0.0439
H2 H 0.9131 0.5649 0.1202
C2 C 0.6726(12) 0.7198(10) 0.1283(5)
H3 H 0.6412 0.7014 0.1786
C3 C 0.7301(12) 0.8410(10) 0.1321(5)
H4 H 0.6289 0.928 0.1442
C4 C 0.8198(14) 0.8611(12) 0.0595(6)
H5 H 0.8274 0.9495 0.0621
H6 H 0.7586 0.8601 0.021
H7 H 0.9294 0.7863 0.0499
C5 C 0.8347(14) 0.8281(11) 0.1917(6)
H8 H 0.9319 0.7405 0.1841
H9 H 0.7711 0.8313 0.2382
H10 H 0.8674 0.9044 0.1906
C6 C 0.3769(13) 0.8380(11) 0.1380(6)
H11 H 0.3902 0.9187 0.1575
C7 C 0.3289(16) 0.7643(14) 0.2021(7)
H12 H 0.2314 0.8306 0.2323
H13 H 0.4186 0.7266 0.2303
H14 H 0.3063 0.6894 0.1841
C8 C 0.2345(14) 0.8929(13) 0.0937(7)
H15 H 0.2475 0.9607 0.0617
H16 H 0.1312 0.9365 0.126
H17 H 0.2346 0.8163 0.0655
C9 C 0.3321(13) 0.5147(10) -0.0056(5)
H18 H 0.2565 0.6086 0.0141
H19 H 0.2665 0.465 -0.0158
C10 C 0.4349(12) 0.5236(10) -0.0748(5)
H20 H 0.5111 0.4269 -0.0919
C11 C 0.3238(13) 0.5859(11) -0.1350(5)
H21 H 0.3888 0.6145 -0.173
C12 C 0.1666(15) 0.7192(13) -0.1061(6)
H22 H 0.1196 0.7709 -0.1463
H23 H 0.1954 0.7768 -0.0757
H24 H 0.0868 0.6927 -0.0781
C13 C 0.2777(17) 0.4792(14) -0.1712(7)
H25 H 0.3769 0.3968 -0.1885
H26 H 0.2206 0.5199 -0.2115
H27 H 0.2068 0.4538 -0.1364
C14 C 0.6834(12) 0.5500(10) -0.1191(6)
H28 H 0.6452 0.5448 -0.1656
C15 C 0.8184(13) 0.4037(11) -0.1086(6)
H29 H 0.8677 0.408 -0.0664
H30 H 0.9023 0.3738 -0.1508
H31 H 0.7694 0.3379 -0.1021
C16 C 0.7612(14) 0.6540(12) -0.1254(6)
H32 H 0.684 0.7413 -0.1408
H33 H 0.8604 0.6169 -0.1606
H34 H 0.7886 0.6695 -0.0789
C17 C 1.1014(12) -0.2220(10) 0.4524(6)
H35 H 1.1194 -0.2331 0.5028
H36 H 1.1895 -0.2022 0.4258
C18 C 1.1064(14) -0.3576(11) 0.4202(6)
H37 H 1.0844 -0.3401 0.37
C19 C 1.2839(13) -0.4772(11) 0.4153(6)
H38 H 1.2763 -0.5645 0.4021
C20 C 1.3478(14) -0.4963(12) 0.4888(7)
H39 H 1.4364 -0.5883 0.4886
H40 H 1.259 -0.4859 0.5269
H41 H 1.388 -0.4266 0.4969
C21 C 1.4068(14) -0.4598(13) 0.3569(7)
H42 H 1.3602 -0.4389 0.3124
H43 H 1.5069 -0.5451 0.3494
H44 H 1.4317 -0.3841 0.3717
C22 C 0.9300(12) -0.4749(11) 0.4129(6)
H45 H 1.0338 -0.5563 0.3948
C23 C 0.8511(17) -0.4076(14) 0.3462(7)
H46 H 0.7468 -0.329 0.3619
H47 H 0.8331 -0.4755 0.3183
H48 H 0.924 -0.3759 0.3166
C24 C 0.8172(15) -0.5303(12) 0.4561(7)
H49 H 0.8713 -0.5842 0.4944
H50 H 0.7925 -0.589 0.4246
H51 H 0.7159 -0.453 0.4768
C25 C 0.4840(14) -0.1503(11) 0.5478(6)
H52 H 0.515 -0.2451 0.5283
H53 H 0.3637 -0.1014 0.5555
C26 C 0.5514(14) -0.1547(11) 0.6205(6)
H54 H 0.5178 -0.0571 0.6379
C27 C 0.4638(14) -0.2198(12) 0.6769(6)
H55 H 0.5209 -0.2343 0.7197
C28 C 0.2820(14) -0.1187(14) 0.7028(7)
H56 H 0.2771 -0.0325 0.7228
H57 H 0.2342 -0.1609 0.7396
H58 H 0.2209 -0.0995 0.6624
C29 C 0.4758(16) -0.3616(13) 0.6533(6)
H59 H 0.4486 -0.4062 0.6951
H60 H 0.5869 -0.4191 0.6303
H61 H 0.3995 -0.3499 0.6194
C30 C 0.7923(12) -0.1759(10) 0.6700(6)
H62 H 0.7279 -0.1833 0.7156
C31 C 0.7747(16) -0.0264(11) 0.6669(7)
H63 H 0.8279 -0.0146 0.6206
H64 H 0.8259 -0.0066 0.7051
H65 H 0.659 0.037 0.6732
C32 C 0.9706(14) -0.2711(13) 0.6714(7)
H66 H 0.9828 -0.3661 0.6754
H67 H 1.0078 -0.2436 0.7123
H68 H 1.0361 -0.265 0.6272
C33 C 0.9090(13) 0.3361(10) 0.0853(5)
H69 H 0.9889 0.3418 0.0461
H70 H 0.871 0.2682 0.0694
C34 C 0.9942(13) 0.2847(11) 0.1515(6)
H71 H 1.017 0.3591 0.1713
H72 H 1.1003 0.2058 0.1359
C35 C 0.8981(12) 0.2388(11) 0.2127(5)
H73 H 0.7953 0.3186 0.2315
H74 H 0.8701 0.1672 0.1933
C36 C 0.9992(13) 0.1812(12) 0.2742(6)
H75 H 1.021 0.2556 0.2947
H76 H 1.1055 0.107 0.2538
C37 C 0.9190(13) 0.1232(11) 0.3357(6)
H77 H 0.808 0.1938 0.3532
H78 H 0.9087 0.0417 0.3167
C38 C 1.0172(13) 0.0820(11) 0.3988(5)
H79 H 1.1273 0.0105 0.3808
H80 H 1.0301 0.1634 0.4161
C39 C 0.9434(14) 0.0269(10) 0.4625(6)
H81 H 1.0057 0.0191 0.5025
H82 H 0.8302 0.0951 0.4784
C40 C 0.3559(14) 0.3990(12) 0.1072(5)
H83 H 0.307 0.3408 0.0892
H84 H 0.2669 0.4811 0.1336
C41 C 0.4736(12) 0.3190(11) 0.1573(5)
H85 H 0.5121 0.3807 0.1799
H86 H 0.5694 0.2435 0.1297
C42 C 0.3921(13) 0.2578(12) 0.2160(6)
H87 H 0.3589 0.1925 0.1932
H88 H 0.2926 0.333 0.2414
C43 C 0.5073(13) 0.1810(11) 0.2714(6)
H89 H 0.6114 0.1123 0.2454
H90 H 0.5315 0.2484 0.2975
C44 C 0.4352(13) 0.1074(11) 0.3257(6)
H91 H 0.424 0.0323 0.2999
H92 H 0.3245 0.1738 0.3468
C45 C 0.5348(13) 0.0457(10) 0.3871(6)
H93 H 0.6473 -0.0175 0.3664
H94 H 0.5405 0.121 0.4151
C46 C 0.4629(14) -0.0328(12) 0.4372(6)
H95 H 0.3475 0.0274 0.4552
H96 H 0.4668 -0.1139 0.4107
C47 C 0.185(2) 1.0895(16) -0.1111(9)
H97 H 0.1261 1.0579 -0.0733
H98 H 0.137 1.0958 -0.1551
H99 H 0.176 1.1803 -0.0964
C48 C 0.3651(18) 0.9867(13) -0.1244(7)
H100 H 0.3739 0.8986 -0.1451
H101 H 0.4252 1.0231 -0.1598
C49 C 0.471(2) 1.0740(14) -0.0346(10)
H102 H 0.494 1.0589 0.0151
H103 H 0.3705 1.16 -0.0336
C50 C 0.610(3) 1.093(2) -0.0785(10)
H104 H 0.704 1.0042 -0.0884
H105 H 0.639 1.1559 -0.0519
H106 H 0.5764 1.1327 -0.1235
C51 C 0.851(2) -0.7157(14) 0.6831(9)
H107 H 0.7905 -0.7052 0.643
H108 H 0.779 -0.7058 0.728
H109 H 0.9426 -0.807 0.6786
C52 C 0.9166(18) -0.6039(14) 0.6828(7)
H110 H 0.8255 -0.5145 0.7002
H111 H 0.9972 -0.6272 0.7164
C53 C 1.142(2) -0.7061(15) 0.5827(8)
H112 H 1.1734 -0.6902 0.5326
H113 H 1.1201 -0.7892 0.5824
C54 C 1.286(2) -0.7344(18) 0.6232(10)
H114 H 1.2859 -0.6469 0.638
H115 H 1.3877 -0.7897 0.5921
H116 H 1.2753 -0.7847 0.6655
Li1 Li 0.573(2) 0.5573(17) 0.0464(10)
Li2 Li 0.500(2) 0.7797(17) -0.0138(9)
Li3 Li 0.794(2) -0.1864(18) 0.5003(9)
Li4 Li 0.902(2) -0.4048(17) 0.5630(9)
N1 N 0.5302(9) 0.7502(8) 0.0910(4)
N2 N 0.5369(9) 0.5951(8) -0.0615(4)
N3 N 0.9719(10) -0.3858(8) 0.4576(4)
N4 N 0.7329(10) -0.2224(8) 0.6090(4)
O1 O 0.7696(8) 0.4715(6) 0.0989(3)
O2 O 0.4377(8) 0.4425(7) 0.0468(3)
O3 O 0.9417(8) -0.1056(7) 0.4482(4)
O4 O 0.5537(8) -0.0779(7) 0.4973(3)
O5 O 0.4406(10) 0.9607(7) -0.0600(4)
O6 O 0.9932(11) -0.5891(8) 0.6122(4)
loop_
_geom_bond_atom_site_label_1
_geom_bond_atom_site_label_2
_geom_bond_site_symmetry_1
_geom_bond_site_symmetry_2
C1 H1 1_555 1_555
H2 C1 1_555 1_555
C2 C1 1_555 1_555
H3 C2 1_555 1_555
C3 C2 1_555 1_555
H4 C3 1_555 1_555
C4 C3 1_555 1_555
H5 C4 1_555 1_555
H6 C4 1_555 1_555
H7 C4 1_555 1_555
C5 C3 1_555 1_555
H8 C5 1_555 1_555
H9 C5 1_555 1_555
H10 C5 1_555 1_555
C6 H11 1_555 1_555
C7 C6 1_555 1_555
H12 C7 1_555 1_555
H13 C7 1_555 1_555
H14 C7 1_555 1_555
C8 C6 1_555 1_555
H15 C8 1_555 1_555
H16 C8 1_555 1_555
H17 C8 1_555 1_555
C9 H18 1_555 1_555
H19 C9 1_555 1_555
C10 C9 1_555 1_555
H20 C10 1_555 1_555
C11 C10 1_555 1_555
H21 C11 1_555 1_555
C12 C11 1_555 1_555
H22 C12 1_555 1_555
H23 C12 1_555 1_555
H24 C12 1_555 1_555
C13 C11 1_555 1_555
H25 C13 1_555 1_555
H26 C13 1_555 1_555
H27 C13 1_555 1_555
C14 H28 1_555 1_555
C15 C14 1_555 1_555
H29 C15 1_555 1_555
H30 C15 1_555 1_555
H31 C15 1_555 1_555
C16 C14 1_555 1_555
H32 C16 1_555 1_555
H33 C16 1_555 1_555
H34 C16 1_555 1_555
C17 H35 1_555 1_555
H36 C17 1_555 1_555
C18 C17 1_555 1_555
H37 C18 1_555 1_555
C19 C18 1_555 1_555
H38 C19 1_555 1_555
C20 C19 1_555 1_555
H39 C20 1_555 1_555
H40 C20 1_555 1_555
H41 C20 1_555 1_555
C21 C19 1_555 1_555
H42 C21 1_555 1_555
H43 C21 1_555 1_555
H44 C21 1_555 1_555
C22 H45 1_555 1_555
C23 C22 1_555 1_555
H46 C23 1_555 1_555
H47 C23 1_555 1_555
H48 C23 1_555 1_555
C24 C22 1_555 1_555
H49 C24 1_555 1_555
H50 C24 1_555 1_555
H51 C24 1_555 1_555
C25 H52 1_555 1_555
H53 C25 1_555 1_555
C26 C25 1_555 1_555
H54 C26 1_555 1_555
C27 C26 1_555 1_555
H55 C27 1_555 1_555
C28 C27 1_555 1_555
H56 C28 1_555 1_555
H57 C28 1_555 1_555
H58 C28 1_555 1_555
C29 C27 1_555 1_555
H59 C29 1_555 1_555
H60 C29 1_555 1_555
H61 C29 1_555 1_555
C30 H62 1_555 1_555
C31 C30 1_555 1_555
H63 C31 1_555 1_555
H64 C31 1_555 1_555
H65 C31 1_555 1_555
C32 C30 1_555 1_555
H66 C32 1_555 1_555
H67 C32 1_555 1_555
H68 C32 1_555 1_555
C33 H69 1_555 1_555
H70 C33 1_555 1_555
C34 C33 1_555 1_555
H71 C34 1_555 1_555
H72 C34 1_555 1_555
C35 C34 1_555 1_555
H73 C35 1_555 1_555
H74 C35 1_555 1_555
C36 C35 1_555 1_555
H75 C36 1_555 1_555
H76 C36 1_555 1_555
C37 C36 1_555 1_555
H77 C37 1_555 1_555
H78 C37 1_555 1_555
C38 C37 1_555 1_555
H79 C38 1_555 1_555
H80 C38 1_555 1_555
C39 C38 1_555 1_555
H81 C39 1_555 1_555
H82 C39 1_555 1_555
C40 H83 1_555 1_555
H84 C40 1_555 1_555
C41 C40 1_555 1_555
H85 C41 1_555 1_555
H86 C41 1_555 1_555
C42 C41 1_555 1_555
H87 C42 1_555 1_555
H88 C42 1_555 1_555
C43 C42 1_555 1_555
H89 C43 1_555 1_555
H90 C43 1_555 1_555
C44 C43 1_555 1_555
H91 C44 1_555 1_555
H92 C44 1_555 1_555
C45 C44 1_555 1_555
H93 C45 1_555 1_555
H94 C45 1_555 1_555
C46 C45 1_555 1_555
H95 C46 1_555 1_555
H96 C46 1_555 1_555
C47 H97 1_555 1_555
H98 C47 1_555 1_555
H99 C47 1_555 1_555
C48 C47 1_555 1_555
H100 C48 1_555 1_555
H101 C48 1_555 1_555
C49 H102 1_555 1_555
H103 C49 1_555 1_555
C50 C49 1_555 1_555
H104 C50 1_555 1_555
H105 C50 1_555 1_555
H106 C50 1_555 1_555
C51 H107 1_555 1_555
H108 C51 1_555 1_555
H109 C51 1_555 1_555
C52 C51 1_555 1_555
H110 C52 1_555 1_555
H111 C52 1_555 1_555
C53 H112 1_555 1_555
H113 C53 1_555 1_555
C54 C53 1_555 1_555
H114 C54 1_555 1_555
H115 C54 1_555 1_555
H116 C54 1_555 1_555
Li1 N1 1_555 1_555
Li2 N1 1_555 1_555
Li3 N3 1_555 1_555
Li4 N3 1_555 1_555
N1 C2 1_555 1_555
N2 C10 1_555 1_555
N3 C18 1_555 1_555
N4 C26 1_555 1_555
O1 C1 1_555 1_555
O2 C9 1_555 1_555
O3 C17 1_555 1_555
O4 C25 1_555 1_555
O5 C48 1_555 1_555
O6 C52 1_555 1_555
C6 N1 1_555 1_555
C14 N2 1_555 1_555
C22 N3 1_555 1_555
C30 N4 1_555 1_555
C33 O1 1_555 1_555
C39 O3 1_555 1_555
C40 O2 1_555 1_555
C46 O4 1_555 1_555
C49 O5 1_555 1_555
C53 O6 1_555 1_555
Li1 N2 1_555 1_555
Li1 O1 1_555 1_555
Li1 O2 1_555 1_555
Li2 N2 1_555 1_555
Li2 O5 1_555 1_555
Li3 N4 1_555 1_555
Li3 O3 1_555 1_555
Li3 O4 1_555 1_555
Li4 N4 1_555 1_555
Li4 O6 1_555 1_555

#END
