
#######################################################################
#
#                 Cambridge Crystallographic Data Centre
#                                CCDC 
#
#######################################################################
#
# If this CIF has been generated from an entry in the Cambridge 
# Structural Database, then it will include bibliographic, chemical, 
# crystal, experimental, refinement or atomic coordinate data resulting 
# from the CCDC's data processing and validation procedures.
#
#######################################################################

data_RONJUB
_chemical_formula_moiety         'C42 H45 N5 O4 S2,2(C6 H12 O2)'
_chemical_name_systematic        
'3-(2-oxo-2-((2,4,6-triethyl-3,5-bis(((phenylcarbamothioyl)amino)methyl)benzyl)amino)ethoxy)-2-naphthoic acid 4-hydroxy-4-methylpentan-2-one'
_symmetry_cell_setting           triclinic
_symmetry_space_group_name_H-M   'P -1'
_symmetry_Int_Tables_number      2
_space_group_name_Hall           '-P 1'
loop_
_symmetry_equiv_pos_site_id
_symmetry_equiv_pos_as_xyz
1 x,y,z
2 -x,-y,-z
_cell_length_a                   9.835(5)
_cell_length_b                   15.598(7)
_cell_length_c                   17.538(8)
_cell_angle_alpha                91.992(9)
_cell_angle_beta                 98.322(11)
_cell_angle_gamma                100.485(8)
_cell_volume                     2612.49
_exptl_crystal_colour            colorless
_exptl_crystal_description       prism
_cell_formula_units_Z            2
loop_
_atom_site_label
_atom_site_type_symbol
_atom_site_fract_x
_atom_site_fract_y
_atom_site_fract_z
C1 C 0.7469(5) 0.3346(3) 0.3691(3)
C2 C 0.7370(5) 0.2710(3) 0.3078(3)
C3 C 0.7135(5) 0.1822(3) 0.3218(3)
C4 C 0.7020(5) 0.1552(3) 0.3966(3)
C5 C 0.7127(5) 0.2187(3) 0.4578(3)
C6 C 0.7320(5) 0.3075(3) 0.4441(3)
C7 C 0.7593(5) 0.2999(3) 0.2277(3)
H1 H 0.7272 0.3559 0.2196
H2 H 0.7025 0.2558 0.1882
C8 C 0.9142(6) 0.3113(4) 0.2175(3)
H3 H 0.9686 0.3613 0.2507
H4 H 0.9232 0.3215 0.1635
H5 H 0.9495 0.2583 0.2318
C9 C 0.6832(6) 0.0585(3) 0.4136(3)
H6 H 0.6315 0.0227 0.3671
H7 H 0.6263 0.0479 0.4557
C10 C 0.8234(6) 0.0296(4) 0.4371(4)
H8 H 0.8794 0.0388 0.3951
H9 H 0.8064 -0.0325 0.4474
H10 H 0.8741 0.0640 0.4837
C11 C 0.7426(5) 0.3756(3) 0.5098(3)
H11 H 0.6819 0.3512 0.5472
H12 H 0.7083 0.4273 0.4891
C12 C 0.8928(6) 0.4041(4) 0.5516(3)
H13 H 0.9262 0.3534 0.5736
H14 H 0.8951 0.4483 0.5931
H15 H 0.9532 0.4288 0.5149
C13 C 0.7802(5) 0.4307(3) 0.3549(3)
H16 H 0.8348 0.4628 0.4025
H17 H 0.8399 0.4385 0.3138
C14 C 0.6301(6) 0.5394(3) 0.3692(3)
C15 C 0.5002(6) 0.5728(4) 0.3348(3)
H18 H 0.4252 0.5574 0.3667
H19 H 0.5218 0.6372 0.3332
C16 C 0.3197(5) 0.5244(3) 0.2246(3)
C17 C 0.2840(6) 0.4666(3) 0.1565(3)
C18 C 0.1543(6) 0.4586(3) 0.1144(3)
H20 H 0.1316 0.4223 0.0680
C19 C 0.0523(6) 0.5027(4) 0.1376(3)
C20 C -0.0854(7) 0.4930(4) 0.0960(4)
H21 H -0.1100 0.4564 0.0498
C21 C -0.1827(7) 0.5343(5) 0.1203(4)
H22 H -0.2736 0.5271 0.0910
C22 C -0.1487(7) 0.5875(5) 0.1885(4)
H23 H -0.2179 0.6152 0.2060
C23 C -0.0175(7) 0.6003(4) 0.2305(3)
H24 H 0.0042 0.6380 0.2761
C24 C 0.0864(6) 0.5579(4) 0.2066(3)
C25 C 0.2249(6) 0.5688(4) 0.2486(3)
H25 H 0.2509 0.6073 0.2937
C26 C 0.3875(6) 0.4152(4) 0.1333(3)
C27 C 0.7096(5) 0.1151(3) 0.2558(3)
H26 H 0.7844 0.1366 0.2252
H27 H 0.7281 0.0598 0.2774
C28 C 0.5563(5) 0.0664(3) 0.1313(3)
C29 C 0.3045(5) 0.0821(4) 0.1070(3)
C30 C 0.3081(6) 0.1685(4) 0.1326(3)
H28 H 0.3948 0.2084 0.1438
C31 C 0.1849(6) 0.1954(4) 0.1416(4)
H29 H 0.1870 0.2535 0.1604
C32 C 0.0574(6) 0.1374(5) 0.1232(4)
H30 H -0.0275 0.1565 0.1281
C33 C 0.0545(6) 0.0530(5) 0.0980(4)
H31 H -0.0323 0.0133 0.0863
C34 C 0.1778(6) 0.0251(4) 0.0896(3)
H32 H 0.1751 -0.0334 0.0717
C35 C 0.7009(5) 0.1908(4) 0.5395(3)
H33 H 0.7295 0.1335 0.5460
H34 H 0.7635 0.2341 0.5776
C36 C 0.5139(6) 0.1835(3) 0.6213(3)
C37 C 0.2773(6) 0.1726(3) 0.6670(3)
C38 C 0.2964(7) 0.1285(4) 0.7325(3)
H35 H 0.3823 0.1098 0.7481
C39 C 0.1871(8) 0.1113(5) 0.7762(4)
H36 H 0.1996 0.0803 0.8216
C40 C 0.0623(7) 0.1382(4) 0.7550(4)
H37 H -0.0109 0.1256 0.7852
C41 C 0.0444(7) 0.1837(5) 0.6893(4)
H38 H -0.0413 0.2028 0.6739
C42 C 0.1521(6) 0.2014(4) 0.6457(3)
H39 H 0.1402 0.2334 0.6009
N1 N 0.6559(4) 0.4693(3) 0.3320(2)
H40 H 0.5953 0.4449 0.2917
N2 N 0.5739(4) 0.0982(3) 0.2052(2)
H41 H 0.5003 0.1095 0.2240
N3 N 0.4260(4) 0.0528(3) 0.0903(3)
H42 H 0.4148 0.0210 0.0466
N4 N 0.5567(4) 0.1845(3) 0.5523(2)
H43 H 0.4923 0.1810 0.5113
N5 N 0.3752(5) 0.1879(3) 0.6151(2)
H44 H 0.3398 0.2033 0.5698
O1 O 0.7022(4) 0.5763(2) 0.4284(2)
O2 O 0.4562(4) 0.5335(2) 0.25906(19)
O3 O 0.4725(4) 0.3877(3) 0.1781(2)
O4 O 0.3729(6) 0.4004(4) 0.0580(3)
S1 S 0.68813(16) 0.04331(13) 0.08841(9)
S2 S 0.62356(18) 0.18202(13) 0.70346(9)
H45 H 0.425(7) 0.379(4) 0.052(4)
O5 O 0.3401(8) 0.2847(6) 0.4804(4)
H46 H 0.3249 0.3255 0.5086
O6 O 0.3479(14) 0.0985(8) 0.4280(6)
C43 C 0.1040(9) 0.2504(8) 0.4174(6)
H47 H 0.0959 0.1980 0.4470
H48 H 0.0453 0.2369 0.3668
H49 H 0.0730 0.2970 0.4454
C44 C 0.2804(10) 0.3680(6) 0.3720(5)
H50 H 0.2598 0.4127 0.4069
H51 H 0.2197 0.3653 0.3221
H52 H 0.3786 0.3829 0.3645
C45 C 0.2545(14) 0.2800(6) 0.4068(5)
C46 C 0.3106(10) 0.2151(6) 0.3552(5)
H53 H 0.2695 0.2202 0.3009
H54 H 0.4130 0.2351 0.3592
C47 C 0.285(2) 0.1224(8) 0.3707(9)
C48 C 0.1782(16) 0.0515(8) 0.3221(8)
H55 H 0.1612 -0.0005 0.3517
H56 H 0.2139 0.0366 0.2750
H57 H 0.0905 0.0727 0.3083
O9 O 0.5594(6) 0.3132(5) 0.0171(3)
H70 H 0.6407 0.3152 0.0406
O10 O 0.8167(6) 0.2744(4) 0.0296(4)
C55 C 0.5269(14) 0.1867(7) -0.0626(6)
H71 H 0.5870 0.1679 -0.0194
H72 H 0.5494 0.1647 -0.1114
H73 H 0.4287 0.1635 -0.0591
C56 C 0.4687(11) 0.3248(7) -0.1126(5)
H74 H 0.4807 0.3099 -0.1657
H75 H 0.5013 0.3877 -0.1007
H76 H 0.3695 0.3092 -0.1074
C57 C 0.5492(9) 0.2772(5) -0.0598(4)
C58 C 0.7061(9) 0.2962(7) -0.0867(5)
H77 H 0.6992 0.2670 -0.1385
H78 H 0.7344 0.3598 -0.0913
C59 C 0.8106(10) 0.2679(6) -0.0369(5)
C60 C 0.9308(12) 0.2440(7) -0.0724(6)
H79 H 0.9808 0.2957 -0.0937
H80 H 0.8945 0.1982 -0.1138
H81 H 0.9951 0.2225 -0.0328
O7? O 0.272(2) 0.2730(14) 0.4843(8)
H58? H 0.3387 0.2461 0.4913
O8? O 0.315(4) 0.112(2) 0.4394(14)
C49? C 0.140(2) 0.3496(14) 0.3947(13)
H59? H 0.0540 0.3259 0.4149
H60? H 0.1171 0.3595 0.3398
H61? H 0.1850 0.4051 0.4232
C50? C 0.372(2) 0.3173(15) 0.3717(13)
H62? H 0.4000 0.3807 0.3817
H63? H 0.3565 0.3028 0.3159
H64? H 0.4464 0.2888 0.3966
C51? C 0.2383(16) 0.2856(11) 0.4040(9)
C52? C 0.1716(15) 0.1924(9) 0.3666(10)
H65? H 0.0839 0.1725 0.3877
H66? H 0.1452 0.1976 0.3105
C53? C 0.255(3) 0.1234(11) 0.3762(12)
C54? C 0.233(4) 0.044(2) 0.320(2)
H67? H 0.3017 0.0538 0.2839
H68? H 0.1384 0.0347 0.2902
H69? H 0.2450 -0.0078 0.3481
loop_
_geom_bond_atom_site_label_1
_geom_bond_atom_site_label_2
_geom_bond_site_symmetry_1
_geom_bond_site_symmetry_2
C1 C2 1_555 1_555
C2 C3 1_555 1_555
C3 C4 1_555 1_555
C4 C5 1_555 1_555
C5 C6 1_555 1_555
C6 C1 1_555 1_555
C7 C2 1_555 1_555
H1 C7 1_555 1_555
H2 C7 1_555 1_555
C8 C7 1_555 1_555
H3 C8 1_555 1_555
H4 C8 1_555 1_555
H5 C8 1_555 1_555
C9 C4 1_555 1_555
H6 C9 1_555 1_555
H7 C9 1_555 1_555
C10 C9 1_555 1_555
H8 C10 1_555 1_555
H9 C10 1_555 1_555
H10 C10 1_555 1_555
C11 C6 1_555 1_555
H11 C11 1_555 1_555
H12 C11 1_555 1_555
C12 C11 1_555 1_555
H13 C12 1_555 1_555
H14 C12 1_555 1_555
H15 C12 1_555 1_555
C13 C1 1_555 1_555
H16 C13 1_555 1_555
H17 C13 1_555 1_555
C14 C15 1_555 1_555
C15 H18 1_555 1_555
H19 C15 1_555 1_555
C16 C17 1_555 1_555
C17 C18 1_555 1_555
C18 H20 1_555 1_555
C19 C18 1_555 1_555
C20 C19 1_555 1_555
H21 C20 1_555 1_555
C21 C20 1_555 1_555
H22 C21 1_555 1_555
C22 C21 1_555 1_555
H23 C22 1_555 1_555
C23 C22 1_555 1_555
H24 C23 1_555 1_555
C24 C19 1_555 1_555
C25 C16 1_555 1_555
H25 C25 1_555 1_555
C26 C17 1_555 1_555
C27 C3 1_555 1_555
H26 C27 1_555 1_555
H27 C27 1_555 1_555
C28 N2 1_555 1_555
C29 C30 1_555 1_555
C30 H28 1_555 1_555
C31 C30 1_555 1_555
H29 C31 1_555 1_555
C32 C31 1_555 1_555
H30 C32 1_555 1_555
C33 C32 1_555 1_555
H31 C33 1_555 1_555
C34 C29 1_555 1_555
H32 C34 1_555 1_555
C35 C5 1_555 1_555
H33 C35 1_555 1_555
H34 C35 1_555 1_555
C36 N4 1_555 1_555
C37 C38 1_555 1_555
C38 H35 1_555 1_555
C39 C38 1_555 1_555
H36 C39 1_555 1_555
C40 C39 1_555 1_555
H37 C40 1_555 1_555
C41 C40 1_555 1_555
H38 C41 1_555 1_555
C42 C37 1_555 1_555
H39 C42 1_555 1_555
N1 C13 1_555 1_555
H40 N1 1_555 1_555
N2 C27 1_555 1_555
H41 N2 1_555 1_555
N3 C28 1_555 1_555
H42 N3 1_555 1_555
N4 C35 1_555 1_555
H43 N4 1_555 1_555
N5 C36 1_555 1_555
H44 N5 1_555 1_555
O1 C14 1_555 1_555
O2 C15 1_555 1_555
O3 C26 1_555 1_555
O4 C26 1_555 1_555
S1 C28 1_555 1_555
S2 C36 1_555 1_555
H45 O4 1_555 1_555
O5 H46 1_555 1_555
O6 C47 1_555 1_555
C43 H47 1_555 1_555
H48 C43 1_555 1_555
H49 C43 1_555 1_555
C44 H50 1_555 1_555
H51 C44 1_555 1_555
H52 C44 1_555 1_555
C45 O5 1_555 1_555
C46 C45 1_555 1_555
H53 C46 1_555 1_555
H54 C46 1_555 1_555
C47 C46 1_555 1_555
C48 C47 1_555 1_555
H55 C48 1_555 1_555
H56 C48 1_555 1_555
H57 C48 1_555 1_555
O9 H70 1_555 1_555
O10 C59 1_555 1_555
C55 H71 1_555 1_555
H72 C55 1_555 1_555
H73 C55 1_555 1_555
C56 H74 1_555 1_555
H75 C56 1_555 1_555
H76 C56 1_555 1_555
C57 O9 1_555 1_555
C58 C57 1_555 1_555
H77 C58 1_555 1_555
H78 C58 1_555 1_555
C59 C58 1_555 1_555
C60 C59 1_555 1_555
H79 C60 1_555 1_555
H80 C60 1_555 1_555
H81 C60 1_555 1_555
C14 N1 1_555 1_555
C16 O2 1_555 1_555
C23 C24 1_555 1_555
C24 C25 1_555 1_555
C29 N3 1_555 1_555
C33 C34 1_555 1_555
C37 N5 1_555 1_555
C41 C42 1_555 1_555
C43 C45 1_555 1_555
C44 C45 1_555 1_555
C55 C57 1_555 1_555
C56 C57 1_555 1_555

#END
