
#######################################################################
#
#                 Cambridge Crystallographic Data Centre
#                                CCDC 
#
#######################################################################
#
# If this CIF has been generated from an entry in the Cambridge 
# Structural Database, then it will include bibliographic, chemical, 
# crystal, experimental, refinement or atomic coordinate data resulting 
# from the CCDC's data processing and validation procedures.
#
#######################################################################

data_RONJIP
_chemical_formula_moiety         'C40 H84 Li4 N4 O6'
_chemical_name_systematic        
bis(\m-1,1'-(butane-1,4-diylbis(oxy))bis(N-isopropylpropan-2-amido))-bis(tetrahydrofuran)-tetra-lithium
_symmetry_cell_setting           orthorhombic
_symmetry_space_group_name_H-M   'P 21 21 21'
_symmetry_Int_Tables_number      19
_space_group_name_Hall           'P 2ac 2ab'
loop_
_symmetry_equiv_pos_site_id
_symmetry_equiv_pos_as_xyz
1 x,y,z
2 1/2-x,-y,1/2+z
3 -x,1/2+y,1/2-z
4 1/2+x,1/2-y,-z
_cell_length_a                   10.214(2)
_cell_length_b                   13.715(3)
_cell_length_c                   34.474(7)
_cell_angle_alpha                90
_cell_angle_beta                 90
_cell_angle_gamma                90
_cell_volume                     4829.29
_exptl_crystal_colour            colorless
_exptl_crystal_description       chunk
_cell_formula_units_Z            4
loop_
_atom_site_label
_atom_site_type_symbol
_atom_site_fract_x
_atom_site_fract_y
_atom_site_fract_z
C1 C 0.7756(10) 0.5782(8) 1.0765(3)
H1 H 0.8068 0.6324 1.061
H2 H 0.8048 0.5876 1.103
C2 C 0.6282(9) 0.5732(9) 1.0751(3)
H3 H 0.6015 0.569 1.0478
C3 C 0.5788(10) 0.6724(7) 1.0916(3)
H4 H 0.6177 0.6836 1.1165
H5 H 0.4853 0.6706 1.0941
H6 H 0.6031 0.7241 1.0742
C4 C 0.3898(9) 0.3825(8) 1.1072(3)
H7 H 0.418 0.3817 1.1338
H8 H 0.4248 0.3267 1.0939
H9 H 0.2959 0.3805 1.1062
C5 C 0.4388(11) 0.4761(8) 1.0875(3)
H10 H 0.3928 0.5311 1.0994
C6 C 0.3961(10) 0.4703(9) 1.0458(3)
H11 H 0.4343 0.4138 1.0339
H12 H 0.4243 0.5278 1.0323
H13 H 0.3024 0.4656 1.0446
C7 C 0.6891(10) 0.2049(7) 1.1082(4)
H14 H 0.7018 0.1355 1.1044
H15 H 0.5966 0.2162 1.1128
C8 C 0.7657(9) 0.2374(9) 1.1428(3)
H16 H 0.8576 0.22 1.1386
C9 C 0.7154(11) 0.1782(8) 1.1777(3)
H17 H 0.6255 0.1946 1.1826
H18 H 0.7671 0.1933 1.2002
H19 H 0.7221 0.1098 1.1721
C10 C 0.9984(10) 0.3791(8) 1.1548(3)
H20 H 1.0006 0.4304 1.1359
H21 H 1.0164 0.3179 1.1424
H22 H 1.0634 0.3914 1.1744
C11 C 0.8641(11) 0.3755(9) 1.1735(3)
H23 H 0.8692 0.3288 1.195
C12 C 0.8284(11) 0.4737(9) 1.1909(3)
H24 H 0.7462 0.4685 1.2043
H25 H 0.8212 0.5213 1.1706
H26 H 0.8952 0.4934 1.2089
C13 C 0.9634(10) 0.4892(8) 1.0546(3)
H27 H 0.995 0.4225 1.0538
H28 H 1.0063 0.5216 1.0761
C14 C 1.0017(9) 0.5400(7) 1.0172(4)
H29 H 0.9796 0.6085 1.0196
H30 H 1.096 0.5356 1.0144
C15 C 0.9393(8) 0.5013(6) 0.9807(4)
H31 H 0.9551 0.4317 0.9788
H32 H 0.8454 0.5114 0.9819
C16 C 0.9927(9) 0.5507(7) 0.9454(4)
H33 H 0.9855 0.6208 0.9485
H34 H 1.0848 0.5347 0.9427
C17 C 0.6661(9) 0.2255(7) 1.0400(4)
H35 H 0.572 0.2283 1.0437
H36 H 0.6896 0.1583 1.0347
C18 C 0.7026(9) 0.2871(7) 1.0062(3)
H37 H 0.7958 0.2805 1.0014
H38 H 0.6851 0.3548 1.0123
C19 C 0.6288(9) 0.2599(7) 0.9698(3)
H39 H 0.6453 0.1916 0.9642
H40 H 0.5358 0.2669 0.9748
C20 C 0.6626(9) 0.3184(10) 0.9347(3)
H41 H 0.7535 0.3062 0.9281
H42 H 0.6095 0.2958 0.9132
C21 C 0.9560(9) 0.5791(8) 0.8781(4)
H43 H 1.0503 0.5811 0.8751
H44 H 0.9256 0.6453 0.8822
C22 C 0.8947(11) 0.5392(8) 0.8412(3)
H45 H 0.9405 0.479 0.8341
C23 C 0.9188(12) 0.6162(10) 0.8088(3)
H46 H 0.8824 0.6777 0.8166
H47 H 0.8776 0.5951 0.7852
H48 H 1.0112 0.6234 0.8046
C24 C 0.7804(11) 0.3449(9) 0.8233(3)
H49 H 0.7649 0.3211 0.8491
H50 H 0.873 0.3498 0.8189
H51 H 0.7428 0.3007 0.8048
C25 C 0.7186(9) 0.4440(9) 0.8188(3)
H52 H 0.7413 0.469 0.793
C26 C 0.5704(9) 0.4301(8) 0.8204(3)
H53 H 0.5278 0.4915 0.816
H54 H 0.546 0.4055 0.8455
H55 H 0.5441 0.3845 0.8008
C27 C 0.5116(10) 0.4534(9) 0.9358(3)
H56 H 0.4578 0.419 0.9545
H57 H 0.4782 0.4393 0.9101
C28 C 0.5047(9) 0.5608(9) 0.9433(3)
H58 H 0.5341 0.5723 0.9699
C29 C 0.3600(8) 0.5905(8) 0.9407(3)
H59 H 0.3255 0.5717 0.9159
H60 H 0.3524 0.6598 0.9437
H61 H 0.3115 0.5584 0.9609
C30 C 0.7016(10) 0.7194(7) 0.9673(3)
H62 H 0.7861 0.6929 0.9612
H63 H 0.6634 0.683 0.9882
H64 H 0.711 0.7864 0.9749
C31 C 0.6120(9) 0.7130(9) 0.9313(3)
H65 H 0.526 0.7393 0.9384
C32 C 0.6696(10) 0.7773(8) 0.9003(3)
H66 H 0.6126 0.7779 0.8782
H67 H 0.7538 0.7525 0.8929
H68 H 0.679 0.8423 0.9102
C33 C 0.3696(17) 0.7065(13) 0.8302(4)
H69 H 0.3186 0.6529 0.8406
H70 H 0.3671 0.76 0.8486
C34 C 0.3170(14) 0.7366(12) 0.7939(6)
H71 H 0.2963 0.8056 0.794
H72 H 0.2387 0.6999 0.7875
C35 C 0.423(2) 0.7151(19) 0.7670(5)
H73 H 0.3978 0.6606 0.7506
H74 H 0.4371 0.7712 0.7503
C36 C 0.5341(13) 0.6936(11) 0.7851(5)
H75 H 0.5953 0.7475 0.7831
H76 H 0.574 0.6362 0.7737
C37 C 0.400(2) 0.4363(12) 1.2148(5)
H77 H 0.4436 0.3963 1.234
H78 H 0.3438 0.395 1.1991
C38 C 0.324(2) 0.5134(19) 1.2335(6)
H79 H 0.2311 0.4975 1.2326
H80 H 0.3495 0.5199 1.2604
C39 C 0.346(3) 0.5972(17) 1.2145(7)
H81 H 0.3526 0.6508 1.2328
H82 H 0.274 0.6109 1.1969
C40 C 0.4654(19) 0.5867(14) 1.1933(5)
H83 H 0.4561 0.6141 1.1676
H84 H 0.5357 0.6207 1.2066
Li1 Li 0.7300(13) 0.3899(11) 1.0922(4)
Li2 Li 0.6080(16) 0.4382(13) 1.1488(5)
Li3 Li 0.7339(12) 0.5123(11) 0.9059(4)
Li4 Li 0.6152(15) 0.6076(12) 0.8601(4)
N1 N 0.5775(8) 0.4881(6) 1.0953(2)
N2 N 0.7582(8) 0.3429(7) 1.1480(2)
N3 N 0.7575(8) 0.5165(6) 0.8474(2)
N4 N 0.5934(7) 0.6142(7) 0.9171(2)
O1 O 0.8255(6) 0.4880(5) 1.06152(17)
O2 O 0.7289(6) 0.2563(4) 1.0742(3)
O3 O 0.9244(5) 0.5220(5) 0.9109(3)
O4 O 0.6443(6) 0.4208(6) 0.93879(15)
O5 O 0.5025(9) 0.6761(6) 0.8238(3)
O6 O 0.4938(8) 0.4870(9) 1.1909(2)
loop_
_geom_bond_atom_site_label_1
_geom_bond_atom_site_label_2
_geom_bond_site_symmetry_1
_geom_bond_site_symmetry_2
C1 H1 1_555 1_555
H2 C1 1_555 1_555
C2 C1 1_555 1_555
H3 C2 1_555 1_555
C3 C2 1_555 1_555
H4 C3 1_555 1_555
H5 C3 1_555 1_555
H6 C3 1_555 1_555
C4 H7 1_555 1_555
H8 C4 1_555 1_555
H9 C4 1_555 1_555
C5 C4 1_555 1_555
H10 C5 1_555 1_555
C6 C5 1_555 1_555
H11 C6 1_555 1_555
H12 C6 1_555 1_555
H13 C6 1_555 1_555
C7 H14 1_555 1_555
H15 C7 1_555 1_555
C8 C7 1_555 1_555
H16 C8 1_555 1_555
C9 C8 1_555 1_555
H17 C9 1_555 1_555
H18 C9 1_555 1_555
H19 C9 1_555 1_555
C10 H20 1_555 1_555
H21 C10 1_555 1_555
H22 C10 1_555 1_555
C11 C10 1_555 1_555
H23 C11 1_555 1_555
C12 C11 1_555 1_555
H24 C12 1_555 1_555
H25 C12 1_555 1_555
H26 C12 1_555 1_555
C13 H27 1_555 1_555
H28 C13 1_555 1_555
C14 C13 1_555 1_555
H29 C14 1_555 1_555
H30 C14 1_555 1_555
C15 C14 1_555 1_555
H31 C15 1_555 1_555
H32 C15 1_555 1_555
C16 C15 1_555 1_555
H33 C16 1_555 1_555
H34 C16 1_555 1_555
C17 H35 1_555 1_555
H36 C17 1_555 1_555
C18 C17 1_555 1_555
H37 C18 1_555 1_555
H38 C18 1_555 1_555
C19 C18 1_555 1_555
H39 C19 1_555 1_555
H40 C19 1_555 1_555
C20 C19 1_555 1_555
H41 C20 1_555 1_555
H42 C20 1_555 1_555
C21 H43 1_555 1_555
H44 C21 1_555 1_555
C22 C21 1_555 1_555
H45 C22 1_555 1_555
C23 C22 1_555 1_555
H46 C23 1_555 1_555
H47 C23 1_555 1_555
H48 C23 1_555 1_555
C24 H49 1_555 1_555
H50 C24 1_555 1_555
H51 C24 1_555 1_555
C25 C24 1_555 1_555
H52 C25 1_555 1_555
C26 C25 1_555 1_555
H53 C26 1_555 1_555
H54 C26 1_555 1_555
H55 C26 1_555 1_555
C27 H56 1_555 1_555
H57 C27 1_555 1_555
C28 C27 1_555 1_555
H58 C28 1_555 1_555
C29 C28 1_555 1_555
H59 C29 1_555 1_555
H60 C29 1_555 1_555
H61 C29 1_555 1_555
C30 H62 1_555 1_555
H63 C30 1_555 1_555
H64 C30 1_555 1_555
C31 C30 1_555 1_555
H65 C31 1_555 1_555
C32 C31 1_555 1_555
H66 C32 1_555 1_555
H67 C32 1_555 1_555
H68 C32 1_555 1_555
C33 H69 1_555 1_555
H70 C33 1_555 1_555
C34 C33 1_555 1_555
H71 C34 1_555 1_555
H72 C34 1_555 1_555
C35 C34 1_555 1_555
H73 C35 1_555 1_555
H74 C35 1_555 1_555
C36 C35 1_555 1_555
H75 C36 1_555 1_555
H76 C36 1_555 1_555
C37 H77 1_555 1_555
H78 C37 1_555 1_555
C38 C37 1_555 1_555
H79 C38 1_555 1_555
H80 C38 1_555 1_555
C39 C38 1_555 1_555
H81 C39 1_555 1_555
H82 C39 1_555 1_555
C40 C39 1_555 1_555
H83 C40 1_555 1_555
H84 C40 1_555 1_555
Li1 N1 1_555 1_555
Li2 N1 1_555 1_555
Li3 N3 1_555 1_555
Li4 N3 1_555 1_555
N1 C2 1_555 1_555
N2 C8 1_555 1_555
N3 C22 1_555 1_555
N4 C28 1_555 1_555
O1 C1 1_555 1_555
O2 C7 1_555 1_555
O3 C16 1_555 1_555
O4 C20 1_555 1_555
O5 C33 1_555 1_555
O6 C37 1_555 1_555
C5 N1 1_555 1_555
C11 N2 1_555 1_555
C13 O1 1_555 1_555
C17 O2 1_555 1_555
C21 O3 1_555 1_555
C25 N3 1_555 1_555
C27 O4 1_555 1_555
C31 N4 1_555 1_555
C36 O5 1_555 1_555
C40 O6 1_555 1_555
Li1 N2 1_555 1_555
Li1 O1 1_555 1_555
Li1 O2 1_555 1_555
Li2 N2 1_555 1_555
Li2 O6 1_555 1_555
Li3 N4 1_555 1_555
Li3 O3 1_555 1_555
Li3 O4 1_555 1_555
Li4 N4 1_555 1_555
Li4 O5 1_555 1_555

#END
