
#######################################################################
#
#                 Cambridge Crystallographic Data Centre
#                                CCDC 
#
#######################################################################
#
# If this CIF has been generated from an entry in the Cambridge 
# Structural Database, then it will include bibliographic, chemical, 
# crystal, experimental, refinement or atomic coordinate data resulting 
# from the CCDC's data processing and validation procedures.
#
#######################################################################

data_RONKAG
_chemical_formula_moiety         'C17 H29 N1 O5'
_chemical_name_systematic        
(2'S,4S,5R,7S)-5-Ethyl-4-methoxy-7-methyl-5-((2'-(methoxymethyl)pyrrolidinyl)carbonyl)oxacycloheptan-2-one
_symmetry_cell_setting           monoclinic
_symmetry_space_group_name_H-M   'P 21'
_symmetry_Int_Tables_number      4
_space_group_name_Hall           'P 2yb'
loop_
_symmetry_equiv_pos_site_id
_symmetry_equiv_pos_as_xyz
1 x,y,z
2 -x,1/2+y,-z
_cell_length_a                   7.839(2)
_cell_length_b                   10.622(2)
_cell_length_c                   10.864(2)
_cell_angle_alpha                90
_cell_angle_beta                 94.55(2)
_cell_angle_gamma                90
_cell_volume                     901.749
_exptl_crystal_colour            colorless
_exptl_crystal_description       prism
_chemical_melting_point          182.5-183deg.C
_cell_formula_units_Z            2
loop_
_atom_site_label
_atom_site_type_symbol
_atom_site_fract_x
_atom_site_fract_y
_atom_site_fract_z
O1 O -0.5830(3) -0.2995 0.1879(2)
C1 C -0.7382(5) -0.2816(5) 0.1311(3)
O2 O -0.8588(4) -0.3134(5) 0.1836(3)
C2 C -0.7531(5) -0.2235(5) 0.0049(3)
C3 C -0.6848(5) -0.3063(4) -0.0969(3)
O3 O -0.7286(3) -0.4352(4) -0.0823(2)
C4 C -0.9068(3) -0.4600(6) -0.1035(4)
C5 C -0.4885(4) -0.3009(5) -0.1050(3)
C6 C -0.4346(5) -0.1679(5) -0.1461(3)
C7 C -0.2569(6) -0.1582(5) -0.1905(4)
C8 C -0.3934(4) -0.3345(5) 0.0209(3)
C9 C -0.4302(4) -0.2554(5) 0.1328(3)
C10 C -0.2871(5) -0.2717(6) 0.2361(3)
C11 C -0.4317(4) -0.4012(4) -0.1977(3)
O4 O -0.3220(3) -0.4785(4) -0.1634(2)
N1 N -0.4945(4) -0.4015(4) -0.3174(3)
C12 C -0.4319(5) -0.4974(5) -0.4024(3)
C13 C -0.2520(5) -0.4647(6) -0.4357(4)
O5 O -0.2041(4) -0.5592(5) -0.5178(3)
C14 C -0.0398(8) -0.5666(12) -0.5329(10)
C15 C -0.5612(5) -0.4948(6) -0.5118(4)
C16 C -0.6280(6) -0.3621(6) -0.5135(3)
C17 C -0.6394(6) -0.3309(6) -0.3801(3)
H1 H -0.6909 -0.1456 0.0085
H2 H -0.8712 -0.2043 -0.0174
H3 H -0.7381 -0.2783 -0.1747
H4 H -0.9248(8) -0.5491(7) -0.1112(38)
H5 H -0.9651(9) -0.4285(35) -0.0355(19)
H6 H -0.9503(12) -0.4189(33) -0.1783(21)
H10 H -0.4415 -0.1113 -0.0778
H11 H -0.5157 -0.1397 -0.2112
H12 H -0.2352 -0.0729 -0.2136
H13 H -0.1739 -0.1835 -0.1254
H14 H -0.2490 -0.2123 -0.2605
H15 H -0.2728 -0.3303 0.0117
H16 H -0.4198 -0.4204 0.0389
H17 H -0.4423 -0.1684 0.1100
H18 H -0.3116 -0.2213 0.3059
H19 H -0.2794 -0.3586 0.2602
H20 H -0.1804 -0.2453 0.2069
H21 H -0.4316 -0.5788 -0.3640
H22 H -0.1740 -0.4629 -0.3629
H23 H -0.2511 -0.3837 -0.4748
H24 H -0.0192 -0.6330 -0.5898
H25 H 0.0021 -0.4886 -0.5632
H26 H 0.0185 -0.5852 -0.4539
H27 H -0.6514 -0.5543 -0.5023
H28 H -0.5083 -0.5136 -0.5864
H29 H -0.7383 -0.3571 -0.5585
H30 H -0.5508 -0.3059 -0.5504
H31 H -0.6271 -0.2420 -0.3657
H32 H -0.7465 -0.3584 -0.3524
H7? H -0.9284(10) -0.5025(35) -0.1812(18)
H8? H -0.9431(13) -0.5121(33) -0.0384(20)
H9? H -0.9687(6) -0.3819(8) -0.1054(39)
loop_
_geom_bond_atom_site_label_1
_geom_bond_atom_site_label_2
_geom_bond_site_symmetry_1
_geom_bond_site_symmetry_2
O1 C1 1_555 1_555
C1 O2 1_555 1_555
C2 C1 1_555 1_555
C3 C2 1_555 1_555
O3 C3 1_555 1_555
C4 O3 1_555 1_555
C5 C3 1_555 1_555
C6 C5 1_555 1_555
C7 C6 1_555 1_555
C8 C5 1_555 1_555
C9 O1 1_555 1_555
C10 C9 1_555 1_555
C11 C5 1_555 1_555
O4 C11 1_555 1_555
N1 C11 1_555 1_555
C12 N1 1_555 1_555
C13 C12 1_555 1_555
O5 C13 1_555 1_555
C14 O5 1_555 1_555
C15 C12 1_555 1_555
C16 C15 1_555 1_555
C17 N1 1_555 1_555
H1 C2 1_555 1_555
H2 C2 1_555 1_555
H3 C3 1_555 1_555
H4 C4 1_555 1_555
H5 C4 1_555 1_555
H6 C4 1_555 1_555
H10 C6 1_555 1_555
H11 C6 1_555 1_555
H12 C7 1_555 1_555
H13 C7 1_555 1_555
H14 C7 1_555 1_555
H15 C8 1_555 1_555
H16 C8 1_555 1_555
H17 C9 1_555 1_555
H18 C10 1_555 1_555
H19 C10 1_555 1_555
H20 C10 1_555 1_555
H21 C12 1_555 1_555
H22 C13 1_555 1_555
H23 C13 1_555 1_555
H24 C14 1_555 1_555
H25 C14 1_555 1_555
H26 C14 1_555 1_555
H27 C15 1_555 1_555
H28 C15 1_555 1_555
H29 C16 1_555 1_555
H30 C16 1_555 1_555
H31 C17 1_555 1_555
H32 C17 1_555 1_555
C8 C9 1_555 1_555
C16 C17 1_555 1_555

#END
