
#######################################################################
#
#                 Cambridge Crystallographic Data Centre
#                                CCDC 
#
#######################################################################
#
# If this CIF has been generated from an entry in the Cambridge 
# Structural Database, then it will include bibliographic, chemical, 
# crystal, experimental, refinement or atomic coordinate data resulting 
# from the CCDC's data processing and validation procedures.
#
#######################################################################

data_RONPAN
_chemical_formula_moiety         'C21 H18 O1 S1'
_chemical_name_systematic        
1-(biphenyl-4-yl)-2-(phenylsulfanyl)propan-1-one
_symmetry_cell_setting           orthorhombic
_symmetry_space_group_name_H-M   'P 21 21 21'
_symmetry_Int_Tables_number      19
_space_group_name_Hall           'P 2ac 2ab'
loop_
_symmetry_equiv_pos_site_id
_symmetry_equiv_pos_as_xyz
1 x,y,z
2 1/2-x,-y,1/2+z
3 -x,1/2+y,1/2-z
4 1/2+x,1/2-y,-z
_cell_length_a                   6.3977(18)
_cell_length_b                   8.180(2)
_cell_length_c                   31.776(9)
_cell_angle_alpha                90
_cell_angle_beta                 90
_cell_angle_gamma                90
_cell_volume                     1662.94
_exptl_crystal_colour            colorless
_exptl_crystal_description       plate
_cell_formula_units_Z            4
_exptl_crystal_preparation       
'The data crystal was mounted using oil (Parantone-N, Exxon) to a  0.3 mm cryo-loop (Hampton Research) with the (1 1 1) scattering  planes roughly normal to the spindle axis.'
loop_
_atom_site_label
_atom_site_type_symbol
_atom_site_fract_x
_atom_site_fract_y
_atom_site_fract_z
S1 S 0.38303(7) 1.15799(6) 0.087761(15)
O1 O 0.3289(2) 0.75541(16) 0.10661(4)
C1 C 0.2059(3) 1.0260(2) 0.11842(6)
H1 H 0.1722 1.0841 0.1453
C2 C 0.3313(3) 0.8753(2) 0.12936(5)
C3 C 0.4670(3) 0.8781(2) 0.16802(5)
C4 C 0.4284(3) 0.9809(2) 0.20207(6)
H2 H 0.3135 1.0544 0.2011
C5 C 0.5557(3) 0.9774(2) 0.23739(6)
H3 H 0.5252 1.0482 0.2603
C6 C 0.7268(3) 0.8730(2) 0.24025(5)
C7 C 0.7633(3) 0.7686(2) 0.20601(5)
H4 H 0.8780 0.6949 0.2069
C8 C 0.6355(3) 0.7711(2) 0.17093(5)
H5 H 0.6632 0.6982 0.1483
C9 C 0.8622(3) 0.8724(2) 0.27855(5)
C10 C 0.7925(3) 0.9396(2) 0.31649(6)
H6 H 0.6562 0.9853 0.3179
C11 C 0.9181(3) 0.9410(2) 0.35207(6)
H7 H 0.8678 0.9879 0.3775
C12 C 1.1165(3) 0.8741(2) 0.35061(6)
H8 H 1.2031 0.8749 0.3749
C13 C 1.1875(3) 0.8062(3) 0.31340(6)
H9 H 1.3233 0.7595 0.3123
C14 C 1.0629(3) 0.8056(2) 0.27783(6)
H10 H 1.1147 0.7589 0.2525
C15 C 0.3811(3) 1.0641(2) 0.03730(6)
C16 C 0.5380(3) 0.9547(2) 0.02561(6)
H11 H 0.6440 0.9260 0.0452
C17 C 0.5397(3) 0.8877(3) -0.01449(7)
H12 H 0.6484 0.8151 -0.0226
C18 C 0.3828(4) 0.9267(3) -0.04263(6)
H13 H 0.3826 0.8793 -0.0699
C19 C 0.2271(4) 1.0336(3) -0.03131(6)
H14 H 0.1187 1.0588 -0.0507
C20 C 0.2275(3) 1.1051(3) 0.00842(6)
H15 H 0.1225 1.1821 0.0157
C21 C 0.0011(3) 0.9883(3) 0.09623(6)
H16 H -0.0922 0.9302 0.1156
H17 H 0.0285 0.9198 0.0715
H18 H -0.0650 1.0906 0.0873
loop_
_geom_bond_atom_site_label_1
_geom_bond_atom_site_label_2
_geom_bond_site_symmetry_1
_geom_bond_site_symmetry_2
S1 C1 1_555 1_555
O1 C2 1_555 1_555
C1 H1 1_555 1_555
C2 C1 1_555 1_555
C3 C2 1_555 1_555
C4 C3 1_555 1_555
H2 C4 1_555 1_555
C5 C4 1_555 1_555
H3 C5 1_555 1_555
C6 C5 1_555 1_555
C7 C6 1_555 1_555
H4 C7 1_555 1_555
C8 C3 1_555 1_555
H5 C8 1_555 1_555
C9 C6 1_555 1_555
C10 C9 1_555 1_555
H6 C10 1_555 1_555
C11 C10 1_555 1_555
H7 C11 1_555 1_555
C12 C11 1_555 1_555
H8 C12 1_555 1_555
C13 C12 1_555 1_555
H9 C13 1_555 1_555
C14 C9 1_555 1_555
H10 C14 1_555 1_555
C15 S1 1_555 1_555
C16 C15 1_555 1_555
H11 C16 1_555 1_555
C17 C16 1_555 1_555
H12 C17 1_555 1_555
C18 C17 1_555 1_555
H13 C18 1_555 1_555
C19 C18 1_555 1_555
H14 C19 1_555 1_555
C20 C15 1_555 1_555
H15 C20 1_555 1_555
C21 C1 1_555 1_555
H16 C21 1_555 1_555
H17 C21 1_555 1_555
H18 C21 1_555 1_555
C7 C8 1_555 1_555
C13 C14 1_555 1_555
C19 C20 1_555 1_555

#END
