
#######################################################################
#
#                 Cambridge Crystallographic Data Centre
#                                CCDC 
#
#######################################################################
#
# If this CIF has been generated from an entry in the Cambridge 
# Structural Database, then it will include bibliographic, chemical, 
# crystal, experimental, refinement or atomic coordinate data resulting 
# from the CCDC's data processing and validation procedures.
#
#######################################################################

data_ROPPIV
_chemical_formula_moiety         'C18 H24 N4'
_chemical_name_systematic        
(4-bis(Diethylamino)methylium)phenyldicyanomethanide
_symmetry_cell_setting           monoclinic
_symmetry_space_group_name_H-M   'P 21/c'
_symmetry_Int_Tables_number      14
_space_group_name_Hall           '-P 2ybc'
loop_
_symmetry_equiv_pos_site_id
_symmetry_equiv_pos_as_xyz
1 x,y,z
2 -x,1/2+y,1/2-z
3 -x,-y,-z
4 x,1/2-y,1/2+z
_cell_length_a                   11.262(2)
_cell_length_b                   12.867(3)
_cell_length_c                   12.510(3)
_cell_angle_alpha                90
_cell_angle_beta                 112.11(3)
_cell_angle_gamma                90
_cell_volume                     1679.49
_exptl_crystal_colour            brown
_exptl_crystal_description       block
_cell_formula_units_Z            4
loop_
_atom_site_label
_atom_site_type_symbol
_atom_site_fract_x
_atom_site_fract_y
_atom_site_fract_z
N1 N 0.5222(2) 1.22871(14) -0.35153(14)
N2 N 0.8684(2) 1.04665(15) -0.33610(14)
N3 N 0.7624(2) 0.99849(12) 0.28181(13)
N4 N 0.7848(2) 0.83460(12) 0.21234(12)
C1 C 0.6077(2) 1.1736(2) -0.3052(2)
C2 C 0.7953(2) 1.0754(2) -0.2975(2)
C3 C 0.7097(2) 1.1067(2) -0.2448(2)
C4 C 0.7250(2) 1.06666(15) -0.1321(2)
C5 C 0.6415(2) 1.0952(2) -0.0765(2)
C6 C 0.6567(2) 1.0551(2) 0.0303(2)
C7 C 0.7525(2) 0.98252(14) 0.08497(15)
C8 C 0.8362(2) 0.9537(2) 0.0312(2)
C9 C 0.8231(2) 0.9955(2) -0.0742(2)
C10 C 0.7664(2) 0.9375(2) 0.1965(2)
C11 C 0.8019(2) 1.1094(2) 0.2897(2)
C12 C 0.9108(2) 1.1318(2) 0.4034(2)
C13 C 0.7144(2) 0.9611(2) 0.3705(2)
C14 C 0.6099(2) 1.0323(2) 0.3777(2)
C15 C 0.8628(2) 0.7890(2) 0.3261(2)
C16 C 0.9684(2) 0.7198(2) 0.3180(2)
C17 C 0.7286(2) 0.7604(2) 0.1155(2)
C18 C 0.6458(2) 0.6798(2) 0.1435(2)
H1 H 0.5688(23) 1.0010(17) 0.4260(19)
H2 H 0.5981(17) 1.0790(13) 0.0671(14)
H3 H 0.9338(20) 1.2077(17) 0.4038(16)
H4 H 0.9354(18) 0.6583(15) 0.2701(15)
H5 H 0.8852(19) 1.1182(16) 0.4703(17)
H6 H 0.8050(18) 0.7238(14) 0.0968(15)
H7 H 1.0244(18) 0.6935(15) 0.3974(16)
H8 H 0.9899(20) 1.0891(15) 0.4114(16)
H9 H 0.5788(20) 0.7090(16) 0.1670(16)
H10 H 0.5389(21) 1.0407(16) 0.2987(18)
H11 H 0.6786(18) 0.8004(14) 0.0457(15)
H12 H 0.6474(18) 1.1002(15) 0.4128(15)
H13 H 0.9078(17) 0.9036(13) 0.0709(14)
H14 H 0.5703(19) 1.1427(15) -0.1163(16)
H15 H 0.6966(19) 0.6300(16) 0.2074(17)
H16 H 0.7885(16) 0.9569(13) 0.4515(14)
H17 H 0.8035(16) 0.7482(13) 0.3565(13)
H18 H 0.8334(18) 1.1239(15) 0.2226(15)
H19 H 0.9055(17) 0.8482(14) 0.3783(15)
H20 H 0.8828(17) 0.9781(13) -0.1062(13)
H21 H 1.0267(20) 0.7600(15) 0.2874(16)
H22 H 0.7175(20) 1.1529(15) 0.2763(16)
H23 H 0.6718(17) 0.8914(14) 0.3450(14)
H24 H 0.5984(19) 0.6386(16) 0.0722(17)
loop_
_geom_bond_atom_site_label_1
_geom_bond_atom_site_label_2
_geom_bond_site_symmetry_1
_geom_bond_site_symmetry_2
N1 C1 1_555 1_555
N2 C2 1_555 1_555
N3 C10 1_555 1_555
N4 C10 1_555 1_555
C1 C3 1_555 1_555
C2 C3 1_555 1_555
C3 C4 1_555 1_555
C4 C5 1_555 1_555
C5 C6 1_555 1_555
C6 C7 1_555 1_555
C7 C8 1_555 1_555
C8 C9 1_555 1_555
C9 C4 1_555 1_555
C10 C7 1_555 1_555
C11 N3 1_555 1_555
C12 C11 1_555 1_555
C13 N3 1_555 1_555
C14 C13 1_555 1_555
C15 N4 1_555 1_555
C16 C15 1_555 1_555
C17 N4 1_555 1_555
C18 C17 1_555 1_555
H1 C14 1_555 1_555
H2 C6 1_555 1_555
H3 C12 1_555 1_555
H4 C16 1_555 1_555
H5 C12 1_555 1_555
H6 C17 1_555 1_555
H7 C16 1_555 1_555
H8 C12 1_555 1_555
H9 C18 1_555 1_555
H10 C14 1_555 1_555
H11 C17 1_555 1_555
H12 C14 1_555 1_555
H13 C8 1_555 1_555
H14 C5 1_555 1_555
H15 C18 1_555 1_555
H16 C13 1_555 1_555
H17 C15 1_555 1_555
H18 C11 1_555 1_555
H19 C15 1_555 1_555
H20 C9 1_555 1_555
H21 C16 1_555 1_555
H22 C11 1_555 1_555
H23 C13 1_555 1_555
H24 C18 1_555 1_555

#END
