
#######################################################################
#
#                 Cambridge Crystallographic Data Centre
#                                CCDC 
#
#######################################################################
#
# If this CIF has been generated from an entry in the Cambridge 
# Structural Database, then it will include bibliographic, chemical, 
# crystal, experimental, refinement or atomic coordinate data resulting 
# from the CCDC's data processing and validation procedures.
#
#######################################################################

data_ROWCIR
_chemical_formula_moiety         'C18 Br1 F15 P1 1+,C24 B1 F20 1-,C1 H2 Cl2'
_chemical_name_systematic        
'Bromo(tris(pentafluorophenyl))phosphonium tetrakis(pentafluorophenyl)borate dichloromethane solvate'
_symmetry_cell_setting           monoclinic
_symmetry_space_group_name_H-M   'P 21/c'
_symmetry_Int_Tables_number      14
_space_group_name_Hall           '-P 2ybc'
loop_
_symmetry_equiv_pos_site_id
_symmetry_equiv_pos_as_xyz
1 x,y,z
2 -x,1/2+y,1/2-z
3 -x,-y,-z
4 x,1/2-y,1/2+z
_cell_length_a                   10.5541(5)
_cell_length_b                   17.1617(7)
_cell_length_c                   24.8816(9)
_cell_angle_alpha                90
_cell_angle_beta                 97.100(2)
_cell_angle_gamma                90
_cell_volume                     4472.15
_exptl_crystal_colour            colorless
_exptl_crystal_description       block
_cell_formula_units_Z            4
loop_
_atom_site_label
_atom_site_type_symbol
_atom_site_fract_x
_atom_site_fract_y
_atom_site_fract_z
C1 C 1.1080(3) 0.08310(19) 0.71204(12)
C2 C 1.0434(3) 0.04145(18) 0.67044(13)
C3 C 0.9388(3) 0.07370(18) 0.63979(12)
C4 C 0.8924(3) 0.14773(17) 0.64835(12)
C5 C 0.6597(3) 0.18540(18) 0.65814(12)
C6 C 0.6145(3) 0.11368(19) 0.67425(14)
C7 C 0.5350(3) 0.1044(2) 0.71370(14)
C8 C 0.4965(3) 0.1693(2) 0.74023(13)
C9 C 0.6541(3) 0.08439(19) 0.44951(13)
C10 C 0.5637(3) 0.09202(19) 0.48417(14)
C11 C 0.5976(3) 0.12129(18) 0.53595(13)
C12 C 0.7192(3) 0.14495(17) 0.55595(12)
C13 C 0.8052(3) 0.13682(18) 0.51860(12)
C14 C 0.7771(3) 0.10690(19) 0.46703(13)
C15 C 0.5375(3) 0.2415(2) 0.72647(13)
C16 C 0.6184(3) 0.24798(19) 0.68691(12)
C17 C 0.7922(3) 0.27845(17) 0.59284(12)
C18 C 0.6893(3) 0.32246(18) 0.56864(12)
C19 C 0.6994(3) 0.39423(19) 0.54526(12)
C20 C 0.8183(3) 0.42714(19) 0.54434(13)
C21 C 0.9241(3) 0.38587(19) 0.56661(13)
C22 C 0.9089(3) 0.31393(18) 0.58975(12)
C23 C 1.0638(3) 0.15550(19) 0.72384(12)
C24 C 0.9578(3) 0.18520(17) 0.69266(13)
F1 F 1.21401(19) 0.05394(12) 0.74048(8)
F2 F 0.4208(2) 0.16158(15) 0.77985(9)
F3 F 0.6227(2) 0.05597(13) 0.39930(8)
F4 F 0.50008(17) 0.12590(11) 0.56663(8)
F5 F 0.92869(16) 0.16019(11) 0.53188(7)
F6 F 0.8694(2) 0.09998(12) 0.43444(7)
F7 F 0.65195(19) 0.04793(11) 0.65083(8)
F8 F 0.4988(2) 0.03273(13) 0.72809(9)
F9 F 0.49960(19) 0.30492(13) 0.75180(8)
F10 F 0.65719(18) 0.32105(10) 0.67814(7)
F11 F 0.56976(16) 0.29348(11) 0.56684(7)
F12 F 1.04167(19) 0.41606(12) 0.56532(8)
F13 F 1.01981(16) 0.27797(11) 0.60897(8)
F14 F 0.8313(2) 0.49745(12) 0.52199(9)
F15 F 0.59468(19) 0.43346(11) 0.52349(8)
F16 F 0.88284(18) 0.02754(10) 0.59954(7)
F17 F 1.08530(19) -0.02995(11) 0.65859(8)
F18 F 1.12612(18) 0.19716(12) 0.76519(7)
F19 F 0.91839(17) 0.25679(10) 0.70718(7)
F20 F 0.44231(18) 0.06927(11) 0.46876(8)
B1 B 0.7652(3) 0.1890(2) 0.61454(14)
C25 C 0.2566(3) 0.1951(2) 0.58779(12)
C26 C 0.2904(3) 0.26898(19) 0.57253(13)
C27 C 0.2832(3) 0.28776(18) 0.51851(12)
C28 C 0.2426(3) 0.23310(17) 0.47832(12)
C29 C 0.0510(3) 0.24764(18) 0.38616(12)
C30 C -0.0099(3) 0.20559(17) 0.34253(12)
C31 C -0.1417(3) 0.20437(18) 0.33167(12)
C32 C -0.2147(3) 0.2437(2) 0.36487(13)
C33 C 0.4067(3) 0.48287(19) 0.36731(13)
C34 C 0.2768(3) 0.47602(18) 0.35503(12)
C35 C 0.2169(3) 0.40795(18) 0.36758(12)
C36 C 0.2860(3) 0.34574(18) 0.39308(12)
C37 C 0.2139(3) 0.14030(19) 0.54944(13)
C38 C 0.2062(3) 0.15940(18) 0.49541(13)
C39 C -0.0270(3) 0.28804(19) 0.41822(12)
C40 C -0.1569(3) 0.2851(2) 0.40872(13)
C41 C 0.4173(3) 0.35644(19) 0.40645(12)
C42 C 0.4777(3) 0.42328(19) 0.39389(13)
F21 F 0.26539(19) 0.17732(12) 0.64011(7)
F22 F -0.34159(18) 0.24156(13) 0.35526(8)
F23 F 0.46643(19) 0.54766(11) 0.35541(9)
F24 F 0.20842(18) 0.53437(10) 0.33118(8)
F25 F 0.09107(17) 0.40390(11) 0.35475(8)
F26 F 0.16251(18) 0.10661(10) 0.45854(8)
F27 F 0.1805(2) 0.06958(11) 0.56430(8)
F28 F 0.32882(18) 0.32197(12) 0.61020(7)
F29 F 0.31400(18) 0.36015(10) 0.50597(7)
F30 F 0.02729(18) 0.33301(12) 0.45903(8)
F31 F -0.19867(18) 0.16396(11) 0.28998(7)
F32 F 0.05502(17) 0.16464(10) 0.31029(7)
F33 F -0.22814(19) 0.32269(14) 0.44123(8)
F34 F 0.48575(16) 0.29924(11) 0.43291(7)
F35 F 0.60306(17) 0.43241(12) 0.40648(9)
P1 P 0.21980(7) 0.25289(5) 0.40706(3)
Br1 Br 0.31882(3) 0.16848(2) 0.365230(14)
C43 C 0.2295(5) 0.0249(3) 0.1820(2)
H1 H 0.3180 0.0389 0.1967
H2 H 0.2209 0.0320 0.1422
Cl1 Cl 0.20230(12) -0.07334(7) 0.19656(5)
Cl2 Cl 0.1256(2) 0.08638(12) 0.20860(7)
loop_
_geom_bond_atom_site_label_1
_geom_bond_atom_site_label_2
_geom_bond_site_symmetry_1
_geom_bond_site_symmetry_2
C1 C2 1_555 1_555
C2 C3 1_555 1_555
C3 C4 1_555 1_555
C4 C24 1_555 1_555
C5 C6 1_555 1_555
C6 C7 1_555 1_555
C7 C8 1_555 1_555
C8 C15 1_555 1_555
C9 C10 1_555 1_555
C10 C11 1_555 1_555
C11 C12 1_555 1_555
C12 C13 1_555 1_555
C13 C14 1_555 1_555
C14 C9 1_555 1_555
C15 C16 1_555 1_555
C16 C5 1_555 1_555
C17 C18 1_555 1_555
C18 C19 1_555 1_555
C19 C20 1_555 1_555
C20 C21 1_555 1_555
C21 C22 1_555 1_555
C22 C17 1_555 1_555
C23 C1 1_555 1_555
C24 C23 1_555 1_555
F1 C1 1_555 1_555
F2 C8 1_555 1_555
F3 C9 1_555 1_555
F4 C11 1_555 1_555
F5 C13 1_555 1_555
F6 C14 1_555 1_555
F7 C6 1_555 1_555
F8 C7 1_555 1_555
F9 C15 1_555 1_555
F10 C16 1_555 1_555
F11 C18 1_555 1_555
F12 C21 1_555 1_555
F13 C22 1_555 1_555
F14 C20 1_555 1_555
F15 C19 1_555 1_555
F16 C3 1_555 1_555
F17 C2 1_555 1_555
F18 C23 1_555 1_555
F19 C24 1_555 1_555
F20 C10 1_555 1_555
B1 C4 1_555 1_555
C25 C26 1_555 1_555
C26 C27 1_555 1_555
C27 C28 1_555 1_555
C28 C38 1_555 1_555
C29 C30 1_555 1_555
C30 C31 1_555 1_555
C31 C32 1_555 1_555
C32 C40 1_555 1_555
C33 C34 1_555 1_555
C34 C35 1_555 1_555
C35 C36 1_555 1_555
C36 C41 1_555 1_555
C37 C25 1_555 1_555
C38 C37 1_555 1_555
C39 C29 1_555 1_555
C40 C39 1_555 1_555
C41 C42 1_555 1_555
C42 C33 1_555 1_555
F21 C25 1_555 1_555
F22 C32 1_555 1_555
F23 C33 1_555 1_555
F24 C34 1_555 1_555
F25 C35 1_555 1_555
F26 C38 1_555 1_555
F27 C37 1_555 1_555
F28 C26 1_555 1_555
F29 C27 1_555 1_555
F30 C39 1_555 1_555
F31 C31 1_555 1_555
F32 C30 1_555 1_555
F33 C40 1_555 1_555
F34 C41 1_555 1_555
F35 C42 1_555 1_555
P1 C28 1_555 1_555
Br1 P1 1_555 1_555
C43 H1 1_555 1_555
H2 C43 1_555 1_555
Cl1 C43 1_555 1_555
Cl2 C43 1_555 1_555
C5 B1 1_555 1_555
C12 B1 1_555 1_555
C17 B1 1_555 1_555
C29 P1 1_555 1_555
C36 P1 1_555 1_555

#END
