
#######################################################################
#
#                 Cambridge Crystallographic Data Centre
#                                CCDC 
#
#######################################################################
#
# If this CIF has been generated from an entry in the Cambridge 
# Structural Database, then it will include bibliographic, chemical, 
# crystal, experimental, refinement or atomic coordinate data resulting 
# from the CCDC's data processing and validation procedures.
#
#######################################################################

data_ROWDAK
_chemical_formula_moiety         'C44 H45 N1 O4 P2,0.5(H2 O1)'
_chemical_name_systematic        
"(S)-P-(2',6'-Di-isopropoxybiphenyl-2-yl)-N-(2-(diphenylphosphoryl)benzyl)-N-methyl-P-phenylphosphinic amide hemihydrate"
_symmetry_cell_setting           triclinic
_symmetry_space_group_name_H-M   'P 1'
_symmetry_Int_Tables_number      1
_space_group_name_Hall           'P 1'
loop_
_symmetry_equiv_pos_site_id
_symmetry_equiv_pos_as_xyz
1 x,y,z
_cell_length_a                   9.0876(2)
_cell_length_b                   9.9954(3)
_cell_length_c                   21.5695(6)
_cell_angle_alpha                87.851(2)
_cell_angle_beta                 84.707(2)
_cell_angle_gamma                88.841(2)
_cell_volume                     1949.25
_cell_formula_units_Z            2
loop_
_atom_site_label
_atom_site_type_symbol
_atom_site_fract_x
_atom_site_fract_y
_atom_site_fract_z
P1 P 0.90010(18) 1.02749(17) 0.50904(8)
P2 P 0.9844(2) 1.03882(17) 0.25528(8)
O1 O 0.5408(5) 1.1756(6) 0.5994(3)
O2 O 0.9496(7) 1.4346(7) 0.5339(4)
O3 O 1.0933(6) 0.9495(5) 0.2844(3)
O4 O 0.9825(6) 0.8965(5) 0.5090(2)
N1 N 0.9764(6) 1.1461(6) 0.4607(3)
C1 C 0.3756(9) 0.9988(10) 0.6243(5)
H1 H 0.4237 0.9410 0.5925
H2 H 0.2716 0.9742 0.6329
H3 H 0.4255 0.9874 0.6626
C2 C 0.3845(8) 1.1420(11) 0.6013(4)
H4 H 0.3523 1.1498 0.5582
C3 C 0.5915(8) 1.2850(9) 0.5654(3)
C4 C 0.7427(8) 1.3081(7) 0.5655(3)
C5 C 0.8301(7) 1.2181(7) 0.6059(3)
C6 C 0.8907(7) 1.0935(7) 0.5872(3)
C7 C 0.9880(7) 1.1086(7) 0.3948(3)
H5 H 0.9139 1.0396 0.3896
H6 H 1.0871 1.0686 0.3839
C8 C 0.9640(7) 1.2264(7) 0.3498(3)
C9 C 0.9682(7) 1.2047(7) 0.2856(3)
C10 C 1.0306(9) 1.0581(7) 0.1717(3)
C11 C 1.1796(9) 1.0416(8) 0.1506(4)
H7 H 1.2500 1.0203 0.1795
C12 C 1.2251(11) 1.0561(9) 0.0875(4)
H8 H 1.3264 1.0443 0.0732
C13 C 1.1228(11) 1.0878(9) 0.0457(4)
H9 H 1.1539 1.0995 0.0026
C14 C 0.958(2) 1.6185(15) 0.5948(7)
H10 H 1.0450 1.6444 0.6150
H11 H 0.9057 1.5479 0.6201
H12 H 0.8922 1.6965 0.5906
C15 C 1.0051(11) 1.5690(9) 0.5333(4)
H13 H 0.9474 1.6226 0.5035
C16 C 0.8028(9) 1.4187(9) 0.5328(4)
C17 C 1.1183(7) 1.1934(8) 0.4782(3)
H14 H 1.1911 1.1196 0.4760
H15 H 1.1055 1.2253 0.5208
H16 H 1.1532 1.2667 0.4495
C18 C 0.9291(9) 1.0884(8) 0.1298(3)
H17 H 0.8277 1.0997 0.1441
C19 C 0.9740(10) 1.1027(8) 0.0665(4)
H18 H 0.9033 1.1226 0.0375
C20 C 0.7976(9) 0.9744(8) 0.2675(3)
C21 C 0.7790(11) 0.8403(9) 0.2823(4)
H19 H 0.8619 0.7816 0.2849
C22 C 0.6332(15) 0.7919(11) 0.2937(4)
H20 H 0.6191 0.6998 0.3045
C23 C 0.5120(13) 0.8745(12) 0.2895(4)
H21 H 0.4151 0.8401 0.2973
C24 C 0.5327(10) 1.0073(10) 0.2740(4)
H22 H 0.4494 1.0652 0.2706
C25 C 0.6737(9) 1.0581(8) 0.2631(3)
H23 H 0.6863 1.1506 0.2526
C26 C 0.9470(7) 1.3158(7) 0.2447(3)
H24 H 0.9503 1.3031 0.2012
C27 C 0.9214(8) 1.4433(7) 0.2673(3)
H25 H 0.9071 1.5171 0.2393
C28 C 0.9168(8) 1.4621(7) 0.3301(3)
H26 H 0.8996 1.5494 0.3456
C29 C 0.9371(7) 1.3542(7) 0.3713(3)
H27 H 0.9326 1.3684 0.4148
C30 C 0.7191(8) 1.0053(7) 0.4837(3)
C31 C 0.6559(9) 0.8814(8) 0.4955(4)
H28 H 0.7068 0.8137 0.5176
C32 C 0.5203(11) 0.8547(9) 0.4756(5)
H29 H 0.4769 0.7696 0.4845
C33 C 0.4479(9) 0.9527(10) 0.4426(4)
H30 H 0.3547 0.9347 0.4284
C34 C 0.5102(8) 1.0765(9) 0.4302(3)
H31 H 0.4598 1.1429 0.4071
C35 C 0.6434(7) 1.1048(7) 0.4506(3)
H32 H 0.6847 1.1909 0.4426
C36 C 0.9518(8) 1.0097(7) 0.6308(3)
H33 H 0.9925 0.9253 0.6186
C37 C 0.9547(9) 1.0468(9) 0.6921(4)
H34 H 0.9942 0.9869 0.7218
C38 C 0.9012(9) 1.1685(9) 0.7095(4)
H35 H 0.9057 1.1953 0.7510
C39 C 0.8395(8) 1.2542(8) 0.6664(3)
H36 H 0.8030 1.3397 0.6789
C40 C 0.2948(10) 1.2411(11) 0.6426(6)
H37 H 0.3162 1.2253 0.6860
H38 H 0.1891 1.2287 0.6392
H39 H 0.3215 1.3328 0.6289
C41 C 0.5030(11) 1.3674(9) 0.5306(4)
H40 H 0.4010 1.3492 0.5296
C42 C 0.5626(10) 1.4712(10) 0.4989(4)
H41 H 0.5008 1.5281 0.4759
C43 C 0.7108(13) 1.5013(9) 0.4976(4)
H42 H 0.7500 1.5760 0.4735
C44 C 1.1575(10) 1.5627(11) 0.5040(7)
H43 H 1.1896 1.6532 0.4907
H44 H 1.1616 1.5063 0.4677
H45 H 1.2228 1.5246 0.5340
P3 P 0.38097(17) 0.50347(16) 1.12609(8)
P4 P 0.60464(18) 0.50098(17) 0.87312(8)
O5 O 0.9660(5) 0.6591(5) 0.7858(2)
O6 O 0.4347(5) 0.3773(5) 1.0967(2)
O7 O 0.5516(6) 0.9239(6) 0.8415(3)
O8 O 0.5227(6) 0.3740(6) 0.8726(3)
N2 N 0.5286(6) 0.6137(6) 0.9219(2)
C45 C -0.1062(8) 0.5976(8) 1.1002(3)
H46 H -0.2078 0.6158 1.0958
C46 C -0.0509(7) 0.4675(7) 1.0958(3)
H47 H -0.1144 0.3967 1.0884
C47 C 0.0979(8) 0.4413(7) 1.1023(3)
H48 H 0.1357 0.3523 1.0992
C48 C 0.1915(7) 0.5437(7) 1.1133(3)
C49 C 0.4827(7) 0.6512(7) 1.0977(3)
C50 C 0.5279(7) 0.6720(7) 1.0340(3)
C51 C 0.5106(7) 0.5623(7) 0.9875(3)
H49 H 0.5851 0.4905 0.9934
H50 H 0.4115 0.5227 0.9961
C52 C 0.6159(7) 0.5819(7) 0.7946(3)
C53 C 0.6774(7) 0.7062(7) 0.7769(3)
C54 C 0.7601(7) 0.7895(7) 0.8184(3)
C55 C 0.9114(8) 0.7627(8) 0.8214(3)
C56 C 1.1242(8) 0.6268(8) 0.7823(4)
H51 H 1.1588 0.6249 0.8250
C57 C 1.2089(10) 0.7329(10) 0.7410(5)
H52 H 1.1767 0.7327 0.6988
H53 H 1.3151 0.7126 0.7393
H54 H 1.1889 0.8214 0.7583
C58 C 0.4112(9) 0.4621(8) 1.3368(3)
H55 H 0.4183 0.4511 1.3804
C59 C 0.5144(9) 0.3988(9) 1.2952(4)
H56 H 0.5920 0.3452 1.3103
C60 C 0.5026(8) 0.4152(8) 1.2317(4)
H57 H 0.5728 0.3729 1.2031
C61 C 0.3893(7) 0.4925(7) 1.2096(3)
C62 C 0.7870(8) 0.4682(7) 0.8976(3)
C63 C 0.8646(8) 0.5545(7) 0.9294(3)
H58 H 0.8216 0.6388 0.9403
C64 C 1.0062(8) 0.5212(8) 0.9463(3)
H59 H 1.0588 0.5825 0.9682
C65 C 1.0698(10) 0.3962(9) 0.9307(4)
H60 H 1.1658 0.3722 0.9418
C66 C 0.9914(12) 0.3093(9) 0.8991(4)
H61 H 1.0343 0.2250 0.8882
C67 C 0.8501(10) 0.3425(8) 0.8827(3)
H62 H 0.7967 0.2806 0.8615
C68 C 1.1385(9) 0.4896(8) 0.7565(4)
H63 H 1.0733 0.4285 0.7822
H64 H 1.2411 0.4575 0.7569
H65 H 1.1106 0.4931 0.7137
C69 C 0.9942(9) 0.8389(8) 0.8583(4)
H66 H 1.0965 0.8203 0.8606
C70 C 0.9260(10) 0.9391(9) 0.8903(4)
H67 H 0.9818 0.9889 0.9163
C71 C 0.7791(9) 0.9727(9) 0.8873(4)
H68 H 0.7344 1.0441 0.9105
C72 C 0.6975(8) 0.8992(8) 0.8491(3)
C73 C 0.4934(9) 1.0583(8) 0.8451(4)
C74 C 0.6691(8) 0.7538(8) 0.7163(3)
H69 H 0.7064 0.8399 0.7040
C75 C 0.6065(9) 0.6770(8) 0.6727(4)
H70 H 0.6001 0.7113 0.6313
C76 C 0.5548(8) 0.5524(9) 0.6902(4)
H71 H 0.5167 0.4984 0.6603
C77 C 0.5575(7) 0.5045(8) 0.7509(3)
H72 H 0.5194 0.4186 0.7629
C78 C 0.3921(7) 0.6805(7) 0.9045(3)
H73 H 0.3097 0.6184 0.9119
H74 H 0.4040 0.7083 0.8603
H75 H 0.3714 0.7594 0.9297
C79 C 0.5966(7) 0.7907(7) 1.0144(3)
H76 H 0.6263 0.8060 0.9713
C80 C 0.6229(7) 0.8874(7) 1.0560(3)
H77 H 0.6685 0.9687 1.0414
C81 C 0.5827(8) 0.8659(7) 1.1192(3)
H78 H 0.6035 0.9308 1.1482
C82 C 0.5111(8) 0.7475(7) 1.1397(3)
H79 H 0.4815 0.7328 1.1828
C83 C -0.0133(9) 0.7010(8) 1.1109(4)
H80 H -0.0516 0.7899 1.1139
C84 C 0.1361(8) 0.6752(8) 1.1174(4)
H81 H 0.1997 0.7462 1.1245
C85 C 0.2886(8) 0.5571(8) 1.2514(3)
H82 H 0.2125 0.6127 1.2366
C86 C 0.3000(8) 0.5396(8) 1.3152(3)
H83 H 0.2300 0.5819 1.3439
C87 C 0.3782(18) 1.0611(17) 0.9008(8)
H84 H 0.2891 1.0159 0.8908
H85 H 0.3534 1.1542 0.9107
H86 H 0.4178 1.0150 0.9367
C88 C 0.4053(19) 1.1099(18) 0.7930(8)
H87 H 0.4730 1.1387 0.7572
H88 H 0.3431 1.1860 0.8072
H89 H 0.3427 1.0385 0.7808
H90 H 0.566(10) 1.132(10) 0.853(4)
O9 O 1.0741(12) 0.7715(7) 0.3906(3)
H91 H 1.0472 0.8115 0.4250
H92 H 1.0450 0.6890 0.3939
C89? C 0.4361(14) 0.2303(13) 0.9754(6)
H93? H 0.3623 0.2710 1.0053
H94? H 0.4044 0.1407 0.9661
H95? H 0.4462 0.2860 0.9369
C90? C 0.5952(13) 0.2190(10) 1.0051(5)
H96? H 0.6333 0.3090 1.0092
H97? H 0.6655 0.1677 0.9777
H98? H 0.5823 0.1735 1.0462
loop_
_geom_bond_atom_site_label_1
_geom_bond_atom_site_label_2
_geom_bond_site_symmetry_1
_geom_bond_site_symmetry_2
P1 O4 1_555 1_555
P2 O3 1_555 1_555
O1 C2 1_555 1_555
O2 C15 1_555 1_555
N1 P1 1_555 1_555
C1 H1 1_555 1_555
H2 C1 1_555 1_555
H3 C1 1_555 1_555
C2 C1 1_555 1_555
H4 C2 1_555 1_555
C3 O1 1_555 1_555
C4 C3 1_555 1_555
C5 C4 1_555 1_555
C6 P1 1_555 1_555
C7 N1 1_555 1_555
H5 C7 1_555 1_555
H6 C7 1_555 1_555
C8 C7 1_555 1_555
C9 P2 1_555 1_555
C10 P2 1_555 1_555
C11 C10 1_555 1_555
H7 C11 1_555 1_555
C12 C11 1_555 1_555
H8 C12 1_555 1_555
C13 C12 1_555 1_555
H9 C13 1_555 1_555
C14 H10 1_555 1_555
H11 C14 1_555 1_555
H12 C14 1_555 1_555
C15 C14 1_555 1_555
H13 C15 1_555 1_555
C16 O2 1_555 1_555
C17 N1 1_555 1_555
H14 C17 1_555 1_555
H15 C17 1_555 1_555
H16 C17 1_555 1_555
C18 C10 1_555 1_555
H17 C18 1_555 1_555
C19 C13 1_555 1_555
H18 C19 1_555 1_555
C20 P2 1_555 1_555
C21 C20 1_555 1_555
H19 C21 1_555 1_555
C22 C21 1_555 1_555
H20 C22 1_555 1_555
C23 C22 1_555 1_555
H21 C23 1_555 1_555
C24 C23 1_555 1_555
H22 C24 1_555 1_555
C25 C20 1_555 1_555
H23 C25 1_555 1_555
C26 C9 1_555 1_555
H24 C26 1_555 1_555
C27 C26 1_555 1_555
H25 C27 1_555 1_555
C28 C27 1_555 1_555
H26 C28 1_555 1_555
C29 C8 1_555 1_555
H27 C29 1_555 1_555
C30 P1 1_555 1_555
C31 C30 1_555 1_555
H28 C31 1_555 1_555
C32 C31 1_555 1_555
H29 C32 1_555 1_555
C33 C32 1_555 1_555
H30 C33 1_555 1_555
C34 C33 1_555 1_555
H31 C34 1_555 1_555
C35 C30 1_555 1_555
H32 C35 1_555 1_555
C36 C6 1_555 1_555
H33 C36 1_555 1_555
C37 C36 1_555 1_555
H34 C37 1_555 1_555
C38 C37 1_555 1_555
H35 C38 1_555 1_555
C39 C5 1_555 1_555
H36 C39 1_555 1_555
C40 C2 1_555 1_555
H37 C40 1_555 1_555
H38 C40 1_555 1_555
H39 C40 1_555 1_555
C41 C3 1_555 1_555
H40 C41 1_555 1_555
C42 C41 1_555 1_555
H41 C42 1_555 1_555
C43 C16 1_555 1_555
H42 C43 1_555 1_555
C44 C15 1_555 1_555
H43 C44 1_555 1_555
H44 C44 1_555 1_555
H45 C44 1_555 1_555
P3 O6 1_555 1_555
P4 O8 1_555 1_555
O5 C55 1_555 1_555
O7 C72 1_555 1_555
N2 P4 1_555 1_555
C45 H46 1_555 1_555
C46 C45 1_555 1_555
H47 C46 1_555 1_555
C47 C46 1_555 1_555
H48 C47 1_555 1_555
C48 P3 1_555 1_555
C49 P3 1_555 1_555
C50 C49 1_555 1_555
C51 N2 1_555 1_555
H49 C51 1_555 1_555
H50 C51 1_555 1_555
C52 P4 1_555 1_555
C53 C52 1_555 1_555
C54 C53 1_555 1_555
C55 C54 1_555 1_555
C56 O5 1_555 1_555
H51 C56 1_555 1_555
C57 C56 1_555 1_555
H52 C57 1_555 1_555
H53 C57 1_555 1_555
H54 C57 1_555 1_555
C58 H55 1_555 1_555
C59 C58 1_555 1_555
H56 C59 1_555 1_555
C60 C59 1_555 1_555
H57 C60 1_555 1_555
C61 P3 1_555 1_555
C62 P4 1_555 1_555
C63 C62 1_555 1_555
H58 C63 1_555 1_555
C64 C63 1_555 1_555
H59 C64 1_555 1_555
C65 C64 1_555 1_555
H60 C65 1_555 1_555
C66 C65 1_555 1_555
H61 C66 1_555 1_555
C67 C62 1_555 1_555
H62 C67 1_555 1_555
C68 C56 1_555 1_555
H63 C68 1_555 1_555
H64 C68 1_555 1_555
H65 C68 1_555 1_555
C69 C55 1_555 1_555
H66 C69 1_555 1_555
C70 C69 1_555 1_555
H67 C70 1_555 1_555
C71 C70 1_555 1_555
H68 C71 1_555 1_555
C72 C54 1_555 1_555
C73 O7 1_555 1_555
C74 C53 1_555 1_555
H69 C74 1_555 1_555
C75 C74 1_555 1_555
H70 C75 1_555 1_555
C76 C75 1_555 1_555
H71 C76 1_555 1_555
C77 C52 1_555 1_555
H72 C77 1_555 1_555
C78 N2 1_555 1_555
H73 C78 1_555 1_555
H74 C78 1_555 1_555
H75 C78 1_555 1_555
C79 C50 1_555 1_555
H76 C79 1_555 1_555
C80 C79 1_555 1_555
H77 C80 1_555 1_555
C81 C80 1_555 1_555
H78 C81 1_555 1_555
C82 C49 1_555 1_555
H79 C82 1_555 1_555
C83 C45 1_555 1_555
H80 C83 1_555 1_555
C84 C48 1_555 1_555
H81 C84 1_555 1_555
C85 C61 1_555 1_555
H82 C85 1_555 1_555
C86 C58 1_555 1_555
H83 C86 1_555 1_555
C87 C73 1_555 1_555
H84 C87 1_555 1_555
H85 C87 1_555 1_555
H86 C87 1_555 1_555
C88 C73 1_555 1_555
H87 C88 1_555 1_555
H88 C88 1_555 1_555
H89 C88 1_555 1_555
H90 C73 1_555 1_555
O9 H91 1_555 1_555
H92 O9 1_555 1_555
C4 C16 1_555 1_555
C5 C6 1_555 1_555
C8 C9 1_555 1_555
C18 C19 1_555 1_555
C24 C25 1_555 1_555
C28 C29 1_555 1_555
C34 C35 1_555 1_555
C38 C39 1_555 1_555
C42 C43 1_555 1_555
C47 C48 1_555 1_555
C50 C51 1_555 1_555
C60 C61 1_555 1_555
C66 C67 1_555 1_555
C71 C72 1_555 1_555
C76 C77 1_555 1_555
C81 C82 1_555 1_555
C83 C84 1_555 1_555
C85 C86 1_555 1_555

#END
