
#######################################################################
#
#                 Cambridge Crystallographic Data Centre
#                                CCDC 
#
#######################################################################
#
# If this CIF has been generated from an entry in the Cambridge 
# Structural Database, then it will include bibliographic, chemical, 
# crystal, experimental, refinement or atomic coordinate data resulting 
# from the CCDC's data processing and validation procedures.
#
#######################################################################

data_ROWDOY01
_chemical_formula_moiety         'C26 H21 N3 O1'
_chemical_name_systematic        
1',3-dimethyl-1H,1''H-2,3':3',3''-terindol-2'(1'H)-one
_symmetry_cell_setting           orthorhombic
_symmetry_space_group_name_H-M   'P 21 21 21'
_symmetry_Int_Tables_number      19
_space_group_name_Hall           'P 2ac 2ab'
loop_
_symmetry_equiv_pos_site_id
_symmetry_equiv_pos_as_xyz
1 x,y,z
2 1/2+x,1/2-y,-z
3 -x,1/2+y,1/2-z
4 1/2-x,-y,1/2+z
_cell_length_a                   9.2510(11)
_cell_length_b                   11.3325(13)
_cell_length_c                   20.531(2)
_cell_angle_alpha                90
_cell_angle_beta                 90
_cell_angle_gamma                90
_cell_volume                     2152.41
_exptl_crystal_colour            red
_cell_formula_units_Z            4
loop_
_atom_site_label
_atom_site_type_symbol
_atom_site_fract_x
_atom_site_fract_y
_atom_site_fract_z
N1 N 0.7768(3) 0.6411(2) 0.80411(11)
N2 N 0.8794(2) 0.34742(16) 0.95856(10)
H1 H 0.9470 0.3769 0.9823
N3 N 0.9651(2) 0.73477(16) 1.02819(10)
H2 H 1.0185 0.7903 1.0436
O1 O 0.5988(2) 0.61250(18) 0.88030(10)
C1 C 0.7232(3) 0.5986(2) 0.86078(12)
C2 C 0.8457(2) 0.53379(18) 0.89638(10)
C3 C 0.9673(3) 0.5437(2) 0.84772(11)
C4 C 1.1064(3) 0.5001(2) 0.84943(15)
H3 H 1.1389 0.4555 0.8845
C5 C 1.1969(4) 0.5252(3) 0.7968(2)
H4 H 1.2912 0.4967 0.7966
C6 C 1.1481(6) 0.5912(4) 0.7455(2)
H5 H 1.2108 0.6073 0.7112
C7 C 1.0110(5) 0.6340(4) 0.74304(15)
H6 H 0.9789 0.6782 0.7077
C8 C 0.9207(4) 0.6091(2) 0.79512(12)
C9 C 0.9755(3) 0.68859(18) 0.96685(12)
H7 H 1.0416 0.7124 0.9354
C10 C 0.6921(6) 0.7109(4) 0.7580(2)
H8 H 0.5975 0.7247 0.7756
H9 H 0.6838 0.6688 0.7176
H10 H 0.7394 0.7851 0.7505
C11 C 0.8058(2) 0.40685(19) 0.90981(10)
C12 C 0.7092(3) 0.3321(2) 0.88085(11)
C13 C 0.7222(3) 0.2219(2) 0.91494(12)
C14 C 0.6508(3) 0.1123(3) 0.90884(15)
H11 H 0.5787 0.1014 0.8779
C15 C 0.6904(4) 0.0227(3) 0.94955(18)
H12 H 0.6451 -0.0503 0.9455
C16 C 0.7962(4) 0.0372(3) 0.99687(19)
H13 H 0.8201 -0.0260 1.0236
C17 C 0.8660(4) 0.1427(2) 1.00489(15)
H14 H 0.9360 0.1528 1.0369
C18 C 0.8280(3) 0.2344(2) 0.96311(12)
C19 C 0.6120(3) 0.3523(3) 0.82423(14)
H15 H 0.6557 0.4081 0.7951
H16 H 0.5210 0.3826 0.8393
H17 H 0.5964 0.2791 0.8018
C20 C 0.8739(2) 0.60194(18) 0.95877(10)
C21 C 0.7947(3) 0.59520(19) 1.01891(10)
C22 C 0.6788(3) 0.5269(2) 1.04146(12)
H18 H 0.6351 0.4717 1.0143
C23 C 0.6306(3) 0.5426(3) 1.10405(13)
H19 H 0.5536 0.4976 1.1193
C24 C 0.6956(4) 0.6253(3) 1.14536(13)
H20 H 0.6617 0.6335 1.1878
C25 C 0.8083(3) 0.6944(2) 1.12461(12)
H21 H 0.8509 0.7497 1.1521
C26 C 0.8563(3) 0.67899(19) 1.06138(11)
loop_
_geom_bond_atom_site_label_1
_geom_bond_atom_site_label_2
_geom_bond_site_symmetry_1
_geom_bond_site_symmetry_2
N1 C1 1_555 1_555
N2 H1 1_555 1_555
N3 H2 1_555 1_555
O1 C1 1_555 1_555
C1 C2 1_555 1_555
C2 C3 1_555 1_555
C3 C4 1_555 1_555
C4 H3 1_555 1_555
C5 C4 1_555 1_555
H4 C5 1_555 1_555
C6 C5 1_555 1_555
H5 C6 1_555 1_555
C7 C6 1_555 1_555
H6 C7 1_555 1_555
C8 N1 1_555 1_555
C9 N3 1_555 1_555
H7 C9 1_555 1_555
C10 N1 1_555 1_555
H8 C10 1_555 1_555
H9 C10 1_555 1_555
H10 C10 1_555 1_555
C11 N2 1_555 1_555
C12 C11 1_555 1_555
C13 C12 1_555 1_555
C14 C13 1_555 1_555
H11 C14 1_555 1_555
C15 C14 1_555 1_555
H12 C15 1_555 1_555
C16 C15 1_555 1_555
H13 C16 1_555 1_555
C17 C16 1_555 1_555
H14 C17 1_555 1_555
C18 N2 1_555 1_555
C19 C12 1_555 1_555
H15 C19 1_555 1_555
H16 C19 1_555 1_555
H17 C19 1_555 1_555
C20 C2 1_555 1_555
C21 C20 1_555 1_555
C22 C21 1_555 1_555
H18 C22 1_555 1_555
C23 C22 1_555 1_555
H19 C23 1_555 1_555
C24 C23 1_555 1_555
H20 C24 1_555 1_555
C25 C24 1_555 1_555
H21 C25 1_555 1_555
C26 N3 1_555 1_555
C2 C11 1_555 1_555
C3 C8 1_555 1_555
C7 C8 1_555 1_555
C9 C20 1_555 1_555
C13 C18 1_555 1_555
C17 C18 1_555 1_555
C21 C26 1_555 1_555
C25 C26 1_555 1_555

#END
