
#######################################################################
#
#                 Cambridge Crystallographic Data Centre
#                                CCDC 
#
#######################################################################
#
# If this CIF has been generated from an entry in the Cambridge 
# Structural Database, then it will include bibliographic, chemical, 
# crystal, experimental, refinement or atomic coordinate data resulting 
# from the CCDC's data processing and validation procedures.
#
#######################################################################

data_ROWGAN
_chemical_formula_moiety         'C34 H27 N1 O7'
_chemical_name_systematic        
"dimethyl 3'-(4-methoxyphenyl)-2-oxo-2'-(2-phenylvinyl)-2',3'-dihydro-2H-spiro[acenaphthylene-1,6'-[1,3]oxazine]-4',5'-dicarboxylate"
_symmetry_cell_setting           monoclinic
_symmetry_space_group_name_H-M   'P 21/c'
_symmetry_Int_Tables_number      14
_space_group_name_Hall           '-P 2ybc'
loop_
_symmetry_equiv_pos_site_id
_symmetry_equiv_pos_as_xyz
1 x,y,z
2 -x,1/2+y,1/2-z
3 -x,-y,-z
4 x,1/2-y,1/2+z
_cell_length_a                   14.624(3)
_cell_length_b                   13.840(3)
_cell_length_c                   16.655(2)
_cell_angle_alpha                90
_cell_angle_beta                 121.423(12)
_cell_angle_gamma                90
_cell_volume                     2876.54
_exptl_crystal_colour            colorless
_exptl_crystal_description       block
_cell_formula_units_Z            4
loop_
_atom_site_label
_atom_site_type_symbol
_atom_site_fract_x
_atom_site_fract_y
_atom_site_fract_z
C1 C 0.61962(17) 0.96914(14) 0.98894(15)
H1 H 0.5477 0.9855 0.9509
C2 C 0.6981(2) 1.03378(16) 1.00094(18)
H2 H 0.6785 1.0938 0.9717
C3 C 0.8042(2) 1.01009(19) 1.0555(2)
H3 H 0.8563 1.0536 1.0623
C4 C 0.83396(19) 0.9223(2) 1.10018(19)
H4 H 0.9061 0.9062 1.1373
C5 C 0.75652(18) 0.85784(16) 1.08999(16)
H5 H 0.7772 0.7989 1.1213
C6 C 0.64821(16) 0.87959(13) 1.03372(13)
C7 C 0.56903(16) 0.80638(13) 1.02135(14)
H6 H 0.5899 0.7639 1.0712
C8 C 0.47157(15) 0.79405(12) 0.94740(13)
H7 H 0.4442 0.8395 0.8992
C9 C 0.40441(14) 0.70932(12) 0.93910(12)
H8 H 0.4301 0.6830 1.0020
C10 C 0.48774(15) 0.62729(12) 0.85441(13)
C11 C 0.45931(17) 0.63557(14) 0.76138(14)
H9 H 0.3878 0.6445 0.7147
C12 C 0.5362(2) 0.63062(16) 0.73778(17)
H10 H 0.5164 0.6351 0.6750
C13 C 0.6419(2) 0.61919(14) 0.80589(19)
C14 C 0.8188(3) 0.5926(2) 0.8399(3)
H11 H 0.8498 0.6407 0.8885
H12 H 0.8581 0.5901 0.8083
H13 H 0.8218 0.5307 0.8672
C15 C 0.67150(18) 0.61204(14) 0.89932(17)
H14 H 0.7433 0.6051 0.9459
C16 C 0.59380(17) 0.61521(13) 0.92321(15)
H15 H 0.6134 0.6092 0.9858
C17 C 0.24034(14) 0.66567(12) 0.99955(12)
C18 C 0.31680(16) 0.63193(13) 1.08629(13)
H16 H 0.3753 0.5972 1.0941
C19 C 0.30494(18) 0.65099(15) 1.16380(14)
H17 H 0.3563 0.6269 1.2225
C20 C 0.22180(18) 0.70309(16) 1.15657(14)
H18 H 0.2180 0.7148 1.2097
C21 C 0.14116(16) 0.73928(14) 1.06773(14)
C22 C 0.15262(14) 0.71707(12) 0.99096(12)
C23 C 0.05058(19) 0.79637(17) 1.04632(16)
H19 H 0.0401 0.8151 1.0946
C24 C -0.02172(19) 0.82432(18) 0.95590(17)
H20 H -0.0798 0.8621 0.9446
C25 C -0.01134(16) 0.79794(14) 0.87940(15)
H21 H -0.0624 0.8162 0.8183
C26 C 0.07656(15) 0.74441(12) 0.89807(12)
C27 C 0.11452(15) 0.70621(12) 0.83766(13)
C28 C 0.22977(14) 0.66354(12) 0.90372(12)
C29 C 0.25071(14) 0.56876(11) 0.87118(12)
C30 C 0.18302(15) 0.48513(13) 0.85493(12)
C31 C 0.03032(19) 0.42691(17) 0.8545(2)
H22 H -0.0188 0.4173 0.7884
H23 H -0.0090 0.4419 0.8845
H24 H 0.0713 0.3691 0.8815
C32 C 0.33288(14) 0.56084(11) 0.85548(11)
C33 C 0.35651(15) 0.46847(12) 0.82027(13)
C34 C 0.3208(2) 0.37439(15) 0.69036(17)
H25 H 0.3955 0.3726 0.7111
H26 H 0.2788 0.3758 0.6229
H27 H 0.3026 0.3180 0.7127
N1 N 0.40670(12) 0.63203(10) 0.87864(10)
O1 O 0.71214(17) 0.61643(14) 0.77518(15)
O2 O 0.29583(10) 0.73876(8) 0.89846(8)
O3 O 0.06890(11) 0.70839(10) 0.75247(9)
O4 O 0.19606(11) 0.40448(9) 0.83310(10)
O5 O 0.10151(11) 0.50560(9) 0.86822(10)
O6 O 0.42523(11) 0.41327(9) 0.87273(10)
O7 O 0.29858(11) 0.46034(9) 0.72737(9)
loop_
_geom_bond_atom_site_label_1
_geom_bond_atom_site_label_2
_geom_bond_site_symmetry_1
_geom_bond_site_symmetry_2
C1 H1 1_555 1_555
C2 C1 1_555 1_555
H2 C2 1_555 1_555
C3 C2 1_555 1_555
H3 C3 1_555 1_555
C4 C3 1_555 1_555
H4 C4 1_555 1_555
C5 C4 1_555 1_555
H5 C5 1_555 1_555
C6 C1 1_555 1_555
C7 C6 1_555 1_555
H6 C7 1_555 1_555
C8 C7 1_555 1_555
H7 C8 1_555 1_555
C9 C8 1_555 1_555
H8 C9 1_555 1_555
C10 C11 1_555 1_555
C11 H9 1_555 1_555
C12 C11 1_555 1_555
H10 C12 1_555 1_555
C13 C12 1_555 1_555
C14 H11 1_555 1_555
H12 C14 1_555 1_555
H13 C14 1_555 1_555
C15 C13 1_555 1_555
H14 C15 1_555 1_555
C16 C10 1_555 1_555
H15 C16 1_555 1_555
C17 C18 1_555 1_555
C18 H16 1_555 1_555
C19 C18 1_555 1_555
H17 C19 1_555 1_555
C20 C19 1_555 1_555
H18 C20 1_555 1_555
C21 C20 1_555 1_555
C22 C17 1_555 1_555
C23 C21 1_555 1_555
H19 C23 1_555 1_555
C24 C23 1_555 1_555
H20 C24 1_555 1_555
C25 C24 1_555 1_555
H21 C25 1_555 1_555
C26 C22 1_555 1_555
C27 C26 1_555 1_555
C28 C17 1_555 1_555
C29 C28 1_555 1_555
C30 C29 1_555 1_555
C31 H22 1_555 1_555
H23 C31 1_555 1_555
H24 C31 1_555 1_555
C32 C29 1_555 1_555
C33 C32 1_555 1_555
C34 H25 1_555 1_555
H26 C34 1_555 1_555
H27 C34 1_555 1_555
N1 C9 1_555 1_555
O1 C13 1_555 1_555
O2 C9 1_555 1_555
O3 C27 1_555 1_555
O4 C30 1_555 1_555
O5 C30 1_555 1_555
O6 C33 1_555 1_555
O7 C33 1_555 1_555
C5 C6 1_555 1_555
C10 N1 1_555 1_555
C14 O1 1_555 1_555
C15 C16 1_555 1_555
C21 C22 1_555 1_555
C25 C26 1_555 1_555
C27 C28 1_555 1_555
C28 O2 1_555 1_555
C31 O5 1_555 1_555
C32 N1 1_555 1_555
C34 O7 1_555 1_555

#END
