
#######################################################################
#
#                 Cambridge Crystallographic Data Centre
#                                CCDC 
#
#######################################################################
#
# If this CIF has been generated from an entry in the Cambridge 
# Structural Database, then it will include bibliographic, chemical, 
# crystal, experimental, refinement or atomic coordinate data resulting 
# from the CCDC's data processing and validation procedures.
#
#######################################################################

data_ROXLAT
_chemical_formula_moiety         'C17 H19 N3 O5'
_chemical_name_systematic        
'4,6-Diethyl-5,7-dioxo-2-phenyl-4,5,6,7-tetrahydro[1,3]oxazolo[5,4-d]pyrimidin-7a(3aH)-yl acetate'
_symmetry_cell_setting           triclinic
_symmetry_space_group_name_H-M   'P -1'
_symmetry_Int_Tables_number      2
_space_group_name_Hall           '-P 1'
loop_
_symmetry_equiv_pos_site_id
_symmetry_equiv_pos_as_xyz
1 x,y,z
2 -x,-y,-z
_cell_length_a                   10.9255(8)
_cell_length_b                   11.3815(12)
_cell_length_c                   16.4757(14)
_cell_angle_alpha                81.003(8)
_cell_angle_beta                 72.401(7)
_cell_angle_gamma                64.951(8)
_cell_volume                     1768.21
_exptl_crystal_colour            colorless
_exptl_crystal_description       needle
_cell_formula_units_Z            4
_exptl_crystal_recrystallization_method Dichloromethane
loop_
_atom_site_label
_atom_site_type_symbol
_atom_site_fract_x
_atom_site_fract_y
_atom_site_fract_z
O1 O 0.4788(3) 0.9411(2) 0.40561(16)
O2 O 0.4067(3) 0.7295(2) 0.32769(16)
O3 O 0.1986(3) 1.1152(3) 0.4547(2)
O4 O 0.4619(3) 1.0935(3) 0.3013(2)
N1 N 0.3527(3) 0.9176(3) 0.2387(2)
C1 C 0.4241(4) 0.8513(3) 0.3020(2)
H1 H 0.5240 0.8330 0.2788
N2 N 0.3319(3) 0.8309(3) 0.45179(19)
O5 O 0.1678(3) 1.0693(3) 0.1968(2)
C2 C 0.3692(4) 0.9207(3) 0.3865(2)
C3 C 0.5143(4) 1.0365(4) 0.3580(3)
C4 C 0.3356(4) 0.6143(4) 0.4556(3)
C5 C 0.3227(4) 0.5922(4) 0.5426(3)
H2 H 0.3202 0.6537 0.5748
C6 C 0.3354(5) 0.5236(4) 0.4083(3)
H3 H 0.3430 0.5387 0.3502
C7 C 0.4198(5) 0.8700(5) 0.1521(3)
H4 H 0.5199 0.8250 0.1451
H5 H 0.4046 0.9436 0.1120
C8 C 0.2400(4) 1.0474(4) 0.3945(2)
C9 C 0.0326(5) 1.1892(4) 0.3464(3)
H6 H -0.0165 1.1950 0.4065
H7 H -0.0254 1.1792 0.3158
C10 C 0.3149(5) 0.3878(5) 0.5332(4)
H8 H 0.3096 0.3109 0.5594
C11 C 0.3135(5) 0.4782(5) 0.5809(4)
H9 H 0.3065 0.4623 0.6389
C12 C 0.0546(6) 1.3131(5) 0.3155(4)
H10 H 0.1021 1.3080 0.2559
H11 H 0.1102 1.3242 0.3466
H12 H -0.0345 1.3856 0.3243
C13 C 0.3671(9) 0.7814(8) 0.1312(5)
H13 H 0.4148 0.7537 0.0738
H14 H 0.2683 0.8259 0.1366
H15 H 0.3839 0.7071 0.1697
N3 N 0.1680(3) 1.0735(3) 0.3337(2)
C14 C 0.3560(4) 0.7307(4) 0.4140(2)
C15 C 0.2278(4) 1.0213(4) 0.2525(3)
C16 C 0.6193(5) 1.0579(4) 0.3861(3)
H16 H 0.5740 1.1345 0.4192
H17 H 0.6890 1.0687 0.3372
H18 H 0.6632 0.9844 0.4203
C17 C 0.3239(6) 0.4101(5) 0.4480(4)
H19 H 0.3224 0.3496 0.4168
O6 O 0.9839(3) 0.4685(2) 0.10325(17)
O7 O 0.8140(3) 0.7863(2) 0.09241(18)
O8 O 0.9824(4) 0.8544(3) 0.0826(2)
N4 N 0.7815(3) 0.6159(3) 0.1783(2)
O9 O 0.7769(3) 0.8276(3) 0.2614(2)
C18 C 0.8756(4) 0.6822(3) 0.1484(2)
N5 N 0.9927(3) 0.6707(3) 0.2573(2)
N6 N 1.1312(3) 0.5496(3) 0.1330(2)
O10 O 1.2244(3) 0.5446(3) 0.2383(2)
C19 C 1.0154(4) 0.5819(3) 0.0996(2)
H20 H 1.0380 0.6123 0.0402
C20 C 0.8494(4) 0.5015(3) 0.1501(2)
C21 C 0.8784(4) 0.7373(4) 0.2262(3)
C22 C 0.7940(4) 0.4015(4) 0.1626(2)
C23 C 0.8838(5) 0.2736(4) 0.1443(3)
H21 H 0.9800 0.2504 0.1252
C24 C 0.6502(5) 0.4350(5) 0.1926(3)
H22 H 0.5900 0.5201 0.2069
C25 C 0.9884(5) 0.7110(5) 0.3400(3)
H23 H 1.0485 0.6371 0.3678
H24 H 0.8936 0.7375 0.3765
C26 C 0.5972(5) 0.3417(5) 0.2013(3)
H25 H 0.5010 0.3643 0.2200
C27 C 0.8033(6) 0.9779(5) 0.0097(3)
H26 H 0.8019 0.9423 -0.0390
H27 H 0.8507 1.0355 -0.0090
H28 H 0.7090 1.0249 0.0420
C28 C 0.6871(6) 0.2149(5) 0.1821(3)
H29 H 0.6511 0.1523 0.1878
C29 C 0.8293(6) 0.1803(4) 0.1546(3)
H30 H 0.8892 0.0942 0.1430
C30 C 0.8788(5) 0.8700(4) 0.0644(3)
C31 C 1.1227(4) 0.5845(4) 0.2105(3)
C32 C 1.0349(6) 0.8207(6) 0.3302(3)
H31 H 1.1307 0.7931 0.2972
H32 H 1.0265 0.8453 0.3854
H33 H 0.9770 0.8935 0.3017
C33 C 1.2715(5) 0.4735(6) 0.0798(4)
H34 H 1.2726 0.4952 0.0204
H35 H 1.3391 0.4983 0.0915
C34 C 1.3153(9) 0.3326(10) 0.0937(8)
H36 H 1.3119 0.3103 0.1528
H37 H 1.4093 0.2892 0.0596
H38 H 1.2535 0.3060 0.0778
loop_
_geom_bond_atom_site_label_1
_geom_bond_atom_site_label_2
_geom_bond_site_symmetry_1
_geom_bond_site_symmetry_2
O1 C2 1_555 1_555
O2 C1 1_555 1_555
O3 C8 1_555 1_555
O4 C3 1_555 1_555
N1 C1 1_555 1_555
C1 H1 1_555 1_555
N2 C2 1_555 1_555
O5 C15 1_555 1_555
C2 C1 1_555 1_555
C3 O1 1_555 1_555
C4 C5 1_555 1_555
C5 H2 1_555 1_555
C6 C4 1_555 1_555
H3 C6 1_555 1_555
C7 N1 1_555 1_555
H4 C7 1_555 1_555
H5 C7 1_555 1_555
C8 C2 1_555 1_555
C9 H6 1_555 1_555
H7 C9 1_555 1_555
C10 H8 1_555 1_555
C11 C5 1_555 1_555
H9 C11 1_555 1_555
C12 C9 1_555 1_555
H10 C12 1_555 1_555
H11 C12 1_555 1_555
H12 C12 1_555 1_555
C13 C7 1_555 1_555
H13 C13 1_555 1_555
H14 C13 1_555 1_555
H15 C13 1_555 1_555
N3 C8 1_555 1_555
C14 O2 1_555 1_555
C15 N1 1_555 1_555
C16 C3 1_555 1_555
H16 C16 1_555 1_555
H17 C16 1_555 1_555
H18 C16 1_555 1_555
C17 C6 1_555 1_555
H19 C17 1_555 1_555
O6 C19 1_555 1_555
O7 C18 1_555 1_555
O8 C30 1_555 1_555
N4 C18 1_555 1_555
O9 C21 1_555 1_555
C18 C19 1_555 1_555
N5 C21 1_555 1_555
N6 C19 1_555 1_555
O10 C31 1_555 1_555
C19 H20 1_555 1_555
C20 O6 1_555 1_555
C21 C18 1_555 1_555
C22 C20 1_555 1_555
C23 C22 1_555 1_555
H21 C23 1_555 1_555
C24 C22 1_555 1_555
H22 C24 1_555 1_555
C25 N5 1_555 1_555
H23 C25 1_555 1_555
H24 C25 1_555 1_555
C26 C24 1_555 1_555
H25 C26 1_555 1_555
C27 H26 1_555 1_555
H27 C27 1_555 1_555
H28 C27 1_555 1_555
C28 C26 1_555 1_555
H29 C28 1_555 1_555
C29 C23 1_555 1_555
H30 C29 1_555 1_555
C30 O7 1_555 1_555
C31 N5 1_555 1_555
C32 C25 1_555 1_555
H31 C32 1_555 1_555
H32 C32 1_555 1_555
H33 C32 1_555 1_555
C33 N6 1_555 1_555
H34 C33 1_555 1_555
H35 C33 1_555 1_555
C34 C33 1_555 1_555
H36 C34 1_555 1_555
H37 C34 1_555 1_555
H38 C34 1_555 1_555
N2 C14 1_555 1_555
C4 C14 1_555 1_555
C9 N3 1_555 1_555
C10 C11 1_555 1_555
C10 C17 1_555 1_555
N3 C15 1_555 1_555
N4 C20 1_555 1_555
N6 C31 1_555 1_555
C27 C30 1_555 1_555
C28 C29 1_555 1_555

#END
