
#######################################################################
#
#                 Cambridge Crystallographic Data Centre
#                                CCDC 
#
#######################################################################
#
# If this CIF has been generated from an entry in the Cambridge 
# Structural Database, then it will include bibliographic, chemical, 
# crystal, experimental, refinement or atomic coordinate data resulting 
# from the CCDC's data processing and validation procedures.
#
#######################################################################

data_ROXNID
_chemical_formula_moiety         'C24 H20 F1 N3 O3'
_chemical_name_systematic        
3'-(4-fluorophenyl)-1-methyl-4'-nitro-5'-phenylspiro[indole-3,2'-pyrrolidin]-2(1H)-one
_symmetry_cell_setting           triclinic
_symmetry_space_group_name_H-M   'P -1'
_symmetry_Int_Tables_number      2
_space_group_name_Hall           '-P 1'
loop_
_symmetry_equiv_pos_site_id
_symmetry_equiv_pos_as_xyz
1 x,y,z
2 -x,-y,-z
_cell_length_a                   9.4051(10)
_cell_length_b                   10.8449(10)
_cell_length_c                   11.7059(13)
_cell_angle_alpha                99.095(9)
_cell_angle_beta                 111.020(10)
_cell_angle_gamma                104.904(9)
_cell_volume                     1034.72
_cell_formula_units_Z            2
loop_
_atom_site_label
_atom_site_type_symbol
_atom_site_fract_x
_atom_site_fract_y
_atom_site_fract_z
C1 C 0.2424(3) 0.7877(2) 0.3388(2)
C2 C 0.1232(2) 0.85277(19) 0.26346(19)
C3 C -0.0134(3) 0.73402(19) 0.16511(19)
C4 C 0.0239(3) 0.6204(2) 0.1821(2)
C5 C -0.0808(3) 0.4962(2) 0.1058(2)
H1 H -0.0551 0.4204 0.1172
C6 C -0.2256(3) 0.4881(2) 0.0118(2)
H2 H -0.2989 0.4051 -0.0406
C7 C -0.2643(3) 0.5995(2) -0.0064(2)
H3 H -0.3628 0.5912 -0.0703
C8 C -0.1561(3) 0.7247(2) 0.0707(2)
H4 H -0.1805 0.8007 0.0581
C9 C 0.2494(3) 0.5596(2) 0.3325(2)
H5 H 0.1771 0.4993 0.3556
H6 H 0.3497 0.6064 0.4060
H7 H 0.2697 0.5106 0.2677
C10 C 0.2036(2) 0.95820(18) 0.20992(18)
H8 H 0.1154 0.9789 0.1498
C11 C 0.2959(3) 1.08075(18) 0.32621(19)
H9 H 0.4089 1.0859 0.3678
C12 C 0.2124(3) 1.05711(19) 0.41802(19)
H10 H 0.2863 1.0380 0.4910
C13 C 0.2954(3) 0.91804(18) 0.13761(19)
C14 C 0.4517(3) 0.9155(2) 0.1957(2)
H11 H 0.5050 0.9424 0.2841
C15 C 0.5296(3) 0.8741(2) 0.1252(3)
H12 H 0.6336 0.8717 0.1650
C16 C 0.4500(3) 0.8367(2) -0.0043(3)
C17 C 0.2973(3) 0.8371(2) -0.0664(2)
H13 H 0.2458 0.8103 -0.1549
C18 C 0.2202(3) 0.87842(19) 0.0055(2)
H14 H 0.1159 0.8796 -0.0357
C19 C 0.1626(3) 1.1686(2) 0.4686(2)
C20 C 0.2739(4) 1.2671(2) 0.5768(2)
H15 H 0.3774 1.2641 0.6175
C21 C 0.2331(5) 1.3709(3) 0.6258(3)
H16 H 0.3088 1.4368 0.6995
C22 C 0.0814(5) 1.3764(3) 0.5656(3)
H17 H 0.0545 1.4468 0.5976
C23 C -0.0304(4) 1.2787(3) 0.4586(3)
H18 H -0.1339 1.2820 0.4184
C24 C 0.0100(3) 1.1744(2) 0.4096(2)
H19 H -0.0666 1.1081 0.3366
F1 F 0.5248(2) 0.79687(16) -0.07601(15)
N1 N 0.1758(2) 0.65444(16) 0.28392(17)
N2 N 0.0731(2) 0.93418(17) 0.34260(18)
H20 H 0.037(3) 0.892(2) 0.390(2)
N3 N 0.2905(3) 1.20640(17) 0.28819(18)
O1 O 0.3701(2) 0.84542(14) 0.43064(15)
O2 O 0.1658(2) 1.20743(15) 0.20887(16)
O3 O 0.4112(2) 1.30306(16) 0.34307(19)
loop_
_geom_bond_atom_site_label_1
_geom_bond_atom_site_label_2
_geom_bond_site_symmetry_1
_geom_bond_site_symmetry_2
C1 C2 1_555 1_555
C2 C3 1_555 1_555
C3 C4 1_555 1_555
C4 C5 1_555 1_555
C5 H1 1_555 1_555
C6 C5 1_555 1_555
H2 C6 1_555 1_555
C7 C6 1_555 1_555
H3 C7 1_555 1_555
C8 C3 1_555 1_555
H4 C8 1_555 1_555
C9 H5 1_555 1_555
H6 C9 1_555 1_555
H7 C9 1_555 1_555
C10 C2 1_555 1_555
H8 C10 1_555 1_555
C11 C10 1_555 1_555
H9 C11 1_555 1_555
C12 C11 1_555 1_555
H10 C12 1_555 1_555
C13 C10 1_555 1_555
C14 C13 1_555 1_555
H11 C14 1_555 1_555
C15 C14 1_555 1_555
H12 C15 1_555 1_555
C16 C15 1_555 1_555
C17 C16 1_555 1_555
H13 C17 1_555 1_555
C18 C13 1_555 1_555
H14 C18 1_555 1_555
C19 C12 1_555 1_555
C20 C19 1_555 1_555
H15 C20 1_555 1_555
C21 C20 1_555 1_555
H16 C21 1_555 1_555
C22 C21 1_555 1_555
H17 C22 1_555 1_555
C23 C22 1_555 1_555
H18 C23 1_555 1_555
C24 C19 1_555 1_555
H19 C24 1_555 1_555
F1 C16 1_555 1_555
N1 C1 1_555 1_555
N2 C2 1_555 1_555
H20 N2 1_555 1_555
N3 C11 1_555 1_555
O1 C1 1_555 1_555
O2 N3 1_555 1_555
O3 N3 1_555 1_555
C4 N1 1_555 1_555
C7 C8 1_555 1_555
C9 N1 1_555 1_555
C12 N2 1_555 1_555
C17 C18 1_555 1_555
C23 C24 1_555 1_555

#END
