
#######################################################################
#
#                 Cambridge Crystallographic Data Centre
#                                CCDC 
#
#######################################################################
#
# If this CIF has been generated from an entry in the Cambridge 
# Structural Database, then it will include bibliographic, chemical, 
# crystal, experimental, refinement or atomic coordinate data resulting 
# from the CCDC's data processing and validation procedures.
#
#######################################################################

data_ROYFES
_chemical_formula_moiety         '2(C33 H21 B1 F1 N3),C1 H2 Cl2'
_chemical_name_systematic        
'9c-fluoro-3,6,9-triphenyl-9cH-8b,9b,9d-triaza-9c-boratricyclopenta[cd,gh,kl]phenalene dichloromethane solvate'
_symmetry_cell_setting           monoclinic
_symmetry_space_group_name_H-M   'P 21/c'
_symmetry_Int_Tables_number      14
_space_group_name_Hall           '-P 2ybc'
loop_
_symmetry_equiv_pos_site_id
_symmetry_equiv_pos_as_xyz
1 x,y,z
2 -x,1/2+y,1/2-z
3 -x,-y,-z
4 x,1/2-y,1/2+z
_cell_length_a                   9.667(3)
_cell_length_b                   25.121(8)
_cell_length_c                   21.748(7)
_cell_angle_alpha                90
_cell_angle_beta                 98.248(10)
_cell_angle_gamma                90
_cell_volume                     5226.76
_exptl_crystal_colour            yellow
_exptl_crystal_description       Prism
_cell_formula_units_Z            4
loop_
_atom_site_label
_atom_site_type_symbol
_atom_site_fract_x
_atom_site_fract_y
_atom_site_fract_z
B1 B 0.1697(3) 0.26539(13) 0.24407(15)
F1 F 0.27100(16) 0.26804(7) 0.20360(8)
N1 N 0.2305(2) 0.25098(9) 0.30864(11)
N2 N 0.0601(2) 0.22450(9) 0.22456(11)
N3 N 0.0952(2) 0.31648(10) 0.24820(11)
C1 C 0.2720(3) 0.28718(12) 0.35500(13)
C2 C 0.3344(3) 0.25560(12) 0.40729(14)
H1 H 0.3785 0.2688 0.4450
C3 C 0.3175(3) 0.20291(12) 0.39177(14)
H2 H 0.3476 0.1743 0.4174
C4 C 0.2456(3) 0.19924(12) 0.32923(14)
C5 C 0.1751(3) 0.15742(11) 0.29304(13)
C6 C 0.0728(3) 0.17161(11) 0.24197(13)
C7 C -0.0460(3) 0.14546(12) 0.20622(14)
H3 H -0.0649 0.1092 0.2059
C8 C -0.1257(3) 0.18366(12) 0.17287(14)
H4 H -0.2076 0.1775 0.1457
C9 C -0.0618(3) 0.23475(12) 0.18674(13)
C10 C -0.1049(3) 0.28858(12) 0.17639(13)
C11 C -0.0283(3) 0.32917(12) 0.21167(13)
C12 C -0.0626(3) 0.38199(12) 0.22989(14)
H5 H -0.1381 0.4022 0.2117
C13 C 0.0356(3) 0.39761(12) 0.27904(14)
H6 H 0.0381 0.4301 0.2997
C14 C 0.1331(3) 0.35463(11) 0.29248(13)
C15 C 0.2308(3) 0.34126(12) 0.34593(13)
C16 C 0.2003(3) 0.10213(11) 0.31504(13)
C17 C 0.0927(3) 0.06483(12) 0.31576(14)
H7 H 0.0011 0.0745 0.3008
C18 C 0.1207(3) 0.01362(12) 0.33846(14)
H8 H 0.0479 -0.0106 0.3380
C19 C 0.2556(3) -0.00167(12) 0.36172(15)
H9 H 0.2737 -0.0358 0.3775
C20 C 0.3641(3) 0.03492(12) 0.36120(14)
H10 H 0.4552 0.0251 0.3767
C21 C 0.3369(3) 0.08558(12) 0.33786(14)
H11 H 0.4107 0.1093 0.3372
C22 C -0.2360(3) 0.30316(12) 0.13597(14)
C23 C -0.3632(3) 0.27654(12) 0.14109(14)
H12 H -0.3645 0.2494 0.1701
C24 C -0.4847(3) 0.29045(12) 0.10342(14)
H13 H -0.5675 0.2728 0.1074
C25 C -0.4846(3) 0.33072(13) 0.05956(14)
H14 H -0.5667 0.3398 0.0339
C26 C -0.3610(3) 0.35734(13) 0.05433(15)
H15 H -0.3607 0.3846 0.0254
C27 C -0.2377(3) 0.34359(12) 0.09196(14)
H16 H -0.1555 0.3616 0.0878
C28 C 0.2726(3) 0.38242(12) 0.39367(14)
C29 C 0.2691(3) 0.37297(13) 0.45703(14)
H17 H 0.2396 0.3401 0.4699
C30 C 0.3092(3) 0.41239(14) 0.50065(15)
H18 H 0.3080 0.4056 0.5426
C31 C 0.3515(3) 0.46226(14) 0.48174(16)
H19 H 0.3795 0.4886 0.5110
C32 C 0.3515(3) 0.47219(13) 0.41930(15)
H20 H 0.3779 0.5055 0.4065
C33 C 0.3125(3) 0.43288(12) 0.37553(15)
H21 H 0.3129 0.4401 0.3336
B2 B -0.6705(3) 0.54184(13) 0.24171(16)
F2 F -0.77621(16) 0.53616(7) 0.27981(8)
N4 N -0.5924(2) 0.49133(9) 0.23617(11)
N5 N -0.7261(2) 0.55794(9) 0.17742(11)
N6 N -0.5646(2) 0.58256(9) 0.26561(11)
C34 C -0.4694(3) 0.47835(12) 0.27279(13)
C35 C -0.4319(3) 0.42670(12) 0.25207(13)
H22 H -0.3552 0.4066 0.2693
C36 C -0.5283(3) 0.41202(12) 0.20264(14)
H23 H -0.5292 0.3801 0.1809
C37 C -0.6284(3) 0.45473(12) 0.19009(14)
C38 C -0.7260(3) 0.46849(11) 0.13728(13)
C39 C -0.7660(3) 0.52321(12) 0.12943(14)
C40 C -0.8251(3) 0.55630(12) 0.07819(14)
H24 H -0.8666 0.5443 0.0394
C41 C -0.8096(3) 0.60875(12) 0.09635(15)
H25 H -0.8378 0.6382 0.0718
C42 C -0.7424(3) 0.61022(12) 0.15974(14)
C43 C -0.6779(3) 0.65110(12) 0.19940(14)
C44 C -0.5786(3) 0.63596(11) 0.25105(14)
C45 C -0.4650(3) 0.66135(12) 0.29025(14)
H26 H -0.4499 0.6979 0.2936
C46 C -0.3828(3) 0.62309(12) 0.32187(13)
H27 H -0.3019 0.6291 0.3497
C47 C -0.4433(3) 0.57155(12) 0.30456(13)
C48 C -0.3970(3) 0.51781(12) 0.31141(13)
C49 C -0.7746(3) 0.42721(12) 0.09077(14)
C50 C -0.8126(3) 0.37695(12) 0.11159(14)
H28 H -0.8050 0.3702 0.1540
C51 C -0.8612(3) 0.33739(13) 0.06933(15)
H29 H -0.8855 0.3043 0.0836
C52 C -0.8738(3) 0.34699(13) 0.00592(15)
H30 H -0.9082 0.3207 -0.0223
C53 C -0.8345(3) 0.39618(13) -0.01495(15)
H31 H -0.8419 0.4025 -0.0574
C54 C -0.7845(3) 0.43600(13) 0.02654(14)
H32 H -0.7574 0.4686 0.0118
C55 C -0.7090(3) 0.70767(12) 0.18326(14)
C56 C -0.8472(3) 0.72327(12) 0.16395(14)
H33 H -0.9177 0.6978 0.1604
C57 C -0.8812(3) 0.77572(12) 0.15012(15)
H34 H -0.9738 0.7853 0.1374
C58 C -0.7764(3) 0.81441(13) 0.15524(15)
H35 H -0.7989 0.8499 0.1467
C59 C -0.6384(3) 0.79946(12) 0.17309(14)
H36 H -0.5681 0.8250 0.1757
C60 C -0.6044(3) 0.74669(12) 0.18717(14)
H37 H -0.5116 0.7372 0.1993
C61 C -0.2660(3) 0.50310(11) 0.35172(13)
C62 C -0.2637(3) 0.45932(12) 0.39181(14)
H38 H -0.3451 0.4399 0.3933
C63 C -0.1419(3) 0.44464(12) 0.42911(15)
H39 H -0.1417 0.4154 0.4553
C64 C -0.0193(3) 0.47352(13) 0.42772(15)
H40 H 0.0625 0.4639 0.4532
C65 C -0.0204(3) 0.51678(13) 0.38810(15)
H41 H 0.0613 0.5360 0.3868
C66 C -0.1423(3) 0.53164(12) 0.35040(15)
H42 H -0.1417 0.5608 0.3241
C67 C 0.2578(4) 0.72095(16) 0.50465(19)
H43 H 0.2830 0.7489 0.4776
H44 H 0.2772 0.7337 0.5471
Cl1 Cl 0.36111(10) 0.66452(4) 0.49648(5)
Cl2 Cl 0.07794(11) 0.70744(5) 0.48636(5)
loop_
_geom_bond_atom_site_label_1
_geom_bond_atom_site_label_2
_geom_bond_site_symmetry_1
_geom_bond_site_symmetry_2
B1 F1 1_555 1_555
N1 B1 1_555 1_555
N2 B1 1_555 1_555
N3 B1 1_555 1_555
C1 N1 1_555 1_555
C2 C1 1_555 1_555
H1 C2 1_555 1_555
C3 C2 1_555 1_555
H2 C3 1_555 1_555
C4 N1 1_555 1_555
C5 C4 1_555 1_555
C6 N2 1_555 1_555
C7 C6 1_555 1_555
H3 C7 1_555 1_555
C8 C7 1_555 1_555
H4 C8 1_555 1_555
C9 N2 1_555 1_555
C10 C9 1_555 1_555
C11 N3 1_555 1_555
C12 C11 1_555 1_555
H5 C12 1_555 1_555
C13 C12 1_555 1_555
H6 C13 1_555 1_555
C14 N3 1_555 1_555
C15 C1 1_555 1_555
C16 C5 1_555 1_555
C17 C16 1_555 1_555
H7 C17 1_555 1_555
C18 C17 1_555 1_555
H8 C18 1_555 1_555
C19 C18 1_555 1_555
H9 C19 1_555 1_555
C20 C19 1_555 1_555
H10 C20 1_555 1_555
C21 C16 1_555 1_555
H11 C21 1_555 1_555
C22 C10 1_555 1_555
C23 C22 1_555 1_555
H12 C23 1_555 1_555
C24 C23 1_555 1_555
H13 C24 1_555 1_555
C25 C24 1_555 1_555
H14 C25 1_555 1_555
C26 C25 1_555 1_555
H15 C26 1_555 1_555
C27 C22 1_555 1_555
H16 C27 1_555 1_555
C28 C15 1_555 1_555
C29 C28 1_555 1_555
H17 C29 1_555 1_555
C30 C29 1_555 1_555
H18 C30 1_555 1_555
C31 C30 1_555 1_555
H19 C31 1_555 1_555
C32 C31 1_555 1_555
H20 C32 1_555 1_555
C33 C28 1_555 1_555
H21 C33 1_555 1_555
B2 F2 1_555 1_555
N4 B2 1_555 1_555
N5 B2 1_555 1_555
N6 B2 1_555 1_555
C34 N4 1_555 1_555
C35 C34 1_555 1_555
H22 C35 1_555 1_555
C36 C35 1_555 1_555
H23 C36 1_555 1_555
C37 N4 1_555 1_555
C38 C37 1_555 1_555
C39 N5 1_555 1_555
C40 C39 1_555 1_555
H24 C40 1_555 1_555
C41 C40 1_555 1_555
H25 C41 1_555 1_555
C42 N5 1_555 1_555
C43 C42 1_555 1_555
C44 N6 1_555 1_555
C45 C44 1_555 1_555
H26 C45 1_555 1_555
C46 C45 1_555 1_555
H27 C46 1_555 1_555
C47 N6 1_555 1_555
C48 C34 1_555 1_555
C49 C38 1_555 1_555
C50 C49 1_555 1_555
H28 C50 1_555 1_555
C51 C50 1_555 1_555
H29 C51 1_555 1_555
C52 C51 1_555 1_555
H30 C52 1_555 1_555
C53 C52 1_555 1_555
H31 C53 1_555 1_555
C54 C49 1_555 1_555
H32 C54 1_555 1_555
C55 C43 1_555 1_555
C56 C55 1_555 1_555
H33 C56 1_555 1_555
C57 C56 1_555 1_555
H34 C57 1_555 1_555
C58 C57 1_555 1_555
H35 C58 1_555 1_555
C59 C58 1_555 1_555
H36 C59 1_555 1_555
C60 C55 1_555 1_555
H37 C60 1_555 1_555
C61 C48 1_555 1_555
C62 C61 1_555 1_555
H38 C62 1_555 1_555
C63 C62 1_555 1_555
H39 C63 1_555 1_555
C64 C63 1_555 1_555
H40 C64 1_555 1_555
C65 C64 1_555 1_555
H41 C65 1_555 1_555
C66 C61 1_555 1_555
H42 C66 1_555 1_555
C67 H43 1_555 1_555
H44 C67 1_555 1_555
Cl1 C67 1_555 1_555
Cl2 C67 1_555 1_555
C3 C4 1_555 1_555
C5 C6 1_555 1_555
C8 C9 1_555 1_555
C10 C11 1_555 1_555
C13 C14 1_555 1_555
C14 C15 1_555 1_555
C20 C21 1_555 1_555
C26 C27 1_555 1_555
C32 C33 1_555 1_555
C36 C37 1_555 1_555
C38 C39 1_555 1_555
C41 C42 1_555 1_555
C43 C44 1_555 1_555
C46 C47 1_555 1_555
C47 C48 1_555 1_555
C53 C54 1_555 1_555
C59 C60 1_555 1_555
C65 C66 1_555 1_555

#END
