
#######################################################################
#
#                 Cambridge Crystallographic Data Centre
#                                CCDC 
#
#######################################################################
#
# If this CIF has been generated from an entry in the Cambridge 
# Structural Database, then it will include bibliographic, chemical, 
# crystal, experimental, refinement or atomic coordinate data resulting 
# from the CCDC's data processing and validation procedures.
#
#######################################################################

data_RUBQEM
_chemical_formula_moiety         'C16 H6 O12 S4 4-,4(C1 H6 N3 1+)'
_chemical_name_systematic        
'tetrakis(Guanidinium) pyrene-1,3,6,8-tetrasulfonate'
_symmetry_cell_setting           orthorhombic
_symmetry_space_group_name_H-M   'P n n m'
_symmetry_Int_Tables_number      58
_space_group_name_Hall           '-P 2 2n'
loop_
_symmetry_equiv_pos_site_id
_symmetry_equiv_pos_as_xyz
1 x,y,z
2 -x,-y,z
3 1/2-x,1/2+y,1/2-z
4 1/2+x,1/2-y,1/2-z
5 -x,-y,-z
6 x,y,-z
7 1/2+x,1/2-y,1/2+z
8 1/2-x,1/2+y,1/2+z
_cell_length_a                   17.069(3)
_cell_length_b                   19.427(3)
_cell_length_c                   7.4139(11)
_cell_angle_alpha                90
_cell_angle_beta                 90
_cell_angle_gamma                90
_cell_volume                     2458.45
_exptl_crystal_colour            colorless
_exptl_crystal_description       block
_cell_formula_units_Z            2
loop_
_atom_site_label
_atom_site_type_symbol
_atom_site_fract_x
_atom_site_fract_y
_atom_site_fract_z
S1 S 0.45464(9) 0.23637(7) 0.5000
S2 S 0.23098(9) 0.03884(7) 0.5000
O1 O 0.50125(16) 0.24820(13) 0.3386(4)
O2 O 0.3812(3) 0.2726(2) 0.5000
O3 O 0.21674(17) -0.00097(14) 0.3372(3)
O4 O 0.1896(2) 0.1047(2) 0.5000
C1 C 0.6303(3) 0.0648(3) 0.5000
H1 H 0.6839 0.0781 0.5000
C2 C 0.5737(3) 0.1142(2) 0.5000
H2 H 0.5885 0.1613 0.5000
C3 C 0.4917(3) 0.0964(3) 0.5000
C4 C 0.4323(3) 0.1465(3) 0.5000
C5 C 0.3547(3) 0.1283(3) 0.5000
H3 H 0.3155 0.1630 0.5000
C6 C 0.3328(3) 0.0584(3) 0.5000
C7 C 0.3893(4) 0.0064(3) 0.5000
C8 C 0.4708(3) 0.0270(3) 0.5000
S1A S 0.54536(9) -0.23637(7) 0.5000
S2A S 0.76902(9) -0.03884(7) 0.5000
O1A O 0.49875(16) -0.24820(13) 0.3386(4)
O2A O 0.6188(3) -0.2726(2) 0.5000
O3A O 0.78326(17) 0.00097(14) 0.3372(3)
O4A O 0.8104(2) -0.1047(2) 0.5000
C1A C 0.3697(3) -0.0648(3) 0.5000
H1A H 0.3161 -0.0781 0.5000
C2A C 0.4263(3) -0.1142(2) 0.5000
H2A H 0.4115 -0.1613 0.5000
C3A C 0.5083(3) -0.0964(3) 0.5000
C4A C 0.5677(3) -0.1465(3) 0.5000
C5A C 0.6453(3) -0.1283(3) 0.5000
H3A H 0.6845 -0.1630 0.5000
C6A C 0.6672(3) -0.0584(3) 0.5000
C7A C 0.6107(4) -0.0064(3) 0.5000
C8A C 0.5292(3) -0.0270(3) 0.5000
O1D O 0.49875(16) -0.24820(13) 0.6614(4)
O3D O 0.78326(17) 0.00097(14) 0.6628(3)
O1E O 0.50125(16) 0.24820(13) 0.6614(4)
O3E O 0.21674(17) -0.00097(14) 0.6628(3)
C9 C 0.3807(6) 0.3339(5) 0.0000
N1 N 0.4231(6) 0.2750(5) 0.0000
H4 H 0.4351 0.2549 -0.1027
N2 N 0.3578(4) 0.3605(4) 0.1534(8)
H5 H 0.3267 0.3966 0.1541
H6 H 0.3735 0.3423 0.2558
H4E H 0.4351 0.2549 0.1027
N2E N 0.3578(4) 0.3605(4) -0.1534(8)
H5E H 0.3267 0.3966 -0.1541
H6E H 0.3735 0.3423 -0.2558
C10 C 0.1522(4) 0.1250(4) 0.0000
N3 N 0.2008(4) 0.0716(3) 0.0000
H7 H 0.2155 0.0529 -0.1027
N4 N 0.1260(3) 0.1496(2) 0.1552(5)
H8 H 0.0909 0.1827 0.1559
H9 H 0.1438 0.1328 0.2576
H7E H 0.2155 0.0529 0.1027
N4E N 0.1260(3) 0.1496(2) -0.1552(5)
H8E H 0.0909 0.1827 -0.1559
H9E H 0.1438 0.1328 -0.2576
C11? C 0.4075(17) 0.3521(15) 0.0000
N5? N 0.4610(16) 0.3067(13) 0.0000
H10? H 0.4847 0.2957 0.1013
H11? H 0.4743 0.2862 -0.1013
N6? N 0.3923(12) 0.3793(10) 0.157(3)
H12? H 0.4184 0.3658 0.2533
H13? H 0.3559 0.4111 0.1674
H14? H 0.4387 0.2569 0.1027
H15? H 0.2184 0.0550 0.1027
loop_
_geom_bond_atom_site_label_1
_geom_bond_atom_site_label_2
_geom_bond_site_symmetry_1
_geom_bond_site_symmetry_2
S1 O1 1_555 1_555
S2 O3 1_555 1_555
O2 S1 1_555 1_555
O4 S2 1_555 1_555
C1 H1 1_555 1_555
C2 C1 1_555 1_555
H2 C2 1_555 1_555
C3 C2 1_555 1_555
C4 S1 1_555 1_555
C5 C4 1_555 1_555
H3 C5 1_555 1_555
C6 S2 1_555 1_555
C7 C6 1_555 1_555
C8 C3 1_555 1_555
C9 N1 1_555 1_555
N1 H4 1_555 1_555
N2 C9 1_555 1_555
H5 N2 1_555 1_555
H6 N2 1_555 1_555
C10 N3 1_555 1_555
N3 H7 1_555 1_555
N4 C10 1_555 1_555
H8 N4 1_555 1_555
H9 N4 1_555 1_555
S1A O1A 1_555 1_555
S2A O3A 1_555 1_555
O2A S1A 1_555 1_555
O4A S2A 1_555 1_555
C1A C7 1_555 1_555
H1A C1A 1_555 1_555
C2A C1A 1_555 1_555
H2A C2A 1_555 1_555
C3A C2A 1_555 1_555
C4A S1A 1_555 1_555
C5A C4A 1_555 1_555
H3A C5A 1_555 1_555
C6A S2A 1_555 1_555
C7A C1 1_555 1_555
C8A C8 1_555 1_555
O1D S1A 1_555 1_555
O3D S2A 1_555 1_555
O1E S1 1_555 1_555
O3E S2 1_555 1_555
H4E N1 1_555 1_555
N2E C9 1_555 1_555
H5E N2E 1_555 1_555
H6E N2E 1_555 1_555
H7E N3 1_555 1_555
N4E C10 1_555 1_555
H8E N4E 1_555 1_555
H9E N4E 1_555 1_555
C3 C4 1_555 1_555
C5 C6 1_555 1_555
C7 C8 1_555 1_555
C3A C4A 1_555 1_555
C3A C8A 1_555 1_555
C5A C6A 1_555 1_555
C6A C7A 1_555 1_555
C7A C8A 1_555 1_555

#END
