
#######################################################################
#
#                 Cambridge Crystallographic Data Centre
#                                CCDC 
#
#######################################################################
#
# If this CIF has been generated from an entry in the Cambridge 
# Structural Database, then it will include bibliographic, chemical, 
# crystal, experimental, refinement or atomic coordinate data resulting 
# from the CCDC's data processing and validation procedures.
#
#######################################################################

data_RUCROY
_chemical_formula_moiety         'C12 H11 Br1 N2 O2'
_chemical_name_systematic        
'Ethyl 1-(4-bromophenyl)-1H-pyrazole-4-carboxylate'
_symmetry_cell_setting           monoclinic
_symmetry_space_group_name_H-M   'P 21/n'
_symmetry_Int_Tables_number      14
_space_group_name_Hall           '-P 2yn'
loop_
_symmetry_equiv_pos_site_id
_symmetry_equiv_pos_as_xyz
1 x,y,z
2 1/2-x,1/2+y,1/2-z
3 -x,-y,-z
4 1/2+x,1/2-y,1/2+z
_cell_length_a                   5.005(4)
_cell_length_b                   22.299(17)
_cell_length_c                   11.074(9)
_cell_angle_alpha                90
_cell_angle_beta                 98.110(14)
_cell_angle_gamma                90
_cell_volume                     1223.57
_exptl_crystal_colour            colorless
_exptl_crystal_description       block
_cell_formula_units_Z            4
loop_
_atom_site_label
_atom_site_type_symbol
_atom_site_fract_x
_atom_site_fract_y
_atom_site_fract_z
Br1 Br 0.00383(14) 0.22636(3) 0.65820(6)
C1 C 0.1387(11) 0.2868(2) 0.5633(5)
C2 C 0.3564(11) 0.3206(3) 0.6107(5)
H1 H 0.4379 0.3145 0.6906
C3 C 0.4543(11) 0.3639(2) 0.5398(5)
H2 H 0.6022 0.3870 0.5718
C4 C 0.3345(9) 0.3729(2) 0.4223(4)
C5 C 0.1123(11) 0.3400(2) 0.3754(5)
H3 H 0.0283 0.3471 0.2963
C6 C 0.0132(11) 0.2962(2) 0.4461(5)
H4 H -0.1362 0.2734 0.4147
C7 C 0.6812(11) 0.4839(2) 0.2707(5)
C8 C 0.4869(12) 0.4595(3) 0.1814(5)
H5 H 0.4620 0.4714 0.1001
C9 C 0.8821(13) 0.5304(3) 0.2590(7)
C10 C 1.089(2) 0.5903(6) 0.1216(15)
H6 H 1.1874 0.5718 0.0621
H7 H 1.2121 0.5992 0.1950
C11 C 0.939(4) 0.6469(6) 0.0699(18)
H8 H 0.7480 0.6408 0.0652
H9 H 0.9833 0.6549 -0.0102
H10 H 0.9926 0.6804 0.1223
C12 C 0.6437(10) 0.4551(2) 0.3753(5)
H11 H 0.7403 0.4616 0.4523
N1 N 0.4400(8) 0.41536(19) 0.3471(4)
N2 N 0.3422(10) 0.4174(2) 0.2260(4)
O1 O 1.0496(10) 0.5459(2) 0.3401(5)
O2 O 0.8628(11) 0.5518(3) 0.1483(5)
loop_
_geom_bond_atom_site_label_1
_geom_bond_atom_site_label_2
_geom_bond_site_symmetry_1
_geom_bond_site_symmetry_2
Br1 C1 1_555 1_555
C1 C2 1_555 1_555
C2 H1 1_555 1_555
C3 C2 1_555 1_555
H2 C3 1_555 1_555
C4 C3 1_555 1_555
C5 C4 1_555 1_555
H3 C5 1_555 1_555
C6 C1 1_555 1_555
H4 C6 1_555 1_555
C7 C8 1_555 1_555
C8 H5 1_555 1_555
C9 C7 1_555 1_555
C10 H6 1_555 1_555
H7 C10 1_555 1_555
C11 C10 1_555 1_555
H8 C11 1_555 1_555
H9 C11 1_555 1_555
H10 C11 1_555 1_555
C12 C7 1_555 1_555
H11 C12 1_555 1_555
N1 C4 1_555 1_555
N2 C8 1_555 1_555
O1 C9 1_555 1_555
O2 C9 1_555 1_555
C5 C6 1_555 1_555
C10 O2 1_555 1_555
C12 N1 1_555 1_555
N1 N2 1_555 1_555

#END
