
#######################################################################
#
#                 Cambridge Crystallographic Data Centre
#                                CCDC 
#
#######################################################################
#
# If this CIF has been generated from an entry in the Cambridge 
# Structural Database, then it will include bibliographic, chemical, 
# crystal, experimental, refinement or atomic coordinate data resulting 
# from the CCDC's data processing and validation procedures.
#
#######################################################################

data_RUCWOD
_chemical_formula_moiety         'C39 H29 Br3 O2'
_chemical_name_systematic        
'(5-(3-Bromophenyl)-4-(4-bromophenyl)-2-phenylcyclopent-2-en-1-ylidene)(phenyl)methyl 3-(4-bromophenyl)propanoate'
_symmetry_cell_setting           triclinic
_symmetry_space_group_name_H-M   'P 1'
_symmetry_Int_Tables_number      1
_space_group_name_Hall           'P 1'
loop_
_symmetry_equiv_pos_site_id
_symmetry_equiv_pos_as_xyz
1 x,y,z
_cell_length_a                   8.3532(4)
_cell_length_b                   11.7004(6)
_cell_length_c                   17.7380(10)
_cell_angle_alpha                97.848(3)
_cell_angle_beta                 98.323(3)
_cell_angle_gamma                101.399(3)
_cell_volume                     1656.99
_exptl_crystal_colour            colorless
_exptl_crystal_description       block
_cell_formula_units_Z            2
_exptl_crystal_recrystallization_method ethanol/hexane
loop_
_atom_site_label
_atom_site_type_symbol
_atom_site_fract_x
_atom_site_fract_y
_atom_site_fract_z
Br1 Br 1.32012(9) 0.82370(7) 0.67500(5)
Br2 Br 0.80345(9) -0.17969(6) 0.69841(5)
Br3 Br -0.15326(9) 0.46284(8) 0.23368(5)
C1 C 1.0140(8) 0.3626(6) 0.7194(4)
H1 H 1.1162 0.3831 0.6964
C2 C 1.0503(8) 0.4140(5) 0.8041(4)
H2 H 1.1419 0.4036 0.8389
C3 C 0.9412(7) 0.4757(5) 0.8255(4)
C4 C 0.8192(7) 0.4798(5) 0.7570(4)
C5 C 0.8803(8) 0.4271(6) 0.6854(4)
H3 H 0.7864 0.3671 0.6515
C6 C 0.9456(8) 0.5197(6) 0.6393(4)
C7 C 0.8698(9) 0.5144(7) 0.5629(4)
H4 H 0.7787 0.4509 0.5397
C8 C 0.9258(10) 0.6005(7) 0.5205(5)
H5 H 0.8726 0.5962 0.4687
C9 C 1.0616(10) 0.6942(7) 0.5542(4)
H6 H 1.1007 0.7543 0.526
C10 C 1.1364(8) 0.6967(6) 0.6290(4)
C11 C 1.0804(8) 0.6126(6) 0.6725(4)
H7 H 1.1333 0.6181 0.7244
C12 C 0.9571(8) 0.2297(6) 0.7097(4)
C13 C 1.0631(8) 0.1573(6) 0.6901(4)
H8 H 1.1677 0.1916 0.6785
C14 C 1.0189(8) 0.0361(6) 0.6872(4)
H9 H 1.0936 -0.0124 0.6751
C15 C 0.8638(8) -0.0137(6) 0.7023(4)
C16 C 0.7535(8) 0.0559(6) 0.7195(4)
H10 H 0.6468 0.0212 0.7286
C17 C 0.8008(8) 0.1757(6) 0.7230(4)
H11 H 0.7254 0.2236 0.7349
C18 C 0.9454(7) 0.5325(6) 0.9054(4)
C19 C 0.9547(8) 0.4662(6) 0.9653(4)
H12 H 0.9586 0.3852 0.954
C20 C 0.9582(9) 0.5170(7) 1.0399(4)
H13 H 0.9642 0.4709 1.08
C21 C 0.9531(9) 0.6346(8) 1.0572(4)
H14 H 0.9564 0.6694 1.1092
C22 C 0.9432(8) 0.7010(7) 1.0001(4)
H15 H 0.9385 0.7817 1.0122
C23 C 0.9398(7) 0.6511(6) 0.9241(4)
H16 H 0.9337 0.6981 0.8846
C24 C 0.6754(8) 0.5141(5) 0.7533(4)
C25 C 0.5848(7) 0.5501(5) 0.8148(4)
C26 C 0.5562(7) 0.4802(6) 0.8711(4)
H17 H 0.5961 0.4095 0.8702
C27 C 0.4702(8) 0.5131(6) 0.9282(4)
H18 H 0.4546 0.4668 0.9676
C28 C 0.4066(8) 0.6136(7) 0.9279(4)
H19 H 0.3463 0.6357 0.9669
C29 C 0.4305(8) 0.6816(7) 0.8716(4)
H20 H 0.3875 0.7509 0.8719
C30 C 0.5169(8) 0.6494(6) 0.8146(4)
H21 H 0.5301 0.6955 0.7748
C31 C 0.4631(8) 0.4305(6) 0.6467(4)
C32 C 0.3806(8) 0.4571(6) 0.5730(4)
H22 H 0.4643 0.475 0.5396
H23 H 0.3356 0.5285 0.5845
C33 C 0.2410(8) 0.3561(6) 0.5294(4)
H24 H 0.1596 0.3365 0.5636
H25 H 0.287 0.2856 0.5166
C34 C 0.1514(8) 0.3827(6) 0.4553(4)
C35 C 0.2060(8) 0.4818(7) 0.4245(4)
H26 H 0.3075 0.5345 0.4491
C36 C 0.1179(8) 0.5079(7) 0.3583(4)
H27 H 0.1557 0.5784 0.3391
C37 C -0.0263(8) 0.4277(7) 0.3217(4)
C38 C -0.0814(9) 0.3271(7) 0.3494(4)
H28 H -0.1795 0.2722 0.323
C39 C 0.0064(8) 0.3049(6) 0.4165(4)
H29 H -0.0336 0.2352 0.4362
O1 O 0.4239(6) 0.3447(4) 0.6752(3)
O2 O 0.5954(5) 0.5213(4) 0.6784(2)
Br4 Br 0.58721(10) 1.16563(7) 0.51630(5)
Br5 Br 0.40463(8) 0.35995(6) 0.11227(4)
Br6 Br 0.48695(11) 0.78706(8) 0.48508(6)
C40 C 0.4020(8) 0.8886(6) 0.1954(4)
H30 H 0.3244 0.902 0.232
C41 C 0.3435(8) 0.9222(6) 0.1184(4)
H31 H 0.2315 0.9003 0.0923
C42 C 0.4668(8) 0.9860(6) 0.0909(4)
C43 C 0.6219(8) 1.0084(5) 0.1476(4)
C44 C 0.5733(8) 0.9773(5) 0.2231(4)
H32 H 0.6556 0.9373 0.2491
C45 C 0.5537(7) 1.0831(5) 0.2785(4)
C46 C 0.5029(7) 1.1789(5) 0.2534(4)
H33 H 0.4855 1.1825 0.1997
C47 C 0.4769(8) 1.2700(6) 0.3055(4)
H34 H 0.4434 1.3357 0.2871
C48 C 0.4991(8) 1.2665(6) 0.3836(4)
H35 H 0.4796 1.3284 0.4192
C49 C 0.5500(8) 1.1719(6) 0.4085(4)
C50 C 0.5795(8) 1.0797(6) 0.3577(4)
H36 H 0.6165 1.0156 0.3766
C51 C 0.4153(8) 0.7599(5) 0.1835(4)
C52 C 0.2981(8) 0.6739(6) 0.2031(4)
H37 H 0.2157 0.6972 0.2297
C53 C 0.2964(8) 0.5548(6) 0.1856(4)
H38 H 0.2145 0.4971 0.1998
C54 C 0.4151(8) 0.5220(5) 0.1472(4)
C55 C 0.5404(8) 0.6055(6) 0.1292(4)
H39 H 0.6254 0.5816 0.105
C56 C 0.5393(8) 0.7238(6) 0.1472(4)
H40 H 0.624 0.7815 0.1348
C57 C 0.4460(8) 1.0328(6) 0.0177(4)
C58 C 0.3332(9) 0.9660(7) -0.0470(4)
H41 H 0.2685 0.8911 -0.0434
C59 C 0.3154(11) 1.0085(8) -0.1161(5)
H42 H 0.2391 0.9623 -0.1596
C60 C 0.4083(11) 1.1185(8) -0.1223(5)
H43 H 0.3958 1.1478 -0.1697
C61 C 0.5186(11) 1.1841(8) -0.0586(5)
H44 H 0.5832 1.259 -0.0623
C62 C 0.5366(9) 1.1423(6) 0.0108(4)
H45 H 0.6122 1.1894 0.0542
C63 C 0.7811(7) 1.0377(5) 0.1378(4)
C64 C 0.8470(8) 1.0474(6) 0.0663(4)
C65 C 0.7739(8) 0.9642(6) -0.0005(4)
H46 H 0.6884 0.8989 0.0024
C66 C 0.8246(8) 0.9760(7) -0.0704(4)
H47 H 0.7722 0.9204 -0.1156
C67 C 0.9505(8) 1.0683(7) -0.0737(4)
H48 H 0.9843 1.0774 -0.1218
C68 C 1.0302(9) 1.1492(7) -0.0077(4)
H49 H 1.1202 1.2116 -0.0102
C69 C 0.9766(8) 1.1379(6) 0.0618(4)
H50 H 1.0302 1.1932 0.107
C70 C 0.9824(8) 0.9839(6) 0.2265(4)
C71 C 1.1032(8) 1.0282(6) 0.3009(4)
H51 H 1.0659 1.092 0.3316
H52 H 1.2129 1.0626 0.2891
C72 C 1.1217(8) 0.9323(7) 0.3492(4)
H53 H 1.1446 0.864 0.3164
H54 H 1.2184 0.9631 0.3915
C73 C 0.9708(8) 0.8903(6) 0.3838(4)
C74 C 0.8416(9) 0.7983(6) 0.3446(4)
H55 H 0.852 0.7572 0.2962
C75 C 0.6985(9) 0.7647(6) 0.3740(5)
H56 H 0.6114 0.7014 0.3464
C76 C 0.6851(9) 0.8254(7) 0.4443(5)
C77 C 0.8113(9) 0.9162(6) 0.4854(4)
H57 H 0.8007 0.9561 0.5342
C78 C 0.9537(8) 0.9486(6) 0.4549(4)
H58 H 1.0409 1.0115 0.483
O3 O 0.9022(5) 1.0685(4) 0.2070(3)
O4 O 0.9570(5) 0.8866(4) 0.1883(3)
loop_
_geom_bond_atom_site_label_1
_geom_bond_atom_site_label_2
_geom_bond_site_symmetry_1
_geom_bond_site_symmetry_2
Br1 C10 1_555 1_555
Br2 C15 1_555 1_555
Br3 C37 1_555 1_555
C1 H1 1_555 1_555
C2 C1 1_555 1_555
H2 C2 1_555 1_555
C3 C2 1_555 1_555
C4 C3 1_555 1_555
C5 C1 1_555 1_555
H3 C5 1_555 1_555
C6 C5 1_555 1_555
C7 C6 1_555 1_555
H4 C7 1_555 1_555
C8 C7 1_555 1_555
H5 C8 1_555 1_555
C9 C8 1_555 1_555
H6 C9 1_555 1_555
C10 C9 1_555 1_555
C11 C6 1_555 1_555
H7 C11 1_555 1_555
C12 C1 1_555 1_555
C13 C12 1_555 1_555
H8 C13 1_555 1_555
C14 C13 1_555 1_555
H9 C14 1_555 1_555
C15 C14 1_555 1_555
C16 C15 1_555 1_555
H10 C16 1_555 1_555
C17 C12 1_555 1_555
H11 C17 1_555 1_555
C18 C3 1_555 1_555
C19 C18 1_555 1_555
H12 C19 1_555 1_555
C20 C19 1_555 1_555
H13 C20 1_555 1_555
C21 C20 1_555 1_555
H14 C21 1_555 1_555
C22 C21 1_555 1_555
H15 C22 1_555 1_555
C23 C18 1_555 1_555
H16 C23 1_555 1_555
C24 C4 1_555 1_555
C25 C24 1_555 1_555
C26 C25 1_555 1_555
H17 C26 1_555 1_555
C27 C26 1_555 1_555
H18 C27 1_555 1_555
C28 C27 1_555 1_555
H19 C28 1_555 1_555
C29 C28 1_555 1_555
H20 C29 1_555 1_555
C30 C25 1_555 1_555
H21 C30 1_555 1_555
C31 C32 1_555 1_555
C32 H22 1_555 1_555
H23 C32 1_555 1_555
C33 C32 1_555 1_555
H24 C33 1_555 1_555
H25 C33 1_555 1_555
C34 C33 1_555 1_555
C35 C34 1_555 1_555
H26 C35 1_555 1_555
C36 C35 1_555 1_555
H27 C36 1_555 1_555
C37 C36 1_555 1_555
C38 C37 1_555 1_555
H28 C38 1_555 1_555
C39 C34 1_555 1_555
H29 C39 1_555 1_555
O1 C31 1_555 1_555
O2 C24 1_555 1_555
Br4 C49 1_555 1_555
Br5 C54 1_555 1_555
Br6 C76 1_555 1_555
C40 H30 1_555 1_555
C41 C40 1_555 1_555
H31 C41 1_555 1_555
C42 C41 1_555 1_555
C43 C42 1_555 1_555
C44 C40 1_555 1_555
H32 C44 1_555 1_555
C45 C44 1_555 1_555
C46 C45 1_555 1_555
H33 C46 1_555 1_555
C47 C46 1_555 1_555
H34 C47 1_555 1_555
C48 C47 1_555 1_555
H35 C48 1_555 1_555
C49 C48 1_555 1_555
C50 C45 1_555 1_555
H36 C50 1_555 1_555
C51 C40 1_555 1_555
C52 C51 1_555 1_555
H37 C52 1_555 1_555
C53 C52 1_555 1_555
H38 C53 1_555 1_555
C54 C53 1_555 1_555
C55 C54 1_555 1_555
H39 C55 1_555 1_555
C56 C51 1_555 1_555
H40 C56 1_555 1_555
C57 C42 1_555 1_555
C58 C57 1_555 1_555
H41 C58 1_555 1_555
C59 C58 1_555 1_555
H42 C59 1_555 1_555
C60 C59 1_555 1_555
H43 C60 1_555 1_555
C61 C60 1_555 1_555
H44 C61 1_555 1_555
C62 C57 1_555 1_555
H45 C62 1_555 1_555
C63 C43 1_555 1_555
C64 C63 1_555 1_555
C65 C64 1_555 1_555
H46 C65 1_555 1_555
C66 C65 1_555 1_555
H47 C66 1_555 1_555
C67 C66 1_555 1_555
H48 C67 1_555 1_555
C68 C67 1_555 1_555
H49 C68 1_555 1_555
C69 C64 1_555 1_555
H50 C69 1_555 1_555
C70 C71 1_555 1_555
C71 H51 1_555 1_555
H52 C71 1_555 1_555
C72 C71 1_555 1_555
H53 C72 1_555 1_555
H54 C72 1_555 1_555
C73 C72 1_555 1_555
C74 C73 1_555 1_555
H55 C74 1_555 1_555
C75 C74 1_555 1_555
H56 C75 1_555 1_555
C76 C75 1_555 1_555
C77 C76 1_555 1_555
H57 C77 1_555 1_555
C78 C73 1_555 1_555
H58 C78 1_555 1_555
O3 C63 1_555 1_555
O4 C70 1_555 1_555
C4 C5 1_555 1_555
C10 C11 1_555 1_555
C16 C17 1_555 1_555
C22 C23 1_555 1_555
C29 C30 1_555 1_555
C31 O2 1_555 1_555
C38 C39 1_555 1_555
C43 C44 1_555 1_555
C49 C50 1_555 1_555
C55 C56 1_555 1_555
C61 C62 1_555 1_555
C68 C69 1_555 1_555
C70 O3 1_555 1_555
C77 C78 1_555 1_555

#END
