
#######################################################################
#
#                 Cambridge Crystallographic Data Centre
#                                CCDC 
#
#######################################################################
#
# If this CIF has been generated from an entry in the Cambridge 
# Structural Database, then it will include bibliographic, chemical, 
# crystal, experimental, refinement or atomic coordinate data resulting 
# from the CCDC's data processing and validation procedures.
#
#######################################################################

data_RUCZAS
_chemical_formula_moiety         'C28 H19 N1 O4'
_chemical_name_systematic        
'Dimethyl 3-phenyl-4-(phenylethynyl)pyrrolo[2,1,5-cd]indolizine-1,2-dicarboxylate'
_symmetry_cell_setting           orthorhombic
_symmetry_space_group_name_H-M   'P b c m'
_symmetry_Int_Tables_number      57
_space_group_name_Hall           '-P 2c 2b'
loop_
_symmetry_equiv_pos_site_id
_symmetry_equiv_pos_as_xyz
1 x,y,z
2 -x,-y,1/2+z
3 x,1/2-y,-z
4 -x,1/2+y,1/2-z
5 -x,-y,-z
6 x,y,1/2-z
7 -x,1/2+y,z
8 x,1/2-y,1/2+z
_cell_length_a                   16.649(7)
_cell_length_b                   19.500(8)
_cell_length_c                   6.912(3)
_cell_angle_alpha                90
_cell_angle_beta                 90
_cell_angle_gamma                90
_cell_volume                     2244.02
_exptl_crystal_colour            yellow
_cell_formula_units_Z            4
_exptl_crystal_recrystallization_method 'Petroleum ether/ Chloroform'
_exptl_crystal_preparation       Luminescent
loop_
_atom_site_label
_atom_site_type_symbol
_atom_site_fract_x
_atom_site_fract_y
_atom_site_fract_z
C1 C 0.1642(6) 0.2101(6) 0.2500
C2 C 0.1970(6) 0.1441(5) 0.2500
C3 C 0.3612(6) 0.1180(6) 0.2500
C4 C 0.4176(6) 0.1714(6) 0.2500
C5 C 0.3884(7) 0.3071(6) 0.2500
H1 H 0.4404 0.3244 0.2500
C6 C 0.3249(7) 0.3504(7) 0.2500
H2 H 0.3354 0.3972 0.2500
C7 C 0.2438(7) 0.3290(6) 0.2500
H3 H 0.2023 0.3609 0.2500
C8 C 0.2275(6) 0.2590(6) 0.2500
C9 C 0.2816(6) 0.1484(6) 0.2500
C10 C 0.3759(6) 0.2376(6) 0.2500
C11 C 0.0801(7) 0.2282(7) 0.2500
C12 C -0.0165(8) 0.3188(8) 0.2500
H4 H -0.0175 0.3681 0.2500
H5 H -0.0433 0.3020 0.3634
C13 C 0.1499(7) 0.0819(7) 0.2500
C14 C 0.0746(11) 0.0004(8) 0.073(3)
H6 H 0.0539 -0.0061 -0.0548
H7 H 0.1116 -0.0358 0.1035
H8 H 0.0311 -0.0002 0.1646
C15 C 0.3768(6) 0.0454(6) 0.2500
C16 C 0.3240(9) 0.0002(8) 0.149(2)
H9 H 0.2786 0.0190 0.0811
C17 C 0.3367(9) -0.0693(8) 0.151(2)
H10 H 0.3005 -0.0997 0.0853
C18 C 0.4049(8) -0.0957(6) 0.2500
H11 H 0.4120 -0.1443 0.2500
C19 C 0.4601(8) -0.0518(7) 0.337(2)
H12 H 0.5100 -0.0695 0.3851
C20 C 0.4449(8) 0.0169(8) 0.338(2)
H13 H 0.4808 0.0467 0.4071
C21 C 0.5010(7) 0.1671(6) 0.2500
C22 C 0.5756(7) 0.1654(6) 0.2500
C23 C 0.6611(6) 0.1603(6) 0.2500
C24 C 0.6994(8) 0.1021(8) 0.168(2)
H14 H 0.6679 0.0675 0.1045
C25 C 0.7074(9) 0.2142(8) 0.324(3)
H15 H 0.6813 0.2560 0.3619
N1 N 0.2960(5) 0.2193(5) 0.2500
O1 O 0.0244(5) 0.1847(5) 0.2500
O2 O 0.0664(5) 0.2953(5) 0.2500
O3 O 0.1386(12) 0.0484(9) 0.406(3)
O4 O 0.1179(13) 0.0641(9) 0.084(3)
H5E H -0.0433 0.3020 0.1366
C14E C 0.0746(11) 0.0004(8) 0.427(3)
H6E H 0.0539 -0.0061 0.5548
H7E H 0.1116 -0.0358 0.3965
H8E H 0.0311 -0.0002 0.3354
C16E C 0.3240(9) 0.0002(8) 0.351(2)
H9E H 0.2786 0.0190 0.4189
C17E C 0.3367(9) -0.0693(8) 0.349(2)
H10E H 0.3005 -0.0997 0.4147
C19E C 0.4601(8) -0.0518(7) 0.163(2)
H12E H 0.5100 -0.0695 0.1149
C20E C 0.4449(8) 0.0169(8) 0.162(2)
H13E H 0.4808 0.0467 0.0929
C24E C 0.6994(8) 0.1021(8) 0.332(2)
H14E H 0.6679 0.0675 0.3955
C25E C 0.7074(9) 0.2142(8) 0.176(3)
H15E H 0.6813 0.2560 0.1381
O3E O 0.1386(12) 0.0484(9) 0.094(3)
O4E O 0.1179(13) 0.0641(9) 0.416(3)
C26 C 0.7811(9) 0.0966(11) 0.179(3)
H16 H 0.8071 0.0546 0.1423
C27 C 0.8275(9) 0.1516(11) 0.2500
H17 H 0.8850 0.1496 0.2500
C28 C 0.7887(10) 0.2086(10) 0.328(3)
H18 H 0.8202 0.2441 0.3873
C26E C 0.7811(9) 0.0966(11) 0.321(3)
H16E H 0.8071 0.0546 0.3577
C28E C 0.7887(10) 0.2086(10) 0.172(3)
H18E H 0.8202 0.2441 0.1127
H19? H -0.0433 0.3020 0.3634
loop_
_geom_bond_atom_site_label_1
_geom_bond_atom_site_label_2
_geom_bond_site_symmetry_1
_geom_bond_site_symmetry_2
C1 C2 1_555 1_555
C2 C9 1_555 1_555
C3 C4 1_555 1_555
C4 C10 1_555 1_555
C5 H1 1_555 1_555
C6 C5 1_555 1_555
H2 C6 1_555 1_555
C7 C6 1_555 1_555
H3 C7 1_555 1_555
C8 C1 1_555 1_555
C9 C3 1_555 1_555
C10 C5 1_555 1_555
C11 C1 1_555 1_555
C12 H4 1_555 1_555
H5 C12 1_555 1_555
C13 C2 1_555 1_555
C14 H6 1_555 1_555
H7 C14 1_555 1_555
H8 C14 1_555 1_555
C15 C3 1_555 1_555
C16 C15 1_555 1_555
H9 C16 1_555 1_555
C17 C16 1_555 1_555
H10 C17 1_555 1_555
C18 C17 1_555 1_555
H11 C18 1_555 1_555
C19 C18 1_555 1_555
H12 C19 1_555 1_555
C20 C15 1_555 1_555
H13 C20 1_555 1_555
C21 C4 1_555 1_555
C22 C21 1_555 1_555
C23 C22 1_555 1_555
C24 C23 1_555 1_555
H14 C24 1_555 1_555
C25 C23 1_555 1_555
H15 C25 1_555 1_555
N1 C8 1_555 1_555
O1 C11 1_555 1_555
O2 C11 1_555 1_555
O3 C13 1_555 1_555
O4 C13 1_555 1_555
C26 H16 1_555 1_555
C27 C26 1_555 1_555
H17 C27 1_555 1_555
C28 C27 1_555 1_555
H18 C28 1_555 1_555
H5E C12 1_555 1_555
C14E O3 1_555 1_555
H6E C14E 1_555 1_555
H7E C14E 1_555 1_555
H8E C14E 1_555 1_555
C16E C15 1_555 1_555
H9E C16E 1_555 1_555
C17E C17 1_555 1_555
H10E C17E 1_555 1_555
C19E C18 1_555 1_555
H12E C19E 1_555 1_555
C20E C15 1_555 1_555
H13E C20E 1_555 1_555
C24E C23 1_555 1_555
H14E C24E 1_555 1_555
C25E C23 1_555 1_555
H15E C25E 1_555 1_555
O3E C13 1_555 1_555
O4E C13 1_555 1_555
C26E C26 1_555 1_555
H16E C26E 1_555 1_555
C28E C27 1_555 1_555
H18E C28E 1_555 1_555
C7 C8 1_555 1_555
C9 N1 1_555 1_555
C10 N1 1_555 1_555
C12 O2 1_555 1_555
C14 O4 1_555 1_555
C14 O3E 1_555 1_555
C16 C16E 1_555 1_555
C18 C17E 1_555 1_555
C19 C20 1_555 1_555
C19 C19E 1_555 1_555
C20 C20E 1_555 1_555
C24 C24E 1_555 1_555
C25 C25E 1_555 1_555
C27 C26E 1_555 1_555
C28 C28E 1_555 1_555
C14E O4E 1_555 1_555
C16E C17E 1_555 1_555
C19E C20E 1_555 1_555

#END
