
#######################################################################
#
#                 Cambridge Crystallographic Data Centre
#                                CCDC 
#
#######################################################################
#
# If this CIF has been generated from an entry in the Cambridge 
# Structural Database, then it will include bibliographic, chemical, 
# crystal, experimental, refinement or atomic coordinate data resulting 
# from the CCDC's data processing and validation procedures.
#
#######################################################################

data_RUCZOG
_chemical_formula_moiety         'C34 H29 N5 O4 S1'
_chemical_name_systematic        
4-Methyl-N-(1,1',1''-trimethyl-5'-nitro-1H,1''H-3,3':3',3''-terindol-2'(1'H)-ylidene)benzenesulfonamide
_symmetry_cell_setting           triclinic
_symmetry_space_group_name_H-M   'P -1'
_symmetry_Int_Tables_number      2
_space_group_name_Hall           '-P 1'
loop_
_symmetry_equiv_pos_site_id
_symmetry_equiv_pos_as_xyz
1 x,y,z
2 -x,-y,-z
_cell_length_a                   9.7972(7)
_cell_length_b                   10.5090(8)
_cell_length_c                   15.4371(11)
_cell_angle_alpha                72.931(7)
_cell_angle_beta                 74.564(6)
_cell_angle_gamma                84.268(6)
_cell_volume                     1464.16
_exptl_crystal_colour            yellow
_exptl_crystal_description       block
_cell_formula_units_Z            2
loop_
_atom_site_label
_atom_site_type_symbol
_atom_site_fract_x
_atom_site_fract_y
_atom_site_fract_z
S1 S 0.19186(5) 0.91635(6) 0.15038(3)
O1 O 0.20028(15) 1.03019(17) 0.07048(9)
O2 O 0.15497(15) 0.79198(17) 0.14320(10)
O3 O 1.00526(16) 0.51689(17) 0.26354(10)
O4 O 1.07799(16) 0.47313(18) 0.13089(11)
N1 N 0.33159(16) 0.90127(17) 0.18896(11)
N2 N 0.51295(15) 0.79504(16) 0.09155(10)
N3 N 0.47316(17) 0.72504(18) 0.48334(11)
N4 N 0.76662(16) 1.13952(17) 0.13048(11)
N5 N 0.99390(17) 0.52633(18) 0.18504(12)
C1 C 0.7283(2) 0.6580(2) 0.04535(13)
H1 H 0.7083 0.6534 -0.0106
C2 C 0.8463(2) 0.5947(2) 0.07354(13)
H2 H 0.9098 0.5459 0.0361
C3 C 0.87305(19) 0.6015(2) 0.15516(13)
C4 C 0.78620(19) 0.67526(19) 0.21139(12)
H3 H 0.8068 0.6811 0.2668
C5 C 0.67026(18) 0.73873(19) 0.18319(12)
C6 C 0.64071(19) 0.72823(19) 0.10248(12)
C7 C 0.45272(19) 0.84532(19) 0.16540(12)
C8 C 0.55960(18) 0.82957(19) 0.22508(12)
C9 C 0.4602(2) 0.8079(2) 0.00949(13)
H4 H 0.5398 0.8209 -0.0461
H5 H 0.3943 0.8846 0.0016
H6 H 0.4108 0.7269 0.0178
C10 C 0.06964(19) 0.9541(2) 0.24691(14)
C11 C 0.0040(2) 0.8507(2) 0.32045(15)
H7 H 0.0193 0.7613 0.3173
C12 C -0.0850(2) 0.8800(3) 0.39904(15)
H8 H -0.1303 0.8095 0.4499
C13 C -0.1090(2) 1.0091(3) 0.40497(15)
C14 C -0.0428(2) 1.1116(3) 0.32947(16)
H9 H -0.0596 1.2013 0.3318
C15 C 0.0475(2) 1.0841(2) 0.25092(15)
H10 H 0.0938 1.1543 0.2002
C16 C -0.2032(3) 1.0387(3) 0.49217(17)
H11 H -0.3027 1.0338 0.4925
H12 H -0.1846 1.1282 0.4929
H13 H -0.1833 0.9732 0.5476
C17 C 0.49691(19) 0.77294(19) 0.32843(12)
C18 C 0.5425(2) 0.8002(2) 0.39710(13)
H14 H 0.6128 0.8629 0.3864
C19 C 0.3792(2) 0.6471(2) 0.47190(13)
C20 C 0.39045(19) 0.6738(2) 0.37463(13)
C21 C 0.3020(2) 0.6062(2) 0.34652(14)
H15 H 0.3078 0.6209 0.2819
C22 C 0.2065(2) 0.5182(2) 0.41304(16)
H16 H 0.1459 0.4725 0.3939
C23 C 0.1969(2) 0.4948(2) 0.50802(16)
H17 H 0.1296 0.4336 0.5524
C24 C 0.2823(2) 0.5578(2) 0.53892(15)
H18 H 0.2756 0.5412 0.6038
C25 C 0.4964(3) 0.7249(3) 0.57245(14)
H19 H 0.5685 0.7898 0.5619
H20 H 0.5287 0.6360 0.6033
H21 H 0.4076 0.7489 0.6123
C26 C 0.62027(19) 0.96724(19) 0.20085(12)
C27 C 0.75250(19) 1.0060(2) 0.14777(12)
H22 H 0.8251 0.9478 0.1258
C28 C 0.6390(2) 1.1919(2) 0.17157(13)
C29 C 0.54431(19) 1.0862(2) 0.21763(12)
C30 C 0.4053(2) 1.1169(2) 0.26153(13)
H23 H 0.3394 1.0481 0.2950
C31 C 0.3657(2) 1.2477(2) 0.25550(15)
H24 H 0.2712 1.2688 0.2844
C32 C 0.4614(2) 1.3506(2) 0.20769(15)
H25 H 0.4303 1.4403 0.2038
C33 C 0.5998(2) 1.3241(2) 0.16634(14)
H26 H 0.6658 1.3934 0.1354
C34 C 0.8868(2) 1.2182(2) 0.06912(15)
H27 H 0.9650 1.1588 0.0496
H28 H 0.9170 1.2721 0.1025
H29 H 0.8594 1.2769 0.0139
loop_
_geom_bond_atom_site_label_1
_geom_bond_atom_site_label_2
_geom_bond_site_symmetry_1
_geom_bond_site_symmetry_2
S1 O1 1_555 1_555
O2 S1 1_555 1_555
O3 N5 1_555 1_555
O4 N5 1_555 1_555
N1 S1 1_555 1_555
N2 C6 1_555 1_555
N3 C18 1_555 1_555
N4 C27 1_555 1_555
N5 C3 1_555 1_555
C1 H1 1_555 1_555
C2 C1 1_555 1_555
H2 C2 1_555 1_555
C3 C2 1_555 1_555
C4 C3 1_555 1_555
H3 C4 1_555 1_555
C5 C4 1_555 1_555
C6 C1 1_555 1_555
C7 N1 1_555 1_555
C8 C5 1_555 1_555
C9 N2 1_555 1_555
H4 C9 1_555 1_555
H5 C9 1_555 1_555
H6 C9 1_555 1_555
C10 S1 1_555 1_555
C11 C10 1_555 1_555
H7 C11 1_555 1_555
C12 C11 1_555 1_555
H8 C12 1_555 1_555
C13 C12 1_555 1_555
C14 C13 1_555 1_555
H9 C14 1_555 1_555
C15 C10 1_555 1_555
H10 C15 1_555 1_555
C16 C13 1_555 1_555
H11 C16 1_555 1_555
H12 C16 1_555 1_555
H13 C16 1_555 1_555
C17 C8 1_555 1_555
C18 C17 1_555 1_555
H14 C18 1_555 1_555
C19 N3 1_555 1_555
C20 C17 1_555 1_555
C21 C20 1_555 1_555
H15 C21 1_555 1_555
C22 C21 1_555 1_555
H16 C22 1_555 1_555
C23 C22 1_555 1_555
H17 C23 1_555 1_555
C24 C19 1_555 1_555
H18 C24 1_555 1_555
C25 N3 1_555 1_555
H19 C25 1_555 1_555
H20 C25 1_555 1_555
H21 C25 1_555 1_555
C26 C8 1_555 1_555
C27 C26 1_555 1_555
H22 C27 1_555 1_555
C28 N4 1_555 1_555
C29 C26 1_555 1_555
C30 C29 1_555 1_555
H23 C30 1_555 1_555
C31 C30 1_555 1_555
H24 C31 1_555 1_555
C32 C31 1_555 1_555
H25 C32 1_555 1_555
C33 C28 1_555 1_555
H26 C33 1_555 1_555
C34 N4 1_555 1_555
H27 C34 1_555 1_555
H28 C34 1_555 1_555
H29 C34 1_555 1_555
N2 C7 1_555 1_555
C5 C6 1_555 1_555
C7 C8 1_555 1_555
C14 C15 1_555 1_555
C19 C20 1_555 1_555
C23 C24 1_555 1_555
C28 C29 1_555 1_555
C32 C33 1_555 1_555

#END
