
#######################################################################
#
#                 Cambridge Crystallographic Data Centre
#                                CCDC 
#
#######################################################################
#
# If this CIF has been generated from an entry in the Cambridge 
# Structural Database, then it will include bibliographic, chemical, 
# crystal, experimental, refinement or atomic coordinate data resulting 
# from the CCDC's data processing and validation procedures.
#
#######################################################################

data_RUDFIH
_chemical_formula_moiety         'C24 H40 O5 Si1'
_chemical_name_systematic        
'Methyl (11b-((t-butyl(dimethyl)silyl)oxy)dodecahydrocyclopenta[2,3]indeno[2,1-b]pyran-11a(5H)-yl)(oxo)acetate'
_symmetry_cell_setting           monoclinic
_symmetry_space_group_name_H-M   'P 21/n'
_symmetry_Int_Tables_number      14
_space_group_name_Hall           '-P 2yn'
loop_
_symmetry_equiv_pos_site_id
_symmetry_equiv_pos_as_xyz
1 x,y,z
2 1/2-x,1/2+y,1/2-z
3 -x,-y,-z
4 1/2+x,1/2-y,1/2+z
_cell_length_a                   8.9973(7)
_cell_length_b                   16.3097(12)
_cell_length_c                   17.033(2)
_cell_angle_alpha                90
_cell_angle_beta                 102.760(9)
_cell_angle_gamma                90
_cell_volume                     2437.75
_exptl_crystal_colour            colorless
_exptl_crystal_description       block
_cell_formula_units_Z            4
loop_
_atom_site_label
_atom_site_type_symbol
_atom_site_fract_x
_atom_site_fract_y
_atom_site_fract_z
Si1 Si -0.74162(10) -0.58998(5) -0.11541(5)
O1 O -0.5840(2) -0.51693(11) -0.23211(12)
O2 O -0.8380(2) -0.58640(10) -0.20909(10)
O3 O -1.1083(3) -0.61879(15) -0.44360(15)
O4 O -1.0482(3) -0.76342(13) -0.31389(16)
O5 O -1.2072(2) -0.66186(13) -0.30318(15)
C1 C -0.6934(3) -0.49205(18) -0.3744(2)
H1 H -0.7178 -0.4380 -0.3989
C2 C -0.5244(4) -0.5084(2) -0.3737(2)
H2 H -0.4987 -0.5648 -0.3580
H3 H -0.5058 -0.4998 -0.4270
C3 C -0.4285(4) -0.4509(2) -0.3148(3)
H4 H -0.4604 -0.3948 -0.3278
H5 H -0.3224 -0.4560 -0.3178
C4 C -0.4461(4) -0.4717(2) -0.2313(3)
H6 H -0.3593 -0.5040 -0.2042
H7 H -0.4471 -0.4214 -0.2010
C5 C -0.7140(3) -0.48577(15) -0.28687(19)
C6 C -0.7602(4) -0.39962(16) -0.2633(2)
H8 H -0.7428 -0.3940 -0.2053
H9 H -0.7035 -0.3574 -0.2841
C7 C -0.9177(9) -0.3948(4) -0.2994(5)
H10 H -0.9325 -0.3790 -0.3555
H11 H -0.9671 -0.3546 -0.2718
C8 C -0.9865(3) -0.48325(16) -0.2921(2)
H12 H -1.0330 -0.4860 -0.2459
H13 H -1.0630 -0.4964 -0.3402
C9 C -0.8507(3) -0.54313(14) -0.28190(16)
C10 C -0.8622(3) -0.60446(15) -0.35308(16)
C11 C -0.7524(3) -0.67755(15) -0.32987(16)
H14 H -0.6517 -0.6572 -0.3048
H15 H -0.7875 -0.7117 -0.2910
C12 C -0.7428(4) -0.7287(2) -0.4033(2)
H16 H -0.8425 -0.7513 -0.4267
H17 H -0.6732 -0.7741 -0.3868
C13 C -0.6879(5) -0.6778(2) -0.4664(2)
H18 H -0.5827 -0.6619 -0.4457
H19 H -0.6921 -0.7109 -0.5142
C14 C -0.7847(5) -0.6011(2) -0.4890(2)
H20 H -0.8813 -0.6173 -0.5232
H21 H -0.7338 -0.5658 -0.5206
C15 C -0.8170(4) -0.55143(18) -0.41868(17)
H22 H -0.9062 -0.5175 -0.4411
C16 C -1.0244(3) -0.63544(17) -0.37989(18)
C17 C -1.0909(3) -0.69416(19) -0.32679(18)
C18 C -1.2915(4) -0.7171(2) -0.2619(3)
H23 H -1.2233 -0.7406 -0.2161
H24 H -1.3367 -0.7599 -0.2980
H25 H -1.3701 -0.6871 -0.2444
C19 C -0.5637(4) -0.6514(2) -0.1032(2)
H26 H -0.4888 -0.6206 -0.1232
H27 H -0.5850 -0.7016 -0.1330
H28 H -0.5254 -0.6636 -0.0473
C20 C -0.7004(4) -0.48798(19) -0.0661(2)
H29 H -0.7917 -0.4555 -0.0763
H30 H -0.6236 -0.4605 -0.0874
H31 H -0.6647 -0.4953 -0.0091
C21 C -0.8774(4) -0.64627(18) -0.06490(18)
C22 C -0.8962(4) -0.73517(18) -0.0947(2)
H32 H -0.8015 -0.7639 -0.0771
H33 H -0.9247 -0.7358 -0.1524
H34 H -0.9740 -0.7615 -0.0732
C23 C -1.0352(4) -0.6041(2) -0.0840(2)
H35 H -1.0760 -0.6052 -0.1410
H36 H -1.0246 -0.5483 -0.0658
H37 H -1.1028 -0.6326 -0.0570
C24 C -0.8183(6) -0.6473(3) 0.0276(2)
H38 H -0.8123 -0.5922 0.0478
H39 H -0.7190 -0.6720 0.0407
H40 H -0.8870 -0.6785 0.0518
H41? H -0.7538 -0.3599 -0.3048
H42? H -0.6950 -0.3819 -0.2130
C25? C -0.9338(12) -0.4100(6) -0.2542(8)
H43? H -0.9379 -0.4119 -0.1978
H44? H -0.9956 -0.3644 -0.2794
H45? H -1.0292 -0.4736 -0.3488
H46? H -1.0656 -0.5063 -0.2682
loop_
_geom_bond_atom_site_label_1
_geom_bond_atom_site_label_2
_geom_bond_site_symmetry_1
_geom_bond_site_symmetry_2
Si1 O2 1_555 1_555
O1 C4 1_555 1_555
O2 C9 1_555 1_555
O3 C16 1_555 1_555
O4 C17 1_555 1_555
O5 C17 1_555 1_555
C1 H1 1_555 1_555
C2 C1 1_555 1_555
H2 C2 1_555 1_555
H3 C2 1_555 1_555
C3 C2 1_555 1_555
H4 C3 1_555 1_555
H5 C3 1_555 1_555
C4 C3 1_555 1_555
H6 C4 1_555 1_555
H7 C4 1_555 1_555
C5 O1 1_555 1_555
C6 C5 1_555 1_555
H8 C6 1_555 1_555
H9 C6 1_555 1_555
C7 C6 1_555 1_555
H10 C7 1_555 1_555
H11 C7 1_555 1_555
C8 C7 1_555 1_555
H12 C8 1_555 1_555
H13 C8 1_555 1_555
C9 C5 1_555 1_555
C10 C9 1_555 1_555
C11 C10 1_555 1_555
H14 C11 1_555 1_555
H15 C11 1_555 1_555
C12 C11 1_555 1_555
H16 C12 1_555 1_555
H17 C12 1_555 1_555
C13 C12 1_555 1_555
H18 C13 1_555 1_555
H19 C13 1_555 1_555
C14 C13 1_555 1_555
H20 C14 1_555 1_555
H21 C14 1_555 1_555
C15 C1 1_555 1_555
H22 C15 1_555 1_555
C16 C10 1_555 1_555
C17 C16 1_555 1_555
C18 O5 1_555 1_555
H23 C18 1_555 1_555
H24 C18 1_555 1_555
H25 C18 1_555 1_555
C19 Si1 1_555 1_555
H26 C19 1_555 1_555
H27 C19 1_555 1_555
H28 C19 1_555 1_555
C20 Si1 1_555 1_555
H29 C20 1_555 1_555
H30 C20 1_555 1_555
H31 C20 1_555 1_555
C21 Si1 1_555 1_555
C22 C21 1_555 1_555
H32 C22 1_555 1_555
H33 C22 1_555 1_555
H34 C22 1_555 1_555
C23 C21 1_555 1_555
H35 C23 1_555 1_555
H36 C23 1_555 1_555
H37 C23 1_555 1_555
C24 C21 1_555 1_555
H38 C24 1_555 1_555
H39 C24 1_555 1_555
H40 C24 1_555 1_555
C1 C5 1_555 1_555
C8 C9 1_555 1_555
C10 C15 1_555 1_555
C14 C15 1_555 1_555

#END
