
#######################################################################
#
#                 Cambridge Crystallographic Data Centre
#                                CCDC 
#
#######################################################################
#
# If this CIF has been generated from an entry in the Cambridge 
# Structural Database, then it will include bibliographic, chemical, 
# crystal, experimental, refinement or atomic coordinate data resulting 
# from the CCDC's data processing and validation procedures.
#
#######################################################################

data_RUDPOX
_chemical_formula_moiety         'C12 H23 N3'
_chemical_name_systematic        
1-(cyclohex-1-en-1-yl)-3,3-diisopropyltriaz-1-ene
_symmetry_cell_setting           monoclinic
_symmetry_space_group_name_H-M   'P 21/n'
_symmetry_Int_Tables_number      14
_space_group_name_Hall           '-P 2yn'
loop_
_symmetry_equiv_pos_site_id
_symmetry_equiv_pos_as_xyz
1 x,y,z
2 1/2-x,1/2+y,1/2-z
3 -x,-y,-z
4 1/2+x,1/2-y,1/2+z
_cell_length_a                   9.7145(15)
_cell_length_b                   11.1802(10)
_cell_length_c                   12.0458(12)
_cell_angle_alpha                90
_cell_angle_beta                 98.539(10)
_cell_angle_gamma                90
_cell_volume                     1293.79
_exptl_crystal_colour            colorless
_exptl_crystal_description       prism
_cell_formula_units_Z            4
loop_
_atom_site_label
_atom_site_type_symbol
_atom_site_fract_x
_atom_site_fract_y
_atom_site_fract_z
N1 N 0.19761(14) 0.26354(12) 0.76178(10)
N2 N 0.09580(13) 0.33876(12) 0.77660(10)
N3 N 0.04541(12) 0.40029(11) 0.69115(10)
C1 C 0.24703(19) 0.24496(17) 0.65412(13)
H1 H 0.194(2) 0.3030(19) 0.6037(18)
C2 C 0.2120(4) 0.1183(2) 0.6127(2)
H2 H 0.257(3) 0.059(3) 0.664(3)
H3 H 0.238(3) 0.113(3) 0.540(3)
H4 H 0.107(5) 0.110(4) 0.603(4)
C3 C 0.4001(3) 0.2730(4) 0.6630(3)
H5 H 0.413(3) 0.352(3) 0.681(3)
H6 H 0.431(3) 0.269(3) 0.591(3)
H7 H 0.454(3) 0.221(2) 0.716(2)
C4 C 0.25788(17) 0.19654(16) 0.86303(13)
H8 H 0.320(2) 0.1346(18) 0.8381(16)
C5 C 0.3442(3) 0.2779(2) 0.94753(18)
H9 H 0.413(3) 0.318(3) 0.909(3)
H10 H 0.389(3) 0.233(2) 1.011(2)
H11 H 0.281(3) 0.338(3) 0.969(2)
C6 C 0.1464(2) 0.1328(3) 0.9167(2)
H12 H 0.081(4) 0.193(3) 0.941(3)
H13 H 0.189(3) 0.082(2) 0.981(2)
H14 H 0.105(3) 0.079(2) 0.860(2)
C7 C -0.06673(14) 0.47431(13) 0.71268(11)
C8 C -0.12779(16) 0.46223(15) 0.82009(13)
H15 H -0.069(2) 0.5037(17) 0.8833(16)
H16 H -0.128(2) 0.3765(18) 0.8418(16)
C9 C -0.27501(16) 0.51518(15) 0.80586(14)
H17 H -0.336(2) 0.4602(19) 0.7522(17)
H18 H -0.310(2) 0.5160(18) 0.8765(17)
C10 C -0.27549(17) 0.64154(15) 0.75816(13)
H19 H -0.212(2) 0.6930(17) 0.8088(16)
H20 H -0.366(2) 0.6804(17) 0.7564(16)
C11 C -0.23258(17) 0.63903(15) 0.64062(13)
H21 H -0.316(2) 0.614(2) 0.5842(18)
H22 H -0.205(2) 0.7218(18) 0.6177(16)
C12 C -0.11604(15) 0.55249(14) 0.63206(12)
H23 H -0.078(2) 0.5548(17) 0.5624(16)
loop_
_geom_bond_atom_site_label_1
_geom_bond_atom_site_label_2
_geom_bond_site_symmetry_1
_geom_bond_site_symmetry_2
N1 N2 1_555 1_555
N2 N3 1_555 1_555
N3 C7 1_555 1_555
C1 N1 1_555 1_555
H1 C1 1_555 1_555
C2 C1 1_555 1_555
H2 C2 1_555 1_555
H3 C2 1_555 1_555
H4 C2 1_555 1_555
C3 C1 1_555 1_555
H5 C3 1_555 1_555
H6 C3 1_555 1_555
H7 C3 1_555 1_555
C4 N1 1_555 1_555
H8 C4 1_555 1_555
C5 C4 1_555 1_555
H9 C5 1_555 1_555
H10 C5 1_555 1_555
H11 C5 1_555 1_555
C6 C4 1_555 1_555
H12 C6 1_555 1_555
H13 C6 1_555 1_555
H14 C6 1_555 1_555
C7 C8 1_555 1_555
C8 H15 1_555 1_555
H16 C8 1_555 1_555
C9 C8 1_555 1_555
H17 C9 1_555 1_555
H18 C9 1_555 1_555
C10 C9 1_555 1_555
H19 C10 1_555 1_555
H20 C10 1_555 1_555
C11 C10 1_555 1_555
H21 C11 1_555 1_555
H22 C11 1_555 1_555
C12 C7 1_555 1_555
H23 C12 1_555 1_555
C11 C12 1_555 1_555

#END
