
#######################################################################
#
#                 Cambridge Crystallographic Data Centre
#                                CCDC 
#
#######################################################################
#
# If this CIF has been generated from an entry in the Cambridge 
# Structural Database, then it will include bibliographic, chemical, 
# crystal, experimental, refinement or atomic coordinate data resulting 
# from the CCDC's data processing and validation procedures.
#
#######################################################################

data_RUDPUD
_chemical_formula_moiety         'C14 H19 N3'
_chemical_name_systematic        3,3-diisopropyl-1-(phenylethynyl)triaz-1-ene
_symmetry_cell_setting           monoclinic
_symmetry_space_group_name_H-M   'P 21/c'
_symmetry_Int_Tables_number      14
_space_group_name_Hall           '-P 2ybc'
loop_
_symmetry_equiv_pos_site_id
_symmetry_equiv_pos_as_xyz
1 x,y,z
2 -x,1/2+y,1/2-z
3 -x,-y,-z
4 x,1/2-y,1/2+z
_cell_length_a                   13.54269(13)
_cell_length_b                   13.02640(12)
_cell_length_c                   15.37239(13)
_cell_angle_alpha                90
_cell_angle_beta                 94.3758(9)
_cell_angle_gamma                90
_cell_volume                     2703.98
_exptl_crystal_colour            colorless
_exptl_crystal_description       prism
_cell_formula_units_Z            8
loop_
_atom_site_label
_atom_site_type_symbol
_atom_site_fract_x
_atom_site_fract_y
_atom_site_fract_z
N1 N 0.19907(6) -0.06908(6) 0.25039(5)
N2 N 0.24343(6) 0.00047(6) 0.20596(5)
N3 N 0.28811(6) -0.03318(6) 0.14015(5)
C1 C 0.15841(8) -0.02799(8) 0.33021(6)
H1 H 0.1351 -0.0877 0.3641
C2 C 0.23870(10) 0.02644(10) 0.38733(7)
H2 H 0.2935 -0.0212 0.4020
H3 H 0.2113 0.0501 0.4410
H4 H 0.2631 0.0855 0.3558
C3 C 0.06939(9) 0.03983(9) 0.30640(8)
H5 H 0.0898 0.0988 0.2725
H6 H 0.0417 0.0641 0.3598
H7 H 0.0191 0.0004 0.2715
C4 C 0.20352(7) -0.18038(8) 0.23210(7)
H8 H 0.2144 -0.1886 0.1689
C5 C 0.29138(12) -0.22704(11) 0.28397(15)
H9 H 0.3518 -0.1904 0.2710
H10 H 0.2973 -0.2995 0.2682
H11 H 0.2821 -0.2215 0.3464
C6 C 0.10766(9) -0.23370(9) 0.24803(8)
H12 H 0.0970 -0.2308 0.3103
H13 H 0.1110 -0.3056 0.2296
H14 H 0.0527 -0.1994 0.2145
C7 C 0.33374(7) 0.04515(8) 0.10078(6)
C8 C 0.37999(7) 0.10722(8) 0.06265(6)
C9 C 0.43960(7) 0.18335(8) 0.02414(6)
C10 C 0.40490(8) 0.28341(8) 0.01026(7)
H15 H 0.3397 0.3008 0.0238
C11 C 0.46494(8) 0.35735(8) -0.02306(8)
H16 H 0.4408 0.4253 -0.0318
C12 C 0.55994(8) 0.33310(9) -0.04373(7)
H17 H 0.6013 0.3843 -0.0657
C13 C 0.59405(8) 0.23371(9) -0.03206(8)
H18 H 0.6587 0.2164 -0.0473
C14 C 0.53492(8) 0.15916(8) 0.00157(7)
H19 H 0.5593 0.0911 0.0094
N4 N 0.28321(6) 0.43951(6) 0.25337(5)
N5 N 0.22070(6) 0.49808(6) 0.20758(5)
N6 N 0.24884(6) 0.52733(6) 0.13270(5)
C15 C 0.25278(8) 0.41304(8) 0.34121(6)
H20 H 0.3122 0.3853 0.3761
C16 C 0.17461(12) 0.32940(12) 0.33481(9)
H21 H 0.1147 0.3552 0.3021
H22 H 0.1587 0.3093 0.3936
H23 H 0.1999 0.2697 0.3046
C17 C 0.21794(10) 0.50695(10) 0.38822(7)
H24 H 0.2697 0.5597 0.3903
H25 H 0.2040 0.4881 0.4478
H26 H 0.1576 0.5338 0.3570
C18 C 0.38038(7) 0.40916(8) 0.22410(7)
H27 H 0.3763 0.4151 0.1591
C19 C 0.45917(9) 0.48389(11) 0.26036(10)
H28 H 0.4393 0.5541 0.2442
H29 H 0.5223 0.4679 0.2362
H30 H 0.4668 0.4779 0.3241
C20 C 0.40498(10) 0.29776(10) 0.24720(8)
H31 H 0.4158 0.2908 0.3107
H32 H 0.4651 0.2773 0.2200
H33 H 0.3498 0.2536 0.2257
C21 C 0.17860(7) 0.58647(7) 0.08932(6)
C22 C 0.12281(7) 0.64003(8) 0.04500(6)
C23 C 0.04801(7) 0.70066(7) -0.00199(6)
C24 C -0.03795(7) 0.65393(8) -0.03944(6)
H34 H -0.0458 0.5817 -0.0348
C25 C -0.11156(8) 0.71177(9) -0.08317(7)
H35 H -0.1699 0.6792 -0.1079
C26 C -0.10061(8) 0.81696(9) -0.09112(7)
H36 H -0.1513 0.8566 -0.1211
C27 C -0.01555(9) 0.86383(8) -0.05522(7)
H37 H -0.0077 0.9359 -0.0612
C28 C 0.05857(8) 0.80700(8) -0.01059(7)
H38 H 0.1165 0.8402 0.0142
loop_
_geom_bond_atom_site_label_1
_geom_bond_atom_site_label_2
_geom_bond_site_symmetry_1
_geom_bond_site_symmetry_2
N1 N2 1_555 1_555
N2 N3 1_555 1_555
N3 C7 1_555 1_555
C1 N1 1_555 1_555
H1 C1 1_555 1_555
C2 C1 1_555 1_555
H2 C2 1_555 1_555
H3 C2 1_555 1_555
H4 C2 1_555 1_555
C3 C1 1_555 1_555
H5 C3 1_555 1_555
H6 C3 1_555 1_555
H7 C3 1_555 1_555
C4 N1 1_555 1_555
H8 C4 1_555 1_555
C5 C4 1_555 1_555
H9 C5 1_555 1_555
H10 C5 1_555 1_555
H11 C5 1_555 1_555
C6 C4 1_555 1_555
H12 C6 1_555 1_555
H13 C6 1_555 1_555
H14 C6 1_555 1_555
C7 C8 1_555 1_555
C8 C9 1_555 1_555
C9 C10 1_555 1_555
C10 H15 1_555 1_555
C11 C10 1_555 1_555
H16 C11 1_555 1_555
C12 C11 1_555 1_555
H17 C12 1_555 1_555
C13 C12 1_555 1_555
H18 C13 1_555 1_555
C14 C9 1_555 1_555
H19 C14 1_555 1_555
N4 N5 1_555 1_555
N5 N6 1_555 1_555
N6 C21 1_555 1_555
C15 N4 1_555 1_555
H20 C15 1_555 1_555
C16 C15 1_555 1_555
H21 C16 1_555 1_555
H22 C16 1_555 1_555
H23 C16 1_555 1_555
C17 C15 1_555 1_555
H24 C17 1_555 1_555
H25 C17 1_555 1_555
H26 C17 1_555 1_555
C18 N4 1_555 1_555
H27 C18 1_555 1_555
C19 C18 1_555 1_555
H28 C19 1_555 1_555
H29 C19 1_555 1_555
H30 C19 1_555 1_555
C20 C18 1_555 1_555
H31 C20 1_555 1_555
H32 C20 1_555 1_555
H33 C20 1_555 1_555
C21 C22 1_555 1_555
C22 C23 1_555 1_555
C23 C24 1_555 1_555
C24 H34 1_555 1_555
C25 C24 1_555 1_555
H35 C25 1_555 1_555
C26 C25 1_555 1_555
H36 C26 1_555 1_555
C27 C26 1_555 1_555
H37 C27 1_555 1_555
C28 C23 1_555 1_555
H38 C28 1_555 1_555
C13 C14 1_555 1_555
C27 C28 1_555 1_555

#END
