
#######################################################################
#
#                 Cambridge Crystallographic Data Centre
#                                CCDC 
#
#######################################################################
#
# If this CIF has been generated from an entry in the Cambridge 
# Structural Database, then it will include bibliographic, chemical, 
# crystal, experimental, refinement or atomic coordinate data resulting 
# from the CCDC's data processing and validation procedures.
#
#######################################################################

data_RUFBAW01
_chemical_formula_moiety         'C14 H12 N2'
_chemical_name_systematic        1-Benzyl-1H-benzimidazole
_symmetry_cell_setting           orthorhombic
_symmetry_space_group_name_H-M   'P 21 21 21'
_symmetry_Int_Tables_number      19
_space_group_name_Hall           'P 2ac 2ab'
loop_
_symmetry_equiv_pos_site_id
_symmetry_equiv_pos_as_xyz
1 x,y,z
2 1/2-x,-y,1/2+z
3 -x,1/2+y,1/2-z
4 1/2+x,1/2-y,-z
_cell_length_a                   6.124(3)
_cell_length_b                   7.443(4)
_cell_length_c                   23.860(8)
_cell_angle_alpha                90
_cell_angle_beta                 90
_cell_angle_gamma                90
_cell_volume                     1087.56
_exptl_crystal_colour            colorless
_exptl_crystal_description       block
_chemical_melting_point          '387 K'
_cell_formula_units_Z            4
_exptl_crystal_recrystallization_method ethanol/water
loop_
_atom_site_label
_atom_site_type_symbol
_atom_site_fract_x
_atom_site_fract_y
_atom_site_fract_z
N1 N 0.9512(6) 0.9532(5) 0.13981(13)
C1 C 0.9503(7) 1.1255(6) 0.16196(16)
C2 C 0.7567(8) 0.8802(8) 0.15157(18)
H1 H 0.7190 0.7639 0.1411
N2 N 0.6248(7) 0.9861(7) 0.17888(16)
C3 C 1.1077(8) 1.2581(7) 0.16401(18)
H2 H 1.2438 1.2429 0.1474
C4 C 0.9963(8) 0.9160(6) 0.01210(18)
H3 H 0.8689 0.8567 0.0224
C5 C 1.1566(7) 0.9393(6) 0.05047(16)
C6 C 1.3448(8) 1.0270(7) 0.03496(18)
H4 H 1.4553 1.0447 0.0611
C7 C 1.1293(10) 0.8674(8) 0.1093(2)
C8 C 1.3702(9) 1.0881(7) -0.0187(2)
H5 H 1.4984 1.1465 -0.0290
C9 C 1.0182(9) 0.9782(7) -0.04190(18)
H6 H 0.9057 0.9624 -0.0676
C10 C 0.7441(8) 1.1405(8) 0.18669(18)
C11 C 0.8491(14) 1.4320(9) 0.2169(2)
H7 H 0.8180 1.5377 0.2362
C12 C 1.0542(12) 1.4117(8) 0.1914(2)
H8 H 1.1550 1.5049 0.1934
C13 C 1.2063(9) 1.0635(6) -0.05752(19)
H9 H 1.2236 1.1045 -0.0941
C14 C 0.6953(10) 1.3013(9) 0.21424(19)
H10 H 0.5588 1.3184 0.2305
H11 H 1.274(8) 0.887(6) 0.1303(18)
H12 H 1.078(7) 0.746(6) 0.1111(16)
loop_
_geom_bond_atom_site_label_1
_geom_bond_atom_site_label_2
_geom_bond_site_symmetry_1
_geom_bond_site_symmetry_2
N1 C1 1_555 1_555
C1 C3 1_555 1_555
C2 N1 1_555 1_555
H1 C2 1_555 1_555
N2 C2 1_555 1_555
C3 H2 1_555 1_555
C4 H3 1_555 1_555
C5 C4 1_555 1_555
C6 C5 1_555 1_555
H4 C6 1_555 1_555
C7 N1 1_555 1_555
C8 C6 1_555 1_555
H5 C8 1_555 1_555
C9 C4 1_555 1_555
H6 C9 1_555 1_555
C10 C1 1_555 1_555
C11 H7 1_555 1_555
C12 C3 1_555 1_555
H8 C12 1_555 1_555
C13 C8 1_555 1_555
H9 C13 1_555 1_555
C14 C10 1_555 1_555
H10 C14 1_555 1_555
H11 C7 1_555 1_555
H12 C7 1_555 1_555
N2 C10 1_555 1_555
C5 C7 1_555 1_555
C9 C13 1_555 1_555
C11 C12 1_555 1_555
C11 C14 1_555 1_555

#END
