
#######################################################################
#
#                 Cambridge Crystallographic Data Centre
#                                CCDC 
#
#######################################################################
#
# If this CIF has been generated from an entry in the Cambridge 
# Structural Database, then it will include bibliographic, chemical, 
# crystal, experimental, refinement or atomic coordinate data resulting 
# from the CCDC's data processing and validation procedures.
#
#######################################################################

data_RUFBOL
_chemical_formula_moiety         'C22 H18 N4 O4,C7 H8'
_chemical_name_systematic        
"Methyl 5-cyano-4-(4-nitrophenyl)-1,2,3,5,5a,6-hexahydropyrrolo[3',2':2,3]cyclopenta[1,2-b]indole-5-carboxylate toluene solvate"
_symmetry_cell_setting           triclinic
_symmetry_space_group_name_H-M   'P -1'
_symmetry_Int_Tables_number      2
_space_group_name_Hall           '-P 1'
loop_
_symmetry_equiv_pos_site_id
_symmetry_equiv_pos_as_xyz
1 x,y,z
2 -x,-y,-z
_cell_length_a                   10.7167(7)
_cell_length_b                   11.3600(7)
_cell_length_c                   11.7847(8)
_cell_angle_alpha                92.870(5)
_cell_angle_beta                 116.657(7)
_cell_angle_gamma                94.955(6)
_cell_volume                     1271.03
_exptl_crystal_colour            'light yellow'
_exptl_crystal_description       prism
_cell_formula_units_Z            2
loop_
_atom_site_label
_atom_site_type_symbol
_atom_site_fract_x
_atom_site_fract_y
_atom_site_fract_z
O1 O 1.77997(11) 1.17684(9) 1.38682(10)
O2 O 1.80424(10) 1.37315(9) 1.43130(9)
O3 O 2.56288(13) 1.28537(17) 1.48931(15)
O4 O 2.43327(12) 1.41209(13) 1.37960(11)
N1 N 1.80367(12) 1.24928(12) 1.74688(12)
H1 H 1.7246 1.2765 1.7261
N2 N 2.11153(13) 0.99848(11) 1.72473(12)
H2 H 2.1815 0.9817 1.7124
N3 N 2.01993(13) 1.47216(11) 1.72392(12)
N4 N 2.45514(13) 1.33344(14) 1.45021(13)
C1 C 1.91771(15) 1.26103(13) 1.86861(13)
C2 C 1.94389(19) 1.33776(15) 1.97533(15)
H3 H 1.8810 1.3905 1.9722
C3 C 2.0664(2) 1.33253(16) 2.08552(16)
H4 H 2.0853 1.3823 2.1579
C4 C 2.1611(2) 1.25636(16) 2.09169(16)
H5 H 2.2440 1.2565 2.1667
C5 C 2.13341(18) 1.17858(14) 1.98558(14)
H6 H 2.1969 1.1262 1.9892
C6 C 2.01088(15) 1.18047(12) 1.87560(12)
C7 C 1.95011(14) 1.10598(12) 1.74721(12)
C8 C 1.90913(17) 0.97460(13) 1.75541(15)
H7 H 1.8826 0.9657 1.8234
H8 H 1.8324 0.9384 1.6754
C9 C 2.04501(18) 0.92136(13) 1.78407(15)
H9 H 2.1043 0.9239 1.8753
H10 H 2.0254 0.8398 1.7464
C10 C 2.05069(13) 1.09769(12) 1.69212(12)
C11 C 2.05057(13) 1.18774(11) 1.61996(12)
C12 C 1.92871(12) 1.25920(11) 1.60186(12)
C13 C 1.84267(14) 1.18290(13) 1.66181(13)
H11 H 1.7605 1.1336 1.5946
C14 C 1.97978(13) 1.37954(12) 1.66995(12)
C15 C 1.82972(12) 1.26489(12) 1.46118(12)
C16 C 1.70657(17) 1.38605(16) 1.29947(15)
H12 H 1.6161 1.3445 1.2790
H13 H 1.7411 1.3535 1.2438
H14 H 1.6982 1.4687 1.2887
C17 C 2.14986(12) 1.22125(12) 1.57134(12)
C18 C 2.13818(13) 1.31992(13) 1.50140(13)
H15 H 2.0618 1.3623 1.4816
C19 C 2.23686(14) 1.35545(13) 1.46143(13)
H16 H 2.2270 1.4208 1.4149
C20 C 2.35032(13) 1.29312(14) 1.49121(13)
C21 C 2.36731(15) 1.19692(16) 1.55993(15)
H17 H 2.4453 1.1564 1.5803
C22 C 2.26761(15) 1.16082(14) 1.59849(14)
H18 H 2.2785 1.0946 1.6438
C23? C 1.5300(4) 1.0276(4) 0.9630(3)
C24? C 1.5451(4) 1.0973(4) 1.0698(4)
C25? C 1.4859(6) 1.0539(5) 1.1453(4)
C26? C 1.4118(6) 0.9408(5) 1.1140(5)
C27? C 1.3967(5) 0.8710(4) 1.0073(5)
C28? C 1.4559(4) 0.9144(4) 0.9318(4)
C29? C 1.6070(7) 1.0812(7) 0.8885(7)
C30? C 1.4712(2) 0.5376(2) 1.0546(2)
C31? C 1.3819(3) 0.4349(2) 0.9882(3)
C32? C 1.4067(4) 0.3679(3) 0.9001(3)
C33? C 1.5209(5) 0.4035(3) 0.8784(3)
C34? C 1.6102(4) 0.5061(4) 0.9448(4)
C35? C 1.5854(3) 0.5732(3) 1.0328(3)
C36? C 1.4359(8) 0.6027(7) 1.1503(8)
loop_
_geom_bond_atom_site_label_1
_geom_bond_atom_site_label_2
_geom_bond_site_symmetry_1
_geom_bond_site_symmetry_2
O1 C15 1_555 1_555
O2 C15 1_555 1_555
O3 N4 1_555 1_555
O4 N4 1_555 1_555
N1 H1 1_555 1_555
N2 H2 1_555 1_555
N3 C14 1_555 1_555
N4 C20 1_555 1_555
C1 N1 1_555 1_555
C2 C1 1_555 1_555
H3 C2 1_555 1_555
C3 C2 1_555 1_555
H4 C3 1_555 1_555
C4 C3 1_555 1_555
H5 C4 1_555 1_555
C5 C4 1_555 1_555
H6 C5 1_555 1_555
C6 C1 1_555 1_555
C7 C6 1_555 1_555
C8 C7 1_555 1_555
H7 C8 1_555 1_555
H8 C8 1_555 1_555
C9 N2 1_555 1_555
H9 C9 1_555 1_555
H10 C9 1_555 1_555
C10 N2 1_555 1_555
C11 C10 1_555 1_555
C12 C11 1_555 1_555
C13 N1 1_555 1_555
H11 C13 1_555 1_555
C14 C12 1_555 1_555
C15 C12 1_555 1_555
C16 O2 1_555 1_555
H12 C16 1_555 1_555
H13 C16 1_555 1_555
H14 C16 1_555 1_555
C17 C11 1_555 1_555
C18 C17 1_555 1_555
H15 C18 1_555 1_555
C19 C18 1_555 1_555
H16 C19 1_555 1_555
C20 C19 1_555 1_555
C21 C20 1_555 1_555
H17 C21 1_555 1_555
C22 C17 1_555 1_555
H18 C22 1_555 1_555
C5 C6 1_555 1_555
C7 C10 1_555 1_555
C7 C13 1_555 1_555
C8 C9 1_555 1_555
C12 C13 1_555 1_555
C21 C22 1_555 1_555

#END
