
#######################################################################
#
#                 Cambridge Crystallographic Data Centre
#                                CCDC 
#
#######################################################################
#
# If this CIF has been generated from an entry in the Cambridge 
# Structural Database, then it will include bibliographic, chemical, 
# crystal, experimental, refinement or atomic coordinate data resulting 
# from the CCDC's data processing and validation procedures.
#
#######################################################################

data_RUFJUZ
_chemical_formula_moiety         'C22 H18 S1'
_chemical_name_systematic        10-Benzyl-3-(methylsulfanyl)phenanthrene
_symmetry_cell_setting           triclinic
_symmetry_space_group_name_H-M   'P -1'
_symmetry_Int_Tables_number      2
_space_group_name_Hall           '-P 1'
loop_
_symmetry_equiv_pos_site_id
_symmetry_equiv_pos_as_xyz
1 x,y,z
2 -x,-y,-z
_cell_length_a                   10.5531(5)
_cell_length_b                   12.5597(5)
_cell_length_c                   12.6208(11)
_cell_angle_alpha                96.964(5)
_cell_angle_beta                 103.030(6)
_cell_angle_gamma                90.128(4)
_cell_volume                     1616.96
_cell_formula_units_Z            4
loop_
_atom_site_label
_atom_site_type_symbol
_atom_site_fract_x
_atom_site_fract_y
_atom_site_fract_z
C1 C 0.12608(16) 0.14583(12) 0.56857(14)
C2 C 0.00043(16) 0.12599(13) 0.59073(15)
C3 C -0.01329(17) 0.04669(13) 0.65110(15)
H1 H -0.0964 0.0339 0.6652
C4 C 0.09170(17) -0.01902(13) 0.69482(15)
C5 C 0.07164(19) -0.10412(14) 0.75323(16)
H2 H -0.0121 -0.1164 0.7663
C6 C 0.1709(2) -0.16904(15) 0.79118(17)
H3 H 0.1552 -0.2276 0.8281
C7 C 0.29478(19) -0.14958(14) 0.77584(16)
H4 H 0.3640 -0.1941 0.8036
C8 C 0.31776(18) -0.06650(14) 0.72081(15)
H5 H 0.4033 -0.0534 0.7121
C9 C 0.21648(16) -0.00023(12) 0.67690(14)
C10 C 0.23333(16) 0.08359(12) 0.61036(14)
C11 C 0.35346(17) 0.10329(13) 0.58496(14)
H6 H 0.4256 0.0616 0.6127
C12 C 0.36945(17) 0.18164(13) 0.52071(15)
C13 C 0.26292(17) 0.24155(13) 0.47818(15)
H7 H 0.2724 0.2950 0.4331
C14 C 0.14489(17) 0.22335(13) 0.50136(15)
H8 H 0.0732 0.2644 0.4711
C15 C 0.5082(2) 0.30094(17) 0.4078(2)
H9 H 0.4446 0.2760 0.3397
H10 H 0.5923 0.3159 0.3911
H11 H 0.4779 0.3666 0.4435
C16 C -0.11544(16) 0.19034(13) 0.54387(16)
H12 H -0.1954 0.1536 0.5515
H13 H -0.1207 0.1903 0.4646
C17 C -0.11320(16) 0.30571(13) 0.59643(15)
C18 C -0.13349(19) 0.38866(14) 0.53260(17)
H14 H -0.1465 0.3732 0.4553
C19 C -0.1352(2) 0.49382(16) 0.5795(2)
H15 H -0.1490 0.5498 0.5343
C20 C -0.1171(2) 0.51790(15) 0.69102(19)
H16 H -0.1182 0.5902 0.7231
C21 C -0.09723(19) 0.43598(15) 0.75607(17)
H17 H -0.0850 0.4517 0.8333
C22 C -0.09521(18) 0.33099(14) 0.70878(16)
H18 H -0.0812 0.2751 0.7542
S1 S 0.52603(5) 0.19925(4) 0.49762(5)
C23 C 0.44899(17) 0.30513(12) 0.95235(15)
C24 C 0.57959(17) 0.31058(13) 0.93612(15)
C25 C 0.67223(18) 0.36875(13) 1.01276(16)
H19 H 0.7582 0.3711 1.0016
C26 C 0.64652(18) 0.42680(13) 1.10966(16)
C27 C 0.7468(2) 0.48653(15) 1.18665(18)
H20 H 0.8325 0.4868 1.1745
C28 C 0.7226(2) 0.54408(16) 1.27855(18)
H21 H 0.7911 0.5838 1.3302
C29 C 0.5969(2) 0.54429(15) 1.29626(17)
H22 H 0.5798 0.5848 1.3599
C30 C 0.4975(2) 0.48647(14) 1.22247(16)
H23 H 0.4124 0.4875 1.2358
C31 C 0.51955(18) 0.42567(12) 1.12733(15)
C32 C 0.41826(17) 0.36231(12) 1.04699(14)
C33 C 0.29069(17) 0.35337(13) 1.06101(15)
H24 H 0.2692 0.3913 1.1241
C34 C 0.19527(17) 0.29117(13) 0.98598(15)
C35 C 0.22598(18) 0.23641(13) 0.89175(15)
H25 H 0.1609 0.1945 0.8387
C36 C 0.34955(17) 0.24353(13) 0.87652(15)
H26 H 0.3691 0.2056 0.8126
C37 C -0.0103(2) 0.14545(16) 0.96433(19)
H27 H -0.0233 0.1337 0.8844
H28 H -0.0918 0.1291 0.9847
H29 H 0.0575 0.0985 0.9973
C38 C 0.61461(18) 0.25052(13) 0.83621(16)
H30 H 0.6951 0.2840 0.8256
H31 H 0.5444 0.2595 0.7714
C39 C 0.63563(16) 0.13163(13) 0.83997(15)
C40 C 0.67146(17) 0.07082(14) 0.75241(15)
H32 H 0.6800 0.1042 0.6906
C41 C 0.69483(18) -0.03684(14) 0.75359(17)
H33 H 0.7184 -0.0771 0.6926
C42 C 0.68418(19) -0.08669(15) 0.84312(18)
H34 H 0.7010 -0.1609 0.8443
C43 C 0.64894(19) -0.02774(15) 0.93042(17)
H35 H 0.6415 -0.0614 0.9923
C44 C 0.62425(18) 0.08018(14) 0.92901(16)
H36 H 0.5992 0.1197 0.9897
S2 S 0.03866(5) 0.28311(4) 1.01307(5)
loop_
_geom_bond_atom_site_label_1
_geom_bond_atom_site_label_2
_geom_bond_site_symmetry_1
_geom_bond_site_symmetry_2
C1 C2 1_555 1_555
C2 C3 1_555 1_555
C3 H1 1_555 1_555
C4 C3 1_555 1_555
C5 C4 1_555 1_555
H2 C5 1_555 1_555
C6 C5 1_555 1_555
H3 C6 1_555 1_555
C7 C6 1_555 1_555
H4 C7 1_555 1_555
C8 C7 1_555 1_555
H5 C8 1_555 1_555
C9 C4 1_555 1_555
C10 C1 1_555 1_555
C11 C10 1_555 1_555
H6 C11 1_555 1_555
C12 C11 1_555 1_555
C13 C12 1_555 1_555
H7 C13 1_555 1_555
C14 C1 1_555 1_555
H8 C14 1_555 1_555
C15 H9 1_555 1_555
H10 C15 1_555 1_555
H11 C15 1_555 1_555
C16 C2 1_555 1_555
H12 C16 1_555 1_555
H13 C16 1_555 1_555
C17 C16 1_555 1_555
C18 C17 1_555 1_555
H14 C18 1_555 1_555
C19 C18 1_555 1_555
H15 C19 1_555 1_555
C20 C19 1_555 1_555
H16 C20 1_555 1_555
C21 C20 1_555 1_555
H17 C21 1_555 1_555
C22 C17 1_555 1_555
H18 C22 1_555 1_555
S1 C12 1_555 1_555
C23 C24 1_555 1_555
C24 C25 1_555 1_555
C25 H19 1_555 1_555
C26 C25 1_555 1_555
C27 C26 1_555 1_555
H20 C27 1_555 1_555
C28 C27 1_555 1_555
H21 C28 1_555 1_555
C29 C28 1_555 1_555
H22 C29 1_555 1_555
C30 C29 1_555 1_555
H23 C30 1_555 1_555
C31 C26 1_555 1_555
C32 C23 1_555 1_555
C33 C32 1_555 1_555
H24 C33 1_555 1_555
C34 C33 1_555 1_555
C35 C34 1_555 1_555
H25 C35 1_555 1_555
C36 C23 1_555 1_555
H26 C36 1_555 1_555
C37 H27 1_555 1_555
H28 C37 1_555 1_555
H29 C37 1_555 1_555
C38 C24 1_555 1_555
H30 C38 1_555 1_555
H31 C38 1_555 1_555
C39 C38 1_555 1_555
C40 C39 1_555 1_555
H32 C40 1_555 1_555
C41 C40 1_555 1_555
H33 C41 1_555 1_555
C42 C41 1_555 1_555
H34 C42 1_555 1_555
C43 C42 1_555 1_555
H35 C43 1_555 1_555
C44 C39 1_555 1_555
H36 C44 1_555 1_555
S2 C34 1_555 1_555
C8 C9 1_555 1_555
C9 C10 1_555 1_555
C13 C14 1_555 1_555
C15 S1 1_555 1_555
C21 C22 1_555 1_555
C30 C31 1_555 1_555
C31 C32 1_555 1_555
C35 C36 1_555 1_555
C37 S2 1_555 1_555
C43 C44 1_555 1_555

#END
