
#######################################################################
#
#                 Cambridge Crystallographic Data Centre
#                                CCDC 
#
#######################################################################
#
# If this CIF has been generated from an entry in the Cambridge 
# Structural Database, then it will include bibliographic, chemical, 
# crystal, experimental, refinement or atomic coordinate data resulting 
# from the CCDC's data processing and validation procedures.
#
#######################################################################

data_RUFNEL
_chemical_formula_moiety         'C31 H55 N2 1+,Cl1 1-,H2 O1'
_chemical_name_systematic        
'1,3-bis(Dodecanyl)benzimidazolium chloride monohydrate'
_symmetry_cell_setting           triclinic
_symmetry_space_group_name_H-M   'P -1'
_symmetry_Int_Tables_number      2
_space_group_name_Hall           '-P 1'
loop_
_symmetry_equiv_pos_site_id
_symmetry_equiv_pos_as_xyz
1 x,y,z
2 -x,-y,-z
_cell_length_a                   8.7589(10)
_cell_length_b                   8.778(2)
_cell_length_c                   21.218(2)
_cell_angle_alpha                82.695(14)
_cell_angle_beta                 88.744(8)
_cell_angle_gamma                79.19(2)
_cell_volume                     1589.4
_cell_formula_units_Z            2
loop_
_atom_site_label
_atom_site_type_symbol
_atom_site_fract_x
_atom_site_fract_y
_atom_site_fract_z
Cl1 Cl 0.6158(1) 0.7260(1) 0.4451(1)
N1 N 1.0816(2) 0.8718(1) 0.4078(1)
C1 C 1.2268(2) 0.8953(2) 0.3999(1)
N2 N 1.2332(1) 1.0436(1) 0.4032(1)
C2 C 1.0838(2) 1.1227(2) 0.4144(1)
C3 C 1.0270(2) 1.2766(2) 0.4230(1)
C4 C 0.8705(2) 1.3157(2) 0.4341(1)
C5 C 0.7739(2) 1.2047(2) 0.4376(1)
C6 C 0.8288(2) 1.0521(2) 0.4296(1)
C7 C 0.9873(2) 1.0127(2) 0.4174(1)
C8 C 1.0291(2) 0.7232(2) 0.4030(1)
C9 C 0.9709(2) 0.7155(3) 0.3379(1)
C10 C 1.0892(3) 0.7179(3) 0.2855(1)
C11 C 1.0265(3) 0.7035(3) 0.2213(1)
C12 C 1.1314(3) 0.7255(3) 0.1655(1)
C13 C 1.0597(3) 0.7194(4) 0.1023(1)
C14 C 1.1560(3) 0.7530(3) 0.0448(1)
C15 C 1.0783(3) 0.7504(4) -0.0177(1)
C16 C 1.1711(3) 0.7851(4) -0.0760(1)
C17 C 1.0924(3) 0.7809(4) -0.1378(1)
C18 C 1.1833(4) 0.8115(4) -0.1966(1)
C19 C 1.1024(5) 0.8027(6) -0.2575(2)
C20 C 1.3732(5) 1.1143(2) 0.3938(1)
C21 C 1.3680(3) 1.2185(2) 0.3309(1)
C22 C 1.3780(3) 1.1350(2) 0.2725(1)
C23 C 1.3556(3) 1.2460(2) 0.2110(1)
C24 C 1.3772(3) 1.1678(2) 0.1511(1)
C25 C 1.3554(3) 1.2806(2) 0.0903(1)
C26 C 1.3870(3) 1.2038(2) 0.0304(1)
C27 C 1.3684(3) 1.3160(2) -0.0306(1)
C28 C 1.4053(3) 1.2386(2) -0.0903(1)
C29 C 1.3918(3) 1.3504(3) -0.1512(1)
C30 C 1.4293(3) 1.2741(3) -0.2110(1)
C31 C 1.4184(4) 1.3860(4) -0.2711(1)
H3 H 1.3179(18) 0.8133(17) 0.3927(7)
H4 H 1.0920(19) 1.3480(19) 0.4195(7)
H5 H 0.8281(20) 1.4184(21) 0.4388(8)
H6 H 0.6723(23) 1.2373(21) 0.4481(9)
H7 H 0.7685(20) 0.9764(20) 0.4337(8)
H8 H 1.1139(21) 0.6369(21) 0.4143(8)
H9 H 0.9523(20) 0.7132(19) 0.4351(8)
H10 H 0.8817(24) 0.8096(25) 0.3249(9)
H11 H 0.9372(22) 0.6076(23) 0.3391(9)
H12 H 1.1257(22) 0.8117(24) 0.2812(9)
H13 H 1.1779(27) 0.6317(27) 0.2973(11)
H14 H 0.9963(25) 0.5988(27) 0.2221(10)
H15 H 0.9342(30) 0.7883(30) 0.2123(12)
H16 H 1.2285(29) 0.6368(29) 0.1728(11)
H17 H 1.1626(26) 0.8276(28) 0.1630(11)
H18 H 0.9738(29) 0.8025(29) 0.0997(11)
H19 H 1.0269(26) 0.6164(28) 0.1002(11)
H20 H 1.1828(27) 0.8590(29) 0.0453(11)
H21 H 1.2494(30) 0.6657(30) 0.0474(12)
H22 H 1.0427(28) 0.6455(30) -0.0185(11)
H23 H 0.9892(31) 0.8365(31) -0.0172(12)
H24 H 1.1989(27) 0.8865(29) -0.0743(11)
H25 H 1.2737(33) 0.6982(32) -0.0756(12)
H26 H 1.0008(31) 0.8644(31) -0.1402(12)
H27 H 1.0594(30) 0.6790(32) -0.1378(12)
H28 H 1.2084(34) 0.9103(36) -0.1968(14)
H29 H 1.2893(39) 0.7346(38) -0.1935(15)
H30 H 1.1750(37) 0.8216(36) -0.2902(16)
H31 H 1.0238(50) 0.9047(51) -0.2548(19)
H32 H 1.0667(48) 0.7036(51) -0.2553(20)
H33 H 1.4563(20) 1.0254(19) 0.3964(7)
H34 H 1.3729(20) 1.1798(21) 0.4293(8)
H35 H 1.2727(22) 1.3038(22) 0.3290(8)
H36 H 1.4494(23) 1.2713(22) 0.3295(9)
H37 H 1.4690(24) 1.0613(23) 0.2723(9)
H38 H 1.2986(23) 1.0631(23) 0.2773(9)
H39 H 1.4264(26) 1.3179(25) 0.2103(10)
H40 H 1.2574(27) 1.3144(25) 0.2124(10)
H41 H 1.3087(23) 1.0907(23) 0.1527(9)
H42 H 1.4797(23) 1.1090(22) 0.1525(9)
H43 H 1.2490(23) 1.3451(22) 0.0916(9)
H44 H 1.4250(23) 1.3581(24) 0.0933(9)
H45 H 1.4878(23) 1.1443(21) 0.0323(9)
H46 H 1.3155(25) 1.1261(25) 0.0293(10)
H47 H 1.4334(23) 1.3905(23) -0.0266(9)
H48 H 1.2599(26) 1.3835(24) -0.0308(9)
H49 H 1.3322(25) 1.1628(24) -0.0914(9)
H50 H 1.5067(24) 1.1812(22) -0.0871(9)
H51 H 1.2889(25) 1.4169(23) -0.1531(9)
H52 H 1.4563(24) 1.4275(24) -0.1467(9)
H53 H 1.3609(22) 1.1982(22) -0.2119(8)
H54 H 1.5383(29) 1.2007(27) -0.2080(11)
H55 H 1.3137(32) 1.4593(30) -0.2724(12)
H56 H 1.4971(38) 1.4491(38) -0.2689(15)
H57 H 1.4498(32) 1.3267(33) -0.3097(15)
O1 O 0.6182(2) 0.5032(2) 0.5747(1)
H1 H 0.6212(28) 0.5583(30) 0.5366(14)
H2 H 0.5573(32) 0.4493(32) 0.5704(12)
loop_
_geom_bond_atom_site_label_1
_geom_bond_atom_site_label_2
_geom_bond_site_symmetry_1
_geom_bond_site_symmetry_2
N1 C1 1_555 1_555
O1 H1 1_555 1_555
C1 N2 1_555 1_555
N2 C2 1_555 1_555
C2 C3 1_555 1_555
C3 C4 1_555 1_555
C4 C5 1_555 1_555
C5 C6 1_555 1_555
C6 C7 1_555 1_555
C7 N1 1_555 1_555
C8 N1 1_555 1_555
C9 C8 1_555 1_555
C10 C9 1_555 1_555
C11 C10 1_555 1_555
C12 C11 1_555 1_555
C13 C12 1_555 1_555
C14 C13 1_555 1_555
C15 C14 1_555 1_555
C16 C15 1_555 1_555
C17 C16 1_555 1_555
C18 C17 1_555 1_555
C19 C18 1_555 1_555
C20 N2 1_555 1_555
C21 C20 1_555 1_555
C22 C21 1_555 1_555
C23 C22 1_555 1_555
C24 C23 1_555 1_555
C25 C24 1_555 1_555
C26 C25 1_555 1_555
C27 C26 1_555 1_555
C28 C27 1_555 1_555
C29 C28 1_555 1_555
C30 C29 1_555 1_555
C31 C30 1_555 1_555
H2 O1 1_555 1_555
H3 C1 1_555 1_555
H4 C3 1_555 1_555
H5 C4 1_555 1_555
H6 C5 1_555 1_555
H7 C6 1_555 1_555
H8 C8 1_555 1_555
H9 C8 1_555 1_555
H10 C9 1_555 1_555
H11 C9 1_555 1_555
H12 C10 1_555 1_555
H13 C10 1_555 1_555
H14 C11 1_555 1_555
H15 C11 1_555 1_555
H16 C12 1_555 1_555
H17 C12 1_555 1_555
H18 C13 1_555 1_555
H19 C13 1_555 1_555
H20 C14 1_555 1_555
H21 C14 1_555 1_555
H22 C15 1_555 1_555
H23 C15 1_555 1_555
H24 C16 1_555 1_555
H25 C16 1_555 1_555
H26 C17 1_555 1_555
H27 C17 1_555 1_555
H28 C18 1_555 1_555
H29 C18 1_555 1_555
H30 C19 1_555 1_555
H31 C19 1_555 1_555
H32 C19 1_555 1_555
H33 C20 1_555 1_555
H34 C20 1_555 1_555
H35 C21 1_555 1_555
H36 C21 1_555 1_555
H37 C22 1_555 1_555
H38 C22 1_555 1_555
H39 C23 1_555 1_555
H40 C23 1_555 1_555
H41 C24 1_555 1_555
H42 C24 1_555 1_555
H43 C25 1_555 1_555
H44 C25 1_555 1_555
H45 C26 1_555 1_555
H46 C26 1_555 1_555
H47 C27 1_555 1_555
H48 C27 1_555 1_555
H49 C28 1_555 1_555
H50 C28 1_555 1_555
H51 C29 1_555 1_555
H52 C29 1_555 1_555
H53 C30 1_555 1_555
H54 C30 1_555 1_555
H55 C31 1_555 1_555
H56 C31 1_555 1_555
H57 C31 1_555 1_555
C2 C7 1_555 1_555

#END
