
#######################################################################
#
#                 Cambridge Crystallographic Data Centre
#                                CCDC 
#
#######################################################################
#
# If this CIF has been generated from an entry in the Cambridge 
# Structural Database, then it will include bibliographic, chemical, 
# crystal, experimental, refinement or atomic coordinate data resulting 
# from the CCDC's data processing and validation procedures.
#
#######################################################################

data_RUFPAL
_chemical_formula_moiety         'C14 H14 O6'
_chemical_name_systematic        
7'-methyl-3a',4,5,9b'-tetrahydro-3H,9'H-spiro[furan-2,4'-furo[3,4-d]pyrano[4,3-b]pyran]-3',9'(1'H)-dione
_symmetry_cell_setting           monoclinic
_symmetry_space_group_name_H-M   'P 21/c'
_symmetry_Int_Tables_number      14
_space_group_name_Hall           '-P 2ybc'
loop_
_symmetry_equiv_pos_site_id
_symmetry_equiv_pos_as_xyz
1 x,y,z
2 -x,1/2+y,1/2-z
3 -x,-y,-z
4 x,1/2-y,1/2+z
_cell_length_a                   13.2824(3)
_cell_length_b                   9.79556(19)
_cell_length_c                   9.33453(16)
_cell_angle_alpha                90
_cell_angle_beta                 94.5724(16)
_cell_angle_gamma                90
_cell_volume                     1210.64
_exptl_crystal_colour            colorless
_exptl_crystal_description       needle
_cell_formula_units_Z            4
loop_
_atom_site_label
_atom_site_type_symbol
_atom_site_fract_x
_atom_site_fract_y
_atom_site_fract_z
O1 O 0.74847(7) 0.46017(9) -0.10901(10)
O2 O 0.73328(7) 0.42792(9) 0.13492(10)
O3 O 0.97702(7) 0.35377(11) 0.23169(10)
O4 O 0.93759(7) 0.14086(10) 0.16556(10)
O5 O 0.65566(7) -0.03395(9) 0.01512(10)
O6 O 0.56407(7) 0.08084(9) 0.16242(10)
C1 C 0.80367(10) 0.44093(13) 0.02357(14)
C2 C 0.86484(10) 0.31084(13) 0.01326(14)
H1 H 0.9086 0.3204 -0.0686
C3 C 0.80093(10) 0.18130(13) -0.01050(14)
H2 H 0.7835 0.1649 -0.1153
C4 C 0.70700(10) 0.19291(13) 0.06888(13)
C5 C 0.64431(10) 0.07374(13) 0.07655(14)
C6 C 0.54215(10) 0.19720(13) 0.23509(14)
C7 C 0.59594(10) 0.31201(13) 0.22191(13)
H3 H 0.5781 0.3937 0.2686
C8 C 0.68014(10) 0.30904(13) 0.13658(13)
C9 C 0.86163(10) 0.57271(14) 0.05510(15)
H4 H 0.8752 0.5871 0.1598
H5 H 0.9265 0.5727 0.0096
C10 C 0.79023(12) 0.68045(15) -0.01117(18)
H6 H 0.8282 0.7544 -0.0551
H7 H 0.7490 0.7205 0.0621
C11 C 0.72387(12) 0.60413(14) -0.12513(15)
H8 H 0.6516 0.6196 -0.1114
H9 H 0.7374 0.6362 -0.2223
C12 C 0.93206(10) 0.27747(14) 0.14853(14)
C13 C 0.87439(10) 0.07210(14) 0.05313(15)
H10 H 0.8370 -0.0043 0.0937
H11 H 0.9160 0.0357 -0.0215
C14 C 0.45690(11) 0.17755(14) 0.32619(16)
H12 H 0.3975 0.1454 0.2666
H13 H 0.4411 0.2644 0.3714
H14 H 0.4757 0.1098 0.4008
loop_
_geom_bond_atom_site_label_1
_geom_bond_atom_site_label_2
_geom_bond_site_symmetry_1
_geom_bond_site_symmetry_2
O1 C1 1_555 1_555
O2 C1 1_555 1_555
O3 C12 1_555 1_555
O4 C12 1_555 1_555
O5 C5 1_555 1_555
O6 C5 1_555 1_555
C1 C2 1_555 1_555
C2 H1 1_555 1_555
C3 C2 1_555 1_555
H2 C3 1_555 1_555
C4 C3 1_555 1_555
C5 C4 1_555 1_555
C6 O6 1_555 1_555
C7 C6 1_555 1_555
H3 C7 1_555 1_555
C8 O2 1_555 1_555
C9 C1 1_555 1_555
H4 C9 1_555 1_555
H5 C9 1_555 1_555
C10 C9 1_555 1_555
H6 C10 1_555 1_555
H7 C10 1_555 1_555
C11 O1 1_555 1_555
H8 C11 1_555 1_555
H9 C11 1_555 1_555
C12 C2 1_555 1_555
C13 O4 1_555 1_555
H10 C13 1_555 1_555
H11 C13 1_555 1_555
C14 C6 1_555 1_555
H12 C14 1_555 1_555
H13 C14 1_555 1_555
H14 C14 1_555 1_555
C3 C13 1_555 1_555
C4 C8 1_555 1_555
C7 C8 1_555 1_555
C10 C11 1_555 1_555

#END
