
#######################################################################
#
#                 Cambridge Crystallographic Data Centre
#                                CCDC 
#
#######################################################################
#
# If this CIF has been generated from an entry in the Cambridge 
# Structural Database, then it will include bibliographic, chemical, 
# crystal, experimental, refinement or atomic coordinate data resulting 
# from the CCDC's data processing and validation procedures.
#
#######################################################################

data_RUGBIE
_chemical_formula_moiety         'C23 H20 O2'
_chemical_name_systematic        
1-(Naphthalen-2-ylmethyl)-6-phenyl-5-oxaspiro(2.4)heptan-4-one
_symmetry_cell_setting           orthorhombic
_symmetry_space_group_name_H-M   'P b c a'
_symmetry_Int_Tables_number      61
_space_group_name_Hall           '-P 2ac 2ab'
loop_
_symmetry_equiv_pos_site_id
_symmetry_equiv_pos_as_xyz
1 x,y,z
2 1/2-x,-y,1/2+z
3 1/2+x,1/2-y,-z
4 -x,1/2+y,1/2-z
5 -x,-y,-z
6 1/2+x,y,1/2-z
7 1/2-x,1/2+y,z
8 x,1/2-y,1/2+z
_cell_length_a                   8.4640(2)
_cell_length_b                   18.8677(2)
_cell_length_c                   21.4270(5)
_cell_angle_alpha                90
_cell_angle_beta                 90
_cell_angle_gamma                90
_cell_volume                     3421.81
_exptl_crystal_colour            colorless
_exptl_crystal_description       tabular
_cell_formula_units_Z            8
loop_
_atom_site_label
_atom_site_type_symbol
_atom_site_fract_x
_atom_site_fract_y
_atom_site_fract_z
O1 O 0.1286(4) 0.1225(2) 0.2260(2)
O2 O 0.2778(5) 0.0257(2) 0.2364(2)
C1 C 0.3344(6) -0.1089(3) 0.0113(2)
C2 C 0.4010(6) -0.1620(3) -0.0281(2)
C3 C 0.4285(7) -0.2323(3) -0.0073(2)
C4 C 0.4961(7) -0.2808(3) -0.0459(3)
C5 C 0.5396(7) -0.2627(3) -0.1066(3)
C6 C 0.5131(6) -0.1965(3) -0.1286(2)
C7 C 0.4410(6) -0.1441(3) -0.0905(2)
C8 C 0.4067(6) -0.0747(3) -0.1117(2)
C9 C 0.3434(6) -0.0256(3) -0.0727(2)
C10 C 0.3063(5) -0.0418(2) -0.0097(2)
C11 C 0.2408(6) 0.0169(3) 0.0313(2)
C12 C 0.2250(6) -0.0020(2) 0.0996(2)
C13 C 0.0733(7) -0.0276(3) 0.1262(2)
C14 C 0.1309(6) 0.0469(3) 0.1408(2)
C15 C 0.0517(6) 0.1143(3) 0.1201(2)
C16 C 0.0100(6) 0.1489(3) 0.1826(2)
C17 C 0.1889(7) 0.0606(3) 0.2052(3)
C18 C 0.0040(6) 0.2284(3) 0.1831(2)
C19 C -0.1108(7) 0.2620(3) 0.1483(3)
C20 C -0.1265(7) 0.3344(3) 0.1491(3)
C21 C -0.0251(8) 0.3748(3) 0.1838(3)
C22 C 0.0907(8) 0.3431(3) 0.2180(3)
C23 C 0.1072(7) 0.2695(3) 0.2175(2)
H1 H 0.3166 -0.1222 0.0556
H2 H 0.3977 -0.2422 0.0334
H3 H 0.5139 -0.3286 -0.0306
H4 H 0.5925 -0.2979 -0.1350
H5 H 0.5397 -0.1824 -0.1722
H6 H 0.4361 -0.0612 -0.1544
H7 H 0.3262 0.0245 -0.0880
H8 H 0.1329 0.0309 0.0138
H9 H 0.3140 0.0603 0.0249
H10 H 0.3232 -0.0217 0.1182
H11 H 0.0675 -0.0589 0.1608
H12 H -0.0229 -0.0315 0.0975
H13 H -0.0412 0.1075 0.0940
H14 H 0.1364 0.1457 0.1006
H15 H -0.0932 0.1321 0.1965
H16 H -0.1815 0.2322 0.1272
H17 H -0.2182 0.3541 0.1242
H18 H -0.0430 0.4236 0.1841
H19 H 0.1564 0.3687 0.2420
H20 H 0.1850 0.2486 0.2426
loop_
_geom_bond_atom_site_label_1
_geom_bond_atom_site_label_2
_geom_bond_site_symmetry_1
_geom_bond_site_symmetry_2
O1 C16 1_555 1_555
O2 C17 1_555 1_555
C1 C2 1_555 1_555
C2 C3 1_555 1_555
C3 C4 1_555 1_555
C4 C5 1_555 1_555
C5 C6 1_555 1_555
C6 C7 1_555 1_555
C7 C2 1_555 1_555
C8 C7 1_555 1_555
C9 C8 1_555 1_555
C10 C1 1_555 1_555
C11 C10 1_555 1_555
C12 C11 1_555 1_555
C13 C12 1_555 1_555
C14 C12 1_555 1_555
C15 C14 1_555 1_555
C16 C15 1_555 1_555
C17 O1 1_555 1_555
C18 C16 1_555 1_555
C19 C18 1_555 1_555
C20 C19 1_555 1_555
C21 C20 1_555 1_555
C22 C21 1_555 1_555
C23 C18 1_555 1_555
H1 C1 1_555 1_555
H2 C3 1_555 1_555
H3 C4 1_555 1_555
H4 C5 1_555 1_555
H5 C6 1_555 1_555
H6 C8 1_555 1_555
H7 C9 1_555 1_555
H8 C11 1_555 1_555
H9 C11 1_555 1_555
H10 C12 1_555 1_555
H11 C13 1_555 1_555
H12 C13 1_555 1_555
H13 C15 1_555 1_555
H14 C15 1_555 1_555
H15 C16 1_555 1_555
H16 C19 1_555 1_555
H17 C20 1_555 1_555
H18 C21 1_555 1_555
H19 C22 1_555 1_555
H20 C23 1_555 1_555
C9 C10 1_555 1_555
C13 C14 1_555 1_555
C14 C17 1_555 1_555
C22 C23 1_555 1_555

#END
