
#######################################################################
#
#                 Cambridge Crystallographic Data Centre
#                                CCDC 
#
#######################################################################
#
# If this CIF has been generated from an entry in the Cambridge 
# Structural Database, then it will include bibliographic, chemical, 
# crystal, experimental, refinement or atomic coordinate data resulting 
# from the CCDC's data processing and validation procedures.
#
#######################################################################

data_RUGCUR
_chemical_formula_moiety         'C23 H20 O1'
_chemical_name_systematic        
1-(1'-Hydroxy)benzyl-1,2-diphenylcyclobut-2-ene
_symmetry_cell_setting           monoclinic
_symmetry_space_group_name_H-M   'P 21/a'
_symmetry_Int_Tables_number      14
_space_group_name_Hall           '-P 2yab'
loop_
_symmetry_equiv_pos_site_id
_symmetry_equiv_pos_as_xyz
1 x,y,z
2 1/2-x,1/2+y,-z
3 -x,-y,-z
4 1/2+x,1/2-y,z
_cell_length_a                   7.443(1)
_cell_length_b                   21.007(2)
_cell_length_c                   11.464(2)
_cell_angle_alpha                90
_cell_angle_beta                 106.42(1)
_cell_angle_gamma                90
_cell_volume                     1719.35
_exptl_crystal_colour            colorless
_exptl_crystal_description       prismatic
_cell_formula_units_Z            4
_exptl_crystal_recrystallization_method deuterochloroform
loop_
_atom_site_label
_atom_site_type_symbol
_atom_site_fract_x
_atom_site_fract_y
_atom_site_fract_z
O1 O 0.0550(5) 0.5723(2) 0.1089(3)
C1 C 0.4104(4) 0.5562(1) 0.1837(2)
C2 C 0.4419(4) 0.5732(1) 0.3185(2)
C3 C 0.5830(4) 0.5320(2) 0.3574(3)
C4 C 0.5803(5) 0.5086(2) 0.2343(3)
C5 C 0.2246(5) 0.5226(1) 0.1199(2)
C6 C 0.4551(4) 0.6103(1) 0.1076(3)
C7 C 0.6149(5) 0.6475(2) 0.1548(3)
C8 C 0.6618(7) 0.6972(2) 0.0883(4)
C9 C 0.5500(6) 0.7104(2) -0.0256(4)
C10 C 0.3934(6) 0.6748(2) -0.0734(4)
C11 C 0.3447(5) 0.6250(2) -0.0087(3)
C12 C 0.3570(4) 0.6216(1) 0.3788(2)
C13 C 0.4173(5) 0.6266(2) 0.5043(3)
C14 C 0.3435(7) 0.6728(2) 0.5624(4)
C15 C 0.2117(7) 0.7138(2) 0.4995(6)
C16 C 0.1534(7) 0.7097(2) 0.3772(6)
C17 C 0.2231(5) 0.6632(2) 0.3147(3)
C18 C 0.1748(4) 0.4687(1) 0.1938(3)
C19 C 0.2101(6) 0.4061(2) 0.1726(4)
C20 C 0.1589(6) 0.3574(2) 0.2374(5)
C21 C 0.0757(6) 0.3699(3) 0.3237(5)
C22 C 0.0366(5) 0.4322(3) 0.3472(4)
C23 C 0.0863(4) 0.4810(2) 0.2822(3)
H1 H 0.684(4) 0.521(1) 0.451(3)
H2 H 0.697(4) 0.519(1) 0.210(3)
H3 H 0.547(4) 0.464(2) 0.220(3)
H4 H 0.703(4) 0.637(1) 0.241(3)
H5 H 0.774(5) 0.724(2) 0.130(3)
H6 H 0.616(5) 0.745(2) -0.071(4)
H7 H 0.307(4) 0.684(2) -0.154(3)
H8 H 0.240(4) 0.599(1) -0.042(2)
H9 H 0.521(4) 0.600(2) 0.551(3)
H10 H 0.369(6) 0.675(2) 0.647(4)
H11 H 0.173(6) 0.748(2) 0.555(4)
H12 H 0.068(5) 0.732(2) 0.336(3)
H13 H 0.189(4) 0.660(2) 0.226(3)
H14 H 0.251(5) 0.399(2) 0.100(3)
H15 H 0.202(6) 0.308(3) 0.219(4)
H16 H 0.026(6) 0.340(2) 0.380(4)
H17 H -0.037(6) 0.440(2) 0.404(4)
H18 H 0.069(4) 0.524(2) 0.301(3)
O2? O 0.2833(5) 0.4900(2) 0.0153(3)
loop_
_geom_bond_atom_site_label_1
_geom_bond_atom_site_label_2
_geom_bond_site_symmetry_1
_geom_bond_site_symmetry_2
O1 C5 1_555 1_555
C1 C2 1_555 1_555
C2 C3 1_555 1_555
C3 C4 1_555 1_555
C4 C1 1_555 1_555
C5 C1 1_555 1_555
C6 C1 1_555 1_555
C7 C6 1_555 1_555
C8 C7 1_555 1_555
C9 C8 1_555 1_555
C10 C9 1_555 1_555
C11 C6 1_555 1_555
C12 C2 1_555 1_555
C13 C12 1_555 1_555
C14 C13 1_555 1_555
C15 C14 1_555 1_555
C16 C15 1_555 1_555
C17 C12 1_555 1_555
C18 C5 1_555 1_555
C19 C18 1_555 1_555
C20 C19 1_555 1_555
C21 C20 1_555 1_555
C22 C21 1_555 1_555
C23 C18 1_555 1_555
H1 C3 1_555 1_555
H2 C4 1_555 1_555
H3 C4 1_555 1_555
H4 C7 1_555 1_555
H5 C8 1_555 1_555
H6 C9 1_555 1_555
H7 C10 1_555 1_555
H8 C11 1_555 1_555
H9 C13 1_555 1_555
H10 C14 1_555 1_555
H11 C15 1_555 1_555
H12 C16 1_555 1_555
H13 C17 1_555 1_555
H14 C19 1_555 1_555
H15 C20 1_555 1_555
H16 C21 1_555 1_555
H17 C22 1_555 1_555
H18 C23 1_555 1_555
C10 C11 1_555 1_555
C16 C17 1_555 1_555
C22 C23 1_555 1_555

#END
