
#######################################################################
#
#                 Cambridge Crystallographic Data Centre
#                                CCDC 
#
#######################################################################
#
# If this CIF has been generated from an entry in the Cambridge 
# Structural Database, then it will include bibliographic, chemical, 
# crystal, experimental, refinement or atomic coordinate data resulting 
# from the CCDC's data processing and validation procedures.
#
#######################################################################

data_RUGGEF
_chemical_formula_moiety         'C31 H25 Br1 F1 N1 O5'
_chemical_name_systematic        
1-Phenyl-4-(4-methoxyphenyl)-3-(2-(4-fluorophenoxy)-1-(p-bromobenzoato)ethyl)-1-azacyclobutan-2-one
_symmetry_cell_setting           monoclinic
_symmetry_space_group_name_H-M   'P 21'
_symmetry_Int_Tables_number      4
_space_group_name_Hall           'P 2yb'
loop_
_symmetry_equiv_pos_site_id
_symmetry_equiv_pos_as_xyz
1 x,y,z
2 -x,1/2+y,-z
_cell_length_a                   12.188(2)
_cell_length_b                   11.629(2)
_cell_length_c                   10.320(2)
_cell_angle_alpha                90
_cell_angle_beta                 109.80(1)
_cell_angle_gamma                90
_cell_volume                     1376.22
_cell_formula_units_Z            2
loop_
_atom_site_label
_atom_site_type_symbol
_atom_site_fract_x
_atom_site_fract_y
_atom_site_fract_z
N1 N -0.0881(6) 0.3639(6) 0.0444(6)
C1 C -0.0161(8) 0.4565(8) 0.0482(8)
C2 C 0.0813(7) 0.4066(8) 0.1592(8)
C3 C 0.0042(7) 0.2974(7) 0.1498(8)
O1 O -0.0376(6) 0.5441(5) -0.0220(6)
C4 C -0.2038(7) 0.3362(8) -0.0308(8)
C5 C -0.2758(9) 0.4153(10) -0.1233(10)
C6 C -0.3887(10) 0.3851(12) -0.1966(12)
C7 C -0.4317(10) 0.2772(14) -0.1813(12)
C8 C -0.3593(8) 0.2010(11) -0.0892(10)
C9 C -0.2464(8) 0.2286(8) -0.0170(9)
C10 C -0.0204(6) 0.2619(7) 0.2757(7)
C11 C -0.0046(7) 0.1451(7) 0.3173(7)
C12 C -0.0237(8) 0.1109(7) 0.4346(8)
C13 C -0.0542(7) 0.1895(8) 0.5190(8)
C14 C -0.0733(7) 0.3041(8) 0.4757(8)
C15 C -0.0577(8) 0.3370(8) 0.3543(8)
O2 O -0.0627(6) 0.1484(6) 0.6379(5)
C16 C -0.1006(9) 0.2251(10) 0.7228(8)
C17 C 0.1972(7) 0.3939(9) 0.1334(8)
C18 C 0.2893(7) 0.3391(10) 0.2529(8)
O3 O 0.3926(5) 0.3332(7) 0.2180(7)
C19 C 0.4763(8) 0.2550(11) 0.2907(9)
C20 C 0.4919(9) 0.2234(12) 0.4217(10)
C21 C 0.5766(8) 0.1418(13) 0.4856(10)
C22 C 0.6421(9) 0.0985(10) 0.4127(11)
C23 C 0.6336(9) 0.1340(12) 0.2852(11)
C24 C 0.5471(9) 0.2134(12) 0.2200(10)
F1 F 0.7252(5) 0.0176(8) 0.4770(7)
O4 O 0.1825(5) 0.3215(5) 0.0165(5)
C25 C 0.2144(7) 0.3630(9) -0.0863(8)
O5 O 0.2268(6) 0.4636(6) -0.1041(6)
C26 C 0.2299(7) 0.2705(9) -0.1784(8)
C27 C 0.2274(7) 0.3009(9) -0.3094(9)
C28 C 0.2511(8) 0.2178(10) -0.3932(8)
C29 C 0.2781(8) 0.1090(10) -0.3429(10)
C30 C 0.2808(9) 0.0772(10) -0.2169(11)
C31 C 0.2577(8) 0.1584(8) -0.1320(9)
Br1 Br 0.3157(1) 0.0000 -0.4604(1)
H1 H 0.1198 0.4488 0.2537
H2 H 0.0308 0.2148 0.1317
H3 H -0.2453 0.4928 -0.1358
H4 H -0.4408 0.4416 -0.2620
H5 H -0.5137 0.2552 -0.2361
H6 H -0.3902 0.1241 -0.0751
H7 H -0.1943 0.1708 0.0461
H8 H 0.0205 0.0877 0.2608
H9 H -0.0157 0.0277 0.4606
H10 H -0.0981 0.3618 0.5322
H11 H -0.0742 0.4185 0.3228
H12 H -0.1028 0.1811 0.8107
H13 H -0.0424 0.2946 0.7527
H14 H -0.1844 0.2559 0.6672
H15 H 0.2233 0.4771 0.1176
H16 H 0.2632 0.2561 0.2702
H17 H 0.3041 0.3892 0.3419
H18 H 0.4431 0.2582 0.4723
H19 H 0.5890 0.1157 0.5819
H20 H 0.6879 0.1041 0.2389
H21 H 0.5360 0.2400 0.1243
H22 H 0.2088 0.3816 -0.3432
H23 H 0.2484 0.2374 -0.4886
H24 H 0.2992 -0.0040 -0.1850
H25 H 0.2610 0.1366 -0.0370
loop_
_geom_bond_atom_site_label_1
_geom_bond_atom_site_label_2
_geom_bond_site_symmetry_1
_geom_bond_site_symmetry_2
N1 C1 1_555 1_555
C1 C2 1_555 1_555
C2 C3 1_555 1_555
C3 N1 1_555 1_555
O1 C1 1_555 1_555
C4 N1 1_555 1_555
C5 C4 1_555 1_555
C6 C5 1_555 1_555
C7 C6 1_555 1_555
C8 C7 1_555 1_555
C9 C4 1_555 1_555
C10 C3 1_555 1_555
C11 C10 1_555 1_555
C12 C11 1_555 1_555
C13 C12 1_555 1_555
C14 C13 1_555 1_555
C15 C10 1_555 1_555
O2 C13 1_555 1_555
C16 O2 1_555 1_555
C17 C2 1_555 1_555
C18 C17 1_555 1_555
O3 C18 1_555 1_555
C19 O3 1_555 1_555
C20 C19 1_555 1_555
C21 C20 1_555 1_555
C22 C21 1_555 1_555
C23 C22 1_555 1_555
C24 C19 1_555 1_555
F1 C22 1_555 1_555
O4 C17 1_555 1_555
C25 O4 1_555 1_555
O5 C25 1_555 1_555
C26 C25 1_555 1_555
C27 C26 1_555 1_555
C28 C27 1_555 1_555
C29 C28 1_555 1_555
C30 C29 1_555 1_555
C31 C26 1_555 1_555
Br1 C29 1_555 1_555
H1 C2 1_555 1_555
H2 C3 1_555 1_555
H3 C5 1_555 1_555
H4 C6 1_555 1_555
H5 C7 1_555 1_555
H6 C8 1_555 1_555
H7 C9 1_555 1_555
H8 C11 1_555 1_555
H9 C12 1_555 1_555
H10 C14 1_555 1_555
H11 C15 1_555 1_555
H12 C16 1_555 1_555
H13 C16 1_555 1_555
H14 C16 1_555 1_555
H15 C17 1_555 1_555
H16 C18 1_555 1_555
H17 C18 1_555 1_555
H18 C20 1_555 1_555
H19 C21 1_555 1_555
H20 C23 1_555 1_555
H21 C24 1_555 1_555
H22 C27 1_555 1_555
H23 C28 1_555 1_555
H24 C30 1_555 1_555
H25 C31 1_555 1_555
C8 C9 1_555 1_555
C14 C15 1_555 1_555
C23 C24 1_555 1_555
C30 C31 1_555 1_555

#END
