
#######################################################################
#
#                 Cambridge Crystallographic Data Centre
#                                CCDC 
#
#######################################################################
#
# If this CIF has been generated from an entry in the Cambridge 
# Structural Database, then it will include bibliographic, chemical, 
# crystal, experimental, refinement or atomic coordinate data resulting 
# from the CCDC's data processing and validation procedures.
#
#######################################################################

data_RUGPUF
_chemical_compound_source        'Salvia miltiorrhiza Bunge'
_chemical_formula_moiety         'C18 H14 O3'
_chemical_name_systematic        
3,9-Dimethyl-2,3-dihydrophenanthro[1,2-b]furan-4,5-dione
_chemical_properties_biological  
'Source plant is the Chinese herbal medicine Danshen which has been used (or extracts have been used) to treat coronary heart diseases, angina pectoris and myocardial infarction, cerebrovascular and neurasthenic insomnia problems and is an antibacterial and antitumour agent'
_symmetry_cell_setting           orthorhombic
_symmetry_space_group_name_H-M   'P 21 21 21'
_symmetry_Int_Tables_number      19
_space_group_name_Hall           'P 2ac 2ab'
loop_
_symmetry_equiv_pos_site_id
_symmetry_equiv_pos_as_xyz
1 x,y,z
2 1/2-x,-y,1/2+z
3 -x,1/2+y,1/2-z
4 1/2+x,1/2-y,-z
_cell_length_a                   4.6415(10)
_cell_length_b                   14.692(3)
_cell_length_c                   19.633(4)
_cell_angle_alpha                90
_cell_angle_beta                 90
_cell_angle_gamma                90
_cell_volume                     1338.83
_exptl_crystal_colour            yellow
_exptl_crystal_description       block
_cell_formula_units_Z            4
loop_
_atom_site_label
_atom_site_type_symbol
_atom_site_fract_x
_atom_site_fract_y
_atom_site_fract_z
O1 O 0.9141(6) 0.38978(16) 0.80968(12)
O2 O 0.5033(6) 0.47076(16) 0.73687(12)
O3 O 0.5747(6) 0.72625(16) 0.87005(12)
C1 C 1.4263(9) 0.4722(3) 1.04455(18)
C2 C 1.5314(9) 0.3891(3) 1.03047(19)
H1 H 1.6605 0.3621 1.0605
C3 C 1.4497(9) 0.3423(2) 0.9711(2)
H2 H 1.5261 0.2849 0.9628
C4 C 1.2618(8) 0.3789(2) 0.92557(19)
H3 H 1.2110 0.3464 0.8867
C5 C 1.1438(8) 0.4660(2) 0.93705(17)
C6 C 1.2314(8) 0.5139(3) 0.99724(17)
C7 C 1.1235(9) 0.6017(3) 1.00860(17)
H4 H 1.1801 0.6331 1.0475
C8 C 0.9366(9) 0.6424(2) 0.96396(18)
H5 H 0.8690 0.7009 0.9724
C9 C 0.8490(8) 0.5959(2) 0.90615(18)
C10 C 0.9455(8) 0.5084(2) 0.89194(16)
C11 C 0.8348(8) 0.4632(3) 0.82957(18)
C12 C 0.6103(9) 0.5125(2) 0.78450(18)
C13 C 0.5429(8) 0.6037(2) 0.80144(18)
C14 C 0.6529(8) 0.6393(2) 0.8583(2)
C15 C 0.3586(8) 0.6724(2) 0.76485(18)
H6 H 0.1590 0.6507 0.7634
C16 C 0.3806(9) 0.7536(3) 0.81363(19)
H7 H 0.4581 0.8062 0.7901
H8 H 0.1917 0.7692 0.8313
C17 C 1.5136(8) 0.5226(3) 1.10832(15)
H9 H 1.3472 0.5322 1.1365
H10 H 1.5959 0.5803 1.0962
H11 H 1.6532 0.4873 1.1329
C18 C 0.4609(9) 0.6927(2) 0.69344(17)
H12 H 0.6569 0.7135 0.6949
H13 H 0.3414 0.7391 0.6737
H14 H 0.4494 0.6385 0.6663
loop_
_geom_bond_atom_site_label_1
_geom_bond_atom_site_label_2
_geom_bond_site_symmetry_1
_geom_bond_site_symmetry_2
O1 C11 1_555 1_555
O2 C12 1_555 1_555
O3 C14 1_555 1_555
C1 C2 1_555 1_555
C2 H1 1_555 1_555
C3 C2 1_555 1_555
H2 C3 1_555 1_555
C4 C3 1_555 1_555
H3 C4 1_555 1_555
C5 C4 1_555 1_555
C6 C1 1_555 1_555
C7 C6 1_555 1_555
H4 C7 1_555 1_555
C8 C7 1_555 1_555
H5 C8 1_555 1_555
C9 C8 1_555 1_555
C10 C5 1_555 1_555
C11 C10 1_555 1_555
C12 C11 1_555 1_555
C13 C12 1_555 1_555
C14 C9 1_555 1_555
C15 C13 1_555 1_555
H6 C15 1_555 1_555
C16 O3 1_555 1_555
H7 C16 1_555 1_555
H8 C16 1_555 1_555
C17 C1 1_555 1_555
H9 C17 1_555 1_555
H10 C17 1_555 1_555
H11 C17 1_555 1_555
C18 C15 1_555 1_555
H12 C18 1_555 1_555
H13 C18 1_555 1_555
H14 C18 1_555 1_555
C5 C6 1_555 1_555
C9 C10 1_555 1_555
C13 C14 1_555 1_555
C15 C16 1_555 1_555

#END
