
#######################################################################
#
#                 Cambridge Crystallographic Data Centre
#                                CCDC 
#
#######################################################################
#
# If this CIF has been generated from an entry in the Cambridge 
# Structural Database, then it will include bibliographic, chemical, 
# crystal, experimental, refinement or atomic coordinate data resulting 
# from the CCDC's data processing and validation procedures.
#
#######################################################################

data_RUGSIX
_chemical_formula_moiety         'C23 H16 Br1 N1 O1'
_chemical_name_systematic        2-(5-bromoquinolin-8-yl)-1,2-diphenylethanone
_symmetry_cell_setting           monoclinic
_symmetry_space_group_name_H-M   'P 21/c'
_symmetry_Int_Tables_number      14
_space_group_name_Hall           '-P 2ybc'
loop_
_symmetry_equiv_pos_site_id
_symmetry_equiv_pos_as_xyz
1 x,y,z
2 -x,1/2+y,1/2-z
3 -x,-y,-z
4 x,1/2-y,1/2+z
_cell_length_a                   14.2581(10)
_cell_length_b                   11.0348(8)
_cell_length_c                   11.2185(8)
_cell_angle_alpha                90
_cell_angle_beta                 96.720(3)
_cell_angle_gamma                90
_cell_volume                     1752.94
_exptl_crystal_colour            white
_exptl_crystal_description       platy
_cell_formula_units_Z            4
loop_
_atom_site_label
_atom_site_type_symbol
_atom_site_fract_x
_atom_site_fract_y
_atom_site_fract_z
Br1 Br 0.397021(13) 0.671991(17) 0.403216(17)
N1 N 0.57675(10) 0.96964(13) 0.72608(12)
O1 O 0.77494(9) 0.98600(11) 0.62599(11)
C1 C 0.49441(12) 0.83058(14) 0.57952(15)
C2 C 0.65974(12) 0.68806(15) 0.60597(15)
H1 H 0.7148 0.6388 0.6143
C3 C 0.58129(12) 0.65377(15) 0.52294(15)
H2 H 0.5845 0.5831 0.4752
C4 C 0.50119(12) 0.72270(15) 0.51199(14)
C5 C 0.57434(11) 0.86458(15) 0.66073(14)
C6 C 0.65754(11) 0.79093(15) 0.67434(14)
C7 C 0.41894(12) 1.01340(16) 0.63436(16)
H3 H 0.3667 1.0674 0.6281
C8 C 0.41491(12) 0.90895(16) 0.56873(15)
H4 H 0.3597 0.8890 0.5166
C9 C 0.50198(12) 1.04025(15) 0.71188(15)
H5 H 0.5038 1.1137 0.7563
C10 C 0.73834(11) 0.83310(14) 0.76572(14)
H6 H 0.7132 0.8406 0.8449
C11 C 0.82918(12) 0.66470(15) 0.87783(15)
H7 H 0.7844 0.6672 0.9341
C12 C 0.82085(11) 0.74547(15) 0.78163(14)
C13 C 0.78718(13) 1.17188(15) 0.80087(18)
H8 H 0.7613 1.1956 0.7225
C14 C 0.77073(11) 0.95977(15) 0.73072(15)
C15 C 0.88822(12) 0.74127(16) 0.70054(15)
H9 H 0.8839 0.7962 0.6349
C16 C 0.90222(12) 0.58039(17) 0.89260(15)
H10 H 0.9069 0.5257 0.9584
C17 C 0.79909(12) 1.04932(15) 0.82854(15)
C18 C 0.96143(13) 0.65737(18) 0.71513(17)
H11 H 1.0069 0.6553 0.6596
C19 C 0.83727(13) 1.01512(17) 0.94357(16)
H12 H 0.8443 0.9317 0.9637
C20 C 0.96838(13) 0.57630(18) 0.81095(17)
H13 H 1.0181 0.5185 0.8205
C21 C 0.85262(15) 1.22560(19) 1.00100(19)
H14 H 0.8713 1.2857 1.0596
C22 C 0.81289(14) 1.25935(17) 0.88735(19)
H15 H 0.8032 1.3427 0.8685
C23 C 0.86516(15) 1.1038(2) 1.02907(17)
H16 H 0.8929 1.0807 1.1069
loop_
_geom_bond_atom_site_label_1
_geom_bond_atom_site_label_2
_geom_bond_site_symmetry_1
_geom_bond_site_symmetry_2
Br1 C4 1_555 1_555
N1 C5 1_555 1_555
O1 C14 1_555 1_555
C1 C4 1_555 1_555
C2 H1 1_555 1_555
C3 C2 1_555 1_555
H2 C3 1_555 1_555
C4 C3 1_555 1_555
C5 C1 1_555 1_555
C6 C2 1_555 1_555
C7 H3 1_555 1_555
C8 C1 1_555 1_555
H4 C8 1_555 1_555
C9 N1 1_555 1_555
H5 C9 1_555 1_555
C10 C6 1_555 1_555
H6 C10 1_555 1_555
C11 H7 1_555 1_555
C12 C10 1_555 1_555
C13 H8 1_555 1_555
C14 C10 1_555 1_555
C15 C12 1_555 1_555
H9 C15 1_555 1_555
C16 C11 1_555 1_555
H10 C16 1_555 1_555
C17 C13 1_555 1_555
C18 C15 1_555 1_555
H11 C18 1_555 1_555
C19 C17 1_555 1_555
H12 C19 1_555 1_555
C20 C16 1_555 1_555
H13 C20 1_555 1_555
C21 H14 1_555 1_555
C22 C13 1_555 1_555
H15 C22 1_555 1_555
C23 C19 1_555 1_555
H16 C23 1_555 1_555
C5 C6 1_555 1_555
C7 C8 1_555 1_555
C7 C9 1_555 1_555
C11 C12 1_555 1_555
C14 C17 1_555 1_555
C18 C20 1_555 1_555
C21 C22 1_555 1_555
C21 C23 1_555 1_555

#END
