
#######################################################################
#
#                 Cambridge Crystallographic Data Centre
#                                CCDC 
#
#######################################################################
#
# If this CIF has been generated from an entry in the Cambridge 
# Structural Database, then it will include bibliographic, chemical, 
# crystal, experimental, refinement or atomic coordinate data resulting 
# from the CCDC's data processing and validation procedures.
#
#######################################################################

data_RUGULA
_chemical_formula_moiety         'C16 H16 N2 O2,H2 O1'
_chemical_name_systematic        'Rugulovasine A monohydrate'
_symmetry_cell_setting           triclinic
_symmetry_space_group_name_H-M   'P -1'
_symmetry_Int_Tables_number      2
_space_group_name_Hall           '-P 1'
loop_
_symmetry_equiv_pos_site_id
_symmetry_equiv_pos_as_xyz
1 x,y,z
2 -x,-y,-z
_cell_length_a                   8.526(2)
_cell_length_b                   11.213(3)
_cell_length_c                   16.296(3)
_cell_angle_alpha                98.94(5)
_cell_angle_beta                 93.84(5)
_cell_angle_gamma                108.96(5)
_cell_volume                     1443.96
_cell_formula_units_Z            4
loop_
_atom_site_label
_atom_site_type_symbol
_atom_site_fract_x
_atom_site_fract_y
_atom_site_fract_z
N1 N -0.44380 -0.23380 -0.49210
C1 C -0.40850 -0.26060 -0.57290
C2 C -0.31840 -0.14890 -0.59670
C3 C -0.29410 -0.05030 -0.52680
C4 C -0.20590 0.07980 -0.51780
C5 C -0.20150 0.15740 -0.44280
C6 C -0.28730 0.10380 -0.37910
C7 C -0.37200 -0.02630 -0.38700
C8 C -0.37430 -0.10410 -0.46190
C9 C -0.25260 -0.11140 -0.67490
C10 C -0.09640 0.01080 -0.65390
N2 N -0.03750 0.05980 -0.72910
C11 C 0.01550 -0.02850 -0.78650
C12 C -0.11640 0.12420 -0.59160
C13 C 0.04560 0.23100 -0.56280
C14 C 0.04440 0.33760 -0.58790
C15 C -0.11760 0.30710 -0.63740
O1 O -0.21450 0.18450 -0.63790
C16 C 0.17660 0.46790 -0.57330
O2 O -0.16930 0.37520 -0.67470
H1 H -0.47700 -0.28500 -0.46600
H2 H -0.44400 -0.34700 -0.60500
H3 H -0.13700 0.24700 -0.43400
H4 H -0.28600 0.16400 -0.32600
H5 H -0.42900 -0.05700 -0.34300
H6 H -0.24900 -0.18300 -0.71000
H7 H -0.33900 -0.09400 -0.71400
H8 H -0.00800 -0.01300 -0.62600
H9 H -0.12300 0.07900 -0.75400
H10 H 0.11600 -0.04500 -0.76000
H11 H 0.03300 0.00600 -0.83800
H12 H -0.07200 -0.11400 -0.80900
H13 H 0.13400 0.21500 -0.53000
H14 H 0.27600 0.46600 -0.53300
H15 H 0.12800 0.52100 -0.54100
H16 H 0.20000 0.48200 -0.62500
N3 N 0.34950 0.44810 -0.23110
C17 C 0.21070 0.43740 -0.19020
C18 C 0.22250 0.38130 -0.12210
C19 C 0.37510 0.35750 -0.12170
C20 C 0.44360 0.29880 -0.06660
C21 C 0.59190 0.28140 -0.08180
C22 C 0.66980 0.32160 -0.15150
C23 C 0.60180 0.38090 -0.20570
C24 C 0.45420 0.39900 -0.19020
C25 C 0.11310 0.33970 -0.05610
C26 C 0.21940 0.32990 0.02240
N4 N 0.11500 0.27210 0.08390
C27 C 0.00480 0.34060 0.11470
C28 C 0.34070 0.25530 0.00270
C29 C 0.44910 0.25370 0.07910
C30 C 0.42380 0.13580 0.09080
C31 C 0.29020 0.04900 0.02560
O3 O 0.24150 0.11880 -0.02540
C32 C 0.50510 0.08660 0.15560
O4 O 0.22600 -0.06630 0.01420
H17 H 0.37100 0.48400 -0.27000
H18 H 0.12600 0.46800 -0.20800
H19 H 0.64200 0.23800 -0.04800
H20 H 0.77600 0.31200 -0.16100
H21 H 0.65900 0.40500 -0.25300
H22 H 0.05600 0.40400 -0.03800
H23 H 0.03100 0.25100 -0.07800
H24 H 0.29000 0.41200 0.04900
H25 H 0.05500 0.19400 0.05900
H26 H -0.05100 0.30700 0.15700
H27 H -0.09500 0.33500 0.07300
H28 H 0.07500 0.43400 0.13500
H29 H 0.53200 0.33500 0.11000
H30 H 0.54900 0.02200 0.13000
H31 H 0.43000 0.05400 0.18900
H32 H 0.56200 0.15500 0.20000
O5 O 0.47380 -0.39410 -0.36210
H33 H 0.55900 -0.34600 -0.32500
H34 H 0.40800 -0.35300 -0.34000
O6 O 0.24760 0.27630 0.25450
H35 H 0.23500 0.27500 0.20300
H36 H 0.17700 0.22300 0.26900
loop_
_geom_bond_atom_site_label_1
_geom_bond_atom_site_label_2
_geom_bond_site_symmetry_1
_geom_bond_site_symmetry_2
N1 C1 1_555 1_555
C1 C2 1_555 1_555
C2 C3 1_555 1_555
C3 C4 1_555 1_555
C4 C5 1_555 1_555
C5 C6 1_555 1_555
C6 C7 1_555 1_555
C7 C8 1_555 1_555
C8 N1 1_555 1_555
C9 C2 1_555 1_555
C10 C9 1_555 1_555
N2 C10 1_555 1_555
C11 N2 1_555 1_555
C12 C4 1_555 1_555
C13 C12 1_555 1_555
C14 C13 1_555 1_555
C15 C14 1_555 1_555
O1 C12 1_555 1_555
C16 C14 1_555 1_555
O2 C15 1_555 1_555
H1 N1 1_555 1_555
H2 C1 1_555 1_555
H3 C5 1_555 1_555
H4 C6 1_555 1_555
H5 C7 1_555 1_555
H6 C9 1_555 1_555
H7 C9 1_555 1_555
H8 C10 1_555 1_555
H9 N2 1_555 1_555
H10 C11 1_555 1_555
H11 C11 1_555 1_555
H12 C11 1_555 1_555
H13 C13 1_555 1_555
H14 C16 1_555 1_555
H15 C16 1_555 1_555
H16 C16 1_555 1_555
N3 C17 1_555 1_555
C17 C18 1_555 1_555
C18 C19 1_555 1_555
C19 C20 1_555 1_555
C20 C21 1_555 1_555
C21 C22 1_555 1_555
C22 C23 1_555 1_555
C23 C24 1_555 1_555
C24 N3 1_555 1_555
C25 C18 1_555 1_555
C26 C25 1_555 1_555
N4 C26 1_555 1_555
C27 N4 1_555 1_555
C28 C20 1_555 1_555
C29 C28 1_555 1_555
C30 C29 1_555 1_555
C31 C30 1_555 1_555
O3 C28 1_555 1_555
C32 C30 1_555 1_555
O4 C31 1_555 1_555
H17 N3 1_555 1_555
H18 C17 1_555 1_555
H19 C21 1_555 1_555
H20 C22 1_555 1_555
H21 C23 1_555 1_555
H22 C25 1_555 1_555
H23 C25 1_555 1_555
H24 C26 1_555 1_555
H25 N4 1_555 1_555
H26 C27 1_555 1_555
H27 C27 1_555 1_555
H28 C27 1_555 1_555
H29 C29 1_555 1_555
H30 C32 1_555 1_555
H31 C32 1_555 1_555
H32 C32 1_555 1_555
O5 H33 1_555 1_555
H34 O5 1_555 1_555
O6 H35 1_555 1_555
H36 O6 1_555 1_555
C3 C8 1_555 1_555
C10 C12 1_555 1_555
C15 O1 1_555 1_555
C19 C24 1_555 1_555
C26 C28 1_555 1_555
C31 O3 1_555 1_555

#END
