
#######################################################################
#
#                 Cambridge Crystallographic Data Centre
#                                CCDC 
#
#######################################################################
#
# If this CIF has been generated from an entry in the Cambridge 
# Structural Database, then it will include bibliographic, chemical, 
# crystal, experimental, refinement or atomic coordinate data resulting 
# from the CCDC's data processing and validation procedures.
#
#######################################################################

data_RUHCAZ
_chemical_name_common            
'bis(2-(5,6-Dihydro[1,3]dithiolo[4,5-b][1,4]dithiin-2-ylidene)-5,6-dihydro[1,3]dithiolo[4,5-b][1,4]dithiin-1-ium) 2,2,2-trifluoroethanesulfonate'
_chemical_formula_moiety         'C10 H8 S8 1+,C10 H8 S8,C2 H2 F3 O3 S1 1-'
_chemical_name_systematic        
"\b''-bis(Ethylenedithio)tetrathiafulvalenium 2,2,2-trifluorofluoroethanesulfonate"
_symmetry_cell_setting           triclinic
_symmetry_space_group_name_H-M   'P -1'
_symmetry_Int_Tables_number      2
_space_group_name_Hall           '-P 1'
loop_
_symmetry_equiv_pos_site_id
_symmetry_equiv_pos_as_xyz
1 x,y,z
2 -x,-y,-z
_cell_length_a                   8.8890(5)
_cell_length_b                   11.7375(6)
_cell_length_c                   17.2190(9)
_cell_angle_alpha                77.299(2)
_cell_angle_beta                 86.942(2)
_cell_angle_gamma                77.239(2)
_cell_volume                     1709.27
_exptl_crystal_colour            black
_exptl_crystal_description       plate
_cell_formula_units_Z            2
loop_
_atom_site_label
_atom_site_type_symbol
_atom_site_fract_x
_atom_site_fract_y
_atom_site_fract_z
S1 S 0.24408(8) 0.45401(6) 0.37235(4)
S2 S 0.44110(8) 0.22374(6) 0.36220(4)
S3 S 0.12109(8) 0.33756(6) 0.54421(4)
S4 S 0.32963(8) 0.10963(6) 0.53890(4)
S5 S 0.29462(9) 0.57556(6) 0.20782(4)
S6 S 0.53852(9) 0.29839(6) 0.19580(4)
S7 S -0.01868(9) 0.25298(7) 0.69881(4)
S8 S 0.24459(10) -0.01737(6) 0.69541(4)
C1 C 0.3102(3) 0.3059(2) 0.41734(13)
C2 C 0.2598(3) 0.2567(2) 0.49183(13)
C3 C 0.3366(3) 0.4451(2) 0.28138(14)
C4 C 0.4294(3) 0.3373(2) 0.27696(14)
C5 C 0.1153(3) 0.2203(2) 0.62539(14)
C6 C 0.2144(3) 0.1145(2) 0.62329(13)
C7 C 0.4385(6) 0.5411(4) 0.1332(3)
H1 H 0.4129 0.6001 0.0841
H2 H 0.5379 0.5470 0.1507
C8 C 0.4512(6) 0.4171(4) 0.1170(3)
H3 H 0.5112 0.4114 0.0687
H4 H 0.3487 0.4070 0.1077
C9 C 0.0575(4) 0.1348(3) 0.78168(17)
H5 H 0.1527 0.1492 0.7986
H6 H -0.0152 0.1374 0.8256
C10 C 0.0889(3) 0.0122(3) 0.76416(17)
H7 H -0.0042 0.0007 0.7429
H8 H 0.1119 -0.0461 0.8138
S9 S 0.45383(8) 0.71719(6) 0.36389(4)
S10 S 0.25461(8) 0.95163(6) 0.37159(4)
S11 S 0.33202(8) 0.60600(6) 0.54008(4)
S12 S 0.12217(9) 0.83962(6) 0.54156(4)
S13 S 0.55317(9) 0.78989(6) 0.19745(4)
S14 S 0.31347(9) 1.06882(6) 0.20680(4)
S15 S 0.23998(12) 0.48629(7) 0.69699(5)
S16 S -0.02088(10) 0.75725(7) 0.69622(5)
C11 C 0.3159(3) 0.8008(2) 0.41736(14)
C12 C 0.2625(3) 0.7540(2) 0.48980(14)
C13 C 0.4400(3) 0.8306(2) 0.27703(15)
C14 C 0.3483(3) 0.9379(2) 0.28068(14)
C15 C 0.2119(3) 0.6165(2) 0.62294(15)
C16 C 0.1145(3) 0.7223(2) 0.62334(15)
C17 C 0.4907(4) 0.9173(3) 0.11774(18)
H9 H 0.5650 0.9135 0.0745
H10 H 0.3929 0.9117 0.0980
C18 C 0.4717(4) 1.0354(3) 0.13934(18)
H11 H 0.4563 1.0972 0.0910
H12 H 0.5665 1.0384 0.1635
C19 C 0.0974(5) 0.5224(3) 0.7690(2)
H13 H 0.0036 0.5022 0.7552
H14 H 0.1313 0.4708 0.8199
C20 C 0.0578(5) 0.6448(4) 0.7800(2)
H15 H 0.1501 0.6643 0.7964
H16 H -0.0159 0.6483 0.8235
S17 S -0.17955(8) 0.17351(6) 1.01092(4)
O1 O -0.1965(3) 0.1995(2) 0.92577(12)
O2 O -0.1986(3) 0.0548(2) 1.04932(14)
O3 O -0.2670(3) 0.2664(3) 1.04787(18)
C21 C 0.0188(4) 0.1687(3) 1.02772(19)
H17 H 0.0347 0.1512 1.0848
H18 H 0.0806 0.1021 1.0076
C22 C 0.0794(5) 0.2755(3) 0.9928(2)
F1 F 0.0048(5) 0.3728(3) 1.0107(3)
F2 F 0.0830(5) 0.2993(3) 0.91705(15)
F3 F 0.2197(4) 0.2689(3) 1.0146(3)
C23? C 0.3727(10) 0.5220(7) 0.1196(5)
C24? C 0.5270(9) 0.4467(7) 0.1314(5)
H19? H 0.3045 0.4769 0.1041
H20? H 0.3757 0.5902 0.0763
H21? H 0.5910 0.4882 0.1540
H22? H 0.5702 0.4367 0.0798
loop_
_geom_bond_atom_site_label_1
_geom_bond_atom_site_label_2
_geom_bond_site_symmetry_1
_geom_bond_site_symmetry_2
S1 C1 1_555 1_555
S2 C1 1_555 1_555
S3 C2 1_555 1_555
S4 C2 1_555 1_555
S5 C3 1_555 1_555
S6 C4 1_555 1_555
S7 C5 1_555 1_555
S8 C6 1_555 1_555
C1 C2 1_555 1_555
C3 S1 1_555 1_555
C4 S2 1_555 1_555
C5 S3 1_555 1_555
C6 S4 1_555 1_555
C7 S5 1_555 1_555
H1 C7 1_555 1_555
H2 C7 1_555 1_555
C8 S6 1_555 1_555
H3 C8 1_555 1_555
H4 C8 1_555 1_555
C9 S7 1_555 1_555
H5 C9 1_555 1_555
H6 C9 1_555 1_555
C10 S8 1_555 1_555
H7 C10 1_555 1_555
H8 C10 1_555 1_555
S9 C11 1_555 1_555
S10 C11 1_555 1_555
S11 C12 1_555 1_555
S12 C12 1_555 1_555
S13 C13 1_555 1_555
S14 C14 1_555 1_555
S15 C15 1_555 1_555
S16 C16 1_555 1_555
C11 C12 1_555 1_555
C13 S9 1_555 1_555
C14 S10 1_555 1_555
C15 S11 1_555 1_555
C16 S12 1_555 1_555
C17 S13 1_555 1_555
H9 C17 1_555 1_555
H10 C17 1_555 1_555
C18 S14 1_555 1_555
H11 C18 1_555 1_555
H12 C18 1_555 1_555
C19 S15 1_555 1_555
H13 C19 1_555 1_555
H14 C19 1_555 1_555
C20 S16 1_555 1_555
H15 C20 1_555 1_555
H16 C20 1_555 1_555
S17 O1 1_555 1_555
O2 S17 1_555 1_555
O3 S17 1_555 1_555
C21 S17 1_555 1_555
H17 C21 1_555 1_555
H18 C21 1_555 1_555
C22 C21 1_555 1_555
F1 C22 1_555 1_555
F2 C22 1_555 1_555
F3 C22 1_555 1_555
C3 C4 1_555 1_555
C5 C6 1_555 1_555
C7 C8 1_555 1_555
C9 C10 1_555 1_555
C13 C14 1_555 1_555
C15 C16 1_555 1_555
C17 C18 1_555 1_555
C19 C20 1_555 1_555

#END
