
#######################################################################
#
#                 Cambridge Crystallographic Data Centre
#                                CCDC 
#
#######################################################################
#
# If this CIF has been generated from an entry in the Cambridge 
# Structural Database, then it will include bibliographic, chemical, 
# crystal, experimental, refinement or atomic coordinate data resulting 
# from the CCDC's data processing and validation procedures.
#
#######################################################################

data_RUJJIQ
_chemical_formula_moiety         'C15 H13 Cl1 N6'
_chemical_name_systematic        N,N'-(4-Chlorobenzylidene)dipyrimidin-2-amine
_symmetry_cell_setting           monoclinic
_symmetry_space_group_name_H-M   'P 21/n'
_symmetry_Int_Tables_number      14
_space_group_name_Hall           '-P 2yn'
loop_
_symmetry_equiv_pos_site_id
_symmetry_equiv_pos_as_xyz
1 x,y,z
2 1/2-x,1/2+y,1/2-z
3 -x,-y,-z
4 1/2+x,1/2-y,1/2+z
_cell_length_a                   9.6030(14)
_cell_length_b                   10.5706(15)
_cell_length_c                   14.792(2)
_cell_angle_alpha                90
_cell_angle_beta                 100.331(3)
_cell_angle_gamma                90
_cell_volume                     1477.19
_exptl_crystal_colour            colorless
_exptl_crystal_description       prism
_cell_formula_units_Z            4
loop_
_atom_site_label
_atom_site_type_symbol
_atom_site_fract_x
_atom_site_fract_y
_atom_site_fract_z
Cl1 Cl -0.02192(8) 0.53784(7) 0.18886(5)
N1 N 0.3768(2) 0.1522(2) 0.49990(15)
H1 H 0.372(3) 0.073(3) 0.4970(19)
N2 N 0.5083(2) 0.3334(2) 0.53797(15)
N3 N 0.6177(2) 0.13385(19) 0.51466(14)
N4 N 0.1456(2) 0.1274(2) 0.53239(15)
H2 H 0.100(3) 0.085(3) 0.490(2)
N5 N 0.1916(2) 0.1776(2) 0.68744(15)
N6 N 0.0426(2) 0.0032(2) 0.62930(15)
C1 C 0.2469(3) 0.2170(2) 0.51066(17)
H3 H 0.2701 0.2771 0.5635
C2 C 0.1814(3) 0.2927(2) 0.42613(17)
C3 C 0.2361(3) 0.2959(2) 0.34541(18)
H4 H 0.3172 0.2468 0.3403
C4 C 0.1729(3) 0.3708(3) 0.27187(17)
H5 H 0.2106 0.3727 0.2168
C5 C 0.0551(3) 0.4423(2) 0.27932(17)
C6 C -0.0013(3) 0.4405(2) 0.35850(18)
H6 H -0.0824 0.4898 0.3633
C7 C 0.0623(3) 0.3653(2) 0.43127(17)
H7 H 0.0235 0.3635 0.4860
C8 C 0.5041(3) 0.2088(2) 0.51871(16)
C9 C 0.6373(3) 0.3841(3) 0.5586(2)
H8 H 0.6452 0.4713 0.5741
C10 C 0.7596(3) 0.3161(3) 0.5585(2)
H9 H 0.8505 0.3537 0.5745
C11 C 0.7431(3) 0.1905(3) 0.53381(18)
H10 H 0.8254 0.1421 0.5303
C12 C 0.1273(3) 0.1023(3) 0.61980(17)
C13 C 0.1706(3) 0.1484(3) 0.77168(19)
H11 H 0.2127 0.2005 0.8215
C14 C 0.0906(3) 0.0461(3) 0.7899(2)
H12 H 0.0802 0.0247 0.8507
C15 C 0.0269(3) -0.0232(3) 0.7149(2)
H13 H -0.0309 -0.0929 0.7247
loop_
_geom_bond_atom_site_label_1
_geom_bond_atom_site_label_2
_geom_bond_site_symmetry_1
_geom_bond_site_symmetry_2
Cl1 C5 1_555 1_555
N1 H1 1_555 1_555
N2 C8 1_555 1_555
N3 C8 1_555 1_555
N4 H2 1_555 1_555
N5 C12 1_555 1_555
N6 C12 1_555 1_555
C1 N1 1_555 1_555
H3 C1 1_555 1_555
C2 C1 1_555 1_555
C3 C2 1_555 1_555
H4 C3 1_555 1_555
C4 C3 1_555 1_555
H5 C4 1_555 1_555
C5 C4 1_555 1_555
C6 C5 1_555 1_555
H6 C6 1_555 1_555
C7 C2 1_555 1_555
H7 C7 1_555 1_555
C8 N1 1_555 1_555
C9 N2 1_555 1_555
H8 C9 1_555 1_555
C10 C9 1_555 1_555
H9 C10 1_555 1_555
C11 N3 1_555 1_555
H10 C11 1_555 1_555
C12 N4 1_555 1_555
C13 N5 1_555 1_555
H11 C13 1_555 1_555
C14 C13 1_555 1_555
H12 C14 1_555 1_555
C15 N6 1_555 1_555
H13 C15 1_555 1_555
N4 C1 1_555 1_555
C6 C7 1_555 1_555
C10 C11 1_555 1_555
C14 C15 1_555 1_555

#END
