
#######################################################################
#
#                 Cambridge Crystallographic Data Centre
#                                CCDC 
#
#######################################################################
#
# If this CIF has been generated from an entry in the Cambridge 
# Structural Database, then it will include bibliographic, chemical, 
# crystal, experimental, refinement or atomic coordinate data resulting 
# from the CCDC's data processing and validation procedures.
#
#######################################################################

data_RUKSOH
_chemical_formula_moiety         'C24 H18 N2 O2'
_chemical_name_systematic        
17-(3-Methylpyridin-2-yl)-17-azapentacyclo[6.6.5.0^2,7^.0^9,14^.0^15,19^]nonadeca-2,4,6,9,11,13-hexaene-16,18-dione
_symmetry_cell_setting           monoclinic
_symmetry_space_group_name_H-M   'P 21/n'
_symmetry_Int_Tables_number      14
_space_group_name_Hall           '-P 2yn'
loop_
_symmetry_equiv_pos_site_id
_symmetry_equiv_pos_as_xyz
1 x,y,z
2 1/2-x,1/2+y,1/2-z
3 -x,-y,-z
4 1/2+x,1/2-y,1/2+z
_cell_length_a                   13.2851(7)
_cell_length_b                   11.1971(6)
_cell_length_c                   13.2994(8)
_cell_angle_alpha                90
_cell_angle_beta                 116.317(2)
_cell_angle_gamma                90
_cell_volume                     1773.3
_exptl_crystal_colour            colorless
_exptl_crystal_description       tablet
_cell_formula_units_Z            4
loop_
_atom_site_label
_atom_site_type_symbol
_atom_site_fract_x
_atom_site_fract_y
_atom_site_fract_z
O1 O 0.53718(7) 0.42131(8) 0.42548(7)
O2 O 0.51218(7) 0.72578(8) 0.18712(7)
N1 N 0.55108(8) 0.57493(9) 0.31727(8)
N2 N 0.73494(9) 0.64535(10) 0.41068(9)
C1 C 0.28783(9) 0.44710(10) 0.25481(9)
H1 H 0.2907 0.3812 0.3068
C2 C 0.37442(9) 0.54763(10) 0.31607(9)
H2 H 0.3603 0.5811 0.3784
C3 C 0.49434(9) 0.50345(10) 0.36197(9)
C4 C 0.48191(9) 0.65815(10) 0.23950(9)
C5 C 0.36512(9) 0.64781(10) 0.23283(9)
H3 H 0.3443 0.7246 0.2573
C6 C 0.27407(9) 0.61447(11) 0.11258(9)
H4 H 0.2663 0.6767 0.0557
C7 C 0.16639(9) 0.59737(10) 0.12470(9)
C8 C 0.06761(10) 0.66085(11) 0.06758(10)
H5 H 0.0627 0.7212 0.0154
C9 C -0.02482(10) 0.63490(11) 0.08788(10)
H6 H -0.0933 0.6770 0.0485
C10 C -0.01674(10) 0.54784(11) 0.16529(10)
H7 H -0.0798 0.5312 0.1788
C11 C 0.08309(10) 0.48433(11) 0.22377(10)
H8 H 0.0886 0.4256 0.2775
C12 C 0.17419(9) 0.50844(10) 0.20201(9)
C13 C 0.31048(9) 0.40277(11) 0.15869(9)
C14 C 0.33193(10) 0.28587(11) 0.14011(10)
H9 H 0.3368 0.2247 0.1915
C15 C 0.34638(10) 0.25919(12) 0.04448(10)
H10 H 0.3590 0.1789 0.0299
C16 C 0.34239(10) 0.34906(13) -0.02926(10)
H11 H 0.3535 0.3301 -0.0932
C17 C 0.32205(10) 0.46693(12) -0.00969(10)
H12 H 0.3200 0.5285 -0.0597
C18 C 0.30471(9) 0.49356(11) 0.08367(9)
C19 C 0.66781(9) 0.56063(11) 0.34436(10)
C20 C 0.70058(10) 0.46388(11) 0.30006(10)
C21 C 0.81429(10) 0.46058(12) 0.32427(10)
H13 H 0.8424 0.3977 0.2959
C22 C 0.88556(10) 0.54934(13) 0.38965(10)
H14 H 0.9624 0.5495 0.4043
C23 C 0.84401(11) 0.63806(13) 0.43363(11)
H15 H 0.8946 0.6960 0.4819
C24 C 0.61990(11) 0.36918(12) 0.23121(11)
H16 H 0.5927 0.3252 0.2780
H17 H 0.6580 0.3140 0.2022
H18 H 0.5562 0.4064 0.1684
loop_
_geom_bond_atom_site_label_1
_geom_bond_atom_site_label_2
_geom_bond_site_symmetry_1
_geom_bond_site_symmetry_2
O1 C3 1_555 1_555
O2 C4 1_555 1_555
N1 C3 1_555 1_555
N2 C19 1_555 1_555
C1 H1 1_555 1_555
C2 C1 1_555 1_555
H2 C2 1_555 1_555
C3 C2 1_555 1_555
C4 N1 1_555 1_555
C5 C2 1_555 1_555
H3 C5 1_555 1_555
C6 C5 1_555 1_555
H4 C6 1_555 1_555
C7 C6 1_555 1_555
C8 C7 1_555 1_555
H5 C8 1_555 1_555
C9 C8 1_555 1_555
H6 C9 1_555 1_555
C10 C9 1_555 1_555
H7 C10 1_555 1_555
C11 C10 1_555 1_555
H8 C11 1_555 1_555
C12 C1 1_555 1_555
C13 C1 1_555 1_555
C14 C13 1_555 1_555
H9 C14 1_555 1_555
C15 C14 1_555 1_555
H10 C15 1_555 1_555
C16 C15 1_555 1_555
H11 C16 1_555 1_555
C17 C16 1_555 1_555
H12 C17 1_555 1_555
C18 C6 1_555 1_555
C19 N1 1_555 1_555
C20 C19 1_555 1_555
C21 C20 1_555 1_555
H13 C21 1_555 1_555
C22 C21 1_555 1_555
H14 C22 1_555 1_555
C23 N2 1_555 1_555
H15 C23 1_555 1_555
C24 C20 1_555 1_555
H16 C24 1_555 1_555
H17 C24 1_555 1_555
H18 C24 1_555 1_555
C4 C5 1_555 1_555
C7 C12 1_555 1_555
C11 C12 1_555 1_555
C13 C18 1_555 1_555
C17 C18 1_555 1_555
C22 C23 1_555 1_555

#END
