
#######################################################################
#
#                 Cambridge Crystallographic Data Centre
#                                CCDC 
#
#######################################################################
#
# If this CIF has been generated from an entry in the Cambridge 
# Structural Database, then it will include bibliographic, chemical, 
# crystal, experimental, refinement or atomic coordinate data resulting 
# from the CCDC's data processing and validation procedures.
#
#######################################################################

data_RUMHOX
_chemical_formula_moiety         'C20 H24 N2 O6'
_chemical_name_systematic        
'Triethyl 4-methyl-2,4-dihydro-1H-pyrrolo[1,2-a]benzimidazole-1,2,3-tricarboxylate'
_symmetry_cell_setting           monoclinic
_symmetry_space_group_name_H-M   'P 21/n'
_symmetry_Int_Tables_number      14
_space_group_name_Hall           '-P 2yn'
loop_
_symmetry_equiv_pos_site_id
_symmetry_equiv_pos_as_xyz
1 x,y,z
2 1/2-x,1/2+y,1/2-z
3 -x,-y,-z
4 1/2+x,1/2-y,1/2+z
_cell_length_a                   12.2557(6)
_cell_length_b                   10.7641(3)
_cell_length_c                   14.1749(7)
_cell_angle_alpha                90
_cell_angle_beta                 95.573(2)
_cell_angle_gamma                90
_cell_volume                     1861.14
_exptl_crystal_colour            colorless
_exptl_crystal_description       plate
_chemical_melting_point          '130-132 deg.C'
_cell_formula_units_Z            4
loop_
_atom_site_label
_atom_site_type_symbol
_atom_site_fract_x
_atom_site_fract_y
_atom_site_fract_z
C1 C 0.46214(15) 0.13923(15) 0.17315(12)
N1 N 0.36930(12) 0.13971(14) 0.11134(10)
C2 C 0.39573(15) 0.15530(16) 0.01862(12)
C3 C 0.33321(16) 0.17067(17) -0.06719(12)
H1 H 0.2554 0.1727 -0.0716
C4 C 0.39059(17) 0.18307(18) -0.14697(13)
H2 H 0.3506 0.1939 -0.2073
C5 C 0.50431(17) 0.18013(18) -0.14092(13)
H3 H 0.5402 0.1875 -0.1971
C6 C 0.56667(16) 0.16660(17) -0.05426(13)
H4 H 0.6445 0.1653 -0.0498
C7 C 0.51050(15) 0.15508(16) 0.02504(12)
N2 N 0.54955(12) 0.14390(14) 0.12111(10)
C8 C 0.66585(15) 0.14298(19) 0.15416(14)
H5 H 0.6965 0.2261 0.1469
H6 H 0.7040 0.0833 0.1167
H7 H 0.6753 0.1189 0.2211
C9 C 0.43869(15) 0.14031(16) 0.26674(12)
C10 C 0.31358(15) 0.14310(16) 0.26722(12)
H8 H 0.2913 0.2201 0.2999
C11 C 0.27012(14) 0.14885(16) 0.15932(12)
H9 H 0.2377 0.2330 0.1461
C12 C 0.51161(16) 0.14827(17) 0.35043(13)
O1 O 0.61195(11) 0.15359(14) 0.35958(9)
O2 O 0.45274(11) 0.15365(12) 0.42789(8)
C13 C 0.51522(17) 0.1737(2) 0.51824(13)
H10 H 0.5624 0.2480 0.5156
H11 H 0.5623 0.1009 0.5356
C14 C 0.43331(19) 0.1921(2) 0.58925(15)
H12 H 0.3819 0.2581 0.5673
H13 H 0.4717 0.2155 0.6505
H14 H 0.3928 0.1147 0.5963
C15 C 0.27286(15) 0.02965(16) 0.31664(12)
O3 O 0.28710(11) -0.07620(11) 0.29161(9)
O4 O 0.22135(10) 0.06073(12) 0.39205(8)
C16 C 0.18312(17) -0.04164(17) 0.44716(13)
H15 H 0.2437 -0.1008 0.4641
H16 H 0.1230 -0.0865 0.4099
C17 C 0.14297(19) 0.0122(2) 0.53525(14)
H17 H 0.2044 0.0507 0.5740
H18 H 0.1115 -0.0541 0.5716
H19 H 0.0868 0.0750 0.5177
C18 C 0.18549(15) 0.05271(16) 0.12380(12)
O5 O 0.19131(11) -0.01406(12) 0.05614(9)
O6 O 0.09996(10) 0.05808(12) 0.17547(8)
C19 C 0.01044(16) -0.02796(19) 0.14825(14)
H20 H 0.0396 -0.1124 0.1388
H21 H -0.0308 -0.0006 0.0883
C20 C -0.06313(17) -0.0287(2) 0.22691(14)
H22 H -0.0220 -0.0582 0.2854
H23 H -0.1255 -0.0840 0.2101
H24 H -0.0899 0.0557 0.2367
loop_
_geom_bond_atom_site_label_1
_geom_bond_atom_site_label_2
_geom_bond_site_symmetry_1
_geom_bond_site_symmetry_2
C1 N1 1_555 1_555
N1 C2 1_555 1_555
C2 C3 1_555 1_555
C3 H1 1_555 1_555
C4 C3 1_555 1_555
H2 C4 1_555 1_555
C5 C4 1_555 1_555
H3 C5 1_555 1_555
C6 C5 1_555 1_555
H4 C6 1_555 1_555
C7 C2 1_555 1_555
N2 C1 1_555 1_555
C8 N2 1_555 1_555
H5 C8 1_555 1_555
H6 C8 1_555 1_555
H7 C8 1_555 1_555
C9 C1 1_555 1_555
C10 C9 1_555 1_555
H8 C10 1_555 1_555
C11 N1 1_555 1_555
H9 C11 1_555 1_555
C12 C9 1_555 1_555
O1 C12 1_555 1_555
O2 C12 1_555 1_555
C13 O2 1_555 1_555
H10 C13 1_555 1_555
H11 C13 1_555 1_555
C14 C13 1_555 1_555
H12 C14 1_555 1_555
H13 C14 1_555 1_555
H14 C14 1_555 1_555
C15 C10 1_555 1_555
O3 C15 1_555 1_555
O4 C15 1_555 1_555
C16 O4 1_555 1_555
H15 C16 1_555 1_555
H16 C16 1_555 1_555
C17 C16 1_555 1_555
H17 C17 1_555 1_555
H18 C17 1_555 1_555
H19 C17 1_555 1_555
C18 C11 1_555 1_555
O5 C18 1_555 1_555
O6 C18 1_555 1_555
C19 O6 1_555 1_555
H20 C19 1_555 1_555
H21 C19 1_555 1_555
C20 C19 1_555 1_555
H22 C20 1_555 1_555
H23 C20 1_555 1_555
H24 C20 1_555 1_555
C6 C7 1_555 1_555
C7 N2 1_555 1_555
C10 C11 1_555 1_555

#END
