
#######################################################################
#
#                 Cambridge Crystallographic Data Centre
#                                CCDC 
#
#######################################################################
#
# If this CIF has been generated from an entry in the Cambridge 
# Structural Database, then it will include bibliographic, chemical, 
# crystal, experimental, refinement or atomic coordinate data resulting 
# from the CCDC's data processing and validation procedures.
#
#######################################################################

data_RUNPIB
_chemical_formula_moiety         'C13 H13 N1 O2'
_chemical_name_systematic        2-(propylamino)-1,4-naphthoquinone
_symmetry_cell_setting           monoclinic
_symmetry_space_group_name_H-M   'P 21/c'
_symmetry_Int_Tables_number      14
_space_group_name_Hall           '-P 2ybc'
loop_
_symmetry_equiv_pos_site_id
_symmetry_equiv_pos_as_xyz
1 x,y,z
2 -x,1/2+y,1/2-z
3 -x,-y,-z
4 x,1/2-y,1/2+z
_cell_length_a                   11.1849(7)
_cell_length_b                   12.4554(7)
_cell_length_c                   8.1377(5)
_cell_angle_alpha                90
_cell_angle_beta                 92.014(4)
_cell_angle_gamma                90
_cell_volume                     1132.98
_exptl_crystal_colour            orange
_exptl_crystal_description       block
_cell_formula_units_Z            4
loop_
_atom_site_label
_atom_site_type_symbol
_atom_site_fract_x
_atom_site_fract_y
_atom_site_fract_z
O1 O 0.9178(2) 0.33917(19) 0.1399(3)
O2 O 0.8198(3) -0.0795(2) 0.1234(4)
N1 N 1.0708(3) 0.2049(3) 0.2941(4)
C1 C 0.8957(3) 0.2432(3) 0.1307(4)
C2 C 0.7899(3) 0.2030(3) 0.0381(4)
C3 C 0.7639(3) 0.0943(3) 0.0379(4)
C4 C 0.7145(3) 0.2742(3) -0.0458(4)
H1 H 0.7321 0.3471 -0.0463
C5 C 0.9758(3) 0.1639(3) 0.2162(4)
C6 C 0.9483(3) 0.0575(3) 0.2097(4)
H2 H 0.9996 0.0090 0.2630
C7 C 0.6607(4) 0.0580(4) -0.0432(5)
H3 H 0.6418 -0.0147 -0.0421
C8 C 0.8451(3) 0.0178(3) 0.1255(4)
C9 C 0.5864(4) 0.1291(5) -0.1251(5)
H4 H 0.5170 0.1042 -0.1787
C10 C 0.6133(4) 0.2366(5) -0.1287(5)
H5 H 0.5633 0.2839 -0.1869
C11 C 1.3539(4) 0.0970(4) 0.4966(7)
H6 H 1.4329 0.1265 0.4919
H7 H 1.3299 0.0955 0.6087
H8 H 1.3536 0.0252 0.4533
C12 C 1.1578(4) 0.1388(5) 0.3871(7)
H9 H 1.1307 0.1338 0.4988
H10 H 1.1535 0.0670 0.3411
C13 C 1.2678(5) 0.1654(5) 0.3959(9)
H11 H 1.2725 0.2379 0.4392
H12 H 1.2961 0.1680 0.2846
H13 H 1.079(3) 0.273(3) 0.300(4)
loop_
_geom_bond_atom_site_label_1
_geom_bond_atom_site_label_2
_geom_bond_site_symmetry_1
_geom_bond_site_symmetry_2
O1 C1 1_555 1_555
O2 C8 1_555 1_555
N1 C5 1_555 1_555
C1 C2 1_555 1_555
C2 C3 1_555 1_555
C3 C7 1_555 1_555
C4 C2 1_555 1_555
H1 C4 1_555 1_555
C5 C1 1_555 1_555
C6 C5 1_555 1_555
H2 C6 1_555 1_555
C7 H3 1_555 1_555
C8 C3 1_555 1_555
C9 C7 1_555 1_555
H4 C9 1_555 1_555
C10 C4 1_555 1_555
H5 C10 1_555 1_555
C11 H6 1_555 1_555
H7 C11 1_555 1_555
H8 C11 1_555 1_555
C12 N1 1_555 1_555
H9 C12 1_555 1_555
H10 C12 1_555 1_555
C13 C11 1_555 1_555
H11 C13 1_555 1_555
H12 C13 1_555 1_555
H13 N1 1_555 1_555
C6 C8 1_555 1_555
C9 C10 1_555 1_555
C12 C13 1_555 1_555

#END
