
#######################################################################
#
#                 Cambridge Crystallographic Data Centre
#                                CCDC 
#
#######################################################################
#
# If this CIF has been generated from an entry in the Cambridge 
# Structural Database, then it will include bibliographic, chemical, 
# crystal, experimental, refinement or atomic coordinate data resulting 
# from the CCDC's data processing and validation procedures.
#
#######################################################################

data_RUPPAV
_chemical_formula_moiety         'C96 F36'
_chemical_name_systematic        dodecakis(Trifluoromethyl)-C~s~-C84fullerene
_symmetry_cell_setting           rhombohedral
_symmetry_space_group_name_H-M   'R -3'
_symmetry_Int_Tables_number      148
_space_group_name_Hall           '-R 3'
loop_
_symmetry_equiv_pos_site_id
_symmetry_equiv_pos_as_xyz
1 x,y,z
2 -y,x-y,z
3 -x+y,-x,z
4 2/3+x,1/3+y,1/3+z
5 2/3-y,1/3+x-y,1/3+z
6 2/3-x+y,1/3-x,1/3+z
7 1/3+x,2/3+y,2/3+z
8 1/3-y,2/3+x-y,2/3+z
9 1/3-x+y,2/3-x,2/3+z
10 -x,-y,-z
11 y,-x+y,-z
12 x-y,x,-z
13 1/3-x,2/3-y,2/3-z
14 1/3+y,2/3-x+y,2/3-z
15 1/3+x-y,2/3+x,2/3-z
16 2/3-x,1/3-y,1/3-z
17 2/3+y,1/3-x+y,1/3-z
18 2/3+x-y,1/3+x,1/3-z
_cell_length_a                   21.728(2)
_cell_length_b                   21.728(2)
_cell_length_c                   13.9160(10)
_cell_angle_alpha                90
_cell_angle_beta                 90
_cell_angle_gamma                120
_cell_volume                     5689.64
_exptl_crystal_colour            orange
_exptl_crystal_description       block
_cell_formula_units_Z            3
loop_
_atom_site_label
_atom_site_type_symbol
_atom_site_fract_x
_atom_site_fract_y
_atom_site_fract_z
F1 F 0.1734(11) 0.3359(9) -0.0224(15)
F2 F 0.0854(8) 0.3321(11) 0.0551(19)
F3 F 0.1603(6) 0.3111(5) 0.1121(13)
F4 F 0.3144(9) 0.3768(7) -0.0397(12)
F5 F 0.3128(6) 0.3494(5) 0.1144(11)
F6 F 0.4114(8) 0.4205(8) 0.0226(16)
C1 C 0.1978(4) 0.4362(4) 0.0768(7)
C2 C 0.2363(5) 0.4458(4) 0.1715(9)
C3 C 0.3091(5) 0.4631(4) 0.1719(9)
C4 C 0.3437(5) 0.4717(5) 0.0727(9)
C5 C 0.3160(8) 0.4974(6) -0.0086(10)
C6 C 0.2488(8) 0.4812(7) -0.0097(14)
C7 C 0.2280(5) 0.5255(5) -0.0654(9)
C8 C 0.2782(5) 0.5943(5) -0.1008(6)
C9 C 0.2606(4) 0.6492(4) -0.0993(7)
C10 C 0.1930(5) 0.6339(5) -0.0588(7)
C11 C 0.1556(5) 0.5720(6) -0.0016(9)
C12 C 0.1731(4) 0.5199(5) -0.0002(7)
C13 C 0.1583(5) 0.4766(5) 0.0806(9)
C14 C 0.1220(5) 0.5808(6) 0.0796(10)
C15 C 0.3522(8) 0.4082(7) 0.0444(11)
C16 C 0.1514(6) 0.3573(6) 0.0486(10)
F1A F 0.6641(9) 0.8375(14) -0.0224(15)
F2A F 0.6679(11) 0.7533(14) 0.0551(19)
F3A F 0.6889(5) 0.8492(8) 0.1121(13)
F4A F 0.6232(7) 0.9376(11) -0.0397(12)
F5A F 0.6506(5) 0.9634(8) 0.1144(11)
F6A F 0.5795(8) 0.9909(11) 0.0226(16)
C1A C 0.5638(4) 0.7616(6) 0.0768(7)
C2A C 0.5542(4) 0.7905(6) 0.1715(9)
C3A C 0.5369(4) 0.8460(6) 0.1719(9)
C4A C 0.5283(5) 0.8720(7) 0.0727(9)
C5A C 0.5026(6) 0.8186(10) -0.0086(10)
C6A C 0.5188(7) 0.7676(11) -0.0097(14)
C7A C 0.4745(5) 0.7025(7) -0.0654(9)
C8A C 0.4057(5) 0.6839(7) -0.1008(6)
C9A C 0.3508(4) 0.6114(6) -0.0993(7)
C10A C 0.3661(5) 0.5591(7) -0.0588(7)
C11A C 0.4280(6) 0.5836(8) -0.0016(9)
C12A C 0.4801(5) 0.6532(6) -0.0002(7)
C13A C 0.5234(5) 0.6817(7) 0.0806(9)
C14A C 0.4192(6) 0.5412(8) 0.0796(10)
C15A C 0.5918(7) 0.9440(11) 0.0444(11)
C16A C 0.6427(6) 0.7941(8) 0.0486(10)
F1B F 0.1625(14) 0.8266(11) -0.0224(15)
F2B F 0.2467(14) 0.9146(8) 0.0551(19)
F3B F 0.1508(8) 0.8397(6) 0.1121(13)
F4B F 0.0624(11) 0.6856(9) -0.0397(12)
F5B F 0.0366(8) 0.6872(6) 0.1144(11)
F6B F 0.0091(11) 0.5886(8) 0.0226(16)
C1B C 0.2384(6) 0.8022(4) 0.0768(7)
C2B C 0.2095(6) 0.7637(5) 0.1715(9)
C3B C 0.1540(6) 0.6909(5) 0.1719(9)
C4B C 0.1280(7) 0.6563(5) 0.0727(9)
C5B C 0.1814(10) 0.6840(8) -0.0086(10)
C6B C 0.2324(11) 0.7512(8) -0.0097(14)
C7B C 0.2975(7) 0.7720(5) -0.0654(9)
C8B C 0.3161(7) 0.7218(5) -0.1008(6)
C9B C 0.3886(6) 0.7394(4) -0.0993(7)
C10B C 0.4409(7) 0.8070(5) -0.0588(7)
C11B C 0.4164(8) 0.8444(5) -0.0016(9)
C12B C 0.3468(6) 0.8269(4) -0.0002(7)
C13B C 0.3183(7) 0.8417(5) 0.0806(9)
C14B C 0.4588(8) 0.8780(5) 0.0796(10)
C15B C 0.0560(11) 0.6478(8) 0.0444(11)
C16B C 0.2059(8) 0.8486(6) 0.0486(10)
F1P F 0.0026(9) 0.4958(14) 0.3557(15)
F2P F -0.0012(11) 0.5800(14) 0.2782(19)
F3P F -0.0222(5) 0.4841(8) 0.2212(13)
F4P F 0.0435(7) 0.3957(11) 0.3730(12)
F5P F 0.0161(5) 0.3699(8) 0.2189(11)
F6P F 0.0872(8) 0.3424(11) 0.3107(16)
C1P C 0.1029(4) 0.5717(6) 0.2565(7)
C2P C 0.1125(4) 0.5428(6) 0.1618(9)
C3P C 0.1298(4) 0.4873(6) 0.1614(9)
C4P C 0.1384(5) 0.4613(7) 0.2606(9)
C5P C 0.1641(6) 0.5147(10) 0.3419(10)
C6P C 0.1479(7) 0.5657(11) 0.3430(14)
C7P C 0.1922(5) 0.6308(7) 0.3987(9)
C8P C 0.2610(5) 0.6494(7) 0.4341(6)
C9P C 0.3159(4) 0.7219(6) 0.4326(7)
C10P C 0.3006(5) 0.7742(7) 0.3921(7)
C11P C 0.2387(6) 0.7497(8) 0.3349(9)
C12P C 0.1866(5) 0.6801(6) 0.3335(7)
C13P C 0.1433(5) 0.6516(7) 0.2527(9)
C14P C 0.2475(6) 0.7921(8) 0.2537(10)
C15P C 0.0749(7) 0.3893(11) 0.2889(11)
C16P C 0.0240(6) 0.5392(8) 0.2847(10)
F1Q F 0.5042(14) 0.5067(11) 0.3557(15)
F2Q F 0.4200(14) 0.4187(8) 0.2782(19)
F3Q F 0.5159(8) 0.4936(6) 0.2212(13)
F4Q F 0.6043(11) 0.6477(9) 0.3730(12)
F5Q F 0.6301(8) 0.6461(6) 0.2189(11)
F6Q F 0.6576(11) 0.7447(8) 0.3107(16)
C1Q C 0.4283(6) 0.5311(4) 0.2565(7)
C2Q C 0.4572(6) 0.5696(5) 0.1618(9)
C3Q C 0.5127(6) 0.6424(5) 0.1614(9)
C4Q C 0.5387(7) 0.6770(5) 0.2606(9)
C5Q C 0.4853(10) 0.6493(8) 0.3419(10)
C6Q C 0.4343(11) 0.5821(8) 0.3430(14)
C7Q C 0.3692(7) 0.5613(5) 0.3987(9)
C8Q C 0.3506(7) 0.6115(5) 0.4341(6)
C9Q C 0.2781(6) 0.5939(4) 0.4326(7)
C10Q C 0.2258(7) 0.5263(5) 0.3921(7)
C11Q C 0.2503(8) 0.4889(5) 0.3349(9)
C12Q C 0.3199(6) 0.5064(4) 0.3335(7)
C13Q C 0.3484(7) 0.4916(5) 0.2527(9)
C14Q C 0.2079(8) 0.4553(5) 0.2537(10)
C15Q C 0.6107(11) 0.6855(8) 0.2889(11)
C16Q C 0.4608(8) 0.4847(6) 0.2847(10)
F1O F 0.4933(11) 0.9974(9) 0.3557(15)
F2O F 0.5813(8) 1.0012(11) 0.2782(19)
F3O F 0.5064(6) 1.0222(5) 0.2212(13)
F4O F 0.3523(9) 0.9565(7) 0.3730(12)
F5O F 0.3539(6) 0.9839(5) 0.2189(11)
F6O F 0.2553(8) 0.9128(8) 0.3107(16)
C1O C 0.4689(4) 0.8971(4) 0.2565(7)
C2O C 0.4304(5) 0.8875(4) 0.1618(9)
C3O C 0.3576(5) 0.8702(4) 0.1614(9)
C4O C 0.3230(5) 0.8616(5) 0.2606(9)
C5O C 0.3507(8) 0.8359(6) 0.3419(10)
C6O C 0.4179(8) 0.8521(7) 0.3430(14)
C7O C 0.4387(5) 0.8078(5) 0.3987(9)
C8O C 0.3885(5) 0.7390(5) 0.4341(6)
C9O C 0.4061(4) 0.6841(4) 0.4326(7)
C10O C 0.4737(5) 0.6994(5) 0.3921(7)
C11O C 0.5111(5) 0.7613(6) 0.3349(9)
C12O C 0.4936(4) 0.8134(5) 0.3335(7)
C13O C 0.5084(5) 0.8567(5) 0.2527(9)
C14O C 0.5447(5) 0.7525(6) 0.2537(10)
C15O C 0.3145(8) 0.9251(7) 0.2889(11)
C16O C 0.5153(6) 0.9760(6) 0.2847(10)
F7? F 0.4056(8) 0.4061(8) 0.0916(16)
F8? F 0.3953(15) 0.4228(13) -0.0507(18)
F9? F 0.3045(10) 0.3593(10) 0.025(2)
C17? C 0.2720(13) 0.4571(13) 0.0432(17)
C18? C 0.284(3) 0.501(2) -0.039(3)
C19? C 0.1851(13) 0.4783(13) -0.1626(18)
F10? F 0.1380(10) 0.4138(10) -0.1501(15)
F11? F 0.2232(11) 0.4748(13) -0.2347(17)
F12? F 0.1438(10) 0.5112(14) -0.1984(15)
F13? F 0.1815(9) 0.3269(9) 0.0278(14)
F14? F 0.1157(8) 0.3569(6) -0.0382(14)
F15? F 0.0935(11) 0.3287(11) 0.1053(19)
loop_
_geom_bond_atom_site_label_1
_geom_bond_atom_site_label_2
_geom_bond_site_symmetry_1
_geom_bond_site_symmetry_2
F1 C16 1_555 1_555
F2 C16 1_555 1_555
F3 C16 1_555 1_555
F4 C15 1_555 1_555
F5 C15 1_555 1_555
F6 C15 1_555 1_555
C1 C2 1_555 1_555
C2 C3 1_555 1_555
C3 C4 1_555 1_555
C4 C5 1_555 1_555
C5 C6 1_555 1_555
C6 C1 1_555 1_555
C7 C6 1_555 1_555
C8 C7 1_555 1_555
C9 C8 1_555 1_555
C10 C9 1_555 1_555
C11 C10 1_555 1_555
C12 C7 1_555 1_555
C13 C1 1_555 1_555
C14 C11 1_555 1_555
C15 C4 1_555 1_555
C16 C1 1_555 1_555
F1A C16A 1_555 1_555
F2A C16A 1_555 1_555
F3A C16A 1_555 1_555
F4A C15A 1_555 1_555
F5A C15A 1_555 1_555
F6A C15A 1_555 1_555
C1A C2A 1_555 1_555
C2A C3A 1_555 1_555
C3A C4A 1_555 1_555
C4A C5A 1_555 1_555
C5A C6A 1_555 1_555
C6A C1A 1_555 1_555
C7A C6A 1_555 1_555
C8A C7A 1_555 1_555
C9A C8 1_555 1_555
C10A C5 1_555 1_555
C11A C10A 1_555 1_555
C12A C7A 1_555 1_555
C13A C1A 1_555 1_555
C14A C4 1_555 1_555
C15A C4A 1_555 1_555
C16A C1A 1_555 1_555
F1B C16B 1_555 1_555
F2B C16B 1_555 1_555
F3B C16B 1_555 1_555
F4B C15B 1_555 1_555
F5B C15B 1_555 1_555
F6B C15B 1_555 1_555
C1B C2B 1_555 1_555
C2B C3B 1_555 1_555
C3B C4B 1_555 1_555
C4B C14 1_555 1_555
C5B C10 1_555 1_555
C6B C1B 1_555 1_555
C7B C6B 1_555 1_555
C8B C9 1_555 1_555
C9B C8A 1_555 1_555
C10B C5A 1_555 1_555
C11B C10B 1_555 1_555
C12B C7B 1_555 1_555
C13B C1B 1_555 1_555
C14B C4A 1_555 1_555
C15B C4B 1_555 1_555
C16B C1B 1_555 1_555
F1P C16P 1_555 1_555
F2P C16P 1_555 1_555
F3P C16P 1_555 1_555
F4P C15P 1_555 1_555
F5P C15P 1_555 1_555
F6P C15P 1_555 1_555
C1P C2P 1_555 1_555
C2P C14 1_555 1_555
C3P C13 1_555 1_555
C4P C3P 1_555 1_555
C5P C4P 1_555 1_555
C6P C1P 1_555 1_555
C7P C6P 1_555 1_555
C8P C7P 1_555 1_555
C9P C8P 1_555 1_555
C10P C9P 1_555 1_555
C11P C10P 1_555 1_555
C12P C7P 1_555 1_555
C13P C3B 1_555 1_555
C14P C2B 1_555 1_555
C15P C4P 1_555 1_555
C16P C1P 1_555 1_555
F1Q C16Q 1_555 1_555
F2Q C16Q 1_555 1_555
F3Q C16Q 1_555 1_555
F4Q C15Q 1_555 1_555
F5Q C15Q 1_555 1_555
F6Q C15Q 1_555 1_555
C1Q C2Q 1_555 1_555
C2Q C14A 1_555 1_555
C3Q C13A 1_555 1_555
C4Q C3Q 1_555 1_555
C5Q C4Q 1_555 1_555
C6Q C1Q 1_555 1_555
C7Q C6Q 1_555 1_555
C8Q C7Q 1_555 1_555
C9Q C8P 1_555 1_555
C10Q C5P 1_555 1_555
C11Q C10Q 1_555 1_555
C12Q C7Q 1_555 1_555
C13Q C3 1_555 1_555
C14Q C2 1_555 1_555
C15Q C4Q 1_555 1_555
C16Q C1Q 1_555 1_555
F1O C16O 1_555 1_555
F2O C16O 1_555 1_555
F3O C16O 1_555 1_555
F4O C15O 1_555 1_555
F5O C15O 1_555 1_555
F6O C15O 1_555 1_555
C1O C2O 1_555 1_555
C2O C14B 1_555 1_555
C3O C13B 1_555 1_555
C4O C14P 1_555 1_555
C5O C10P 1_555 1_555
C6O C1O 1_555 1_555
C7O C6O 1_555 1_555
C8O C9P 1_555 1_555
C9O C8Q 1_555 1_555
C10O C5Q 1_555 1_555
C11O C10O 1_555 1_555
C12O C7O 1_555 1_555
C13O C3A 1_555 1_555
C14O C2A 1_555 1_555
C15O C4O 1_555 1_555
C16O C1O 1_555 1_555
C11 C12 1_555 1_555
C12 C13 1_555 1_555
C8A C9A 1_555 1_555
C9A C10A 1_555 1_555
C11A C12A 1_555 1_555
C11A C14A 1_555 1_555
C12A C13A 1_555 1_555
C4B C5B 1_555 1_555
C5B C6B 1_555 1_555
C7B C8B 1_555 1_555
C8B C9B 1_555 1_555
C9B C10B 1_555 1_555
C11B C12B 1_555 1_555
C11B C14B 1_555 1_555
C12B C13B 1_555 1_555
C1P C13P 1_555 1_555
C2P C3P 1_555 1_555
C4P C14Q 1_555 1_555
C5P C6P 1_555 1_555
C11P C12P 1_555 1_555
C11P C14P 1_555 1_555
C12P C13P 1_555 1_555
C1Q C13Q 1_555 1_555
C2Q C3Q 1_555 1_555
C4Q C14O 1_555 1_555
C5Q C6Q 1_555 1_555
C8Q C9Q 1_555 1_555
C9Q C10Q 1_555 1_555
C11Q C12Q 1_555 1_555
C11Q C14Q 1_555 1_555
C12Q C13Q 1_555 1_555
C1O C13O 1_555 1_555
C2O C3O 1_555 1_555
C3O C4O 1_555 1_555
C4O C5O 1_555 1_555
C5O C6O 1_555 1_555
C7O C8O 1_555 1_555
C8O C9O 1_555 1_555
C9O C10O 1_555 1_555
C11O C12O 1_555 1_555
C11O C14O 1_555 1_555
C12O C13O 1_555 1_555

#END
