
#######################################################################
#
#                 Cambridge Crystallographic Data Centre
#                                CCDC 
#
#######################################################################
#
# If this CIF has been generated from an entry in the Cambridge 
# Structural Database, then it will include bibliographic, chemical, 
# crystal, experimental, refinement or atomic coordinate data resulting 
# from the CCDC's data processing and validation procedures.
#
#######################################################################

data_RUPPUP
_chemical_formula_moiety         'C96 F36,C7 H8'
_chemical_name_systematic        
'2,5,14,19,24,29,33,42,45,54,77,80-dodecakis(Trifluoromethyl)-C~2v~-C84fullerene toluene solvate'
_symmetry_cell_setting           triclinic
_symmetry_space_group_name_H-M   'P -1'
_symmetry_Int_Tables_number      2
_space_group_name_Hall           '-P 1'
loop_
_symmetry_equiv_pos_site_id
_symmetry_equiv_pos_as_xyz
1 x,y,z
2 -x,-y,-z
_cell_length_a                   13.7460(10)
_cell_length_b                   13.8219(5)
_cell_length_c                   17.5771(3)
_cell_angle_alpha                93.185(2)
_cell_angle_beta                 96.830(5)
_cell_angle_gamma                103.909(2)
_cell_volume                     3206.36
_exptl_crystal_colour            red
_exptl_crystal_description       plate
_cell_formula_units_Z            2
loop_
_atom_site_label
_atom_site_type_symbol
_atom_site_fract_x
_atom_site_fract_y
_atom_site_fract_z
F1 F 0.56588(11) 0.18696(13) 0.42583(11)
F2 F 0.45500(12) 0.07181(14) 0.46711(11)
F3 F 0.50678(12) 0.04557(13) 0.35905(11)
F4 F 0.13138(14) -0.03655(14) 0.49364(11)
F5 F 0.18439(15) 0.09961(14) 0.56675(10)
F6 F 0.29038(13) 0.02811(16) 0.52308(11)
F7 F 0.61085(12) 0.38558(13) 0.46139(10)
F8 F 0.64887(12) 0.49533(13) 0.38164(12)
F9 F 0.65949(11) 0.34504(13) 0.35448(11)
F10 F 0.19803(12) 0.29138(14) 0.61126(9)
F11 F 0.07959(14) 0.36585(14) 0.59098(10)
F12 F 0.04399(12) 0.20454(14) 0.58097(9)
F13 F -0.16691(14) -0.15716(13) 0.15710(10)
F14 F -0.22523(12) -0.09520(13) 0.25164(12)
F15 F -0.09903(13) -0.15991(12) 0.27343(10)
F16 F 0.38796(15) -0.04770(14) 0.10366(12)
F17 F 0.28459(15) -0.06017(15) -0.00070(12)
F18 F 0.42602(15) 0.05106(15) 0.01598(13)
F19 F 0.62754(15) 0.43229(16) 0.11432(13)
F20 F 0.63002(15) 0.57405(14) 0.17146(15)
F21 F 0.66796(14) 0.45827(18) 0.23602(13)
F22 F -0.16404(12) 0.39303(13) 0.46174(11)
F23 F -0.22544(11) 0.23528(13) 0.42758(10)
F24 F -0.10075(13) 0.28344(16) 0.51797(10)
F25 F -0.32604(12) 0.04052(13) 0.21118(11)
F26 F -0.33433(12) 0.17012(13) 0.27938(11)
F27 F -0.27822(12) 0.05459(13) 0.33306(10)
F28 F 0.43559(16) 0.21153(17) -0.06212(12)
F29 F 0.55085(14) 0.23913(15) 0.03612(12)
F30 F 0.52013(17) 0.36094(16) -0.02482(13)
F31 F 0.2224(3) 0.7636(2) 0.1786(2)
F32 F 0.3430(2) 0.7401(3) 0.1198(2)
F33 F 0.1978(4) 0.7234(2) 0.0566(2)
F34 F 0.0303(3) 0.70997(19) 0.15528(18)
F35 F -0.10688(18) 0.6330(2) 0.1876(3)
F36 F 0.0223(3) 0.7010(3) 0.27393(17)
C1 C 0.30621(18) 0.06869(18) 0.33129(16)
C2 C 0.39755(18) 0.15432(19) 0.36229(16)
C3 C 0.36724(18) 0.23416(19) 0.41097(15)
C4 C 0.27375(18) 0.21257(19) 0.44472(14)
C5 C 0.19969(18) 0.10881(19) 0.43409(15)
C6 C 0.21611(18) 0.04796(18) 0.36358(15)
C7 C 0.12485(18) 0.00686(18) 0.31717(15)
C8 C 0.11889(18) -0.02082(18) 0.23725(16)
C9 C 0.21294(19) 0.00067(18) 0.20346(16)
C10 C 0.30351(19) 0.04738(19) 0.25259(16)
C11 C 0.37913(18) 0.12723(19) 0.22472(16)
C12 C 0.42835(18) 0.1960(2) 0.28659(16)
C13 C 0.46942(18) 0.2952(2) 0.27541(16)
C14 C 0.49222(18) 0.3707(2) 0.34690(16)
C15 C 0.41642(18) 0.3319(2) 0.40387(15)
C16 C 0.37044(18) 0.41011(19) 0.42199(15)
C17 C 0.28221(18) 0.38924(19) 0.45400(15)
C18 C 0.23543(18) 0.2914(2) 0.46837(14)
C19 C 0.12449(18) 0.2876(2) 0.47956(15)
C20 C 0.05348(17) 0.20127(19) 0.42557(14)
C21 C 0.09158(17) 0.11966(19) 0.40821(15)
C22 C 0.04710(17) 0.05183(18) 0.34455(15)
C23 C -0.03966(18) 0.06017(19) 0.29850(15)
C24 C -0.06702(18) -0.00372(19) 0.22092(15)
C25 C 0.02849(19) -0.02115(18) 0.19068(16)
C26 C 0.03052(19) 0.00840(19) 0.11718(16)
C27 C 0.1204(2) 0.0289(2) 0.08440(16)
C28 C 0.2092(2) 0.01913(19) 0.12561(16)
C29 C 0.2992(2) 0.0786(2) 0.08941(17)
C30 C 0.3739(2) 0.1535(2) 0.14972(17)
C31 C 0.4180(2) 0.2536(2) 0.13605(17)
C32 C 0.46472(19) 0.3243(2) 0.19878(17)
C33 C 0.4942(2) 0.4377(2) 0.18717(18)
C34 C 0.46114(19) 0.4954(2) 0.25248(18)
C35 C 0.45890(18) 0.46368(19) 0.32379(17)
C36 C 0.38763(18) 0.48413(19) 0.36928(16)
C37 C 0.30933(19) 0.52979(18) 0.33977(16)
C38 C 0.21664(19) 0.50889(18) 0.37401(16)
C39 C 0.20765(18) 0.44452(19) 0.43355(15)
C40 C 0.11458(18) 0.38590(19) 0.44866(15)
C41 C 0.02775(18) 0.39891(19) 0.40845(15)
C42 C -0.06711(18) 0.31170(19) 0.38993(16)
C43 C -0.03501(17) 0.21210(19) 0.37887(15)
C44 C -0.08250(17) 0.14122(19) 0.31615(15)
C45 C -0.16892(18) 0.15953(19) 0.25672(16)
C46 C -0.14724(18) 0.1328(2) 0.17569(16)
C47 C -0.10342(19) 0.0575(2) 0.15921(16)
C48 C -0.0422(2) 0.0662(2) 0.09887(16)
C49 C -0.0188(2) 0.1513(2) 0.05839(15)
C50 C 0.0756(2) 0.1732(2) 0.02389(16)
C51 C 0.1392(2) 0.1060(2) 0.03375(16)
C52 C 0.2457(2) 0.1355(2) 0.03361(16)
C53 C 0.2886(2) 0.2298(2) 0.01882(16)
C54 C 0.3962(2) 0.2860(2) 0.05335(17)
C55 C 0.3840(2) 0.3930(2) 0.05870(18)
C56 C 0.4280(2) 0.4608(2) 0.11881(18)
C57 C 0.3785(2) 0.5358(2) 0.14156(18)
C58 C 0.3918(2) 0.5501(2) 0.22436(17)
C59 C 0.31129(19) 0.56317(19) 0.26507(17)
C60 C 0.2179(2) 0.57655(19) 0.22226(17)
C61 C 0.1283(2) 0.55695(19) 0.25457(17)
C62 C 0.12573(19) 0.52237(18) 0.33158(16)
C63 C 0.03271(19) 0.4693(2) 0.35470(16)
C64 C -0.05856(19) 0.4384(2) 0.29908(17)
C65 C -0.11208(18) 0.3405(2) 0.31375(17)
C66 C -0.15713(18) 0.2716(2) 0.25360(17)
C67 C -0.14789(19) 0.2990(2) 0.17787(17)
C68 C -0.1331(2) 0.2165(2) 0.13176(17)
C69 C -0.0656(2) 0.2315(2) 0.07542(16)
C70 C -0.0181(2) 0.3331(2) 0.06047(17)
C71 C 0.0746(2) 0.3543(2) 0.02701(17)
C72 C 0.1214(2) 0.2729(2) 0.00786(16)
C73 C 0.2264(2) 0.2971(2) 0.00189(16)
C74 C 0.2882(2) 0.3961(2) 0.02041(17)
C75 C 0.2434(2) 0.4725(2) 0.03993(17)
C76 C 0.2922(2) 0.5455(2) 0.10003(18)
C77 C 0.2169(2) 0.5932(2) 0.13550(18)
C78 C 0.1178(2) 0.5277(2) 0.09174(18)
C79 C 0.0312(2) 0.5080(2) 0.12287(17)
C80 C 0.0255(2) 0.5503(2) 0.20349(17)
C81 C -0.0590(2) 0.4677(2) 0.22704(18)
C82 C -0.1015(2) 0.3952(2) 0.16420(18)
C83 C -0.0402(2) 0.4132(2) 0.10357(18)
C84 C 0.1368(2) 0.4535(2) 0.03959(17)
C85 C 0.48241(19) 0.1136(2) 0.40448(17)
C86 C 0.20242(19) 0.0502(2) 0.50553(16)
C87 C 0.60425(19) 0.3983(2) 0.38591(18)
C88 C 0.1107(2) 0.2862(2) 0.56707(16)
C89 C -0.1411(2) -0.1051(2) 0.22588(17)
C90 C 0.3508(2) 0.0047(2) 0.05111(19)
C91 C 0.6068(2) 0.4761(2) 0.1781(2)
C92 C -0.14019(19) 0.3055(2) 0.45019(17)
C93 C -0.27808(19) 0.1043(2) 0.27107(17)
C94 C 0.4776(3) 0.2736(3) 0.0004(2)
C95 C 0.2435(3) 0.7065(3) 0.1222(2)
C96 C -0.0081(2) 0.6500(2) 0.2066(2)
C97 C 0.4137(3) -0.2030(3) 0.3525(2)
C98 C 0.4460(3) -0.1678(3) 0.2846(3)
H1 H 0.4082 -0.1306 0.2550
C99 C 0.5315(3) -0.1859(3) 0.2598(3)
H2 H 0.5524 -0.1608 0.2135
C100 C 0.5877(3) -0.2410(3) 0.3021(3)
H3 H 0.6461 -0.2547 0.2845
C101 C 0.5579(3) -0.2749(3) 0.3692(3)
H4 H 0.5963 -0.3119 0.3986
C102 C 0.4731(3) -0.2561(3) 0.3944(3)
H5 H 0.4542 -0.2797 0.4416
C103 C 0.3183(3) -0.1871(3) 0.3802(3)
H6 H 0.2886 -0.2437 0.4083
H7 H 0.2698 -0.1819 0.3360
H8 H 0.3347 -0.1252 0.4144
F37? F 0.2440(19) 0.7108(17) 0.0445(15)
F38? F 0.175(2) 0.7479(15) 0.135(2)
F39? F 0.333(2) 0.7538(17) 0.158(2)
F40? F -0.085(2) 0.6394(14) 0.2528(18)
F41? F 0.052(2) 0.7215(19) 0.232(3)
F42? F -0.037(3) 0.681(2) 0.1476(17)
loop_
_geom_bond_atom_site_label_1
_geom_bond_atom_site_label_2
_geom_bond_site_symmetry_1
_geom_bond_site_symmetry_2
F1 C85 1_555 1_555
F2 C85 1_555 1_555
F3 C85 1_555 1_555
F4 C86 1_555 1_555
F5 C86 1_555 1_555
F6 C86 1_555 1_555
F7 C87 1_555 1_555
F8 C87 1_555 1_555
F9 C87 1_555 1_555
F10 C88 1_555 1_555
F11 C88 1_555 1_555
F12 C88 1_555 1_555
F13 C89 1_555 1_555
F14 C89 1_555 1_555
F15 C89 1_555 1_555
F16 C90 1_555 1_555
F17 C90 1_555 1_555
F18 C90 1_555 1_555
F19 C91 1_555 1_555
F20 C91 1_555 1_555
F21 C91 1_555 1_555
F22 C92 1_555 1_555
F23 C92 1_555 1_555
F24 C92 1_555 1_555
F25 C93 1_555 1_555
F26 C93 1_555 1_555
F27 C93 1_555 1_555
F28 C94 1_555 1_555
F29 C94 1_555 1_555
F30 C94 1_555 1_555
F31 C95 1_555 1_555
F32 C95 1_555 1_555
F33 C95 1_555 1_555
F34 C96 1_555 1_555
F35 C96 1_555 1_555
F36 C96 1_555 1_555
C1 C2 1_555 1_555
C2 C3 1_555 1_555
C3 C4 1_555 1_555
C4 C5 1_555 1_555
C5 C6 1_555 1_555
C6 C1 1_555 1_555
C7 C6 1_555 1_555
C8 C7 1_555 1_555
C9 C8 1_555 1_555
C10 C1 1_555 1_555
C11 C10 1_555 1_555
C12 C2 1_555 1_555
C13 C12 1_555 1_555
C14 C13 1_555 1_555
C15 C3 1_555 1_555
C16 C15 1_555 1_555
C17 C16 1_555 1_555
C18 C4 1_555 1_555
C19 C18 1_555 1_555
C20 C19 1_555 1_555
C21 C5 1_555 1_555
C22 C7 1_555 1_555
C23 C22 1_555 1_555
C24 C23 1_555 1_555
C25 C8 1_555 1_555
C26 C25 1_555 1_555
C27 C26 1_555 1_555
C28 C9 1_555 1_555
C29 C28 1_555 1_555
C30 C11 1_555 1_555
C31 C30 1_555 1_555
C32 C13 1_555 1_555
C33 C32 1_555 1_555
C34 C33 1_555 1_555
C35 C14 1_555 1_555
C36 C16 1_555 1_555
C37 C36 1_555 1_555
C38 C37 1_555 1_555
C39 C17 1_555 1_555
C40 C19 1_555 1_555
C41 C40 1_555 1_555
C42 C41 1_555 1_555
C43 C20 1_555 1_555
C44 C23 1_555 1_555
C45 C44 1_555 1_555
C46 C45 1_555 1_555
C47 C24 1_555 1_555
C48 C26 1_555 1_555
C49 C48 1_555 1_555
C50 C49 1_555 1_555
C51 C27 1_555 1_555
C52 C29 1_555 1_555
C53 C52 1_555 1_555
C54 C31 1_555 1_555
C55 C54 1_555 1_555
C56 C33 1_555 1_555
C57 C56 1_555 1_555
C58 C34 1_555 1_555
C59 C37 1_555 1_555
C60 C59 1_555 1_555
C61 C60 1_555 1_555
C62 C38 1_555 1_555
C63 C41 1_555 1_555
C64 C63 1_555 1_555
C65 C42 1_555 1_555
C66 C45 1_555 1_555
C67 C66 1_555 1_555
C68 C46 1_555 1_555
C69 C49 1_555 1_555
C70 C69 1_555 1_555
C71 C70 1_555 1_555
C72 C50 1_555 1_555
C73 C53 1_555 1_555
C74 C55 1_555 1_555
C75 C74 1_555 1_555
C76 C57 1_555 1_555
C77 C60 1_555 1_555
C78 C77 1_555 1_555
C79 C78 1_555 1_555
C80 C61 1_555 1_555
C81 C64 1_555 1_555
C82 C67 1_555 1_555
C83 C70 1_555 1_555
C84 C71 1_555 1_555
C85 C2 1_555 1_555
C86 C5 1_555 1_555
C87 C14 1_555 1_555
C88 C19 1_555 1_555
C89 C24 1_555 1_555
C90 C29 1_555 1_555
C91 C33 1_555 1_555
C92 C42 1_555 1_555
C93 C45 1_555 1_555
C94 C54 1_555 1_555
C95 C77 1_555 1_555
C96 C80 1_555 1_555
C97 C98 1_555 1_555
C98 H1 1_555 1_555
C99 C98 1_555 1_555
H2 C99 1_555 1_555
C100 C99 1_555 1_555
H3 C100 1_555 1_555
C101 C100 1_555 1_555
H4 C101 1_555 1_555
C102 C97 1_555 1_555
H5 C102 1_555 1_555
C103 C97 1_555 1_555
H6 C103 1_555 1_555
H7 C103 1_555 1_555
H8 C103 1_555 1_555
C9 C10 1_555 1_555
C11 C12 1_555 1_555
C14 C15 1_555 1_555
C17 C18 1_555 1_555
C20 C21 1_555 1_555
C21 C22 1_555 1_555
C24 C25 1_555 1_555
C27 C28 1_555 1_555
C29 C30 1_555 1_555
C31 C32 1_555 1_555
C34 C35 1_555 1_555
C35 C36 1_555 1_555
C38 C39 1_555 1_555
C39 C40 1_555 1_555
C42 C43 1_555 1_555
C43 C44 1_555 1_555
C46 C47 1_555 1_555
C47 C48 1_555 1_555
C50 C51 1_555 1_555
C51 C52 1_555 1_555
C53 C54 1_555 1_555
C55 C56 1_555 1_555
C57 C58 1_555 1_555
C58 C59 1_555 1_555
C61 C62 1_555 1_555
C62 C63 1_555 1_555
C64 C65 1_555 1_555
C65 C66 1_555 1_555
C67 C68 1_555 1_555
C68 C69 1_555 1_555
C71 C72 1_555 1_555
C72 C73 1_555 1_555
C73 C74 1_555 1_555
C75 C76 1_555 1_555
C75 C84 1_555 1_555
C76 C77 1_555 1_555
C78 C84 1_555 1_555
C79 C80 1_555 1_555
C79 C83 1_555 1_555
C80 C81 1_555 1_555
C81 C82 1_555 1_555
C82 C83 1_555 1_555
C101 C102 1_555 1_555

#END
