
#######################################################################
#
#                 Cambridge Crystallographic Data Centre
#                                CCDC 
#
#######################################################################
#
# If this CIF has been generated from an entry in the Cambridge 
# Structural Database, then it will include bibliographic, chemical, 
# crystal, experimental, refinement or atomic coordinate data resulting 
# from the CCDC's data processing and validation procedures.
#
#######################################################################

data_RUPREA
_chemical_compound_source        
'natural Tricholomalide B isolated from mushroom Tricholoma sp'
_chemical_name_common            'Tricholomalide A'
_chemical_formula_moiety         'C20 H28 O5'
_chemical_name_systematic        
3a-Hydroxy-8-isopropyl-3b,7a-dimethyl-3-methylenedodecahydrofuro[3',2':6,7]azuleno[4,5-b]furan-5,10-dione
_chemical_properties_biological  
'Tricholomalide A from natural sources exhibits neurotrophic activity'
_symmetry_cell_setting           monoclinic
_symmetry_space_group_name_H-M   'C 2/c'
_symmetry_Int_Tables_number      15
_space_group_name_Hall           '-C 2yn'
loop_
_symmetry_equiv_pos_site_id
_symmetry_equiv_pos_as_xyz
1 x,y,z
2 -x,y,1/2-z
3 1/2+x,1/2+y,z
4 1/2-x,1/2+y,1/2-z
5 -x,-y,-z
6 x,-y,1/2+z
7 1/2-x,1/2-y,-z
8 1/2+x,1/2-y,1/2+z
_cell_length_a                   33.206(3)
_cell_length_b                   6.6255(6)
_cell_length_c                   19.8029(19)
_cell_angle_alpha                90
_cell_angle_beta                 124.831(1)
_cell_angle_gamma                90
_cell_volume                     3576.21
_exptl_crystal_colour            colorless
_exptl_crystal_description       plate
_chemical_melting_point          '194-197 deg.C (dec)'
_cell_formula_units_Z            8
loop_
_atom_site_label
_atom_site_type_symbol
_atom_site_fract_x
_atom_site_fract_y
_atom_site_fract_z
O1 O 0.23106(6) 0.4036(3) 0.21519(10)
O2 O 0.02619(6) 0.2101(3) 0.01772(10)
O3 O 0.27361(7) 0.4735(3) 0.16262(11)
O4 O -0.00575(6) 0.3562(3) 0.12359(11)
O5 O 0.09460(6) 0.5473(2) 0.02179(10)
H1 H 0.0673 0.5678 -0.0227
C1 C 0.23484(10) 0.4316(4) 0.15193(17)
C2 C 0.18572(9) 0.4004(4) 0.07202(16)
H2 H 0.1890 0.3198 0.0333
H3 H 0.1703 0.5314 0.0460
C3 C 0.15553(9) 0.2870(4) 0.09581(15)
C4 C 0.10027(9) 0.3365(4) 0.04049(15)
C5 C 0.07088(9) 0.2132(4) -0.03848(15)
C6 C 0.03349(10) 0.0957(4) -0.03582(16)
H4 H 0.0026 0.0842 -0.0914
H5 H 0.0457 -0.0415 -0.0136
C7 C 0.07418(9) 0.2768(4) 0.08290(15)
H6 H 0.0922 0.1610 0.1209
C8 C 0.06843(9) 0.4422(4) 0.13005(15)
H7 H 0.0514 0.5616 0.0936
C9 C 0.03890(10) 0.3593(4) 0.16095(16)
C10 C 0.07315(9) 0.2830(4) 0.24726(15)
H8 H 0.0701 0.1348 0.2491
H9 H 0.0656 0.3465 0.2840
C11 C 0.12571(9) 0.3406(4) 0.27438(15)
H10 H 0.1397 0.2208 0.2640
C12 C 0.11702(9) 0.5094(4) 0.21160(15)
C13 C 0.16020(9) 0.5416(4) 0.20347(15)
H11 H 0.1496 0.6401 0.1586
H12 H 0.1875 0.6044 0.2550
C14 C 0.18036(9) 0.3570(4) 0.18641(15)
H13 H 0.1808 0.2410 0.2192
C15 C 0.16467(10) 0.0591(4) 0.09700(17)
H14 H 0.1502 0.0116 0.0407
H15 H 0.1496 -0.0127 0.1206
H16 H 0.2001 0.0330 0.1305
C16 C 0.07482(10) 0.2214(4) -0.10085(17)
H17 H 0.0526 0.1482 -0.1498
H18 H 0.0999 0.3007 -0.0970
C17 C 0.15891(9) 0.3850(4) 0.36724(15)
H19 H 0.1430 0.4942 0.3791
C18 C 0.16183(10) 0.1960(4) 0.41450(16)
H20 H 0.1822 0.2244 0.4737
H21 H 0.1764 0.0851 0.4026
H22 H 0.1288 0.1577 0.3975
C19 C 0.21087(9) 0.4540(4) 0.39996(16)
H23 H 0.2285 0.4858 0.4586
H24 H 0.2094 0.5745 0.3699
H25 H 0.2281 0.3460 0.3923
C20 C 0.10682(10) 0.7134(4) 0.23606(16)
H26 H 0.1013 0.8167 0.1962
H27 H 0.1351 0.7517 0.2909
H28 H 0.0776 0.7018 0.2367
loop_
_geom_bond_atom_site_label_1
_geom_bond_atom_site_label_2
_geom_bond_site_symmetry_1
_geom_bond_site_symmetry_2
O1 C1 1_555 1_555
O2 C6 1_555 1_555
O3 C1 1_555 1_555
O4 C9 1_555 1_555
O5 H1 1_555 1_555
C1 C2 1_555 1_555
C2 H2 1_555 1_555
H3 C2 1_555 1_555
C3 C2 1_555 1_555
C4 O5 1_555 1_555
C5 C4 1_555 1_555
C6 C5 1_555 1_555
H4 C6 1_555 1_555
H5 C6 1_555 1_555
C7 O2 1_555 1_555
H6 C7 1_555 1_555
C8 C7 1_555 1_555
H7 C8 1_555 1_555
C9 C8 1_555 1_555
C10 C9 1_555 1_555
H8 C10 1_555 1_555
H9 C10 1_555 1_555
C11 C10 1_555 1_555
H10 C11 1_555 1_555
C12 C8 1_555 1_555
C13 C12 1_555 1_555
H11 C13 1_555 1_555
H12 C13 1_555 1_555
C14 O1 1_555 1_555
H13 C14 1_555 1_555
C15 C3 1_555 1_555
H14 C15 1_555 1_555
H15 C15 1_555 1_555
H16 C15 1_555 1_555
C16 C5 1_555 1_555
H17 C16 1_555 1_555
H18 C16 1_555 1_555
C17 C11 1_555 1_555
H19 C17 1_555 1_555
C18 C17 1_555 1_555
H20 C18 1_555 1_555
H21 C18 1_555 1_555
H22 C18 1_555 1_555
C19 C17 1_555 1_555
H23 C19 1_555 1_555
H24 C19 1_555 1_555
H25 C19 1_555 1_555
C20 C12 1_555 1_555
H26 C20 1_555 1_555
H27 C20 1_555 1_555
H28 C20 1_555 1_555
C3 C4 1_555 1_555
C3 C14 1_555 1_555
C4 C7 1_555 1_555
C11 C12 1_555 1_555
C13 C14 1_555 1_555

#END
