
#######################################################################
#
#                 Cambridge Crystallographic Data Centre
#                                CCDC 
#
#######################################################################
#
# If this CIF has been generated from an entry in the Cambridge 
# Structural Database, then it will include bibliographic, chemical, 
# crystal, experimental, refinement or atomic coordinate data resulting 
# from the CCDC's data processing and validation procedures.
#
#######################################################################

data_RUPYOQ
_chemical_formula_moiety         'C15 H17 Cl2 F2 N1 S1'
_chemical_name_systematic        
cis-3,3-Dichloro-2,2-difluoro-4a-(2-pyridylthio)decahydronaphthalene
_symmetry_cell_setting           monoclinic
_symmetry_space_group_name_H-M   'P 21/c'
_symmetry_Int_Tables_number      14
_space_group_name_Hall           '-P 2ybc'
loop_
_symmetry_equiv_pos_site_id
_symmetry_equiv_pos_as_xyz
1 x,y,z
2 -x,1/2+y,1/2-z
3 -x,-y,-z
4 x,1/2-y,1/2+z
_cell_length_a                   7.786(2)
_cell_length_b                   12.882(2)
_cell_length_c                   15.897(2)
_cell_angle_alpha                90
_cell_angle_beta                 102.63(2)
_cell_angle_gamma                90
_cell_volume                     1555.88
_exptl_crystal_colour            colorless
_exptl_crystal_description       plate
_chemical_melting_point          94-96deg.C
_cell_formula_units_Z            4
loop_
_atom_site_label
_atom_site_type_symbol
_atom_site_fract_x
_atom_site_fract_y
_atom_site_fract_z
S1 S 0.2094(1) 0.17879(6) 0.97447(5)
Cl1 Cl -0.0922(1) 0.48538(6) 1.11330(5)
Cl2 Cl 0.2013(1) 0.41227(6) 1.24073(5)
C1 C 0.2005(3) 0.2242(2) 1.0847(2)
C2 C 0.1163(4) 0.3337(2) 1.0740(2)
C3 C 0.0376(3) 0.3726(2) 1.1481(2)
F1 F -0.2206(2) 0.2762(1) 1.1103(1)
F2 F -0.1391(3) 0.3202(1) 1.2444(1)
C4 C 0.3839(3) 0.2237(2) 1.1442(2)
N1 N 0.3949(3) 0.3482(2) 0.9506(2)
C5 C 0.0777(3) 0.1440(2) 1.1144(2)
C6 C 0.3926(3) 0.2448(2) 0.9496(2)
C7 C -0.0802(4) 0.2897(2) 1.1785(2)
C8 C 0.6613(4) 0.3426(3) 0.8993(2)
C9 C 0.1642(4) 0.0368(2) 1.1329(2)
C10 C 0.5221(4) 0.1861(3) 0.9256(2)
C11 C 0.4647(4) 0.1155(2) 1.1591(2)
C12 C 0.3426(4) 0.0418(2) 1.1936(2)
C13 C 0.0178(4) 0.1866(2) 1.1944(2)
C14 C 0.5294(5) 0.3947(3) 0.9265(2)
C15 C 0.6583(4) 0.2367(3) 0.8993(2)
H1 H 0.203(4) 0.393(2) 1.064(2)
H2 H 0.022(4) 0.322(2) 1.031(2)
H3 H 0.454(4) 0.270(2) 1.120(2)
H4 H 0.358(3) 0.261(2) 1.209(2)
H5 H -0.026(4) 0.138(2) 1.073(2)
H6 H 0.751(5) 0.379(3) 0.887(2)
H7 H 0.099(5) -0.006(3) 1.158(2)
H8 H 0.182(4) 0.003(2) 1.078(2)
H9 H 0.514(4) 0.116(3) 0.928(2)
H10 H 0.489(4) 0.092(2) 1.100(2)
H11 H 0.573(4) 0.113(2) 1.204(2)
H12 H 0.324(4) 0.069(2) 1.250(2)
H13 H 0.399(4) -0.027(3) 1.208(2)
H14 H -0.078(5) 0.137(3) 1.217(2)
H15 H 0.118(5) 0.198(2) 1.247(2)
H16 H 0.521(5) 0.460(3) 0.924(2)
H17 H 0.753(6) 0.199(3) 0.885(3)
loop_
_geom_bond_atom_site_label_1
_geom_bond_atom_site_label_2
_geom_bond_site_symmetry_1
_geom_bond_site_symmetry_2
S1 C1 1_555 1_555
Cl1 C3 1_555 1_555
Cl2 C3 1_555 1_555
C1 C2 1_555 1_555
C2 C3 1_555 1_555
C3 C7 1_555 1_555
F1 C7 1_555 1_555
F2 C7 1_555 1_555
C4 C1 1_555 1_555
N1 C6 1_555 1_555
C5 C1 1_555 1_555
C6 S1 1_555 1_555
C7 C13 1_555 1_555
C8 C14 1_555 1_555
C9 C5 1_555 1_555
C10 C6 1_555 1_555
C11 C4 1_555 1_555
C12 C9 1_555 1_555
C13 C5 1_555 1_555
C14 N1 1_555 1_555
C15 C8 1_555 1_555
H1 C2 1_555 1_555
H2 C2 1_555 1_555
H3 C4 1_555 1_555
H4 C4 1_555 1_555
H5 C5 1_555 1_555
H6 C8 1_555 1_555
H7 C9 1_555 1_555
H8 C9 1_555 1_555
H9 C10 1_555 1_555
H10 C11 1_555 1_555
H11 C11 1_555 1_555
H12 C12 1_555 1_555
H13 C12 1_555 1_555
H14 C13 1_555 1_555
H15 C13 1_555 1_555
H16 C14 1_555 1_555
H17 C15 1_555 1_555
C10 C15 1_555 1_555
C11 C12 1_555 1_555

#END
