
#######################################################################
#
#                 Cambridge Crystallographic Data Centre
#                                CCDC 
#
#######################################################################
#
# If this CIF has been generated from an entry in the Cambridge 
# Structural Database, then it will include bibliographic, chemical, 
# crystal, experimental, refinement or atomic coordinate data resulting 
# from the CCDC's data processing and validation procedures.
#
#######################################################################

data_RURDAK
_chemical_formula_moiety         'C14 H18 O6'
_chemical_name_systematic        
(3aR*,4S*,8R*,8aS*,9R*)-5,5-dimethoxy-4-methyl-1,6-dioxo-octahydro-1H-4,8-methanocyclohepta[c]furan-9-carbaldehyde
_symmetry_cell_setting           monoclinic
_symmetry_space_group_name_H-M   'P 21/c'
_symmetry_Int_Tables_number      14
_space_group_name_Hall           '-P 2ybc'
loop_
_symmetry_equiv_pos_site_id
_symmetry_equiv_pos_as_xyz
1 x,y,z
2 -x,1/2+y,1/2-z
3 -x,-y,-z
4 x,1/2-y,1/2+z
_cell_length_a                   13.1432(17)
_cell_length_b                   11.6680(15)
_cell_length_c                   8.8780(12)
_cell_angle_alpha                90
_cell_angle_beta                 100.331(2)
_cell_angle_gamma                90
_cell_volume                     1339.41
_exptl_crystal_colour            colorless
_exptl_crystal_description       columnar
_cell_formula_units_Z            4
loop_
_atom_site_label
_atom_site_type_symbol
_atom_site_fract_x
_atom_site_fract_y
_atom_site_fract_z
O1 O -0.01346(18) 1.0931(2) 0.3775(3)
O2 O 0.0737(2) 1.1852(3) 0.5746(3)
O3 O 0.3490(2) 1.1555(2) 0.1066(3)
O4 O 0.34662(16) 0.88169(19) 0.2059(3)
O5 O 0.23125(18) 0.9667(2) 0.0053(2)
O6 O 0.38914(19) 0.9005(2) 0.5790(3)
C1 C 0.1180(2) 1.0649(3) 0.2240(4)
H1 H 0.1254 1.1018 0.1274
C2 C 0.0034(3) 1.0518(4) 0.2324(4)
H2 H -0.0384 1.0951 0.1506
H3 H -0.0166 0.9718 0.2205
C3 C 0.0713(3) 1.1466(3) 0.4493(4)
C4 C 0.1587(3) 1.1446(3) 0.3586(4)
H4 H 0.1725 1.2215 0.3227
C5 C 0.2580(2) 1.0890(3) 0.4459(3)
H5 H 0.2706 1.1102 0.5544
C6 C 0.3505(3) 1.1187(3) 0.3701(4)
H6 H 0.3654 1.1999 0.3828
H7 H 0.4108 1.0767 0.4205
C7 C 0.3301(2) 1.0899(3) 0.2025(4)
C8 C 0.2776(2) 0.9730(3) 0.1597(3)
C9 C 0.1876(2) 0.9558(2) 0.2498(3)
C10 C 0.2314(2) 0.9629(2) 0.4236(3)
H8 H 0.1724 0.9500 0.4750
C11 C 0.4536(2) 0.8904(4) 0.1933(5)
H9 H 0.4886 0.8206 0.2289
H10 H 0.4846 0.9534 0.2544
H11 H 0.4592 0.9029 0.0883
C12 C 0.2909(3) 0.9671(4) -0.1131(4)
H12 H 0.2457 0.9625 -0.2106
H13 H 0.3369 0.9026 -0.1007
H14 H 0.3304 1.0367 -0.1079
C13 C 0.1321(3) 0.8427(3) 0.2035(4)
H15 H 0.1806 0.7806 0.2234
H16 H 0.1030 0.8445 0.0963
H17 H 0.0780 0.8318 0.2616
C14 C 0.3119(3) 0.8771(3) 0.4909(4)
H18 H 0.3011 0.8008 0.4622
loop_
_geom_bond_atom_site_label_1
_geom_bond_atom_site_label_2
_geom_bond_site_symmetry_1
_geom_bond_site_symmetry_2
O1 C2 1_555 1_555
O2 C3 1_555 1_555
O3 C7 1_555 1_555
O4 C8 1_555 1_555
O5 C8 1_555 1_555
O6 C14 1_555 1_555
C1 H1 1_555 1_555
C2 C1 1_555 1_555
H2 C2 1_555 1_555
H3 C2 1_555 1_555
C3 O1 1_555 1_555
C4 C1 1_555 1_555
H4 C4 1_555 1_555
C5 C4 1_555 1_555
H5 C5 1_555 1_555
C6 C5 1_555 1_555
H6 C6 1_555 1_555
H7 C6 1_555 1_555
C7 C6 1_555 1_555
C8 C7 1_555 1_555
C9 C1 1_555 1_555
C10 C5 1_555 1_555
H8 C10 1_555 1_555
C11 O4 1_555 1_555
H9 C11 1_555 1_555
H10 C11 1_555 1_555
H11 C11 1_555 1_555
C12 O5 1_555 1_555
H12 C12 1_555 1_555
H13 C12 1_555 1_555
H14 C12 1_555 1_555
C13 C9 1_555 1_555
H15 C13 1_555 1_555
H16 C13 1_555 1_555
H17 C13 1_555 1_555
C14 C10 1_555 1_555
H18 C14 1_555 1_555
C3 C4 1_555 1_555
C8 C9 1_555 1_555
C9 C10 1_555 1_555

#END
