
#######################################################################
#
#                 Cambridge Crystallographic Data Centre
#                                CCDC 
#
#######################################################################
#
# If this CIF has been generated from an entry in the Cambridge 
# Structural Database, then it will include bibliographic, chemical, 
# crystal, experimental, refinement or atomic coordinate data resulting 
# from the CCDC's data processing and validation procedures.
#
#######################################################################

data_RUSFIV
_chemical_formula_moiety         'C56 H37 Cl1 I2 O1'
_chemical_name_systematic        
7-Chloro-15',16'-bis(iodomethyl)-14c',16a'-dimethyl-2,9'-diphenyl-14c',15',16',16a'-tetrahydro-14'H-spiro[cyclobuta[a]indene-1,1'-diindeno[2,1-a:1',2'-j]fluoranthen]-14'-one
_symmetry_cell_setting           orthorhombic
_symmetry_space_group_name_H-M   'P b c n'
_symmetry_Int_Tables_number      60
_space_group_name_Hall           '-P 2n 2ab'
loop_
_symmetry_equiv_pos_site_id
_symmetry_equiv_pos_as_xyz
1 x,y,z
2 1/2-x,1/2-y,1/2+z
3 -x,y,1/2-z
4 1/2+x,1/2-y,-z
5 -x,-y,-z
6 1/2+x,1/2+y,1/2-z
7 x,-y,1/2+z
8 1/2-x,1/2+y,z
_cell_length_a                   32.948(3)
_cell_length_b                   17.014(1)
_cell_length_c                   31.987(2)
_cell_angle_alpha                90
_cell_angle_beta                 90
_cell_angle_gamma                90
_cell_volume                     17931.2
_exptl_crystal_colour            'bright yellow'
_chemical_melting_point          'decomposes at 225deg.C'
_cell_formula_units_Z            16
_exptl_crystal_recrystallization_method dichloromethane/hexanes
loop_
_atom_site_label
_atom_site_type_symbol
_atom_site_fract_x
_atom_site_fract_y
_atom_site_fract_z
I1 I 0.47928(2) 0.96615(4) 0.185888(19)
I2 I 0.52366(2) 0.97048(4) 0.05776(2)
Cl1 Cl 0.59525(8) 0.76145(19) 0.30726(6)
O1 O 0.42425(17) 0.8507(4) 0.07028(16)
C1 C 0.5251(2) 0.8155(4) 0.1615(2)
H1 H 0.5001 0.7966 0.1747
C2 C 0.5572(2) 0.7515(4) 0.17204(18)
C3 C 0.6024(2) 0.7747(4) 0.18491(18)
C4 C 0.6095(2) 0.8164(5) 0.2267(2)
C5 C 0.6134(2) 0.8222(5) 0.2685(2)
C6 C 0.6384(2) 0.8914(5) 0.2776(2)
C7 C 0.6493(3) 0.9220(7) 0.3160(3)
H2 H 0.6400 0.9009 0.3410
C8 C 0.6755(3) 0.9881(7) 0.3144(3)
H3 H 0.6838 1.0104 0.3396
C9 C 0.6895(4) 1.0211(7) 0.2779(3)
H4 H 0.7069 1.0642 0.2783
C10 C 0.6769(3) 0.9884(6) 0.2405(3)
H5 H 0.6857 1.0103 0.2154
C11 C 0.6522(2) 0.9255(5) 0.2395(2)
C12 C 0.6329(2) 0.8764(5) 0.2073(2)
C13 C 0.6281(2) 0.8457(4) 0.1680(2)
C14 C 0.6486(2) 0.8611(4) 0.12801(19)
C15 C 0.6728(3) 0.9282(5) 0.1239(3)
H6 H 0.6740 0.9639 0.1459
C16 C 0.6946(3) 0.9428(6) 0.0881(3)
H7 H 0.7102 0.9882 0.0859
C17 C 0.6933(3) 0.8891(7) 0.0554(3)
H8 H 0.7082 0.8979 0.0312
C18 C 0.6699(3) 0.8231(7) 0.0593(2)
H9 H 0.6689 0.7874 0.0373
C19 C 0.6479(2) 0.8082(5) 0.0950(2)
H10 H 0.6326 0.7625 0.0970
C20 C 0.6246(2) 0.6971(4) 0.17896(19)
C21 C 0.6596(2) 0.6711(5) 0.1977(2)
H11 H 0.6735 0.7025 0.2167
C22 C 0.6735(3) 0.5974(5) 0.1877(2)
H12 H 0.6974 0.5793 0.1998
C23 C 0.6530(3) 0.5495(5) 0.1602(2)
H13 H 0.6627 0.4994 0.1544
C24 C 0.6168(2) 0.5769(4) 0.1405(2)
H14 H 0.6027 0.5450 0.1219
C25 C 0.6032(2) 0.6506(4) 0.1496(2)
C26 C 0.5659(2) 0.6935(4) 0.13665(19)
C27 C 0.5454(2) 0.6919(4) 0.10053(19)
C28 C 0.5554(2) 0.6598(4) 0.05874(19)
C29 C 0.5864(2) 0.6133(5) 0.0431(2)
H15 H 0.6059 0.5920 0.0608
C30 C 0.5875(3) 0.5992(5) -0.0001(2)
H16 H 0.6079 0.5668 -0.0104
C31 C 0.5606(2) 0.6299(5) -0.0278(2)
H17 H 0.5630 0.6187 -0.0562
C32 C 0.5288(2) 0.6792(4) -0.01343(19)
C33 C 0.5276(2) 0.6922(4) 0.03004(19)
C34 C 0.4997(2) 0.7191(4) -0.0394(2)
C35 C 0.5033(2) 0.7152(5) -0.0864(2)
C36 C 0.5153(3) 0.7807(6) -0.1084(2)
H18 H 0.5212 0.8277 -0.0949
C37 C 0.5183(3) 0.7742(10) -0.1515(3)
H19 H 0.5274 0.8175 -0.1666
C38 C 0.5090(4) 0.7097(12) -0.1719(3)
H20 H 0.5100 0.7092 -0.2009
C39 C 0.4978(3) 0.6433(9) -0.1506(3)
H21 H 0.4921 0.5970 -0.1649
C40 C 0.4950(3) 0.6465(6) -0.1071(2)
H22 H 0.4876 0.6019 -0.0921
C41 C 0.4705(2) 0.7642(4) -0.01947(19)
C42 C 0.43593(19) 0.8104(4) -0.0375(2)
C43 C 0.4213(2) 0.8188(5) -0.0771(2)
H23 H 0.4343 0.7941 -0.0994
C44 C 0.3874(3) 0.8637(6) -0.0842(3)
H24 H 0.3774 0.8687 -0.1112
C45 C 0.3680(3) 0.9015(6) -0.0517(3)
H25 H 0.3453 0.9325 -0.0573
C46 C 0.3814(2) 0.8942(5) -0.0115(3)
H26 H 0.3681 0.9188 0.0105
C47 C 0.4159(2) 0.8483(4) -0.0048(2)
C48 C 0.4350(2) 0.8285(4) 0.0357(2)
C49 C 0.4697(2) 0.7763(4) 0.02462(19)
C50 C 0.49842(19) 0.7407(4) 0.04967(18)
C51 C 0.5060(2) 0.7409(4) 0.09622(19)
C52 C 0.5139(2) 0.8235(4) 0.11465(19)
H27 H 0.4886 0.8535 0.1128
C53 C 0.5407(2) 0.7079(5) 0.2106(2)
H28 H 0.5148 0.6852 0.2041
H29 H 0.5378 0.7442 0.2334
H30 H 0.5593 0.6670 0.2185
C54 C 0.4704(2) 0.6971(5) 0.1169(2)
H31 H 0.4460 0.7275 0.1138
H32 H 0.4760 0.6897 0.1461
H33 H 0.4669 0.6469 0.1037
C55 C 0.5334(3) 0.8944(5) 0.1827(2)
H34 H 0.5543 0.9224 0.1673
H35 H 0.5435 0.8852 0.2108
C56 C 0.5460(2) 0.8668(4) 0.0893(2)
H36 H 0.5570 0.8310 0.0685
H37 H 0.5679 0.8819 0.1077
I3 I 0.208927(17) 0.14312(4) 0.181359(16)
I4 I 0.266959(19) 0.07139(3) 0.06651(2)
Cl2 Cl 0.34265(9) 0.39701(15) 0.26349(7)
O2 O 0.15871(15) 0.1849(3) 0.04933(15)
C57 C 0.25667(18) 0.2705(3) 0.13447(17)
H38 H 0.2321 0.2958 0.1453
C58 C 0.29003(18) 0.3357(3) 0.13635(17)
C59 C 0.33549(18) 0.3147(4) 0.14876(16)
C60 C 0.34580(18) 0.2969(4) 0.19498(17)
C61 C 0.3539(2) 0.3147(5) 0.2348(2)
C62 C 0.3779(2) 0.2488(5) 0.25288(19)
C63 C 0.3945(3) 0.2380(6) 0.2920(2)
H39 H 0.3912 0.2754 0.3129
C64 C 0.4169(3) 0.1682(8) 0.2993(3)
H40 H 0.4280 0.1592 0.3256
C65 C 0.4223(3) 0.1152(7) 0.2691(3)
H41 H 0.4374 0.0703 0.2750
C66 C 0.4064(2) 0.1241(5) 0.2296(2)
H42 H 0.4104 0.0861 0.2090
C67 C 0.3843(2) 0.1916(4) 0.22142(18)
C68 C 0.36414(19) 0.2250(4) 0.18419(17)
C69 C 0.35853(18) 0.2342(3) 0.14264(17)
C70 C 0.37407(17) 0.1907(4) 0.10620(18)
C71 C 0.3867(2) 0.1128(4) 0.1116(2)
H43 H 0.3846 0.0897 0.1379
C72 C 0.4021(3) 0.0700(6) 0.0792(3)
H44 H 0.4100 0.0180 0.0833
C73 C 0.4058(3) 0.1044(7) 0.0406(3)
H45 H 0.4161 0.0757 0.0182
C74 C 0.3948(2) 0.1781(6) 0.0352(2)
H46 H 0.3981 0.2005 0.0088
C75 C 0.3785(2) 0.2241(5) 0.06684(19)
H47 H 0.3707 0.2757 0.0618
C76 C 0.35822(18) 0.3851(4) 0.13034(18)
C77 C 0.3955(2) 0.4131(4) 0.1417(2)
H48 H 0.4116 0.3853 0.1604
C78 C 0.4090(2) 0.4835(5) 0.1248(2)
H49 H 0.4345 0.5024 0.1320
C79 C 0.3852(2) 0.5254(4) 0.0980(2)
H50 H 0.3943 0.5736 0.0879
C80 C 0.3475(2) 0.4968(4) 0.0854(2)
H51 H 0.3312 0.5257 0.0674
C81 C 0.33475(18) 0.4240(3) 0.10064(17)
C82 C 0.29649(18) 0.3804(3) 0.09498(17)
C83 C 0.27259(18) 0.3707(3) 0.06110(18)
C84 C 0.27911(17) 0.3926(3) 0.01671(18)
C85 C 0.3042(2) 0.4444(4) -0.0048(2)
H52 H 0.3210 0.4787 0.0097
C86 C 0.3040(2) 0.4444(4) -0.0483(2)
H53 H 0.3205 0.4804 -0.0622
C87 C 0.2811(2) 0.3944(4) -0.07174(19)
H54 H 0.2833 0.3946 -0.1007
C88 C 0.25378(19) 0.3423(4) -0.05192(18)
C89 C 0.25328(19) 0.3437(3) -0.00800(19)
C90 C 0.2265(2) 0.2888(4) -0.07283(18)
C91 C 0.2280(2) 0.2794(4) -0.1190(2)
C92 C 0.2472(3) 0.2156(6) -0.1366(2)
H55 H 0.2592 0.1781 -0.1193
C93 C 0.2490(3) 0.2062(8) -0.1796(3)
H56 H 0.2626 0.1631 -0.1907
C94 C 0.2320(3) 0.2571(9) -0.2049(3)
H57 H 0.2333 0.2496 -0.2336
C95 C 0.2122(4) 0.3211(7) -0.1890(3)
H58 H 0.2004 0.3572 -0.2071
C96 C 0.2097(3) 0.3331(5) -0.1459(2)
H59 H 0.1959 0.3764 -0.1353
C97 C 0.2008(2) 0.2449(4) -0.04856(19)
C98 C 0.1672(2) 0.1905(4) -0.0603(2)
C99 C 0.1521(2) 0.1677(4) -0.0992(2)
H60 H 0.1644 0.1850 -0.1237
C100 C 0.1192(3) 0.1196(4) -0.1006(2)
H61 H 0.1091 0.1043 -0.1265
C101 C 0.1001(3) 0.0924(4) -0.0646(3)
H62 H 0.0775 0.0598 -0.0666
C102 C 0.1149(2) 0.1142(4) -0.0255(3)
H63 H 0.1027 0.0962 -0.0010
C103 C 0.1482(2) 0.1632(4) -0.0242(2)
C104 C 0.1679(2) 0.1970(4) 0.0129(2)
C105 C 0.20028(19) 0.2490(4) -0.00272(18)
C106 C 0.22746(18) 0.2975(3) 0.01664(17)
C107 C 0.23496(17) 0.3170(3) 0.06299(18)
C108 C 0.24510(18) 0.2427(3) 0.08923(16)
H64 H 0.2206 0.2102 0.0911
C109 C 0.2757(2) 0.3948(4) 0.17026(19)
H65 H 0.2964 0.4338 0.1746
H66 H 0.2708 0.3673 0.1960
H67 H 0.2512 0.4199 0.1612
C110 C 0.19753(18) 0.3602(4) 0.0797(2)
H68 H 0.1906 0.4024 0.0611
H69 H 0.2034 0.3811 0.1070
H70 H 0.1752 0.3242 0.0816
C111 C 0.26462(19) 0.2025(4) 0.16423(18)
H71 H 0.2778 0.2222 0.1893
H72 H 0.2829 0.1653 0.1510
C112 C 0.27813(18) 0.1945(3) 0.06879(17)
H73 H 0.3033 0.2034 0.0838
H74 H 0.2819 0.2135 0.0405
loop_
_geom_bond_atom_site_label_1
_geom_bond_atom_site_label_2
_geom_bond_site_symmetry_1
_geom_bond_site_symmetry_2
I1 C55 1_555 1_555
I2 C56 1_555 1_555
I3 C111 1_555 1_555
I4 C112 1_555 1_555
Cl1 C5 1_555 1_555
Cl2 C61 1_555 1_555
O1 C48 1_555 1_555
O2 C104 1_555 1_555
C1 H1 1_555 1_555
C2 C1 1_555 1_555
C3 C2 1_555 1_555
C4 C3 1_555 1_555
C5 C4 1_555 1_555
C6 C5 1_555 1_555
C7 C6 1_555 1_555
H2 C7 1_555 1_555
C8 C7 1_555 1_555
H3 C8 1_555 1_555
C9 C8 1_555 1_555
H4 C9 1_555 1_555
C10 C9 1_555 1_555
H5 C10 1_555 1_555
C11 C6 1_555 1_555
C12 C4 1_555 1_555
C13 C3 1_555 1_555
C14 C13 1_555 1_555
C15 C14 1_555 1_555
H6 C15 1_555 1_555
C16 C15 1_555 1_555
H7 C16 1_555 1_555
C17 C16 1_555 1_555
H8 C17 1_555 1_555
C18 C17 1_555 1_555
H9 C18 1_555 1_555
C19 C14 1_555 1_555
H10 C19 1_555 1_555
C20 C3 1_555 1_555
C21 C20 1_555 1_555
H11 C21 1_555 1_555
C22 C21 1_555 1_555
H12 C22 1_555 1_555
C23 C22 1_555 1_555
H13 C23 1_555 1_555
C24 C23 1_555 1_555
H14 C24 1_555 1_555
C25 C20 1_555 1_555
C26 C2 1_555 1_555
C27 C26 1_555 1_555
C28 C27 1_555 1_555
C29 C28 1_555 1_555
H15 C29 1_555 1_555
C30 C29 1_555 1_555
H16 C30 1_555 1_555
C31 C30 1_555 1_555
H17 C31 1_555 1_555
C32 C31 1_555 1_555
C33 C28 1_555 1_555
C34 C32 1_555 1_555
C35 C34 1_555 1_555
C36 C35 1_555 1_555
H18 C36 1_555 1_555
C37 C36 1_555 1_555
H19 C37 1_555 1_555
C38 C37 1_555 1_555
H20 C38 1_555 1_555
C39 C38 1_555 1_555
H21 C39 1_555 1_555
C40 C35 1_555 1_555
H22 C40 1_555 1_555
C41 C34 1_555 1_555
C42 C41 1_555 1_555
C43 C42 1_555 1_555
H23 C43 1_555 1_555
C44 C43 1_555 1_555
H24 C44 1_555 1_555
C45 C44 1_555 1_555
H25 C45 1_555 1_555
C46 C45 1_555 1_555
H26 C46 1_555 1_555
C47 C42 1_555 1_555
C48 C47 1_555 1_555
C49 C41 1_555 1_555
C50 C33 1_555 1_555
C51 C27 1_555 1_555
C52 C1 1_555 1_555
H27 C52 1_555 1_555
C53 C2 1_555 1_555
H28 C53 1_555 1_555
H29 C53 1_555 1_555
H30 C53 1_555 1_555
C54 C51 1_555 1_555
H31 C54 1_555 1_555
H32 C54 1_555 1_555
H33 C54 1_555 1_555
C55 C1 1_555 1_555
H34 C55 1_555 1_555
H35 C55 1_555 1_555
C56 C52 1_555 1_555
H36 C56 1_555 1_555
H37 C56 1_555 1_555
C57 H38 1_555 1_555
C58 C57 1_555 1_555
C59 C58 1_555 1_555
C60 C59 1_555 1_555
C61 C60 1_555 1_555
C62 C61 1_555 1_555
C63 C62 1_555 1_555
H39 C63 1_555 1_555
C64 C63 1_555 1_555
H40 C64 1_555 1_555
C65 C64 1_555 1_555
H41 C65 1_555 1_555
C66 C65 1_555 1_555
H42 C66 1_555 1_555
C67 C62 1_555 1_555
C68 C60 1_555 1_555
C69 C59 1_555 1_555
C70 C69 1_555 1_555
C71 C70 1_555 1_555
H43 C71 1_555 1_555
C72 C71 1_555 1_555
H44 C72 1_555 1_555
C73 C72 1_555 1_555
H45 C73 1_555 1_555
C74 C73 1_555 1_555
H46 C74 1_555 1_555
C75 C70 1_555 1_555
H47 C75 1_555 1_555
C76 C59 1_555 1_555
C77 C76 1_555 1_555
H48 C77 1_555 1_555
C78 C77 1_555 1_555
H49 C78 1_555 1_555
C79 C78 1_555 1_555
H50 C79 1_555 1_555
C80 C79 1_555 1_555
H51 C80 1_555 1_555
C81 C76 1_555 1_555
C82 C58 1_555 1_555
C83 C82 1_555 1_555
C84 C83 1_555 1_555
C85 C84 1_555 1_555
H52 C85 1_555 1_555
C86 C85 1_555 1_555
H53 C86 1_555 1_555
C87 C86 1_555 1_555
H54 C87 1_555 1_555
C88 C87 1_555 1_555
C89 C84 1_555 1_555
C90 C88 1_555 1_555
C91 C90 1_555 1_555
C92 C91 1_555 1_555
H55 C92 1_555 1_555
C93 C92 1_555 1_555
H56 C93 1_555 1_555
C94 C93 1_555 1_555
H57 C94 1_555 1_555
C95 C94 1_555 1_555
H58 C95 1_555 1_555
C96 C91 1_555 1_555
H59 C96 1_555 1_555
C97 C90 1_555 1_555
C98 C97 1_555 1_555
C99 C98 1_555 1_555
H60 C99 1_555 1_555
C100 C99 1_555 1_555
H61 C100 1_555 1_555
C101 C100 1_555 1_555
H62 C101 1_555 1_555
C102 C101 1_555 1_555
H63 C102 1_555 1_555
C103 C98 1_555 1_555
C104 C103 1_555 1_555
C105 C97 1_555 1_555
C106 C89 1_555 1_555
C107 C83 1_555 1_555
C108 C57 1_555 1_555
H64 C108 1_555 1_555
C109 C58 1_555 1_555
H65 C109 1_555 1_555
H66 C109 1_555 1_555
H67 C109 1_555 1_555
C110 C107 1_555 1_555
H68 C110 1_555 1_555
H69 C110 1_555 1_555
H70 C110 1_555 1_555
C111 C57 1_555 1_555
H71 C111 1_555 1_555
H72 C111 1_555 1_555
C112 C108 1_555 1_555
H73 C112 1_555 1_555
H74 C112 1_555 1_555
C10 C11 1_555 1_555
C11 C12 1_555 1_555
C12 C13 1_555 1_555
C18 C19 1_555 1_555
C24 C25 1_555 1_555
C25 C26 1_555 1_555
C32 C33 1_555 1_555
C39 C40 1_555 1_555
C46 C47 1_555 1_555
C48 C49 1_555 1_555
C49 C50 1_555 1_555
C50 C51 1_555 1_555
C51 C52 1_555 1_555
C66 C67 1_555 1_555
C67 C68 1_555 1_555
C68 C69 1_555 1_555
C74 C75 1_555 1_555
C80 C81 1_555 1_555
C81 C82 1_555 1_555
C88 C89 1_555 1_555
C95 C96 1_555 1_555
C102 C103 1_555 1_555
C104 C105 1_555 1_555
C105 C106 1_555 1_555
C106 C107 1_555 1_555
C107 C108 1_555 1_555

#END
