
#######################################################################
#
#                 Cambridge Crystallographic Data Centre
#                                CCDC 
#
#######################################################################
#
# If this CIF has been generated from an entry in the Cambridge 
# Structural Database, then it will include bibliographic, chemical, 
# crystal, experimental, refinement or atomic coordinate data resulting 
# from the CCDC's data processing and validation procedures.
#
#######################################################################

data_RUVSIM
_chemical_compound_source        'aerial parts of Myrioneuron faberi'
_chemical_name_common            Schoberine
_chemical_formula_moiety         'C15 H26 N2'
_chemical_name_systematic        
dodecahydro-1H,4H,9H-dipyrido[2,1-b:3',2',1'-ij]quinazoline
_chemical_properties_biological  'anti-HCV activity'
_symmetry_cell_setting           monoclinic
_symmetry_space_group_name_H-M   'P 21'
_symmetry_Int_Tables_number      4
_space_group_name_Hall           'P 2yb'
loop_
_symmetry_equiv_pos_site_id
_symmetry_equiv_pos_as_xyz
1 x,y,z
2 -x,1/2+y,-z
_cell_length_a                   9.1535(15)
_cell_length_b                   5.1702(9)
_cell_length_c                   14.568(2)
_cell_angle_alpha                90
_cell_angle_beta                 106.495(2)
_cell_angle_gamma                90
_cell_volume                     661.063
_exptl_crystal_colour            colorless
_exptl_crystal_description       needle
_chemical_melting_point          '342-343 K'
_cell_formula_units_Z            2
_chemical_properties_physical    Efflorescent
_exptl_crystal_recrystallization_method acetone
loop_
_atom_site_label
_atom_site_type_symbol
_atom_site_fract_x
_atom_site_fract_y
_atom_site_fract_z
N1 N 0.55606(10) 0.26045(17) 0.30540(6)
N2 N 0.40753(10) 0.05240(17) 0.15678(6)
C1 C 0.80320(12) 0.0160(2) 0.45100(7)
H1 H 0.7969 -0.1670 0.4302
H2 H 0.8876 0.0321 0.5108
C2 C 0.83470(11) 0.1882(2) 0.37343(7)
H3 H 0.8491 0.3684 0.3993
C3 C 0.69874(11) 0.19324(19) 0.28296(7)
H4 H 0.7189 0.3358 0.2418
C4 C 0.43253(11) 0.2896(2) 0.21680(7)
H5 H 0.4630 0.4304 0.1789
C5 C 0.28412(12) 0.3735(2) 0.23574(8)
H6 H 0.3016 0.5343 0.2742
H7 H 0.2503 0.2379 0.2731
C6 C 0.15962(12) 0.4201(2) 0.14222(8)
H8 H 0.0629 0.4645 0.1561
H9 H 0.1886 0.5667 0.1073
C7 C 0.13832(11) 0.1772(2) 0.08089(8)
H10 H 0.0988 0.0356 0.1129
H11 H 0.0632 0.2106 0.0182
C8 C 0.65352(12) 0.0963(3) 0.46952(7)
H12 H 0.6311 -0.0207 0.5176
H13 H 0.6630 0.2744 0.4955
C9 C 0.52354(11) 0.0851(2) 0.37694(7)
H14 H 0.5118 -0.0940 0.3519
H15 H 0.4270 0.1367 0.3897
C10 C 0.98054(11) 0.1139(2) 0.34748(8)
H16 H 1.0091 0.2577 0.3111
H17 H 1.0642 0.0909 0.4072
C11 C 0.96460(12) -0.1335(2) 0.28807(8)
H18 H 0.9494 -0.2826 0.3270
H19 H 1.0594 -0.1634 0.2697
C12 C 0.82966(12) -0.1138(2) 0.19779(7)
H20 H 0.8491 0.0255 0.1561
H21 H 0.8187 -0.2785 0.1618
C13 C 0.68206(11) -0.0562(2) 0.22341(7)
H22 H 0.6595 -0.2034 0.2618
C14 C 0.54821(11) -0.0204(2) 0.13416(7)
H23 H 0.5740 0.1153 0.0934
H24 H 0.5309 -0.1837 0.0971
C15 C 0.28962(11) 0.0975(2) 0.06580(7)
H25 H 0.2749 -0.0626 0.0270
H26 H 0.3246 0.2347 0.0296
loop_
_geom_bond_atom_site_label_1
_geom_bond_atom_site_label_2
_geom_bond_site_symmetry_1
_geom_bond_site_symmetry_2
N1 C3 1_555 1_555
N2 C4 1_555 1_555
C1 H1 1_555 1_555
H2 C1 1_555 1_555
C2 C1 1_555 1_555
H3 C2 1_555 1_555
C3 C2 1_555 1_555
H4 C3 1_555 1_555
C4 N1 1_555 1_555
H5 C4 1_555 1_555
C5 C4 1_555 1_555
H6 C5 1_555 1_555
H7 C5 1_555 1_555
C6 C5 1_555 1_555
H8 C6 1_555 1_555
H9 C6 1_555 1_555
C7 C6 1_555 1_555
H10 C7 1_555 1_555
H11 C7 1_555 1_555
C8 C1 1_555 1_555
H12 C8 1_555 1_555
H13 C8 1_555 1_555
C9 N1 1_555 1_555
H14 C9 1_555 1_555
H15 C9 1_555 1_555
C10 C2 1_555 1_555
H16 C10 1_555 1_555
H17 C10 1_555 1_555
C11 C10 1_555 1_555
H18 C11 1_555 1_555
H19 C11 1_555 1_555
C12 C11 1_555 1_555
H20 C12 1_555 1_555
H21 C12 1_555 1_555
C13 C3 1_555 1_555
H22 C13 1_555 1_555
C14 N2 1_555 1_555
H23 C14 1_555 1_555
H24 C14 1_555 1_555
C15 N2 1_555 1_555
H25 C15 1_555 1_555
H26 C15 1_555 1_555
C7 C15 1_555 1_555
C8 C9 1_555 1_555
C12 C13 1_555 1_555
C13 C14 1_555 1_555

#END
